# Generated by pormake.
# Topology ptr, (4,4)-cn, num edge types: 1
# Building blocks:
#     Node 0, Type 0, BuildingBlock: AZAVOO_clean_sbu_0, # of connection points: 4
#     Node 1, Type 0, BuildingBlock: AZAVOO_clean_sbu_0, # of connection points: 4
#     Node 2, Type 0, BuildingBlock: AZAVOO_clean_sbu_0, # of connection points: 4
#     Node 3, Type 0, BuildingBlock: AZAVOO_clean_sbu_0, # of connection points: 4
#     Node 4, Type 0, BuildingBlock: AZAVOO_clean_sbu_0, # of connection points: 4
#     Node 5, Type 0, BuildingBlock: AZAVOO_clean_sbu_0, # of connection points: 4
#     Node 6, Type 0, BuildingBlock: AZAVOO_clean_sbu_0, # of connection points: 4
#     Node 7, Type 0, BuildingBlock: AZAVOO_clean_sbu_0, # of connection points: 4
#     Node 8, Type 0, BuildingBlock: AZAVOO_clean_sbu_0, # of connection points: 4
#     Node 9, Type 0, BuildingBlock: AZAVOO_clean_sbu_0, # of connection points: 4
#     Node 10, Type 0, BuildingBlock: AZAVOO_clean_sbu_0, # of connection points: 4
#     Node 11, Type 0, BuildingBlock: AZAVOO_clean_sbu_0, # of connection points: 4
#     Node 12, Type 0, BuildingBlock: AZAVOO_clean_sbu_0, # of connection points: 4
#     Node 13, Type 0, BuildingBlock: AZAVOO_clean_sbu_0, # of connection points: 4
#     Node 14, Type 0, BuildingBlock: AZAVOO_clean_sbu_0, # of connection points: 4
#     Node 15, Type 0, BuildingBlock: AZAVOO_clean_sbu_0, # of connection points: 4
#     Node 16, Type 0, BuildingBlock: AZAVOO_clean_sbu_0, # of connection points: 4
#     Node 17, Type 0, BuildingBlock: AZAVOO_clean_sbu_0, # of connection points: 4
#     Node 18, Type 1, BuildingBlock: MIFKUJ_clean_linker_1, # of connection points: 4
#     Node 19, Type 1, BuildingBlock: MIFKUJ_clean_linker_1, # of connection points: 4
#     Node 20, Type 1, BuildingBlock: MIFKUJ_clean_linker_1, # of connection points: 4
#     Node 21, Type 1, BuildingBlock: MIFKUJ_clean_linker_1, # of connection points: 4
#     Node 22, Type 1, BuildingBlock: MIFKUJ_clean_linker_1, # of connection points: 4
#     Node 23, Type 1, BuildingBlock: MIFKUJ_clean_linker_1, # of connection points: 4
#     Node 24, Type 1, BuildingBlock: MIFKUJ_clean_linker_1, # of connection points: 4
#     Node 25, Type 1, BuildingBlock: MIFKUJ_clean_linker_1, # of connection points: 4
#     Node 26, Type 1, BuildingBlock: MIFKUJ_clean_linker_1, # of connection points: 4
#     Node 27, Type 1, BuildingBlock: MIFKUJ_clean_linker_1, # of connection points: 4
#     Node 28, Type 1, BuildingBlock: MIFKUJ_clean_linker_1, # of connection points: 4
#     Node 29, Type 1, BuildingBlock: MIFKUJ_clean_linker_1, # of connection points: 4
#     Node 30, Type 1, BuildingBlock: MIFKUJ_clean_linker_1, # of connection points: 4
#     Node 31, Type 1, BuildingBlock: MIFKUJ_clean_linker_1, # of connection points: 4
#     Node 32, Type 1, BuildingBlock: MIFKUJ_clean_linker_1, # of connection points: 4
#     Node 33, Type 1, BuildingBlock: MIFKUJ_clean_linker_1, # of connection points: 4
#     Node 34, Type 1, BuildingBlock: MIFKUJ_clean_linker_1, # of connection points: 4
#     Node 35, Type 1, BuildingBlock: MIFKUJ_clean_linker_1, # of connection points: 4
#     Edge 36, Type (0, 1), BuildingBlock: MIFKUJ_clean_linker_0, # of connection points: 2
#     Edge 37, Type (0, 1), BuildingBlock: MIFKUJ_clean_linker_0, # of connection points: 2
#     Edge 38, Type (0, 1), BuildingBlock: MIFKUJ_clean_linker_0, # of connection points: 2
#     Edge 39, Type (0, 1), BuildingBlock: MIFKUJ_clean_linker_0, # of connection points: 2
#     Edge 40, Type (0, 1), BuildingBlock: MIFKUJ_clean_linker_0, # of connection points: 2
#     Edge 41, Type (0, 1), BuildingBlock: MIFKUJ_clean_linker_0, # of connection points: 2
#     Edge 42, Type (0, 1), BuildingBlock: MIFKUJ_clean_linker_0, # of connection points: 2
#     Edge 43, Type (0, 1), BuildingBlock: MIFKUJ_clean_linker_0, # of connection points: 2
#     Edge 44, Type (0, 1), BuildingBlock: MIFKUJ_clean_linker_0, # of connection points: 2
#     Edge 45, Type (0, 1), BuildingBlock: MIFKUJ_clean_linker_0, # of connection points: 2
#     Edge 46, Type (0, 1), BuildingBlock: MIFKUJ_clean_linker_0, # of connection points: 2
#     Edge 47, Type (0, 1), BuildingBlock: MIFKUJ_clean_linker_0, # of connection points: 2
#     Edge 48, Type (0, 1), BuildingBlock: MIFKUJ_clean_linker_0, # of connection points: 2
#     Edge 49, Type (0, 1), BuildingBlock: MIFKUJ_clean_linker_0, # of connection points: 2
#     Edge 50, Type (0, 1), BuildingBlock: MIFKUJ_clean_linker_0, # of connection points: 2
#     Edge 51, Type (0, 1), BuildingBlock: MIFKUJ_clean_linker_0, # of connection points: 2
#     Edge 52, Type (0, 1), BuildingBlock: MIFKUJ_clean_linker_0, # of connection points: 2
#     Edge 53, Type (0, 1), BuildingBlock: MIFKUJ_clean_linker_0, # of connection points: 2
#     Edge 54, Type (0, 1), BuildingBlock: MIFKUJ_clean_linker_0, # of connection points: 2
#     Edge 55, Type (0, 1), BuildingBlock: MIFKUJ_clean_linker_0, # of connection points: 2
#     Edge 56, Type (0, 1), BuildingBlock: MIFKUJ_clean_linker_0, # of connection points: 2
#     Edge 57, Type (0, 1), BuildingBlock: MIFKUJ_clean_linker_0, # of connection points: 2
#     Edge 58, Type (0, 1), BuildingBlock: MIFKUJ_clean_linker_0, # of connection points: 2
#     Edge 59, Type (0, 1), BuildingBlock: MIFKUJ_clean_linker_0, # of connection points: 2
#     Edge 60, Type (0, 1), BuildingBlock: MIFKUJ_clean_linker_0, # of connection points: 2
#     Edge 61, Type (0, 1), BuildingBlock: MIFKUJ_clean_linker_0, # of connection points: 2
#     Edge 62, Type (0, 1), BuildingBlock: MIFKUJ_clean_linker_0, # of connection points: 2
#     Edge 63, Type (0, 1), BuildingBlock: MIFKUJ_clean_linker_0, # of connection points: 2
#     Edge 64, Type (0, 1), BuildingBlock: MIFKUJ_clean_linker_0, # of connection points: 2
#     Edge 65, Type (0, 1), BuildingBlock: MIFKUJ_clean_linker_0, # of connection points: 2
#     Edge 66, Type (0, 1), BuildingBlock: MIFKUJ_clean_linker_0, # of connection points: 2
#     Edge 67, Type (0, 1), BuildingBlock: MIFKUJ_clean_linker_0, # of connection points: 2
#     Edge 68, Type (0, 1), BuildingBlock: MIFKUJ_clean_linker_0, # of connection points: 2
#     Edge 69, Type (0, 1), BuildingBlock: MIFKUJ_clean_linker_0, # of connection points: 2
#     Edge 70, Type (0, 1), BuildingBlock: MIFKUJ_clean_linker_0, # of connection points: 2
#     Edge 71, Type (0, 1), BuildingBlock: MIFKUJ_clean_linker_0, # of connection points: 2
#     Edge 72, Type (0, 1), BuildingBlock: MIFKUJ_clean_linker_0, # of connection points: 2
#     Edge 73, Type (0, 1), BuildingBlock: MIFKUJ_clean_linker_0, # of connection points: 2
#     Edge 74, Type (0, 1), BuildingBlock: MIFKUJ_clean_linker_0, # of connection points: 2
#     Edge 75, Type (0, 1), BuildingBlock: MIFKUJ_clean_linker_0, # of connection points: 2
#     Edge 76, Type (0, 1), BuildingBlock: MIFKUJ_clean_linker_0, # of connection points: 2
#     Edge 77, Type (0, 1), BuildingBlock: MIFKUJ_clean_linker_0, # of connection points: 2
#     Edge 78, Type (0, 1), BuildingBlock: MIFKUJ_clean_linker_0, # of connection points: 2
#     Edge 79, Type (0, 1), BuildingBlock: MIFKUJ_clean_linker_0, # of connection points: 2
#     Edge 80, Type (0, 1), BuildingBlock: MIFKUJ_clean_linker_0, # of connection points: 2
#     Edge 81, Type (0, 1), BuildingBlock: MIFKUJ_clean_linker_0, # of connection points: 2
#     Edge 82, Type (0, 1), BuildingBlock: MIFKUJ_clean_linker_0, # of connection points: 2
#     Edge 83, Type (0, 1), BuildingBlock: MIFKUJ_clean_linker_0, # of connection points: 2
#     Edge 84, Type (0, 1), BuildingBlock: MIFKUJ_clean_linker_0, # of connection points: 2
#     Edge 85, Type (0, 1), BuildingBlock: MIFKUJ_clean_linker_0, # of connection points: 2
#     Edge 86, Type (0, 1), BuildingBlock: MIFKUJ_clean_linker_0, # of connection points: 2
#     Edge 87, Type (0, 1), BuildingBlock: MIFKUJ_clean_linker_0, # of connection points: 2
#     Edge 88, Type (0, 1), BuildingBlock: MIFKUJ_clean_linker_0, # of connection points: 2
#     Edge 89, Type (0, 1), BuildingBlock: MIFKUJ_clean_linker_0, # of connection points: 2
#     Edge 90, Type (0, 1), BuildingBlock: MIFKUJ_clean_linker_0, # of connection points: 2
#     Edge 91, Type (0, 1), BuildingBlock: MIFKUJ_clean_linker_0, # of connection points: 2
#     Edge 92, Type (0, 1), BuildingBlock: MIFKUJ_clean_linker_0, # of connection points: 2
#     Edge 93, Type (0, 1), BuildingBlock: MIFKUJ_clean_linker_0, # of connection points: 2
#     Edge 94, Type (0, 1), BuildingBlock: MIFKUJ_clean_linker_0, # of connection points: 2
#     Edge 95, Type (0, 1), BuildingBlock: MIFKUJ_clean_linker_0, # of connection points: 2
#     Edge 96, Type (0, 1), BuildingBlock: MIFKUJ_clean_linker_0, # of connection points: 2
#     Edge 97, Type (0, 1), BuildingBlock: MIFKUJ_clean_linker_0, # of connection points: 2
#     Edge 98, Type (0, 1), BuildingBlock: MIFKUJ_clean_linker_0, # of connection points: 2
#     Edge 99, Type (0, 1), BuildingBlock: MIFKUJ_clean_linker_0, # of connection points: 2
#     Edge 100, Type (0, 1), BuildingBlock: MIFKUJ_clean_linker_0, # of connection points: 2
#     Edge 101, Type (0, 1), BuildingBlock: MIFKUJ_clean_linker_0, # of connection points: 2
#     Edge 102, Type (0, 1), BuildingBlock: MIFKUJ_clean_linker_0, # of connection points: 2
#     Edge 103, Type (0, 1), BuildingBlock: MIFKUJ_clean_linker_0, # of connection points: 2
#     Edge 104, Type (0, 1), BuildingBlock: MIFKUJ_clean_linker_0, # of connection points: 2
#     Edge 105, Type (0, 1), BuildingBlock: MIFKUJ_clean_linker_0, # of connection points: 2
#     Edge 106, Type (0, 1), BuildingBlock: MIFKUJ_clean_linker_0, # of connection points: 2
#     Edge 107, Type (0, 1), BuildingBlock: MIFKUJ_clean_linker_0, # of connection points: 2
# Relax obj value: 0.079
# Max RMSD: 0.276
# Mean RMSD: 0.120
data_MOF--net-ptr--node1-AZAVOO_clean_sbu_0--node2-MIFKUJ_clean_linker_1--edge1-MIFKUJ_clean_linker_0
_symmetry_space_group_name_H-M    P1
_symmetry_Int_Tables_number       1
_symmetry_cell_setting            triclinic
loop_
_symmetry_equiv_pos_as_xyz
'x, y, z'
_cell_length_a     113.05363
_cell_length_b     111.23539
_cell_length_c     74.066363
_cell_angle_alpha  91.014445
_cell_angle_beta   90.785512
_cell_angle_gamma 120.05744
loop_
_atom_site_label
_atom_site_type_symbol
_atom_site_fract_x
_atom_site_fract_y
_atom_site_fract_z
_atom_type_partial_charge
Mg0 Mg 0.01147 0.34141 0.98534 0.0
O1 O 0.00356 0.34898 0.00901 0.0
O2 O 0.98532 0.3497 0.9983 0.0
Mg3 Mg 0.98225 0.34388 0.96822 0.0
C4 C 0.99366 0.3513 0.01117 0.0
C5 C 0.03588 0.34495 0.01031 0.0
O6 O 0.04114 0.35787 0.0053 0.0
O7 O 0.99338 0.31927 0.98647 0.0
O8 O 0.97641 0.32143 0.97422 0.0
O9 O 0.02525 0.36347 0.97777 0.0
O10 O 0.00414 0.3504 0.96711 0.0
C11 C 0.981 0.31399 0.98082 0.0
C12 C 0.01511 0.36238 0.9681 0.0
O13 O 0.02388 0.336 0.00477 0.0
Mg14 Mg 0.65833 0.65183 0.03936 0.0
O15 O 0.64161 0.64465 0.01709 0.0
O16 O 0.623 0.64279 0.02993 0.0
Mg17 Mg 0.62728 0.64717 0.06031 0.0
C18 C 0.62926 0.64206 0.01612 0.0
C19 C 0.68472 0.65655 0.0222 0.0
O20 O 0.68499 0.65128 0.03784 0.0
O21 O 0.66109 0.67356 0.04052 0.0
O22 O 0.64259 0.67012 0.05525 0.0
O23 O 0.65185 0.62982 0.04506 0.0
O24 O 0.64352 0.64175 0.05857 0.0
C25 C 0.65398 0.67817 0.04794 0.0
C26 C 0.64331 0.63013 0.05626 0.0
O27 O 0.67465 0.65817 0.01826 0.0
Mg28 Mg 0.33905 0.97974 0.97859 0.0
O29 O 0.35786 0.99128 0.99754 0.0
O30 O 0.37596 0.00477 0.98107 0.0
Mg31 Mg 0.36843 0.00252 0.95169 0.0
C32 C 0.37062 -0.00012 0.99622 0.0
C33 C 0.31425 0.97368 0.00158 0.0
O34 O 0.31119 0.97763 0.98646 0.0
O35 O 0.33756 0.99919 0.97572 0.0
O36 O 0.35547 0.01257 0.95884 0.0
O37 O 0.34454 0.96325 0.97435 0.0
O38 O 0.35136 0.9816 0.95721 0.0
C39 C 0.34486 0.01039 0.96739 0.0
C40 C 0.35187 0.97066 0.96121 0.0
O41 O 0.32529 0.97332 0.00277 0.0
Mg42 Mg 0.99073 0.66241 0.03591 0.0
O43 O 0.99917 0.65323 0.01482 0.0
O44 O 0.01419 0.64918 0.02947 0.0
Mg45 Mg 0.01595 0.65614 0.05896 0.0
C46 C 0.00761 0.64874 0.01509 0.0
C47 C 0.97078 0.66002 0.00446 0.0
O48 O 0.9659 0.64678 0.00753 0.0
O49 O 0.01038 0.68357 0.0363 0.0
O50 O 0.02487 0.67892 0.05123 0.0
O51 O 0.97473 0.64078 0.0425 0.0
O52 O 0.99492 0.6523 0.05639 0.0
C53 C 0.02217 0.68742 0.04334 0.0
C54 C 0.98352 0.64085 0.05395 0.0
O55 O 0.98121 0.66902 0.01354 0.0
Mg56 Mg 0.34511 0.349 0.98123 0.0
O57 O 0.36231 0.35527 0.00259 0.0
O58 O 0.38121 0.35974 0.98802 0.0
Mg59 Mg 0.37611 0.35612 0.95774 0.0
C60 C 0.375 0.35902 0.0026 0.0
C61 C 0.33014 0.34719 0.01767 0.0
O62 O 0.34152 0.35881 0.02169 0.0
O63 O 0.34301 0.3277 0.97714 0.0
O64 O 0.36165 0.33274 0.96156 0.0
O65 O 0.35133 0.37135 0.97868 0.0
O66 O 0.3594 0.36042 0.96217 0.0
C67 C 0.35045 0.32395 0.96869 0.0
C68 C 0.35976 0.37184 0.96664 0.0
O69 O 0.32895 0.34091 0.00267 0.0
Mg70 Mg 0.6585 0.01117 0.03249 0.0
O71 O 0.64384 0.00357 0.00786 0.0
O72 O 0.62343 0.98693 0.01673 0.0
Mg73 Mg 0.62484 0.98464 0.04716 0.0
C74 C 0.63134 0.99452 0.00448 0.0
C75 C 0.68853 0.02714 0.02068 0.0
O76 O 0.6902 0.0281 0.03834 0.0
O77 O 0.65952 0.99131 0.03231 0.0
O78 O 0.63928 0.97595 0.04313 0.0
O79 O 0.65296 0.02741 0.03871 0.0
O80 O 0.64223 0.00619 0.04935 0.0
C81 C 0.65112 0.97915 0.03758 0.0
C82 C 0.64306 0.01812 0.04797 0.0
O83 O 0.67649 0.02096 0.01386 0.0
Mg84 Mg 0.68035 0.67609 0.32089 0.0
O85 O 0.66886 0.68269 0.34034 0.0
O86 O 0.65455 0.68651 0.3235 0.0
Mg87 Mg 0.65782 0.68373 0.29354 0.0
C88 C 0.6596 0.68602 0.33882 0.0
C89 C 0.69604 0.67639 0.35603 0.0
O90 O 0.69943 0.68953 0.35564 0.0
O91 O 0.66122 0.65475 0.31559 0.0
O92 O 0.64931 0.66033 0.2965 0.0
O93 O 0.6966 0.69846 0.31871 0.0
O94 O 0.67838 0.68774 0.30062 0.0
C95 C 0.65104 0.65134 0.3048 0.0
C96 C 0.68926 0.69906 0.30558 0.0
O97 O 0.68772 0.66797 0.34403 0.0
Mg98 Mg 0.32347 0.9869 0.3758 0.0
O99 O 0.30511 0.97916 0.35591 0.0
O100 O 0.28731 0.9767 0.37155 0.0
Mg101 Mg 0.29418 0.98292 0.40104 0.0
C102 C 0.29257 0.97589 0.35676 0.0
C103 C 0.33585 0.98284 0.34051 0.0
O104 O 0.32502 0.97043 0.34165 0.0
O105 O 0.3263 0.00867 0.37672 0.0
O106 O 0.30869 0.00556 0.39334 0.0
O107 O 0.31733 0.96505 0.3821 0.0
O108 O 0.31027 0.97755 0.39705 0.0
C109 C 0.31949 0.01341 0.38472 0.0
C110 C 0.30972 0.96579 0.39447 0.0
O111 O 0.33792 0.99215 0.35235 0.0
Mg112 Mg 0.01564 0.32465 0.32034 0.0
O113 O 0.0332 0.33321 0.3414 0.0
O114 O 0.05242 0.34774 0.32753 0.0
Mg115 Mg 0.04739 0.34719 0.29738 0.0
C116 C 0.04604 0.34181 0.34173 0.0
C117 C 0.98995 0.31902 0.34168 0.0
O118 O 0.98858 0.32544 0.32778 0.0
O119 O 0.01665 0.34559 0.31972 0.0
O120 O 0.03525 0.35821 0.30358 0.0
O121 O 0.01863 0.30668 0.31376 0.0
O122 O 0.02888 0.32675 0.30004 0.0
C123 C 0.02478 0.35677 0.31183 0.0
C124 C 0.02722 0.31452 0.30189 0.0
O125 O 0.00021 0.31726 0.34268 0.0
Mg126 Mg 0.65522 0.98797 0.36376 0.0
O127 O 0.66572 0.98054 0.3433 0.0
O128 O 0.68128 0.97799 0.3591 0.0
Mg129 Mg 0.68158 0.98442 0.38848 0.0
C130 C 0.67501 0.97718 0.34427 0.0
C131 C 0.63221 0.9894 0.34464 0.0
O132 O 0.62732 0.98354 0.36011 0.0
O133 O 0.67363 0.01005 0.36485 0.0
O134 O 0.68902 0.00685 0.3801 0.0
O135 O 0.64057 0.9658 0.36953 0.0
O136 O 0.6601 0.97871 0.3846 0.0
C137 C 0.68553 0.01468 0.37198 0.0
C138 C 0.64941 0.96671 0.38157 0.0
O139 O 0.64451 0.99297 0.34114 0.0
Mg140 Mg 0.01553 0.68537 0.32082 0.0
O141 O 0.03103 0.69254 0.3447 0.0
O142 O 0.05104 0.69673 0.33376 0.0
Mg143 Mg 0.04869 0.69336 0.30314 0.0
C144 C 0.04362 0.69615 0.34692 0.0
C145 C 0.99713 0.6856 0.35132 0.0
O146 O 0.00664 0.69878 0.35141 0.0
O147 O 0.01439 0.66436 0.31863 0.0
O148 O 0.03448 0.66991 0.30659 0.0
O149 O 0.02084 0.70721 0.31629 0.0
O150 O 0.03127 0.69713 0.30333 0.0
C151 C 0.02279 0.66095 0.31231 0.0
C152 C 0.03038 0.70814 0.30593 0.0
O153 O 0.99799 0.67716 0.34037 0.0
Mg154 Mg 0.32209 0.35226 0.36628 0.0
O155 O 0.30454 0.33979 0.34571 0.0
O156 O 0.28583 0.32623 0.36119 0.0
Mg157 Mg 0.29127 0.33027 0.39138 0.0
C158 C 0.29187 0.33064 0.34627 0.0
C159 C 0.33797 0.36471 0.33057 0.0
O160 O 0.32906 0.36896 0.32886 0.0
O161 O 0.3235 0.3331 0.37236 0.0
O162 O 0.30518 0.3208 0.38907 0.0
O163 O 0.31702 0.36934 0.36776 0.0
O164 O 0.3082 0.35107 0.38515 0.0
C165 C 0.31613 0.32258 0.38185 0.0
C166 C 0.30861 0.36232 0.38027 0.0
O167 O 0.33756 0.3578 0.34423 0.0
Mg168 Mg 0.34299 0.01267 0.65603 0.0
O169 O 0.33233 0.01901 0.67737 0.0
O170 O 0.31549 0.02023 0.66283 0.0
Mg171 Mg 0.31616 0.01611 0.63265 0.0
C172 C 0.32221 0.02113 0.67729 0.0
C173 C 0.36153 0.00284 0.67212 0.0
O174 O 0.36264 0.00182 0.6546 0.0
O175 O 0.32484 0.99047 0.65409 0.0
O176 O 0.30971 0.9934 0.6379 0.0
O177 O 0.35769 0.03498 0.65101 0.0
O178 O 0.33793 0.0226 0.6363 0.0
C179 C 0.31331 0.98555 0.64575 0.0
C180 C 0.34882 0.03446 0.6393 0.0
O181 O 0.35356 0.00693 0.67785 0.0
Mg182 Mg 0.98548 0.3189 0.70365 0.0
O183 O 0.96866 0.31069 0.68138 0.0
O184 O 0.94947 0.30714 0.69442 0.0
Mg185 Mg 0.95352 0.31134 0.72485 0.0
C186 C 0.95602 0.30715 0.68051 0.0
C187 C 0.00303 0.3176 0.6727 0.0
O188 O 0.99399 0.30437 0.67422 0.0
O189 O 0.98631 0.33983 0.70498 0.0
O190 O 0.96743 0.33462 0.72006 0.0
O191 O 0.98075 0.2973 0.70921 0.0
O192 O 0.9709 0.30771 0.72278 0.0
C193 C 0.97849 0.34344 0.7127 0.0
C194 C 0.97176 0.29668 0.72038 0.0
O195 O 0.00205 0.3265 0.6826 0.0
Mg196 Mg 0.67706 0.64885 0.65144 0.0
O197 O 0.69552 0.6603 0.67093 0.0
O198 O 0.71391 0.67311 0.65454 0.0
Mg199 Mg 0.70706 0.67007 0.62471 0.0
C200 C 0.70832 0.66875 0.66972 0.0
C201 C 0.65 0.63643 0.6698 0.0
O202 O 0.64682 0.63305 0.65261 0.0
O203 O 0.67649 0.66865 0.64732 0.0
O204 O 0.69433 0.68076 0.62973 0.0
O205 O 0.68134 0.63139 0.64819 0.0
O206 O 0.68952 0.64965 0.63077 0.0
C207 C 0.68389 0.67932 0.63808 0.0
C208 C 0.68898 0.63821 0.63494 0.0
O209 O 0.66254 0.64331 0.67462 0.0
Mg210 Mg 0.32501 0.32448 0.7011 0.0
O211 O 0.33487 0.31775 0.67908 0.0
O212 O 0.35084 0.3146 0.69277 0.0
Mg213 Mg 0.35081 0.31858 0.72317 0.0
C214 C 0.34427 0.31457 0.67859 0.0
C215 C 0.30454 0.32312 0.67105 0.0
O216 O 0.29951 0.30979 0.6736 0.0
O217 O 0.34398 0.34617 0.70382 0.0
O218 O 0.35861 0.34173 0.71873 0.0
O219 O 0.30978 0.30203 0.70515 0.0
O220 O 0.32948 0.31368 0.7202 0.0
C221 C 0.35556 0.35026 0.71169 0.0
C222 C 0.31852 0.30203 0.71662 0.0
O223 O 0.3153 0.33182 0.67985 0.0
Mg224 Mg 0.68534 0.01637 0.64721 0.0
O225 O 0.7019 0.02258 0.66946 0.0
O226 O 0.72102 0.02618 0.65622 0.0
Mg227 Mg 0.71694 0.02321 0.62566 0.0
C228 C 0.71443 0.02574 0.67029 0.0
C229 C 0.65663 0.0035 0.66213 0.0
O230 O 0.65435 0.0018 0.64457 0.0
O231 O 0.68298 0.99484 0.64352 0.0
O232 O 0.70197 -0.0001 0.62879 0.0
O233 O 0.6917 0.03867 0.6441 0.0
O234 O 0.70017 0.02767 0.62861 0.0
C235 C 0.69054 0.99109 0.63538 0.0
C236 C 0.70032 0.03908 0.63245 0.0
O237 O 0.66886 0.00894 0.66818 0.0
Mg238 Mg 0.98887 0.68415 0.69237 0.0
O239 O 0.97206 0.67313 0.67035 0.0
O240 O 0.95235 0.66106 0.68463 0.0
Mg241 Mg 0.95623 0.66508 0.7151 0.0
C242 C 0.95913 0.66484 0.67013 0.0
C243 C 0.01635 0.68935 0.67885 0.0
O244 O 0.01714 0.68758 0.69623 0.0
O245 O 0.98716 0.66355 0.69926 0.0
O246 O 0.96796 0.65312 0.7149 0.0
O247 O 0.98643 0.70296 0.6925 0.0
O248 O 0.97479 0.68462 0.70932 0.0
C249 C 0.97858 0.65347 0.70854 0.0
C250 C 0.97691 0.69647 0.70403 0.0
O251 O 0.00546 0.68842 0.67234 0.0
H252 H 0.14698 0.31137 0.18493 0.0
H253 H 0.12737 0.30966 0.20072 0.0
H254 H 0.10023 0.27319 0.16822 0.0
H255 H 0.11998 0.27501 0.15226 0.0
H256 H 0.15573 0.2924 0.1829 0.0
H257 H 0.1433 0.31771 0.14483 0.0
H258 H 0.12798 0.32281 0.12731 0.0
H259 H 0.11786 0.28769 0.09152 0.0
H260 H 0.1331 0.28246 0.10944 0.0
H261 H 0.17468 0.28187 0.11737 0.0
H262 H 0.19611 0.28701 0.10334 0.0
H263 H 0.21679 0.3267 0.13226 0.0
H264 H 0.19546 0.3211 0.14682 0.0
H265 H 0.16172 0.29985 0.11704 0.0
H266 H 0.18327 0.28183 0.1579 0.0
H267 H 0.20111 0.28334 0.17868 0.0
H268 H 0.19702 0.31312 0.21221 0.0
H269 H 0.17971 0.31208 0.19119 0.0
C270 C 0.13489 0.29332 0.16745 0.0
C271 C 0.13681 0.30301 0.1812 0.0
C272 C 0.12562 0.30207 0.19011 0.0
C273 C 0.11233 0.29132 0.18559 0.0
C274 C 0.1104 0.28153 0.17194 0.0
C275 C 0.12162 0.28259 0.16281 0.0
C276 C 0.14688 0.29449 0.15814 0.0
C277 C 0.15709 0.29403 0.1685 0.0
C278 C 0.14857 0.29671 0.1394 0.0
C279 C 0.1392 0.2996 0.12856 0.0
C280 C 0.13769 0.31103 0.13331 0.0
C281 C 0.12903 0.31401 0.12318 0.0
C282 C 0.12173 0.30567 0.10801 0.0
C283 C 0.12325 0.29422 0.10324 0.0
C284 C 0.13201 0.29127 0.11338 0.0
C285 C 0.18357 0.30108 0.13315 0.0
C286 C 0.18388 0.29165 0.12066 0.0
C287 C 0.19613 0.29465 0.11261 0.0
C288 C 0.20824 0.30728 0.11664 0.0
C289 C 0.20778 0.31675 0.12908 0.0
C290 C 0.19557 0.31364 0.13731 0.0
C291 C 0.17068 0.29784 0.14188 0.0
C292 C 0.16026 0.29788 0.13136 0.0
C293 C 0.16916 0.29603 0.16074 0.0
C294 C 0.18017 0.29691 0.17289 0.0
C295 C 0.18639 0.28888 0.16953 0.0
C296 C 0.19651 0.28969 0.18142 0.0
C297 C 0.20032 0.29827 0.19705 0.0
C298 C 0.19413 0.3063 0.20035 0.0
C299 C 0.18423 0.30569 0.18835 0.0
H300 H 0.72287 0.88962 0.20066 0.0
H301 H 0.71864 0.90527 0.21965 0.0
H302 H 0.67843 0.88824 0.19477 0.0
H303 H 0.68254 0.87237 0.17633 0.0
H304 H 0.7089 0.86125 0.20028 0.0
H305 H 0.71779 0.89667 0.15598 0.0
H306 H 0.71227 0.91154 0.13784 0.0
H307 H 0.67646 0.87505 0.11567 0.0
H308 H 0.68172 0.86038 0.13419 0.0
H309 H 0.68331 0.83004 0.13605 0.0
H310 H 0.67964 0.80971 0.11856 0.0
H311 H 0.71807 0.81533 0.1393 0.0
H312 H 0.72198 0.83619 0.15632 0.0
H313 H 0.7019 0.85597 0.13374 0.0
H314 H 0.68673 0.82226 0.18039 0.0
H315 H 0.68699 0.80426 0.19843 0.0
H316 H 0.72875 0.83308 0.21554 0.0
H317 H 0.72823 0.85119 0.19776 0.0
C318 C 0.7031 0.87994 0.18692 0.0
C319 C 0.71319 0.88934 0.19924 0.0
C320 C 0.71079 0.89834 0.20999 0.0
C321 C 0.69819 0.898 0.20872 0.0
C322 C 0.68818 0.88868 0.19621 0.0
C323 C 0.69059 0.87971 0.18549 0.0
C324 C 0.70523 0.86976 0.17631 0.0
C325 C 0.70769 0.86031 0.18567 0.0
C326 C 0.70324 0.86822 0.15732 0.0
C327 C 0.70013 0.87743 0.14651 0.0
C328 C 0.7087 0.89192 0.14731 0.0
C329 C 0.70561 0.90038 0.13682 0.0
C330 C 0.69391 0.89446 0.12537 0.0
C331 C 0.68544 0.87994 0.12454 0.0
C332 C 0.6885 0.87154 0.13501 0.0
C333 C 0.70289 0.83463 0.14756 0.0
C334 C 0.691 0.82697 0.13679 0.0
C335 C 0.68885 0.81524 0.12692 0.0
C336 C 0.69851 0.81081 0.12765 0.0
C337 C 0.71048 0.81852 0.13837 0.0
C338 C 0.71266 0.83035 0.14824 0.0
C339 C 0.70491 0.84716 0.15776 0.0
C340 C 0.70342 0.85713 0.14831 0.0
C341 C 0.7072 0.84883 0.17668 0.0
C342 C 0.70751 0.83798 0.1876 0.0
C343 C 0.69595 0.82467 0.18798 0.0
C344 C 0.69615 0.81437 0.19824 0.0
C345 C 0.70794 0.81717 0.20834 0.0
C346 C 0.71947 0.8306 0.20807 0.0
C347 C 0.71922 0.84094 0.19786 0.0
H348 H 0.1281 0.85777 0.19009 0.0
H349 H 0.11171 0.83868 0.2082 0.0
H350 H 0.12178 0.81065 0.18022 0.0
H351 H 0.1387 0.82991 0.16304 0.0
H352 H 0.15462 0.86833 0.19085 0.0
H353 H 0.11988 0.84757 0.14372 0.0
H354 H 0.10273 0.82796 0.12517 0.0
H355 H 0.13441 0.82102 0.10433 0.0
H356 H 0.15146 0.84065 0.12274 0.0
H357 H 0.18762 0.87314 0.13292 0.0
H358 H 0.20892 0.88994 0.11898 0.0
H359 H 0.20125 0.92309 0.13388 0.0
H360 H 0.17992 0.90618 0.14806 0.0
H361 H 0.16062 0.86723 0.12475 0.0
H362 H 0.1931 0.88225 0.17447 0.0
H363 H 0.21054 0.89781 0.19656 0.0
H364 H 0.18432 0.91375 0.213 0.0
H365 H 0.16677 0.89784 0.19111 0.0
C366 C 0.13454 0.84527 0.17506 0.0
C367 C 0.12669 0.84748 0.18779 0.0
C368 C 0.11725 0.83653 0.19803 0.0
C369 C 0.11546 0.82313 0.19573 0.0
C370 C 0.12304 0.82087 0.18255 0.0
C371 C 0.13258 0.83185 0.17248 0.0
C372 C 0.14566 0.85716 0.16568 0.0
C373 C 0.15569 0.86827 0.17632 0.0
C374 C 0.14731 0.85688 0.14677 0.0
C375 C 0.13695 0.84553 0.13474 0.0
C376 C 0.12312 0.84184 0.13511 0.0
C377 C 0.11333 0.83061 0.12452 0.0
C378 C 0.11718 0.82289 0.11328 0.0
C379 C 0.1311 0.82686 0.1126 0.0
C380 C 0.14087 0.83807 0.12318 0.0
C381 C 0.18224 0.88845 0.14147 0.0
C382 C 0.19053 0.88402 0.13319 0.0
C383 C 0.20272 0.89362 0.12539 0.0
C384 C 0.20672 0.90778 0.1255 0.0
C385 C 0.19835 0.91221 0.13365 0.0
C386 C 0.18623 0.90261 0.14173 0.0
C387 C 0.1695 0.87818 0.15 0.0
C388 C 0.15924 0.86743 0.13919 0.0
C389 C 0.16769 0.87866 0.16876 0.0
C390 C 0.17869 0.88898 0.18106 0.0
C391 C 0.19121 0.88927 0.18264 0.0
C392 C 0.2012 0.89821 0.19526 0.0
C393 C 0.19886 0.90705 0.20661 0.0
C394 C 0.1864 0.90694 0.20468 0.0
C395 C 0.17638 0.89793 0.19211 0.0
H396 H 0.27684 0.14997 0.82347 0.0
H397 H 0.27915 0.16901 0.80502 0.0
H398 H 0.32086 0.19454 0.82493 0.0
H399 H 0.31817 0.17566 0.8439 0.0
H400 H 0.29434 0.13743 0.82316 0.0
H401 H 0.28141 0.16399 0.86297 0.0
H402 H 0.28505 0.18487 0.87964 0.0
H403 H 0.3199 0.18721 0.90771 0.0
H404 H 0.31649 0.16665 0.89079 0.0
H405 H 0.3153 0.13347 0.89188 0.0
H406 H 0.3174 0.11666 0.9102 0.0
H407 H 0.27967 0.08366 0.88624 0.0
H408 H 0.27772 0.10066 0.86767 0.0
H409 H 0.29699 0.14127 0.89006 0.0
H410 H 0.31364 0.11896 0.85189 0.0
H411 H 0.31508 0.10094 0.83469 0.0
H412 H 0.28011 0.09385 0.80183 0.0
H413 H 0.27801 0.11101 0.82021 0.0
C414 C 0.29729 0.16148 0.83513 0.0
C415 C 0.28644 0.15971 0.82385 0.0
C416 C 0.28784 0.17059 0.81322 0.0
C417 C 0.3002 0.18338 0.81344 0.0
C418 C 0.3111 0.18499 0.82465 0.0
C419 C 0.30962 0.17417 0.83543 0.0
C420 C 0.29583 0.14999 0.84643 0.0
C421 C 0.29462 0.13808 0.83781 0.0
C422 C 0.2968 0.15122 0.86549 0.0
C423 C 0.29876 0.16381 0.87549 0.0
C424 C 0.28993 0.16909 0.87255 0.0
C425 C 0.29196 0.18096 0.88213 0.0
C426 C 0.3027 0.18758 0.89503 0.0
C427 C 0.31142 0.18219 0.89806 0.0
C428 C 0.30949 0.17046 0.88835 0.0
C429 C 0.2964 0.11831 0.87834 0.0
C430 C 0.30739 0.12264 0.8907 0.0
C431 C 0.30853 0.11301 0.90126 0.0
C432 C 0.29865 0.09881 0.89978 0.0
C433 C 0.2875 0.0945 0.88759 0.0
C434 C 0.28637 0.10419 0.87698 0.0
C435 C 0.29569 0.12872 0.86685 0.0
C436 C 0.29645 0.14044 0.87541 0.0
C437 C 0.2949 0.12755 0.84773 0.0
C438 C 0.29552 0.11619 0.83765 0.0
C439 C 0.30601 0.11323 0.84136 0.0
C440 C 0.30698 0.10305 0.83123 0.0
C441 C 0.29776 0.09588 0.81673 0.0
C442 C 0.28726 0.09889 0.81307 0.0
C443 C 0.28613 0.10886 0.82346 0.0
H444 H 0.83932 0.10641 0.83003 0.0
H445 H 0.82094 0.09116 0.80893 0.0
H446 H 0.79264 0.09869 0.83902 0.0
H447 H 0.81134 0.11475 0.85927 0.0
H448 H 0.84941 0.13317 0.83469 0.0
H449 H 0.82508 0.09349 0.87445 0.0
H450 H 0.80572 0.07693 0.8923 0.0
H451 H 0.806 0.11117 0.92105 0.0
H452 H 0.82481 0.12757 0.90295 0.0
H453 H 0.85587 0.1582 0.90507 0.0
H454 H 0.87276 0.17791 0.92336 0.0
H455 H 0.9052 0.17631 0.89521 0.0
H456 H 0.88814 0.15605 0.87744 0.0
H457 H 0.84931 0.13277 0.90155 0.0
H458 H 0.8669 0.17119 0.8634 0.0
H459 H 0.88301 0.19089 0.84616 0.0
H460 H 0.89133 0.1635 0.81343 0.0
H461 H 0.87591 0.14398 0.83169 0.0
C462 C 0.82673 0.11163 0.84641 0.0
C463 C 0.82913 0.10472 0.83214 0.0
C464 C 0.81854 0.09587 0.82015 0.0
C465 C 0.80522 0.0936 0.82221 0.0
C466 C 0.80277 0.10029 0.83681 0.0
C467 C 0.81344 0.10933 0.84863 0.0
C468 C 0.83837 0.12207 0.85794 0.0
C469 C 0.84952 0.1329 0.84933 0.0
C470 C 0.83821 0.12213 0.87705 0.0
C471 C 0.82642 0.1118 0.88735 0.0
C472 C 0.82086 0.09741 0.88445 0.0
C473 C 0.80987 0.08797 0.89466 0.0
C474 C 0.80455 0.09283 0.90814 0.0
C475 C 0.81009 0.10718 0.91093 0.0
C476 C 0.82084 0.11655 0.90059 0.0
C477 C 0.8707 0.15567 0.88975 0.0
C478 C 0.86661 0.16195 0.90297 0.0
C479 C 0.8763 0.17335 0.9133 0.0
C480 C 0.89035 0.17882 0.91061 0.0
C481 C 0.89447 0.17232 0.89769 0.0
C482 C 0.88473 0.16081 0.88739 0.0
C483 C 0.86015 0.14397 0.87832 0.0
C484 C 0.8493 0.13287 0.8869 0.0
C485 C 0.86019 0.14405 0.85921 0.0
C486 C 0.87039 0.15613 0.8491 0.0
C487 C 0.87245 0.16947 0.85282 0.0
C488 C 0.88152 0.18072 0.84271 0.0
C489 C 0.88845 0.17882 0.82829 0.0
C490 C 0.88636 0.16543 0.82459 0.0
C491 C 0.87744 0.15421 0.83492 0.0
H492 H 0.80722 0.67925 0.85314 0.0
H493 H 0.78807 0.67557 0.8334 0.0
H494 H 0.81169 0.71775 0.81556 0.0
H495 H 0.83077 0.72142 0.83546 0.0
H496 H 0.8441 0.70667 0.83148 0.0
H497 H 0.81783 0.67764 0.89568 0.0
H498 H 0.7982 0.67289 0.91392 0.0
H499 H 0.80115 0.71128 0.89701 0.0
H500 H 0.82071 0.71588 0.87861 0.0
H501 H 0.87191 0.7168 0.90098 0.0
H502 H 0.88896 0.71289 0.91642 0.0
H503 H 0.87952 0.6789 0.87885 0.0
H504 H 0.86224 0.68257 0.86397 0.0
H505 H 0.84367 0.69763 0.8969 0.0
H506 H 0.8797 0.72843 0.85122 0.0
H507 H 0.8977 0.7329 0.82987 0.0
H508 H 0.87427 0.69022 0.81009 0.0
H509 H 0.85606 0.68628 0.83054 0.0
C510 C 0.82039 0.70063 0.84583 0.0
C511 C 0.80815 0.68781 0.8453 0.0
C512 C 0.79727 0.68568 0.83392 0.0
C513 C 0.79842 0.69635 0.82289 0.0
C514 C 0.81046 0.70938 0.82403 0.0
C515 C 0.82139 0.71147 0.83531 0.0
C516 C 0.83256 0.7022 0.85581 0.0
C517 C 0.84405 0.70491 0.84586 0.0
C518 C 0.83249 0.69978 0.87451 0.0
C519 C 0.8207 0.69708 0.88573 0.0
C520 C 0.81428 0.68506 0.89597 0.0
C521 C 0.80308 0.68238 0.90642 0.0
C522 C 0.79811 0.69172 0.90693 0.0
C523 C 0.80459 0.70378 0.8967 0.0
C524 C 0.8158 0.70645 0.88622 0.0
C525 C 0.86596 0.70013 0.88114 0.0
C526 C 0.8736 0.70858 0.89603 0.0
C527 C 0.88339 0.70637 0.90476 0.0
C528 C 0.88561 0.69558 0.89886 0.0
C529 C 0.87799 0.68722 0.88385 0.0
C530 C 0.86823 0.68943 0.87515 0.0
C531 C 0.85505 0.70188 0.87245 0.0
C532 C 0.84379 0.69973 0.88263 0.0
C533 C 0.85521 0.7047 0.85393 0.0
C534 C 0.86665 0.70704 0.84241 0.0
C535 C 0.87855 0.72008 0.84227 0.0
C536 C 0.88884 0.72257 0.83011 0.0
C537 C 0.88744 0.71197 0.81805 0.0
C538 C 0.8756 0.69877 0.81874 0.0
C539 C 0.86523 0.69642 0.83059 0.0
H540 H 0.81064 0.6319 0.52695 0.0
H541 H 0.79072 0.62637 0.54492 0.0
H542 H 0.7641 0.60271 0.49984 0.0
H543 H 0.78411 0.60758 0.482 0.0
H544 H 0.82038 0.61823 0.51392 0.0
H545 H 0.80454 0.64642 0.48822 0.0
H546 H 0.788 0.65186 0.47475 0.0
H547 H 0.78331 0.62564 0.42827 0.0
H548 H 0.79957 0.61987 0.44217 0.0
H549 H 0.83919 0.62144 0.44213 0.0
H550 H 0.86059 0.62864 0.42661 0.0
H551 H 0.88268 0.65939 0.46911 0.0
H552 H 0.86119 0.65249 0.48415 0.0
H553 H 0.82646 0.63659 0.45217 0.0
H554 H 0.84987 0.61479 0.48309 0.0
H555 H 0.86857 0.61555 0.50142 0.0
H556 H 0.8619 0.63886 0.54325 0.0
H557 H 0.84373 0.63856 0.52486 0.0
C558 C 0.79893 0.62023 0.50303 0.0
C559 C 0.80055 0.62531 0.52095 0.0
C560 C 0.78918 0.62216 0.53122 0.0
C561 C 0.77596 0.61408 0.52372 0.0
C562 C 0.77424 0.60898 0.50584 0.0
C563 C 0.78565 0.61185 0.49565 0.0
C564 C 0.81124 0.62379 0.49234 0.0
C565 C 0.82173 0.62236 0.50046 0.0
C566 C 0.81302 0.62914 0.47475 0.0
C567 C 0.80315 0.63258 0.46631 0.0
C568 C 0.79986 0.64175 0.4752 0.0
C569 C 0.79049 0.64495 0.4674 0.0
C570 C 0.78431 0.63916 0.45043 0.0
C571 C 0.78773 0.6301 0.44146 0.0
C572 C 0.79711 0.62689 0.44931 0.0
C573 C 0.84864 0.6363 0.46439 0.0
C574 C 0.84864 0.62981 0.44799 0.0
C575 C 0.86089 0.63385 0.43925 0.0
C576 C 0.87337 0.6445 0.44672 0.0
C577 C 0.87326 0.65122 0.46293 0.0
C578 C 0.861 0.64721 0.47162 0.0
C579 C 0.83572 0.63145 0.47408 0.0
C580 C 0.82503 0.63241 0.46559 0.0
C581 C 0.83412 0.62656 0.49189 0.0
C582 C 0.8454 0.62665 0.50257 0.0
C583 C 0.85254 0.62018 0.49612 0.0
C584 C 0.86317 0.62058 0.50658 0.0
C585 C 0.86654 0.62714 0.52377 0.0
C586 C 0.85935 0.63354 0.53016 0.0
C587 C 0.84896 0.63336 0.51965 0.0
H588 H 0.38518 0.22263 0.53409 0.0
H589 H 0.38197 0.23859 0.55367 0.0
H590 H 0.34517 0.22878 0.52318 0.0
H591 H 0.3479 0.21211 0.50464 0.0
H592 H 0.36984 0.1955 0.52994 0.0
H593 H 0.38399 0.23399 0.48806 0.0
H594 H 0.37975 0.25069 0.47207 0.0
H595 H 0.34307 0.21668 0.44746 0.0
H596 H 0.34719 0.20015 0.46359 0.0
H597 H 0.34828 0.16869 0.46158 0.0
H598 H 0.34494 0.14869 0.44352 0.0
H599 H 0.38129 0.15191 0.46833 0.0
H600 H 0.38489 0.1724 0.48599 0.0
H601 H 0.36724 0.19454 0.46302 0.0
H602 H 0.34963 0.15679 0.50292 0.0
H603 H 0.3484 0.13773 0.51996 0.0
H604 H 0.38507 0.16676 0.55024 0.0
H605 H 0.38679 0.18565 0.53208 0.0
C606 C 0.36693 0.21631 0.51765 0.0
C607 C 0.37642 0.22393 0.53164 0.0
C608 C 0.37463 0.23318 0.54273 0.0
C609 C 0.36333 0.23509 0.54002 0.0
C610 C 0.35391 0.22751 0.52587 0.0
C611 C 0.35559 0.21811 0.515 0.0
C612 C 0.36849 0.20596 0.50648 0.0
C613 C 0.36961 0.19547 0.51529 0.0
C614 C 0.36772 0.20561 0.48737 0.0
C615 C 0.36584 0.21585 0.4771 0.0
C616 C 0.37507 0.23017 0.47917 0.0
C617 C 0.37269 0.23967 0.46996 0.0
C618 C 0.36104 0.23495 0.45864 0.0
C619 C 0.35204 0.2206 0.45628 0.0
C620 C 0.35444 0.21115 0.46537 0.0
C621 C 0.36678 0.17201 0.47525 0.0
C622 C 0.35564 0.16521 0.46301 0.0
C623 C 0.35366 0.15367 0.45282 0.0
C624 C 0.36276 0.14861 0.45463 0.0
C625 C 0.37413 0.15561 0.46657 0.0
C626 C 0.37613 0.16723 0.47678 0.0
C627 C 0.36828 0.18392 0.48646 0.0
C628 C 0.36785 0.19475 0.47767 0.0
C629 C 0.36919 0.18428 0.50558 0.0
C630 C 0.36849 0.17263 0.5159 0.0
C631 C 0.3576 0.15902 0.51292 0.0
C632 C 0.35678 0.14813 0.52295 0.0
C633 C 0.36662 0.15066 0.53657 0.0
C634 C 0.37744 0.16435 0.53966 0.0
C635 C 0.37837 0.1752 0.5294 0.0
H636 H 0.79221 0.18589 0.50769 0.0
H637 H 0.77543 0.16723 0.52613 0.0
H638 H 0.79337 0.14203 0.51183 0.0
H639 H 0.80955 0.16044 0.49292 0.0
H640 H 0.82206 0.19773 0.51375 0.0
H641 H 0.78782 0.17768 0.463 0.0
H642 H 0.77086 0.15765 0.44493 0.0
H643 H 0.80093 0.1451 0.43575 0.0
H644 H 0.81792 0.16559 0.45288 0.0
H645 H 0.85337 0.20232 0.45196 0.0
H646 H 0.8743 0.21954 0.43776 0.0
H647 H 0.86745 0.2523 0.45738 0.0
H648 H 0.84638 0.23495 0.47152 0.0
H649 H 0.82697 0.19491 0.44759 0.0
H650 H 0.86171 0.21457 0.49262 0.0
H651 H 0.87978 0.23118 0.513 0.0
H652 H 0.85077 0.23999 0.5389 0.0
H653 H 0.83305 0.22429 0.51731 0.0
C654 C 0.80198 0.17444 0.49885 0.0
C655 C 0.7923 0.17622 0.50835 0.0
C656 C 0.78282 0.16559 0.51899 0.0
C657 C 0.78304 0.1531 0.52056 0.0
C658 C 0.79266 0.15134 0.51071 0.0
C659 C 0.80199 0.16189 0.49992 0.0
C660 C 0.8129 0.18605 0.48907 0.0
C661 C 0.82299 0.19743 0.49921 0.0
C662 C 0.81434 0.18513 0.4703 0.0
C663 C 0.8041 0.1731 0.45919 0.0
C664 C 0.79073 0.17063 0.45692 0.0
C665 C 0.78102 0.15909 0.4467 0.0
C666 C 0.78444 0.14964 0.43879 0.0
C667 C 0.79791 0.15223 0.4412 0.0
C668 C 0.80766 0.16391 0.45112 0.0
C669 C 0.84838 0.21738 0.46284 0.0
C670 C 0.85631 0.21319 0.45307 0.0
C671 C 0.86831 0.22304 0.44513 0.0
C672 C 0.87253 0.23724 0.44665 0.0
C673 C 0.8644 0.24141 0.45601 0.0
C674 C 0.85242 0.23154 0.46411 0.0
C675 C 0.83618 0.20689 0.47222 0.0
C676 C 0.82591 0.19561 0.46205 0.0
C677 C 0.83482 0.20773 0.49113 0.0
C678 C 0.84603 0.21836 0.50308 0.0
C679 C 0.85932 0.22041 0.50227 0.0
C680 C 0.86963 0.22976 0.51425 0.0
C681 C 0.86682 0.23697 0.52776 0.0
C682 C 0.85348 0.23489 0.52851 0.0
C683 C 0.84324 0.22576 0.51627 0.0
H684 H 0.96603 0.49208 0.14988 0.0
H685 H 0.96382 0.50867 0.13103 0.0
H686 H 0.00195 0.54182 0.15395 0.0
H687 H 0.00456 0.52504 0.17162 0.0
H688 H 0.98416 0.48385 0.15071 0.0
H689 H 0.96954 0.50592 0.19901 0.0
H690 H 0.97171 0.52525 0.21792 0.0
H691 H 0.01476 0.53961 0.22664 0.0
H692 H 0.01222 0.51988 0.20868 0.0
H693 H 0.00986 0.48289 0.21878 0.0
H694 H 0.01117 0.46682 0.23964 0.0
H695 H 0.97342 0.43328 0.21669 0.0
H696 H 0.97194 0.44949 0.19604 0.0
H697 H 0.99236 0.49093 0.21696 0.0
H698 H 0.00646 0.46711 0.17708 0.0
H699 H 0.00643 0.44798 0.16052 0.0
H700 H 0.969 0.43917 0.13249 0.0
H701 H 0.96856 0.45762 0.15013 0.0
C702 C 0.98532 0.50732 0.16247 0.0
C703 C 0.97395 0.50292 0.15074 0.0
C704 C 0.97264 0.51246 0.14009 0.0
C705 C 0.98266 0.52665 0.141 0.0
C706 C 0.99409 0.53098 0.15267 0.0
C707 C 0.99549 0.52141 0.1631 0.0
C708 C 0.98667 0.49711 0.1737 0.0
C709 C 0.98572 0.48523 0.16525 0.0
C710 C 0.9893 0.49921 0.19254 0.0
C711 C 0.99072 0.51151 0.20251 0.0
C712 C 0.97942 0.51331 0.20499 0.0
C713 C 0.98072 0.5244 0.21575 0.0
C714 C 0.99339 0.53397 0.22404 0.0
C715 C 0.00475 0.53229 0.22097 0.0
C716 C 0.00338 0.52109 0.21053 0.0
C717 C 0.99084 0.4674 0.20576 0.0
C718 C 0.00183 0.47208 0.21823 0.0
C719 C 0.00256 0.46292 0.23018 0.0
C720 C 0.99235 0.44885 0.22984 0.0
C721 C 0.98146 0.44408 0.21715 0.0
C722 C 0.98065 0.4533 0.20531 0.0
C723 C 0.98971 0.4775 0.19407 0.0
C724 C 0.99069 0.48938 0.20244 0.0
C725 C 0.98741 0.47546 0.17512 0.0
C726 C 0.98739 0.46371 0.16512 0.0
C727 C 0.99807 0.46086 0.16768 0.0
C728 C 0.99815 0.45001 0.15794 0.0
C729 C 0.98771 0.44195 0.14509 0.0
C730 C 0.97707 0.44491 0.14249 0.0
C731 C 0.97689 0.45561 0.15244 0.0
H732 H 0.49922 0.44104 0.16396 0.0
H733 H 0.48076 0.42602 0.14255 0.0
H734 H 0.45518 0.44069 0.16547 0.0
H735 H 0.47383 0.456 0.18645 0.0
H736 H 0.51177 0.46994 0.16655 0.0
H737 H 0.48525 0.43078 0.20643 0.0
H738 H 0.46301 0.41458 0.21901 0.0
H739 H 0.46075 0.44928 0.24218 0.0
H740 H 0.48281 0.46536 0.22942 0.0
H741 H 0.51891 0.49523 0.23807 0.0
H742 H 0.53736 0.51486 0.25509 0.0
H743 H 0.56708 0.50853 0.22696 0.0
H744 H 0.54858 0.48859 0.21033 0.0
H745 H 0.50856 0.46911 0.23329 0.0
H746 H 0.53058 0.50763 0.19667 0.0
H747 H 0.54822 0.52708 0.18056 0.0
H748 H 0.55483 0.4985 0.14778 0.0
H749 H 0.53788 0.47917 0.16499 0.0
C750 C 0.48785 0.44952 0.17691 0.0
C751 C 0.4896 0.44094 0.16442 0.0
C752 C 0.479 0.43229 0.15229 0.0
C753 C 0.46648 0.43214 0.15233 0.0
C754 C 0.46473 0.44065 0.16499 0.0
C755 C 0.47533 0.4493 0.17712 0.0
C756 C 0.49939 0.45927 0.18903 0.0
C757 C 0.51127 0.46956 0.18116 0.0
C758 C 0.49835 0.45921 0.20803 0.0
C759 C 0.48561 0.44926 0.21693 0.0
C760 C 0.47997 0.43486 0.21431 0.0
C761 C 0.46732 0.42564 0.22153 0.0
C762 C 0.46011 0.4307 0.23139 0.0
C763 C 0.46598 0.4451 0.23438 0.0
C764 C 0.47864 0.45429 0.22728 0.0
C765 C 0.53233 0.49053 0.22269 0.0
C766 C 0.52936 0.49782 0.23586 0.0
C767 C 0.53992 0.50906 0.24557 0.0
C768 C 0.55364 0.51326 0.24222 0.0
C769 C 0.55659 0.50559 0.22965 0.0
C770 C 0.54603 0.49422 0.22014 0.0
C771 C 0.52119 0.47976 0.21082 0.0
C772 C 0.50933 0.46931 0.2187 0.0
C773 C 0.52198 0.48007 0.19173 0.0
C774 C 0.53307 0.49194 0.18228 0.0
C775 C 0.53607 0.50557 0.18633 0.0
C776 C 0.54602 0.51669 0.17687 0.0
C777 C 0.55292 0.51439 0.16275 0.0
C778 C 0.5499 0.50071 0.15873 0.0
C779 C 0.54011 0.48961 0.16844 0.0
H780 H 0.5281 0.04312 0.16988 0.0
H781 H 0.54688 0.0457 0.15137 0.0
H782 H 0.5395 0.00548 0.16796 0.0
H783 H 0.5202 0.0026 0.18546 0.0
H784 H 0.50221 0.02469 0.16491 0.0
H785 H 0.53501 0.03589 0.21386 0.0
H786 H 0.55211 0.03293 0.23069 0.0
H787 H 0.52135 0.99075 0.24195 0.0
H788 H 0.50431 0.9938 0.22518 0.0
H789 H 0.46787 0.99165 0.22243 0.0
H790 H 0.44701 0.98722 0.23753 0.0
H791 H 0.45412 0.0276 0.22229 0.0
H792 H 0.47518 0.03213 0.20771 0.0
H793 H 0.49397 0.01063 0.22875 0.0
H794 H 0.46228 0.99777 0.1787 0.0
H795 H 0.44602 0.99744 0.15633 0.0
H796 H 0.47425 0.04047 0.14521 0.0
H797 H 0.49054 0.04064 0.1674 0.0
C798 C 0.5228 0.02272 0.17918 0.0
C799 C 0.53058 0.03489 0.16957 0.0
C800 C 0.5414 0.0364 0.15912 0.0
C801 C 0.5447 0.02578 0.15812 0.0
C802 C 0.53712 0.01377 0.16818 0.0
C803 C 0.52619 0.0122 0.17844 0.0
C804 C 0.51053 0.02063 0.18884 0.0
C805 C 0.50056 0.02194 0.17901 0.0
C806 C 0.50814 0.01647 0.20701 0.0
C807 C 0.51839 0.01502 0.21813 0.0
C808 C 0.53195 0.026 0.21996 0.0
C809 C 0.54173 0.02428 0.22952 0.0
C810 C 0.53812 0.01157 0.23759 0.0
C811 C 0.52445 0.00071 0.23608 0.0
C812 C 0.51469 0.00244 0.22648 0.0
C813 C 0.47304 0.01218 0.21384 0.0
C814 C 0.46495 -0.00044 0.2224 0.0
C815 C 0.45297 0.99699 0.23088 0.0
C816 C 0.44889 0.00704 0.23105 0.0
C817 C 0.45704 0.01969 0.22252 0.0
C818 C 0.46901 0.02225 0.21405 0.0
C819 C 0.48573 0.01487 0.20482 0.0
C820 C 0.49574 0.01362 0.21475 0.0
C821 C 0.48814 0.01896 0.18665 0.0
C822 C 0.47761 0.01924 0.17476 0.0
C823 C 0.46485 0.00721 0.1717 0.0
C824 C 0.45555 0.00705 0.1589 0.0
C825 C 0.45887 0.01891 0.14887 0.0
C826 C 0.47147 0.03109 0.15246 0.0
C827 C 0.48076 0.03123 0.16521 0.0
H828 H 0.49593 0.0034 0.85744 0.0
H829 H 0.47696 0.99832 0.87739 0.0
H830 H 0.4495 0.96426 0.84168 0.0
H831 H 0.46852 0.96889 0.8222 0.0
H832 H 0.50751 0.98965 0.84941 0.0
H833 H 0.48481 0.00756 0.81365 0.0
H834 H 0.4658 0.00787 0.79799 0.0
H835 H 0.45939 0.97288 0.76429 0.0
H836 H 0.47851 0.97274 0.77989 0.0
H837 H 0.51472 0.97326 0.779 0.0
H838 H 0.53296 0.9741 0.76074 0.0
H839 H 0.56212 0.01261 0.7881 0.0
H840 H 0.54383 0.01165 0.80637 0.0
H841 H 0.50488 0.99123 0.78266 0.0
H842 H 0.52592 0.97206 0.82301 0.0
H843 H 0.54459 0.97217 0.84051 0.0
H844 H 0.55444 0.01162 0.8654 0.0
H845 H 0.53576 0.01141 0.84799 0.0
C846 C 0.48364 0.98668 0.83812 0.0
C847 C 0.48584 0.99482 0.85391 0.0
C848 C 0.47503 0.99192 0.8653 0.0
C849 C 0.46182 0.98095 0.86097 0.0
C850 C 0.45959 0.97288 0.84516 0.0
C851 C 0.47043 0.9756 0.83396 0.0
C852 C 0.49528 0.98927 0.82657 0.0
C853 C 0.50699 0.99026 0.83484 0.0
C854 C 0.49461 0.98989 0.80751 0.0
C855 C 0.48304 0.99008 0.79801 0.0
C856 C 0.47925 -0.0001 0.80296 0.0
C857 C 0.46835 3e-05 0.79403 0.0
C858 C 0.46105 0.99038 0.7799 0.0
C859 C 0.4649 0.98057 0.77495 0.0
C860 C 0.47582 0.98046 0.78387 0.0
C861 C 0.52795 0.99232 0.79415 0.0
C862 C 0.52504 0.98192 0.78098 0.0
C863 C 0.53546 0.98243 0.77054 0.0
C864 C 0.549 0.9934 0.77303 0.0
C865 C 0.55185 0.0039 0.78608 0.0
C866 C 0.54141 0.00339 0.79649 0.0
C867 C 0.51691 0.99143 0.80558 0.0
C868 C 0.50536 0.99076 0.79725 0.0
C869 C 0.51778 0.99134 0.8246 0.0
C870 C 0.52952 0.99174 0.83422 0.0
C871 C 0.53221 0.98078 0.8321 0.0
C872 C 0.54282 0.98084 0.84211 0.0
C873 C 0.55096 0.99193 0.85423 0.0
C874 C 0.54843 0.00303 0.85598 0.0
C875 C 0.53773 0.00288 0.84616 0.0
H876 H 0.03477 0.5475 0.86578 0.0
H877 H 0.03434 0.56532 0.88503 0.0
H878 H 0.9927 0.55095 0.86702 0.0
H879 H 0.99343 0.53346 0.84735 0.0
H880 H 0.01755 0.51856 0.86671 0.0
H881 H 0.02879 0.55579 0.82503 0.0
H882 H 0.02567 0.57236 0.80712 0.0
H883 H 0.98826 0.53856 0.78374 0.0
H884 H 0.99131 0.5221 0.80177 0.0
H885 H 0.99473 0.49025 0.79757 0.0
H886 H 0.99413 0.47211 0.7779 0.0
H887 H 0.0318 0.47885 0.80282 0.0
H888 H 0.03262 0.49737 0.8222 0.0
H889 H 0.01106 0.51625 0.80016 0.0
H890 H 0.99783 0.47902 0.83991 0.0
H891 H 0.999 0.46073 0.85597 0.0
H892 H 0.03565 0.4917 0.88453 0.0
H893 H 0.03494 0.50988 0.86739 0.0
C894 C 0.01417 0.53921 0.85509 0.0
C895 C 0.02558 0.54824 0.86596 0.0
C896 C 0.02527 0.55837 0.87704 0.0
C897 C 0.01345 0.55957 0.87769 0.0
C898 C 0.00205 0.55051 0.86669 0.0
C899 C 0.00241 0.54045 0.85549 0.0
C900 C 0.01448 0.52829 0.84367 0.0
C901 C 0.01632 0.51812 0.85212 0.0
C902 C 0.01236 0.52747 0.82474 0.0
C903 C 0.01023 0.53772 0.81483 0.0
C904 C 0.0198 0.55199 0.81628 0.0
C905 C 0.01804 0.56143 0.80601 0.0
C906 C 0.00677 0.55671 0.79396 0.0
C907 C 0.99714 0.54245 0.7927 0.0
C908 C 0.99885 0.53306 0.80305 0.0
C909 C 0.01366 0.49514 0.8115 0.0
C910 C 0.00294 0.48794 0.79874 0.0
C911 C 0.00261 0.47759 0.78747 0.0
C912 C 0.01294 0.47412 0.78881 0.0
C913 C 0.02367 0.48127 0.8016 0.0
C914 C 0.0241 0.4918 0.81272 0.0
C915 C 0.01397 0.50633 0.82313 0.0
C916 C 0.0123 0.51661 0.81475 0.0
C917 C 0.01582 0.50698 0.84217 0.0
C918 C 0.01644 0.49583 0.85216 0.0
C919 C 0.00627 0.48187 0.84938 0.0
C920 C 0.00684 0.47141 0.85882 0.0
C921 C 0.01742 0.47469 0.87162 0.0
C922 C 0.02749 0.48873 0.87457 0.0
C923 C 0.02702 0.49917 0.86491 0.0
H924 H 0.46171 0.52185 0.8539 0.0
H925 H 0.44538 0.50331 0.87279 0.0
H926 H 0.46088 0.47684 0.85417 0.0
H927 H 0.47661 0.49519 0.83468 0.0
H928 H 0.49138 0.53278 0.85636 0.0
H929 H 0.45279 0.50893 0.81453 0.0
H930 H 0.43524 0.48873 0.79719 0.0
H931 H 0.46675 0.48511 0.76958 0.0
H932 H 0.48424 0.505 0.78725 0.0
H933 H 0.5166 0.53761 0.78774 0.0
H934 H 0.53579 0.55463 0.77061 0.0
H935 H 0.53391 0.58792 0.79883 0.0
H936 H 0.51435 0.57078 0.8157 0.0
H937 H 0.49155 0.53079 0.78946 0.0
H938 H 0.52936 0.54981 0.83093 0.0
H939 H 0.54854 0.56642 0.8501 0.0
H940 H 0.52117 0.57542 0.88005 0.0
H941 H 0.50226 0.55954 0.86 0.0
C942 C 0.47023 0.50979 0.84284 0.0
C943 C 0.46142 0.51196 0.85379 0.0
C944 C 0.4522 0.50139 0.86469 0.0
C945 C 0.45182 0.48856 0.86512 0.0
C946 C 0.46066 0.48645 0.85398 0.0
C947 C 0.46973 0.49695 0.84289 0.0
C948 C 0.48059 0.52124 0.83223 0.0
C949 C 0.49133 0.53256 0.8417 0.0
C950 C 0.48069 0.52046 0.81317 0.0
C951 C 0.46988 0.50842 0.80241 0.0
C952 C 0.45594 0.5037 0.80492 0.0
C953 C 0.44591 0.49219 0.79495 0.0
C954 C 0.44964 0.48536 0.78203 0.0
C955 C 0.46357 0.49026 0.77929 0.0
C956 C 0.47358 0.50163 0.78941 0.0
C957 C 0.51405 0.5529 0.80308 0.0
C958 C 0.52018 0.54856 0.79011 0.0
C959 C 0.53114 0.55828 0.78034 0.0
C960 C 0.53628 0.57256 0.7834 0.0
C961 C 0.53018 0.57695 0.79634 0.0
C962 C 0.51904 0.56719 0.80597 0.0
C963 C 0.50256 0.54236 0.81357 0.0
C964 C 0.49157 0.53119 0.8041 0.0
C965 C 0.50251 0.54297 0.83269 0.0
C966 C 0.51436 0.55357 0.84379 0.0
C967 C 0.52755 0.55563 0.84132 0.0
C968 C 0.5385 0.56501 0.8525 0.0
C969 C 0.53647 0.57231 0.86671 0.0
C970 C 0.52324 0.57024 0.86908 0.0
C971 C 0.51235 0.56102 0.85772 0.0
H972 H 0.61654 0.81747 0.48862 0.0
H973 H 0.61781 0.83644 0.47097 0.0
H974 H 0.66058 0.86188 0.48644 0.0
H975 H 0.65898 0.84306 0.50465 0.0
H976 H 0.63417 0.80476 0.4856 0.0
H977 H 0.6227 0.83125 0.5284 0.0
H978 H 0.62751 0.85275 0.54444 0.0
H979 H 0.6648 0.85662 0.56686 0.0
H980 H 0.6602 0.83549 0.55036 0.0
H981 H 0.65767 0.8017 0.55346 0.0
H982 H 0.65971 0.78525 0.5727 0.0
H983 H 0.62224 0.75176 0.54901 0.0
H984 H 0.62006 0.76839 0.52988 0.0
H985 H 0.64005 0.80954 0.55227 0.0
H986 H 0.65438 0.78608 0.5122 0.0
H987 H 0.65487 0.76784 0.49425 0.0
H988 H 0.61904 0.76133 0.46394 0.0
H989 H 0.61788 0.77865 0.48315 0.0
C990 C 0.63763 0.82894 0.49799 0.0
C991 C 0.62616 0.82716 0.48816 0.0
C992 C 0.62695 0.838 0.478 0.0
C993 C 0.6393 0.85075 0.47725 0.0
C994 C 0.65083 0.85235 0.48696 0.0
C995 C 0.64997 0.84157 0.49728 0.0
C996 C 0.63677 0.8176 0.50903 0.0
C997 C 0.63516 0.80558 0.50022 0.0
C998 C 0.63866 0.81908 0.52799 0.0
C999 C 0.64117 0.83185 0.53801 0.0
C1000 C 0.63196 0.8368 0.53667 0.0
C1001 C 0.63464 0.849 0.54599 0.0
C1002 C 0.64657 0.85642 0.55686 0.0
C1003 C 0.65563 0.85127 0.5584 0.0
C1004 C 0.65296 0.83913 0.54908 0.0
C1005 C 0.63873 0.78629 0.54019 0.0
C1006 C 0.64981 0.79084 0.55248 0.0
C1007 C 0.65095 0.78144 0.56351 0.0
C1008 C 0.64108 0.76726 0.56243 0.0
C1009 C 0.63002 0.76265 0.55005 0.0
C1010 C 0.62879 0.77212 0.5391 0.0
C1011 C 0.63762 0.7966 0.5289 0.0
C1012 C 0.63881 0.80846 0.53767 0.0
C1013 C 0.63589 0.79515 0.50983 0.0
C1014 C 0.63592 0.78361 0.49935 0.0
C1015 C 0.64636 0.78042 0.50208 0.0
C1016 C 0.64679 0.77013 0.49149 0.0
C1017 C 0.63704 0.76305 0.47746 0.0
C1018 C 0.62659 0.76628 0.47478 0.0
C1019 C 0.626 0.77635 0.48566 0.0
H1020 H 0.16915 0.77863 0.49974 0.0
H1021 H 0.1496 0.76362 0.48008 0.0
H1022 H 0.12306 0.76968 0.516 0.0
H1023 H 0.14288 0.78551 0.53491 0.0
H1024 H 0.17977 0.80509 0.5072 0.0
H1025 H 0.15751 0.76352 0.54227 0.0
H1026 H 0.13802 0.74532 0.55821 0.0
H1027 H 0.13946 0.77634 0.59541 0.0
H1028 H 0.15833 0.79454 0.57904 0.0
H1029 H 0.19041 0.82725 0.57956 0.0
H1030 H 0.20871 0.8466 0.59698 0.0
H1031 H 0.23869 0.84373 0.56446 0.0
H1032 H 0.22025 0.82417 0.54712 0.0
H1033 H 0.18266 0.80113 0.57345 0.0
H1034 H 0.20074 0.84201 0.53823 0.0
H1035 H 0.21761 0.86182 0.52174 0.0
H1036 H 0.22186 0.8338 0.48465 0.0
H1037 H 0.20578 0.81414 0.50209 0.0
C1038 C 0.15751 0.78308 0.51894 0.0
C1039 C 0.15912 0.77673 0.50337 0.0
C1040 C 0.14786 0.768 0.49223 0.0
C1041 C 0.13466 0.76529 0.49646 0.0
C1042 C 0.13306 0.7716 0.51217 0.0
C1043 C 0.14438 0.78052 0.52317 0.0
C1044 C 0.16969 0.79288 0.5302 0.0
C1045 C 0.18051 0.80406 0.52165 0.0
C1046 C 0.17047 0.79177 0.54916 0.0
C1047 C 0.15929 0.78046 0.55928 0.0
C1048 C 0.15356 0.76643 0.55375 0.0
C1049 C 0.1425 0.75604 0.56288 0.0
C1050 C 0.13735 0.7595 0.578 0.0
C1051 C 0.14337 0.77344 0.58387 0.0
C1052 C 0.15416 0.78382 0.57454 0.0
C1053 C 0.20393 0.82434 0.56189 0.0
C1054 C 0.20092 0.8306 0.57636 0.0
C1055 C 0.2114 0.84165 0.58635 0.0
C1056 C 0.22514 0.8467 0.58206 0.0
C1057 C 0.22818 0.84015 0.56794 0.0
C1058 C 0.21767 0.82898 0.55803 0.0
C1059 C 0.19259 0.81341 0.55047 0.0
C1060 C 0.18198 0.802 0.55895 0.0
C1061 C 0.19183 0.81445 0.53151 0.0
C1062 C 0.20218 0.82659 0.52163 0.0
C1063 C 0.20554 0.84016 0.52679 0.0
C1064 C 0.21505 0.85149 0.51714 0.0
C1065 C 0.22113 0.84947 0.5018 0.0
C1066 C 0.21762 0.83582 0.49658 0.0
C1067 C 0.2083 0.82453 0.50643 0.0
H1068 H 0.14711 0.34453 0.50586 0.0
H1069 H 0.12849 0.34286 0.48676 0.0
H1070 H 0.13315 0.38013 0.51265 0.0
H1071 H 0.15174 0.38164 0.53203 0.0
H1072 H 0.17446 0.3688 0.50678 0.0
H1073 H 0.13691 0.34059 0.54465 0.0
H1074 H 0.1163 0.33553 0.56068 0.0
H1075 H 0.1399 0.37212 0.59495 0.0
H1076 H 0.16044 0.37744 0.57823 0.0
H1077 H 0.20093 0.37975 0.57887 0.0
H1078 H 0.21811 0.37605 0.59444 0.0
H1079 H 0.21104 0.34402 0.5548 0.0
H1080 H 0.19373 0.34748 0.53969 0.0
H1081 H 0.1736 0.36185 0.57285 0.0
H1082 H 0.21179 0.38954 0.53443 0.0
H1083 H 0.23109 0.39547 0.51476 0.0
H1084 H 0.20556 0.35872 0.48157 0.0
H1085 H 0.18631 0.35323 0.50086 0.0
C1086 C 0.15075 0.3632 0.52031 0.0
C1087 C 0.144 0.35224 0.50758 0.0
C1088 C 0.13332 0.35124 0.49679 0.0
C1089 C 0.12937 0.36134 0.49831 0.0
C1090 C 0.13603 0.37223 0.51125 0.0
C1091 C 0.14659 0.37308 0.5223 0.0
C1092 C 0.16264 0.36456 0.53073 0.0
C1093 C 0.17428 0.36725 0.52122 0.0
C1094 C 0.16248 0.36293 0.54961 0.0
C1095 C 0.15016 0.35952 0.56005 0.0
C1096 C 0.13763 0.34759 0.55551 0.0
C1097 C 0.12588 0.34463 0.56484 0.0
C1098 C 0.12643 0.35344 0.57909 0.0
C1099 C 0.13908 0.36524 0.58386 0.0
C1100 C 0.15084 0.36823 0.57445 0.0
C1101 C 0.19616 0.36401 0.55799 0.0
C1102 C 0.20312 0.37196 0.57355 0.0
C1103 C 0.21299 0.3699 0.58236 0.0
C1104 C 0.21593 0.35973 0.57587 0.0
C1105 C 0.20893 0.35183 0.56026 0.0
C1106 C 0.19913 0.35391 0.55148 0.0
C1107 C 0.18539 0.36577 0.54877 0.0
C1108 C 0.17394 0.3637 0.55848 0.0
C1109 C 0.18566 0.36794 0.52999 0.0
C1110 C 0.19765 0.37097 0.51904 0.0
C1111 C 0.21043 0.38276 0.52296 0.0
C1112 C 0.22144 0.38611 0.51171 0.0
C1113 C 0.21985 0.37767 0.49643 0.0
C1114 C 0.20708 0.36567 0.49291 0.0
C1115 C 0.19608 0.36243 0.50401 0.0
H1116 H 0.9706 0.34898 0.0256 0.0
H1117 H 0.96912 0.36203 0.05148 0.0
H1118 H 0.01265 0.38111 0.06116 0.0
H1119 H 0.01408 0.36758 0.0357 0.0
H1120 H 0.00066 0.37759 0.09223 0.0
H1121 H 0.99845 0.39724 0.0363 0.0
H1122 H 0.98988 0.39744 0.00557 0.0
H1123 H 0.95028 0.38543 0.02623 0.0
H1124 H 0.95857 0.38497 0.05706 0.0
H1125 H 0.0102 0.44166 0.13185 0.0
H1126 H 0.01066 0.42389 0.11253 0.0
H1127 H 0.96669 0.39954 0.11295 0.0
H1128 H 0.96609 0.41688 0.13303 0.0
H1129 H 0.9787 0.40541 0.07772 0.0
H1130 H 0.98282 0.38771 0.1349 0.0
H1131 H 0.9931 0.3893 0.16506 0.0
H1132 H 0.03143 0.40013 0.1411 0.0
H1133 H 0.02143 0.39881 0.1108 0.0
C1134 C 0.97982 0.35576 0.03345 0.0
C1135 C 0.99248 0.35738 0.02851 0.0
C1136 C 0.97898 0.36328 0.04819 0.0
C1137 C 0.99084 0.37288 0.05796 0.0
C1138 C 0.00337 0.37385 0.05377 0.0
C1139 C 0.00418 0.3661 0.03921 0.0
C1140 C 0.99028 0.38256 0.0716 0.0
C1141 C 0.99596 0.38375 0.08899 0.0
C1142 C 0.9841 0.3906 0.06747 0.0
C1143 C 0.9791 0.39093 0.04895 0.0
C1144 C 0.98789 0.39454 0.03426 0.0
C1145 C 0.98309 0.39472 0.01683 0.0
C1146 C 0.96954 0.39141 0.01394 0.0
C1147 C 0.96077 0.38796 0.02848 0.0
C1148 C 0.96552 0.38775 0.04594 0.0
C1149 C 0.00062 0.4324 0.12826 0.0
C1150 C 0.98809 0.4308 0.13403 0.0
C1151 C 0.00091 0.42228 0.11711 0.0
C1152 C 0.98871 0.41042 0.11135 0.0
C1153 C 0.97622 0.40866 0.11723 0.0
C1154 C 0.97591 0.41866 0.12859 0.0
C1155 C 0.98894 0.4003 0.0983 0.0
C1156 C 0.98328 0.39913 0.08096 0.0
C1157 C 0.99539 0.39255 0.10239 0.0
C1158 C 0.0014 0.3933 0.12059 0.0
C1159 C 0.99347 0.39056 0.13607 0.0
C1160 C -0.00076 0.39139 0.15319 0.0
C1161 C 0.01292 0.39485 0.155 0.0
C1162 C 0.02084 0.39746 0.13968 0.0
C1163 C 0.01512 0.39666 0.12253 0.0
H1164 H 0.01737 0.39548 0.16826 0.0
H1165 H 0.96584 0.39155 0.00043 0.0
H1166 H 0.64294 0.60544 0.05782 0.0
H1167 H 0.62814 0.58542 0.07581 0.0
H1168 H 0.60716 0.60649 0.09475 0.0
H1169 H 0.6223 0.62672 0.07751 0.0
H1170 H 0.61207 0.59524 0.12175 0.0
H1171 H 0.59299 0.57915 0.06206 0.0
H1172 H 0.59311 0.57386 0.02961 0.0
H1173 H 0.60692 0.54529 0.04222 0.0
H1174 H 0.60705 0.55056 0.07475 0.0
H1175 H 0.55141 0.53709 0.15224 0.0
H1176 H 0.56768 0.55643 0.13449 0.0
H1177 H 0.59277 0.53751 0.12983 0.0
H1178 H 0.57688 0.51834 0.14836 0.0
H1179 H 0.58653 0.54706 0.09621 0.0
H1180 H 0.60418 0.56299 0.15676 0.0
H1181 H 0.60239 0.56789 0.18889 0.0
H1182 H 0.58936 0.59665 0.17392 0.0
H1183 H 0.59087 0.59176 0.14167 0.0
C1184 C 0.6351 0.60576 0.06572 0.0
C1185 C 0.63374 0.61765 0.06612 0.0
C1186 C 0.62661 0.59428 0.07595 0.0
C1187 C 0.61641 0.59436 0.08649 0.0
C1188 C 0.61496 0.60617 0.08675 0.0
C1189 C 0.62357 0.61772 0.07675 0.0
C1190 C 0.60748 0.58232 0.09764 0.0
C1191 C 0.60638 0.58474 0.11607 0.0
C1192 C 0.60025 0.56855 0.09038 0.0
C1193 C 0.60017 0.56536 0.07083 0.0
C1194 C 0.59616 0.57183 0.0579 0.0
C1195 C 0.59616 0.56882 0.0395 0.0
C1196 C 0.60006 0.55928 0.03385 0.0
C1197 C 0.60393 0.5527 0.04661 0.0
C1198 C 0.60395 0.55568 0.06503 0.0
C1199 C 0.5605 0.53711 0.14777 0.0
C1200 C 0.56285 0.52616 0.15188 0.0
C1201 C 0.56972 0.54813 0.13749 0.0
C1202 C 0.5814 0.54836 0.13095 0.0
C1203 C 0.58376 0.53743 0.13476 0.0
C1204 C 0.57463 0.52648 0.14527 0.0
C1205 C 0.5911 0.56008 0.12009 0.0
C1206 C 0.59232 0.55759 0.10179 0.0
C1207 C 0.59827 0.57379 0.12739 0.0
C1208 C 0.59753 0.57691 0.14678 0.0
C1209 C 0.60083 0.57028 0.16031 0.0
C1210 C 0.59988 0.57307 0.17855 0.0
C1211 C 0.59574 0.58256 0.18344 0.0
C1212 C 0.59256 0.5893 0.17011 0.0
C1213 C 0.59348 0.58653 0.15184 0.0
H1214 H 0.59502 0.58471 0.19757 0.0
H1215 H 0.60005 0.55696 0.0196 0.0
H1216 H 0.36316 0.99193 0.03098 0.0
H1217 H 0.37815 0.99661 0.05739 0.0
H1218 H 0.41341 0.02087 0.0251 0.0
H1219 H 0.39853 0.01614 0.99854 0.0
H1220 H 0.41658 0.00267 0.04477 0.0
H1221 H 0.40278 0.03641 0.05611 0.0
H1222 H 0.38639 0.04469 0.05999 0.0
H1223 H 0.36893 0.01788 0.10479 0.0
H1224 H 0.3851 0.00928 0.10102 0.0
H1225 H 0.46596 0.03024 0.11554 0.0
H1226 H 0.45085 0.02836 0.09049 0.0
H1227 H 0.41571 0.00387 0.12287 0.0
H1228 H 0.43082 0.00614 0.14833 0.0
H1229 H 0.41243 0.02242 0.10335 0.0
H1230 H 0.42573 0.98837 0.09181 0.0
H1231 H 0.44181 0.9797 0.08793 0.0
H1232 H 0.45979 0.00665 0.04338 0.0
H1233 H 0.44394 0.01564 0.04717 0.0
C1234 C 0.3741 0.99838 0.02949 0.0
C1235 C 0.37962 0.00364 0.01258 0.0
C1236 C 0.38266 0.0011 0.04465 0.0
C1237 C 0.3969 0.00918 0.04326 0.0
C1238 C 0.40244 0.01462 0.02649 0.0
C1239 C 0.3939 0.01193 0.01132 0.0
C1240 C 0.40605 0.0114 0.05908 0.0
C1241 C 0.41582 0.00721 0.05749 0.0
C1242 C 0.40478 0.01692 0.07584 0.0
C1243 C 0.39507 0.02211 0.07817 0.0
C1244 C 0.39537 0.03219 0.0667 0.0
C1245 C 0.38614 0.03696 0.0689 0.0
C1246 C 0.37661 0.03179 0.0826 0.0
C1247 C 0.37631 0.02186 0.09417 0.0
C1248 C 0.38552 0.01705 0.09202 0.0
C1249 C 0.45503 0.02466 0.11749 0.0
C1250 C 0.44961 0.01832 0.13397 0.0
C1251 C 0.4464 0.02347 0.10306 0.0
C1252 C 0.43215 0.01579 0.10471 0.0
C1253 C 0.42668 0.00978 0.12128 0.0
C1254 C 0.43533 0.011 0.13576 0.0
C1255 C 0.423 0.01377 0.08897 0.0
C1256 C 0.41321 0.01795 0.0906 0.0
C1257 C 0.4242 0.00818 0.07223 0.0
C1258 C 0.43374 0.00278 0.0699 0.0
C1259 C 0.43319 0.99253 0.08128 0.0
C1260 C 0.44225 0.98755 0.07908 0.0
C1261 C 0.45184 0.99265 0.06545 0.0
C1262 C 0.45237 0.00273 0.05396 0.0
C1263 C 0.44335 0.00776 0.05612 0.0
H1264 H 0.45885 0.98877 0.06376 0.0
H1265 H 0.36946 0.03549 0.08428 0.0
H1266 H 0.3657 0.95842 0.97508 0.0
H1267 H 0.38395 0.9562 0.96038 0.0
H1268 H 0.37789 0.97382 0.91214 0.0
H1269 H 0.36005 0.97642 0.92683 0.0
H1270 H 0.38146 0.94906 0.90733 0.0
H1271 H 0.40078 0.99487 0.93822 0.0
H1272 H 0.40483 0.00929 0.96582 0.0
H1273 H 0.42508 0.98988 0.99132 0.0
H1274 H 0.42091 0.97515 0.96395 0.0
H1275 H 0.4374 0.97848 0.85156 0.0
H1276 H 0.41831 0.97331 0.87113 0.0
H1277 H 0.44113 0.97082 0.91673 0.0
H1278 H 0.46054 0.97665 0.8972 0.0
H1279 H 0.42889 0.98373 0.92713 0.0
H1280 H 0.4138 0.94101 0.89548 0.0
H1281 H 0.40916 0.92509 0.86934 0.0
H1282 H 0.38063 0.93605 0.84725 0.0
H1283 H 0.38524 0.9522 0.87312 0.0
C1284 C 0.36815 0.96159 0.96125 0.0
C1285 C 0.36157 0.96764 0.95205 0.0
C1286 C 0.37853 0.96033 0.95292 0.0
C1287 C 0.38218 0.96485 0.93523 0.0
C1288 C 0.37513 0.97023 0.92578 0.0
C1289 C 0.36502 0.97177 0.9342 0.0
C1290 C 0.39407 0.96516 0.92684 0.0
C1291 C 0.39186 0.95659 0.9116 0.0
C1292 C 0.40756 0.97467 0.93291 0.0
C1293 C 0.41039 0.9838 0.94914 0.0
C1294 C 0.40601 0.99361 0.94976 0.0
C1295 C 0.40833 0.00184 0.96536 0.0
C1296 C 0.41517 0.00048 0.98034 0.0
C1297 C 0.41975 0.99091 0.97972 0.0
C1298 C 0.41741 0.98262 0.96417 0.0
C1299 C 0.43829 0.97679 0.86576 0.0
C1300 C 0.45035 0.97788 0.87291 0.0
C1301 C 0.42736 0.97374 0.87692 0.0
C1302 C 0.42813 0.97132 0.89535 0.0
C1303 C 0.44027 0.97256 0.90255 0.0
C1304 C 0.45132 0.97588 0.89143 0.0
C1305 C 0.41636 0.96791 0.90706 0.0
C1306 C 0.41856 0.97591 0.92297 0.0
C1307 C 0.40284 0.95766 0.90179 0.0
C1308 C 0.39993 0.94788 0.88622 0.0
C1309 C 0.4066 0.94009 0.885 0.0
C1310 C 0.40396 0.93102 0.87023 0.0
C1311 C 0.39462 0.92958 0.85663 0.0
C1312 C 0.38786 0.93718 0.85779 0.0
C1313 C 0.39047 0.94628 0.87253 0.0
H1314 H 0.3926 0.92255 0.8452 0.0
H1315 H 0.41696 0.00685 0.99241 0.0
H1316 H 0.99451 0.36422 0.95092 0.0
H1317 H 0.996 0.38391 0.93528 0.0
H1318 H 0.03931 0.40757 0.94764 0.0
H1319 H 0.03772 0.38801 0.96427 0.0
H1320 H 0.02911 0.42378 0.95117 0.0
H1321 H 0.02612 0.39205 0.90485 0.0
H1322 H 0.01681 0.36955 0.88836 0.0
H1323 H 0.97892 0.36883 0.8787 0.0
H1324 H 0.98794 0.39124 0.89534 0.0
H1325 H 0.03999 0.47311 0.88232 0.0
H1326 H 0.04054 0.45477 0.89939 0.0
H1327 H 0.99653 0.4324 0.90072 0.0
H1328 H 0.99583 0.45091 0.88442 0.0
H1329 H 0.00872 0.41624 0.88933 0.0
H1330 H 0.01264 0.4484 0.93712 0.0
H1331 H 0.02317 0.47137 0.95265 0.0
H1332 H 0.06123 0.47175 0.95792 0.0
H1333 H 0.05097 0.44886 0.94216 0.0
C1334 C 0.00434 0.37361 0.95054 0.0
C1335 C 0.01599 0.3745 0.9589 0.0
C1336 C 0.0052 0.38486 0.94138 0.0
C1337 C 0.01782 0.39715 0.9399 0.0
C1338 C 0.02946 0.39819 0.94852 0.0
C1339 C 0.02854 0.38698 0.95798 0.0
C1340 C 0.01878 0.40883 0.92933 0.0
C1341 C 0.02484 0.42215 0.93754 0.0
C1342 C 0.01313 0.40674 0.91157 0.0
C1343 C 0.00768 0.39328 0.90148 0.0
C1344 C 0.01577 0.38705 0.89931 0.0
C1345 C 0.01055 0.37432 0.88992 0.0
C1346 C 0.99727 0.36775 0.88252 0.0
C1347 C 0.9892 0.37392 0.88445 0.0
C1348 C 0.99437 0.38665 0.89385 0.0
C1349 C 0.03042 0.46442 0.88646 0.0
C1350 C 0.01786 0.46354 0.88193 0.0
C1351 C 0.03077 0.45391 0.89612 0.0
C1352 C 0.01858 0.44228 0.90129 0.0
C1353 C 0.00605 0.44129 0.89674 0.0
C1354 C 0.00568 0.45186 0.8873 0.0
C1355 C 0.01883 0.43101 0.91129 0.0
C1356 C 0.01304 0.41781 0.90293 0.0
C1357 C 0.02493 0.43327 0.92874 0.0
C1358 C 0.03108 0.44699 0.93828 0.0
C1359 C 0.02329 0.45344 0.94144 0.0
C1360 C 0.0292 0.46643 0.95031 0.0
C1361 C 0.04287 0.47303 0.95622 0.0
C1362 C 0.05065 0.46663 0.95331 0.0
C1363 C 0.04478 0.45365 0.94442 0.0
H1364 H 0.04743 0.48309 0.96309 0.0
H1365 H 0.99325 0.35789 0.87526 0.0
H1366 H 0.63275 0.62754 0.98863 0.0
H1367 H 0.61848 0.61761 0.96129 0.0
H1368 H 0.59458 0.63647 0.97656 0.0
H1369 H 0.60835 0.6457 0.0044 0.0
H1370 H 0.5782 0.61185 0.96678 0.0
H1371 H 0.61834 0.64767 0.93977 0.0
H1372 H 0.64288 0.66133 0.93323 0.0
H1373 H 0.64145 0.62494 0.91011 0.0
H1374 H 0.61693 0.61102 0.91671 0.0
H1375 H 0.54154 0.59688 0.88309 0.0
H1376 H 0.55883 0.61055 0.90648 0.0
H1377 H 0.57491 0.58275 0.90242 0.0
H1378 H 0.55731 0.56862 0.87963 0.0
H1379 H 0.5954 0.61262 0.90529 0.0
H1380 H 0.55505 0.5771 0.93423 0.0
H1381 H 0.53038 0.56429 0.9402 0.0
H1382 H 0.53252 0.60207 0.95909 0.0
H1383 H 0.55718 0.61514 0.95296 0.0
C1384 C 0.62456 0.6297 0.98601 0.0
C1385 C 0.62164 0.63737 0.99864 0.0
C1386 C 0.61643 0.62409 0.9703 0.0
C1387 C 0.6055 0.6264 0.96664 0.0
C1388 C 0.6029 0.63446 0.97904 0.0
C1389 C 0.61079 0.63978 0.99494 0.0
C1390 C 0.5962 0.61968 0.95061 0.0
C1391 C 0.58204 0.61229 0.95331 0.0
C1392 C 0.60109 0.61992 0.933 0.0
C1393 C 0.61582 0.62828 0.92888 0.0
C1394 C 0.62328 0.64256 0.93339 0.0
C1395 C 0.63718 0.65035 0.92966 0.0
C1396 C 0.64373 0.644 0.9213 0.0
C1397 C 0.63637 0.62984 0.9166 0.0
C1398 C 0.62246 0.622 0.92031 0.0
C1399 C 0.5487 0.5936 0.88718 0.0
C1400 C 0.54788 0.58151 0.87954 0.0
C1401 C 0.55865 0.60152 0.90043 0.0
C1402 C 0.56809 0.59761 0.90619 0.0
C1403 C 0.56775 0.58597 0.89806 0.0
C1404 C 0.55769 0.57793 0.88496 0.0
C1405 C 0.57761 0.60504 0.92163 0.0
C1406 C 0.59172 0.61241 0.9188 0.0
C1407 C 0.57271 0.605 0.93909 0.0
C1408 C 0.55792 0.59712 0.94295 0.0
C1409 C 0.55023 0.58269 0.93951 0.0
C1410 C 0.53625 0.57538 0.94295 0.0
C1411 C 0.52987 0.58237 0.94997 0.0
C1412 C 0.53747 0.59667 0.95362 0.0
C1413 C 0.55145 0.60404 0.95018 0.0
H1414 H 0.51905 0.57669 0.95263 0.0
H1415 H 0.6545 0.65004 0.91844 0.0
H1416 H 0.99538 0.64511 0.98148 0.0
H1417 H 0.99666 0.63192 0.95548 0.0
H1418 H 0.02412 0.62308 0.98584 0.0
H1419 H 0.02313 0.63636 0.01163 0.0
H1420 H 0.0324 0.62917 0.95213 0.0
H1421 H 0.98985 0.59932 0.9811 0.0
H1422 H 0.96725 0.59303 0.99302 0.0
H1423 H 0.95349 0.59686 0.94025 0.0
H1424 H 0.97607 0.60335 0.92807 0.0
H1425 H 0.02455 0.56757 0.91193 0.0
H1426 H 0.02392 0.58472 0.93222 0.0
H1427 H 0.00015 0.59202 0.89251 0.0
H1428 H 0.00109 0.57514 0.87176 0.0
H1429 H 0.98978 0.58849 0.9276 0.0
H1430 H 0.03218 0.61577 0.89828 0.0
H1431 H 0.05475 0.62133 0.88708 0.0
H1432 H 0.06886 0.62166 0.94131 0.0
H1433 H 0.0463 0.61589 0.95282 0.0
C1434 C 0.00181 0.64049 0.98255 0.0
C1435 C 0.00913 0.6418 0.9987 0.0
C1436 C 0.00248 0.63289 0.9677 0.0
C1437 C 0.01037 0.62638 0.96877 0.0
C1438 C 0.01798 0.62803 0.98467 0.0
C1439 C 0.01738 0.63563 0.99944 0.0
C1440 C 0.01046 0.61745 0.95367 0.0
C1441 C 0.02308 0.62023 0.94684 0.0
C1442 C 0.99828 0.60596 0.94645 0.0
C1443 C 0.98469 0.60198 0.95373 0.0
C1444 C 0.98203 0.59892 0.97208 0.0
C1445 C 0.96923 0.5953 0.97887 0.0
C1446 C 0.95896 0.59459 0.96741 0.0
C1447 C 0.96146 0.59744 0.94912 0.0
C1448 C 0.97426 0.60109 0.94226 0.0
C1449 C 0.01937 0.57296 0.90732 0.0
C1450 C 0.01296 0.57001 0.8901 0.0
C1451 C 0.01896 0.58272 0.91901 0.0
C1452 C 0.01209 0.58973 0.91381 0.0
C1453 C 0.0055 0.58671 0.89678 0.0
C1454 C 0.006 0.57701 0.88498 0.0
C1455 C 0.01173 0.60008 0.92636 0.0
C1456 C 0.99907 0.59754 0.93271 0.0
C1457 C 0.02388 0.61173 0.93325 0.0
C1458 C 0.0375 0.61529 0.9264 0.0
C1459 C 0.04006 0.61692 0.90781 0.0
C1460 C 0.05286 0.62013 0.90141 0.0
C1461 C 0.06323 0.62182 0.91347 0.0
C1462 C 0.06082 0.62034 0.93198 0.0
C1463 C 0.04803 0.61712 0.93845 0.0
H1464 H 0.07313 0.62431 0.90849 0.0
H1465 H 0.94905 0.59178 0.9727 0.0
H1466 H 0.3755 0.37519 0.9377 0.0
H1467 H 0.39216 0.39681 0.92431 0.0
H1468 H 0.38385 0.42011 0.96432 0.0
H1469 H 0.36684 0.39832 0.97769 0.0
H1470 H 0.38502 0.43013 0.9317 0.0
H1471 H 0.41346 0.41917 0.96661 0.0
H1472 H 0.42212 0.40449 0.97884 0.0
H1473 H 0.43379 0.39893 0.92581 0.0
H1474 H 0.42491 0.4133 0.91315 0.0
H1475 H 0.44445 0.49173 0.89933 0.0
H1476 H 0.42939 0.4735 0.91957 0.0
H1477 H 0.4237 0.44224 0.87969 0.0
H1478 H 0.4381 0.46031 0.85893 0.0
H1479 H 0.43135 0.43889 0.91709 0.0
H1480 H 0.39937 0.44758 0.8828 0.0
H1481 H 0.39077 0.46261 0.87161 0.0
H1482 H 0.38685 0.47364 0.92615 0.0
H1483 H 0.39562 0.45882 0.93766 0.0
C1484 C 0.37728 0.3849 0.94378 0.0
C1485 C 0.36994 0.38506 0.95884 0.0
C1486 C 0.38685 0.39727 0.93614 0.0
C1487 C 0.38944 0.41009 0.94353 0.0
C1488 C 0.38206 0.41032 0.95849 0.0
C1489 C 0.37236 0.39789 0.9661 0.0
C1490 C 0.39955 0.42312 0.93505 0.0
C1491 C 0.39525 0.43221 0.92887 0.0
C1492 C 0.4129 0.42581 0.93131 0.0
C1493 C 0.41843 0.41728 0.9389 0.0
C1494 C 0.41779 0.41475 0.95752 0.0
C1495 C 0.42275 0.40649 0.96454 0.0
C1496 C 0.42851 0.4008 0.95311 0.0
C1497 C 0.42933 0.40336 0.93464 0.0
C1498 C 0.42434 0.41157 0.92754 0.0
C1499 C 0.43981 0.481 0.89468 0.0
C1500 C 0.44252 0.47753 0.87743 0.0
C1501 C 0.43132 0.47061 0.90636 0.0
C1502 C 0.42554 0.45659 0.9011 0.0
C1503 C 0.42821 0.45305 0.884 0.0
C1504 C 0.4365 0.4634 0.8722 0.0
C1505 C 0.4166 0.44552 0.91333 0.0
C1506 C 0.42118 0.43688 0.92025 0.0
C1507 C 0.40362 0.44338 0.918 0.0
C1508 C 0.39832 0.45224 0.91108 0.0
C1509 C 0.39681 0.45332 0.8924 0.0
C1510 C 0.39187 0.46178 0.886 0.0
C1511 C 0.38831 0.46912 0.89816 0.0
C1512 C 0.38964 0.46798 0.91675 0.0
C1513 C 0.39459 0.45955 0.92321 0.0
H1514 H 0.38449 0.47565 0.89319 0.0
H1515 H 0.43235 0.3944 0.95858 0.0
H1516 H 0.60713 0.97366 0.99011 0.0
H1517 H 0.59649 0.97308 0.96093 0.0
H1518 H 0.63151 0.01238 0.94815 0.0
H1519 H 0.64232 0.01302 0.97728 0.0
H1520 H 0.60656 0.01176 0.94465 0.0
H1521 H 0.62641 0.98471 0.92515 0.0
H1522 H 0.63172 0.96579 0.92662 0.0
H1523 H 0.58895 0.93555 0.92198 0.0
H1524 H 0.58336 0.9543 0.92075 0.0
H1525 H 0.57738 0.01258 0.86042 0.0
H1526 H 0.59391 0.01285 0.88237 0.0
H1527 H 0.56458 0.97099 0.89686 0.0
H1528 H 0.54821 0.97056 0.87457 0.0
H1529 H 0.58919 0.97409 0.89758 0.0
H1530 H 0.56887 -6e-05 0.92127 0.0
H1531 H 0.56245 0.01812 0.92132 0.0
H1532 H 0.6048 0.04968 0.92 0.0
H1533 H 0.61145 0.03166 0.91968 0.0
C1534 C 0.61267 0.98209 0.98101 0.0
C1535 C 0.62554 0.99342 0.98607 0.0
C1536 C 0.6066 0.98171 0.9643 0.0
C1537 C 0.61325 0.99267 0.95238 0.0
C1538 C 0.62625 0.00381 0.95716 0.0
C1539 C 0.63241 0.00413 0.97379 0.0
C1540 C 0.60609 0.993 0.93568 0.0
C1541 C 0.60302 0.00369 0.93414 0.0
C1542 C 0.60114 0.98224 0.92231 0.0
C1543 C 0.60446 0.97093 0.923 0.0
C1544 C 0.61812 0.97403 0.9246 0.0
C1545 C 0.62119 0.96333 0.92536 0.0
C1546 C 0.61068 0.94947 0.92443 0.0
C1547 C 0.59708 0.94629 0.92271 0.0
C1548 C 0.59396 0.95695 0.92195 0.0
C1549 C 0.57456 0.0034 0.86816 0.0
C1550 C 0.56151 0.99159 0.86593 0.0
C1551 C 0.58398 0.00356 0.88071 0.0
C1552 C 0.58039 0.99204 0.89154 0.0
C1553 C 0.56759 0.98 0.88869 0.0
C1554 C 0.55824 0.97977 0.87596 0.0
C1555 C 0.58954 0.99279 0.90662 0.0
C1556 C 0.59293 0.98228 0.90793 0.0
C1557 C 0.59462 0.00361 0.91998 0.0
C1558 C 0.59065 0.01446 0.92024 0.0
C1559 C 0.5768 0.01076 0.92086 0.0
C1560 C 0.57313 0.02103 0.92095 0.0
C1561 C 0.58321 0.03504 0.92061 0.0
C1562 C 0.597 0.03882 0.92022 0.0
C1563 C 0.60073 0.02858 0.92009 0.0
H1564 H 0.58034 0.04298 0.92069 0.0
H1565 H 0.61307 0.9412 0.92502 0.0
H1566 H 0.61844 -0.00053 0.06174 0.0
H1567 H 0.60255 0.0043 0.07765 0.0
H1568 H 0.62918 0.04822 0.07083 0.0
H1569 H 0.64516 0.04344 0.05434 0.0
H1570 H 0.61995 0.03895 0.10787 0.0
H1571 H 0.60224 0.03567 0.04781 0.0
H1572 H 0.59431 0.0251 0.01733 0.0
H1573 H 0.56198 0.98826 0.0402 0.0
H1574 H 0.56984 0.99852 0.07085 0.0
H1575 H 0.56933 0.04898 0.15117 0.0
H1576 H 0.58659 0.05081 0.13013 0.0
H1577 H 0.56215 0.00695 0.11709 0.0
H1578 H 0.54453 0.00521 0.13715 0.0
H1579 H 0.57174 0.0204 0.08759 0.0
H1580 H 0.59075 0.021 0.14653 0.0
H1581 H 0.59874 0.02967 0.17774 0.0
H1582 H 0.62844 0.06941 0.15801 0.0
H1583 H 0.6205 0.06101 0.12667 0.0
C1584 C 0.6209 0.01015 0.06334 0.0
C1585 C 0.63305 0.02106 0.05667 0.0
C1586 C 0.61178 0.01289 0.07246 0.0
C1587 C 0.6147 0.0266 0.0753 0.0
C1588 C 0.62677 0.03757 0.06866 0.0
C1589 C 0.63583 0.03481 0.05922 0.0
C1590 C 0.60525 0.02924 0.08595 0.0
C1591 C 0.60949 0.03523 0.10333 0.0
C1592 C 0.59155 0.02401 0.08009 0.0
C1593 C 0.58669 0.01785 0.06165 0.0
C1594 C 0.5935 0.02527 0.04635 0.0
C1595 C 0.589 0.01934 0.02904 0.0
C1596 C 0.57766 0.00601 0.02683 0.0
C1597 C 0.57076 0.99859 0.04194 0.0
C1598 C 0.57522 0.00447 0.05928 0.0
C1599 C 0.56756 0.03975 0.14369 0.0
C1600 C 0.55555 0.02692 0.14595 0.0
C1601 C 0.57751 0.04079 0.13179 0.0
C1602 C 0.57573 0.02899 0.12217 0.0
C1603 C 0.56375 0.0162 0.12438 0.0
C1604 C 0.55376 0.01518 0.13608 0.0
C1605 C 0.5863 0.0298 0.1098 0.0
C1606 C 0.58227 0.02442 0.09207 0.0
C1607 C 0.60013 0.03537 0.11546 0.0
C1608 C 0.60491 0.04043 0.13428 0.0
C1609 C 0.59891 0.03162 0.14886 0.0
C1610 C 0.60344 0.03648 0.16657 0.0
C1611 C 0.61406 0.0501 0.16986 0.0
C1612 C 0.62019 0.05887 0.15544 0.0
C1613 C 0.61568 0.05407 0.1377 0.0
H1614 H 0.61756 0.05384 0.18358 0.0
H1615 H 0.5742 0.00143 0.01341 0.0
H1616 H 0.00033 0.6379 0.07807 0.0
H1617 H 0.99744 0.61646 0.0904 0.0
H1618 H 0.95827 0.59316 0.06285 0.0
H1619 H 0.96132 0.61461 0.04964 0.0
H1620 H 0.96495 0.5907 0.10715 0.0
H1621 H 0.97295 0.58503 0.04341 0.0
H1622 H 0.98564 0.59462 0.01554 0.0
H1623 H 0.02313 0.60419 0.04309 0.0
H1624 H 0.01068 0.59489 0.07124 0.0
H1625 H 0.95911 0.52696 0.13213 0.0
H1626 H 0.95686 0.54421 0.11489 0.0
H1627 H 0.00057 0.56738 0.10865 0.0
H1628 H 0.00281 0.54967 0.12468 0.0
H1629 H 0.98914 0.56852 0.07901 0.0
H1630 H 0.98357 0.57595 0.14158 0.0
H1631 H 0.97351 0.56964 0.17168 0.0
H1632 H 0.93434 0.55978 0.14923 0.0
H1633 H 0.94415 0.56586 0.11893 0.0
C1634 C 0.99116 0.62825 0.0744 0.0
C1635 C 0.98119 0.62795 0.06253 0.0
C1636 C 0.98949 0.61602 0.0816 0.0
C1637 C 0.97772 0.6033 0.07737 0.0
C1638 C 0.96746 0.60294 0.06615 0.0
C1639 C 0.96923 0.61518 0.05864 0.0
C1640 C 0.97651 0.59044 0.08449 0.0
C1641 C 0.96991 0.58556 0.10083 0.0
C1642 C 0.98348 0.58423 0.0765 0.0
C1643 C 0.99091 0.58939 0.05946 0.0
C1644 C 0.98391 0.58928 0.04356 0.0
C1645 C 0.99106 0.59465 0.0277 0.0
C1646 C 0.00518 0.60005 0.02754 0.0
C1647 C 0.01219 0.60002 0.04323 0.0
C1648 C 0.00509 0.59469 0.05913 0.0
C1649 C 0.96823 0.53556 0.12679 0.0
C1650 C 0.98117 0.53694 0.12999 0.0
C1651 C 0.96694 0.54553 0.11711 0.0
C1652 C 0.97857 0.55727 0.11076 0.0
C1653 C 0.99144 0.55847 0.11348 0.0
C1654 C 0.99272 0.5484 0.12291 0.0
C1655 C 0.97745 0.56853 0.10181 0.0
C1656 C 0.98381 0.5733 0.0852 0.0
C1657 C 0.97047 0.57483 0.10977 0.0
C1658 C 0.96456 0.57119 0.12796 0.0
C1659 C 0.97279 0.57233 0.14304 0.0
C1660 C 0.96714 0.56882 0.16014 0.0
C1661 C 0.95329 0.56427 0.16236 0.0
C1662 C 0.94507 0.56327 0.14749 0.0
C1663 C 0.95067 0.56676 0.13035 0.0
H1664 H 0.94893 0.56156 0.1756 0.0
H1665 H 0.01069 0.60422 0.01526 0.0
H1666 H 0.36632 0.36155 0.03618 0.0
H1667 H 0.38049 0.3727 0.06333 0.0
H1668 H 0.41613 0.37866 0.03525 0.0
H1669 H 0.40215 0.36775 0.00802 0.0
H1670 H 0.39752 0.36858 0.08546 0.0
H1671 H 0.44229 0.41102 0.0454 0.0
H1672 H 0.44589 0.423 0.01654 0.0
H1673 H 0.40462 0.4151 0.01649 0.0
H1674 H 0.40084 0.40327 0.04547 0.0
H1675 H 0.45793 0.40546 0.1405 0.0
H1676 H 0.44086 0.392 0.11673 0.0
H1677 H 0.43308 0.42586 0.10976 0.0
H1678 H 0.4504 0.43953 0.13311 0.0
H1679 H 0.43609 0.41653 0.07807 0.0
H1680 H 0.41023 0.3967 0.13039 0.0
H1681 H 0.40529 0.38585 0.16012 0.0
H1682 H 0.40595 0.35041 0.13743 0.0
H1683 H 0.41117 0.36118 0.10759 0.0
C1684 C 0.37714 0.36507 0.03582 0.0
C1685 C 0.38311 0.36392 0.0198 0.0
C1686 C 0.38522 0.3714 0.05139 0.0
C1687 C 0.39939 0.37672 0.0512 0.0
C1688 C 0.40524 0.37484 0.03559 0.0
C1689 C 0.3972 0.36856 0.02003 0.0
C1690 C 0.40823 0.38505 0.06684 0.0
C1691 C 0.40597 0.37905 0.08387 0.0
C1692 C 0.41901 0.39886 0.06485 0.0
C1693 C 0.42125 0.40615 0.04753 0.0
C1694 C 0.43401 0.4119 0.03927 0.0
C1695 C 0.43608 0.41866 0.02289 0.0
C1696 C 0.42549 0.4198 0.01468 0.0
C1697 C 0.41281 0.41419 0.02285 0.0
C1698 C 0.41069 0.40744 0.03924 0.0
C1699 C 0.4526 0.41005 0.13388 0.0
C1700 C 0.45553 0.42358 0.13869 0.0
C1701 C 0.44275 0.40229 0.12042 0.0
C1702 C 0.43562 0.40789 0.11155 0.0
C1703 C 0.43844 0.42133 0.11645 0.0
C1704 C 0.44826 0.42908 0.12991 0.0
C1705 C 0.42563 0.39996 0.09666 0.0
C1706 C 0.42766 0.40605 0.07971 0.0
C1707 C 0.41446 0.38639 0.09888 0.0
C1708 C 0.41122 0.37981 0.11677 0.0
C1709 C 0.40944 0.38664 0.13176 0.0
C1710 C 0.40656 0.3805 0.14863 0.0
C1711 C 0.40532 0.36746 0.15068 0.0
C1712 C 0.40693 0.36052 0.13583 0.0
C1713 C 0.40984 0.36664 0.11893 0.0
H1714 H 0.40309 0.36272 0.16376 0.0
H1715 H 0.42712 0.42504 0.00202 0.0
H1716 H 0.63545 0.6854 0.34426 0.0
H1717 H 0.62966 0.69557 0.36976 0.0
H1718 H 0.66892 0.70825 0.39514 0.0
H1719 H 0.67443 0.69744 0.37013 0.0
H1720 H 0.6516 0.70155 0.4201 0.0
H1721 H 0.66197 0.73075 0.36914 0.0
H1722 H 0.66001 0.73672 0.33775 0.0
H1723 H 0.61811 0.72517 0.34567 0.0
H1724 H 0.61977 0.71896 0.37706 0.0
H1725 H 0.66036 0.76354 0.46602 0.0
H1726 H 0.66211 0.74744 0.44497 0.0
H1727 H 0.61825 0.72393 0.43863 0.0
H1728 H 0.61622 0.73938 0.46064 0.0
H1729 H 0.63633 0.73502 0.40499 0.0
H1730 H 0.62823 0.70788 0.45846 0.0
H1731 H 0.63274 0.70447 0.49007 0.0
H1732 H 0.6738 0.71541 0.47724 0.0
H1733 H 0.6696 0.71911 0.44559 0.0
C1734 C 0.64276 0.69019 0.35541 0.0
C1735 C 0.65544 0.69072 0.35512 0.0
C1736 C 0.63948 0.69609 0.36993 0.0
C1737 C 0.649 0.70305 0.38419 0.0
C1738 C 0.66141 0.70301 0.3843 0.0
C1739 C 0.66457 0.69683 0.36997 0.0
C1740 C 0.64632 0.71091 0.3985 0.0
C1741 C 0.64834 0.70892 0.41673 0.0
C1742 C 0.64198 0.72052 0.39424 0.0
C1743 C 0.64095 0.72424 0.37538 0.0
C1744 C 0.65231 0.72938 0.36414 0.0
C1745 C 0.65126 0.73283 0.34636 0.0
C1746 C 0.63893 0.73128 0.33971 0.0
C1747 C 0.62764 0.72633 0.35084 0.0
C1748 C 0.62863 0.72285 0.36863 0.0
C1749 C 0.65101 0.75476 0.46062 0.0
C1750 C 0.63812 0.75285 0.46516 0.0
C1751 C 0.65208 0.74563 0.44844 0.0
C1752 C 0.64032 0.73454 0.4403 0.0
C1753 C 0.62744 0.73248 0.44478 0.0
C1754 C 0.62634 0.74143 0.45727 0.0
C1755 C 0.64159 0.72559 0.42637 0.0
C1756 C 0.6394 0.72749 0.40825 0.0
C1757 C 0.64611 0.71621 0.43071 0.0
C1758 C 0.64863 0.71391 0.4497 0.0
C1759 C 0.63826 0.7097 0.46241 0.0
C1760 C 0.64075 0.70768 0.48033 0.0
C1761 C 0.65356 0.70976 0.48567 0.0
C1762 C 0.66389 0.71382 0.47309 0.0
C1763 C 0.66145 0.71587 0.45516 0.0
H1764 H 0.65547 0.70819 0.49955 0.0
H1765 H 0.63814 0.73396 0.32594 0.0
H1766 H 0.30787 0.94034 0.39393 0.0
H1767 H 0.29331 0.92038 0.41216 0.0
H1768 H 0.276 0.94341 0.43664 0.0
H1769 H 0.29098 0.96355 0.41918 0.0
H1770 H 0.28092 0.9306 0.46143 0.0
H1771 H 0.25862 0.91699 0.40316 0.0
H1772 H 0.25672 0.9124 0.37025 0.0
H1773 H 0.26829 0.88141 0.37739 0.0
H1774 H 0.27044 0.88595 0.41034 0.0
H1775 H 0.22025 0.87312 0.49452 0.0
H1776 H 0.23608 0.89272 0.47671 0.0
H1777 H 0.25934 0.87246 0.46589 0.0
H1778 H 0.24399 0.85307 0.48445 0.0
H1779 H 0.25176 0.88328 0.43448 0.0
H1780 H 0.27294 0.89712 0.49393 0.0
H1781 H 0.27322 0.90162 0.52669 0.0
H1782 H 0.26173 0.93236 0.51675 0.0
H1783 H 0.26116 0.92788 0.48391 0.0
C1784 C 0.30092 0.94113 0.40314 0.0
C1785 C 0.3005 0.95351 0.40495 0.0
C1786 C 0.29254 0.92968 0.4135 0.0
C1787 C 0.28338 0.9303 0.4256 0.0
C1788 C 0.28295 0.94265 0.42739 0.0
C1789 C 0.29147 0.95416 0.41725 0.0
C1790 C 0.27444 0.91821 0.4367 0.0
C1791 C 0.27443 0.9203 0.45546 0.0
C1792 C 0.26613 0.90469 0.42901 0.0
C1793 C 0.26483 0.90192 0.4092 0.0
C1794 C 0.26086 0.90927 0.3977 0.0
C1795 C 0.25972 0.90667 0.37904 0.0
C1796 C 0.26242 0.89665 0.37173 0.0
C1797 C 0.26623 0.88919 0.38307 0.0
C1798 C 0.2674 0.89176 0.40174 0.0
C1799 C 0.22886 0.87289 0.48868 0.0
C1800 C 0.23083 0.86147 0.49102 0.0
C1801 C 0.23782 0.88407 0.47837 0.0
C1802 C 0.24884 0.88399 0.47004 0.0
C1803 C 0.25083 0.87263 0.47217 0.0
C1804 C 0.24199 0.86153 0.48271 0.0
C1805 C 0.25824 0.89579 0.45903 0.0
C1806 C 0.25831 0.89361 0.44034 0.0
C1807 C 0.26642 0.90927 0.46672 0.0
C1808 C 0.26687 0.91206 0.48646 0.0
C1809 C 0.27035 0.90475 0.49873 0.0
C1810 C 0.27059 0.90732 0.51731 0.0
C1811 C 0.26746 0.91725 0.5238 0.0
C1812 C 0.26413 0.92466 0.5117 0.0
C1813 C 0.26386 0.92212 0.4931 0.0
H1814 H 0.26765 0.91921 0.5382 0.0
H1815 H 0.26152 0.89464 0.35728 0.0
H1816 H 0.03865 0.32646 0.37225 0.0
H1817 H 0.05189 0.33129 0.40046 0.0
H1818 H 0.08395 0.36938 0.37896 0.0
H1819 H 0.07102 0.36429 0.35046 0.0
H1820 H 0.09491 0.357 0.39446 0.0
H1821 H 0.06117 0.36828 0.41242 0.0
H1822 H 0.03798 0.36465 0.4162 0.0
H1823 H 0.02787 0.32977 0.44955 0.0
H1824 H 0.05095 0.33307 0.44577 0.0
H1825 H 0.13156 0.3823 0.47759 0.0
H1826 H 0.11612 0.38054 0.4528 0.0
H1827 H 0.08866 0.33765 0.46492 0.0
H1828 H 0.10413 0.33932 0.48964 0.0
H1829 H 0.07555 0.35386 0.45507 0.0
H1830 H 0.1095 0.34248 0.43464 0.0
H1831 H 0.13311 0.34723 0.43122 0.0
H1832 H 0.14312 0.38424 0.40256 0.0
H1833 H 0.1196 0.37981 0.40609 0.0
C1834 C 0.04849 0.3359 0.37357 0.0
C1835 C 0.05379 0.34498 0.3591 0.0
C1836 C 0.05602 0.33871 0.38977 0.0
C1837 C 0.06886 0.35082 0.392 0.0
C1838 C 0.07409 0.35997 0.37761 0.0
C1839 C 0.06668 0.35704 0.3613 0.0
C1840 C 0.07713 0.35363 0.40897 0.0
C1841 C 0.0907 0.35656 0.40766 0.0
C1842 C 0.07164 0.35284 0.4263 0.0
C1843 C 0.05776 0.35085 0.42867 0.0
C1844 C 0.05397 0.35977 0.42045 0.0
C1845 C 0.04085 0.35778 0.42261 0.0
C1846 C 0.03145 0.34696 0.43307 0.0
C1847 C 0.03516 0.33813 0.44143 0.0
C1848 C 0.04827 0.34007 0.4393 0.0
C1849 C 0.12206 0.37261 0.47523 0.0
C1850 C 0.11904 0.36092 0.48542 0.0
C1851 C 0.1133 0.3716 0.46106 0.0
C1852 C 0.10133 0.35894 0.45701 0.0
C1853 C 0.09785 0.34751 0.46789 0.0
C1854 C 0.10671 0.34845 0.4819 0.0
C1855 C 0.09317 0.35722 0.44037 0.0
C1856 C 0.07969 0.35444 0.44178 0.0
C1857 C 0.09876 0.35832 0.42311 0.0
C1858 C 0.11285 0.3609 0.42081 0.0
C1859 C 0.11677 0.35169 0.42775 0.0
C1860 C 0.13013 0.35431 0.42577 0.0
C1861 C 0.13962 0.36605 0.41672 0.0
C1862 C 0.13576 0.37516 0.40959 0.0
C1863 C 0.12242 0.3726 0.41157 0.0
H1864 H 0.14996 0.36806 0.4152 0.0
H1865 H 0.02129 0.34544 0.43472 0.0
H1866 H 0.04504 0.32858 0.27543 0.0
H1867 H 0.05622 0.32019 0.25519 0.0
H1868 H 0.03715 0.28078 0.28149 0.0
H1869 H 0.02606 0.28928 0.30228 0.0
H1870 H 0.06382 0.28975 0.27452 0.0
H1871 H 0.02486 0.28285 0.24093 0.0
H1872 H 0.00814 0.28872 0.22834 0.0
H1873 H 0.0397 0.32143 0.19826 0.0
H1874 H 0.05667 0.3159 0.21087 0.0
H1875 H 0.09208 0.26882 0.20218 0.0
H1876 H 0.07409 0.26827 0.22104 0.0
H1877 H 0.08849 0.31129 0.20983 0.0
H1878 H 0.10641 0.31188 0.1911 0.0
H1879 H 0.05984 0.29456 0.20853 0.0
H1880 H 0.09899 0.30366 0.24718 0.0
H1881 H 0.11562 0.29773 0.25997 0.0
H1882 H 0.08282 0.25996 0.2803 0.0
H1883 H 0.06598 0.26559 0.2674 0.0
C1884 C 0.04331 0.31818 0.27712 0.0
C1885 C 0.03466 0.3096 0.2905 0.0
C1886 C 0.04961 0.31334 0.26539 0.0
C1887 C 0.04727 0.29976 0.26659 0.0
C1888 C 0.03898 0.29126 0.28026 0.0
C1889 C 0.03267 0.29613 0.29211 0.0
C1890 C 0.05369 0.29469 0.25352 0.0
C1891 C 0.0627 0.29046 0.26007 0.0
C1892 C 0.05223 0.29566 0.23467 0.0
C1893 C 0.04206 0.29899 0.22693 0.0
C1894 C 0.02826 0.29136 0.23172 0.0
C1895 C 0.01873 0.29462 0.22456 0.0
C1896 C 0.02286 0.30545 0.21252 0.0
C1897 C 0.03652 0.31303 0.20758 0.0
C1898 C 0.04609 0.30983 0.21471 0.0
C1899 C 0.09121 0.27806 0.20355 0.0
C1900 C 0.10063 0.29042 0.19534 0.0
C1901 C 0.08102 0.27775 0.21434 0.0
C1902 C 0.08006 0.28977 0.21688 0.0
C1903 C 0.08907 0.30192 0.20801 0.0
C1904 C 0.09933 0.30227 0.19742 0.0
C1905 C 0.0703 0.29016 0.2296 0.0
C1906 C 0.06066 0.29349 0.22296 0.0
C1907 C 0.07111 0.28828 0.24832 0.0
C1908 C 0.08123 0.28495 0.25613 0.0
C1909 C 0.09533 0.29403 0.25425 0.0
C1910 C 0.10479 0.29074 0.26154 0.0
C1911 C 0.10028 0.27845 0.27089 0.0
C1912 C 0.0863 0.26946 0.27302 0.0
C1913 C 0.07679 0.27269 0.26572 0.0
H1914 H 0.10762 0.27593 0.27653 0.0
H1915 H 0.01547 0.30796 0.207 0.0
H1916 H 0.67893 0.70239 0.27394 0.0
H1917 H 0.68489 0.72406 0.25913 0.0
H1918 H 0.71351 0.74735 0.30266 0.0
H1919 H 0.70764 0.72557 0.31761 0.0
H1920 H 0.69558 0.75763 0.29168 0.0
H1921 H 0.72663 0.74501 0.26601 0.0
H1922 H 0.73322 0.72921 0.25145 0.0
H1923 H 0.70729 0.72382 0.20549 0.0
H1924 H 0.70038 0.73943 0.21989 0.0
H1925 H 0.71961 0.81959 0.24199 0.0
H1926 H 0.71925 0.80111 0.2598 0.0
H1927 H 0.69575 0.77115 0.21726 0.0
H1928 H 0.69672 0.78962 0.19902 0.0
H1929 H 0.71426 0.76594 0.23002 0.0
H1930 H 0.68103 0.77572 0.25621 0.0
H1931 H 0.67298 0.79044 0.27047 0.0
H1932 H 0.7014 0.80013 0.31492 0.0
H1933 H 0.70975 0.7856 0.30079 0.0
C1934 C 0.68646 0.71211 0.28043 0.0
C1935 C 0.69282 0.71229 0.29694 0.0
C1936 C 0.6899 0.72447 0.2719 0.0
C1937 C 0.69971 0.73727 0.27975 0.0
C1938 C 0.70594 0.73755 0.2964 0.0
C1939 C 0.70261 0.72512 0.30486 0.0
C1940 C 0.70332 0.75026 0.2704 0.0
C1941 C 0.69993 0.75964 0.27835 0.0
C1942 C 0.70871 0.75265 0.25287 0.0
C1943 C 0.71291 0.74332 0.2441 0.0
C1944 C 0.72225 0.74037 0.25286 0.0
C1945 C 0.72606 0.73146 0.24462 0.0
C1946 C 0.72066 0.72549 0.22757 0.0
C1947 C 0.71146 0.72844 0.2187 0.0
C1948 C 0.70761 0.73734 0.22689 0.0
C1949 C 0.71455 0.8091 0.2363 0.0
C1950 C 0.7081 0.80608 0.2191 0.0
C1951 C 0.71422 0.79852 0.2466 0.0
C1952 C 0.70729 0.7847 0.24 0.0
C1953 C 0.70112 0.78172 0.22269 0.0
C1954 C 0.70154 0.79229 0.21234 0.0
C1955 C 0.70623 0.77322 0.25109 0.0
C1956 C 0.7101 0.7641 0.24346 0.0
C1957 C 0.70113 0.77098 0.26883 0.0
C1958 C 0.69613 0.77972 0.27734 0.0
C1959 C 0.68564 0.78108 0.26895 0.0
C1960 C 0.68101 0.78937 0.27702 0.0
C1961 C 0.68671 0.79625 0.29356 0.0
C1962 C 0.69702 0.79482 0.30209 0.0
C1963 C 0.7017 0.78656 0.29406 0.0
H1964 H 0.68311 0.80266 0.2998 0.0
H1965 H 0.72362 0.71859 0.22122 0.0
H1966 H 0.29974 0.97319 0.32223 0.0
H1967 H 0.28455 0.9628 0.29567 0.0
H1968 H 0.25003 0.95561 0.32743 0.0
H1969 H 0.26503 0.9659 0.35399 0.0
H1970 H 0.24529 0.93252 0.30798 0.0
H1971 H 0.26275 0.98111 0.29731 0.0
H1972 H 0.28078 0.00543 0.29329 0.0
H1973 H 0.2955 0.9929 0.24766 0.0
H1974 H 0.27766 0.96848 0.25157 0.0
H1975 H 0.19398 0.91242 0.24111 0.0
H1976 H 0.21063 0.92551 0.26527 0.0
H1977 H 0.24352 0.93388 0.22948 0.0
H1978 H 0.2269 0.92136 0.20488 0.0
H1979 H 0.24998 0.95628 0.25024 0.0
H1980 H 0.23288 0.90806 0.26019 0.0
H1981 H 0.21532 0.88354 0.26396 0.0
H1982 H 0.20068 0.89493 0.31072 0.0
H1983 H 0.21804 0.91956 0.30707 0.0
C1984 C 0.28893 0.9695 0.32355 0.0
C1985 C 0.28362 0.97038 0.34029 0.0
C1986 C 0.28027 0.9636 0.30833 0.0
C1987 C 0.26617 0.95848 0.30957 0.0
C1988 C 0.26088 0.95949 0.32618 0.0
C1989 C 0.26951 0.96542 0.34135 0.0
C1990 C 0.25676 0.95156 0.2938 0.0
C1991 C 0.24621 0.93777 0.29543 0.0
C1992 C 0.25825 0.95827 0.27724 0.0
C1993 C 0.26896 0.97295 0.27485 0.0
C1994 C 0.26991 0.98353 0.28652 0.0
C1995 C 0.28008 0.99733 0.28424 0.0
C1996 C 0.28931 0.0007 0.27026 0.0
C1997 C 0.28836 0.99028 0.2585 0.0
C1998 C 0.27821 0.97645 0.26073 0.0
C1999 C 0.20475 0.91727 0.23821 0.0
C2000 C 0.20907 0.91576 0.22102 0.0
C2001 C 0.21427 0.92462 0.25214 0.0
C2002 C 0.22833 0.93045 0.2493 0.0
C2003 C 0.23272 0.92938 0.23202 0.0
C2004 C 0.22319 0.9221 0.21802 0.0
C2005 C 0.23836 0.9373 0.26452 0.0
C2006 C 0.24907 0.95102 0.26278 0.0
C2007 C 0.2371 0.9305 0.28097 0.0
C2008 C 0.22668 0.91568 0.28326 0.0
C2009 C 0.22585 0.90535 0.2712 0.0
C2010 C 0.21594 0.89143 0.27332 0.0
C2011 C 0.20687 0.88768 0.28754 0.0
C2012 C 0.20771 0.89785 0.2997 0.0
C2013 C 0.21759 0.91179 0.29762 0.0
H2014 H 0.1992 0.87689 0.28917 0.0
H2015 H 0.29717 0.0114 0.26852 0.0
H2016 H 0.66231 0.97085 0.31063 0.0
H2017 H 0.66568 0.95825 0.28558 0.0
H2018 H 0.69768 0.95709 0.31645 0.0
H2019 H 0.69441 0.96953 0.34144 0.0
H2020 H 0.68781 0.96275 0.26455 0.0
H2021 H 0.69336 0.92468 0.31149 0.0
H2022 H 0.68571 0.91429 0.34127 0.0
H2023 H 0.65069 0.91957 0.33677 0.0
H2024 H 0.658 0.92978 0.30685 0.0
H2025 H 0.71518 0.92537 0.21881 0.0
H2026 H 0.71047 0.93958 0.23989 0.0
H2027 H 0.66983 0.90505 0.24705 0.0
H2028 H 0.67458 0.89071 0.22644 0.0
H2029 H 0.68172 0.91657 0.27872 0.0
H2030 H 0.67487 0.93258 0.22223 0.0
H2031 H 0.68085 0.942 0.19172 0.0
H2032 H 0.71526 0.97925 0.21389 0.0
H2033 H 0.7096 0.96997 0.24453 0.0
C2034 C 0.67019 0.96808 0.312 0.0
C2035 C 0.67798 0.9711 0.32816 0.0
C2036 C 0.67211 0.9609 0.29765 0.0
C2037 C 0.68179 0.95656 0.29929 0.0
C2038 C 0.69002 0.96016 0.31502 0.0
C2039 C 0.68813 0.96732 0.3293 0.0
C2040 C 0.68285 0.94761 0.28508 0.0
C2041 C 0.68647 0.95265 0.2676 0.0
C2042 C 0.68085 0.93432 0.28902 0.0
C2043 C 0.6763 0.9281 0.30698 0.0
C2044 C 0.684 0.92357 0.31682 0.0
C2045 C 0.67972 0.91771 0.33372 0.0
C2046 C 0.66772 0.91626 0.34088 0.0
C2047 C 0.65999 0.9207 0.33119 0.0
C2048 C 0.66421 0.92654 0.31427 0.0
C2049 C 0.70526 0.92081 0.22491 0.0
C2050 C 0.69525 0.90691 0.22092 0.0
C2051 C 0.70253 0.92898 0.23682 0.0
C2052 C 0.68975 0.92342 0.24493 0.0
C2053 C 0.67974 0.90958 0.24091 0.0
C2054 C 0.68244 0.90142 0.229 0.0
C2055 C 0.68697 0.93181 0.25821 0.0
C2056 C 0.68304 0.92666 0.27559 0.0
C2057 C 0.68848 0.94488 0.25406 0.0
C2058 C 0.69188 0.95052 0.23566 0.0
C2059 C 0.68378 0.94274 0.22059 0.0
C2060 C 0.68709 0.94806 0.20327 0.0
C2061 C 0.69844 0.96121 0.20086 0.0
C2062 C 0.70648 0.96907 0.21577 0.0
C2063 C 0.70321 0.96378 0.23312 0.0
H2064 H 0.701 0.96531 0.18744 0.0
H2065 H 0.66441 0.91168 0.35394 0.0
H2066 H 0.05431 0.71509 0.28913 0.0
H2067 H 0.06869 0.73612 0.27263 0.0
H2068 H 0.04165 0.75173 0.28538 0.0
H2069 H 0.02731 0.73079 0.30233 0.0
H2070 H 0.04808 0.75162 0.24724 0.0
H2071 H 0.07009 0.7673 0.30569 0.0
H2072 H 0.08091 0.76565 0.33392 0.0
H2073 H 0.11212 0.76378 0.3037 0.0
H2074 H 0.10138 0.76527 0.27523 0.0
H2075 H 0.0904 0.81723 0.20825 0.0
H2076 H 0.07589 0.79892 0.22876 0.0
H2077 H 0.10503 0.78466 0.23012 0.0
H2078 H 0.1199 0.80333 0.21048 0.0
H2079 H 0.09678 0.78506 0.26275 0.0
H2080 H 0.07479 0.76755 0.20471 0.0
H2081 H 0.06414 0.76802 0.17565 0.0
H2082 H 0.03314 0.77181 0.20377 0.0
H2083 H 0.04372 0.77153 0.23301 0.0
C2084 C 0.05149 0.72304 0.28867 0.0
C2085 C 0.03968 0.72127 0.29709 0.0
C2086 C 0.05973 0.73506 0.27923 0.0
C2087 C 0.0562 0.74543 0.27784 0.0
C2088 C 0.04451 0.7438 0.28635 0.0
C2089 C 0.03638 0.73188 0.29607 0.0
C2090 C 0.06448 0.75768 0.26682 0.0
C2091 C 0.05866 0.75912 0.25075 0.0
C2092 C 0.07835 0.76713 0.27124 0.0
C2093 C 0.08486 0.76627 0.28832 0.0
C2094 C 0.07919 0.76641 0.30505 0.0
C2095 C 0.08533 0.76554 0.3211 0.0
C2096 C 0.09717 0.76457 0.32062 0.0
C2097 C 0.10293 0.76452 0.30406 0.0
C2098 C 0.09684 0.7654 0.28796 0.0
C2099 C 0.09377 0.81027 0.21303 0.0
C2100 C 0.10629 0.81171 0.20762 0.0
C2101 C 0.0854 0.79972 0.22461 0.0
C2102 C 0.0893 0.79032 0.23082 0.0
C2103 C 0.1018 0.79177 0.22548 0.0
C2104 C 0.11021 0.80236 0.21405 0.0
C2105 C 0.08045 0.77899 0.24296 0.0
C2106 C 0.08616 0.77769 0.25926 0.0
C2107 C 0.06653 0.76952 0.2386 0.0
C2108 C 0.06014 0.76968 0.22104 0.0
C2109 C 0.06577 0.7686 0.20469 0.0
C2110 C 0.05973 0.76881 0.18819 0.0
C2111 C 0.048 0.76999 0.18786 0.0
C2112 C 0.04225 0.77092 0.20404 0.0
C2113 C 0.04825 0.77073 0.22058 0.0
H2114 H 0.04334 0.77015 0.17508 0.0
H2115 H 0.10191 0.7639 0.33306 0.0
H2116 H 0.26414 0.31445 0.3421 0.0
H2117 H 0.25065 0.3067 0.31407 0.0
H2118 H 0.28754 0.32662 0.28346 0.0
H2119 H 0.30118 0.33483 0.3116 0.0
H2120 H 0.26986 0.33252 0.26985 0.0
H2121 H 0.26777 0.29045 0.28547 0.0
H2122 H 0.26459 0.2713 0.30482 0.0
H2123 H 0.22263 0.25975 0.31202 0.0
H2124 H 0.22558 0.27896 0.29293 0.0
H2125 H 0.22622 0.30348 0.1907 0.0
H2126 H 0.24372 0.30657 0.21336 0.0
H2127 H 0.2147 0.29727 0.25558 0.0
H2128 H 0.19732 0.29433 0.2331 0.0
H2129 H 0.23114 0.2845 0.25943 0.0
H2130 H 0.23548 0.32958 0.2475 0.0
H2131 H 0.23904 0.34856 0.22754 0.0
H2132 H 0.27781 0.35374 0.2123 0.0
H2133 H 0.27437 0.33463 0.232 0.0
C2134 C 0.26944 0.3171 0.32944 0.0
C2135 C 0.28377 0.32527 0.32914 0.0
C2136 C 0.26169 0.31256 0.31337 0.0
C2137 C 0.26806 0.31586 0.29661 0.0
C2138 C 0.28238 0.32389 0.29623 0.0
C2139 C 0.29017 0.32857 0.31234 0.0
C2140 C 0.25964 0.31162 0.27961 0.0
C2141 C 0.26161 0.32193 0.26738 0.0
C2142 C 0.2488 0.29783 0.27636 0.0
C2143 C 0.24693 0.28621 0.28784 0.0
C2144 C 0.25788 0.28389 0.29128 0.0
C2145 C 0.25612 0.27301 0.30219 0.0
C2146 C 0.24342 0.26433 0.30967 0.0
C2147 C 0.23245 0.26649 0.30622 0.0
C2148 C 0.23416 0.27736 0.29533 0.0
C2149 C 0.22358 0.30191 0.2048 0.0
C2150 C 0.2105 0.29877 0.21024 0.0
C2151 C 0.23355 0.3037 0.21769 0.0
C2152 C 0.23049 0.3022 0.23612 0.0
C2153 C 0.21724 0.29844 0.24142 0.0
C2154 C 0.20737 0.29685 0.22862 0.0
C2155 C 0.2412 0.30546 0.25014 0.0
C2156 C 0.23962 0.29498 0.26178 0.0
C2157 C 0.25249 0.31904 0.25274 0.0
C2158 C 0.25459 0.33058 0.24103 0.0
C2159 C 0.24471 0.33469 0.23977 0.0
C2160 C 0.24671 0.34548 0.22853 0.0
C2161 C 0.25862 0.35233 0.21861 0.0
C2162 C 0.26857 0.34841 0.21996 0.0
C2163 C 0.2666 0.3376 0.23116 0.0
H2164 H 0.26016 0.36068 0.20992 0.0
H2165 H 0.24208 0.25591 0.31811 0.0
H2166 H 0.31398 0.38906 0.38482 0.0
H2167 H 0.30179 0.39716 0.40432 0.0
H2168 H 0.27203 0.35464 0.41516 0.0
H2169 H 0.2841 0.3466 0.39604 0.0
H2170 H 0.27558 0.39303 0.40636 0.0
H2171 H 0.26657 0.35122 0.45912 0.0
H2172 H 0.27804 0.33871 0.47 0.0
H2173 H 0.31669 0.37192 0.45317 0.0
H2174 H 0.3055 0.38473 0.44245 0.0
H2175 H 0.21877 0.37473 0.45958 0.0
H2176 H 0.23702 0.37787 0.43981 0.0
H2177 H 0.26557 0.39276 0.48524 0.0
H2178 H 0.24708 0.3887 0.50538 0.0
H2179 H 0.26831 0.37457 0.46822 0.0
H2180 H 0.26755 0.41438 0.44932 0.0
H2181 H 0.25782 0.42869 0.43925 0.0
H2182 H 0.2421 0.40356 0.39063 0.0
H2183 H 0.25156 0.38896 0.4005 0.0
C2184 C 0.3047 0.38147 0.39114 0.0
C2185 C 0.30016 0.3672 0.38926 0.0
C2186 C 0.29778 0.38611 0.40227 0.0
C2187 C 0.28623 0.37649 0.41153 0.0
C2188 C 0.28114 0.36224 0.40851 0.0
C2189 C 0.28808 0.35764 0.39759 0.0
C2190 C 0.2798 0.38109 0.42522 0.0
C2191 C 0.27404 0.38913 0.41994 0.0
C2192 C 0.27831 0.37643 0.44314 0.0
C2193 C 0.28516 0.3689 0.44989 0.0
C2194 C 0.27753 0.3559 0.45785 0.0
C2195 C 0.28398 0.34874 0.46397 0.0
C2196 C 0.29807 0.3545 0.46224 0.0
C2197 C 0.30576 0.36745 0.45445 0.0
C2198 C 0.29937 0.37466 0.44834 0.0
C2199 C 0.22891 0.37865 0.46542 0.0
C2200 C 0.23138 0.38124 0.48415 0.0
C2201 C 0.23943 0.38071 0.454 0.0
C2202 C 0.25275 0.38572 0.46095 0.0
C2203 C 0.25539 0.38892 0.47953 0.0
C2204 C 0.24481 0.38668 0.49103 0.0
C2205 C 0.2634 0.38597 0.44918 0.0
C2206 C 0.27001 0.3788 0.45481 0.0
C2207 C 0.26593 0.39176 0.43179 0.0
C2208 C 0.26024 0.40053 0.42571 0.0
C2209 C 0.26195 0.41184 0.43653 0.0
C2210 C 0.25649 0.42001 0.43085 0.0
C2211 C 0.24933 0.41703 0.41432 0.0
C2212 C 0.24765 0.40587 0.40342 0.0
C2213 C 0.25309 0.39765 0.40904 0.0
H2214 H 0.24511 0.42337 0.40995 0.0
H2215 H 0.30304 0.34894 0.46696 0.0
H2216 H 0.66433 0.96586 0.41023 0.0
H2217 H 0.66222 0.94537 0.4247 0.0
H2218 H 0.62907 0.91889 0.38766 0.0
H2219 H 0.63101 0.93943 0.37323 0.0
H2220 H 0.62325 0.90971 0.42115 0.0
H2221 H 0.66069 0.92349 0.38249 0.0
H2222 H 0.68266 0.9395 0.36877 0.0
H2223 H 0.70337 0.94619 0.42015 0.0
H2224 H 0.68148 0.93047 0.4343 0.0
H2225 H 0.62665 0.84907 0.44457 0.0
H2226 H 0.6279 0.86812 0.42717 0.0
H2227 H 0.65561 0.89771 0.46736 0.0
H2228 H 0.65397 0.87876 0.48532 0.0
H2229 H 0.66378 0.90406 0.42995 0.0
H2230 H 0.62505 0.89126 0.4683 0.0
H2231 H 0.60276 0.87477 0.48089 0.0
H2232 H 0.58429 0.86522 0.42766 0.0
H2233 H 0.60654 0.88151 0.41472 0.0
C2234 C 0.65663 0.95568 0.40509 0.0
C2235 C 0.64791 0.95426 0.39049 0.0
C2236 C 0.65545 0.94397 0.41336 0.0
C2237 C 0.64563 0.93059 0.40708 0.0
C2238 C 0.63675 0.92912 0.39269 0.0
C2239 C 0.63788 0.94086 0.38445 0.0
C2240 C 0.64462 0.91819 0.41572 0.0
C2241 C 0.63206 0.90837 0.4228 0.0
C2242 C 0.65615 0.91648 0.41799 0.0
C2243 C 0.6694 0.92586 0.4095 0.0
C2244 C 0.66991 0.92845 0.39091 0.0
C2245 C 0.68235 0.93747 0.38304 0.0
C2246 C 0.6944 0.94385 0.39358 0.0
C2247 C 0.69403 0.94123 0.41201 0.0
C2248 C 0.6816 0.93227 0.41996 0.0
C2249 C 0.63287 0.8596 0.44988 0.0
C2250 C 0.64019 0.86233 0.46642 0.0
C2251 C 0.63365 0.87047 0.43982 0.0
C2252 C 0.64185 0.88428 0.446 0.0
C2253 C 0.6493 0.8871 0.46232 0.0
C2254 C 0.64839 0.87623 0.47252 0.0
C2255 C 0.64251 0.89582 0.43559 0.0
C2256 C 0.65498 0.90542 0.42815 0.0
C2257 C 0.63087 0.89722 0.43275 0.0
C2258 C 0.61749 0.88748 0.44053 0.0
C2259 C 0.61627 0.88554 0.45926 0.0
C2260 C 0.60364 0.87625 0.46647 0.0
C2261 C 0.59213 0.86892 0.45508 0.0
C2262 C 0.59322 0.87089 0.43646 0.0
C2263 C 0.60584 0.88016 0.42919 0.0
H2264 H 0.58235 0.86173 0.46068 0.0
H2265 H 0.70403 0.95082 0.38747 0.0
H2266 H 0.03601 0.7068 0.37513 0.0
H2267 H 0.04851 0.71659 0.40392 0.0
H2268 H 0.07828 0.70512 0.38865 0.0
H2269 H 0.06606 0.69562 0.35974 0.0
H2270 H 0.06911 0.69996 0.4267 0.0
H2271 H 0.08643 0.73563 0.38102 0.0
H2272 H 0.08352 0.7498 0.3581 0.0
H2273 H 0.0671 0.76554 0.39796 0.0
H2274 H 0.06969 0.75123 0.42106 0.0
H2275 H 0.12977 0.74194 0.47697 0.0
H2276 H 0.11154 0.72863 0.45475 0.0
H2277 H 0.0937 0.75418 0.4666 0.0
H2278 H 0.11252 0.76826 0.48787 0.0
H2279 H 0.09375 0.75142 0.43261 0.0
H2280 H 0.07883 0.71894 0.47943 0.0
H2281 H 0.08043 0.70454 0.50319 0.0
H2282 H 0.09021 0.68244 0.46358 0.0
H2283 H 0.08887 0.69684 0.43959 0.0
C2284 C 0.0451 0.70618 0.37803 0.0
C2285 C 0.05012 0.70054 0.36514 0.0
C2286 C 0.05222 0.71177 0.39446 0.0
C2287 C 0.06431 0.71158 0.39833 0.0
C2288 C 0.06894 0.70532 0.38589 0.0
C2289 C 0.06199 0.69997 0.36936 0.0
C2290 C 0.07282 0.71892 0.4146 0.0
C2291 C 0.07457 0.71121 0.42806 0.0
C2292 C 0.07952 0.73355 0.41654 0.0
C2293 C 0.07809 0.74224 0.4027 0.0
C2294 C 0.08208 0.74201 0.38485 0.0
C2295 C 0.08051 0.75009 0.37184 0.0
C2296 C 0.0751 0.75854 0.37656 0.0
C2297 C 0.07127 0.75896 0.39432 0.0
C2298 C 0.07278 0.75087 0.40737 0.0
C2299 C 0.12204 0.74483 0.4748 0.0
C2300 C 0.12275 0.75629 0.48419 0.0
C2301 C 0.11144 0.73702 0.46228 0.0
C2302 C 0.10107 0.74023 0.45913 0.0
C2303 C 0.10153 0.75144 0.4688 0.0
C2304 C 0.11226 0.75941 0.48114 0.0
C2305 C 0.09033 0.73251 0.44486 0.0
C2306 C 0.08816 0.74015 0.43163 0.0
C2307 C 0.08305 0.71779 0.44335 0.0
C2308 C 0.08384 0.70905 0.45772 0.0
C2309 C 0.08142 0.71108 0.47579 0.0
C2310 C 0.08226 0.7029 0.4893 0.0
C2311 C 0.08545 0.6926 0.4849 0.0
C2312 C 0.08776 0.69043 0.46697 0.0
C2313 C 0.08693 0.69858 0.4534 0.0
H2314 H 0.0861 0.68628 0.49539 0.0
H2315 H 0.07389 0.7648 0.36648 0.0
H2316 H 0.29748 0.01799 0.68594 0.0
H2317 H 0.29218 0.02797 0.71207 0.0
H2318 H 0.33365 0.04531 0.73245 0.0
H2319 H 0.33884 0.0348 0.70668 0.0
H2320 H 0.31727 0.03761 0.75965 0.0
H2321 H 0.32278 0.06469 0.7076 0.0
H2322 H 0.31853 0.06904 0.6763 0.0
H2323 H 0.27643 0.05443 0.68786 0.0
H2324 H 0.28039 0.04981 0.71919 0.0
H2325 H 0.32167 0.09705 0.8068 0.0
H2326 H 0.32444 0.08139 0.78612 0.0
H2327 H 0.28075 0.05682 0.77811 0.0
H2328 H 0.27772 0.07191 0.79964 0.0
H2329 H 0.29734 0.06734 0.74558 0.0
H2330 H 0.29341 0.04216 0.79931 0.0
H2331 H 0.29912 0.0392 0.83055 0.0
H2332 H 0.34037 0.05253 0.81568 0.0
H2333 H 0.33497 0.05578 0.78439 0.0
C2334 C 0.30542 0.02378 0.69612 0.0
C2335 C 0.31862 0.02574 0.69417 0.0
C2336 C 0.3024 0.02954 0.71101 0.0
C2337 C 0.31261 0.03773 0.724 0.0
C2338 C 0.32561 0.03911 0.72256 0.0
C2339 C 0.32858 0.0331 0.70782 0.0
C2340 C 0.30992 0.04543 0.73847 0.0
C2341 C 0.31304 0.04421 0.75654 0.0
C2342 C 0.30425 0.05396 0.73449 0.0
C2343 C 0.30185 0.05676 0.71568 0.0
C2344 C 0.31259 0.06231 0.70343 0.0
C2345 C 0.31024 0.06484 0.68569 0.0
C2346 C 0.29721 0.06198 0.68008 0.0
C2347 C 0.28652 0.05662 0.69222 0.0
C2348 C 0.28881 0.05405 0.70997 0.0
C2349 C 0.31258 0.08812 0.80111 0.0
C2350 C 0.29944 0.08584 0.80495 0.0
C2351 C 0.31422 0.07922 0.78917 0.0
C2352 C 0.3028 0.06798 0.78063 0.0
C2353 C 0.28968 0.06549 0.78457 0.0
C2354 C 0.288 0.07422 0.79677 0.0
C2355 C 0.30465 0.05945 0.76664 0.0
C2356 C 0.30146 0.06063 0.74865 0.0
C2357 C 0.31049 0.05113 0.77068 0.0
C2358 C 0.31381 0.04934 0.78953 0.0
C2359 C 0.30374 0.04462 0.80274 0.0
C2360 C 0.30691 0.04285 0.82045 0.0
C2361 C 0.3201 0.04569 0.8251 0.0
C2362 C 0.33016 0.05033 0.81206 0.0
C2363 C 0.32704 0.05213 0.79433 0.0
H2364 H 0.3225 0.04421 0.83877 0.0
H2365 H 0.29542 0.06394 0.66634 0.0
H2366 H 0.94978 0.29102 0.74105 0.0
H2367 H 0.93609 0.27041 0.75843 0.0
H2368 H 0.96043 0.25285 0.74008 0.0
H2369 H 0.97384 0.27328 0.72192 0.0
H2370 H 0.93492 0.23326 0.74079 0.0
H2371 H 0.96542 0.26848 0.78281 0.0
H2372 H 0.97721 0.29156 0.79813 0.0
H2373 H 0.93878 0.28556 0.81639 0.0
H2374 H 0.92673 0.26252 0.80096 0.0
H2375 H 0.91261 0.18435 0.81286 0.0
H2376 H 0.92709 0.20371 0.79361 0.0
H2377 H 0.89958 0.21974 0.79906 0.0
H2378 H 0.88473 0.20018 0.81758 0.0
H2379 H 0.92806 0.23969 0.80552 0.0
H2380 H 0.89799 0.20406 0.76179 0.0
H2381 H 0.88729 0.18075 0.74718 0.0
H2382 H 0.92686 0.18739 0.73339 0.0
H2383 H 0.93781 0.21068 0.74816 0.0
C2384 C 0.95216 0.28275 0.7405 0.0
C2385 C 0.96293 0.28383 0.73011 0.0
C2386 C 0.94437 0.27098 0.7506 0.0
C2387 C 0.94742 0.2602 0.75091 0.0
C2388 C 0.95793 0.26107 0.74014 0.0
C2389 C 0.96559 0.27276 0.72979 0.0
C2390 C 0.93975 0.24817 0.76268 0.0
C2391 C 0.93361 0.23468 0.755 0.0
C2392 C 0.93796 0.24998 0.78123 0.0
C2393 C 0.94516 0.26382 0.79059 0.0
C2394 C 0.95947 0.27212 0.78999 0.0
C2395 C 0.9662 0.28519 0.79871 0.0
C2396 C 0.95875 0.29003 0.80819 0.0
C2397 C 0.94454 0.2818 0.80902 0.0
C2398 C 0.93776 0.26873 0.8003 0.0
C2399 C 0.90952 0.19188 0.80979 0.0
C2400 C 0.89749 0.19068 0.81685 0.0
C2401 C 0.91786 0.20296 0.79887 0.0
C2402 C 0.91436 0.2131 0.79495 0.0
C2403 C 0.90246 0.21203 0.80205 0.0
C2404 C 0.89404 0.20088 0.81275 0.0
C2405 C 0.92312 0.22491 0.78352 0.0
C2406 C 0.92948 0.23834 0.79131 0.0
C2407 C 0.9253 0.22302 0.7652 0.0
C2408 C 0.91872 0.20905 0.75626 0.0
C2409 C 0.90441 0.2005 0.75579 0.0
C2410 C 0.89831 0.1873 0.74745 0.0
C2411 C 0.90639 0.18258 0.73941 0.0
C2412 C 0.92061 0.19106 0.73965 0.0
C2413 C 0.92677 0.20426 0.74799 0.0
H2414 H 0.90164 0.17235 0.73296 0.0
H2415 H 0.96398 0.30015 0.81494 0.0
H2416 H 0.73611 0.68059 0.67239 0.0
H2417 H 0.75027 0.68603 0.69982 0.0
H2418 H 0.7146 0.67272 0.73223 0.0
H2419 H 0.70028 0.66677 0.7048 0.0
H2420 H 0.7568 0.7029 0.72735 0.0
H2421 H 0.71766 0.65812 0.77029 0.0
H2422 H 0.69761 0.6346 0.76604 0.0
H2423 H 0.71284 0.62974 0.71526 0.0
H2424 H 0.73305 0.65315 0.71932 0.0
H2425 H 0.78706 0.71245 0.81498 0.0
H2426 H 0.77043 0.70847 0.79069 0.0
H2427 H 0.76931 0.67033 0.77512 0.0
H2428 H 0.78559 0.67409 0.79956 0.0
H2429 H 0.74484 0.66638 0.7725 0.0
H2430 H 0.78894 0.70159 0.7529 0.0
H2431 H 0.8106 0.72397 0.75499 0.0
H2432 H 0.78833 0.7459 0.75519 0.0
H2433 H 0.76653 0.72364 0.75333 0.0
C2434 C 0.73127 0.67889 0.68535 0.0
C2435 C 0.71704 0.67311 0.68639 0.0
C2436 C 0.7394 0.68204 0.70104 0.0
C2437 C 0.7335 0.6796 0.71812 0.0
C2438 C 0.71937 0.67441 0.71922 0.0
C2439 C 0.71119 0.67106 0.70351 0.0
C2440 C 0.74211 0.68204 0.73465 0.0
C2441 C 0.75414 0.69493 0.73726 0.0
C2442 C 0.73879 0.6716 0.74751 0.0
C2443 C 0.72677 0.65744 0.74503 0.0
C2444 C 0.71674 0.65201 0.75825 0.0
C2445 C 0.70535 0.6387 0.75587 0.0
C2446 C 0.70393 0.6307 0.74036 0.0
C2447 C 0.71393 0.63597 0.72723 0.0
C2448 C 0.72534 0.64926 0.72956 0.0
C2449 C 0.78317 0.70318 0.80642 0.0
C2450 C 0.78762 0.69358 0.80915 0.0
C2451 C 0.7737 0.70093 0.79253 0.0
C2452 C 0.76875 0.68919 0.78088 0.0
C2453 C 0.77293 0.67943 0.78393 0.0
C2454 C 0.78223 0.68158 0.79793 0.0
C2455 C 0.75958 0.6872 0.76513 0.0
C2456 C 0.74743 0.67441 0.76269 0.0
C2457 C 0.76302 0.69757 0.75214 0.0
C2458 C 0.77611 0.71096 0.75318 0.0
C2459 C 0.78866 0.71119 0.75352 0.0
C2460 C 0.80096 0.72385 0.75464 0.0
C2461 C 0.80084 0.73635 0.75528 0.0
C2462 C 0.78841 0.73621 0.75473 0.0
C2463 C 0.77608 0.72358 0.75363 0.0
H2464 H 0.81037 0.74614 0.75615 0.0
H2465 H 0.6951 0.62041 0.73853 0.0
H2466 H 0.69987 0.64632 0.60194 0.0
H2467 H 0.71222 0.63762 0.58428 0.0
H2468 H 0.70837 0.61017 0.62702 0.0
H2469 H 0.69566 0.61865 0.64479 0.0
H2470 H 0.73616 0.62802 0.61168 0.0
H2471 H 0.68981 0.59478 0.59414 0.0
H2472 H 0.66629 0.58746 0.58375 0.0
H2473 H 0.68152 0.60943 0.53464 0.0
H2474 H 0.70516 0.61707 0.54487 0.0
H2475 H 0.76903 0.60227 0.55656 0.0
H2476 H 0.75155 0.60158 0.57641 0.0
H2477 H 0.73958 0.62076 0.53533 0.0
H2478 H 0.75662 0.62083 0.51521 0.0
H2479 H 0.71803 0.60342 0.55245 0.0
H2480 H 0.7633 0.63978 0.57037 0.0
H2481 H 0.78746 0.64952 0.57985 0.0
H2482 H 0.77517 0.62465 0.62707 0.0
H2483 H 0.75093 0.61461 0.61771 0.0
C2484 C 0.70166 0.63845 0.60764 0.0
C2485 C 0.69683 0.63317 0.62475 0.0
C2486 C 0.70864 0.63345 0.59748 0.0
C2487 C 0.71106 0.6232 0.60433 0.0
C2488 C 0.70649 0.61804 0.62154 0.0
C2489 C 0.69926 0.62288 0.63162 0.0
C2490 C 0.7187 0.61825 0.59345 0.0
C2491 C 0.73212 0.62232 0.59893 0.0
C2492 C 0.71349 0.61124 0.57661 0.0
C2493 C 0.69927 0.60658 0.57035 0.0
C2494 C 0.68816 0.59815 0.5812 0.0
C2495 C 0.6748 0.59392 0.57532 0.0
C2496 C 0.67242 0.598 0.55856 0.0
C2497 C 0.68339 0.60629 0.54763 0.0
C2498 C 0.69676 0.61055 0.55345 0.0
C2499 C 0.76243 0.60605 0.55171 0.0
C2500 C 0.76414 0.61168 0.53449 0.0
C2501 C 0.75253 0.60573 0.56305 0.0
C2502 C 0.74449 0.61144 0.55754 0.0
C2503 C 0.74568 0.61633 0.53991 0.0
C2504 C 0.7554 0.61638 0.52842 0.0
C2505 C 0.73564 0.61337 0.5705 0.0
C2506 C 0.72201 0.60881 0.56538 0.0
C2507 C 0.74076 0.62024 0.58753 0.0
C2508 C 0.75532 0.62632 0.59323 0.0
C2509 C 0.76576 0.63632 0.58271 0.0
C2510 C 0.77946 0.6419 0.58806 0.0
C2511 C 0.78285 0.63768 0.60402 0.0
C2512 C 0.77253 0.62789 0.61469 0.0
C2513 C 0.75881 0.62225 0.60937 0.0
H2514 H 0.79346 0.64201 0.60815 0.0
H2515 H 0.66207 0.59471 0.55403 0.0
H2516 H 0.33021 0.03815 0.61975 0.0
H2517 H 0.33422 0.05849 0.60324 0.0
H2518 H 0.37678 0.07944 0.62001 0.0
H2519 H 0.37264 0.05924 0.63738 0.0
H2520 H 0.36834 0.09718 0.62098 0.0
H2521 H 0.36544 0.06418 0.57671 0.0
H2522 H 0.35561 0.04152 0.56051 0.0
H2523 H 0.32011 0.04403 0.54548 0.0
H2524 H 0.32964 0.06663 0.5618 0.0
H2525 H 0.38728 0.14682 0.54995 0.0
H2526 H 0.38515 0.12782 0.56837 0.0
H2527 H 0.34128 0.10901 0.56615 0.0
H2528 H 0.34325 0.12823 0.54855 0.0
H2529 H 0.35202 0.09078 0.55709 0.0
H2530 H 0.35598 0.12434 0.60295 0.0
H2531 H 0.36729 0.14744 0.6182 0.0
H2532 H 0.40306 0.14425 0.62866 0.0
H2533 H 0.39202 0.1212 0.61322 0.0
C2534 C 0.3404 0.04708 0.62009 0.0
C2535 C 0.35111 0.04702 0.62985 0.0
C2536 C 0.34271 0.05871 0.61049 0.0
C2537 C 0.35588 0.0704 0.61 0.0
C2538 C 0.36654 0.07052 0.6201 0.0
C2539 C 0.36417 0.05895 0.62999 0.0
C2540 C 0.35845 0.0824 0.59884 0.0
C2541 C 0.36496 0.09578 0.60693 0.0
C2542 C 0.35398 0.08063 0.58051 0.0
C2543 C 0.34821 0.06705 0.57062 0.0
C2544 C 0.3555 0.05986 0.57006 0.0
C2545 C 0.34998 0.04703 0.56084 0.0
C2546 C 0.33723 0.04132 0.55201 0.0
C2547 C 0.32998 0.04845 0.55234 0.0
C2548 C 0.33544 0.06128 0.56156 0.0
C2549 C 0.37718 0.13878 0.5536 0.0
C2550 C 0.36544 0.13909 0.54768 0.0
C2551 C 0.37599 0.12789 0.56403 0.0
C2552 C 0.36306 0.11706 0.56858 0.0
C2553 C 0.35134 0.11726 0.56266 0.0
C2554 C 0.35251 0.12822 0.55247 0.0
C2555 C 0.36168 0.10539 0.57934 0.0
C2556 C 0.35544 0.09211 0.57112 0.0
C2557 C 0.36663 0.1073 0.59739 0.0
C2558 C 0.37323 0.12112 0.60675 0.0
C2559 C 0.36631 0.12862 0.60835 0.0
C2560 C 0.37266 0.14169 0.61706 0.0
C2561 C 0.38591 0.14733 0.62434 0.0
C2562 C 0.39281 0.13988 0.62298 0.0
C2563 C 0.38651 0.12681 0.61426 0.0
H2564 H 0.39081 0.15745 0.63108 0.0
H2565 H 0.33298 0.03139 0.54487 0.0
H2566 H 0.96084 0.2941 0.65238 0.0
H2567 H 0.94688 0.28406 0.6248 0.0
H2568 H 0.92052 0.29974 0.64128 0.0
H2569 H 0.93399 0.30905 0.66933 0.0
H2570 H 0.90544 0.27524 0.63028 0.0
H2571 H 0.94443 0.31344 0.60494 0.0
H2572 H 0.96883 0.32885 0.59878 0.0
H2573 H 0.97059 0.29469 0.57374 0.0
H2574 H 0.94624 0.27902 0.57996 0.0
H2575 H 0.87069 0.26111 0.5443 0.0
H2576 H 0.88699 0.27473 0.56871 0.0
H2577 H 0.90402 0.24772 0.56629 0.0
H2578 H 0.88731 0.23351 0.54269 0.0
H2579 H 0.92381 0.27886 0.56892 0.0
H2580 H 0.88424 0.2409 0.59676 0.0
H2581 H 0.85953 0.22675 0.60207 0.0
H2582 H 0.85897 0.26306 0.62149 0.0
H2583 H 0.88366 0.27747 0.61601 0.0
C2584 C 0.95215 0.29552 0.64999 0.0
C2585 C 0.94847 0.30232 0.663 0.0
C2586 C 0.94421 0.28985 0.63416 0.0
C2587 C 0.93269 0.29126 0.63075 0.0
C2588 C 0.92929 0.29844 0.64356 0.0
C2589 C 0.93702 0.3038 0.65957 0.0
C2590 C 0.92368 0.28453 0.61447 0.0
C2591 C 0.90952 0.2763 0.61686 0.0
C2592 C 0.92889 0.28563 0.59688 0.0
C2593 C 0.94353 0.29503 0.59307 0.0
C2594 C 0.95004 0.30919 0.59823 0.0
C2595 C 0.96386 0.31797 0.59471 0.0
C2596 C 0.97126 0.31275 0.58591 0.0
C2597 C 0.96485 0.29872 0.58057 0.0
C2598 C 0.95103 0.28989 0.58407 0.0
C2599 C 0.8778 0.25795 0.549 0.0
C2600 C 0.87753 0.24608 0.5415 0.0
C2601 C 0.88721 0.26586 0.56282 0.0
C2602 C 0.89668 0.26221 0.56923 0.0
C2603 C 0.89685 0.25075 0.56138 0.0
C2604 C 0.88729 0.24268 0.54779 0.0
C2605 C 0.9058 0.26977 0.58493 0.0
C2606 C 0.91988 0.27804 0.5824 0.0
C2607 C 0.90054 0.26895 0.60233 0.0
C2608 C 0.88574 0.26028 0.60578 0.0
C2609 C 0.87882 0.24588 0.602 0.0
C2610 C 0.86483 0.23781 0.60507 0.0
C2611 C 0.85768 0.24401 0.61206 0.0
C2612 C 0.86452 0.25828 0.61604 0.0
C2613 C 0.87851 0.2664 0.61297 0.0
H2614 H 0.84684 0.23774 0.61443 0.0
H2615 H 0.98196 0.31957 0.5832 0.0
H2616 H 0.32634 0.30149 0.65023 0.0
H2617 H 0.3295 0.28968 0.62405 0.0
H2618 H 0.37102 0.30403 0.64189 0.0
H2619 H 0.36784 0.31554 0.66838 0.0
H2620 H 0.36479 0.30487 0.60094 0.0
H2621 H 0.35261 0.27528 0.65366 0.0
H2622 H 0.33779 0.26356 0.67925 0.0
H2623 H 0.30324 0.2418 0.64277 0.0
H2624 H 0.31782 0.25358 0.61697 0.0
H2625 H 0.38269 0.25999 0.55582 0.0
H2626 H 0.37913 0.27477 0.57708 0.0
H2627 H 0.33551 0.24714 0.57237 0.0
H2628 H 0.33902 0.23177 0.55216 0.0
H2629 H 0.34166 0.2536 0.60554 0.0
H2630 H 0.35251 0.28029 0.55266 0.0
H2631 H 0.36556 0.29225 0.52593 0.0
H2632 H 0.40013 0.31952 0.56 0.0
H2633 H 0.38735 0.30761 0.58696 0.0
C2634 C 0.33623 0.30237 0.64839 0.0
C2635 C 0.34683 0.30939 0.66139 0.0
C2636 C 0.338 0.29561 0.63346 0.0
C2637 C 0.35048 0.296 0.63112 0.0
C2638 C 0.36134 0.30368 0.64347 0.0
C2639 C 0.35949 0.31019 0.65861 0.0
C2640 C 0.35179 0.28729 0.61685 0.0
C2641 C 0.35986 0.29367 0.60193 0.0
C2642 C 0.34496 0.27268 0.61796 0.0
C2643 C 0.33626 0.26543 0.63343 0.0
C2644 C 0.34183 0.26809 0.65112 0.0
C2645 C 0.33348 0.26142 0.66566 0.0
C2646 C 0.31958 0.25198 0.66265 0.0
C2647 C 0.314 0.24914 0.64508 0.0
C2648 C 0.3223 0.2558 0.6305 0.0
C2649 C 0.37233 0.25695 0.55941 0.0
C2650 C 0.36116 0.24461 0.55221 0.0
C2651 C 0.37029 0.26557 0.57138 0.0
C2652 C 0.35702 0.26223 0.57617 0.0
C2653 C 0.34585 0.25001 0.56886 0.0
C2654 C 0.34788 0.24128 0.5571 0.0
C2655 C 0.35483 0.27111 0.58943 0.0
C2656 C 0.34657 0.26478 0.60429 0.0
C2657 C 0.36126 0.28575 0.588 0.0
C2658 C 0.369 0.29297 0.57183 0.0
C2659 C 0.36293 0.28877 0.55446 0.0
C2660 C 0.37027 0.29555 0.53926 0.0
C2661 C 0.38367 0.30661 0.54126 0.0
C2662 C 0.38975 0.31094 0.55847 0.0
C2663 C 0.38246 0.30419 0.57372 0.0
H2664 H 0.38934 0.31185 0.52947 0.0
H2665 H 0.31313 0.24684 0.67393 0.0
H2666 H 0.71678 0.04216 0.60438 0.0
H2667 H 0.73158 0.0633 0.58853 0.0
H2668 H 0.72065 0.08674 0.62482 0.0
H2669 H 0.70547 0.06542 0.64058 0.0
H2670 H 0.71955 0.09359 0.59135 0.0
H2671 H 0.75264 0.09028 0.62718 0.0
H2672 H 0.76454 0.07921 0.64124 0.0
H2673 H 0.77533 0.07112 0.58889 0.0
H2674 H 0.76331 0.08196 0.57448 0.0
H2675 H 0.77448 0.15664 0.55377 0.0
H2676 H 0.76052 0.13869 0.57503 0.0
H2677 H 0.75742 0.10707 0.53761 0.0
H2678 H 0.77071 0.12479 0.51583 0.0
H2679 H 0.76698 0.10693 0.57536 0.0
H2680 H 0.73113 0.10883 0.5405 0.0
H2681 H 0.7197 0.1209 0.52797 0.0
H2682 H 0.71531 0.13339 0.58149 0.0
H2683 H 0.7269 0.12155 0.59432 0.0
C2684 C 0.71764 0.05182 0.60917 0.0
C2685 C 0.71001 0.05213 0.62379 0.0
C2686 C 0.72616 0.06393 0.60012 0.0
C2687 C 0.72739 0.07665 0.60565 0.0
C2688 C 0.71988 0.07704 0.62037 0.0
C2689 C 0.71125 0.06487 0.62938 0.0
C2690 C 0.73601 0.08932 0.59537 0.0
C2691 C 0.73001 0.09667 0.58818 0.0
C2692 C 0.74966 0.09333 0.59115 0.0
C2693 C 0.75699 0.08686 0.59974 0.0
C2694 C 0.75747 0.08606 0.61865 0.0
C2695 C 0.76425 0.07984 0.62669 0.0
C2696 C 0.77067 0.07445 0.61596 0.0
C2697 C 0.77035 0.0753 0.59718 0.0
C2698 C 0.76357 0.0815 0.58907 0.0
C2699 C 0.77058 0.14586 0.54983 0.0
C2700 C 0.7738 0.1422 0.53305 0.0
C2701 C 0.76272 0.13565 0.56209 0.0
C2702 C 0.75807 0.12163 0.55787 0.0
C2703 C 0.76106 0.11788 0.54112 0.0
C2704 C 0.76871 0.12804 0.52874 0.0
C2705 C 0.75035 0.11082 0.57106 0.0
C2706 C 0.75657 0.1039 0.5788 0.0
C2707 C 0.73703 0.10739 0.57606 0.0
C2708 C 0.73004 0.11446 0.56835 0.0
C2709 C 0.72786 0.11427 0.54958 0.0
C2710 C 0.72132 0.12104 0.54243 0.0
C2711 C 0.71683 0.12795 0.55392 0.0
C2712 C 0.71882 0.12806 0.5726 0.0
C2713 C 0.72537 0.12132 0.57982 0.0
H2714 H 0.71176 0.13317 0.54835 0.0
H2715 H 0.77591 0.06963 0.62221 0.0
H2716 H 0.93182 0.64686 0.66448 0.0
H2717 H 0.9193 0.63838 0.63582 0.0
H2718 H 0.95673 0.66181 0.60713 0.0
H2719 H 0.96943 0.67058 0.63594 0.0
H2720 H 0.93675 0.66534 0.59317 0.0
H2721 H 0.94127 0.62653 0.60753 0.0
H2722 H 0.94079 0.60831 0.62651 0.0
H2723 H 0.89755 0.5906 0.63277 0.0
H2724 H 0.8978 0.60883 0.61405 0.0
H2725 H 0.89302 0.6359 0.515 0.0
H2726 H 0.91184 0.63988 0.53585 0.0
H2727 H 0.88343 0.62345 0.5793 0.0
H2728 H 0.86473 0.61946 0.5586 0.0
H2729 H 0.90306 0.61551 0.58095 0.0
H2730 H 0.90034 0.65757 0.57252 0.0
H2731 H 0.90075 0.67597 0.55398 0.0
H2732 H 0.94104 0.68741 0.53657 0.0
H2733 H 0.94078 0.66893 0.55484 0.0
C2734 C 0.93746 0.65019 0.65213 0.0
C2735 C 0.95166 0.65943 0.65257 0.0
C2736 C 0.93028 0.64522 0.63571 0.0
C2737 C 0.93711 0.64926 0.61932 0.0
C2738 C 0.95128 0.65848 0.61964 0.0
C2739 C 0.95851 0.66348 0.63612 0.0
C2740 C 0.92916 0.64443 0.602 0.0
C2741 C 0.92965 0.65441 0.59024 0.0
C2742 C 0.91982 0.63017 0.59823 0.0
C2743 C 0.91957 0.6191 0.60942 0.0
C2744 C 0.93167 0.6188 0.61304 0.0
C2745 C 0.93144 0.60846 0.62374 0.0
C2746 C 0.91915 0.59831 0.63085 0.0
C2747 C 0.90706 0.59846 0.62724 0.0
C2748 C 0.90724 0.60879 0.61656 0.0
C2749 C 0.8908 0.63286 0.52891 0.0
C2750 C 0.8775 0.6275 0.5353 0.0
C2751 C 0.90153 0.63518 0.54079 0.0
C2752 C 0.89903 0.63208 0.55914 0.0
C2753 C 0.88559 0.6259 0.5652 0.0
C2754 C 0.87493 0.62371 0.55341 0.0
C2755 C 0.91037 0.63645 0.57258 0.0
C2756 C 0.91048 0.62639 0.58362 0.0
C2757 C 0.92028 0.65061 0.57568 0.0
C2758 C 0.92047 0.66177 0.56484 0.0
C2759 C 0.90924 0.66394 0.56462 0.0
C2760 C 0.90945 0.67439 0.55419 0.0
C2761 C 0.9209 0.68283 0.54405 0.0
C2762 C 0.93217 0.68085 0.54439 0.0
C2763 C 0.932 0.67039 0.55478 0.0
H2764 H 0.92105 0.69091 0.53598 0.0
H2765 H 0.91899 0.59032 0.63914 0.0
H2766 H 0.94949 0.68316 0.70822 0.0
H2767 H 0.93653 0.6918 0.72483 0.0
H2768 H 0.97328 0.73143 0.73361 0.0
H2769 H 0.98625 0.72292 0.71643 0.0
H2770 H 0.95588 0.71276 0.76603 0.0
H2771 H 0.95497 0.73642 0.71278 0.0
H2772 H 0.95131 0.73812 0.68025 0.0
H2773 H 0.90915 0.70653 0.684 0.0
H2774 H 0.91261 0.70448 0.71651 0.0
H2775 H 0.91539 0.729 0.82182 0.0
H2776 H 0.93272 0.73232 0.8001 0.0
H2777 H 0.90117 0.70343 0.76276 0.0
H2778 H 0.88379 0.70109 0.78357 0.0
H2779 H 0.91964 0.7221 0.7443 0.0
H2780 H 0.92027 0.69432 0.79333 0.0
H2781 H 0.92243 0.68924 0.8251 0.0
H2782 H 0.96312 0.72441 0.82868 0.0
H2783 H 0.96113 0.72979 0.79697 0.0
C2784 C 0.95473 0.69379 0.71338 0.0
C2785 C 0.96882 0.70238 0.7112 0.0
C2786 C 0.94733 0.69873 0.72276 0.0
C2787 C 0.954 0.71222 0.73037 0.0
C2788 C 0.968 0.72101 0.72767 0.0
C2789 C 0.97535 0.71618 0.71786 0.0
C2790 C 0.94651 0.71633 0.74285 0.0
C2791 C 0.94819 0.71519 0.76139 0.0
C2792 C 0.93623 0.71899 0.73659 0.0
C2793 C 0.93409 0.72023 0.71706 0.0
C2794 C 0.94495 0.72974 0.70664 0.0
C2795 C 0.9429 0.73079 0.68821 0.0
C2796 C 0.93001 0.72242 0.68005 0.0
C2797 C 0.91913 0.713 0.69033 0.0
C2798 C 0.92113 0.71191 0.70877 0.0
C2799 C 0.91209 0.72359 0.80883 0.0
C2800 C 0.89813 0.71456 0.80465 0.0
C2801 C 0.92206 0.72538 0.79649 0.0
C2802 C 0.9183 0.71786 0.77994 0.0
C2803 C 0.90438 0.70929 0.77547 0.0
C2804 C 0.89442 0.70776 0.78758 0.0
C2805 C 0.92874 0.71821 0.76764 0.0
C2806 C 0.92756 0.72007 0.7491 0.0
C2807 C 0.93926 0.71578 0.77384 0.0
C2808 C 0.94048 0.71256 0.79288 0.0
C2809 C 0.92964 0.70102 0.80094 0.0
C2810 C 0.93084 0.69808 0.81892 0.0
C2811 C 0.94289 0.70652 0.82892 0.0
C2812 C 0.95378 0.7179 0.82094 0.0
C2813 C 0.95262 0.7209 0.80296 0.0
H2814 H 0.9438 0.70423 0.84284 0.0
H2815 H 0.92845 0.72324 0.66578 0.0
H2816 H 0.33213 0.29966 0.74563 0.0
H2817 H 0.32865 0.27846 0.75947 0.0
H2818 H 0.29695 0.25385 0.71965 0.0
H2819 H 0.30012 0.27517 0.70604 0.0
H2820 H 0.28901 0.24343 0.75143 0.0
H2821 H 0.32929 0.25719 0.71827 0.0
H2822 H 0.35245 0.27305 0.70752 0.0
H2823 H 0.36886 0.27851 0.76157 0.0
H2824 H 0.34578 0.26289 0.77275 0.0
H2825 H 0.28952 0.18182 0.77928 0.0
H2826 H 0.29206 0.20096 0.76085 0.0
H2827 H 0.31742 0.23039 0.80278 0.0
H2828 H 0.31445 0.21138 0.82169 0.0
H2829 H 0.32813 0.23666 0.7667 0.0
H2830 H 0.28669 0.22399 0.79924 0.0
H2831 H 0.26336 0.2076 0.80896 0.0
H2832 H 0.24911 0.19908 0.75363 0.0
H2833 H 0.27242 0.21527 0.74357 0.0
C2834 C 0.32447 0.28974 0.73974 0.0
C2835 C 0.31644 0.28908 0.72469 0.0
C2836 C 0.32253 0.27761 0.74762 0.0
C2837 C 0.31272 0.26452 0.74041 0.0
C2838 C 0.30463 0.26382 0.72541 0.0
C2839 C 0.30645 0.276 0.71763 0.0
C2840 C 0.3107 0.25166 0.74898 0.0
C2841 C 0.29754 0.24184 0.75443 0.0
C2842 C 0.32183 0.24959 0.75307 0.0
C2843 C 0.33576 0.25893 0.74637 0.0
C2844 C 0.33781 0.26184 0.7279 0.0
C2845 C 0.35093 0.27078 0.72172 0.0
C2846 C 0.3621 0.27679 0.73385 0.0
C2847 C 0.36019 0.27385 0.75219 0.0
C2848 C 0.34709 0.26494 0.75846 0.0
C2849 C 0.29547 0.19233 0.78475 0.0
C2850 C 0.30177 0.195 0.80205 0.0
C2851 C 0.29699 0.20326 0.77411 0.0
C2852 C 0.30494 0.21706 0.78047 0.0
C2853 C 0.31133 0.21979 0.79759 0.0
C2854 C 0.30967 0.20889 0.80834 0.0
C2855 C 0.30656 0.2287 0.76937 0.0
C2856 C 0.31963 0.23824 0.76344 0.0
C2857 C 0.29534 0.2304 0.7646 0.0
C2858 C 0.28133 0.22071 0.77065 0.0
C2859 C 0.27861 0.21852 0.78914 0.0
C2860 C 0.26538 0.20929 0.79471 0.0
C2861 C 0.25476 0.20227 0.78192 0.0
C2862 C 0.25735 0.2045 0.76352 0.0
C2863 C 0.27056 0.21371 0.75788 0.0
H2864 H 0.24453 0.19513 0.78626 0.0
H2865 H 0.37225 0.28371 0.72904 0.0
H2866 H 0.70881 0.03702 0.69966 0.0
H2867 H 0.72279 0.04677 0.72738 0.0
H2868 H 0.75078 0.03391 0.70859 0.0
H2869 H 0.73708 0.02448 0.68058 0.0
H2870 H 0.74173 0.02925 0.74883 0.0
H2871 H 0.76186 0.06346 0.70176 0.0
H2872 H 0.76046 0.07766 0.67753 0.0
H2873 H 0.74554 0.09653 0.71504 0.0
H2874 H 0.74663 0.08225 0.73943 0.0
H2875 H 0.80089 0.06993 0.8039 0.0
H2876 H 0.78411 0.05702 0.77983 0.0
H2877 H 0.76705 0.08386 0.7864 0.0
H2878 H 0.78446 0.0975 0.80951 0.0
H2879 H 0.76927 0.08074 0.75282 0.0
H2880 H 0.75064 0.0488 0.80058 0.0
H2881 H 0.75047 0.03425 0.82541 0.0
H2882 H 0.76056 0.01076 0.78846 0.0
H2883 H 0.76097 0.0253 0.76344 0.0
C2884 C 0.71782 0.03607 0.70155 0.0
C2885 C 0.72189 0.03004 0.68792 0.0
C2886 C 0.72579 0.04165 0.71736 0.0
C2887 C 0.73779 0.04104 0.71995 0.0
C2888 C 0.74152 0.03442 0.70681 0.0
C2889 C 0.73372 0.02911 0.69081 0.0
C2890 C 0.74701 0.04831 0.73567 0.0
C2891 C 0.74788 0.0405 0.74972 0.0
C2892 C 0.75465 0.06296 0.73694 0.0
C2893 C 0.75416 0.07167 0.72235 0.0
C2894 C 0.75815 0.07054 0.70479 0.0
C2895 C 0.75744 0.07862 0.69104 0.0
C2896 C 0.75287 0.08796 0.69472 0.0
C2897 C 0.74905 0.08927 0.71219 0.0
C2898 C 0.74971 0.08119 0.72599 0.0
C2899 C 0.79365 0.07318 0.80017 0.0
C2900 C 0.79414 0.08485 0.80869 0.0
C2901 C 0.78388 0.06562 0.78655 0.0
C2902 C 0.77414 0.06931 0.7814 0.0
C2903 C 0.77441 0.08076 0.79013 0.0
C2904 C 0.78431 0.08847 0.80355 0.0
C2905 C 0.76417 0.06173 0.76627 0.0
C2906 C 0.76312 0.06949 0.75219 0.0
C2907 C 0.75621 0.04702 0.76516 0.0
C2908 C 0.75596 0.03823 0.78016 0.0
C2909 C 0.75292 0.0406 0.79777 0.0
C2910 C 0.75277 0.03234 0.81187 0.0
C2911 C 0.75554 0.02161 0.80852 0.0
C2912 C 0.75843 0.01909 0.79104 0.0
C2913 C 0.75861 0.02732 0.77689 0.0
H2914 H 0.75541 0.01522 0.81946 0.0
H2915 H 0.75233 0.0942 0.68406 0.0
H2916 H 0.02856 0.31885 0.02156 0.0
H2917 H 0.04269 0.31167 0.0382 0.0
H2918 H 0.07595 0.35408 0.04063 0.0
H2919 H 0.06196 0.36133 0.02375 0.0
H2920 H 0.08474 0.33677 0.0306 0.0
H2921 H 0.05703 0.33871 0.07781 0.0
H2922 H 0.03555 0.3333 0.09252 0.0
H2923 H 0.02284 0.28987 0.09081 0.0
H2924 H 0.04418 0.295 0.07585 0.0
H2925 H 0.12709 0.33121 0.09716 0.0
H2926 H 0.11195 0.33702 0.0804 0.0
H2927 H 0.08082 0.29371 0.07741 0.0
H2928 H 0.09587 0.28783 0.09454 0.0
H2929 H 0.07049 0.31051 0.08721 0.0
H2930 H 0.09865 0.3088 0.04074 0.0
H2931 H 0.12029 0.3144 0.02633 0.0
H2932 H 0.13226 0.35764 0.02691 0.0
H2933 H 0.11077 0.35232 0.04156 0.0
C2934 C 0.03885 0.32668 0.02573 0.0
C2935 C 0.04413 0.34068 0.02131 0.0
C2936 C 0.04691 0.32255 0.03531 0.0
C2937 C 0.06036 0.33235 0.04078 0.0
C2938 C 0.06561 0.34634 0.03653 0.0
C2939 C 0.05757 0.35047 0.02693 0.0
C2940 C 0.06911 0.32797 0.05049 0.0
C2941 C 0.0817 0.33119 0.04311 0.0
C2942 C 0.06497 0.32034 0.06654 0.0
C2943 C 0.05214 0.31723 0.07554 0.0
C2944 C 0.0496 0.32799 0.08043 0.0
C2945 C 0.03746 0.32498 0.08884 0.0
C2946 C 0.02782 0.31125 0.09255 0.0
C2947 C 0.03031 0.3005 0.0879 0.0
C2948 C 0.04243 0.30346 0.07947 0.0
C2949 C 0.117 0.32292 0.093 0.0
C2950 C 0.11267 0.30906 0.0972 0.0
C2951 C 0.1084 0.32625 0.0833 0.0
C2952 C 0.0953 0.31579 0.07753 0.0
C2953 C 0.09091 0.30193 0.0817 0.0
C2954 C 0.09955 0.29858 0.09136 0.0
C2955 C 0.08615 0.31942 0.0674 0.0
C2956 C 0.0735 0.31605 0.07468 0.0
C2957 C 0.09023 0.32694 0.05127 0.0
C2958 C 0.10315 0.33017 0.0424 0.0
C2959 C 0.10595 0.31952 0.03793 0.0
C2960 C 0.11818 0.32264 0.02969 0.0
C2961 C 0.12766 0.33637 0.02574 0.0
C2962 C 0.12492 0.34701 0.02999 0.0
C2963 C 0.11271 0.34395 0.03825 0.0
H2964 H 0.13712 0.33877 0.01936 0.0
H2965 H 0.01843 0.30894 0.09907 0.0
H2966 H 0.67978 0.69914 0.0402 0.0
H2967 H 0.68992 0.72386 0.04818 0.0
H2968 H 0.65127 0.71624 0.06857 0.0
H2969 H 0.64103 0.69169 0.06042 0.0
H2970 H 0.66398 0.74057 0.05172 0.0
H2971 H 0.67592 0.71657 0.09646 0.0
H2972 H 0.68621 0.70271 0.10647 0.0
H2973 H 0.72528 0.73389 0.08781 0.0
H2974 H 0.71517 0.74784 0.07749 0.0
H2975 H 0.67443 0.78632 0.12355 0.0
H2976 H 0.66963 0.76611 0.10475 0.0
H2977 H 0.71184 0.78611 0.08951 0.0
H2978 H 0.71673 0.80665 0.10813 0.0
H2979 H 0.70121 0.75835 0.09848 0.0
H2980 H 0.68949 0.78443 0.05937 0.0
H2981 H 0.6788 0.79815 0.0506 0.0
H2982 H 0.63902 0.76311 0.05925 0.0
H2983 H 0.64948 0.74923 0.06835 0.0
C2984 C 0.67336 0.70277 0.04604 0.0
C2985 C 0.65963 0.69338 0.0499 0.0
C2986 C 0.6792 0.7169 0.05067 0.0
C2987 C 0.67141 0.72184 0.05926 0.0
C2988 C 0.65749 0.71265 0.06201 0.0
C2989 C 0.65166 0.69858 0.05741 0.0
C2990 C 0.67779 0.73625 0.06678 0.0
C2991 C 0.67213 0.74447 0.06193 0.0
C2992 C 0.68869 0.7415 0.07974 0.0
C2993 C 0.69477 0.73315 0.086 0.0
C2994 C 0.68669 0.72041 0.09438 0.0
C2995 C 0.69248 0.71255 0.10012 0.0
C2996 C 0.70638 0.7174 0.09772 0.0
C2997 C 0.71451 0.73013 0.08962 0.0
C2998 C 0.70876 0.73802 0.08382 0.0
C2999 C 0.6827 0.78652 0.11608 0.0
C3000 C 0.69593 0.79818 0.11716 0.0
C3001 C 0.67993 0.77494 0.10536 0.0
C3002 C 0.69032 0.77474 0.09548 0.0
C3003 C 0.70367 0.78613 0.09695 0.0
C3004 C 0.70645 0.7978 0.10766 0.0
C3005 C 0.68707 0.76244 0.08385 0.0
C3006 C 0.69331 0.75462 0.08794 0.0
C3007 C 0.67666 0.75754 0.07024 0.0
C3008 C 0.67029 0.76581 0.06464 0.0
C3009 C 0.67847 0.77967 0.05952 0.0
C3010 C 0.67245 0.78748 0.05447 0.0
C3011 C 0.65824 0.78151 0.05439 0.0
C3012 C 0.65003 0.76772 0.05932 0.0
C3013 C 0.656 0.75987 0.0644 0.0
H3014 H 0.6536 0.78757 0.05047 0.0
H3015 H 0.71085 0.7113 0.10218 0.0
H3016 H 0.29059 0.97453 0.0039 0.0
H3017 H 0.27423 0.96607 0.02824 0.0
H3018 H 0.29998 0.95453 0.0579 0.0
H3019 H 0.31638 0.96288 0.03354 0.0
H3020 H 0.27354 0.93355 0.05495 0.0
H3021 H 0.29726 0.98197 0.07214 0.0
H3022 H 0.30694 0.00699 0.0671 0.0
H3023 H 0.26692 0.00012 0.0536 0.0
H3024 H 0.25702 0.97502 0.05832 0.0
H3025 H 0.23211 0.91114 0.13031 0.0
H3026 H 0.25236 0.92536 0.1126 0.0
H3027 H 0.22989 0.94054 0.08225 0.0
H3028 H 0.20974 0.92663 0.10034 0.0
H3029 H 0.25591 0.96063 0.08718 0.0
H3030 H 0.23243 0.91282 0.06669 0.0
H3031 H 0.22202 0.88751 0.06994 0.0
H3032 H 0.26082 0.89297 0.08745 0.0
H3033 H 0.27142 0.91835 0.08456 0.0
C3034 C 0.29284 0.97029 0.01566 0.0
C3035 C 0.30475 0.9693 0.01676 0.0
C3036 C 0.28352 0.96555 0.0296 0.0
C3037 C 0.28596 0.95979 0.04492 0.0
C3038 C 0.29794 0.95899 0.04619 0.0
C3039 C 0.30729 0.96377 0.03227 0.0
C3040 C 0.27556 0.95372 0.05899 0.0
C3041 C 0.26988 0.93954 0.06228 0.0
C3042 C 0.27051 0.96146 0.06807 0.0
C3043 C 0.27641 0.97659 0.06546 0.0
C3044 C 0.29053 0.98578 0.06798 0.0
C3045 C 0.29606 -2e-05 0.0652 0.0
C3046 C 0.28755 0.00514 0.06 0.0
C3047 C 0.2735 0.99611 0.05762 0.0
C3048 C 0.26792 0.98189 0.06038 0.0
C3049 C 0.23159 0.91769 0.12002 0.0
C3050 C 0.21937 0.91771 0.1165 0.0
C3051 C 0.24313 0.92577 0.10992 0.0
C3052 C 0.24253 0.93376 0.09585 0.0
C3053 C 0.23056 0.93442 0.09301 0.0
C3054 C 0.21907 0.92648 0.10332 0.0
C3055 C 0.25393 0.94046 0.08316 0.0
C3056 C 0.25972 0.95471 0.08004 0.0
C3057 C 0.259 0.93275 0.074 0.0
C3058 C 0.25268 0.91749 0.0756 0.0
C3059 C 0.23872 0.90863 0.07135 0.0
C3060 C 0.23279 0.89427 0.07312 0.0
C3061 C 0.24075 0.88864 0.07894 0.0
C3062 C 0.25466 0.89735 0.08297 0.0
C3063 C 0.26064 0.91172 0.08127 0.0
H3064 H 0.23614 0.87752 0.0803 0.0
H3065 H 0.29185 0.01613 0.05785 0.0
H3066 H 0.36008 0.03792 0.95992 0.0
H3067 H 0.3517 0.05385 0.95341 0.0
H3068 H 0.31052 0.02148 0.96386 0.0
H3069 H 0.31893 0.00575 0.97119 0.0
H3070 H 0.33652 0.05199 0.92694 0.0
H3071 H 0.29004 0.03446 0.97365 0.0
H3072 H 0.28344 0.02588 0.00446 0.0
H3073 H 0.32573 0.04602 0.02129 0.0
H3074 H 0.33258 0.05488 0.99066 0.0
H3075 H 0.29413 0.07334 0.88813 0.0
H3076 H 0.30039 0.05812 0.90379 0.0
H3077 H 0.31441 0.08622 0.95021 0.0
H3078 H 0.30761 0.1012 0.93494 0.0
H3079 H 0.30309 0.05963 0.96059 0.0
H3080 H 0.33661 0.08917 0.919 0.0
H3081 H 0.34503 0.09978 0.88955 0.0
H3082 H 0.33272 0.05962 0.86572 0.0
H3083 H 0.32394 0.04872 0.89494 0.0
C3084 C 0.34928 0.03431 0.96121 0.0
C3085 C 0.34016 0.02058 0.96599 0.0
C3086 C 0.34449 0.0434 0.95744 0.0
C3087 C 0.33047 0.0389 0.95813 0.0
C3088 C 0.32141 0.02533 0.96356 0.0
C3089 C 0.32623 0.01631 0.96767 0.0
C3090 C 0.32522 0.04791 0.95148 0.0
C3091 C 0.32927 0.05368 0.9344 0.0
C3092 C 0.31584 0.05029 0.96122 0.0
C3093 C 0.31182 0.04523 0.97979 0.0
C3094 C 0.29793 0.03712 0.98395 0.0
C3095 C 0.29415 0.03219 0.00138 0.0
C3096 C 0.30416 0.03537 0.01481 0.0
C3097 C 0.31798 0.04353 0.01086 0.0
C3098 C 0.32182 0.04849 0.99345 0.0
C3099 C 0.29817 0.07609 0.90186 0.0
C3100 C 0.30056 0.08859 0.91019 0.0
C3101 C 0.30184 0.06743 0.91075 0.0
C3102 C 0.30813 0.0712 0.92801 0.0
C3103 C 0.30966 0.08317 0.93684 0.0
C3104 C 0.30591 0.09179 0.92802 0.0
C3105 C 0.31428 0.06343 0.93604 0.0
C3106 C 0.31039 0.05791 0.95327 0.0
C3107 C 0.32413 0.06159 0.92671 0.0
C3108 C 0.32949 0.06811 0.90912 0.0
C3109 C 0.3356 0.08258 0.90744 0.0
C3110 C 0.34043 0.08865 0.89079 0.0
C3111 C 0.33936 0.08037 0.87575 0.0
C3112 C 0.33349 0.06601 0.87735 0.0
C3113 C 0.32858 0.05988 0.89396 0.0
H3114 H 0.34311 0.08508 0.86286 0.0
H3115 H 0.30121 0.03152 0.02828 0.0
H3116 H 0.98805 0.2939 0.98572 0.0
H3117 H 0.97366 0.2689 0.97939 0.0
H3118 H 0.93934 0.27453 0.96732 0.0
H3119 H 0.95349 0.29936 0.97382 0.0
H3120 H 0.93132 0.25071 0.98489 0.0
H3121 H 0.95979 0.2743 0.93396 0.0
H3122 H 0.98182 0.28856 0.91923 0.0
H3123 H 0.99424 0.25911 0.933 0.0
H3124 H 0.97234 0.24476 0.94802 0.0
H3125 H 0.8887 0.20194 0.91894 0.0
H3126 H 0.90506 0.22264 0.93623 0.0
H3127 H 0.93169 0.20559 0.9426 0.0
H3128 H 0.91517 0.18458 0.92544 0.0
H3129 H 0.94548 0.23276 0.93261 0.0
H3130 H 0.91457 0.20688 0.97834 0.0
H3131 H 0.89214 0.19266 0.99207 0.0
H3132 H 0.88392 0.22624 0.98775 0.0
H3133 H 0.90622 0.24061 0.97373 0.0
C3134 C 0.97736 0.28978 0.98209 0.0
C3135 C 0.97197 0.29868 0.98005 0.0
C3136 C 0.96918 0.27549 0.97839 0.0
C3137 C 0.95549 0.26989 0.97259 0.0
C3138 C 0.94988 0.27862 0.97172 0.0
C3139 C 0.95803 0.29285 0.97537 0.0
C3140 C 0.94721 0.25525 0.96595 0.0
C3141 C 0.9344 0.24676 0.97347 0.0
C3142 C 0.95139 0.24997 0.95136 0.0
C3143 C 0.96452 0.25856 0.9423 0.0
C3144 C 0.96727 0.27093 0.93396 0.0
C3145 C 0.97972 0.27901 0.92554 0.0
C3146 C 0.98944 0.27477 0.92523 0.0
C3147 C 0.98672 0.2624 0.93329 0.0
C3148 C 0.97429 0.25429 0.94175 0.0
C3149 C 0.89793 0.20245 0.92423 0.0
C3150 C 0.90054 0.19151 0.92096 0.0
C3151 C 0.90729 0.21432 0.93411 0.0
C3152 C 0.91948 0.21555 0.94098 0.0
C3153 C 0.92229 0.2048 0.9375 0.0
C3154 C 0.91288 0.19284 0.92763 0.0
C3155 C 0.92941 0.22837 0.9512 0.0
C3156 C 0.94251 0.23653 0.94433 0.0
C3157 C 0.92547 0.23336 0.96635 0.0
C3158 C 0.91206 0.2248 0.97489 0.0
C3159 C 0.90795 0.21121 0.9802 0.0
C3160 C 0.89526 0.20312 0.98805 0.0
C3161 C 0.8866 0.20854 0.99076 0.0
C3162 C 0.89063 0.22206 0.98565 0.0
C3163 C 0.90331 0.23019 0.97777 0.0
H3164 H 0.87678 0.20226 0.99684 0.0
H3165 H 0.99907 0.28104 0.91871 0.0
H3166 H 0.68777 0.66838 0.98918 0.0
H3167 H 0.7068 0.67542 0.96868 0.0
H3168 H 0.72623 0.66097 0.0061 0.0
H3169 H 0.70739 0.6541 0.02673 0.0
H3170 H 0.74417 0.68617 0.99383 0.0
H3171 H 0.7093 0.64202 0.96782 0.0
H3172 H 0.68633 0.62557 0.95516 0.0
H3173 H 0.69188 0.65381 0.91302 0.0
H3174 H 0.71484 0.67051 0.92556 0.0
H3175 H 0.79283 0.6814 0.94095 0.0
H3176 H 0.77326 0.67645 0.95938 0.0
H3177 H 0.75726 0.69114 0.91735 0.0
H3178 H 0.77659 0.69562 0.89848 0.0
H3179 H 0.73739 0.6676 0.9308 0.0
H3180 H 0.77261 0.7111 0.95521 0.0
H3181 H 0.79548 0.72797 0.96775 0.0
H3182 H 0.78921 0.70175 0.0127 0.0
H3183 H 0.76637 0.68461 0.00031 0.0
C3184 C 0.69609 0.66668 0.99303 0.0
C3185 C 0.69606 0.66066 0.00958 0.0
C3186 C 0.70693 0.67067 0.98127 0.0
C3187 C 0.71788 0.66862 0.98581 0.0
C3188 C 0.71789 0.66267 0.00235 0.0
C3189 C 0.70708 0.6587 0.0141 0.0
C3190 C 0.72943 0.67274 0.97348 0.0
C3191 C 0.7427 0.682 0.9801 0.0
C3192 C 0.72746 0.66767 0.95538 0.0
C3193 C 0.71372 0.65757 0.94773 0.0
C3194 C 0.70558 0.64476 0.95592 0.0
C3195 C 0.69258 0.63538 0.94876 0.0
C3196 C 0.68763 0.63866 0.93333 0.0
C3197 C 0.69571 0.6513 0.92499 0.0
C3198 C 0.70873 0.66072 0.9321 0.0
C3199 C 0.78509 0.68347 0.93553 0.0
C3200 C 0.78628 0.68892 0.91824 0.0
C3201 C 0.77399 0.68077 0.94617 0.0
C3202 C 0.7639 0.68361 0.93984 0.0
C3203 C 0.76497 0.68894 0.92253 0.0
C3204 C 0.77608 0.69161 0.91184 0.0
C3205 C 0.75217 0.68081 0.95128 0.0
C3206 C 0.73886 0.67185 0.94448 0.0
C3207 C 0.75409 0.68622 0.9692 0.0
C3208 C 0.76782 0.69652 0.97674 0.0
C3209 C 0.77615 0.70888 0.9677 0.0
C3210 C 0.7891 0.7185 0.9748 0.0
C3211 C 0.7938 0.71592 0.99099 0.0
C3212 C 0.78555 0.70373 0.00015 0.0
C3213 C 0.7726 0.69406 0.99311 0.0
H3214 H 0.80383 0.72338 0.99646 0.0
H3215 H 0.67755 0.6314 0.92782 0.0
H3216 H 0.94707 0.64348 0.98518 0.0
H3217 H 0.93435 0.65073 0.96567 0.0
H3218 H 0.96536 0.69365 0.97496 0.0
H3219 H 0.97805 0.68649 0.99484 0.0
H3220 H 0.94068 0.69051 0.9786 0.0
H3221 H 0.96202 0.67665 0.9341 0.0
H3222 H 0.96878 0.6611 0.91914 0.0
H3223 H 0.92656 0.63055 0.90923 0.0
H3224 H 0.91954 0.64583 0.92436 0.0
H3225 H 0.91122 0.71435 0.91242 0.0
H3226 H 0.92721 0.70945 0.92887 0.0
H3227 H 0.89834 0.6655 0.92384 0.0
H3228 H 0.88234 0.67031 0.90748 0.0
H3229 H 0.92367 0.67076 0.91686 0.0
H3230 H 0.90245 0.6839 0.96329 0.0
H3231 H 0.89562 0.69929 0.97851 0.0
H3232 H 0.93774 0.73119 0.9848 0.0
H3233 H 0.94482 0.71604 0.96938 0.0
C3234 C 0.95127 0.65447 0.98297 0.0
C3235 C 0.96359 0.66441 0.99159 0.0
C3236 C 0.944 0.65859 0.97173 0.0
C3237 C 0.94896 0.67274 0.96868 0.0
C3238 C 0.96134 0.68268 0.97709 0.0
C3239 C 0.9686 0.67856 0.98841 0.0
C3240 C 0.94089 0.67713 0.95736 0.0
C3241 C 0.93718 0.68639 0.96497 0.0
C3242 C 0.93607 0.67154 0.93971 0.0
C3243 C 0.94026 0.66235 0.93049 0.0
C3244 C 0.95418 0.66657 0.92884 0.0
C3245 C 0.95805 0.65781 0.92031 0.0
C3246 C 0.94811 0.64483 0.91327 0.0
C3247 C 0.93426 0.6406 0.9147 0.0
C3248 C 0.93032 0.64932 0.92323 0.0
C3249 C 0.90825 0.70365 0.91491 0.0
C3250 C 0.89549 0.69272 0.90864 0.0
C3251 C 0.91741 0.70086 0.92429 0.0
C3252 C 0.91393 0.6871 0.92772 0.0
C3253 C 0.90127 0.67619 0.92129 0.0
C3254 C 0.89214 0.67896 0.91189 0.0
C3255 C 0.92335 0.684 0.93818 0.0
C3256 C 0.9273 0.67498 0.93042 0.0
C3257 C 0.92839 0.6898 0.95569 0.0
C3258 C 0.92415 0.69889 0.96501 0.0
C3259 C 0.91025 0.69424 0.96779 0.0
C3260 C 0.90633 0.70291 0.97647 0.0
C3261 C 0.91624 0.71622 0.98257 0.0
C3262 C 0.93008 0.72088 0.98004 0.0
C3263 C 0.93405 0.71225 0.97134 0.0
H3264 H 0.91318 0.72292 0.9893 0.0
H3265 H 0.95113 0.63806 0.90668 0.0
H3266 H 0.36263 0.31214 0.94941 0.0
H3267 H 0.35304 0.28779 0.94065 0.0
H3268 H 0.31745 0.27718 0.97212 0.0
H3269 H 0.32684 0.3017 0.98065 0.0
H3270 H 0.34553 0.26441 0.95681 0.0
H3271 H 0.28943 0.25104 0.94953 0.0
H3272 H 0.2761 0.2628 0.94455 0.0
H3273 H 0.30965 0.29523 0.91666 0.0
H3274 H 0.3231 0.28358 0.92129 0.0
H3275 H 0.30754 0.19326 0.93124 0.0
H3276 H 0.31378 0.21513 0.94733 0.0
H3277 H 0.30992 0.23249 0.89744 0.0
H3278 H 0.30343 0.21055 0.88138 0.0
H3279 H 0.30053 0.24102 0.92431 0.0
H3280 H 0.3411 0.23834 0.91368 0.0
H3281 H 0.35572 0.22775 0.91527 0.0
H3282 H 0.35563 0.22962 0.97322 0.0
H3283 H 0.34084 0.24005 0.97196 0.0
C3284 C 0.35283 0.30466 0.95467 0.0
C3285 C 0.34543 0.30894 0.96556 0.0
C3286 C 0.34737 0.29069 0.94968 0.0
C3287 C 0.33443 0.28068 0.95549 0.0
C3288 C 0.32735 0.28477 0.96721 0.0
C3289 C 0.33276 0.29879 0.97214 0.0
C3290 C 0.32817 0.26617 0.94833 0.0
C3291 C 0.33563 0.25925 0.94987 0.0
C3292 C 0.31535 0.2595 0.93901 0.0
C3293 C 0.30731 0.26652 0.93596 0.0
C3294 C 0.29394 0.26066 0.9423 0.0
C3295 C 0.28637 0.26731 0.93954 0.0
C3296 C 0.29205 0.27978 0.93035 0.0
C3297 C 0.30529 0.2856 0.92384 0.0
C3298 C 0.31289 0.27899 0.92654 0.0
C3299 C 0.30793 0.20173 0.92376 0.0
C3300 C 0.30513 0.20028 0.90505 0.0
C3301 C 0.31148 0.2142 0.93295 0.0
C3302 C 0.31254 0.22552 0.92353 0.0
C3303 C 0.30916 0.22389 0.90499 0.0
C3304 C 0.30546 0.21137 0.89582 0.0
C3305 C 0.31794 0.23931 0.9327 0.0
C3306 C 0.31032 0.24609 0.93154 0.0
C3307 C 0.3308 0.24601 0.94194 0.0
C3308 C 0.33975 0.23983 0.94273 0.0
C3309 C 0.34412 0.2364 0.92676 0.0
C3310 C 0.35245 0.23044 0.9276 0.0
C3311 C 0.35657 0.22797 0.94433 0.0
C3312 C 0.3524 0.23151 0.96027 0.0
C3313 C 0.34406 0.23745 0.9595 0.0
H3314 H 0.36301 0.22336 0.94496 0.0
H3315 H 0.28617 0.28491 0.92824 0.0
H3316 H 0.68866 0.0235 0.98408 0.0
H3317 H 0.7085 0.0329 0.96467 0.0
H3318 H 0.73519 0.05302 0.01107 0.0
H3319 H 0.71543 0.04366 0.03061 0.0
H3320 H 0.74059 0.07041 0.98221 0.0
H3321 H 0.7334 0.02471 0.99313 0.0
H3322 H 0.71994 0.99914 0.99369 0.0
H3323 H 0.71285 0.99716 0.93633 0.0
H3324 H 0.7261 0.02275 0.93546 0.0
H3325 H 0.80398 0.09281 0.94469 0.0
H3326 H 0.78418 0.07949 0.96347 0.0
H3327 H 0.75959 0.05822 0.91582 0.0
H3328 H 0.77958 0.07138 0.89697 0.0
H3329 H 0.75257 0.04094 0.94439 0.0
H3330 H 0.75923 0.08608 0.93296 0.0
H3331 H 0.77228 0.11164 0.93168 0.0
H3332 H 0.77951 0.11469 0.98909 0.0
H3333 H 0.76669 0.08913 0.99067 0.0
C3334 C 0.69875 0.02992 0.99017 0.0
C3335 C 0.70048 0.03286 0.00889 0.0
C3336 C 0.71007 0.03521 0.97907 0.0
C3337 C 0.72329 0.04354 0.98648 0.0
C3338 C 0.72505 0.04657 0.00512 0.0
C3339 C 0.71376 0.0412 0.01625 0.0
C3340 C 0.73529 0.04948 0.97474 0.0
C3341 C 0.74333 0.06398 0.97413 0.0
C3342 C 0.73855 0.04104 0.96378 0.0
C3343 C 0.73062 0.02566 0.96426 0.0
C3344 C 0.72887 0.01883 0.98066 0.0
C3345 C 0.7213 0.00433 0.98103 0.0
C3346 C 0.71551 0.99653 0.96507 0.0
C3347 C 0.71732 0.00322 0.94869 0.0
C3348 C 0.72487 0.01772 0.94825 0.0
C3349 C 0.79439 0.08511 0.93829 0.0
C3350 C 0.7932 0.08319 0.91943 0.0
C3351 C 0.78311 0.07755 0.94899 0.0
C3352 C 0.77036 0.06812 0.94098 0.0
C3353 C 0.76934 0.06551 0.92224 0.0
C3354 C 0.78072 0.07299 0.9115 0.0
C3355 C 0.75798 0.06188 0.95209 0.0
C3356 C 0.74984 0.04737 0.9525 0.0
C3357 C 0.75451 0.07029 0.96277 0.0
C3358 C 0.7621 0.08568 0.96191 0.0
C3359 C 0.76368 0.0922 0.94529 0.0
C3360 C 0.77103 0.10669 0.94451 0.0
C3361 C 0.77675 0.11478 0.96028 0.0
C3362 C 0.77509 0.10841 0.97688 0.0
C3363 C 0.76778 0.09392 0.97773 0.0
H3364 H 0.78243 0.126 0.95965 0.0
H3365 H 0.70966 0.9853 0.96538 0.0
H3366 H 0.63579 0.95178 0.04586 0.0
H3367 H 0.64426 0.93684 0.05666 0.0
H3368 H 0.68555 0.96852 0.04576 0.0
H3369 H 0.67719 0.9836 0.03477 0.0
H3370 H 0.68016 0.94045 0.04002 0.0
H3371 H 0.67561 0.96927 0.08549 0.0
H3372 H 0.66343 0.97921 0.10169 0.0
H3373 H 0.63261 0.93837 0.11666 0.0
H3374 H 0.64449 0.92816 0.10028 0.0
H3375 H 0.71104 0.91731 0.10605 0.0
H3376 H 0.70481 0.93157 0.08777 0.0
H3377 H 0.66252 0.90545 0.10127 0.0
H3378 H 0.6687 0.89154 0.12 0.0
H3379 H 0.67005 0.93204 0.10509 0.0
H3380 H 0.67452 0.90306 0.05974 0.0
H3381 H 0.68644 0.893 0.04318 0.0
H3382 H 0.7173 0.93376 0.02801 0.0
H3383 H 0.70566 0.94409 0.0447 0.0
C3384 C 0.64664 0.95548 0.04531 0.0
C3385 C 0.65584 0.96902 0.03983 0.0
C3386 C 0.65146 0.94691 0.05147 0.0
C3387 C 0.66554 0.95173 0.05234 0.0
C3388 C 0.67465 0.96467 0.04526 0.0
C3389 C 0.66984 0.97328 0.03903 0.0
C3390 C 0.67073 0.94411 0.0629 0.0
C3391 C 0.67811 0.93872 0.05429 0.0
C3392 C 0.66795 0.94182 0.08147 0.0
C3393 C 0.66087 0.94795 0.09152 0.0
C3394 C 0.66618 0.9624 0.09212 0.0
C3395 C 0.65934 0.96809 0.10135 0.0
C3396 C 0.64724 0.95942 0.11016 0.0
C3397 C 0.64197 0.94506 0.10981 0.0
C3398 C 0.64876 0.93932 0.10056 0.0
C3399 C 0.70044 0.9147 0.10522 0.0
C3400 C 0.69035 0.90328 0.11441 0.0
C3401 C 0.69688 0.92275 0.09461 0.0
C3402 C 0.68318 0.91945 0.09299 0.0
C3403 C 0.67314 0.90813 0.10227 0.0
C3404 C 0.67668 0.90013 0.11287 0.0
C3405 C 0.67922 0.92801 0.08218 0.0
C3406 C 0.67214 0.93373 0.09082 0.0
C3407 C 0.6823 0.93056 0.06368 0.0
C3408 C 0.6893 0.92436 0.05364 0.0
C3409 C 0.68391 0.90989 0.05301 0.0
C3410 C 0.69061 0.90414 0.04357 0.0
C3411 C 0.70264 0.91274 0.0346 0.0
C3412 C 0.70799 0.92712 0.035 0.0
C3413 C 0.70135 0.93293 0.04443 0.0
H3414 H 0.70781 0.90826 0.02729 0.0
H3415 H 0.64195 0.96384 0.1173 0.0
H3416 H 0.0184 0.70984 0.04055 0.0
H3417 H 0.03507 0.7341 0.04835 0.0
H3418 H 0.06627 0.72304 0.0564 0.0
H3419 H 0.04962 0.69879 0.0491 0.0
H3420 H 0.06544 0.7366 0.08468 0.0
H3421 H 0.06681 0.74358 0.02096 0.0
H3422 H 0.05729 0.74246 0.99042 0.0
H3423 H 0.04076 0.76772 0.00881 0.0
H3424 H 0.05002 0.76883 0.03954 0.0
H3425 H 0.11858 0.81437 0.07876 0.0
H3426 H 0.10246 0.79238 0.06331 0.0
H3427 H 0.07588 0.7812 0.10878 0.0
H3428 H 0.09213 0.80288 0.12456 0.0
H3429 H 0.0755 0.77924 0.0523 0.0
H3430 H 0.06387 0.7475 0.11699 0.0
H3431 H 0.07479 0.74881 0.14661 0.0
H3432 H 0.11446 0.77282 0.12389 0.0
H3433 H 0.10377 0.7715 0.09412 0.0
C3434 C 0.02889 0.71264 0.04356 0.0
C3435 C 0.03265 0.70237 0.04438 0.0
C3436 C 0.03843 0.72653 0.048 0.0
C3437 C 0.05193 0.73041 0.05305 0.0
C3438 C 0.05588 0.72029 0.05272 0.0
C3439 C 0.04635 0.70643 0.04849 0.0
C3440 C 0.0616 0.74463 0.06037 0.0
C3441 C 0.06763 0.74589 0.07752 0.0
C3442 C 0.06456 0.75681 0.05106 0.0
C3443 C 0.05901 0.75618 0.03259 0.0
C3444 C 0.06105 0.7488 0.01853 0.0
C3445 C 0.05572 0.74819 0.00117 0.0
C3446 C 0.04839 0.75499 0.99769 0.0
C3447 C 0.04642 0.76245 0.01154 0.0
C3448 C 0.05172 0.76309 0.02892 0.0
C3449 C 0.10929 0.80724 0.08546 0.0
C3450 C 0.10673 0.81033 0.10299 0.0
C3451 C 0.10003 0.79474 0.07653 0.0
C3452 C 0.08806 0.78509 0.08498 0.0
C3453 C 0.08513 0.78845 0.10208 0.0
C3454 C 0.0944 0.8009 0.11103 0.0
C3455 C 0.07915 0.77109 0.07658 0.0
C3456 C 0.07326 0.76989 0.05935 0.0
C3457 C 0.07647 0.75892 0.08563 0.0
C3458 C 0.08301 0.7595 0.10338 0.0
C3459 C 0.07492 0.753 0.11831 0.0
C3460 C 0.08107 0.75376 0.13512 0.0
C3461 C 0.09531 0.76093 0.13714 0.0
C3462 C 0.10343 0.7673 0.12233 0.0
C3463 C 0.09733 0.76657 0.10549 0.0
H3464 H 0.10005 0.76152 0.15017 0.0
H3465 H 0.04427 0.7545 0.98424 0.0
H3466 H 0.3295 0.35615 0.05218 0.0
H3467 H 0.30934 0.34877 0.07077 0.0
H3468 H 0.28391 0.31966 0.02857 0.0
H3469 H 0.30391 0.3268 0.01002 0.0
H3470 H 0.27492 0.33794 0.04131 0.0
H3471 H 0.29007 0.3073 0.06433 0.0
H3472 H 0.30683 0.302 0.07822 0.0
H3473 H 0.31013 0.32675 0.12523 0.0
H3474 H 0.29353 0.33237 0.1115 0.0
H3475 H 0.21153 0.30103 0.08175 0.0
H3476 H 0.23277 0.30715 0.0668 0.0
H3477 H 0.25571 0.32831 0.11552 0.0
H3478 H 0.23441 0.32133 0.13105 0.0
H3479 H 0.26692 0.31535 0.10057 0.0
H3480 H 0.25236 0.34616 0.07924 0.0
H3481 H 0.23649 0.35297 0.06612 0.0
H3482 H 0.23333 0.33036 0.01699 0.0
H3483 H 0.24905 0.32325 0.02991 0.0
C3484 C 0.31963 0.34807 0.04694 0.0
C3485 C 0.31829 0.3421 0.0296 0.0
C3486 C 0.30815 0.34386 0.05759 0.0
C3487 C 0.29518 0.33369 0.05099 0.0
C3488 C 0.29386 0.32754 0.03385 0.0
C3489 C 0.30531 0.33161 0.02331 0.0
C3490 C 0.28282 0.32992 0.06146 0.0
C3491 C 0.27307 0.33285 0.05417 0.0
C3492 C 0.28073 0.32378 0.07853 0.0
C3493 C 0.29068 0.32038 0.0868 0.0
C3494 C 0.29447 0.31172 0.07756 0.0
C3495 C 0.30392 0.30864 0.08542 0.0
C3496 C 0.30957 0.31407 0.10257 0.0
C3497 C 0.30576 0.32257 0.11193 0.0
C3498 C 0.29633 0.3257 0.10412 0.0
C3499 C 0.22105 0.30675 0.08945 0.0
C3500 C 0.22121 0.31074 0.10762 0.0
C3501 C 0.23323 0.31043 0.08077 0.0
C3502 C 0.24587 0.31848 0.0899 0.0
C3503 C 0.24609 0.3222 0.10815 0.0
C3504 C 0.23388 0.31833 0.11695 0.0
C3505 C 0.25883 0.32315 0.08028 0.0
C3506 C 0.26875 0.32047 0.08774 0.0
C3507 C 0.26121 0.32977 0.06347 0.0
C3508 C 0.25179 0.33407 0.05561 0.0
C3509 C 0.24821 0.34256 0.06569 0.0
C3510 C 0.23925 0.34648 0.05828 0.0
C3511 C 0.23388 0.34207 0.04075 0.0
C3512 C 0.23749 0.33376 0.03058 0.0
C3513 C 0.24643 0.32978 0.03793 0.0
H3514 H 0.22695 0.34513 0.03504 0.0
H3515 H 0.31688 0.31167 0.10864 0.0
H3516 H 0.71616 0.69233 0.38102 0.0
H3517 H 0.72994 0.68551 0.39914 0.0
H3518 H 0.70622 0.64352 0.37774 0.0
H3519 H 0.69229 0.65022 0.3596 0.0
H3520 H 0.71264 0.64457 0.41432 0.0
H3521 H 0.73581 0.66479 0.35938 0.0
H3522 H 0.74574 0.6829 0.33657 0.0
H3523 H 0.77344 0.71208 0.3768 0.0
H3524 H 0.76354 0.69418 0.39991 0.0
H3525 H 0.76027 0.62179 0.43204 0.0
H3526 H 0.74432 0.62783 0.4179 0.0
H3527 H 0.76987 0.67046 0.43618 0.0
H3528 H 0.78608 0.66461 0.4498 0.0
H3529 H 0.76222 0.66912 0.4018 0.0
H3530 H 0.73979 0.64889 0.45665 0.0
H3531 H 0.72993 0.63093 0.47966 0.0
H3532 H 0.70097 0.60202 0.44025 0.0
H3533 H 0.7108 0.61975 0.41692 0.0
C3534 C 0.71373 0.6816 0.38032 0.0
C3535 C 0.70321 0.67185 0.3687 0.0
C3536 C 0.72165 0.67773 0.39066 0.0
C3537 C 0.71924 0.66407 0.38956 0.0
C3538 C 0.70828 0.65413 0.37873 0.0
C3539 C 0.70035 0.658 0.36834 0.0
C3540 C 0.72867 0.66038 0.3988 0.0
C3541 C 0.72346 0.64982 0.41147 0.0
C3542 C 0.74282 0.66743 0.39531 0.0
C3543 C 0.74884 0.67818 0.38141 0.0
C3544 C 0.74395 0.6751 0.36339 0.0
C3545 C 0.74958 0.68532 0.3504 0.0
C3546 C 0.76019 0.69864 0.35524 0.0
C3547 C 0.76521 0.70176 0.37307 0.0
C3548 C 0.7596 0.69158 0.38612 0.0
C3549 C 0.76254 0.63247 0.43295 0.0
C3550 C 0.77445 0.64272 0.44207 0.0
C3551 C 0.75333 0.63587 0.42503 0.0
C3552 C 0.75581 0.64957 0.42616 0.0
C3553 C 0.76771 0.65982 0.4352 0.0
C3554 C 0.77692 0.65643 0.44311 0.0
C3555 C 0.74624 0.65333 0.41744 0.0
C3556 C 0.75142 0.66389 0.40476 0.0
C3557 C 0.73208 0.64629 0.42099 0.0
C3558 C 0.72612 0.63561 0.43499 0.0
C3559 C 0.73139 0.63866 0.45285 0.0
C3560 C 0.7258 0.62853 0.46596 0.0
C3561 C 0.71485 0.61533 0.46141 0.0
C3562 C 0.70946 0.61224 0.44375 0.0
C3563 C 0.71503 0.62234 0.43058 0.0
H3564 H 0.71053 0.6075 0.47157 0.0
H3565 H 0.76454 0.70655 0.34517 0.0
H3566 H 0.34504 0.03435 0.37604 0.0
H3567 H 0.35477 0.05929 0.38222 0.0
H3568 H 0.31599 0.05172 0.40202 0.0
H3569 H 0.30618 0.0269 0.39581 0.0
H3570 H 0.32857 0.07543 0.38258 0.0
H3571 H 0.3404 0.05379 0.43084 0.0
H3572 H 0.35081 0.04065 0.44307 0.0
H3573 H 0.38992 0.0712 0.42374 0.0
H3574 H 0.37968 0.08443 0.4112 0.0
H3575 H 0.33827 0.12481 0.44913 0.0
H3576 H 0.33349 0.104 0.43175 0.0
H3577 H 0.37625 0.12234 0.41985 0.0
H3578 H 0.38114 0.14341 0.43722 0.0
H3579 H 0.36537 0.0956 0.42998 0.0
H3580 H 0.35409 0.11957 0.38694 0.0
H3581 H 0.34357 0.13277 0.37535 0.0
H3582 H 0.30361 0.09823 0.38462 0.0
H3583 H 0.31389 0.08488 0.39653 0.0
C3584 C 0.33851 0.03802 0.38137 0.0
C3585 C 0.32487 0.0286 0.38564 0.0
C3586 C 0.34411 0.05227 0.38496 0.0
C3587 C 0.33615 0.05731 0.39282 0.0
C3588 C 0.32232 0.04804 0.396 0.0
C3589 C 0.31675 0.03383 0.39251 0.0
C3590 C 0.34232 0.07199 0.39918 0.0
C3591 C 0.33662 0.07987 0.39294 0.0
C3592 C 0.3531 0.07791 0.4123 0.0
C3593 C 0.35925 0.06999 0.41989 0.0
C3594 C 0.3512 0.05764 0.42908 0.0
C3595 C 0.35707 0.05019 0.43609 0.0
C3596 C 0.37101 0.05506 0.43413 0.0
C3597 C 0.37912 0.06742 0.42521 0.0
C3598 C 0.37329 0.0749 0.41815 0.0
C3599 C 0.34666 0.12452 0.44263 0.0
C3600 C 0.36007 0.13584 0.44439 0.0
C3601 C 0.3439 0.11261 0.43269 0.0
C3602 C 0.35447 0.11173 0.42419 0.0
C3603 C 0.36793 0.12286 0.4262 0.0
C3604 C 0.37072 0.13484 0.43618 0.0
C3605 C 0.35132 0.0989 0.4138 0.0
C3606 C 0.35757 0.09135 0.41929 0.0
C3607 C 0.34105 0.09329 0.39998 0.0
C3608 C 0.33478 0.10125 0.39272 0.0
C3609 C 0.34306 0.11482 0.38662 0.0
C3610 C 0.33714 0.12232 0.37998 0.0
C3611 C 0.32293 0.11635 0.37927 0.0
C3612 C 0.31461 0.10284 0.38517 0.0
C3613 C 0.32049 0.09529 0.39185 0.0
H3614 H 0.31836 0.12218 0.37412 0.0
H3615 H 0.37554 0.04928 0.43957 0.0
H3616 H 0.96702 0.32128 0.34395 0.0
H3617 H 0.94816 0.30939 0.36463 0.0
H3618 H 0.96947 0.29101 0.39051 0.0
H3619 H 0.98835 0.3028 0.36987 0.0
H3620 H 0.9433 0.27185 0.3802 0.0
H3621 H 0.96628 0.31578 0.41238 0.0
H3622 H 0.97703 0.34123 0.41594 0.0
H3623 H 0.93913 0.3388 0.40048 0.0
H3624 H 0.92819 0.31334 0.39658 0.0
H3625 H 0.89732 0.23889 0.44941 0.0
H3626 H 0.91826 0.25479 0.43407 0.0
H3627 H 0.8978 0.27473 0.40998 0.0
H3628 H 0.87683 0.25894 0.42559 0.0
H3629 H 0.92381 0.29357 0.41995 0.0
H3630 H 0.90109 0.25028 0.38632 0.0
H3631 H 0.89 0.22485 0.38191 0.0
H3632 H 0.92713 0.22618 0.39881 0.0
H3633 H 0.93839 0.2516 0.40357 0.0
C3634 C 0.96777 0.31483 0.35417 0.0
C3635 C 0.97913 0.3129 0.35519 0.0
C3636 C 0.95701 0.3081 0.36603 0.0
C3637 C 0.95746 0.29936 0.37911 0.0
C3638 C 0.96895 0.29771 0.38048 0.0
C3639 C 0.97973 0.30448 0.36869 0.0
C3640 C 0.94552 0.29112 0.39047 0.0
C3641 C 0.93918 0.2766 0.38913 0.0
C3642 C 0.93991 0.29735 0.40163 0.0
C3643 C 0.94645 0.31266 0.40402 0.0
C3644 C 0.96026 0.32068 0.40959 0.0
C3645 C 0.96639 0.33511 0.4117 0.0
C3646 C 0.95878 0.34163 0.4084 0.0
C3647 C 0.94502 0.33374 0.40302 0.0
C3648 C 0.93885 0.3193 0.40087 0.0
C3649 C 0.89732 0.2467 0.44089 0.0
C3650 C 0.88544 0.24759 0.43847 0.0
C3651 C 0.90927 0.25578 0.43216 0.0
C3652 C 0.90949 0.26576 0.42062 0.0
C3653 C 0.89782 0.26708 0.41879 0.0
C3654 C 0.88587 0.25806 0.42768 0.0
C3655 C 0.92168 0.2743 0.40977 0.0
C3656 C 0.928 0.28884 0.4111 0.0
C3657 C 0.92725 0.26811 0.39844 0.0
C3658 C 0.92054 0.25283 0.39547 0.0
C3659 C 0.90686 0.24513 0.38922 0.0
C3660 C 0.90055 0.23073 0.38664 0.0
C3661 C 0.90784 0.2239 0.39012 0.0
C3662 C 0.92148 0.23148 0.39614 0.0
C3663 C 0.92784 0.24589 0.39877 0.0
H3664 H 0.90294 0.21274 0.38812 0.0
H3665 H 0.96354 0.3528 0.41004 0.0
H3666 H 0.03876 0.38125 0.29442 0.0
H3667 H 0.0313 0.39778 0.28811 0.0
H3668 H 0.99557 0.37444 0.32003 0.0
H3669 H 0.0028 0.35748 0.32604 0.0
H3670 H 0.98818 0.37929 0.28918 0.0
H3671 H 0.02093 0.40781 0.33352 0.0
H3672 H 0.04301 0.41947 0.35032 0.0
H3673 H 0.06291 0.44251 0.30345 0.0
H3674 H 0.041 0.43084 0.28627 0.0
H3675 H 0.99748 0.45285 0.26618 0.0
H3676 H 0.00025 0.4376 0.28713 0.0
H3677 H 0.99238 0.4083 0.24321 0.0
H3678 H 0.98927 0.42334 0.22238 0.0
H3679 H 0.01844 0.43044 0.2885 0.0
H3680 H 0.97887 0.37603 0.25674 0.0
H3681 H 0.95575 0.36459 0.2427 0.0
H3682 H 0.94734 0.39374 0.27005 0.0
H3683 H 0.97033 0.40524 0.28447 0.0
C3684 C 0.02943 0.37971 0.3004 0.0
C3685 C 0.02132 0.36794 0.31061 0.0
C3686 C 0.02522 0.38927 0.29688 0.0
C3687 C 0.01292 0.38744 0.30371 0.0
C3688 C 0.0051 0.37606 0.31462 0.0
C3689 C 0.00927 0.3664 0.31808 0.0
C3690 C 0.00769 0.39662 0.29775 0.0
C3691 C 0.99472 0.39049 0.28923 0.0
C3692 C 0.01604 0.41127 0.29831 0.0
C3693 C 0.02929 0.4184 0.30858 0.0
C3694 C 0.03002 0.4153 0.32675 0.0
C3695 C 0.04252 0.42192 0.33635 0.0
C3696 C 0.05436 0.43172 0.32796 0.0
C3697 C 0.05373 0.43493 0.30995 0.0
C3698 C 0.04126 0.42833 0.30028 0.0
C3699 C 0.99623 0.44308 0.26108 0.0
C3700 C 0.99317 0.43925 0.24269 0.0
C3701 C 0.99779 0.43438 0.27305 0.0
C3702 C 0.99638 0.42173 0.26682 0.0
C3703 C 0.99318 0.41784 0.24846 0.0
C3704 C 0.99146 0.42645 0.23653 0.0
C3705 C -0.00077 0.41304 0.27912 0.0
C3706 C 0.01176 0.41927 0.28881 0.0
C3707 C 0.9903 0.39853 0.28008 0.0
C3708 C 0.97638 0.39155 0.27162 0.0
C3709 C 0.97207 0.37995 0.25986 0.0
C3710 C 0.95898 0.37347 0.25181 0.0
C3711 C 0.95009 0.37845 0.25546 0.0
C3712 C 0.95425 0.38991 0.2672 0.0
C3713 C 0.96731 0.39643 0.27529 0.0
H3714 H 0.93997 0.37343 0.2492 0.0
H3715 H 0.06402 0.43683 0.33541 0.0
H3716 H 0.64083 0.62918 0.3274 0.0
H3717 H 0.62423 0.60482 0.31941 0.0
H3718 H 0.62407 0.61592 0.26384 0.0
H3719 H 0.63972 0.64018 0.27207 0.0
H3720 H 0.60013 0.59964 0.27075 0.0
H3721 H 0.64133 0.59806 0.28186 0.0
H3722 H 0.6615 0.60135 0.29938 0.0
H3723 H 0.6354 0.57414 0.33978 0.0
H3724 H 0.61507 0.57081 0.32259 0.0
H3725 H 0.57486 0.53461 0.22557 0.0
H3726 H 0.59188 0.55716 0.23891 0.0
H3727 H 0.5745 0.54397 0.2913 0.0
H3728 H 0.55728 0.52136 0.27796 0.0
H3729 H 0.60599 0.5601 0.2885 0.0
H3730 H 0.56461 0.56169 0.27368 0.0
H3731 H 0.54581 0.55797 0.2528 0.0
H3732 H 0.5749 0.58548 0.21511 0.0
H3733 H 0.59388 0.58919 0.23567 0.0
C3734 C 0.63718 0.62633 0.31352 0.0
C3735 C 0.64145 0.63653 0.30037 0.0
C3736 C 0.62779 0.61241 0.30891 0.0
C3737 C 0.62294 0.6084 0.29093 0.0
C3738 C 0.62748 0.61865 0.27782 0.0
C3739 C 0.63647 0.63255 0.28252 0.0
C3740 C 0.61291 0.59369 0.28557 0.0
C3741 C 0.60158 0.59109 0.27457 0.0
C3742 C 0.6145 0.58234 0.2907 0.0
C3743 C 0.62669 0.58432 0.30105 0.0
C3744 C 0.6399 0.59286 0.29455 0.0
C3745 C 0.65136 0.59472 0.30441 0.0
C3746 C 0.64973 0.588 0.32071 0.0
C3747 C 0.63664 0.57936 0.32717 0.0
C3748 C 0.62515 0.57748 0.31737 0.0
C3749 C 0.57483 0.53641 0.23999 0.0
C3750 C 0.56477 0.52626 0.25075 0.0
C3751 C 0.58452 0.54929 0.24757 0.0
C3752 C 0.58441 0.55218 0.26606 0.0
C3753 C 0.57476 0.54187 0.27701 0.0
C3754 C 0.56491 0.52904 0.26938 0.0
C3755 C 0.59364 0.56636 0.27351 0.0
C3756 C 0.60467 0.56878 0.28489 0.0
C3757 C 0.59206 0.57763 0.26833 0.0
C3758 C 0.58065 0.57564 0.25615 0.0
C3759 C 0.56699 0.56687 0.26089 0.0
C3760 C 0.55631 0.56478 0.24912 0.0
C3761 C 0.55916 0.57146 0.23262 0.0
C3762 C 0.5727 0.5803 0.22789 0.0
C3763 C 0.58343 0.58242 0.2396 0.0
H3764 H 0.55088 0.56982 0.22352 0.0
H3765 H 0.65862 0.58945 0.32833 0.0
H3766 H 0.33517 0.96482 0.31435 0.0
H3767 H 0.35306 0.96873 0.29316 0.0
H3768 H 0.37771 0.01075 0.31413 0.0
H3769 H 0.35982 0.00701 0.33523 0.0
H3770 H 0.37888 0.00933 0.27743 0.0
H3771 H 0.38347 0.98551 0.32855 0.0
H3772 H 0.37545 0.96663 0.3503 0.0
H3773 H 0.36647 0.93699 0.30686 0.0
H3774 H 0.37427 0.95568 0.28481 0.0
H3775 H 0.4453 0.02505 0.25274 0.0
H3776 H 0.42474 0.02061 0.26855 0.0
H3777 H 0.40345 0.97867 0.24643 0.0
H3778 H 0.42401 0.98306 0.2305 0.0
H3779 H 0.39939 0.97909 0.2818 0.0
H3780 H 0.39642 0.00313 0.23074 0.0
H3781 H 0.40457 0.02201 0.20898 0.0
H3782 H 0.41049 0.05115 0.25185 0.0
H3783 H 0.40256 0.03247 0.27392 0.0
C3784 C 0.34433 0.97494 0.31435 0.0
C3785 C 0.34612 0.98557 0.32661 0.0
C3786 C 0.35457 0.97714 0.30226 0.0
C3787 C 0.36679 0.98997 0.30227 0.0
C3788 C 0.36837 0.00077 0.31394 0.0
C3789 C 0.35814 0.99859 0.32603 0.0
C3790 C 0.37821 0.99195 0.29072 0.0
C3791 C 0.38345 0.00281 0.27847 0.0
C3792 C 0.38395 0.98321 0.29179 0.0
C3793 C 0.37931 0.97197 0.30503 0.0
C3794 C 0.37968 0.97495 0.32363 0.0
C3795 C 0.37519 0.96429 0.33601 0.0
C3796 C 0.37041 0.95061 0.32996 0.0
C3797 C 0.37015 0.94758 0.31152 0.0
C3798 C 0.37461 0.95821 0.29908 0.0
C3799 C 0.43619 0.01494 0.25103 0.0
C3800 C 0.43628 0.00442 0.24033 0.0
C3801 C 0.42444 0.01241 0.26008 0.0
C3802 C 0.41251 -0.00065 0.2585 0.0
C3803 C 0.41255 0.98882 0.24783 0.0
C3804 C 0.42432 0.99134 0.2388 0.0
C3805 C 0.40016 0.99656 0.26857 0.0
C3806 C 0.39475 0.98555 0.28059 0.0
C3807 C 0.39428 0.00516 0.26726 0.0
C3808 C 0.399 0.01641 0.25401 0.0
C3809 C 0.39956 0.01358 0.23556 0.0
C3810 C 0.40412 0.02424 0.22316 0.0
C3811 C 0.40808 0.03777 0.22904 0.0
C3812 C 0.40744 0.04066 0.24732 0.0
C3813 C 0.4029 0.03004 0.25978 0.0
H3814 H 0.41161 0.04601 0.21942 0.0
H3815 H 0.36694 0.94237 0.33957 0.0
H3816 H 0.60549 0.98186 0.34843 0.0
H3817 H 0.59081 0.98568 0.32784 0.0
H3818 H 0.62404 0.00597 0.29113 0.0
H3819 H 0.63897 0.00228 0.31192 0.0
H3820 H 0.61041 0.0203 0.29583 0.0
H3821 H 0.59842 0.97366 0.28093 0.0
H3822 H 0.59176 0.94934 0.2867 0.0
H3823 H 0.55449 0.9427 0.31013 0.0
H3824 H 0.56103 0.96705 0.30474 0.0
H3825 H 0.56449 0.02023 0.22799 0.0
H3826 H 0.58151 0.01667 0.24405 0.0
H3827 H 0.55241 0.99476 0.2853 0.0
H3828 H 0.53539 0.99834 0.26941 0.0
H3829 H 0.56534 0.98111 0.27509 0.0
H3830 H 0.57844 0.02833 0.29228 0.0
H3831 H 0.58519 0.0527 0.28661 0.0
H3832 H 0.62046 0.05812 0.25857 0.0
H3833 H 0.61381 0.03371 0.26387 0.0
C3834 C 0.60972 0.98711 0.33598 0.0
C3835 C 0.62342 0.99173 0.33181 0.0
C3836 C 0.60127 0.98923 0.32416 0.0
C3837 C 0.60625 0.99594 0.30782 0.0
C3838 C 0.61996 0.00071 0.30364 0.0
C3839 C 0.62847 0.99856 0.3155 0.0
C3840 C 0.59709 0.9981 0.29541 0.0
C3841 C 0.60067 0.01171 0.29099 0.0
C3842 C 0.58428 0.98691 0.28933 0.0
C3843 C 0.58027 0.97223 0.29255 0.0
C3844 C 0.58886 0.96705 0.28744 0.0
C3845 C 0.58509 0.95325 0.29062 0.0
C3846 C 0.57272 0.94449 0.29881 0.0
C3847 C 0.56408 0.9495 0.3038 0.0
C3848 C 0.5678 0.9633 0.30066 0.0
C3849 C 0.56176 0.01479 0.24059 0.0
C3850 C 0.54857 0.0096 0.24743 0.0
C3851 C 0.57149 0.01273 0.24973 0.0
C3852 C 0.56827 0.00553 0.26595 0.0
C3853 C 0.55511 0.0003 0.27277 0.0
C3854 C 0.54538 0.00233 0.26364 0.0
C3855 C 0.57853 0.00333 0.27585 0.0
C3856 C 0.57514 0.98969 0.27977 0.0
C3857 C 0.59152 0.01448 0.28142 0.0
C3858 C 0.59555 0.02916 0.27829 0.0
C3859 C 0.58757 0.03469 0.28478 0.0
C3860 C 0.59139 0.04851 0.28165 0.0
C3861 C 0.60322 0.05694 0.27219 0.0
C3862 C 0.61128 0.05157 0.26587 0.0
C3863 C 0.6075 0.03775 0.26894 0.0
H3864 H 0.60616 0.06764 0.26978 0.0
H3865 H 0.56983 0.93381 0.30126 0.0
H3866 H 0.03842 0.64869 0.31408 0.0
H3867 H 0.03203 0.62524 0.30341 0.0
H3868 H 0.99103 0.61675 0.29144 0.0
H3869 H 0.99719 0.6399 0.30316 0.0
H3870 H 0.98949 0.59389 0.30049 0.0
H3871 H 0.01689 0.62894 0.25891 0.0
H3872 H 0.03684 0.65047 0.24876 0.0
H3873 H 0.06304 0.63392 0.26108 0.0
H3874 H 0.04326 0.61236 0.27152 0.0
H3875 H 0.98048 0.54931 0.22072 0.0
H3876 H 0.98376 0.56897 0.23985 0.0
H3877 H 0.01334 0.5652 0.27287 0.0
H3878 H 0.00958 0.54505 0.25466 0.0
H3879 H 0.02017 0.59346 0.25349 0.0
H3880 H 0.99038 0.55728 0.29428 0.0
H3881 H 0.96906 0.53593 0.30147 0.0
H3882 H 0.94569 0.55514 0.28644 0.0
H3883 H 0.96688 0.57654 0.27888 0.0
C3884 C 0.02796 0.64168 0.30959 0.0
C3885 C 0.01833 0.64612 0.30928 0.0
C3886 C 0.02433 0.62832 0.30336 0.0
C3887 C 0.01117 0.61938 0.29601 0.0
C3888 C 0.00128 0.62347 0.29689 0.0
C3889 C 0.0048 0.63671 0.30361 0.0
C3890 C 0.00807 0.60632 0.28613 0.0
C3891 C 0.99618 0.59385 0.29016 0.0
C3892 C 0.01671 0.60618 0.27252 0.0
C3893 C 0.02862 0.6191 0.26617 0.0
C3894 C 0.02692 0.62993 0.25956 0.0
C3895 C 0.03819 0.64213 0.25374 0.0
C3896 C 0.0512 0.64357 0.25432 0.0
C3897 C 0.05296 0.6328 0.26067 0.0
C3898 C 0.04172 0.62058 0.26653 0.0
C3899 C 0.98745 0.55241 0.23229 0.0
C3900 C 0.99485 0.5456 0.23598 0.0
C3901 C 0.98934 0.5637 0.24314 0.0
C3902 C 0.99876 0.56845 0.25771 0.0
C3903 C 0.00603 0.56164 0.26163 0.0
C3904 C 0.00396 0.55021 0.25104 0.0
C3905 C 0.0018 0.58117 0.26809 0.0
C3906 C 0.0136 0.59356 0.26398 0.0
C3907 C 0.99292 0.58127 0.28122 0.0
C3908 C 0.9802 0.56844 0.28579 0.0
C3909 C 0.98068 0.55689 0.2923 0.0
C3910 C 0.96863 0.5448 0.2965 0.0
C3911 C 0.95602 0.54416 0.29435 0.0
C3912 C 0.95546 0.55563 0.28806 0.0
C3913 C 0.96749 0.56775 0.28383 0.0
H3914 H 0.9467 0.53479 0.29762 0.0
H3915 H 0.05992 0.65303 0.24981 0.0
H3916 H 0.35583 0.35506 0.32806 0.0
H3917 H 0.37521 0.36298 0.30814 0.0
H3918 H 0.36455 0.39129 0.28365 0.0
H3919 H 0.34491 0.38319 0.3033 0.0
H3920 H 0.37333 0.37963 0.25867 0.0
H3921 H 0.3888 0.40247 0.31723 0.0
H3922 H 0.39148 0.4035 0.35041 0.0
H3923 H 0.41236 0.38025 0.34679 0.0
H3924 H 0.40963 0.37893 0.31357 0.0
H3925 H 0.43732 0.43311 0.22942 0.0
H3926 H 0.4153 0.41837 0.24321 0.0
H3927 H 0.42995 0.3918 0.263 0.0
H3928 H 0.45214 0.40668 0.24942 0.0
H3929 H 0.4189 0.40008 0.28935 0.0
H3930 H 0.40582 0.37998 0.22993 0.0
H3931 H 0.40339 0.37974 0.19677 0.0
H3932 H 0.37845 0.39862 0.20177 0.0
H3933 H 0.38088 0.39916 0.23496 0.0
C3934 C 0.35752 0.36288 0.31833 0.0
C3935 C 0.34895 0.36864 0.31742 0.0
C3936 C 0.36861 0.3674 0.30696 0.0
C3937 C 0.37145 0.37789 0.29465 0.0
C3938 C 0.36255 0.3832 0.2931 0.0
C3939 C 0.35137 0.3786 0.30438 0.0
C3940 C 0.38419 0.38397 0.28425 0.0
C3941 C 0.38331 0.38419 0.26535 0.0
C3942 C 0.39718 0.38963 0.29298 0.0
C3943 C 0.39887 0.39047 0.31294 0.0
C3944 C 0.39387 0.39749 0.32352 0.0
C3945 C 0.39541 0.39814 0.34233 0.0
C3946 C 0.40205 0.3919 0.35071 0.0
C3947 C 0.40719 0.38504 0.34029 0.0
C3948 C 0.40566 0.38435 0.32147 0.0
C3949 C 0.43582 0.42409 0.23664 0.0
C3950 C 0.44646 0.42109 0.23849 0.0
C3951 C 0.4232 0.4156 0.24434 0.0
C3952 C 0.42097 0.40393 0.25399 0.0
C3953 C 0.43146 0.40072 0.25552 0.0
C3954 C 0.44409 0.40918 0.24772 0.0
C3955 C 0.40809 0.39586 0.26375 0.0
C3956 C 0.40893 0.39533 0.2826 0.0
C3957 C 0.39511 0.39001 0.25495 0.0
C3958 C 0.39362 0.3897 0.23496 0.0
C3959 C 0.3999 0.38418 0.22396 0.0
C3960 C 0.39851 0.38397 0.20515 0.0
C3961 C 0.39079 0.38918 0.19717 0.0
C3962 C 0.38443 0.39459 0.20798 0.0
C3963 C 0.3858 0.39484 0.22679 0.0
H3964 H 0.38971 0.389 0.18261 0.0
H3965 H 0.40323 0.39242 0.36528 0.0
H3966 H 0.34081 0.32488 0.37395 0.0
H3967 H 0.34993 0.31048 0.38505 0.0
H3968 H 0.31174 0.28394 0.41065 0.0
H3969 H 0.30259 0.29829 0.39984 0.0
H3970 H 0.33318 0.2928 0.43389 0.0
H3971 H 0.32131 0.27296 0.37335 0.0
H3972 H 0.32172 0.27354 0.34009 0.0
H3973 H 0.36528 0.29095 0.34196 0.0
H3974 H 0.36515 0.29065 0.37527 0.0
H3975 H 0.33663 0.23412 0.4576 0.0
H3976 H 0.331 0.25011 0.4428 0.0
H3977 H 0.37251 0.27422 0.42516 0.0
H3978 H 0.37822 0.25807 0.43989 0.0
H3979 H 0.35237 0.26884 0.39787 0.0
H3980 H 0.36403 0.28711 0.45826 0.0
H3981 H 0.36359 0.28613 0.49147 0.0
H3982 H 0.32055 0.2718 0.48989 0.0
H3983 H 0.32069 0.27247 0.45662 0.0
C3984 C 0.33426 0.31584 0.38168 0.0
C3985 C 0.321 0.31282 0.38614 0.0
C3986 C 0.3395 0.30762 0.38799 0.0
C3987 C 0.33152 0.29619 0.39872 0.0
C3988 C 0.31809 0.29279 0.40249 0.0
C3989 C 0.31287 0.30099 0.39625 0.0
C3990 C 0.33737 0.28826 0.4071 0.0
C3991 C 0.33725 0.28745 0.42599 0.0
C3992 C 0.34316 0.28175 0.39682 0.0
C3993 C 0.34324 0.28193 0.37681 0.0
C3994 C 0.33099 0.27703 0.36668 0.0
C3995 C 0.33117 0.27728 0.34781 0.0
C3996 C 0.34352 0.28232 0.33892 0.0
C3997 C 0.35572 0.28708 0.34887 0.0
C3998 C 0.3556 0.28686 0.36774 0.0
C3999 C 0.34455 0.24278 0.45047 0.0
C4000 C 0.35785 0.24486 0.44984 0.0
C4001 C 0.34133 0.25193 0.44212 0.0
C4002 C 0.35137 0.26336 0.43301 0.0
C4003 C 0.36465 0.26545 0.43217 0.0
C4004 C 0.36792 0.25631 0.44067 0.0
C4005 C 0.3478 0.2731 0.42456 0.0
C4006 C 0.34841 0.27432 0.40573 0.0
C4007 C 0.34247 0.28003 0.43487 0.0
C4008 C 0.34236 0.27975 0.45492 0.0
C4009 C 0.35445 0.28365 0.46498 0.0
C4010 C 0.35426 0.28316 0.48383 0.0
C4011 C 0.34204 0.27888 0.4928 0.0
C4012 C 0.33 0.27511 0.48293 0.0
C4013 C 0.33014 0.27556 0.46407 0.0
H4014 H 0.34191 0.2785 0.50739 0.0
H4015 H 0.34363 0.28251 0.32432 0.0
H4016 H 0.71281 0.02747 0.36641 0.0
H4017 H 0.72972 0.05185 0.3729 0.0
H4018 H 0.69737 0.05988 0.38724 0.0
H4019 H 0.68039 0.03566 0.37951 0.0
H4020 H 0.71645 0.08204 0.37396 0.0
H4021 H 0.71593 0.05179 0.41939 0.0
H4022 H 0.71704 0.03192 0.43172 0.0
H4023 H 0.75792 0.04861 0.41281 0.0
H4024 H 0.75698 0.0685 0.40015 0.0
H4025 H 0.75686 0.13372 0.4449 0.0
H4026 H 0.74007 0.11244 0.42881 0.0
H4027 H 0.7714 0.11486 0.39409 0.0
H4028 H 0.78816 0.13665 0.4092 0.0
H4029 H 0.75339 0.08827 0.41676 0.0
H4030 H 0.75283 0.12002 0.37306 0.0
H4031 H 0.75044 0.13994 0.36403 0.0
H4032 H 0.70976 0.12019 0.38439 0.0
H4033 H 0.712 0.10024 0.3938 0.0
C4034 C 0.70933 0.03456 0.37049 0.0
C4035 C 0.69535 0.02973 0.37257 0.0
C4036 C 0.71898 0.04845 0.37438 0.0
C4037 C 0.71488 0.05764 0.38121 0.0
C4038 C 0.70083 0.05301 0.38214 0.0
C4039 C 0.69113 0.03918 0.37771 0.0
C4040 C 0.7252 0.07164 0.38861 0.0
C4041 C 0.72445 0.08334 0.3834 0.0
C4042 C 0.73571 0.07346 0.40099 0.0
C4043 C 0.73633 0.06155 0.40866 0.0
C4044 C 0.72512 0.05117 0.41776 0.0
C4045 C 0.72572 0.03991 0.42482 0.0
C4046 C 0.73753 0.03898 0.42301 0.0
C4047 C 0.74877 0.04933 0.41418 0.0
C4048 C 0.74822 0.06061 0.40707 0.0
C4049 C 0.76019 0.13001 0.43354 0.0
C4050 C 0.77398 0.13699 0.42848 0.0
C4051 C 0.75055 0.11777 0.42444 0.0
C4052 C 0.75453 0.11215 0.41029 0.0
C4053 C 0.76817 0.11908 0.40501 0.0
C4054 C 0.77776 0.13147 0.41384 0.0
C4055 C 0.74466 0.09851 0.40193 0.0
C4056 C 0.74545 0.08689 0.40715 0.0
C4057 C 0.73401 0.09675 0.39001 0.0
C4058 C 0.73265 0.10872 0.38432 0.0
C4059 C 0.74344 0.12 0.37579 0.0
C4060 C 0.74209 0.13128 0.37056 0.0
C4061 C 0.72997 0.13135 0.37368 0.0
C4062 C 0.71915 0.12013 0.382 0.0
C4063 C 0.72045 0.10883 0.38727 0.0
H4064 H 0.72894 0.14009 0.36961 0.0
H4065 H 0.73797 0.03026 0.42848 0.0
H4066 H 0.99069 0.70148 0.37305 0.0
H4067 H 0.97014 0.69381 0.39061 0.0
H4068 H 0.95594 0.65132 0.37369 0.0
H4069 H 0.97635 0.65896 0.35572 0.0
H4070 H 0.93614 0.65708 0.36997 0.0
H4071 H 0.96813 0.66344 0.41726 0.0
H4072 H 0.98954 0.67589 0.43545 0.0
H4073 H 0.97982 0.70738 0.45026 0.0
H4074 H 0.95843 0.69522 0.43195 0.0
H4075 H 0.88118 0.6273 0.43069 0.0
H4076 H 0.90257 0.63384 0.41558 0.0
H4077 H 0.91666 0.67709 0.42761 0.0
H4078 H 0.8952 0.67066 0.44254 0.0
H4079 H 0.9365 0.67021 0.43444 0.0
H4080 H 0.90487 0.664 0.38607 0.0
H4081 H 0.88341 0.65128 0.36803 0.0
H4082 H 0.89256 0.61901 0.35555 0.0
H4083 H 0.914 0.63145 0.37374 0.0
C4084 C 0.98326 0.69049 0.37317 0.0
C4085 C 0.98514 0.68083 0.36295 0.0
C4086 C 0.97154 0.68611 0.3833 0.0
C4087 C 0.96155 0.67197 0.38362 0.0
C4088 C 0.96351 0.66228 0.37364 0.0
C4089 C 0.97519 0.66666 0.36341 0.0
C4090 C 0.94877 0.66739 0.39363 0.0
C4091 C 0.93623 0.65975 0.38416 0.0
C4092 C 0.94888 0.67114 0.41203 0.0
C4093 C 0.96173 0.67847 0.42309 0.0
C4094 C 0.97061 0.67307 0.42428 0.0
C4095 C 0.98273 0.68007 0.43463 0.0
C4096 C 0.98606 0.69243 0.44397 0.0
C4097 C 0.97724 0.69781 0.44301 0.0
C4098 C 0.96511 0.69086 0.43266 0.0
C4099 C 0.88877 0.63822 0.42997 0.0
C4100 C 0.88644 0.64847 0.43772 0.0
C4101 C 0.90101 0.64193 0.4214 0.0
C4102 C 0.91114 0.65595 0.42035 0.0
C4103 C 0.90897 0.6662 0.42832 0.0
C4104 C 0.89672 0.6625 0.43687 0.0
C4105 C 0.92395 0.65995 0.41075 0.0
C4106 C 0.93646 0.66749 0.42029 0.0
C4107 C 0.92382 0.65605 0.39243 0.0
C4108 C 0.91097 0.64859 0.38142 0.0
C4109 C 0.90225 0.65414 0.3796 0.0
C4110 C 0.8901 0.64699 0.36933 0.0
C4111 C 0.8866 0.63432 0.36069 0.0
C4112 C 0.89527 0.62881 0.36227 0.0
C4113 C 0.90743 0.63591 0.37255 0.0
H4114 H 0.87719 0.6288 0.35274 0.0
H4115 H 0.99545 0.69783 0.45198 0.0
H4116 H 0.37978 0.99452 0.66369 0.0
H4117 H 0.39473 0.991 0.68421 0.0
H4118 H 0.3776 0.0011 0.72975 0.0
H4119 H 0.36269 0.0049 0.70918 0.0
H4120 H 0.40493 0.01444 0.7326 0.0
H4121 H 0.36976 0.96762 0.72108 0.0
H4122 H 0.35369 0.94701 0.7026 0.0
H4123 H 0.38735 0.94667 0.67692 0.0
H4124 H 0.40363 0.96741 0.69506 0.0
H4125 H 0.44108 0.99459 0.79412 0.0
H4126 H 0.42258 0.99553 0.77785 0.0
H4127 H 0.43651 0.98761 0.72749 0.0
H4128 H 0.4551 0.98683 0.74358 0.0
H4129 H 0.40887 0.97198 0.72991 0.0
H4130 H 0.44375 0.02011 0.73965 0.0
H4131 H 0.45974 0.0408 0.75807 0.0
H4132 H 0.42619 0.03845 0.78744 0.0
H4133 H 0.41001 0.01761 0.76934 0.0
C4134 C 0.37909 0.99591 0.67807 0.0
C4135 C 0.37002 -2e-05 0.68479 0.0
C4136 C 0.38762 0.99382 0.68981 0.0
C4137 C 0.38718 0.99561 0.70855 0.0
C4138 C 0.37808 -0.00039 0.71534 0.0
C4139 C 0.36954 0.00174 0.70357 0.0
C4140 C 0.39664 0.99384 0.72086 0.0
C4141 C 0.4056 0.00505 0.73228 0.0
C4142 C 0.39768 0.98167 0.72023 0.0
C4143 C 0.38792 0.96914 0.70935 0.0
C4144 C 0.37374 0.96321 0.7114 0.0
C4145 C 0.36459 0.95149 0.701 0.0
C4146 C 0.3695 0.94555 0.68857 0.0
C4147 C 0.38356 0.95129 0.68654 0.0
C4148 C 0.39276 0.96302 0.6969 0.0
C4149 C 0.44027 0.99315 0.77957 0.0
C4150 C 0.4496 0.99067 0.77015 0.0
C4151 C 0.42966 0.99365 0.7703 0.0
C4152 C 0.42822 0.99173 0.75144 0.0
C4153 C 0.43739 0.98906 0.74205 0.0
C4154 C 0.44799 0.98857 0.75129 0.0
C4155 C 0.41729 0.99267 0.74137 0.0
C4156 C 0.40806 0.9813 0.73038 0.0
C4157 C 0.41598 0.00467 0.74244 0.0
C4158 C 0.42569 0.01721 0.75329 0.0
C4159 C 0.4398 0.02393 0.75014 0.0
C4160 C 0.44889 0.0357 0.7605 0.0
C4161 C 0.44399 0.04091 0.77396 0.0
C4162 C 0.42998 0.03438 0.77704 0.0
C4163 C 0.42084 0.0226 0.76673 0.0
H4164 H 0.45105 0.05002 0.78196 0.0
H4165 H 0.3624 0.93648 0.68052 0.0
H4166 H 0.96511 0.35486 0.7299 0.0
H4167 H 0.97326 0.37925 0.73645 0.0
H4168 H 0.00966 0.39057 0.70644 0.0
H4169 H 0.00171 0.36594 0.7002 0.0
H4170 H 0.01649 0.40417 0.73717 0.0
H4171 H 0.98492 0.39793 0.69065 0.0
H4172 H 0.96318 0.38664 0.67308 0.0
H4173 H 0.94256 0.39186 0.71819 0.0
H4174 H 0.96414 0.403 0.73615 0.0
H4175 H 0.00821 0.47039 0.75235 0.0
H4176 H 0.00539 0.45082 0.73341 0.0
H4177 H 0.01265 0.43256 0.78019 0.0
H4178 H 0.01587 0.45231 0.79899 0.0
H4179 H 0.98704 0.42539 0.73354 0.0
H4180 H 0.02524 0.41216 0.7698 0.0
H4181 H 0.04817 0.42465 0.78439 0.0
H4182 H 0.05793 0.4608 0.75388 0.0
H4183 H 0.03514 0.44847 0.73891 0.0
C4184 C 0.97477 0.36248 0.72443 0.0
C4185 C 0.98277 0.35839 0.71457 0.0
C4186 C 0.97939 0.37649 0.72811 0.0
C4187 C 0.99201 0.3868 0.72178 0.0
C4188 C -0.00013 0.3828 0.71144 0.0
C4189 C 0.99528 0.36872 0.70784 0.0
C4190 C 0.99731 0.40157 0.72726 0.0
C4191 C 0.01012 0.40888 0.73621 0.0
C4192 C 0.9892 0.40791 0.72553 0.0
C4193 C 0.97617 0.40126 0.71478 0.0
C4194 C 0.97574 0.3966 0.69687 0.0
C4195 C 0.96344 0.39023 0.68683 0.0
C4196 C 0.95149 0.38852 0.69452 0.0
C4197 C 0.95183 0.3932 0.71225 0.0
C4198 C 0.9641 0.39956 0.72236 0.0
C4199 C 0.00935 0.46225 0.75851 0.0
C4200 C 0.01226 0.46284 0.77712 0.0
C4201 C 0.00775 0.45109 0.74769 0.0
C4202 C 0.00893 0.44025 0.75529 0.0
C4203 C 0.01202 0.44094 0.77388 0.0
C4204 C 0.01381 0.4522 0.78465 0.0
C4205 C 0.00594 0.42773 0.74419 0.0
C4206 C 0.99355 0.42083 0.7342 0.0
C4207 C 0.01462 0.42196 0.7445 0.0
C4208 C 0.02843 0.4294 0.75331 0.0
C4209 C 0.0323 0.42274 0.76612 0.0
C4210 C 0.04527 0.42981 0.77448 0.0
C4211 C 0.05449 0.44352 0.7701 0.0
C4212 C 0.05077 0.45019 0.75731 0.0
C4213 C 0.03782 0.44317 0.7489 0.0
H4214 H 0.06452 0.44897 0.7766 0.0
H4215 H 0.94198 0.38359 0.68673 0.0
H4216 H 0.65275 0.6444 0.70557 0.0
H4217 H 0.63449 0.63765 0.72732 0.0
H4218 H 0.60457 0.61247 0.68587 0.0
H4219 H 0.62264 0.61942 0.66405 0.0
H4220 H 0.59578 0.62661 0.70497 0.0
H4221 H 0.61647 0.5985 0.71824 0.0
H4222 H 0.63555 0.59476 0.72663 0.0
H4223 H 0.64209 0.618 0.77631 0.0
H4224 H 0.62314 0.62201 0.76809 0.0
H4225 H 0.53965 0.57256 0.74715 0.0
H4226 H 0.56006 0.58784 0.73045 0.0
H4227 H 0.58011 0.61066 0.77979 0.0
H4228 H 0.55963 0.59526 0.79665 0.0
H4229 H 0.59563 0.60229 0.76055 0.0
H4230 H 0.57165 0.62641 0.74894 0.0
H4231 H 0.55196 0.62905 0.74025 0.0
H4232 H 0.55102 0.61245 0.68714 0.0
H4233 H 0.57058 0.6095 0.69557 0.0
C4234 C 0.64227 0.63744 0.70111 0.0
C4235 C 0.63913 0.63239 0.68312 0.0
C4236 C 0.63186 0.63358 0.71355 0.0
C4237 C 0.61818 0.62447 0.70825 0.0
C4238 C 0.61505 0.61955 0.69025 0.0
C4239 C 0.62541 0.62348 0.67781 0.0
C4240 C 0.60703 0.61972 0.72136 0.0
C4241 C 0.59572 0.62125 0.7171 0.0
C4242 C 0.60716 0.61315 0.73749 0.0
C4243 C 0.61851 0.6107 0.74245 0.0
C4244 C 0.62205 0.6029 0.73088 0.0
C4245 C 0.63283 0.60072 0.73562 0.0
C4246 C 0.64006 0.60618 0.75197 0.0
C4247 C 0.6365 0.6138 0.76363 0.0
C4248 C 0.62574 0.61603 0.75895 0.0
C4249 C 0.54836 0.58092 0.75439 0.0
C4250 C 0.54812 0.58273 0.77317 0.0
C4251 C 0.55997 0.5897 0.74484 0.0
C4252 C 0.57154 0.60044 0.75388 0.0
C4253 C 0.57124 0.60247 0.77258 0.0
C4254 C 0.55955 0.59374 0.78215 0.0
C4255 C 0.5842 0.60875 0.74381 0.0
C4256 C 0.5958 0.60791 0.74864 0.0
C4257 C 0.58429 0.61586 0.72813 0.0
C4258 C 0.57256 0.61767 0.72294 0.0
C4259 C 0.56719 0.62323 0.73544 0.0
C4260 C 0.55606 0.62479 0.73056 0.0
C4261 C 0.55023 0.6209 0.71316 0.0
C4262 C 0.55555 0.61546 0.70061 0.0
C4263 C 0.56667 0.61386 0.70543 0.0
H4264 H 0.54162 0.62212 0.70941 0.0
H4265 H 0.6484 0.60448 0.75561 0.0
H4266 H 0.69567 0.70233 0.61727 0.0
H4267 H 0.68684 0.71771 0.61021 0.0
H4268 H 0.65346 0.69547 0.64617 0.0
H4269 H 0.66208 0.6798 0.6531 0.0
H4270 H 0.64409 0.69838 0.61494 0.0
H4271 H 0.67872 0.72882 0.65674 0.0
H4272 H 0.70172 0.74158 0.67107 0.0
H4273 H 0.71791 0.76365 0.62227 0.0
H4274 H 0.69504 0.75087 0.60754 0.0
H4275 H 0.64733 0.77003 0.59852 0.0
H4276 H 0.65232 0.75496 0.61689 0.0
H4277 H 0.64385 0.72748 0.57058 0.0
H4278 H 0.63866 0.74242 0.55226 0.0
H4279 H 0.67208 0.74976 0.61347 0.0
H4280 H 0.63305 0.69491 0.58304 0.0
H4281 H 0.60922 0.68232 0.57135 0.0
H4282 H 0.60014 0.7094 0.60273 0.0
H4283 H 0.62386 0.72203 0.6148 0.0
C4284 C 0.68657 0.7008 0.62392 0.0
C4285 C 0.67955 0.68976 0.63568 0.0
C4286 C 0.68156 0.70967 0.61992 0.0
C4287 C 0.66953 0.7078 0.62774 0.0
C4288 C 0.66275 0.69709 0.63997 0.0
C4289 C 0.66773 0.68817 0.64394 0.0
C4290 C 0.66356 0.71638 0.62203 0.0
C4291 C 0.65017 0.70963 0.61476 0.0
C4292 C 0.67136 0.73106 0.62221 0.0
C4293 C 0.68516 0.73881 0.631 0.0
C4294 C 0.6872 0.73632 0.64902 0.0
C4295 C 0.70022 0.74357 0.65722 0.0
C4296 C 0.71128 0.75341 0.64758 0.0
C4297 C 0.70934 0.75603 0.62972 0.0
C4298 C 0.69634 0.7488 0.62145 0.0
C4299 C 0.6464 0.76069 0.59233 0.0
C4300 C 0.64266 0.75739 0.57396 0.0
C4301 C 0.64924 0.75209 0.60283 0.0
C4302 C 0.6484 0.74006 0.59516 0.0
C4303 C 0.64432 0.73657 0.57691 0.0
C4304 C 0.64137 0.74511 0.56643 0.0
C4305 C 0.65279 0.73173 0.60577 0.0
C4306 C 0.66592 0.73853 0.61392 0.0
C4307 C 0.64462 0.71712 0.60678 0.0
C4308 C 0.63028 0.70948 0.59972 0.0
C4309 C 0.62595 0.69814 0.58752 0.0
C4310 C 0.61247 0.691 0.58081 0.0
C4311 C 0.60318 0.69508 0.58626 0.0
C4312 C 0.60736 0.70628 0.59847 0.0
C4313 C 0.62083 0.71344 0.60523 0.0
H4314 H 0.59275 0.68955 0.58104 0.0
H4315 H 0.72135 0.75901 0.65395 0.0
H4316 H 0.31708 0.96476 0.65932 0.0
H4317 H 0.3028 0.9397 0.65319 0.0
H4318 H 0.27494 0.9469 0.62106 0.0
H4319 H 0.28878 0.97169 0.62749 0.0
H4320 H 0.26097 0.92482 0.63954 0.0
H4321 H 0.30086 0.94242 0.60214 0.0
H4322 H 0.32563 0.95406 0.59682 0.0
H4323 H 0.32883 0.92377 0.62841 0.0
H4324 H 0.30409 0.91204 0.63408 0.0
H4325 H 0.24677 0.86909 0.56724 0.0
H4326 H 0.26294 0.89118 0.58231 0.0
H4327 H 0.24443 0.87507 0.63341 0.0
H4328 H 0.22814 0.85295 0.61836 0.0
H4329 H 0.28211 0.90045 0.60892 0.0
H4330 H 0.24239 0.9008 0.65655 0.0
H4331 H 0.21736 0.89029 0.65844 0.0
H4332 H 0.21339 0.88656 0.60058 0.0
H4333 H 0.23839 0.89722 0.59835 0.0
C4334 C 0.30781 0.96098 0.65116 0.0
C4335 C 0.30416 0.97029 0.64379 0.0
C4336 C 0.2997 0.94665 0.64758 0.0
C4337 C 0.2879 0.94142 0.63643 0.0
C4338 C 0.28398 0.95066 0.6297 0.0
C4339 C 0.29198 0.96489 0.63336 0.0
C4340 C 0.27984 0.92648 0.63089 0.0
C4341 C 0.26563 0.91945 0.63305 0.0
C4342 C 0.28586 0.91948 0.62221 0.0
C4343 C 0.30068 0.92646 0.6187 0.0
C4344 C 0.30687 0.9383 0.60804 0.0
C4345 C 0.3209 0.9449 0.60495 0.0
C4346 C 0.3288 0.93968 0.61232 0.0
C4347 C 0.32269 0.92782 0.62274 0.0
C4348 C 0.30868 0.92118 0.62589 0.0
C4349 C 0.24633 0.87014 0.58175 0.0
C4350 C 0.2361 0.85934 0.5916 0.0
C4351 C 0.25558 0.88278 0.59035 0.0
C4352 C 0.25477 0.88484 0.60895 0.0
C4353 C 0.24509 0.87378 0.619 0.0
C4354 C 0.23579 0.86117 0.61039 0.0
C4355 C 0.26325 0.8989 0.61739 0.0
C4356 C 0.27751 0.90573 0.61579 0.0
C4357 C 0.25725 0.90588 0.62616 0.0
C4358 C 0.24223 0.89963 0.62732 0.0
C4359 C 0.23617 0.89776 0.64425 0.0
C4360 C 0.22199 0.89179 0.64537 0.0
C4361 C 0.21379 0.88771 0.62964 0.0
C4362 C 0.21975 0.88967 0.61275 0.0
C4363 C 0.23392 0.89567 0.61155 0.0
H4364 H 0.20282 0.88307 0.63054 0.0
H4365 H 0.33966 0.94481 0.60991 0.0
H4366 H 0.01025 0.30087 0.6543 0.0
H4367 H 0.03114 0.3079 0.63772 0.0
H4368 H 0.04386 0.35099 0.6483 0.0
H4369 H 0.02295 0.34407 0.66503 0.0
H4370 H 0.04864 0.34509 0.61248 0.0
H4371 H 0.05715 0.33738 0.67377 0.0
H4372 H 0.05234 0.32411 0.70167 0.0
H4373 H 0.05489 0.29165 0.67293 0.0
H4374 H 0.05952 0.30465 0.64477 0.0
H4375 H 0.1184 0.37172 0.59081 0.0
H4376 H 0.09745 0.36641 0.60634 0.0
H4377 H 0.08478 0.3228 0.60421 0.0
H4378 H 0.10594 0.32808 0.58942 0.0
H4379 H 0.08017 0.3299 0.6363 0.0
H4380 H 0.0712 0.3369 0.57501 0.0
H4381 H 0.07558 0.3496 0.54666 0.0
H4382 H 0.07348 0.38263 0.57453 0.0
H4383 H 0.06926 0.37021 0.60311 0.0
C4384 C 0.0174 0.31185 0.65296 0.0
C4385 C 0.01499 0.32191 0.66112 0.0
C4386 C 0.02935 0.31584 0.64352 0.0
C4387 C 0.03909 0.32995 0.642 0.0
C4388 C 0.03646 0.34005 0.64939 0.0
C4389 C 0.02454 0.33607 0.65898 0.0
C4390 C 0.0523 0.33409 0.63342 0.0
C4391 C 0.05565 0.34195 0.61778 0.0
C4392 C 0.06126 0.32973 0.6402 0.0
C4393 C 0.05855 0.32193 0.65713 0.0
C4394 C 0.05657 0.32736 0.67337 0.0
C4395 C 0.0539 0.3199 0.68923 0.0
C4396 C 0.05327 0.30703 0.68906 0.0
C4397 C 0.05535 0.30161 0.67303 0.0
C4398 C 0.05802 0.30903 0.65712 0.0
C4399 C 0.11123 0.36102 0.59384 0.0
C4400 C 0.11383 0.35032 0.5888 0.0
C4401 C 0.09919 0.35798 0.60253 0.0
C4402 C 0.08945 0.34418 0.6062 0.0
C4403 C 0.09211 0.33352 0.60144 0.0
C4404 C 0.10417 0.33654 0.59284 0.0
C4405 C 0.07652 0.3408 0.61516 0.0
C4406 C 0.07321 0.33309 0.63094 0.0
C4407 C 0.06757 0.34523 0.60842 0.0
C4408 C 0.07006 0.3527 0.59124 0.0
C4409 C 0.07178 0.34693 0.57512 0.0
C4410 C 0.07421 0.35406 0.559 0.0
C4411 C 0.07485 0.36693 0.5588 0.0
C4412 C 0.07301 0.37267 0.57471 0.0
C4413 C 0.07058 0.36558 0.59087 0.0
H4414 H 0.07673 0.37244 0.54631 0.0
H4415 H 0.0512 0.30127 0.70136 0.0
H4416 H 0.31166 0.34992 0.66334 0.0
H4417 H 0.29838 0.35771 0.64577 0.0
H4418 H 0.26714 0.31507 0.63509 0.0
H4419 H 0.28044 0.3072 0.6523 0.0
H4420 H 0.27167 0.32998 0.60548 0.0
H4421 H 0.26394 0.33526 0.66847 0.0
H4422 H 0.27095 0.34407 0.69986 0.0
H4423 H 0.28978 0.38605 0.68191 0.0
H4424 H 0.28302 0.37747 0.65037 0.0
H4425 H 0.2135 0.33464 0.58324 0.0
H4426 H 0.23027 0.33014 0.59802 0.0
H4427 H 0.25795 0.37423 0.60508 0.0
H4428 H 0.24114 0.37882 0.59026 0.0
H4429 H 0.25728 0.36078 0.63516 0.0
H4430 H 0.26327 0.35553 0.57244 0.0
H4431 H 0.25608 0.34673 0.54109 0.0
H4432 H 0.24067 0.30492 0.55826 0.0
H4433 H 0.24759 0.31345 0.58977 0.0
C4434 C 0.30202 0.3422 0.65713 0.0
C4435 C 0.29708 0.32793 0.65934 0.0
C4436 C 0.2944 0.34667 0.64716 0.0
C4437 C 0.28166 0.33698 0.63933 0.0
C4438 C 0.27693 0.32274 0.64103 0.0
C4439 C 0.28455 0.31826 0.65093 0.0
C4440 C 0.27301 0.34157 0.62977 0.0
C4441 C 0.26843 0.33663 0.61202 0.0
C4442 C 0.2691 0.35057 0.63811 0.0
C4443 C 0.27311 0.35572 0.65706 0.0
C4444 C 0.26966 0.34636 0.67121 0.0
C4445 C 0.27358 0.35132 0.68902 0.0
C4446 C 0.28084 0.36561 0.69287 0.0
C4447 C 0.28417 0.37498 0.67891 0.0
C4448 C 0.2803 0.37008 0.66107 0.0
C4449 C 0.2232 0.3434 0.5878 0.0
C4450 C 0.22604 0.3571 0.58541 0.0
C4451 C 0.23278 0.34081 0.59625 0.0
C4452 C 0.24548 0.35185 0.60237 0.0
C4453 C 0.24825 0.36555 0.6004 0.0
C4454 C 0.23862 0.36816 0.59198 0.0
C4455 C 0.25574 0.34898 0.61098 0.0
C4456 C 0.26063 0.35425 0.62854 0.0
C4457 C 0.25995 0.3403 0.60246 0.0
C4458 C 0.25586 0.33513 0.58349 0.0
C4459 C 0.25826 0.34445 0.56955 0.0
C4460 C 0.25425 0.33951 0.55175 0.0
C4461 C 0.2479 0.32528 0.54769 0.0
C4462 C 0.24558 0.31595 0.56143 0.0
C4463 C 0.24957 0.32083 0.57926 0.0
H4464 H 0.24479 0.32148 0.5339 0.0
H4465 H 0.28387 0.36942 0.70667 0.0
H4466 H 0.66478 0.96895 0.64055 0.0
H4467 H 0.65569 0.94494 0.62953 0.0
H4468 H 0.69551 0.95543 0.61046 0.0
H4469 H 0.70466 0.97932 0.62128 0.0
H4470 H 0.67568 0.94321 0.58413 0.0
H4471 H 0.6823 0.93511 0.64642 0.0
H4472 H 0.67914 0.93538 0.67927 0.0
H4473 H 0.63574 0.9094 0.6712 0.0
H4474 H 0.63863 0.90913 0.63826 0.0
H4475 H 0.67129 0.88028 0.55968 0.0
H4476 H 0.67684 0.90206 0.57518 0.0
H4477 H 0.6348 0.88463 0.59036 0.0
H4478 H 0.62921 0.86252 0.57525 0.0
H4479 H 0.65282 0.89974 0.61842 0.0
H4480 H 0.64597 0.90645 0.5567 0.0
H4481 H 0.64872 0.9059 0.52379 0.0
H4482 H 0.69177 0.93457 0.5305 0.0
H4483 H 0.68933 0.93513 0.5635 0.0
C4484 C 0.67167 0.96608 0.63434 0.0
C4485 C 0.68543 0.97612 0.63164 0.0
C4486 C 0.66644 0.95235 0.62804 0.0
C4487 C 0.67491 0.94844 0.61907 0.0
C4488 C 0.68878 0.95826 0.61721 0.0
C4489 C 0.69399 0.97193 0.62347 0.0
C4490 C 0.66927 0.93448 0.61035 0.0
C4491 C 0.67081 0.93372 0.59167 0.0
C4492 C 0.66241 0.92208 0.62007 0.0
C4493 C 0.66067 0.92223 0.63986 0.0
C4494 C 0.67207 0.92956 0.65164 0.0
C4495 C 0.67033 0.92969 0.67027 0.0
C4496 C 0.65724 0.92245 0.67731 0.0
C4497 C 0.64587 0.91503 0.66572 0.0
C4498 C 0.64755 0.91487 0.64707 0.0
C4499 C 0.66324 0.881 0.56648 0.0
C4500 C 0.64981 0.86967 0.56624 0.0
C4501 C 0.6664 0.8935 0.57521 0.0
C4502 C 0.6562 0.895 0.58375 0.0
C4503 C 0.64281 0.88368 0.58379 0.0
C4504 C 0.63961 0.87112 0.57502 0.0
C4505 C 0.65964 0.90855 0.59233 0.0
C4506 C 0.65761 0.90923 0.61089 0.0
C4507 C 0.66597 0.92092 0.58249 0.0
C4508 C 0.66748 0.92075 0.56261 0.0
C4509 C 0.65605 0.91257 0.55118 0.0
C4510 C 0.65754 0.91226 0.5325 0.0
C4511 C 0.67041 0.92017 0.52506 0.0
C4512 C 0.68181 0.92844 0.53628 0.0
C4513 C 0.68037 0.92877 0.55498 0.0
H4514 H 0.67155 0.91992 0.51059 0.0
H4515 H 0.65591 0.92257 0.69175 0.0
H4516 H 0.042 0.69569 0.68978 0.0
H4517 H 0.06236 0.70462 0.6715 0.0
H4518 H 0.03833 0.70116 0.62393 0.0
H4519 H 0.01782 0.69226 0.64215 0.0
H4520 H 0.05877 0.69283 0.61868 0.0
H4521 H 0.0543 0.73098 0.64275 0.0
H4522 H 0.05119 0.74454 0.66702 0.0
H4523 H 0.08771 0.75079 0.69423 0.0
H4524 H 0.09092 0.73708 0.67024 0.0
H4525 H 0.11213 0.74158 0.56353 0.0
H4526 H 0.09138 0.72658 0.57997 0.0
H4527 H 0.115 0.73838 0.63004 0.0
H4528 H 0.1356 0.75381 0.61367 0.0
H4529 H 0.09434 0.74152 0.63393 0.0
H4530 H 0.09985 0.7045 0.60957 0.0
H4531 H 0.10312 0.69073 0.58576 0.0
H4532 H 0.06537 0.68196 0.55966 0.0
H4533 H 0.06195 0.69582 0.58319 0.0
C4534 C 0.04098 0.69666 0.6754 0.0
C4535 C 0.02833 0.69342 0.66744 0.0
C4536 C 0.05263 0.70174 0.66498 0.0
C4537 C 0.05182 0.70362 0.64643 0.0
C4538 C 0.03911 0.69975 0.63824 0.0
C4539 C 0.02745 0.69475 0.64869 0.0
C4540 C 0.06446 0.71074 0.63599 0.0
C4541 C 0.06653 0.70351 0.62184 0.0
C4542 C 0.07463 0.72456 0.64043 0.0
C4543 C 0.07277 0.73289 0.6548 0.0
C4544 C 0.0616 0.73515 0.65399 0.0
C4545 C 0.05983 0.74288 0.66768 0.0
C4546 C 0.06922 0.74849 0.68218 0.0
C4547 C 0.08043 0.74642 0.683 0.0
C4548 C 0.08223 0.73868 0.66936 0.0
C4549 C 0.11288 0.7407 0.578 0.0
C4550 C 0.12537 0.74881 0.58741 0.0
C4551 C 0.10105 0.7321 0.58738 0.0
C4552 C 0.10162 0.73127 0.60627 0.0
C4553 C 0.11429 0.73889 0.6155 0.0
C4554 C 0.12604 0.74766 0.60617 0.0
C4555 C 0.08891 0.72359 0.61662 0.0
C4556 C 0.08672 0.73078 0.63075 0.0
C4557 C 0.07872 0.70971 0.61219 0.0
C4558 C 0.08071 0.7013 0.59807 0.0
C4559 C 0.09229 0.69971 0.59869 0.0
C4560 C 0.09417 0.69188 0.58525 0.0
C4561 C 0.08448 0.6855 0.57118 0.0
C4562 C 0.07288 0.68691 0.57055 0.0
C4563 C 0.07095 0.69474 0.58395 0.0
H4564 H 0.08595 0.67945 0.56079 0.0
H4565 H 0.06783 0.75447 0.69277 0.0
H4566 H -0.00013 0.65016 0.6975 0.0
H4567 H 0.00542 0.6326 0.70712 0.0
H4568 H 0.9696 0.61416 0.73988 0.0
H4569 H 0.96381 0.63138 0.73008 0.0
H4570 H 0.01191 0.62849 0.73954 0.0
H4571 H 0.95721 0.58013 0.74391 0.0
H4572 H 0.9351 0.56973 0.72723 0.0
H4573 H 0.95556 0.59029 0.67923 0.0
H4574 H 0.97782 0.60065 0.69553 0.0
H4575 H 0.00958 0.58176 0.80412 0.0
H4576 H 0.00602 0.5976 0.78535 0.0
H4577 H 0.99672 0.56978 0.7392 0.0
H4578 H 0.0001 0.55383 0.75799 0.0
H4579 H 0.9788 0.57789 0.74068 0.0
H4580 H 0.02724 0.60065 0.74297 0.0
H4581 H 0.05028 0.61075 0.75699 0.0
H4582 H 0.04412 0.64073 0.78632 0.0
H4583 H 0.02095 0.63068 0.77268 0.0
C4584 C 0.99306 0.64225 0.70655 0.0
C4585 C 0.9814 0.64221 0.71304 0.0
C4586 C 0.99628 0.63225 0.71207 0.0
C4587 C 0.98788 0.62201 0.72411 0.0
C4588 C 0.9761 0.6218 0.73032 0.0
C4589 C 0.97284 0.63172 0.72475 0.0
C4590 C 0.99181 0.61209 0.73119 0.0
C4591 C 0.00471 0.61741 0.73967 0.0
C4592 C 0.98254 0.5976 0.73098 0.0
C4593 C 0.96919 0.59125 0.721 0.0
C4594 C 0.95701 0.58237 0.72977 0.0
C4595 C 0.94444 0.5765 0.72039 0.0
C4596 C 0.94392 0.57937 0.7022 0.0
C4597 C 0.95598 0.5881 0.69334 0.0
C4598 C 0.96857 0.594 0.70265 0.0
C4599 C 0.00692 0.57911 0.78993 0.0
C4600 C 0.00509 0.56657 0.78251 0.0
C4601 C 0.00491 0.58817 0.7792 0.0
C4602 C 0.00125 0.58494 0.76081 0.0
C4603 C -0.00048 0.57246 0.75336 0.0
C4604 C 0.00142 0.56336 0.76411 0.0
C4605 C 0.99872 0.59436 0.74956 0.0
C4606 C 0.98607 0.58894 0.74034 0.0
C4607 C 0.00836 0.60871 0.74868 0.0
C4608 C 0.02232 0.61484 0.75688 0.0
C4609 C 0.03076 0.60934 0.7525 0.0
C4610 C 0.04385 0.61506 0.76037 0.0
C4611 C 0.04865 0.62636 0.77256 0.0
C4612 C 0.04038 0.63197 0.77688 0.0
C4613 C 0.02728 0.62628 0.76907 0.0
H4614 H 0.05879 0.63078 0.77864 0.0
H4615 H 0.93418 0.57482 0.69496 0.0
H4616 H 0.35289 0.3723 0.70051 0.0
H4617 H 0.36865 0.39708 0.70695 0.0
H4618 H 0.39607 0.38703 0.73521 0.0
H4619 H 0.3807 0.3625 0.72851 0.0
H4620 H 0.37633 0.41081 0.73789 0.0
H4621 H 0.42838 0.41184 0.73315 0.0
H4622 H 0.43866 0.4011 0.71441 0.0
H4623 H 0.41025 0.39428 0.67098 0.0
H4624 H 0.39991 0.40515 0.68934 0.0
H4625 H 0.42709 0.46283 0.79497 0.0
H4626 H 0.41055 0.44174 0.77825 0.0
H4627 H 0.43171 0.45889 0.7289 0.0
H4628 H 0.44848 0.47987 0.74572 0.0
H4629 H 0.42648 0.43383 0.73037 0.0
H4630 H 0.39949 0.45505 0.73746 0.0
H4631 H 0.38893 0.46686 0.75327 0.0
H4632 H 0.36681 0.43139 0.7863 0.0
H4633 H 0.37738 0.41943 0.77087 0.0
C4634 C 0.36238 0.37539 0.70784 0.0
C4635 C 0.3655 0.36536 0.71397 0.0
C4636 C 0.37136 0.38956 0.71158 0.0
C4637 C 0.38362 0.39396 0.72142 0.0
C4638 C 0.38683 0.38397 0.72727 0.0
C4639 C 0.37794 0.36988 0.72349 0.0
C4640 C 0.39278 0.40884 0.72665 0.0
C4641 C 0.38729 0.4159 0.73611 0.0
C4642 C 0.40704 0.41566 0.72391 0.0
C4643 C 0.41332 0.40924 0.71269 0.0
C4644 C 0.42437 0.40812 0.71956 0.0
C4645 C 0.4302 0.40199 0.70901 0.0
C4646 C 0.42509 0.39698 0.69153 0.0
C4647 C 0.41417 0.39812 0.68454 0.0
C4648 C 0.40831 0.40425 0.69503 0.0
C4649 C 0.42809 0.46217 0.78051 0.0
C4650 C 0.43907 0.47298 0.77165 0.0
C4651 C 0.4186 0.45013 0.77093 0.0
C4652 C 0.41975 0.44875 0.75222 0.0
C4653 C 0.4306 0.45967 0.74331 0.0
C4654 C 0.44018 0.47165 0.75293 0.0
C4655 C 0.41011 0.4356 0.74224 0.0
C4656 C 0.41551 0.42886 0.73192 0.0
C4657 C 0.39574 0.42926 0.74375 0.0
C4658 C 0.3893 0.43638 0.75307 0.0
C4659 C 0.39244 0.4498 0.74818 0.0
C4660 C 0.38644 0.45652 0.75706 0.0
C4661 C 0.37722 0.44989 0.7708 0.0
C4662 C 0.37396 0.43651 0.77566 0.0
C4663 C 0.37994 0.42975 0.76683 0.0
H4664 H 0.37259 0.45511 0.77767 0.0
H4665 H 0.42961 0.39223 0.68339 0.0
H4666 H 0.62967 0.99294 0.65312 0.0
H4667 H 0.61144 0.99028 0.67284 0.0
H4668 H 0.63969 0.00486 0.71853 0.0
H4669 H 0.65803 0.00746 0.6989 0.0
H4670 H 0.61453 0.98301 0.727 0.0
H4671 H 0.63233 0.02688 0.69846 0.0
H4672 H 0.6394 0.04271 0.67287 0.0
H4673 H 0.59843 0.02081 0.65067 0.0
H4674 H 0.59116 0.00472 0.67601 0.0
H4675 H 0.57486 0.00033 0.78435 0.0
H4676 H 0.59316 0.00126 0.76612 0.0
H4677 H 0.56645 0.9881 0.71886 0.0
H4678 H 0.54825 0.98758 0.73687 0.0
H4679 H 0.59126 0.00945 0.71177 0.0
H4680 H 0.57348 0.96555 0.74063 0.0
H4681 H 0.56656 0.94997 0.76648 0.0
H4682 H 0.60759 0.9722 0.78843 0.0
H4683 H 0.61472 0.98804 0.76282 0.0
C4684 C 0.632 0.99546 0.66739 0.0
C4685 C 0.64533 0.00054 0.67441 0.0
C4686 C 0.62157 0.99397 0.67863 0.0
C4687 C 0.62428 0.9976 0.69708 0.0
C4688 C 0.63742 0.00207 0.70431 0.0
C4689 C 0.64788 0.00356 0.69306 0.0
C4690 C 0.61353 0.99727 0.70861 0.0
C4691 C 0.60955 0.98891 0.72382 0.0
C4692 C 0.60691 0.00483 0.70427 0.0
C4693 C 0.61124 0.01451 0.68904 0.0
C4694 C 0.62486 0.02537 0.68804 0.0
C4695 C 0.62889 0.0344 0.6736 0.0
C4696 C 0.61938 0.03274 0.66013 0.0
C4697 C 0.6058 0.02207 0.6611 0.0
C4698 C 0.60171 0.013 0.67551 0.0
C4699 C 0.57292 0.99774 0.77005 0.0
C4700 C 0.5601 0.99386 0.76205 0.0
C4701 C 0.58334 0.99814 0.75969 0.0
C4702 C 0.58111 0.99459 0.74118 0.0
C4703 C 0.56836 0.99082 0.73314 0.0
C4704 C 0.55794 0.99042 0.74348 0.0
C4705 C 0.59213 0.99507 0.73007 0.0
C4706 C 0.59621 0.00352 0.71496 0.0
C4707 C 0.59885 0.98762 0.73455 0.0
C4708 C 0.5946 0.97806 0.7499 0.0
C4709 C 0.581 0.96718 0.75104 0.0
C4710 C 0.57705 0.95829 0.76564 0.0
C4711 C 0.58662 0.96012 0.77911 0.0
C4712 C 0.60018 0.97081 0.77799 0.0
C4713 C 0.60419 0.97974 0.76343 0.0
H4714 H 0.58354 0.95323 0.7904 0.0
H4715 H 0.62252 0.03975 0.64896 0.0
loop_
_geom_bond_atom_site_label_1
_geom_bond_atom_site_label_2
_geom_bond_distance
_geom_bond_site_symmetry_2
_ccdc_geom_bond_type
Mg0 O1 2.028 1_556 S
Mg0 O7 1.986 1_455 S
Mg0 O9 2.114 . S
Mg0 O10 2.238 1_455 S
Mg0 O13 2.010 1_556 S
O1 Mg0 2.028 1_554 S
O1 C4 1.250 1_455 S
O2 Mg3 2.028 1_554 S
O2 C4 1.248 . S
Mg3 O2 2.028 1_556 S
Mg3 O8 2.032 . S
Mg3 O10 2.096 . S
C4 O1 1.250 1_655 S
C4 O2 1.248 . S
C5 O6 1.264 . S
C5 O13 1.249 . S
O6 C5 1.264 . S
O7 Mg0 1.986 1_655 S
O7 C11 1.246 . S
O8 Mg3 2.032 . S
O8 C11 1.259 . S
O9 Mg0 2.114 . S
O9 C12 1.252 . S
O10 Mg0 2.238 1_655 S
O10 Mg3 2.096 . S
O10 C12 1.260 1_655 S
C11 O7 1.246 . S
C11 O8 1.259 . S
C12 O9 1.252 . S
C12 O10 1.260 1_455 S
O13 Mg0 2.010 1_554 S
O13 C5 1.249 . S
Mg14 O15 2.028 1_554 S
Mg14 O21 1.986 . S
Mg14 O23 2.114 . S
Mg14 O24 2.251 . S
Mg14 O27 2.010 . S
O15 Mg14 2.028 1_556 S
O15 C18 1.250 . S
O16 Mg17 2.028 . S
O16 C18 1.248 1_554 S
Mg17 O16 2.028 . S
Mg17 O22 2.032 . S
Mg17 O24 2.079 . S
C18 O15 1.250 . S
C18 O16 1.248 1_556 S
C19 O20 1.264 . S
C19 O27 1.249 . S
O20 C19 1.264 . S
O21 Mg14 1.986 . S
O21 C25 1.246 . S
O22 Mg17 2.032 . S
O22 C25 1.259 . S
O23 Mg14 2.114 . S
O23 C26 1.252 . S
O24 Mg14 2.251 . S
O24 Mg17 2.079 . S
O24 C26 1.273 . S
C25 O21 1.246 . S
C25 O22 1.259 . S
C26 O23 1.252 . S
C26 O24 1.273 . S
O27 Mg14 2.010 . S
O27 C19 1.249 . S
Mg28 O29 2.032 1_566 S
Mg28 O35 1.986 1_565 S
Mg28 O37 2.114 . S
Mg28 O38 2.251 1_565 S
Mg28 O41 2.010 1_556 S
O29 Mg28 2.032 1_544 S
O29 C32 1.257 . S
O30 Mg31 2.028 1_554 S
O30 C32 1.248 . S
Mg31 O30 2.028 1_556 S
Mg31 O36 2.032 . S
Mg31 O38 2.079 . S
C32 O29 1.257 . S
C32 O30 1.248 . S
C33 O34 1.264 . S
C33 O41 1.249 . S
O34 C33 1.264 . S
O35 Mg28 1.986 1_545 S
O35 C39 1.248 . S
O36 Mg31 2.032 . S
O36 C39 1.259 . S
O37 Mg28 2.114 . S
O37 C40 1.252 . S
O38 Mg28 2.251 1_545 S
O38 Mg31 2.079 . S
O38 C40 1.273 1_545 S
C39 O35 1.248 . S
C39 O36 1.259 . S
C40 O37 1.252 . S
C40 O38 1.273 1_565 S
O41 Mg28 2.010 1_554 S
O41 C33 1.249 . S
Mg42 O43 2.028 1_654 S
Mg42 O49 1.986 1_655 S
Mg42 O51 2.114 . S
Mg42 O52 2.251 1_655 S
Mg42 O55 2.010 . S
O43 Mg42 2.028 1_456 S
O43 C46 1.251 . S
O44 Mg45 2.038 . S
O44 C46 1.242 1_554 S
Mg45 O44 2.038 . S
Mg45 O50 2.032 . S
Mg45 O52 2.079 . S
C46 O43 1.251 . S
C46 O44 1.242 1_556 S
C47 O48 1.264 . S
C47 O55 1.249 . S
O48 C47 1.264 . S
O49 Mg42 1.986 1_455 S
O49 C53 1.246 . S
O50 Mg45 2.032 . S
O50 C53 1.259 . S
O51 Mg42 2.114 . S
O51 C54 1.252 . S
O52 Mg42 2.251 1_455 S
O52 Mg45 2.079 . S
O52 C54 1.273 1_455 S
C53 O49 1.246 . S
C53 O50 1.259 . S
C54 O51 1.252 . S
C54 O52 1.273 1_655 S
O55 Mg42 2.010 . S
O55 C47 1.249 . S
Mg56 O57 2.027 . S
Mg56 O63 1.986 1_554 S
Mg56 O65 2.114 1_554 S
Mg56 O66 2.252 1_554 S
Mg56 O69 2.010 . S
O57 Mg56 2.027 . S
O57 C60 1.250 . S
O58 Mg59 2.028 1_554 S
O58 C60 1.248 . S
Mg59 O58 2.028 1_556 S
Mg59 O64 2.032 . S
Mg59 O66 2.079 . S
C60 O57 1.250 . S
C60 O58 1.248 . S
C61 O62 1.264 . S
C61 O69 1.249 . S
O62 C61 1.264 . S
O63 Mg56 1.986 1_556 S
O63 C67 1.262 . S
O64 Mg59 2.032 . S
O64 C67 1.259 . S
O65 Mg56 2.114 1_556 S
O65 C68 1.252 . S
O66 Mg56 2.252 1_556 S
O66 Mg59 2.079 . S
O66 C68 1.273 . S
C67 O63 1.262 . S
C67 O64 1.259 . S
C68 O65 1.252 . S
C68 O66 1.273 . S
O69 Mg56 2.010 . S
O69 C61 1.249 . S
Mg70 O71 2.028 1_554 S
Mg70 O77 1.986 1_545 S
Mg70 O79 2.114 . S
Mg70 O80 2.251 1_545 S
Mg70 O83 2.010 . S
O71 Mg70 2.028 1_556 S
O71 C74 1.250 1_545 S
O72 Mg73 2.028 . S
O72 C74 1.248 1_554 S
Mg73 O72 2.028 . S
Mg73 O78 2.032 . S
Mg73 O80 2.079 . S
C74 O71 1.250 1_565 S
C74 O72 1.248 1_556 S
C75 O76 1.264 . S
C75 O83 1.249 . S
O76 C75 1.264 . S
O77 Mg70 1.986 1_565 S
O77 C81 1.246 . S
O78 Mg73 2.032 . S
O78 C81 1.259 . S
O79 Mg70 2.114 . S
O79 C82 1.252 . S
O80 Mg70 2.251 1_565 S
O80 Mg73 2.079 . S
O80 C82 1.273 1_565 S
C81 O77 1.246 . S
C81 O78 1.259 . S
C82 O79 1.252 . S
C82 O80 1.273 1_545 S
O83 Mg70 2.010 . S
O83 C75 1.249 . S
Mg84 O85 2.028 . S
Mg84 O91 1.986 . S
Mg84 O93 2.114 . S
Mg84 O94 2.251 . S
Mg84 O97 2.010 . S
O85 Mg84 2.028 . S
O85 C88 1.250 . S
O86 Mg87 2.028 . S
O86 C88 1.248 . S
Mg87 O86 2.028 . S
Mg87 O92 2.032 . S
Mg87 O94 2.079 . S
C88 O85 1.250 . S
C88 O86 1.248 . S
C89 O90 1.264 . S
C89 O97 1.249 . S
O90 C89 1.264 . S
O91 Mg84 1.986 . S
O91 C95 1.246 . S
O92 Mg87 2.032 . S
O92 C95 1.259 . S
O93 Mg84 2.114 . S
O93 C96 1.252 . S
O94 Mg84 2.251 . S
O94 Mg87 2.079 . S
O94 C96 1.273 . S
C95 O91 1.246 . S
C95 O92 1.259 . S
C96 O93 1.252 . S
C96 O94 1.273 . S
O97 Mg84 2.010 . S
O97 C89 1.249 . S
Mg98 O99 2.028 . S
Mg98 O105 1.986 1_565 S
Mg98 O107 2.114 . S
Mg98 O108 2.251 . S
Mg98 O111 2.010 . S
O99 Mg98 2.028 . S
O99 C102 1.250 . S
O100 Mg101 2.028 . S
O100 C102 1.248 . S
Mg101 O100 2.028 . S
Mg101 O106 2.032 1_565 S
Mg101 O108 2.079 . S
C102 O99 1.250 . S
C102 O100 1.248 . S
C103 O104 1.264 . S
C103 O111 1.249 . S
O104 C103 1.264 . S
O105 Mg98 1.986 1_545 S
O105 C109 1.246 . S
O106 Mg101 2.032 1_545 S
O106 C109 1.259 . S
O107 Mg98 2.114 . S
O107 C110 1.252 . S
O108 Mg98 2.251 . S
O108 Mg101 2.079 . S
O108 C110 1.273 . S
C109 O105 1.246 . S
C109 O106 1.259 . S
C110 O107 1.252 . S
C110 O108 1.273 . S
O111 Mg98 2.010 . S
O111 C103 1.249 . S
Mg112 O113 2.028 . S
Mg112 O119 1.986 . S
Mg112 O121 2.114 . S
Mg112 O122 2.251 . S
Mg112 O125 2.010 1_455 S
O113 Mg112 2.028 . S
O113 C116 1.250 . S
O114 Mg115 2.028 . S
O114 C116 1.248 . S
Mg115 O114 2.028 . S
Mg115 O120 2.032 . S
Mg115 O122 2.079 . S
C116 O113 1.250 . S
C116 O114 1.248 . S
C117 O118 1.264 . S
C117 O125 1.249 . S
O118 C117 1.264 . S
O119 Mg112 1.986 . S
O119 C123 1.246 . S
O120 Mg115 2.032 . S
O120 C123 1.259 . S
O121 Mg112 2.114 . S
O121 C124 1.252 . S
O122 Mg112 2.251 . S
O122 Mg115 2.079 . S
O122 C124 1.273 . S
C123 O119 1.246 . S
C123 O120 1.259 . S
C124 O121 1.252 . S
C124 O122 1.273 . S
O125 Mg112 2.010 1_655 S
O125 C117 1.249 . S
Mg126 O127 2.028 . S
Mg126 O133 1.986 1_565 S
Mg126 O135 2.114 . S
Mg126 O136 2.251 . S
Mg126 O139 2.010 . S
O127 Mg126 2.028 . S
O127 C130 1.250 . S
O128 Mg129 2.028 . S
O128 C130 1.248 . S
Mg129 O128 2.028 . S
Mg129 O134 2.053 . S
Mg129 O136 2.079 . S
C130 O127 1.250 . S
C130 O128 1.248 . S
C131 O132 1.264 . S
C131 O139 1.249 . S
O132 C131 1.264 . S
O133 Mg126 1.986 1_545 S
O133 C137 1.246 . S
O134 Mg129 2.053 . S
O134 C137 1.240 1_565 S
O135 Mg126 2.114 . S
O135 C138 1.252 . S
O136 Mg126 2.251 . S
O136 Mg129 2.079 . S
O136 C138 1.273 . S
C137 O133 1.246 . S
C137 O134 1.240 1_545 S
C138 O135 1.252 . S
C138 O136 1.273 . S
O139 Mg126 2.010 . S
O139 C131 1.249 . S
Mg140 O141 2.028 . S
Mg140 O147 1.986 . S
Mg140 O149 2.114 . S
Mg140 O150 2.251 . S
Mg140 O153 2.010 1_455 S
O141 Mg140 2.028 . S
O141 C144 1.250 . S
O142 Mg143 2.028 . S
O142 C144 1.248 . S
Mg143 O142 2.028 . S
Mg143 O148 2.032 . S
Mg143 O150 2.079 . S
C144 O141 1.250 . S
C144 O142 1.248 . S
C145 O146 1.264 . S
C145 O153 1.249 . S
O146 C145 1.264 . S
O147 Mg140 1.986 . S
O147 C151 1.246 . S
O148 Mg143 2.032 . S
O148 C151 1.259 . S
O149 Mg140 2.114 . S
O149 C152 1.252 . S
O150 Mg140 2.251 . S
O150 Mg143 2.079 . S
O150 C152 1.273 . S
C151 O147 1.246 . S
C151 O148 1.259 . S
C152 O149 1.252 . S
C152 O150 1.273 . S
O153 Mg140 2.010 1_655 S
O153 C145 1.249 . S
Mg154 O155 2.028 . S
Mg154 O161 1.986 . S
Mg154 O163 2.114 . S
Mg154 O164 2.251 . S
Mg154 O167 2.010 . S
O155 Mg154 2.028 . S
O155 C158 1.250 . S
O156 Mg157 2.028 . S
O156 C158 1.248 . S
Mg157 O156 2.028 . S
Mg157 O162 2.032 . S
Mg157 O164 2.079 . S
C158 O155 1.250 . S
C158 O156 1.248 . S
C159 O160 1.264 . S
C159 O167 1.249 . S
O160 C159 1.264 . S
O161 Mg154 1.986 . S
O161 C165 1.246 . S
O162 Mg157 2.032 . S
O162 C165 1.259 . S
O163 Mg154 2.114 . S
O163 C166 1.252 . S
O164 Mg154 2.251 . S
O164 Mg157 2.079 . S
O164 C166 1.273 . S
C165 O161 1.246 . S
C165 O162 1.259 . S
C166 O163 1.252 . S
C166 O164 1.273 . S
O167 Mg154 2.010 . S
O167 C159 1.249 . S
Mg168 O169 2.028 . S
Mg168 O175 1.992 1_545 S
Mg168 O177 2.114 . S
Mg168 O178 2.251 . S
Mg168 O181 2.010 . S
O169 Mg168 2.028 . S
O169 C172 1.250 . S
O170 Mg171 2.028 . S
O170 C172 1.248 . S
Mg171 O170 2.028 . S
Mg171 O176 2.032 . S
Mg171 O178 2.079 . S
C172 O169 1.250 . S
C172 O170 1.248 . S
C173 O174 1.264 . S
C173 O181 1.249 . S
O174 C173 1.264 . S
O175 Mg168 1.992 1_565 S
O175 C179 1.247 . S
O176 Mg171 2.032 . S
O176 C179 1.259 1_545 S
O177 Mg168 2.114 . S
O177 C180 1.252 . S
O178 Mg168 2.251 . S
O178 Mg171 2.079 . S
O178 C180 1.273 . S
C179 O175 1.247 . S
C179 O176 1.259 1_565 S
C180 O177 1.252 . S
C180 O178 1.273 . S
O181 Mg168 2.010 . S
O181 C173 1.249 . S
Mg182 O183 2.028 . S
Mg182 O189 1.986 . S
Mg182 O191 2.114 . S
Mg182 O192 2.251 . S
Mg182 O195 2.010 1_655 S
O183 Mg182 2.028 . S
O183 C186 1.250 . S
O184 Mg185 2.028 . S
O184 C186 1.248 . S
Mg185 O184 2.028 . S
Mg185 O190 2.032 . S
Mg185 O192 2.079 . S
C186 O183 1.250 . S
C186 O184 1.248 . S
C187 O188 1.264 . S
C187 O195 1.249 . S
O188 C187 1.264 . S
O189 Mg182 1.986 . S
O189 C193 1.246 . S
O190 Mg185 2.032 . S
O190 C193 1.259 . S
O191 Mg182 2.114 . S
O191 C194 1.252 . S
O192 Mg182 2.251 . S
O192 Mg185 2.079 . S
O192 C194 1.273 . S
C193 O189 1.246 . S
C193 O190 1.259 . S
C194 O191 1.252 . S
C194 O192 1.273 . S
O195 Mg182 2.010 1_455 S
O195 C187 1.249 . S
Mg196 O197 2.028 . S
Mg196 O203 1.986 . S
Mg196 O205 2.114 . S
Mg196 O206 2.251 . S
Mg196 O209 2.010 . S
O197 Mg196 2.028 . S
O197 C200 1.250 . S
O198 Mg199 2.028 . S
O198 C200 1.248 . S
Mg199 O198 2.028 . S
Mg199 O204 2.032 . S
Mg199 O206 2.079 . S
C200 O197 1.250 . S
C200 O198 1.248 . S
C201 O202 1.264 . S
C201 O209 1.249 . S
O202 C201 1.264 . S
O203 Mg196 1.986 . S
O203 C207 1.246 . S
O204 Mg199 2.032 . S
O204 C207 1.259 . S
O205 Mg196 2.114 . S
O205 C208 1.252 . S
O206 Mg196 2.251 . S
O206 Mg199 2.079 . S
O206 C208 1.273 . S
C207 O203 1.246 . S
C207 O204 1.259 . S
C208 O205 1.252 . S
C208 O206 1.273 . S
O209 Mg196 2.010 . S
O209 C201 1.249 . S
Mg210 O211 2.028 . S
Mg210 O217 1.986 . S
Mg210 O219 2.114 . S
Mg210 O220 2.251 . S
Mg210 O223 2.010 . S
O211 Mg210 2.028 . S
O211 C214 1.250 . S
O212 Mg213 2.028 . S
O212 C214 1.248 . S
Mg213 O212 2.028 . S
Mg213 O218 2.032 . S
Mg213 O220 2.079 . S
C214 O211 1.250 . S
C214 O212 1.248 . S
C215 O216 1.264 . S
C215 O223 1.249 . S
O216 C215 1.264 . S
O217 Mg210 1.986 . S
O217 C221 1.246 . S
O218 Mg213 2.032 . S
O218 C221 1.259 . S
O219 Mg210 2.114 . S
O219 C222 1.252 . S
O220 Mg210 2.251 . S
O220 Mg213 2.079 . S
O220 C222 1.273 . S
C221 O217 1.246 . S
C221 O218 1.259 . S
C222 O219 1.252 . S
C222 O220 1.273 . S
O223 Mg210 2.010 . S
O223 C215 1.249 . S
Mg224 O225 2.028 . S
Mg224 O231 1.986 1_545 S
Mg224 O233 2.114 . S
Mg224 O234 2.251 . S
Mg224 O237 2.010 . S
O225 Mg224 2.028 . S
O225 C228 1.250 . S
O226 Mg227 2.028 . S
O226 C228 1.248 . S
Mg227 O226 2.028 . S
Mg227 O232 1.999 1_545 S
Mg227 O234 2.079 . S
C228 O225 1.250 . S
C228 O226 1.248 . S
C229 O230 1.264 . S
C229 O237 1.249 . S
O230 C229 1.264 . S
O231 Mg224 1.986 1_565 S
O231 C235 1.246 . S
O232 Mg227 1.999 1_565 S
O232 C235 1.263 . S
O233 Mg224 2.114 . S
O233 C236 1.252 . S
O234 Mg224 2.251 . S
O234 Mg227 2.079 . S
O234 C236 1.273 . S
C235 O231 1.246 . S
C235 O232 1.263 . S
C236 O233 1.252 . S
C236 O234 1.273 . S
O237 Mg224 2.010 . S
O237 C229 1.249 . S
Mg238 O239 2.028 . S
Mg238 O245 1.986 . S
Mg238 O247 2.114 . S
Mg238 O248 2.251 . S
Mg238 O251 2.010 1_655 S
O239 Mg238 2.028 . S
O239 C242 1.250 . S
O240 Mg241 2.028 . S
O240 C242 1.248 . S
Mg241 O240 2.028 . S
Mg241 O246 2.032 . S
Mg241 O248 2.079 . S
C242 O239 1.250 . S
C242 O240 1.248 . S
C243 O244 1.264 . S
C243 O251 1.249 . S
O244 C243 1.264 . S
O245 Mg238 1.986 . S
O245 C249 1.246 . S
O246 Mg241 2.032 . S
O246 C249 1.259 . S
O247 Mg238 2.114 . S
O247 C250 1.252 . S
O248 Mg238 2.251 . S
O248 Mg241 2.079 . S
O248 C250 1.273 . S
C249 O245 1.246 . S
C249 O246 1.259 . S
C250 O247 1.252 . S
C250 O248 1.273 . S
O251 Mg238 2.010 1_455 S
O251 C243 1.249 . S
H252 C271 0.949 . S
H253 C272 0.950 . S
H254 C274 0.950 . S
H255 C275 0.950 . S
H256 C277 0.950 . S
H257 C280 0.950 . S
H258 C281 0.950 . S
H259 C283 0.951 . S
H260 C284 0.949 . S
H261 C286 0.949 . S
H262 C287 0.950 . S
H263 C289 0.950 . S
H264 C290 0.950 . S
H265 C292 0.950 . S
H266 C295 0.950 . S
H267 C296 0.950 . S
H268 C298 0.951 . S
H269 C299 0.949 . S
C270 C271 1.376 . S
C270 C275 1.386 . S
C270 C276 1.483 . S
C271 H252 0.949 . S
C271 C270 1.376 . S
C271 C272 1.397 . S
C272 H253 0.950 . S
C272 C271 1.397 . S
C272 C273 1.391 . S
C273 C272 1.391 . S
C273 C274 1.405 . S
C274 H254 0.950 . S
C274 C273 1.405 . S
C274 C275 1.367 . S
C275 H255 0.950 . S
C275 C270 1.386 . S
C275 C274 1.367 . S
C276 C270 1.483 . S
C276 C277 1.382 . S
C276 C278 1.403 . S
C277 H256 0.950 . S
C277 C276 1.382 . S
C277 C293 1.411 . S
C278 C276 1.403 . S
C278 C279 1.489 . S
C278 C292 1.411 . S
C279 C278 1.489 . S
C279 C280 1.383 . S
C279 C284 1.382 . S
C280 H257 0.950 . S
C280 C279 1.383 . S
C280 C281 1.395 . S
C281 H258 0.950 . S
C281 C280 1.395 . S
C281 C282 1.288 . S
C282 C281 1.288 . S
C282 C283 1.392 . S
C283 H259 0.951 . S
C283 C282 1.392 . S
C283 C284 1.392 . S
C284 H260 0.949 . S
C284 C279 1.382 . S
C284 C283 1.392 . S
C285 C286 1.376 . S
C285 C290 1.386 . S
C285 C291 1.483 . S
C286 H261 0.949 . S
C286 C285 1.376 . S
C286 C287 1.397 . S
C287 H262 0.950 . S
C287 C286 1.397 . S
C287 C288 1.391 . S
C288 C287 1.391 . S
C288 C289 1.405 . S
C289 H263 0.950 . S
C289 C288 1.405 . S
C289 C290 1.367 . S
C290 H264 0.950 . S
C290 C285 1.386 . S
C290 C289 1.367 . S
C291 C285 1.483 . S
C291 C292 1.382 . S
C291 C293 1.403 . S
C292 H265 0.950 . S
C292 C278 1.411 . S
C292 C291 1.382 . S
C293 C277 1.411 . S
C293 C291 1.403 . S
C293 C294 1.489 . S
C294 C293 1.489 . S
C294 C295 1.383 . S
C294 C299 1.382 . S
C295 H266 0.950 . S
C295 C294 1.383 . S
C295 C296 1.395 . S
C296 H267 0.950 . S
C296 C295 1.395 . S
C296 C297 1.288 . S
C297 C296 1.288 . S
C297 C298 1.392 . S
C298 H268 0.951 . S
C298 C297 1.392 . S
C298 C299 1.392 . S
C299 H269 0.949 . S
C299 C294 1.382 . S
C299 C298 1.392 . S
H300 C319 0.949 . S
H301 C320 0.950 . S
H302 C322 0.950 . S
H303 C323 0.950 . S
H304 C325 0.950 . S
H305 C328 0.950 . S
H306 C329 0.950 . S
H307 C331 0.951 . S
H308 C332 0.949 . S
H309 C334 0.949 . S
H310 C335 0.950 . S
H311 C337 0.950 . S
H312 C338 0.950 . S
H313 C340 0.950 . S
H314 C343 0.950 . S
H315 C344 0.950 . S
H316 C346 0.951 . S
H317 C347 0.949 . S
C318 C319 1.376 . S
C318 C323 1.386 . S
C318 C324 1.483 . S
C319 H300 0.949 . S
C319 C318 1.376 . S
C319 C320 1.397 . S
C320 H301 0.950 . S
C320 C319 1.397 . S
C320 C321 1.391 . S
C321 C320 1.391 . S
C321 C322 1.405 . S
C322 H302 0.950 . S
C322 C321 1.405 . S
C322 C323 1.367 . S
C323 H303 0.950 . S
C323 C318 1.386 . S
C323 C322 1.367 . S
C324 C318 1.483 . S
C324 C325 1.382 . S
C324 C326 1.403 . S
C325 H304 0.950 . S
C325 C324 1.382 . S
C325 C341 1.411 . S
C326 C324 1.403 . S
C326 C327 1.489 . S
C326 C340 1.411 . S
C327 C326 1.489 . S
C327 C328 1.383 . S
C327 C332 1.382 . S
C328 H305 0.950 . S
C328 C327 1.383 . S
C328 C329 1.395 . S
C329 H306 0.950 . S
C329 C328 1.395 . S
C329 C330 1.288 . S
C330 C329 1.288 . S
C330 C331 1.392 . S
C331 H307 0.951 . S
C331 C330 1.392 . S
C331 C332 1.392 . S
C332 H308 0.949 . S
C332 C327 1.382 . S
C332 C331 1.392 . S
C333 C334 1.376 . S
C333 C338 1.386 . S
C333 C339 1.483 . S
C334 H309 0.949 . S
C334 C333 1.376 . S
C334 C335 1.397 . S
C335 H310 0.950 . S
C335 C334 1.397 . S
C335 C336 1.391 . S
C336 C335 1.391 . S
C336 C337 1.405 . S
C337 H311 0.950 . S
C337 C336 1.405 . S
C337 C338 1.367 . S
C338 H312 0.950 . S
C338 C333 1.386 . S
C338 C337 1.367 . S
C339 C333 1.483 . S
C339 C340 1.382 . S
C339 C341 1.403 . S
C340 H313 0.950 . S
C340 C326 1.411 . S
C340 C339 1.382 . S
C341 C325 1.411 . S
C341 C339 1.403 . S
C341 C342 1.489 . S
C342 C341 1.489 . S
C342 C343 1.383 . S
C342 C347 1.382 . S
C343 H314 0.950 . S
C343 C342 1.383 . S
C343 C344 1.395 . S
C344 H315 0.950 . S
C344 C343 1.395 . S
C344 C345 1.288 . S
C345 C344 1.288 . S
C345 C346 1.392 . S
C346 H316 0.951 . S
C346 C345 1.392 . S
C346 C347 1.392 . S
C347 H317 0.949 . S
C347 C342 1.382 . S
C347 C346 1.392 . S
H348 C367 0.949 . S
H349 C368 0.950 . S
H350 C370 0.950 . S
H351 C371 0.950 . S
H352 C373 0.950 . S
H353 C376 0.950 . S
H354 C377 0.950 . S
H355 C379 0.951 . S
H356 C380 0.949 . S
H357 C382 0.949 . S
H358 C383 0.950 . S
H359 C385 0.950 . S
H360 C386 0.950 . S
H361 C388 0.950 . S
H362 C391 0.950 . S
H363 C392 0.950 . S
H364 C394 0.951 . S
H365 C395 0.949 . S
C366 C367 1.376 . S
C366 C371 1.386 . S
C366 C372 1.483 . S
C367 H348 0.949 . S
C367 C366 1.376 . S
C367 C368 1.397 . S
C368 H349 0.950 . S
C368 C367 1.397 . S
C368 C369 1.391 . S
C369 C368 1.391 . S
C369 C370 1.405 . S
C370 H350 0.950 . S
C370 C369 1.405 . S
C370 C371 1.367 . S
C371 H351 0.950 . S
C371 C366 1.386 . S
C371 C370 1.367 . S
C372 C366 1.483 . S
C372 C373 1.382 . S
C372 C374 1.403 . S
C373 H352 0.950 . S
C373 C372 1.382 . S
C373 C389 1.411 . S
C374 C372 1.403 . S
C374 C375 1.489 . S
C374 C388 1.411 . S
C375 C374 1.489 . S
C375 C376 1.383 . S
C375 C380 1.382 . S
C376 H353 0.950 . S
C376 C375 1.383 . S
C376 C377 1.395 . S
C377 H354 0.950 . S
C377 C376 1.395 . S
C377 C378 1.288 . S
C378 C377 1.288 . S
C378 C379 1.392 . S
C379 H355 0.951 . S
C379 C378 1.392 . S
C379 C380 1.392 . S
C380 H356 0.949 . S
C380 C375 1.382 . S
C380 C379 1.392 . S
C381 C382 1.376 . S
C381 C386 1.386 . S
C381 C387 1.483 . S
C382 H357 0.949 . S
C382 C381 1.376 . S
C382 C383 1.397 . S
C383 H358 0.950 . S
C383 C382 1.397 . S
C383 C384 1.391 . S
C384 C383 1.391 . S
C384 C385 1.405 . S
C385 H359 0.950 . S
C385 C384 1.405 . S
C385 C386 1.367 . S
C386 H360 0.950 . S
C386 C381 1.386 . S
C386 C385 1.367 . S
C387 C381 1.483 . S
C387 C388 1.382 . S
C387 C389 1.403 . S
C388 H361 0.950 . S
C388 C374 1.411 . S
C388 C387 1.382 . S
C389 C373 1.411 . S
C389 C387 1.403 . S
C389 C390 1.489 . S
C390 C389 1.489 . S
C390 C391 1.383 . S
C390 C395 1.382 . S
C391 H362 0.950 . S
C391 C390 1.383 . S
C391 C392 1.395 . S
C392 H363 0.950 . S
C392 C391 1.395 . S
C392 C393 1.288 . S
C393 C392 1.288 . S
C393 C394 1.392 . S
C394 H364 0.951 . S
C394 C393 1.392 . S
C394 C395 1.392 . S
C395 H365 0.949 . S
C395 C390 1.382 . S
C395 C394 1.392 . S
H396 C415 0.949 . S
H397 C416 0.950 . S
H398 C418 0.950 . S
H399 C419 0.950 . S
H400 C421 0.950 . S
H401 C424 0.950 . S
H402 C425 0.950 . S
H403 C427 0.951 . S
H404 C428 0.949 . S
H405 C430 0.949 . S
H406 C431 0.950 . S
H407 C433 0.950 . S
H408 C434 0.950 . S
H409 C436 0.950 . S
H410 C439 0.950 . S
H411 C440 0.950 . S
H412 C442 0.951 . S
H413 C443 0.949 . S
C414 C415 1.376 . S
C414 C419 1.386 . S
C414 C420 1.483 . S
C415 H396 0.949 . S
C415 C414 1.376 . S
C415 C416 1.397 . S
C416 H397 0.950 . S
C416 C415 1.397 . S
C416 C417 1.391 . S
C417 C416 1.391 . S
C417 C418 1.405 . S
C418 H398 0.950 . S
C418 C417 1.405 . S
C418 C419 1.367 . S
C419 H399 0.950 . S
C419 C414 1.386 . S
C419 C418 1.367 . S
C420 C414 1.483 . S
C420 C421 1.382 . S
C420 C422 1.403 . S
C421 H400 0.950 . S
C421 C420 1.382 . S
C421 C437 1.411 . S
C422 C420 1.403 . S
C422 C423 1.489 . S
C422 C436 1.411 . S
C423 C422 1.489 . S
C423 C424 1.383 . S
C423 C428 1.382 . S
C424 H401 0.950 . S
C424 C423 1.383 . S
C424 C425 1.395 . S
C425 H402 0.950 . S
C425 C424 1.395 . S
C425 C426 1.288 . S
C426 C425 1.288 . S
C426 C427 1.392 . S
C427 H403 0.951 . S
C427 C426 1.392 . S
C427 C428 1.392 . S
C428 H404 0.949 . S
C428 C423 1.382 . S
C428 C427 1.392 . S
C429 C430 1.376 . S
C429 C434 1.386 . S
C429 C435 1.483 . S
C430 H405 0.949 . S
C430 C429 1.376 . S
C430 C431 1.397 . S
C431 H406 0.950 . S
C431 C430 1.397 . S
C431 C432 1.391 . S
C432 C431 1.391 . S
C432 C433 1.405 . S
C433 H407 0.950 . S
C433 C432 1.405 . S
C433 C434 1.367 . S
C434 H408 0.950 . S
C434 C429 1.386 . S
C434 C433 1.367 . S
C435 C429 1.483 . S
C435 C436 1.382 . S
C435 C437 1.403 . S
C436 H409 0.950 . S
C436 C422 1.411 . S
C436 C435 1.382 . S
C437 C421 1.411 . S
C437 C435 1.403 . S
C437 C438 1.489 . S
C438 C437 1.489 . S
C438 C439 1.383 . S
C438 C443 1.382 . S
C439 H410 0.950 . S
C439 C438 1.383 . S
C439 C440 1.395 . S
C440 H411 0.950 . S
C440 C439 1.395 . S
C440 C441 1.288 . S
C441 C440 1.288 . S
C441 C442 1.392 . S
C442 H412 0.951 . S
C442 C441 1.392 . S
C442 C443 1.392 . S
C443 H413 0.949 . S
C443 C438 1.382 . S
C443 C442 1.392 . S
H444 C463 0.949 . S
H445 C464 0.950 . S
H446 C466 0.950 . S
H447 C467 0.950 . S
H448 C469 0.950 . S
H449 C472 0.950 . S
H450 C473 0.950 . S
H451 C475 0.951 . S
H452 C476 0.949 . S
H453 C478 0.949 . S
H454 C479 0.950 . S
H455 C481 0.950 . S
H456 C482 0.950 . S
H457 C484 0.950 . S
H458 C487 0.950 . S
H459 C488 0.950 . S
H460 C490 0.951 . S
H461 C491 0.949 . S
C462 C463 1.376 . S
C462 C467 1.386 . S
C462 C468 1.483 . S
C463 H444 0.949 . S
C463 C462 1.376 . S
C463 C464 1.397 . S
C464 H445 0.950 . S
C464 C463 1.397 . S
C464 C465 1.391 . S
C465 C464 1.391 . S
C465 C466 1.405 . S
C466 H446 0.950 . S
C466 C465 1.405 . S
C466 C467 1.367 . S
C467 H447 0.950 . S
C467 C462 1.386 . S
C467 C466 1.367 . S
C468 C462 1.483 . S
C468 C469 1.382 . S
C468 C470 1.403 . S
C469 H448 0.950 . S
C469 C468 1.382 . S
C469 C485 1.411 . S
C470 C468 1.403 . S
C470 C471 1.489 . S
C470 C484 1.411 . S
C471 C470 1.489 . S
C471 C472 1.383 . S
C471 C476 1.382 . S
C472 H449 0.950 . S
C472 C471 1.383 . S
C472 C473 1.395 . S
C473 H450 0.950 . S
C473 C472 1.395 . S
C473 C474 1.288 . S
C474 C473 1.288 . S
C474 C475 1.392 . S
C475 H451 0.951 . S
C475 C474 1.392 . S
C475 C476 1.392 . S
C476 H452 0.949 . S
C476 C471 1.382 . S
C476 C475 1.392 . S
C477 C478 1.376 . S
C477 C482 1.386 . S
C477 C483 1.483 . S
C478 H453 0.949 . S
C478 C477 1.376 . S
C478 C479 1.397 . S
C479 H454 0.950 . S
C479 C478 1.397 . S
C479 C480 1.391 . S
C480 C479 1.391 . S
C480 C481 1.405 . S
C481 H455 0.950 . S
C481 C480 1.405 . S
C481 C482 1.367 . S
C482 H456 0.950 . S
C482 C477 1.386 . S
C482 C481 1.367 . S
C483 C477 1.483 . S
C483 C484 1.382 . S
C483 C485 1.403 . S
C484 H457 0.950 . S
C484 C470 1.411 . S
C484 C483 1.382 . S
C485 C469 1.411 . S
C485 C483 1.403 . S
C485 C486 1.489 . S
C486 C485 1.489 . S
C486 C487 1.383 . S
C486 C491 1.382 . S
C487 H458 0.950 . S
C487 C486 1.383 . S
C487 C488 1.395 . S
C488 H459 0.950 . S
C488 C487 1.395 . S
C488 C489 1.288 . S
C489 C488 1.288 . S
C489 C490 1.392 . S
C490 H460 0.951 . S
C490 C489 1.392 . S
C490 C491 1.392 . S
C491 H461 0.949 . S
C491 C486 1.382 . S
C491 C490 1.392 . S
H492 C511 0.949 . S
H493 C512 0.950 . S
H494 C514 0.950 . S
H495 C515 0.950 . S
H496 C517 0.950 . S
H497 C520 0.950 . S
H498 C521 0.950 . S
H499 C523 0.951 . S
H500 C524 0.949 . S
H501 C526 0.949 . S
H502 C527 0.950 . S
H503 C529 0.950 . S
H504 C530 0.950 . S
H505 C532 0.950 . S
H506 C535 0.950 . S
H507 C536 0.950 . S
H508 C538 0.951 . S
H509 C539 0.949 . S
C510 C511 1.376 . S
C510 C515 1.386 . S
C510 C516 1.483 . S
C511 H492 0.949 . S
C511 C510 1.376 . S
C511 C512 1.397 . S
C512 H493 0.950 . S
C512 C511 1.397 . S
C512 C513 1.391 . S
C513 C512 1.391 . S
C513 C514 1.405 . S
C514 H494 0.950 . S
C514 C513 1.405 . S
C514 C515 1.367 . S
C515 H495 0.950 . S
C515 C510 1.386 . S
C515 C514 1.367 . S
C516 C510 1.483 . S
C516 C517 1.382 . S
C516 C518 1.403 . S
C517 H496 0.950 . S
C517 C516 1.382 . S
C517 C533 1.411 . S
C518 C516 1.403 . S
C518 C519 1.489 . S
C518 C532 1.411 . S
C519 C518 1.489 . S
C519 C520 1.383 . S
C519 C524 1.382 . S
C520 H497 0.950 . S
C520 C519 1.383 . S
C520 C521 1.395 . S
C521 H498 0.950 . S
C521 C520 1.395 . S
C521 C522 1.288 . S
C522 C521 1.288 . S
C522 C523 1.392 . S
C523 H499 0.951 . S
C523 C522 1.392 . S
C523 C524 1.392 . S
C524 H500 0.949 . S
C524 C519 1.382 . S
C524 C523 1.392 . S
C525 C526 1.376 . S
C525 C530 1.386 . S
C525 C531 1.483 . S
C526 H501 0.949 . S
C526 C525 1.376 . S
C526 C527 1.397 . S
C527 H502 0.950 . S
C527 C526 1.397 . S
C527 C528 1.391 . S
C528 C527 1.391 . S
C528 C529 1.405 . S
C529 H503 0.950 . S
C529 C528 1.405 . S
C529 C530 1.367 . S
C530 H504 0.950 . S
C530 C525 1.386 . S
C530 C529 1.367 . S
C531 C525 1.483 . S
C531 C532 1.382 . S
C531 C533 1.403 . S
C532 H505 0.950 . S
C532 C518 1.411 . S
C532 C531 1.382 . S
C533 C517 1.411 . S
C533 C531 1.403 . S
C533 C534 1.489 . S
C534 C533 1.489 . S
C534 C535 1.383 . S
C534 C539 1.382 . S
C535 H506 0.950 . S
C535 C534 1.383 . S
C535 C536 1.395 . S
C536 H507 0.950 . S
C536 C535 1.395 . S
C536 C537 1.288 . S
C537 C536 1.288 . S
C537 C538 1.392 . S
C538 H508 0.951 . S
C538 C537 1.392 . S
C538 C539 1.392 . S
C539 H509 0.949 . S
C539 C534 1.382 . S
C539 C538 1.392 . S
H540 C559 0.949 . S
H541 C560 0.950 . S
H542 C562 0.950 . S
H543 C563 0.950 . S
H544 C565 0.950 . S
H545 C568 0.950 . S
H546 C569 0.950 . S
H547 C571 0.951 . S
H548 C572 0.949 . S
H549 C574 0.949 . S
H550 C575 0.950 . S
H551 C577 0.950 . S
H552 C578 0.950 . S
H553 C580 0.950 . S
H554 C583 0.950 . S
H555 C584 0.950 . S
H556 C586 0.951 . S
H557 C587 0.949 . S
C558 C559 1.376 . S
C558 C563 1.386 . S
C558 C564 1.483 . S
C559 H540 0.949 . S
C559 C558 1.376 . S
C559 C560 1.397 . S
C560 H541 0.950 . S
C560 C559 1.397 . S
C560 C561 1.391 . S
C561 C560 1.391 . S
C561 C562 1.405 . S
C562 H542 0.950 . S
C562 C561 1.405 . S
C562 C563 1.367 . S
C563 H543 0.950 . S
C563 C558 1.386 . S
C563 C562 1.367 . S
C564 C558 1.483 . S
C564 C565 1.382 . S
C564 C566 1.403 . S
C565 H544 0.950 . S
C565 C564 1.382 . S
C565 C581 1.411 . S
C566 C564 1.403 . S
C566 C567 1.489 . S
C566 C580 1.411 . S
C567 C566 1.489 . S
C567 C568 1.383 . S
C567 C572 1.382 . S
C568 H545 0.950 . S
C568 C567 1.383 . S
C568 C569 1.395 . S
C569 H546 0.950 . S
C569 C568 1.395 . S
C569 C570 1.288 . S
C570 C569 1.288 . S
C570 C571 1.392 . S
C571 H547 0.951 . S
C571 C570 1.392 . S
C571 C572 1.392 . S
C572 H548 0.949 . S
C572 C567 1.382 . S
C572 C571 1.392 . S
C573 C574 1.376 . S
C573 C578 1.386 . S
C573 C579 1.483 . S
C574 H549 0.949 . S
C574 C573 1.376 . S
C574 C575 1.397 . S
C575 H550 0.950 . S
C575 C574 1.397 . S
C575 C576 1.391 . S
C576 C575 1.391 . S
C576 C577 1.405 . S
C577 H551 0.950 . S
C577 C576 1.405 . S
C577 C578 1.367 . S
C578 H552 0.950 . S
C578 C573 1.386 . S
C578 C577 1.367 . S
C579 C573 1.483 . S
C579 C580 1.382 . S
C579 C581 1.403 . S
C580 H553 0.950 . S
C580 C566 1.411 . S
C580 C579 1.382 . S
C581 C565 1.411 . S
C581 C579 1.403 . S
C581 C582 1.489 . S
C582 C581 1.489 . S
C582 C583 1.383 . S
C582 C587 1.382 . S
C583 H554 0.950 . S
C583 C582 1.383 . S
C583 C584 1.395 . S
C584 H555 0.950 . S
C584 C583 1.395 . S
C584 C585 1.288 . S
C585 C584 1.288 . S
C585 C586 1.392 . S
C586 H556 0.951 . S
C586 C585 1.392 . S
C586 C587 1.392 . S
C587 H557 0.949 . S
C587 C582 1.382 . S
C587 C586 1.392 . S
H588 C607 0.949 . S
H589 C608 0.950 . S
H590 C610 0.950 . S
H591 C611 0.950 . S
H592 C613 0.950 . S
H593 C616 0.950 . S
H594 C617 0.950 . S
H595 C619 0.951 . S
H596 C620 0.949 . S
H597 C622 0.949 . S
H598 C623 0.950 . S
H599 C625 0.950 . S
H600 C626 0.950 . S
H601 C628 0.950 . S
H602 C631 0.950 . S
H603 C632 0.950 . S
H604 C634 0.951 . S
H605 C635 0.949 . S
C606 C607 1.376 . S
C606 C611 1.386 . S
C606 C612 1.483 . S
C607 H588 0.949 . S
C607 C606 1.376 . S
C607 C608 1.397 . S
C608 H589 0.950 . S
C608 C607 1.397 . S
C608 C609 1.391 . S
C609 C608 1.391 . S
C609 C610 1.405 . S
C610 H590 0.950 . S
C610 C609 1.405 . S
C610 C611 1.367 . S
C611 H591 0.950 . S
C611 C606 1.386 . S
C611 C610 1.367 . S
C612 C606 1.483 . S
C612 C613 1.382 . S
C612 C614 1.403 . S
C613 H592 0.950 . S
C613 C612 1.382 . S
C613 C629 1.411 . S
C614 C612 1.403 . S
C614 C615 1.489 . S
C614 C628 1.411 . S
C615 C614 1.489 . S
C615 C616 1.383 . S
C615 C620 1.382 . S
C616 H593 0.950 . S
C616 C615 1.383 . S
C616 C617 1.395 . S
C617 H594 0.950 . S
C617 C616 1.395 . S
C617 C618 1.288 . S
C618 C617 1.288 . S
C618 C619 1.392 . S
C619 H595 0.951 . S
C619 C618 1.392 . S
C619 C620 1.392 . S
C620 H596 0.949 . S
C620 C615 1.382 . S
C620 C619 1.392 . S
C621 C622 1.376 . S
C621 C626 1.386 . S
C621 C627 1.483 . S
C622 H597 0.949 . S
C622 C621 1.376 . S
C622 C623 1.397 . S
C623 H598 0.950 . S
C623 C622 1.397 . S
C623 C624 1.391 . S
C624 C623 1.391 . S
C624 C625 1.405 . S
C625 H599 0.950 . S
C625 C624 1.405 . S
C625 C626 1.367 . S
C626 H600 0.950 . S
C626 C621 1.386 . S
C626 C625 1.367 . S
C627 C621 1.483 . S
C627 C628 1.382 . S
C627 C629 1.403 . S
C628 H601 0.950 . S
C628 C614 1.411 . S
C628 C627 1.382 . S
C629 C613 1.411 . S
C629 C627 1.403 . S
C629 C630 1.489 . S
C630 C629 1.489 . S
C630 C631 1.383 . S
C630 C635 1.382 . S
C631 H602 0.950 . S
C631 C630 1.383 . S
C631 C632 1.395 . S
C632 H603 0.950 . S
C632 C631 1.395 . S
C632 C633 1.288 . S
C633 C632 1.288 . S
C633 C634 1.392 . S
C634 H604 0.951 . S
C634 C633 1.392 . S
C634 C635 1.392 . S
C635 H605 0.949 . S
C635 C630 1.382 . S
C635 C634 1.392 . S
H636 C655 0.949 . S
H637 C656 0.950 . S
H638 C658 0.950 . S
H639 C659 0.950 . S
H640 C661 0.950 . S
H641 C664 0.950 . S
H642 C665 0.950 . S
H643 C667 0.951 . S
H644 C668 0.949 . S
H645 C670 0.949 . S
H646 C671 0.950 . S
H647 C673 0.950 . S
H648 C674 0.950 . S
H649 C676 0.950 . S
H650 C679 0.950 . S
H651 C680 0.950 . S
H652 C682 0.951 . S
H653 C683 0.949 . S
C654 C655 1.376 . S
C654 C659 1.386 . S
C654 C660 1.483 . S
C655 H636 0.949 . S
C655 C654 1.376 . S
C655 C656 1.397 . S
C656 H637 0.950 . S
C656 C655 1.397 . S
C656 C657 1.391 . S
C657 C656 1.391 . S
C657 C658 1.405 . S
C658 H638 0.950 . S
C658 C657 1.405 . S
C658 C659 1.367 . S
C659 H639 0.950 . S
C659 C654 1.386 . S
C659 C658 1.367 . S
C660 C654 1.483 . S
C660 C661 1.382 . S
C660 C662 1.403 . S
C661 H640 0.950 . S
C661 C660 1.382 . S
C661 C677 1.411 . S
C662 C660 1.403 . S
C662 C663 1.489 . S
C662 C676 1.411 . S
C663 C662 1.489 . S
C663 C664 1.383 . S
C663 C668 1.382 . S
C664 H641 0.950 . S
C664 C663 1.383 . S
C664 C665 1.395 . S
C665 H642 0.950 . S
C665 C664 1.395 . S
C665 C666 1.288 . S
C666 C665 1.288 . S
C666 C667 1.392 . S
C667 H643 0.951 . S
C667 C666 1.392 . S
C667 C668 1.392 . S
C668 H644 0.949 . S
C668 C663 1.382 . S
C668 C667 1.392 . S
C669 C670 1.376 . S
C669 C674 1.386 . S
C669 C675 1.483 . S
C670 H645 0.949 . S
C670 C669 1.376 . S
C670 C671 1.397 . S
C671 H646 0.950 . S
C671 C670 1.397 . S
C671 C672 1.391 . S
C672 C671 1.391 . S
C672 C673 1.405 . S
C673 H647 0.950 . S
C673 C672 1.405 . S
C673 C674 1.367 . S
C674 H648 0.950 . S
C674 C669 1.386 . S
C674 C673 1.367 . S
C675 C669 1.483 . S
C675 C676 1.382 . S
C675 C677 1.403 . S
C676 H649 0.950 . S
C676 C662 1.411 . S
C676 C675 1.382 . S
C677 C661 1.411 . S
C677 C675 1.403 . S
C677 C678 1.489 . S
C678 C677 1.489 . S
C678 C679 1.383 . S
C678 C683 1.382 . S
C679 H650 0.950 . S
C679 C678 1.383 . S
C679 C680 1.395 . S
C680 H651 0.950 . S
C680 C679 1.395 . S
C680 C681 1.288 . S
C681 C680 1.288 . S
C681 C682 1.392 . S
C682 H652 0.951 . S
C682 C681 1.392 . S
C682 C683 1.392 . S
C683 H653 0.949 . S
C683 C678 1.382 . S
C683 C682 1.392 . S
H684 C703 0.949 . S
H685 C704 0.950 . S
H686 C706 0.950 . S
H687 C707 0.950 . S
H688 C709 0.950 . S
H689 C712 0.950 . S
H690 C713 0.950 . S
H691 C715 0.951 . S
H692 C716 0.949 . S
H693 C718 0.949 . S
H694 C719 0.950 . S
H695 C721 0.950 . S
H696 C722 0.950 . S
H697 C724 0.950 . S
H698 C727 0.950 . S
H699 C728 0.950 . S
H700 C730 0.951 . S
H701 C731 0.949 . S
C702 C703 1.376 . S
C702 C707 1.386 1_655 S
C702 C708 1.483 . S
C703 H684 0.949 . S
C703 C702 1.376 . S
C703 C704 1.397 . S
C704 H685 0.950 . S
C704 C703 1.397 . S
C704 C705 1.391 . S
C705 C704 1.391 . S
C705 C706 1.405 1_655 S
C706 H686 0.950 . S
C706 C705 1.405 1_455 S
C706 C707 1.367 . S
C707 H687 0.950 . S
C707 C702 1.386 1_455 S
C707 C706 1.367 . S
C708 C702 1.483 . S
C708 C709 1.382 . S
C708 C710 1.403 1_655 S
C709 H688 0.950 . S
C709 C708 1.382 . S
C709 C725 1.411 . S
C710 C708 1.403 1_455 S
C710 C711 1.489 . S
C710 C724 1.411 . S
C711 C710 1.489 . S
C711 C712 1.383 1_455 S
C711 C716 1.382 . S
C712 H689 0.950 . S
C712 C711 1.383 1_655 S
C712 C713 1.395 . S
C713 H690 0.950 . S
C713 C712 1.395 . S
C713 C714 1.288 1_655 S
C714 C713 1.288 1_455 S
C714 C715 1.392 . S
C715 H691 0.951 . S
C715 C714 1.392 . S
C715 C716 1.392 . S
C716 H692 0.949 . S
C716 C711 1.382 . S
C716 C715 1.392 . S
C717 C718 1.376 . S
C717 C722 1.386 1_455 S
C717 C723 1.483 . S
C718 H693 0.949 . S
C718 C717 1.376 . S
C718 C719 1.397 . S
C719 H694 0.950 . S
C719 C718 1.397 . S
C719 C720 1.391 . S
C720 C719 1.391 . S
C720 C721 1.405 1_455 S
C721 H695 0.950 . S
C721 C720 1.405 1_655 S
C721 C722 1.367 . S
C722 H696 0.950 . S
C722 C717 1.386 1_655 S
C722 C721 1.367 . S
C723 C717 1.483 . S
C723 C724 1.382 . S
C723 C725 1.403 1_455 S
C724 H697 0.950 . S
C724 C710 1.411 . S
C724 C723 1.382 . S
C725 C709 1.411 . S
C725 C723 1.403 1_655 S
C725 C726 1.489 . S
C726 C725 1.489 . S
C726 C727 1.383 1_655 S
C726 C731 1.382 . S
C727 H698 0.950 . S
C727 C726 1.383 1_455 S
C727 C728 1.395 . S
C728 H699 0.950 . S
C728 C727 1.395 . S
C728 C729 1.288 1_455 S
C729 C728 1.288 1_655 S
C729 C730 1.392 . S
C730 H700 0.951 . S
C730 C729 1.392 . S
C730 C731 1.392 . S
C731 H701 0.949 . S
C731 C726 1.382 . S
C731 C730 1.392 . S
H732 C751 0.949 . S
H733 C752 0.950 . S
H734 C754 0.950 . S
H735 C755 0.950 . S
H736 C757 0.950 . S
H737 C760 0.950 . S
H738 C761 0.950 . S
H739 C763 0.951 . S
H740 C764 0.949 . S
H741 C766 0.949 . S
H742 C767 0.950 . S
H743 C769 0.950 . S
H744 C770 0.950 . S
H745 C772 0.950 . S
H746 C775 0.950 . S
H747 C776 0.950 . S
H748 C778 0.951 . S
H749 C779 0.949 . S
C750 C751 1.376 . S
C750 C755 1.386 . S
C750 C756 1.483 . S
C751 H732 0.949 . S
C751 C750 1.376 . S
C751 C752 1.397 . S
C752 H733 0.950 . S
C752 C751 1.397 . S
C752 C753 1.391 . S
C753 C752 1.391 . S
C753 C754 1.405 . S
C754 H734 0.950 . S
C754 C753 1.405 . S
C754 C755 1.367 . S
C755 H735 0.950 . S
C755 C750 1.386 . S
C755 C754 1.367 . S
C756 C750 1.483 . S
C756 C757 1.382 . S
C756 C758 1.403 . S
C757 H736 0.950 . S
C757 C756 1.382 . S
C757 C773 1.411 . S
C758 C756 1.403 . S
C758 C759 1.489 . S
C758 C772 1.411 . S
C759 C758 1.489 . S
C759 C760 1.383 . S
C759 C764 1.382 . S
C760 H737 0.950 . S
C760 C759 1.383 . S
C760 C761 1.395 . S
C761 H738 0.950 . S
C761 C760 1.395 . S
C761 C762 1.288 . S
C762 C761 1.288 . S
C762 C763 1.392 . S
C763 H739 0.951 . S
C763 C762 1.392 . S
C763 C764 1.392 . S
C764 H740 0.949 . S
C764 C759 1.382 . S
C764 C763 1.392 . S
C765 C766 1.376 . S
C765 C770 1.386 . S
C765 C771 1.483 . S
C766 H741 0.949 . S
C766 C765 1.376 . S
C766 C767 1.397 . S
C767 H742 0.950 . S
C767 C766 1.397 . S
C767 C768 1.391 . S
C768 C767 1.391 . S
C768 C769 1.405 . S
C769 H743 0.950 . S
C769 C768 1.405 . S
C769 C770 1.367 . S
C770 H744 0.950 . S
C770 C765 1.386 . S
C770 C769 1.367 . S
C771 C765 1.483 . S
C771 C772 1.382 . S
C771 C773 1.403 . S
C772 H745 0.950 . S
C772 C758 1.411 . S
C772 C771 1.382 . S
C773 C757 1.411 . S
C773 C771 1.403 . S
C773 C774 1.489 . S
C774 C773 1.489 . S
C774 C775 1.383 . S
C774 C779 1.382 . S
C775 H746 0.950 . S
C775 C774 1.383 . S
C775 C776 1.395 . S
C776 H747 0.950 . S
C776 C775 1.395 . S
C776 C777 1.288 . S
C777 C776 1.288 . S
C777 C778 1.392 . S
C778 H748 0.951 . S
C778 C777 1.392 . S
C778 C779 1.392 . S
C779 H749 0.949 . S
C779 C774 1.382 . S
C779 C778 1.392 . S
H780 C799 0.949 . S
H781 C800 0.950 . S
H782 C802 0.950 . S
H783 C803 0.950 . S
H784 C805 0.950 . S
H785 C808 0.950 . S
H786 C809 0.950 . S
H787 C811 0.951 . S
H788 C812 0.949 . S
H789 C814 0.949 . S
H790 C815 0.950 . S
H791 C817 0.950 . S
H792 C818 0.950 . S
H793 C820 0.950 . S
H794 C823 0.950 . S
H795 C824 0.950 . S
H796 C826 0.951 . S
H797 C827 0.949 . S
C798 C799 1.376 . S
C798 C803 1.386 1_545 S
C798 C804 1.483 . S
C799 H780 0.949 . S
C799 C798 1.376 . S
C799 C800 1.397 . S
C800 H781 0.950 . S
C800 C799 1.397 . S
C800 C801 1.391 . S
C801 C800 1.391 . S
C801 C802 1.405 1_545 S
C802 H782 0.950 . S
C802 C801 1.405 1_565 S
C802 C803 1.367 . S
C803 H783 0.950 . S
C803 C798 1.386 1_565 S
C803 C802 1.367 . S
C804 C798 1.483 . S
C804 C805 1.382 . S
C804 C806 1.403 1_545 S
C805 H784 0.950 . S
C805 C804 1.382 . S
C805 C821 1.411 . S
C806 C804 1.403 1_565 S
C806 C807 1.489 . S
C806 C820 1.411 . S
C807 C806 1.489 . S
C807 C808 1.383 1_565 S
C807 C812 1.382 . S
C808 H785 0.950 . S
C808 C807 1.383 1_545 S
C808 C809 1.395 . S
C809 H786 0.950 . S
C809 C808 1.395 . S
C809 C810 1.288 1_545 S
C810 C809 1.288 1_565 S
C810 C811 1.392 . S
C811 H787 0.951 . S
C811 C810 1.392 . S
C811 C812 1.392 . S
C812 H788 0.949 . S
C812 C807 1.382 . S
C812 C811 1.392 . S
C813 C814 1.376 . S
C813 C818 1.386 1_565 S
C813 C819 1.483 . S
C814 H789 0.949 . S
C814 C813 1.376 . S
C814 C815 1.397 . S
C815 H790 0.950 . S
C815 C814 1.397 . S
C815 C816 1.391 . S
C816 C815 1.391 . S
C816 C817 1.405 1_565 S
C817 H791 0.950 . S
C817 C816 1.405 1_545 S
C817 C818 1.367 . S
C818 H792 0.950 . S
C818 C813 1.386 1_545 S
C818 C817 1.367 . S
C819 C813 1.483 . S
C819 C820 1.382 . S
C819 C821 1.403 1_565 S
C820 H793 0.950 . S
C820 C806 1.411 . S
C820 C819 1.382 . S
C821 C805 1.411 . S
C821 C819 1.403 1_545 S
C821 C822 1.489 . S
C822 C821 1.489 . S
C822 C823 1.383 1_545 S
C822 C827 1.382 . S
C823 H794 0.950 . S
C823 C822 1.383 1_565 S
C823 C824 1.395 . S
C824 H795 0.950 . S
C824 C823 1.395 . S
C824 C825 1.288 1_565 S
C825 C824 1.288 1_545 S
C825 C826 1.392 . S
C826 H796 0.951 . S
C826 C825 1.392 . S
C826 C827 1.392 . S
C827 H797 0.949 . S
C827 C822 1.382 . S
C827 C826 1.392 . S
H828 C847 0.949 . S
H829 C848 0.950 . S
H830 C850 0.950 . S
H831 C851 0.950 . S
H832 C853 0.950 . S
H833 C856 0.950 . S
H834 C857 0.950 . S
H835 C859 0.951 . S
H836 C860 0.949 . S
H837 C862 0.949 . S
H838 C863 0.950 . S
H839 C865 0.950 . S
H840 C866 0.950 . S
H841 C868 0.950 . S
H842 C871 0.950 . S
H843 C872 0.950 . S
H844 C874 0.951 . S
H845 C875 0.949 . S
C846 C847 1.377 . S
C846 C851 1.386 1_545 S
C846 C852 1.506 . S
C847 H828 0.949 . S
C847 C846 1.377 . S
C847 C848 1.397 . S
C848 H829 0.950 . S
C848 C847 1.397 . S
C848 C849 1.391 1_545 S
C849 C848 1.391 1_565 S
C849 C850 1.405 . S
C850 H830 0.950 . S
C850 C849 1.405 . S
C850 C851 1.367 . S
C851 H831 0.950 . S
C851 C846 1.386 1_565 S
C851 C850 1.367 . S
C852 C846 1.506 . S
C852 C853 1.360 . S
C852 C854 1.400 1_545 S
C853 H832 0.950 . S
C853 C852 1.360 . S
C853 C869 1.447 . S
C854 C852 1.400 1_565 S
C854 C855 1.486 . S
C854 C868 1.435 . S
C855 C854 1.486 . S
C855 C856 1.343 1_565 S
C855 C860 1.403 . S
C856 H833 0.950 . S
C856 C855 1.343 1_545 S
C856 C857 1.395 . S
C857 H834 0.950 . S
C857 C856 1.395 . S
C857 C858 1.330 . S
C858 C857 1.330 . S
C858 C859 1.310 1_545 S
C859 H835 0.951 . S
C859 C858 1.310 1_565 S
C859 C860 1.392 . S
C860 H836 0.949 . S
C860 C855 1.403 . S
C860 C859 1.392 . S
C861 C862 1.377 1_545 S
C861 C866 1.386 . S
C861 C867 1.496 1_545 S
C862 H837 0.949 . S
C862 C861 1.377 1_565 S
C862 C863 1.397 . S
C863 H838 0.950 . S
C863 C862 1.397 . S
C863 C864 1.391 1_565 S
C864 C863 1.391 1_545 S
C864 C865 1.405 . S
C865 H839 0.950 . S
C865 C864 1.405 . S
C865 C866 1.367 . S
C866 H840 0.950 . S
C866 C861 1.386 . S
C866 C865 1.367 . S
C867 C861 1.496 1_565 S
C867 C868 1.368 . S
C867 C869 1.400 1_565 S
C868 H841 0.950 . S
C868 C854 1.435 . S
C868 C867 1.368 . S
C869 C853 1.447 . S
C869 C867 1.400 1_545 S
C869 C870 1.486 . S
C870 C869 1.486 . S
C870 C871 1.322 1_545 S
C870 C875 1.415 . S
C871 H842 0.950 . S
C871 C870 1.322 1_565 S
C871 C872 1.395 . S
C872 H843 0.950 . S
C872 C871 1.395 . S
C872 C873 1.319 . S
C873 C872 1.319 . S
C873 C874 1.331 1_565 S
C874 H844 0.951 . S
C874 C873 1.331 1_545 S
C874 C875 1.392 . S
C875 H845 0.949 . S
C875 C870 1.415 . S
C875 C874 1.392 . S
H876 C895 0.949 . S
H877 C896 0.950 . S
H878 C898 0.950 . S
H879 C899 0.950 . S
H880 C901 0.950 . S
H881 C904 0.950 . S
H882 C905 0.950 . S
H883 C907 0.951 . S
H884 C908 0.949 . S
H885 C910 0.949 . S
H886 C911 0.950 . S
H887 C913 0.950 . S
H888 C914 0.950 . S
H889 C916 0.950 . S
H890 C919 0.950 . S
H891 C920 0.950 . S
H892 C922 0.951 . S
H893 C923 0.949 . S
C894 C895 1.376 . S
C894 C899 1.386 1_455 S
C894 C900 1.483 . S
C895 H876 0.949 . S
C895 C894 1.376 . S
C895 C896 1.397 . S
C896 H877 0.950 . S
C896 C895 1.397 . S
C896 C897 1.391 . S
C897 C896 1.391 . S
C897 C898 1.405 1_455 S
C898 H878 0.950 . S
C898 C897 1.405 1_655 S
C898 C899 1.367 . S
C899 H879 0.950 . S
C899 C894 1.386 1_655 S
C899 C898 1.367 . S
C900 C894 1.483 . S
C900 C901 1.382 . S
C900 C902 1.403 1_455 S
C901 H880 0.950 . S
C901 C900 1.382 . S
C901 C917 1.411 . S
C902 C900 1.403 1_655 S
C902 C903 1.489 . S
C902 C916 1.411 . S
C903 C902 1.489 . S
C903 C904 1.383 1_655 S
C903 C908 1.382 . S
C904 H881 0.950 . S
C904 C903 1.383 1_455 S
C904 C905 1.395 . S
C905 H882 0.950 . S
C905 C904 1.395 . S
C905 C906 1.288 1_455 S
C906 C905 1.288 1_655 S
C906 C907 1.392 . S
C907 H883 0.951 . S
C907 C906 1.392 . S
C907 C908 1.392 . S
C908 H884 0.949 . S
C908 C903 1.382 . S
C908 C907 1.392 . S
C909 C910 1.376 . S
C909 C914 1.386 1_655 S
C909 C915 1.483 . S
C910 H885 0.949 . S
C910 C909 1.376 . S
C910 C911 1.397 . S
C911 H886 0.950 . S
C911 C910 1.397 . S
C911 C912 1.391 . S
C912 C911 1.391 . S
C912 C913 1.405 1_655 S
C913 H887 0.950 . S
C913 C912 1.405 1_455 S
C913 C914 1.367 . S
C914 H888 0.950 . S
C914 C909 1.386 1_455 S
C914 C913 1.367 . S
C915 C909 1.483 . S
C915 C916 1.382 . S
C915 C917 1.403 1_655 S
C916 H889 0.950 . S
C916 C902 1.411 . S
C916 C915 1.382 . S
C917 C901 1.411 . S
C917 C915 1.403 1_455 S
C917 C918 1.489 . S
C918 C917 1.489 . S
C918 C919 1.383 1_455 S
C918 C923 1.382 . S
C919 H890 0.950 . S
C919 C918 1.383 1_655 S
C919 C920 1.395 . S
C920 H891 0.950 . S
C920 C919 1.395 . S
C920 C921 1.288 1_655 S
C921 C920 1.288 1_455 S
C921 C922 1.392 . S
C922 H892 0.951 . S
C922 C921 1.392 . S
C922 C923 1.392 . S
C923 H893 0.949 . S
C923 C918 1.382 . S
C923 C922 1.392 . S
H924 C943 0.949 . S
H925 C944 0.950 . S
H926 C946 0.950 . S
H927 C947 0.950 . S
H928 C949 0.950 . S
H929 C952 0.950 . S
H930 C953 0.950 . S
H931 C955 0.951 . S
H932 C956 0.949 . S
H933 C958 0.949 . S
H934 C959 0.950 . S
H935 C961 0.950 . S
H936 C962 0.950 . S
H937 C964 0.950 . S
H938 C967 0.950 . S
H939 C968 0.950 . S
H940 C970 0.951 . S
H941 C971 0.949 . S
C942 C943 1.376 . S
C942 C947 1.386 . S
C942 C948 1.483 . S
C943 H924 0.949 . S
C943 C942 1.376 . S
C943 C944 1.397 . S
C944 H925 0.950 . S
C944 C943 1.397 . S
C944 C945 1.391 . S
C945 C944 1.391 . S
C945 C946 1.405 . S
C946 H926 0.950 . S
C946 C945 1.405 . S
C946 C947 1.367 . S
C947 H927 0.950 . S
C947 C942 1.386 . S
C947 C946 1.367 . S
C948 C942 1.483 . S
C948 C949 1.382 . S
C948 C950 1.403 . S
C949 H928 0.950 . S
C949 C948 1.382 . S
C949 C965 1.411 . S
C950 C948 1.403 . S
C950 C951 1.489 . S
C950 C964 1.411 . S
C951 C950 1.489 . S
C951 C952 1.383 . S
C951 C956 1.382 . S
C952 H929 0.950 . S
C952 C951 1.383 . S
C952 C953 1.395 . S
C953 H930 0.950 . S
C953 C952 1.395 . S
C953 C954 1.288 . S
C954 C953 1.288 . S
C954 C955 1.392 . S
C955 H931 0.951 . S
C955 C954 1.392 . S
C955 C956 1.392 . S
C956 H932 0.949 . S
C956 C951 1.382 . S
C956 C955 1.392 . S
C957 C958 1.376 . S
C957 C962 1.386 . S
C957 C963 1.483 . S
C958 H933 0.949 . S
C958 C957 1.376 . S
C958 C959 1.397 . S
C959 H934 0.950 . S
C959 C958 1.397 . S
C959 C960 1.391 . S
C960 C959 1.391 . S
C960 C961 1.405 . S
C961 H935 0.950 . S
C961 C960 1.405 . S
C961 C962 1.367 . S
C962 H936 0.950 . S
C962 C957 1.386 . S
C962 C961 1.367 . S
C963 C957 1.483 . S
C963 C964 1.382 . S
C963 C965 1.403 . S
C964 H937 0.950 . S
C964 C950 1.411 . S
C964 C963 1.382 . S
C965 C949 1.411 . S
C965 C963 1.403 . S
C965 C966 1.489 . S
C966 C965 1.489 . S
C966 C967 1.383 . S
C966 C971 1.382 . S
C967 H938 0.950 . S
C967 C966 1.383 . S
C967 C968 1.395 . S
C968 H939 0.950 . S
C968 C967 1.395 . S
C968 C969 1.288 . S
C969 C968 1.288 . S
C969 C970 1.392 . S
C970 H940 0.951 . S
C970 C969 1.392 . S
C970 C971 1.392 . S
C971 H941 0.949 . S
C971 C966 1.382 . S
C971 C970 1.392 . S
H972 C991 0.949 . S
H973 C992 0.950 . S
H974 C994 0.950 . S
H975 C995 0.950 . S
H976 C997 0.950 . S
H977 C1000 0.950 . S
H978 C1001 0.950 . S
H979 C1003 0.951 . S
H980 C1004 0.949 . S
H981 C1006 0.949 . S
H982 C1007 0.950 . S
H983 C1009 0.950 . S
H984 C1010 0.950 . S
H985 C1012 0.950 . S
H986 C1015 0.950 . S
H987 C1016 0.950 . S
H988 C1018 0.951 . S
H989 C1019 0.949 . S
C990 C991 1.376 . S
C990 C995 1.386 . S
C990 C996 1.483 . S
C991 H972 0.949 . S
C991 C990 1.376 . S
C991 C992 1.397 . S
C992 H973 0.950 . S
C992 C991 1.397 . S
C992 C993 1.391 . S
C993 C992 1.391 . S
C993 C994 1.405 . S
C994 H974 0.950 . S
C994 C993 1.405 . S
C994 C995 1.367 . S
C995 H975 0.950 . S
C995 C990 1.386 . S
C995 C994 1.367 . S
C996 C990 1.483 . S
C996 C997 1.382 . S
C996 C998 1.403 . S
C997 H976 0.950 . S
C997 C996 1.382 . S
C997 C1013 1.411 . S
C998 C996 1.403 . S
C998 C999 1.489 . S
C998 C1012 1.411 . S
C999 C998 1.489 . S
C999 C1000 1.383 . S
C999 C1004 1.382 . S
C1000 H977 0.950 . S
C1000 C999 1.383 . S
C1000 C1001 1.395 . S
C1001 H978 0.950 . S
C1001 C1000 1.395 . S
C1001 C1002 1.288 . S
C1002 C1001 1.288 . S
C1002 C1003 1.392 . S
C1003 H979 0.951 . S
C1003 C1002 1.392 . S
C1003 C1004 1.392 . S
C1004 H980 0.949 . S
C1004 C999 1.382 . S
C1004 C1003 1.392 . S
C1005 C1006 1.376 . S
C1005 C1010 1.386 . S
C1005 C1011 1.483 . S
C1006 H981 0.949 . S
C1006 C1005 1.376 . S
C1006 C1007 1.397 . S
C1007 H982 0.950 . S
C1007 C1006 1.397 . S
C1007 C1008 1.391 . S
C1008 C1007 1.391 . S
C1008 C1009 1.405 . S
C1009 H983 0.950 . S
C1009 C1008 1.405 . S
C1009 C1010 1.367 . S
C1010 H984 0.950 . S
C1010 C1005 1.386 . S
C1010 C1009 1.367 . S
C1011 C1005 1.483 . S
C1011 C1012 1.382 . S
C1011 C1013 1.403 . S
C1012 H985 0.950 . S
C1012 C998 1.411 . S
C1012 C1011 1.382 . S
C1013 C997 1.411 . S
C1013 C1011 1.403 . S
C1013 C1014 1.489 . S
C1014 C1013 1.489 . S
C1014 C1015 1.383 . S
C1014 C1019 1.382 . S
C1015 H986 0.950 . S
C1015 C1014 1.383 . S
C1015 C1016 1.395 . S
C1016 H987 0.950 . S
C1016 C1015 1.395 . S
C1016 C1017 1.288 . S
C1017 C1016 1.288 . S
C1017 C1018 1.392 . S
C1018 H988 0.951 . S
C1018 C1017 1.392 . S
C1018 C1019 1.392 . S
C1019 H989 0.949 . S
C1019 C1014 1.382 . S
C1019 C1018 1.392 . S
H1020 C1039 0.949 . S
H1021 C1040 0.950 . S
H1022 C1042 0.950 . S
H1023 C1043 0.950 . S
H1024 C1045 0.950 . S
H1025 C1048 0.950 . S
H1026 C1049 0.950 . S
H1027 C1051 0.951 . S
H1028 C1052 0.949 . S
H1029 C1054 0.949 . S
H1030 C1055 0.950 . S
H1031 C1057 0.950 . S
H1032 C1058 0.950 . S
H1033 C1060 0.950 . S
H1034 C1063 0.950 . S
H1035 C1064 0.950 . S
H1036 C1066 0.951 . S
H1037 C1067 0.949 . S
C1038 C1039 1.376 . S
C1038 C1043 1.386 . S
C1038 C1044 1.483 . S
C1039 H1020 0.949 . S
C1039 C1038 1.376 . S
C1039 C1040 1.397 . S
C1040 H1021 0.950 . S
C1040 C1039 1.397 . S
C1040 C1041 1.391 . S
C1041 C1040 1.391 . S
C1041 C1042 1.405 . S
C1042 H1022 0.950 . S
C1042 C1041 1.405 . S
C1042 C1043 1.367 . S
C1043 H1023 0.950 . S
C1043 C1038 1.386 . S
C1043 C1042 1.367 . S
C1044 C1038 1.483 . S
C1044 C1045 1.382 . S
C1044 C1046 1.403 . S
C1045 H1024 0.950 . S
C1045 C1044 1.382 . S
C1045 C1061 1.411 . S
C1046 C1044 1.403 . S
C1046 C1047 1.489 . S
C1046 C1060 1.411 . S
C1047 C1046 1.489 . S
C1047 C1048 1.383 . S
C1047 C1052 1.382 . S
C1048 H1025 0.950 . S
C1048 C1047 1.383 . S
C1048 C1049 1.395 . S
C1049 H1026 0.950 . S
C1049 C1048 1.395 . S
C1049 C1050 1.288 . S
C1050 C1049 1.288 . S
C1050 C1051 1.392 . S
C1051 H1027 0.951 . S
C1051 C1050 1.392 . S
C1051 C1052 1.392 . S
C1052 H1028 0.949 . S
C1052 C1047 1.382 . S
C1052 C1051 1.392 . S
C1053 C1054 1.376 . S
C1053 C1058 1.386 . S
C1053 C1059 1.483 . S
C1054 H1029 0.949 . S
C1054 C1053 1.376 . S
C1054 C1055 1.397 . S
C1055 H1030 0.950 . S
C1055 C1054 1.397 . S
C1055 C1056 1.391 . S
C1056 C1055 1.391 . S
C1056 C1057 1.405 . S
C1057 H1031 0.950 . S
C1057 C1056 1.405 . S
C1057 C1058 1.367 . S
C1058 H1032 0.950 . S
C1058 C1053 1.386 . S
C1058 C1057 1.367 . S
C1059 C1053 1.483 . S
C1059 C1060 1.382 . S
C1059 C1061 1.403 . S
C1060 H1033 0.950 . S
C1060 C1046 1.411 . S
C1060 C1059 1.382 . S
C1061 C1045 1.411 . S
C1061 C1059 1.403 . S
C1061 C1062 1.489 . S
C1062 C1061 1.489 . S
C1062 C1063 1.383 . S
C1062 C1067 1.382 . S
C1063 H1034 0.950 . S
C1063 C1062 1.383 . S
C1063 C1064 1.395 . S
C1064 H1035 0.950 . S
C1064 C1063 1.395 . S
C1064 C1065 1.288 . S
C1065 C1064 1.288 . S
C1065 C1066 1.392 . S
C1066 H1036 0.951 . S
C1066 C1065 1.392 . S
C1066 C1067 1.392 . S
C1067 H1037 0.949 . S
C1067 C1062 1.382 . S
C1067 C1066 1.392 . S
H1068 C1087 0.949 . S
H1069 C1088 0.950 . S
H1070 C1090 0.950 . S
H1071 C1091 0.950 . S
H1072 C1093 0.950 . S
H1073 C1096 0.950 . S
H1074 C1097 0.950 . S
H1075 C1099 0.951 . S
H1076 C1100 0.949 . S
H1077 C1102 0.949 . S
H1078 C1103 0.950 . S
H1079 C1105 0.950 . S
H1080 C1106 0.950 . S
H1081 C1108 0.950 . S
H1082 C1111 0.950 . S
H1083 C1112 0.950 . S
H1084 C1114 0.951 . S
H1085 C1115 0.949 . S
C1086 C1087 1.376 . S
C1086 C1091 1.386 . S
C1086 C1092 1.483 . S
C1087 H1068 0.949 . S
C1087 C1086 1.376 . S
C1087 C1088 1.397 . S
C1088 H1069 0.950 . S
C1088 C1087 1.397 . S
C1088 C1089 1.391 . S
C1089 C1088 1.391 . S
C1089 C1090 1.405 . S
C1090 H1070 0.950 . S
C1090 C1089 1.405 . S
C1090 C1091 1.367 . S
C1091 H1071 0.950 . S
C1091 C1086 1.386 . S
C1091 C1090 1.367 . S
C1092 C1086 1.483 . S
C1092 C1093 1.382 . S
C1092 C1094 1.403 . S
C1093 H1072 0.950 . S
C1093 C1092 1.382 . S
C1093 C1109 1.411 . S
C1094 C1092 1.403 . S
C1094 C1095 1.489 . S
C1094 C1108 1.411 . S
C1095 C1094 1.489 . S
C1095 C1096 1.383 . S
C1095 C1100 1.382 . S
C1096 H1073 0.950 . S
C1096 C1095 1.383 . S
C1096 C1097 1.395 . S
C1097 H1074 0.950 . S
C1097 C1096 1.395 . S
C1097 C1098 1.288 . S
C1098 C1097 1.288 . S
C1098 C1099 1.392 . S
C1099 H1075 0.951 . S
C1099 C1098 1.392 . S
C1099 C1100 1.392 . S
C1100 H1076 0.949 . S
C1100 C1095 1.382 . S
C1100 C1099 1.392 . S
C1101 C1102 1.376 . S
C1101 C1106 1.386 . S
C1101 C1107 1.483 . S
C1102 H1077 0.949 . S
C1102 C1101 1.376 . S
C1102 C1103 1.397 . S
C1103 H1078 0.950 . S
C1103 C1102 1.397 . S
C1103 C1104 1.391 . S
C1104 C1103 1.391 . S
C1104 C1105 1.405 . S
C1105 H1079 0.950 . S
C1105 C1104 1.405 . S
C1105 C1106 1.367 . S
C1106 H1080 0.950 . S
C1106 C1101 1.386 . S
C1106 C1105 1.367 . S
C1107 C1101 1.483 . S
C1107 C1108 1.382 . S
C1107 C1109 1.403 . S
C1108 H1081 0.950 . S
C1108 C1094 1.411 . S
C1108 C1107 1.382 . S
C1109 C1093 1.411 . S
C1109 C1107 1.403 . S
C1109 C1110 1.489 . S
C1110 C1109 1.489 . S
C1110 C1111 1.383 . S
C1110 C1115 1.382 . S
C1111 H1082 0.950 . S
C1111 C1110 1.383 . S
C1111 C1112 1.395 . S
C1112 H1083 0.950 . S
C1112 C1111 1.395 . S
C1112 C1113 1.288 . S
C1113 C1112 1.288 . S
C1113 C1114 1.392 . S
C1114 H1084 0.951 . S
C1114 C1113 1.392 . S
C1114 C1115 1.392 . S
C1115 H1085 0.949 . S
C1115 C1110 1.382 . S
C1115 C1114 1.392 . S
H1116 C1134 0.951 . S
H1117 C1136 0.951 . S
H1118 C1138 0.950 . S
H1119 C1139 0.950 . S
H1120 C1141 0.950 . S
H1121 C1144 0.950 . S
H1122 C1145 0.950 . S
H1123 C1147 0.950 . S
H1124 C1148 0.950 . S
H1125 C1149 0.951 . S
H1126 C1151 0.951 . S
H1127 C1153 0.950 . S
H1128 C1154 0.950 . S
H1129 C1156 0.950 . S
H1130 C1159 0.950 . S
H1131 C1160 0.950 . S
H1132 C1162 0.950 . S
H1133 C1163 0.950 . S
C1134 H1116 0.951 . S
C1134 C1135 1.366 . S
C1134 C1136 1.388 . S
C1135 C1134 1.366 . S
C1135 C1139 1.385 1_655 S
C1136 H1117 0.951 . S
C1136 C1134 1.388 . S
C1136 C1137 1.366 . S
C1137 C1136 1.366 . S
C1137 C1138 1.414 1_655 S
C1137 C1140 1.499 . S
C1138 H1118 0.950 . S
C1138 C1137 1.414 1_455 S
C1138 C1139 1.374 . S
C1139 H1119 0.950 . S
C1139 C1135 1.385 1_455 S
C1139 C1138 1.374 . S
C1140 C1137 1.499 . S
C1140 C1141 1.373 1_655 S
C1140 C1142 1.389 . S
C1141 H1120 0.950 . S
C1141 C1140 1.373 1_455 S
C1141 C1157 1.377 . S
C1142 C1140 1.389 . S
C1142 C1143 1.524 . S
C1142 C1156 1.377 . S
C1143 C1142 1.524 . S
C1143 C1144 1.397 . S
C1143 C1148 1.363 . S
C1144 H1121 0.950 . S
C1144 C1143 1.397 . S
C1144 C1145 1.334 . S
C1145 H1122 0.950 . S
C1145 C1144 1.334 . S
C1145 C1146 1.287 . S
C1146 C1145 1.287 . S
C1146 C1147 1.524 . S
C1146 H1165 0.913 . S
C1147 H1123 0.950 . S
C1147 C1146 1.524 . S
C1147 C1148 1.415 . S
C1148 H1124 0.950 . S
C1148 C1143 1.363 . S
C1148 C1147 1.415 . S
C1149 H1125 0.951 . S
C1149 C1150 1.366 1_455 S
C1149 C1151 1.388 . S
C1150 C1149 1.366 1_655 S
C1150 C1154 1.385 . S
C1151 H1126 0.951 . S
C1151 C1149 1.388 . S
C1151 C1152 1.366 1_455 S
C1152 C1151 1.366 1_655 S
C1152 C1153 1.414 . S
C1152 C1155 1.499 . S
C1153 H1127 0.950 . S
C1153 C1152 1.414 . S
C1153 C1154 1.374 . S
C1154 H1128 0.950 . S
C1154 C1150 1.385 . S
C1154 C1153 1.374 . S
C1155 C1152 1.499 . S
C1155 C1156 1.373 . S
C1155 C1157 1.389 1_655 S
C1156 H1129 0.950 . S
C1156 C1142 1.377 . S
C1156 C1155 1.373 . S
C1157 C1141 1.377 . S
C1157 C1155 1.389 1_455 S
C1157 C1158 1.524 . S
C1158 C1157 1.524 . S
C1158 C1159 1.397 . S
C1158 C1163 1.363 . S
C1159 H1130 0.950 . S
C1159 C1158 1.397 . S
C1159 C1160 1.334 . S
C1160 H1131 0.950 . S
C1160 C1159 1.334 . S
C1160 C1161 1.287 . S
C1161 C1160 1.287 . S
C1161 C1162 1.524 . S
C1161 H1164 0.999 . S
C1162 H1132 0.950 . S
C1162 C1161 1.524 . S
C1162 C1163 1.415 . S
C1163 H1133 0.950 . S
C1163 C1158 1.363 . S
C1163 C1162 1.415 . S
H1164 C1161 0.999 . S
H1165 C1146 0.913 . S
H1166 C1184 0.951 . S
H1167 C1186 0.951 . S
H1168 C1188 0.950 . S
H1169 C1189 0.950 . S
H1170 C1191 0.950 . S
H1171 C1194 0.950 . S
H1172 C1195 0.950 . S
H1173 C1197 0.950 . S
H1174 C1198 0.950 . S
H1175 C1199 0.951 . S
H1176 C1201 0.951 . S
H1177 C1203 0.950 . S
H1178 C1204 0.950 . S
H1179 C1206 0.950 . S
H1180 C1209 0.950 . S
H1181 C1210 0.950 . S
H1182 C1212 0.950 . S
H1183 C1213 0.950 . S
C1184 H1166 0.951 . S
C1184 C1185 1.366 . S
C1184 C1186 1.388 . S
C1185 C1184 1.366 . S
C1185 C1189 1.385 . S
C1186 H1167 0.951 . S
C1186 C1184 1.388 . S
C1186 C1187 1.366 . S
C1187 C1186 1.366 . S
C1187 C1188 1.414 . S
C1187 C1190 1.499 . S
C1188 H1168 0.950 . S
C1188 C1187 1.414 . S
C1188 C1189 1.374 . S
C1189 H1169 0.950 . S
C1189 C1185 1.385 . S
C1189 C1188 1.374 . S
C1190 C1187 1.499 . S
C1190 C1191 1.373 . S
C1190 C1192 1.389 . S
C1191 H1170 0.950 . S
C1191 C1190 1.373 . S
C1191 C1207 1.377 . S
C1192 C1190 1.389 . S
C1192 C1193 1.524 . S
C1192 C1206 1.377 . S
C1193 C1192 1.524 . S
C1193 C1194 1.397 . S
C1193 C1198 1.363 . S
C1194 H1171 0.950 . S
C1194 C1193 1.397 . S
C1194 C1195 1.334 . S
C1195 H1172 0.950 . S
C1195 C1194 1.334 . S
C1195 C1196 1.287 . S
C1196 C1195 1.287 . S
C1196 C1197 1.524 . S
C1196 H1215 0.913 . S
C1197 H1173 0.950 . S
C1197 C1196 1.524 . S
C1197 C1198 1.415 . S
C1198 H1174 0.950 . S
C1198 C1193 1.363 . S
C1198 C1197 1.415 . S
C1199 H1175 0.951 . S
C1199 C1200 1.366 . S
C1199 C1201 1.388 . S
C1200 C1199 1.366 . S
C1200 C1204 1.385 . S
C1201 H1176 0.951 . S
C1201 C1199 1.388 . S
C1201 C1202 1.366 . S
C1202 C1201 1.366 . S
C1202 C1203 1.414 . S
C1202 C1205 1.499 . S
C1203 H1177 0.950 . S
C1203 C1202 1.414 . S
C1203 C1204 1.374 . S
C1204 H1178 0.950 . S
C1204 C1200 1.385 . S
C1204 C1203 1.374 . S
C1205 C1202 1.499 . S
C1205 C1206 1.373 . S
C1205 C1207 1.389 . S
C1206 H1179 0.950 . S
C1206 C1192 1.377 . S
C1206 C1205 1.373 . S
C1207 C1191 1.377 . S
C1207 C1205 1.389 . S
C1207 C1208 1.524 . S
C1208 C1207 1.524 . S
C1208 C1209 1.397 . S
C1208 C1213 1.363 . S
C1209 H1180 0.950 . S
C1209 C1208 1.397 . S
C1209 C1210 1.334 . S
C1210 H1181 0.950 . S
C1210 C1209 1.334 . S
C1210 C1211 1.287 . S
C1211 C1210 1.287 . S
C1211 C1212 1.524 . S
C1211 H1214 0.999 . S
C1212 H1182 0.950 . S
C1212 C1211 1.524 . S
C1212 C1213 1.415 . S
C1213 H1183 0.950 . S
C1213 C1208 1.363 . S
C1213 C1212 1.415 . S
H1214 C1211 0.999 . S
H1215 C1196 0.913 . S
H1216 C1234 0.951 . S
H1217 C1236 0.951 . S
H1218 C1238 0.950 . S
H1219 C1239 0.950 . S
H1220 C1241 0.950 . S
H1221 C1244 0.950 . S
H1222 C1245 0.950 . S
H1223 C1247 0.950 . S
H1224 C1248 0.950 . S
H1225 C1249 0.951 . S
H1226 C1251 0.951 . S
H1227 C1253 0.950 . S
H1228 C1254 0.950 . S
H1229 C1256 0.950 . S
H1230 C1259 0.950 . S
H1231 C1260 0.950 . S
H1232 C1262 0.950 . S
H1233 C1263 0.950 . S
C1234 H1216 0.951 . S
C1234 C1235 1.366 . S
C1234 C1236 1.388 . S
C1235 C1234 1.366 . S
C1235 C1239 1.385 . S
C1236 H1217 0.951 . S
C1236 C1234 1.388 . S
C1236 C1237 1.366 . S
C1237 C1236 1.366 . S
C1237 C1238 1.414 . S
C1237 C1240 1.499 . S
C1238 H1218 0.950 . S
C1238 C1237 1.414 . S
C1238 C1239 1.374 . S
C1239 H1219 0.950 . S
C1239 C1235 1.385 . S
C1239 C1238 1.374 . S
C1240 C1237 1.499 . S
C1240 C1241 1.373 1_545 S
C1240 C1242 1.389 . S
C1241 H1220 0.950 . S
C1241 C1240 1.373 1_565 S
C1241 C1257 1.377 . S
C1242 C1240 1.389 . S
C1242 C1243 1.524 . S
C1242 C1256 1.377 . S
C1243 C1242 1.524 . S
C1243 C1244 1.397 . S
C1243 C1248 1.363 . S
C1244 H1221 0.950 . S
C1244 C1243 1.397 . S
C1244 C1245 1.334 . S
C1245 H1222 0.950 . S
C1245 C1244 1.334 . S
C1245 C1246 1.287 . S
C1246 C1245 1.287 . S
C1246 C1247 1.524 . S
C1246 H1265 0.913 . S
C1247 H1223 0.950 . S
C1247 C1246 1.524 . S
C1247 C1248 1.415 . S
C1248 H1224 0.950 . S
C1248 C1243 1.363 . S
C1248 C1247 1.415 . S
C1249 H1225 0.951 . S
C1249 C1250 1.366 . S
C1249 C1251 1.388 . S
C1250 C1249 1.366 . S
C1250 C1254 1.385 . S
C1251 H1226 0.951 . S
C1251 C1249 1.388 . S
C1251 C1252 1.366 . S
C1252 C1251 1.366 . S
C1252 C1253 1.414 . S
C1252 C1255 1.499 . S
C1253 H1227 0.950 . S
C1253 C1252 1.414 . S
C1253 C1254 1.374 . S
C1254 H1228 0.950 . S
C1254 C1250 1.385 . S
C1254 C1253 1.374 . S
C1255 C1252 1.499 . S
C1255 C1256 1.373 . S
C1255 C1257 1.389 1_545 S
C1256 H1229 0.950 . S
C1256 C1242 1.377 . S
C1256 C1255 1.373 . S
C1257 C1241 1.377 . S
C1257 C1255 1.389 1_565 S
C1257 C1258 1.524 . S
C1258 C1257 1.524 . S
C1258 C1259 1.397 . S
C1258 C1263 1.363 . S
C1259 H1230 0.950 . S
C1259 C1258 1.397 . S
C1259 C1260 1.334 . S
C1260 H1231 0.950 . S
C1260 C1259 1.334 . S
C1260 C1261 1.287 . S
C1261 C1260 1.287 . S
C1261 C1262 1.524 . S
C1261 H1264 0.999 . S
C1262 H1232 0.950 . S
C1262 C1261 1.524 . S
C1262 C1263 1.415 . S
C1263 H1233 0.950 . S
C1263 C1258 1.363 . S
C1263 C1262 1.415 . S
H1264 C1261 0.999 . S
H1265 C1246 0.913 . S
H1266 C1284 0.951 . S
H1267 C1286 0.951 . S
H1268 C1288 0.950 . S
H1269 C1289 0.950 . S
H1270 C1291 0.950 . S
H1271 C1294 0.950 . S
H1272 C1295 0.950 . S
H1273 C1297 0.950 . S
H1274 C1298 0.950 . S
H1275 C1299 0.935 1_545 S
H1276 C1301 0.960 . S
H1277 C1303 0.950 . S
H1278 C1304 0.950 . S
H1279 C1306 0.950 . S
H1280 C1309 0.950 . S
H1281 C1310 0.950 . S
H1282 C1312 0.950 . S
H1283 C1313 0.950 . S
C1284 H1266 0.951 . S
C1284 C1285 1.366 . S
C1284 C1286 1.388 . S
C1285 C1284 1.366 . S
C1285 C1289 1.385 . S
C1286 H1267 0.951 . S
C1286 C1284 1.388 . S
C1286 C1287 1.366 . S
C1287 C1286 1.366 . S
C1287 C1288 1.414 . S
C1287 C1290 1.499 . S
C1288 H1268 0.950 . S
C1288 C1287 1.414 . S
C1288 C1289 1.374 . S
C1289 H1269 0.950 . S
C1289 C1285 1.385 . S
C1289 C1288 1.374 . S
C1290 C1287 1.499 . S
C1290 C1291 1.373 . S
C1290 C1292 1.389 1_565 S
C1291 H1270 0.950 . S
C1291 C1290 1.373 . S
C1291 C1307 1.377 . S
C1292 C1290 1.389 1_545 S
C1292 C1293 1.524 . S
C1292 C1306 1.377 . S
C1293 C1292 1.524 . S
C1293 C1294 1.397 . S
C1293 C1298 1.363 . S
C1294 H1271 0.950 . S
C1294 C1293 1.397 . S
C1294 C1295 1.334 . S
C1295 H1272 0.950 . S
C1295 C1294 1.334 . S
C1295 C1296 1.287 . S
C1296 C1295 1.287 . S
C1296 C1297 1.524 . S
C1296 H1315 0.913 . S
C1297 H1273 0.950 . S
C1297 C1296 1.524 . S
C1297 C1298 1.415 . S
C1298 H1274 0.950 . S
C1298 C1293 1.363 . S
C1298 C1297 1.415 . S
C1299 H1275 0.935 1_565 S
C1299 C1300 1.408 . S
C1299 C1301 1.367 . S
C1300 C1299 1.408 . S
C1300 C1304 1.385 . S
C1301 H1276 0.960 . S
C1301 C1299 1.367 . S
C1301 C1302 1.366 . S
C1302 C1301 1.366 . S
C1302 C1303 1.414 . S
C1302 C1305 1.499 . S
C1303 H1277 0.950 . S
C1303 C1302 1.414 . S
C1303 C1304 1.374 . S
C1304 H1278 0.950 . S
C1304 C1300 1.385 . S
C1304 C1303 1.374 . S
C1305 C1302 1.499 . S
C1305 C1306 1.373 1_565 S
C1305 C1307 1.389 . S
C1306 H1279 0.950 . S
C1306 C1292 1.377 . S
C1306 C1305 1.373 1_545 S
C1307 C1291 1.377 . S
C1307 C1305 1.389 . S
C1307 C1308 1.524 . S
C1308 C1307 1.524 . S
C1308 C1309 1.397 . S
C1308 C1313 1.363 . S
C1309 H1280 0.950 . S
C1309 C1308 1.397 . S
C1309 C1310 1.334 . S
C1310 H1281 0.950 . S
C1310 C1309 1.334 . S
C1310 C1311 1.287 . S
C1311 C1310 1.287 . S
C1311 C1312 1.524 . S
C1311 H1314 0.999 . S
C1312 H1282 0.950 . S
C1312 C1311 1.524 . S
C1312 C1313 1.415 . S
C1313 H1283 0.950 . S
C1313 C1308 1.363 . S
C1313 C1312 1.415 . S
H1314 C1311 0.999 . S
H1315 C1296 0.913 . S
H1316 C1334 0.951 1_655 S
H1317 C1336 0.948 . S
H1318 C1338 0.950 . S
H1319 C1339 0.950 . S
H1320 C1341 0.950 . S
H1321 C1344 0.942 . S
H1322 C1345 0.950 . S
H1323 C1347 0.950 . S
H1324 C1348 0.950 . S
H1325 C1349 0.951 . S
H1326 C1351 0.951 . S
H1327 C1353 0.950 . S
H1328 C1354 0.950 . S
H1329 C1356 0.950 . S
H1330 C1359 0.950 . S
H1331 C1360 0.950 . S
H1332 C1362 0.950 . S
H1333 C1363 0.950 . S
C1334 H1316 0.951 1_455 S
C1334 C1335 1.366 . S
C1334 C1336 1.389 1_455 S
C1335 C1334 1.366 . S
C1335 C1339 1.385 . S
C1336 H1317 0.948 . S
C1336 C1334 1.389 1_655 S
C1336 C1337 1.367 1_655 S
C1337 C1336 1.367 1_455 S
C1337 C1338 1.414 . S
C1337 C1340 1.499 . S
C1338 H1318 0.950 . S
C1338 C1337 1.414 . S
C1338 C1339 1.374 . S
C1339 H1319 0.950 . S
C1339 C1335 1.385 . S
C1339 C1338 1.374 . S
C1340 C1337 1.499 . S
C1340 C1341 1.373 . S
C1340 C1342 1.389 1_455 S
C1341 H1320 0.950 . S
C1341 C1340 1.373 . S
C1341 C1357 1.377 . S
C1342 C1340 1.389 1_655 S
C1342 C1343 1.524 . S
C1342 C1356 1.377 . S
C1343 C1342 1.524 . S
C1343 C1344 1.397 . S
C1343 C1348 1.363 . S
C1344 H1321 0.942 . S
C1344 C1343 1.397 . S
C1344 C1345 1.334 . S
C1345 H1322 0.950 . S
C1345 C1344 1.334 . S
C1345 C1346 1.287 . S
C1346 C1345 1.287 . S
C1346 C1347 1.524 . S
C1346 H1365 0.913 . S
C1347 H1323 0.950 . S
C1347 C1346 1.524 . S
C1347 C1348 1.415 . S
C1348 H1324 0.950 . S
C1348 C1343 1.363 . S
C1348 C1347 1.415 . S
C1349 H1325 0.951 . S
C1349 C1350 1.366 . S
C1349 C1351 1.388 . S
C1350 C1349 1.366 . S
C1350 C1354 1.385 1_455 S
C1351 H1326 0.951 . S
C1351 C1349 1.388 . S
C1351 C1352 1.366 . S
C1352 C1351 1.366 . S
C1352 C1353 1.414 1_455 S
C1352 C1355 1.499 . S
C1353 H1327 0.950 . S
C1353 C1352 1.414 1_655 S
C1353 C1354 1.374 . S
C1354 H1328 0.950 . S
C1354 C1350 1.385 1_655 S
C1354 C1353 1.374 . S
C1355 C1352 1.499 . S
C1355 C1356 1.373 1_455 S
C1355 C1357 1.389 . S
C1356 H1329 0.950 . S
C1356 C1342 1.377 . S
C1356 C1355 1.373 1_655 S
C1357 C1341 1.377 . S
C1357 C1355 1.389 . S
C1357 C1358 1.524 . S
C1358 C1357 1.524 . S
C1358 C1359 1.397 . S
C1358 C1363 1.363 . S
C1359 H1330 0.950 . S
C1359 C1358 1.397 . S
C1359 C1360 1.334 . S
C1360 H1331 0.950 . S
C1360 C1359 1.334 . S
C1360 C1361 1.287 . S
C1361 C1360 1.287 . S
C1361 C1362 1.524 . S
C1361 H1364 0.999 . S
C1362 H1332 0.950 . S
C1362 C1361 1.524 . S
C1362 C1363 1.415 . S
C1363 H1333 0.950 . S
C1363 C1358 1.363 . S
C1363 C1362 1.415 . S
H1364 C1361 0.999 . S
H1365 C1346 0.913 . S
H1366 C1384 0.951 . S
H1367 C1386 0.951 . S
H1368 C1388 0.950 . S
H1369 C1389 0.950 . S
H1370 C1391 0.950 . S
H1371 C1394 0.950 . S
H1372 C1395 0.950 . S
H1373 C1397 0.950 . S
H1374 C1398 0.950 . S
H1375 C1399 0.951 . S
H1376 C1401 0.951 . S
H1377 C1403 0.950 . S
H1378 C1404 0.950 . S
H1379 C1406 0.950 . S
H1380 C1409 0.950 . S
H1381 C1410 0.950 . S
H1382 C1412 0.950 . S
H1383 C1413 0.950 . S
C1384 H1366 0.951 . S
C1384 C1385 1.366 . S
C1384 C1386 1.388 . S
C1385 C1384 1.366 . S
C1385 C1389 1.385 . S
C1386 H1367 0.951 . S
C1386 C1384 1.388 . S
C1386 C1387 1.366 . S
C1387 C1386 1.366 . S
C1387 C1388 1.414 . S
C1387 C1390 1.499 . S
C1388 H1368 0.950 . S
C1388 C1387 1.414 . S
C1388 C1389 1.374 . S
C1389 H1369 0.950 . S
C1389 C1385 1.385 . S
C1389 C1388 1.374 . S
C1390 C1387 1.499 . S
C1390 C1391 1.373 . S
C1390 C1392 1.389 . S
C1391 H1370 0.950 . S
C1391 C1390 1.373 . S
C1391 C1407 1.377 . S
C1392 C1390 1.389 . S
C1392 C1393 1.524 . S
C1392 C1406 1.377 . S
C1393 C1392 1.524 . S
C1393 C1394 1.397 . S
C1393 C1398 1.363 . S
C1394 H1371 0.950 . S
C1394 C1393 1.397 . S
C1394 C1395 1.334 . S
C1395 H1372 0.950 . S
C1395 C1394 1.334 . S
C1395 C1396 1.287 . S
C1396 C1395 1.287 . S
C1396 C1397 1.524 . S
C1396 H1415 0.913 . S
C1397 H1373 0.950 . S
C1397 C1396 1.524 . S
C1397 C1398 1.415 . S
C1398 H1374 0.950 . S
C1398 C1393 1.363 . S
C1398 C1397 1.415 . S
C1399 H1375 0.951 . S
C1399 C1400 1.366 . S
C1399 C1401 1.388 . S
C1400 C1399 1.366 . S
C1400 C1404 1.385 . S
C1401 H1376 0.951 . S
C1401 C1399 1.388 . S
C1401 C1402 1.366 . S
C1402 C1401 1.366 . S
C1402 C1403 1.414 . S
C1402 C1405 1.499 . S
C1403 H1377 0.950 . S
C1403 C1402 1.414 . S
C1403 C1404 1.374 . S
C1404 H1378 0.950 . S
C1404 C1400 1.385 . S
C1404 C1403 1.374 . S
C1405 C1402 1.499 . S
C1405 C1406 1.373 . S
C1405 C1407 1.389 . S
C1406 H1379 0.950 . S
C1406 C1392 1.377 . S
C1406 C1405 1.373 . S
C1407 C1391 1.377 . S
C1407 C1405 1.389 . S
C1407 C1408 1.524 . S
C1408 C1407 1.524 . S
C1408 C1409 1.397 . S
C1408 C1413 1.363 . S
C1409 H1380 0.950 . S
C1409 C1408 1.397 . S
C1409 C1410 1.334 . S
C1410 H1381 0.950 . S
C1410 C1409 1.334 . S
C1410 C1411 1.287 . S
C1411 C1410 1.287 . S
C1411 C1412 1.524 . S
C1411 H1414 0.999 . S
C1412 H1382 0.950 . S
C1412 C1411 1.524 . S
C1412 C1413 1.415 . S
C1413 H1383 0.950 . S
C1413 C1408 1.363 . S
C1413 C1412 1.415 . S
H1414 C1411 0.999 . S
H1415 C1396 0.913 . S
H1416 C1434 0.951 . S
H1417 C1436 0.951 . S
H1418 C1438 0.972 1_655 S
H1419 C1439 0.952 . S
H1420 C1441 0.950 . S
H1421 C1444 0.950 . S
H1422 C1445 0.950 . S
H1423 C1447 0.950 . S
H1424 C1448 0.972 . S
H1425 C1449 0.939 . S
H1426 C1451 0.950 . S
H1427 C1453 0.950 . S
H1428 C1454 0.950 . S
H1429 C1456 0.995 . S
H1430 C1459 0.950 . S
H1431 C1460 0.950 . S
H1432 C1462 0.950 . S
H1433 C1463 0.950 . S
C1434 H1416 0.951 . S
C1434 C1435 1.366 . S
C1434 C1436 1.388 . S
C1435 C1434 1.366 . S
C1435 C1439 1.385 . S
C1436 H1417 0.951 . S
C1436 C1434 1.388 . S
C1436 C1437 1.366 . S
C1437 C1436 1.366 . S
C1437 C1438 1.414 . S
C1437 C1440 1.499 . S
C1438 H1418 0.972 1_455 S
C1438 C1437 1.414 . S
C1438 C1439 1.374 . S
C1439 H1419 0.952 . S
C1439 C1435 1.385 . S
C1439 C1438 1.374 . S
C1440 C1437 1.499 . S
C1440 C1441 1.373 . S
C1440 C1442 1.389 1_455 S
C1441 H1420 0.950 . S
C1441 C1440 1.373 . S
C1441 C1457 1.377 . S
C1442 C1440 1.389 1_655 S
C1442 C1443 1.524 . S
C1442 C1456 1.421 . S
C1443 C1442 1.524 . S
C1443 C1444 1.397 . S
C1443 C1448 1.363 . S
C1444 H1421 0.950 . S
C1444 C1443 1.397 . S
C1444 C1445 1.334 . S
C1445 H1422 0.950 . S
C1445 C1444 1.334 . S
C1445 C1446 1.287 . S
C1446 C1445 1.287 . S
C1446 C1447 1.524 . S
C1446 H1465 0.913 . S
C1447 H1423 0.950 . S
C1447 C1446 1.524 . S
C1447 C1448 1.415 . S
C1448 H1424 0.972 . S
C1448 C1443 1.363 . S
C1448 C1447 1.415 . S
C1449 H1425 0.939 . S
C1449 C1450 1.353 1_655 S
C1449 C1451 1.424 . S
C1450 C1449 1.353 1_455 S
C1450 C1454 1.385 . S
C1451 H1426 0.950 . S
C1451 C1449 1.424 . S
C1451 C1452 1.365 1_655 S
C1452 C1451 1.365 1_455 S
C1452 C1453 1.414 . S
C1452 C1455 1.499 . S
C1453 H1427 0.950 . S
C1453 C1452 1.414 . S
C1453 C1454 1.374 . S
C1454 H1428 0.950 . S
C1454 C1450 1.385 . S
C1454 C1453 1.374 . S
C1455 C1452 1.499 . S
C1455 C1456 1.293 1_455 S
C1455 C1457 1.389 . S
C1456 H1429 0.995 . S
C1456 C1442 1.421 . S
C1456 C1455 1.293 1_655 S
C1457 C1441 1.377 . S
C1457 C1455 1.389 . S
C1457 C1458 1.524 . S
C1458 C1457 1.524 . S
C1458 C1459 1.397 . S
C1458 C1463 1.363 . S
C1459 H1430 0.950 . S
C1459 C1458 1.397 . S
C1459 C1460 1.334 . S
C1460 H1431 0.950 . S
C1460 C1459 1.334 . S
C1460 C1461 1.287 . S
C1461 C1460 1.287 . S
C1461 C1462 1.524 . S
C1461 H1464 0.999 . S
C1462 H1432 0.950 . S
C1462 C1461 1.524 . S
C1462 C1463 1.415 . S
C1463 H1433 0.950 . S
C1463 C1458 1.363 . S
C1463 C1462 1.415 . S
H1464 C1461 0.999 . S
H1465 C1446 0.913 . S
H1466 C1484 0.951 . S
H1467 C1486 0.951 . S
H1468 C1488 0.950 . S
H1469 C1489 0.950 . S
H1470 C1491 0.950 . S
H1471 C1494 0.950 . S
H1472 C1495 0.950 . S
H1473 C1497 0.950 . S
H1474 C1498 0.950 . S
H1475 C1499 0.951 . S
H1476 C1501 0.951 . S
H1477 C1503 0.950 . S
H1478 C1504 0.950 . S
H1479 C1506 0.950 . S
H1480 C1509 0.950 . S
H1481 C1510 0.950 . S
H1482 C1512 0.950 . S
H1483 C1513 0.950 . S
C1484 H1466 0.951 . S
C1484 C1485 1.366 . S
C1484 C1486 1.388 . S
C1485 C1484 1.366 . S
C1485 C1489 1.385 . S
C1486 H1467 0.951 . S
C1486 C1484 1.388 . S
C1486 C1487 1.366 . S
C1487 C1486 1.366 . S
C1487 C1488 1.414 . S
C1487 C1490 1.499 . S
C1488 H1468 0.950 . S
C1488 C1487 1.414 . S
C1488 C1489 1.374 . S
C1489 H1469 0.950 . S
C1489 C1485 1.385 . S
C1489 C1488 1.374 . S
C1490 C1487 1.499 . S
C1490 C1491 1.373 . S
C1490 C1492 1.389 . S
C1491 H1470 0.950 . S
C1491 C1490 1.373 . S
C1491 C1507 1.377 . S
C1492 C1490 1.389 . S
C1492 C1493 1.524 . S
C1492 C1506 1.377 . S
C1493 C1492 1.524 . S
C1493 C1494 1.397 . S
C1493 C1498 1.363 . S
C1494 H1471 0.950 . S
C1494 C1493 1.397 . S
C1494 C1495 1.334 . S
C1495 H1472 0.950 . S
C1495 C1494 1.334 . S
C1495 C1496 1.287 . S
C1496 C1495 1.287 . S
C1496 C1497 1.524 . S
C1496 H1515 0.913 . S
C1497 H1473 0.950 . S
C1497 C1496 1.524 . S
C1497 C1498 1.415 . S
C1498 H1474 0.950 . S
C1498 C1493 1.363 . S
C1498 C1497 1.415 . S
C1499 H1475 0.951 . S
C1499 C1500 1.366 . S
C1499 C1501 1.388 . S
C1500 C1499 1.366 . S
C1500 C1504 1.385 . S
C1501 H1476 0.951 . S
C1501 C1499 1.388 . S
C1501 C1502 1.366 . S
C1502 C1501 1.366 . S
C1502 C1503 1.414 . S
C1502 C1505 1.499 . S
C1503 H1477 0.950 . S
C1503 C1502 1.414 . S
C1503 C1504 1.374 . S
C1504 H1478 0.950 . S
C1504 C1500 1.385 . S
C1504 C1503 1.374 . S
C1505 C1502 1.499 . S
C1505 C1506 1.373 . S
C1505 C1507 1.389 . S
C1506 H1479 0.950 . S
C1506 C1492 1.377 . S
C1506 C1505 1.373 . S
C1507 C1491 1.377 . S
C1507 C1505 1.389 . S
C1507 C1508 1.524 . S
C1508 C1507 1.524 . S
C1508 C1509 1.397 . S
C1508 C1513 1.363 . S
C1509 H1480 0.950 . S
C1509 C1508 1.397 . S
C1509 C1510 1.334 . S
C1510 H1481 0.950 . S
C1510 C1509 1.334 . S
C1510 C1511 1.287 . S
C1511 C1510 1.287 . S
C1511 C1512 1.524 . S
C1511 H1514 0.999 . S
C1512 H1482 0.950 . S
C1512 C1511 1.524 . S
C1512 C1513 1.415 . S
C1513 H1483 0.950 . S
C1513 C1508 1.363 . S
C1513 C1512 1.415 . S
H1514 C1511 0.999 . S
H1515 C1496 0.913 . S
H1516 C1534 0.951 . S
H1517 C1536 0.951 . S
H1518 C1538 0.950 . S
H1519 C1539 0.950 . S
H1520 C1541 0.950 . S
H1521 C1544 0.950 . S
H1522 C1545 0.950 . S
H1523 C1547 0.950 . S
H1524 C1548 0.950 . S
H1525 C1549 0.951 . S
H1526 C1551 0.951 . S
H1527 C1553 0.950 . S
H1528 C1554 0.950 . S
H1529 C1556 0.950 . S
H1530 C1559 0.950 . S
H1531 C1560 0.950 . S
H1532 C1562 0.950 . S
H1533 C1563 0.950 . S
C1534 H1516 0.951 . S
C1534 C1535 1.366 . S
C1534 C1536 1.388 . S
C1535 C1534 1.366 . S
C1535 C1539 1.385 1_565 S
C1536 H1517 0.951 . S
C1536 C1534 1.388 . S
C1536 C1537 1.366 . S
C1537 C1536 1.366 . S
C1537 C1538 1.414 1_565 S
C1537 C1540 1.499 . S
C1538 H1518 0.950 . S
C1538 C1537 1.414 1_545 S
C1538 C1539 1.374 . S
C1539 H1519 0.950 . S
C1539 C1535 1.385 1_545 S
C1539 C1538 1.374 . S
C1540 C1537 1.499 . S
C1540 C1541 1.373 1_565 S
C1540 C1542 1.389 . S
C1541 H1520 0.950 . S
C1541 C1540 1.373 1_545 S
C1541 C1557 1.377 . S
C1542 C1540 1.389 . S
C1542 C1543 1.524 . S
C1542 C1556 1.377 . S
C1543 C1542 1.524 . S
C1543 C1544 1.397 . S
C1543 C1548 1.363 . S
C1544 H1521 0.950 . S
C1544 C1543 1.397 . S
C1544 C1545 1.334 . S
C1545 H1522 0.950 . S
C1545 C1544 1.334 . S
C1545 C1546 1.287 . S
C1546 C1545 1.287 . S
C1546 C1547 1.524 . S
C1546 H1565 0.913 . S
C1547 H1523 0.950 . S
C1547 C1546 1.524 . S
C1547 C1548 1.415 . S
C1548 H1524 0.950 . S
C1548 C1543 1.363 . S
C1548 C1547 1.415 . S
C1549 H1525 0.951 . S
C1549 C1550 1.366 1_545 S
C1549 C1551 1.388 . S
C1550 C1549 1.366 1_565 S
C1550 C1554 1.385 . S
C1551 H1526 0.951 . S
C1551 C1549 1.388 . S
C1551 C1552 1.366 1_545 S
C1552 C1551 1.366 1_565 S
C1552 C1553 1.414 . S
C1552 C1555 1.499 . S
C1553 H1527 0.950 . S
C1553 C1552 1.414 . S
C1553 C1554 1.374 . S
C1554 H1528 0.950 . S
C1554 C1550 1.385 . S
C1554 C1553 1.374 . S
C1555 C1552 1.499 . S
C1555 C1556 1.373 . S
C1555 C1557 1.389 1_565 S
C1556 H1529 0.950 . S
C1556 C1542 1.377 . S
C1556 C1555 1.373 . S
C1557 C1541 1.377 . S
C1557 C1555 1.389 1_545 S
C1557 C1558 1.524 . S
C1558 C1557 1.524 . S
C1558 C1559 1.397 . S
C1558 C1563 1.363 . S
C1559 H1530 0.950 . S
C1559 C1558 1.397 . S
C1559 C1560 1.334 . S
C1560 H1531 0.950 . S
C1560 C1559 1.334 . S
C1560 C1561 1.287 . S
C1561 C1560 1.287 . S
C1561 C1562 1.524 . S
C1561 H1564 0.999 . S
C1562 H1532 0.950 . S
C1562 C1561 1.524 . S
C1562 C1563 1.415 . S
C1563 H1533 0.950 . S
C1563 C1558 1.363 . S
C1563 C1562 1.415 . S
H1564 C1561 0.999 . S
H1565 C1546 0.913 . S
H1566 C1584 0.996 . S
H1567 C1586 0.951 . S
H1568 C1588 0.950 . S
H1569 C1589 0.950 . S
H1570 C1591 0.950 . S
H1571 C1594 0.950 . S
H1572 C1595 0.950 1_545 S
H1573 C1597 0.950 . S
H1574 C1598 0.950 . S
H1575 C1599 0.951 . S
H1576 C1601 0.951 . S
H1577 C1603 0.950 . S
H1578 C1604 0.950 . S
H1579 C1606 0.955 . S
H1580 C1609 0.950 . S
H1581 C1610 0.950 . S
H1582 C1612 0.950 . S
H1583 C1613 0.950 . S
C1584 H1566 0.996 . S
C1584 C1585 1.339 1_565 S
C1584 C1586 1.372 . S
C1585 C1584 1.339 1_545 S
C1585 C1589 1.385 . S
C1586 H1567 0.951 . S
C1586 C1584 1.372 . S
C1586 C1587 1.366 1_565 S
C1587 C1586 1.366 1_545 S
C1587 C1588 1.414 . S
C1587 C1590 1.499 . S
C1588 H1568 0.950 . S
C1588 C1587 1.414 . S
C1588 C1589 1.374 . S
C1589 H1569 0.950 . S
C1589 C1585 1.385 . S
C1589 C1588 1.374 . S
C1590 C1587 1.499 . S
C1590 C1591 1.373 . S
C1590 C1592 1.389 . S
C1591 H1570 0.950 . S
C1591 C1590 1.373 . S
C1591 C1607 1.377 . S
C1592 C1590 1.389 . S
C1592 C1593 1.524 1_545 S
C1592 C1606 1.387 1_545 S
C1593 C1592 1.524 1_565 S
C1593 C1594 1.397 1_565 S
C1593 C1598 1.363 . S
C1594 H1571 0.950 . S
C1594 C1593 1.397 1_545 S
C1594 C1595 1.334 1_545 S
C1595 H1572 0.950 1_565 S
C1595 C1594 1.334 1_565 S
C1595 C1596 1.287 . S
C1596 C1595 1.287 . S
C1596 C1597 1.524 . S
C1596 H1615 0.913 . S
C1597 H1573 0.950 . S
C1597 C1596 1.524 . S
C1597 C1598 1.415 . S
C1598 H1574 0.950 . S
C1598 C1593 1.363 . S
C1598 C1597 1.415 . S
C1599 H1575 0.951 . S
C1599 C1600 1.366 . S
C1599 C1601 1.388 . S
C1600 C1599 1.366 . S
C1600 C1604 1.385 1_545 S
C1601 H1576 0.951 . S
C1601 C1599 1.388 . S
C1601 C1602 1.366 . S
C1602 C1601 1.366 . S
C1602 C1603 1.414 1_545 S
C1602 C1605 1.499 . S
C1603 H1577 0.950 . S
C1603 C1602 1.414 1_565 S
C1603 C1604 1.374 . S
C1604 H1578 0.950 . S
C1604 C1600 1.385 1_565 S
C1604 C1603 1.374 . S
C1605 C1602 1.499 . S
C1605 C1606 1.360 1_545 S
C1605 C1607 1.389 . S
C1606 H1579 0.955 . S
C1606 C1592 1.387 1_565 S
C1606 C1605 1.360 1_565 S
C1607 C1591 1.377 . S
C1607 C1605 1.389 . S
C1607 C1608 1.524 . S
C1608 C1607 1.524 . S
C1608 C1609 1.397 . S
C1608 C1613 1.363 . S
C1609 H1580 0.950 . S
C1609 C1608 1.397 . S
C1609 C1610 1.334 . S
C1610 H1581 0.950 . S
C1610 C1609 1.334 . S
C1610 C1611 1.287 . S
C1611 C1610 1.287 . S
C1611 C1612 1.524 . S
C1611 H1614 0.999 . S
C1612 H1582 0.950 . S
C1612 C1611 1.524 . S
C1612 C1613 1.415 . S
C1613 H1583 0.950 . S
C1613 C1608 1.363 . S
C1613 C1612 1.415 . S
H1614 C1611 0.999 . S
H1615 C1596 0.913 . S
H1616 C1634 0.951 . S
H1617 C1636 0.951 . S
H1618 C1638 0.950 . S
H1619 C1639 0.950 . S
H1620 C1641 0.950 . S
H1621 C1644 0.990 . S
H1622 C1645 0.950 1_655 S
H1623 C1647 0.950 . S
H1624 C1648 0.950 . S
H1625 C1649 0.951 . S
H1626 C1651 0.951 . S
H1627 C1653 0.950 . S
H1628 C1654 0.950 . S
H1629 C1656 0.950 . S
H1630 C1659 0.946 . S
H1631 C1660 0.950 . S
H1632 C1662 0.950 . S
H1633 C1663 0.950 . S
C1634 H1616 0.951 . S
C1634 C1635 1.366 1_455 S
C1634 C1636 1.388 . S
C1635 C1634 1.366 1_655 S
C1635 C1639 1.385 . S
C1636 H1617 0.951 . S
C1636 C1634 1.388 . S
C1636 C1637 1.366 1_455 S
C1637 C1636 1.366 1_655 S
C1637 C1638 1.414 . S
C1637 C1640 1.499 . S
C1638 H1618 0.950 . S
C1638 C1637 1.414 . S
C1638 C1639 1.374 . S
C1639 H1619 0.950 . S
C1639 C1635 1.385 . S
C1639 C1638 1.374 . S
C1640 C1637 1.499 . S
C1640 C1641 1.373 . S
C1640 C1642 1.389 1_655 S
C1641 H1620 0.950 . S
C1641 C1640 1.373 . S
C1641 C1657 1.377 . S
C1642 C1640 1.389 1_455 S
C1642 C1643 1.524 . S
C1642 C1656 1.377 . S
C1643 C1642 1.524 . S
C1643 C1644 1.375 1_455 S
C1643 C1648 1.363 . S
C1644 H1621 0.990 . S
C1644 C1643 1.375 1_655 S
C1644 C1645 1.318 1_655 S
C1645 H1622 0.950 1_455 S
C1645 C1644 1.318 1_455 S
C1645 C1646 1.287 . S
C1646 C1645 1.287 . S
C1646 C1647 1.524 . S
C1646 H1665 0.913 . S
C1647 H1623 0.950 . S
C1647 C1646 1.524 . S
C1647 C1648 1.415 . S
C1648 H1624 0.950 . S
C1648 C1643 1.363 . S
C1648 C1647 1.415 . S
C1649 H1625 0.951 . S
C1649 C1650 1.366 . S
C1649 C1651 1.388 . S
C1650 C1649 1.366 . S
C1650 C1654 1.385 1_655 S
C1651 H1626 0.951 . S
C1651 C1649 1.388 . S
C1651 C1652 1.366 . S
C1652 C1651 1.366 . S
C1652 C1653 1.414 1_655 S
C1652 C1655 1.499 . S
C1653 H1627 0.950 . S
C1653 C1652 1.414 1_455 S
C1653 C1654 1.374 . S
C1654 H1628 0.950 . S
C1654 C1650 1.385 1_455 S
C1654 C1653 1.374 . S
C1655 C1652 1.499 . S
C1655 C1656 1.373 1_655 S
C1655 C1657 1.389 . S
C1656 H1629 0.950 . S
C1656 C1642 1.377 . S
C1656 C1655 1.373 1_455 S
C1657 C1641 1.377 . S
C1657 C1655 1.389 . S
C1657 C1658 1.524 . S
C1658 C1657 1.524 . S
C1658 C1659 1.397 . S
C1658 C1663 1.363 . S
C1659 H1630 0.946 . S
C1659 C1658 1.397 . S
C1659 C1660 1.334 . S
C1660 H1631 0.950 . S
C1660 C1659 1.334 . S
C1660 C1661 1.287 . S
C1661 C1660 1.287 . S
C1661 C1662 1.524 . S
C1661 H1664 0.999 . S
C1662 H1632 0.950 . S
C1662 C1661 1.524 . S
C1662 C1663 1.415 . S
C1663 H1633 0.950 . S
C1663 C1658 1.363 . S
C1663 C1662 1.415 . S
H1664 C1661 0.999 . S
H1665 C1646 0.913 . S
H1666 C1684 0.951 . S
H1667 C1686 0.951 . S
H1668 C1688 0.950 . S
H1669 C1689 0.950 . S
H1670 C1691 0.950 . S
H1671 C1694 0.950 . S
H1672 C1695 0.950 . S
H1673 C1697 0.950 . S
H1674 C1698 0.950 . S
H1675 C1699 0.951 . S
H1676 C1701 0.951 . S
H1677 C1703 0.950 . S
H1678 C1704 0.950 . S
H1679 C1706 0.950 . S
H1680 C1709 0.950 . S
H1681 C1710 0.950 . S
H1682 C1712 0.950 . S
H1683 C1713 0.950 . S
C1684 H1666 0.951 . S
C1684 C1685 1.366 . S
C1684 C1686 1.388 . S
C1685 C1684 1.366 . S
C1685 C1689 1.385 . S
C1686 H1667 0.951 . S
C1686 C1684 1.388 . S
C1686 C1687 1.366 . S
C1687 C1686 1.366 . S
C1687 C1688 1.414 . S
C1687 C1690 1.499 . S
C1688 H1668 0.950 . S
C1688 C1687 1.414 . S
C1688 C1689 1.374 . S
C1689 H1669 0.950 . S
C1689 C1685 1.385 . S
C1689 C1688 1.374 . S
C1690 C1687 1.499 . S
C1690 C1691 1.373 . S
C1690 C1692 1.389 . S
C1691 H1670 0.950 . S
C1691 C1690 1.373 . S
C1691 C1707 1.377 . S
C1692 C1690 1.389 . S
C1692 C1693 1.524 . S
C1692 C1706 1.377 . S
C1693 C1692 1.524 . S
C1693 C1694 1.397 . S
C1693 C1698 1.363 . S
C1694 H1671 0.950 . S
C1694 C1693 1.397 . S
C1694 C1695 1.334 . S
C1695 H1672 0.950 . S
C1695 C1694 1.334 . S
C1695 C1696 1.287 . S
C1696 C1695 1.287 . S
C1696 C1697 1.524 . S
C1696 H1715 0.913 . S
C1697 H1673 0.950 . S
C1697 C1696 1.524 . S
C1697 C1698 1.415 . S
C1698 H1674 0.950 . S
C1698 C1693 1.363 . S
C1698 C1697 1.415 . S
C1699 H1675 0.951 . S
C1699 C1700 1.366 . S
C1699 C1701 1.388 . S
C1700 C1699 1.366 . S
C1700 C1704 1.385 . S
C1701 H1676 0.951 . S
C1701 C1699 1.388 . S
C1701 C1702 1.366 . S
C1702 C1701 1.366 . S
C1702 C1703 1.414 . S
C1702 C1705 1.499 . S
C1703 H1677 0.950 . S
C1703 C1702 1.414 . S
C1703 C1704 1.374 . S
C1704 H1678 0.950 . S
C1704 C1700 1.385 . S
C1704 C1703 1.374 . S
C1705 C1702 1.499 . S
C1705 C1706 1.373 . S
C1705 C1707 1.389 . S
C1706 H1679 0.950 . S
C1706 C1692 1.377 . S
C1706 C1705 1.373 . S
C1707 C1691 1.377 . S
C1707 C1705 1.389 . S
C1707 C1708 1.524 . S
C1708 C1707 1.524 . S
C1708 C1709 1.397 . S
C1708 C1713 1.363 . S
C1709 H1680 0.950 . S
C1709 C1708 1.397 . S
C1709 C1710 1.334 . S
C1710 H1681 0.950 . S
C1710 C1709 1.334 . S
C1710 C1711 1.287 . S
C1711 C1710 1.287 . S
C1711 C1712 1.524 . S
C1711 H1714 0.999 . S
C1712 H1682 0.950 . S
C1712 C1711 1.524 . S
C1712 C1713 1.415 . S
C1713 H1683 0.950 . S
C1713 C1708 1.363 . S
C1713 C1712 1.415 . S
H1714 C1711 0.999 . S
H1715 C1696 0.913 . S
H1716 C1734 0.951 . S
H1717 C1736 0.951 . S
H1718 C1738 0.950 . S
H1719 C1739 0.950 . S
H1720 C1741 0.950 . S
H1721 C1744 0.950 . S
H1722 C1745 0.950 . S
H1723 C1747 0.950 . S
H1724 C1748 0.950 . S
H1725 C1749 0.951 . S
H1726 C1751 0.951 . S
H1727 C1753 0.950 . S
H1728 C1754 0.950 . S
H1729 C1756 0.950 . S
H1730 C1759 0.950 . S
H1731 C1760 0.950 . S
H1732 C1762 0.950 . S
H1733 C1763 0.950 . S
C1734 H1716 0.951 . S
C1734 C1735 1.366 . S
C1734 C1736 1.388 . S
C1735 C1734 1.366 . S
C1735 C1739 1.385 . S
C1736 H1717 0.951 . S
C1736 C1734 1.388 . S
C1736 C1737 1.366 . S
C1737 C1736 1.366 . S
C1737 C1738 1.414 . S
C1737 C1740 1.499 . S
C1738 H1718 0.950 . S
C1738 C1737 1.414 . S
C1738 C1739 1.374 . S
C1739 H1719 0.950 . S
C1739 C1735 1.385 . S
C1739 C1738 1.374 . S
C1740 C1737 1.499 . S
C1740 C1741 1.373 . S
C1740 C1742 1.389 . S
C1741 H1720 0.950 . S
C1741 C1740 1.373 . S
C1741 C1757 1.377 . S
C1742 C1740 1.389 . S
C1742 C1743 1.524 . S
C1742 C1756 1.377 . S
C1743 C1742 1.524 . S
C1743 C1744 1.397 . S
C1743 C1748 1.363 . S
C1744 H1721 0.950 . S
C1744 C1743 1.397 . S
C1744 C1745 1.334 . S
C1745 H1722 0.950 . S
C1745 C1744 1.334 . S
C1745 C1746 1.287 . S
C1746 C1745 1.287 . S
C1746 C1747 1.524 . S
C1746 H1765 0.913 . S
C1747 H1723 0.950 . S
C1747 C1746 1.524 . S
C1747 C1748 1.415 . S
C1748 H1724 0.950 . S
C1748 C1743 1.363 . S
C1748 C1747 1.415 . S
C1749 H1725 0.951 . S
C1749 C1750 1.366 . S
C1749 C1751 1.388 . S
C1750 C1749 1.366 . S
C1750 C1754 1.385 . S
C1751 H1726 0.951 . S
C1751 C1749 1.388 . S
C1751 C1752 1.366 . S
C1752 C1751 1.366 . S
C1752 C1753 1.414 . S
C1752 C1755 1.499 . S
C1753 H1727 0.950 . S
C1753 C1752 1.414 . S
C1753 C1754 1.374 . S
C1754 H1728 0.950 . S
C1754 C1750 1.385 . S
C1754 C1753 1.374 . S
C1755 C1752 1.499 . S
C1755 C1756 1.373 . S
C1755 C1757 1.389 . S
C1756 H1729 0.950 . S
C1756 C1742 1.377 . S
C1756 C1755 1.373 . S
C1757 C1741 1.377 . S
C1757 C1755 1.389 . S
C1757 C1758 1.524 . S
C1758 C1757 1.524 . S
C1758 C1759 1.397 . S
C1758 C1763 1.363 . S
C1759 H1730 0.950 . S
C1759 C1758 1.397 . S
C1759 C1760 1.334 . S
C1760 H1731 0.950 . S
C1760 C1759 1.334 . S
C1760 C1761 1.287 . S
C1761 C1760 1.287 . S
C1761 C1762 1.524 . S
C1761 H1764 0.999 . S
C1762 H1732 0.950 . S
C1762 C1761 1.524 . S
C1762 C1763 1.415 . S
C1763 H1733 0.950 . S
C1763 C1758 1.363 . S
C1763 C1762 1.415 . S
H1764 C1761 0.999 . S
H1765 C1746 0.913 . S
H1766 C1784 0.951 . S
H1767 C1786 0.951 . S
H1768 C1788 0.950 . S
H1769 C1789 0.950 . S
H1770 C1791 0.950 . S
H1771 C1794 0.950 . S
H1772 C1795 0.950 . S
H1773 C1797 0.950 . S
H1774 C1798 0.950 . S
H1775 C1799 0.951 . S
H1776 C1801 0.951 . S
H1777 C1803 0.950 . S
H1778 C1804 0.950 . S
H1779 C1806 0.950 . S
H1780 C1809 0.950 . S
H1781 C1810 0.950 . S
H1782 C1812 0.950 . S
H1783 C1813 0.950 . S
C1784 H1766 0.951 . S
C1784 C1785 1.366 . S
C1784 C1786 1.388 . S
C1785 C1784 1.366 . S
C1785 C1789 1.385 . S
C1786 H1767 0.951 . S
C1786 C1784 1.388 . S
C1786 C1787 1.366 . S
C1787 C1786 1.366 . S
C1787 C1788 1.414 . S
C1787 C1790 1.499 . S
C1788 H1768 0.950 . S
C1788 C1787 1.414 . S
C1788 C1789 1.374 . S
C1789 H1769 0.950 . S
C1789 C1785 1.385 . S
C1789 C1788 1.374 . S
C1790 C1787 1.499 . S
C1790 C1791 1.373 . S
C1790 C1792 1.389 . S
C1791 H1770 0.950 . S
C1791 C1790 1.373 . S
C1791 C1807 1.377 . S
C1792 C1790 1.389 . S
C1792 C1793 1.524 . S
C1792 C1806 1.377 . S
C1793 C1792 1.524 . S
C1793 C1794 1.397 . S
C1793 C1798 1.363 . S
C1794 H1771 0.950 . S
C1794 C1793 1.397 . S
C1794 C1795 1.334 . S
C1795 H1772 0.950 . S
C1795 C1794 1.334 . S
C1795 C1796 1.287 . S
C1796 C1795 1.287 . S
C1796 C1797 1.524 . S
C1796 H1815 0.913 . S
C1797 H1773 0.950 . S
C1797 C1796 1.524 . S
C1797 C1798 1.415 . S
C1798 H1774 0.950 . S
C1798 C1793 1.363 . S
C1798 C1797 1.415 . S
C1799 H1775 0.951 . S
C1799 C1800 1.366 . S
C1799 C1801 1.388 . S
C1800 C1799 1.366 . S
C1800 C1804 1.385 . S
C1801 H1776 0.951 . S
C1801 C1799 1.388 . S
C1801 C1802 1.366 . S
C1802 C1801 1.366 . S
C1802 C1803 1.414 . S
C1802 C1805 1.499 . S
C1803 H1777 0.950 . S
C1803 C1802 1.414 . S
C1803 C1804 1.374 . S
C1804 H1778 0.950 . S
C1804 C1800 1.385 . S
C1804 C1803 1.374 . S
C1805 C1802 1.499 . S
C1805 C1806 1.373 . S
C1805 C1807 1.389 . S
C1806 H1779 0.950 . S
C1806 C1792 1.377 . S
C1806 C1805 1.373 . S
C1807 C1791 1.377 . S
C1807 C1805 1.389 . S
C1807 C1808 1.524 . S
C1808 C1807 1.524 . S
C1808 C1809 1.397 . S
C1808 C1813 1.363 . S
C1809 H1780 0.950 . S
C1809 C1808 1.397 . S
C1809 C1810 1.334 . S
C1810 H1781 0.950 . S
C1810 C1809 1.334 . S
C1810 C1811 1.287 . S
C1811 C1810 1.287 . S
C1811 C1812 1.524 . S
C1811 H1814 0.999 . S
C1812 H1782 0.950 . S
C1812 C1811 1.524 . S
C1812 C1813 1.415 . S
C1813 H1783 0.950 . S
C1813 C1808 1.363 . S
C1813 C1812 1.415 . S
H1814 C1811 0.999 . S
H1815 C1796 0.913 . S
H1816 C1834 0.951 . S
H1817 C1836 0.951 . S
H1818 C1838 0.950 . S
H1819 C1839 0.950 . S
H1820 C1841 0.950 . S
H1821 C1844 0.950 . S
H1822 C1845 0.950 . S
H1823 C1847 0.950 . S
H1824 C1848 0.950 . S
H1825 C1849 0.951 . S
H1826 C1851 0.951 . S
H1827 C1853 0.950 . S
H1828 C1854 0.950 . S
H1829 C1856 0.950 . S
H1830 C1859 0.950 . S
H1831 C1860 0.950 . S
H1832 C1862 0.950 . S
H1833 C1863 0.950 . S
C1834 H1816 0.951 . S
C1834 C1835 1.366 . S
C1834 C1836 1.388 . S
C1835 C1834 1.366 . S
C1835 C1839 1.385 . S
C1836 H1817 0.951 . S
C1836 C1834 1.388 . S
C1836 C1837 1.366 . S
C1837 C1836 1.366 . S
C1837 C1838 1.414 . S
C1837 C1840 1.499 . S
C1838 H1818 0.950 . S
C1838 C1837 1.414 . S
C1838 C1839 1.374 . S
C1839 H1819 0.950 . S
C1839 C1835 1.385 . S
C1839 C1838 1.374 . S
C1840 C1837 1.499 . S
C1840 C1841 1.373 . S
C1840 C1842 1.389 . S
C1841 H1820 0.950 . S
C1841 C1840 1.373 . S
C1841 C1857 1.377 . S
C1842 C1840 1.389 . S
C1842 C1843 1.524 . S
C1842 C1856 1.377 . S
C1843 C1842 1.524 . S
C1843 C1844 1.397 . S
C1843 C1848 1.363 . S
C1844 H1821 0.950 . S
C1844 C1843 1.397 . S
C1844 C1845 1.334 . S
C1845 H1822 0.950 . S
C1845 C1844 1.334 . S
C1845 C1846 1.287 . S
C1846 C1845 1.287 . S
C1846 C1847 1.524 . S
C1846 H1865 0.913 . S
C1847 H1823 0.950 . S
C1847 C1846 1.524 . S
C1847 C1848 1.415 . S
C1848 H1824 0.950 . S
C1848 C1843 1.363 . S
C1848 C1847 1.415 . S
C1849 H1825 0.951 . S
C1849 C1850 1.366 . S
C1849 C1851 1.388 . S
C1850 C1849 1.366 . S
C1850 C1854 1.385 . S
C1851 H1826 0.951 . S
C1851 C1849 1.388 . S
C1851 C1852 1.366 . S
C1852 C1851 1.366 . S
C1852 C1853 1.414 . S
C1852 C1855 1.499 . S
C1853 H1827 0.950 . S
C1853 C1852 1.414 . S
C1853 C1854 1.374 . S
C1854 H1828 0.950 . S
C1854 C1850 1.385 . S
C1854 C1853 1.374 . S
C1855 C1852 1.499 . S
C1855 C1856 1.373 . S
C1855 C1857 1.389 . S
C1856 H1829 0.950 . S
C1856 C1842 1.377 . S
C1856 C1855 1.373 . S
C1857 C1841 1.377 . S
C1857 C1855 1.389 . S
C1857 C1858 1.524 . S
C1858 C1857 1.524 . S
C1858 C1859 1.397 . S
C1858 C1863 1.363 . S
C1859 H1830 0.950 . S
C1859 C1858 1.397 . S
C1859 C1860 1.334 . S
C1860 H1831 0.950 . S
C1860 C1859 1.334 . S
C1860 C1861 1.287 . S
C1861 C1860 1.287 . S
C1861 C1862 1.524 . S
C1861 H1864 0.999 . S
C1862 H1832 0.950 . S
C1862 C1861 1.524 . S
C1862 C1863 1.415 . S
C1863 H1833 0.950 . S
C1863 C1858 1.363 . S
C1863 C1862 1.415 . S
H1864 C1861 0.999 . S
H1865 C1846 0.913 . S
H1866 C1884 0.951 . S
H1867 C1886 0.951 . S
H1868 C1888 0.950 . S
H1869 C1889 0.950 . S
H1870 C1891 0.950 . S
H1871 C1894 0.950 . S
H1872 C1895 0.950 . S
H1873 C1897 0.950 . S
H1874 C1898 0.950 . S
H1875 C1899 0.951 . S
H1876 C1901 0.951 . S
H1877 C1903 0.950 . S
H1878 C1904 0.950 . S
H1879 C1906 0.950 . S
H1880 C1909 0.950 . S
H1881 C1910 0.950 . S
H1882 C1912 0.950 . S
H1883 C1913 0.950 . S
C1884 H1866 0.951 . S
C1884 C1885 1.366 . S
C1884 C1886 1.388 . S
C1885 C1884 1.366 . S
C1885 C1889 1.385 . S
C1886 H1867 0.951 . S
C1886 C1884 1.388 . S
C1886 C1887 1.366 . S
C1887 C1886 1.366 . S
C1887 C1888 1.414 . S
C1887 C1890 1.499 . S
C1888 H1868 0.950 . S
C1888 C1887 1.414 . S
C1888 C1889 1.374 . S
C1889 H1869 0.950 . S
C1889 C1885 1.385 . S
C1889 C1888 1.374 . S
C1890 C1887 1.499 . S
C1890 C1891 1.373 . S
C1890 C1892 1.389 . S
C1891 H1870 0.950 . S
C1891 C1890 1.373 . S
C1891 C1907 1.377 . S
C1892 C1890 1.389 . S
C1892 C1893 1.524 . S
C1892 C1906 1.377 . S
C1893 C1892 1.524 . S
C1893 C1894 1.397 . S
C1893 C1898 1.363 . S
C1894 H1871 0.950 . S
C1894 C1893 1.397 . S
C1894 C1895 1.334 . S
C1895 H1872 0.950 . S
C1895 C1894 1.334 . S
C1895 C1896 1.287 . S
C1896 C1895 1.287 . S
C1896 C1897 1.524 . S
C1896 H1915 0.913 . S
C1897 H1873 0.950 . S
C1897 C1896 1.524 . S
C1897 C1898 1.415 . S
C1898 H1874 0.950 . S
C1898 C1893 1.363 . S
C1898 C1897 1.415 . S
C1899 H1875 0.951 . S
C1899 C1900 1.366 . S
C1899 C1901 1.388 . S
C1900 C1899 1.366 . S
C1900 C1904 1.385 . S
C1901 H1876 0.951 . S
C1901 C1899 1.388 . S
C1901 C1902 1.366 . S
C1902 C1901 1.366 . S
C1902 C1903 1.414 . S
C1902 C1905 1.499 . S
C1903 H1877 0.950 . S
C1903 C1902 1.414 . S
C1903 C1904 1.374 . S
C1904 H1878 0.950 . S
C1904 C1900 1.385 . S
C1904 C1903 1.374 . S
C1905 C1902 1.499 . S
C1905 C1906 1.373 . S
C1905 C1907 1.389 . S
C1906 H1879 0.950 . S
C1906 C1892 1.377 . S
C1906 C1905 1.373 . S
C1907 C1891 1.377 . S
C1907 C1905 1.389 . S
C1907 C1908 1.524 . S
C1908 C1907 1.524 . S
C1908 C1909 1.397 . S
C1908 C1913 1.363 . S
C1909 H1880 0.950 . S
C1909 C1908 1.397 . S
C1909 C1910 1.334 . S
C1910 H1881 0.950 . S
C1910 C1909 1.334 . S
C1910 C1911 1.287 . S
C1911 C1910 1.287 . S
C1911 C1912 1.524 . S
C1911 H1914 0.999 . S
C1912 H1882 0.950 . S
C1912 C1911 1.524 . S
C1912 C1913 1.415 . S
C1913 H1883 0.950 . S
C1913 C1908 1.363 . S
C1913 C1912 1.415 . S
H1914 C1911 0.999 . S
H1915 C1896 0.913 . S
H1916 C1934 0.951 . S
H1917 C1936 0.951 . S
H1918 C1938 0.950 . S
H1919 C1939 0.950 . S
H1920 C1941 0.950 . S
H1921 C1944 0.950 . S
H1922 C1945 0.950 . S
H1923 C1947 0.950 . S
H1924 C1948 0.950 . S
H1925 C1949 0.951 . S
H1926 C1951 0.951 . S
H1927 C1953 0.950 . S
H1928 C1954 0.950 . S
H1929 C1956 0.950 . S
H1930 C1959 0.950 . S
H1931 C1960 0.950 . S
H1932 C1962 0.950 . S
H1933 C1963 0.950 . S
C1934 H1916 0.951 . S
C1934 C1935 1.366 . S
C1934 C1936 1.388 . S
C1935 C1934 1.366 . S
C1935 C1939 1.385 . S
C1936 H1917 0.951 . S
C1936 C1934 1.388 . S
C1936 C1937 1.366 . S
C1937 C1936 1.366 . S
C1937 C1938 1.414 . S
C1937 C1940 1.499 . S
C1938 H1918 0.950 . S
C1938 C1937 1.414 . S
C1938 C1939 1.374 . S
C1939 H1919 0.950 . S
C1939 C1935 1.385 . S
C1939 C1938 1.374 . S
C1940 C1937 1.499 . S
C1940 C1941 1.373 . S
C1940 C1942 1.389 . S
C1941 H1920 0.950 . S
C1941 C1940 1.373 . S
C1941 C1957 1.377 . S
C1942 C1940 1.389 . S
C1942 C1943 1.524 . S
C1942 C1956 1.377 . S
C1943 C1942 1.524 . S
C1943 C1944 1.397 . S
C1943 C1948 1.363 . S
C1944 H1921 0.950 . S
C1944 C1943 1.397 . S
C1944 C1945 1.334 . S
C1945 H1922 0.950 . S
C1945 C1944 1.334 . S
C1945 C1946 1.287 . S
C1946 C1945 1.287 . S
C1946 C1947 1.524 . S
C1946 H1965 0.913 . S
C1947 H1923 0.950 . S
C1947 C1946 1.524 . S
C1947 C1948 1.415 . S
C1948 H1924 0.950 . S
C1948 C1943 1.363 . S
C1948 C1947 1.415 . S
C1949 H1925 0.951 . S
C1949 C1950 1.366 . S
C1949 C1951 1.388 . S
C1950 C1949 1.366 . S
C1950 C1954 1.385 . S
C1951 H1926 0.951 . S
C1951 C1949 1.388 . S
C1951 C1952 1.366 . S
C1952 C1951 1.366 . S
C1952 C1953 1.414 . S
C1952 C1955 1.499 . S
C1953 H1927 0.950 . S
C1953 C1952 1.414 . S
C1953 C1954 1.374 . S
C1954 H1928 0.950 . S
C1954 C1950 1.385 . S
C1954 C1953 1.374 . S
C1955 C1952 1.499 . S
C1955 C1956 1.373 . S
C1955 C1957 1.389 . S
C1956 H1929 0.950 . S
C1956 C1942 1.377 . S
C1956 C1955 1.373 . S
C1957 C1941 1.377 . S
C1957 C1955 1.389 . S
C1957 C1958 1.524 . S
C1958 C1957 1.524 . S
C1958 C1959 1.397 . S
C1958 C1963 1.363 . S
C1959 H1930 0.950 . S
C1959 C1958 1.397 . S
C1959 C1960 1.334 . S
C1960 H1931 0.950 . S
C1960 C1959 1.334 . S
C1960 C1961 1.287 . S
C1961 C1960 1.287 . S
C1961 C1962 1.524 . S
C1961 H1964 0.999 . S
C1962 H1932 0.950 . S
C1962 C1961 1.524 . S
C1962 C1963 1.415 . S
C1963 H1933 0.950 . S
C1963 C1958 1.363 . S
C1963 C1962 1.415 . S
H1964 C1961 0.999 . S
H1965 C1946 0.913 . S
H1966 C1984 0.951 . S
H1967 C1986 0.951 . S
H1968 C1988 0.950 . S
H1969 C1989 0.950 . S
H1970 C1991 0.950 . S
H1971 C1994 0.950 . S
H1972 C1995 0.950 . S
H1973 C1997 0.950 . S
H1974 C1998 0.950 . S
H1975 C1999 0.951 . S
H1976 C2001 0.951 . S
H1977 C2003 0.950 . S
H1978 C2004 0.950 . S
H1979 C2006 0.950 . S
H1980 C2009 0.950 . S
H1981 C2010 0.950 . S
H1982 C2012 0.950 . S
H1983 C2013 0.950 . S
C1984 H1966 0.951 . S
C1984 C1985 1.366 . S
C1984 C1986 1.388 . S
C1985 C1984 1.366 . S
C1985 C1989 1.385 . S
C1986 H1967 0.951 . S
C1986 C1984 1.388 . S
C1986 C1987 1.366 . S
C1987 C1986 1.366 . S
C1987 C1988 1.414 . S
C1987 C1990 1.499 . S
C1988 H1968 0.950 . S
C1988 C1987 1.414 . S
C1988 C1989 1.374 . S
C1989 H1969 0.950 . S
C1989 C1985 1.385 . S
C1989 C1988 1.374 . S
C1990 C1987 1.499 . S
C1990 C1991 1.373 . S
C1990 C1992 1.389 . S
C1991 H1970 0.950 . S
C1991 C1990 1.373 . S
C1991 C2007 1.377 . S
C1992 C1990 1.389 . S
C1992 C1993 1.524 . S
C1992 C2006 1.377 . S
C1993 C1992 1.524 . S
C1993 C1994 1.397 . S
C1993 C1998 1.363 . S
C1994 H1971 0.950 . S
C1994 C1993 1.397 . S
C1994 C1995 1.334 . S
C1995 H1972 0.950 . S
C1995 C1994 1.334 . S
C1995 C1996 1.287 . S
C1996 C1995 1.287 . S
C1996 C1997 1.524 . S
C1996 H2015 0.913 1_565 S
C1997 H1973 0.950 . S
C1997 C1996 1.524 . S
C1997 C1998 1.415 . S
C1998 H1974 0.950 . S
C1998 C1993 1.363 . S
C1998 C1997 1.415 . S
C1999 H1975 0.951 . S
C1999 C2000 1.366 . S
C1999 C2001 1.388 . S
C2000 C1999 1.366 . S
C2000 C2004 1.385 . S
C2001 H1976 0.951 . S
C2001 C1999 1.388 . S
C2001 C2002 1.366 . S
C2002 C2001 1.366 . S
C2002 C2003 1.414 . S
C2002 C2005 1.499 . S
C2003 H1977 0.950 . S
C2003 C2002 1.414 . S
C2003 C2004 1.374 . S
C2004 H1978 0.950 . S
C2004 C2000 1.385 . S
C2004 C2003 1.374 . S
C2005 C2002 1.499 . S
C2005 C2006 1.373 . S
C2005 C2007 1.389 . S
C2006 H1979 0.950 . S
C2006 C1992 1.377 . S
C2006 C2005 1.373 . S
C2007 C1991 1.377 . S
C2007 C2005 1.389 . S
C2007 C2008 1.524 . S
C2008 C2007 1.524 . S
C2008 C2009 1.397 . S
C2008 C2013 1.363 . S
C2009 H1980 0.950 . S
C2009 C2008 1.397 . S
C2009 C2010 1.334 . S
C2010 H1981 0.950 . S
C2010 C2009 1.334 . S
C2010 C2011 1.287 . S
C2011 C2010 1.287 . S
C2011 C2012 1.524 . S
C2011 H2014 0.999 . S
C2012 H1982 0.950 . S
C2012 C2011 1.524 . S
C2012 C2013 1.415 . S
C2013 H1983 0.950 . S
C2013 C2008 1.363 . S
C2013 C2012 1.415 . S
H2014 C2011 0.999 . S
H2015 C1996 0.913 1_545 S
H2016 C2034 0.951 . S
H2017 C2036 0.951 . S
H2018 C2038 0.950 . S
H2019 C2039 0.950 . S
H2020 C2041 0.950 . S
H2021 C2044 0.950 . S
H2022 C2045 0.950 . S
H2023 C2047 0.950 . S
H2024 C2048 0.950 . S
H2025 C2049 0.951 . S
H2026 C2051 0.951 . S
H2027 C2053 0.950 . S
H2028 C2054 0.950 . S
H2029 C2056 0.950 . S
H2030 C2059 0.950 . S
H2031 C2060 0.950 . S
H2032 C2062 0.950 . S
H2033 C2063 0.950 . S
C2034 H2016 0.951 . S
C2034 C2035 1.366 . S
C2034 C2036 1.388 . S
C2035 C2034 1.366 . S
C2035 C2039 1.385 . S
C2036 H2017 0.951 . S
C2036 C2034 1.388 . S
C2036 C2037 1.366 . S
C2037 C2036 1.366 . S
C2037 C2038 1.414 . S
C2037 C2040 1.499 . S
C2038 H2018 0.950 . S
C2038 C2037 1.414 . S
C2038 C2039 1.374 . S
C2039 H2019 0.950 . S
C2039 C2035 1.385 . S
C2039 C2038 1.374 . S
C2040 C2037 1.499 . S
C2040 C2041 1.373 . S
C2040 C2042 1.389 . S
C2041 H2020 0.950 . S
C2041 C2040 1.373 . S
C2041 C2057 1.377 . S
C2042 C2040 1.389 . S
C2042 C2043 1.524 . S
C2042 C2056 1.377 . S
C2043 C2042 1.524 . S
C2043 C2044 1.397 . S
C2043 C2048 1.363 . S
C2044 H2021 0.950 . S
C2044 C2043 1.397 . S
C2044 C2045 1.334 . S
C2045 H2022 0.950 . S
C2045 C2044 1.334 . S
C2045 C2046 1.287 . S
C2046 C2045 1.287 . S
C2046 C2047 1.524 . S
C2046 H2065 0.913 . S
C2047 H2023 0.950 . S
C2047 C2046 1.524 . S
C2047 C2048 1.415 . S
C2048 H2024 0.950 . S
C2048 C2043 1.363 . S
C2048 C2047 1.415 . S
C2049 H2025 0.951 . S
C2049 C2050 1.366 . S
C2049 C2051 1.388 . S
C2050 C2049 1.366 . S
C2050 C2054 1.385 . S
C2051 H2026 0.951 . S
C2051 C2049 1.388 . S
C2051 C2052 1.366 . S
C2052 C2051 1.366 . S
C2052 C2053 1.414 . S
C2052 C2055 1.499 . S
C2053 H2027 0.950 . S
C2053 C2052 1.414 . S
C2053 C2054 1.374 . S
C2054 H2028 0.950 . S
C2054 C2050 1.385 . S
C2054 C2053 1.374 . S
C2055 C2052 1.499 . S
C2055 C2056 1.373 . S
C2055 C2057 1.389 . S
C2056 H2029 0.950 . S
C2056 C2042 1.377 . S
C2056 C2055 1.373 . S
C2057 C2041 1.377 . S
C2057 C2055 1.389 . S
C2057 C2058 1.524 . S
C2058 C2057 1.524 . S
C2058 C2059 1.397 . S
C2058 C2063 1.363 . S
C2059 H2030 0.950 . S
C2059 C2058 1.397 . S
C2059 C2060 1.334 . S
C2060 H2031 0.950 . S
C2060 C2059 1.334 . S
C2060 C2061 1.287 . S
C2061 C2060 1.287 . S
C2061 C2062 1.524 . S
C2061 H2064 0.999 . S
C2062 H2032 0.950 . S
C2062 C2061 1.524 . S
C2062 C2063 1.415 . S
C2063 H2033 0.950 . S
C2063 C2058 1.363 . S
C2063 C2062 1.415 . S
H2064 C2061 0.999 . S
H2065 C2046 0.913 . S
H2066 C2084 0.951 . S
H2067 C2086 0.951 . S
H2068 C2088 0.950 . S
H2069 C2089 0.950 . S
H2070 C2091 0.950 . S
H2071 C2094 0.950 . S
H2072 C2095 0.950 . S
H2073 C2097 0.950 . S
H2074 C2098 0.950 . S
H2075 C2099 0.951 . S
H2076 C2101 0.951 . S
H2077 C2103 0.950 . S
H2078 C2104 0.950 . S
H2079 C2106 0.950 . S
H2080 C2109 0.950 . S
H2081 C2110 0.950 . S
H2082 C2112 0.950 . S
H2083 C2113 0.950 . S
C2084 H2066 0.951 . S
C2084 C2085 1.366 . S
C2084 C2086 1.388 . S
C2085 C2084 1.366 . S
C2085 C2089 1.385 . S
C2086 H2067 0.951 . S
C2086 C2084 1.388 . S
C2086 C2087 1.366 . S
C2087 C2086 1.366 . S
C2087 C2088 1.414 . S
C2087 C2090 1.499 . S
C2088 H2068 0.950 . S
C2088 C2087 1.414 . S
C2088 C2089 1.374 . S
C2089 H2069 0.950 . S
C2089 C2085 1.385 . S
C2089 C2088 1.374 . S
C2090 C2087 1.499 . S
C2090 C2091 1.373 . S
C2090 C2092 1.389 . S
C2091 H2070 0.950 . S
C2091 C2090 1.373 . S
C2091 C2107 1.377 . S
C2092 C2090 1.389 . S
C2092 C2093 1.524 . S
C2092 C2106 1.377 . S
C2093 C2092 1.524 . S
C2093 C2094 1.397 . S
C2093 C2098 1.363 . S
C2094 H2071 0.950 . S
C2094 C2093 1.397 . S
C2094 C2095 1.334 . S
C2095 H2072 0.950 . S
C2095 C2094 1.334 . S
C2095 C2096 1.287 . S
C2096 C2095 1.287 . S
C2096 C2097 1.524 . S
C2096 H2115 0.913 . S
C2097 H2073 0.950 . S
C2097 C2096 1.524 . S
C2097 C2098 1.415 . S
C2098 H2074 0.950 . S
C2098 C2093 1.363 . S
C2098 C2097 1.415 . S
C2099 H2075 0.951 . S
C2099 C2100 1.366 . S
C2099 C2101 1.388 . S
C2100 C2099 1.366 . S
C2100 C2104 1.385 . S
C2101 H2076 0.951 . S
C2101 C2099 1.388 . S
C2101 C2102 1.366 . S
C2102 C2101 1.366 . S
C2102 C2103 1.414 . S
C2102 C2105 1.499 . S
C2103 H2077 0.950 . S
C2103 C2102 1.414 . S
C2103 C2104 1.374 . S
C2104 H2078 0.950 . S
C2104 C2100 1.385 . S
C2104 C2103 1.374 . S
C2105 C2102 1.499 . S
C2105 C2106 1.373 . S
C2105 C2107 1.389 . S
C2106 H2079 0.950 . S
C2106 C2092 1.377 . S
C2106 C2105 1.373 . S
C2107 C2091 1.377 . S
C2107 C2105 1.389 . S
C2107 C2108 1.524 . S
C2108 C2107 1.524 . S
C2108 C2109 1.397 . S
C2108 C2113 1.363 . S
C2109 H2080 0.950 . S
C2109 C2108 1.397 . S
C2109 C2110 1.334 . S
C2110 H2081 0.950 . S
C2110 C2109 1.334 . S
C2110 C2111 1.287 . S
C2111 C2110 1.287 . S
C2111 C2112 1.524 . S
C2111 H2114 0.999 . S
C2112 H2082 0.950 . S
C2112 C2111 1.524 . S
C2112 C2113 1.415 . S
C2113 H2083 0.950 . S
C2113 C2108 1.363 . S
C2113 C2112 1.415 . S
H2114 C2111 0.999 . S
H2115 C2096 0.913 . S
H2116 C2134 0.951 . S
H2117 C2136 0.951 . S
H2118 C2138 0.950 . S
H2119 C2139 0.950 . S
H2120 C2141 0.950 . S
H2121 C2144 0.950 . S
H2122 C2145 0.950 . S
H2123 C2147 0.950 . S
H2124 C2148 0.950 . S
H2125 C2149 0.951 . S
H2126 C2151 0.951 . S
H2127 C2153 0.950 . S
H2128 C2154 0.950 . S
H2129 C2156 0.950 . S
H2130 C2159 0.950 . S
H2131 C2160 0.950 . S
H2132 C2162 0.950 . S
H2133 C2163 0.950 . S
C2134 H2116 0.951 . S
C2134 C2135 1.366 . S
C2134 C2136 1.388 . S
C2135 C2134 1.366 . S
C2135 C2139 1.385 . S
C2136 H2117 0.951 . S
C2136 C2134 1.388 . S
C2136 C2137 1.366 . S
C2137 C2136 1.366 . S
C2137 C2138 1.414 . S
C2137 C2140 1.499 . S
C2138 H2118 0.950 . S
C2138 C2137 1.414 . S
C2138 C2139 1.374 . S
C2139 H2119 0.950 . S
C2139 C2135 1.385 . S
C2139 C2138 1.374 . S
C2140 C2137 1.499 . S
C2140 C2141 1.373 . S
C2140 C2142 1.389 . S
C2141 H2120 0.950 . S
C2141 C2140 1.373 . S
C2141 C2157 1.377 . S
C2142 C2140 1.389 . S
C2142 C2143 1.524 . S
C2142 C2156 1.377 . S
C2143 C2142 1.524 . S
C2143 C2144 1.397 . S
C2143 C2148 1.363 . S
C2144 H2121 0.950 . S
C2144 C2143 1.397 . S
C2144 C2145 1.334 . S
C2145 H2122 0.950 . S
C2145 C2144 1.334 . S
C2145 C2146 1.287 . S
C2146 C2145 1.287 . S
C2146 C2147 1.524 . S
C2146 H2165 0.913 . S
C2147 H2123 0.950 . S
C2147 C2146 1.524 . S
C2147 C2148 1.415 . S
C2148 H2124 0.950 . S
C2148 C2143 1.363 . S
C2148 C2147 1.415 . S
C2149 H2125 0.951 . S
C2149 C2150 1.366 . S
C2149 C2151 1.388 . S
C2150 C2149 1.366 . S
C2150 C2154 1.385 . S
C2151 H2126 0.951 . S
C2151 C2149 1.388 . S
C2151 C2152 1.366 . S
C2152 C2151 1.366 . S
C2152 C2153 1.414 . S
C2152 C2155 1.499 . S
C2153 H2127 0.950 . S
C2153 C2152 1.414 . S
C2153 C2154 1.374 . S
C2154 H2128 0.950 . S
C2154 C2150 1.385 . S
C2154 C2153 1.374 . S
C2155 C2152 1.499 . S
C2155 C2156 1.373 . S
C2155 C2157 1.389 . S
C2156 H2129 0.950 . S
C2156 C2142 1.377 . S
C2156 C2155 1.373 . S
C2157 C2141 1.377 . S
C2157 C2155 1.389 . S
C2157 C2158 1.524 . S
C2158 C2157 1.524 . S
C2158 C2159 1.397 . S
C2158 C2163 1.363 . S
C2159 H2130 0.950 . S
C2159 C2158 1.397 . S
C2159 C2160 1.334 . S
C2160 H2131 0.950 . S
C2160 C2159 1.334 . S
C2160 C2161 1.287 . S
C2161 C2160 1.287 . S
C2161 C2162 1.524 . S
C2161 H2164 0.999 . S
C2162 H2132 0.950 . S
C2162 C2161 1.524 . S
C2162 C2163 1.415 . S
C2163 H2133 0.950 . S
C2163 C2158 1.363 . S
C2163 C2162 1.415 . S
H2164 C2161 0.999 . S
H2165 C2146 0.913 . S
H2166 C2184 0.951 . S
H2167 C2186 0.951 . S
H2168 C2188 0.950 . S
H2169 C2189 0.950 . S
H2170 C2191 0.950 . S
H2171 C2194 0.950 . S
H2172 C2195 0.950 . S
H2173 C2197 0.950 . S
H2174 C2198 0.950 . S
H2175 C2199 0.951 . S
H2176 C2201 0.951 . S
H2177 C2203 0.950 . S
H2178 C2204 0.950 . S
H2179 C2206 0.950 . S
H2180 C2209 0.950 . S
H2181 C2210 0.950 . S
H2182 C2212 0.950 . S
H2183 C2213 0.950 . S
C2184 H2166 0.951 . S
C2184 C2185 1.366 . S
C2184 C2186 1.388 . S
C2185 C2184 1.366 . S
C2185 C2189 1.385 . S
C2186 H2167 0.951 . S
C2186 C2184 1.388 . S
C2186 C2187 1.366 . S
C2187 C2186 1.366 . S
C2187 C2188 1.414 . S
C2187 C2190 1.499 . S
C2188 H2168 0.950 . S
C2188 C2187 1.414 . S
C2188 C2189 1.374 . S
C2189 H2169 0.950 . S
C2189 C2185 1.385 . S
C2189 C2188 1.374 . S
C2190 C2187 1.499 . S
C2190 C2191 1.373 . S
C2190 C2192 1.389 . S
C2191 H2170 0.950 . S
C2191 C2190 1.373 . S
C2191 C2207 1.377 . S
C2192 C2190 1.389 . S
C2192 C2193 1.524 . S
C2192 C2206 1.377 . S
C2193 C2192 1.524 . S
C2193 C2194 1.397 . S
C2193 C2198 1.363 . S
C2194 H2171 0.950 . S
C2194 C2193 1.397 . S
C2194 C2195 1.334 . S
C2195 H2172 0.950 . S
C2195 C2194 1.334 . S
C2195 C2196 1.287 . S
C2196 C2195 1.287 . S
C2196 C2197 1.524 . S
C2196 H2215 0.913 . S
C2197 H2173 0.950 . S
C2197 C2196 1.524 . S
C2197 C2198 1.415 . S
C2198 H2174 0.950 . S
C2198 C2193 1.363 . S
C2198 C2197 1.415 . S
C2199 H2175 0.951 . S
C2199 C2200 1.366 . S
C2199 C2201 1.388 . S
C2200 C2199 1.366 . S
C2200 C2204 1.385 . S
C2201 H2176 0.951 . S
C2201 C2199 1.388 . S
C2201 C2202 1.366 . S
C2202 C2201 1.366 . S
C2202 C2203 1.414 . S
C2202 C2205 1.499 . S
C2203 H2177 0.950 . S
C2203 C2202 1.414 . S
C2203 C2204 1.374 . S
C2204 H2178 0.950 . S
C2204 C2200 1.385 . S
C2204 C2203 1.374 . S
C2205 C2202 1.499 . S
C2205 C2206 1.373 . S
C2205 C2207 1.389 . S
C2206 H2179 0.950 . S
C2206 C2192 1.377 . S
C2206 C2205 1.373 . S
C2207 C2191 1.377 . S
C2207 C2205 1.389 . S
C2207 C2208 1.524 . S
C2208 C2207 1.524 . S
C2208 C2209 1.397 . S
C2208 C2213 1.363 . S
C2209 H2180 0.950 . S
C2209 C2208 1.397 . S
C2209 C2210 1.334 . S
C2210 H2181 0.950 . S
C2210 C2209 1.334 . S
C2210 C2211 1.287 . S
C2211 C2210 1.287 . S
C2211 C2212 1.524 . S
C2211 H2214 0.999 . S
C2212 H2182 0.950 . S
C2212 C2211 1.524 . S
C2212 C2213 1.415 . S
C2213 H2183 0.950 . S
C2213 C2208 1.363 . S
C2213 C2212 1.415 . S
H2214 C2211 0.999 . S
H2215 C2196 0.913 . S
H2216 C2234 0.951 . S
H2217 C2236 0.951 . S
H2218 C2238 0.950 . S
H2219 C2239 0.950 . S
H2220 C2241 0.950 . S
H2221 C2244 0.950 . S
H2222 C2245 0.950 . S
H2223 C2247 0.950 . S
H2224 C2248 0.950 . S
H2225 C2249 0.951 . S
H2226 C2251 0.951 . S
H2227 C2253 0.950 . S
H2228 C2254 0.950 . S
H2229 C2256 0.950 . S
H2230 C2259 0.950 . S
H2231 C2260 0.950 . S
H2232 C2262 0.950 . S
H2233 C2263 0.950 . S
C2234 H2216 0.951 . S
C2234 C2235 1.366 . S
C2234 C2236 1.388 . S
C2235 C2234 1.366 . S
C2235 C2239 1.385 . S
C2236 H2217 0.951 . S
C2236 C2234 1.388 . S
C2236 C2237 1.366 . S
C2237 C2236 1.366 . S
C2237 C2238 1.414 . S
C2237 C2240 1.499 . S
C2238 H2218 0.950 . S
C2238 C2237 1.414 . S
C2238 C2239 1.374 . S
C2239 H2219 0.950 . S
C2239 C2235 1.385 . S
C2239 C2238 1.374 . S
C2240 C2237 1.499 . S
C2240 C2241 1.373 . S
C2240 C2242 1.389 . S
C2241 H2220 0.950 . S
C2241 C2240 1.373 . S
C2241 C2257 1.377 . S
C2242 C2240 1.389 . S
C2242 C2243 1.524 . S
C2242 C2256 1.377 . S
C2243 C2242 1.524 . S
C2243 C2244 1.397 . S
C2243 C2248 1.363 . S
C2244 H2221 0.950 . S
C2244 C2243 1.397 . S
C2244 C2245 1.334 . S
C2245 H2222 0.950 . S
C2245 C2244 1.334 . S
C2245 C2246 1.287 . S
C2246 C2245 1.287 . S
C2246 C2247 1.524 . S
C2246 H2265 0.913 . S
C2247 H2223 0.950 . S
C2247 C2246 1.524 . S
C2247 C2248 1.415 . S
C2248 H2224 0.950 . S
C2248 C2243 1.363 . S
C2248 C2247 1.415 . S
C2249 H2225 0.951 . S
C2249 C2250 1.366 . S
C2249 C2251 1.388 . S
C2250 C2249 1.366 . S
C2250 C2254 1.385 . S
C2251 H2226 0.951 . S
C2251 C2249 1.388 . S
C2251 C2252 1.366 . S
C2252 C2251 1.366 . S
C2252 C2253 1.414 . S
C2252 C2255 1.499 . S
C2253 H2227 0.950 . S
C2253 C2252 1.414 . S
C2253 C2254 1.374 . S
C2254 H2228 0.950 . S
C2254 C2250 1.385 . S
C2254 C2253 1.374 . S
C2255 C2252 1.499 . S
C2255 C2256 1.373 . S
C2255 C2257 1.389 . S
C2256 H2229 0.950 . S
C2256 C2242 1.377 . S
C2256 C2255 1.373 . S
C2257 C2241 1.377 . S
C2257 C2255 1.389 . S
C2257 C2258 1.524 . S
C2258 C2257 1.524 . S
C2258 C2259 1.397 . S
C2258 C2263 1.363 . S
C2259 H2230 0.950 . S
C2259 C2258 1.397 . S
C2259 C2260 1.334 . S
C2260 H2231 0.950 . S
C2260 C2259 1.334 . S
C2260 C2261 1.287 . S
C2261 C2260 1.287 . S
C2261 C2262 1.524 . S
C2261 H2264 0.999 . S
C2262 H2232 0.950 . S
C2262 C2261 1.524 . S
C2262 C2263 1.415 . S
C2263 H2233 0.950 . S
C2263 C2258 1.363 . S
C2263 C2262 1.415 . S
H2264 C2261 0.999 . S
H2265 C2246 0.913 . S
H2266 C2284 0.951 . S
H2267 C2286 0.951 . S
H2268 C2288 0.950 . S
H2269 C2289 0.950 . S
H2270 C2291 0.950 . S
H2271 C2294 0.950 . S
H2272 C2295 0.950 . S
H2273 C2297 0.950 . S
H2274 C2298 0.950 . S
H2275 C2299 0.951 . S
H2276 C2301 0.951 . S
H2277 C2303 0.950 . S
H2278 C2304 0.950 . S
H2279 C2306 0.950 . S
H2280 C2309 0.950 . S
H2281 C2310 0.950 . S
H2282 C2312 0.950 . S
H2283 C2313 0.950 . S
C2284 H2266 0.951 . S
C2284 C2285 1.366 . S
C2284 C2286 1.388 . S
C2285 C2284 1.366 . S
C2285 C2289 1.385 . S
C2286 H2267 0.951 . S
C2286 C2284 1.388 . S
C2286 C2287 1.366 . S
C2287 C2286 1.366 . S
C2287 C2288 1.414 . S
C2287 C2290 1.499 . S
C2288 H2268 0.950 . S
C2288 C2287 1.414 . S
C2288 C2289 1.374 . S
C2289 H2269 0.950 . S
C2289 C2285 1.385 . S
C2289 C2288 1.374 . S
C2290 C2287 1.499 . S
C2290 C2291 1.373 . S
C2290 C2292 1.389 . S
C2291 H2270 0.950 . S
C2291 C2290 1.373 . S
C2291 C2307 1.377 . S
C2292 C2290 1.389 . S
C2292 C2293 1.524 . S
C2292 C2306 1.377 . S
C2293 C2292 1.524 . S
C2293 C2294 1.397 . S
C2293 C2298 1.363 . S
C2294 H2271 0.950 . S
C2294 C2293 1.397 . S
C2294 C2295 1.334 . S
C2295 H2272 0.950 . S
C2295 C2294 1.334 . S
C2295 C2296 1.287 . S
C2296 C2295 1.287 . S
C2296 C2297 1.524 . S
C2296 H2315 0.913 . S
C2297 H2273 0.950 . S
C2297 C2296 1.524 . S
C2297 C2298 1.415 . S
C2298 H2274 0.950 . S
C2298 C2293 1.363 . S
C2298 C2297 1.415 . S
C2299 H2275 0.951 . S
C2299 C2300 1.366 . S
C2299 C2301 1.388 . S
C2300 C2299 1.366 . S
C2300 C2304 1.385 . S
C2301 H2276 0.951 . S
C2301 C2299 1.388 . S
C2301 C2302 1.366 . S
C2302 C2301 1.366 . S
C2302 C2303 1.414 . S
C2302 C2305 1.499 . S
C2303 H2277 0.950 . S
C2303 C2302 1.414 . S
C2303 C2304 1.374 . S
C2304 H2278 0.950 . S
C2304 C2300 1.385 . S
C2304 C2303 1.374 . S
C2305 C2302 1.499 . S
C2305 C2306 1.373 . S
C2305 C2307 1.389 . S
C2306 H2279 0.950 . S
C2306 C2292 1.377 . S
C2306 C2305 1.373 . S
C2307 C2291 1.377 . S
C2307 C2305 1.389 . S
C2307 C2308 1.524 . S
C2308 C2307 1.524 . S
C2308 C2309 1.397 . S
C2308 C2313 1.363 . S
C2309 H2280 0.950 . S
C2309 C2308 1.397 . S
C2309 C2310 1.334 . S
C2310 H2281 0.950 . S
C2310 C2309 1.334 . S
C2310 C2311 1.287 . S
C2311 C2310 1.287 . S
C2311 C2312 1.524 . S
C2311 H2314 0.999 . S
C2312 H2282 0.950 . S
C2312 C2311 1.524 . S
C2312 C2313 1.415 . S
C2313 H2283 0.950 . S
C2313 C2308 1.363 . S
C2313 C2312 1.415 . S
H2314 C2311 0.999 . S
H2315 C2296 0.913 . S
H2316 C2334 0.951 . S
H2317 C2336 0.951 . S
H2318 C2338 0.950 . S
H2319 C2339 0.950 . S
H2320 C2341 0.950 . S
H2321 C2344 0.950 . S
H2322 C2345 0.950 . S
H2323 C2347 0.950 . S
H2324 C2348 0.950 . S
H2325 C2349 0.951 . S
H2326 C2351 0.951 . S
H2327 C2353 0.950 . S
H2328 C2354 0.950 . S
H2329 C2356 0.950 . S
H2330 C2359 0.950 . S
H2331 C2360 0.950 . S
H2332 C2362 0.950 . S
H2333 C2363 0.950 . S
C2334 H2316 0.951 . S
C2334 C2335 1.366 . S
C2334 C2336 1.388 . S
C2335 C2334 1.366 . S
C2335 C2339 1.385 . S
C2336 H2317 0.951 . S
C2336 C2334 1.388 . S
C2336 C2337 1.366 . S
C2337 C2336 1.366 . S
C2337 C2338 1.414 . S
C2337 C2340 1.499 . S
C2338 H2318 0.950 . S
C2338 C2337 1.414 . S
C2338 C2339 1.374 . S
C2339 H2319 0.950 . S
C2339 C2335 1.385 . S
C2339 C2338 1.374 . S
C2340 C2337 1.499 . S
C2340 C2341 1.373 . S
C2340 C2342 1.389 . S
C2341 H2320 0.950 . S
C2341 C2340 1.373 . S
C2341 C2357 1.377 . S
C2342 C2340 1.389 . S
C2342 C2343 1.524 . S
C2342 C2356 1.377 . S
C2343 C2342 1.524 . S
C2343 C2344 1.397 . S
C2343 C2348 1.363 . S
C2344 H2321 0.950 . S
C2344 C2343 1.397 . S
C2344 C2345 1.334 . S
C2345 H2322 0.950 . S
C2345 C2344 1.334 . S
C2345 C2346 1.287 . S
C2346 C2345 1.287 . S
C2346 C2347 1.524 . S
C2346 H2365 0.913 . S
C2347 H2323 0.950 . S
C2347 C2346 1.524 . S
C2347 C2348 1.415 . S
C2348 H2324 0.950 . S
C2348 C2343 1.363 . S
C2348 C2347 1.415 . S
C2349 H2325 0.951 . S
C2349 C2350 1.366 . S
C2349 C2351 1.388 . S
C2350 C2349 1.366 . S
C2350 C2354 1.385 . S
C2351 H2326 0.951 . S
C2351 C2349 1.388 . S
C2351 C2352 1.366 . S
C2352 C2351 1.366 . S
C2352 C2353 1.414 . S
C2352 C2355 1.499 . S
C2353 H2327 0.950 . S
C2353 C2352 1.414 . S
C2353 C2354 1.374 . S
C2354 H2328 0.950 . S
C2354 C2350 1.385 . S
C2354 C2353 1.374 . S
C2355 C2352 1.499 . S
C2355 C2356 1.373 . S
C2355 C2357 1.389 . S
C2356 H2329 0.950 . S
C2356 C2342 1.377 . S
C2356 C2355 1.373 . S
C2357 C2341 1.377 . S
C2357 C2355 1.389 . S
C2357 C2358 1.524 . S
C2358 C2357 1.524 . S
C2358 C2359 1.397 . S
C2358 C2363 1.363 . S
C2359 H2330 0.950 . S
C2359 C2358 1.397 . S
C2359 C2360 1.334 . S
C2360 H2331 0.950 . S
C2360 C2359 1.334 . S
C2360 C2361 1.287 . S
C2361 C2360 1.287 . S
C2361 C2362 1.524 . S
C2361 H2364 0.999 . S
C2362 H2332 0.950 . S
C2362 C2361 1.524 . S
C2362 C2363 1.415 . S
C2363 H2333 0.950 . S
C2363 C2358 1.363 . S
C2363 C2362 1.415 . S
H2364 C2361 0.999 . S
H2365 C2346 0.913 . S
H2366 C2384 0.951 . S
H2367 C2386 0.951 . S
H2368 C2388 0.950 . S
H2369 C2389 0.950 . S
H2370 C2391 0.950 . S
H2371 C2394 0.950 . S
H2372 C2395 0.950 . S
H2373 C2397 0.950 . S
H2374 C2398 0.950 . S
H2375 C2399 0.951 . S
H2376 C2401 0.951 . S
H2377 C2403 0.950 . S
H2378 C2404 0.950 . S
H2379 C2406 0.950 . S
H2380 C2409 0.950 . S
H2381 C2410 0.950 . S
H2382 C2412 0.950 . S
H2383 C2413 0.950 . S
C2384 H2366 0.951 . S
C2384 C2385 1.366 . S
C2384 C2386 1.388 . S
C2385 C2384 1.366 . S
C2385 C2389 1.385 . S
C2386 H2367 0.951 . S
C2386 C2384 1.388 . S
C2386 C2387 1.366 . S
C2387 C2386 1.366 . S
C2387 C2388 1.414 . S
C2387 C2390 1.499 . S
C2388 H2368 0.950 . S
C2388 C2387 1.414 . S
C2388 C2389 1.374 . S
C2389 H2369 0.950 . S
C2389 C2385 1.385 . S
C2389 C2388 1.374 . S
C2390 C2387 1.499 . S
C2390 C2391 1.373 . S
C2390 C2392 1.389 . S
C2391 H2370 0.950 . S
C2391 C2390 1.373 . S
C2391 C2407 1.377 . S
C2392 C2390 1.389 . S
C2392 C2393 1.524 . S
C2392 C2406 1.377 . S
C2393 C2392 1.524 . S
C2393 C2394 1.397 . S
C2393 C2398 1.363 . S
C2394 H2371 0.950 . S
C2394 C2393 1.397 . S
C2394 C2395 1.334 . S
C2395 H2372 0.950 . S
C2395 C2394 1.334 . S
C2395 C2396 1.287 . S
C2396 C2395 1.287 . S
C2396 C2397 1.524 . S
C2396 H2415 0.913 . S
C2397 H2373 0.950 . S
C2397 C2396 1.524 . S
C2397 C2398 1.415 . S
C2398 H2374 0.950 . S
C2398 C2393 1.363 . S
C2398 C2397 1.415 . S
C2399 H2375 0.951 . S
C2399 C2400 1.366 . S
C2399 C2401 1.388 . S
C2400 C2399 1.366 . S
C2400 C2404 1.385 . S
C2401 H2376 0.951 . S
C2401 C2399 1.388 . S
C2401 C2402 1.366 . S
C2402 C2401 1.366 . S
C2402 C2403 1.414 . S
C2402 C2405 1.499 . S
C2403 H2377 0.950 . S
C2403 C2402 1.414 . S
C2403 C2404 1.374 . S
C2404 H2378 0.950 . S
C2404 C2400 1.385 . S
C2404 C2403 1.374 . S
C2405 C2402 1.499 . S
C2405 C2406 1.373 . S
C2405 C2407 1.389 . S
C2406 H2379 0.950 . S
C2406 C2392 1.377 . S
C2406 C2405 1.373 . S
C2407 C2391 1.377 . S
C2407 C2405 1.389 . S
C2407 C2408 1.524 . S
C2408 C2407 1.524 . S
C2408 C2409 1.397 . S
C2408 C2413 1.363 . S
C2409 H2380 0.950 . S
C2409 C2408 1.397 . S
C2409 C2410 1.334 . S
C2410 H2381 0.950 . S
C2410 C2409 1.334 . S
C2410 C2411 1.287 . S
C2411 C2410 1.287 . S
C2411 C2412 1.524 . S
C2411 H2414 0.999 . S
C2412 H2382 0.950 . S
C2412 C2411 1.524 . S
C2412 C2413 1.415 . S
C2413 H2383 0.950 . S
C2413 C2408 1.363 . S
C2413 C2412 1.415 . S
H2414 C2411 0.999 . S
H2415 C2396 0.913 . S
H2416 C2434 0.951 . S
H2417 C2436 0.951 . S
H2418 C2438 0.950 . S
H2419 C2439 0.950 . S
H2420 C2441 0.950 . S
H2421 C2444 0.950 . S
H2422 C2445 0.950 . S
H2423 C2447 0.950 . S
H2424 C2448 0.950 . S
H2425 C2449 0.951 . S
H2426 C2451 0.951 . S
H2427 C2453 0.950 . S
H2428 C2454 0.950 . S
H2429 C2456 0.950 . S
H2430 C2459 0.950 . S
H2431 C2460 0.950 . S
H2432 C2462 0.950 . S
H2433 C2463 0.950 . S
C2434 H2416 0.951 . S
C2434 C2435 1.366 . S
C2434 C2436 1.388 . S
C2435 C2434 1.366 . S
C2435 C2439 1.385 . S
C2436 H2417 0.951 . S
C2436 C2434 1.388 . S
C2436 C2437 1.366 . S
C2437 C2436 1.366 . S
C2437 C2438 1.414 . S
C2437 C2440 1.499 . S
C2438 H2418 0.950 . S
C2438 C2437 1.414 . S
C2438 C2439 1.374 . S
C2439 H2419 0.950 . S
C2439 C2435 1.385 . S
C2439 C2438 1.374 . S
C2440 C2437 1.499 . S
C2440 C2441 1.373 . S
C2440 C2442 1.389 . S
C2441 H2420 0.950 . S
C2441 C2440 1.373 . S
C2441 C2457 1.377 . S
C2442 C2440 1.389 . S
C2442 C2443 1.524 . S
C2442 C2456 1.377 . S
C2443 C2442 1.524 . S
C2443 C2444 1.397 . S
C2443 C2448 1.363 . S
C2444 H2421 0.950 . S
C2444 C2443 1.397 . S
C2444 C2445 1.334 . S
C2445 H2422 0.950 . S
C2445 C2444 1.334 . S
C2445 C2446 1.287 . S
C2446 C2445 1.287 . S
C2446 C2447 1.524 . S
C2446 H2465 0.913 . S
C2447 H2423 0.950 . S
C2447 C2446 1.524 . S
C2447 C2448 1.415 . S
C2448 H2424 0.950 . S
C2448 C2443 1.363 . S
C2448 C2447 1.415 . S
C2449 H2425 0.951 . S
C2449 C2450 1.366 . S
C2449 C2451 1.388 . S
C2450 C2449 1.366 . S
C2450 C2454 1.385 . S
C2451 H2426 0.951 . S
C2451 C2449 1.388 . S
C2451 C2452 1.366 . S
C2452 C2451 1.366 . S
C2452 C2453 1.414 . S
C2452 C2455 1.499 . S
C2453 H2427 0.950 . S
C2453 C2452 1.414 . S
C2453 C2454 1.374 . S
C2454 H2428 0.950 . S
C2454 C2450 1.385 . S
C2454 C2453 1.374 . S
C2455 C2452 1.499 . S
C2455 C2456 1.373 . S
C2455 C2457 1.389 . S
C2456 H2429 0.950 . S
C2456 C2442 1.377 . S
C2456 C2455 1.373 . S
C2457 C2441 1.377 . S
C2457 C2455 1.389 . S
C2457 C2458 1.524 . S
C2458 C2457 1.524 . S
C2458 C2459 1.397 . S
C2458 C2463 1.363 . S
C2459 H2430 0.950 . S
C2459 C2458 1.397 . S
C2459 C2460 1.334 . S
C2460 H2431 0.950 . S
C2460 C2459 1.334 . S
C2460 C2461 1.287 . S
C2461 C2460 1.287 . S
C2461 C2462 1.524 . S
C2461 H2464 0.999 . S
C2462 H2432 0.950 . S
C2462 C2461 1.524 . S
C2462 C2463 1.415 . S
C2463 H2433 0.950 . S
C2463 C2458 1.363 . S
C2463 C2462 1.415 . S
H2464 C2461 0.999 . S
H2465 C2446 0.913 . S
H2466 C2484 0.951 . S
H2467 C2486 0.951 . S
H2468 C2488 0.950 . S
H2469 C2489 0.950 . S
H2470 C2491 0.950 . S
H2471 C2494 0.950 . S
H2472 C2495 0.950 . S
H2473 C2497 0.950 . S
H2474 C2498 0.950 . S
H2475 C2499 0.951 . S
H2476 C2501 0.951 . S
H2477 C2503 0.950 . S
H2478 C2504 0.950 . S
H2479 C2506 0.950 . S
H2480 C2509 0.950 . S
H2481 C2510 0.950 . S
H2482 C2512 0.950 . S
H2483 C2513 0.950 . S
C2484 H2466 0.951 . S
C2484 C2485 1.366 . S
C2484 C2486 1.388 . S
C2485 C2484 1.366 . S
C2485 C2489 1.385 . S
C2486 H2467 0.951 . S
C2486 C2484 1.388 . S
C2486 C2487 1.366 . S
C2487 C2486 1.366 . S
C2487 C2488 1.414 . S
C2487 C2490 1.499 . S
C2488 H2468 0.950 . S
C2488 C2487 1.414 . S
C2488 C2489 1.374 . S
C2489 H2469 0.950 . S
C2489 C2485 1.385 . S
C2489 C2488 1.374 . S
C2490 C2487 1.499 . S
C2490 C2491 1.373 . S
C2490 C2492 1.389 . S
C2491 H2470 0.950 . S
C2491 C2490 1.373 . S
C2491 C2507 1.377 . S
C2492 C2490 1.389 . S
C2492 C2493 1.524 . S
C2492 C2506 1.377 . S
C2493 C2492 1.524 . S
C2493 C2494 1.397 . S
C2493 C2498 1.363 . S
C2494 H2471 0.950 . S
C2494 C2493 1.397 . S
C2494 C2495 1.334 . S
C2495 H2472 0.950 . S
C2495 C2494 1.334 . S
C2495 C2496 1.287 . S
C2496 C2495 1.287 . S
C2496 C2497 1.524 . S
C2496 H2515 0.913 . S
C2497 H2473 0.950 . S
C2497 C2496 1.524 . S
C2497 C2498 1.415 . S
C2498 H2474 0.950 . S
C2498 C2493 1.363 . S
C2498 C2497 1.415 . S
C2499 H2475 0.951 . S
C2499 C2500 1.366 . S
C2499 C2501 1.388 . S
C2500 C2499 1.366 . S
C2500 C2504 1.385 . S
C2501 H2476 0.951 . S
C2501 C2499 1.388 . S
C2501 C2502 1.366 . S
C2502 C2501 1.366 . S
C2502 C2503 1.414 . S
C2502 C2505 1.499 . S
C2503 H2477 0.950 . S
C2503 C2502 1.414 . S
C2503 C2504 1.374 . S
C2504 H2478 0.950 . S
C2504 C2500 1.385 . S
C2504 C2503 1.374 . S
C2505 C2502 1.499 . S
C2505 C2506 1.373 . S
C2505 C2507 1.389 . S
C2506 H2479 0.950 . S
C2506 C2492 1.377 . S
C2506 C2505 1.373 . S
C2507 C2491 1.377 . S
C2507 C2505 1.389 . S
C2507 C2508 1.524 . S
C2508 C2507 1.524 . S
C2508 C2509 1.397 . S
C2508 C2513 1.363 . S
C2509 H2480 0.950 . S
C2509 C2508 1.397 . S
C2509 C2510 1.334 . S
C2510 H2481 0.950 . S
C2510 C2509 1.334 . S
C2510 C2511 1.287 . S
C2511 C2510 1.287 . S
C2511 C2512 1.524 . S
C2511 H2514 0.999 . S
C2512 H2482 0.950 . S
C2512 C2511 1.524 . S
C2512 C2513 1.415 . S
C2513 H2483 0.950 . S
C2513 C2508 1.363 . S
C2513 C2512 1.415 . S
H2514 C2511 0.999 . S
H2515 C2496 0.913 . S
H2516 C2534 0.951 . S
H2517 C2536 0.951 . S
H2518 C2538 0.950 . S
H2519 C2539 0.950 . S
H2520 C2541 0.950 . S
H2521 C2544 0.950 . S
H2522 C2545 0.950 . S
H2523 C2547 0.950 . S
H2524 C2548 0.950 . S
H2525 C2549 0.951 . S
H2526 C2551 0.951 . S
H2527 C2553 0.950 . S
H2528 C2554 0.950 . S
H2529 C2556 0.950 . S
H2530 C2559 0.950 . S
H2531 C2560 0.950 . S
H2532 C2562 0.950 . S
H2533 C2563 0.950 . S
C2534 H2516 0.951 . S
C2534 C2535 1.366 . S
C2534 C2536 1.388 . S
C2535 C2534 1.366 . S
C2535 C2539 1.385 . S
C2536 H2517 0.951 . S
C2536 C2534 1.388 . S
C2536 C2537 1.366 . S
C2537 C2536 1.366 . S
C2537 C2538 1.414 . S
C2537 C2540 1.499 . S
C2538 H2518 0.950 . S
C2538 C2537 1.414 . S
C2538 C2539 1.374 . S
C2539 H2519 0.950 . S
C2539 C2535 1.385 . S
C2539 C2538 1.374 . S
C2540 C2537 1.499 . S
C2540 C2541 1.373 . S
C2540 C2542 1.389 . S
C2541 H2520 0.950 . S
C2541 C2540 1.373 . S
C2541 C2557 1.377 . S
C2542 C2540 1.389 . S
C2542 C2543 1.524 . S
C2542 C2556 1.377 . S
C2543 C2542 1.524 . S
C2543 C2544 1.397 . S
C2543 C2548 1.363 . S
C2544 H2521 0.950 . S
C2544 C2543 1.397 . S
C2544 C2545 1.334 . S
C2545 H2522 0.950 . S
C2545 C2544 1.334 . S
C2545 C2546 1.287 . S
C2546 C2545 1.287 . S
C2546 C2547 1.524 . S
C2546 H2565 0.913 . S
C2547 H2523 0.950 . S
C2547 C2546 1.524 . S
C2547 C2548 1.415 . S
C2548 H2524 0.950 . S
C2548 C2543 1.363 . S
C2548 C2547 1.415 . S
C2549 H2525 0.951 . S
C2549 C2550 1.366 . S
C2549 C2551 1.388 . S
C2550 C2549 1.366 . S
C2550 C2554 1.385 . S
C2551 H2526 0.951 . S
C2551 C2549 1.388 . S
C2551 C2552 1.366 . S
C2552 C2551 1.366 . S
C2552 C2553 1.414 . S
C2552 C2555 1.499 . S
C2553 H2527 0.950 . S
C2553 C2552 1.414 . S
C2553 C2554 1.374 . S
C2554 H2528 0.950 . S
C2554 C2550 1.385 . S
C2554 C2553 1.374 . S
C2555 C2552 1.499 . S
C2555 C2556 1.373 . S
C2555 C2557 1.389 . S
C2556 H2529 0.950 . S
C2556 C2542 1.377 . S
C2556 C2555 1.373 . S
C2557 C2541 1.377 . S
C2557 C2555 1.389 . S
C2557 C2558 1.524 . S
C2558 C2557 1.524 . S
C2558 C2559 1.397 . S
C2558 C2563 1.363 . S
C2559 H2530 0.950 . S
C2559 C2558 1.397 . S
C2559 C2560 1.334 . S
C2560 H2531 0.950 . S
C2560 C2559 1.334 . S
C2560 C2561 1.287 . S
C2561 C2560 1.287 . S
C2561 C2562 1.524 . S
C2561 H2564 0.999 . S
C2562 H2532 0.950 . S
C2562 C2561 1.524 . S
C2562 C2563 1.415 . S
C2563 H2533 0.950 . S
C2563 C2558 1.363 . S
C2563 C2562 1.415 . S
H2564 C2561 0.999 . S
H2565 C2546 0.913 . S
H2566 C2584 0.951 . S
H2567 C2586 0.951 . S
H2568 C2588 0.950 . S
H2569 C2589 0.950 . S
H2570 C2591 0.950 . S
H2571 C2594 0.950 . S
H2572 C2595 0.950 . S
H2573 C2597 0.950 . S
H2574 C2598 0.950 . S
H2575 C2599 0.951 . S
H2576 C2601 0.951 . S
H2577 C2603 0.950 . S
H2578 C2604 0.950 . S
H2579 C2606 0.950 . S
H2580 C2609 0.950 . S
H2581 C2610 0.950 . S
H2582 C2612 0.950 . S
H2583 C2613 0.950 . S
C2584 H2566 0.951 . S
C2584 C2585 1.366 . S
C2584 C2586 1.388 . S
C2585 C2584 1.366 . S
C2585 C2589 1.385 . S
C2586 H2567 0.951 . S
C2586 C2584 1.388 . S
C2586 C2587 1.366 . S
C2587 C2586 1.366 . S
C2587 C2588 1.414 . S
C2587 C2590 1.499 . S
C2588 H2568 0.950 . S
C2588 C2587 1.414 . S
C2588 C2589 1.374 . S
C2589 H2569 0.950 . S
C2589 C2585 1.385 . S
C2589 C2588 1.374 . S
C2590 C2587 1.499 . S
C2590 C2591 1.373 . S
C2590 C2592 1.389 . S
C2591 H2570 0.950 . S
C2591 C2590 1.373 . S
C2591 C2607 1.377 . S
C2592 C2590 1.389 . S
C2592 C2593 1.524 . S
C2592 C2606 1.377 . S
C2593 C2592 1.524 . S
C2593 C2594 1.397 . S
C2593 C2598 1.363 . S
C2594 H2571 0.950 . S
C2594 C2593 1.397 . S
C2594 C2595 1.334 . S
C2595 H2572 0.950 . S
C2595 C2594 1.334 . S
C2595 C2596 1.287 . S
C2596 C2595 1.287 . S
C2596 C2597 1.524 . S
C2596 H2615 0.913 . S
C2597 H2573 0.950 . S
C2597 C2596 1.524 . S
C2597 C2598 1.415 . S
C2598 H2574 0.950 . S
C2598 C2593 1.363 . S
C2598 C2597 1.415 . S
C2599 H2575 0.951 . S
C2599 C2600 1.366 . S
C2599 C2601 1.388 . S
C2600 C2599 1.366 . S
C2600 C2604 1.385 . S
C2601 H2576 0.951 . S
C2601 C2599 1.388 . S
C2601 C2602 1.366 . S
C2602 C2601 1.366 . S
C2602 C2603 1.414 . S
C2602 C2605 1.499 . S
C2603 H2577 0.950 . S
C2603 C2602 1.414 . S
C2603 C2604 1.374 . S
C2604 H2578 0.950 . S
C2604 C2600 1.385 . S
C2604 C2603 1.374 . S
C2605 C2602 1.499 . S
C2605 C2606 1.373 . S
C2605 C2607 1.389 . S
C2606 H2579 0.950 . S
C2606 C2592 1.377 . S
C2606 C2605 1.373 . S
C2607 C2591 1.377 . S
C2607 C2605 1.389 . S
C2607 C2608 1.524 . S
C2608 C2607 1.524 . S
C2608 C2609 1.397 . S
C2608 C2613 1.363 . S
C2609 H2580 0.950 . S
C2609 C2608 1.397 . S
C2609 C2610 1.334 . S
C2610 H2581 0.950 . S
C2610 C2609 1.334 . S
C2610 C2611 1.287 . S
C2611 C2610 1.287 . S
C2611 C2612 1.524 . S
C2611 H2614 0.999 . S
C2612 H2582 0.950 . S
C2612 C2611 1.524 . S
C2612 C2613 1.415 . S
C2613 H2583 0.950 . S
C2613 C2608 1.363 . S
C2613 C2612 1.415 . S
H2614 C2611 0.999 . S
H2615 C2596 0.913 . S
H2616 C2634 0.951 . S
H2617 C2636 0.951 . S
H2618 C2638 0.950 . S
H2619 C2639 0.950 . S
H2620 C2641 0.950 . S
H2621 C2644 0.950 . S
H2622 C2645 0.950 . S
H2623 C2647 0.950 . S
H2624 C2648 0.950 . S
H2625 C2649 0.951 . S
H2626 C2651 0.951 . S
H2627 C2653 0.950 . S
H2628 C2654 0.950 . S
H2629 C2656 0.950 . S
H2630 C2659 0.950 . S
H2631 C2660 0.950 . S
H2632 C2662 0.950 . S
H2633 C2663 0.950 . S
C2634 H2616 0.951 . S
C2634 C2635 1.366 . S
C2634 C2636 1.388 . S
C2635 C2634 1.366 . S
C2635 C2639 1.385 . S
C2636 H2617 0.951 . S
C2636 C2634 1.388 . S
C2636 C2637 1.366 . S
C2637 C2636 1.366 . S
C2637 C2638 1.414 . S
C2637 C2640 1.499 . S
C2638 H2618 0.950 . S
C2638 C2637 1.414 . S
C2638 C2639 1.374 . S
C2639 H2619 0.950 . S
C2639 C2635 1.385 . S
C2639 C2638 1.374 . S
C2640 C2637 1.499 . S
C2640 C2641 1.373 . S
C2640 C2642 1.389 . S
C2641 H2620 0.950 . S
C2641 C2640 1.373 . S
C2641 C2657 1.377 . S
C2642 C2640 1.389 . S
C2642 C2643 1.524 . S
C2642 C2656 1.377 . S
C2643 C2642 1.524 . S
C2643 C2644 1.397 . S
C2643 C2648 1.363 . S
C2644 H2621 0.950 . S
C2644 C2643 1.397 . S
C2644 C2645 1.334 . S
C2645 H2622 0.950 . S
C2645 C2644 1.334 . S
C2645 C2646 1.287 . S
C2646 C2645 1.287 . S
C2646 C2647 1.524 . S
C2646 H2665 0.913 . S
C2647 H2623 0.950 . S
C2647 C2646 1.524 . S
C2647 C2648 1.415 . S
C2648 H2624 0.950 . S
C2648 C2643 1.363 . S
C2648 C2647 1.415 . S
C2649 H2625 0.951 . S
C2649 C2650 1.366 . S
C2649 C2651 1.388 . S
C2650 C2649 1.366 . S
C2650 C2654 1.385 . S
C2651 H2626 0.951 . S
C2651 C2649 1.388 . S
C2651 C2652 1.366 . S
C2652 C2651 1.366 . S
C2652 C2653 1.414 . S
C2652 C2655 1.499 . S
C2653 H2627 0.950 . S
C2653 C2652 1.414 . S
C2653 C2654 1.374 . S
C2654 H2628 0.950 . S
C2654 C2650 1.385 . S
C2654 C2653 1.374 . S
C2655 C2652 1.499 . S
C2655 C2656 1.373 . S
C2655 C2657 1.389 . S
C2656 H2629 0.950 . S
C2656 C2642 1.377 . S
C2656 C2655 1.373 . S
C2657 C2641 1.377 . S
C2657 C2655 1.389 . S
C2657 C2658 1.524 . S
C2658 C2657 1.524 . S
C2658 C2659 1.397 . S
C2658 C2663 1.363 . S
C2659 H2630 0.950 . S
C2659 C2658 1.397 . S
C2659 C2660 1.334 . S
C2660 H2631 0.950 . S
C2660 C2659 1.334 . S
C2660 C2661 1.287 . S
C2661 C2660 1.287 . S
C2661 C2662 1.524 . S
C2661 H2664 0.999 . S
C2662 H2632 0.950 . S
C2662 C2661 1.524 . S
C2662 C2663 1.415 . S
C2663 H2633 0.950 . S
C2663 C2658 1.363 . S
C2663 C2662 1.415 . S
H2664 C2661 0.999 . S
H2665 C2646 0.913 . S
H2666 C2684 0.951 . S
H2667 C2686 0.951 . S
H2668 C2688 0.950 . S
H2669 C2689 0.950 . S
H2670 C2691 0.950 . S
H2671 C2694 0.950 . S
H2672 C2695 0.950 . S
H2673 C2697 0.950 . S
H2674 C2698 0.950 . S
H2675 C2699 0.951 . S
H2676 C2701 0.951 . S
H2677 C2703 0.950 . S
H2678 C2704 0.950 . S
H2679 C2706 0.950 . S
H2680 C2709 0.950 . S
H2681 C2710 0.950 . S
H2682 C2712 0.950 . S
H2683 C2713 0.950 . S
C2684 H2666 0.951 . S
C2684 C2685 1.366 . S
C2684 C2686 1.388 . S
C2685 C2684 1.366 . S
C2685 C2689 1.385 . S
C2686 H2667 0.951 . S
C2686 C2684 1.388 . S
C2686 C2687 1.366 . S
C2687 C2686 1.366 . S
C2687 C2688 1.414 . S
C2687 C2690 1.499 . S
C2688 H2668 0.950 . S
C2688 C2687 1.414 . S
C2688 C2689 1.374 . S
C2689 H2669 0.950 . S
C2689 C2685 1.385 . S
C2689 C2688 1.374 . S
C2690 C2687 1.499 . S
C2690 C2691 1.373 . S
C2690 C2692 1.389 . S
C2691 H2670 0.950 . S
C2691 C2690 1.373 . S
C2691 C2707 1.377 . S
C2692 C2690 1.389 . S
C2692 C2693 1.524 . S
C2692 C2706 1.377 . S
C2693 C2692 1.524 . S
C2693 C2694 1.397 . S
C2693 C2698 1.363 . S
C2694 H2671 0.950 . S
C2694 C2693 1.397 . S
C2694 C2695 1.334 . S
C2695 H2672 0.950 . S
C2695 C2694 1.334 . S
C2695 C2696 1.287 . S
C2696 C2695 1.287 . S
C2696 C2697 1.524 . S
C2696 H2715 0.913 . S
C2697 H2673 0.950 . S
C2697 C2696 1.524 . S
C2697 C2698 1.415 . S
C2698 H2674 0.950 . S
C2698 C2693 1.363 . S
C2698 C2697 1.415 . S
C2699 H2675 0.951 . S
C2699 C2700 1.366 . S
C2699 C2701 1.388 . S
C2700 C2699 1.366 . S
C2700 C2704 1.385 . S
C2701 H2676 0.951 . S
C2701 C2699 1.388 . S
C2701 C2702 1.366 . S
C2702 C2701 1.366 . S
C2702 C2703 1.414 . S
C2702 C2705 1.499 . S
C2703 H2677 0.950 . S
C2703 C2702 1.414 . S
C2703 C2704 1.374 . S
C2704 H2678 0.950 . S
C2704 C2700 1.385 . S
C2704 C2703 1.374 . S
C2705 C2702 1.499 . S
C2705 C2706 1.373 . S
C2705 C2707 1.389 . S
C2706 H2679 0.950 . S
C2706 C2692 1.377 . S
C2706 C2705 1.373 . S
C2707 C2691 1.377 . S
C2707 C2705 1.389 . S
C2707 C2708 1.524 . S
C2708 C2707 1.524 . S
C2708 C2709 1.397 . S
C2708 C2713 1.363 . S
C2709 H2680 0.950 . S
C2709 C2708 1.397 . S
C2709 C2710 1.334 . S
C2710 H2681 0.950 . S
C2710 C2709 1.334 . S
C2710 C2711 1.287 . S
C2711 C2710 1.287 . S
C2711 C2712 1.524 . S
C2711 H2714 0.999 . S
C2712 H2682 0.950 . S
C2712 C2711 1.524 . S
C2712 C2713 1.415 . S
C2713 H2683 0.950 . S
C2713 C2708 1.363 . S
C2713 C2712 1.415 . S
H2714 C2711 0.999 . S
H2715 C2696 0.913 . S
H2716 C2734 0.951 . S
H2717 C2736 0.951 . S
H2718 C2738 0.950 . S
H2719 C2739 0.950 . S
H2720 C2741 0.950 . S
H2721 C2744 0.950 . S
H2722 C2745 0.950 . S
H2723 C2747 0.950 . S
H2724 C2748 0.950 . S
H2725 C2749 0.951 . S
H2726 C2751 0.951 . S
H2727 C2753 0.950 . S
H2728 C2754 0.950 . S
H2729 C2756 0.950 . S
H2730 C2759 0.950 . S
H2731 C2760 0.950 . S
H2732 C2762 0.950 . S
H2733 C2763 0.950 . S
C2734 H2716 0.951 . S
C2734 C2735 1.366 . S
C2734 C2736 1.388 . S
C2735 C2734 1.366 . S
C2735 C2739 1.385 . S
C2736 H2717 0.951 . S
C2736 C2734 1.388 . S
C2736 C2737 1.366 . S
C2737 C2736 1.366 . S
C2737 C2738 1.414 . S
C2737 C2740 1.499 . S
C2738 H2718 0.950 . S
C2738 C2737 1.414 . S
C2738 C2739 1.374 . S
C2739 H2719 0.950 . S
C2739 C2735 1.385 . S
C2739 C2738 1.374 . S
C2740 C2737 1.499 . S
C2740 C2741 1.373 . S
C2740 C2742 1.389 . S
C2741 H2720 0.950 . S
C2741 C2740 1.373 . S
C2741 C2757 1.377 . S
C2742 C2740 1.389 . S
C2742 C2743 1.524 . S
C2742 C2756 1.377 . S
C2743 C2742 1.524 . S
C2743 C2744 1.397 . S
C2743 C2748 1.363 . S
C2744 H2721 0.950 . S
C2744 C2743 1.397 . S
C2744 C2745 1.334 . S
C2745 H2722 0.950 . S
C2745 C2744 1.334 . S
C2745 C2746 1.287 . S
C2746 C2745 1.287 . S
C2746 C2747 1.524 . S
C2746 H2765 0.913 . S
C2747 H2723 0.950 . S
C2747 C2746 1.524 . S
C2747 C2748 1.415 . S
C2748 H2724 0.950 . S
C2748 C2743 1.363 . S
C2748 C2747 1.415 . S
C2749 H2725 0.951 . S
C2749 C2750 1.366 . S
C2749 C2751 1.388 . S
C2750 C2749 1.366 . S
C2750 C2754 1.385 . S
C2751 H2726 0.951 . S
C2751 C2749 1.388 . S
C2751 C2752 1.366 . S
C2752 C2751 1.366 . S
C2752 C2753 1.414 . S
C2752 C2755 1.499 . S
C2753 H2727 0.950 . S
C2753 C2752 1.414 . S
C2753 C2754 1.374 . S
C2754 H2728 0.950 . S
C2754 C2750 1.385 . S
C2754 C2753 1.374 . S
C2755 C2752 1.499 . S
C2755 C2756 1.373 . S
C2755 C2757 1.389 . S
C2756 H2729 0.950 . S
C2756 C2742 1.377 . S
C2756 C2755 1.373 . S
C2757 C2741 1.377 . S
C2757 C2755 1.389 . S
C2757 C2758 1.524 . S
C2758 C2757 1.524 . S
C2758 C2759 1.397 . S
C2758 C2763 1.363 . S
C2759 H2730 0.950 . S
C2759 C2758 1.397 . S
C2759 C2760 1.334 . S
C2760 H2731 0.950 . S
C2760 C2759 1.334 . S
C2760 C2761 1.287 . S
C2761 C2760 1.287 . S
C2761 C2762 1.524 . S
C2761 H2764 0.999 . S
C2762 H2732 0.950 . S
C2762 C2761 1.524 . S
C2762 C2763 1.415 . S
C2763 H2733 0.950 . S
C2763 C2758 1.363 . S
C2763 C2762 1.415 . S
H2764 C2761 0.999 . S
H2765 C2746 0.913 . S
H2766 C2784 0.951 . S
H2767 C2786 0.951 . S
H2768 C2788 0.950 . S
H2769 C2789 0.950 . S
H2770 C2791 0.950 . S
H2771 C2794 0.950 . S
H2772 C2795 0.950 . S
H2773 C2797 0.950 . S
H2774 C2798 0.950 . S
H2775 C2799 0.951 . S
H2776 C2801 0.951 . S
H2777 C2803 0.950 . S
H2778 C2804 0.950 . S
H2779 C2806 0.950 . S
H2780 C2809 0.950 . S
H2781 C2810 0.950 . S
H2782 C2812 0.950 . S
H2783 C2813 0.950 . S
C2784 H2766 0.951 . S
C2784 C2785 1.366 . S
C2784 C2786 1.388 . S
C2785 C2784 1.366 . S
C2785 C2789 1.385 . S
C2786 H2767 0.951 . S
C2786 C2784 1.388 . S
C2786 C2787 1.366 . S
C2787 C2786 1.366 . S
C2787 C2788 1.414 . S
C2787 C2790 1.499 . S
C2788 H2768 0.950 . S
C2788 C2787 1.414 . S
C2788 C2789 1.374 . S
C2789 H2769 0.950 . S
C2789 C2785 1.385 . S
C2789 C2788 1.374 . S
C2790 C2787 1.499 . S
C2790 C2791 1.373 . S
C2790 C2792 1.389 . S
C2791 H2770 0.950 . S
C2791 C2790 1.373 . S
C2791 C2807 1.377 . S
C2792 C2790 1.389 . S
C2792 C2793 1.524 . S
C2792 C2806 1.377 . S
C2793 C2792 1.524 . S
C2793 C2794 1.397 . S
C2793 C2798 1.363 . S
C2794 H2771 0.950 . S
C2794 C2793 1.397 . S
C2794 C2795 1.334 . S
C2795 H2772 0.950 . S
C2795 C2794 1.334 . S
C2795 C2796 1.287 . S
C2796 C2795 1.287 . S
C2796 C2797 1.524 . S
C2796 H2815 0.913 . S
C2797 H2773 0.950 . S
C2797 C2796 1.524 . S
C2797 C2798 1.415 . S
C2798 H2774 0.950 . S
C2798 C2793 1.363 . S
C2798 C2797 1.415 . S
C2799 H2775 0.951 . S
C2799 C2800 1.366 . S
C2799 C2801 1.388 . S
C2800 C2799 1.366 . S
C2800 C2804 1.385 . S
C2801 H2776 0.951 . S
C2801 C2799 1.388 . S
C2801 C2802 1.366 . S
C2802 C2801 1.366 . S
C2802 C2803 1.414 . S
C2802 C2805 1.499 . S
C2803 H2777 0.950 . S
C2803 C2802 1.414 . S
C2803 C2804 1.374 . S
C2804 H2778 0.950 . S
C2804 C2800 1.385 . S
C2804 C2803 1.374 . S
C2805 C2802 1.499 . S
C2805 C2806 1.373 . S
C2805 C2807 1.389 . S
C2806 H2779 0.950 . S
C2806 C2792 1.377 . S
C2806 C2805 1.373 . S
C2807 C2791 1.377 . S
C2807 C2805 1.389 . S
C2807 C2808 1.524 . S
C2808 C2807 1.524 . S
C2808 C2809 1.397 . S
C2808 C2813 1.363 . S
C2809 H2780 0.950 . S
C2809 C2808 1.397 . S
C2809 C2810 1.334 . S
C2810 H2781 0.950 . S
C2810 C2809 1.334 . S
C2810 C2811 1.287 . S
C2811 C2810 1.287 . S
C2811 C2812 1.524 . S
C2811 H2814 0.999 . S
C2812 H2782 0.950 . S
C2812 C2811 1.524 . S
C2812 C2813 1.415 . S
C2813 H2783 0.950 . S
C2813 C2808 1.363 . S
C2813 C2812 1.415 . S
H2814 C2811 0.999 . S
H2815 C2796 0.913 . S
H2816 C2834 0.951 . S
H2817 C2836 0.951 . S
H2818 C2838 0.950 . S
H2819 C2839 0.950 . S
H2820 C2841 0.950 . S
H2821 C2844 0.950 . S
H2822 C2845 0.950 . S
H2823 C2847 0.950 . S
H2824 C2848 0.950 . S
H2825 C2849 0.951 . S
H2826 C2851 0.951 . S
H2827 C2853 0.950 . S
H2828 C2854 0.950 . S
H2829 C2856 0.950 . S
H2830 C2859 0.950 . S
H2831 C2860 0.950 . S
H2832 C2862 0.950 . S
H2833 C2863 0.950 . S
C2834 H2816 0.951 . S
C2834 C2835 1.366 . S
C2834 C2836 1.388 . S
C2835 C2834 1.366 . S
C2835 C2839 1.385 . S
C2836 H2817 0.951 . S
C2836 C2834 1.388 . S
C2836 C2837 1.366 . S
C2837 C2836 1.366 . S
C2837 C2838 1.414 . S
C2837 C2840 1.499 . S
C2838 H2818 0.950 . S
C2838 C2837 1.414 . S
C2838 C2839 1.374 . S
C2839 H2819 0.950 . S
C2839 C2835 1.385 . S
C2839 C2838 1.374 . S
C2840 C2837 1.499 . S
C2840 C2841 1.373 . S
C2840 C2842 1.389 . S
C2841 H2820 0.950 . S
C2841 C2840 1.373 . S
C2841 C2857 1.377 . S
C2842 C2840 1.389 . S
C2842 C2843 1.524 . S
C2842 C2856 1.377 . S
C2843 C2842 1.524 . S
C2843 C2844 1.397 . S
C2843 C2848 1.363 . S
C2844 H2821 0.950 . S
C2844 C2843 1.397 . S
C2844 C2845 1.334 . S
C2845 H2822 0.950 . S
C2845 C2844 1.334 . S
C2845 C2846 1.287 . S
C2846 C2845 1.287 . S
C2846 C2847 1.524 . S
C2846 H2865 0.913 . S
C2847 H2823 0.950 . S
C2847 C2846 1.524 . S
C2847 C2848 1.415 . S
C2848 H2824 0.950 . S
C2848 C2843 1.363 . S
C2848 C2847 1.415 . S
C2849 H2825 0.951 . S
C2849 C2850 1.366 . S
C2849 C2851 1.388 . S
C2850 C2849 1.366 . S
C2850 C2854 1.385 . S
C2851 H2826 0.951 . S
C2851 C2849 1.388 . S
C2851 C2852 1.366 . S
C2852 C2851 1.366 . S
C2852 C2853 1.414 . S
C2852 C2855 1.499 . S
C2853 H2827 0.950 . S
C2853 C2852 1.414 . S
C2853 C2854 1.374 . S
C2854 H2828 0.950 . S
C2854 C2850 1.385 . S
C2854 C2853 1.374 . S
C2855 C2852 1.499 . S
C2855 C2856 1.373 . S
C2855 C2857 1.389 . S
C2856 H2829 0.950 . S
C2856 C2842 1.377 . S
C2856 C2855 1.373 . S
C2857 C2841 1.377 . S
C2857 C2855 1.389 . S
C2857 C2858 1.524 . S
C2858 C2857 1.524 . S
C2858 C2859 1.397 . S
C2858 C2863 1.363 . S
C2859 H2830 0.950 . S
C2859 C2858 1.397 . S
C2859 C2860 1.334 . S
C2860 H2831 0.950 . S
C2860 C2859 1.334 . S
C2860 C2861 1.287 . S
C2861 C2860 1.287 . S
C2861 C2862 1.524 . S
C2861 H2864 0.999 . S
C2862 H2832 0.950 . S
C2862 C2861 1.524 . S
C2862 C2863 1.415 . S
C2863 H2833 0.950 . S
C2863 C2858 1.363 . S
C2863 C2862 1.415 . S
H2864 C2861 0.999 . S
H2865 C2846 0.913 . S
H2866 C2884 0.951 . S
H2867 C2886 0.951 . S
H2868 C2888 0.950 . S
H2869 C2889 0.950 . S
H2870 C2891 0.950 . S
H2871 C2894 0.950 . S
H2872 C2895 0.950 . S
H2873 C2897 0.950 . S
H2874 C2898 0.950 . S
H2875 C2899 0.951 . S
H2876 C2901 0.951 . S
H2877 C2903 0.950 . S
H2878 C2904 0.950 . S
H2879 C2906 0.950 . S
H2880 C2909 0.950 . S
H2881 C2910 0.950 . S
H2882 C2912 0.950 . S
H2883 C2913 0.950 . S
C2884 H2866 0.951 . S
C2884 C2885 1.366 . S
C2884 C2886 1.388 . S
C2885 C2884 1.366 . S
C2885 C2889 1.385 . S
C2886 H2867 0.951 . S
C2886 C2884 1.388 . S
C2886 C2887 1.366 . S
C2887 C2886 1.366 . S
C2887 C2888 1.414 . S
C2887 C2890 1.499 . S
C2888 H2868 0.950 . S
C2888 C2887 1.414 . S
C2888 C2889 1.374 . S
C2889 H2869 0.950 . S
C2889 C2885 1.385 . S
C2889 C2888 1.374 . S
C2890 C2887 1.499 . S
C2890 C2891 1.373 . S
C2890 C2892 1.389 . S
C2891 H2870 0.950 . S
C2891 C2890 1.373 . S
C2891 C2907 1.377 . S
C2892 C2890 1.389 . S
C2892 C2893 1.524 . S
C2892 C2906 1.377 . S
C2893 C2892 1.524 . S
C2893 C2894 1.397 . S
C2893 C2898 1.363 . S
C2894 H2871 0.950 . S
C2894 C2893 1.397 . S
C2894 C2895 1.334 . S
C2895 H2872 0.950 . S
C2895 C2894 1.334 . S
C2895 C2896 1.287 . S
C2896 C2895 1.287 . S
C2896 C2897 1.524 . S
C2896 H2915 0.913 . S
C2897 H2873 0.950 . S
C2897 C2896 1.524 . S
C2897 C2898 1.415 . S
C2898 H2874 0.950 . S
C2898 C2893 1.363 . S
C2898 C2897 1.415 . S
C2899 H2875 0.951 . S
C2899 C2900 1.366 . S
C2899 C2901 1.388 . S
C2900 C2899 1.366 . S
C2900 C2904 1.385 . S
C2901 H2876 0.951 . S
C2901 C2899 1.388 . S
C2901 C2902 1.366 . S
C2902 C2901 1.366 . S
C2902 C2903 1.414 . S
C2902 C2905 1.499 . S
C2903 H2877 0.950 . S
C2903 C2902 1.414 . S
C2903 C2904 1.374 . S
C2904 H2878 0.950 . S
C2904 C2900 1.385 . S
C2904 C2903 1.374 . S
C2905 C2902 1.499 . S
C2905 C2906 1.373 . S
C2905 C2907 1.389 . S
C2906 H2879 0.950 . S
C2906 C2892 1.377 . S
C2906 C2905 1.373 . S
C2907 C2891 1.377 . S
C2907 C2905 1.389 . S
C2907 C2908 1.524 . S
C2908 C2907 1.524 . S
C2908 C2909 1.397 . S
C2908 C2913 1.363 . S
C2909 H2880 0.950 . S
C2909 C2908 1.397 . S
C2909 C2910 1.334 . S
C2910 H2881 0.950 . S
C2910 C2909 1.334 . S
C2910 C2911 1.287 . S
C2911 C2910 1.287 . S
C2911 C2912 1.524 . S
C2911 H2914 0.999 . S
C2912 H2882 0.950 . S
C2912 C2911 1.524 . S
C2912 C2913 1.415 . S
C2913 H2883 0.950 . S
C2913 C2908 1.363 . S
C2913 C2912 1.415 . S
H2914 C2911 0.999 . S
H2915 C2896 0.913 . S
H2916 C2934 0.951 . S
H2917 C2936 0.951 . S
H2918 C2938 0.950 . S
H2919 C2939 0.950 . S
H2920 C2941 0.950 . S
H2921 C2944 0.950 . S
H2922 C2945 0.950 . S
H2923 C2947 0.950 . S
H2924 C2948 0.950 . S
H2925 C2949 0.951 . S
H2926 C2951 0.951 . S
H2927 C2953 0.950 . S
H2928 C2954 0.950 . S
H2929 C2956 0.950 . S
H2930 C2959 0.950 . S
H2931 C2960 0.950 . S
H2932 C2962 0.950 . S
H2933 C2963 0.950 . S
C2934 H2916 0.951 . S
C2934 C2935 1.366 . S
C2934 C2936 1.388 . S
C2935 C2934 1.366 . S
C2935 C2939 1.385 . S
C2936 H2917 0.951 . S
C2936 C2934 1.388 . S
C2936 C2937 1.366 . S
C2937 C2936 1.366 . S
C2937 C2938 1.414 . S
C2937 C2940 1.499 . S
C2938 H2918 0.950 . S
C2938 C2937 1.414 . S
C2938 C2939 1.374 . S
C2939 H2919 0.950 . S
C2939 C2935 1.385 . S
C2939 C2938 1.374 . S
C2940 C2937 1.499 . S
C2940 C2941 1.373 . S
C2940 C2942 1.389 . S
C2941 H2920 0.950 . S
C2941 C2940 1.373 . S
C2941 C2957 1.377 . S
C2942 C2940 1.389 . S
C2942 C2943 1.524 . S
C2942 C2956 1.377 . S
C2943 C2942 1.524 . S
C2943 C2944 1.397 . S
C2943 C2948 1.363 . S
C2944 H2921 0.950 . S
C2944 C2943 1.397 . S
C2944 C2945 1.334 . S
C2945 H2922 0.950 . S
C2945 C2944 1.334 . S
C2945 C2946 1.287 . S
C2946 C2945 1.287 . S
C2946 C2947 1.524 . S
C2946 H2965 0.913 . S
C2947 H2923 0.950 . S
C2947 C2946 1.524 . S
C2947 C2948 1.415 . S
C2948 H2924 0.950 . S
C2948 C2943 1.363 . S
C2948 C2947 1.415 . S
C2949 H2925 0.951 . S
C2949 C2950 1.366 . S
C2949 C2951 1.388 . S
C2950 C2949 1.366 . S
C2950 C2954 1.385 . S
C2951 H2926 0.951 . S
C2951 C2949 1.388 . S
C2951 C2952 1.366 . S
C2952 C2951 1.366 . S
C2952 C2953 1.414 . S
C2952 C2955 1.499 . S
C2953 H2927 0.950 . S
C2953 C2952 1.414 . S
C2953 C2954 1.374 . S
C2954 H2928 0.950 . S
C2954 C2950 1.385 . S
C2954 C2953 1.374 . S
C2955 C2952 1.499 . S
C2955 C2956 1.373 . S
C2955 C2957 1.389 . S
C2956 H2929 0.950 . S
C2956 C2942 1.377 . S
C2956 C2955 1.373 . S
C2957 C2941 1.377 . S
C2957 C2955 1.389 . S
C2957 C2958 1.524 . S
C2958 C2957 1.524 . S
C2958 C2959 1.397 . S
C2958 C2963 1.363 . S
C2959 H2930 0.950 . S
C2959 C2958 1.397 . S
C2959 C2960 1.334 . S
C2960 H2931 0.950 . S
C2960 C2959 1.334 . S
C2960 C2961 1.287 . S
C2961 C2960 1.287 . S
C2961 C2962 1.524 . S
C2961 H2964 0.999 . S
C2962 H2932 0.950 . S
C2962 C2961 1.524 . S
C2962 C2963 1.415 . S
C2963 H2933 0.950 . S
C2963 C2958 1.363 . S
C2963 C2962 1.415 . S
H2964 C2961 0.999 . S
H2965 C2946 0.913 . S
H2966 C2984 0.951 . S
H2967 C2986 0.951 . S
H2968 C2988 0.950 . S
H2969 C2989 0.950 . S
H2970 C2991 0.950 . S
H2971 C2994 0.950 . S
H2972 C2995 0.950 . S
H2973 C2997 0.950 . S
H2974 C2998 0.950 . S
H2975 C2999 0.951 . S
H2976 C3001 0.951 . S
H2977 C3003 0.950 . S
H2978 C3004 0.950 . S
H2979 C3006 0.950 . S
H2980 C3009 0.950 . S
H2981 C3010 0.950 . S
H2982 C3012 0.950 . S
H2983 C3013 0.950 . S
C2984 H2966 0.951 . S
C2984 C2985 1.366 . S
C2984 C2986 1.388 . S
C2985 C2984 1.366 . S
C2985 C2989 1.385 . S
C2986 H2967 0.951 . S
C2986 C2984 1.388 . S
C2986 C2987 1.366 . S
C2987 C2986 1.366 . S
C2987 C2988 1.414 . S
C2987 C2990 1.499 . S
C2988 H2968 0.950 . S
C2988 C2987 1.414 . S
C2988 C2989 1.374 . S
C2989 H2969 0.950 . S
C2989 C2985 1.385 . S
C2989 C2988 1.374 . S
C2990 C2987 1.499 . S
C2990 C2991 1.373 . S
C2990 C2992 1.389 . S
C2991 H2970 0.950 . S
C2991 C2990 1.373 . S
C2991 C3007 1.377 . S
C2992 C2990 1.389 . S
C2992 C2993 1.524 . S
C2992 C3006 1.377 . S
C2993 C2992 1.524 . S
C2993 C2994 1.397 . S
C2993 C2998 1.363 . S
C2994 H2971 0.950 . S
C2994 C2993 1.397 . S
C2994 C2995 1.334 . S
C2995 H2972 0.950 . S
C2995 C2994 1.334 . S
C2995 C2996 1.287 . S
C2996 C2995 1.287 . S
C2996 C2997 1.524 . S
C2996 H3015 0.913 . S
C2997 H2973 0.950 . S
C2997 C2996 1.524 . S
C2997 C2998 1.415 . S
C2998 H2974 0.950 . S
C2998 C2993 1.363 . S
C2998 C2997 1.415 . S
C2999 H2975 0.951 . S
C2999 C3000 1.366 . S
C2999 C3001 1.388 . S
C3000 C2999 1.366 . S
C3000 C3004 1.385 . S
C3001 H2976 0.951 . S
C3001 C2999 1.388 . S
C3001 C3002 1.366 . S
C3002 C3001 1.366 . S
C3002 C3003 1.414 . S
C3002 C3005 1.499 . S
C3003 H2977 0.950 . S
C3003 C3002 1.414 . S
C3003 C3004 1.374 . S
C3004 H2978 0.950 . S
C3004 C3000 1.385 . S
C3004 C3003 1.374 . S
C3005 C3002 1.499 . S
C3005 C3006 1.373 . S
C3005 C3007 1.389 . S
C3006 H2979 0.950 . S
C3006 C2992 1.377 . S
C3006 C3005 1.373 . S
C3007 C2991 1.377 . S
C3007 C3005 1.389 . S
C3007 C3008 1.524 . S
C3008 C3007 1.524 . S
C3008 C3009 1.397 . S
C3008 C3013 1.363 . S
C3009 H2980 0.950 . S
C3009 C3008 1.397 . S
C3009 C3010 1.334 . S
C3010 H2981 0.950 . S
C3010 C3009 1.334 . S
C3010 C3011 1.287 . S
C3011 C3010 1.287 . S
C3011 C3012 1.524 . S
C3011 H3014 0.999 . S
C3012 H2982 0.950 . S
C3012 C3011 1.524 . S
C3012 C3013 1.415 . S
C3013 H2983 0.950 . S
C3013 C3008 1.363 . S
C3013 C3012 1.415 . S
H3014 C3011 0.999 . S
H3015 C2996 0.913 . S
H3016 C3034 0.951 . S
H3017 C3036 0.951 . S
H3018 C3038 0.950 . S
H3019 C3039 0.950 . S
H3020 C3041 0.950 . S
H3021 C3044 0.950 . S
H3022 C3045 0.950 . S
H3023 C3047 0.950 . S
H3024 C3048 0.950 . S
H3025 C3049 0.951 . S
H3026 C3051 0.951 . S
H3027 C3053 0.950 . S
H3028 C3054 0.950 . S
H3029 C3056 0.950 . S
H3030 C3059 0.950 . S
H3031 C3060 0.950 . S
H3032 C3062 0.950 . S
H3033 C3063 0.950 . S
C3034 H3016 0.951 . S
C3034 C3035 1.366 . S
C3034 C3036 1.388 . S
C3035 C3034 1.366 . S
C3035 C3039 1.385 . S
C3036 H3017 0.951 . S
C3036 C3034 1.388 . S
C3036 C3037 1.366 . S
C3037 C3036 1.366 . S
C3037 C3038 1.414 . S
C3037 C3040 1.499 . S
C3038 H3018 0.950 . S
C3038 C3037 1.414 . S
C3038 C3039 1.374 . S
C3039 H3019 0.950 . S
C3039 C3035 1.385 . S
C3039 C3038 1.374 . S
C3040 C3037 1.499 . S
C3040 C3041 1.373 . S
C3040 C3042 1.389 . S
C3041 H3020 0.950 . S
C3041 C3040 1.373 . S
C3041 C3057 1.377 . S
C3042 C3040 1.389 . S
C3042 C3043 1.524 . S
C3042 C3056 1.377 . S
C3043 C3042 1.524 . S
C3043 C3044 1.397 . S
C3043 C3048 1.363 . S
C3044 H3021 0.950 . S
C3044 C3043 1.397 . S
C3044 C3045 1.334 . S
C3045 H3022 0.950 . S
C3045 C3044 1.334 . S
C3045 C3046 1.287 . S
C3046 C3045 1.287 . S
C3046 C3047 1.524 . S
C3046 H3065 0.913 1_565 S
C3047 H3023 0.950 . S
C3047 C3046 1.524 . S
C3047 C3048 1.415 . S
C3048 H3024 0.950 . S
C3048 C3043 1.363 . S
C3048 C3047 1.415 . S
C3049 H3025 0.951 . S
C3049 C3050 1.366 . S
C3049 C3051 1.388 . S
C3050 C3049 1.366 . S
C3050 C3054 1.385 . S
C3051 H3026 0.951 . S
C3051 C3049 1.388 . S
C3051 C3052 1.366 . S
C3052 C3051 1.366 . S
C3052 C3053 1.414 . S
C3052 C3055 1.499 . S
C3053 H3027 0.950 . S
C3053 C3052 1.414 . S
C3053 C3054 1.374 . S
C3054 H3028 0.950 . S
C3054 C3050 1.385 . S
C3054 C3053 1.374 . S
C3055 C3052 1.499 . S
C3055 C3056 1.373 . S
C3055 C3057 1.389 . S
C3056 H3029 0.950 . S
C3056 C3042 1.377 . S
C3056 C3055 1.373 . S
C3057 C3041 1.377 . S
C3057 C3055 1.389 . S
C3057 C3058 1.524 . S
C3058 C3057 1.524 . S
C3058 C3059 1.397 . S
C3058 C3063 1.363 . S
C3059 H3030 0.950 . S
C3059 C3058 1.397 . S
C3059 C3060 1.334 . S
C3060 H3031 0.950 . S
C3060 C3059 1.334 . S
C3060 C3061 1.287 . S
C3061 C3060 1.287 . S
C3061 C3062 1.524 . S
C3061 H3064 0.999 . S
C3062 H3032 0.950 . S
C3062 C3061 1.524 . S
C3062 C3063 1.415 . S
C3063 H3033 0.950 . S
C3063 C3058 1.363 . S
C3063 C3062 1.415 . S
H3064 C3061 0.999 . S
H3065 C3046 0.913 1_545 S
H3066 C3084 0.925 1_554 S
H3067 C3086 0.951 . S
H3068 C3088 0.950 . S
H3069 C3089 0.950 . S
H3070 C3091 0.950 . S
H3071 C3094 0.950 . S
H3072 C3095 0.950 . S
H3073 C3097 0.950 . S
H3074 C3098 0.950 . S
H3075 C3099 0.951 . S
H3076 C3101 0.951 . S
H3077 C3103 0.950 . S
H3078 C3104 0.950 . S
H3079 C3106 0.950 . S
H3080 C3109 0.950 . S
H3081 C3110 0.950 . S
H3082 C3112 0.950 . S
H3083 C3113 0.950 . S
C3084 H3066 0.925 1_556 S
C3084 C3085 1.379 . S
C3084 C3086 1.400 . S
C3085 C3084 1.379 . S
C3085 C3089 1.385 . S
C3086 H3067 0.951 . S
C3086 C3084 1.400 . S
C3086 C3087 1.366 . S
C3087 C3086 1.366 . S
C3087 C3088 1.414 . S
C3087 C3090 1.499 . S
C3088 H3068 0.950 . S
C3088 C3087 1.414 . S
C3088 C3089 1.374 . S
C3089 H3069 0.950 . S
C3089 C3085 1.385 . S
C3089 C3088 1.374 . S
C3090 C3087 1.499 . S
C3090 C3091 1.373 . S
C3090 C3092 1.389 . S
C3091 H3070 0.950 . S
C3091 C3090 1.373 . S
C3091 C3107 1.377 . S
C3092 C3090 1.389 . S
C3092 C3093 1.524 . S
C3092 C3106 1.377 . S
C3093 C3092 1.524 . S
C3093 C3094 1.397 . S
C3093 C3098 1.363 1_556 S
C3094 H3071 0.950 . S
C3094 C3093 1.397 . S
C3094 C3095 1.334 1_556 S
C3095 H3072 0.950 . S
C3095 C3094 1.334 1_554 S
C3095 C3096 1.287 . S
C3096 C3095 1.287 . S
C3096 C3097 1.524 . S
C3096 H3115 0.913 . S
C3097 H3073 0.950 . S
C3097 C3096 1.524 . S
C3097 C3098 1.415 . S
C3098 H3074 0.950 . S
C3098 C3093 1.363 1_554 S
C3098 C3097 1.415 . S
C3099 H3075 0.951 . S
C3099 C3100 1.366 . S
C3099 C3101 1.388 . S
C3100 C3099 1.366 . S
C3100 C3104 1.385 . S
C3101 H3076 0.951 . S
C3101 C3099 1.388 . S
C3101 C3102 1.366 . S
C3102 C3101 1.366 . S
C3102 C3103 1.414 . S
C3102 C3105 1.499 . S
C3103 H3077 0.950 . S
C3103 C3102 1.414 . S
C3103 C3104 1.374 . S
C3104 H3078 0.950 . S
C3104 C3100 1.385 . S
C3104 C3103 1.374 . S
C3105 C3102 1.499 . S
C3105 C3106 1.373 . S
C3105 C3107 1.389 . S
C3106 H3079 0.950 . S
C3106 C3092 1.377 . S
C3106 C3105 1.373 . S
C3107 C3091 1.377 . S
C3107 C3105 1.389 . S
C3107 C3108 1.524 . S
C3108 C3107 1.524 . S
C3108 C3109 1.397 . S
C3108 C3113 1.363 . S
C3109 H3080 0.950 . S
C3109 C3108 1.397 . S
C3109 C3110 1.334 . S
C3110 H3081 0.950 . S
C3110 C3109 1.334 . S
C3110 C3111 1.287 . S
C3111 C3110 1.287 . S
C3111 C3112 1.524 . S
C3111 H3114 0.999 . S
C3112 H3082 0.950 . S
C3112 C3111 1.524 . S
C3112 C3113 1.415 . S
C3113 H3083 0.950 . S
C3113 C3108 1.363 . S
C3113 C3112 1.415 . S
H3114 C3111 0.999 . S
H3115 C3096 0.913 . S
H3116 C3134 0.951 . S
H3117 C3136 0.951 . S
H3118 C3138 0.950 . S
H3119 C3139 0.950 . S
H3120 C3141 0.950 . S
H3121 C3144 0.950 . S
H3122 C3145 0.950 . S
H3123 C3147 0.950 . S
H3124 C3148 0.950 . S
H3125 C3149 0.951 . S
H3126 C3151 0.951 . S
H3127 C3153 0.950 . S
H3128 C3154 0.950 . S
H3129 C3156 0.950 . S
H3130 C3159 0.950 . S
H3131 C3160 0.950 . S
H3132 C3162 0.950 . S
H3133 C3163 0.950 . S
C3134 H3116 0.951 . S
C3134 C3135 1.366 . S
C3134 C3136 1.388 . S
C3135 C3134 1.366 . S
C3135 C3139 1.385 . S
C3136 H3117 0.951 . S
C3136 C3134 1.388 . S
C3136 C3137 1.366 . S
C3137 C3136 1.366 . S
C3137 C3138 1.414 . S
C3137 C3140 1.499 . S
C3138 H3118 0.950 . S
C3138 C3137 1.414 . S
C3138 C3139 1.374 . S
C3139 H3119 0.950 . S
C3139 C3135 1.385 . S
C3139 C3138 1.374 . S
C3140 C3137 1.499 . S
C3140 C3141 1.373 . S
C3140 C3142 1.389 . S
C3141 H3120 0.950 . S
C3141 C3140 1.373 . S
C3141 C3157 1.377 . S
C3142 C3140 1.389 . S
C3142 C3143 1.524 . S
C3142 C3156 1.377 . S
C3143 C3142 1.524 . S
C3143 C3144 1.397 . S
C3143 C3148 1.363 . S
C3144 H3121 0.950 . S
C3144 C3143 1.397 . S
C3144 C3145 1.334 . S
C3145 H3122 0.950 . S
C3145 C3144 1.334 . S
C3145 C3146 1.287 . S
C3146 C3145 1.287 . S
C3146 C3147 1.524 . S
C3146 H3165 0.913 . S
C3147 H3123 0.950 . S
C3147 C3146 1.524 . S
C3147 C3148 1.415 . S
C3148 H3124 0.950 . S
C3148 C3143 1.363 . S
C3148 C3147 1.415 . S
C3149 H3125 0.951 . S
C3149 C3150 1.366 . S
C3149 C3151 1.388 . S
C3150 C3149 1.366 . S
C3150 C3154 1.385 . S
C3151 H3126 0.951 . S
C3151 C3149 1.388 . S
C3151 C3152 1.366 . S
C3152 C3151 1.366 . S
C3152 C3153 1.414 . S
C3152 C3155 1.499 . S
C3153 H3127 0.950 . S
C3153 C3152 1.414 . S
C3153 C3154 1.374 . S
C3154 H3128 0.950 . S
C3154 C3150 1.385 . S
C3154 C3153 1.374 . S
C3155 C3152 1.499 . S
C3155 C3156 1.373 . S
C3155 C3157 1.389 . S
C3156 H3129 0.950 . S
C3156 C3142 1.377 . S
C3156 C3155 1.373 . S
C3157 C3141 1.377 . S
C3157 C3155 1.389 . S
C3157 C3158 1.524 . S
C3158 C3157 1.524 . S
C3158 C3159 1.397 . S
C3158 C3163 1.363 . S
C3159 H3130 0.950 . S
C3159 C3158 1.397 . S
C3159 C3160 1.334 . S
C3160 H3131 0.950 . S
C3160 C3159 1.334 . S
C3160 C3161 1.287 . S
C3161 C3160 1.287 . S
C3161 C3162 1.524 . S
C3161 H3164 0.999 1_556 S
C3162 H3132 0.950 . S
C3162 C3161 1.524 . S
C3162 C3163 1.415 . S
C3163 H3133 0.950 . S
C3163 C3158 1.363 . S
C3163 C3162 1.415 . S
H3164 C3161 0.999 1_554 S
H3165 C3146 0.913 . S
H3166 C3184 0.951 . S
H3167 C3186 0.951 . S
H3168 C3188 0.950 . S
H3169 C3189 0.950 1_554 S
H3170 C3191 0.950 . S
H3171 C3194 0.950 . S
H3172 C3195 0.950 . S
H3173 C3197 0.950 . S
H3174 C3198 0.950 . S
H3175 C3199 0.951 . S
H3176 C3201 0.951 . S
H3177 C3203 0.950 . S
H3178 C3204 0.950 . S
H3179 C3206 0.950 . S
H3180 C3209 0.950 . S
H3181 C3210 0.950 . S
H3182 C3212 0.950 . S
H3183 C3213 0.950 . S
C3184 H3166 0.951 . S
C3184 C3185 1.366 . S
C3184 C3186 1.388 . S
C3185 C3184 1.366 . S
C3185 C3189 1.385 . S
C3186 H3167 0.951 . S
C3186 C3184 1.388 . S
C3186 C3187 1.366 . S
C3187 C3186 1.366 . S
C3187 C3188 1.414 . S
C3187 C3190 1.499 . S
C3188 H3168 0.950 . S
C3188 C3187 1.414 . S
C3188 C3189 1.374 . S
C3189 H3169 0.950 1_556 S
C3189 C3185 1.385 . S
C3189 C3188 1.374 . S
C3190 C3187 1.499 . S
C3190 C3191 1.373 . S
C3190 C3192 1.389 . S
C3191 H3170 0.950 . S
C3191 C3190 1.373 . S
C3191 C3207 1.377 . S
C3192 C3190 1.389 . S
C3192 C3193 1.524 . S
C3192 C3206 1.377 . S
C3193 C3192 1.524 . S
C3193 C3194 1.397 . S
C3193 C3198 1.363 . S
C3194 H3171 0.950 . S
C3194 C3193 1.397 . S
C3194 C3195 1.334 . S
C3195 H3172 0.950 . S
C3195 C3194 1.334 . S
C3195 C3196 1.287 . S
C3196 C3195 1.287 . S
C3196 C3197 1.524 . S
C3196 H3215 0.913 . S
C3197 H3173 0.950 . S
C3197 C3196 1.524 . S
C3197 C3198 1.415 . S
C3198 H3174 0.950 . S
C3198 C3193 1.363 . S
C3198 C3197 1.415 . S
C3199 H3175 0.951 . S
C3199 C3200 1.366 . S
C3199 C3201 1.388 . S
C3200 C3199 1.366 . S
C3200 C3204 1.385 . S
C3201 H3176 0.951 . S
C3201 C3199 1.388 . S
C3201 C3202 1.366 . S
C3202 C3201 1.366 . S
C3202 C3203 1.414 . S
C3202 C3205 1.499 . S
C3203 H3177 0.950 . S
C3203 C3202 1.414 . S
C3203 C3204 1.374 . S
C3204 H3178 0.950 . S
C3204 C3200 1.385 . S
C3204 C3203 1.374 . S
C3205 C3202 1.499 . S
C3205 C3206 1.373 . S
C3205 C3207 1.389 . S
C3206 H3179 0.950 . S
C3206 C3192 1.377 . S
C3206 C3205 1.373 . S
C3207 C3191 1.377 . S
C3207 C3205 1.389 . S
C3207 C3208 1.524 . S
C3208 C3207 1.524 . S
C3208 C3209 1.397 . S
C3208 C3213 1.363 . S
C3209 H3180 0.950 . S
C3209 C3208 1.397 . S
C3209 C3210 1.334 . S
C3210 H3181 0.950 . S
C3210 C3209 1.334 . S
C3210 C3211 1.287 . S
C3211 C3210 1.287 . S
C3211 C3212 1.524 1_556 S
C3211 H3214 0.999 1_556 S
C3212 H3182 0.950 . S
C3212 C3211 1.524 1_554 S
C3212 C3213 1.415 1_554 S
C3213 H3183 0.950 . S
C3213 C3208 1.363 . S
C3213 C3212 1.415 1_556 S
H3214 C3211 0.999 1_554 S
H3215 C3196 0.913 . S
H3216 C3234 0.951 . S
H3217 C3236 0.951 . S
H3218 C3238 0.950 . S
H3219 C3239 0.950 . S
H3220 C3241 0.950 . S
H3221 C3244 0.950 . S
H3222 C3245 0.950 . S
H3223 C3247 0.950 . S
H3224 C3248 0.950 . S
H3225 C3249 0.951 . S
H3226 C3251 0.951 . S
H3227 C3253 0.950 . S
H3228 C3254 0.950 . S
H3229 C3256 0.950 . S
H3230 C3259 0.950 . S
H3231 C3260 0.950 . S
H3232 C3262 0.950 . S
H3233 C3263 0.950 . S
C3234 H3216 0.951 . S
C3234 C3235 1.366 . S
C3234 C3236 1.388 . S
C3235 C3234 1.366 . S
C3235 C3239 1.385 . S
C3236 H3217 0.951 . S
C3236 C3234 1.388 . S
C3236 C3237 1.366 . S
C3237 C3236 1.366 . S
C3237 C3238 1.414 . S
C3237 C3240 1.499 . S
C3238 H3218 0.950 . S
C3238 C3237 1.414 . S
C3238 C3239 1.374 . S
C3239 H3219 0.950 . S
C3239 C3235 1.385 . S
C3239 C3238 1.374 . S
C3240 C3237 1.499 . S
C3240 C3241 1.373 . S
C3240 C3242 1.389 . S
C3241 H3220 0.950 . S
C3241 C3240 1.373 . S
C3241 C3257 1.377 . S
C3242 C3240 1.389 . S
C3242 C3243 1.524 . S
C3242 C3256 1.377 . S
C3243 C3242 1.524 . S
C3243 C3244 1.397 . S
C3243 C3248 1.363 . S
C3244 H3221 0.950 . S
C3244 C3243 1.397 . S
C3244 C3245 1.334 . S
C3245 H3222 0.950 . S
C3245 C3244 1.334 . S
C3245 C3246 1.287 . S
C3246 C3245 1.287 . S
C3246 C3247 1.524 . S
C3246 H3265 0.913 . S
C3247 H3223 0.950 . S
C3247 C3246 1.524 . S
C3247 C3248 1.415 . S
C3248 H3224 0.950 . S
C3248 C3243 1.363 . S
C3248 C3247 1.415 . S
C3249 H3225 0.951 . S
C3249 C3250 1.366 . S
C3249 C3251 1.388 . S
C3250 C3249 1.366 . S
C3250 C3254 1.385 . S
C3251 H3226 0.951 . S
C3251 C3249 1.388 . S
C3251 C3252 1.366 . S
C3252 C3251 1.366 . S
C3252 C3253 1.414 . S
C3252 C3255 1.499 . S
C3253 H3227 0.950 . S
C3253 C3252 1.414 . S
C3253 C3254 1.374 . S
C3254 H3228 0.950 . S
C3254 C3250 1.385 . S
C3254 C3253 1.374 . S
C3255 C3252 1.499 . S
C3255 C3256 1.373 . S
C3255 C3257 1.389 . S
C3256 H3229 0.950 . S
C3256 C3242 1.377 . S
C3256 C3255 1.373 . S
C3257 C3241 1.377 . S
C3257 C3255 1.389 . S
C3257 C3258 1.524 . S
C3258 C3257 1.524 . S
C3258 C3259 1.397 . S
C3258 C3263 1.363 . S
C3259 H3230 0.950 . S
C3259 C3258 1.397 . S
C3259 C3260 1.334 . S
C3260 H3231 0.950 . S
C3260 C3259 1.334 . S
C3260 C3261 1.287 . S
C3261 C3260 1.287 . S
C3261 C3262 1.524 . S
C3261 H3264 0.999 . S
C3262 H3232 0.950 . S
C3262 C3261 1.524 . S
C3262 C3263 1.415 . S
C3263 H3233 0.950 . S
C3263 C3258 1.363 . S
C3263 C3262 1.415 . S
H3264 C3261 0.999 . S
H3265 C3246 0.913 . S
H3266 C3284 0.951 . S
H3267 C3286 0.951 . S
H3268 C3288 0.950 . S
H3269 C3289 0.950 1_554 S
H3270 C3291 0.950 . S
H3271 C3294 0.950 . S
H3272 C3295 0.950 . S
H3273 C3297 0.950 . S
H3274 C3298 0.950 . S
H3275 C3299 0.951 . S
H3276 C3301 0.951 . S
H3277 C3303 0.950 . S
H3278 C3304 0.950 . S
H3279 C3306 0.950 . S
H3280 C3309 0.950 . S
H3281 C3310 0.950 . S
H3282 C3312 0.950 1_554 S
H3283 C3313 0.950 . S
C3284 H3266 0.951 . S
C3284 C3285 1.366 . S
C3284 C3286 1.388 . S
C3285 C3284 1.366 . S
C3285 C3289 1.385 . S
C3286 H3267 0.951 . S
C3286 C3284 1.388 . S
C3286 C3287 1.366 . S
C3287 C3286 1.366 . S
C3287 C3288 1.414 . S
C3287 C3290 1.499 . S
C3288 H3268 0.950 . S
C3288 C3287 1.414 . S
C3288 C3289 1.374 . S
C3289 H3269 0.950 1_556 S
C3289 C3285 1.385 . S
C3289 C3288 1.374 . S
C3290 C3287 1.499 . S
C3290 C3291 1.373 . S
C3290 C3292 1.389 . S
C3291 H3270 0.950 . S
C3291 C3290 1.373 . S
C3291 C3307 1.377 . S
C3292 C3290 1.389 . S
C3292 C3293 1.524 . S
C3292 C3306 1.377 . S
C3293 C3292 1.524 . S
C3293 C3294 1.397 . S
C3293 C3298 1.363 . S
C3294 H3271 0.950 . S
C3294 C3293 1.397 . S
C3294 C3295 1.334 . S
C3295 H3272 0.950 . S
C3295 C3294 1.334 . S
C3295 C3296 1.287 . S
C3296 C3295 1.287 . S
C3296 C3297 1.524 . S
C3296 H3315 0.913 . S
C3297 H3273 0.950 . S
C3297 C3296 1.524 . S
C3297 C3298 1.415 . S
C3298 H3274 0.950 . S
C3298 C3293 1.363 . S
C3298 C3297 1.415 . S
C3299 H3275 0.951 . S
C3299 C3300 1.366 . S
C3299 C3301 1.388 . S
C3300 C3299 1.366 . S
C3300 C3304 1.385 . S
C3301 H3276 0.951 . S
C3301 C3299 1.388 . S
C3301 C3302 1.366 . S
C3302 C3301 1.366 . S
C3302 C3303 1.414 . S
C3302 C3305 1.499 . S
C3303 H3277 0.950 . S
C3303 C3302 1.414 . S
C3303 C3304 1.374 . S
C3304 H3278 0.950 . S
C3304 C3300 1.385 . S
C3304 C3303 1.374 . S
C3305 C3302 1.499 . S
C3305 C3306 1.373 . S
C3305 C3307 1.389 . S
C3306 H3279 0.950 . S
C3306 C3292 1.377 . S
C3306 C3305 1.373 . S
C3307 C3291 1.377 . S
C3307 C3305 1.389 . S
C3307 C3308 1.524 . S
C3308 C3307 1.524 . S
C3308 C3309 1.397 . S
C3308 C3313 1.363 . S
C3309 H3280 0.950 . S
C3309 C3308 1.397 . S
C3309 C3310 1.334 . S
C3310 H3281 0.950 . S
C3310 C3309 1.334 . S
C3310 C3311 1.287 . S
C3311 C3310 1.287 . S
C3311 C3312 1.524 . S
C3311 H3314 0.999 . S
C3312 H3282 0.950 1_556 S
C3312 C3311 1.524 . S
C3312 C3313 1.415 . S
C3313 H3283 0.950 . S
C3313 C3308 1.363 . S
C3313 C3312 1.415 . S
H3314 C3311 0.999 . S
H3315 C3296 0.913 . S
H3316 C3334 0.951 . S
H3317 C3336 0.951 . S
H3318 C3338 0.950 1_554 S
H3319 C3339 0.950 . S
H3320 C3341 0.950 . S
H3321 C3344 0.950 . S
H3322 C3345 0.950 . S
H3323 C3347 0.950 . S
H3324 C3348 0.950 . S
H3325 C3349 0.951 . S
H3326 C3351 0.951 . S
H3327 C3353 0.950 . S
H3328 C3354 0.950 . S
H3329 C3356 0.950 . S
H3330 C3359 0.950 . S
H3331 C3360 0.950 . S
H3332 C3362 0.950 . S
H3333 C3363 0.950 . S
C3334 H3316 0.951 . S
C3334 C3335 1.366 . S
C3334 C3336 1.388 . S
C3335 C3334 1.366 . S
C3335 C3339 1.385 1_556 S
C3336 H3317 0.951 . S
C3336 C3334 1.388 . S
C3336 C3337 1.366 . S
C3337 C3336 1.366 . S
C3337 C3338 1.414 . S
C3337 C3340 1.499 . S
C3338 H3318 0.950 1_556 S
C3338 C3337 1.414 . S
C3338 C3339 1.374 1_556 S
C3339 H3319 0.950 . S
C3339 C3335 1.385 1_554 S
C3339 C3338 1.374 1_554 S
C3340 C3337 1.499 . S
C3340 C3341 1.373 . S
C3340 C3342 1.389 . S
C3341 H3320 0.950 . S
C3341 C3340 1.373 . S
C3341 C3357 1.377 . S
C3342 C3340 1.389 . S
C3342 C3343 1.524 . S
C3342 C3356 1.377 . S
C3343 C3342 1.524 . S
C3343 C3344 1.397 . S
C3343 C3348 1.363 . S
C3344 H3321 0.950 . S
C3344 C3343 1.397 . S
C3344 C3345 1.334 . S
C3345 H3322 0.950 . S
C3345 C3344 1.334 . S
C3345 C3346 1.287 . S
C3346 C3345 1.287 . S
C3346 C3347 1.524 . S
C3346 H3365 0.913 . S
C3347 H3323 0.950 . S
C3347 C3346 1.524 . S
C3347 C3348 1.415 . S
C3348 H3324 0.950 . S
C3348 C3343 1.363 . S
C3348 C3347 1.415 . S
C3349 H3325 0.951 . S
C3349 C3350 1.366 . S
C3349 C3351 1.388 . S
C3350 C3349 1.366 . S
C3350 C3354 1.385 . S
C3351 H3326 0.951 . S
C3351 C3349 1.388 . S
C3351 C3352 1.366 . S
C3352 C3351 1.366 . S
C3352 C3353 1.414 . S
C3352 C3355 1.499 . S
C3353 H3327 0.950 . S
C3353 C3352 1.414 . S
C3353 C3354 1.374 . S
C3354 H3328 0.950 . S
C3354 C3350 1.385 . S
C3354 C3353 1.374 . S
C3355 C3352 1.499 . S
C3355 C3356 1.373 . S
C3355 C3357 1.389 . S
C3356 H3329 0.950 . S
C3356 C3342 1.377 . S
C3356 C3355 1.373 . S
C3357 C3341 1.377 . S
C3357 C3355 1.389 . S
C3357 C3358 1.524 . S
C3358 C3357 1.524 . S
C3358 C3359 1.397 . S
C3358 C3363 1.363 . S
C3359 H3330 0.950 . S
C3359 C3358 1.397 . S
C3359 C3360 1.334 . S
C3360 H3331 0.950 . S
C3360 C3359 1.334 . S
C3360 C3361 1.287 . S
C3361 C3360 1.287 . S
C3361 C3362 1.524 . S
C3361 H3364 0.999 . S
C3362 H3332 0.950 . S
C3362 C3361 1.524 . S
C3362 C3363 1.415 . S
C3363 H3333 0.950 . S
C3363 C3358 1.363 . S
C3363 C3362 1.415 . S
H3364 C3361 0.999 . S
H3365 C3346 0.913 . S
H3366 C3384 0.951 . S
H3367 C3386 0.951 . S
H3368 C3388 0.950 . S
H3369 C3389 0.950 . S
H3370 C3391 0.950 . S
H3371 C3394 0.950 . S
H3372 C3395 0.950 . S
H3373 C3397 0.950 . S
H3374 C3398 0.950 . S
H3375 C3399 0.951 . S
H3376 C3401 0.951 . S
H3377 C3403 0.950 . S
H3378 C3404 0.950 . S
H3379 C3406 0.950 . S
H3380 C3409 0.950 . S
H3381 C3410 0.950 . S
H3382 C3412 0.950 . S
H3383 C3413 0.950 . S
C3384 H3366 0.951 . S
C3384 C3385 1.366 . S
C3384 C3386 1.388 . S
C3385 C3384 1.366 . S
C3385 C3389 1.385 . S
C3386 H3367 0.951 . S
C3386 C3384 1.388 . S
C3386 C3387 1.366 . S
C3387 C3386 1.366 . S
C3387 C3388 1.414 . S
C3387 C3390 1.499 . S
C3388 H3368 0.950 . S
C3388 C3387 1.414 . S
C3388 C3389 1.374 . S
C3389 H3369 0.950 . S
C3389 C3385 1.385 . S
C3389 C3388 1.374 . S
C3390 C3387 1.499 . S
C3390 C3391 1.373 . S
C3390 C3392 1.389 . S
C3391 H3370 0.950 . S
C3391 C3390 1.373 . S
C3391 C3407 1.377 . S
C3392 C3390 1.389 . S
C3392 C3393 1.524 . S
C3392 C3406 1.377 . S
C3393 C3392 1.524 . S
C3393 C3394 1.397 . S
C3393 C3398 1.363 . S
C3394 H3371 0.950 . S
C3394 C3393 1.397 . S
C3394 C3395 1.334 . S
C3395 H3372 0.950 . S
C3395 C3394 1.334 . S
C3395 C3396 1.287 . S
C3396 C3395 1.287 . S
C3396 C3397 1.524 . S
C3396 H3415 0.913 . S
C3397 H3373 0.950 . S
C3397 C3396 1.524 . S
C3397 C3398 1.415 . S
C3398 H3374 0.950 . S
C3398 C3393 1.363 . S
C3398 C3397 1.415 . S
C3399 H3375 0.951 . S
C3399 C3400 1.366 . S
C3399 C3401 1.388 . S
C3400 C3399 1.366 . S
C3400 C3404 1.385 . S
C3401 H3376 0.951 . S
C3401 C3399 1.388 . S
C3401 C3402 1.366 . S
C3402 C3401 1.366 . S
C3402 C3403 1.414 . S
C3402 C3405 1.499 . S
C3403 H3377 0.950 . S
C3403 C3402 1.414 . S
C3403 C3404 1.374 . S
C3404 H3378 0.950 . S
C3404 C3400 1.385 . S
C3404 C3403 1.374 . S
C3405 C3402 1.499 . S
C3405 C3406 1.373 . S
C3405 C3407 1.389 . S
C3406 H3379 0.950 . S
C3406 C3392 1.377 . S
C3406 C3405 1.373 . S
C3407 C3391 1.377 . S
C3407 C3405 1.389 . S
C3407 C3408 1.524 . S
C3408 C3407 1.524 . S
C3408 C3409 1.397 . S
C3408 C3413 1.363 . S
C3409 H3380 0.950 . S
C3409 C3408 1.397 . S
C3409 C3410 1.334 . S
C3410 H3381 0.950 . S
C3410 C3409 1.334 . S
C3410 C3411 1.287 . S
C3411 C3410 1.287 . S
C3411 C3412 1.524 . S
C3411 H3414 0.999 . S
C3412 H3382 0.950 . S
C3412 C3411 1.524 . S
C3412 C3413 1.415 . S
C3413 H3383 0.950 . S
C3413 C3408 1.363 . S
C3413 C3412 1.415 . S
H3414 C3411 0.999 . S
H3415 C3396 0.913 . S
H3416 C3434 0.951 . S
H3417 C3436 0.951 . S
H3418 C3438 0.950 . S
H3419 C3439 0.950 . S
H3420 C3441 0.950 . S
H3421 C3444 0.950 . S
H3422 C3445 0.950 1_556 S
H3423 C3447 0.950 . S
H3424 C3448 0.950 . S
H3425 C3449 0.951 . S
H3426 C3451 0.951 . S
H3427 C3453 0.950 . S
H3428 C3454 0.950 . S
H3429 C3456 0.950 . S
H3430 C3459 0.950 . S
H3431 C3460 0.950 . S
H3432 C3462 0.950 . S
H3433 C3463 0.950 . S
C3434 H3416 0.951 . S
C3434 C3435 1.366 . S
C3434 C3436 1.388 . S
C3435 C3434 1.366 . S
C3435 C3439 1.385 . S
C3436 H3417 0.951 . S
C3436 C3434 1.388 . S
C3436 C3437 1.366 . S
C3437 C3436 1.366 . S
C3437 C3438 1.414 . S
C3437 C3440 1.499 . S
C3438 H3418 0.950 . S
C3438 C3437 1.414 . S
C3438 C3439 1.374 . S
C3439 H3419 0.950 . S
C3439 C3435 1.385 . S
C3439 C3438 1.374 . S
C3440 C3437 1.499 . S
C3440 C3441 1.373 . S
C3440 C3442 1.389 . S
C3441 H3420 0.950 . S
C3441 C3440 1.373 . S
C3441 C3457 1.377 . S
C3442 C3440 1.389 . S
C3442 C3443 1.524 . S
C3442 C3456 1.377 . S
C3443 C3442 1.524 . S
C3443 C3444 1.397 . S
C3443 C3448 1.363 . S
C3444 H3421 0.950 . S
C3444 C3443 1.397 . S
C3444 C3445 1.334 . S
C3445 H3422 0.950 1_554 S
C3445 C3444 1.334 . S
C3445 C3446 1.287 . S
C3446 C3445 1.287 . S
C3446 C3447 1.524 . S
C3446 H3465 0.913 . S
C3447 H3423 0.950 . S
C3447 C3446 1.524 . S
C3447 C3448 1.415 . S
C3448 H3424 0.950 . S
C3448 C3443 1.363 . S
C3448 C3447 1.415 . S
C3449 H3425 0.951 . S
C3449 C3450 1.366 . S
C3449 C3451 1.388 . S
C3450 C3449 1.366 . S
C3450 C3454 1.385 . S
C3451 H3426 0.951 . S
C3451 C3449 1.388 . S
C3451 C3452 1.366 . S
C3452 C3451 1.366 . S
C3452 C3453 1.414 . S
C3452 C3455 1.499 . S
C3453 H3427 0.950 . S
C3453 C3452 1.414 . S
C3453 C3454 1.374 . S
C3454 H3428 0.950 . S
C3454 C3450 1.385 . S
C3454 C3453 1.374 . S
C3455 C3452 1.499 . S
C3455 C3456 1.373 . S
C3455 C3457 1.389 . S
C3456 H3429 0.950 . S
C3456 C3442 1.377 . S
C3456 C3455 1.373 . S
C3457 C3441 1.377 . S
C3457 C3455 1.389 . S
C3457 C3458 1.524 . S
C3458 C3457 1.524 . S
C3458 C3459 1.397 . S
C3458 C3463 1.363 . S
C3459 H3430 0.950 . S
C3459 C3458 1.397 . S
C3459 C3460 1.334 . S
C3460 H3431 0.950 . S
C3460 C3459 1.334 . S
C3460 C3461 1.287 . S
C3461 C3460 1.287 . S
C3461 C3462 1.524 . S
C3461 H3464 0.999 . S
C3462 H3432 0.950 . S
C3462 C3461 1.524 . S
C3462 C3463 1.415 . S
C3463 H3433 0.950 . S
C3463 C3458 1.363 . S
C3463 C3462 1.415 . S
H3464 C3461 0.999 . S
H3465 C3446 0.913 . S
H3466 C3484 0.951 . S
H3467 C3486 0.951 . S
H3468 C3488 0.950 . S
H3469 C3489 0.950 . S
H3470 C3491 0.950 . S
H3471 C3494 0.950 . S
H3472 C3495 0.950 . S
H3473 C3497 0.950 . S
H3474 C3498 0.950 . S
H3475 C3499 0.951 . S
H3476 C3501 0.951 . S
H3477 C3503 0.950 . S
H3478 C3504 0.950 . S
H3479 C3506 0.950 . S
H3480 C3509 0.950 . S
H3481 C3510 0.950 . S
H3482 C3512 0.950 . S
H3483 C3513 0.950 . S
C3484 H3466 0.951 . S
C3484 C3485 1.366 . S
C3484 C3486 1.388 . S
C3485 C3484 1.366 . S
C3485 C3489 1.385 . S
C3486 H3467 0.951 . S
C3486 C3484 1.388 . S
C3486 C3487 1.366 . S
C3487 C3486 1.366 . S
C3487 C3488 1.414 . S
C3487 C3490 1.499 . S
C3488 H3468 0.950 . S
C3488 C3487 1.414 . S
C3488 C3489 1.374 . S
C3489 H3469 0.950 . S
C3489 C3485 1.385 . S
C3489 C3488 1.374 . S
C3490 C3487 1.499 . S
C3490 C3491 1.373 . S
C3490 C3492 1.389 . S
C3491 H3470 0.950 . S
C3491 C3490 1.373 . S
C3491 C3507 1.377 . S
C3492 C3490 1.389 . S
C3492 C3493 1.524 . S
C3492 C3506 1.377 . S
C3493 C3492 1.524 . S
C3493 C3494 1.397 . S
C3493 C3498 1.363 . S
C3494 H3471 0.950 . S
C3494 C3493 1.397 . S
C3494 C3495 1.334 . S
C3495 H3472 0.950 . S
C3495 C3494 1.334 . S
C3495 C3496 1.287 . S
C3496 C3495 1.287 . S
C3496 C3497 1.524 . S
C3496 H3515 0.913 . S
C3497 H3473 0.950 . S
C3497 C3496 1.524 . S
C3497 C3498 1.415 . S
C3498 H3474 0.950 . S
C3498 C3493 1.363 . S
C3498 C3497 1.415 . S
C3499 H3475 0.951 . S
C3499 C3500 1.366 . S
C3499 C3501 1.388 . S
C3500 C3499 1.366 . S
C3500 C3504 1.385 . S
C3501 H3476 0.951 . S
C3501 C3499 1.388 . S
C3501 C3502 1.366 . S
C3502 C3501 1.366 . S
C3502 C3503 1.414 . S
C3502 C3505 1.499 . S
C3503 H3477 0.950 . S
C3503 C3502 1.414 . S
C3503 C3504 1.374 . S
C3504 H3478 0.950 . S
C3504 C3500 1.385 . S
C3504 C3503 1.374 . S
C3505 C3502 1.499 . S
C3505 C3506 1.373 . S
C3505 C3507 1.389 . S
C3506 H3479 0.950 . S
C3506 C3492 1.377 . S
C3506 C3505 1.373 . S
C3507 C3491 1.377 . S
C3507 C3505 1.389 . S
C3507 C3508 1.524 . S
C3508 C3507 1.524 . S
C3508 C3509 1.397 . S
C3508 C3513 1.363 . S
C3509 H3480 0.950 . S
C3509 C3508 1.397 . S
C3509 C3510 1.334 . S
C3510 H3481 0.950 . S
C3510 C3509 1.334 . S
C3510 C3511 1.287 . S
C3511 C3510 1.287 . S
C3511 C3512 1.524 . S
C3511 H3514 0.999 . S
C3512 H3482 0.950 . S
C3512 C3511 1.524 . S
C3512 C3513 1.415 . S
C3513 H3483 0.950 . S
C3513 C3508 1.363 . S
C3513 C3512 1.415 . S
H3514 C3511 0.999 . S
H3515 C3496 0.913 . S
H3516 C3534 0.951 . S
H3517 C3536 0.951 . S
H3518 C3538 0.950 . S
H3519 C3539 0.950 . S
H3520 C3541 0.950 . S
H3521 C3544 0.950 . S
H3522 C3545 0.950 . S
H3523 C3547 0.950 . S
H3524 C3548 0.950 . S
H3525 C3549 0.951 . S
H3526 C3551 0.951 . S
H3527 C3553 0.950 . S
H3528 C3554 0.950 . S
H3529 C3556 0.950 . S
H3530 C3559 0.950 . S
H3531 C3560 0.950 . S
H3532 C3562 0.950 . S
H3533 C3563 0.950 . S
C3534 H3516 0.951 . S
C3534 C3535 1.366 . S
C3534 C3536 1.388 . S
C3535 C3534 1.366 . S
C3535 C3539 1.385 . S
C3536 H3517 0.951 . S
C3536 C3534 1.388 . S
C3536 C3537 1.366 . S
C3537 C3536 1.366 . S
C3537 C3538 1.414 . S
C3537 C3540 1.499 . S
C3538 H3518 0.950 . S
C3538 C3537 1.414 . S
C3538 C3539 1.374 . S
C3539 H3519 0.950 . S
C3539 C3535 1.385 . S
C3539 C3538 1.374 . S
C3540 C3537 1.499 . S
C3540 C3541 1.373 . S
C3540 C3542 1.389 . S
C3541 H3520 0.950 . S
C3541 C3540 1.373 . S
C3541 C3557 1.377 . S
C3542 C3540 1.389 . S
C3542 C3543 1.524 . S
C3542 C3556 1.377 . S
C3543 C3542 1.524 . S
C3543 C3544 1.397 . S
C3543 C3548 1.363 . S
C3544 H3521 0.950 . S
C3544 C3543 1.397 . S
C3544 C3545 1.334 . S
C3545 H3522 0.950 . S
C3545 C3544 1.334 . S
C3545 C3546 1.287 . S
C3546 C3545 1.287 . S
C3546 C3547 1.524 . S
C3546 H3565 0.913 . S
C3547 H3523 0.950 . S
C3547 C3546 1.524 . S
C3547 C3548 1.415 . S
C3548 H3524 0.950 . S
C3548 C3543 1.363 . S
C3548 C3547 1.415 . S
C3549 H3525 0.951 . S
C3549 C3550 1.366 . S
C3549 C3551 1.388 . S
C3550 C3549 1.366 . S
C3550 C3554 1.385 . S
C3551 H3526 0.951 . S
C3551 C3549 1.388 . S
C3551 C3552 1.366 . S
C3552 C3551 1.366 . S
C3552 C3553 1.414 . S
C3552 C3555 1.499 . S
C3553 H3527 0.950 . S
C3553 C3552 1.414 . S
C3553 C3554 1.374 . S
C3554 H3528 0.950 . S
C3554 C3550 1.385 . S
C3554 C3553 1.374 . S
C3555 C3552 1.499 . S
C3555 C3556 1.373 . S
C3555 C3557 1.389 . S
C3556 H3529 0.950 . S
C3556 C3542 1.377 . S
C3556 C3555 1.373 . S
C3557 C3541 1.377 . S
C3557 C3555 1.389 . S
C3557 C3558 1.524 . S
C3558 C3557 1.524 . S
C3558 C3559 1.397 . S
C3558 C3563 1.363 . S
C3559 H3530 0.950 . S
C3559 C3558 1.397 . S
C3559 C3560 1.334 . S
C3560 H3531 0.950 . S
C3560 C3559 1.334 . S
C3560 C3561 1.287 . S
C3561 C3560 1.287 . S
C3561 C3562 1.524 . S
C3561 H3564 0.999 . S
C3562 H3532 0.950 . S
C3562 C3561 1.524 . S
C3562 C3563 1.415 . S
C3563 H3533 0.950 . S
C3563 C3558 1.363 . S
C3563 C3562 1.415 . S
H3564 C3561 0.999 . S
H3565 C3546 0.913 . S
H3566 C3584 0.951 . S
H3567 C3586 0.951 . S
H3568 C3588 0.950 . S
H3569 C3589 0.950 . S
H3570 C3591 0.950 . S
H3571 C3594 0.950 . S
H3572 C3595 0.950 . S
H3573 C3597 0.950 . S
H3574 C3598 0.950 . S
H3575 C3599 0.951 . S
H3576 C3601 0.951 . S
H3577 C3603 0.950 . S
H3578 C3604 0.950 . S
H3579 C3606 0.950 . S
H3580 C3609 0.950 . S
H3581 C3610 0.950 . S
H3582 C3612 0.950 . S
H3583 C3613 0.950 . S
C3584 H3566 0.951 . S
C3584 C3585 1.366 . S
C3584 C3586 1.388 . S
C3585 C3584 1.366 . S
C3585 C3589 1.385 . S
C3586 H3567 0.951 . S
C3586 C3584 1.388 . S
C3586 C3587 1.366 . S
C3587 C3586 1.366 . S
C3587 C3588 1.414 . S
C3587 C3590 1.499 . S
C3588 H3568 0.950 . S
C3588 C3587 1.414 . S
C3588 C3589 1.374 . S
C3589 H3569 0.950 . S
C3589 C3585 1.385 . S
C3589 C3588 1.374 . S
C3590 C3587 1.499 . S
C3590 C3591 1.373 . S
C3590 C3592 1.389 . S
C3591 H3570 0.950 . S
C3591 C3590 1.373 . S
C3591 C3607 1.377 . S
C3592 C3590 1.389 . S
C3592 C3593 1.524 . S
C3592 C3606 1.377 . S
C3593 C3592 1.524 . S
C3593 C3594 1.397 . S
C3593 C3598 1.363 . S
C3594 H3571 0.950 . S
C3594 C3593 1.397 . S
C3594 C3595 1.334 . S
C3595 H3572 0.950 . S
C3595 C3594 1.334 . S
C3595 C3596 1.287 . S
C3596 C3595 1.287 . S
C3596 C3597 1.524 . S
C3596 H3615 0.913 . S
C3597 H3573 0.950 . S
C3597 C3596 1.524 . S
C3597 C3598 1.415 . S
C3598 H3574 0.950 . S
C3598 C3593 1.363 . S
C3598 C3597 1.415 . S
C3599 H3575 0.951 . S
C3599 C3600 1.366 . S
C3599 C3601 1.388 . S
C3600 C3599 1.366 . S
C3600 C3604 1.385 . S
C3601 H3576 0.951 . S
C3601 C3599 1.388 . S
C3601 C3602 1.366 . S
C3602 C3601 1.366 . S
C3602 C3603 1.414 . S
C3602 C3605 1.499 . S
C3603 H3577 0.950 . S
C3603 C3602 1.414 . S
C3603 C3604 1.374 . S
C3604 H3578 0.950 . S
C3604 C3600 1.385 . S
C3604 C3603 1.374 . S
C3605 C3602 1.499 . S
C3605 C3606 1.373 . S
C3605 C3607 1.389 . S
C3606 H3579 0.950 . S
C3606 C3592 1.377 . S
C3606 C3605 1.373 . S
C3607 C3591 1.377 . S
C3607 C3605 1.389 . S
C3607 C3608 1.524 . S
C3608 C3607 1.524 . S
C3608 C3609 1.397 . S
C3608 C3613 1.363 . S
C3609 H3580 0.950 . S
C3609 C3608 1.397 . S
C3609 C3610 1.334 . S
C3610 H3581 0.950 . S
C3610 C3609 1.334 . S
C3610 C3611 1.287 . S
C3611 C3610 1.287 . S
C3611 C3612 1.524 . S
C3611 H3614 0.999 . S
C3612 H3582 0.950 . S
C3612 C3611 1.524 . S
C3612 C3613 1.415 . S
C3613 H3583 0.950 . S
C3613 C3608 1.363 . S
C3613 C3612 1.415 . S
H3614 C3611 0.999 . S
H3615 C3596 0.913 . S
H3616 C3634 0.951 . S
H3617 C3636 0.951 . S
H3618 C3638 0.950 . S
H3619 C3639 0.950 . S
H3620 C3641 0.950 . S
H3621 C3644 0.950 . S
H3622 C3645 0.950 . S
H3623 C3647 0.950 . S
H3624 C3648 0.950 . S
H3625 C3649 0.951 . S
H3626 C3651 0.951 . S
H3627 C3653 0.950 . S
H3628 C3654 0.950 . S
H3629 C3656 0.950 . S
H3630 C3659 0.950 . S
H3631 C3660 0.950 . S
H3632 C3662 0.950 . S
H3633 C3663 0.950 . S
C3634 H3616 0.951 . S
C3634 C3635 1.366 . S
C3634 C3636 1.388 . S
C3635 C3634 1.366 . S
C3635 C3639 1.385 . S
C3636 H3617 0.951 . S
C3636 C3634 1.388 . S
C3636 C3637 1.366 . S
C3637 C3636 1.366 . S
C3637 C3638 1.414 . S
C3637 C3640 1.499 . S
C3638 H3618 0.950 . S
C3638 C3637 1.414 . S
C3638 C3639 1.374 . S
C3639 H3619 0.950 . S
C3639 C3635 1.385 . S
C3639 C3638 1.374 . S
C3640 C3637 1.499 . S
C3640 C3641 1.373 . S
C3640 C3642 1.389 . S
C3641 H3620 0.950 . S
C3641 C3640 1.373 . S
C3641 C3657 1.377 . S
C3642 C3640 1.389 . S
C3642 C3643 1.524 . S
C3642 C3656 1.377 . S
C3643 C3642 1.524 . S
C3643 C3644 1.397 . S
C3643 C3648 1.363 . S
C3644 H3621 0.950 . S
C3644 C3643 1.397 . S
C3644 C3645 1.334 . S
C3645 H3622 0.950 . S
C3645 C3644 1.334 . S
C3645 C3646 1.287 . S
C3646 C3645 1.287 . S
C3646 C3647 1.524 . S
C3646 H3665 0.913 . S
C3647 H3623 0.950 . S
C3647 C3646 1.524 . S
C3647 C3648 1.415 . S
C3648 H3624 0.950 . S
C3648 C3643 1.363 . S
C3648 C3647 1.415 . S
C3649 H3625 0.951 . S
C3649 C3650 1.366 . S
C3649 C3651 1.388 . S
C3650 C3649 1.366 . S
C3650 C3654 1.385 . S
C3651 H3626 0.951 . S
C3651 C3649 1.388 . S
C3651 C3652 1.366 . S
C3652 C3651 1.366 . S
C3652 C3653 1.414 . S
C3652 C3655 1.499 . S
C3653 H3627 0.950 . S
C3653 C3652 1.414 . S
C3653 C3654 1.374 . S
C3654 H3628 0.950 . S
C3654 C3650 1.385 . S
C3654 C3653 1.374 . S
C3655 C3652 1.499 . S
C3655 C3656 1.373 . S
C3655 C3657 1.389 . S
C3656 H3629 0.950 . S
C3656 C3642 1.377 . S
C3656 C3655 1.373 . S
C3657 C3641 1.377 . S
C3657 C3655 1.389 . S
C3657 C3658 1.524 . S
C3658 C3657 1.524 . S
C3658 C3659 1.397 . S
C3658 C3663 1.363 . S
C3659 H3630 0.950 . S
C3659 C3658 1.397 . S
C3659 C3660 1.334 . S
C3660 H3631 0.950 . S
C3660 C3659 1.334 . S
C3660 C3661 1.287 . S
C3661 C3660 1.287 . S
C3661 C3662 1.524 . S
C3661 H3664 0.999 . S
C3662 H3632 0.950 . S
C3662 C3661 1.524 . S
C3662 C3663 1.415 . S
C3663 H3633 0.950 . S
C3663 C3658 1.363 . S
C3663 C3662 1.415 . S
H3664 C3661 0.999 . S
H3665 C3646 0.913 . S
H3666 C3684 0.951 . S
H3667 C3686 0.951 . S
H3668 C3688 0.950 . S
H3669 C3689 0.950 . S
H3670 C3691 0.942 1_655 S
H3671 C3694 0.950 . S
H3672 C3695 0.950 . S
H3673 C3697 0.950 . S
H3674 C3698 0.950 . S
H3675 C3699 0.933 1_655 S
H3676 C3701 0.951 . S
H3677 C3703 0.950 . S
H3678 C3704 0.950 . S
H3679 C3706 0.950 . S
H3680 C3709 0.950 . S
H3681 C3710 0.950 . S
H3682 C3712 0.950 . S
H3683 C3713 0.950 . S
C3684 H3666 0.951 . S
C3684 C3685 1.366 . S
C3684 C3686 1.388 . S
C3685 C3684 1.366 . S
C3685 C3689 1.385 . S
C3686 H3667 0.951 . S
C3686 C3684 1.388 . S
C3686 C3687 1.366 . S
C3687 C3686 1.366 . S
C3687 C3688 1.414 . S
C3687 C3690 1.499 . S
C3688 H3668 0.950 . S
C3688 C3687 1.414 . S
C3688 C3689 1.374 . S
C3689 H3669 0.950 . S
C3689 C3685 1.385 . S
C3689 C3688 1.374 . S
C3690 C3687 1.499 . S
C3690 C3691 1.394 . S
C3690 C3692 1.389 . S
C3691 H3670 0.942 1_455 S
C3691 C3690 1.394 . S
C3691 C3707 1.365 1_455 S
C3692 C3690 1.389 . S
C3692 C3693 1.524 . S
C3692 C3706 1.377 . S
C3693 C3692 1.524 . S
C3693 C3694 1.397 . S
C3693 C3698 1.363 . S
C3694 H3671 0.950 . S
C3694 C3693 1.397 . S
C3694 C3695 1.334 . S
C3695 H3672 0.950 . S
C3695 C3694 1.334 . S
C3695 C3696 1.287 . S
C3696 C3695 1.287 . S
C3696 C3697 1.524 . S
C3696 H3715 0.913 . S
C3697 H3673 0.950 . S
C3697 C3696 1.524 . S
C3697 C3698 1.415 . S
C3698 H3674 0.950 . S
C3698 C3693 1.363 . S
C3698 C3697 1.415 . S
C3699 H3675 0.933 1_455 S
C3699 C3700 1.366 . S
C3699 C3701 1.388 . S
C3700 C3699 1.366 . S
C3700 C3704 1.385 . S
C3701 H3676 0.951 . S
C3701 C3699 1.388 . S
C3701 C3702 1.366 . S
C3702 C3701 1.366 . S
C3702 C3703 1.414 . S
C3702 C3705 1.499 . S
C3703 H3677 0.950 . S
C3703 C3702 1.414 . S
C3703 C3704 1.374 . S
C3704 H3678 0.950 . S
C3704 C3700 1.385 . S
C3704 C3703 1.374 . S
C3705 C3702 1.499 . S
C3705 C3706 1.373 . S
C3705 C3707 1.389 1_455 S
C3706 H3679 0.950 . S
C3706 C3692 1.377 . S
C3706 C3705 1.373 . S
C3707 C3691 1.365 1_655 S
C3707 C3705 1.389 1_655 S
C3707 C3708 1.524 . S
C3708 C3707 1.524 . S
C3708 C3709 1.397 . S
C3708 C3713 1.363 . S
C3709 H3680 0.950 . S
C3709 C3708 1.397 . S
C3709 C3710 1.334 . S
C3710 H3681 0.950 . S
C3710 C3709 1.334 . S
C3710 C3711 1.287 . S
C3711 C3710 1.287 . S
C3711 C3712 1.524 . S
C3711 H3714 0.999 . S
C3712 H3682 0.950 . S
C3712 C3711 1.524 . S
C3712 C3713 1.415 . S
C3713 H3683 0.950 . S
C3713 C3708 1.363 . S
C3713 C3712 1.415 . S
H3714 C3711 0.999 . S
H3715 C3696 0.913 . S
H3716 C3734 0.951 . S
H3717 C3736 0.951 . S
H3718 C3738 0.950 . S
H3719 C3739 0.950 . S
H3720 C3741 0.950 . S
H3721 C3744 0.950 . S
H3722 C3745 0.950 . S
H3723 C3747 0.950 . S
H3724 C3748 0.950 . S
H3725 C3749 0.951 . S
H3726 C3751 0.951 . S
H3727 C3753 0.950 . S
H3728 C3754 0.950 . S
H3729 C3756 0.950 . S
H3730 C3759 0.950 . S
H3731 C3760 0.950 . S
H3732 C3762 0.950 . S
H3733 C3763 0.950 . S
C3734 H3716 0.951 . S
C3734 C3735 1.366 . S
C3734 C3736 1.388 . S
C3735 C3734 1.366 . S
C3735 C3739 1.385 . S
C3736 H3717 0.951 . S
C3736 C3734 1.388 . S
C3736 C3737 1.366 . S
C3737 C3736 1.366 . S
C3737 C3738 1.414 . S
C3737 C3740 1.499 . S
C3738 H3718 0.950 . S
C3738 C3737 1.414 . S
C3738 C3739 1.374 . S
C3739 H3719 0.950 . S
C3739 C3735 1.385 . S
C3739 C3738 1.374 . S
C3740 C3737 1.499 . S
C3740 C3741 1.373 . S
C3740 C3742 1.389 . S
C3741 H3720 0.950 . S
C3741 C3740 1.373 . S
C3741 C3757 1.377 . S
C3742 C3740 1.389 . S
C3742 C3743 1.524 . S
C3742 C3756 1.377 . S
C3743 C3742 1.524 . S
C3743 C3744 1.397 . S
C3743 C3748 1.363 . S
C3744 H3721 0.950 . S
C3744 C3743 1.397 . S
C3744 C3745 1.334 . S
C3745 H3722 0.950 . S
C3745 C3744 1.334 . S
C3745 C3746 1.287 . S
C3746 C3745 1.287 . S
C3746 C3747 1.524 . S
C3746 H3765 0.913 . S
C3747 H3723 0.950 . S
C3747 C3746 1.524 . S
C3747 C3748 1.415 . S
C3748 H3724 0.950 . S
C3748 C3743 1.363 . S
C3748 C3747 1.415 . S
C3749 H3725 0.951 . S
C3749 C3750 1.366 . S
C3749 C3751 1.388 . S
C3750 C3749 1.366 . S
C3750 C3754 1.385 . S
C3751 H3726 0.951 . S
C3751 C3749 1.388 . S
C3751 C3752 1.366 . S
C3752 C3751 1.366 . S
C3752 C3753 1.414 . S
C3752 C3755 1.499 . S
C3753 H3727 0.950 . S
C3753 C3752 1.414 . S
C3753 C3754 1.374 . S
C3754 H3728 0.950 . S
C3754 C3750 1.385 . S
C3754 C3753 1.374 . S
C3755 C3752 1.499 . S
C3755 C3756 1.373 . S
C3755 C3757 1.389 . S
C3756 H3729 0.950 . S
C3756 C3742 1.377 . S
C3756 C3755 1.373 . S
C3757 C3741 1.377 . S
C3757 C3755 1.389 . S
C3757 C3758 1.524 . S
C3758 C3757 1.524 . S
C3758 C3759 1.397 . S
C3758 C3763 1.363 . S
C3759 H3730 0.950 . S
C3759 C3758 1.397 . S
C3759 C3760 1.334 . S
C3760 H3731 0.950 . S
C3760 C3759 1.334 . S
C3760 C3761 1.287 . S
C3761 C3760 1.287 . S
C3761 C3762 1.524 . S
C3761 H3764 0.999 . S
C3762 H3732 0.950 . S
C3762 C3761 1.524 . S
C3762 C3763 1.415 . S
C3763 H3733 0.950 . S
C3763 C3758 1.363 . S
C3763 C3762 1.415 . S
H3764 C3761 0.999 . S
H3765 C3746 0.913 . S
H3766 C3784 0.951 . S
H3767 C3786 0.951 . S
H3768 C3788 1.004 . S
H3769 C3789 0.915 1_545 S
H3770 C3791 1.003 . S
H3771 C3794 0.950 . S
H3772 C3795 0.950 . S
H3773 C3797 0.950 . S
H3774 C3798 0.950 . S
H3775 C3799 0.951 . S
H3776 C3801 0.951 . S
H3777 C3803 0.950 . S
H3778 C3804 0.950 . S
H3779 C3806 0.950 . S
H3780 C3809 0.950 1_565 S
H3781 C3810 0.950 . S
H3782 C3812 0.950 . S
H3783 C3813 0.950 . S
C3784 H3766 0.951 . S
C3784 C3785 1.366 . S
C3784 C3786 1.388 . S
C3785 C3784 1.366 . S
C3785 C3789 1.406 . S
C3786 H3767 0.951 . S
C3786 C3784 1.388 . S
C3786 C3787 1.366 . S
C3787 C3786 1.366 . S
C3787 C3788 1.333 1_565 S
C3787 C3790 1.499 . S
C3788 H3768 1.004 . S
C3788 C3787 1.333 1_545 S
C3788 C3789 1.423 1_545 S
C3789 H3769 0.915 1_565 S
C3789 C3785 1.406 . S
C3789 C3788 1.423 1_565 S
C3790 C3787 1.499 . S
C3790 C3791 1.342 1_565 S
C3790 C3792 1.389 . S
C3791 H3770 1.003 . S
C3791 C3790 1.342 1_545 S
C3791 C3807 1.357 . S
C3792 C3790 1.389 . S
C3792 C3793 1.524 . S
C3792 C3806 1.377 . S
C3793 C3792 1.524 . S
C3793 C3794 1.397 . S
C3793 C3798 1.363 . S
C3794 H3771 0.950 . S
C3794 C3793 1.397 . S
C3794 C3795 1.334 . S
C3795 H3772 0.950 . S
C3795 C3794 1.334 . S
C3795 C3796 1.287 . S
C3796 C3795 1.287 . S
C3796 C3797 1.524 . S
C3796 H3815 0.913 . S
C3797 H3773 0.950 . S
C3797 C3796 1.524 . S
C3797 C3798 1.415 . S
C3798 H3774 0.950 . S
C3798 C3793 1.363 . S
C3798 C3797 1.415 . S
C3799 H3775 0.951 . S
C3799 C3800 1.366 1_545 S
C3799 C3801 1.388 . S
C3800 C3799 1.366 1_565 S
C3800 C3804 1.385 . S
C3801 H3776 0.951 . S
C3801 C3799 1.388 . S
C3801 C3802 1.366 1_545 S
C3802 C3801 1.366 1_565 S
C3802 C3803 1.414 . S
C3802 C3805 1.499 . S
C3803 H3777 0.950 . S
C3803 C3802 1.414 . S
C3803 C3804 1.374 . S
C3804 H3778 0.950 . S
C3804 C3800 1.385 . S
C3804 C3803 1.374 . S
C3805 C3802 1.499 . S
C3805 C3806 1.373 . S
C3805 C3807 1.389 1_565 S
C3806 H3779 0.950 . S
C3806 C3792 1.377 . S
C3806 C3805 1.373 . S
C3807 C3791 1.357 . S
C3807 C3805 1.389 1_545 S
C3807 C3808 1.524 . S
C3808 C3807 1.524 . S
C3808 C3809 1.397 . S
C3808 C3813 1.363 . S
C3809 H3780 0.950 1_545 S
C3809 C3808 1.397 . S
C3809 C3810 1.334 . S
C3810 H3781 0.950 . S
C3810 C3809 1.334 . S
C3810 C3811 1.287 . S
C3811 C3810 1.287 . S
C3811 C3812 1.524 . S
C3811 H3814 0.999 . S
C3812 H3782 0.950 . S
C3812 C3811 1.524 . S
C3812 C3813 1.415 . S
C3813 H3783 0.950 . S
C3813 C3808 1.363 . S
C3813 C3812 1.415 . S
H3814 C3811 0.999 . S
H3815 C3796 0.913 . S
H3816 C3834 0.951 . S
H3817 C3836 0.951 . S
H3818 C3838 0.950 1_545 S
H3819 C3839 0.950 1_545 S
H3820 C3841 0.950 . S
H3821 C3844 0.950 . S
H3822 C3845 0.950 . S
H3823 C3847 0.950 . S
H3824 C3848 0.950 . S
H3825 C3849 0.951 . S
H3826 C3851 0.951 . S
H3827 C3853 0.950 . S
H3828 C3854 0.950 . S
H3829 C3856 0.950 . S
H3830 C3859 0.950 . S
H3831 C3860 0.950 . S
H3832 C3862 0.950 . S
H3833 C3863 0.950 . S
C3834 H3816 0.951 . S
C3834 C3835 1.366 . S
C3834 C3836 1.388 . S
C3835 C3834 1.366 . S
C3835 C3839 1.385 . S
C3836 H3817 0.951 . S
C3836 C3834 1.388 . S
C3836 C3837 1.366 . S
C3837 C3836 1.366 . S
C3837 C3838 1.414 . S
C3837 C3840 1.499 . S
C3838 H3818 0.950 1_565 S
C3838 C3837 1.414 . S
C3838 C3839 1.374 . S
C3839 H3819 0.950 1_565 S
C3839 C3835 1.385 . S
C3839 C3838 1.374 . S
C3840 C3837 1.499 . S
C3840 C3841 1.373 1_565 S
C3840 C3842 1.389 . S
C3841 H3820 0.950 . S
C3841 C3840 1.373 1_545 S
C3841 C3857 1.377 . S
C3842 C3840 1.389 . S
C3842 C3843 1.524 . S
C3842 C3856 1.377 . S
C3843 C3842 1.524 . S
C3843 C3844 1.397 . S
C3843 C3848 1.363 . S
C3844 H3821 0.950 . S
C3844 C3843 1.397 . S
C3844 C3845 1.334 . S
C3845 H3822 0.950 . S
C3845 C3844 1.334 . S
C3845 C3846 1.287 . S
C3846 C3845 1.287 . S
C3846 C3847 1.524 . S
C3846 H3865 0.913 . S
C3847 H3823 0.950 . S
C3847 C3846 1.524 . S
C3847 C3848 1.415 . S
C3848 H3824 0.950 . S
C3848 C3843 1.363 . S
C3848 C3847 1.415 . S
C3849 H3825 0.951 . S
C3849 C3850 1.366 1_545 S
C3849 C3851 1.388 . S
C3850 C3849 1.366 1_565 S
C3850 C3854 1.385 . S
C3851 H3826 0.951 . S
C3851 C3849 1.388 . S
C3851 C3852 1.366 1_545 S
C3852 C3851 1.366 1_565 S
C3852 C3853 1.414 . S
C3852 C3855 1.499 . S
C3853 H3827 0.950 . S
C3853 C3852 1.414 . S
C3853 C3854 1.374 . S
C3854 H3828 0.950 . S
C3854 C3850 1.385 . S
C3854 C3853 1.374 . S
C3855 C3852 1.499 . S
C3855 C3856 1.373 . S
C3855 C3857 1.389 1_565 S
C3856 H3829 0.950 . S
C3856 C3842 1.377 . S
C3856 C3855 1.373 . S
C3857 C3841 1.377 . S
C3857 C3855 1.389 1_545 S
C3857 C3858 1.524 . S
C3858 C3857 1.524 . S
C3858 C3859 1.397 . S
C3858 C3863 1.363 . S
C3859 H3830 0.950 . S
C3859 C3858 1.397 . S
C3859 C3860 1.334 . S
C3860 H3831 0.950 . S
C3860 C3859 1.334 . S
C3860 C3861 1.287 . S
C3861 C3860 1.287 . S
C3861 C3862 1.524 . S
C3861 H3864 0.999 . S
C3862 H3832 0.950 . S
C3862 C3861 1.524 . S
C3862 C3863 1.415 . S
C3863 H3833 0.950 . S
C3863 C3858 1.363 . S
C3863 C3862 1.415 . S
H3864 C3861 0.999 . S
H3865 C3846 0.913 . S
H3866 C3884 0.951 . S
H3867 C3886 0.951 . S
H3868 C3888 0.950 . S
H3869 C3889 0.950 . S
H3870 C3891 1.046 . S
H3871 C3894 0.950 . S
H3872 C3895 0.950 . S
H3873 C3897 0.950 . S
H3874 C3898 0.950 . S
H3875 C3899 0.951 . S
H3876 C3901 0.951 . S
H3877 C3903 0.950 . S
H3878 C3904 0.950 . S
H3879 C3906 0.950 . S
H3880 C3909 0.950 . S
H3881 C3910 0.950 . S
H3882 C3912 0.950 . S
H3883 C3913 0.950 . S
C3884 H3866 0.951 . S
C3884 C3885 1.366 . S
C3884 C3886 1.388 . S
C3885 C3884 1.366 . S
C3885 C3889 1.385 . S
C3886 H3867 0.951 . S
C3886 C3884 1.388 . S
C3886 C3887 1.366 . S
C3887 C3886 1.366 . S
C3887 C3888 1.414 . S
C3887 C3890 1.499 . S
C3888 H3868 0.950 . S
C3888 C3887 1.414 . S
C3888 C3889 1.374 . S
C3889 H3869 0.950 . S
C3889 C3885 1.385 . S
C3889 C3888 1.374 . S
C3890 C3887 1.499 . S
C3890 C3891 1.313 1_455 S
C3890 C3892 1.389 . S
C3891 H3870 1.046 . S
C3891 C3890 1.313 1_655 S
C3891 C3907 1.347 . S
C3892 C3890 1.389 . S
C3892 C3893 1.524 . S
C3892 C3906 1.377 . S
C3893 C3892 1.524 . S
C3893 C3894 1.397 . S
C3893 C3898 1.363 . S
C3894 H3871 0.950 . S
C3894 C3893 1.397 . S
C3894 C3895 1.334 . S
C3895 H3872 0.950 . S
C3895 C3894 1.334 . S
C3895 C3896 1.287 . S
C3896 C3895 1.287 . S
C3896 C3897 1.524 . S
C3896 H3915 0.913 . S
C3897 H3873 0.950 . S
C3897 C3896 1.524 . S
C3897 C3898 1.415 . S
C3898 H3874 0.950 . S
C3898 C3893 1.363 . S
C3898 C3897 1.415 . S
C3899 H3875 0.951 . S
C3899 C3900 1.366 1_655 S
C3899 C3901 1.388 . S
C3900 C3899 1.366 1_455 S
C3900 C3904 1.385 . S
C3901 H3876 0.951 . S
C3901 C3899 1.388 . S
C3901 C3902 1.366 1_655 S
C3902 C3901 1.366 1_455 S
C3902 C3903 1.414 . S
C3902 C3905 1.499 . S
C3903 H3877 0.950 . S
C3903 C3902 1.414 . S
C3903 C3904 1.374 . S
C3904 H3878 0.950 . S
C3904 C3900 1.385 . S
C3904 C3903 1.374 . S
C3905 C3902 1.499 . S
C3905 C3906 1.373 . S
C3905 C3907 1.389 1_455 S
C3906 H3879 0.950 . S
C3906 C3892 1.377 . S
C3906 C3905 1.373 . S
C3907 C3891 1.347 . S
C3907 C3905 1.389 1_655 S
C3907 C3908 1.524 . S
C3908 C3907 1.524 . S
C3908 C3909 1.397 . S
C3908 C3913 1.363 . S
C3909 H3880 0.950 . S
C3909 C3908 1.397 . S
C3909 C3910 1.334 . S
C3910 H3881 0.950 . S
C3910 C3909 1.334 . S
C3910 C3911 1.287 . S
C3911 C3910 1.287 . S
C3911 C3912 1.524 . S
C3911 H3914 0.999 . S
C3912 H3882 0.950 . S
C3912 C3911 1.524 . S
C3912 C3913 1.415 . S
C3913 H3883 0.950 . S
C3913 C3908 1.363 . S
C3913 C3912 1.415 . S
H3914 C3911 0.999 . S
H3915 C3896 0.913 . S
H3916 C3934 0.951 . S
H3917 C3936 0.951 . S
H3918 C3938 0.950 . S
H3919 C3939 0.950 . S
H3920 C3941 0.950 . S
H3921 C3944 0.950 . S
H3922 C3945 0.950 . S
H3923 C3947 0.950 . S
H3924 C3948 0.950 . S
H3925 C3949 0.951 . S
H3926 C3951 0.951 . S
H3927 C3953 0.950 . S
H3928 C3954 0.950 . S
H3929 C3956 0.950 . S
H3930 C3959 0.950 . S
H3931 C3960 0.950 . S
H3932 C3962 0.950 . S
H3933 C3963 0.950 . S
C3934 H3916 0.951 . S
C3934 C3935 1.366 . S
C3934 C3936 1.388 . S
C3935 C3934 1.366 . S
C3935 C3939 1.385 . S
C3936 H3917 0.951 . S
C3936 C3934 1.388 . S
C3936 C3937 1.366 . S
C3937 C3936 1.366 . S
C3937 C3938 1.414 . S
C3937 C3940 1.499 . S
C3938 H3918 0.950 . S
C3938 C3937 1.414 . S
C3938 C3939 1.374 . S
C3939 H3919 0.950 . S
C3939 C3935 1.385 . S
C3939 C3938 1.374 . S
C3940 C3937 1.499 . S
C3940 C3941 1.373 . S
C3940 C3942 1.389 . S
C3941 H3920 0.950 . S
C3941 C3940 1.373 . S
C3941 C3957 1.377 . S
C3942 C3940 1.389 . S
C3942 C3943 1.524 . S
C3942 C3956 1.377 . S
C3943 C3942 1.524 . S
C3943 C3944 1.397 . S
C3943 C3948 1.363 . S
C3944 H3921 0.950 . S
C3944 C3943 1.397 . S
C3944 C3945 1.334 . S
C3945 H3922 0.950 . S
C3945 C3944 1.334 . S
C3945 C3946 1.287 . S
C3946 C3945 1.287 . S
C3946 C3947 1.524 . S
C3946 H3965 0.913 . S
C3947 H3923 0.950 . S
C3947 C3946 1.524 . S
C3947 C3948 1.415 . S
C3948 H3924 0.950 . S
C3948 C3943 1.363 . S
C3948 C3947 1.415 . S
C3949 H3925 0.951 . S
C3949 C3950 1.366 . S
C3949 C3951 1.388 . S
C3950 C3949 1.366 . S
C3950 C3954 1.385 . S
C3951 H3926 0.951 . S
C3951 C3949 1.388 . S
C3951 C3952 1.366 . S
C3952 C3951 1.366 . S
C3952 C3953 1.414 . S
C3952 C3955 1.499 . S
C3953 H3927 0.950 . S
C3953 C3952 1.414 . S
C3953 C3954 1.374 . S
C3954 H3928 0.950 . S
C3954 C3950 1.385 . S
C3954 C3953 1.374 . S
C3955 C3952 1.499 . S
C3955 C3956 1.373 . S
C3955 C3957 1.389 . S
C3956 H3929 0.950 . S
C3956 C3942 1.377 . S
C3956 C3955 1.373 . S
C3957 C3941 1.377 . S
C3957 C3955 1.389 . S
C3957 C3958 1.524 . S
C3958 C3957 1.524 . S
C3958 C3959 1.397 . S
C3958 C3963 1.363 . S
C3959 H3930 0.950 . S
C3959 C3958 1.397 . S
C3959 C3960 1.334 . S
C3960 H3931 0.950 . S
C3960 C3959 1.334 . S
C3960 C3961 1.287 . S
C3961 C3960 1.287 . S
C3961 C3962 1.524 . S
C3961 H3964 0.999 . S
C3962 H3932 0.950 . S
C3962 C3961 1.524 . S
C3962 C3963 1.415 . S
C3963 H3933 0.950 . S
C3963 C3958 1.363 . S
C3963 C3962 1.415 . S
H3964 C3961 0.999 . S
H3965 C3946 0.913 . S
H3966 C3984 0.951 . S
H3967 C3986 0.951 . S
H3968 C3988 0.950 . S
H3969 C3989 0.950 . S
H3970 C3991 0.950 . S
H3971 C3994 0.950 . S
H3972 C3995 0.950 . S
H3973 C3997 0.950 . S
H3974 C3998 0.950 . S
H3975 C3999 0.951 . S
H3976 C4001 0.951 . S
H3977 C4003 0.950 . S
H3978 C4004 0.950 . S
H3979 C4006 0.950 . S
H3980 C4009 0.950 . S
H3981 C4010 0.950 . S
H3982 C4012 0.950 . S
H3983 C4013 0.950 . S
C3984 H3966 0.951 . S
C3984 C3985 1.366 . S
C3984 C3986 1.388 . S
C3985 C3984 1.366 . S
C3985 C3989 1.385 . S
C3986 H3967 0.951 . S
C3986 C3984 1.388 . S
C3986 C3987 1.366 . S
C3987 C3986 1.366 . S
C3987 C3988 1.414 . S
C3987 C3990 1.499 . S
C3988 H3968 0.950 . S
C3988 C3987 1.414 . S
C3988 C3989 1.374 . S
C3989 H3969 0.950 . S
C3989 C3985 1.385 . S
C3989 C3988 1.374 . S
C3990 C3987 1.499 . S
C3990 C3991 1.373 . S
C3990 C3992 1.389 . S
C3991 H3970 0.950 . S
C3991 C3990 1.373 . S
C3991 C4007 1.377 . S
C3992 C3990 1.389 . S
C3992 C3993 1.524 . S
C3992 C4006 1.377 . S
C3993 C3992 1.524 . S
C3993 C3994 1.397 . S
C3993 C3998 1.363 . S
C3994 H3971 0.950 . S
C3994 C3993 1.397 . S
C3994 C3995 1.334 . S
C3995 H3972 0.950 . S
C3995 C3994 1.334 . S
C3995 C3996 1.287 . S
C3996 C3995 1.287 . S
C3996 C3997 1.524 . S
C3996 H4015 0.913 . S
C3997 H3973 0.950 . S
C3997 C3996 1.524 . S
C3997 C3998 1.415 . S
C3998 H3974 0.950 . S
C3998 C3993 1.363 . S
C3998 C3997 1.415 . S
C3999 H3975 0.951 . S
C3999 C4000 1.366 . S
C3999 C4001 1.388 . S
C4000 C3999 1.366 . S
C4000 C4004 1.385 . S
C4001 H3976 0.951 . S
C4001 C3999 1.388 . S
C4001 C4002 1.366 . S
C4002 C4001 1.366 . S
C4002 C4003 1.414 . S
C4002 C4005 1.499 . S
C4003 H3977 0.950 . S
C4003 C4002 1.414 . S
C4003 C4004 1.374 . S
C4004 H3978 0.950 . S
C4004 C4000 1.385 . S
C4004 C4003 1.374 . S
C4005 C4002 1.499 . S
C4005 C4006 1.373 . S
C4005 C4007 1.389 . S
C4006 H3979 0.950 . S
C4006 C3992 1.377 . S
C4006 C4005 1.373 . S
C4007 C3991 1.377 . S
C4007 C4005 1.389 . S
C4007 C4008 1.524 . S
C4008 C4007 1.524 . S
C4008 C4009 1.397 . S
C4008 C4013 1.363 . S
C4009 H3980 0.950 . S
C4009 C4008 1.397 . S
C4009 C4010 1.334 . S
C4010 H3981 0.950 . S
C4010 C4009 1.334 . S
C4010 C4011 1.287 . S
C4011 C4010 1.287 . S
C4011 C4012 1.524 . S
C4011 H4014 0.999 . S
C4012 H3982 0.950 . S
C4012 C4011 1.524 . S
C4012 C4013 1.415 . S
C4013 H3983 0.950 . S
C4013 C4008 1.363 . S
C4013 C4012 1.415 . S
H4014 C4011 0.999 . S
H4015 C3996 0.913 . S
H4016 C4034 0.951 . S
H4017 C4036 0.951 . S
H4018 C4038 0.950 . S
H4019 C4039 0.950 . S
H4020 C4041 0.950 . S
H4021 C4044 0.950 . S
H4022 C4045 0.950 . S
H4023 C4047 0.950 . S
H4024 C4048 0.950 . S
H4025 C4049 0.951 . S
H4026 C4051 0.951 . S
H4027 C4053 0.950 . S
H4028 C4054 0.950 . S
H4029 C4056 0.950 . S
H4030 C4059 0.950 . S
H4031 C4060 0.950 . S
H4032 C4062 0.950 . S
H4033 C4063 0.950 . S
C4034 H4016 0.951 . S
C4034 C4035 1.366 . S
C4034 C4036 1.388 . S
C4035 C4034 1.366 . S
C4035 C4039 1.385 . S
C4036 H4017 0.951 . S
C4036 C4034 1.388 . S
C4036 C4037 1.366 . S
C4037 C4036 1.366 . S
C4037 C4038 1.414 . S
C4037 C4040 1.499 . S
C4038 H4018 0.950 . S
C4038 C4037 1.414 . S
C4038 C4039 1.374 . S
C4039 H4019 0.950 . S
C4039 C4035 1.385 . S
C4039 C4038 1.374 . S
C4040 C4037 1.499 . S
C4040 C4041 1.373 . S
C4040 C4042 1.389 . S
C4041 H4020 0.950 . S
C4041 C4040 1.373 . S
C4041 C4057 1.377 . S
C4042 C4040 1.389 . S
C4042 C4043 1.524 . S
C4042 C4056 1.377 . S
C4043 C4042 1.524 . S
C4043 C4044 1.397 . S
C4043 C4048 1.363 . S
C4044 H4021 0.950 . S
C4044 C4043 1.397 . S
C4044 C4045 1.334 . S
C4045 H4022 0.950 . S
C4045 C4044 1.334 . S
C4045 C4046 1.287 . S
C4046 C4045 1.287 . S
C4046 C4047 1.524 . S
C4046 H4065 0.913 . S
C4047 H4023 0.950 . S
C4047 C4046 1.524 . S
C4047 C4048 1.415 . S
C4048 H4024 0.950 . S
C4048 C4043 1.363 . S
C4048 C4047 1.415 . S
C4049 H4025 0.951 . S
C4049 C4050 1.366 . S
C4049 C4051 1.388 . S
C4050 C4049 1.366 . S
C4050 C4054 1.385 . S
C4051 H4026 0.951 . S
C4051 C4049 1.388 . S
C4051 C4052 1.366 . S
C4052 C4051 1.366 . S
C4052 C4053 1.414 . S
C4052 C4055 1.499 . S
C4053 H4027 0.950 . S
C4053 C4052 1.414 . S
C4053 C4054 1.374 . S
C4054 H4028 0.950 . S
C4054 C4050 1.385 . S
C4054 C4053 1.374 . S
C4055 C4052 1.499 . S
C4055 C4056 1.373 . S
C4055 C4057 1.389 . S
C4056 H4029 0.950 . S
C4056 C4042 1.377 . S
C4056 C4055 1.373 . S
C4057 C4041 1.377 . S
C4057 C4055 1.389 . S
C4057 C4058 1.524 . S
C4058 C4057 1.524 . S
C4058 C4059 1.397 . S
C4058 C4063 1.363 . S
C4059 H4030 0.950 . S
C4059 C4058 1.397 . S
C4059 C4060 1.334 . S
C4060 H4031 0.950 . S
C4060 C4059 1.334 . S
C4060 C4061 1.287 . S
C4061 C4060 1.287 . S
C4061 C4062 1.524 . S
C4061 H4064 0.999 . S
C4062 H4032 0.950 . S
C4062 C4061 1.524 . S
C4062 C4063 1.415 . S
C4063 H4033 0.950 . S
C4063 C4058 1.363 . S
C4063 C4062 1.415 . S
H4064 C4061 0.999 . S
H4065 C4046 0.913 . S
H4066 C4084 0.951 . S
H4067 C4086 0.951 . S
H4068 C4088 0.950 . S
H4069 C4089 0.950 . S
H4070 C4091 0.950 . S
H4071 C4094 0.950 . S
H4072 C4095 0.950 . S
H4073 C4097 0.950 . S
H4074 C4098 0.950 . S
H4075 C4099 0.951 . S
H4076 C4101 0.951 . S
H4077 C4103 0.950 . S
H4078 C4104 0.950 . S
H4079 C4106 0.950 . S
H4080 C4109 0.950 . S
H4081 C4110 0.950 . S
H4082 C4112 0.950 . S
H4083 C4113 0.950 . S
C4084 H4066 0.951 . S
C4084 C4085 1.366 . S
C4084 C4086 1.388 . S
C4085 C4084 1.366 . S
C4085 C4089 1.385 . S
C4086 H4067 0.951 . S
C4086 C4084 1.388 . S
C4086 C4087 1.366 . S
C4087 C4086 1.366 . S
C4087 C4088 1.414 . S
C4087 C4090 1.499 . S
C4088 H4068 0.950 . S
C4088 C4087 1.414 . S
C4088 C4089 1.374 . S
C4089 H4069 0.950 . S
C4089 C4085 1.385 . S
C4089 C4088 1.374 . S
C4090 C4087 1.499 . S
C4090 C4091 1.373 . S
C4090 C4092 1.389 . S
C4091 H4070 0.950 . S
C4091 C4090 1.373 . S
C4091 C4107 1.377 . S
C4092 C4090 1.389 . S
C4092 C4093 1.524 . S
C4092 C4106 1.377 . S
C4093 C4092 1.524 . S
C4093 C4094 1.397 . S
C4093 C4098 1.363 . S
C4094 H4071 0.950 . S
C4094 C4093 1.397 . S
C4094 C4095 1.334 . S
C4095 H4072 0.950 . S
C4095 C4094 1.334 . S
C4095 C4096 1.287 . S
C4096 C4095 1.287 . S
C4096 C4097 1.524 . S
C4096 H4115 0.913 . S
C4097 H4073 0.950 . S
C4097 C4096 1.524 . S
C4097 C4098 1.415 . S
C4098 H4074 0.950 . S
C4098 C4093 1.363 . S
C4098 C4097 1.415 . S
C4099 H4075 0.951 . S
C4099 C4100 1.366 . S
C4099 C4101 1.388 . S
C4100 C4099 1.366 . S
C4100 C4104 1.385 . S
C4101 H4076 0.951 . S
C4101 C4099 1.388 . S
C4101 C4102 1.366 . S
C4102 C4101 1.366 . S
C4102 C4103 1.414 . S
C4102 C4105 1.499 . S
C4103 H4077 0.950 . S
C4103 C4102 1.414 . S
C4103 C4104 1.374 . S
C4104 H4078 0.950 . S
C4104 C4100 1.385 . S
C4104 C4103 1.374 . S
C4105 C4102 1.499 . S
C4105 C4106 1.373 . S
C4105 C4107 1.389 . S
C4106 H4079 0.950 . S
C4106 C4092 1.377 . S
C4106 C4105 1.373 . S
C4107 C4091 1.377 . S
C4107 C4105 1.389 . S
C4107 C4108 1.524 . S
C4108 C4107 1.524 . S
C4108 C4109 1.397 . S
C4108 C4113 1.363 . S
C4109 H4080 0.950 . S
C4109 C4108 1.397 . S
C4109 C4110 1.334 . S
C4110 H4081 0.950 . S
C4110 C4109 1.334 . S
C4110 C4111 1.287 . S
C4111 C4110 1.287 . S
C4111 C4112 1.524 . S
C4111 H4114 0.999 . S
C4112 H4082 0.950 . S
C4112 C4111 1.524 . S
C4112 C4113 1.415 . S
C4113 H4083 0.950 . S
C4113 C4108 1.363 . S
C4113 C4112 1.415 . S
H4114 C4111 0.999 . S
H4115 C4096 0.913 . S
H4116 C4134 0.951 . S
H4117 C4136 0.951 . S
H4118 C4138 0.950 . S
H4119 C4139 0.950 . S
H4120 C4141 0.950 . S
H4121 C4144 0.950 . S
H4122 C4145 0.950 . S
H4123 C4147 0.950 . S
H4124 C4148 0.950 . S
H4125 C4149 0.951 . S
H4126 C4151 0.951 . S
H4127 C4153 0.950 . S
H4128 C4154 0.950 . S
H4129 C4156 0.871 1_565 S
H4130 C4159 0.950 . S
H4131 C4160 0.950 . S
H4132 C4162 0.950 . S
H4133 C4163 0.950 . S
C4134 H4116 0.951 . S
C4134 C4135 1.366 . S
C4134 C4136 1.388 . S
C4135 C4134 1.366 . S
C4135 C4139 1.385 . S
C4136 H4117 0.951 . S
C4136 C4134 1.388 . S
C4136 C4137 1.366 . S
C4137 C4136 1.366 . S
C4137 C4138 1.414 . S
C4137 C4140 1.499 . S
C4138 H4118 0.950 . S
C4138 C4137 1.414 . S
C4138 C4139 1.374 . S
C4139 H4119 0.950 . S
C4139 C4135 1.385 . S
C4139 C4138 1.374 . S
C4140 C4137 1.499 . S
C4140 C4141 1.373 . S
C4140 C4142 1.389 . S
C4141 H4120 0.950 . S
C4141 C4140 1.373 . S
C4141 C4157 1.377 . S
C4142 C4140 1.389 . S
C4142 C4143 1.524 1_545 S
C4142 C4156 1.424 . S
C4143 C4142 1.524 1_565 S
C4143 C4144 1.397 . S
C4143 C4148 1.363 . S
C4144 H4121 0.950 . S
C4144 C4143 1.397 . S
C4144 C4145 1.334 . S
C4145 H4122 0.950 . S
C4145 C4144 1.334 . S
C4145 C4146 1.287 . S
C4146 C4145 1.287 . S
C4146 C4147 1.524 . S
C4146 H4165 0.913 . S
C4147 H4123 0.950 . S
C4147 C4146 1.524 . S
C4147 C4148 1.415 . S
C4148 H4124 0.950 . S
C4148 C4143 1.363 . S
C4148 C4147 1.415 . S
C4149 H4125 0.951 . S
C4149 C4150 1.366 . S
C4149 C4151 1.388 . S
C4150 C4149 1.366 . S
C4150 C4154 1.385 . S
C4151 H4126 0.951 . S
C4151 C4149 1.388 . S
C4151 C4152 1.366 . S
C4152 C4151 1.366 . S
C4152 C4153 1.414 . S
C4152 C4155 1.499 . S
C4153 H4127 0.950 . S
C4153 C4152 1.414 . S
C4153 C4154 1.374 . S
C4154 H4128 0.950 . S
C4154 C4150 1.385 . S
C4154 C4153 1.374 . S
C4155 C4152 1.499 . S
C4155 C4156 1.410 . S
C4155 C4157 1.389 . S
C4156 H4129 0.871 1_545 S
C4156 C4142 1.424 . S
C4156 C4155 1.410 . S
C4157 C4141 1.377 . S
C4157 C4155 1.389 . S
C4157 C4158 1.524 . S
C4158 C4157 1.524 . S
C4158 C4159 1.397 . S
C4158 C4163 1.363 . S
C4159 H4130 0.950 . S
C4159 C4158 1.397 . S
C4159 C4160 1.334 . S
C4160 H4131 0.950 . S
C4160 C4159 1.334 . S
C4160 C4161 1.287 . S
C4161 C4160 1.287 . S
C4161 C4162 1.524 . S
C4161 H4164 0.999 . S
C4162 H4132 0.950 . S
C4162 C4161 1.524 . S
C4162 C4163 1.415 . S
C4163 H4133 0.950 . S
C4163 C4158 1.363 . S
C4163 C4162 1.415 . S
H4164 C4161 0.999 . S
H4165 C4146 0.913 . S
H4166 C4184 0.951 . S
H4167 C4186 0.951 . S
H4168 C4188 0.950 . S
H4169 C4189 0.950 . S
H4170 C4191 0.950 . S
H4171 C4194 0.950 . S
H4172 C4195 0.950 . S
H4173 C4197 0.950 . S
H4174 C4198 0.950 . S
H4175 C4199 0.967 1_455 S
H4176 C4201 0.951 . S
H4177 C4203 0.950 . S
H4178 C4204 0.950 . S
H4179 C4206 0.950 . S
H4180 C4209 0.950 . S
H4181 C4210 0.950 . S
H4182 C4212 0.950 . S
H4183 C4213 0.950 . S
C4184 H4166 0.951 . S
C4184 C4185 1.366 . S
C4184 C4186 1.388 . S
C4185 C4184 1.366 . S
C4185 C4189 1.385 . S
C4186 H4167 0.951 . S
C4186 C4184 1.388 . S
C4186 C4187 1.366 . S
C4187 C4186 1.366 . S
C4187 C4188 1.414 . S
C4187 C4190 1.499 . S
C4188 H4168 0.950 . S
C4188 C4187 1.414 . S
C4188 C4189 1.374 . S
C4189 H4169 0.950 . S
C4189 C4185 1.385 . S
C4189 C4188 1.374 . S
C4190 C4187 1.499 . S
C4190 C4191 1.373 1_655 S
C4190 C4192 1.389 . S
C4191 H4170 0.950 . S
C4191 C4190 1.373 1_455 S
C4191 C4207 1.377 . S
C4192 C4190 1.389 . S
C4192 C4193 1.524 . S
C4192 C4206 1.377 . S
C4193 C4192 1.524 . S
C4193 C4194 1.397 . S
C4193 C4198 1.363 . S
C4194 H4171 0.950 . S
C4194 C4193 1.397 . S
C4194 C4195 1.334 . S
C4195 H4172 0.950 . S
C4195 C4194 1.334 . S
C4195 C4196 1.287 . S
C4196 C4195 1.287 . S
C4196 C4197 1.524 . S
C4196 H4215 0.913 . S
C4197 H4173 0.950 . S
C4197 C4196 1.524 . S
C4197 C4198 1.415 . S
C4198 H4174 0.950 . S
C4198 C4193 1.363 . S
C4198 C4197 1.415 . S
C4199 H4175 0.967 1_655 S
C4199 C4200 1.366 . S
C4199 C4201 1.388 . S
C4200 C4199 1.366 . S
C4200 C4204 1.385 . S
C4201 H4176 0.951 . S
C4201 C4199 1.388 . S
C4201 C4202 1.366 . S
C4202 C4201 1.366 . S
C4202 C4203 1.414 . S
C4202 C4205 1.499 . S
C4203 H4177 0.950 . S
C4203 C4202 1.414 . S
C4203 C4204 1.374 . S
C4204 H4178 0.950 . S
C4204 C4200 1.385 . S
C4204 C4203 1.374 . S
C4205 C4202 1.499 . S
C4205 C4206 1.373 . S
C4205 C4207 1.389 1_655 S
C4206 H4179 0.950 . S
C4206 C4192 1.377 . S
C4206 C4205 1.373 . S
C4207 C4191 1.377 . S
C4207 C4205 1.389 1_455 S
C4207 C4208 1.524 . S
C4208 C4207 1.524 . S
C4208 C4209 1.397 . S
C4208 C4213 1.363 . S
C4209 H4180 0.950 . S
C4209 C4208 1.397 . S
C4209 C4210 1.334 . S
C4210 H4181 0.950 . S
C4210 C4209 1.334 . S
C4210 C4211 1.287 . S
C4211 C4210 1.287 . S
C4211 C4212 1.524 . S
C4211 H4214 0.999 . S
C4212 H4182 0.950 . S
C4212 C4211 1.524 . S
C4212 C4213 1.415 . S
C4213 H4183 0.950 . S
C4213 C4208 1.363 . S
C4213 C4212 1.415 . S
H4214 C4211 0.999 . S
H4215 C4196 0.913 . S
H4216 C4234 0.951 . S
H4217 C4236 0.951 . S
H4218 C4238 0.950 . S
H4219 C4239 0.950 . S
H4220 C4241 0.950 . S
H4221 C4244 0.950 . S
H4222 C4245 0.950 . S
H4223 C4247 0.950 . S
H4224 C4248 0.950 . S
H4225 C4249 0.951 . S
H4226 C4251 0.951 . S
H4227 C4253 0.950 . S
H4228 C4254 0.950 . S
H4229 C4256 0.950 . S
H4230 C4259 0.950 . S
H4231 C4260 0.950 . S
H4232 C4262 0.950 . S
H4233 C4263 0.950 . S
C4234 H4216 0.951 . S
C4234 C4235 1.366 . S
C4234 C4236 1.388 . S
C4235 C4234 1.366 . S
C4235 C4239 1.385 . S
C4236 H4217 0.951 . S
C4236 C4234 1.388 . S
C4236 C4237 1.366 . S
C4237 C4236 1.366 . S
C4237 C4238 1.414 . S
C4237 C4240 1.499 . S
C4238 H4218 0.950 . S
C4238 C4237 1.414 . S
C4238 C4239 1.374 . S
C4239 H4219 0.950 . S
C4239 C4235 1.385 . S
C4239 C4238 1.374 . S
C4240 C4237 1.499 . S
C4240 C4241 1.373 . S
C4240 C4242 1.389 . S
C4241 H4220 0.950 . S
C4241 C4240 1.373 . S
C4241 C4257 1.377 . S
C4242 C4240 1.389 . S
C4242 C4243 1.524 . S
C4242 C4256 1.377 . S
C4243 C4242 1.524 . S
C4243 C4244 1.397 . S
C4243 C4248 1.363 . S
C4244 H4221 0.950 . S
C4244 C4243 1.397 . S
C4244 C4245 1.334 . S
C4245 H4222 0.950 . S
C4245 C4244 1.334 . S
C4245 C4246 1.287 . S
C4246 C4245 1.287 . S
C4246 C4247 1.524 . S
C4246 H4265 0.913 . S
C4247 H4223 0.950 . S
C4247 C4246 1.524 . S
C4247 C4248 1.415 . S
C4248 H4224 0.950 . S
C4248 C4243 1.363 . S
C4248 C4247 1.415 . S
C4249 H4225 0.951 . S
C4249 C4250 1.366 . S
C4249 C4251 1.388 . S
C4250 C4249 1.366 . S
C4250 C4254 1.385 . S
C4251 H4226 0.951 . S
C4251 C4249 1.388 . S
C4251 C4252 1.366 . S
C4252 C4251 1.366 . S
C4252 C4253 1.414 . S
C4252 C4255 1.499 . S
C4253 H4227 0.950 . S
C4253 C4252 1.414 . S
C4253 C4254 1.374 . S
C4254 H4228 0.950 . S
C4254 C4250 1.385 . S
C4254 C4253 1.374 . S
C4255 C4252 1.499 . S
C4255 C4256 1.373 . S
C4255 C4257 1.389 . S
C4256 H4229 0.950 . S
C4256 C4242 1.377 . S
C4256 C4255 1.373 . S
C4257 C4241 1.377 . S
C4257 C4255 1.389 . S
C4257 C4258 1.524 . S
C4258 C4257 1.524 . S
C4258 C4259 1.397 . S
C4258 C4263 1.363 . S
C4259 H4230 0.950 . S
C4259 C4258 1.397 . S
C4259 C4260 1.334 . S
C4260 H4231 0.950 . S
C4260 C4259 1.334 . S
C4260 C4261 1.287 . S
C4261 C4260 1.287 . S
C4261 C4262 1.524 . S
C4261 H4264 0.999 . S
C4262 H4232 0.950 . S
C4262 C4261 1.524 . S
C4262 C4263 1.415 . S
C4263 H4233 0.950 . S
C4263 C4258 1.363 . S
C4263 C4262 1.415 . S
H4264 C4261 0.999 . S
H4265 C4246 0.913 . S
H4266 C4284 0.951 . S
H4267 C4286 0.951 . S
H4268 C4288 0.950 . S
H4269 C4289 0.950 . S
H4270 C4291 0.950 . S
H4271 C4294 0.950 . S
H4272 C4295 0.950 . S
H4273 C4297 0.950 . S
H4274 C4298 0.950 . S
H4275 C4299 0.951 . S
H4276 C4301 0.951 . S
H4277 C4303 0.950 . S
H4278 C4304 0.950 . S
H4279 C4306 0.950 . S
H4280 C4309 0.950 . S
H4281 C4310 0.950 . S
H4282 C4312 0.950 . S
H4283 C4313 0.950 . S
C4284 H4266 0.951 . S
C4284 C4285 1.366 . S
C4284 C4286 1.388 . S
C4285 C4284 1.366 . S
C4285 C4289 1.385 . S
C4286 H4267 0.951 . S
C4286 C4284 1.388 . S
C4286 C4287 1.366 . S
C4287 C4286 1.366 . S
C4287 C4288 1.414 . S
C4287 C4290 1.499 . S
C4288 H4268 0.950 . S
C4288 C4287 1.414 . S
C4288 C4289 1.374 . S
C4289 H4269 0.950 . S
C4289 C4285 1.385 . S
C4289 C4288 1.374 . S
C4290 C4287 1.499 . S
C4290 C4291 1.373 . S
C4290 C4292 1.389 . S
C4291 H4270 0.950 . S
C4291 C4290 1.373 . S
C4291 C4307 1.377 . S
C4292 C4290 1.389 . S
C4292 C4293 1.524 . S
C4292 C4306 1.377 . S
C4293 C4292 1.524 . S
C4293 C4294 1.397 . S
C4293 C4298 1.363 . S
C4294 H4271 0.950 . S
C4294 C4293 1.397 . S
C4294 C4295 1.334 . S
C4295 H4272 0.950 . S
C4295 C4294 1.334 . S
C4295 C4296 1.287 . S
C4296 C4295 1.287 . S
C4296 C4297 1.524 . S
C4296 H4315 0.913 . S
C4297 H4273 0.950 . S
C4297 C4296 1.524 . S
C4297 C4298 1.415 . S
C4298 H4274 0.950 . S
C4298 C4293 1.363 . S
C4298 C4297 1.415 . S
C4299 H4275 0.951 . S
C4299 C4300 1.366 . S
C4299 C4301 1.388 . S
C4300 C4299 1.366 . S
C4300 C4304 1.385 . S
C4301 H4276 0.951 . S
C4301 C4299 1.388 . S
C4301 C4302 1.366 . S
C4302 C4301 1.366 . S
C4302 C4303 1.414 . S
C4302 C4305 1.499 . S
C4303 H4277 0.950 . S
C4303 C4302 1.414 . S
C4303 C4304 1.374 . S
C4304 H4278 0.950 . S
C4304 C4300 1.385 . S
C4304 C4303 1.374 . S
C4305 C4302 1.499 . S
C4305 C4306 1.373 . S
C4305 C4307 1.389 . S
C4306 H4279 0.950 . S
C4306 C4292 1.377 . S
C4306 C4305 1.373 . S
C4307 C4291 1.377 . S
C4307 C4305 1.389 . S
C4307 C4308 1.524 . S
C4308 C4307 1.524 . S
C4308 C4309 1.397 . S
C4308 C4313 1.363 . S
C4309 H4280 0.950 . S
C4309 C4308 1.397 . S
C4309 C4310 1.334 . S
C4310 H4281 0.950 . S
C4310 C4309 1.334 . S
C4310 C4311 1.287 . S
C4311 C4310 1.287 . S
C4311 C4312 1.524 . S
C4311 H4314 0.999 . S
C4312 H4282 0.950 . S
C4312 C4311 1.524 . S
C4312 C4313 1.415 . S
C4313 H4283 0.950 . S
C4313 C4308 1.363 . S
C4313 C4312 1.415 . S
H4314 C4311 0.999 . S
H4315 C4296 0.913 . S
H4316 C4334 0.951 . S
H4317 C4336 0.951 . S
H4318 C4338 0.950 . S
H4319 C4339 0.950 . S
H4320 C4341 0.950 . S
H4321 C4344 0.950 . S
H4322 C4345 0.950 . S
H4323 C4347 0.950 . S
H4324 C4348 0.950 . S
H4325 C4349 0.951 . S
H4326 C4351 0.951 . S
H4327 C4353 0.950 . S
H4328 C4354 0.950 . S
H4329 C4356 0.950 . S
H4330 C4359 0.950 . S
H4331 C4360 0.950 . S
H4332 C4362 0.950 . S
H4333 C4363 0.950 . S
C4334 H4316 0.951 . S
C4334 C4335 1.366 . S
C4334 C4336 1.388 . S
C4335 C4334 1.366 . S
C4335 C4339 1.385 . S
C4336 H4317 0.951 . S
C4336 C4334 1.388 . S
C4336 C4337 1.366 . S
C4337 C4336 1.366 . S
C4337 C4338 1.414 . S
C4337 C4340 1.499 . S
C4338 H4318 0.950 . S
C4338 C4337 1.414 . S
C4338 C4339 1.374 . S
C4339 H4319 0.950 . S
C4339 C4335 1.385 . S
C4339 C4338 1.374 . S
C4340 C4337 1.499 . S
C4340 C4341 1.373 . S
C4340 C4342 1.389 . S
C4341 H4320 0.950 . S
C4341 C4340 1.373 . S
C4341 C4357 1.377 . S
C4342 C4340 1.389 . S
C4342 C4343 1.524 . S
C4342 C4356 1.377 . S
C4343 C4342 1.524 . S
C4343 C4344 1.397 . S
C4343 C4348 1.363 . S
C4344 H4321 0.950 . S
C4344 C4343 1.397 . S
C4344 C4345 1.334 . S
C4345 H4322 0.950 . S
C4345 C4344 1.334 . S
C4345 C4346 1.287 . S
C4346 C4345 1.287 . S
C4346 C4347 1.524 . S
C4346 H4365 0.913 . S
C4347 H4323 0.950 . S
C4347 C4346 1.524 . S
C4347 C4348 1.415 . S
C4348 H4324 0.950 . S
C4348 C4343 1.363 . S
C4348 C4347 1.415 . S
C4349 H4325 0.951 . S
C4349 C4350 1.366 . S
C4349 C4351 1.388 . S
C4350 C4349 1.366 . S
C4350 C4354 1.385 . S
C4351 H4326 0.951 . S
C4351 C4349 1.388 . S
C4351 C4352 1.366 . S
C4352 C4351 1.366 . S
C4352 C4353 1.414 . S
C4352 C4355 1.499 . S
C4353 H4327 0.950 . S
C4353 C4352 1.414 . S
C4353 C4354 1.374 . S
C4354 H4328 0.950 . S
C4354 C4350 1.385 . S
C4354 C4353 1.374 . S
C4355 C4352 1.499 . S
C4355 C4356 1.373 . S
C4355 C4357 1.389 . S
C4356 H4329 0.950 . S
C4356 C4342 1.377 . S
C4356 C4355 1.373 . S
C4357 C4341 1.377 . S
C4357 C4355 1.389 . S
C4357 C4358 1.524 . S
C4358 C4357 1.524 . S
C4358 C4359 1.397 . S
C4358 C4363 1.363 . S
C4359 H4330 0.950 . S
C4359 C4358 1.397 . S
C4359 C4360 1.334 . S
C4360 H4331 0.950 . S
C4360 C4359 1.334 . S
C4360 C4361 1.287 . S
C4361 C4360 1.287 . S
C4361 C4362 1.524 . S
C4361 H4364 0.999 . S
C4362 H4332 0.950 . S
C4362 C4361 1.524 . S
C4362 C4363 1.415 . S
C4363 H4333 0.950 . S
C4363 C4358 1.363 . S
C4363 C4362 1.415 . S
H4364 C4361 0.999 . S
H4365 C4346 0.913 . S
H4366 C4384 0.951 . S
H4367 C4386 0.951 . S
H4368 C4388 0.950 . S
H4369 C4389 0.950 . S
H4370 C4391 0.950 . S
H4371 C4394 0.950 . S
H4372 C4395 0.950 . S
H4373 C4397 0.950 . S
H4374 C4398 0.950 . S
H4375 C4399 0.951 . S
H4376 C4401 0.951 . S
H4377 C4403 0.950 . S
H4378 C4404 0.950 . S
H4379 C4406 0.950 . S
H4380 C4409 0.950 . S
H4381 C4410 0.950 . S
H4382 C4412 0.950 . S
H4383 C4413 0.950 . S
C4384 H4366 0.951 . S
C4384 C4385 1.366 . S
C4384 C4386 1.388 . S
C4385 C4384 1.366 . S
C4385 C4389 1.385 . S
C4386 H4367 0.951 . S
C4386 C4384 1.388 . S
C4386 C4387 1.366 . S
C4387 C4386 1.366 . S
C4387 C4388 1.414 . S
C4387 C4390 1.499 . S
C4388 H4368 0.950 . S
C4388 C4387 1.414 . S
C4388 C4389 1.374 . S
C4389 H4369 0.950 . S
C4389 C4385 1.385 . S
C4389 C4388 1.374 . S
C4390 C4387 1.499 . S
C4390 C4391 1.373 . S
C4390 C4392 1.389 . S
C4391 H4370 0.950 . S
C4391 C4390 1.373 . S
C4391 C4407 1.377 . S
C4392 C4390 1.389 . S
C4392 C4393 1.524 . S
C4392 C4406 1.377 . S
C4393 C4392 1.524 . S
C4393 C4394 1.397 . S
C4393 C4398 1.363 . S
C4394 H4371 0.950 . S
C4394 C4393 1.397 . S
C4394 C4395 1.334 . S
C4395 H4372 0.950 . S
C4395 C4394 1.334 . S
C4395 C4396 1.287 . S
C4396 C4395 1.287 . S
C4396 C4397 1.524 . S
C4396 H4415 0.913 . S
C4397 H4373 0.950 . S
C4397 C4396 1.524 . S
C4397 C4398 1.415 . S
C4398 H4374 0.950 . S
C4398 C4393 1.363 . S
C4398 C4397 1.415 . S
C4399 H4375 0.951 . S
C4399 C4400 1.366 . S
C4399 C4401 1.388 . S
C4400 C4399 1.366 . S
C4400 C4404 1.385 . S
C4401 H4376 0.951 . S
C4401 C4399 1.388 . S
C4401 C4402 1.366 . S
C4402 C4401 1.366 . S
C4402 C4403 1.414 . S
C4402 C4405 1.499 . S
C4403 H4377 0.950 . S
C4403 C4402 1.414 . S
C4403 C4404 1.374 . S
C4404 H4378 0.950 . S
C4404 C4400 1.385 . S
C4404 C4403 1.374 . S
C4405 C4402 1.499 . S
C4405 C4406 1.373 . S
C4405 C4407 1.389 . S
C4406 H4379 0.950 . S
C4406 C4392 1.377 . S
C4406 C4405 1.373 . S
C4407 C4391 1.377 . S
C4407 C4405 1.389 . S
C4407 C4408 1.524 . S
C4408 C4407 1.524 . S
C4408 C4409 1.397 . S
C4408 C4413 1.363 . S
C4409 H4380 0.950 . S
C4409 C4408 1.397 . S
C4409 C4410 1.334 . S
C4410 H4381 0.950 . S
C4410 C4409 1.334 . S
C4410 C4411 1.287 . S
C4411 C4410 1.287 . S
C4411 C4412 1.524 . S
C4411 H4414 0.999 . S
C4412 H4382 0.950 . S
C4412 C4411 1.524 . S
C4412 C4413 1.415 . S
C4413 H4383 0.950 . S
C4413 C4408 1.363 . S
C4413 C4412 1.415 . S
H4414 C4411 0.999 . S
H4415 C4396 0.913 . S
H4416 C4434 0.951 . S
H4417 C4436 0.951 . S
H4418 C4438 0.950 . S
H4419 C4439 0.950 . S
H4420 C4441 0.950 . S
H4421 C4444 0.950 . S
H4422 C4445 0.950 . S
H4423 C4447 0.950 . S
H4424 C4448 0.950 . S
H4425 C4449 0.951 . S
H4426 C4451 0.951 . S
H4427 C4453 0.950 . S
H4428 C4454 0.950 . S
H4429 C4456 0.950 . S
H4430 C4459 0.950 . S
H4431 C4460 0.950 . S
H4432 C4462 0.950 . S
H4433 C4463 0.950 . S
C4434 H4416 0.951 . S
C4434 C4435 1.366 . S
C4434 C4436 1.388 . S
C4435 C4434 1.366 . S
C4435 C4439 1.385 . S
C4436 H4417 0.951 . S
C4436 C4434 1.388 . S
C4436 C4437 1.366 . S
C4437 C4436 1.366 . S
C4437 C4438 1.414 . S
C4437 C4440 1.499 . S
C4438 H4418 0.950 . S
C4438 C4437 1.414 . S
C4438 C4439 1.374 . S
C4439 H4419 0.950 . S
C4439 C4435 1.385 . S
C4439 C4438 1.374 . S
C4440 C4437 1.499 . S
C4440 C4441 1.373 . S
C4440 C4442 1.389 . S
C4441 H4420 0.950 . S
C4441 C4440 1.373 . S
C4441 C4457 1.377 . S
C4442 C4440 1.389 . S
C4442 C4443 1.524 . S
C4442 C4456 1.377 . S
C4443 C4442 1.524 . S
C4443 C4444 1.397 . S
C4443 C4448 1.363 . S
C4444 H4421 0.950 . S
C4444 C4443 1.397 . S
C4444 C4445 1.334 . S
C4445 H4422 0.950 . S
C4445 C4444 1.334 . S
C4445 C4446 1.287 . S
C4446 C4445 1.287 . S
C4446 C4447 1.524 . S
C4446 H4465 0.913 . S
C4447 H4423 0.950 . S
C4447 C4446 1.524 . S
C4447 C4448 1.415 . S
C4448 H4424 0.950 . S
C4448 C4443 1.363 . S
C4448 C4447 1.415 . S
C4449 H4425 0.951 . S
C4449 C4450 1.366 . S
C4449 C4451 1.388 . S
C4450 C4449 1.366 . S
C4450 C4454 1.385 . S
C4451 H4426 0.951 . S
C4451 C4449 1.388 . S
C4451 C4452 1.366 . S
C4452 C4451 1.366 . S
C4452 C4453 1.414 . S
C4452 C4455 1.499 . S
C4453 H4427 0.950 . S
C4453 C4452 1.414 . S
C4453 C4454 1.374 . S
C4454 H4428 0.950 . S
C4454 C4450 1.385 . S
C4454 C4453 1.374 . S
C4455 C4452 1.499 . S
C4455 C4456 1.373 . S
C4455 C4457 1.389 . S
C4456 H4429 0.950 . S
C4456 C4442 1.377 . S
C4456 C4455 1.373 . S
C4457 C4441 1.377 . S
C4457 C4455 1.389 . S
C4457 C4458 1.524 . S
C4458 C4457 1.524 . S
C4458 C4459 1.397 . S
C4458 C4463 1.363 . S
C4459 H4430 0.950 . S
C4459 C4458 1.397 . S
C4459 C4460 1.334 . S
C4460 H4431 0.950 . S
C4460 C4459 1.334 . S
C4460 C4461 1.287 . S
C4461 C4460 1.287 . S
C4461 C4462 1.524 . S
C4461 H4464 0.999 . S
C4462 H4432 0.950 . S
C4462 C4461 1.524 . S
C4462 C4463 1.415 . S
C4463 H4433 0.950 . S
C4463 C4458 1.363 . S
C4463 C4462 1.415 . S
H4464 C4461 0.999 . S
H4465 C4446 0.913 . S
H4466 C4484 0.951 . S
H4467 C4486 0.951 . S
H4468 C4488 0.950 . S
H4469 C4489 0.950 . S
H4470 C4491 0.950 . S
H4471 C4494 0.950 . S
H4472 C4495 0.950 . S
H4473 C4497 0.950 . S
H4474 C4498 0.950 . S
H4475 C4499 0.951 . S
H4476 C4501 0.951 . S
H4477 C4503 0.950 . S
H4478 C4504 0.950 . S
H4479 C4506 0.950 . S
H4480 C4509 0.950 . S
H4481 C4510 0.950 . S
H4482 C4512 0.950 . S
H4483 C4513 0.950 . S
C4484 H4466 0.951 . S
C4484 C4485 1.366 . S
C4484 C4486 1.388 . S
C4485 C4484 1.366 . S
C4485 C4489 1.385 . S
C4486 H4467 0.951 . S
C4486 C4484 1.388 . S
C4486 C4487 1.366 . S
C4487 C4486 1.366 . S
C4487 C4488 1.414 . S
C4487 C4490 1.499 . S
C4488 H4468 0.950 . S
C4488 C4487 1.414 . S
C4488 C4489 1.374 . S
C4489 H4469 0.950 . S
C4489 C4485 1.385 . S
C4489 C4488 1.374 . S
C4490 C4487 1.499 . S
C4490 C4491 1.373 . S
C4490 C4492 1.389 . S
C4491 H4470 0.950 . S
C4491 C4490 1.373 . S
C4491 C4507 1.377 . S
C4492 C4490 1.389 . S
C4492 C4493 1.524 . S
C4492 C4506 1.377 . S
C4493 C4492 1.524 . S
C4493 C4494 1.397 . S
C4493 C4498 1.363 . S
C4494 H4471 0.950 . S
C4494 C4493 1.397 . S
C4494 C4495 1.334 . S
C4495 H4472 0.950 . S
C4495 C4494 1.334 . S
C4495 C4496 1.287 . S
C4496 C4495 1.287 . S
C4496 C4497 1.524 . S
C4496 H4515 0.913 . S
C4497 H4473 0.950 . S
C4497 C4496 1.524 . S
C4497 C4498 1.415 . S
C4498 H4474 0.950 . S
C4498 C4493 1.363 . S
C4498 C4497 1.415 . S
C4499 H4475 0.951 . S
C4499 C4500 1.366 . S
C4499 C4501 1.388 . S
C4500 C4499 1.366 . S
C4500 C4504 1.385 . S
C4501 H4476 0.951 . S
C4501 C4499 1.388 . S
C4501 C4502 1.366 . S
C4502 C4501 1.366 . S
C4502 C4503 1.414 . S
C4502 C4505 1.499 . S
C4503 H4477 0.950 . S
C4503 C4502 1.414 . S
C4503 C4504 1.374 . S
C4504 H4478 0.950 . S
C4504 C4500 1.385 . S
C4504 C4503 1.374 . S
C4505 C4502 1.499 . S
C4505 C4506 1.373 . S
C4505 C4507 1.389 . S
C4506 H4479 0.950 . S
C4506 C4492 1.377 . S
C4506 C4505 1.373 . S
C4507 C4491 1.377 . S
C4507 C4505 1.389 . S
C4507 C4508 1.524 . S
C4508 C4507 1.524 . S
C4508 C4509 1.397 . S
C4508 C4513 1.363 . S
C4509 H4480 0.950 . S
C4509 C4508 1.397 . S
C4509 C4510 1.334 . S
C4510 H4481 0.950 . S
C4510 C4509 1.334 . S
C4510 C4511 1.287 . S
C4511 C4510 1.287 . S
C4511 C4512 1.524 . S
C4511 H4514 0.999 . S
C4512 H4482 0.950 . S
C4512 C4511 1.524 . S
C4512 C4513 1.415 . S
C4513 H4483 0.950 . S
C4513 C4508 1.363 . S
C4513 C4512 1.415 . S
H4514 C4511 0.999 . S
H4515 C4496 0.913 . S
H4516 C4534 0.951 . S
H4517 C4536 0.951 . S
H4518 C4538 0.950 . S
H4519 C4539 0.950 . S
H4520 C4541 0.950 . S
H4521 C4544 0.950 . S
H4522 C4545 0.950 . S
H4523 C4547 0.950 . S
H4524 C4548 0.950 . S
H4525 C4549 0.951 . S
H4526 C4551 0.951 . S
H4527 C4553 0.950 . S
H4528 C4554 0.950 . S
H4529 C4556 0.950 . S
H4530 C4559 0.950 . S
H4531 C4560 0.950 . S
H4532 C4562 0.950 . S
H4533 C4563 0.950 . S
C4534 H4516 0.951 . S
C4534 C4535 1.366 . S
C4534 C4536 1.388 . S
C4535 C4534 1.366 . S
C4535 C4539 1.385 . S
C4536 H4517 0.951 . S
C4536 C4534 1.388 . S
C4536 C4537 1.366 . S
C4537 C4536 1.366 . S
C4537 C4538 1.414 . S
C4537 C4540 1.499 . S
C4538 H4518 0.950 . S
C4538 C4537 1.414 . S
C4538 C4539 1.374 . S
C4539 H4519 0.950 . S
C4539 C4535 1.385 . S
C4539 C4538 1.374 . S
C4540 C4537 1.499 . S
C4540 C4541 1.373 . S
C4540 C4542 1.389 . S
C4541 H4520 0.950 . S
C4541 C4540 1.373 . S
C4541 C4557 1.377 . S
C4542 C4540 1.389 . S
C4542 C4543 1.524 . S
C4542 C4556 1.377 . S
C4543 C4542 1.524 . S
C4543 C4544 1.397 . S
C4543 C4548 1.363 . S
C4544 H4521 0.950 . S
C4544 C4543 1.397 . S
C4544 C4545 1.334 . S
C4545 H4522 0.950 . S
C4545 C4544 1.334 . S
C4545 C4546 1.287 . S
C4546 C4545 1.287 . S
C4546 C4547 1.524 . S
C4546 H4565 0.913 . S
C4547 H4523 0.950 . S
C4547 C4546 1.524 . S
C4547 C4548 1.415 . S
C4548 H4524 0.950 . S
C4548 C4543 1.363 . S
C4548 C4547 1.415 . S
C4549 H4525 0.951 . S
C4549 C4550 1.366 . S
C4549 C4551 1.388 . S
C4550 C4549 1.366 . S
C4550 C4554 1.385 . S
C4551 H4526 0.951 . S
C4551 C4549 1.388 . S
C4551 C4552 1.366 . S
C4552 C4551 1.366 . S
C4552 C4553 1.414 . S
C4552 C4555 1.499 . S
C4553 H4527 0.950 . S
C4553 C4552 1.414 . S
C4553 C4554 1.374 . S
C4554 H4528 0.950 . S
C4554 C4550 1.385 . S
C4554 C4553 1.374 . S
C4555 C4552 1.499 . S
C4555 C4556 1.373 . S
C4555 C4557 1.389 . S
C4556 H4529 0.950 . S
C4556 C4542 1.377 . S
C4556 C4555 1.373 . S
C4557 C4541 1.377 . S
C4557 C4555 1.389 . S
C4557 C4558 1.524 . S
C4558 C4557 1.524 . S
C4558 C4559 1.397 . S
C4558 C4563 1.363 . S
C4559 H4530 0.950 . S
C4559 C4558 1.397 . S
C4559 C4560 1.334 . S
C4560 H4531 0.950 . S
C4560 C4559 1.334 . S
C4560 C4561 1.287 . S
C4561 C4560 1.287 . S
C4561 C4562 1.524 . S
C4561 H4564 0.999 . S
C4562 H4532 0.950 . S
C4562 C4561 1.524 . S
C4562 C4563 1.415 . S
C4563 H4533 0.950 . S
C4563 C4558 1.363 . S
C4563 C4562 1.415 . S
H4564 C4561 0.999 . S
H4565 C4546 0.913 . S
H4566 C4584 0.951 . S
H4567 C4586 0.951 . S
H4568 C4588 0.950 . S
H4569 C4589 0.950 . S
H4570 C4591 0.950 . S
H4571 C4594 0.950 . S
H4572 C4595 0.950 . S
H4573 C4597 0.950 . S
H4574 C4598 0.950 . S
H4575 C4599 0.951 . S
H4576 C4601 0.951 . S
H4577 C4603 0.950 . S
H4578 C4604 0.950 . S
H4579 C4606 0.950 . S
H4580 C4609 0.950 . S
H4581 C4610 0.950 . S
H4582 C4612 0.950 . S
H4583 C4613 0.950 . S
C4584 H4566 0.951 . S
C4584 C4585 1.366 . S
C4584 C4586 1.388 . S
C4585 C4584 1.366 . S
C4585 C4589 1.385 . S
C4586 H4567 0.951 . S
C4586 C4584 1.388 . S
C4586 C4587 1.366 . S
C4587 C4586 1.366 . S
C4587 C4588 1.414 . S
C4587 C4590 1.499 . S
C4588 H4568 0.950 . S
C4588 C4587 1.414 . S
C4588 C4589 1.374 . S
C4589 H4569 0.950 . S
C4589 C4585 1.385 . S
C4589 C4588 1.374 . S
C4590 C4587 1.499 . S
C4590 C4591 1.373 1_655 S
C4590 C4592 1.389 . S
C4591 H4570 0.950 . S
C4591 C4590 1.373 1_455 S
C4591 C4607 1.377 . S
C4592 C4590 1.389 . S
C4592 C4593 1.524 . S
C4592 C4606 1.377 . S
C4593 C4592 1.524 . S
C4593 C4594 1.397 . S
C4593 C4598 1.363 . S
C4594 H4571 0.950 . S
C4594 C4593 1.397 . S
C4594 C4595 1.334 . S
C4595 H4572 0.950 . S
C4595 C4594 1.334 . S
C4595 C4596 1.287 . S
C4596 C4595 1.287 . S
C4596 C4597 1.524 . S
C4596 H4615 0.913 . S
C4597 H4573 0.950 . S
C4597 C4596 1.524 . S
C4597 C4598 1.415 . S
C4598 H4574 0.950 . S
C4598 C4593 1.363 . S
C4598 C4597 1.415 . S
C4599 H4575 0.951 . S
C4599 C4600 1.366 . S
C4599 C4601 1.388 . S
C4600 C4599 1.366 . S
C4600 C4604 1.385 . S
C4601 H4576 0.951 . S
C4601 C4599 1.388 . S
C4601 C4602 1.366 . S
C4602 C4601 1.366 . S
C4602 C4603 1.414 . S
C4602 C4605 1.499 . S
C4603 H4577 0.950 . S
C4603 C4602 1.414 . S
C4603 C4604 1.374 . S
C4604 H4578 0.950 . S
C4604 C4600 1.385 . S
C4604 C4603 1.374 . S
C4605 C4602 1.499 . S
C4605 C4606 1.373 . S
C4605 C4607 1.389 1_655 S
C4606 H4579 0.950 . S
C4606 C4592 1.377 . S
C4606 C4605 1.373 . S
C4607 C4591 1.377 . S
C4607 C4605 1.389 1_455 S
C4607 C4608 1.524 . S
C4608 C4607 1.524 . S
C4608 C4609 1.397 . S
C4608 C4613 1.363 . S
C4609 H4580 0.950 . S
C4609 C4608 1.397 . S
C4609 C4610 1.334 . S
C4610 H4581 0.950 . S
C4610 C4609 1.334 . S
C4610 C4611 1.287 . S
C4611 C4610 1.287 . S
C4611 C4612 1.524 . S
C4611 H4614 0.999 . S
C4612 H4582 0.950 . S
C4612 C4611 1.524 . S
C4612 C4613 1.415 . S
C4613 H4583 0.950 . S
C4613 C4608 1.363 . S
C4613 C4612 1.415 . S
H4614 C4611 0.999 . S
H4615 C4596 0.913 . S
H4616 C4634 0.951 . S
H4617 C4636 0.951 . S
H4618 C4638 0.950 . S
H4619 C4639 0.950 . S
H4620 C4641 0.950 . S
H4621 C4644 0.950 . S
H4622 C4645 0.950 . S
H4623 C4647 0.950 . S
H4624 C4648 0.950 . S
H4625 C4649 0.951 . S
H4626 C4651 0.951 . S
H4627 C4653 0.950 . S
H4628 C4654 0.950 . S
H4629 C4656 0.950 . S
H4630 C4659 0.950 . S
H4631 C4660 0.950 . S
H4632 C4662 0.950 . S
H4633 C4663 0.950 . S
C4634 H4616 0.951 . S
C4634 C4635 1.366 . S
C4634 C4636 1.388 . S
C4635 C4634 1.366 . S
C4635 C4639 1.385 . S
C4636 H4617 0.951 . S
C4636 C4634 1.388 . S
C4636 C4637 1.366 . S
C4637 C4636 1.366 . S
C4637 C4638 1.414 . S
C4637 C4640 1.499 . S
C4638 H4618 0.950 . S
C4638 C4637 1.414 . S
C4638 C4639 1.374 . S
C4639 H4619 0.950 . S
C4639 C4635 1.385 . S
C4639 C4638 1.374 . S
C4640 C4637 1.499 . S
C4640 C4641 1.373 . S
C4640 C4642 1.389 . S
C4641 H4620 0.950 . S
C4641 C4640 1.373 . S
C4641 C4657 1.377 . S
C4642 C4640 1.389 . S
C4642 C4643 1.524 . S
C4642 C4656 1.377 . S
C4643 C4642 1.524 . S
C4643 C4644 1.397 . S
C4643 C4648 1.363 . S
C4644 H4621 0.950 . S
C4644 C4643 1.397 . S
C4644 C4645 1.334 . S
C4645 H4622 0.950 . S
C4645 C4644 1.334 . S
C4645 C4646 1.287 . S
C4646 C4645 1.287 . S
C4646 C4647 1.524 . S
C4646 H4665 0.913 . S
C4647 H4623 0.950 . S
C4647 C4646 1.524 . S
C4647 C4648 1.415 . S
C4648 H4624 0.950 . S
C4648 C4643 1.363 . S
C4648 C4647 1.415 . S
C4649 H4625 0.951 . S
C4649 C4650 1.366 . S
C4649 C4651 1.388 . S
C4650 C4649 1.366 . S
C4650 C4654 1.385 . S
C4651 H4626 0.951 . S
C4651 C4649 1.388 . S
C4651 C4652 1.366 . S
C4652 C4651 1.366 . S
C4652 C4653 1.414 . S
C4652 C4655 1.499 . S
C4653 H4627 0.950 . S
C4653 C4652 1.414 . S
C4653 C4654 1.374 . S
C4654 H4628 0.950 . S
C4654 C4650 1.385 . S
C4654 C4653 1.374 . S
C4655 C4652 1.499 . S
C4655 C4656 1.373 . S
C4655 C4657 1.389 . S
C4656 H4629 0.950 . S
C4656 C4642 1.377 . S
C4656 C4655 1.373 . S
C4657 C4641 1.377 . S
C4657 C4655 1.389 . S
C4657 C4658 1.524 . S
C4658 C4657 1.524 . S
C4658 C4659 1.397 . S
C4658 C4663 1.363 . S
C4659 H4630 0.950 . S
C4659 C4658 1.397 . S
C4659 C4660 1.334 . S
C4660 H4631 0.950 . S
C4660 C4659 1.334 . S
C4660 C4661 1.287 . S
C4661 C4660 1.287 . S
C4661 C4662 1.524 . S
C4661 H4664 0.999 . S
C4662 H4632 0.950 . S
C4662 C4661 1.524 . S
C4662 C4663 1.415 . S
C4663 H4633 0.950 . S
C4663 C4658 1.363 . S
C4663 C4662 1.415 . S
H4664 C4661 0.999 . S
H4665 C4646 0.913 . S
H4666 C4684 0.951 . S
H4667 C4686 0.951 . S
H4668 C4688 0.950 . S
H4669 C4689 0.950 . S
H4670 C4691 1.034 . S
H4671 C4694 0.950 . S
H4672 C4695 0.950 . S
H4673 C4697 0.950 . S
H4674 C4698 0.950 . S
H4675 C4699 0.943 1_565 S
H4676 C4701 0.938 1_565 S
H4677 C4703 0.950 . S
H4678 C4704 0.950 . S
H4679 C4706 0.950 . S
H4680 C4709 0.950 . S
H4681 C4710 0.950 . S
H4682 C4712 0.950 . S
H4683 C4713 0.950 . S
C4684 H4666 0.951 . S
C4684 C4685 1.366 . S
C4684 C4686 1.388 . S
C4685 C4684 1.366 . S
C4685 C4689 1.385 . S
C4686 H4667 0.951 . S
C4686 C4684 1.388 . S
C4686 C4687 1.366 . S
C4687 C4686 1.366 . S
C4687 C4688 1.414 . S
C4687 C4690 1.499 . S
C4688 H4668 0.950 . S
C4688 C4687 1.414 . S
C4688 C4689 1.374 . S
C4689 H4669 0.950 . S
C4689 C4685 1.385 . S
C4689 C4688 1.374 . S
C4690 C4687 1.499 . S
C4690 C4691 1.318 1_545 S
C4690 C4692 1.389 . S
C4691 H4670 1.034 . S
C4691 C4690 1.318 1_565 S
C4691 C4707 1.353 . S
C4692 C4690 1.389 . S
C4692 C4693 1.524 . S
C4692 C4706 1.377 . S
C4693 C4692 1.524 . S
C4693 C4694 1.397 . S
C4693 C4698 1.363 . S
C4694 H4671 0.950 . S
C4694 C4693 1.397 . S
C4694 C4695 1.334 . S
C4695 H4672 0.950 . S
C4695 C4694 1.334 . S
C4695 C4696 1.287 . S
C4696 C4695 1.287 . S
C4696 C4697 1.524 . S
C4696 H4715 0.913 . S
C4697 H4673 0.950 . S
C4697 C4696 1.524 . S
C4697 C4698 1.415 . S
C4698 H4674 0.950 . S
C4698 C4693 1.363 . S
C4698 C4697 1.415 . S
C4699 H4675 0.943 1_545 S
C4699 C4700 1.385 . S
C4699 C4701 1.377 . S
C4700 C4699 1.385 . S
C4700 C4704 1.385 . S
C4701 H4676 0.938 1_545 S
C4701 C4699 1.377 . S
C4701 C4702 1.366 . S
C4702 C4701 1.366 . S
C4702 C4703 1.414 . S
C4702 C4705 1.499 . S
C4703 H4677 0.950 . S
C4703 C4702 1.414 . S
C4703 C4704 1.374 . S
C4704 H4678 0.950 . S
C4704 C4700 1.385 . S
C4704 C4703 1.374 . S
C4705 C4702 1.499 . S
C4705 C4706 1.373 . S
C4705 C4707 1.389 1_545 S
C4706 H4679 0.950 . S
C4706 C4692 1.377 . S
C4706 C4705 1.373 . S
C4707 C4691 1.353 . S
C4707 C4705 1.389 1_565 S
C4707 C4708 1.524 . S
C4708 C4707 1.524 . S
C4708 C4709 1.397 . S
C4708 C4713 1.363 . S
C4709 H4680 0.950 . S
C4709 C4708 1.397 . S
C4709 C4710 1.334 . S
C4710 H4681 0.950 . S
C4710 C4709 1.334 . S
C4710 C4711 1.287 . S
C4711 C4710 1.287 . S
C4711 C4712 1.524 . S
C4711 H4714 0.999 . S
C4712 H4682 0.950 . S
C4712 C4711 1.524 . S
C4712 C4713 1.415 . S
C4713 H4683 0.950 . S
C4713 C4708 1.363 . S
C4713 C4712 1.415 . S
H4714 C4711 0.999 . S
H4715 C4696 0.913 . S
C1135 C4 1.440 . S
C1150 C729 1.476 . S
C1185 C26 1.537 . S
C1200 C777 1.542 . S
C1250 C825 1.415 . S
C1235 C32 1.381 . S
C1285 C40 1.401 . S
C1300 C849 1.419 . S
C1335 C12 1.453 . S
C1350 C921 1.466 . S
C1385 C18 1.462 . S
C1400 C969 1.510 . S
C1435 C46 1.421 . S
C1450 C897 1.460 . S
C1500 C945 1.540 . S
C1485 C68 1.536 . S
C1550 C873 1.465 . S
C1535 C74 1.395 . S
C1585 C82 1.387 . S
C1600 C801 1.403 . S
C1650 C705 1.490 . S
C1635 C54 1.476 . S
C1685 C60 1.462 . S
C1700 C753 1.510 . S
C1735 C88 1.591 . S
C1750 C1017 1.638 . S
C1785 C110 1.611 . S
C1800 C1065 1.610 . S
C1850 C1089 1.589 . S
C1835 C116 1.548 . S
C1885 C124 1.469 . S
C1900 C273 1.466 . S
C1935 C96 1.540 . S
C1950 C345 1.544 . S
C1985 C102 1.504 . S
C2000 C393 1.545 . S
C2035 C130 1.512 . S
C2050 C321 1.555 . S
C2085 C152 1.609 . S
C2100 C369 1.609 . S
C2150 C297 1.565 . S
C2135 C158 1.545 . S
C2200 C1113 1.521 . S
C2185 C166 1.542 . S
C2250 C993 1.529 . S
C2235 C138 1.527 . S
C2300 C1041 1.592 . S
C2285 C144 1.546 . S
C2335 C172 1.521 . S
C2350 C441 1.564 . S
C2385 C194 1.599 . S
C2400 C489 1.600 . S
C2435 C200 1.552 . S
C2450 C513 1.590 . S
C2485 C208 1.534 . S
C2500 C561 1.529 . S
C2550 C633 1.537 . S
C2535 C180 1.536 . S
C2600 C681 1.579 . S
C2585 C186 1.532 . S
C2650 C609 1.650 . S
C2635 C214 1.601 . S
C2700 C657 1.612 . S
C2685 C236 1.614 . S
C2735 C242 1.528 . S
C2750 C585 1.549 . S
C2800 C537 1.439 . S
C2785 C250 1.456 . S
C2835 C222 1.548 . S
C2850 C417 1.552 . S
C2900 C465 1.557 . S
C2885 C228 1.517 . S
C2950 C282 1.447 . S
C2935 C5 1.239 . S
C2985 C25 1.332 . S
C3000 C336 1.313 . S
C3050 C384 1.444 . S
C3035 C33 1.265 . S
C3100 C432 1.305 . S
C3085 C39 1.300 . S
C3150 C480 1.370 . S
C3135 C11 1.386 . S
C3200 C522 1.348 . S
C3185 C19 1.141 1_556 S
C3235 C47 1.264 1_556 S
C3250 C528 1.475 . S
C3285 C67 1.332 . S
C3300 C426 1.305 . S
C3335 C75 1.255 1_556 S
C3350 C474 1.421 . S
C3385 C81 1.325 . S
C3400 C330 1.310 . S
C3450 C378 1.335 . S
C3435 C53 1.359 . S
C3485 C61 1.139 . S
C3500 C288 1.335 . S
C3550 C570 1.401 . S
C3535 C89 1.185 . S
C3585 C109 1.446 . S
C3600 C624 1.430 . S
C3635 C117 1.250 . S
C3650 C672 1.448 . S
C3700 C720 1.172 . S
C3685 C123 1.156 . S
C3735 C95 1.328 . S
C3750 C768 1.316 . S
C3785 C103 1.047 . S
C3800 C816 1.199 . S
C3835 C131 1.046 . S
C3850 C810 1.190 . S
C3885 C151 1.187 . S
C3900 C714 1.195 . S
C3950 C762 1.340 . S
C3935 C159 1.165 . S
C3985 C165 1.309 . S
C4000 C618 1.290 . S
C4035 C137 1.429 . S
C4050 C666 1.405 . S
C4100 C576 1.440 . S
C4085 C145 1.228 . S
C4150 C858 1.274 . S
C4135 C173 1.060 . S
C4185 C193 1.165 . S
C4200 C912 1.177 . S
C4235 C201 1.159 . S
C4250 C960 1.345 . S
C4300 C1008 1.284 . S
C4285 C207 1.296 . S
C4350 C1056 1.431 . S
C4335 C179 1.447 . S
C4385 C187 1.234 . S
C4400 C1098 1.452 . S
C4435 C215 1.206 . S
C4450 C1104 1.416 . S
C4485 C235 1.441 . S
C4500 C1002 1.417 . S
C4550 C1050 1.423 . S
C4535 C243 1.239 . S
C4600 C906 1.145 . S
C4585 C249 1.127 . S
C4650 C954 1.318 . S
C4635 C221 1.338 . S
C4685 C229 1.052 . S
C4700 C864 1.210 . S
