# Generated by pormake.
# Topology tsx, (6,3)-cn, num edge types: 1
# Building blocks:
#     Node 0, Type 0, BuildingBlock: JUFBIX_clean_sbu_0, # of connection points: 6
#     Node 1, Type 0, BuildingBlock: JUFBIX_clean_sbu_0, # of connection points: 6
#     Node 2, Type 1, BuildingBlock: MIDCAF_clean_linker_0, # of connection points: 3
#     Node 3, Type 1, BuildingBlock: MIDCAF_clean_linker_0, # of connection points: 3
#     Node 4, Type 1, BuildingBlock: MIDCAF_clean_linker_0, # of connection points: 3
#     Node 5, Type 1, BuildingBlock: MIDCAF_clean_linker_0, # of connection points: 3
#     Edge 6, Type (0, 1), BuildingBlock: MIFKUJ_clean_linker_0, # of connection points: 2
#     Edge 7, Type (0, 1), BuildingBlock: MIFKUJ_clean_linker_0, # of connection points: 2
#     Edge 8, Type (0, 1), BuildingBlock: MIFKUJ_clean_linker_0, # of connection points: 2
#     Edge 9, Type (0, 1), BuildingBlock: MIFKUJ_clean_linker_0, # of connection points: 2
#     Edge 10, Type (0, 1), BuildingBlock: MIFKUJ_clean_linker_0, # of connection points: 2
#     Edge 11, Type (0, 1), BuildingBlock: MIFKUJ_clean_linker_0, # of connection points: 2
#     Edge 12, Type (0, 1), BuildingBlock: MIFKUJ_clean_linker_0, # of connection points: 2
#     Edge 13, Type (0, 1), BuildingBlock: MIFKUJ_clean_linker_0, # of connection points: 2
#     Edge 14, Type (0, 1), BuildingBlock: MIFKUJ_clean_linker_0, # of connection points: 2
#     Edge 15, Type (0, 1), BuildingBlock: MIFKUJ_clean_linker_0, # of connection points: 2
#     Edge 16, Type (0, 1), BuildingBlock: MIFKUJ_clean_linker_0, # of connection points: 2
#     Edge 17, Type (0, 1), BuildingBlock: MIFKUJ_clean_linker_0, # of connection points: 2
# Relax obj value: 0.159
# Max RMSD: 0.166
# Mean RMSD: 0.133
data_MOF--net-tsx--node1-JUFBIX_clean_sbu_0--node2-MIDCAF_clean_linker_0--edge1-MIFKUJ_clean_linker_0
_symmetry_space_group_name_H-M    P1
_symmetry_Int_Tables_number       1
_symmetry_cell_setting            triclinic
loop_
_symmetry_equiv_pos_as_xyz
'x, y, z'
_cell_length_a     29.444605
_cell_length_b     34.874464
_cell_length_c     54.105398
_cell_angle_alpha  92.157009
_cell_angle_beta   89.799345
_cell_angle_gamma 96.527415
loop_
_atom_site_label
_atom_site_type_symbol
_atom_site_fract_x
_atom_site_fract_y
_atom_site_fract_z
_atom_type_partial_charge
Co0 Co 0.04002 0.99666 0.0075 0.0
C1 C 0.00648 0.02006 0.96269 0.0
Co2 Co 0.97852 0.02757 0.01083 0.0
C3 C 0.10424 0.93943 0.01137 0.0
C4 C 0.13156 0.98919 0.99188 0.0
N5 N 0.09358 0.97365 0.00347 0.0
N6 N 0.14753 0.9334 0.00538 0.0
C7 C 0.16476 0.96468 0.99314 0.0
H8 H 0.08096 0.9196 0.02159 0.0
H9 H 0.13492 0.01666 0.98301 0.0
C10 C 0.01168 0.00409 0.05564 0.0
N11 N 0.92503 0.05046 0.01519 0.0
C12 C 0.91378 0.08457 0.00747 0.0
C13 C 0.88813 0.03523 0.02782 0.0
N14 N 0.87117 0.09095 0.01466 0.0
C15 C 0.85502 0.0599 0.02744 0.0
C16 C 0.96109 0.94713 0.00379 0.0
O17 O 0.0423 0.99085 0.04224 0.0
O18 O 0.98095 0.02095 0.04549 0.0
O19 O 0.94358 0.97866 0.00651 0.0
O20 O 0.00432 0.94773 0.00377 0.0
O21 O 0.97644 0.03375 0.97628 0.0
H22 H 0.88559 0.00798 0.03692 0.0
H23 H 0.93622 0.10413 0.99661 0.0
O24 O 0.03724 0.00286 0.97265 0.0
O25 O 0.07493 0.04573 0.01144 0.0
O26 O 0.01413 0.07642 0.01487 0.0
C27 C 0.05738 0.07722 0.01436 0.0
H28 H 0.19871 0.96915 0.98525 0.0
H29 H 0.82191 0.05563 0.03631 0.0
Co30 Co 0.54276 0.48623 0.51045 0.0
C31 C 0.50276 0.50886 0.46749 0.0
Co32 Co 0.4817 0.51706 0.51684 0.0
C33 C 0.60574 0.42738 0.51149 0.0
C34 C 0.63067 0.476 0.49031 0.0
N35 N 0.59471 0.46174 0.50401 0.0
N36 N 0.64739 0.42004 0.50321 0.0
C37 C 0.66308 0.45061 0.4899 0.0
H38 H 0.58391 0.40834 0.52299 0.0
H39 H 0.63311 0.50312 0.48106 0.0
C40 C 0.52164 0.49453 0.55979 0.0
N41 N 0.43007 0.54168 0.52339 0.0
C42 C 0.41845 0.57498 0.51457 0.0
C43 C 0.39698 0.53064 0.5398 0.0
N44 N 0.37973 0.58531 0.52508 0.0
C45 C 0.36613 0.55743 0.54094 0.0
C46 C 0.46208 0.4374 0.51097 0.0
O47 O 0.55091 0.48186 0.5452 0.0
O48 O 0.48885 0.51052 0.55108 0.0
O49 O 0.44519 0.46913 0.51423 0.0
O50 O 0.50519 0.4377 0.5089 0.0
O51 O 0.47497 0.52307 0.48234 0.0
H52 H 0.39581 0.50504 0.55058 0.0
H53 H 0.43876 0.59191 0.50128 0.0
O54 O 0.53438 0.49115 0.47604 0.0
O55 O 0.57917 0.53499 0.51184 0.0
O56 O 0.51882 0.56508 0.51951 0.0
C57 C 0.56161 0.56619 0.5161 0.0
H58 H 0.69535 0.45399 0.48012 0.0
H59 H 0.33598 0.55646 0.55251 0.0
C60 C 0.88195 0.07542 0.45379 0.0
C61 C 0.89459 0.09335 0.47681 0.0
C62 C 0.93404 0.08365 0.4886 0.0
C63 C 0.96093 0.05732 0.47721 0.0
H64 H 0.02754 0.93833 0.48235 0.0
H65 H 0.07597 0.89218 0.49829 0.0
H66 H 0.17148 0.91713 0.43858 0.0
H67 H 0.12235 0.96149 0.42227 0.0
H68 H 0.05272 0.94946 0.3696 0.0
H69 H 0.05244 0.94797 0.32468 0.0
H70 H 0.96401 0.03879 0.3258 0.0
H71 H 0.96311 0.03952 0.37083 0.0
H72 H 0.89896 0.03737 0.42419 0.0
H73 H 0.85205 0.08256 0.44412 0.0
H74 H 0.94449 0.09693 0.5064 0.0
H75 H 0.99176 0.05113 0.4864 0.0
N76 N 0.00983 0.99675 0.45185 0.0
N77 N 0.03784 0.97572 0.41355 0.0
N78 N 0.97968 0.01606 0.41467 0.0
C79 C 0.03881 0.97605 0.43865 0.0
C80 C 0.0084 0.9955 0.40139 0.0
C81 C 0.98016 0.01695 0.43983 0.0
C82 C 0.07084 0.95303 0.45087 0.0
C83 C 0.05922 0.93421 0.4729 0.0
C84 C 0.08705 0.90782 0.48203 0.0
C85 C 0.12725 0.90021 0.46942 0.0
C86 C 0.14008 0.92116 0.44833 0.0
C87 C 0.11207 0.94689 0.43906 0.0
C88 C 0.00795 0.99465 0.37393 0.0
C89 C 0.03313 0.96914 0.36033 0.0
C90 C 0.03321 0.96842 0.3345 0.0
C91 C 0.00835 0.99334 0.32155 0.0
C92 C 0.98304 0.01879 0.33513 0.0
C93 C 0.98273 0.01936 0.361 0.0
C94 C 0.94931 0.04088 0.45362 0.0
C95 C 0.90909 0.04973 0.44228 0.0
C96 C 0.84218 0.94733 0.56524 0.0
C97 C 0.85383 0.92026 0.54701 0.0
C98 C 0.89889 0.92392 0.53775 0.0
C99 C 0.93182 0.95267 0.5474 0.0
H100 H 0.0472 0.0431 0.53045 0.0
H101 H 0.10462 0.08636 0.50879 0.0
H102 H 0.13303 0.15384 0.57658 0.0
H103 H 0.07688 0.11111 0.59823 0.0
H104 H 0.05422 0.06666 0.6485 0.0
H105 H 0.05576 0.0676 0.69353 0.0
H106 H 0.92499 0.99767 0.69395 0.0
H107 H 0.92298 0.99692 0.64893 0.0
H108 H 0.86573 0.99458 0.59006 0.0
H109 H 0.80762 0.94649 0.57225 0.0
H110 H 0.90945 0.90355 0.52391 0.0
H111 H 0.96662 0.95396 0.54064 0.0
N112 N 0.98976 0.02456 0.56714 0.0
N113 N 0.02126 0.05098 0.60469 0.0
N114 N 0.95549 0.00664 0.60493 0.0
C115 C 0.02221 0.0487 0.57955 0.0
C116 C 0.98822 0.02992 0.61754 0.0
C117 C 0.95613 0.00375 0.57983 0.0
C118 C 0.05737 0.07362 0.56609 0.0
C119 C 0.06582 0.06712 0.54071 0.0
C120 C 0.09863 0.09169 0.52832 0.0
C121 C 0.12267 0.12347 0.54105 0.0
C122 C 0.11445 0.12974 0.56633 0.0
C123 C 0.08242 0.10505 0.57874 0.0
C124 C 0.98849 0.03165 0.64499 0.0
C125 C 0.02562 0.05161 0.65813 0.0
C126 C 0.0267 0.05197 0.68396 0.0
C127 C 0.99057 0.03262 0.69728 0.0
C128 C 0.95314 0.01316 0.68421 0.0
C129 C 0.95216 0.01258 0.65837 0.0
C130 C 0.92054 0.97758 0.56684 0.0
C131 C 0.87533 0.9752 0.57532 0.0
C132 C 0.38922 0.60028 0.95371 0.0
C133 C 0.39611 0.61087 0.9788 0.0
C134 C 0.42978 0.59458 0.992 0.0
C135 C 0.45571 0.56781 0.98026 0.0
H136 H 0.56307 0.48377 0.98724 0.0
H137 H 0.60787 0.43637 0.0054 0.0
H138 H 0.57099 0.35678 0.94376 0.0
H139 H 0.52718 0.40363 0.92572 0.0
H140 H 0.51099 0.44071 0.87319 0.0
H141 H 0.51691 0.43952 0.82811 0.0
H142 H 0.50298 0.56136 0.8284 0.0
H143 H 0.49605 0.5626 0.87358 0.0
H144 H 0.40911 0.56693 0.92253 0.0
H145 H 0.36401 0.6128 0.94298 0.0
H146 H 0.43581 0.60235 0.01138 0.0
H147 H 0.48133 0.55558 0.99085 0.0
N148 N 0.49745 0.50378 0.95464 0.0
N149 N 0.52053 0.47625 0.917 0.0
N150 N 0.47836 0.52909 0.91682 0.0
C151 C 0.51946 0.47676 0.94209 0.0
C152 C 0.50056 0.50248 0.90424 0.0
C153 C 0.47626 0.5298 0.94197 0.0
C154 C 0.54192 0.44743 0.95502 0.0
C155 C 0.56409 0.45588 0.97787 0.0
C156 C 0.58987 0.42894 0.98815 0.0
C157 C 0.59282 0.39291 0.97598 0.0
C158 C 0.56899 0.3841 0.9537 0.0
C159 C 0.54413 0.41108 0.94328 0.0
C160 C 0.50304 0.50177 0.87692 0.0
C161 C 0.50907 0.46725 0.86366 0.0
C162 C 0.51229 0.46649 0.83789 0.0
C163 C 0.51052 0.50036 0.82491 0.0
C164 C 0.50469 0.53493 0.83808 0.0
C165 C 0.50046 0.53555 0.86386 0.0
C166 C 0.44905 0.55762 0.95501 0.0
C167 C 0.41547 0.57422 0.94194 0.0
C168 C 0.3984 0.40595 0.07477 0.0
C169 C 0.38271 0.40964 0.05064 0.0
C170 C 0.39759 0.44309 0.03784 0.0
C171 C 0.42813 0.47234 0.0491 0.0
H172 H 0.53583 0.56812 0.03707 0.0
H173 H 0.59405 0.61106 0.01598 0.0
H174 H 0.66988 0.63136 0.08428 0.0
H175 H 0.6123 0.58897 0.10528 0.0
H176 H 0.56099 0.57259 0.15587 0.0
H177 H 0.55796 0.57623 0.20097 0.0
H178 H 0.43301 0.49828 0.19934 0.0
H179 H 0.43559 0.49476 0.15438 0.0
H180 H 0.43902 0.43155 0.10487 0.0
H181 H 0.387 0.38058 0.08508 0.0
H182 H 0.38575 0.44647 0.0192 0.0
H183 H 0.4392 0.49796 0.03898 0.0
N184 N 0.50442 0.52357 0.07373 0.0
N185 N 0.53193 0.5533 0.11131 0.0
N186 N 0.47195 0.50333 0.11142 0.0
C187 C 0.53399 0.5503 0.0862 0.0
C188 C 0.50074 0.53013 0.12405 0.0
C189 C 0.4735 0.49979 0.08637 0.0
C190 C 0.56929 0.57526 0.07289 0.0
C191 C 0.56509 0.58159 0.04751 0.0
C192 C 0.59828 0.6062 0.03546 0.0
C193 C 0.63658 0.62431 0.04848 0.0
C194 C 0.64107 0.61738 0.07369 0.0
C195 C 0.60776 0.59334 0.08577 0.0
C196 C 0.49861 0.53329 0.15143 0.0
C197 C 0.53273 0.55635 0.16508 0.0
C198 C 0.53116 0.55831 0.19093 0.0
C199 C 0.49526 0.53752 0.20367 0.0
C200 C 0.46084 0.51495 0.19004 0.0
C201 C 0.46255 0.51275 0.16424 0.0
C202 C 0.44305 0.46883 0.07351 0.0
C203 C 0.42792 0.43529 0.08613 0.0
H204 H 0.03367 0.15106 0.01288 0.0
H205 H 0.08505 0.21164 0.01644 0.0
H206 H 0.20002 0.14694 0.02519 0.0
H207 H 0.14938 0.08666 0.02157 0.0
H208 H 0.19825 0.20726 0.0599 0.0
H209 H 0.18212 0.18411 0.97148 0.0
H210 H 0.13891 0.17337 0.93251 0.0
H211 H 0.08705 0.28297 0.94352 0.0
H212 H 0.12938 0.29402 0.98291 0.0
H213 H 0.39322 0.33364 0.04499 0.0
H214 H 0.33365 0.28056 0.03524 0.0
H215 H 0.23727 0.3625 0.02343 0.0
H216 H 0.29748 0.41592 0.03265 0.0
H217 H 0.22214 0.29864 0.99165 0.0
H218 H 0.24117 0.32432 0.07843 0.0
H219 H 0.28433 0.33606 0.11747 0.0
H220 H 0.32833 0.22293 0.11036 0.0
H221 H 0.28608 0.21075 0.07103 0.0
C222 C 0.0699 0.14982 0.01562 0.0
C223 C 0.08748 0.11409 0.01694 0.0
C224 C 0.09916 0.18439 0.01754 0.0
C225 C 0.14631 0.18368 0.02097 0.0
C226 C 0.16373 0.14808 0.02256 0.0
C227 C 0.13471 0.11365 0.02043 0.0
C228 C 0.17799 0.2198 0.02316 0.0
C229 C 0.20368 0.22711 0.04493 0.0
C230 C 0.18392 0.2463 0.00391 0.0
C231 C 0.15845 0.23967 0.98028 0.0
C232 C 0.16113 0.20575 0.96572 0.0
C233 C 0.13686 0.19964 0.94352 0.0
C234 C 0.11015 0.22745 0.93553 0.0
C235 C 0.10769 0.26143 0.94975 0.0
C236 C 0.1318 0.26762 0.97202 0.0
C237 C 0.35959 0.34027 0.03971 0.0
C238 C 0.34964 0.37867 0.03973 0.0
C239 C 0.32558 0.31002 0.03426 0.0
C240 C 0.28079 0.31762 0.02924 0.0
C241 C 0.27156 0.35605 0.02742 0.0
C242 C 0.30589 0.38647 0.03262 0.0
C243 C 0.24329 0.28542 0.02813 0.0
C244 C 0.21637 0.27899 0.00671 0.0
C245 C 0.23582 0.25978 0.04781 0.0
C246 C 0.26071 0.26674 0.07168 0.0
C247 C 0.26027 0.30203 0.08511 0.0
C248 C 0.28457 0.30876 0.10729 0.0
C249 C 0.30912 0.28029 0.11636 0.0
C250 C 0.30932 0.24497 0.1033 0.0
C251 C 0.28518 0.23813 0.08106 0.0
H252 H 0.32791 0.28556 0.13354 0.0
H253 H 0.09146 0.22275 0.91829 0.0
H254 H 0.1113 0.85846 0.00407 0.0
H255 H 0.15321 0.80197 0.00708 0.0
H256 H 0.27813 0.87723 0.02074 0.0
H257 H 0.23648 0.93346 0.01686 0.0
H258 H 0.29335 0.8272 0.98719 0.0
H259 H 0.22139 0.81851 0.06628 0.0
H260 H 0.1573 0.81596 0.09585 0.0
H261 H 0.09552 0.71117 0.05987 0.0
H262 H 0.15891 0.71337 0.02983 0.0
H263 H 0.42773 0.67601 0.006 0.0
H264 H 0.38453 0.72961 0.01872 0.0
H265 H 0.26076 0.66568 0.99001 0.0
H266 H 0.30373 0.61212 0.97728 0.0
H267 H 0.24755 0.71011 0.03471 0.0
H268 H 0.31688 0.7242 0.95358 0.0
H269 H 0.38168 0.7273 0.92444 0.0
H270 H 0.44973 0.82397 0.96636 0.0
H271 H 0.38557 0.82102 0.99597 0.0
C272 C 0.14753 0.86278 0.00814 0.0
C273 C 0.17076 0.90024 0.01007 0.0
C274 C 0.1715 0.83052 0.00994 0.0
C275 C 0.21895 0.8352 0.0143 0.0
C276 C 0.24167 0.87275 0.01723 0.0
C277 C 0.2179 0.90487 0.01501 0.0
C278 C 0.24563 0.80134 0.01379 0.0
C279 C 0.28373 0.80202 0.99805 0.0
C280 C 0.23274 0.76794 0.02748 0.0
C281 C 0.19475 0.76629 0.04566 0.0
C282 C 0.19399 0.79505 0.06456 0.0
C283 C 0.1578 0.79366 0.08143 0.0
C284 C 0.12232 0.76347 0.07971 0.0
C285 C 0.12302 0.73455 0.06116 0.0
C286 C 0.1591 0.73584 0.04423 0.0
C287 C 0.39111 0.67302 0.00302 0.0
C288 C 0.36911 0.64013 0.99045 0.0
C289 C 0.36652 0.70366 0.01021 0.0
C290 C 0.31952 0.70172 0.00509 0.0
C291 C 0.29695 0.66775 0.99415 0.0
C292 C 0.32157 0.63732 0.98675 0.0
C293 C 0.29505 0.73648 0.00833 0.0
C294 C 0.25732 0.73575 0.02431 0.0
C295 C 0.30837 0.77008 0.99505 0.0
C296 C 0.34671 0.7721 0.97713 0.0
C297 C 0.34584 0.74591 0.95668 0.0
C298 C 0.38241 0.74767 0.94007 0.0
C299 C 0.41986 0.77574 0.94359 0.0
C300 C 0.42074 0.80219 0.96369 0.0
C301 C 0.38428 0.80049 0.98039 0.0
H302 H 0.44815 0.77707 0.9307 0.0
H303 H 0.09432 0.76246 0.09277 0.0
H304 H 0.87251 0.93702 0.98886 0.0
H305 H 0.81932 0.87816 0.98972 0.0
H306 H 0.92705 0.8157 0.01575 0.0
H307 H 0.98114 0.87453 0.01401 0.0
H308 H 0.87102 0.77038 0.98493 0.0
H309 H 0.85295 0.85276 0.05624 0.0
H310 H 0.84184 0.91408 0.0784 0.0
H311 H 0.71171 0.91449 0.04289 0.0
H312 H 0.72239 0.85345 0.0202 0.0
H313 H 0.72952 0.62766 0.05098 0.0
H314 H 0.78587 0.67892 0.03644 0.0
H315 H 0.6777 0.735 0.0048 0.0
H316 H 0.6211 0.68386 0.01947 0.0
H317 H 0.73346 0.78273 0.03659 0.0
H318 H 0.75148 0.69549 0.9675 0.0
H319 H 0.76488 0.63346 0.94699 0.0
H320 H 0.8971 0.64037 0.98116 0.0
H321 H 0.88423 0.7022 0.00218 0.0
C322 C 0.88505 0.91063 0.99446 0.0
C323 C 0.9308 0.91042 0.0017 0.0
C324 C 0.85459 0.87703 0.99498 0.0
C325 C 0.86893 0.84276 0.00338 0.0
C326 C 0.91521 0.84189 0.00933 0.0
C327 C 0.94602 0.87549 0.0084 0.0
C328 C 0.83484 0.8089 0.00762 0.0
C329 C 0.84115 0.77294 0.9964 0.0
C330 C 0.79559 0.81237 0.02239 0.0
C331 C 0.78867 0.84872 0.03635 0.0
C332 C 0.82208 0.86604 0.05305 0.0
C333 C 0.81586 0.90074 0.06571 0.0
C334 C 0.77614 0.91822 0.06201 0.0
C335 C 0.74249 0.90095 0.04571 0.0
C336 C 0.74859 0.86628 0.03296 0.0
C337 C 0.71787 0.65064 0.04059 0.0
C338 C 0.67095 0.65194 0.03645 0.0
C339 C 0.75008 0.67974 0.03216 0.0
C340 C 0.73594 0.71069 0.0195 0.0
C341 C 0.68927 0.71127 0.01449 0.0
C342 C 0.65704 0.68198 0.02274 0.0
C343 C 0.76933 0.74423 0.01372 0.0
C344 C 0.76306 0.78018 0.02489 0.0
C345 C 0.80883 0.74049 0.99925 0.0
C346 C 0.81671 0.70334 0.98659 0.0
C347 C 0.78326 0.68364 0.97081 0.0
C348 C 0.79079 0.64853 0.95906 0.0
C349 C 0.83177 0.63293 0.96282 0.0
C350 C 0.86535 0.65246 0.97829 0.0
C351 C 0.85798 0.68757 0.9901 0.0
H352 H 0.83753 0.60575 0.9537 0.0
H353 H 0.77141 0.94511 0.07181 0.0
H354 H 0.78035 0.09084 0.00835 0.0
H355 H 0.73885 0.14656 0.00259 0.0
H356 H 0.86586 0.22158 0.00479 0.0
H357 H 0.9078 0.16553 0.01081 0.0
H358 H 0.79575 0.2492 0.0344 0.0
H359 H 0.81729 0.20401 0.95132 0.0
H360 H 0.81645 0.15577 0.91678 0.0
H361 H 0.67102 0.12999 0.924 0.0
H362 H 0.67106 0.17768 0.95885 0.0
H363 H 0.68203 0.40712 0.99086 0.0
H364 H 0.73439 0.35922 0.99912 0.0
H365 H 0.62322 0.26796 0.98972 0.0
H366 H 0.57114 0.31562 0.98117 0.0
H367 H 0.6936 0.25303 0.96204 0.0
H368 H 0.67257 0.29465 0.04687 0.0
H369 H 0.67306 0.34202 0.0819 0.0
H370 H 0.81683 0.37424 0.07168 0.0
H371 H 0.81707 0.32739 0.03635 0.0
C372 C 0.79948 0.11918 0.00768 0.0
C373 C 0.84732 0.12383 0.01007 0.0
C374 C 0.77576 0.15097 0.00425 0.0
C375 C 0.7993 0.18816 0.00316 0.0
C376 C 0.8471 0.19308 0.00556 0.0
C377 C 0.871 0.16108 0.00878 0.0
C378 C 0.77337 0.22159 0.99959 0.0
C379 C 0.77401 0.25052 0.01838 0.0
C380 C 0.74448 0.22284 0.97889 0.0
C381 C 0.74425 0.19424 0.95784 0.0
C382 C 0.78517 0.18785 0.94568 0.0
C383 C 0.78483 0.16063 0.92602 0.0
C384 C 0.74372 0.13977 0.91823 0.0
C385 C 0.70285 0.14615 0.93006 0.0
C386 C 0.703 0.17331 0.94975 0.0
C387 C 0.66864 0.37691 0.99117 0.0
C388 C 0.6226 0.36503 0.98527 0.0
C389 C 0.69858 0.34954 0.99583 0.0
C390 C 0.68278 0.30993 0.99496 0.0
C391 C 0.63629 0.2983 0.99028 0.0
C392 C 0.60653 0.32554 0.98547 0.0
C393 C 0.71486 0.28025 0.99718 0.0
C394 C 0.71553 0.25201 0.97802 0.0
C395 C 0.74481 0.2797 0.01756 0.0
C396 C 0.74472 0.30783 0.03879 0.0
C397 C 0.70421 0.31207 0.05196 0.0
C398 C 0.70437 0.33878 0.07189 0.0
C399 C 0.74492 0.36121 0.07896 0.0
C400 C 0.78543 0.3569 0.06615 0.0
C401 C 0.78544 0.33026 0.04618 0.0
H402 H 0.74498 0.38187 0.09441 0.0
H403 H 0.74353 0.11872 0.90301 0.0
H404 H 0.5524 0.63025 0.54503 0.0
H405 H 0.60065 0.69207 0.54524 0.0
H406 H 0.68175 0.64869 0.48598 0.0
H407 H 0.63559 0.58587 0.48722 0.0
H408 H 0.73598 0.68664 0.51444 0.0
H409 H 0.59861 0.71729 0.47859 0.0
H410 H 0.51571 0.72007 0.47433 0.0
H411 H 0.5154 0.78903 0.54174 0.0
H412 H 0.59819 0.78621 0.54662 0.0
H413 H 0.84384 0.88208 0.50127 0.0
H414 H 0.79244 0.82366 0.49038 0.0
H415 H 0.7349 0.8251 0.56369 0.0
H416 H 0.78756 0.88152 0.57534 0.0
H417 H 0.66926 0.81103 0.52079 0.0
H418 H 0.809 0.77003 0.55631 0.0
H419 H 0.8925 0.76815 0.5567 0.0
H420 H 0.88701 0.72008 0.48238 0.0
H421 H 0.80351 0.72222 0.48146 0.0
C422 C 0.58062 0.63404 0.53212 0.0
C423 C 0.59044 0.60349 0.51614 0.0
C424 C 0.60791 0.6695 0.53201 0.0
C425 C 0.64429 0.67562 0.51515 0.0
C426 C 0.65394 0.6449 0.49914 0.0
C427 C 0.62758 0.60903 0.49983 0.0
C428 C 0.67333 0.71347 0.51497 0.0
C429 C 0.72111 0.71373 0.51526 0.0
C430 C 0.6544 0.74915 0.51602 0.0
C431 C 0.60462 0.75132 0.51304 0.0
C432 C 0.58083 0.73288 0.49258 0.0
C433 C 0.53385 0.73447 0.49005 0.0
C434 C 0.51029 0.75466 0.50777 0.0
C435 C 0.5337 0.7734 0.52803 0.0
C436 C 0.58068 0.77186 0.53067 0.0
C437 C 0.82048 0.86994 0.51516 0.0
C438 C 0.82008 0.88683 0.53923 0.0
C439 C 0.79084 0.83679 0.50879 0.0
C440 C 0.75987 0.82037 0.52623 0.0
C441 C 0.75825 0.83772 0.54991 0.0
C442 C 0.78833 0.87027 0.55645 0.0
C443 C 0.73106 0.78361 0.52068 0.0
C444 C 0.68356 0.7837 0.51939 0.0
C445 C 0.75015 0.74835 0.51799 0.0
C446 C 0.80018 0.74672 0.51871 0.0
C447 C 0.82568 0.75938 0.53999 0.0
C448 C 0.87298 0.75821 0.54032 0.0
C449 C 0.89507 0.74412 0.51955 0.0
C450 C 0.86988 0.73106 0.49844 0.0
C451 C 0.82258 0.73223 0.498 0.0
H452 H 0.93169 0.74324 0.51984 0.0
H453 H 0.47391 0.75582 0.50579 0.0
H454 H 0.73783 0.41839 0.50951 0.0
H455 H 0.77854 0.36128 0.51098 0.0
H456 H 0.65026 0.2881 0.50575 0.0
H457 H 0.60927 0.34564 0.50496 0.0
H458 H 0.7073 0.25752 0.53569 0.0
H459 H 0.71704 0.30668 0.45438 0.0
H460 H 0.73267 0.35585 0.42294 0.0
H461 H 0.87379 0.37347 0.44477 0.0
H462 H 0.85885 0.32477 0.47661 0.0
H463 H 0.80175 0.09216 0.48107 0.0
H464 H 0.75888 0.14667 0.49186 0.0
H465 H 0.88541 0.21927 0.50588 0.0
H466 H 0.92845 0.16489 0.49505 0.0
H467 H 0.82864 0.24922 0.47247 0.0
H468 H 0.81681 0.19526 0.55291 0.0
H469 H 0.79847 0.14381 0.58257 0.0
H470 H 0.65787 0.13185 0.5598 0.0
H471 H 0.67549 0.18287 0.52971 0.0
C472 C 0.71833 0.39012 0.50887 0.0
C473 C 0.67048 0.38639 0.50679 0.0
C474 C 0.74159 0.35748 0.50968 0.0
C475 C 0.7176 0.32029 0.50785 0.0
C476 C 0.66956 0.31646 0.50705 0.0
C477 C 0.64615 0.34929 0.50661 0.0
C478 C 0.74299 0.28577 0.50536 0.0
C479 C 0.73348 0.25551 0.5217 0.0
C480 C 0.77754 0.28319 0.48726 0.0
C481 C 0.78672 0.31235 0.46804 0.0
C482 C 0.75134 0.32124 0.4526 0.0
C483 C 0.76008 0.349 0.43469 0.0
C484 C 0.80417 0.36784 0.43191 0.0
C485 C 0.83964 0.35889 0.44698 0.0
C486 C 0.83106 0.33119 0.46495 0.0
C487 C 0.82036 0.11959 0.48686 0.0
C488 C 0.86846 0.12429 0.48716 0.0
C489 C 0.79584 0.15065 0.49313 0.0
C490 C 0.81895 0.18703 0.49969 0.0
C491 C 0.86691 0.19141 0.50091 0.0
C492 C 0.89144 0.16026 0.4949 0.0
C493 C 0.79341 0.22124 0.50298 0.0
C494 C 0.80269 0.25135 0.4866 0.0
C495 C 0.75828 0.22326 0.52076 0.0
C496 C 0.74758 0.19265 0.53888 0.0
C497 C 0.78206 0.18143 0.55406 0.0
C498 C 0.77177 0.15239 0.57099 0.0
C499 C 0.72706 0.1345 0.57302 0.0
C500 C 0.6925 0.1457 0.55818 0.0
C501 C 0.70261 0.17471 0.5412 0.0
H502 H 0.71916 0.11203 0.58614 0.0
H503 H 0.81087 0.38933 0.41803 0.0
H504 H 0.48156 0.36467 0.49617 0.0
H505 H 0.42893 0.30452 0.49577 0.0
H506 H 0.32123 0.36788 0.52414 0.0
H507 H 0.37279 0.42757 0.52438 0.0
H508 H 0.33337 0.30157 0.55027 0.0
H509 H 0.3194 0.34275 0.46647 0.0
H510 H 0.34957 0.3609 0.42549 0.0
H511 H 0.3954 0.24899 0.41419 0.0
H512 H 0.36627 0.23043 0.45541 0.0
H513 H 0.12214 0.20068 0.53892 0.0
H514 H 0.18543 0.24777 0.52693 0.0
H515 H 0.26362 0.15527 0.50407 0.0
H516 H 0.1996 0.10772 0.51588 0.0
H517 H 0.277 0.22709 0.47429 0.0
H518 H 0.28343 0.18447 0.55764 0.0
H519 H 0.25006 0.16771 0.59822 0.0
H520 H 0.21763 0.28393 0.61021 0.0
H521 H 0.25001 0.30119 0.56946 0.0
C522 C 0.44661 0.36567 0.50226 0.0
C523 C 0.43131 0.40083 0.5103 0.0
C524 C 0.41666 0.3314 0.50194 0.0
C525 C 0.3713 0.33191 0.50992 0.0
C526 C 0.35615 0.36694 0.51796 0.0
C527 C 0.38569 0.40105 0.518 0.0
C528 C 0.33917 0.29616 0.51065 0.0
C529 C 0.32118 0.28523 0.53367 0.0
C530 C 0.32412 0.27441 0.489 0.0
C531 C 0.34124 0.28539 0.46416 0.0
C532 C 0.33634 0.32214 0.45536 0.0
C533 C 0.35316 0.33248 0.43206 0.0
C534 C 0.3745 0.30616 0.41725 0.0
C535 C 0.37895 0.26939 0.42571 0.0
C536 C 0.3623 0.25894 0.44904 0.0
C537 C 0.15233 0.19043 0.53067 0.0
C538 C 0.15642 0.15076 0.52854 0.0
C539 C 0.18836 0.21727 0.5238 0.0
C540 C 0.22933 0.20491 0.51498 0.0
C541 C 0.23219 0.16527 0.51083 0.0
C542 C 0.19576 0.13823 0.51758 0.0
C543 C 0.27048 0.23337 0.51386 0.0
C544 C 0.29011 0.24287 0.49091 0.0
C545 C 0.28724 0.25401 0.53558 0.0
C546 C 0.26891 0.24404 0.56042 0.0
C547 C 0.26895 0.20639 0.56887 0.0
C548 C 0.25021 0.1968 0.5919 0.0
C549 C 0.23169 0.22473 0.60677 0.0
C550 C 0.23199 0.26233 0.59867 0.0
C551 C 0.25057 0.27204 0.57561 0.0
H552 H 0.21715 0.21724 0.62459 0.0
H553 H 0.38748 0.31423 0.39921 0.0
H554 H 0.33564 0.62645 0.55886 0.0
H555 H 0.29561 0.68264 0.55163 0.0
H556 H 0.33307 0.67704 0.47449 0.0
H557 H 0.37447 0.62142 0.48194 0.0
H558 H 0.34031 0.74874 0.48977 0.0
H559 H 0.22342 0.64197 0.49667 0.0
H560 H 0.18122 0.58594 0.51628 0.0
H561 H 0.15021 0.65841 0.57857 0.0
H562 H 0.19275 0.7148 0.55946 0.0
H563 H 0.16918 0.84971 0.43968 0.0
H564 H 0.21519 0.79983 0.45182 0.0
H565 H 0.19183 0.82838 0.52868 0.0
H566 H 0.14666 0.87966 0.5167 0.0
H567 H 0.17861 0.74803 0.51611 0.0
H568 H 0.2924 0.85618 0.50596 0.0
H569 H 0.33221 0.91094 0.48404 0.0
H570 H 0.36625 0.83369 0.42493 0.0
H571 H 0.32604 0.7785 0.44632 0.0
C572 C 0.33523 0.63719 0.54036 0.0
C573 C 0.35774 0.61935 0.52089 0.0
C574 C 0.31226 0.66927 0.53622 0.0
C575 C 0.31035 0.68366 0.51239 0.0
C576 C 0.33387 0.66646 0.49303 0.0
C577 C 0.35752 0.6347 0.49727 0.0
C578 C 0.28352 0.71633 0.50759 0.0
C579 C 0.30482 0.74832 0.49531 0.0
C580 C 0.2374 0.71635 0.51527 0.0
C581 C 0.21168 0.68251 0.52675 0.0
C582 C 0.20788 0.6459 0.51463 0.0
C583 C 0.18386 0.61409 0.52564 0.0
C584 C 0.16316 0.61859 0.54869 0.0
C585 C 0.16632 0.65495 0.56074 0.0
C586 C 0.19036 0.68685 0.54982 0.0
C587 C 0.17438 0.84605 0.45921 0.0
C588 C 0.15464 0.86927 0.4772 0.0
C589 C 0.20054 0.81727 0.4661 0.0
C590 C 0.2074 0.81073 0.49113 0.0
C591 C 0.18704 0.8331 0.50923 0.0
C592 C 0.16108 0.86227 0.50234 0.0
C593 C 0.23535 0.78001 0.49814 0.0
C594 C 0.21422 0.74845 0.51078 0.0
C595 C 0.28137 0.78012 0.49049 0.0
C596 C 0.30587 0.81324 0.47766 0.0
C597 C 0.30807 0.8509 0.4882 0.0
C598 C 0.33076 0.88201 0.47588 0.0
C599 C 0.35167 0.87581 0.45308 0.0
C600 C 0.35002 0.83845 0.44258 0.0
C601 C 0.32732 0.80724 0.45481 0.0
H602 H 0.36922 0.89994 0.44358 0.0
H603 H 0.14457 0.59393 0.55718 0.0
H604 H 0.08041 0.98405 0.08484 0.0
H605 H 0.08075 0.98063 0.12994 0.0
H606 H 0.94287 0.01141 0.13271 0.0
H607 H 0.94289 0.01611 0.08783 0.0
H608 H 0.99152 0.05121 0.16665 0.0
H609 H 0.96951 0.91699 0.14103 0.0
H610 H 0.98773 0.85828 0.11802 0.0
H611 H 0.11745 0.86574 0.15495 0.0
H612 H 0.10024 0.92481 0.17796 0.0
H613 H 0.93736 0.00047 0.28994 0.0
H614 H 0.93919 0.00094 0.24479 0.0
H615 H 0.08217 0.98468 0.24549 0.0
H616 H 0.08101 0.98507 0.29067 0.0
H617 H 0.0328 0.93731 0.21016 0.0
H618 H 0.05321 0.07161 0.23598 0.0
H619 H 0.03381 0.13006 0.25883 0.0
H620 H 0.90466 0.12133 0.22122 0.0
H621 H 0.92302 0.06247 0.19839 0.0
C622 C 0.05012 0.98991 0.09508 0.0
C623 C 0.01166 0.00039 0.08279 0.0
C624 C 0.05026 0.98778 0.12085 0.0
C625 C 0.01163 0.99535 0.13475 0.0
C626 C 0.97311 0.00552 0.12243 0.0
C627 C 0.97315 0.00812 0.09675 0.0
C628 C 0.01155 0.99378 0.16218 0.0
C629 C 0.99992 0.02604 0.17611 0.0
C630 C 0.02359 0.96135 0.17461 0.0
C631 C 0.03376 0.92554 0.16104 0.0
C632 C 0.00204 0.90625 0.14413 0.0
C633 C 0.01217 0.87289 0.1311 0.0
C634 C 0.05378 0.85835 0.13496 0.0
C635 C 0.08526 0.87707 0.15195 0.0
C636 C 0.07531 0.91046 0.16501 0.0
C637 C 0.96935 0.99739 0.28055 0.0
C638 C 0.00909 0.99291 0.29401 0.0
C639 C 0.97026 0.99745 0.25472 0.0
C640 C 0.0109 0.99307 0.24181 0.0
C641 C 0.05042 0.98795 0.2551 0.0
C642 C 0.04961 0.98806 0.28094 0.0
C643 C 0.0123 0.99452 0.21445 0.0
C644 C 0.02432 0.96236 0.2006 0.0
C645 C 1.00033 0.02691 0.20204 0.0
C646 C 0.98931 0.06241 0.21566 0.0
C647 C 0.02052 0.08197 0.23273 0.0
C648 C 0.00974 0.11521 0.24565 0.0
C649 C 0.96798 0.12934 0.24153 0.0
C650 C 0.93697 0.11032 0.22442 0.0
C651 C 0.94756 0.07704 0.21147 0.0
H652 H 0.9597 0.15508 0.25155 0.0
H653 H 0.0616 0.83256 0.12483 0.0
H654 H 0.07255 0.00522 0.9292 0.0
H655 H 0.06956 0.00916 0.88419 0.0
H656 H 0.93467 0.04566 0.88966 0.0
H657 H 0.93742 0.04205 0.93472 0.0
H658 H 0.94164 0.98653 0.85372 0.0
H659 H 0.01975 0.11062 0.87755 0.0
H660 H 0.0789 0.15594 0.8984 0.0
H661 H 0.18349 0.10503 0.85745 0.0
H662 H 0.12481 0.05898 0.83653 0.0
H663 H 0.92182 0.04334 0.73008 0.0
H664 H 0.92447 0.04193 0.77521 0.0
H665 H 0.06546 0.01935 0.77152 0.0
H666 H 0.06311 0.02109 0.7264 0.0
H667 H 0.05491 0.07171 0.8069 0.0
H668 H 0.97828 0.9474 0.7831 0.0
H669 H 0.91989 0.90131 0.76208 0.0
H670 H 0.81404 0.95054 0.80297 0.0
H671 H 0.87179 0.9973 0.824 0.0
C672 C 0.04229 0.0142 0.92084 0.0
C673 C 0.00522 0.02335 0.93552 0.0
C674 C 0.04071 0.01654 0.89514 0.0
C675 C 0.00197 0.02785 0.88364 0.0
C676 C 0.96486 0.03687 0.89821 0.0
C677 C 0.96659 0.03494 0.92394 0.0
C678 C 0.99996 0.02969 0.85635 0.0
C679 C 0.96597 0.00552 0.84346 0.0
C680 C 0.03251 0.05371 0.84301 0.0
C681 C 0.06792 0.08111 0.85567 0.0
C682 C 0.05538 0.10884 0.87316 0.0
C683 C 0.08885 0.13473 0.88495 0.0
C684 C 0.13499 0.13335 0.87931 0.0
C685 C 0.14774 0.10605 0.86183 0.0
C686 C 0.11439 0.08007 0.84998 0.0
C687 C 0.95328 0.03784 0.7389 0.0
C688 C 0.99222 0.03223 0.72469 0.0
C689 C 0.95476 0.03701 0.76468 0.0
C690 C 0.995 0.03002 0.77676 0.0
C691 C 0.03405 0.02481 0.76262 0.0
C692 C 0.03269 0.0259 0.73685 0.0
C693 C 0.99655 0.02848 0.80414 0.0
C694 C 0.03051 0.05267 0.81708 0.0
C695 C 0.96414 0.00423 0.81752 0.0
C696 C 0.92933 0.97611 0.80493 0.0
C697 C 0.94252 0.9486 0.78746 0.0
C698 C 0.90955 0.92232 0.77557 0.0
C699 C 0.86328 0.92307 0.78114 0.0
C700 C 0.84989 0.95004 0.79865 0.0
C701 C 0.88273 0.97642 0.81058 0.0
H702 H 0.8378 0.90269 0.77192 0.0
H703 H 0.16087 0.15349 0.8884 0.0
H704 H 0.59753 0.50807 0.58905 0.0
H705 H 0.59994 0.50891 0.63437 0.0
H706 H 0.45496 0.47134 0.63592 0.0
H707 H 0.45221 0.47357 0.59092 0.0
H708 H 0.46882 0.52307 0.66804 0.0
H709 H 0.54638 0.41177 0.64937 0.0
H710 H 0.60456 0.37478 0.63002 0.0
H711 H 0.71101 0.44987 0.66686 0.0
H712 H 0.65346 0.48762 0.68619 0.0
H713 H 0.45976 0.4533 0.79168 0.0
H714 H 0.46625 0.45213 0.7464 0.0
H715 H 0.57809 0.54327 0.75162 0.0
H716 H 0.57092 0.54529 0.79695 0.0
H717 H 0.58447 0.4666 0.71744 0.0
H718 H 0.49936 0.5768 0.73589 0.0
H719 H 0.43656 0.60713 0.75615 0.0
H720 H 0.33821 0.52362 0.71973 0.0
H721 H 0.40054 0.49242 0.69957 0.0
C722 C 0.56643 0.49965 0.5992 0.0
C723 C 0.52471 0.49075 0.58669 0.0
C724 C 0.56778 0.4999 0.62508 0.0
C725 C 0.5277 0.48975 0.63876 0.0
C726 C 0.48634 0.47959 0.62597 0.0
C727 C 0.48477 0.48062 0.60025 0.0
C728 C 0.5279 0.49154 0.66634 0.0
C729 C 0.49394 0.51021 0.67867 0.0
C730 C 0.56098 0.47548 0.68054 0.0
C731 C 0.59563 0.45275 0.66902 0.0
C732 C 0.58221 0.42055 0.65321 0.0
C733 C 0.61507 0.39943 0.64227 0.0
C734 C 0.66146 0.41003 0.64716 0.0
C735 C 0.67507 0.44172 0.66306 0.0
C736 C 0.64235 0.46297 0.67403 0.0
C737 C 0.48574 0.473 0.78312 0.0
C738 C 0.51475 0.49948 0.79766 0.0
C739 C 0.48943 0.47228 0.75736 0.0
C740 C 0.52272 0.49753 0.74583 0.0
C741 C 0.55233 0.52352 0.7603 0.0
C742 C 0.54801 0.52482 0.78606 0.0
C743 C 0.52533 0.49754 0.71857 0.0
C744 C 0.55969 0.47933 0.70649 0.0
C745 C 0.49203 0.51307 0.70453 0.0
C746 C 0.4546 0.53205 0.71646 0.0
C747 C 0.46437 0.56468 0.73241 0.0
C748 C 0.42885 0.58208 0.74382 0.0
C749 C 0.38342 0.56725 0.73928 0.0
C750 C 0.37341 0.53505 0.72326 0.0
C751 C 0.40881 0.51752 0.71182 0.0
H752 H 0.35597 0.58075 0.74814 0.0
H753 H 0.68685 0.39365 0.63867 0.0
H754 H 0.43083 0.53085 0.4416 0.0
H755 H 0.42608 0.53845 0.39681 0.0
H756 H 0.56223 0.50562 0.38802 0.0
H757 H 0.56711 0.4975 0.43255 0.0
H758 H 0.54642 0.57316 0.36303 0.0
H759 H 0.47785 0.44202 0.37341 0.0
H760 H 0.42253 0.39153 0.39063 0.0
H761 H 0.31146 0.44502 0.36077 0.0
H762 H 0.36612 0.49622 0.34371 0.0
H763 H 0.566 0.53149 0.23522 0.0
H764 H 0.56377 0.53041 0.28032 0.0
H765 H 0.42007 0.5445 0.27926 0.0
H766 H 0.42203 0.54511 0.23402 0.0
H767 H 0.4349 0.49057 0.30996 0.0
H768 H 0.50116 0.61947 0.2976 0.0
H769 H 0.55476 0.67125 0.28047 0.0
H770 H 0.66744 0.6251 0.31434 0.0
H771 H 0.61459 0.57268 0.33139 0.0
C772 C 0.4597 0.52521 0.4301 0.0
C773 C 0.49928 0.51345 0.44056 0.0
C774 C 0.45689 0.52949 0.40456 0.0
C775 C 0.49378 0.52249 0.38919 0.0
C776 C 0.53344 0.51117 0.39962 0.0
C777 C 0.53606 0.50639 0.42504 0.0
C778 C 0.49136 0.52693 0.36217 0.0
C779 C 0.52233 0.55494 0.35134 0.0
C780 C 0.45892 0.5039 0.34717 0.0
C781 C 0.42606 0.47322 0.35753 0.0
C782 C 0.44161 0.44326 0.37074 0.0
C783 C 0.41038 0.41446 0.38043 0.0
C784 C 0.36351 0.41512 0.37684 0.0
C785 C 0.34778 0.44458 0.36356 0.0
C786 C 0.37886 0.47349 0.35388 0.0
C787 C 0.53407 0.53485 0.24461 0.0
C788 C 0.49423 0.53852 0.2311 0.0
C789 C 0.53282 0.53424 0.2704 0.0
C790 C 0.49186 0.53787 0.28322 0.0
C791 C 0.45204 0.54165 0.26976 0.0
C792 C 0.45319 0.54196 0.24394 0.0
C793 C 0.49047 0.53655 0.31061 0.0
C794 C 0.45876 0.50913 0.32157 0.0
C795 C 0.52197 0.56041 0.32579 0.0
C796 C 0.55392 0.59194 0.3156 0.0
C797 C 0.53741 0.62018 0.30124 0.0
C798 C 0.56765 0.64968 0.29157 0.0
C799 C 0.61448 0.65141 0.29627 0.0
C800 C 0.63116 0.6237 0.3107 0.0
C801 C 0.60106 0.59411 0.32039 0.0
H802 H 0.63784 0.67428 0.28877 0.0
H803 H 0.33938 0.39274 0.38427 0.0
loop_
_geom_bond_atom_site_label_1
_geom_bond_atom_site_label_2
_geom_bond_distance
_geom_bond_site_symmetry_2
_ccdc_geom_bond_type
Co0 N5 2.057 . S
Co0 O17 2.021 . S
Co0 O20 2.062 1_455 S
Co0 O24 2.117 1_554 S
Co0 O25 2.020 1_565 S
C1 O21 1.259 1_455 S
C1 O24 1.258 1_545 S
Co2 N11 2.057 . S
Co2 O18 2.117 . S
Co2 O19 2.020 1_545 S
Co2 O21 2.021 1_554 S
Co2 O26 2.062 1_655 S
C3 N5 1.316 . S
C3 N6 1.347 . S
C3 H8 0.931 . S
C4 N5 1.375 1_556 S
C4 C7 1.350 . S
C4 H9 0.930 . S
N5 Co0 2.057 . S
N5 C3 1.316 . S
N5 C4 1.375 1_554 S
N6 C3 1.347 . S
N6 C7 1.373 1_554 S
C7 C4 1.350 . S
C7 N6 1.373 1_556 S
C7 H28 0.931 . S
H8 C3 0.931 . S
H9 C4 0.930 . S
C10 O17 1.259 1_545 S
C10 O18 1.258 1_455 S
N11 Co2 2.057 . S
N11 C12 1.316 . S
N11 C13 1.375 . S
C12 N11 1.316 . S
C12 N14 1.347 . S
C12 H23 0.931 1_554 S
C13 N11 1.375 . S
C13 C15 1.350 . S
C13 H22 0.930 . S
N14 C12 1.347 . S
N14 C15 1.373 . S
C15 C13 1.350 . S
C15 N14 1.373 . S
C15 H29 0.931 . S
C16 O19 1.256 . S
C16 O20 1.255 . S
O17 Co0 2.021 . S
O17 C10 1.259 1_565 S
O18 Co2 2.117 . S
O18 C10 1.258 1_655 S
O19 Co2 2.020 1_565 S
O19 C16 1.256 . S
O20 Co0 2.062 1_655 S
O20 C16 1.255 . S
O21 C1 1.259 1_655 S
O21 Co2 2.021 1_556 S
H22 C13 0.930 . S
H23 C12 0.931 1_556 S
O24 Co0 2.117 1_556 S
O24 C1 1.258 1_565 S
O25 Co0 2.020 1_545 S
O25 C27 1.256 . S
O26 Co2 2.062 1_455 S
O26 C27 1.255 . S
C27 O25 1.256 . S
C27 O26 1.255 . S
H28 C7 0.931 . S
H29 C15 0.931 . S
Co30 N35 2.057 . S
Co30 O47 2.021 . S
Co30 O50 2.062 . S
Co30 O54 2.117 . S
Co30 O55 2.020 . S
C31 O51 1.259 . S
C31 O54 1.258 . S
Co32 N41 2.057 . S
Co32 O48 2.117 . S
Co32 O49 2.020 . S
Co32 O51 2.021 . S
Co32 O56 2.062 . S
C33 N35 1.316 . S
C33 N36 1.347 . S
C33 H38 0.931 . S
C34 N35 1.375 . S
C34 C37 1.350 . S
C34 H39 0.930 . S
N35 Co30 2.057 . S
N35 C33 1.316 . S
N35 C34 1.375 . S
N36 C33 1.347 . S
N36 C37 1.373 . S
C37 C34 1.350 . S
C37 N36 1.373 . S
C37 H58 0.931 . S
H38 C33 0.931 . S
H39 C34 0.930 . S
C40 O47 1.259 . S
C40 O48 1.258 . S
N41 Co32 2.057 . S
N41 C42 1.316 . S
N41 C43 1.375 . S
C42 N41 1.316 . S
C42 N44 1.347 . S
C42 H53 0.931 . S
C43 N41 1.375 . S
C43 C45 1.350 . S
C43 H52 0.930 . S
N44 C42 1.347 . S
N44 C45 1.373 . S
C45 C43 1.350 . S
C45 N44 1.373 . S
C45 H59 0.931 . S
C46 O49 1.256 . S
C46 O50 1.255 . S
O47 Co30 2.021 . S
O47 C40 1.259 . S
O48 Co32 2.117 . S
O48 C40 1.258 . S
O49 Co32 2.020 . S
O49 C46 1.256 . S
O50 Co30 2.062 . S
O50 C46 1.255 . S
O51 C31 1.259 . S
O51 Co32 2.021 . S
H52 C43 0.930 . S
H53 C42 0.931 . S
O54 Co30 2.117 . S
O54 C31 1.258 . S
O55 Co30 2.020 . S
O55 C57 1.256 . S
O56 Co32 2.062 . S
O56 C57 1.255 . S
C57 O55 1.256 . S
C57 O56 1.255 . S
H58 C37 0.931 . S
H59 C45 0.931 . S
C60 C61 1.384 . S
C60 H73 0.947 . S
C60 C95 1.382 . S
C61 C60 1.384 . S
C61 C62 1.378 . S
C62 C61 1.378 . S
C62 C63 1.378 . S
C62 H74 0.952 . S
C63 C62 1.378 . S
C63 H75 0.950 . S
C63 C94 1.383 . S
H64 C83 0.947 . S
H65 C84 0.946 . S
H66 C86 0.953 . S
H67 C87 0.945 . S
H68 C89 0.952 . S
H69 C90 0.949 . S
H70 C92 0.950 . S
H71 C93 0.948 . S
H72 C95 0.951 . S
H73 C60 0.947 . S
H74 C62 0.952 . S
H75 C63 0.950 . S
N76 C79 1.382 1_545 S
N76 C81 1.363 1_455 S
N77 C79 1.371 . S
N77 C80 1.372 1_565 S
N78 C80 1.361 1_655 S
N78 C81 1.377 . S
C79 N76 1.382 1_565 S
C79 N77 1.371 . S
C79 C82 1.480 . S
C80 N77 1.372 1_545 S
C80 N78 1.361 1_455 S
C80 C88 1.457 . S
C81 N76 1.363 1_655 S
C81 N78 1.377 . S
C81 C94 1.479 . S
C82 C79 1.480 . S
C82 C83 1.383 . S
C82 C87 1.385 . S
C83 H64 0.947 . S
C83 C82 1.383 . S
C83 C84 1.388 . S
C84 H65 0.946 . S
C84 C83 1.388 . S
C84 C85 1.384 . S
C85 C84 1.384 . S
C85 C86 1.377 . S
C86 H66 0.953 . S
C86 C85 1.377 . S
C86 C87 1.369 . S
C87 H67 0.945 . S
C87 C82 1.385 . S
C87 C86 1.369 . S
C88 C80 1.457 . S
C88 C89 1.372 1_545 S
C88 C93 1.364 1_455 S
C89 H68 0.952 . S
C89 C88 1.372 1_565 S
C89 C90 1.389 . S
C90 H69 0.949 . S
C90 C89 1.389 . S
C90 C91 1.387 1_565 S
C91 C90 1.387 1_545 S
C91 C92 1.372 1_455 S
C92 H70 0.950 . S
C92 C91 1.372 1_655 S
C92 C93 1.379 . S
C93 H71 0.948 . S
C93 C88 1.364 1_655 S
C93 C92 1.379 . S
C94 C63 1.383 . S
C94 C81 1.479 . S
C94 C95 1.398 . S
C95 C60 1.382 . S
C95 H72 0.951 . S
C95 C94 1.398 . S
C96 C97 1.384 . S
C96 H109 0.947 . S
C96 C131 1.382 . S
C97 C96 1.384 . S
C97 C98 1.378 . S
C98 C97 1.378 . S
C98 C99 1.378 . S
C98 H110 0.952 . S
C99 C98 1.378 . S
C99 H111 0.950 . S
C99 C130 1.383 . S
H100 C119 0.947 . S
H101 C120 0.946 . S
H102 C122 0.953 . S
H103 C123 0.945 . S
H104 C125 0.952 . S
H105 C126 0.949 . S
H106 C128 0.950 . S
H107 C129 0.948 . S
H108 C131 0.951 . S
H109 C96 0.947 . S
H110 C98 0.952 . S
H111 C99 0.950 . S
N112 C115 1.382 . S
N112 C117 1.363 1_445 S
N113 C115 1.371 . S
N113 C116 1.372 . S
N114 C116 1.361 1_665 S
N114 C117 1.377 . S
C115 N112 1.382 . S
C115 N113 1.371 . S
C115 C118 1.480 . S
C116 N113 1.372 . S
C116 N114 1.361 1_445 S
C116 C124 1.457 . S
C117 N112 1.363 1_665 S
C117 N114 1.377 . S
C117 C130 1.479 . S
C118 C115 1.480 . S
C118 C119 1.383 . S
C118 C123 1.385 . S
C119 H100 0.947 . S
C119 C118 1.383 . S
C119 C120 1.388 . S
C120 H101 0.946 . S
C120 C119 1.388 . S
C120 C121 1.384 . S
C121 C120 1.384 . S
C121 C122 1.377 . S
C122 H102 0.953 . S
C122 C121 1.377 . S
C122 C123 1.369 . S
C123 H103 0.945 . S
C123 C118 1.385 . S
C123 C122 1.369 . S
C124 C116 1.457 . S
C124 C125 1.372 . S
C124 C129 1.364 1_445 S
C125 H104 0.952 . S
C125 C124 1.372 . S
C125 C126 1.389 . S
C126 H105 0.949 . S
C126 C125 1.389 . S
C126 C127 1.387 . S
C127 C126 1.387 . S
C127 C128 1.372 1_445 S
C128 H106 0.950 . S
C128 C127 1.372 1_665 S
C128 C129 1.379 . S
C129 H107 0.948 . S
C129 C124 1.364 1_665 S
C129 C128 1.379 . S
C130 C99 1.383 . S
C130 C117 1.479 . S
C130 C131 1.398 . S
C131 C96 1.382 . S
C131 H108 0.951 . S
C131 C130 1.398 . S
C132 C133 1.384 . S
C132 H145 0.947 . S
C132 C167 1.382 . S
C133 C132 1.384 . S
C133 C134 1.378 . S
C134 C133 1.378 . S
C134 C135 1.378 . S
C134 H146 0.952 1_556 S
C135 C134 1.378 . S
C135 H147 0.950 . S
C135 C166 1.383 . S
H136 C155 0.947 . S
H137 C156 0.946 1_554 S
H138 C158 0.953 . S
H139 C159 0.945 . S
H140 C161 0.952 . S
H141 C162 0.949 . S
H142 C164 0.950 . S
H143 C165 0.948 . S
H144 C167 0.951 . S
H145 C132 0.947 . S
H146 C134 0.952 1_554 S
H147 C135 0.950 . S
N148 C151 1.382 . S
N148 C153 1.363 . S
N149 C151 1.371 . S
N149 C152 1.372 . S
N150 C152 1.361 . S
N150 C153 1.377 . S
C151 N148 1.382 . S
C151 N149 1.371 . S
C151 C154 1.480 . S
C152 N149 1.372 . S
C152 N150 1.361 . S
C152 C160 1.457 . S
C153 N148 1.363 . S
C153 N150 1.377 . S
C153 C166 1.479 . S
C154 C151 1.480 . S
C154 C155 1.383 . S
C154 C159 1.385 . S
C155 H136 0.947 . S
C155 C154 1.383 . S
C155 C156 1.388 . S
C156 H137 0.946 1_556 S
C156 C155 1.388 . S
C156 C157 1.384 . S
C157 C156 1.384 . S
C157 C158 1.377 . S
C158 H138 0.953 . S
C158 C157 1.377 . S
C158 C159 1.369 . S
C159 H139 0.945 . S
C159 C154 1.385 . S
C159 C158 1.369 . S
C160 C152 1.457 . S
C160 C161 1.372 . S
C160 C165 1.364 . S
C161 H140 0.952 . S
C161 C160 1.372 . S
C161 C162 1.389 . S
C162 H141 0.949 . S
C162 C161 1.389 . S
C162 C163 1.387 . S
C163 C162 1.387 . S
C163 C164 1.372 . S
C164 H142 0.950 . S
C164 C163 1.372 . S
C164 C165 1.379 . S
C165 H143 0.948 . S
C165 C160 1.364 . S
C165 C164 1.379 . S
C166 C135 1.383 . S
C166 C153 1.479 . S
C166 C167 1.398 . S
C167 C132 1.382 . S
C167 H144 0.951 . S
C167 C166 1.398 . S
C168 C169 1.384 . S
C168 H181 0.947 . S
C168 C203 1.382 . S
C169 C168 1.384 . S
C169 C170 1.378 . S
C170 C169 1.378 . S
C170 C171 1.378 . S
C170 H182 0.952 . S
C171 C170 1.378 . S
C171 H183 0.950 . S
C171 C202 1.383 . S
H172 C191 0.947 . S
H173 C192 0.946 . S
H174 C194 0.953 . S
H175 C195 0.945 . S
H176 C197 0.952 . S
H177 C198 0.949 . S
H178 C200 0.950 . S
H179 C201 0.948 . S
H180 C203 0.951 . S
H181 C168 0.947 . S
H182 C170 0.952 . S
H183 C171 0.950 . S
N184 C187 1.382 . S
N184 C189 1.363 . S
N185 C187 1.371 . S
N185 C188 1.372 . S
N186 C188 1.361 . S
N186 C189 1.377 . S
C187 N184 1.382 . S
C187 N185 1.371 . S
C187 C190 1.480 . S
C188 N185 1.372 . S
C188 N186 1.361 . S
C188 C196 1.457 . S
C189 N184 1.363 . S
C189 N186 1.377 . S
C189 C202 1.479 . S
C190 C187 1.480 . S
C190 C191 1.383 . S
C190 C195 1.385 . S
C191 H172 0.947 . S
C191 C190 1.383 . S
C191 C192 1.388 . S
C192 H173 0.946 . S
C192 C191 1.388 . S
C192 C193 1.384 . S
C193 C192 1.384 . S
C193 C194 1.377 . S
C194 H174 0.953 . S
C194 C193 1.377 . S
C194 C195 1.369 . S
C195 H175 0.945 . S
C195 C190 1.385 . S
C195 C194 1.369 . S
C196 C188 1.457 . S
C196 C197 1.372 . S
C196 C201 1.364 . S
C197 H176 0.952 . S
C197 C196 1.372 . S
C197 C198 1.389 . S
C198 H177 0.949 . S
C198 C197 1.389 . S
C198 C199 1.387 . S
C199 C198 1.387 . S
C199 C200 1.372 . S
C200 H178 0.950 . S
C200 C199 1.372 . S
C200 C201 1.379 . S
C201 H179 0.948 . S
C201 C196 1.364 . S
C201 C200 1.379 . S
C202 C171 1.383 . S
C202 C189 1.479 . S
C202 C203 1.398 . S
C203 C168 1.382 . S
C203 H180 0.951 . S
C203 C202 1.398 . S
H204 C222 0.951 1_556 S
H205 C224 0.951 . S
H206 C226 0.950 . S
H207 C227 0.950 . S
H208 C229 0.950 . S
H209 C232 0.950 . S
H210 C233 0.950 . S
H211 C235 0.950 . S
H212 C236 0.950 . S
H213 C237 0.951 . S
H214 C239 0.951 . S
H215 C241 0.950 . S
H216 C242 0.950 . S
H217 C244 0.950 1_556 S
H218 C247 0.950 . S
H219 C248 0.950 . S
H220 C250 0.950 . S
H221 C251 0.950 . S
C222 H204 0.951 1_554 S
C222 C223 1.366 . S
C222 C224 1.388 . S
C223 C222 1.366 . S
C223 C227 1.385 . S
C224 H205 0.951 . S
C224 C222 1.388 . S
C224 C225 1.366 . S
C225 C224 1.366 . S
C225 C226 1.414 . S
C225 C228 1.499 . S
C226 H206 0.950 . S
C226 C225 1.414 . S
C226 C227 1.374 . S
C227 H207 0.950 . S
C227 C223 1.385 . S
C227 C226 1.374 . S
C228 C225 1.499 . S
C228 C229 1.373 . S
C228 C230 1.389 . S
C229 H208 0.950 . S
C229 C228 1.373 . S
C229 C245 1.377 . S
C230 C228 1.389 . S
C230 C231 1.524 1_554 S
C230 C244 1.377 . S
C231 C230 1.524 1_556 S
C231 C232 1.397 . S
C231 C236 1.363 . S
C232 H209 0.950 . S
C232 C231 1.397 . S
C232 C233 1.334 . S
C233 H210 0.950 . S
C233 C232 1.334 . S
C233 C234 1.287 . S
C234 C233 1.287 . S
C234 C235 1.524 . S
C234 H253 0.913 . S
C235 H211 0.950 . S
C235 C234 1.524 . S
C235 C236 1.415 . S
C236 H212 0.950 . S
C236 C231 1.363 . S
C236 C235 1.415 . S
C237 H213 0.951 . S
C237 C238 1.366 . S
C237 C239 1.388 . S
C238 C237 1.366 . S
C238 C242 1.385 . S
C239 H214 0.951 . S
C239 C237 1.388 . S
C239 C240 1.366 . S
C240 C239 1.366 . S
C240 C241 1.414 . S
C240 C243 1.499 . S
C241 H215 0.950 . S
C241 C240 1.414 . S
C241 C242 1.374 . S
C242 H216 0.950 . S
C242 C238 1.385 . S
C242 C241 1.374 . S
C243 C240 1.499 . S
C243 C244 1.373 . S
C243 C245 1.389 . S
C244 H217 0.950 1_554 S
C244 C230 1.377 . S
C244 C243 1.373 . S
C245 C229 1.377 . S
C245 C243 1.389 . S
C245 C246 1.524 . S
C246 C245 1.524 . S
C246 C247 1.397 . S
C246 C251 1.363 . S
C247 H218 0.950 . S
C247 C246 1.397 . S
C247 C248 1.334 . S
C248 H219 0.950 . S
C248 C247 1.334 . S
C248 C249 1.287 . S
C249 C248 1.287 . S
C249 C250 1.524 . S
C249 H252 0.999 . S
C250 H220 0.950 . S
C250 C249 1.524 . S
C250 C251 1.415 . S
C251 H221 0.950 . S
C251 C246 1.363 . S
C251 C250 1.415 . S
H252 C249 0.999 . S
H253 C234 0.913 . S
H254 C272 0.951 1_556 S
H255 C274 0.950 . S
H256 C276 0.950 . S
H257 C277 0.950 . S
H258 C279 0.950 . S
H259 C282 0.950 . S
H260 C283 0.950 . S
H261 C285 0.950 . S
H262 C286 0.950 . S
H263 C287 0.951 . S
H264 C289 0.951 1_554 S
H265 C291 0.950 . S
H266 C292 0.950 . S
H267 C294 0.950 . S
H268 C297 0.950 . S
H269 C298 0.950 . S
H270 C300 0.950 . S
H271 C301 0.950 . S
C272 H254 0.951 1_554 S
C272 C273 1.366 . S
C272 C274 1.388 1_554 S
C273 C272 1.366 . S
C273 C277 1.385 . S
C274 H255 0.950 . S
C274 C272 1.388 1_556 S
C274 C275 1.366 1_556 S
C275 C274 1.366 1_554 S
C275 C276 1.414 . S
C275 C278 1.499 . S
C276 H256 0.950 . S
C276 C275 1.414 . S
C276 C277 1.374 . S
C277 H257 0.950 . S
C277 C273 1.385 . S
C277 C276 1.374 . S
C278 C275 1.499 . S
C278 C279 1.373 1_554 S
C278 C280 1.389 . S
C279 H258 0.950 . S
C279 C278 1.373 1_556 S
C279 C295 1.377 . S
C280 C278 1.389 . S
C280 C281 1.524 . S
C280 C294 1.377 . S
C281 C280 1.524 . S
C281 C282 1.397 . S
C281 C286 1.363 . S
C282 H259 0.950 . S
C282 C281 1.397 . S
C282 C283 1.334 . S
C283 H260 0.950 . S
C283 C282 1.334 . S
C283 C284 1.287 . S
C284 C283 1.287 . S
C284 C285 1.524 . S
C284 H303 0.913 . S
C285 H261 0.950 . S
C285 C284 1.524 . S
C285 C286 1.415 . S
C286 H262 0.950 . S
C286 C281 1.363 . S
C286 C285 1.415 . S
C287 H263 0.951 . S
C287 C288 1.366 . S
C287 C289 1.388 . S
C288 C287 1.366 . S
C288 C292 1.385 . S
C289 H264 0.951 1_556 S
C289 C287 1.388 . S
C289 C290 1.366 . S
C290 C289 1.366 . S
C290 C291 1.414 . S
C290 C293 1.499 . S
C291 H265 0.950 . S
C291 C290 1.414 . S
C291 C292 1.374 . S
C292 H266 0.950 . S
C292 C288 1.385 . S
C292 C291 1.374 . S
C293 C290 1.499 . S
C293 C294 1.373 1_556 S
C293 C295 1.389 . S
C294 H267 0.950 . S
C294 C280 1.377 . S
C294 C293 1.373 1_554 S
C295 C279 1.377 . S
C295 C293 1.389 . S
C295 C296 1.524 . S
C296 C295 1.524 . S
C296 C297 1.397 . S
C296 C301 1.363 . S
C297 H268 0.950 . S
C297 C296 1.397 . S
C297 C298 1.334 . S
C298 H269 0.950 . S
C298 C297 1.334 . S
C298 C299 1.287 . S
C299 C298 1.287 . S
C299 C300 1.524 . S
C299 H302 0.999 . S
C300 H270 0.950 . S
C300 C299 1.524 . S
C300 C301 1.415 . S
C301 H271 0.950 . S
C301 C296 1.363 . S
C301 C300 1.415 . S
H302 C299 0.999 . S
H303 C284 0.913 . S
H304 C322 0.951 1_556 S
H305 C324 0.949 1_556 S
H306 C326 0.950 . S
H307 C327 0.950 . S
H308 C329 0.950 . S
H309 C332 0.950 . S
H310 C333 0.950 . S
H311 C335 0.950 . S
H312 C336 0.950 . S
H313 C337 0.951 . S
H314 C339 0.951 . S
H315 C341 0.950 . S
H316 C342 0.950 . S
H317 C344 0.950 . S
H318 C347 0.950 . S
H319 C348 0.950 . S
H320 C350 0.950 . S
H321 C351 0.950 . S
C322 H304 0.951 1_554 S
C322 C323 1.366 . S
C322 C324 1.388 . S
C323 C322 1.366 . S
C323 C327 1.385 . S
C324 H305 0.949 1_554 S
C324 C322 1.388 . S
C324 C325 1.366 . S
C325 C324 1.366 . S
C325 C326 1.414 . S
C325 C328 1.499 . S
C326 H306 0.950 . S
C326 C325 1.414 . S
C326 C327 1.374 . S
C327 H307 0.950 . S
C327 C323 1.385 . S
C327 C326 1.374 . S
C328 C325 1.499 . S
C328 C329 1.373 . S
C328 C330 1.389 . S
C329 H308 0.950 . S
C329 C328 1.373 . S
C329 C345 1.377 . S
C330 C328 1.389 . S
C330 C331 1.524 . S
C330 C344 1.377 . S
C331 C330 1.524 . S
C331 C332 1.397 . S
C331 C336 1.363 . S
C332 H309 0.950 . S
C332 C331 1.397 . S
C332 C333 1.334 . S
C333 H310 0.950 . S
C333 C332 1.334 . S
C333 C334 1.287 . S
C334 C333 1.287 . S
C334 C335 1.524 . S
C334 H353 0.913 . S
C335 H311 0.950 . S
C335 C334 1.524 . S
C335 C336 1.415 . S
C336 H312 0.950 . S
C336 C331 1.363 . S
C336 C335 1.415 . S
C337 H313 0.951 . S
C337 C338 1.366 . S
C337 C339 1.388 . S
C338 C337 1.366 . S
C338 C342 1.385 . S
C339 H314 0.951 . S
C339 C337 1.388 . S
C339 C340 1.366 . S
C340 C339 1.366 . S
C340 C341 1.414 . S
C340 C343 1.499 . S
C341 H315 0.950 . S
C341 C340 1.414 . S
C341 C342 1.374 . S
C342 H316 0.950 . S
C342 C338 1.385 . S
C342 C341 1.374 . S
C343 C340 1.499 . S
C343 C344 1.373 . S
C343 C345 1.389 . S
C344 H317 0.950 . S
C344 C330 1.377 . S
C344 C343 1.373 . S
C345 C329 1.377 . S
C345 C343 1.389 . S
C345 C346 1.524 . S
C346 C345 1.524 . S
C346 C347 1.397 1_554 S
C346 C351 1.363 . S
C347 H318 0.950 . S
C347 C346 1.397 1_556 S
C347 C348 1.334 . S
C348 H319 0.950 . S
C348 C347 1.334 . S
C348 C349 1.287 . S
C349 C348 1.287 . S
C349 C350 1.524 1_556 S
C349 H352 0.999 . S
C350 H320 0.950 . S
C350 C349 1.524 1_554 S
C350 C351 1.415 . S
C351 H321 0.950 . S
C351 C346 1.363 . S
C351 C350 1.415 . S
H352 C349 0.999 . S
H353 C334 0.913 . S
H354 C372 0.951 . S
H355 C374 0.962 . S
H356 C376 0.950 . S
H357 C377 0.950 . S
H358 C379 0.950 . S
H359 C382 0.950 . S
H360 C383 0.950 . S
H361 C385 0.950 . S
H362 C386 0.950 . S
H363 C387 0.951 . S
H364 C389 0.951 . S
H365 C391 0.950 . S
H366 C392 0.950 . S
H367 C394 0.950 . S
H368 C397 0.950 . S
H369 C398 0.950 . S
H370 C400 0.950 . S
H371 C401 0.950 . S
C372 H354 0.951 . S
C372 C373 1.366 . S
C372 C374 1.381 1_554 S
C373 C372 1.366 . S
C373 C377 1.385 . S
C374 H355 0.962 . S
C374 C372 1.381 1_556 S
C374 C375 1.363 1_556 S
C375 C374 1.363 1_554 S
C375 C376 1.414 . S
C375 C378 1.499 1_554 S
C376 H356 0.950 . S
C376 C375 1.414 . S
C376 C377 1.374 . S
C377 H357 0.950 . S
C377 C373 1.385 . S
C377 C376 1.374 . S
C378 C375 1.499 1_556 S
C378 C379 1.373 1_556 S
C378 C380 1.389 . S
C379 H358 0.950 . S
C379 C378 1.373 1_554 S
C379 C395 1.377 . S
C380 C378 1.389 . S
C380 C381 1.524 . S
C380 C394 1.377 . S
C381 C380 1.524 . S
C381 C382 1.397 . S
C381 C386 1.363 . S
C382 H359 0.950 . S
C382 C381 1.397 . S
C382 C383 1.334 . S
C383 H360 0.950 . S
C383 C382 1.334 . S
C383 C384 1.287 . S
C384 C383 1.287 . S
C384 C385 1.524 . S
C384 H403 0.913 . S
C385 H361 0.950 . S
C385 C384 1.524 . S
C385 C386 1.415 . S
C386 H362 0.950 . S
C386 C381 1.363 . S
C386 C385 1.415 . S
C387 H363 0.951 . S
C387 C388 1.366 . S
C387 C389 1.388 . S
C388 C387 1.366 . S
C388 C392 1.385 . S
C389 H364 0.951 . S
C389 C387 1.388 . S
C389 C390 1.366 . S
C390 C389 1.366 . S
C390 C391 1.414 . S
C390 C393 1.499 . S
C391 H365 0.950 . S
C391 C390 1.414 . S
C391 C392 1.374 . S
C392 H366 0.950 . S
C392 C388 1.385 . S
C392 C391 1.374 . S
C393 C390 1.499 . S
C393 C394 1.373 . S
C393 C395 1.389 1_556 S
C394 H367 0.950 . S
C394 C380 1.377 . S
C394 C393 1.373 . S
C395 C379 1.377 . S
C395 C393 1.389 1_554 S
C395 C396 1.524 . S
C396 C395 1.524 . S
C396 C397 1.397 . S
C396 C401 1.363 . S
C397 H368 0.950 . S
C397 C396 1.397 . S
C397 C398 1.334 . S
C398 H369 0.950 . S
C398 C397 1.334 . S
C398 C399 1.287 . S
C399 C398 1.287 . S
C399 C400 1.524 . S
C399 H402 0.999 . S
C400 H370 0.950 . S
C400 C399 1.524 . S
C400 C401 1.415 . S
C401 H371 0.950 . S
C401 C396 1.363 . S
C401 C400 1.415 . S
H402 C399 0.999 . S
H403 C384 0.913 . S
H404 C422 0.951 . S
H405 C424 0.951 . S
H406 C426 0.950 . S
H407 C427 0.950 . S
H408 C429 0.950 . S
H409 C432 0.950 . S
H410 C433 0.950 . S
H411 C435 0.950 . S
H412 C436 0.950 . S
H413 C437 0.951 . S
H414 C439 0.951 . S
H415 C441 0.950 . S
H416 C442 0.950 . S
H417 C444 0.950 . S
H418 C447 0.950 . S
H419 C448 0.950 . S
H420 C450 0.950 . S
H421 C451 0.950 . S
C422 H404 0.951 . S
C422 C423 1.366 . S
C422 C424 1.388 . S
C423 C422 1.366 . S
C423 C427 1.385 . S
C424 H405 0.951 . S
C424 C422 1.388 . S
C424 C425 1.366 . S
C425 C424 1.366 . S
C425 C426 1.414 . S
C425 C428 1.499 . S
C426 H406 0.950 . S
C426 C425 1.414 . S
C426 C427 1.374 . S
C427 H407 0.950 . S
C427 C423 1.385 . S
C427 C426 1.374 . S
C428 C425 1.499 . S
C428 C429 1.373 . S
C428 C430 1.389 . S
C429 H408 0.950 . S
C429 C428 1.373 . S
C429 C445 1.377 . S
C430 C428 1.389 . S
C430 C431 1.524 . S
C430 C444 1.377 . S
C431 C430 1.524 . S
C431 C432 1.397 . S
C431 C436 1.363 . S
C432 H409 0.950 . S
C432 C431 1.397 . S
C432 C433 1.334 . S
C433 H410 0.950 . S
C433 C432 1.334 . S
C433 C434 1.287 . S
C434 C433 1.287 . S
C434 C435 1.524 . S
C434 H453 0.913 . S
C435 H411 0.950 . S
C435 C434 1.524 . S
C435 C436 1.415 . S
C436 H412 0.950 . S
C436 C431 1.363 . S
C436 C435 1.415 . S
C437 H413 0.951 . S
C437 C438 1.366 . S
C437 C439 1.388 . S
C438 C437 1.366 . S
C438 C442 1.385 . S
C439 H414 0.951 . S
C439 C437 1.388 . S
C439 C440 1.366 . S
C440 C439 1.366 . S
C440 C441 1.414 . S
C440 C443 1.499 . S
C441 H415 0.950 . S
C441 C440 1.414 . S
C441 C442 1.374 . S
C442 H416 0.950 . S
C442 C438 1.385 . S
C442 C441 1.374 . S
C443 C440 1.499 . S
C443 C444 1.373 . S
C443 C445 1.389 . S
C444 H417 0.950 . S
C444 C430 1.377 . S
C444 C443 1.373 . S
C445 C429 1.377 . S
C445 C443 1.389 . S
C445 C446 1.524 . S
C446 C445 1.524 . S
C446 C447 1.397 . S
C446 C451 1.363 . S
C447 H418 0.950 . S
C447 C446 1.397 . S
C447 C448 1.334 . S
C448 H419 0.950 . S
C448 C447 1.334 . S
C448 C449 1.287 . S
C449 C448 1.287 . S
C449 C450 1.524 . S
C449 H452 0.999 . S
C450 H420 0.950 . S
C450 C449 1.524 . S
C450 C451 1.415 . S
C451 H421 0.950 . S
C451 C446 1.363 . S
C451 C450 1.415 . S
H452 C449 0.999 . S
H453 C434 0.913 . S
H454 C472 0.951 . S
H455 C474 0.951 . S
H456 C476 0.950 . S
H457 C477 0.950 . S
H458 C479 0.950 . S
H459 C482 0.950 . S
H460 C483 0.950 . S
H461 C485 0.950 . S
H462 C486 0.950 . S
H463 C487 0.951 . S
H464 C489 0.951 . S
H465 C491 0.950 . S
H466 C492 0.950 . S
H467 C494 0.950 . S
H468 C497 0.950 . S
H469 C498 0.950 . S
H470 C500 0.950 . S
H471 C501 0.950 . S
C472 H454 0.951 . S
C472 C473 1.366 . S
C472 C474 1.388 . S
C473 C472 1.366 . S
C473 C477 1.385 . S
C474 H455 0.951 . S
C474 C472 1.388 . S
C474 C475 1.366 . S
C475 C474 1.366 . S
C475 C476 1.414 . S
C475 C478 1.499 . S
C476 H456 0.950 . S
C476 C475 1.414 . S
C476 C477 1.374 . S
C477 H457 0.950 . S
C477 C473 1.385 . S
C477 C476 1.374 . S
C478 C475 1.499 . S
C478 C479 1.373 . S
C478 C480 1.389 . S
C479 H458 0.950 . S
C479 C478 1.373 . S
C479 C495 1.377 . S
C480 C478 1.389 . S
C480 C481 1.524 . S
C480 C494 1.377 . S
C481 C480 1.524 . S
C481 C482 1.397 . S
C481 C486 1.363 . S
C482 H459 0.950 . S
C482 C481 1.397 . S
C482 C483 1.334 . S
C483 H460 0.950 . S
C483 C482 1.334 . S
C483 C484 1.287 . S
C484 C483 1.287 . S
C484 C485 1.524 . S
C484 H503 0.913 . S
C485 H461 0.950 . S
C485 C484 1.524 . S
C485 C486 1.415 . S
C486 H462 0.950 . S
C486 C481 1.363 . S
C486 C485 1.415 . S
C487 H463 0.951 . S
C487 C488 1.366 . S
C487 C489 1.388 . S
C488 C487 1.366 . S
C488 C492 1.385 . S
C489 H464 0.951 . S
C489 C487 1.388 . S
C489 C490 1.366 . S
C490 C489 1.366 . S
C490 C491 1.414 . S
C490 C493 1.499 . S
C491 H465 0.950 . S
C491 C490 1.414 . S
C491 C492 1.374 . S
C492 H466 0.950 . S
C492 C488 1.385 . S
C492 C491 1.374 . S
C493 C490 1.499 . S
C493 C494 1.373 . S
C493 C495 1.389 . S
C494 H467 0.950 . S
C494 C480 1.377 . S
C494 C493 1.373 . S
C495 C479 1.377 . S
C495 C493 1.389 . S
C495 C496 1.524 . S
C496 C495 1.524 . S
C496 C497 1.397 . S
C496 C501 1.363 . S
C497 H468 0.950 . S
C497 C496 1.397 . S
C497 C498 1.334 . S
C498 H469 0.950 . S
C498 C497 1.334 . S
C498 C499 1.287 . S
C499 C498 1.287 . S
C499 C500 1.524 . S
C499 H502 0.999 . S
C500 H470 0.950 . S
C500 C499 1.524 . S
C500 C501 1.415 . S
C501 H471 0.950 . S
C501 C496 1.363 . S
C501 C500 1.415 . S
H502 C499 0.999 . S
H503 C484 0.913 . S
H504 C522 0.951 . S
H505 C524 0.951 . S
H506 C526 0.950 . S
H507 C527 0.950 . S
H508 C529 0.950 . S
H509 C532 0.950 . S
H510 C533 0.950 . S
H511 C535 0.950 . S
H512 C536 0.950 . S
H513 C537 0.951 . S
H514 C539 0.951 . S
H515 C541 0.950 . S
H516 C542 0.950 . S
H517 C544 0.950 . S
H518 C547 0.950 . S
H519 C548 0.950 . S
H520 C550 0.950 . S
H521 C551 0.950 . S
C522 H504 0.951 . S
C522 C523 1.366 . S
C522 C524 1.388 . S
C523 C522 1.366 . S
C523 C527 1.385 . S
C524 H505 0.951 . S
C524 C522 1.388 . S
C524 C525 1.366 . S
C525 C524 1.366 . S
C525 C526 1.414 . S
C525 C528 1.499 . S
C526 H506 0.950 . S
C526 C525 1.414 . S
C526 C527 1.374 . S
C527 H507 0.950 . S
C527 C523 1.385 . S
C527 C526 1.374 . S
C528 C525 1.499 . S
C528 C529 1.373 . S
C528 C530 1.389 . S
C529 H508 0.950 . S
C529 C528 1.373 . S
C529 C545 1.377 . S
C530 C528 1.389 . S
C530 C531 1.524 . S
C530 C544 1.377 . S
C531 C530 1.524 . S
C531 C532 1.397 . S
C531 C536 1.363 . S
C532 H509 0.950 . S
C532 C531 1.397 . S
C532 C533 1.334 . S
C533 H510 0.950 . S
C533 C532 1.334 . S
C533 C534 1.287 . S
C534 C533 1.287 . S
C534 C535 1.524 . S
C534 H553 0.913 . S
C535 H511 0.950 . S
C535 C534 1.524 . S
C535 C536 1.415 . S
C536 H512 0.950 . S
C536 C531 1.363 . S
C536 C535 1.415 . S
C537 H513 0.951 . S
C537 C538 1.366 . S
C537 C539 1.388 . S
C538 C537 1.366 . S
C538 C542 1.385 . S
C539 H514 0.951 . S
C539 C537 1.388 . S
C539 C540 1.366 . S
C540 C539 1.366 . S
C540 C541 1.414 . S
C540 C543 1.499 . S
C541 H515 0.950 . S
C541 C540 1.414 . S
C541 C542 1.374 . S
C542 H516 0.950 . S
C542 C538 1.385 . S
C542 C541 1.374 . S
C543 C540 1.499 . S
C543 C544 1.373 . S
C543 C545 1.389 . S
C544 H517 0.950 . S
C544 C530 1.377 . S
C544 C543 1.373 . S
C545 C529 1.377 . S
C545 C543 1.389 . S
C545 C546 1.524 . S
C546 C545 1.524 . S
C546 C547 1.397 . S
C546 C551 1.363 . S
C547 H518 0.950 . S
C547 C546 1.397 . S
C547 C548 1.334 . S
C548 H519 0.950 . S
C548 C547 1.334 . S
C548 C549 1.287 . S
C549 C548 1.287 . S
C549 C550 1.524 . S
C549 H552 0.999 . S
C550 H520 0.950 . S
C550 C549 1.524 . S
C550 C551 1.415 . S
C551 H521 0.950 . S
C551 C546 1.363 . S
C551 C550 1.415 . S
H552 C549 0.999 . S
H553 C534 0.913 . S
H554 C572 0.951 . S
H555 C574 0.951 . S
H556 C576 0.950 . S
H557 C577 0.950 . S
H558 C579 0.950 . S
H559 C582 0.950 . S
H560 C583 0.950 . S
H561 C585 0.950 . S
H562 C586 0.950 . S
H563 C587 0.951 . S
H564 C589 0.951 . S
H565 C591 0.950 . S
H566 C592 0.950 . S
H567 C594 0.950 . S
H568 C597 0.950 . S
H569 C598 0.950 . S
H570 C600 0.950 . S
H571 C601 0.950 . S
C572 H554 0.951 . S
C572 C573 1.366 . S
C572 C574 1.388 . S
C573 C572 1.366 . S
C573 C577 1.385 . S
C574 H555 0.951 . S
C574 C572 1.388 . S
C574 C575 1.366 . S
C575 C574 1.366 . S
C575 C576 1.414 . S
C575 C578 1.499 . S
C576 H556 0.950 . S
C576 C575 1.414 . S
C576 C577 1.374 . S
C577 H557 0.950 . S
C577 C573 1.385 . S
C577 C576 1.374 . S
C578 C575 1.499 . S
C578 C579 1.373 . S
C578 C580 1.389 . S
C579 H558 0.950 . S
C579 C578 1.373 . S
C579 C595 1.377 . S
C580 C578 1.389 . S
C580 C581 1.524 . S
C580 C594 1.377 . S
C581 C580 1.524 . S
C581 C582 1.397 . S
C581 C586 1.363 . S
C582 H559 0.950 . S
C582 C581 1.397 . S
C582 C583 1.334 . S
C583 H560 0.950 . S
C583 C582 1.334 . S
C583 C584 1.287 . S
C584 C583 1.287 . S
C584 C585 1.524 . S
C584 H603 0.913 . S
C585 H561 0.950 . S
C585 C584 1.524 . S
C585 C586 1.415 . S
C586 H562 0.950 . S
C586 C581 1.363 . S
C586 C585 1.415 . S
C587 H563 0.951 . S
C587 C588 1.366 . S
C587 C589 1.388 . S
C588 C587 1.366 . S
C588 C592 1.385 . S
C589 H564 0.951 . S
C589 C587 1.388 . S
C589 C590 1.366 . S
C590 C589 1.366 . S
C590 C591 1.414 . S
C590 C593 1.499 . S
C591 H565 0.950 . S
C591 C590 1.414 . S
C591 C592 1.374 . S
C592 H566 0.950 . S
C592 C588 1.385 . S
C592 C591 1.374 . S
C593 C590 1.499 . S
C593 C594 1.373 . S
C593 C595 1.389 . S
C594 H567 0.950 . S
C594 C580 1.377 . S
C594 C593 1.373 . S
C595 C579 1.377 . S
C595 C593 1.389 . S
C595 C596 1.524 . S
C596 C595 1.524 . S
C596 C597 1.397 . S
C596 C601 1.363 . S
C597 H568 0.950 . S
C597 C596 1.397 . S
C597 C598 1.334 . S
C598 H569 0.950 . S
C598 C597 1.334 . S
C598 C599 1.287 . S
C599 C598 1.287 . S
C599 C600 1.524 . S
C599 H602 0.999 . S
C600 H570 0.950 . S
C600 C599 1.524 . S
C600 C601 1.415 . S
C601 H571 0.950 . S
C601 C596 1.363 . S
C601 C600 1.415 . S
H602 C599 0.999 . S
H603 C584 0.913 . S
H604 C622 0.951 . S
H605 C624 0.956 . S
H606 C626 0.950 . S
H607 C627 0.950 . S
H608 C629 0.950 . S
H609 C632 0.950 1_655 S
H610 C633 0.950 . S
H611 C635 0.950 . S
H612 C636 0.950 . S
H613 C637 0.951 . S
H614 C639 0.951 . S
H615 C641 0.950 . S
H616 C642 0.950 . S
H617 C644 0.950 . S
H618 C647 0.950 1_455 S
H619 C648 0.940 1_455 S
H620 C650 0.950 . S
H621 C651 0.950 . S
C622 H604 0.951 . S
C622 C623 1.366 . S
C622 C624 1.388 . S
C623 C622 1.366 . S
C623 C627 1.385 1_455 S
C624 H605 0.956 . S
C624 C622 1.388 . S
C624 C625 1.366 . S
C625 C624 1.366 . S
C625 C626 1.414 1_455 S
C625 C628 1.499 . S
C626 H606 0.950 . S
C626 C625 1.414 1_655 S
C626 C627 1.374 . S
C627 H607 0.950 . S
C627 C623 1.385 1_655 S
C627 C626 1.374 . S
C628 C625 1.499 . S
C628 C629 1.373 1_455 S
C628 C630 1.389 1_545 S
C629 H608 0.950 . S
C629 C628 1.373 1_655 S
C629 C645 1.377 . S
C630 C628 1.389 1_565 S
C630 C631 1.524 . S
C630 C644 1.377 . S
C631 C630 1.524 . S
C631 C632 1.397 . S
C631 C636 1.363 . S
C632 H609 0.950 1_455 S
C632 C631 1.397 . S
C632 C633 1.334 . S
C633 H610 0.950 . S
C633 C632 1.334 . S
C633 C634 1.287 . S
C634 C633 1.287 . S
C634 C635 1.524 . S
C634 H653 0.913 . S
C635 H611 0.950 . S
C635 C634 1.524 . S
C635 C636 1.415 . S
C636 H612 0.950 . S
C636 C631 1.363 . S
C636 C635 1.415 . S
C637 H613 0.951 . S
C637 C638 1.365 1_645 S
C637 C639 1.388 . S
C638 C637 1.365 1_465 S
C638 C642 1.385 . S
C639 H614 0.951 . S
C639 C637 1.388 . S
C639 C640 1.366 1_655 S
C640 C639 1.366 1_455 S
C640 C641 1.415 1_545 S
C640 C643 1.499 . S
C641 H615 0.950 . S
C641 C640 1.415 1_565 S
C641 C642 1.374 . S
C642 H616 0.950 . S
C642 C638 1.385 . S
C642 C641 1.374 . S
C643 C640 1.499 . S
C643 C644 1.373 1_545 S
C643 C645 1.389 1_455 S
C644 H617 0.950 . S
C644 C630 1.377 . S
C644 C643 1.373 1_565 S
C645 C629 1.377 . S
C645 C643 1.389 1_655 S
C645 C646 1.524 . S
C646 C645 1.524 . S
C646 C647 1.397 . S
C646 C651 1.363 . S
C647 H618 0.950 1_655 S
C647 C646 1.397 . S
C647 C648 1.334 . S
C648 H619 0.940 1_655 S
C648 C647 1.334 . S
C648 C649 1.287 . S
C649 C648 1.287 . S
C649 C650 1.524 . S
C649 H652 0.999 . S
C650 H620 0.950 . S
C650 C649 1.524 . S
C650 C651 1.415 . S
C651 H621 0.950 . S
C651 C646 1.363 . S
C651 C650 1.415 . S
H652 C649 0.999 . S
H653 C634 0.913 . S
H654 C672 0.951 . S
H655 C674 0.951 . S
H656 C676 0.950 . S
H657 C677 0.950 . S
H658 C679 0.950 . S
H659 C682 0.950 . S
H660 C683 0.950 . S
H661 C685 0.950 . S
H662 C686 0.950 . S
H663 C687 0.951 . S
H664 C689 0.951 . S
H665 C691 0.950 . S
H666 C692 0.950 . S
H667 C694 0.950 . S
H668 C697 0.950 . S
H669 C698 0.950 . S
H670 C700 0.950 . S
H671 C701 0.950 . S
C672 H654 0.951 . S
C672 C673 1.366 . S
C672 C674 1.388 . S
C673 C672 1.366 . S
C673 C677 1.385 1_455 S
C674 H655 0.951 . S
C674 C672 1.388 . S
C674 C675 1.366 . S
C675 C674 1.366 . S
C675 C676 1.414 1_455 S
C675 C678 1.499 . S
C676 H656 0.950 . S
C676 C675 1.414 1_655 S
C676 C677 1.374 . S
C677 H657 0.950 . S
C677 C673 1.385 1_655 S
C677 C676 1.374 . S
C678 C675 1.499 . S
C678 C679 1.373 1_445 S
C678 C680 1.389 . S
C679 H658 0.950 . S
C679 C678 1.373 1_665 S
C679 C695 1.377 . S
C680 C678 1.389 . S
C680 C681 1.524 . S
C680 C694 1.377 . S
C681 C680 1.524 . S
C681 C682 1.397 . S
C681 C686 1.363 . S
C682 H659 0.950 . S
C682 C681 1.397 . S
C682 C683 1.334 . S
C683 H660 0.950 . S
C683 C682 1.334 . S
C683 C684 1.287 . S
C684 C683 1.287 . S
C684 C685 1.524 . S
C684 H703 0.913 . S
C685 H661 0.950 . S
C685 C684 1.524 . S
C685 C686 1.415 . S
C686 H662 0.950 . S
C686 C681 1.363 . S
C686 C685 1.415 . S
C687 H663 0.951 . S
C687 C688 1.366 1_655 S
C687 C689 1.388 . S
C688 C687 1.366 1_455 S
C688 C692 1.385 . S
C689 H664 0.951 . S
C689 C687 1.388 . S
C689 C690 1.366 1_655 S
C690 C689 1.366 1_455 S
C690 C691 1.414 . S
C690 C693 1.499 . S
C691 H665 0.950 . S
C691 C690 1.414 . S
C691 C692 1.374 . S
C692 H666 0.950 . S
C692 C688 1.385 . S
C692 C691 1.374 . S
C693 C690 1.499 . S
C693 C694 1.373 . S
C693 C695 1.389 1_445 S
C694 H667 0.950 . S
C694 C680 1.377 . S
C694 C693 1.373 . S
C695 C679 1.377 . S
C695 C693 1.389 1_665 S
C695 C696 1.524 . S
C696 C695 1.524 . S
C696 C697 1.397 . S
C696 C701 1.363 . S
C697 H668 0.950 . S
C697 C696 1.397 . S
C697 C698 1.334 . S
C698 H669 0.950 . S
C698 C697 1.334 . S
C698 C699 1.287 . S
C699 C698 1.287 . S
C699 C700 1.524 . S
C699 H702 0.999 . S
C700 H670 0.950 . S
C700 C699 1.524 . S
C700 C701 1.415 . S
C701 H671 0.950 . S
C701 C696 1.363 . S
C701 C700 1.415 . S
H702 C699 0.999 . S
H703 C684 0.913 . S
H704 C722 0.951 . S
H705 C724 0.951 . S
H706 C726 0.950 . S
H707 C727 0.950 . S
H708 C729 0.950 . S
H709 C732 0.950 . S
H710 C733 0.950 . S
H711 C735 0.950 . S
H712 C736 0.950 . S
H713 C737 0.951 . S
H714 C739 0.951 . S
H715 C741 0.950 . S
H716 C742 0.950 . S
H717 C744 0.950 . S
H718 C747 0.950 . S
H719 C748 0.950 . S
H720 C750 0.950 . S
H721 C751 0.950 . S
C722 H704 0.951 . S
C722 C723 1.366 . S
C722 C724 1.388 . S
C723 C722 1.366 . S
C723 C727 1.385 . S
C724 H705 0.951 . S
C724 C722 1.388 . S
C724 C725 1.366 . S
C725 C724 1.366 . S
C725 C726 1.414 . S
C725 C728 1.499 . S
C726 H706 0.950 . S
C726 C725 1.414 . S
C726 C727 1.374 . S
C727 H707 0.950 . S
C727 C723 1.385 . S
C727 C726 1.374 . S
C728 C725 1.499 . S
C728 C729 1.373 . S
C728 C730 1.389 . S
C729 H708 0.950 . S
C729 C728 1.373 . S
C729 C745 1.377 . S
C730 C728 1.389 . S
C730 C731 1.524 . S
C730 C744 1.377 . S
C731 C730 1.524 . S
C731 C732 1.397 . S
C731 C736 1.363 . S
C732 H709 0.950 . S
C732 C731 1.397 . S
C732 C733 1.334 . S
C733 H710 0.950 . S
C733 C732 1.334 . S
C733 C734 1.287 . S
C734 C733 1.287 . S
C734 C735 1.524 . S
C734 H753 0.913 . S
C735 H711 0.950 . S
C735 C734 1.524 . S
C735 C736 1.415 . S
C736 H712 0.950 . S
C736 C731 1.363 . S
C736 C735 1.415 . S
C737 H713 0.951 . S
C737 C738 1.366 . S
C737 C739 1.388 . S
C738 C737 1.366 . S
C738 C742 1.385 . S
C739 H714 0.951 . S
C739 C737 1.388 . S
C739 C740 1.366 . S
C740 C739 1.366 . S
C740 C741 1.414 . S
C740 C743 1.499 . S
C741 H715 0.950 . S
C741 C740 1.414 . S
C741 C742 1.374 . S
C742 H716 0.950 . S
C742 C738 1.385 . S
C742 C741 1.374 . S
C743 C740 1.499 . S
C743 C744 1.373 . S
C743 C745 1.389 . S
C744 H717 0.950 . S
C744 C730 1.377 . S
C744 C743 1.373 . S
C745 C729 1.377 . S
C745 C743 1.389 . S
C745 C746 1.524 . S
C746 C745 1.524 . S
C746 C747 1.397 . S
C746 C751 1.363 . S
C747 H718 0.950 . S
C747 C746 1.397 . S
C747 C748 1.334 . S
C748 H719 0.950 . S
C748 C747 1.334 . S
C748 C749 1.287 . S
C749 C748 1.287 . S
C749 C750 1.524 . S
C749 H752 0.999 . S
C750 H720 0.950 . S
C750 C749 1.524 . S
C750 C751 1.415 . S
C751 H721 0.950 . S
C751 C746 1.363 . S
C751 C750 1.415 . S
H752 C749 0.999 . S
H753 C734 0.913 . S
H754 C772 0.951 . S
H755 C774 0.951 . S
H756 C776 0.950 . S
H757 C777 0.950 . S
H758 C779 0.950 . S
H759 C782 0.950 . S
H760 C783 0.950 . S
H761 C785 0.950 . S
H762 C786 0.950 . S
H763 C787 0.951 . S
H764 C789 0.951 . S
H765 C791 0.950 . S
H766 C792 0.950 . S
H767 C794 0.950 . S
H768 C797 0.950 . S
H769 C798 0.950 . S
H770 C800 0.950 . S
H771 C801 0.950 . S
C772 H754 0.951 . S
C772 C773 1.366 . S
C772 C774 1.388 . S
C773 C772 1.366 . S
C773 C777 1.385 . S
C774 H755 0.951 . S
C774 C772 1.388 . S
C774 C775 1.366 . S
C775 C774 1.366 . S
C775 C776 1.414 . S
C775 C778 1.499 . S
C776 H756 0.950 . S
C776 C775 1.414 . S
C776 C777 1.374 . S
C777 H757 0.950 . S
C777 C773 1.385 . S
C777 C776 1.374 . S
C778 C775 1.499 . S
C778 C779 1.373 . S
C778 C780 1.389 . S
C779 H758 0.950 . S
C779 C778 1.373 . S
C779 C795 1.377 . S
C780 C778 1.389 . S
C780 C781 1.524 . S
C780 C794 1.377 . S
C781 C780 1.524 . S
C781 C782 1.397 . S
C781 C786 1.363 . S
C782 H759 0.950 . S
C782 C781 1.397 . S
C782 C783 1.334 . S
C783 H760 0.950 . S
C783 C782 1.334 . S
C783 C784 1.287 . S
C784 C783 1.287 . S
C784 C785 1.524 . S
C784 H803 0.913 . S
C785 H761 0.950 . S
C785 C784 1.524 . S
C785 C786 1.415 . S
C786 H762 0.950 . S
C786 C781 1.363 . S
C786 C785 1.415 . S
C787 H763 0.951 . S
C787 C788 1.366 . S
C787 C789 1.388 . S
C788 C787 1.366 . S
C788 C792 1.385 . S
C789 H764 0.951 . S
C789 C787 1.388 . S
C789 C790 1.366 . S
C790 C789 1.366 . S
C790 C791 1.414 . S
C790 C793 1.499 . S
C791 H765 0.950 . S
C791 C790 1.414 . S
C791 C792 1.374 . S
C792 H766 0.950 . S
C792 C788 1.385 . S
C792 C791 1.374 . S
C793 C790 1.499 . S
C793 C794 1.373 . S
C793 C795 1.389 . S
C794 H767 0.950 . S
C794 C780 1.377 . S
C794 C793 1.373 . S
C795 C779 1.377 . S
C795 C793 1.389 . S
C795 C796 1.524 . S
C796 C795 1.524 . S
C796 C797 1.397 . S
C796 C801 1.363 . S
C797 H768 0.950 . S
C797 C796 1.397 . S
C797 C798 1.334 . S
C798 H769 0.950 . S
C798 C797 1.334 . S
C798 C799 1.287 . S
C799 C798 1.287 . S
C799 C800 1.524 . S
C799 H802 0.999 . S
C800 H770 0.950 . S
C800 C799 1.524 . S
C800 C801 1.415 . S
C801 H771 0.950 . S
C801 C796 1.363 . S
C801 C800 1.415 . S
H802 C799 0.999 . S
H803 C784 0.913 . S
C238 C169 1.388 . S
C223 C27 1.411 . S
C273 N6 1.317 . S
C288 C133 1.346 . S
C323 C16 1.395 . S
C338 C193 1.356 . S
C373 N14 1.338 . S
C388 C157 1.319 . S
C423 C57 1.411 . S
C438 C97 1.387 . S
C473 N36 1.318 . S
C488 C61 1.345 . S
C538 C121 1.357 . S
C523 C46 1.395 . S
C588 C85 1.320 . S
C573 N44 1.338 . S
C623 C10 1.385 . S
C638 C91 1.384 1_565 S
C673 C1 1.524 . S
C688 C127 1.523 . S
C738 C163 1.383 . S
C723 C40 1.385 . S
C773 C31 1.524 . S
C788 C199 1.523 . S
