# Generated by pormake.
# Topology ctn, (3,4)-cn, num edge types: 1
# Building blocks:
#     Node 0, Type 0, BuildingBlock: CUQRIR_clean_linker_1, # of connection points: 3
#     Node 1, Type 0, BuildingBlock: CUQRIR_clean_linker_1, # of connection points: 3
#     Node 2, Type 0, BuildingBlock: CUQRIR_clean_linker_1, # of connection points: 3
#     Node 3, Type 0, BuildingBlock: CUQRIR_clean_linker_1, # of connection points: 3
#     Node 4, Type 0, BuildingBlock: CUQRIR_clean_linker_1, # of connection points: 3
#     Node 5, Type 0, BuildingBlock: CUQRIR_clean_linker_1, # of connection points: 3
#     Node 6, Type 0, BuildingBlock: CUQRIR_clean_linker_1, # of connection points: 3
#     Node 7, Type 0, BuildingBlock: CUQRIR_clean_linker_1, # of connection points: 3
#     Node 8, Type 0, BuildingBlock: CUQRIR_clean_linker_1, # of connection points: 3
#     Node 9, Type 0, BuildingBlock: CUQRIR_clean_linker_1, # of connection points: 3
#     Node 10, Type 0, BuildingBlock: CUQRIR_clean_linker_1, # of connection points: 3
#     Node 11, Type 0, BuildingBlock: CUQRIR_clean_linker_1, # of connection points: 3
#     Node 12, Type 0, BuildingBlock: CUQRIR_clean_linker_1, # of connection points: 3
#     Node 13, Type 0, BuildingBlock: CUQRIR_clean_linker_1, # of connection points: 3
#     Node 14, Type 0, BuildingBlock: CUQRIR_clean_linker_1, # of connection points: 3
#     Node 15, Type 0, BuildingBlock: CUQRIR_clean_linker_1, # of connection points: 3
#     Node 16, Type 1, BuildingBlock: NAHDIM_clean_sbu_0, # of connection points: 4
#     Node 17, Type 1, BuildingBlock: NAHDIM_clean_sbu_0, # of connection points: 4
#     Node 18, Type 1, BuildingBlock: NAHDIM_clean_sbu_0, # of connection points: 4
#     Node 19, Type 1, BuildingBlock: NAHDIM_clean_sbu_0, # of connection points: 4
#     Node 20, Type 1, BuildingBlock: NAHDIM_clean_sbu_0, # of connection points: 4
#     Node 21, Type 1, BuildingBlock: NAHDIM_clean_sbu_0, # of connection points: 4
#     Node 22, Type 1, BuildingBlock: NAHDIM_clean_sbu_0, # of connection points: 4
#     Node 23, Type 1, BuildingBlock: NAHDIM_clean_sbu_0, # of connection points: 4
#     Node 24, Type 1, BuildingBlock: NAHDIM_clean_sbu_0, # of connection points: 4
#     Node 25, Type 1, BuildingBlock: NAHDIM_clean_sbu_0, # of connection points: 4
#     Node 26, Type 1, BuildingBlock: NAHDIM_clean_sbu_0, # of connection points: 4
#     Node 27, Type 1, BuildingBlock: NAHDIM_clean_sbu_0, # of connection points: 4
#     Edge 28, Type (0, 1), BuildingBlock: OJICUG_clean_linker_0, # of connection points: 2
#     Edge 29, Type (0, 1), BuildingBlock: OJICUG_clean_linker_0, # of connection points: 2
#     Edge 30, Type (0, 1), BuildingBlock: OJICUG_clean_linker_0, # of connection points: 2
#     Edge 31, Type (0, 1), BuildingBlock: OJICUG_clean_linker_0, # of connection points: 2
#     Edge 32, Type (0, 1), BuildingBlock: OJICUG_clean_linker_0, # of connection points: 2
#     Edge 33, Type (0, 1), BuildingBlock: OJICUG_clean_linker_0, # of connection points: 2
#     Edge 34, Type (0, 1), BuildingBlock: OJICUG_clean_linker_0, # of connection points: 2
#     Edge 35, Type (0, 1), BuildingBlock: OJICUG_clean_linker_0, # of connection points: 2
#     Edge 36, Type (0, 1), BuildingBlock: OJICUG_clean_linker_0, # of connection points: 2
#     Edge 37, Type (0, 1), BuildingBlock: OJICUG_clean_linker_0, # of connection points: 2
#     Edge 38, Type (0, 1), BuildingBlock: OJICUG_clean_linker_0, # of connection points: 2
#     Edge 39, Type (0, 1), BuildingBlock: OJICUG_clean_linker_0, # of connection points: 2
#     Edge 40, Type (0, 1), BuildingBlock: OJICUG_clean_linker_0, # of connection points: 2
#     Edge 41, Type (0, 1), BuildingBlock: OJICUG_clean_linker_0, # of connection points: 2
#     Edge 42, Type (0, 1), BuildingBlock: OJICUG_clean_linker_0, # of connection points: 2
#     Edge 43, Type (0, 1), BuildingBlock: OJICUG_clean_linker_0, # of connection points: 2
#     Edge 44, Type (0, 1), BuildingBlock: OJICUG_clean_linker_0, # of connection points: 2
#     Edge 45, Type (0, 1), BuildingBlock: OJICUG_clean_linker_0, # of connection points: 2
#     Edge 46, Type (0, 1), BuildingBlock: OJICUG_clean_linker_0, # of connection points: 2
#     Edge 47, Type (0, 1), BuildingBlock: OJICUG_clean_linker_0, # of connection points: 2
#     Edge 48, Type (0, 1), BuildingBlock: OJICUG_clean_linker_0, # of connection points: 2
#     Edge 49, Type (0, 1), BuildingBlock: OJICUG_clean_linker_0, # of connection points: 2
#     Edge 50, Type (0, 1), BuildingBlock: OJICUG_clean_linker_0, # of connection points: 2
#     Edge 51, Type (0, 1), BuildingBlock: OJICUG_clean_linker_0, # of connection points: 2
#     Edge 52, Type (0, 1), BuildingBlock: OJICUG_clean_linker_0, # of connection points: 2
#     Edge 53, Type (0, 1), BuildingBlock: OJICUG_clean_linker_0, # of connection points: 2
#     Edge 54, Type (0, 1), BuildingBlock: OJICUG_clean_linker_0, # of connection points: 2
#     Edge 55, Type (0, 1), BuildingBlock: OJICUG_clean_linker_0, # of connection points: 2
#     Edge 56, Type (0, 1), BuildingBlock: OJICUG_clean_linker_0, # of connection points: 2
#     Edge 57, Type (0, 1), BuildingBlock: OJICUG_clean_linker_0, # of connection points: 2
#     Edge 58, Type (0, 1), BuildingBlock: OJICUG_clean_linker_0, # of connection points: 2
#     Edge 59, Type (0, 1), BuildingBlock: OJICUG_clean_linker_0, # of connection points: 2
#     Edge 60, Type (0, 1), BuildingBlock: OJICUG_clean_linker_0, # of connection points: 2
#     Edge 61, Type (0, 1), BuildingBlock: OJICUG_clean_linker_0, # of connection points: 2
#     Edge 62, Type (0, 1), BuildingBlock: OJICUG_clean_linker_0, # of connection points: 2
#     Edge 63, Type (0, 1), BuildingBlock: OJICUG_clean_linker_0, # of connection points: 2
#     Edge 64, Type (0, 1), BuildingBlock: OJICUG_clean_linker_0, # of connection points: 2
#     Edge 65, Type (0, 1), BuildingBlock: OJICUG_clean_linker_0, # of connection points: 2
#     Edge 66, Type (0, 1), BuildingBlock: OJICUG_clean_linker_0, # of connection points: 2
#     Edge 67, Type (0, 1), BuildingBlock: OJICUG_clean_linker_0, # of connection points: 2
#     Edge 68, Type (0, 1), BuildingBlock: OJICUG_clean_linker_0, # of connection points: 2
#     Edge 69, Type (0, 1), BuildingBlock: OJICUG_clean_linker_0, # of connection points: 2
#     Edge 70, Type (0, 1), BuildingBlock: OJICUG_clean_linker_0, # of connection points: 2
#     Edge 71, Type (0, 1), BuildingBlock: OJICUG_clean_linker_0, # of connection points: 2
#     Edge 72, Type (0, 1), BuildingBlock: OJICUG_clean_linker_0, # of connection points: 2
#     Edge 73, Type (0, 1), BuildingBlock: OJICUG_clean_linker_0, # of connection points: 2
#     Edge 74, Type (0, 1), BuildingBlock: OJICUG_clean_linker_0, # of connection points: 2
#     Edge 75, Type (0, 1), BuildingBlock: OJICUG_clean_linker_0, # of connection points: 2
# Relax obj value: 0.083
# Max RMSD: 0.206
# Mean RMSD: 0.127
data_MOF--net-ctn--node1-NAHDIM_clean_sbu_0--node2-CUQRIR_clean_linker_1--edge1-OJICUG_clean_linker_0
_symmetry_space_group_name_H-M    P1
_symmetry_Int_Tables_number       1
_symmetry_cell_setting            triclinic
loop_
_symmetry_equiv_pos_as_xyz
'x, y, z'
_cell_length_a     36.34048
_cell_length_b     33.787083
_cell_length_c     34.256307
_cell_angle_alpha  98.575165
_cell_angle_beta   88.721032
_cell_angle_gamma 95.612337
loop_
_atom_site_label
_atom_site_type_symbol
_atom_site_fract_x
_atom_site_fract_y
_atom_site_fract_z
_atom_type_partial_charge
C0 C 0.03433 0.98825 0.08274 0.0
N1 N 0.05207 1.00368 0.05233 0.0
N2 N 1.00088 1.00246 0.08926 0.0
C3 C 0.05057 0.96107 0.10747 0.0
C4 C 0.99872 0.0268 0.06166 0.0
N5 N 0.02961 0.02732 0.03888 0.0
C6 C 0.96694 0.05135 0.05793 0.0
H7 H 0.02887 0.94284 0.12191 0.0
H8 H 0.06783 0.97978 0.1309 0.0
H9 H 0.0684 0.94059 0.08917 0.0
H10 H 0.97347 0.08194 0.07455 0.0
H11 H 0.94111 0.03758 0.07026 0.0
H12 H 0.96261 0.05433 0.02658 0.0
C13 C 0.28196 0.72954 0.22713 0.0
N14 N 0.29368 0.71283 0.25765 0.0
N15 N 0.30301 0.76405 0.22345 0.0
C16 C 0.24953 0.71251 0.2012 0.0
C17 C 0.32796 0.76794 0.25286 0.0
N18 N 0.32198 0.73705 0.27411 0.0
C19 C 0.35825 0.80164 0.26065 0.0
H20 H 0.25849 0.68843 0.17836 0.0
H21 H 0.23874 0.73566 0.186 0.0
H22 H 0.2269 0.69916 0.21882 0.0
H23 H 0.34966 0.82395 0.28545 0.0
H24 H 0.36391 0.81702 0.23442 0.0
H25 H 0.38392 0.79008 0.26943 0.0
C26 C 0.97601 0.5141 0.08476 0.0
N27 N 0.99701 0.48299 0.08397 0.0
N28 N 0.94613 0.50325 0.06131 0.0
C29 C 0.98355 0.55431 0.11016 0.0
C30 C 0.94957 0.46438 0.04639 0.0
N31 N 0.98028 0.45179 0.06053 0.0
C32 C 0.92448 0.43987 0.01553 0.0
H33 H 0.95767 0.56893 0.1171 0.0
H34 H 1.00254 0.57402 0.09397 0.0
H35 H 0.99708 0.55115 0.1381 0.0
H36 H 0.90996 0.4595 0.99904 0.0
H37 H 0.90346 0.42091 0.03022 0.0
H38 H 0.94037 0.41985 0.9943 0.0
C39 C 0.66795 0.76625 0.22196 0.0
N40 N 0.69892 0.78658 0.20954 0.0
N41 N 0.65942 0.7814 0.25952 0.0
C42 C 0.64709 0.7304 0.19811 0.0
C43 C 0.68628 0.81165 0.26957 0.0
N44 N 0.71065 0.81448 0.23936 0.0
C45 C 0.68651 0.84091 0.30736 0.0
H46 H 0.62693 0.74106 0.17915 0.0
H47 H 0.63178 0.71087 0.21754 0.0
H48 H 0.6662 0.71253 0.17866 0.0
H49 H 0.70466 0.83103 0.32892 0.0
H50 H 0.65835 0.84224 0.32036 0.0
H51 H 0.69741 0.87155 0.30222 0.0
C52 C 0.02116 0.98976 0.49761 0.0
N53 N 0.05371 0.99661 0.51704 0.0
N54 N 0.0216 0.01123 0.46736 0.0
C55 C 0.9894 0.96058 0.50704 0.0
C56 C 0.05573 0.03132 0.46872 0.0
N57 N 0.07563 0.02209 0.49868 0.0
C58 C 0.06975 0.05923 0.44016 0.0
H59 H 0.99426 0.93 0.49225 0.0
H60 H 0.96291 0.96858 0.49629 0.0
H61 H 0.98733 0.95991 0.5393 0.0
H62 H 0.04671 0.07209 0.42732 0.0
H63 H 0.0847 0.04211 0.41565 0.0
H64 H 0.08911 0.08412 0.45491 0.0
C65 C 0.17268 0.73855 0.82006 0.0
N66 N 0.20003 0.72369 0.83793 0.0
N67 N 0.1666 0.71788 0.78351 0.0
C68 C 0.15268 0.77401 0.83795 0.0
C69 C 0.19127 0.69007 0.77953 0.0
N70 N 0.21209 0.69401 0.81247 0.0
C71 C 0.19499 0.65923 0.74351 0.0
H72 H 0.13371 0.76486 0.8615 0.0
H73 H 0.13608 0.78531 0.81599 0.0
H74 H 0.1728 0.79872 0.85168 0.0
H75 H 0.16907 0.65331 0.72629 0.0
H76 H 0.20254 0.63064 0.75196 0.0
H77 H 0.21726 0.67069 0.72426 0.0
C78 C 0.96959 0.52426 0.46348 0.0
N79 N 0.99205 0.55878 0.46377 0.0
N80 N 0.94221 0.5295 0.49056 0.0
C81 C 0.97262 0.48633 0.43483 0.0
C82 C 0.94853 0.56833 0.50724 0.0
N83 N 0.97851 0.58645 0.49052 0.0
C84 C 0.92743 0.58726 0.54238 0.0
H85 H 0.94547 0.46823 0.43062 0.0
H86 H 0.99226 0.46801 0.44666 0.0
H87 H 0.98324 0.49337 0.40578 0.0
H88 H 0.94603 0.60868 0.56249 0.0
H89 H 0.91389 0.56414 0.5592 0.0
H90 H 0.9057 0.60398 0.53195 0.0
C91 C 0.78108 0.80809 0.82797 0.0
N92 N 0.81136 0.78772 0.82013 0.0
N93 N 0.77931 0.83538 0.80318 0.0
C94 C 0.75318 0.80153 0.86006 0.0
C95 C 0.80964 0.83118 0.77992 0.0
N96 N 0.82937 0.80232 0.79025 0.0
C97 C 0.82112 0.85672 0.74845 0.0
H98 H 0.74969 0.76942 0.86422 0.0
H99 H 0.72602 0.81113 0.85313 0.0
H100 H 0.76319 0.81963 0.88819 0.0
H101 H 0.8414 0.88178 0.7611 0.0
H102 H 0.79733 0.8698 0.73739 0.0
H103 H 0.83459 0.83879 0.72331 0.0
C104 C 0.28576 0.3108 0.33254 0.0
N105 N 0.31564 0.28976 0.32471 0.0
N106 N 0.28424 0.33777 0.30737 0.0
C107 C 0.25766 0.30477 0.3646 0.0
C108 C 0.31425 0.33263 0.28381 0.0
N109 N 0.33355 0.30353 0.29432 0.0
C110 C 0.32594 0.35746 0.25181 0.0
H111 H 0.25374 0.27271 0.3689 0.0
H112 H 0.23068 0.31469 0.35752 0.0
H113 H 0.26775 0.32288 0.39269 0.0
H114 H 0.34773 0.38133 0.26352 0.0
H115 H 0.3027 0.37209 0.24165 0.0
H116 H 0.33775 0.33849 0.22624 0.0
C117 C 0.46766 1.00354 0.58975 0.0
N118 N 0.48874 0.97243 0.58942 0.0
N119 N 0.44134 0.99465 0.56161 0.0
C120 C 0.47026 0.04094 0.61994 0.0
C121 C 0.4468 0.95701 0.54437 0.0
N122 N 0.47528 0.94323 0.56148 0.0
C123 C 0.4256 0.93472 0.50922 0.0
H124 H 0.44346 0.05428 0.62353 0.0
H125 H 0.4913 0.06344 0.60998 0.0
H126 H 0.47879 0.0343 0.64899 0.0
H127 H 0.41348 0.95585 0.4924 0.0
H128 H 0.40278 0.91449 0.51964 0.0
H129 H 0.44376 0.91612 0.48926 0.0
C130 C 0.18582 0.25743 0.73697 0.0
N131 N 0.21125 0.2817 0.71989 0.0
N132 N 0.1709 0.27807 0.76945 0.0
C133 C 0.17379 0.21439 0.72069 0.0
C134 C 0.18799 0.31569 0.7715 0.0
N135 N 0.21215 0.31802 0.74117 0.0
C136 C 0.18253 0.34958 0.80437 0.0
H137 H 0.14543 0.20535 0.73084 0.0
H138 H 0.19301 0.19473 0.73117 0.0
H139 H 0.17462 0.20979 0.68793 0.0
H140 H 0.17466 0.33789 0.83229 0.0
H141 H 0.15991 0.36649 0.79619 0.0
H142 H 0.20788 0.37075 0.80928 0.0
C143 C 0.78071 0.22489 0.73061 0.0
N144 N 0.79316 0.21192 0.76296 0.0
N145 N 0.80001 0.25965 0.72439 0.0
C146 C 0.74809 0.20499 0.70631 0.0
C147 C 0.82454 0.26773 0.75439 0.0
N148 N 0.82018 0.2388 0.77823 0.0
C149 C 0.85434 0.30219 0.75864 0.0
H150 H 0.75754 0.18079 0.68392 0.0
H151 H 0.73549 0.22682 0.69077 0.0
H152 H 0.7267 0.1913 0.72516 0.0
H153 H 0.84486 0.32726 0.77995 0.0
H154 H 0.86037 0.31319 0.73001 0.0
H155 H 0.88005 0.29311 0.77014 0.0
C156 C 0.53249 0.484 0.58119 0.0
N157 N 0.5512 0.49955 0.55139 0.0
N158 N 0.49903 0.49835 0.58672 0.0
C159 C 0.54771 0.45663 0.60642 0.0
C160 C 0.49784 0.52285 0.55913 0.0
N161 N 0.52936 0.52343 0.53735 0.0
C162 C 0.4664 0.54763 0.55461 0.0
H163 H 0.52534 0.43774 0.61921 0.0
H164 H 0.56349 0.4752 0.6311 0.0
H165 H 0.56661 0.43675 0.589 0.0
H166 H 0.47247 0.57796 0.57194 0.0
H167 H 0.44012 0.5336 0.56576 0.0
H168 H 0.46319 0.55121 0.52322 0.0
C169 C 0.52292 0.48978 0.99614 0.0
N170 N 0.55524 0.49672 0.016 0.0
N171 N 0.52358 0.51151 0.96609 0.0
C172 C 0.49114 0.46037 1.00504 0.0
C173 C 0.55761 0.53185 0.96799 0.0
N174 N 0.57723 0.52254 0.99812 0.0
C175 C 0.57179 0.56013 0.93984 0.0
H176 H 0.46473 0.46834 0.99407 0.0
H177 H 0.48877 0.45943 0.03724 0.0
H178 H 0.49622 0.4299 0.9901 0.0
H179 H 0.5488 0.57296 0.92687 0.0
H180 H 0.58705 0.54331 0.9154 0.0
H181 H 0.59091 0.58502 0.95499 0.0
C182 C 0.67383 0.23899 0.31923 0.0
N183 N 0.70123 0.22429 0.33716 0.0
N184 N 0.66731 0.21772 0.28302 0.0
C185 C 0.65427 0.2749 0.33674 0.0
C186 C 0.69176 0.18969 0.27931 0.0
N187 N 0.71289 0.19408 0.31207 0.0
C188 C 0.69497 0.15822 0.2437 0.0
H189 H 0.6364 0.26683 0.36158 0.0
H190 H 0.63662 0.28518 0.31502 0.0
H191 H 0.67481 0.30002 0.34874 0.0
H192 H 0.71705 0.16915 0.22394 0.0
H193 H 0.66884 0.15213 0.22685 0.0
H194 H 0.70251 0.1298 0.25257 0.0
C195 C 0.4638 0.0277 0.96464 0.0
N196 N 0.48698 0.06141 0.9629 0.0
N197 N 0.43777 0.03471 0.99297 0.0
C198 C 0.46635 0.98806 0.93854 0.0
C199 C 0.44542 0.07384 1.00808 0.0
N200 N 0.47501 0.09034 0.98941 0.0
C201 C 0.42445 0.09581 0.0417 0.0
H202 H 0.43967 0.96901 0.93722 0.0
H203 H 0.4874 0.97164 0.95066 0.0
H204 H 0.47506 0.99289 0.90822 0.0
H205 H 0.444 0.11461 0.06289 0.0
H206 H 0.40643 0.07512 0.05766 0.0
H207 H 0.40667 0.116 0.02982 0.0
C208 C 0.18526 0.9317 0.017 0.0
O209 O 0.19373 0.91388 0.98165 0.0
O210 O 0.23165 0.84108 0.99867 0.0
Zn211 Zn 0.24475 0.88869 0.04064 0.0
O212 O 0.29013 0.9205 0.02307 0.0
C213 C 0.2815 0.84628 0.09252 0.0
O214 O 0.30214 0.83934 0.06073 0.0
O215 O 0.2029 0.92504 0.04676 0.0
C216 C 0.31585 0.9364 0.0465 0.0
O217 O 0.31292 0.93271 0.08409 0.0
C218 C 0.25543 0.82642 0.97426 0.0
O219 O 0.28981 0.84267 0.97612 0.0
O220 O 0.25457 0.86759 0.09164 0.0
C221 C 0.18831 0.46293 0.31002 0.0
O222 O 0.18906 0.49228 0.33991 0.0
O223 O 0.11384 0.52683 0.32895 0.0
Zn224 Zn 0.14191 0.51361 0.27773 0.0
O225 O 0.18069 0.55908 0.26995 0.0
C226 C 0.11342 0.50632 0.19695 0.0
O227 O 0.14651 0.52272 0.18905 0.0
O228 O 0.169 0.46493 0.28004 0.0
C229 C 0.19626 0.58292 0.29844 0.0
O230 O 0.18561 0.57988 0.33485 0.0
C231 C 0.09593 0.55761 0.33694 0.0
O232 O 0.09556 0.58262 0.31106 0.0
O233 O 0.10555 0.50046 0.23216 0.0
C234 C 0.82585 0.59429 0.0354 0.0
O235 O 0.79254 0.58323 0.04786 0.0
O236 O 0.80092 0.68948 0.9637 0.0
Zn237 Zn 0.78782 0.65694 0.00909 0.0
O238 O 0.73993 0.61883 0.99956 0.0
C239 C 0.75602 0.7208 0.06008 0.0
O240 O 0.7376 0.72186 0.02773 0.0
O241 O 0.83068 0.62494 0.01767 0.0
C242 C 0.71839 0.61196 0.0283 0.0
O243 O 0.72701 0.62989 0.06407 0.0
C244 C 0.80723 0.67549 0.92775 0.0
O245 O 0.80422 0.63637 0.91678 0.0
O246 O 0.78033 0.696 0.05915 0.0
C247 C 0.81323 0.07716 0.3265 0.0
O248 O 0.81227 0.05763 0.35699 0.0
O249 O 0.89563 0.02326 0.33993 0.0
Zn250 Zn 0.86345 0.01855 0.29205 0.0
O251 O 0.83071 0.96613 0.28448 0.0
C252 C 0.90619 0.98909 0.22322 0.0
O253 O 0.89424 0.95359 0.23221 0.0
O254 O 0.83274 0.06554 0.29647 0.0
C255 C 0.81167 0.95596 0.25323 0.0
O256 O 0.81258 0.98066 0.22692 0.0
C257 C 0.91451 0.9945 0.34423 0.0
O258 O 0.91116 0.96163 0.31822 0.0
O259 O 0.89672 0.02058 0.24463 0.0
C260 C 0.3236 0.0871 0.53124 0.0
O261 O 0.28966 0.07545 0.54139 0.0
O262 O 0.30166 0.18847 0.46649 0.0
Zn263 Zn 0.28793 0.15364 0.51009 0.0
O264 O 0.23909 0.11729 0.49977 0.0
C265 C 0.26754 0.22227 0.56753 0.0
O266 O 0.25674 0.23639 0.53639 0.0
O267 O 0.32971 0.11944 0.51633 0.0
C268 C 0.21738 0.11059 0.52844 0.0
O269 O 0.22634 0.12783 0.56434 0.0
C270 C 0.30865 0.1753 0.43046 0.0
O271 O 0.30593 0.1363 0.41875 0.0
O272 O 0.28234 0.18926 0.56275 0.0
C273 C 0.31362 0.57804 0.82603 0.0
O274 O 0.31128 0.55668 0.8552 0.0
O275 O 0.39727 0.52482 0.83944 0.0
Zn276 Zn 0.36485 0.52086 0.79183 0.0
O277 O 0.33162 0.46895 0.78397 0.0
C278 C 0.4042 0.49009 0.72135 0.0
O279 O 0.38951 0.45516 0.7295 0.0
O280 O 0.33458 0.56818 0.7967 0.0
C281 C 0.30704 0.46349 0.75734 0.0
O282 O 0.30238 0.49275 0.73715 0.0
C283 C 0.41709 0.4965 0.84253 0.0
O284 O 0.41466 0.46452 0.81537 0.0
O285 O 0.39764 0.52207 0.74396 0.0
C286 C 0.68672 0.43082 0.51901 0.0
O287 O 0.69692 0.41523 0.48345 0.0
O288 O 0.73475 0.34239 0.49781 0.0
Zn289 Zn 0.74688 0.38881 0.54176 0.0
O290 O 0.79093 0.42426 0.52662 0.0
C291 C 0.77234 0.33382 0.58934 0.0
O292 O 0.77905 0.31474 0.55402 0.0
O293 O 0.70361 0.4232 0.54886 0.0
C294 C 0.82425 0.41822 0.53217 0.0
O295 O 0.83125 0.38696 0.54841 0.0
C296 C 0.75777 0.3296 0.47148 0.0
O297 O 0.79167 0.34712 0.47189 0.0
O298 O 0.75786 0.36699 0.59229 0.0
C299 C 0.68487 0.96225 0.80888 0.0
O300 O 0.68721 0.99189 0.83854 0.0
O301 O 0.60961 0.0271 0.82791 0.0
Zn302 Zn 0.64069 0.01559 0.77842 0.0
O303 O 0.68211 0.05977 0.77595 0.0
C304 C 0.58891 0.97651 0.71726 0.0
O305 O 0.58808 0.94655 0.7378 0.0
O306 O 0.66508 0.96487 0.77943 0.0
C307 C 0.6957 0.08414 0.80519 0.0
O308 O 0.68135 0.08304 0.84059 0.0
C309 C 0.5915 0.05775 0.8357 0.0
O310 O 0.59252 0.08366 0.81056 0.0
O311 O 0.609 0.00895 0.72914 0.0
C312 C 0.01606 0.14322 0.93851 0.0
O313 O 0.00964 0.13371 0.90052 0.0
O314 O 0.94902 0.21314 0.8985 0.0
Zn315 Zn 0.99777 0.22544 0.92921 0.0
O316 O 0.99402 0.27409 0.97172 0.0
C317 C 0.06814 0.22574 0.88485 0.0
O318 O 0.07712 0.20017 0.90754 0.0
O319 O 0.01185 0.17872 0.95545 0.0
C320 C 0.02013 0.30187 0.98035 0.0
O321 O 0.05211 0.29902 0.96202 0.0
C322 C 0.92814 0.24132 0.89817 0.0
O323 O 0.93736 0.27623 0.91978 0.0
O324 O 0.03691 0.23988 0.88955 0.0
C325 C 0.52079 0.64053 0.43725 0.0
O326 O 0.5234 0.63385 0.39856 0.0
O327 O 0.44912 0.70699 0.39333 0.0
Zn328 Zn 0.49659 0.71935 0.42654 0.0
O329 O 0.49169 0.76814 0.46845 0.0
C330 C 0.53466 0.74149 0.35642 0.0
O331 O 0.50096 0.74362 0.34436 0.0
O332 O 0.50897 0.67313 0.45412 0.0
C333 C 0.51769 0.79529 0.47964 0.0
O334 O 0.55082 0.79229 0.464 0.0
C335 C 0.42403 0.73122 0.39773 0.0
O336 O 0.42754 0.76201 0.42617 0.0
O337 O 0.53934 0.73194 0.39037 0.0
C338 C 0.04327 0.8876 0.62733 0.0
O339 O 0.04257 0.8979 0.66584 0.0
O340 O 0.97394 0.80872 0.67913 0.0
Zn341 Zn 0.01704 0.80244 0.63922 0.0
O342 O 1.00418 0.7562 0.59546 0.0
C343 C 0.05806 0.75411 0.67972 0.0
O344 O 0.02886 0.72863 0.67036 0.0
O345 O 0.03303 0.85149 0.61237 0.0
C346 C 0.02928 0.7379 0.57591 0.0
O347 O 0.06417 0.74933 0.58421 0.0
C348 C 0.95145 0.77861 0.68498 0.0
O349 O 0.95411 0.74385 0.66264 0.0
O350 O 0.05988 0.78866 0.66892 0.0
C351 C 0.5441 0.38884 0.12753 0.0
O352 O 0.54317 0.3995 0.16599 0.0
O353 O 0.4756 0.30936 0.18015 0.0
Zn354 Zn 0.51814 0.30333 0.1394 0.0
O355 O 0.50477 0.2577 0.09518 0.0
C356 C 0.55918 0.25434 0.17903 0.0
O357 O 0.52973 0.22916 0.16991 0.0
O358 O 0.5341 0.35259 0.11283 0.0
C359 C 0.52966 0.23934 0.07531 0.0
O360 O 0.56463 0.25003 0.0838 0.0
C361 C 0.45301 0.27932 0.18598 0.0
O362 O 0.45493 0.24482 0.16297 0.0
O363 O 0.56119 0.28893 0.16831 0.0
C364 C 0.19486 0.74744 0.90894 0.0
C365 C 0.21679 0.74153 0.87477 0.0
H366 H 0.18982 0.77922 0.96737 0.0
C367 C 0.25328 0.75933 0.87533 0.0
H368 H 0.16675 0.7335 0.90904 0.0
C369 C 0.26672 0.78533 0.90867 0.0
C370 C 0.24364 0.79407 0.94174 0.0
H371 H 0.27043 0.75528 0.84905 0.0
H372 H 0.29438 0.80033 0.90759 0.0
C373 C 0.20805 0.77367 0.9421 0.0
C374 C 0.02168 0.59215 0.41036 0.0
C375 C 0.02267 0.56484 0.43727 0.0
H376 H 0.04428 0.6114 0.3572 0.0
C377 C 0.05071 0.5388 0.43385 0.0
H378 H 1.00003 0.61225 0.41246 0.0
C379 C 0.07564 0.53776 0.40219 0.0
C380 C 0.07311 0.563 0.37343 0.0
H381 H 0.05196 0.51771 0.45458 0.0
H382 H 0.09591 0.51602 0.39943 0.0
C383 C 0.04678 0.59132 0.37866 0.0
C384 C 0.8134 0.7175 0.83038 0.0
C385 C 0.82239 0.75864 0.84325 0.0
H386 H 0.80171 0.65871 0.84696 0.0
C387 C 0.83095 0.77133 0.88321 0.0
H388 H 0.80554 0.70721 0.8 0.0
C389 C 0.8275 0.74407 0.91042 0.0
C390 C 0.81589 0.70327 0.89813 0.0
H391 H 0.83706 0.80306 0.8939 0.0
H392 H 0.83229 0.75532 0.94136 0.0
C393 C 0.81055 0.68995 0.8575 0.0
C394 C 0.97391 0.03925 0.43264 0.0
C395 C 0.9947 1.00733 0.43666 0.0
H396 H 0.93191 0.06026 0.40023 0.0
C397 C 0.98853 0.971 0.41103 0.0
H398 H 0.97821 0.06731 0.45258 0.0
C399 C 0.96218 0.96671 0.38127 0.0
C400 C 0.94142 0.99872 0.37675 0.0
H401 H 1.00435 0.94609 0.41402 0.0
H402 H 0.95826 0.93836 0.36171 0.0
C403 C 0.94744 0.03503 0.40289 0.0
C404 C 0.22586 0.29119 0.65112 0.0
C405 C 0.23088 0.27124 0.6834 0.0
H406 H 0.23357 0.29143 0.58894 0.0
C407 C 0.2515 0.23784 0.67827 0.0
H408 H 0.20975 0.31682 0.65449 0.0
C409 C 0.26504 0.22311 0.64093 0.0
C410 C 0.25808 0.24147 0.60791 0.0
H411 H 0.25583 0.22224 0.70295 0.0
H412 H 0.27961 0.19632 0.63773 0.0
C413 C 0.23928 0.27642 0.61365 0.0
C414 C 0.47087 0.53072 0.64739 0.0
C415 C 0.47472 0.49616 0.62001 0.0
H416 H 0.44547 0.55597 0.70103 0.0
C417 C 0.455 0.45969 0.62555 0.0
H418 H 0.48611 0.55904 0.64343 0.0
C419 C 0.43203 0.45762 0.65857 0.0
C420 C 0.42824 0.4922 0.68628 0.0
H421 H 0.45753 0.4329 0.60433 0.0
H422 H 0.41719 0.42901 0.66229 0.0
C423 C 0.44775 0.52883 0.68023 0.0
C424 C 0.78497 0.31919 0.69615 0.0
C425 C 0.79674 0.28042 0.69113 0.0
H426 H 0.76757 0.36669 0.66774 0.0
C427 C 0.80194 0.26028 0.65293 0.0
H428 H 0.78056 0.33494 0.72555 0.0
C429 C 0.79459 0.27805 0.62007 0.0
C430 C 0.7816 0.31637 0.62472 0.0
H431 H 0.81093 0.23029 0.64865 0.0
H432 H 0.7984 0.26128 0.591 0.0
C433 C 0.77732 0.33705 0.66316 0.0
C434 C 0.51439 0.939 0.64071 0.0
C435 C 0.51726 0.96991 0.61734 0.0
H436 H 0.53475 0.9168 0.69072 0.0
C437 C 0.54572 1.00121 0.62498 0.0
H438 H 0.49241 0.91482 0.63562 0.0
C439 C 0.56951 1.00293 0.65686 0.0
C440 C 0.56562 0.97305 0.68156 0.0
H441 H 0.54861 0.02516 0.60704 0.0
H442 H 0.59043 0.02815 0.66264 0.0
C443 C 0.53842 0.94046 0.67246 0.0
C444 C 0.84757 0.26841 0.84232 0.0
C445 C 0.84272 0.23595 0.81167 0.0
H446 H 0.87787 0.29532 0.89382 0.0
C447 C 0.86333 0.20291 0.8119 0.0
H448 H 0.8317 0.29399 0.84285 0.0
C449 C 0.89003 0.2035 0.84109 0.0
C450 C 0.89646 0.23719 0.87054 0.0
H451 H 0.86011 0.17767 0.78833 0.0
H452 H 0.90669 0.17843 0.83954 0.0
C453 C 0.87406 0.26905 0.87142 0.0
C454 C 0.52485 0.90274 0.53295 0.0
C455 C 0.48931 0.90483 0.54942 0.0
H456 H 0.56192 0.86618 0.49781 0.0
C457 C 0.46512 0.86959 0.5473 0.0
H458 H 0.54374 0.92972 0.53404 0.0
C459 C 0.47503 0.8335 0.52618 0.0
C460 C 0.50957 0.83186 0.50701 0.0
H461 H 0.43762 0.87069 0.56001 0.0
H462 H 0.45498 0.80735 0.52348 0.0
C463 C 0.53499 0.86647 0.51197 0.0
C464 C 0.15163 0.23189 0.81689 0.0
C465 C 0.14425 0.2634 0.79675 0.0
H466 H 0.13342 0.19535 0.86089 0.0
C467 C 0.1115 0.28187 0.80494 0.0
H468 H 0.17698 0.21758 0.81106 0.0
C469 C 0.08657 0.26936 0.83328 0.0
C470 C 0.09414 0.23827 0.85414 0.0
H471 H 0.10544 0.30618 0.78951 0.0
H472 H 0.06162 0.28443 0.83916 0.0
C473 C 0.12684 0.21948 0.84548 0.0
C474 C 0.53239 0.53993 0.46988 0.0
C475 C 0.53909 0.55151 0.51033 0.0
H476 H 0.52157 0.55921 0.41464 0.0
C477 C 0.54434 0.59259 0.52537 0.0
H478 H 0.52717 0.50838 0.45801 0.0
C479 C 0.53978 0.62159 0.50121 0.0
C480 C 0.5305 0.61004 0.46126 0.0
H481 H 0.54868 0.602 0.55669 0.0
H482 H 0.54197 0.65297 0.51423 0.0
C483 C 0.52857 0.56901 0.44536 0.0
C484 C 0.89405 0.82093 0.77291 0.0
C485 C 0.86384 0.79145 0.7721 0.0
H486 H 0.94498 0.8406 0.7457 0.0
C487 C 0.86439 0.75611 0.74497 0.0
H488 H 0.89384 0.84875 0.79319 0.0
C489 C 0.89352 0.75136 0.7176 0.0
C490 C 0.92246 0.78221 0.71645 0.0
H491 H 0.84096 0.73353 0.74303 0.0
H492 H 0.89235 0.72434 0.69606 0.0
C493 C 0.92294 0.81653 0.74528 0.0
C494 C 0.05531 0.98667 0.58648 0.0
C495 C 0.06366 0.97369 0.5467 0.0
H496 H 0.04261 0.96963 0.64355 0.0
C497 C 0.07004 0.93335 0.53502 0.0
H498 H 0.04904 0.01734 0.59577 0.0
C499 C 0.06506 0.90572 0.56174 0.0
C500 C 0.05407 0.91802 0.60095 0.0
H501 H 0.07547 0.92258 0.50425 0.0
H502 H 0.06809 0.87434 0.55117 0.0
C503 C 0.05099 0.95916 0.61355 0.0
C504 C 0.1466 0.76005 0.73712 0.0
C505 C 0.14092 0.72524 0.75496 0.0
H506 H 0.12466 0.7967 0.69917 0.0
C507 C 0.10899 0.69892 0.74658 0.0
H508 H 0.17126 0.78055 0.74352 0.0
C509 C 0.08244 0.70779 0.72121 0.0
C510 C 0.08739 0.74337 0.70418 0.0
H511 H 0.10436 0.67204 0.76042 0.0
H512 H 0.05765 0.68729 0.71578 0.0
C513 C 0.11997 0.76918 0.71198 0.0
C514 C 0.03078 0.63364 0.5178 0.0
C515 C 0.99469 0.62683 0.50303 0.0
H516 H 0.07029 0.6747 0.55254 0.0
C517 C 0.97217 0.65869 0.5074 0.0
H518 H 0.04843 0.60932 0.51498 0.0
C519 C 0.98403 0.69553 0.52977 0.0
C520 C 0.01908 0.70147 0.54725 0.0
H521 H 0.94438 0.65405 0.49576 0.0
H522 H 0.96524 0.7188 0.53464 0.0
C523 C 0.04304 0.67087 0.53955 0.0
C524 C 0.73985 0.8725 0.2107 0.0
C525 C 0.74035 0.84569 0.23815 0.0
H526 H 0.76198 0.92872 0.19401 0.0
C527 C 0.76666 0.85342 0.26836 0.0
H528 H 0.71942 0.86724 0.18751 0.0
C529 C 0.79052 0.88876 0.27268 0.0
C530 C 0.78867 0.91692 0.24661 0.0
H531 H 0.76743 0.83292 0.28973 0.0
H532 H 0.80966 0.89452 0.29712 0.0
C533 C 0.76389 0.90783 0.21481 0.0
C534 C 0.73857 0.14815 0.35152 0.0
C535 C 0.74136 0.16937 0.31923 0.0
H536 H 0.75922 0.10204 0.37927 0.0
C537 C 0.77004 0.163 0.29166 0.0
H538 H 0.71651 0.1527 0.37302 0.0
C539 C 0.79411 0.13391 0.29476 0.0
C540 C 0.79016 0.11083 0.3258 0.0
H541 H 0.77295 0.17966 0.26693 0.0
H542 H 0.81521 0.1288 0.27223 0.0
C543 C 0.76283 0.11909 0.35485 0.0
C544 C 0.37796 0.99482 0.98063 0.0
C545 C 0.4087 1.00715 1.00487 0.0
H546 H 0.32431 0.96238 0.97473 0.0
C547 C 0.4097 0.99474 0.04203 0.0
H548 H 0.37688 1.00449 0.95196 0.0
C549 C 0.37965 0.97132 0.05547 0.0
C550 C 0.34833 0.9596 0.03165 0.0
H551 H 0.4334 1.00421 0.06095 0.0
H552 H 0.38082 0.96276 0.08462 0.0
C553 C 0.34803 0.97098 0.99379 0.0
C554 C 0.23527 0.36808 0.27699 0.0
C555 C 0.25906 0.36811 0.30861 0.0
H556 H 0.19405 0.3981 0.25256 0.0
C557 C 0.25834 0.39817 0.34146 0.0
H558 H 0.23529 0.34469 0.25166 0.0
C559 C 0.2348 0.42858 0.34228 0.0
C560 C 0.21153 0.42935 0.31019 0.0
H561 H 0.27651 0.39837 0.36613 0.0
H562 H 0.23529 0.4518 0.36779 0.0
C563 C 0.21173 0.3985 0.27768 0.0
C564 C 0.12095 0.06101 0.54547 0.0
C565 C 0.11315 0.0378 0.50868 0.0
H566 H 0.15991 0.10235 0.58053 0.0
C567 C 0.14098 0.03592 0.47943 0.0
H568 H 0.09979 0.06344 0.5682 0.0
C569 C 0.17507 0.059 0.48587 0.0
C570 C 0.18228 0.08394 0.52203 0.0
H571 H 0.13562 0.01793 0.45089 0.0
H572 H 0.19544 0.0579 0.46227 0.0
C573 C 0.15523 0.0837 0.55219 0.0
C574 C 0.75757 0.18212 0.81504 0.0
C575 C 0.77714 0.17726 0.77917 0.0
H576 H 0.71608 0.15606 0.85165 0.0
C577 C 0.77374 0.13979 0.755 0.0
H578 H 0.7596 0.21102 0.83379 0.0
C579 C 0.74835 0.10888 0.76442 0.0
C580 C 0.72635 0.11468 0.79865 0.0
H581 H 0.7887 0.13562 0.72722 0.0
H582 H 0.74483 0.08105 0.74401 0.0
C583 C 0.73244 0.15088 0.82489 0.0
C584 C 0.37512 1.00253 0.55716 0.0
C585 C 0.41206 0.01809 0.554 0.0
H586 H 0.31821 0.01211 0.55246 0.0
C587 C 0.42007 0.05637 0.543 0.0
H588 H 0.36853 0.97309 0.56581 0.0
C589 C 0.39139 0.07875 0.53502 0.0
C590 C 0.35425 0.06328 0.53837 0.0
H591 H 0.44851 0.06867 0.54032 0.0
H592 H 0.3983 0.10825 0.52661 0.0
C593 C 0.34647 0.02493 0.54958 0.0
C594 C 0.59434 0.46891 0.50227 0.0
C595 C 0.58828 0.49208 0.53889 0.0
H596 H 0.63055 0.43126 0.46711 0.0
C597 C 0.61682 0.4994 0.56677 0.0
H598 H 0.57245 0.46237 0.48069 0.0
C599 C 0.64943 0.48062 0.55979 0.0
C600 C 0.65448 0.45488 0.52433 0.0
H601 H 0.61257 0.5172 0.59523 0.0
H602 H 0.67006 0.48504 0.58277 0.0
C603 C 0.62735 0.45069 0.49488 0.0
C604 C 0.69715 0.2489 0.40805 0.0
C605 C 0.7185 0.24288 0.37348 0.0
H606 H 0.69272 0.28131 0.46628 0.0
C607 C 0.75464 0.26153 0.37299 0.0
H608 H 0.66927 0.23444 0.40888 0.0
C609 C 0.76825 0.28834 0.40573 0.0
C610 C 0.74572 0.29699 0.43928 0.0
H611 H 0.7713 0.25743 0.34636 0.0
H612 H 0.79561 0.30386 0.40388 0.0
C613 C 0.71053 0.27585 0.44065 0.0
C614 C 0.54444 0.0387 0.9318 0.0
C615 C 0.51711 0.06563 0.93536 0.0
H616 H 0.58931 0.01493 0.89748 0.0
C617 C 0.51678 0.09296 0.90838 0.0
H618 H 0.54541 0.01777 0.95272 0.0
C619 C 0.54197 0.09159 0.87672 0.0
C620 C 0.56777 0.0627 0.87157 0.0
H621 H 0.49576 0.11382 0.9106 0.0
H622 H 0.54013 0.11197 0.85541 0.0
C623 C 0.56942 0.03709 0.90016 0.0
C624 C 0.3336 0.27218 0.38794 0.0
C625 C 0.32593 0.26017 0.34766 0.0
H626 H 0.33348 0.25517 0.44579 0.0
C627 C 0.31708 0.21915 0.33405 0.0
H628 H 0.33963 0.3038 0.3992 0.0
C629 C 0.31347 0.1911 0.36068 0.0
C630 C 0.3179 0.20375 0.40155 0.0
H631 H 0.30989 0.20933 0.30341 0.0
H632 H 0.30479 0.15997 0.34951 0.0
C633 C 0.32935 0.24442 0.41465 0.0
C634 C 0.49116 0.47216 0.90884 0.0
C635 C 0.49685 0.50801 0.93526 0.0
H636 H 0.46143 0.44033 0.85876 0.0
C637 C 0.47577 0.53986 0.93188 0.0
H638 H 0.50721 0.4473 0.91135 0.0
C639 C 0.44945 0.53605 0.90203 0.0
C640 C 0.44391 0.50025 0.87509 0.0
H641 H 0.47972 0.56755 0.95241 0.0
H642 H 0.43367 0.56122 0.89989 0.0
C643 C 0.465 0.4683 0.87893 0.0
C644 C 0.69828 0.77962 0.13718 0.0
C645 C 0.71704 0.77748 0.17198 0.0
H646 H 0.69617 0.76397 0.0744 0.0
C647 C 0.75087 0.76058 0.16962 0.0
H648 H 0.67201 0.79242 0.13864 0.0
C649 C 0.7646 0.74362 0.13299 0.0
C650 C 0.74477 0.74373 0.09815 0.0
H651 H 0.76544 0.75838 0.19633 0.0
H652 H 0.78992 0.72907 0.13216 0.0
C653 C 0.71211 0.76319 0.10056 0.0
C654 C 0.97156 0.03305 0.15005 0.0
C655 C 0.97669 0.999 0.12245 0.0
H656 H 0.94513 0.05668 0.20369 0.0
C657 C 0.95825 0.96175 0.12762 0.0
H658 H 0.98576 0.06198 0.14638 0.0
C659 C 0.93538 0.95841 0.16052 0.0
C660 C 0.93029 0.99248 0.18841 0.0
H661 H 0.96169 0.93534 0.1062 0.0
H662 H 0.92154 0.92924 0.16394 0.0
C663 C 0.94844 0.0299 0.18271 0.0
C664 C 0.32428 0.78481 0.16044 0.0
C665 C 0.30048 0.7888 0.19317 0.0
H666 H 0.33705 0.79998 0.10294 0.0
C667 C 0.27169 0.81368 0.19397 0.0
H668 H 0.34638 0.76537 0.15937 0.0
C669 C 0.26598 0.83334 0.16173 0.0
C670 C 0.289 0.82829 0.12813 0.0
H671 H 0.25294 0.81667 0.21902 0.0
H672 H 0.24297 0.85157 0.1627 0.0
C673 C 0.31867 0.80442 0.12821 0.0
C674 C 0.06132 0.50654 0.10219 0.0
C675 C 0.02859 0.48263 0.10842 0.0
H676 H 0.11407 0.53243 0.12507 0.0
C677 C 0.02479 0.46424 0.14253 0.0
H678 H 0.06432 0.52147 0.07628 0.0
C679 C 0.05268 0.47119 0.171 0.0
C680 C 0.08508 0.4963 0.16553 0.0
H681 H 0.99937 0.44631 0.14802 0.0
H682 H 0.0485 0.45765 0.19769 0.0
C683 C 0.08951 0.51298 0.13026 0.0
C684 C 0.34441 0.76005 0.3416 0.0
C685 C 0.34306 0.73124 0.30761 0.0
H686 H 0.3704 0.78223 0.3969 0.0
C687 C 0.36591 0.69976 0.30492 0.0
H688 H 0.32693 0.78451 0.34413 0.0
C689 C 0.39132 0.69847 0.33495 0.0
C690 C 0.394 0.72857 0.36827 0.0
H691 H 0.36538 0.67743 0.27869 0.0
H692 H 0.40976 0.67485 0.33135 0.0
C693 C 0.36939 0.75865 0.37169 0.0
C694 C 0.02845 0.41083 0.0293 0.0
C695 C 0.99411 0.41324 0.04853 0.0
H696 H 0.06382 0.37351 0.99263 0.0
C697 C 0.97067 0.37785 0.04968 0.0
H698 H 0.04676 0.43784 0.02777 0.0
C699 C 0.97991 0.3412 0.02906 0.0
C700 C 0.01306 0.33914 1.00723 0.0
H701 H 0.94416 0.3791 0.06465 0.0
H702 H 0.96034 0.31485 0.02889 0.0
C703 C 0.03795 0.37405 0.00891 0.0
C704 C 0.63343 0.75973 0.32069 0.0
C705 C 0.62815 0.76956 0.28301 0.0
H706 H 0.60802 0.74306 0.37355 0.0
C707 C 0.59213 0.76931 0.26913 0.0
H708 H 0.66111 0.75969 0.33173 0.0
C709 C 0.56171 0.7599 0.29287 0.0
C710 C 0.56685 0.75051 0.33091 0.0
H711 H 0.58764 0.77721 0.24023 0.0
H712 H 0.5342 0.76034 0.28151 0.0
C713 C 0.60307 0.75024 0.34446 0.0
C714 C 0.04573 0.09557 0.02468 0.0
C715 C 0.03802 0.05448 0.01072 0.0
H716 H 0.04449 0.15592 0.01302 0.0
C717 C 0.02753 0.04255 0.97126 0.0
H718 H 0.05292 0.10529 0.05535 0.0
C719 C 0.02234 0.07139 0.94689 0.0
C720 C 0.02698 0.11267 0.96193 0.0
H721 H 0.02044 0.01102 0.96035 0.0
H722 H 0.0124 0.0613 0.91716 0.0
C723 C 0.04017 0.12442 1.00063 0.0
C724 C 0.36683 0.25712 0.24744 0.0
C725 C 0.36756 0.29176 0.27569 0.0
H726 H 0.39308 0.22604 0.19687 0.0
C727 C 0.3984 0.32047 0.27666 0.0
H728 H 0.34285 0.23525 0.24529 0.0
C729 C 0.42659 0.31616 0.24816 0.0
C730 C 0.42478 0.28268 0.21828 0.0
H731 H 0.39912 0.34784 0.2977 0.0
H732 H 0.44911 0.33974 0.24876 0.0
C733 C 0.39528 0.25243 0.21923 0.0
C734 C 0.55632 0.48737 0.08566 0.0
C735 C 0.56485 0.47403 0.046 0.0
H736 H 0.54336 0.47092 0.14292 0.0
C737 C 0.57119 0.43362 0.03474 0.0
H738 H 0.55007 0.5181 0.09462 0.0
C739 C 0.56608 0.4063 0.06176 0.0
C740 C 0.55496 0.41897 0.10085 0.0
H741 H 0.57676 0.42256 1.00407 0.0
H742 H 0.56914 0.37486 0.0515 0.0
C743 C 0.55185 0.46017 0.11302 0.0
C744 C 0.60964 0.19899 0.24613 0.0
C745 C 0.64176 0.22504 0.25433 0.0
H746 H 0.55824 0.18768 0.21542 0.0
C747 C 0.64776 0.25964 0.23618 0.0
H748 H 0.60475 0.17229 0.26021 0.0
C749 C 0.62125 0.26886 0.21096 0.0
C750 C 0.58846 0.24335 0.20339 0.0
H751 H 0.67257 0.27994 0.24244 0.0
H752 H 0.62617 0.29623 0.19795 0.0
C753 C 0.5832 0.20794 0.22067 0.0
C754 C 0.47213 0.16329 1.00418 0.0
C755 C 0.49297 0.1301 1.0009 0.0
H756 H 0.46709 0.22391 0.03124 0.0
C757 C 0.52857 0.13506 0.01693 0.0
H758 H 0.44478 0.16008 0.99151 0.0
C759 C 0.54172 0.17176 0.03908 0.0
C760 C 0.51908 0.20362 0.04596 0.0
H761 H 0.54489 0.10968 0.01495 0.0
H762 H 0.5684 0.17416 0.05317 0.0
C763 C 0.48479 0.19959 0.02703 0.0
C764 C 0.2734 0.35355 0.75508 0.0
C765 C 0.23868 0.35159 0.73761 0.0
H766 H 0.32224 0.39087 0.77562 0.0
C767 C 0.22746 0.38569 0.72425 0.0
H768 H 0.28194 0.32757 0.76629 0.0
C769 C 0.25032 0.42182 0.72934 0.0
C770 C 0.28432 0.42452 0.74883 0.0
H771 H 0.20031 0.3847 0.71154 0.0
H772 H 0.24061 0.44805 0.71966 0.0
C773 C 0.29601 0.3898 0.76089 0.0
C774 C 0.26984 0.6641 0.7923 0.0
C775 C 0.24066 0.66936 0.81943 0.0
H776 H 0.31583 0.63112 0.77307 0.0
C777 C 0.23762 0.6473 0.8511 0.0
H778 H 0.27291 0.68141 0.76806 0.0
C779 C 0.26221 0.61852 0.85423 0.0
C780 C 0.29016 0.61145 0.82564 0.0
H781 H 0.21517 0.65101 0.87224 0.0
H782 H 0.25842 0.60081 0.87814 0.0
C783 C 0.29431 0.63535 0.79526 0.0
C784 C 0.92051 0.46481 0.51193 0.0
C785 C 0.91274 0.50074 0.49947 0.0
H786 H 0.89849 0.41039 0.53236 0.0
C787 C 0.87595 0.5091 0.49695 0.0
H788 H 0.94887 0.45816 0.51419 0.0
C789 C 0.84716 0.48205 0.50717 0.0
C790 C 0.85477 0.44624 0.52035 0.0
H791 H 0.86964 0.53671 0.4872 0.0
H792 H 0.819 0.48946 0.50517 0.0
C793 C 0.89174 0.43777 0.52244 0.0
C794 C 0.75413 0.89564 0.83848 0.0
C795 C 0.75425 0.86594 0.80528 0.0
H796 H 0.73195 0.94942 0.8658 0.0
C797 C 0.73013 0.8666 0.7741 0.0
H798 H 0.77258 0.89532 0.8628 0.0
C799 C 0.70688 0.89741 0.77558 0.0
C800 C 0.70737 0.92797 0.8084 0.0
H801 H 0.72972 0.84351 0.7485 0.0
H802 H 0.68899 0.89762 0.75076 0.0
C803 C 0.73092 0.92644 0.84007 0.0
C804 C 0.62218 0.56174 0.04517 0.0
C805 C 0.61468 0.53825 0.00845 0.0
H806 H 0.66078 0.60356 0.08023 0.0
C807 C 0.64271 0.53628 0.97942 0.0
H808 H 0.60085 0.56426 0.0677 0.0
C809 C 0.67668 0.55956 0.98596 0.0
C810 C 0.68358 0.58482 0.022 0.0
H811 H 0.63755 0.51813 0.95092 0.0
H812 H 0.69717 0.55844 0.96248 0.0
C813 C 0.65636 0.58464 0.05199 0.0
C814 C 0.26985 0.64166 0.24491 0.0
C815 C 0.2761 0.67744 0.27146 0.0
H816 H 0.23911 0.58397 0.2323 0.0
C817 C 0.25916 0.68028 0.30881 0.0
H818 H 0.28297 0.63888 0.21607 0.0
C819 C 0.23427 0.64874 0.3184 0.0
C820 C 0.22566 0.61424 0.29047 0.0
H821 H 0.26338 0.70783 0.32949 0.0
H822 H 0.22033 0.65231 0.34681 0.0
C823 C 0.24458 0.61051 0.25411 0.0
C824 C 0.92314 0.56311 0.04034 0.0
C825 C 0.91628 0.52663 0.05532 0.0
H826 H 0.89984 0.61317 0.0219 0.0
C827 C 0.87985 0.51267 0.06386 0.0
H828 H 0.95114 0.57417 0.03343 0.0
C829 C 0.85058 0.53475 0.05748 0.0
C830 C 0.85717 0.5712 0.04215 0.0
H831 H 0.87415 0.48465 0.07562 0.0
H832 H 0.82275 0.52308 0.06438 0.0
C833 C 0.89381 0.58518 0.03364 0.0
C834 C 0.09323 0.97141 1.00208 0.0
C835 C 0.08864 0.99579 0.03836 0.0
H836 H 0.12769 0.93187 0.96667 0.0
C837 C 0.11819 1.00354 0.06501 0.0
H838 H 0.07054 0.96458 0.98145 0.0
C839 C 0.15029 0.98395 0.05738 0.0
C840 C 0.15379 0.95689 0.02247 0.0
H841 H 0.11506 0.02222 0.09322 0.0
H842 H 0.17168 0.9887 0.07957 0.0
C843 C 0.12571 0.95231 0.99401 0.0
loop_
_geom_bond_atom_site_label_1
_geom_bond_atom_site_label_2
_geom_bond_distance
_geom_bond_site_symmetry_2
_ccdc_geom_bond_type
C0 N1 1.317 1_565 S
C0 N2 1.348 1_465 S
C0 C3 1.485 . S
N1 C0 1.317 1_545 S
N1 N5 1.370 . S
N2 C0 1.348 1_645 S
N2 C4 1.346 . S
C3 C0 1.485 . S
C3 H7 0.960 . S
C3 H8 0.961 . S
C3 H9 0.960 . S
C4 N2 1.346 . S
C4 N5 1.307 1_655 S
C4 C6 1.486 . S
N5 N1 1.370 . S
N5 C4 1.307 1_455 S
C6 C4 1.486 . S
C6 H10 0.960 . S
C6 H11 0.960 . S
C6 H12 0.959 . S
H7 C3 0.960 . S
H8 C3 0.961 . S
H9 C3 0.960 . S
H10 C6 0.960 . S
H11 C6 0.960 . S
H12 C6 0.959 . S
C13 N14 1.317 . S
C13 N15 1.348 . S
C13 C16 1.485 . S
N14 C13 1.317 . S
N14 N18 1.370 . S
N15 C13 1.348 . S
N15 C17 1.346 . S
C16 C13 1.485 . S
C16 H20 0.960 . S
C16 H21 0.961 . S
C16 H22 0.960 . S
C17 N15 1.346 . S
C17 N18 1.307 . S
C17 C19 1.486 . S
N18 N14 1.370 . S
N18 C17 1.307 . S
C19 C17 1.486 . S
C19 H23 0.960 . S
C19 H24 0.960 . S
C19 H25 0.959 . S
H20 C16 0.960 . S
H21 C16 0.961 . S
H22 C16 0.960 . S
H23 C19 0.960 . S
H24 C19 0.960 . S
H25 C19 0.959 . S
C26 N27 1.317 . S
C26 N28 1.348 . S
C26 C29 1.485 . S
N27 C26 1.317 . S
N27 N31 1.370 . S
N28 C26 1.348 . S
N28 C30 1.346 . S
C29 C26 1.485 . S
C29 H33 0.960 . S
C29 H34 0.961 . S
C29 H35 0.960 . S
C30 N28 1.346 . S
C30 N31 1.307 . S
C30 C32 1.486 1_554 S
N31 N27 1.370 . S
N31 C30 1.307 . S
C32 C30 1.486 1_556 S
C32 H36 0.960 . S
C32 H37 0.960 . S
C32 H38 0.959 . S
H33 C29 0.960 . S
H34 C29 0.961 . S
H35 C29 0.960 . S
H36 C32 0.960 . S
H37 C32 0.960 . S
H38 C32 0.959 . S
C39 N40 1.317 . S
C39 N41 1.348 . S
C39 C42 1.485 . S
N40 C39 1.317 . S
N40 N44 1.370 . S
N41 C39 1.348 . S
N41 C43 1.346 . S
C42 C39 1.485 . S
C42 H46 0.960 . S
C42 H47 0.961 . S
C42 H48 0.960 . S
C43 N41 1.346 . S
C43 N44 1.307 . S
C43 C45 1.486 . S
N44 N40 1.370 . S
N44 C43 1.307 . S
C45 C43 1.486 . S
C45 H49 0.960 . S
C45 H50 0.960 . S
C45 H51 0.959 . S
H46 C42 0.960 . S
H47 C42 0.961 . S
H48 C42 0.960 . S
H49 C45 0.960 . S
H50 C45 0.960 . S
H51 C45 0.959 . S
C52 N53 1.317 . S
C52 N54 1.348 . S
C52 C55 1.485 1_455 S
N53 C52 1.317 . S
N53 N57 1.370 . S
N54 C52 1.348 . S
N54 C56 1.346 1_565 S
C55 C52 1.485 1_655 S
C55 H59 0.960 . S
C55 H60 0.961 . S
C55 H61 0.960 . S
C56 N54 1.346 1_545 S
C56 N57 1.307 1_545 S
C56 C58 1.486 . S
N57 N53 1.370 . S
N57 C56 1.307 1_565 S
C58 C56 1.486 . S
C58 H62 0.960 . S
C58 H63 0.960 . S
C58 H64 0.959 . S
H59 C55 0.960 . S
H60 C55 0.961 . S
H61 C55 0.960 . S
H62 C58 0.960 . S
H63 C58 0.960 . S
H64 C58 0.959 . S
C65 N66 1.317 . S
C65 N67 1.348 . S
C65 C68 1.485 . S
N66 C65 1.317 . S
N66 N70 1.370 . S
N67 C65 1.348 . S
N67 C69 1.346 . S
C68 C65 1.485 . S
C68 H72 0.960 . S
C68 H73 0.961 . S
C68 H74 0.960 . S
C69 N67 1.346 . S
C69 N70 1.307 . S
C69 C71 1.486 . S
N70 N66 1.370 . S
N70 C69 1.307 . S
C71 C69 1.486 . S
C71 H75 0.960 . S
C71 H76 0.960 . S
C71 H77 0.959 . S
H72 C68 0.960 . S
H73 C68 0.961 . S
H74 C68 0.960 . S
H75 C71 0.960 . S
H76 C71 0.960 . S
H77 C71 0.959 . S
C78 N79 1.317 . S
C78 N80 1.348 . S
C78 C81 1.485 . S
N79 C78 1.317 . S
N79 N83 1.370 . S
N80 C78 1.348 . S
N80 C82 1.346 . S
C81 C78 1.485 . S
C81 H85 0.960 . S
C81 H86 0.961 . S
C81 H87 0.960 . S
C82 N80 1.346 . S
C82 N83 1.307 . S
C82 C84 1.486 . S
N83 N79 1.370 . S
N83 C82 1.307 . S
C84 C82 1.486 . S
C84 H88 0.960 . S
C84 H89 0.960 . S
C84 H90 0.959 . S
H85 C81 0.960 . S
H86 C81 0.961 . S
H87 C81 0.960 . S
H88 C84 0.960 . S
H89 C84 0.960 . S
H90 C84 0.959 . S
C91 N92 1.317 . S
C91 N93 1.348 . S
C91 C94 1.485 . S
N92 C91 1.317 . S
N92 N96 1.370 . S
N93 C91 1.348 . S
N93 C95 1.346 . S
C94 C91 1.485 . S
C94 H98 0.960 . S
C94 H99 0.961 . S
C94 H100 0.960 . S
C95 N93 1.346 . S
C95 N96 1.307 . S
C95 C97 1.486 . S
N96 N92 1.370 . S
N96 C95 1.307 . S
C97 C95 1.486 . S
C97 H101 0.960 . S
C97 H102 0.960 . S
C97 H103 0.959 . S
H98 C94 0.960 . S
H99 C94 0.961 . S
H100 C94 0.960 . S
H101 C97 0.960 . S
H102 C97 0.960 . S
H103 C97 0.959 . S
C104 N105 1.317 . S
C104 N106 1.348 . S
C104 C107 1.485 . S
N105 C104 1.317 . S
N105 N109 1.370 . S
N106 C104 1.348 . S
N106 C108 1.346 . S
C107 C104 1.485 . S
C107 H111 0.960 . S
C107 H112 0.961 . S
C107 H113 0.960 . S
C108 N106 1.346 . S
C108 N109 1.307 . S
C108 C110 1.486 . S
N109 N105 1.370 . S
N109 C108 1.307 . S
C110 C108 1.486 . S
C110 H114 0.960 . S
C110 H115 0.960 . S
C110 H116 0.959 . S
H111 C107 0.960 . S
H112 C107 0.961 . S
H113 C107 0.960 . S
H114 C110 0.960 . S
H115 C110 0.960 . S
H116 C110 0.959 . S
C117 N118 1.317 . S
C117 N119 1.348 . S
C117 C120 1.485 1_565 S
N118 C117 1.317 . S
N118 N122 1.370 . S
N119 C117 1.348 . S
N119 C121 1.346 . S
C120 C117 1.485 1_545 S
C120 H124 0.960 . S
C120 H125 0.961 . S
C120 H126 0.960 . S
C121 N119 1.346 . S
C121 N122 1.307 . S
C121 C123 1.486 . S
N122 N118 1.370 . S
N122 C121 1.307 . S
C123 C121 1.486 . S
C123 H127 0.960 . S
C123 H128 0.960 . S
C123 H129 0.959 . S
H124 C120 0.960 . S
H125 C120 0.961 . S
H126 C120 0.960 . S
H127 C123 0.960 . S
H128 C123 0.960 . S
H129 C123 0.959 . S
C130 N131 1.317 . S
C130 N132 1.348 . S
C130 C133 1.485 . S
N131 C130 1.317 . S
N131 N135 1.370 . S
N132 C130 1.348 . S
N132 C134 1.346 . S
C133 C130 1.485 . S
C133 H137 0.960 . S
C133 H138 0.961 . S
C133 H139 0.960 . S
C134 N132 1.346 . S
C134 N135 1.307 . S
C134 C136 1.486 . S
N135 N131 1.370 . S
N135 C134 1.307 . S
C136 C134 1.486 . S
C136 H140 0.960 . S
C136 H141 0.960 . S
C136 H142 0.959 . S
H137 C133 0.960 . S
H138 C133 0.961 . S
H139 C133 0.960 . S
H140 C136 0.960 . S
H141 C136 0.960 . S
H142 C136 0.959 . S
C143 N144 1.317 . S
C143 N145 1.348 . S
C143 C146 1.485 . S
N144 C143 1.317 . S
N144 N148 1.370 . S
N145 C143 1.348 . S
N145 C147 1.346 . S
C146 C143 1.485 . S
C146 H150 0.960 . S
C146 H151 0.961 . S
C146 H152 0.960 . S
C147 N145 1.346 . S
C147 N148 1.307 . S
C147 C149 1.486 . S
N148 N144 1.370 . S
N148 C147 1.307 . S
C149 C147 1.486 . S
C149 H153 0.960 . S
C149 H154 0.960 . S
C149 H155 0.959 . S
H150 C146 0.960 . S
H151 C146 0.961 . S
H152 C146 0.960 . S
H153 C149 0.960 . S
H154 C149 0.960 . S
H155 C149 0.959 . S
C156 N157 1.317 . S
C156 N158 1.348 . S
C156 C159 1.485 . S
N157 C156 1.317 . S
N157 N161 1.370 . S
N158 C156 1.348 . S
N158 C160 1.346 . S
C159 C156 1.485 . S
C159 H163 0.960 . S
C159 H164 0.961 . S
C159 H165 0.960 . S
C160 N158 1.346 . S
C160 N161 1.307 . S
C160 C162 1.486 . S
N161 N157 1.370 . S
N161 C160 1.307 . S
C162 C160 1.486 . S
C162 H166 0.960 . S
C162 H167 0.960 . S
C162 H168 0.959 . S
H163 C159 0.960 . S
H164 C159 0.961 . S
H165 C159 0.960 . S
H166 C162 0.960 . S
H167 C162 0.960 . S
H168 C162 0.959 . S
C169 N170 1.317 . S
C169 N171 1.348 . S
C169 C172 1.485 . S
N170 C169 1.317 . S
N170 N174 1.370 . S
N171 C169 1.348 . S
N171 C173 1.346 . S
C172 C169 1.485 . S
C172 H176 0.960 . S
C172 H177 0.961 . S
C172 H178 0.960 . S
C173 N171 1.346 . S
C173 N174 1.307 . S
C173 C175 1.486 . S
N174 N170 1.370 . S
N174 C173 1.307 . S
C175 C173 1.486 . S
C175 H179 0.960 . S
C175 H180 0.960 . S
C175 H181 0.959 . S
H176 C172 0.960 . S
H177 C172 0.961 . S
H178 C172 0.960 . S
H179 C175 0.960 . S
H180 C175 0.960 . S
H181 C175 0.959 . S
C182 N183 1.317 . S
C182 N184 1.348 . S
C182 C185 1.485 . S
N183 C182 1.317 . S
N183 N187 1.370 . S
N184 C182 1.348 . S
N184 C186 1.346 . S
C185 C182 1.485 . S
C185 H189 0.960 . S
C185 H190 0.961 . S
C185 H191 0.960 . S
C186 N184 1.346 . S
C186 N187 1.307 . S
C186 C188 1.486 . S
N187 N183 1.370 . S
N187 C186 1.307 . S
C188 C186 1.486 . S
C188 H192 0.960 . S
C188 H193 0.960 . S
C188 H194 0.959 . S
H189 C185 0.960 . S
H190 C185 0.961 . S
H191 C185 0.960 . S
H192 C188 0.960 . S
H193 C188 0.960 . S
H194 C188 0.959 . S
C195 N196 1.317 . S
C195 N197 1.348 . S
C195 C198 1.485 1_545 S
N196 C195 1.317 . S
N196 N200 1.370 . S
N197 C195 1.348 . S
N197 C199 1.346 1_556 S
C198 C195 1.485 1_565 S
C198 H202 0.960 . S
C198 H203 0.961 . S
C198 H204 0.960 . S
C199 N197 1.346 1_554 S
C199 N200 1.307 1_554 S
C199 C201 1.486 . S
N200 N196 1.370 . S
N200 C199 1.307 1_556 S
C201 C199 1.486 . S
C201 H205 0.960 . S
C201 H206 0.960 . S
C201 H207 0.959 . S
H202 C198 0.960 . S
H203 C198 0.961 . S
H204 C198 0.960 . S
H205 C201 0.960 . S
H206 C201 0.960 . S
H207 C201 0.959 . S
C208 O209 1.160 1_554 S
C208 O215 1.185 . S
O209 C208 1.160 1_556 S
O210 Zn211 1.899 1_556 S
O210 C218 1.284 . S
Zn211 O210 1.899 1_554 S
Zn211 O212 2.032 . S
Zn211 O215 2.086 . S
Zn211 O220 1.977 . S
O212 Zn211 2.032 . S
O212 C216 1.278 . S
C213 O214 1.203 . S
C213 O220 1.267 . S
O214 C213 1.203 . S
O215 C208 1.185 . S
O215 Zn211 2.086 . S
C216 O212 1.278 . S
C216 O217 1.211 . S
O217 C216 1.211 . S
C218 O210 1.284 . S
C218 O219 1.273 . S
O219 C218 1.273 . S
O220 Zn211 1.977 . S
O220 C213 1.267 . S
C221 O222 1.160 . S
C221 O228 1.185 . S
O222 C221 1.160 . S
O223 Zn224 1.899 . S
O223 C231 1.284 . S
Zn224 O223 1.899 . S
Zn224 O225 2.032 . S
Zn224 O228 2.086 . S
Zn224 O233 1.977 . S
O225 Zn224 2.032 . S
O225 C229 1.278 . S
C226 O227 1.203 . S
C226 O233 1.267 . S
O227 C226 1.203 . S
O228 C221 1.185 . S
O228 Zn224 2.086 . S
C229 O225 1.278 . S
C229 O230 1.211 . S
O230 C229 1.211 . S
C231 O223 1.284 . S
C231 O232 1.273 . S
O232 C231 1.273 . S
O233 Zn224 1.977 . S
O233 C226 1.267 . S
C234 O235 1.160 1_554 S
C234 O241 1.185 . S
O235 C234 1.160 1_556 S
O236 Zn237 1.899 1_556 S
O236 C244 1.284 . S
Zn237 O236 1.899 1_554 S
Zn237 O238 2.032 1_554 S
Zn237 O241 2.086 . S
Zn237 O246 1.977 . S
O238 Zn237 2.032 1_556 S
O238 C242 1.278 . S
C239 O240 1.203 . S
C239 O246 1.267 . S
O240 C239 1.203 . S
O241 C234 1.185 . S
O241 Zn237 2.086 . S
C242 O238 1.278 . S
C242 O243 1.211 1_556 S
O243 C242 1.211 1_554 S
C244 O236 1.284 . S
C244 O245 1.273 . S
O245 C244 1.273 . S
O246 Zn237 1.977 . S
O246 C239 1.267 . S
C247 O248 1.160 . S
C247 O254 1.185 . S
O248 C247 1.160 . S
O249 Zn250 1.899 . S
O249 C257 1.284 . S
Zn250 O249 1.899 . S
Zn250 O251 2.032 1_545 S
Zn250 O254 2.086 . S
Zn250 O259 1.977 . S
O251 Zn250 2.032 1_565 S
O251 C255 1.278 . S
C252 O253 1.203 1_545 S
C252 O259 1.267 . S
O253 C252 1.203 1_565 S
O254 C247 1.185 . S
O254 Zn250 2.086 . S
C255 O251 1.278 . S
C255 O256 1.211 . S
O256 C255 1.211 . S
C257 O249 1.284 . S
C257 O258 1.273 1_545 S
O258 C257 1.273 1_565 S
O259 Zn250 1.977 . S
O259 C252 1.267 . S
C260 O261 1.160 . S
C260 O267 1.185 . S
O261 C260 1.160 . S
O262 Zn263 1.899 . S
O262 C270 1.284 . S
Zn263 O262 1.899 . S
Zn263 O264 2.032 . S
Zn263 O267 2.086 . S
Zn263 O272 1.977 . S
O264 Zn263 2.032 . S
O264 C268 1.278 . S
C265 O266 1.203 . S
C265 O272 1.267 . S
O266 C265 1.203 . S
O267 C260 1.185 . S
O267 Zn263 2.086 . S
C268 O264 1.278 . S
C268 O269 1.211 . S
O269 C268 1.211 . S
C270 O262 1.284 . S
C270 O271 1.273 . S
O271 C270 1.273 . S
O272 Zn263 1.977 . S
O272 C265 1.267 . S
C273 O274 1.160 . S
C273 O280 1.185 . S
O274 C273 1.160 . S
O275 Zn276 1.899 . S
O275 C283 1.284 . S
Zn276 O275 1.899 . S
Zn276 O277 2.032 . S
Zn276 O280 2.086 . S
Zn276 O285 1.977 . S
O277 Zn276 2.032 . S
O277 C281 1.278 . S
C278 O279 1.203 . S
C278 O285 1.267 . S
O279 C278 1.203 . S
O280 C273 1.185 . S
O280 Zn276 2.086 . S
C281 O277 1.278 . S
C281 O282 1.211 . S
O282 C281 1.211 . S
C283 O275 1.284 . S
C283 O284 1.273 . S
O284 C283 1.273 . S
O285 Zn276 1.977 . S
O285 C278 1.267 . S
C286 O287 1.160 . S
C286 O293 1.185 . S
O287 C286 1.160 . S
O288 Zn289 1.899 . S
O288 C296 1.284 . S
Zn289 O288 1.899 . S
Zn289 O290 2.032 . S
Zn289 O293 2.086 . S
Zn289 O298 1.977 . S
O290 Zn289 2.032 . S
O290 C294 1.278 . S
C291 O292 1.203 . S
C291 O298 1.267 . S
O292 C291 1.203 . S
O293 C286 1.185 . S
O293 Zn289 2.086 . S
C294 O290 1.278 . S
C294 O295 1.211 . S
O295 C294 1.211 . S
C296 O288 1.284 . S
C296 O297 1.273 . S
O297 C296 1.273 . S
O298 Zn289 1.977 . S
O298 C291 1.267 . S
C299 O300 1.160 . S
C299 O306 1.185 . S
O300 C299 1.160 . S
O301 Zn302 1.899 . S
O301 C309 1.284 1_565 S
Zn302 O301 1.899 . S
Zn302 O303 2.032 1_565 S
Zn302 O306 2.086 . S
Zn302 O311 1.977 . S
O303 Zn302 2.032 1_545 S
O303 C307 1.278 . S
C304 O305 1.203 1_565 S
C304 O311 1.267 . S
O305 C304 1.203 1_545 S
O306 C299 1.185 . S
O306 Zn302 2.086 . S
C307 O303 1.278 . S
C307 O308 1.211 . S
O308 C307 1.211 . S
C309 O301 1.284 1_545 S
C309 O310 1.273 . S
O310 C309 1.273 . S
O311 Zn302 1.977 . S
O311 C304 1.267 . S
C312 O313 1.160 . S
C312 O319 1.185 1_655 S
O313 C312 1.160 . S
O314 Zn315 1.899 1_655 S
O314 C322 1.284 . S
Zn315 O314 1.899 1_455 S
Zn315 O316 2.032 1_455 S
Zn315 O319 2.086 . S
Zn315 O324 1.977 . S
O316 Zn315 2.032 1_655 S
O316 C320 1.277 1_655 S
C317 O318 1.203 . S
C317 O324 1.267 . S
O318 C317 1.203 . S
O319 C312 1.185 1_455 S
O319 Zn315 2.086 . S
C320 O316 1.277 1_455 S
C320 O321 1.213 . S
O321 C320 1.213 . S
C322 O314 1.284 . S
C322 O323 1.273 . S
O323 C322 1.273 . S
O324 Zn315 1.977 . S
O324 C317 1.267 . S
C325 O326 1.160 . S
C325 O332 1.185 . S
O326 C325 1.160 . S
O327 Zn328 1.899 . S
O327 C335 1.284 . S
Zn328 O327 1.899 . S
Zn328 O329 2.032 . S
Zn328 O332 2.086 . S
Zn328 O337 1.977 . S
O329 Zn328 2.032 . S
O329 C333 1.278 . S
C330 O331 1.203 . S
C330 O337 1.267 . S
O331 C330 1.203 . S
O332 C325 1.185 . S
O332 Zn328 2.086 . S
C333 O329 1.278 . S
C333 O334 1.211 . S
O334 C333 1.211 . S
C335 O327 1.284 . S
C335 O336 1.273 . S
O336 C335 1.273 . S
O337 Zn328 1.977 . S
O337 C330 1.267 . S
C338 O339 1.160 1_455 S
C338 O345 1.185 . S
O339 C338 1.160 1_655 S
O340 Zn341 1.899 1_655 S
O340 C348 1.284 . S
Zn341 O340 1.899 1_455 S
Zn341 O342 2.032 . S
Zn341 O345 2.086 . S
Zn341 O350 1.977 . S
O342 Zn341 2.032 . S
O342 C346 1.278 . S
C343 O344 1.203 . S
C343 O350 1.267 . S
O344 C343 1.203 . S
O345 C338 1.185 . S
O345 Zn341 2.086 . S
C346 O342 1.278 . S
C346 O347 1.211 . S
O347 C346 1.211 . S
C348 O340 1.284 . S
C348 O349 1.273 . S
O349 C348 1.273 . S
O350 Zn341 1.977 . S
O350 C343 1.267 . S
C351 O352 1.160 . S
C351 O358 1.185 . S
O352 C351 1.160 . S
O353 Zn354 1.899 . S
O353 C361 1.284 . S
Zn354 O353 1.899 . S
Zn354 O355 2.032 . S
Zn354 O358 2.086 . S
Zn354 O363 1.977 . S
O355 Zn354 2.032 . S
O355 C359 1.278 . S
C356 O357 1.203 . S
C356 O363 1.267 . S
O357 C356 1.203 . S
O358 C351 1.185 . S
O358 Zn354 2.086 . S
C359 O355 1.278 . S
C359 O360 1.211 . S
O360 C359 1.211 . S
C361 O353 1.284 . S
C361 O362 1.273 . S
O362 C361 1.273 . S
O363 Zn354 1.977 . S
O363 C356 1.267 . S
C364 C365 1.387 . S
C364 H368 0.950 . S
C364 C373 1.390 . S
C365 C364 1.387 . S
C365 C367 1.387 . S
H366 C373 0.950 . S
C367 C365 1.387 . S
C367 C369 1.390 . S
C367 H371 0.950 . S
H368 C364 0.950 . S
C369 C367 1.390 . S
C369 C370 1.387 . S
C369 H372 0.950 . S
C370 C369 1.387 . S
C370 C373 1.387 . S
H371 C367 0.950 . S
H372 C369 0.950 . S
C373 C364 1.390 . S
C373 H366 0.950 . S
C373 C370 1.387 . S
C374 C375 1.387 . S
C374 H378 0.950 . S
C374 C383 1.390 . S
C375 C374 1.387 . S
C375 C377 1.387 . S
H376 C383 0.950 . S
C377 C375 1.387 . S
C377 C379 1.390 . S
C377 H381 0.950 . S
H378 C374 0.950 . S
C379 C377 1.390 . S
C379 C380 1.387 . S
C379 H382 0.950 . S
C380 C379 1.387 . S
C380 C383 1.387 . S
H381 C377 0.950 . S
H382 C379 0.950 . S
C383 C374 1.390 . S
C383 H376 0.950 . S
C383 C380 1.387 . S
C384 C385 1.387 . S
C384 H388 0.950 . S
C384 C393 1.390 . S
C385 C384 1.387 . S
C385 C387 1.387 . S
H386 C393 0.950 . S
C387 C385 1.387 . S
C387 C389 1.390 . S
C387 H391 0.950 . S
H388 C384 0.950 . S
C389 C387 1.390 . S
C389 C390 1.387 . S
C389 H392 0.950 . S
C390 C389 1.387 . S
C390 C393 1.387 . S
H391 C387 0.950 . S
H392 C389 0.950 . S
C393 C384 1.390 . S
C393 H386 0.950 . S
C393 C390 1.387 . S
C394 C395 1.387 1_545 S
C394 H398 0.950 . S
C394 C403 1.390 . S
C395 C394 1.387 1_565 S
C395 C397 1.387 . S
H396 C403 0.950 . S
C397 C395 1.387 . S
C397 C399 1.390 . S
C397 H401 0.950 . S
H398 C394 0.950 . S
C399 C397 1.390 . S
C399 C400 1.387 1_565 S
C399 H402 0.950 . S
C400 C399 1.387 1_545 S
C400 C403 1.387 . S
H401 C397 0.950 . S
H402 C399 0.950 . S
C403 C394 1.390 . S
C403 H396 0.950 . S
C403 C400 1.387 . S
C404 C405 1.387 . S
C404 H408 0.950 . S
C404 C413 1.390 . S
C405 C404 1.387 . S
C405 C407 1.387 . S
H406 C413 0.950 . S
C407 C405 1.387 . S
C407 C409 1.390 . S
C407 H411 0.950 . S
H408 C404 0.950 . S
C409 C407 1.390 . S
C409 C410 1.387 . S
C409 H412 0.950 . S
C410 C409 1.387 . S
C410 C413 1.387 . S
H411 C407 0.950 . S
H412 C409 0.950 . S
C413 C404 1.390 . S
C413 H406 0.950 . S
C413 C410 1.387 . S
C414 C415 1.387 . S
C414 H418 0.950 . S
C414 C423 1.390 . S
C415 C414 1.387 . S
C415 C417 1.387 . S
H416 C423 0.950 . S
C417 C415 1.387 . S
C417 C419 1.390 . S
C417 H421 0.950 . S
H418 C414 0.950 . S
C419 C417 1.390 . S
C419 C420 1.387 . S
C419 H422 0.950 . S
C420 C419 1.387 . S
C420 C423 1.387 . S
H421 C417 0.950 . S
H422 C419 0.950 . S
C423 C414 1.390 . S
C423 H416 0.950 . S
C423 C420 1.387 . S
C424 C425 1.387 . S
C424 H428 0.950 . S
C424 C433 1.390 . S
C425 C424 1.387 . S
C425 C427 1.387 . S
H426 C433 0.950 . S
C427 C425 1.387 . S
C427 C429 1.390 . S
C427 H431 0.950 . S
H428 C424 0.950 . S
C429 C427 1.390 . S
C429 C430 1.387 . S
C429 H432 0.950 . S
C430 C429 1.387 . S
C430 C433 1.387 . S
H431 C427 0.950 . S
H432 C429 0.950 . S
C433 C424 1.390 . S
C433 H426 0.950 . S
C433 C430 1.387 . S
C434 C435 1.387 . S
C434 H438 0.950 . S
C434 C443 1.390 . S
C435 C434 1.387 . S
C435 C437 1.387 1_565 S
H436 C443 0.950 . S
C437 C435 1.387 1_545 S
C437 C439 1.390 . S
C437 H441 0.950 . S
H438 C434 0.950 . S
C439 C437 1.390 . S
C439 C440 1.387 1_545 S
C439 H442 0.950 . S
C440 C439 1.387 1_565 S
C440 C443 1.387 . S
H441 C437 0.950 . S
H442 C439 0.950 . S
C443 C434 1.390 . S
C443 H436 0.950 . S
C443 C440 1.387 . S
C444 C445 1.387 . S
C444 H448 0.950 . S
C444 C453 1.390 . S
C445 C444 1.387 . S
C445 C447 1.387 . S
H446 C453 0.950 . S
C447 C445 1.387 . S
C447 C449 1.390 . S
C447 H451 0.950 . S
H448 C444 0.950 . S
C449 C447 1.390 . S
C449 C450 1.387 . S
C449 H452 0.950 . S
C450 C449 1.387 . S
C450 C453 1.387 . S
H451 C447 0.950 . S
H452 C449 0.950 . S
C453 C444 1.390 . S
C453 H446 0.950 . S
C453 C450 1.387 . S
C454 C455 1.387 . S
C454 H458 0.950 . S
C454 C463 1.390 . S
C455 C454 1.387 . S
C455 C457 1.387 . S
H456 C463 0.950 . S
C457 C455 1.387 . S
C457 C459 1.390 . S
C457 H461 0.950 . S
H458 C454 0.950 . S
C459 C457 1.390 . S
C459 C460 1.387 . S
C459 H462 0.950 . S
C460 C459 1.387 . S
C460 C463 1.387 . S
H461 C457 0.950 . S
H462 C459 0.950 . S
C463 C454 1.390 . S
C463 H456 0.950 . S
C463 C460 1.387 . S
C464 C465 1.387 . S
C464 H468 0.950 . S
C464 C473 1.390 . S
C465 C464 1.387 . S
C465 C467 1.387 . S
H466 C473 0.950 . S
C467 C465 1.387 . S
C467 C469 1.390 . S
C467 H471 0.950 . S
H468 C464 0.950 . S
C469 C467 1.390 . S
C469 C470 1.387 . S
C469 H472 0.950 . S
C470 C469 1.387 . S
C470 C473 1.387 . S
H471 C467 0.950 . S
H472 C469 0.950 . S
C473 C464 1.390 . S
C473 H466 0.950 . S
C473 C470 1.387 . S
C474 C475 1.387 . S
C474 H478 0.950 . S
C474 C483 1.390 . S
C475 C474 1.387 . S
C475 C477 1.387 . S
H476 C483 0.950 . S
C477 C475 1.387 . S
C477 C479 1.390 . S
C477 H481 0.950 . S
H478 C474 0.950 . S
C479 C477 1.390 . S
C479 C480 1.387 . S
C479 H482 0.950 . S
C480 C479 1.387 . S
C480 C483 1.387 . S
H481 C477 0.950 . S
H482 C479 0.950 . S
C483 C474 1.390 . S
C483 H476 0.950 . S
C483 C480 1.387 . S
C484 C485 1.387 . S
C484 H488 0.950 . S
C484 C493 1.390 . S
C485 C484 1.387 . S
C485 C487 1.387 . S
H486 C493 0.950 . S
C487 C485 1.387 . S
C487 C489 1.390 . S
C487 H491 0.950 . S
H488 C484 0.950 . S
C489 C487 1.390 . S
C489 C490 1.387 . S
C489 H492 0.950 . S
C490 C489 1.387 . S
C490 C493 1.387 . S
H491 C487 0.950 . S
H492 C489 0.950 . S
C493 C484 1.390 . S
C493 H486 0.950 . S
C493 C490 1.387 . S
C494 C495 1.387 . S
C494 H498 0.950 1_455 S
C494 C503 1.390 . S
C495 C494 1.387 . S
C495 C497 1.387 . S
H496 C503 0.950 1_655 S
C497 C495 1.387 . S
C497 C499 1.390 . S
C497 H501 0.950 . S
H498 C494 0.950 1_655 S
C499 C497 1.390 . S
C499 C500 1.387 . S
C499 H502 0.950 . S
C500 C499 1.387 . S
C500 C503 1.387 . S
H501 C497 0.950 . S
H502 C499 0.950 . S
C503 C494 1.390 . S
C503 H496 0.950 1_455 S
C503 C500 1.387 . S
C504 C505 1.387 . S
C504 H508 0.950 . S
C504 C513 1.390 . S
C505 C504 1.387 . S
C505 C507 1.387 . S
H506 C513 0.950 . S
C507 C505 1.387 . S
C507 C509 1.390 . S
C507 H511 0.950 . S
H508 C504 0.950 . S
C509 C507 1.390 . S
C509 C510 1.387 . S
C509 H512 0.950 . S
C510 C509 1.387 . S
C510 C513 1.387 . S
H511 C507 0.950 . S
H512 C509 0.950 . S
C513 C504 1.390 . S
C513 H506 0.950 . S
C513 C510 1.387 . S
C514 C515 1.387 . S
C514 H518 0.947 1_655 S
C514 C523 1.390 1_655 S
C515 C514 1.387 . S
C515 C517 1.387 . S
H516 C523 0.950 . S
C517 C515 1.387 . S
C517 C519 1.390 . S
C517 H521 0.950 . S
H518 C514 0.947 1_455 S
C519 C517 1.390 . S
C519 C520 1.387 . S
C519 H522 0.950 . S
C520 C519 1.387 . S
C520 C523 1.387 1_655 S
H521 C517 0.950 . S
H522 C519 0.950 . S
C523 C514 1.390 1_455 S
C523 H516 0.950 . S
C523 C520 1.387 1_455 S
C524 C525 1.387 . S
C524 H528 0.950 . S
C524 C533 1.390 . S
C525 C524 1.387 . S
C525 C527 1.387 . S
H526 C533 0.950 . S
C527 C525 1.387 . S
C527 C529 1.390 . S
C527 H531 0.950 . S
H528 C524 0.950 . S
C529 C527 1.390 . S
C529 C530 1.387 . S
C529 H532 0.950 . S
C530 C529 1.387 . S
C530 C533 1.387 . S
H531 C527 0.950 . S
H532 C529 0.950 . S
C533 C524 1.390 . S
C533 H526 0.950 . S
C533 C530 1.387 . S
C534 C535 1.387 . S
C534 H538 0.950 . S
C534 C543 1.390 . S
C535 C534 1.387 . S
C535 C537 1.387 . S
H536 C543 0.950 . S
C537 C535 1.387 . S
C537 C539 1.390 . S
C537 H541 0.950 . S
H538 C534 0.950 . S
C539 C537 1.390 . S
C539 C540 1.387 . S
C539 H542 0.950 . S
C540 C539 1.387 . S
C540 C543 1.387 . S
H541 C537 0.950 . S
H542 C539 0.950 . S
C543 C534 1.390 . S
C543 H536 0.950 . S
C543 C540 1.387 . S
C544 C545 1.387 . S
C544 H548 0.950 . S
C544 C553 1.390 . S
C545 C544 1.387 . S
C545 C547 1.387 1_566 S
H546 C553 0.950 . S
C547 C545 1.387 1_544 S
C547 C549 1.390 1_545 S
C547 H551 0.950 . S
H548 C544 0.950 . S
C549 C547 1.390 1_565 S
C549 C550 1.387 . S
C549 H552 0.950 . S
C550 C549 1.387 . S
C550 C553 1.387 1_554 S
H551 C547 0.950 . S
H552 C549 0.950 . S
C553 C544 1.390 . S
C553 H546 0.950 . S
C553 C550 1.387 1_556 S
C554 C555 1.387 . S
C554 H558 0.950 . S
C554 C563 1.390 . S
C555 C554 1.387 . S
C555 C557 1.387 . S
H556 C563 0.950 . S
C557 C555 1.387 . S
C557 C559 1.390 . S
C557 H561 0.950 . S
H558 C554 0.950 . S
C559 C557 1.390 . S
C559 C560 1.387 . S
C559 H562 0.950 . S
C560 C559 1.387 . S
C560 C563 1.387 . S
H561 C557 0.950 . S
H562 C559 0.950 . S
C563 C554 1.390 . S
C563 H556 0.950 . S
C563 C560 1.387 . S
C564 C565 1.387 . S
C564 H568 0.950 . S
C564 C573 1.390 . S
C565 C564 1.387 . S
C565 C567 1.387 . S
H566 C573 0.950 . S
C567 C565 1.387 . S
C567 C569 1.390 . S
C567 H571 0.950 . S
H568 C564 0.950 . S
C569 C567 1.390 . S
C569 C570 1.387 . S
C569 H572 0.950 . S
C570 C569 1.387 . S
C570 C573 1.387 . S
H571 C567 0.950 . S
H572 C569 0.950 . S
C573 C564 1.390 . S
C573 H566 0.950 . S
C573 C570 1.387 . S
C574 C575 1.387 . S
C574 H578 0.950 . S
C574 C583 1.390 . S
C575 C574 1.387 . S
C575 C577 1.387 . S
H576 C583 0.950 . S
C577 C575 1.387 . S
C577 C579 1.390 . S
C577 H581 0.950 . S
H578 C574 0.950 . S
C579 C577 1.390 . S
C579 C580 1.387 . S
C579 H582 0.950 . S
C580 C579 1.387 . S
C580 C583 1.387 . S
H581 C577 0.950 . S
H582 C579 0.950 . S
C583 C574 1.390 . S
C583 H576 0.950 . S
C583 C580 1.387 . S
C584 C585 1.385 1_565 S
C584 H588 0.961 . S
C584 C593 1.381 1_565 S
C585 C584 1.385 1_545 S
C585 C587 1.387 . S
H586 C593 0.950 . S
C587 C585 1.387 . S
C587 C589 1.390 . S
C587 H591 0.950 . S
H588 C584 0.961 . S
C589 C587 1.390 . S
C589 C590 1.387 . S
C589 H592 0.950 . S
C590 C589 1.387 . S
C590 C593 1.387 . S
H591 C587 0.950 . S
H592 C589 0.950 . S
C593 C584 1.381 1_545 S
C593 H586 0.950 . S
C593 C590 1.387 . S
C594 C595 1.387 . S
C594 H598 0.950 . S
C594 C603 1.390 . S
C595 C594 1.387 . S
C595 C597 1.387 . S
H596 C603 0.950 . S
C597 C595 1.387 . S
C597 C599 1.390 . S
C597 H601 0.950 . S
H598 C594 0.950 . S
C599 C597 1.390 . S
C599 C600 1.387 . S
C599 H602 0.950 . S
C600 C599 1.387 . S
C600 C603 1.387 . S
H601 C597 0.950 . S
H602 C599 0.950 . S
C603 C594 1.390 . S
C603 H596 0.950 . S
C603 C600 1.387 . S
C604 C605 1.387 . S
C604 H608 0.950 . S
C604 C613 1.390 . S
C605 C604 1.387 . S
C605 C607 1.387 . S
H606 C613 0.950 . S
C607 C605 1.387 . S
C607 C609 1.390 . S
C607 H611 0.950 . S
H608 C604 0.950 . S
C609 C607 1.390 . S
C609 C610 1.387 . S
C609 H612 0.950 . S
C610 C609 1.387 . S
C610 C613 1.387 . S
H611 C607 0.950 . S
H612 C609 0.950 . S
C613 C604 1.390 . S
C613 H606 0.950 . S
C613 C610 1.387 . S
C614 C615 1.387 . S
C614 H618 0.950 1_545 S
C614 C623 1.387 1_545 S
C615 C614 1.387 . S
C615 C617 1.387 . S
H616 C623 0.977 . S
C617 C615 1.387 . S
C617 C619 1.390 . S
C617 H621 0.950 . S
H618 C614 0.950 1_565 S
C619 C617 1.390 . S
C619 C620 1.387 . S
C619 H622 0.950 . S
C620 C619 1.387 . S
C620 C623 1.364 1_545 S
H621 C617 0.950 . S
H622 C619 0.950 . S
C623 C614 1.387 1_565 S
C623 H616 0.977 . S
C623 C620 1.364 1_565 S
C624 C625 1.387 . S
C624 H628 0.950 . S
C624 C633 1.390 . S
C625 C624 1.387 . S
C625 C627 1.387 . S
H626 C633 0.950 . S
C627 C625 1.387 . S
C627 C629 1.390 . S
C627 H631 0.950 . S
H628 C624 0.950 . S
C629 C627 1.390 . S
C629 C630 1.387 . S
C629 H632 0.950 . S
C630 C629 1.387 . S
C630 C633 1.387 . S
H631 C627 0.950 . S
H632 C629 0.950 . S
C633 C624 1.390 . S
C633 H626 0.950 . S
C633 C630 1.387 . S
C634 C635 1.387 . S
C634 H638 0.950 . S
C634 C643 1.390 . S
C635 C634 1.387 . S
C635 C637 1.387 . S
H636 C643 0.950 . S
C637 C635 1.387 . S
C637 C639 1.390 . S
C637 H641 0.950 . S
H638 C634 0.950 . S
C639 C637 1.390 . S
C639 C640 1.387 . S
C639 H642 0.950 . S
C640 C639 1.387 . S
C640 C643 1.387 . S
H641 C637 0.950 . S
H642 C639 0.950 . S
C643 C634 1.390 . S
C643 H636 0.950 . S
C643 C640 1.387 . S
C644 C645 1.387 . S
C644 H648 0.950 . S
C644 C653 1.390 . S
C645 C644 1.387 . S
C645 C647 1.387 . S
H646 C653 0.950 . S
C647 C645 1.387 . S
C647 C649 1.390 . S
C647 H651 0.950 . S
H648 C644 0.950 . S
C649 C647 1.390 . S
C649 C650 1.387 . S
C649 H652 0.950 . S
C650 C649 1.387 . S
C650 C653 1.387 . S
H651 C647 0.950 . S
H652 C649 0.950 . S
C653 C644 1.390 . S
C653 H646 0.950 . S
C653 C650 1.387 . S
C654 C655 1.387 . S
C654 H658 0.950 . S
C654 C663 1.390 . S
C655 C654 1.387 . S
C655 C657 1.387 1_545 S
H656 C663 0.950 . S
C657 C655 1.387 1_565 S
C657 C659 1.390 . S
C657 H661 0.950 . S
H658 C654 0.950 . S
C659 C657 1.390 . S
C659 C660 1.387 1_565 S
C659 H662 0.950 . S
C660 C659 1.387 1_545 S
C660 C663 1.387 . S
H661 C657 0.950 . S
H662 C659 0.950 . S
C663 C654 1.390 . S
C663 H656 0.950 . S
C663 C660 1.387 . S
C664 C665 1.387 . S
C664 H668 0.950 . S
C664 C673 1.390 . S
C665 C664 1.387 . S
C665 C667 1.387 . S
H666 C673 0.950 . S
C667 C665 1.387 . S
C667 C669 1.390 . S
C667 H671 0.950 . S
H668 C664 0.950 . S
C669 C667 1.390 . S
C669 C670 1.387 . S
C669 H672 0.950 . S
C670 C669 1.387 . S
C670 C673 1.387 . S
H671 C667 0.950 . S
H672 C669 0.950 . S
C673 C664 1.390 . S
C673 H666 0.950 . S
C673 C670 1.387 . S
C674 C675 1.387 . S
C674 H678 0.950 . S
C674 C683 1.390 . S
C675 C674 1.387 . S
C675 C677 1.387 . S
H676 C683 0.950 . S
C677 C675 1.387 . S
C677 C679 1.390 . S
C677 H681 0.950 . S
H678 C674 0.950 . S
C679 C677 1.390 . S
C679 C680 1.387 . S
C679 H682 0.950 . S
C680 C679 1.387 . S
C680 C683 1.387 . S
H681 C677 0.950 . S
H682 C679 0.950 . S
C683 C674 1.390 . S
C683 H676 0.950 . S
C683 C680 1.387 . S
C684 C685 1.387 . S
C684 H688 0.950 . S
C684 C693 1.390 . S
C685 C684 1.387 . S
C685 C687 1.387 . S
H686 C693 0.950 . S
C687 C685 1.387 . S
C687 C689 1.390 . S
C687 H691 0.950 . S
H688 C684 0.950 . S
C689 C687 1.390 . S
C689 C690 1.387 . S
C689 H692 0.950 . S
C690 C689 1.387 . S
C690 C693 1.387 . S
H691 C687 0.950 . S
H692 C689 0.950 . S
C693 C684 1.390 . S
C693 H686 0.950 . S
C693 C690 1.387 . S
C694 C695 1.395 1_455 S
C694 H698 0.948 . S
C694 C703 1.385 1_554 S
C695 C694 1.395 1_655 S
C695 C697 1.387 . S
H696 C703 0.950 . S
C697 C695 1.387 . S
C697 C699 1.390 . S
C697 H701 0.950 . S
H698 C694 0.948 . S
C699 C697 1.390 . S
C699 C700 1.387 1_554 S
C699 H702 0.950 . S
C700 C699 1.387 1_556 S
C700 C703 1.387 1_655 S
H701 C697 0.950 . S
H702 C699 0.950 . S
C703 C694 1.385 1_556 S
C703 H696 0.950 . S
C703 C700 1.387 1_455 S
C704 C705 1.387 . S
C704 H708 0.950 . S
C704 C713 1.390 . S
C705 C704 1.387 . S
C705 C707 1.387 . S
H706 C713 0.950 . S
C707 C705 1.387 . S
C707 C709 1.390 . S
C707 H711 0.950 . S
H708 C704 0.950 . S
C709 C707 1.390 . S
C709 C710 1.387 . S
C709 H712 0.950 . S
C710 C709 1.387 . S
C710 C713 1.387 . S
H711 C707 0.950 . S
H712 C709 0.950 . S
C713 C704 1.390 . S
C713 H706 0.950 . S
C713 C710 1.387 . S
C714 C715 1.387 1_556 S
C714 H718 0.950 1_556 S
C714 C723 1.390 . S
C715 C714 1.387 1_554 S
C715 C717 1.387 1_455 S
H716 C723 0.950 . S
C717 C715 1.387 1_655 S
C717 C719 1.390 1_554 S
C717 H721 0.950 . S
H718 C714 0.950 1_554 S
C719 C717 1.390 1_556 S
C719 C720 1.387 1_655 S
C719 H722 0.950 . S
C720 C719 1.387 1_455 S
C720 C723 1.387 . S
H721 C717 0.950 . S
H722 C719 0.950 . S
C723 C714 1.390 . S
C723 H716 0.950 . S
C723 C720 1.387 . S
C724 C725 1.387 . S
C724 H728 0.950 . S
C724 C733 1.390 . S
C725 C724 1.387 . S
C725 C727 1.387 . S
H726 C733 0.950 . S
C727 C725 1.387 . S
C727 C729 1.390 . S
C727 H731 0.950 . S
H728 C724 0.950 . S
C729 C727 1.390 . S
C729 C730 1.387 . S
C729 H732 0.950 . S
C730 C729 1.387 . S
C730 C733 1.387 . S
H731 C727 0.950 . S
H732 C729 0.950 . S
C733 C724 1.390 . S
C733 H726 0.950 . S
C733 C730 1.387 . S
C734 C735 1.387 . S
C734 H738 0.950 . S
C734 C743 1.390 . S
C735 C734 1.387 . S
C735 C737 1.387 . S
H736 C743 0.950 . S
C737 C735 1.387 . S
C737 C739 1.390 . S
C737 H741 0.950 . S
H738 C734 0.950 . S
C739 C737 1.390 . S
C739 C740 1.387 . S
C739 H742 0.950 . S
C740 C739 1.387 . S
C740 C743 1.387 . S
H741 C737 0.950 . S
H742 C739 0.950 . S
C743 C734 1.390 . S
C743 H736 0.950 . S
C743 C740 1.387 . S
C744 C745 1.387 . S
C744 H748 0.950 . S
C744 C753 1.390 . S
C745 C744 1.387 . S
C745 C747 1.387 . S
H746 C753 0.950 . S
C747 C745 1.387 . S
C747 C749 1.390 . S
C747 H751 0.950 . S
H748 C744 0.950 . S
C749 C747 1.390 . S
C749 C750 1.387 . S
C749 H752 0.950 . S
C750 C749 1.387 . S
C750 C753 1.387 . S
H751 C747 0.950 . S
H752 C749 0.950 . S
C753 C744 1.390 . S
C753 H746 0.950 . S
C753 C750 1.387 . S
C754 C755 1.387 . S
C754 H758 0.950 . S
C754 C763 1.390 . S
C755 C754 1.387 . S
C755 C757 1.387 . S
H756 C763 0.950 . S
C757 C755 1.387 . S
C757 C759 1.390 . S
C757 H761 0.950 . S
H758 C754 0.950 . S
C759 C757 1.390 . S
C759 C760 1.387 . S
C759 H762 0.950 . S
C760 C759 1.387 . S
C760 C763 1.387 . S
H761 C757 0.950 . S
H762 C759 0.950 . S
C763 C754 1.390 . S
C763 H756 0.950 . S
C763 C760 1.387 . S
C764 C765 1.387 . S
C764 H768 0.950 . S
C764 C773 1.390 . S
C765 C764 1.387 . S
C765 C767 1.387 . S
H766 C773 0.950 . S
C767 C765 1.387 . S
C767 C769 1.390 . S
C767 H771 0.950 . S
H768 C764 0.950 . S
C769 C767 1.390 . S
C769 C770 1.387 . S
C769 H772 0.950 . S
C770 C769 1.387 . S
C770 C773 1.387 . S
H771 C767 0.950 . S
H772 C769 0.950 . S
C773 C764 1.390 . S
C773 H766 0.950 . S
C773 C770 1.387 . S
C774 C775 1.387 . S
C774 H778 0.950 . S
C774 C783 1.390 . S
C775 C774 1.387 . S
C775 C777 1.387 . S
H776 C783 0.950 . S
C777 C775 1.387 . S
C777 C779 1.390 . S
C777 H781 0.950 . S
H778 C774 0.950 . S
C779 C777 1.390 . S
C779 C780 1.387 . S
C779 H782 0.950 . S
C780 C779 1.387 . S
C780 C783 1.387 . S
H781 C777 0.950 . S
H782 C779 0.950 . S
C783 C774 1.390 . S
C783 H776 0.950 . S
C783 C780 1.387 . S
C784 C785 1.387 . S
C784 H788 0.950 . S
C784 C793 1.390 . S
C785 C784 1.387 . S
C785 C787 1.387 . S
H786 C793 0.950 . S
C787 C785 1.387 . S
C787 C789 1.390 . S
C787 H791 0.950 . S
H788 C784 0.950 . S
C789 C787 1.390 . S
C789 C790 1.387 . S
C789 H792 0.950 . S
C790 C789 1.387 . S
C790 C793 1.387 . S
H791 C787 0.950 . S
H792 C789 0.950 . S
C793 C784 1.390 . S
C793 H786 0.950 . S
C793 C790 1.387 . S
C794 C795 1.387 . S
C794 H798 0.950 . S
C794 C803 1.390 . S
C795 C794 1.387 . S
C795 C797 1.387 . S
H796 C803 0.950 . S
C797 C795 1.387 . S
C797 C799 1.390 . S
C797 H801 0.950 . S
H798 C794 0.950 . S
C799 C797 1.390 . S
C799 C800 1.387 . S
C799 H802 0.950 . S
C800 C799 1.387 . S
C800 C803 1.387 . S
H801 C797 0.950 . S
H802 C799 0.950 . S
C803 C794 1.390 . S
C803 H796 0.950 . S
C803 C800 1.387 . S
C804 C805 1.387 1_554 S
C804 H808 0.950 . S
C804 C813 1.390 . S
C805 C804 1.387 1_556 S
C805 C807 1.387 . S
H806 C813 0.950 . S
C807 C805 1.387 . S
C807 C809 1.390 . S
C807 H811 0.950 . S
H808 C804 0.950 . S
C809 C807 1.390 . S
C809 C810 1.387 . S
C809 H812 0.950 . S
C810 C809 1.387 . S
C810 C813 1.387 1_556 S
H811 C807 0.950 . S
H812 C809 0.950 . S
C813 C804 1.390 . S
C813 H806 0.950 . S
C813 C810 1.387 1_554 S
C814 C815 1.387 . S
C814 H818 0.950 . S
C814 C823 1.390 . S
C815 C814 1.387 . S
C815 C817 1.387 . S
H816 C823 0.950 . S
C817 C815 1.387 . S
C817 C819 1.390 . S
C817 H821 0.950 . S
H818 C814 0.950 . S
C819 C817 1.390 . S
C819 C820 1.387 . S
C819 H822 0.950 . S
C820 C819 1.387 . S
C820 C823 1.387 . S
H821 C817 0.950 . S
H822 C819 0.950 . S
C823 C814 1.390 . S
C823 H816 0.950 . S
C823 C820 1.387 . S
C824 C825 1.387 . S
C824 H828 0.950 . S
C824 C833 1.390 . S
C825 C824 1.387 . S
C825 C827 1.387 . S
H826 C833 0.950 . S
C827 C825 1.387 . S
C827 C829 1.390 . S
C827 H831 0.950 . S
H828 C824 0.950 . S
C829 C827 1.390 . S
C829 C830 1.387 . S
C829 H832 0.950 . S
C830 C829 1.387 . S
C830 C833 1.387 . S
H831 C827 0.950 . S
H832 C829 0.950 . S
C833 C824 1.390 . S
C833 H826 0.950 . S
C833 C830 1.387 . S
C834 C835 1.387 . S
C834 H838 0.950 1_554 S
C834 C843 1.390 . S
C835 C834 1.387 . S
C835 C837 1.387 . S
H836 C843 0.950 1_556 S
C837 C835 1.387 . S
C837 C839 1.390 . S
C837 H841 0.950 . S
H838 C834 0.950 1_556 S
C839 C837 1.390 . S
C839 C840 1.387 . S
C839 H842 0.950 . S
C840 C839 1.387 . S
C840 C843 1.387 . S
H841 C837 0.950 . S
H842 C839 0.950 . S
C843 C834 1.390 . S
C843 H836 0.950 1_554 S
C843 C840 1.387 . S
C370 C218 1.282 . S
C365 N66 1.260 . S
C380 C231 1.612 . S
C375 N79 1.600 1_455 S
C385 N92 1.685 . S
C390 C244 1.702 . S
C400 C257 1.409 . S
C395 N54 1.429 1_655 S
C410 C265 1.493 . S
C405 N131 1.495 . S
C420 C278 1.221 . S
C415 N158 1.236 . S
C425 N145 1.554 . S
C430 C291 1.535 . S
C440 C304 1.667 . S
C435 N118 1.662 . S
C445 N148 1.782 . S
C450 C322 1.741 . S
C460 C333 1.563 . S
C455 N122 1.589 . S
C465 N132 1.293 . S
C470 C317 1.262 . S
C480 C325 1.485 . S
C475 N161 1.454 . S
C485 N96 1.776 . S
C490 C348 1.801 . S
C495 N53 1.639 . S
C500 C338 1.628 . S
C505 N67 1.223 . S
C510 C343 1.190 . S
C515 N83 1.426 . S
C520 C346 1.429 1_655 S
C525 N44 1.399 . S
C530 C255 1.387 . S
C535 N187 1.456 . S
C540 C247 1.459 . S
C550 C216 1.308 . S
C545 N197 1.337 1_565 S
C560 C221 1.373 . S
C555 N106 1.389 . S
C565 N57 1.746 1_545 S
C570 C268 1.698 . S
C580 C307 1.482 . S
C575 N144 1.483 . S
C590 C260 1.432 . S
C585 N119 1.440 1_545 S
C600 C286 1.636 . S
C595 N157 1.658 . S
C610 C296 1.282 . S
C605 N183 1.259 . S
C615 N196 1.600 . S
C620 C309 1.612 . S
C625 N105 1.687 . S
C630 C270 1.701 . S
C640 C283 1.408 . S
C635 N171 1.429 . S
C645 N40 1.495 . S
C650 C239 1.493 . S
C660 C252 1.221 . S
C655 N2 1.236 . S
C670 C213 1.535 . S
C665 N15 1.554 . S
C680 C226 1.665 . S
C675 N27 1.662 1_455 S
C685 N18 1.782 . S
C690 C335 1.741 . S
C695 N31 1.589 . S
C700 C320 1.562 1_655 S
C705 N41 1.292 . S
C710 C330 1.259 . S
C715 N5 1.452 . S
C720 C312 1.483 1_455 S
C730 C361 1.800 . S
C725 N109 1.777 . S
C740 C351 1.628 . S
C735 N170 1.639 1_554 S
C750 C356 1.187 . S
C745 N184 1.222 . S
C755 N200 1.428 1_554 S
C760 C359 1.429 . S
C765 N135 1.398 . S
C770 C281 1.385 . S
C780 C273 1.458 . S
C775 N70 1.455 . S
C790 C294 1.311 . S
C785 N80 1.337 . S
C800 C299 1.374 . S
C795 N93 1.388 . S
C805 N174 1.746 . S
C810 C242 1.698 . S
C820 C229 1.483 . S
C815 N14 1.481 . S
C825 N28 1.440 . S
C830 C234 1.431 . S
C840 C208 1.636 . S
C835 N1 1.658 1_565 S
