# Generated by pormake.
# Topology zzz, (3,6)-cn, num edge types: 1
# Building blocks:
#     Node 0, Type 0, BuildingBlock: BETDIP_clean_linker_0, # of connection points: 3
#     Node 1, Type 0, BuildingBlock: BETDIP_clean_linker_0, # of connection points: 3
#     Node 2, Type 0, BuildingBlock: BETDIP_clean_linker_0, # of connection points: 3
#     Node 3, Type 0, BuildingBlock: BETDIP_clean_linker_0, # of connection points: 3
#     Node 4, Type 0, BuildingBlock: BETDIP_clean_linker_0, # of connection points: 3
#     Node 5, Type 0, BuildingBlock: BETDIP_clean_linker_0, # of connection points: 3
#     Node 6, Type 0, BuildingBlock: BETDIP_clean_linker_0, # of connection points: 3
#     Node 7, Type 0, BuildingBlock: BETDIP_clean_linker_0, # of connection points: 3
#     Node 8, Type 1, BuildingBlock: INOVEN_clean_sbu_0, # of connection points: 6
#     Node 9, Type 1, BuildingBlock: INOVEN_clean_sbu_0, # of connection points: 6
#     Node 10, Type 1, BuildingBlock: INOVEN_clean_sbu_0, # of connection points: 6
#     Node 11, Type 1, BuildingBlock: INOVEN_clean_sbu_0, # of connection points: 6
#     Edge 12, Type (0, 1), BuildingBlock: AJUNOK_clean_linker_0, # of connection points: 2
#     Edge 13, Type (0, 1), BuildingBlock: AJUNOK_clean_linker_0, # of connection points: 2
#     Edge 14, Type (0, 1), BuildingBlock: AJUNOK_clean_linker_0, # of connection points: 2
#     Edge 15, Type (0, 1), BuildingBlock: AJUNOK_clean_linker_0, # of connection points: 2
#     Edge 16, Type (0, 1), BuildingBlock: AJUNOK_clean_linker_0, # of connection points: 2
#     Edge 17, Type (0, 1), BuildingBlock: AJUNOK_clean_linker_0, # of connection points: 2
#     Edge 18, Type (0, 1), BuildingBlock: AJUNOK_clean_linker_0, # of connection points: 2
#     Edge 19, Type (0, 1), BuildingBlock: AJUNOK_clean_linker_0, # of connection points: 2
#     Edge 20, Type (0, 1), BuildingBlock: AJUNOK_clean_linker_0, # of connection points: 2
#     Edge 21, Type (0, 1), BuildingBlock: AJUNOK_clean_linker_0, # of connection points: 2
#     Edge 22, Type (0, 1), BuildingBlock: AJUNOK_clean_linker_0, # of connection points: 2
#     Edge 23, Type (0, 1), BuildingBlock: AJUNOK_clean_linker_0, # of connection points: 2
#     Edge 24, Type (0, 1), BuildingBlock: AJUNOK_clean_linker_0, # of connection points: 2
#     Edge 25, Type (0, 1), BuildingBlock: AJUNOK_clean_linker_0, # of connection points: 2
#     Edge 26, Type (0, 1), BuildingBlock: AJUNOK_clean_linker_0, # of connection points: 2
#     Edge 27, Type (0, 1), BuildingBlock: AJUNOK_clean_linker_0, # of connection points: 2
#     Edge 28, Type (0, 1), BuildingBlock: AJUNOK_clean_linker_0, # of connection points: 2
#     Edge 29, Type (0, 1), BuildingBlock: AJUNOK_clean_linker_0, # of connection points: 2
#     Edge 30, Type (0, 1), BuildingBlock: AJUNOK_clean_linker_0, # of connection points: 2
#     Edge 31, Type (0, 1), BuildingBlock: AJUNOK_clean_linker_0, # of connection points: 2
#     Edge 32, Type (0, 1), BuildingBlock: AJUNOK_clean_linker_0, # of connection points: 2
#     Edge 33, Type (0, 1), BuildingBlock: AJUNOK_clean_linker_0, # of connection points: 2
#     Edge 34, Type (0, 1), BuildingBlock: AJUNOK_clean_linker_0, # of connection points: 2
#     Edge 35, Type (0, 1), BuildingBlock: AJUNOK_clean_linker_0, # of connection points: 2
# Relax obj value: 0.349
# Max RMSD: 0.206
# Mean RMSD: 0.158
data_MOF--net-zzz--node1-INOVEN_clean_sbu_0--node2-BETDIP_clean_linker_0--edge1-AJUNOK_clean_linker_0
_symmetry_space_group_name_H-M    P1
_symmetry_Int_Tables_number       1
_symmetry_cell_setting            triclinic
loop_
_symmetry_equiv_pos_as_xyz
'x, y, z'
_cell_length_a     38.667564
_cell_length_b     38.692764
_cell_length_c     10.114143
_cell_angle_alpha  89.927658
_cell_angle_beta   89.79025
_cell_angle_gamma 89.900881
loop_
_atom_site_label
_atom_site_type_symbol
_atom_site_fract_x
_atom_site_fract_y
_atom_site_fract_z
_atom_type_partial_charge
H0 H 0.78034 0.54647 0.472 0.0
H1 H 0.73616 0.45272 0.3109 0.0
H2 H 0.83675 0.45081 0.48478 0.0
H3 H 0.71631 0.48923 0.15975 0.0
C4 C 0.70518 0.50929 0.22166 0.0
C5 C 0.78154 0.51892 0.45416 0.0
C6 C 0.81133 0.49978 0.49494 0.0
C7 C 0.75386 0.5022 0.38552 0.0
C8 C 0.75658 0.46641 0.36151 0.0
C9 C 0.78672 0.44817 0.39207 0.0
C10 C 0.81299 0.46466 0.46354 0.0
N11 N 0.72442 0.52109 0.33494 0.0
H12 H 0.99824 0.77944 0.46951 0.0
H13 H 0.09074 0.73834 0.28649 0.0
H14 H 0.09122 0.83974 0.45811 0.0
H15 H 0.06565 0.68715 0.36719 0.0
C16 C 0.0415 0.69112 0.31471 0.0
C17 C 0.02537 0.7818 0.44438 0.0
C18 C 0.04369 0.8124 0.47909 0.0
C19 C 0.0425 0.75425 0.37631 0.0
C20 C 0.07759 0.75841 0.34161 0.0
C21 C 0.09523 0.78925 0.36776 0.0
C22 C 0.07823 0.8154 0.43967 0.0
N23 N 0.02427 0.72379 0.33317 0.0
H24 H 0.76667 1.00415 0.47929 0.0
H25 H 0.80437 0.09388 0.26841 0.0
H26 H 0.7056 0.09686 0.46104 0.0
H27 H 0.85667 0.07288 0.35244 0.0
C28 C 0.85387 0.04708 0.3118 0.0
C29 C 0.76393 0.03098 0.45057 0.0
C30 C 0.73323 0.04944 0.48496 0.0
C31 C 0.79092 0.04749 0.37703 0.0
C32 C 0.78564 0.08169 0.33312 0.0
C33 C 0.75498 0.09943 0.36191 0.0
C34 C 0.72987 0.0836 0.4421 0.0
N35 N 0.82187 0.02929 0.33754 0.0
H36 H 0.54252 0.7684 0.46973 0.0
H37 H 0.44642 0.81145 0.32715 0.0
H38 H 0.44806 0.71162 0.51171 0.0
H39 H 0.48432 0.82207 0.15154 0.0
C40 C 0.50199 0.8377 0.20942 0.0
C41 C 0.51471 0.76705 0.45912 0.0
C42 C 0.49646 0.73756 0.50729 0.0
C43 C 0.49667 0.79409 0.3918 0.0
C44 C 0.46058 0.79109 0.37629 0.0
C45 C 0.44288 0.76106 0.41347 0.0
C46 C 0.46093 0.73546 0.48419 0.0
N47 N 0.51438 0.82294 0.33125 0.0
H48 H 0.25608 0.48646 0.1848 0.0
H49 H 0.30651 0.57731 0.33697 0.0
H50 H 0.20758 0.58544 0.14531 0.0
H51 H 0.35701 0.52628 0.206 0.0
C52 C 0.34878 0.51737 0.30292 0.0
C53 C 0.25704 0.51426 0.19599 0.0
C54 C 0.22945 0.53501 0.14689 0.0
C55 C 0.28596 0.52985 0.25988 0.0
C56 C 0.28584 0.56577 0.27997 0.0
C57 C 0.25716 0.58603 0.24424 0.0
C58 C 0.23032 0.57056 0.17136 0.0
N59 N 0.31277 0.50963 0.32058 0.0
H60 H 0.0542 0.25775 0.16362 0.0
H61 H 0.96246 0.3027 0.33725 0.0
H62 H 0.95778 0.20354 0.14725 0.0
H63 H 0.99569 0.35463 0.23503 0.0
C64 C 1.01536 0.34802 0.30745 0.0
C65 C 0.0266 0.25704 0.18192 0.0
C66 C 1.00688 0.22819 0.13795 0.0
C67 C 1.01025 0.28502 0.24995 0.0
C68 C 0.97466 0.28274 0.27816 0.0
C69 C 0.95556 0.25322 0.24483 0.0
C70 C 0.9717 0.22706 0.17004 0.0
N71 N 0.02959 0.31369 0.30204 0.0
H72 H 0.28163 0.04088 0.14686 0.0
H73 H 0.24723 0.94609 0.33163 0.0
H74 H 0.34546 0.95017 0.13467 0.0
H75 H 0.19475 0.96701 0.26217 0.0
C76 C 0.1966 0.99219 0.30859 0.0
C77 C 0.28524 1.01366 0.16771 0.0
C78 C 0.31617 0.99675 0.12559 0.0
C79 C 0.25905 0.99502 0.23779 0.0
C80 C 0.26539 0.96008 0.27 0.0
C81 C 0.29633 0.94362 0.23392 0.0
C82 C 0.32074 0.96196 0.15829 0.0
N83 N 0.22779 1.01153 0.28466 0.0
H84 H 0.50183 0.28535 0.15621 0.0
H85 H 0.59585 0.24882 0.34095 0.0
H86 H 0.59131 0.35063 0.17483 0.0
H87 H 0.57546 0.19681 0.2745 0.0
C88 C 0.5496 0.19909 0.31596 0.0
C89 C 0.52871 0.28903 0.18211 0.0
C90 C 0.5453 0.32099 0.15156 0.0
C91 C 0.54712 0.26201 0.24855 0.0
C92 C 0.58175 0.2681 0.28545 0.0
C93 C 0.59778 0.29993 0.26091 0.0
C94 C 0.57957 0.32552 0.1911 0.0
N95 N 0.53042 0.23024 0.28848 0.0
Gd96 Gd 0.04895 1.01093 0.90531 0.0
Gd97 Gd 1.00099 0.02809 0.72094 0.0
C98 C 1.01948 0.94874 0.71642 0.0
C99 C 0.08701 0.98239 0.08414 0.0
C100 C 0.10556 0.94909 0.09239 0.0
C101 C 0.1417 0.94724 0.07411 0.0
C102 C 0.08718 0.91877 0.12061 0.0
C103 C 0.14054 0.88562 0.11785 0.0
C104 C 0.10444 0.88752 0.13305 0.0
C105 C 0.1592 0.91564 0.08822 0.0
C106 C 0.08142 0.02702 0.67167 0.0
C107 C 0.03003 0.0901 0.91155 0.0
C108 C 0.96292 0.05738 0.54435 0.0
C109 C 0.94573 0.09143 0.53915 0.0
C110 C 0.90941 0.09404 0.54233 0.0
C111 C 0.96551 0.12168 0.53061 0.0
C112 C 0.91316 0.15627 0.5153 0.0
C113 C 0.94945 0.15362 0.51921 0.0
C114 C 0.89315 0.12626 0.52836 0.0
C115 C 0.96864 1.01074 0.95246 0.0
O116 O 0.03273 0.95664 0.83333 0.0
O117 O 1.00841 0.97416 0.64091 0.0
O118 O 0.09898 1.00479 0.99922 0.0
O119 O 0.05321 0.98098 0.08473 0.0
O120 O 0.08927 0.03988 0.78561 0.0
O121 O 0.05453 1.00866 0.6856 0.0
O122 O 1.017 0.08236 0.79416 0.0
O123 O 0.04117 0.0646 0.98615 0.0
O124 O 0.95066 0.03554 0.63073 0.0
O125 O 0.99674 0.05733 0.53962 0.0
O126 O 0.9611 0.9982 0.83769 0.0
O127 O 0.99517 0.02979 0.94061 0.0
H128 H 0.15647 0.97033 0.05248 0.0
H129 H 0.05945 0.91911 0.13625 0.0
H130 H 0.08958 0.86485 0.16028 0.0
H131 H 0.18711 0.9148 0.07922 0.0
H132 H 0.89367 0.07102 0.55118 0.0
H133 H 0.99351 0.1208 0.52952 0.0
H134 H 0.96565 0.1762 0.50606 0.0
H135 H 0.8652 0.12763 0.52378 0.0
Gd136 Gd 0.53175 0.04944 0.90483 0.0
Gd137 Gd 0.51676 1.0027 0.71315 0.0
C138 C 0.59526 0.02462 0.71082 0.0
C139 C 0.55597 0.08572 0.09784 0.0
C140 C 0.58529 0.10891 0.11982 0.0
C141 C 0.59731 0.13173 0.02138 0.0
C142 C 0.60345 0.10569 0.23813 0.0
C143 C 0.64718 0.14555 0.15669 0.0
C144 C 0.6342 0.12351 0.2558 0.0
C145 C 0.62815 0.15005 0.03992 0.0
C146 C 0.51505 0.08368 0.67472 0.0
C147 C 0.45303 0.02751 0.90325 0.0
C148 C 0.49175 0.9638 0.52927 0.0
C149 C 0.45987 0.94325 0.51939 0.0
C150 C 0.4612 0.90819 0.48365 0.0
C151 C 0.42784 0.95845 0.54788 0.0
C152 C 0.39832 0.90492 0.49217 0.0
C153 C 0.39756 0.93964 0.53425 0.0
C154 C 0.43062 0.8891 0.47063 0.0
C155 C 0.53424 0.9693 0.94465 0.0
O156 O 0.58706 0.03656 0.82995 0.0
O157 O 0.57013 1.01348 0.63491 0.0
O158 O 0.5317 0.09671 0.01898 0.0
O159 O 0.56392 0.05325 0.07891 0.0
O160 O 0.50268 0.09061 0.79056 0.0
O161 O 0.53421 0.05722 0.68557 0.0
O162 O 0.46151 1.01644 0.78349 0.0
O163 O 0.4781 0.03789 0.98112 0.0
O164 O 0.51426 0.95285 0.61524 0.0
O165 O 0.48801 0.99742 0.5313 0.0
O166 O 0.54778 0.96357 0.82967 0.0
O167 O 0.51424 0.99506 0.93213 0.0
H168 H 0.58373 0.13425 0.92838 0.0
H169 H 0.59478 0.08794 0.31439 0.0
H170 H 0.64909 0.11814 0.34393 0.0
H171 H 0.63803 0.16619 0.96083 0.0
H172 H 0.4858 0.89579 0.46331 0.0
H173 H 0.42593 0.98532 0.57663 0.0
H174 H 0.37338 0.95327 0.54926 0.0
H175 H 0.43216 0.86243 0.4399 0.0
Gd176 Gd 0.49482 0.53691 0.9228 0.0
Gd177 Gd 0.54052 0.51998 0.72726 0.0
C178 C 0.51964 0.59845 0.72042 0.0
C179 C 0.45943 0.56537 0.11139 0.0
C180 C 0.43965 0.59768 0.1255 0.0
C181 C 0.40635 0.59721 0.18106 0.0
C182 C 0.45369 0.62912 0.08326 0.0
C183 C 0.40237 0.65977 0.16096 0.0
C184 C 0.43543 0.65975 0.10131 0.0
C185 C 0.38774 0.62796 0.19838 0.0
C186 C 0.4589 0.51551 0.70588 0.0
C187 C 0.5159 0.45754 0.92285 0.0
C188 C 0.57865 0.49361 0.54223 0.0
C189 C 0.59893 0.46145 0.53021 0.0
C190 C 0.63536 0.46229 0.52477 0.0
C191 C 0.58197 0.42954 0.52466 0.0
C192 C 0.63716 0.39974 0.50733 0.0
C193 C 0.60081 0.3992 0.51315 0.0
C194 C 0.65442 0.43155 0.51229 0.0
C195 C 0.57492 0.5384 0.9542 0.0
O196 O 0.50877 0.59099 0.8415 0.0
O197 O 0.52961 0.57283 0.64417 0.0
O198 O 0.44652 0.54281 0.02996 0.0
O199 O 0.49304 0.56806 0.10062 0.0
O200 O 0.45257 0.50632 0.8263 0.0
O201 O 0.48514 0.53539 0.70351 0.0
O202 O 0.52681 0.46539 0.80218 0.0
O203 O 0.50591 0.48303 1.00078 0.0
O204 O 0.59011 0.51618 0.62677 0.0
O205 O 0.545 0.49042 0.54686 0.0
O206 O 0.58041 0.5515 0.83839 0.0
O207 O 0.549 0.51858 0.94615 0.0
H208 H 0.39515 0.57316 0.21421 0.0
H209 H 0.47935 0.63028 0.0406 0.0
H210 H 0.44847 0.6836 0.07589 0.0
H211 H 0.36262 0.62702 0.24596 0.0
H212 H 0.64899 0.48671 0.5274 0.0
H213 H 0.55403 0.42784 0.52685 0.0
H214 H 0.58668 0.3752 0.50297 0.0
H215 H 0.68232 0.43264 0.50331 0.0
Gd216 Gd 1.01087 0.49702 0.92028 0.0
Gd217 Gd 0.03005 0.54056 0.72203 0.0
C218 C 0.95055 0.52181 0.71285 0.0
C219 C 0.98153 0.46612 0.11713 0.0
C220 C 0.95198 0.44319 0.13923 0.0
C221 C 0.93986 0.42083 0.04031 0.0
C222 C 0.93551 0.44406 0.26217 0.0
C223 C 0.89274 0.40284 0.18448 0.0
C224 C 0.90634 0.42399 0.28496 0.0
C225 C 0.91034 0.40071 0.0629 0.0
C226 C 0.03067 0.45856 0.70551 0.0
C227 C 0.09046 0.5147 0.92465 0.0
C228 C 0.06126 0.57527 0.53904 0.0
C229 C 0.09511 0.59293 0.53352 0.0
C230 C 0.09725 0.62928 0.53646 0.0
C231 C 0.12567 0.57355 0.52395 0.0
C232 C 0.15958 0.62627 0.50842 0.0
C233 C 0.15741 0.58998 0.51189 0.0
C234 C 0.12925 0.6459 0.52178 0.0
C235 C 1.01171 0.57731 0.94348 0.0
O236 O 0.95737 0.51042 0.83361 0.0
O237 O 0.97662 0.53196 0.63824 0.0
O238 O 1.00755 0.45311 0.05144 0.0
O239 O 0.97421 0.49786 0.08292 0.0
O240 O 0.0394 0.45254 0.82649 0.0
O241 O 1.01221 0.48581 0.70181 0.0
O242 O 0.08356 0.52477 0.80236 0.0
O243 O 0.06423 0.50686 1.00226 0.0
O244 O 0.03804 0.58888 0.6169 0.0
O245 O 0.06178 0.54151 0.54559 0.0
O246 O 1.0001 0.58321 0.82583 0.0
O247 O 0.03056 0.55055 0.93955 0.0
H248 H 0.95251 0.41979 0.94464 0.0
H249 H 0.94464 0.46107 0.33959 0.0
H250 H 0.89307 0.42702 0.37874 0.0
H251 H 0.90031 0.38489 0.9836 0.0
H252 H 0.07403 0.64479 0.54556 0.0
H253 H 0.12519 0.54558 0.52293 0.0
H254 H 0.18026 0.57407 0.49845 0.0
H255 H 0.13022 0.67386 0.51747 0.0
C256 C 0.16361 0.0355 0.4557 0.0
C257 C 0.16714 1.00235 0.39926 0.0
C258 C 0.13546 0.04365 0.54104 0.0
C259 C 0.10936 1.01926 0.57161 0.0
H260 H 0.18274 0.05517 0.43476 0.0
H261 H 0.13419 0.06925 0.58401 0.0
S262 S 0.10827 0.92791 0.45967 0.0
N263 N 0.14315 0.94435 0.38948 0.0
N264 N 0.09042 0.95999 0.54279 0.0
C265 C 0.11279 0.98614 0.5157 0.0
C266 C 0.14156 0.97767 0.43169 0.0
C267 C 0.50515 0.15914 0.42726 0.0
C268 C 0.53932 0.17143 0.4136 0.0
C269 C 0.49729 0.13052 0.51042 0.0
C270 C 0.52332 0.11285 0.58158 0.0
H271 H 0.48454 0.17117 0.37144 0.0
H272 H 0.47071 0.12194 0.51803 0.0
S273 S 0.61568 0.13811 0.59653 0.0
N274 N 0.59849 0.16578 0.49084 0.0
N275 N 0.58389 0.1123 0.64241 0.0
C276 C 0.55721 0.12568 0.57163 0.0
C277 C 0.56511 0.15479 0.48895 0.0
C278 C 0.3691 0.5203 0.54254 0.0
C279 C 0.37605 0.51336 0.40831 0.0
C280 C 0.39594 0.52086 0.63776 0.0
C281 C 0.43094 0.51494 0.6028 0.0
H282 H 0.34296 0.52634 0.5737 0.0
H283 H 0.38927 0.52672 0.73941 0.0
S284 S 0.46196 0.48951 0.27087 0.0
N285 N 0.42014 0.49627 0.24982 0.0
N286 N 0.47005 0.49808 0.42745 0.0
C287 C 0.43792 0.50681 0.47037 0.0
C288 C 0.41068 0.50585 0.37385 0.0
C289 C 1.01393 0.40984 0.38135 0.0
C290 C 0.02421 0.37556 0.40754 0.0
C291 C 1.01681 0.43657 0.47556 0.0
C292 C 0.03057 0.43041 0.60194 0.0
H293 H 1.00302 0.41582 0.28643 0.0
H294 H 1.00762 0.46216 0.44963 0.0
S295 S 0.06395 0.34546 0.72027 0.0
N296 N 0.05037 0.33728 0.56883 0.0
N297 N 0.05665 0.38702 0.74565 0.0
C298 C 0.04248 0.39636 0.6282 0.0
C299 C 0.0392 0.3691 0.53156 0.0
C300 C 0.91361 0.05474 0.21885 0.0
C301 C 0.88353 0.03416 0.22788 0.0
C302 C 0.94167 0.04597 0.13605 0.0
C303 C 0.94083 1.01649 0.05481 0.0
H304 H 0.91521 0.07864 0.27376 0.0
H305 H 0.96357 0.06338 0.13162 0.0
S306 S 0.86883 0.95303 0.04147 0.0
N307 N 0.8554 0.98198 0.15026 0.0
N308 N 0.90747 0.96594 0.9917 0.0
C309 C 0.91119 0.99522 0.06412 0.0
C310 C 0.88275 1.00392 0.15077 0.0
C311 C 0.53847 0.89324 0.19169 0.0
C312 C 0.50928 0.87346 0.15634 0.0
C313 C 0.54614 0.92503 0.12694 0.0
C314 C 0.52444 0.93856 0.02716 0.0
H315 H 0.55617 0.88352 0.26569 0.0
H316 H 0.56957 0.93868 0.15303 0.0
S317 S 0.44428 0.89792 0.90211 0.0
N318 N 0.45834 0.8708 0.01619 0.0
N319 N 0.47226 0.93006 0.8998 0.0
C320 C 0.49471 0.91964 0.99513 0.0
C321 C 0.48726 0.88734 0.05841 0.0
C322 C 0.6609 0.55243 0.13676 0.0
C323 C 0.66878 0.51934 0.18662 0.0
C324 C 0.62963 0.55892 0.06786 0.0
C325 C 0.6046 0.53283 0.04825 0.0
H326 H 0.68001 0.5728 0.14264 0.0
H327 H 0.62566 0.58427 0.02486 0.0
S328 S 0.6124 0.44197 0.16348 0.0
N329 N 0.64879 0.4603 0.21149 0.0
N330 N 0.58978 0.47283 0.09108 0.0
C331 C 0.61148 0.50018 0.10438 0.0
C332 C 0.64361 0.49338 0.17068 0.0
C333 C 0.05018 0.63157 0.22257 0.0
C334 C 0.03033 0.66225 0.22394 0.0
C335 C 0.04298 0.60391 0.13664 0.0
C336 C 1.01594 0.60568 0.04418 0.0
H337 H 0.07232 0.6291 0.28666 0.0
H338 H 0.05969 0.58142 0.13976 0.0
S339 S 0.95554 0.67985 1.005 0.0
N340 N 0.98161 0.69222 0.12508 0.0
N341 N 0.96858 0.64083 0.96063 0.0
C342 C 0.99552 0.63606 0.0445 0.0
C343 C 1.00257 0.66415 0.13444 0.0
C344 C 0.92431 0.24666 0.45723 0.0
C345 C 0.92316 0.24448 0.3181 0.0
C346 C 0.91145 0.21955 0.53489 0.0
C347 C 0.89823 0.18976 0.47381 0.0
H348 H 0.94069 0.26545 0.50547 0.0
H349 H 0.91874 0.21869 0.63823 0.0
S350 S 0.87028 0.18304 0.12557 0.0
N351 N 0.89219 0.21964 0.13235 0.0
N352 N 0.87008 0.16736 0.27763 0.0
C353 C 0.8875 0.1927 0.34197 0.0
C354 C 0.89966 0.22077 0.26344 0.0
C355 C 0.30644 0.91104 0.44129 0.0
C356 C 0.30781 0.9114 0.30207 0.0
C357 C 0.33477 0.89893 0.51392 0.0
C358 C 0.36533 0.88901 0.44766 0.0
H359 H 0.28682 0.92557 0.494 0.0
H360 H 0.33544 0.90454 0.61885 0.0
S361 S 0.37052 0.86342 0.09517 0.0
N362 N 0.33282 0.88323 0.10961 0.0
N363 N 0.38775 0.86351 0.24442 0.0
C364 C 0.36215 0.87924 0.31438 0.0
C365 C 0.33259 0.88999 0.24139 0.0
C366 C 0.65186 0.33466 0.26836 0.0
C367 C 0.63006 0.3103 0.33059 0.0
C368 C 0.66395 0.36327 0.33942 0.0
C369 C 0.6549 0.36709 0.47321 0.0
H370 H 0.65356 0.33548 0.16143 0.0
H371 H 0.67379 0.38518 0.28411 0.0
S372 S 0.61934 0.29967 0.693 0.0
N373 N 0.61474 0.28403 0.54225 0.0
N374 N 0.6395 0.33698 0.67496 0.0
C375 C 0.64431 0.3374 0.5418 0.0
C376 C 0.63081 0.30889 0.46975 0.0
C377 C 0.2509 0.61729 0.45546 0.0
C378 C 0.24931 0.61884 0.31623 0.0
C379 C 0.22285 0.62882 0.53167 0.0
C380 C 0.19306 0.6417 0.46909 0.0
H381 H 0.26989 0.60116 0.50424 0.0
H382 H 0.22159 0.62094 0.63445 0.0
S383 S 0.18791 0.67172 0.12242 0.0
N384 N 0.22507 0.65066 0.13092 0.0
N385 N 0.17117 0.67053 0.27294 0.0
C386 C 0.19655 0.65331 0.33828 0.0
C387 C 0.22555 0.64241 0.26152 0.0
C388 C 0.15093 0.82157 0.35994 0.0
C389 C 0.12817 0.79816 0.29831 0.0
C390 C 0.16537 0.84887 0.28715 0.0
C391 C 0.15731 0.85262 0.1526 0.0
H392 H 0.15212 0.82282 0.46686 0.0
H393 H 0.17622 0.87044 0.34119 0.0
S394 S 0.11983 0.78597 0.93583 0.0
N395 N 0.11309 0.77153 0.08747 0.0
N396 N 0.1416 0.82238 0.95238 0.0
C397 C 0.14529 0.82334 0.08587 0.0
C398 C 0.12973 0.79602 0.15925 0.0
C399 C 0.72491 0.15599 0.34915 0.0
C400 C 0.74418 0.13014 0.28415 0.0
C401 C 0.69475 0.16915 0.2912 0.0
C402 C 0.68368 0.15652 0.16792 0.0
H403 H 0.7292 0.16092 0.45325 0.0
H404 H 0.67694 0.18356 0.35317 0.0
S405 S 0.73585 0.10501 0.93263 0.0
N406 N 0.7583 0.10455 0.07114 0.0
N407 N 0.7016 0.12933 0.96257 0.0
C408 C 0.708 0.13908 0.08917 0.0
C409 C 0.73861 0.12566 0.14798 0.0
C410 C 0.38905 0.72596 0.41388 0.0
C411 C 0.40923 0.7515 0.35076 0.0
C412 C 0.3797 0.69611 0.34419 0.0
C413 C 0.3878 0.69314 0.20879 0.0
H414 H 0.38768 0.72516 0.52088 0.0
H415 H 0.3718 0.67371 0.40097 0.0
S416 S 0.41341 0.76486 0.98743 0.0
N417 N 0.41874 0.78014 0.13835 0.0
N418 N 0.39764 0.7255 1.00622 0.0
C419 C 0.39543 0.72378 0.14023 0.0
C420 C 0.40671 0.75329 0.21186 0.0
C421 C 0.81603 0.39117 0.38436 0.0
C422 C 0.79605 0.41628 0.3186 0.0
C423 C 0.84625 0.37836 0.32497 0.0
C424 C 0.85661 0.39069 0.19984 0.0
H425 H 0.81238 0.38697 0.48943 0.0
H426 H 0.86463 0.36472 0.38672 0.0
S427 S 0.80182 0.43883 0.96317 0.0
N428 N 0.77996 0.43947 0.10365 0.0
N429 N 0.83689 0.41575 0.99282 0.0
C430 C 0.83138 0.40667 0.12106 0.0
C431 C 0.80061 0.41951 0.18109 0.0
C432 C 1.01166 0.18804 0.94122 0.0
C433 C 1.02148 0.1963 0.0719 0.0
C434 C 1.0158 0.15434 0.88848 0.0
C435 C 0.02945 0.12687 0.96444 0.0
H436 H 0.99897 0.20745 0.88119 0.0
H437 H 1.00687 0.14955 0.78882 0.0
S438 S 0.05863 0.13461 0.31384 0.0
N439 N 0.04539 0.17397 0.27574 0.0
N440 N 0.05331 0.11118 0.17907 0.0
C441 C 0.0402 0.13513 0.09449 0.0
C442 C 0.03615 0.16951 0.14743 0.0
C443 C 0.3555 1.00633 0.9285 0.0
C444 C 0.34687 1.01406 0.06112 0.0
C445 C 0.38913 1.01211 0.87665 0.0
C446 C 0.41617 0.02534 0.9554 0.0
H447 H 0.33657 0.99381 0.86616 0.0
H448 H 0.39426 1.00471 0.77534 0.0
S449 S 0.40728 0.04938 0.31055 0.0
N450 N 0.36835 0.03568 0.26965 0.0
N451 N 0.43095 0.04663 0.17472 0.0
C452 C 0.40746 0.03412 0.08744 0.0
C453 C 0.37317 0.02842 0.13945 0.0
C454 C 0.52086 0.38126 0.16842 0.0
C455 C 0.52834 0.35218 0.08903 0.0
C456 C 0.51565 0.41452 0.11359 0.0
C457 C 0.51802 0.42082 0.9761 0.0
H458 H 0.52117 0.37867 0.27511 0.0
H459 H 0.51155 0.43581 0.18099 0.0
S460 S 0.53587 0.3533 0.72334 0.0
N461 N 0.53705 0.33194 0.86481 0.0
N462 N 0.52694 0.39387 0.76147 0.0
C463 C 0.52435 0.39168 0.89511 0.0
C464 C 0.52957 0.35771 0.95137 0.0
C465 C 0.18859 0.5315 0.95252 0.0
C466 C 0.1969 0.52142 0.08298 0.0
C467 C 0.15478 0.52799 0.90073 0.0
C468 C 0.12719 0.5148 0.97755 0.0
H469 H 0.20813 0.54384 0.89171 0.0
H470 H 0.15002 0.53707 0.8011 0.0
S471 S 0.13509 0.48427 0.32548 0.0
N472 N 0.17455 0.49719 0.28693 0.0
N473 N 0.11147 0.49051 0.19176 0.0
C474 C 0.13545 0.50369 0.10722 0.0
C475 C 0.17 0.50704 0.15922 0.0
C476 C 1.01812 0.87244 0.47107 0.0
C477 C 0.02829 0.8436 0.54712 0.0
C478 C 1.01384 0.90564 0.52769 0.0
C479 C 1.02019 0.91204 0.66322 0.0
H480 H 1.01539 0.86975 0.365 0.0
H481 H 1.00713 0.92683 0.46259 0.0
S482 S 0.04568 0.84494 0.90759 0.0
N483 N 0.04329 0.82355 0.76664 0.0
N484 N 0.03535 0.88539 0.873 0.0
C485 C 0.02915 0.88309 0.74126 0.0
C486 C 0.03325 0.84921 0.68343 0.0
C487 C 0.69401 0.04007 0.68343 0.0
C488 C 0.70145 0.03399 0.54863 0.0
C489 C 0.66017 0.03608 0.73639 0.0
C490 C 0.63194 0.0261 0.65663 0.0
H491 H 0.71422 0.04965 0.74714 0.0
H492 H 0.65596 0.04198 0.83985 0.0
S493 S 0.63748 1.00809 0.29523 0.0
N494 N 0.67751 1.01796 0.33672 0.0
N495 N 0.61467 1.01016 0.43329 0.0
C496 C 0.6394 1.01918 0.5219 0.0
C497 C 0.67378 0.02321 0.46887 0.0
C498 C 0.50709 0.69755 0.70072 0.0
C499 C 0.51262 0.70549 0.56592 0.0
C500 C 0.51066 0.66347 0.75062 0.0
C501 C 0.51931 0.63529 0.66791 0.0
H502 H 0.49792 0.71757 0.76699 0.0
H503 H 0.5053 0.65907 0.85428 0.0
S504 S 0.53601 0.64201 0.30585 0.0
N505 N 0.52724 0.68209 0.35092 0.0
N506 N 0.53398 0.61861 0.44233 0.0
C507 C 0.52593 0.64318 0.53334 0.0
C508 C 0.52251 0.67793 0.48318 0.0
C509 C 0.85157 0.50809 0.68941 0.0
C510 C 0.84373 0.51478 0.55546 0.0
C511 C 0.88557 0.51155 0.7401 0.0
C512 C 0.91381 0.52138 0.65908 0.0
H513 H 0.83152 0.49826 0.75431 0.0
H514 H 0.88989 0.50519 0.84304 0.0
S515 S 0.90752 0.5409 0.29934 0.0
N516 N 0.86745 0.5313 0.34269 0.0
N517 N 0.93071 0.53799 0.43573 0.0
C518 C 0.90608 0.52889 0.52528 0.0
C519 C 0.87141 0.52548 0.47427 0.0
loop_
_geom_bond_atom_site_label_1
_geom_bond_atom_site_label_2
_geom_bond_distance
_geom_bond_site_symmetry_2
_ccdc_geom_bond_type
H0 C5 0.930 . S
H1 C8 0.930 . S
H2 C10 0.930 . S
H3 C4 1.016 . S
C4 H3 1.016 . S
C4 N11 1.286 . S
C5 H0 0.930 . S
C5 C6 1.397 . S
C5 C7 1.361 . S
C6 C5 1.397 . S
C6 C10 1.390 . S
C7 C5 1.361 . S
C7 C8 1.393 . S
C7 N11 1.413 . S
C8 H1 0.930 . S
C8 C7 1.393 . S
C8 C9 1.399 . S
C9 C8 1.399 . S
C9 C10 1.381 . S
C10 H2 0.930 . S
C10 C6 1.390 . S
C10 C9 1.381 . S
N11 C4 1.286 . S
N11 C7 1.413 . S
H12 C17 0.930 . S
H13 C20 0.930 . S
H14 C22 0.930 . S
H15 C16 1.016 . S
C16 H15 1.016 . S
C16 N23 1.286 1_655 S
C17 H12 0.930 . S
C17 C18 1.397 . S
C17 C19 1.361 . S
C18 C17 1.397 . S
C18 C22 1.390 1_455 S
C19 C17 1.361 . S
C19 C20 1.393 . S
C19 N23 1.413 . S
C20 H13 0.930 . S
C20 C19 1.393 . S
C20 C21 1.403 . S
C21 C20 1.403 . S
C21 C22 1.379 1_455 S
C22 H14 0.930 . S
C22 C18 1.390 1_655 S
C22 C21 1.379 1_655 S
N23 C16 1.286 1_455 S
N23 C19 1.413 . S
H24 C29 0.930 . S
H25 C32 0.930 . S
H26 C34 0.930 . S
H27 C28 1.016 . S
C28 H27 1.016 . S
C28 N35 1.286 1_565 S
C29 H24 0.930 . S
C29 C30 1.397 . S
C29 C31 1.361 . S
C30 C29 1.397 . S
C30 C34 1.390 1_545 S
C31 C29 1.361 . S
C31 C32 1.393 . S
C31 N35 1.413 . S
C32 H25 0.930 . S
C32 C31 1.393 . S
C32 C33 1.403 . S
C33 C32 1.403 . S
C33 C34 1.379 1_545 S
C34 H26 0.930 . S
C34 C30 1.390 1_565 S
C34 C33 1.379 1_565 S
N35 C28 1.286 1_545 S
N35 C31 1.413 . S
H36 C41 0.930 . S
H37 C44 0.930 . S
H38 C46 0.930 . S
H39 C40 1.016 . S
C40 H39 1.016 . S
C40 N47 1.286 . S
C41 H36 0.930 . S
C41 C42 1.397 . S
C41 C43 1.361 . S
C42 C41 1.397 . S
C42 C46 1.390 . S
C43 C41 1.361 . S
C43 C44 1.393 . S
C43 N47 1.413 . S
C44 H37 0.930 . S
C44 C43 1.393 . S
C44 C45 1.399 . S
C45 C44 1.399 . S
C45 C46 1.381 . S
C46 H38 0.930 . S
C46 C42 1.390 . S
C46 C45 1.381 . S
N47 C40 1.286 . S
N47 C43 1.413 . S
H48 C53 0.930 . S
H49 C56 0.930 . S
H50 C58 0.930 1_556 S
H51 C52 1.016 . S
C52 H51 1.016 . S
C52 N59 1.286 . S
C53 H48 0.930 . S
C53 C54 1.397 . S
C53 C55 1.361 1_556 S
C54 C53 1.397 . S
C54 C58 1.390 1_556 S
C55 C53 1.361 1_554 S
C55 C56 1.393 . S
C55 N59 1.413 . S
C56 H49 0.930 . S
C56 C55 1.393 . S
C56 C57 1.399 . S
C57 C56 1.399 . S
C57 C58 1.381 . S
C58 H50 0.930 1_554 S
C58 C54 1.390 1_554 S
C58 C57 1.381 . S
N59 C52 1.286 . S
N59 C55 1.413 . S
H60 C65 0.930 . S
H61 C68 0.930 . S
H62 C70 0.930 1_556 S
H63 C64 1.027 . S
C64 H63 1.027 . S
C64 N71 1.272 1_655 S
C65 H60 0.930 . S
C65 C66 1.397 . S
C65 C67 1.361 1_556 S
C66 C65 1.397 . S
C66 C70 1.390 1_456 S
C67 C65 1.361 1_554 S
C67 C68 1.393 . S
C67 N71 1.413 . S
C68 H61 0.930 . S
C68 C67 1.393 . S
C68 C69 1.404 . S
C69 C68 1.404 . S
C69 C70 1.378 1_455 S
C70 H62 0.930 1_554 S
C70 C66 1.390 1_654 S
C70 C69 1.378 1_655 S
N71 C64 1.272 1_455 S
N71 C67 1.413 . S
H72 C77 0.930 . S
H73 C80 0.930 . S
H74 C82 0.930 1_556 S
H75 C76 1.026 . S
C76 H75 1.026 . S
C76 N83 1.272 1_565 S
C77 H72 0.930 . S
C77 C78 1.397 . S
C77 C79 1.361 1_556 S
C78 C77 1.397 . S
C78 C82 1.390 1_546 S
C79 C77 1.361 1_554 S
C79 C80 1.393 . S
C79 N83 1.413 . S
C80 H73 0.930 . S
C80 C79 1.393 . S
C80 C81 1.404 . S
C81 C80 1.404 . S
C81 C82 1.378 1_545 S
C82 H74 0.930 1_554 S
C82 C78 1.390 1_564 S
C82 C81 1.378 1_565 S
N83 C76 1.272 1_545 S
N83 C79 1.413 . S
H84 C89 0.930 . S
H85 C92 0.930 . S
H86 C94 0.930 1_556 S
H87 C88 1.016 . S
C88 H87 1.016 . S
C88 N95 1.286 . S
C89 H84 0.930 . S
C89 C90 1.397 . S
C89 C91 1.361 1_556 S
C90 C89 1.397 . S
C90 C94 1.390 1_556 S
C91 C89 1.361 1_554 S
C91 C92 1.393 . S
C91 N95 1.413 . S
C92 H85 0.930 . S
C92 C91 1.393 . S
C92 C93 1.399 . S
C93 C92 1.399 . S
C93 C94 1.381 . S
C94 H86 0.930 1_554 S
C94 C90 1.390 1_554 S
C94 C93 1.381 . S
N95 C88 1.286 . S
N95 C91 1.413 . S
Gd96 C99 2.818 1_556 S
Gd96 O116 2.377 . S
Gd96 O118 2.448 1_556 S
Gd96 O119 2.506 1_556 S
Gd96 O120 2.435 . S
Gd96 O121 2.717 1_565 S
Gd96 O123 2.395 1_565 S
Gd96 O127 2.327 1_455 S
Gd97 C108 2.818 . S
Gd97 O117 2.395 1_545 S
Gd97 O121 2.327 1_655 S
Gd97 O122 2.377 . S
Gd97 O124 2.448 . S
Gd97 O125 2.506 . S
Gd97 O126 2.435 . S
Gd97 O127 2.717 1_545 S
C98 O116 1.240 1_655 S
C98 O117 1.240 . S
C99 Gd96 2.818 1_554 S
C99 C100 1.510 . S
C99 O118 1.249 . S
C99 O119 1.252 . S
C100 C99 1.510 . S
C100 C101 1.404 . S
C100 C102 1.352 . S
C101 C100 1.404 . S
C101 C105 1.389 . S
C101 H128 0.930 . S
C102 C100 1.352 . S
C102 C104 1.374 . S
C102 H129 0.931 1_455 S
C103 C104 1.359 . S
C103 C105 1.364 . S
C104 C102 1.374 . S
C104 C103 1.359 . S
C104 H130 0.931 1_455 S
C105 C101 1.389 . S
C105 C103 1.364 . S
C105 H131 0.931 . S
C106 O120 1.256 . S
C106 O121 1.257 1_565 S
C107 O122 1.240 1_455 S
C107 O123 1.240 . S
C108 Gd97 2.818 . S
C108 C109 1.510 . S
C108 O124 1.249 . S
C108 O125 1.252 . S
C109 C108 1.510 . S
C109 C110 1.404 . S
C109 C111 1.352 . S
C110 C109 1.404 . S
C110 C114 1.389 . S
C110 H132 0.930 . S
C111 C109 1.352 . S
C111 C113 1.374 . S
C111 H133 0.931 1_655 S
C112 C113 1.359 . S
C112 C114 1.364 . S
C113 C111 1.374 . S
C113 C112 1.359 . S
C113 H134 0.931 1_655 S
C114 C110 1.389 . S
C114 C112 1.364 . S
C114 H135 0.931 . S
C115 O126 1.256 . S
C115 O127 1.257 1_545 S
O116 Gd96 2.377 . S
O116 C98 1.240 1_455 S
O117 Gd97 2.395 1_565 S
O117 C98 1.240 . S
O118 Gd96 2.448 1_554 S
O118 C99 1.249 . S
O119 Gd96 2.506 1_554 S
O119 C99 1.252 . S
O120 Gd96 2.435 . S
O120 C106 1.256 . S
O121 Gd96 2.717 1_545 S
O121 Gd97 2.327 1_455 S
O121 C106 1.257 1_545 S
O122 Gd97 2.377 . S
O122 C107 1.240 1_655 S
O123 Gd96 2.395 1_545 S
O123 C107 1.240 . S
O124 Gd97 2.448 . S
O124 C108 1.249 . S
O125 Gd97 2.506 . S
O125 C108 1.252 . S
O126 Gd97 2.435 . S
O126 C115 1.256 . S
O127 Gd96 2.327 1_655 S
O127 Gd97 2.717 1_565 S
O127 C115 1.257 1_565 S
H128 C101 0.930 . S
H129 C102 0.931 1_655 S
H130 C104 0.931 1_655 S
H131 C105 0.931 . S
H132 C110 0.930 . S
H133 C111 0.931 1_455 S
H134 C113 0.931 1_455 S
H135 C114 0.931 . S
Gd136 C139 2.818 1_556 S
Gd136 O156 2.377 . S
Gd136 O158 2.448 1_556 S
Gd136 O159 2.506 1_556 S
Gd136 O160 2.435 . S
Gd136 O161 2.717 . S
Gd136 O163 2.395 . S
Gd136 O167 2.327 1_545 S
Gd137 C148 2.818 . S
Gd137 O157 2.395 . S
Gd137 O161 2.327 1_565 S
Gd137 O162 2.377 . S
Gd137 O164 2.448 . S
Gd137 O165 2.506 . S
Gd137 O166 2.435 . S
Gd137 O167 2.717 . S
C138 O156 1.240 1_565 S
C138 O157 1.240 . S
C139 Gd136 2.818 1_554 S
C139 C140 1.510 . S
C139 O158 1.249 . S
C139 O159 1.252 . S
C140 C139 1.510 . S
C140 C141 1.404 . S
C140 C142 1.352 . S
C141 C140 1.404 . S
C141 C145 1.389 . S
C141 H168 0.930 . S
C142 C140 1.352 . S
C142 C144 1.374 . S
C142 H169 0.931 1_545 S
C143 C144 1.359 . S
C143 C145 1.364 . S
C144 C142 1.374 . S
C144 C143 1.359 . S
C144 H170 0.931 1_545 S
C145 C141 1.389 . S
C145 C143 1.364 . S
C145 H171 0.931 . S
C146 O160 1.256 . S
C146 O161 1.257 . S
C147 O162 1.240 1_545 S
C147 O163 1.240 . S
C148 Gd137 2.818 . S
C148 C149 1.510 . S
C148 O164 1.249 . S
C148 O165 1.252 . S
C149 C148 1.510 . S
C149 C150 1.404 . S
C149 C151 1.352 . S
C150 C149 1.404 . S
C150 C154 1.389 . S
C150 H172 0.930 . S
C151 C149 1.352 . S
C151 C153 1.374 . S
C151 H173 0.931 1_565 S
C152 C153 1.359 . S
C152 C154 1.364 . S
C153 C151 1.374 . S
C153 C152 1.359 . S
C153 H174 0.931 1_565 S
C154 C150 1.389 . S
C154 C152 1.364 . S
C154 H175 0.931 . S
C155 O166 1.256 . S
C155 O167 1.257 . S
O156 Gd136 2.377 . S
O156 C138 1.240 1_545 S
O157 Gd137 2.395 . S
O157 C138 1.240 . S
O158 Gd136 2.448 1_554 S
O158 C139 1.249 . S
O159 Gd136 2.506 1_554 S
O159 C139 1.252 . S
O160 Gd136 2.435 . S
O160 C146 1.256 . S
O161 Gd136 2.717 . S
O161 Gd137 2.327 1_545 S
O161 C146 1.257 . S
O162 Gd137 2.377 . S
O162 C147 1.240 1_565 S
O163 Gd136 2.395 . S
O163 C147 1.240 . S
O164 Gd137 2.448 . S
O164 C148 1.249 . S
O165 Gd137 2.506 . S
O165 C148 1.252 . S
O166 Gd137 2.435 . S
O166 C155 1.256 . S
O167 Gd136 2.327 1_565 S
O167 Gd137 2.717 . S
O167 C155 1.257 . S
H168 C141 0.930 . S
H169 C142 0.931 1_565 S
H170 C144 0.931 1_565 S
H171 C145 0.931 . S
H172 C150 0.930 . S
H173 C151 0.931 1_545 S
H174 C153 0.931 1_545 S
H175 C154 0.931 . S
Gd176 C179 2.818 1_556 S
Gd176 O196 2.377 . S
Gd176 O198 2.448 1_556 S
Gd176 O199 2.506 1_556 S
Gd176 O200 2.435 . S
Gd176 O201 2.717 . S
Gd176 O203 2.395 . S
Gd176 O207 2.327 . S
Gd177 C188 2.818 . S
Gd177 O197 2.395 . S
Gd177 O201 2.327 . S
Gd177 O202 2.377 . S
Gd177 O204 2.448 . S
Gd177 O205 2.506 . S
Gd177 O206 2.435 . S
Gd177 O207 2.717 . S
C178 O196 1.240 . S
C178 O197 1.240 . S
C179 Gd176 2.818 1_554 S
C179 C180 1.510 . S
C179 O198 1.249 . S
C179 O199 1.252 . S
C180 C179 1.510 . S
C180 C181 1.404 . S
C180 C182 1.352 . S
C181 C180 1.404 . S
C181 C185 1.389 . S
C181 H208 0.930 . S
C182 C180 1.352 . S
C182 C184 1.374 . S
C182 H209 0.931 . S
C183 C184 1.359 . S
C183 C185 1.364 . S
C184 C182 1.374 . S
C184 C183 1.359 . S
C184 H210 0.931 . S
C185 C181 1.389 . S
C185 C183 1.364 . S
C185 H211 0.931 . S
C186 O200 1.256 . S
C186 O201 1.257 . S
C187 O202 1.240 . S
C187 O203 1.240 . S
C188 Gd177 2.818 . S
C188 C189 1.510 . S
C188 O204 1.249 . S
C188 O205 1.252 . S
C189 C188 1.510 . S
C189 C190 1.404 . S
C189 C191 1.352 . S
C190 C189 1.404 . S
C190 C194 1.389 . S
C190 H212 0.930 . S
C191 C189 1.352 . S
C191 C193 1.374 . S
C191 H213 0.931 . S
C192 C193 1.359 . S
C192 C194 1.364 . S
C193 C191 1.374 . S
C193 C192 1.359 . S
C193 H214 0.931 . S
C194 C190 1.389 . S
C194 C192 1.364 . S
C194 H215 0.931 . S
C195 O206 1.256 . S
C195 O207 1.257 . S
O196 Gd176 2.377 . S
O196 C178 1.240 . S
O197 Gd177 2.395 . S
O197 C178 1.240 . S
O198 Gd176 2.448 1_554 S
O198 C179 1.249 . S
O199 Gd176 2.506 1_554 S
O199 C179 1.252 . S
O200 Gd176 2.435 . S
O200 C186 1.256 . S
O201 Gd176 2.717 . S
O201 Gd177 2.327 . S
O201 C186 1.257 . S
O202 Gd177 2.377 . S
O202 C187 1.240 . S
O203 Gd176 2.395 . S
O203 C187 1.240 . S
O204 Gd177 2.448 . S
O204 C188 1.249 . S
O205 Gd177 2.506 . S
O205 C188 1.252 . S
O206 Gd177 2.435 . S
O206 C195 1.256 . S
O207 Gd176 2.327 . S
O207 Gd177 2.717 . S
O207 C195 1.257 . S
H208 C181 0.930 . S
H209 C182 0.931 . S
H210 C184 0.931 . S
H211 C185 0.931 . S
H212 C190 0.930 . S
H213 C191 0.931 . S
H214 C193 0.931 . S
H215 C194 0.931 . S
Gd216 C219 2.818 1_556 S
Gd216 O236 2.377 . S
Gd216 O238 2.448 1_556 S
Gd216 O239 2.506 1_556 S
Gd216 O240 2.435 . S
Gd216 O241 2.717 1_655 S
Gd216 O243 2.395 1_655 S
Gd216 O247 2.327 . S
Gd217 C228 2.818 . S
Gd217 O237 2.395 1_455 S
Gd217 O241 2.327 . S
Gd217 O242 2.377 . S
Gd217 O244 2.448 . S
Gd217 O245 2.506 . S
Gd217 O246 2.435 . S
Gd217 O247 2.717 1_455 S
C218 O236 1.240 . S
C218 O237 1.240 . S
C219 Gd216 2.818 1_554 S
C219 C220 1.510 . S
C219 O238 1.249 . S
C219 O239 1.252 . S
C220 C219 1.510 . S
C220 C221 1.404 . S
C220 C222 1.352 . S
C221 C220 1.404 . S
C221 C225 1.389 . S
C221 H248 0.930 . S
C222 C220 1.352 . S
C222 C224 1.374 . S
C222 H249 0.931 . S
C223 C224 1.359 . S
C223 C225 1.364 . S
C224 C222 1.374 . S
C224 C223 1.359 . S
C224 H250 0.931 . S
C225 C221 1.389 . S
C225 C223 1.364 . S
C225 H251 0.931 . S
C226 O240 1.271 . S
C226 O241 1.249 1_655 S
C227 O242 1.240 . S
C227 O243 1.240 . S
C228 Gd217 2.818 . S
C228 C229 1.510 . S
C228 O244 1.249 . S
C228 O245 1.252 . S
C229 C228 1.510 . S
C229 C230 1.404 . S
C229 C231 1.352 . S
C230 C229 1.404 . S
C230 C234 1.389 . S
C230 H252 0.930 . S
C231 C229 1.352 . S
C231 C233 1.374 . S
C231 H253 0.931 . S
C232 C233 1.359 . S
C232 C234 1.364 . S
C233 C231 1.374 . S
C233 C232 1.359 . S
C233 H254 0.931 . S
C234 C230 1.389 . S
C234 C232 1.364 . S
C234 H255 0.931 . S
C235 O246 1.256 . S
C235 O247 1.257 1_455 S
O236 Gd216 2.377 . S
O236 C218 1.240 . S
O237 Gd217 2.395 1_655 S
O237 C218 1.240 . S
O238 Gd216 2.448 1_554 S
O238 C219 1.249 . S
O239 Gd216 2.506 1_554 S
O239 C219 1.252 . S
O240 Gd216 2.435 . S
O240 C226 1.271 . S
O241 Gd216 2.717 1_455 S
O241 Gd217 2.327 . S
O241 C226 1.249 1_455 S
O242 Gd217 2.377 . S
O242 C227 1.240 . S
O243 Gd216 2.395 1_455 S
O243 C227 1.240 . S
O244 Gd217 2.448 . S
O244 C228 1.249 . S
O245 Gd217 2.506 . S
O245 C228 1.252 . S
O246 Gd217 2.435 . S
O246 C235 1.256 . S
O247 Gd216 2.327 . S
O247 Gd217 2.717 1_655 S
O247 C235 1.257 1_655 S
H248 C221 0.930 . S
H249 C222 0.931 . S
H250 C224 0.931 . S
H251 C225 0.931 . S
H252 C230 0.930 . S
H253 C231 0.931 . S
H254 C233 0.931 . S
H255 C234 0.931 . S
C256 C257 1.372 . S
C256 C258 1.419 . S
C256 H260 0.930 . S
C257 C256 1.372 . S
C257 C266 1.426 1_545 S
C258 C256 1.419 . S
C258 C259 1.363 . S
C258 H261 0.929 . S
C259 C258 1.363 . S
C259 C265 1.428 1_545 S
H260 C256 0.930 . S
H261 C258 0.929 . S
S262 N263 1.613 . S
S262 N264 1.610 . S
N263 S262 1.613 . S
N263 C266 1.350 . S
N264 S262 1.610 . S
N264 C265 1.351 . S
C265 C259 1.428 1_565 S
C265 N264 1.351 . S
C265 C266 1.434 . S
C266 C257 1.426 1_565 S
C266 N263 1.350 . S
C266 C265 1.434 . S
C267 C268 1.369 . S
C267 C269 1.419 . S
C267 H271 0.930 . S
C268 C267 1.369 . S
C268 C277 1.429 . S
C269 C267 1.419 . S
C269 C270 1.363 . S
C269 H272 0.929 . S
C270 C269 1.363 . S
C270 C276 1.428 . S
H271 C267 0.930 . S
H272 C269 0.929 . S
S273 N274 1.613 . S
S273 N275 1.610 . S
N274 S273 1.613 . S
N274 C277 1.350 . S
N275 S273 1.610 . S
N275 C276 1.351 . S
C276 C270 1.428 . S
C276 N275 1.351 . S
C276 C277 1.434 . S
C277 C268 1.429 . S
C277 N274 1.350 . S
C277 C276 1.434 . S
C278 C279 1.369 . S
C278 C280 1.419 . S
C278 H282 0.930 . S
C279 C278 1.369 . S
C279 C288 1.429 . S
C280 C278 1.419 . S
C280 C281 1.363 . S
C280 H283 0.929 . S
C281 C280 1.363 . S
C281 C287 1.428 . S
H282 C278 0.930 . S
H283 C280 0.929 . S
S284 N285 1.613 . S
S284 N286 1.610 . S
N285 S284 1.613 . S
N285 C288 1.350 . S
N286 S284 1.610 . S
N286 C287 1.351 . S
C287 C281 1.428 . S
C287 N286 1.351 . S
C287 C288 1.434 . S
C288 C279 1.429 . S
C288 N285 1.350 . S
C288 C287 1.434 . S
C289 C290 1.348 1_655 S
C289 C291 1.419 . S
C289 H293 0.930 . S
C290 C289 1.348 1_455 S
C290 C299 1.451 . S
C291 C289 1.419 . S
C291 C292 1.363 1_655 S
C291 H294 0.929 . S
C292 C291 1.363 1_455 S
C292 C298 1.428 . S
H293 C289 0.930 . S
H294 C291 0.929 . S
S295 N296 1.613 . S
S295 N297 1.610 . S
N296 S295 1.613 . S
N296 C299 1.350 . S
N297 S295 1.610 . S
N297 C298 1.351 . S
C298 C292 1.428 . S
C298 N297 1.351 . S
C298 C299 1.434 . S
C299 C290 1.451 . S
C299 N296 1.350 . S
C299 C298 1.434 . S
C300 C301 1.346 1_545 S
C300 C302 1.419 . S
C300 H304 0.930 . S
C301 C300 1.346 1_565 S
C301 C310 1.453 . S
C302 C300 1.419 . S
C302 C303 1.363 1_545 S
C302 H305 0.929 . S
C303 C302 1.363 1_565 S
C303 C309 1.428 . S
H304 C300 0.930 . S
H305 C302 0.929 . S
S306 N307 1.613 . S
S306 N308 1.610 . S
N307 S306 1.613 . S
N307 C310 1.350 . S
N308 S306 1.610 . S
N308 C309 1.351 . S
C309 C303 1.428 . S
C309 N308 1.351 . S
C309 C310 1.434 . S
C310 C301 1.453 . S
C310 N307 1.350 . S
C310 C309 1.434 . S
C311 C312 1.369 . S
C311 C313 1.419 . S
C311 H315 0.930 . S
C312 C311 1.369 . S
C312 C321 1.429 . S
C313 C311 1.419 . S
C313 C314 1.363 . S
C313 H316 0.929 . S
C314 C313 1.363 . S
C314 C320 1.428 . S
H315 C311 0.930 . S
H316 C313 0.929 . S
S317 N318 1.613 . S
S317 N319 1.610 . S
N318 S317 1.613 . S
N318 C321 1.350 . S
N319 S317 1.610 . S
N319 C320 1.351 . S
C320 C314 1.428 . S
C320 N319 1.351 . S
C320 C321 1.434 . S
C321 C312 1.429 . S
C321 N318 1.350 . S
C321 C320 1.434 . S
C322 C323 1.369 . S
C322 C324 1.419 . S
C322 H326 0.930 . S
C323 C322 1.369 . S
C323 C332 1.429 . S
C324 C322 1.419 . S
C324 C325 1.363 . S
C324 H327 0.929 . S
C325 C324 1.363 . S
C325 C331 1.428 . S
H326 C322 0.930 . S
H327 C324 0.929 . S
S328 N329 1.613 . S
S328 N330 1.610 . S
N329 S328 1.613 . S
N329 C332 1.350 . S
N330 S328 1.610 . S
N330 C331 1.351 . S
C331 C325 1.428 . S
C331 N330 1.351 . S
C331 C332 1.434 . S
C332 C323 1.429 . S
C332 N329 1.350 . S
C332 C331 1.434 . S
C333 C334 1.369 1_455 S
C333 C335 1.419 . S
C333 H337 0.930 . S
C334 C333 1.369 1_655 S
C334 C343 1.429 . S
C335 C333 1.419 . S
C335 C336 1.363 1_455 S
C335 H338 0.929 . S
C336 C335 1.363 1_655 S
C336 C342 1.428 . S
H337 C333 0.930 . S
H338 C335 0.929 . S
S339 N340 1.613 . S
S339 N341 1.610 . S
N340 S339 1.613 . S
N340 C343 1.350 . S
N341 S339 1.610 . S
N341 C342 1.351 . S
C342 C336 1.428 . S
C342 N341 1.351 . S
C342 C343 1.434 . S
C343 C334 1.429 . S
C343 N340 1.350 . S
C343 C342 1.434 . S
C344 C345 1.369 . S
C344 C346 1.419 . S
C344 H348 0.930 . S
C345 C344 1.369 . S
C345 C354 1.429 . S
C346 C344 1.419 . S
C346 C347 1.363 . S
C346 H349 0.929 . S
C347 C346 1.363 . S
C347 C353 1.428 . S
H348 C344 0.930 . S
H349 C346 0.929 . S
S350 N351 1.613 . S
S350 N352 1.610 1_455 S
N351 S350 1.613 . S
N351 C354 1.346 1_455 S
N352 S350 1.610 1_655 S
N352 C353 1.351 . S
C353 C347 1.428 . S
C353 N352 1.351 . S
C353 C354 1.438 . S
C354 C345 1.429 . S
C354 N351 1.346 1_655 S
C354 C353 1.438 . S
C355 C356 1.369 . S
C355 C357 1.419 . S
C355 H359 0.930 1_565 S
C356 C355 1.369 . S
C356 C365 1.429 . S
C357 C355 1.419 . S
C357 C358 1.363 . S
C357 H360 0.929 . S
C358 C357 1.363 . S
C358 C364 1.428 . S
H359 C355 0.930 1_545 S
H360 C357 0.929 . S
S361 N362 1.613 . S
S361 N363 1.610 1_556 S
N362 S361 1.613 . S
N362 C365 1.350 1_556 S
N363 S361 1.610 1_554 S
N363 C364 1.351 . S
C364 C358 1.428 . S
C364 N363 1.351 . S
C364 C365 1.434 . S
C365 C356 1.429 . S
C365 N362 1.350 1_554 S
C365 C364 1.434 . S
C366 C367 1.369 . S
C366 C368 1.419 . S
C366 H370 0.930 . S
C367 C366 1.369 . S
C367 C376 1.429 . S
C368 C366 1.419 . S
C368 C369 1.363 . S
C368 H371 0.929 . S
C369 C368 1.363 . S
C369 C375 1.428 . S
H370 C366 0.930 . S
H371 C368 0.929 . S
S372 N373 1.613 . S
S372 N374 1.610 . S
N373 S372 1.613 . S
N373 C376 1.350 . S
N374 S372 1.610 . S
N374 C375 1.351 . S
C375 C369 1.428 . S
C375 N374 1.351 . S
C375 C376 1.434 . S
C376 C367 1.429 . S
C376 N373 1.350 . S
C376 C375 1.434 . S
C377 C378 1.369 . S
C377 C379 1.419 . S
C377 H381 0.930 . S
C378 C377 1.369 . S
C378 C387 1.429 . S
C379 C377 1.419 . S
C379 C380 1.363 . S
C379 H382 0.929 . S
C380 C379 1.363 . S
C380 C386 1.428 . S
H381 C377 0.930 . S
H382 C379 0.929 . S
S383 N384 1.613 . S
S383 N385 1.610 . S
N384 S383 1.613 . S
N384 C387 1.350 . S
N385 S383 1.610 . S
N385 C386 1.351 . S
C386 C380 1.428 . S
C386 N385 1.351 . S
C386 C387 1.434 . S
C387 C378 1.429 . S
C387 N384 1.350 . S
C387 C386 1.434 . S
C388 C389 1.369 . S
C388 C390 1.419 . S
C388 H392 0.930 . S
C389 C388 1.369 . S
C389 C398 1.429 . S
C390 C388 1.419 . S
C390 C391 1.363 . S
C390 H393 0.929 . S
C391 C390 1.363 . S
C391 C397 1.428 . S
H392 C388 0.930 . S
H393 C390 0.929 . S
S394 N395 1.613 . S
S394 N396 1.610 . S
N395 S394 1.613 . S
N395 C398 1.350 . S
N396 S394 1.610 . S
N396 C397 1.351 . S
C397 C391 1.428 . S
C397 N396 1.351 . S
C397 C398 1.434 . S
C398 C389 1.429 . S
C398 N395 1.350 . S
C398 C397 1.434 . S
C399 C400 1.369 . S
C399 C401 1.419 . S
C399 H403 0.930 . S
C400 C399 1.369 . S
C400 C409 1.429 1_545 S
C401 C399 1.419 . S
C401 C402 1.363 . S
C401 H404 0.929 . S
C402 C401 1.363 . S
C402 C408 1.428 . S
H403 C399 0.930 . S
H404 C401 0.929 . S
S405 N406 1.613 . S
S405 N407 1.625 . S
N406 S405 1.613 . S
N406 C409 1.350 . S
N407 S405 1.625 . S
N407 C408 1.345 1_565 S
C408 C402 1.428 . S
C408 N407 1.345 1_545 S
C408 C409 1.434 1_545 S
C409 C400 1.429 1_565 S
C409 N406 1.350 . S
C409 C408 1.434 1_565 S
C410 C411 1.369 . S
C410 C412 1.419 . S
C410 H414 0.930 . S
C411 C410 1.369 . S
C411 C420 1.429 . S
C412 C410 1.419 . S
C412 C413 1.363 . S
C412 H415 0.929 . S
C413 C412 1.363 . S
C413 C419 1.428 . S
H414 C410 0.930 . S
H415 C412 0.929 . S
S416 N417 1.613 . S
S416 N418 1.610 . S
N417 S416 1.613 . S
N417 C420 1.350 . S
N418 S416 1.610 . S
N418 C419 1.351 . S
C419 C413 1.428 . S
C419 N418 1.351 . S
C419 C420 1.434 . S
C420 C411 1.429 . S
C420 N417 1.350 . S
C420 C419 1.434 . S
C421 C422 1.369 . S
C421 C423 1.419 . S
C421 H425 0.930 . S
C422 C421 1.369 . S
C422 C431 1.429 . S
C423 C421 1.419 . S
C423 C424 1.363 . S
C423 H426 0.929 . S
C424 C423 1.363 . S
C424 C430 1.428 . S
H425 C421 0.930 . S
H426 C423 0.929 . S
S427 N428 1.613 . S
S427 N429 1.610 . S
N428 S427 1.613 . S
N428 C431 1.350 . S
N429 S427 1.610 . S
N429 C430 1.351 . S
C430 C424 1.428 . S
C430 N429 1.351 . S
C430 C431 1.434 . S
C431 C422 1.429 . S
C431 N428 1.350 . S
C431 C430 1.434 . S
C432 C433 1.369 1_655 S
C432 C434 1.419 . S
C432 H436 0.930 . S
C433 C432 1.369 1_455 S
C433 C442 1.429 . S
C434 C432 1.419 . S
C434 C435 1.363 1_655 S
C434 H437 0.929 . S
C435 C434 1.363 1_455 S
C435 C441 1.428 . S
H436 C432 0.930 . S
H437 C434 0.929 . S
S438 N439 1.613 . S
S438 N440 1.610 . S
N439 S438 1.613 . S
N439 C442 1.350 1_554 S
N440 S438 1.610 . S
N440 C441 1.351 1_554 S
C441 C435 1.428 . S
C441 N440 1.351 1_556 S
C441 C442 1.434 . S
C442 C433 1.429 . S
C442 N439 1.350 1_556 S
C442 C441 1.434 . S
C443 C444 1.369 1_565 S
C443 C445 1.419 . S
C443 H447 0.930 . S
C444 C443 1.369 1_545 S
C444 C453 1.429 . S
C445 C443 1.419 . S
C445 C446 1.363 1_565 S
C445 H448 0.929 . S
C446 C445 1.363 1_545 S
C446 C452 1.428 . S
H447 C443 0.930 . S
H448 C445 0.929 . S
S449 N450 1.613 . S
S449 N451 1.610 . S
N450 S449 1.613 . S
N450 C453 1.350 . S
N451 S449 1.610 . S
N451 C452 1.351 . S
C452 C446 1.428 . S
C452 N451 1.351 . S
C452 C453 1.434 . S
C453 C444 1.429 . S
C453 N450 1.350 . S
C453 C452 1.434 . S
C454 C455 1.369 . S
C454 C456 1.419 . S
C454 H458 0.930 1_556 S
C455 C454 1.369 . S
C455 C464 1.429 . S
C456 C454 1.419 . S
C456 C457 1.363 . S
C456 H459 0.929 1_556 S
C457 C456 1.363 . S
C457 C463 1.428 . S
H458 C454 0.930 1_554 S
H459 C456 0.929 1_554 S
S460 N461 1.613 . S
S460 N462 1.610 . S
N461 S460 1.613 . S
N461 C464 1.350 . S
N462 S460 1.610 . S
N462 C463 1.351 . S
C463 C457 1.428 . S
C463 N462 1.351 . S
C463 C464 1.434 . S
C464 C455 1.429 . S
C464 N461 1.350 . S
C464 C463 1.434 . S
C465 C466 1.369 . S
C465 C467 1.419 . S
C465 H469 0.930 . S
C466 C465 1.369 . S
C466 C475 1.429 . S
C467 C465 1.419 . S
C467 C468 1.363 . S
C467 H470 0.929 . S
C468 C467 1.363 . S
C468 C474 1.428 . S
H469 C465 0.930 . S
H470 C467 0.929 . S
S471 N472 1.613 . S
S471 N473 1.610 . S
N472 S471 1.613 . S
N472 C475 1.350 . S
N473 S471 1.610 . S
N473 C474 1.351 . S
C474 C468 1.428 . S
C474 N473 1.351 . S
C474 C475 1.434 . S
C475 C466 1.429 . S
C475 N472 1.350 . S
C475 C474 1.434 . S
C476 C477 1.369 . S
C476 C478 1.419 . S
C476 H480 0.930 . S
C477 C476 1.369 . S
C477 C486 1.429 1_655 S
C478 C476 1.419 . S
C478 C479 1.363 . S
C478 H481 0.929 . S
C479 C478 1.363 . S
C479 C485 1.428 1_655 S
H480 C476 0.930 . S
H481 C478 0.929 . S
S482 N483 1.613 . S
S482 N484 1.610 . S
N483 S482 1.613 . S
N483 C486 1.350 . S
N484 S482 1.610 . S
N484 C485 1.351 . S
C485 C479 1.428 1_455 S
C485 N484 1.351 . S
C485 C486 1.434 . S
C486 C477 1.429 1_455 S
C486 N483 1.350 . S
C486 C485 1.434 . S
C487 C488 1.369 1_545 S
C487 C489 1.419 1_545 S
C487 H491 0.930 . S
C488 C487 1.369 1_565 S
C488 C497 1.429 . S
C489 C487 1.419 1_565 S
C489 C490 1.363 . S
C489 H492 0.929 1_565 S
C490 C489 1.363 . S
C490 C496 1.428 . S
H491 C487 0.930 . S
H492 C489 0.929 1_545 S
S493 N494 1.613 . S
S493 N495 1.610 . S
N494 S493 1.613 . S
N494 C497 1.350 . S
N495 S493 1.610 . S
N495 C496 1.351 . S
C496 C490 1.428 . S
C496 N495 1.351 . S
C496 C497 1.434 . S
C497 C488 1.429 . S
C497 N494 1.350 . S
C497 C496 1.434 . S
C498 C499 1.369 . S
C498 C500 1.419 . S
C498 H502 0.930 . S
C499 C498 1.369 . S
C499 C508 1.429 . S
C500 C498 1.419 . S
C500 C501 1.363 . S
C500 H503 0.929 . S
C501 C500 1.363 . S
C501 C507 1.428 . S
H502 C498 0.930 . S
H503 C500 0.929 . S
S504 N505 1.613 . S
S504 N506 1.610 1_554 S
N505 S504 1.613 . S
N505 C508 1.350 1_554 S
N506 S504 1.610 1_556 S
N506 C507 1.351 . S
C507 C501 1.428 . S
C507 N506 1.351 . S
C507 C508 1.434 . S
C508 C499 1.429 . S
C508 N505 1.350 1_556 S
C508 C507 1.434 . S
C509 C510 1.369 . S
C509 C511 1.419 . S
C509 H513 0.930 . S
C510 C509 1.369 . S
C510 C519 1.429 . S
C511 C509 1.419 . S
C511 C512 1.363 . S
C511 H514 0.929 . S
C512 C511 1.363 . S
C512 C518 1.428 . S
H513 C509 0.930 . S
H514 C511 0.929 . S
S515 N516 1.613 . S
S515 N517 1.610 . S
N516 S515 1.613 . S
N516 C519 1.350 . S
N517 S515 1.610 . S
N517 C518 1.351 . S
C518 C512 1.428 . S
C518 N517 1.351 . S
C518 C519 1.434 . S
C519 C510 1.429 . S
C519 N516 1.350 . S
C519 C518 1.434 . S
C257 C76 1.932 1_545 S
C259 C106 2.204 1_545 S
C270 C146 2.213 . S
C268 C88 1.942 . S
C281 C186 2.219 . S
C279 C52 1.957 . S
C292 C226 2.211 1_455 S
C290 C64 1.934 1_455 S
C303 C115 2.208 1_564 S
C301 C28 1.940 . S
C312 C40 1.936 . S
C314 C155 2.217 1_554 S
C323 C4 1.950 . S
C325 C195 2.218 1_554 S
C334 C16 1.935 . S
C336 C235 2.214 1_654 S
C347 C112 0.805 . S
C345 C69 0.809 1_655 S
C358 C152 0.814 . S
C356 C81 0.804 1_565 S
C369 C192 0.797 . S
C367 C93 0.814 . S
C378 C57 0.819 . S
C380 C232 0.801 . S
C389 C21 0.818 . S
C391 C103 0.812 . S
C402 C143 0.798 . S
C400 C33 0.827 . S
C413 C183 0.803 . S
C411 C45 0.816 . S
C422 C9 0.819 . S
C424 C223 0.801 . S
C433 C66 2.224 . S
C435 C107 2.558 . S
C444 C78 2.212 . S
C446 C147 2.542 . S
C457 C187 2.534 . S
C455 C90 2.207 . S
C468 C227 2.556 . S
C466 C54 2.217 . S
C477 C18 2.243 1_655 S
C479 C98 2.564 . S
C490 C138 2.542 . S
C488 C30 2.214 1_565 S
C501 C178 2.535 . S
C499 C42 2.221 . S
C510 C6 2.234 . S
C512 C218 2.560 . S
