# Generated by pormake.
# Topology ctn, (3,4)-cn, num edge types: 1
# Building blocks:
#     Node 0, Type 0, BuildingBlock: BETDAH_clean_linker_0, # of connection points: 3
#     Node 1, Type 0, BuildingBlock: BETDAH_clean_linker_0, # of connection points: 3
#     Node 2, Type 0, BuildingBlock: BETDAH_clean_linker_0, # of connection points: 3
#     Node 3, Type 0, BuildingBlock: BETDAH_clean_linker_0, # of connection points: 3
#     Node 4, Type 0, BuildingBlock: BETDAH_clean_linker_0, # of connection points: 3
#     Node 5, Type 0, BuildingBlock: BETDAH_clean_linker_0, # of connection points: 3
#     Node 6, Type 0, BuildingBlock: BETDAH_clean_linker_0, # of connection points: 3
#     Node 7, Type 0, BuildingBlock: BETDAH_clean_linker_0, # of connection points: 3
#     Node 8, Type 0, BuildingBlock: BETDAH_clean_linker_0, # of connection points: 3
#     Node 9, Type 0, BuildingBlock: BETDAH_clean_linker_0, # of connection points: 3
#     Node 10, Type 0, BuildingBlock: BETDAH_clean_linker_0, # of connection points: 3
#     Node 11, Type 0, BuildingBlock: BETDAH_clean_linker_0, # of connection points: 3
#     Node 12, Type 0, BuildingBlock: BETDAH_clean_linker_0, # of connection points: 3
#     Node 13, Type 0, BuildingBlock: BETDAH_clean_linker_0, # of connection points: 3
#     Node 14, Type 0, BuildingBlock: BETDAH_clean_linker_0, # of connection points: 3
#     Node 15, Type 0, BuildingBlock: BETDAH_clean_linker_0, # of connection points: 3
#     Node 16, Type 1, BuildingBlock: AZAVOO_clean_sbu_0, # of connection points: 4
#     Node 17, Type 1, BuildingBlock: AZAVOO_clean_sbu_0, # of connection points: 4
#     Node 18, Type 1, BuildingBlock: AZAVOO_clean_sbu_0, # of connection points: 4
#     Node 19, Type 1, BuildingBlock: AZAVOO_clean_sbu_0, # of connection points: 4
#     Node 20, Type 1, BuildingBlock: AZAVOO_clean_sbu_0, # of connection points: 4
#     Node 21, Type 1, BuildingBlock: AZAVOO_clean_sbu_0, # of connection points: 4
#     Node 22, Type 1, BuildingBlock: AZAVOO_clean_sbu_0, # of connection points: 4
#     Node 23, Type 1, BuildingBlock: AZAVOO_clean_sbu_0, # of connection points: 4
#     Node 24, Type 1, BuildingBlock: AZAVOO_clean_sbu_0, # of connection points: 4
#     Node 25, Type 1, BuildingBlock: AZAVOO_clean_sbu_0, # of connection points: 4
#     Node 26, Type 1, BuildingBlock: AZAVOO_clean_sbu_0, # of connection points: 4
#     Node 27, Type 1, BuildingBlock: AZAVOO_clean_sbu_0, # of connection points: 4
#     Edge 28, Type (0, 1), BuildingBlock: MIFKUJ_clean_linker_0, # of connection points: 2
#     Edge 29, Type (0, 1), BuildingBlock: MIFKUJ_clean_linker_0, # of connection points: 2
#     Edge 30, Type (0, 1), BuildingBlock: MIFKUJ_clean_linker_0, # of connection points: 2
#     Edge 31, Type (0, 1), BuildingBlock: MIFKUJ_clean_linker_0, # of connection points: 2
#     Edge 32, Type (0, 1), BuildingBlock: MIFKUJ_clean_linker_0, # of connection points: 2
#     Edge 33, Type (0, 1), BuildingBlock: MIFKUJ_clean_linker_0, # of connection points: 2
#     Edge 34, Type (0, 1), BuildingBlock: MIFKUJ_clean_linker_0, # of connection points: 2
#     Edge 35, Type (0, 1), BuildingBlock: MIFKUJ_clean_linker_0, # of connection points: 2
#     Edge 36, Type (0, 1), BuildingBlock: MIFKUJ_clean_linker_0, # of connection points: 2
#     Edge 37, Type (0, 1), BuildingBlock: MIFKUJ_clean_linker_0, # of connection points: 2
#     Edge 38, Type (0, 1), BuildingBlock: MIFKUJ_clean_linker_0, # of connection points: 2
#     Edge 39, Type (0, 1), BuildingBlock: MIFKUJ_clean_linker_0, # of connection points: 2
#     Edge 40, Type (0, 1), BuildingBlock: MIFKUJ_clean_linker_0, # of connection points: 2
#     Edge 41, Type (0, 1), BuildingBlock: MIFKUJ_clean_linker_0, # of connection points: 2
#     Edge 42, Type (0, 1), BuildingBlock: MIFKUJ_clean_linker_0, # of connection points: 2
#     Edge 43, Type (0, 1), BuildingBlock: MIFKUJ_clean_linker_0, # of connection points: 2
#     Edge 44, Type (0, 1), BuildingBlock: MIFKUJ_clean_linker_0, # of connection points: 2
#     Edge 45, Type (0, 1), BuildingBlock: MIFKUJ_clean_linker_0, # of connection points: 2
#     Edge 46, Type (0, 1), BuildingBlock: MIFKUJ_clean_linker_0, # of connection points: 2
#     Edge 47, Type (0, 1), BuildingBlock: MIFKUJ_clean_linker_0, # of connection points: 2
#     Edge 48, Type (0, 1), BuildingBlock: MIFKUJ_clean_linker_0, # of connection points: 2
#     Edge 49, Type (0, 1), BuildingBlock: MIFKUJ_clean_linker_0, # of connection points: 2
#     Edge 50, Type (0, 1), BuildingBlock: MIFKUJ_clean_linker_0, # of connection points: 2
#     Edge 51, Type (0, 1), BuildingBlock: MIFKUJ_clean_linker_0, # of connection points: 2
#     Edge 52, Type (0, 1), BuildingBlock: MIFKUJ_clean_linker_0, # of connection points: 2
#     Edge 53, Type (0, 1), BuildingBlock: MIFKUJ_clean_linker_0, # of connection points: 2
#     Edge 54, Type (0, 1), BuildingBlock: MIFKUJ_clean_linker_0, # of connection points: 2
#     Edge 55, Type (0, 1), BuildingBlock: MIFKUJ_clean_linker_0, # of connection points: 2
#     Edge 56, Type (0, 1), BuildingBlock: MIFKUJ_clean_linker_0, # of connection points: 2
#     Edge 57, Type (0, 1), BuildingBlock: MIFKUJ_clean_linker_0, # of connection points: 2
#     Edge 58, Type (0, 1), BuildingBlock: MIFKUJ_clean_linker_0, # of connection points: 2
#     Edge 59, Type (0, 1), BuildingBlock: MIFKUJ_clean_linker_0, # of connection points: 2
#     Edge 60, Type (0, 1), BuildingBlock: MIFKUJ_clean_linker_0, # of connection points: 2
#     Edge 61, Type (0, 1), BuildingBlock: MIFKUJ_clean_linker_0, # of connection points: 2
#     Edge 62, Type (0, 1), BuildingBlock: MIFKUJ_clean_linker_0, # of connection points: 2
#     Edge 63, Type (0, 1), BuildingBlock: MIFKUJ_clean_linker_0, # of connection points: 2
#     Edge 64, Type (0, 1), BuildingBlock: MIFKUJ_clean_linker_0, # of connection points: 2
#     Edge 65, Type (0, 1), BuildingBlock: MIFKUJ_clean_linker_0, # of connection points: 2
#     Edge 66, Type (0, 1), BuildingBlock: MIFKUJ_clean_linker_0, # of connection points: 2
#     Edge 67, Type (0, 1), BuildingBlock: MIFKUJ_clean_linker_0, # of connection points: 2
#     Edge 68, Type (0, 1), BuildingBlock: MIFKUJ_clean_linker_0, # of connection points: 2
#     Edge 69, Type (0, 1), BuildingBlock: MIFKUJ_clean_linker_0, # of connection points: 2
#     Edge 70, Type (0, 1), BuildingBlock: MIFKUJ_clean_linker_0, # of connection points: 2
#     Edge 71, Type (0, 1), BuildingBlock: MIFKUJ_clean_linker_0, # of connection points: 2
#     Edge 72, Type (0, 1), BuildingBlock: MIFKUJ_clean_linker_0, # of connection points: 2
#     Edge 73, Type (0, 1), BuildingBlock: MIFKUJ_clean_linker_0, # of connection points: 2
#     Edge 74, Type (0, 1), BuildingBlock: MIFKUJ_clean_linker_0, # of connection points: 2
#     Edge 75, Type (0, 1), BuildingBlock: MIFKUJ_clean_linker_0, # of connection points: 2
# Relax obj value: 0.050
# Max RMSD: 0.173
# Mean RMSD: 0.106
data_MOF--net-ctn--node1-AZAVOO_clean_sbu_0--node2-BETDAH_clean_linker_0--edge1-MIFKUJ_clean_linker_0
_symmetry_space_group_name_H-M    P1
_symmetry_Int_Tables_number       1
_symmetry_cell_setting            triclinic
loop_
_symmetry_equiv_pos_as_xyz
'x, y, z'
_cell_length_a     69.789901
_cell_length_b     70.815407
_cell_length_c     71.583587
_cell_angle_alpha  98.277551
_cell_angle_beta   92.917118
_cell_angle_gamma 97.358651
loop_
_atom_site_label
_atom_site_type_symbol
_atom_site_fract_x
_atom_site_fract_y
_atom_site_fract_z
_atom_type_partial_charge
H0 H 0.06091 0.00853 0.06867 0.0
H1 H 0.05663 0.02015 0.01121 0.0
H2 H 0.01225 0.03335 0.04801 0.0
C3 C 0.0535 0.01432 0.05757 0.0
C4 C 0.03584 0.02143 0.06092 0.0
C5 C 0.06119 0.0137 0.03968 0.0
C6 C 0.05107 0.02057 0.0251 0.0
C7 C 0.03334 0.02738 0.0282 0.0
C8 C 0.02584 0.02775 0.04594 0.0
N9 N 0.02197 0.03245 0.01324 0.0
C10 C 0.02854 0.04675 0.00282 0.0
H11 H 0.32909 0.69847 0.24976 0.0
H12 H 0.36422 0.74413 0.22866 0.0
H13 H 0.30792 0.7215 0.20143 0.0
C14 C 0.33121 0.70846 0.23965 0.0
C15 C 0.3166 0.7085 0.22544 0.0
C16 C 0.3484 0.72135 0.241 0.0
C17 C 0.3509 0.73422 0.2279 0.0
C18 C 0.33644 0.73453 0.21373 0.0
C19 C 0.31918 0.72156 0.21243 0.0
N20 N 0.34011 0.74795 0.20101 0.0
C21 C 0.32631 0.7533 0.1889 0.0
H22 H 0.02341 0.45762 0.05105 0.0
H23 H 0.00273 0.51277 0.0549 0.0
H24 H 0.99517 0.47405 0.00228 0.0
C25 C 0.01573 0.46774 0.04469 0.0
C26 C 0.00921 0.46346 0.02548 0.0
C27 C 0.01369 0.48557 0.0554 0.0
C28 C 0.00417 0.4989 0.04689 0.0
C29 C 0.99733 0.49456 0.02771 0.0
C30 C 1.00023 0.47708 0.01711 0.0
N31 N 0.9889 0.50799 0.01815 0.0
C32 C 0.97561 0.51954 0.02558 0.0
H33 H 0.77433 0.82945 0.2003 0.0
H34 H 0.72562 0.80054 0.22449 0.0
H35 H 0.75268 0.85644 0.25112 0.0
C36 C 0.76428 0.8291 0.21133 0.0
C37 C 0.76533 0.84501 0.22571 0.0
C38 C 0.75019 0.81286 0.21083 0.0
C39 C 0.7365 0.81294 0.22467 0.0
C40 C 0.73741 0.82887 0.2391 0.0
C41 C 0.75187 0.84457 0.23958 0.0
N42 N 0.72453 0.82974 0.25381 0.0
C43 C 0.70811 0.81678 0.25509 0.0
H44 H 0.06717 0.01485 0.47152 0.0
H45 H 0.07427 0.99621 0.52587 0.0
H46 H 0.01912 0.98339 0.49393 0.0
C47 C 0.06133 0.00732 0.48259 0.0
C48 C 0.0419 0.99888 0.48057 0.0
C49 C 0.07321 0.00645 0.49881 0.0
C50 C 0.06555 0.99639 0.51295 0.0
C51 C 0.04603 0.98798 0.51111 0.0
C52 C 0.03433 0.98925 0.49494 0.0
N53 N 0.03709 0.98137 0.52672 0.0
C54 C 0.04029 0.96445 0.53333 0.0
H55 H 0.25454 0.70316 0.82165 0.0
H56 H 0.20266 0.71493 0.79287 0.0
H57 H 0.23415 0.67095 0.76714 0.0
C58 C 0.24405 0.7002 0.80955 0.0
C59 C 0.24628 0.68566 0.79457 0.0
C60 C 0.22834 0.71085 0.80914 0.0
C61 C 0.21492 0.707 0.79325 0.0
C62 C 0.21702 0.69251 0.77813 0.0
C63 C 0.23259 0.68193 0.77897 0.0
N64 N 0.20374 0.68797 0.76191 0.0
C65 C 0.18867 0.69822 0.75803 0.0
H66 H 0.95278 0.53186 0.49824 0.0
H67 H 0.99931 0.53908 0.46131 0.0
H68 H 0.9553 0.4898 0.44923 0.0
C69 C 0.95997 0.52682 0.48579 0.0
C70 C 0.95208 0.5095 0.47443 0.0
C71 C 0.97712 0.53758 0.48136 0.0
C72 C 0.98614 0.53097 0.4649 0.0
C73 C 0.97819 0.5136 0.45335 0.0
C74 C 0.96133 0.50308 0.45827 0.0
N75 N 0.98648 0.50589 0.4367 0.0
C76 C 0.00311 0.51367 0.42912 0.0
H77 H 0.83269 0.74641 0.79971 0.0
H78 H 0.79813 0.77995 0.76906 0.0
H79 H 0.77493 0.7532 0.81472 0.0
C80 C 0.81949 0.75262 0.79756 0.0
C81 C 0.80423 0.74897 0.80914 0.0
C82 C 0.81741 0.76363 0.78281 0.0
C83 C 0.79998 0.77144 0.78028 0.0
C84 C 0.78468 0.76768 0.79185 0.0
C85 C 0.78685 0.75626 0.80598 0.0
N86 N 0.76647 0.77409 0.78901 0.0
C87 C 0.76385 0.79174 0.78366 0.0
H88 H 0.32775 0.25149 0.29443 0.0
H89 H 0.30225 0.29582 0.27028 0.0
H90 H 0.27433 0.26873 0.31339 0.0
C91 C 0.31648 0.26061 0.29381 0.0
C92 C 0.30104 0.25843 0.30551 0.0
C93 C 0.31721 0.27408 0.281 0.0
C94 C 0.30191 0.28529 0.27987 0.0
C95 C 0.28636 0.2831 0.29152 0.0
C96 C 0.28617 0.26983 0.3042 0.0
N97 N 0.27054 0.29387 0.29133 0.0
C98 C 0.26759 0.30801 0.2803 0.0
H99 H 0.52497 0.96069 0.55467 0.0
H100 H 0.50939 0.01596 0.5769 0.0
H101 H 0.48472 0.98694 0.52253 0.0
C102 C 0.51705 0.97266 0.55321 0.0
C103 C 0.50504 0.9721 0.53668 0.0
C104 C 0.51855 0.98825 0.56801 0.0
C105 C 0.50799 0.00349 0.56594 0.0
C106 C 0.49558 0.003 0.54984 0.0
C107 C 0.49393 0.98717 0.53523 0.0
N108 N 0.48577 0.01917 0.54863 0.0
C109 C 0.46855 0.01904 0.53792 0.0
H110 H 0.28175 0.32806 0.69466 0.0
H111 H 0.23141 0.29941 0.71664 0.0
H112 H 0.2568 0.35597 0.74306 0.0
C113 C 0.27102 0.32784 0.70507 0.0
C114 C 0.27118 0.34401 0.71899 0.0
C115 C 0.25686 0.31157 0.70412 0.0
C116 C 0.24237 0.31181 0.71717 0.0
C117 C 0.24236 0.32802 0.73111 0.0
C118 C 0.25677 0.34383 0.73194 0.0
N119 N 0.22835 0.32924 0.74476 0.0
C120 C 0.21303 0.31521 0.74664 0.0
H121 H 0.82978 0.19593 0.75029 0.0
H122 H 0.85929 0.23031 0.71256 0.0
H123 H 0.8073 0.19206 0.69267 0.0
C124 C 0.83052 0.20096 0.73671 0.0
C125 C 0.81629 0.19297 0.72215 0.0
C126 C 0.84634 0.21427 0.73344 0.0
C127 C 0.84728 0.22011 0.71546 0.0
C128 C 0.83315 0.21209 0.70086 0.0
C129 C 0.81794 0.19839 0.70417 0.0
N130 N 0.83511 0.21612 0.68223 0.0
C131 C 0.83409 0.23426 0.67738 0.0
H132 H 0.56509 0.5108 0.57071 0.0
H133 H 0.57109 0.51345 0.51171 0.0
H134 H 0.52941 0.54392 0.5408 0.0
C135 C 0.56092 0.51633 0.55797 0.0
C136 C 0.54607 0.52811 0.55802 0.0
C137 C 0.57032 0.51138 0.54145 0.0
C138 C 0.56438 0.51772 0.52471 0.0
C139 C 0.54975 0.52943 0.52447 0.0
C140 C 0.54078 0.53488 0.54115 0.0
N141 N 0.54345 0.53435 0.50691 0.0
C142 C 0.54008 0.55275 0.50444 0.0
H143 H 0.57422 0.51329 0.96497 0.0
H144 H 0.5736 0.48472 0.01425 0.0
H145 H 0.52343 0.47596 0.97489 0.0
C146 C 0.56681 0.50352 0.97346 0.0
C147 C 0.54778 0.49493 0.96783 0.0
C148 C 0.57627 0.49986 0.99011 0.0
C149 C 0.56649 0.48736 0.00125 0.0
C150 C 0.54739 0.47859 0.99559 0.0
C151 C 0.53824 0.4825 0.97898 0.0
N152 N 0.53643 0.4664 0.00641 0.0
C153 C 0.54368 0.45695 0.02039 0.0
H154 H 0.75235 0.19737 0.32228 0.0
H155 H 0.70028 0.21319 0.29743 0.0
H156 H 0.72445 0.16407 0.27094 0.0
C157 C 0.74072 0.19488 0.31122 0.0
C158 C 0.74029 0.17939 0.2965 0.0
C159 C 0.7264 0.20725 0.31168 0.0
C160 C 0.71131 0.20372 0.29727 0.0
C161 C 0.71061 0.18808 0.28257 0.0
C162 C 0.7251 0.17609 0.2823 0.0
N163 N 0.6956 0.18381 0.26781 0.0
C164 C 0.68164 0.19553 0.26451 0.0
H165 H 0.4447 0.0312 0.0061 0.0
H166 H 0.49589 0.03626 0.97472 0.0
H167 H 0.45439 0.98504 0.96332 0.0
C168 C 0.45356 0.02532 0.99531 0.0
C169 C 0.44744 0.00686 0.98523 0.0
C170 C 0.47116 0.03606 0.99189 0.0
C171 C 0.48227 0.02832 0.97745 0.0
C172 C 0.4761 0.00983 0.96718 0.0
C173 C 0.45893 0.99927 0.97131 0.0
N174 N 0.48697 0.00076 0.95313 0.0
C175 C 0.50169 0.00967 0.94373 0.0
Mg176 Mg 0.2341 0.86321 0.02199 0.0
O177 O 0.2639 0.88108 0.0199 0.0
O178 O 0.28566 0.86048 0.02014 0.0
Mg179 Mg 0.2709 0.83055 0.02336 0.0
C180 C 0.28135 0.87734 0.01924 0.0
C181 C 0.21901 0.90288 0.0259 0.0
O182 O 0.23111 0.90514 0.04098 0.0
O183 O 0.23423 0.84905 0.9909 0.0
O184 O 0.25518 0.82817 0.99416 0.0
O185 O 0.23716 0.86848 0.05394 0.0
O186 O 0.2476 0.84432 0.03626 0.0
C187 C 0.24311 0.83517 0.98402 0.0
C188 C 0.2462 0.85357 0.05283 0.0
O189 O 0.21769 0.88733 0.01423 0.0
Mg190 Mg 0.16911 0.51321 0.25919 0.0
O191 O 0.14931 0.50942 0.23146 0.0
O192 O 0.16948 0.51157 0.20828 0.0
Mg193 Mg 0.201 0.51577 0.22014 0.0
C194 C 0.1524 0.50956 0.214 0.0
C195 C 0.13076 0.5158 0.27879 0.0
O196 O 0.13161 0.53036 0.26924 0.0
O197 O 0.17648 0.48226 0.25235 0.0
O198 O 0.19764 0.48625 0.23035 0.0
O199 O 0.17078 0.54541 0.26229 0.0
O200 O 0.19137 0.52903 0.24692 0.0
C201 C 0.18877 0.47582 0.24125 0.0
C202 C 0.18557 0.54539 0.25212 0.0
O203 O 0.14356 0.50452 0.27664 0.0
Mg204 Mg 0.79107 0.65964 0.02006 0.0
O205 O 0.76199 0.6391 0.01666 0.0
O206 O 0.73871 0.65812 0.01639 0.0
Mg207 Mg 0.75209 0.68949 0.01767 0.0
C208 C 0.74412 0.64152 0.01601 0.0
C209 C 0.82702 0.64003 0.01546 0.0
O210 O 0.83318 0.65861 0.01773 0.0
O211 O 0.7884 0.66329 0.98871 0.0
O212 O 0.76552 0.6827 0.98908 0.0
O213 O 0.78983 0.66431 0.05161 0.0
O214 O 0.77762 0.68248 0.03283 0.0
C215 C 0.77783 0.67347 0.98035 0.0
C216 C 0.78026 0.67848 0.04967 0.0
O217 O 0.80886 0.63459 0.01464 0.0
Mg218 Mg 0.93574 0.05006 0.27207 0.0
O219 O 0.9175 0.02045 0.26231 0.0
O220 O 0.93765 0.99917 0.25361 0.0
Mg221 Mg 0.96865 0.01442 0.25938 0.0
C222 C 0.92058 0.00341 0.25577 0.0
C223 C 0.9033 0.07553 0.27393 0.0
O224 O 0.91365 0.08096 0.26034 0.0
O225 O 0.94391 0.04068 0.30053 0.0
O226 O 0.96352 0.01899 0.29111 0.0
O227 O 0.93588 0.05525 0.24196 0.0
O228 O 0.95838 0.04176 0.25582 0.0
C229 C 0.95485 0.02825 0.30402 0.0
C230 C 0.95132 0.04696 0.24071 0.0
O231 O 0.90866 0.06251 0.28276 0.0
Mg232 Mg 0.29278 0.15731 0.51168 0.0
O233 O 0.2635 0.13726 0.50822 0.0
O234 O 0.24041 0.15635 0.50759 0.0
Mg235 Mg 0.25417 0.18777 0.51092 0.0
C236 C 0.24565 0.13966 0.50697 0.0
C237 C 0.30987 0.11909 0.51499 0.0
O238 O 0.29968 0.12041 0.52994 0.0
O239 O 0.28984 0.1625 0.48079 0.0
O240 O 0.26683 0.18185 0.48189 0.0
O241 O 0.292 0.16089 0.54328 0.0
O242 O 0.27984 0.18 0.52548 0.0
C243 C 0.27907 0.17279 0.47287 0.0
C244 C 0.28266 0.17537 0.54205 0.0
O245 O 0.30938 0.13166 0.504 0.0
Mg246 Mg 0.43615 0.5532 0.76377 0.0
O247 O 0.4188 0.52313 0.75387 0.0
O248 O 0.43966 0.503 0.74406 0.0
Mg249 Mg 0.4702 0.51959 0.7486 0.0
C250 C 0.42243 0.5064 0.74695 0.0
C251 C 0.41086 0.58205 0.78278 0.0
O252 O 0.42802 0.5924 0.7839 0.0
O253 O 0.44624 0.54347 0.79153 0.0
O254 O 0.46677 0.52329 0.78064 0.0
O255 O 0.43467 0.55959 0.734 0.0
O256 O 0.45832 0.54646 0.74649 0.0
C257 C 0.45822 0.53171 0.79418 0.0
C258 C 0.45052 0.55204 0.73193 0.0
O259 O 0.40921 0.56428 0.7759 0.0
Mg260 Mg 0.74812 0.36067 0.52576 0.0
O261 O 0.77642 0.38027 0.52155 0.0
O262 O 0.79946 0.36101 0.51892 0.0
Mg263 Mg 0.78683 0.33022 0.52087 0.0
C264 C 0.794 0.37758 0.51928 0.0
C265 C 0.71218 0.38027 0.52622 0.0
O266 O 0.70709 0.36356 0.53178 0.0
O267 O 0.74523 0.34817 0.49412 0.0
O268 O 0.76904 0.32973 0.49292 0.0
O269 O 0.75498 0.36498 0.55718 0.0
O270 O 0.7641 0.34162 0.53727 0.0
C271 C 0.75512 0.33642 0.48497 0.0
C272 C 0.76436 0.35031 0.55438 0.0
O273 O 0.72942 0.38417 0.52155 0.0
Mg274 Mg 0.66869 0.00438 0.77435 0.0
O275 O 0.64983 0.99912 0.74593 0.0
O276 O 0.67062 0.99778 0.72311 0.0
Mg277 Mg 0.70167 0.00292 0.73601 0.0
C278 C 0.65338 0.99696 0.72843 0.0
C279 C 0.64623 0.00156 0.80929 0.0
O280 O 0.66433 0.00717 0.81577 0.0
O281 O 0.67536 0.97313 0.76997 0.0
O282 O 0.69631 0.97413 0.74736 0.0
O283 O 0.67068 0.03615 0.77525 0.0
O284 O 0.69139 0.01853 0.7615 0.0
C285 C 0.68684 0.96513 0.75895 0.0
C286 C 0.68563 0.03514 0.76537 0.0
O287 O 0.64246 0.99769 0.79146 0.0
Mg288 Mg 0.04434 0.24358 0.89653 0.0
O289 O 0.0152 0.23817 0.87886 0.0
O290 O 0.99199 0.23144 0.89821 0.0
Mg291 Mg 0.00621 0.23097 0.92771 0.0
C292 C 0.99736 0.23419 0.88191 0.0
C293 C 0.07518 0.24897 0.86876 0.0
O294 O 0.08082 0.23644 0.879 0.0
O295 O 0.0372 0.273 0.91041 0.0
O296 O 0.01575 0.26356 0.93057 0.0
O297 O 0.04763 0.21215 0.89112 0.0
O298 O 0.03349 0.2257 0.9154 0.0
C299 C 0.02619 0.27682 0.92383 0.0
C300 C 0.03864 0.21038 0.90627 0.0
O301 O 0.05962 0.25589 0.87249 0.0
Mg302 Mg 0.54049 0.75606 0.40942 0.0
O303 O 0.51202 0.74545 0.39109 0.0
O304 O 0.48866 0.73908 0.41041 0.0
Mg305 Mg 0.50188 0.74532 0.44083 0.0
C306 C 0.49438 0.7399 0.39386 0.0
C307 C 0.56884 0.75673 0.37791 0.0
O308 O 0.57356 0.74292 0.38693 0.0
O309 O 0.53032 0.78536 0.41847 0.0
O310 O 0.50732 0.77748 0.43779 0.0
O311 O 0.54651 0.72584 0.40865 0.0
O312 O 0.53038 0.74059 0.43072 0.0
C313 C 0.51736 0.78989 0.42964 0.0
C314 C 0.53694 0.72513 0.42358 0.0
O315 O 0.55516 0.76585 0.38372 0.0
Mg316 Mg 0.99581 0.75046 0.62295 0.0
O317 O 0.02284 0.74847 0.64231 0.0
O318 O 0.04707 0.74475 0.62341 0.0
Mg319 Mg 0.03594 0.74351 0.59264 0.0
C320 C 0.04054 0.74648 0.63982 0.0
C321 C 0.96081 0.7586 0.64497 0.0
O322 O 0.95383 0.75208 0.62751 0.0
O323 O 0.00775 0.78123 0.61844 0.0
O324 O 0.03124 0.77527 0.59914 0.0
O325 O 0.98835 0.71839 0.61886 0.0
O326 O 0.00652 0.73396 0.60013 0.0
C327 C 0.02128 0.78694 0.6083 0.0
C328 C 0.99886 0.71778 0.60445 0.0
O329 O 0.97909 0.7607 0.64853 0.0
Mg330 Mg 0.49822 0.25602 0.12409 0.0
O331 O 0.52382 0.25325 0.14503 0.0
O332 O 0.54831 0.24698 0.12715 0.0
Mg333 Mg 0.53864 0.24433 0.09579 0.0
C334 C 0.54134 0.25007 0.14329 0.0
C335 C 0.47805 0.26299 0.16384 0.0
O336 O 0.48017 0.27047 0.14827 0.0
O337 O 0.51291 0.28552 0.1185 0.0
O338 O 0.53611 0.27672 0.1 0.0
O339 O 0.48815 0.22434 0.12135 0.0
O340 O 0.50858 0.23732 0.10279 0.0
C341 C 0.52694 0.28966 0.10831 0.0
C342 C 0.49925 0.22204 0.10748 0.0
O343 O 0.48044 0.26991 0.14846 0.0
H344 H 0.21716 0.7467 0.8087 0.0
H345 H 0.21413 0.77119 0.83591 0.0
H346 H 0.23165 0.73324 0.87367 0.0
H347 H 0.23382 0.70853 0.84676 0.0
H348 H 0.20306 0.75012 0.88729 0.0
H349 H 0.26336 0.77093 0.86056 0.0
H350 H 0.28337 0.78104 0.83537 0.0
H351 H 0.25117 0.82831 0.83167 0.0
H352 H 0.23081 0.81832 0.85669 0.0
H353 H 0.25459 0.80188 0.96745 0.0
H354 H 0.24646 0.78509 0.93549 0.0
H355 H 0.21393 0.82999 0.92274 0.0
H356 H 0.22181 0.84711 0.95527 0.0
H357 H 0.24296 0.8143 0.89414 0.0
H358 H 0.18679 0.79534 0.92647 0.0
H359 H 0.16975 0.78487 0.95333 0.0
H360 H 0.19682 0.7334 0.94765 0.0
H361 H 0.21427 0.74371 0.92094 0.0
C362 C 0.22011 0.7435 0.82282 0.0
C363 C 0.22592 0.7257 0.82552 0.0
C364 C 0.21854 0.75758 0.83835 0.0
C365 C 0.22288 0.75417 0.85686 0.0
C366 C 0.22825 0.73626 0.85955 0.0
C367 C 0.22971 0.72219 0.84411 0.0
C368 C 0.22234 0.76918 0.87358 0.0
C369 C 0.21172 0.76418 0.88871 0.0
C370 C 0.23321 0.78776 0.87533 0.0
C371 C 0.24541 0.79373 0.86029 0.0
C372 C 0.26045 0.78338 0.85425 0.0
C373 C 0.27187 0.78911 0.84003 0.0
C374 C 0.2685 0.80526 0.83187 0.0
C375 C 0.25373 0.81576 0.83796 0.0
C376 C 0.24225 0.81008 0.85216 0.0
C377 C 0.24579 0.8084 0.95795 0.0
C378 C 0.2388 0.82589 0.96403 0.0
C379 C 0.24115 0.7987 0.93964 0.0
C380 C 0.22953 0.80624 0.92685 0.0
C381 C 0.22291 0.82396 0.9325 0.0
C382 C 0.22738 0.83367 0.95106 0.0
C383 C 0.22418 0.79491 0.90786 0.0
C384 C 0.23377 0.80051 0.89239 0.0
C385 C 0.21257 0.77676 0.90584 0.0
C386 C 0.20191 0.77035 0.92174 0.0
C387 C 0.18921 0.78185 0.93102 0.0
C388 C 0.17946 0.77593 0.94621 0.0
C389 C 0.18222 0.75849 0.95221 0.0
C390 C 0.1947 0.7469 0.94299 0.0
C391 C 0.2045 0.75276 0.9278 0.0
H392 H 0.17466 0.75393 0.96397 0.0
H393 H 0.27736 0.80968 0.82087 0.0
H394 H 0.00841 0.5414 0.40685 0.0
H395 H 0.03167 0.54306 0.3823 0.0
H396 H 0.05582 0.49468 0.39971 0.0
H397 H 0.03286 0.49335 0.42445 0.0
H398 H 0.08388 0.51974 0.38954 0.0
H399 H 0.02125 0.48849 0.36276 0.0
H400 H 0.98591 0.48569 0.35594 0.0
H401 H 0.99353 0.53528 0.32753 0.0
H402 H 0.02891 0.53852 0.3344 0.0
H403 H 0.12747 0.4902 0.30432 0.0
H404 H 0.10652 0.49033 0.33078 0.0
H405 H 0.08202 0.53866 0.31377 0.0
H406 H 0.10255 0.5384 0.2872 0.0
H407 H 0.05446 0.51363 0.324 0.0
H408 H 0.11749 0.5444 0.35051 0.0
H409 H 0.15279 0.54672 0.3573 0.0
H410 H 0.14443 0.49742 0.38607 0.0
H411 H 0.10908 0.49465 0.37923 0.0
C412 C 0.0191 0.53154 0.40573 0.0
C413 C 0.01909 0.51737 0.41753 0.0
C414 C 0.03223 0.53234 0.39161 0.0
C415 C 0.04528 0.51874 0.3889 0.0
C416 C 0.04592 0.50529 0.40147 0.0
C417 C 0.03286 0.50457 0.41563 0.0
C418 C 0.0573 0.51764 0.37226 0.0
C419 C 0.07742 0.51822 0.3752 0.0
C420 C 0.04895 0.51586 0.35352 0.0
C421 C 0.0277 0.51386 0.34926 0.0
C422 C 0.01537 0.49887 0.35517 0.0
C423 C 0.99534 0.49719 0.35128 0.0
C424 C 0.98748 0.51033 0.34135 0.0
C425 C 0.99964 0.52513 0.33525 0.0
C426 C 0.01968 0.52689 0.33912 0.0
C427 C 0.11746 0.50071 0.30609 0.0
C428 C 0.11678 0.51435 0.29367 0.0
C429 C 0.1056 0.50087 0.32132 0.0
C430 C 0.09292 0.51474 0.3245 0.0
C431 C 0.09172 0.52787 0.3117 0.0
C432 C 0.10352 0.5277 0.29648 0.0
C433 C 0.08107 0.51586 0.34126 0.0
C434 C 0.06094 0.51521 0.33834 0.0
C435 C 0.08943 0.51751 0.35999 0.0
C436 C 0.11066 0.5192 0.36419 0.0
C437 C 0.12319 0.53397 0.35816 0.0
C438 C 0.1432 0.53538 0.36204 0.0
C439 C 0.15085 0.5222 0.37207 0.0
C440 C 0.13849 0.50761 0.37828 0.0
C441 C 0.11847 0.50612 0.37442 0.0
H442 H 0.16635 0.52332 0.37506 0.0
H443 H 0.97196 0.509 0.33836 0.0
H444 H 0.81672 0.76199 0.84573 0.0
H445 H 0.81487 0.74379 0.87239 0.0
H446 H 0.79295 0.6919 0.83394 0.0
H447 H 0.79451 0.71032 0.80732 0.0
H448 H 0.7712 0.69544 0.86238 0.0
H449 H 0.83873 0.69786 0.85687 0.0
H450 H 0.87217 0.71254 0.85373 0.0
H451 H 0.87223 0.74818 0.90761 0.0
H452 H 0.83867 0.73391 0.91096 0.0
H453 H 0.80471 0.65937 0.95708 0.0
H454 H 0.81102 0.66643 0.92523 0.0
H455 H 0.76452 0.70118 0.927 0.0
H456 H 0.75785 0.69391 0.95836 0.0
H457 H 0.8227 0.69941 0.91373 0.0
H458 H 0.74363 0.70136 0.88438 0.0
H459 H 0.71089 0.68418 0.88619 0.0
H460 H 0.73535 0.63462 0.89931 0.0
H461 H 0.76823 0.65138 0.89731 0.0
C462 C 0.81196 0.74661 0.84301 0.0
C463 C 0.806 0.73742 0.82458 0.0
C464 C 0.81091 0.7362 0.85821 0.0
C465 C 0.80395 0.71639 0.85521 0.0
C466 C 0.79843 0.70713 0.83663 0.0
C467 C 0.79944 0.71758 0.82144 0.0
C468 C 0.80104 0.70579 0.87161 0.0
C469 C 0.78252 0.69619 0.87353 0.0
C470 C 0.81589 0.7063 0.88599 0.0
C471 C 0.83612 0.71489 0.88411 0.0
C472 C 0.84582 0.70892 0.868 0.0
C473 C 0.86481 0.71716 0.86619 0.0
C474 C 0.87431 0.73131 0.88045 0.0
C475 C 0.86485 0.73722 0.89657 0.0
C476 C 0.84585 0.72904 0.89845 0.0
C477 C 0.79562 0.66826 0.95055 0.0
C478 C 0.78074 0.67603 0.96035 0.0
C479 C 0.79932 0.67236 0.93237 0.0
C480 C 0.78815 0.68421 0.92358 0.0
C481 C 0.77312 0.6917 0.93324 0.0
C482 C 0.76938 0.68758 0.95131 0.0
C483 C 0.79267 0.6897 0.9048 0.0
C484 C 0.81147 0.6984 0.90245 0.0
C485 C 0.77818 0.688 0.88982 0.0
C486 C 0.75841 0.6777 0.89081 0.0
C487 C 0.74203 0.68676 0.88754 0.0
C488 C 0.72344 0.6771 0.88863 0.0
C489 C 0.72104 0.65834 0.8929 0.0
C490 C 0.73723 0.64917 0.89605 0.0
C491 C 0.75585 0.65876 0.89497 0.0
H492 H 0.70664 0.65089 0.89375 0.0
H493 H 0.88901 0.73767 0.87902 0.0
H494 H 0.03674 0.03223 0.4675 0.0
H495 H 0.01767 0.0361 0.43893 0.0
H496 H 1.00026 0.97467 0.42721 0.0
H497 H 0.01911 0.97076 0.45606 0.0
H498 H 0.01687 0.99281 0.39645 0.0
H499 H 0.96755 -0.00039 0.44064 0.0
H500 H 0.95435 0.01344 0.47006 0.0
H501 H 0.96319 0.06963 0.45346 0.0
H502 H 0.97672 0.05618 0.42405 0.0
H503 H 0.9575 0.99379 0.31546 0.0
H504 H 0.96788 0.9878 0.34691 0.0
H505 H 0.97216 0.04858 0.36794 0.0
H506 H 0.96058 0.05441 0.33658 0.0
H507 H 0.9612 0.02982 0.39473 0.0
H508 H 0.01248 0.0258 0.35315 0.0
H509 H 0.02824 0.01453 0.32433 0.0
H510 H 0.01922 0.95658 0.33658 0.0
H511 H 0.00318 0.96747 0.36535 0.0
C512 C 0.02871 0.01958 0.45889 0.0
C513 C 0.02941 0.00119 0.4639 0.0
C514 C 0.01777 0.02182 0.44266 0.0
C515 C 0.00752 0.00568 0.43102 0.0
C516 C 0.00803 0.98729 0.43607 0.0
C517 C 0.01872 0.98508 0.45252 0.0
C518 C 0.99723 0.008 0.41304 0.0
C519 C 0.00446 0.00057 0.39602 0.0
C520 C 0.98156 0.01881 0.4126 0.0
C521 C 0.97331 0.02691 0.43021 0.0
C522 C 0.96683 0.01494 0.44333 0.0
C523 C 0.95926 0.02271 0.46 0.0
C524 C 0.95797 0.04241 0.46365 0.0
C525 C 0.96421 0.05438 0.45062 0.0
C526 C 0.97181 0.04668 0.43394 0.0
C527 C 0.96033 0.00581 0.3269 0.0
C528 C 0.95842 0.02458 0.3236 0.0
C529 C 0.96641 0.00241 0.34484 0.0
C530 C 0.97145 0.0178 0.35971 0.0
C531 C 0.96852 0.03646 0.35669 0.0
C532 C 0.9619 0.0398 0.33879 0.0
C533 C 0.98076 0.01452 0.37797 0.0
C534 C 0.97348 0.02188 0.39507 0.0
C535 C 0.99673 0.00401 0.37854 0.0
C536 C 0.00645 0.99742 0.36129 0.0
C537 C 0.01375 0.01063 0.34962 0.0
C538 C 0.02274 0.00432 0.33331 0.0
C539 C 0.02468 0.98484 0.3286 0.0
C540 C 0.01768 0.97165 0.34023 0.0
C541 C 0.00865 0.97789 0.35655 0.0
H542 H 0.03165 0.97998 0.31596 0.0
H543 H 0.95211 0.04839 0.47656 0.0
H544 H 0.22656 0.2893 0.68184 0.0
H545 H 0.22849 0.26345 0.65548 0.0
H546 H 0.29048 0.26987 0.66655 0.0
H547 H 0.28866 0.29536 0.69295 0.0
H548 H 0.28062 0.27086 0.62986 0.0
H549 H 0.2626 0.23106 0.67674 0.0
H550 H 0.24237 0.21926 0.70102 0.0
H551 H 0.19395 0.20311 0.65985 0.0
H552 H 0.21384 0.21507 0.63536 0.0
H553 H 0.28607 0.16882 0.57879 0.0
H554 H 0.27874 0.18968 0.60714 0.0
H555 H 0.25702 0.22812 0.5722 0.0
H556 H 0.26457 0.20758 0.54388 0.0
H557 H 0.24643 0.20397 0.62117 0.0
H558 H 0.2734 0.27399 0.59271 0.0
H559 H 0.29554 0.28519 0.56954 0.0
H560 H 0.32957 0.23992 0.57636 0.0
H561 H 0.30779 0.22862 0.59974 0.0
C562 C 0.24055 0.28494 0.67887 0.0
C563 C 0.25748 0.29457 0.68936 0.0
C564 C 0.24163 0.2702 0.66378 0.0
C565 C 0.25965 0.26479 0.65899 0.0
C566 C 0.27645 0.27392 0.66987 0.0
C567 C 0.27538 0.28855 0.68492 0.0
C568 C 0.26132 0.25046 0.64201 0.0
C569 C 0.27307 0.25626 0.62796 0.0
C570 C 0.25163 0.23135 0.63958 0.0
C571 C 0.23965 0.22415 0.65427 0.0
C572 C 0.24759 0.22515 0.6729 0.0
C573 C 0.23619 0.2184 0.68669 0.0
C574 C 0.21687 0.21049 0.68199 0.0
C575 C 0.20891 0.20927 0.66347 0.0
C576 C 0.22024 0.21602 0.64963 0.0
C577 C 0.2795 0.18158 0.57712 0.0
C578 C 0.27604 0.1866 0.55905 0.0
C579 C 0.27523 0.19344 0.59335 0.0
C580 C 0.26755 0.21057 0.5918 0.0
C581 C 0.26316 0.21508 0.57374 0.0
C582 C 0.26743 0.20326 0.55754 0.0
C583 C 0.26558 0.22448 0.60902 0.0
C584 C 0.25382 0.21862 0.62305 0.0
C585 C 0.27547 0.24352 0.61162 0.0
C586 C 0.28884 0.25036 0.59781 0.0
C587 C 0.28565 0.26648 0.5893 0.0
C588 C 0.29813 0.27283 0.57613 0.0
C589 C 0.31391 0.26323 0.57143 0.0
C590 C 0.3173 0.2473 0.57995 0.0
C591 C 0.30488 0.2409 0.59315 0.0
H592 H 0.32354 0.26816 0.56122 0.0
H593 H 0.20807 0.20527 0.69269 0.0
H594 H 0.56131 0.53643 0.59485 0.0
H595 H 0.54383 0.54087 0.62353 0.0
H596 H 0.48993 0.53488 0.58965 0.0
H597 H 0.50718 0.52984 0.56082 0.0
H598 H 0.49395 0.56527 0.62092 0.0
H599 H 0.50007 0.4977 0.60785 0.0
H600 H 0.51804 0.46999 0.60093 0.0
H601 H 0.5524 0.48769 0.6535 0.0
H602 H 0.53483 0.51569 0.66061 0.0
H603 H 0.43355 0.55311 0.69678 0.0
H604 H 0.44846 0.54921 0.66647 0.0
H605 H 0.50233 0.54219 0.69535 0.0
H606 H 0.48725 0.54519 0.72544 0.0
H607 H 0.49698 0.51777 0.66525 0.0
H608 H 0.49306 0.58562 0.6784 0.0
H609 H 0.47688 0.61452 0.68576 0.0
H610 H 0.44058 0.59804 0.63423 0.0
H611 H 0.45639 0.5689 0.62667 0.0
C612 C 0.54572 0.53596 0.59344 0.0
C613 C 0.53566 0.53257 0.57547 0.0
C614 C 0.53578 0.53861 0.60987 0.0
C615 C 0.51557 0.53801 0.6087 0.0
C616 C 0.50553 0.53541 0.59084 0.0
C617 C 0.51546 0.53262 0.57438 0.0
C618 C 0.5049 0.53932 0.62614 0.0
C619 C 0.49437 0.55477 0.63053 0.0
C620 C 0.50583 0.52583 0.63883 0.0
C621 C 0.51625 0.50888 0.63468 0.0
C622 C 0.51156 0.49576 0.61787 0.0
C623 C 0.52165 0.47999 0.61392 0.0
C624 C 0.53638 0.4771 0.62674 0.0
C625 C 0.541 0.48995 0.64357 0.0
C626 C 0.53097 0.50577 0.64757 0.0
C627 C 0.44855 0.55068 0.69662 0.0
C628 C 0.45923 0.54946 0.71348 0.0
C629 C 0.45711 0.54858 0.6793 0.0
C630 C 0.47666 0.54572 0.67858 0.0
C631 C 0.48724 0.54436 0.69545 0.0
C632 C 0.4786 0.5461 0.71268 0.0
C633 C 0.48617 0.54396 0.66035 0.0
C634 C 0.49647 0.52832 0.65572 0.0
C635 C 0.48524 0.55745 0.64759 0.0
C636 C 0.47577 0.57499 0.65207 0.0
C637 C 0.48153 0.58809 0.6687 0.0
C638 C 0.47244 0.60453 0.6729 0.0
C639 C 0.45767 0.60809 0.6605 0.0
C640 C 0.452 0.59525 0.64384 0.0
C641 C 0.46103 0.57878 0.63959 0.0
H642 H 0.45065 0.62081 0.66377 0.0
H643 H 0.54418 0.46489 0.62366 0.0
H644 H 0.84363 0.24152 0.64321 0.0
H645 H 0.83537 0.26812 0.6275 0.0
H646 H 0.80996 0.29201 0.67784 0.0
H647 H 0.81789 0.26488 0.69341 0.0
H648 H 0.78611 0.29088 0.64843 0.0
H649 H 0.85216 0.31543 0.66252 0.0
H650 H 0.88749 0.31529 0.66524 0.0
H651 H 0.88752 0.30098 0.60488 0.0
H652 H 0.85214 0.30075 0.6018 0.0
H653 H 0.76473 0.36336 0.5924 0.0
H654 H 0.77994 0.3502 0.61845 0.0
H655 H 0.80275 0.30908 0.5781 0.0
H656 H 0.7874 0.32174 0.55221 0.0
H657 H 0.82967 0.32628 0.60866 0.0
H658 H 0.76235 0.29562 0.59692 0.0
H659 H 0.72705 0.29621 0.59482 0.0
H660 H 0.73032 0.32385 0.65259 0.0
H661 H 0.76571 0.32364 0.65493 0.0
C662 C 0.83666 0.2527 0.65101 0.0
C663 C 0.83152 0.25142 0.66947 0.0
C664 C 0.83202 0.26796 0.64209 0.0
C665 C 0.8223 0.28231 0.65156 0.0
C666 C 0.81757 0.28121 0.67029 0.0
C667 C 0.82216 0.26582 0.67919 0.0
C668 C 0.81561 0.29726 0.64115 0.0
C669 C 0.79578 0.29902 0.64016 0.0
C670 C 0.82812 0.30785 0.63022 0.0
C671 C 0.84945 0.30799 0.63195 0.0
C672 C 0.85967 0.31213 0.64983 0.0
C673 C 0.87972 0.31213 0.65143 0.0
C674 C 0.88974 0.30811 0.63524 0.0
C675 C 0.87974 0.3041 0.61741 0.0
C676 C 0.85969 0.30407 0.61572 0.0
C677 C 0.77318 0.35167 0.58909 0.0
C678 C 0.77488 0.34366 0.57017 0.0
C679 C 0.78184 0.34417 0.60398 0.0
C680 C 0.79246 0.32867 0.60017 0.0
C681 C 0.79473 0.32114 0.58134 0.0
C682 C 0.78591 0.32843 0.56651 0.0
C683 C 0.80023 0.31926 0.61557 0.0
C684 C 0.82021 0.31854 0.61742 0.0
C685 C 0.78792 0.3098 0.62744 0.0
C686 C 0.76667 0.30984 0.62602 0.0
C687 C 0.75556 0.30197 0.60912 0.0
C688 C 0.73553 0.30221 0.60789 0.0
C689 C 0.72645 0.31013 0.62354 0.0
C690 C 0.73737 0.31777 0.64046 0.0
C691 C 0.75741 0.31759 0.64175 0.0
H692 H 0.71095 0.31029 0.62256 0.0
H693 H 0.90526 0.30812 0.63652 0.0
H694 H 0.55448 0.97667 0.57124 0.0
H695 H 0.57473 0.97687 0.60014 0.0
H696 H 0.53165 0.00122 0.63351 0.0
H697 H 0.51108 0.00072 0.60469 0.0
H698 H 0.56847 0.01956 0.64469 0.0
H699 H 0.536 0.95486 0.63254 0.0
H700 H 0.52463 0.92323 0.61337 0.0
H701 H 0.58346 0.91389 0.60551 0.0
H702 H 0.59519 0.94561 0.62441 0.0
H703 H 0.61616 0.00536 0.73169 0.0
H704 H 0.59076 0.00276 0.70605 0.0
H705 H 0.62888 0.9793 0.666 0.0
H706 H 0.6542 0.98189 0.69133 0.0
H707 H 0.59171 0.95991 0.6602 0.0
H708 H 0.62406 0.02522 0.66926 0.0
H709 H 0.63616 0.0571 0.68762 0.0
H710 H 0.57815 0.06532 0.70069 0.0
H711 H 0.56573 0.03335 0.6826 0.0
C712 C 0.54918 0.98186 0.58472 0.0
C713 C 0.53108 0.98861 0.5856 0.0
C714 C 0.56081 0.98202 0.60124 0.0
C715 C 0.55462 0.98889 0.619 0.0
C716 C 0.53672 0.99588 0.61995 0.0
C717 C 0.52502 0.99565 0.60344 0.0
C718 C 0.56695 0.98888 0.63653 0.0
C719 C 0.57326 0.00646 0.64828 0.0
C720 C 0.57347 0.97184 0.64104 0.0
C721 C 0.56647 0.95269 0.62977 0.0
C722 C 0.54651 0.94613 0.62661 0.0
C723 C 0.54 0.92817 0.61581 0.0
C724 C 0.55331 0.91658 0.60819 0.0
C725 C 0.57317 0.9229 0.61141 0.0
C726 C 0.57976 0.94085 0.62218 0.0
C727 C 0.61903 0.99945 0.71746 0.0
C728 C 0.63725 0.99395 0.71354 0.0
C729 C 0.60455 0.99806 0.70283 0.0
C730 C 0.608 0.99097 0.6841 0.0
C731 C 0.6259 0.98481 0.68033 0.0
C732 C 0.6404 0.98639 0.69484 0.0
C733 C 0.59339 0.9906 0.6682 0.0
C734 C 0.58669 0.97295 0.65675 0.0
C735 C 0.58658 0.00758 0.66391 0.0
C736 C 0.594 0.0268 0.67479 0.0
C737 C 0.61391 0.03375 0.6762 0.0
C738 C 0.62082 0.05185 0.68652 0.0
C739 C 0.60794 0.0632 0.69537 0.0
C740 C 0.58811 0.05649 0.69386 0.0
C741 C 0.58113 0.03839 0.68357 0.0
H742 H 0.61331 0.07722 0.70335 0.0
H743 H 0.54824 0.90268 0.59983 0.0
H744 H 0.84424 0.22354 0.77181 0.0
H745 H 0.87086 0.22931 0.79628 0.0
H746 H 0.91191 0.22529 0.75328 0.0
H747 H 0.8853 0.21855 0.72875 0.0
H748 H 0.92003 0.20413 0.77881 0.0
H749 H 0.90685 0.26886 0.78106 0.0
H750 H 0.8869 0.29532 0.78326 0.0
H751 H 0.87118 0.28432 0.8383 0.0
H752 H 0.89083 0.25761 0.83632 0.0
H753 H 0.00264 0.23473 0.84424 0.0
H754 H 0.97782 0.2336 0.81855 0.0
H755 H 0.93341 0.23053 0.85816 0.0
H756 H 0.95805 0.23166 0.88393 0.0
H757 H 0.92833 0.2567 0.83364 0.0
H758 H 0.94041 0.19081 0.83012 0.0
H759 H 0.96069 0.1646 0.82767 0.0
H760 H 0.97904 0.17863 0.77439 0.0
H761 H 0.95906 0.20511 0.77665 0.0
C762 C 0.85893 0.22395 0.76754 0.0
C763 C 0.86258 0.2205 0.74827 0.0
C764 C 0.87418 0.22747 0.78156 0.0
C765 C 0.89345 0.22788 0.77666 0.0
C766 C 0.89718 0.22506 0.75743 0.0
C767 C 0.88193 0.22142 0.7434 0.0
C768 C 0.90958 0.23 0.79156 0.0
C769 C 0.92204 0.21585 0.7906 0.0
C770 C 0.912 0.24503 0.8072 0.0
C771 C 0.90019 0.26111 0.80846 0.0
C772 C 0.89902 0.27198 0.79357 0.0
C773 C 0.88779 0.28704 0.79479 0.0
C774 C 0.87774 0.29147 0.81089 0.0
C775 C 0.87895 0.28086 0.82583 0.0
C776 C 0.89016 0.26577 0.82467 0.0
C777 C 0.9876 0.23379 0.84752 0.0
C778 C 0.98237 0.23321 0.86618 0.0
C779 C 0.97343 0.23311 0.8328 0.0
C780 C 0.95377 0.23189 0.83644 0.0
C781 C 0.9485 0.2315 0.85504 0.0
C782 C 0.96263 0.23204 0.86975 0.0
C783 C 0.93862 0.23082 0.82084 0.0
C784 C 0.92636 0.24512 0.82172 0.0
C785 C 0.93644 0.21601 0.80506 0.0
C786 C 0.94842 0.20007 0.80366 0.0
C787 C 0.9489 0.18841 0.81796 0.0
C788 C 0.96031 0.17349 0.81659 0.0
C789 C 0.97119 0.16999 0.80091 0.0
C790 C 0.97063 0.18138 0.78654 0.0
C791 C 0.95926 0.19634 0.78785 0.0
H792 H 0.98001 0.15843 0.79987 0.0
H793 H 0.86905 0.30313 0.81181 0.0
H794 H 0.53578 0.95719 0.52131 0.0
H795 H 0.53529 0.92831 0.49796 0.0
H796 H 0.47283 0.92104 0.49336 0.0
H797 H 0.47326 0.95002 0.51692 0.0
H798 H 0.48776 0.8883 0.50026 0.0
H799 H 0.49729 0.93357 0.45682 0.0
H800 H 0.51297 0.96238 0.4451 0.0
H801 H 0.56674 0.93894 0.4436 0.0
H802 H 0.55146 0.9101 0.45558 0.0
H803 H 0.48331 0.80387 0.43535 0.0
H804 H 0.47873 0.83682 0.44792 0.0
H805 H 0.54035 0.85453 0.44888 0.0
H806 H 0.54477 0.82174 0.43515 0.0
H807 H 0.52298 0.88292 0.44165 0.0
H808 H 0.51634 0.84096 0.48888 0.0
H809 H 0.50276 0.81241 0.50238 0.0
H810 H 0.44622 0.83004 0.49903 0.0
H811 H 0.45944 0.85859 0.4853 0.0
C812 C 0.52194 0.94954 0.51519 0.0
C813 C 0.50454 0.95577 0.52103 0.0
C814 C 0.52168 0.93313 0.50173 0.0
C815 C 0.50403 0.92257 0.49382 0.0
C816 C 0.48661 0.92903 0.49924 0.0
C817 C 0.48686 0.9456 0.51262 0.0
C818 C 0.50388 0.90395 0.4812 0.0
C819 C 0.49508 0.88716 0.48721 0.0
C820 C 0.51403 0.90242 0.46453 0.0
C821 C 0.52324 0.91972 0.45723 0.0
C822 C 0.51249 0.93462 0.45413 0.0
C823 C 0.52131 0.95095 0.44741 0.0
C824 C 0.54084 0.9525 0.44364 0.0
C825 C 0.5516 0.93771 0.44654 0.0
C826 C 0.54287 0.92136 0.45327 0.0
C827 C 0.49581 0.81491 0.43791 0.0
C828 C 0.51441 0.81026 0.43447 0.0
C829 C 0.49321 0.83371 0.44522 0.0
C830 C 0.50926 0.84809 0.44998 0.0
C831 C 0.52774 0.84371 0.44548 0.0
C832 C 0.53027 0.82497 0.43764 0.0
C833 C 0.50696 0.86721 0.4608 0.0
C834 C 0.51539 0.88408 0.45453 0.0
C835 C 0.49678 0.86885 0.47749 0.0
C836 C 0.48884 0.85178 0.48589 0.0
C837 C 0.50099 0.83868 0.49093 0.0
C838 C 0.49336 0.82251 0.49863 0.0
C839 C 0.47363 0.81938 0.50151 0.0
C840 C 0.46149 0.83246 0.49676 0.0
C841 C 0.46905 0.84864 0.48903 0.0
H842 H 0.46774 0.80685 0.50747 0.0
H843 H 0.54764 0.96516 0.43844 0.0
H844 H 0.17618 0.32175 0.74243 0.0
H845 H 0.14887 0.30781 0.75862 0.0
H846 H 0.18534 0.2705 0.78126 0.0
H847 H 0.21263 0.28443 0.76495 0.0
H848 H 0.14708 0.25263 0.77182 0.0
H849 H 0.18107 0.312 0.80689 0.0
H850 H 0.19453 0.3464 0.81117 0.0
H851 H 0.13778 0.36133 0.79994 0.0
H852 H 0.12403 0.32695 0.79533 0.0
H853 H 0.10848 0.23589 0.8577 0.0
H854 H 0.12815 0.245 0.83248 0.0
H855 H 0.08815 0.28353 0.81896 0.0
H856 H 0.06836 0.27461 0.84454 0.0
H857 H 0.12482 0.30059 0.82063 0.0
H858 H 0.09009 0.24126 0.78961 0.0
H859 H 0.07673 0.20686 0.78567 0.0
H860 H 0.13425 0.19159 0.78922 0.0
H861 H 0.14797 0.22593 0.79346 0.0
C862 C 0.17811 0.31013 0.75038 0.0
C863 C 0.1963 0.30397 0.75243 0.0
C864 C 0.1626 0.30228 0.7597 0.0
C865 C 0.16516 0.2883 0.77134 0.0
C866 C 0.18305 0.28124 0.77233 0.0
C867 C 0.19859 0.28914 0.76302 0.0
C868 C 0.14995 0.28254 0.78398 0.0
C869 C 0.14225 0.26306 0.78256 0.0
C870 C 0.14333 0.29625 0.79769 0.0
C871 C 0.15156 0.31691 0.80055 0.0
C872 C 0.17149 0.32261 0.80518 0.0
C873 C 0.17917 0.3421 0.80769 0.0
C874 C 0.16703 0.35604 0.80577 0.0
C875 C 0.14717 0.35051 0.80138 0.0
C876 C 0.13943 0.33103 0.79883 0.0
C877 C 0.10376 0.24625 0.84935 0.0
C878 C 0.08682 0.25453 0.85316 0.0
C879 C 0.11498 0.25135 0.83481 0.0
C880 C 0.10949 0.26472 0.8236 0.0
C881 C 0.09261 0.27308 0.82736 0.0
C882 C 0.08132 0.26798 0.84197 0.0
C883 C 0.122 0.27058 0.80865 0.0
C884 C 0.12932 0.29013 0.80969 0.0
C885 C 0.12822 0.2569 0.7946 0.0
C886 C 0.12005 0.2362 0.79199 0.0
C887 C 0.09989 0.23058 0.7897 0.0
C888 C 0.09225 0.21109 0.78739 0.0
C889 C 0.10463 0.19705 0.78723 0.0
C890 C 0.12468 0.20248 0.78935 0.0
C891 C 0.1324 0.22196 0.79168 0.0
H892 H 0.09869 0.18196 0.78544 0.0
H893 H 0.173 0.37113 0.80772 0.0
H894 H 0.55666 0.56582 0.47531 0.0
H895 H 0.55418 0.59654 0.4642 0.0
H896 H 0.5174 0.61179 0.50911 0.0
H897 H 0.51973 0.58063 0.52012 0.0
H898 H 0.50371 0.62055 0.47527 0.0
H899 H 0.56357 0.6329 0.51252 0.0
H900 H 0.59581 0.62689 0.52401 0.0
H901 H 0.61629 0.62911 0.4687 0.0
H902 H 0.58408 0.63486 0.4568 0.0
H903 H 0.51717 0.71871 0.4548 0.0
H904 H 0.51535 0.69013 0.47061 0.0
H905 H 0.54917 0.6631 0.42837 0.0
H906 H 0.55091 0.69142 0.41241 0.0
H907 H 0.56352 0.66283 0.46527 0.0
H908 H 0.50234 0.64789 0.42787 0.0
H909 H 0.47004 0.65419 0.41687 0.0
H910 H 0.45218 0.65782 0.47365 0.0
H911 H 0.48449 0.6518 0.48504 0.0
C912 C 0.54811 0.57579 0.48282 0.0
C913 C 0.53848 0.57113 0.49856 0.0
C914 C 0.54674 0.59333 0.47652 0.0
C915 C 0.53584 0.60659 0.48599 0.0
C916 C 0.52595 0.60179 0.50166 0.0
C917 C 0.52733 0.58412 0.50797 0.0
C918 C 0.53487 0.62532 0.47921 0.0
C919 C 0.51676 0.63001 0.47344 0.0
C920 C 0.5519 0.63757 0.47664 0.0
C921 C 0.57135 0.63418 0.48374 0.0
C922 C 0.57491 0.63197 0.50277 0.0
C923 C 0.59318 0.62863 0.50936 0.0
C924 C 0.60808 0.62759 0.49709 0.0
C925 C 0.60473 0.62992 0.4782 0.0
C926 C 0.58647 0.63324 0.47152 0.0
C927 C 0.52396 0.70657 0.44871 0.0
C928 C 0.53418 0.70735 0.43232 0.0
C929 C 0.52291 0.69026 0.45778 0.0
C930 C 0.53214 0.67453 0.45066 0.0
C931 C 0.54199 0.67512 0.43412 0.0
C932 C 0.54291 0.69131 0.42498 0.0
C933 C 0.53244 0.65775 0.46084 0.0
C934 C 0.55046 0.65349 0.46733 0.0
C935 C 0.51533 0.64605 0.46417 0.0
C936 C 0.49591 0.64963 0.45734 0.0
C937 C 0.49159 0.65022 0.43804 0.0
C938 C 0.47326 0.6537 0.43173 0.0
C939 C 0.45908 0.65647 0.44456 0.0
C940 C 0.46319 0.65571 0.46373 0.0
C941 C 0.4815 0.65226 0.47012 0.0
H942 H 0.4449 0.65916 0.43965 0.0
H943 H 0.62222 0.625 0.50222 0.0
H944 H 0.85672 0.77211 0.79109 0.0
H945 H 0.88221 0.77338 0.76878 0.0
H946 H 0.83876 0.76137 0.72205 0.0
H947 H 0.81327 0.75986 0.74422 0.0
H948 H 0.86709 0.73812 0.71741 0.0
H949 H 0.86348 0.80574 0.73379 0.0
H950 H 0.86396 0.83625 0.75541 0.0
H951 H 0.92207 0.83285 0.77609 0.0
H952 H 0.92184 0.80216 0.75476 0.0
H953 H 0.92149 0.75592 0.64087 0.0
H954 H 0.89879 0.75874 0.66553 0.0
H955 H 0.94636 0.77129 0.70824 0.0
H956 H 0.9694 0.76864 0.68345 0.0
H957 H 0.91758 0.79404 0.71648 0.0
H958 H 0.92169 0.72701 0.69985 0.0
H959 H 0.92144 0.69639 0.67845 0.0
H960 H 0.86264 0.69831 0.65887 0.0
H961 H 0.86262 0.72911 0.67996 0.0
C962 C 0.85261 0.76982 0.77606 0.0
C963 C 0.83295 0.76591 0.76944 0.0
C964 C 0.86718 0.77067 0.76333 0.0
C965 C 0.86241 0.76755 0.74372 0.0
C966 C 0.8428 0.76386 0.7371 0.0
C967 C 0.82823 0.76316 0.74981 0.0
C968 C 0.87778 0.76727 0.73004 0.0
C969 C 0.87798 0.75044 0.71707 0.0
C970 C 0.8924 0.78311 0.72998 0.0
C971 C 0.89256 0.80154 0.74283 0.0
C972 C 0.8763 0.8114 0.74307 0.0
C973 C 0.87654 0.82875 0.75525 0.0
C974 C 0.89301 0.83646 0.76716 0.0
C975 C 0.9093 0.82685 0.76688 0.0
C976 C 0.90913 0.80948 0.75474 0.0
C977 C 0.92723 0.75941 0.65548 0.0
C978 C 0.94731 0.76189 0.66016 0.0
C979 C 0.91417 0.76095 0.6696 0.0
C980 C 0.92082 0.7649 0.68877 0.0
C981 C 0.94089 0.76814 0.69354 0.0
C982 C 0.95403 0.76659 0.67936 0.0
C983 C 0.90667 0.76499 0.70367 0.0
C984 C 0.90673 0.78171 0.71689 0.0
C985 C 0.8923 0.74902 0.70405 0.0
C986 C 0.89222 0.73046 0.69137 0.0
C987 C 0.90875 0.72099 0.69087 0.0
C988 C 0.90865 0.70358 0.67882 0.0
C989 C 0.89205 0.69544 0.66728 0.0
C990 C 0.8755 0.70465 0.6678 0.0
C991 C 0.87553 0.72207 0.67982 0.0
H992 H 0.892 0.68196 0.65796 0.0
H993 H 0.89317 0.84989 0.77657 0.0
H994 H 0.07104 0.94706 0.54329 0.0
H995 H 0.0698 0.91797 0.55864 0.0
H996 H 0.00749 0.91386 0.55733 0.0
H997 H 0.0088 0.94287 0.5422 0.0
H998 H 0.02264 0.90878 0.59155 0.0
H999 H 0.02978 0.88445 0.52581 0.0
H1000 H 0.04595 0.88297 0.49588 0.0
H1001 H 0.09744 0.86997 0.52394 0.0
H1002 H 0.08165 0.87162 0.55409 0.0
H1003 H 0.99499 0.81242 0.6075 0.0
H1004 H 1.00004 0.84408 0.59726 0.0
H1005 H 0.06077 0.83937 0.59285 0.0
H1006 H 0.0555 0.80733 0.6021 0.0
H1007 H 0.04864 0.85015 0.56298 0.0
H1008 H 0.04191 0.87244 0.62825 0.0
H1009 H 0.02669 0.87427 0.65869 0.0
H1010 H 0.97625 0.89181 0.63301 0.0
H1011 H 0.99105 0.88985 0.60235 0.0
C1012 C 0.05714 0.93979 0.54622 0.0
C1013 C 0.04 0.94695 0.54155 0.0
C1014 C 0.05642 0.92322 0.55496 0.0
C1015 C 0.03852 0.91366 0.55907 0.0
C1016 C 0.02144 0.92098 0.55436 0.0
C1017 C 0.02218 0.93746 0.54563 0.0
C1018 C 0.0374 0.89603 0.56827 0.0
C1019 C 0.02819 0.89588 0.58526 0.0
C1020 C 0.04514 0.8794 0.56037 0.0
C1021 C 0.05461 0.87836 0.54224 0.0
C1022 C 0.0446 0.88143 0.52562 0.0
C1023 C 0.05369 0.88053 0.50862 0.0
C1024 C 0.07273 0.87643 0.50802 0.0
C1025 C 0.08271 0.87317 0.52443 0.0
C1026 C 0.07369 0.87407 0.54147 0.0
C1027 C 0.00948 0.81834 0.60473 0.0
C1028 C 0.02484 0.8074 0.60558 0.0
C1029 C 0.01239 0.8365 0.59891 0.0
C1030 C 0.03085 0.84431 0.59435 0.0
C1031 C 0.04637 0.83371 0.59613 0.0
C1032 C 0.04337 0.81542 0.60153 0.0
C1033 C 0.03376 0.86275 0.58635 0.0
C1034 C 0.04326 0.86306 0.56951 0.0
C1035 C 0.02647 0.87959 0.59452 0.0
C1036 C 0.01754 0.88085 0.61296 0.0
C1037 C 0.02752 0.87656 0.62906 0.0
C1038 C 0.01897 0.87764 0.64636 0.0
C1039 C 0.0005 0.88311 0.64777 0.0
C1040 C 0.99055 0.88756 0.6319 0.0
C1041 C 0.99902 0.8865 0.61456 0.0
H1042 H 0.99391 0.88394 0.66118 0.0
H1043 H 0.07974 0.87574 0.49484 0.0
H1044 H 0.15188 0.69405 0.76847 0.0
H1045 H 0.12412 0.70606 0.75383 0.0
H1046 H 0.16219 0.73396 0.71732 0.0
H1047 H 0.18986 0.72223 0.73221 0.0
H1048 H 0.13523 0.75609 0.72823 0.0
H1049 H 0.13623 0.6892 0.70268 0.0
H1050 H 0.13611 0.65466 0.70443 0.0
H1051 H 0.08144 0.65275 0.72954 0.0
H1052 H 0.08137 0.68738 0.72815 0.0
H1053 H 0.0799 0.75433 0.6425 0.0
H1054 H 0.10241 0.75005 0.66828 0.0
H1055 H 0.05442 0.73151 0.69997 0.0
H1056 H 0.03164 0.73604 0.67419 0.0
H1057 H 0.08272 0.70621 0.69636 0.0
H1058 H 0.07979 0.77268 0.71634 0.0
H1059 H 0.08032 0.8069 0.713 0.0
H1060 H 0.13893 0.80947 0.69692 0.0
H1061 H 0.13866 0.77517 0.69988 0.0
C1062 C 0.15426 0.70308 0.75758 0.0
C1063 C 0.17283 0.70733 0.7514 0.0
C1064 C 0.13844 0.70984 0.74915 0.0
C1065 C 0.14101 0.72071 0.73427 0.0
C1066 C 0.15982 0.72563 0.72876 0.0
C1067 C 0.17561 0.71893 0.73723 0.0
C1068 C 0.12414 0.72586 0.72349 0.0
C1069 C 0.12377 0.74519 0.72123 0.0
C1070 C 0.1089 0.7117 0.7147 0.0
C1071 C 0.10892 0.69091 0.71554 0.0
C1072 C 0.12426 0.68145 0.70871 0.0
C1073 C 0.12422 0.66185 0.70961 0.0
C1074 C 0.10881 0.65153 0.71715 0.0
C1075 C 0.09339 0.66077 0.72375 0.0
C1076 C 0.09338 0.68038 0.72291 0.0
C1077 C 0.07408 0.74955 0.65503 0.0
C1078 C 0.05397 0.74547 0.65627 0.0
C1079 C 0.08699 0.74721 0.6698 0.0
C1080 C 0.08009 0.74056 0.68608 0.0
C1081 C 0.06002 0.73674 0.68755 0.0
C1082 C 0.04704 0.73939 0.67285 0.0
C1083 C 0.09404 0.73637 0.70079 0.0
C1084 C 0.09392 0.71719 0.70372 0.0
C1085 C 0.1089 0.75064 0.71003 0.0
C1086 C 0.10915 0.77129 0.70821 0.0
C1087 C 0.09274 0.78049 0.71193 0.0
C1088 C 0.093 0.79991 0.71014 0.0
C1089 C 0.10963 0.81034 0.70472 0.0
C1090 C 0.12605 0.80137 0.70111 0.0
C1091 C 0.12586 0.78194 0.70287 0.0
H1092 H 0.10981 0.82539 0.70334 0.0
H1093 H 0.1088 0.63636 0.71783 0.0
H1094 H 0.99153 0.57267 0.47177 0.0
H1095 H 1.00007 0.60332 0.49319 0.0
H1096 H 0.98874 0.57404 0.5411 0.0
H1097 H 0.98067 0.54347 0.51996 0.0
H1098 H 0.96797 0.60478 0.53953 0.0
H1099 H 0.03362 0.59135 0.53494 0.0
H1100 H 0.06235 0.58382 0.51818 0.0
H1101 H 0.06404 0.63622 0.4943 0.0
H1102 H 0.03512 0.64393 0.51071 0.0
H1103 H 0.99095 0.68159 0.61369 0.0
H1104 H 0.9919 0.65091 0.59339 0.0
H1105 H 0.01252 0.68131 0.54866 0.0
H1106 H 0.01236 0.71203 0.5692 0.0
H1107 H 0.02917 0.65018 0.54791 0.0
H1108 H 0.96369 0.66344 0.55038 0.0
H1109 H 0.93422 0.67147 0.56556 0.0
H1110 H 0.93102 0.61999 0.59111 0.0
H1111 H 0.96063 0.61178 0.57627 0.0
C1112 C 0.99133 0.57271 0.48689 0.0
C1113 C 0.98512 0.55568 0.49413 0.0
C1114 C 0.99616 0.59023 0.49911 0.0
C1115 C 0.99489 0.59096 0.51873 0.0
C1116 C 0.98966 0.57383 0.526 0.0
C1117 C 0.98497 0.55638 0.51388 0.0
C1118 C 0.99733 0.60965 0.53162 0.0
C1119 C 0.98145 0.61458 0.54157 0.0
C1120 C 0.01469 0.62272 0.53376 0.0
C1121 C 0.03207 0.61811 0.5239 0.0
C1122 C 0.04 0.60118 0.52597 0.0
C1123 C 0.05634 0.5969 0.51657 0.0
C1124 C 0.06498 0.60951 0.50514 0.0
C1125 C 0.05731 0.62645 0.50314 0.0
C1126 C 0.04096 0.63079 0.5125 0.0
C1127 C 0.99593 0.68173 0.59962 0.0
C1128 C 0.0014 0.69923 0.59299 0.0
C1129 C 0.99638 0.66418 0.58797 0.0
C1130 C 0.00182 0.66376 0.56928 0.0
C1131 C 0.00818 0.68122 0.56296 0.0
C1132 C 0.00804 0.69879 0.57472 0.0
C1133 C 0.99984 0.64522 0.55606 0.0
C1134 C 0.01572 0.64035 0.54594 0.0
C1135 C 0.98234 0.63226 0.55349 0.0
C1136 C 0.96448 0.6371 0.56236 0.0
C1137 C 0.95677 0.6539 0.55934 0.0
C1138 C 0.94004 0.65848 0.56787 0.0
C1139 C 0.93079 0.64628 0.57934 0.0
C1140 C 0.93822 0.62944 0.58225 0.0
C1141 C 0.95497 0.62481 0.57377 0.0
H1142 H 0.91783 0.64984 0.58593 0.0
H1143 H 0.07764 0.60617 0.49788 0.0
H1144 H 0.80333 0.84494 0.21744 0.0
H1145 H 0.82881 0.87241 0.22045 0.0
H1146 H 0.78816 0.91057 0.24014 0.0
H1147 H 0.76229 0.88333 0.23602 0.0
H1148 H 0.81119 0.92728 0.21792 0.0
H1149 H 0.82049 0.89451 0.27107 0.0
H1150 H 0.82484 0.86679 0.28737 0.0
H1151 H 0.87703 0.85956 0.25948 0.0
H1152 H 0.87285 0.88709 0.24282 0.0
H1153 H 0.88222 0.0052 0.26171 0.0
H1154 H 0.85526 0.97894 0.25513 0.0
H1155 H 0.89418 0.9403 0.23227 0.0
H1156 H 0.92122 0.96628 0.23907 0.0
H1157 H 0.87166 0.92432 0.25631 0.0
H1158 H 0.86178 0.95824 0.20342 0.0
H1159 H 0.8572 0.9869 0.18867 0.0
H1160 H 0.80573 0.99308 0.21809 0.0
H1161 H 0.81011 0.96456 0.23317 0.0
C1162 C 0.79967 0.8592 0.22206 0.0
C1163 C 0.78073 0.86184 0.22665 0.0
C1164 C 0.81435 0.8749 0.22401 0.0
C1165 C 0.81052 0.89353 0.23093 0.0
C1166 C 0.79152 0.89632 0.23492 0.0
C1167 C 0.77678 0.88067 0.23276 0.0
C1168 C 0.8264 0.91002 0.23448 0.0
C1169 C 0.82433 0.9267 0.22648 0.0
C1170 C 0.84365 0.90926 0.2455 0.0
C1171 C 0.84625 0.89274 0.25556 0.0
C1172 C 0.83282 0.88692 0.26831 0.0
C1173 C 0.83526 0.87126 0.27763 0.0
C1174 C 0.85117 0.86139 0.27443 0.0
C1175 C 0.8647 0.8672 0.26193 0.0
C1176 C 0.86231 0.88284 0.25256 0.0
C1177 C 0.88504 0.99115 0.25517 0.0
C1178 C 0.90393 0.98787 0.25096 0.0
C1179 C 0.86958 0.97616 0.25134 0.0
C1180 C 0.87268 0.95767 0.24306 0.0
C1181 C 0.89146 0.95444 0.23868 0.0
C1182 C 0.90691 0.96935 0.24256 0.0
C1183 C 0.85655 0.94146 0.23957 0.0
C1184 C 0.85855 0.92486 0.24768 0.0
C1185 C 0.83919 0.94241 0.22884 0.0
C1186 C 0.83637 0.95937 0.21954 0.0
C1187 C 0.84954 0.96578 0.20682 0.0
C1188 C 0.84697 0.98198 0.19838 0.0
C1189 C 0.8312 0.99183 0.20247 0.0
C1190 C 0.81793 0.98544 0.21494 0.0
C1191 C 0.82044 0.96924 0.22341 0.0
H1192 H 0.82925 0.00439 0.19595 0.0
H1193 H 0.85305 0.84927 0.28165 0.0
H1194 H 0.7556 0.16267 0.32504 0.0
H1195 H 0.7817 0.14253 0.32358 0.0
H1196 H 0.78673 0.14836 0.26478 0.0
H1197 H 0.76035 0.16802 0.26608 0.0
H1198 H 0.78924 0.11306 0.26875 0.0
H1199 H 0.81898 0.17469 0.30226 0.0
H1200 H 0.82269 0.20267 0.32767 0.0
H1201 H 0.82952 0.16555 0.36928 0.0
H1202 H 0.82559 0.1373 0.34411 0.0
H1203 H 0.88469 0.09719 0.25249 0.0
H1204 H 0.85557 0.11191 0.25897 0.0
H1205 H 0.85233 0.08892 0.31148 0.0
H1206 H 0.88164 0.07379 0.30497 0.0
H1207 H 0.84748 0.12951 0.31374 0.0
H1208 H 0.82141 0.06821 0.27843 0.0
H1209 H 0.81925 0.04136 0.25199 0.0
H1210 H 0.80691 0.07931 0.21261 0.0
H1211 H 0.80929 0.10646 0.23879 0.0
C1212 C 0.76232 0.15966 0.31183 0.0
C1213 C 0.75595 0.16694 0.29568 0.0
C1214 C 0.77727 0.14818 0.31101 0.0
C1215 C 0.78642 0.14409 0.29413 0.0
C1216 C 0.77991 0.15123 0.27796 0.0
C1217 C 0.76482 0.16247 0.27871 0.0
C1218 C 0.80283 0.13247 0.29316 0.0
C1219 C 0.802 0.11678 0.27854 0.0
C1220 C 0.81935 0.13691 0.3062 0.0
C1221 C 0.82176 0.15387 0.32133 0.0
C1222 C 0.82112 0.17248 0.31684 0.0
C1223 C 0.82329 0.18839 0.3312 0.0
C1224 C 0.82628 0.18588 0.35008 0.0
C1225 C 0.82716 0.16746 0.35464 0.0
C1226 C 0.82498 0.1515 0.34034 0.0
C1227 C 0.87785 0.0952 0.26544 0.0
C1228 C 0.8855 0.08428 0.27822 0.0
C1229 C 0.86114 0.10359 0.26908 0.0
C1230 C 0.85172 0.1014 0.28563 0.0
C1231 C 0.85939 0.09073 0.2986 0.0
C1232 C 0.87606 0.08206 0.29483 0.0
C1233 C 0.83395 0.11049 0.28914 0.0
C1234 C 0.83455 0.12567 0.30417 0.0
C1235 C 0.81732 0.10576 0.27636 0.0
C1236 C 0.81566 0.08941 0.26058 0.0
C1237 C 0.81837 0.07086 0.26412 0.0
C1238 C 0.81708 0.05558 0.24918 0.0
C1239 C 0.81297 0.05863 0.23063 0.0
C1240 C 0.81009 0.07697 0.22699 0.0
C1241 C 0.81138 0.0923 0.24188 0.0
H1242 H 0.81199 0.04679 0.21908 0.0
H1243 H 0.82795 0.19821 0.36117 0.0
H1244 H 0.41186 0.01854 0.99069 0.0
H1245 H 0.38191 0.99888 0.9967 0.0
H1246 H 0.41228 0.94938 0.99544 0.0
H1247 H 0.4421 0.96887 0.98934 0.0
H1248 H 0.37901 0.94012 0.97484 0.0
H1249 H 0.39971 0.97465 0.03726 0.0
H1250 H 0.40937 0.00367 0.06096 0.0
H1251 H 0.35441 0.02277 0.05041 0.0
H1252 H 0.34452 0.99397 0.02644 0.0
H1253 H 0.31984 0.87438 0.01749 0.0
H1254 H 0.34583 0.89878 0.01188 0.0
H1255 H 0.30535 0.93972 0.00979 0.0
H1256 H 0.27897 0.91524 0.01556 0.0
H1257 H 0.34071 0.95561 0.03019 0.0
H1258 H 0.31921 0.9194 0.96952 0.0
H1259 H 0.30971 0.88996 0.94633 0.0
H1260 H 0.36653 0.87384 0.95389 0.0
H1261 H 0.37629 0.90305 0.97735 0.0
C1262 C 0.41216 0.00351 0.99188 0.0
C1263 C 0.42932 0.99524 0.98946 0.0
C1264 C 0.39504 0.99229 0.99531 0.0
C1265 C 0.39485 0.97265 0.99662 0.0
C1266 C 0.41203 0.96446 0.99438 0.0
C1267 C 0.42906 0.97561 0.99085 0.0
C1268 C 0.37675 0.96037 0.99988 0.0
C1269 C 0.37075 0.94346 0.98704 0.0
C1270 C 0.36557 0.96501 0.01545 0.0
C1271 C 0.37147 0.98227 0.02991 0.0
C1272 C 0.38975 0.98512 0.03989 0.0
C1273 C 0.39525 0.00151 0.05339 0.0
C1274 C 0.38254 0.01508 0.05715 0.0
C1275 C 0.36426 0.01226 0.04746 0.0
C1276 C 0.35869 0.9959 0.03392 0.0
C1277 C 0.31635 0.88855 0.01592 0.0
C1278 C 0.2972 0.89274 0.01681 0.0
C1279 C 0.33128 0.90251 0.01267 0.0
C1280 C 0.32748 0.92097 0.01013 0.0
C1281 C 0.30856 0.92551 0.01163 0.0
C1282 C 0.29351 0.91148 0.01487 0.0
C1283 C 0.34337 0.93518 0.00543 0.0
C1284 C 0.34889 0.95243 0.01791 0.0
C1285 C 0.35419 0.93087 0.98955 0.0
C1286 C 0.34844 0.91336 0.97529 0.0
C1287 C 0.32964 0.90951 0.96633 0.0
C1288 C 0.32421 0.89287 0.95313 0.0
C1289 C 0.33749 0.88002 0.94867 0.0
C1290 C 0.35625 0.88381 0.95737 0.0
C1291 C 0.36175 0.90042 0.9706 0.0
H1292 H 0.33326 0.86714 0.93844 0.0
H1293 H 0.38683 0.02777 0.06761 0.0
H1294 H 0.23014 0.31107 0.27507 0.0
H1295 H 0.21596 0.33819 0.26524 0.0
H1296 H 0.27304 0.36598 0.25705 0.0
H1297 H 0.28728 0.33886 0.26755 0.0
H1298 H 0.25445 0.39071 0.27606 0.0
H1299 H 0.23834 0.34658 0.21914 0.0
H1300 H 0.2254 0.31596 0.19889 0.0
H1301 H 0.1685 0.32121 0.21742 0.0
H1302 H 0.18115 0.35174 0.23799 0.0
H1303 H 0.22052 0.46181 0.22704 0.0
H1304 H 0.23252 0.4318 0.23138 0.0
H1305 H 0.1828 0.41569 0.26182 0.0
H1306 H 0.17073 0.44616 0.25797 0.0
H1307 H 0.1974 0.38523 0.23033 0.0
H1308 H 0.21575 0.42932 0.2889 0.0
H1309 H 0.2298 0.46062 0.30728 0.0
H1310 H 0.28419 0.45556 0.28284 0.0
H1311 H 0.27033 0.42434 0.26407 0.0
C1312 C 0.23959 0.32282 0.27079 0.0
C1313 C 0.25971 0.32292 0.27181 0.0
C1314 C 0.23148 0.3383 0.26511 0.0
C1315 C 0.24335 0.35411 0.26012 0.0
C1316 C 0.26355 0.35395 0.26075 0.0
C1317 C 0.27169 0.33845 0.2666 0.0
C1318 C 0.23472 0.37129 0.25565 0.0
C1319 C 0.24217 0.38945 0.26583 0.0
C1320 C 0.21841 0.36977 0.24257 0.0
C1321 C 0.21074 0.35138 0.23025 0.0
C1322 C 0.2231 0.34113 0.21902 0.0
C1323 C 0.21581 0.3238 0.20746 0.0
C1324 C 0.19615 0.31662 0.20691 0.0
C1325 C 0.18373 0.32678 0.21788 0.0
C1326 C 0.19095 0.34411 0.22948 0.0
C1327 C 0.21191 0.45185 0.23448 0.0
C1328 C 0.19463 0.45649 0.24222 0.0
C1329 C 0.21886 0.43469 0.23695 0.0
C1330 C 0.20858 0.4216 0.24695 0.0
C1331 C 0.19091 0.42566 0.25402 0.0
C1332 C 0.18406 0.44307 0.25185 0.0
C1333 C 0.21708 0.4043 0.25085 0.0
C1334 C 0.20967 0.38627 0.24053 0.0
C1335 C 0.23356 0.40592 0.26359 0.0
C1336 C 0.24194 0.42463 0.27492 0.0
C1337 C 0.23064 0.43498 0.28729 0.0
C1338 C 0.23858 0.45269 0.29782 0.0
C1339 C 0.25786 0.46011 0.29619 0.0
C1340 C 0.26925 0.44981 0.28406 0.0
C1341 C 0.26136 0.43211 0.27349 0.0
H1342 H 0.26398 0.47381 0.30436 0.0
H1343 H 0.19054 0.3032 0.19794 0.0
H1344 H 0.08334 0.0435 0.49363 0.0
H1345 H 0.1157 0.06136 0.49482 0.0
H1346 H 0.14038 0.01276 0.51096 0.0
H1347 H 0.10762 0.99466 0.50988 0.0
H1348 H 0.15866 0.04765 0.53067 0.0
H1349 H 0.1427 0.02043 0.46641 0.0
H1350 H 0.12221 0.01153 0.43656 0.0
H1351 H 0.12088 0.07132 0.43278 0.0
H1352 H 0.14112 0.08059 0.46277 0.0
H1353 H 0.24925 0.10248 0.51245 0.0
H1354 H 0.22317 0.07531 0.51069 0.0
H1355 H 0.18151 0.11158 0.49569 0.0
H1356 H 0.2072 0.13857 0.49736 0.0
H1357 H 0.17603 0.07622 0.4734 0.0
H1358 H 0.1875 0.10235 0.54055 0.0
H1359 H 0.20777 0.11101 0.57057 0.0
H1360 H 0.21817 0.05227 0.56826 0.0
H1361 H 0.19814 0.04333 0.53808 0.0
C1362 C 0.09563 0.03656 0.49742 0.0
C1363 C 0.09297 0.01755 0.50132 0.0
C1364 C 0.11414 0.04679 0.4981 0.0
C1365 C 0.13051 0.03824 0.50252 0.0
C1366 C 0.12794 0.01956 0.50734 0.0
C1367 C 0.10927 0.00927 0.50675 0.0
C1368 C 0.1501 0.04897 0.5016 0.0
C1369 C 0.16269 0.05354 0.51802 0.0
C1370 C 0.15537 0.05668 0.4851 0.0
C1371 C 0.14338 0.0512 0.4669 0.0
C1372 C 0.13795 0.03169 0.45927 0.0
C1373 C 0.12638 0.02657 0.44232 0.0
C1374 C 0.12023 0.04085 0.43279 0.0
C1375 C 0.12567 0.06027 0.44018 0.0
C1376 C 0.13722 0.06547 0.45714 0.0
C1377 C 0.23454 0.10461 0.50866 0.0
C1378 C 0.23033 0.12275 0.50512 0.0
C1379 C 0.21966 0.08909 0.50774 0.0
C1380 C 0.20038 0.09145 0.50316 0.0
C1381 C 0.19627 0.10941 0.49923 0.0
C1382 C 0.21102 0.12488 0.50027 0.0
C1383 C 0.18417 0.07555 0.50267 0.0
C1384 C 0.17223 0.06997 0.48591 0.0
C1385 C 0.17961 0.06685 0.5188 0.0
C1386 C 0.19154 0.07222 0.53696 0.0
C1387 C 0.19425 0.09132 0.54637 0.0
C1388 C 0.20566 0.09627 0.56343 0.0
C1389 C 0.21431 0.08221 0.57129 0.0
C1390 C 0.2115 0.06315 0.56214 0.0
C1391 C 0.20012 0.05814 0.54506 0.0
H1392 H 0.22314 0.08607 0.58449 0.0
H1393 H 0.11127 0.03686 0.41967 0.0
H1394 H 0.79259 0.19456 0.75134 0.0
H1395 H 0.76712 0.16958 0.7576 0.0
H1396 H 0.77892 0.13293 0.70709 0.0
H1397 H 0.80399 0.15811 0.70053 0.0
H1398 H 0.74144 0.12934 0.71031 0.0
H1399 H 0.79718 0.12777 0.75192 0.0
H1400 H 0.82363 0.14116 0.77622 0.0
H1401 H 0.78208 0.1562 0.81608 0.0
H1402 H 0.75538 0.14313 0.79192 0.0
H1403 H 0.71047 0.03705 0.73701 0.0
H1404 H 0.72909 0.06585 0.72858 0.0
H1405 H 0.70316 0.10135 0.7716 0.0
H1406 H 0.6841 0.07259 0.77988 0.0
H1407 H 0.74555 0.10677 0.7727 0.0
H1408 H 0.68959 0.10472 0.73034 0.0
H1409 H 0.66429 0.08919 0.70564 0.0
H1410 H 0.70778 0.07858 0.6666 0.0
H1411 H 0.73339 0.09375 0.69118 0.0
C1412 C 0.78967 0.18118 0.74157 0.0
C1413 C 0.80031 0.1782 0.72552 0.0
C1414 C 0.77514 0.16692 0.74514 0.0
C1415 C 0.7713 0.14922 0.73298 0.0
C1416 C 0.78159 0.14645 0.71667 0.0
C1417 C 0.79592 0.16082 0.71295 0.0
C1418 C 0.75718 0.13332 0.73763 0.0
C1419 C 0.74245 0.12433 0.72391 0.0
C1420 C 0.75827 0.1269 0.75546 0.0
C1421 C 0.77429 0.13467 0.77005 0.0
C1422 C 0.79369 0.13406 0.76583 0.0
C1423 C 0.80872 0.14157 0.77958 0.0
C1424 C 0.80454 0.14958 0.79766 0.0
C1425 C 0.7853 0.15003 0.80205 0.0
C1426 C 0.77021 0.14256 0.78834 0.0
C1427 C 0.70854 0.05095 0.74455 0.0
C1428 C 0.69584 0.05251 0.75915 0.0
C1429 C 0.71915 0.06741 0.73967 0.0
C1430 C 0.71744 0.08567 0.74947 0.0
C1431 C 0.7046 0.08735 0.76387 0.0
C1432 C 0.69371 0.07092 0.76852 0.0
C1433 C 0.72997 0.10285 0.7454 0.0
C1434 C 0.74445 0.11198 0.75921 0.0
C1435 C 0.72881 0.10915 0.72757 0.0
C1436 C 0.71343 0.10021 0.71268 0.0
C1437 C 0.69378 0.09892 0.71655 0.0
C1438 C 0.67938 0.09021 0.70256 0.0
C1439 C 0.68443 0.08286 0.68458 0.0
C1440 C 0.70389 0.08426 0.68054 0.0
C1441 C 0.71836 0.09293 0.69449 0.0
H1442 H 0.67325 0.07611 0.67377 0.0
H1443 H 0.8162 0.15539 0.80829 0.0
H1444 H 0.46143 0.03007 0.50385 0.0
H1445 H 0.43186 0.04218 0.49327 0.0
H1446 H 0.40564 0.02953 0.54419 0.0
H1447 H 0.43495 0.01705 0.55443 0.0
H1448 H 0.3789 0.02286 0.51517 0.0
H1449 H 0.43018 0.07463 0.54074 0.0
H1450 H 0.4628 0.09311 0.54192 0.0
H1451 H 0.45197 0.1036 0.48498 0.0
H1452 H 0.41936 0.08497 0.4834 0.0
H1453 H 0.31653 0.09237 0.53766 0.0
H1454 H 0.34118 0.07086 0.53524 0.0
H1455 H 0.35857 0.09104 0.48377 0.0
H1456 H 0.33412 0.113 0.48634 0.0
H1457 H 0.38908 0.09172 0.50695 0.0
H1458 H 0.33528 0.04443 0.48369 0.0
H1459 H 0.30249 0.02657 0.48324 0.0
H1460 H 0.3175 0.00786 0.53587 0.0
H1461 H 0.35031 0.02584 0.53678 0.0
C1462 C 0.44909 0.0294 0.51243 0.0
C1463 C 0.45024 0.0226 0.52984 0.0
C1464 C 0.43229 0.03644 0.50649 0.0
C1465 C 0.41662 0.03708 0.51809 0.0
C1466 C 0.41749 0.02919 0.53499 0.0
C1467 C 0.4342 0.02206 0.54084 0.0
C1468 C 0.40008 0.04744 0.51369 0.0
C1469 C 0.3811 0.03793 0.5134 0.0
C1470 C 0.4029 0.06698 0.51089 0.0
C1471 C 0.42245 0.07823 0.51188 0.0
C1472 C 0.43482 0.08077 0.52844 0.0
C1473 C 0.45329 0.09129 0.52918 0.0
C1474 C 0.45948 0.09947 0.51351 0.0
C1475 C 0.44718 0.09721 0.49709 0.0
C1476 C 0.4287 0.08669 0.49626 0.0
C1477 C 0.32539 0.09207 0.52566 0.0
C1478 C 0.32337 0.10449 0.51223 0.0
C1479 C 0.33944 0.07964 0.52422 0.0
C1480 C 0.35166 0.07914 0.50921 0.0
C1481 C 0.34931 0.09113 0.49547 0.0
C1482 C 0.33528 0.10365 0.49694 0.0
C1483 C 0.36783 0.06727 0.50881 0.0
C1484 C 0.38678 0.07654 0.50828 0.0
C1485 C 0.36494 0.04753 0.51089 0.0
C1486 C 0.34524 0.03659 0.51035 0.0
C1487 C 0.33156 0.03662 0.49523 0.0
C1488 C 0.31297 0.02645 0.49489 0.0
C1489 C 0.30791 0.01611 0.50953 0.0
C1490 C 0.32144 0.01588 0.52453 0.0
C1491 C 0.34005 0.02603 0.52496 0.0
H1492 H 0.2935 0.00826 0.50924 0.0
H1493 H 0.47378 0.10761 0.51412 0.0
H1494 H 0.60652 0.51935 0.5297 0.0
H1495 H 0.63218 0.49876 0.52793 0.0
H1496 H 0.595 0.45517 0.55039 0.0
H1497 H 0.56965 0.4762 0.55296 0.0
H1498 H 0.62971 0.45678 0.56514 0.0
H1499 H 0.60286 0.45368 0.50123 0.0
H1500 H 0.59307 0.4671 0.47283 0.0
H1501 H 0.65187 0.49214 0.46907 0.0
H1502 H 0.66197 0.47907 0.4976 0.0
H1503 H 0.67456 0.37534 0.53513 0.0
H1504 H 0.65208 0.39907 0.53797 0.0
H1505 H 0.69565 0.44134 0.52168 0.0
H1506 H 0.71835 0.41748 0.5186 0.0
H1507 H 0.65972 0.442 0.5043 0.0
H1508 H 0.68645 0.44289 0.56757 0.0
H1509 H 0.6956 0.42862 0.59563 0.0
H1510 H 0.63602 0.4066 0.60005 0.0
H1511 H 0.62654 0.42051 0.57185 0.0
C1512 C 0.60392 0.5054 0.53434 0.0
C1513 C 0.58612 0.49927 0.54136 0.0
C1514 C 0.61853 0.49359 0.53322 0.0
C1515 C 0.61541 0.47517 0.5386 0.0
C1516 C 0.59776 0.46927 0.54608 0.0
C1517 C 0.58328 0.48125 0.54755 0.0
C1518 C 0.63039 0.46197 0.53624 0.0
C1519 C 0.63608 0.4534 0.55176 0.0
C1520 C 0.63915 0.45788 0.51892 0.0
C1521 C 0.63313 0.46555 0.50164 0.0
C1522 C 0.61368 0.46214 0.4944 0.0
C1523 C 0.60808 0.46968 0.47828 0.0
C1524 C 0.62183 0.48051 0.46918 0.0
C1525 C 0.64123 0.48377 0.47615 0.0
C1526 C 0.6469 0.47629 0.49228 0.0
C1527 C 0.67941 0.38965 0.53206 0.0
C1528 C 0.69833 0.39454 0.52675 0.0
C1529 C 0.66653 0.40323 0.53378 0.0
C1530 C 0.67228 0.42207 0.53037 0.0
C1531 C 0.69095 0.4269 0.52449 0.0
C1532 C 0.7039 0.41326 0.52275 0.0
C1533 C 0.65875 0.43665 0.5331 0.0
C1534 C 0.65338 0.44548 0.51768 0.0
C1535 C 0.65015 0.44086 0.55045 0.0
C1536 C 0.65581 0.43262 0.56751 0.0
C1537 C 0.67531 0.43489 0.57445 0.0
C1538 C 0.68056 0.42689 0.59039 0.0
C1539 C 0.66641 0.41668 0.59959 0.0
C1540 C 0.64697 0.4145 0.5929 0.0
C1541 C 0.64165 0.42246 0.57695 0.0
H1542 H 0.6705 0.41049 0.61193 0.0
H1543 H 0.61746 0.48634 0.45671 0.0
H1544 H 0.69667 0.22006 0.33154 0.0
H1545 H 0.69909 0.24567 0.35887 0.0
H1546 H 0.76076 0.25716 0.35454 0.0
H1547 H 0.75845 0.23191 0.32714 0.0
H1548 H 0.7513 0.25121 0.38997 0.0
H1549 H 0.73147 0.28848 0.3428 0.0
H1550 H 0.70984 0.29526 0.31699 0.0
H1551 H 0.66313 0.29649 0.35373 0.0
H1552 H 0.68441 0.28944 0.37971 0.0
H1553 H 0.78 0.33002 0.45775 0.0
H1554 H 0.77245 0.31204 0.42595 0.0
H1555 H 0.71146 0.30733 0.43488 0.0
H1556 H 0.719 0.32615 0.46666 0.0
H1557 H 0.71785 0.30934 0.39755 0.0
H1558 H 0.73633 0.27189 0.44425 0.0
H1559 H 0.75682 0.26417 0.47044 0.0
H1560 H 0.80439 0.26155 0.43482 0.0
H1561 H 0.78425 0.26954 0.40849 0.0
C1562 C 0.71069 0.22829 0.33619 0.0
C1563 C 0.72741 0.22378 0.32728 0.0
C1564 C 0.71204 0.24291 0.35182 0.0
C1565 C 0.73011 0.25332 0.35874 0.0
C1566 C 0.74669 0.24924 0.3495 0.0
C1567 C 0.74535 0.23472 0.3339 0.0
C1568 C 0.73214 0.26745 0.37642 0.0
C1569 C 0.74418 0.26404 0.39151 0.0
C1570 C 0.72223 0.28379 0.37869 0.0
C1571 C 0.70948 0.28822 0.36314 0.0
C1572 C 0.71654 0.29004 0.34534 0.0
C1573 C 0.70435 0.29396 0.33068 0.0
C1574 C 0.68511 0.29624 0.3337 0.0
C1575 C 0.67803 0.29469 0.35141 0.0
C1576 C 0.69016 0.29074 0.36611 0.0
C1577 C 0.76495 0.32558 0.45275 0.0
C1578 C 0.75008 0.32924 0.46469 0.0
C1579 C 0.76065 0.31526 0.4346 0.0
C1580 C 0.74143 0.30786 0.42824 0.0
C1581 C 0.72641 0.31279 0.43956 0.0
C1582 C 0.73071 0.32353 0.45768 0.0
C1583 C 0.73746 0.29332 0.41084 0.0
C1584 C 0.72496 0.29651 0.39594 0.0
C1585 C 0.74675 0.27656 0.40873 0.0
C1586 C 0.75882 0.27146 0.42445 0.0
C1587 C 0.75119 0.26977 0.44204 0.0
C1588 C 0.76274 0.26534 0.4569 0.0
C1589 C 0.78191 0.26241 0.4543 0.0
C1590 C 0.78955 0.26384 0.43681 0.0
C1591 C 0.77807 0.2683 0.42191 0.0
H1592 H 0.79083 0.25899 0.46583 0.0
H1593 H 0.67569 0.29926 0.32233 0.0
H1594 H 0.54056 0.01569 0.95115 0.0
H1595 H 0.56491 0.01686 0.92757 0.0
H1596 H 0.51954 0.01372 0.8835 0.0
H1597 H 0.49528 0.01249 0.90709 0.0
H1598 H 0.54309 0.98676 0.87493 0.0
H1599 H 0.55099 0.05471 0.89629 0.0
H1600 H 0.55648 0.08431 0.91976 0.0
H1601 H 0.61213 0.07054 0.93728 0.0
H1602 H 0.60686 0.04069 0.91409 0.0
H1603 H 0.60691 0.99809 0.80105 0.0
H1604 H 0.58177 0.00139 0.82351 0.0
H1605 H 0.62514 0.00877 0.87008 0.0
H1606 H 0.65029 0.00592 0.8478 0.0
H1607 H 0.60171 0.03478 0.87653 0.0
H1608 H 0.59338 0.96625 0.85691 0.0
H1609 H 0.58805 0.93613 0.83411 0.0
H1610 H 0.53347 0.95045 0.8141 0.0
H1611 H 0.5386 0.98079 0.83662 0.0
C1612 C 0.53593 0.01584 0.9365 0.0
C1613 C 0.5162 0.01429 0.93085 0.0
C1614 C 0.5498 0.01645 0.92303 0.0
C1615 C 0.54406 0.01542 0.90374 0.0
C1616 C 0.52431 0.01454 0.89828 0.0
C1617 C 0.51049 0.01401 0.91174 0.0
C1618 C 0.55843 0.01376 0.88914 0.0
C1619 C 0.55575 0.99744 0.87509 0.0
C1620 C 0.5752 0.0274 0.88963 0.0
C1621 C 0.57844 0.04537 0.90356 0.0
C1622 C 0.56433 0.05791 0.90525 0.0
C1623 C 0.56742 0.07475 0.91849 0.0
C1624 C 0.58463 0.07928 0.93004 0.0
C1625 C 0.5988 0.067 0.92834 0.0
C1626 C 0.59578 0.05013 0.91514 0.0
C1627 C 0.61105 0.00021 0.81607 0.0
C1628 C 0.63062 0.00172 0.82262 0.0
C1629 C 0.59666 0.00209 0.82892 0.0
C1630 C 0.60151 0.00525 0.84854 0.0
C1631 C 0.62101 0.00644 0.85504 0.0
C1632 C 0.63538 0.0047 0.84225 0.0
C1633 C 0.58644 0.0077 0.86237 0.0
C1634 C 0.589 0.02416 0.8763 0.0
C1635 C 0.56959 0.99412 0.86185 0.0
C1636 C 0.56648 0.97589 0.84831 0.0
C1637 C 0.58031 0.96305 0.84754 0.0
C1638 C 0.57732 0.94593 0.83469 0.0
C1639 C 0.56046 0.94141 0.82263 0.0
C1640 C 0.54654 0.95399 0.82343 0.0
C1641 C 0.54948 0.97114 0.83624 0.0
H1642 H 0.55816 0.92815 0.81269 0.0
H1643 H 0.58699 0.09233 0.94027 0.0
H1644 H 0.26959 0.235 0.31451 0.0
H1645 H 0.26754 0.21652 0.34079 0.0
H1646 H 0.32893 0.2318 0.35451 0.0
H1647 H 0.33108 0.25092 0.32851 0.0
H1648 H 0.31209 0.19116 0.35765 0.0
H1649 H 0.30402 0.25771 0.37843 0.0
H1650 H 0.28945 0.28728 0.37605 0.0
H1651 H 0.23305 0.25706 0.3813 0.0
H1652 H 0.24727 0.2272 0.3834 0.0
H1653 H 0.31238 0.17396 0.45419 0.0
H1654 H 0.31737 0.18455 0.4235 0.0
H1655 H 0.25633 0.18862 0.41601 0.0
H1656 H 0.25157 0.17906 0.44704 0.0
H1657 H 0.27456 0.21943 0.40906 0.0
H1658 H 0.281 0.15318 0.38888 0.0
H1659 H 0.29398 0.12249 0.38968 0.0
H1660 H 0.35096 0.14992 0.38199 0.0
H1661 H 0.33836 0.18084 0.38138 0.0
C1662 C 0.28271 0.23441 0.32304 0.0
C1663 C 0.30045 0.24477 0.31959 0.0
C1664 C 0.28152 0.22368 0.33795 0.0
C1665 C 0.29804 0.22294 0.34967 0.0
C1666 C 0.31602 0.23217 0.34557 0.0
C1667 C 0.31722 0.24307 0.33069 0.0
C1668 C 0.29603 0.21424 0.36725 0.0
C1669 C 0.30409 0.19738 0.36905 0.0
C1670 C 0.28521 0.22217 0.38184 0.0
C1671 C 0.27669 0.24019 0.38089 0.0
C1672 C 0.28849 0.25733 0.37893 0.0
C1673 C 0.2803 0.27415 0.37765 0.0
C1674 C 0.26033 0.27404 0.37847 0.0
C1675 C 0.24851 0.25712 0.38064 0.0
C1676 C 0.25663 0.24025 0.38189 0.0
C1677 C 0.29999 0.17675 0.44579 0.0
C1678 C 0.2816 0.17577 0.45303 0.0
C1679 C 0.30283 0.18276 0.42819 0.0
C1680 C 0.28722 0.18738 0.41728 0.0
C1681 C 0.26867 0.18534 0.42414 0.0
C1682 C 0.26592 0.17978 0.44187 0.0
C1683 C 0.2903 0.19591 0.39959 0.0
C1684 C 0.28252 0.21297 0.39776 0.0
C1685 C 0.30115 0.18794 0.38491 0.0
C1686 C 0.30877 0.16937 0.38528 0.0
C1687 C 0.29633 0.1527 0.38751 0.0
C1688 C 0.30361 0.13526 0.3879 0.0
C1689 C 0.32329 0.13427 0.38594 0.0
C1690 C 0.33572 0.15071 0.38353 0.0
C1691 C 0.32851 0.1682 0.38314 0.0
H1692 H 0.3289 0.12075 0.38625 0.0
H1693 H 0.25401 0.28707 0.37747 0.0
H1694 H 0.54373 0.53019 0.95811 0.0
H1695 H 0.52645 0.5371 0.92962 0.0
H1696 H 0.51204 0.47618 0.91001 0.0
H1697 H 0.52899 0.46921 0.9386 0.0
H1698 H 0.52878 0.49962 0.88277 0.0
H1699 H 0.47807 0.49713 0.92637 0.0
H1700 H 0.46375 0.50673 0.95648 0.0
H1701 H 0.4688 0.56529 0.94596 0.0
H1702 H 0.48344 0.55607 0.91589 0.0
H1703 H 0.46542 0.4978 0.80442 0.0
H1704 H 0.47832 0.49215 0.83514 0.0
H1705 H 0.47669 0.5517 0.858 0.0
H1706 H 0.46274 0.55714 0.82733 0.0
H1707 H 0.46889 0.53064 0.88438 0.0
H1708 H 0.51913 0.53502 0.84192 0.0
H1709 H 0.5352 0.52759 0.81237 0.0
H1710 H 0.53382 0.46877 0.8213 0.0
H1711 H 0.51748 0.47578 0.85078 0.0
C1712 C 0.53689 0.51831 0.94768 0.0
C1713 C 0.53767 0.49917 0.9505 0.0
C1714 C 0.52697 0.52226 0.93151 0.0
C1715 C 0.51792 0.50713 0.9178 0.0
C1716 C 0.5189 0.48803 0.92047 0.0
C1717 C 0.52851 0.48407 0.93679 0.0
C1718 C 0.50776 0.51119 0.90043 0.0
C1719 C 0.51555 0.50617 0.88305 0.0
C1720 C 0.49094 0.52042 0.90098 0.0
C1721 C 0.48205 0.52595 0.91899 0.0
C1722 C 0.47631 0.51208 0.93056 0.0
C1723 C 0.46809 0.51745 0.9476 0.0
C1724 C 0.46542 0.53662 0.95316 0.0
C1725 C 0.47091 0.55045 0.94165 0.0
C1726 C 0.47915 0.54516 0.9246 0.0
C1727 C 0.46752 0.50961 0.81609 0.0
C1728 C 0.46327 0.52795 0.81348 0.0
C1729 C 0.47503 0.50641 0.83362 0.0
C1730 C 0.47912 0.52165 0.84876 0.0
C1731 C 0.47385 0.53975 0.8465 0.0
C1732 C 0.46586 0.54285 0.829 0.0
C1733 C 0.48972 0.51877 0.86651 0.0
C1734 C 0.48212 0.52409 0.88401 0.0
C1735 C 0.507 0.51016 0.86614 0.0
C1736 C 0.51693 0.50589 0.84847 0.0
C1737 C 0.52214 0.52047 0.83752 0.0
C1738 C 0.53131 0.51634 0.82079 0.0
C1739 C 0.53549 0.49771 0.81494 0.0
C1740 C 0.53055 0.48319 0.82584 0.0
C1741 C 0.52135 0.48723 0.84257 0.0
H1742 H 0.54259 0.49454 0.80199 0.0
H1743 H 0.45906 0.54075 0.96635 0.0
H1744 H 0.78144 0.79655 0.1984 0.0
H1745 H 0.78237 0.77159 0.17128 0.0
H1746 H 0.7202 0.76554 0.16226 0.0
H1747 H 0.71914 0.79088 0.18939 0.0
H1748 H 0.7358 0.7297 0.15649 0.0
H1749 H 0.74434 0.79175 0.13636 0.0
H1750 H 0.75884 0.82563 0.13799 0.0
H1751 H 0.81475 0.80784 0.12974 0.0
H1752 H 0.80062 0.77385 0.12837 0.0
H1753 H 0.76094 0.70974 0.04986 0.0
H1754 H 0.75108 0.73002 0.07719 0.0
H1755 H 0.77374 0.69396 0.11423 0.0
H1756 H 0.78325 0.67328 0.08684 0.0
H1757 H 0.77364 0.75125 0.10471 0.0
H1758 H 0.74951 0.69642 0.15472 0.0
H1759 H 0.73361 0.66291 0.15247 0.0
H1760 H 0.70542 0.66676 0.09869 0.0
H1761 H 0.72092 0.70037 0.10073 0.0
C1762 C 0.76792 0.7899 0.1907 0.0
C1763 C 0.75023 0.79597 0.19583 0.0
C1764 C 0.76849 0.77556 0.17527 0.0
C1765 C 0.75139 0.76692 0.16461 0.0
C1766 C 0.73356 0.77207 0.17031 0.0
C1767 C 0.73298 0.78653 0.1858 0.0
C1768 C 0.75251 0.75364 0.14679 0.0
C1769 C 0.74401 0.73436 0.14512 0.0
C1770 C 0.76293 0.75986 0.13183 0.0
C1771 C 0.77144 0.78027 0.13242 0.0
C1772 C 0.75975 0.79507 0.13503 0.0
C1773 C 0.7679 0.81429 0.13589 0.0
C1774 C 0.78771 0.81889 0.13401 0.0
C1775 C 0.7994 0.80426 0.13121 0.0
C1776 C 0.79133 0.78501 0.13038 0.0
C1777 C 0.76351 0.70587 0.06376 0.0
C1778 C 0.77284 0.68982 0.06613 0.0
C1779 C 0.75794 0.71756 0.07941 0.0
C1780 C 0.76156 0.7135 0.09779 0.0
C1781 C 0.7705 0.69724 0.10019 0.0
C1782 C 0.77603 0.68548 0.08451 0.0
C1783 C 0.75727 0.72707 0.11444 0.0
C1784 C 0.76528 0.74649 0.11595 0.0
C1785 C 0.74617 0.72098 0.12906 0.0
C1786 C 0.73652 0.70087 0.12783 0.0
C1787 C 0.73984 0.69015 0.14246 0.0
C1788 C 0.73091 0.67113 0.14121 0.0
C1789 C 0.71855 0.6627 0.12542 0.0
C1790 C 0.71505 0.67329 0.11088 0.0
C1791 C 0.72392 0.69231 0.11207 0.0
H1792 H 0.71167 0.64797 0.12447 0.0
H1793 H 0.79399 0.83378 0.13468 0.0
H1794 H 0.05543 0.02922 0.09617 0.0
H1795 H 0.04167 0.03177 0.12708 0.0
H1796 H 0.98411 0.01899 0.09969 0.0
H1797 H 0.99757 0.01523 0.06882 0.0
H1798 H 0.99343 0.05475 0.12903 0.0
H1799 H 0.99633 0.98593 0.11778 0.0
H1800 H 0.01316 0.95744 0.11063 0.0
H1801 H 0.05197 0.97703 0.16009 0.0
H1802 H 0.03554 0.0058 0.16736 0.0
H1803 H 0.93488 0.04687 0.20525 0.0
H1804 H 0.94981 0.04123 0.17518 0.0
H1805 H 0.00287 0.03321 0.20486 0.0
H1806 H 0.98766 0.03798 0.23491 0.0
H1807 H 0.99753 0.00858 0.17458 0.0
H1808 H 0.99644 0.07628 0.18715 0.0
H1809 H 0.98247 0.10646 0.19504 0.0
H1810 H 0.94427 0.09194 0.14462 0.0
H1811 H 0.95784 0.06153 0.13655 0.0
C1812 C 0.03986 0.02654 0.09666 0.0
C1813 C 0.02766 0.02218 0.07986 0.0
C1814 C 0.03204 0.02816 0.11435 0.0
C1815 C 0.01191 0.02568 0.11559 0.0
C1816 C 0.9997 0.02112 0.09898 0.0
C1817 C 0.00747 0.01913 0.08132 0.0
C1818 C 0.00347 0.02838 0.13419 0.0
C1819 C 0.99409 0.04458 0.13894 0.0
C1820 C 0.00504 0.01545 0.14731 0.0
C1821 C 0.01486 0.99813 0.14298 0.0
C1822 C 0.00858 0.98427 0.12702 0.0
C1823 C 0.01802 0.96804 0.12297 0.0
C1824 C 0.03366 0.96546 0.13486 0.0
C1825 C 0.03987 0.97907 0.15086 0.0
C1826 C 0.0305 0.99533 0.15496 0.0
C1827 C 0.94971 0.04384 0.20536 0.0
C1828 C 0.96014 0.04297 0.22245 0.0
C1829 C 0.95828 0.04073 0.18816 0.0
C1830 C 0.97765 0.03721 0.18772 0.0
C1831 C 0.98795 0.03595 0.20478 0.0
C1832 C 0.97925 0.03872 0.22196 0.0
C1833 C 0.98714 0.03494 0.1695 0.0
C1834 C 0.99682 0.01886 0.16478 0.0
C1835 C 0.98624 0.04825 0.15656 0.0
C1836 C 0.97803 0.06653 0.16134 0.0
C1837 C 0.98496 0.07945 0.17781 0.0
C1838 C 0.97713 0.09661 0.18231 0.0
C1839 C 0.96246 0.10109 0.17037 0.0
C1840 C 0.95562 0.08844 0.15387 0.0
C1841 C 0.96339 0.07124 0.14932 0.0
H1842 H 0.95641 0.11438 0.17387 0.0
H1843 H 0.04095 0.95289 0.13171 0.0
H1844 H 0.33536 0.75928 0.15425 0.0
H1845 H 0.31933 0.77839 0.13387 0.0
H1846 H 0.27626 0.78653 0.17438 0.0
H1847 H 0.29242 0.76728 0.19485 0.0
H1848 H 0.26086 0.77963 0.13616 0.0
H1849 H 0.31065 0.82165 0.17516 0.0
H1850 H 0.34348 0.8322 0.19045 0.0
H1851 H 0.36652 0.83247 0.13598 0.0
H1852 H 0.33385 0.82163 0.12035 0.0
H1853 H 0.2313 0.85415 0.08736 0.0
H1854 H 0.24297 0.83921 0.11396 0.0
H1855 H 0.29138 0.82357 0.08285 0.0
H1856 H 0.27989 0.83847 0.05651 0.0
H1857 H 0.30169 0.8373 0.12076 0.0
H1858 H 0.25265 0.79138 0.08215 0.0
H1859 H 0.21996 0.78032 0.06667 0.0
H1860 H 0.19554 0.78757 0.12069 0.0
H1861 H 0.2281 0.79894 0.13646 0.0
C1862 C 0.32224 0.76484 0.15856 0.0
C1863 C 0.31495 0.76185 0.17591 0.0
C1864 C 0.31319 0.77583 0.14703 0.0
C1865 C 0.29678 0.7841 0.15277 0.0
C1866 C 0.28893 0.78031 0.16975 0.0
C1867 C 0.29808 0.76933 0.18136 0.0
C1868 C 0.28859 0.7974 0.14134 0.0
C1869 C 0.26962 0.79246 0.1331 0.0
C1870 C 0.30012 0.81405 0.13725 0.0
C1871 C 0.3198 0.82068 0.14658 0.0
C1872 C 0.32273 0.82381 0.16644 0.0
C1873 C 0.34131 0.82987 0.17516 0.0
C1874 C 0.35708 0.83297 0.16419 0.0
C1875 C 0.35429 0.83005 0.14446 0.0
C1876 C 0.33574 0.82397 0.13566 0.0
C1877 C 0.2446 0.84779 0.0864 0.0
C1878 C 0.25453 0.84714 0.06978 0.0
C1879 C 0.25117 0.83918 0.1015 0.0
C1880 C 0.26789 0.83006 0.10024 0.0
C1881 C 0.27838 0.83041 0.08406 0.0
C1882 C 0.2717 0.83877 0.06893 0.0
C1883 C 0.27414 0.81927 0.11519 0.0
C1884 C 0.29279 0.82468 0.12412 0.0
C1885 C 0.26231 0.8031 0.11991 0.0
C1886 C 0.24276 0.79625 0.11045 0.0
C1887 C 0.24029 0.79079 0.0907 0.0
C1888 C 0.22179 0.78443 0.08188 0.0
C1889 C 0.20567 0.78331 0.09268 0.0
C1890 C 0.20803 0.78849 0.11234 0.0
C1891 C 0.2265 0.79489 0.12122 0.0
H1892 H 0.19136 0.77837 0.08583 0.0
H1893 H 0.37146 0.83766 0.17098 0.0
H1894 H 0.01059 0.46502 0.08492 0.0
H1895 H 0.03123 0.47074 0.11458 0.0
H1896 H 0.06051 0.52266 0.09839 0.0
H1897 H 0.03967 0.51722 0.06894 0.0
H1898 H 0.08426 0.49221 0.10665 0.0
H1899 H 0.03564 0.52946 0.13263 0.0
H1900 H 0.00241 0.53416 0.14044 0.0
H1901 H 0.00053 0.48855 0.17415 0.0
H1902 H 0.03367 0.48338 0.1663 0.0
H1903 H 0.15183 0.52652 0.18242 0.0
H1904 H 0.1256 0.5237 0.15802 0.0
H1905 H 0.08955 0.48614 0.18837 0.0
H1906 H 0.11567 0.48988 0.21357 0.0
H1907 H 0.06776 0.50746 0.17326 0.0
H1908 H 0.11405 0.46875 0.14847 0.0
H1909 H 0.1462 0.46059 0.14028 0.0
H1910 H 0.15121 0.5037 0.10365 0.0
H1911 H 0.11919 0.5123 0.11182 0.0
C1912 C 0.0211 0.4779 0.08796 0.0
C1913 C 0.0235 0.49072 0.0747 0.0
C1914 C 0.03286 0.48115 0.10487 0.0
C1915 C 0.04739 0.49711 0.10864 0.0
C1916 C 0.04932 0.5103 0.09575 0.0
C1917 C 0.03734 0.50725 0.07902 0.0
C1918 C 0.06183 0.49898 0.12497 0.0
C1919 C 0.08076 0.49583 0.12122 0.0
C1920 C 0.05695 0.50275 0.14395 0.0
C1921 C 0.03706 0.50589 0.14871 0.0
C1922 C 0.02807 0.5203 0.14155 0.0
C1923 C 0.00927 0.52308 0.14602 0.0
C1924 C 0.99934 0.51162 0.15774 0.0
C1925 C 0.00822 0.4974 0.16505 0.0
C1926 C 0.02702 0.49455 0.16061 0.0
C1927 C 0.13831 0.51768 0.18394 0.0
C1928 C 0.1359 0.50818 0.19977 0.0
C1929 C 0.1233 0.51599 0.16991 0.0
C1930 C 0.10572 0.50421 0.17096 0.0
C1931 C 0.10301 0.49519 0.1871 0.0
C1932 C 0.11794 0.49728 0.20147 0.0
C1933 C 0.09049 0.50114 0.15498 0.0
C1934 C 0.07136 0.50387 0.15873 0.0
C1935 C 0.09503 0.49645 0.13591 0.0
C1936 C 0.11428 0.49128 0.13089 0.0
C1937 C 0.12206 0.47658 0.13877 0.0
C1938 C 0.14025 0.47186 0.13411 0.0
C1939 C 0.15076 0.48165 0.12149 0.0
C1940 C 0.14306 0.49614 0.11345 0.0
C1941 C 0.12488 0.50093 0.11807 0.0
H1942 H 0.16484 0.47798 0.11791 0.0
H1943 H 0.98478 0.5138 0.16119 0.0
H1944 H 0.36435 0.69082 0.25147 0.0
H1945 H 0.39011 0.69162 0.27628 0.0
H1946 H 0.39219 0.7533 0.28976 0.0
H1947 H 0.36693 0.75257 0.26464 0.0
H1948 H 0.42711 0.74508 0.2899 0.0
H1949 H 0.36887 0.72089 0.31677 0.0
H1950 H 0.33873 0.6987 0.31747 0.0
H1951 H 0.37135 0.65119 0.31691 0.0
H1952 H 0.40168 0.67307 0.31591 0.0
H1953 H 0.4551 0.73757 0.39442 0.0
H1954 H 0.43121 0.73203 0.36751 0.0
H1955 H 0.47656 0.72495 0.32933 0.0
H1956 H 0.50071 0.7313 0.35627 0.0
H1957 H 0.41856 0.70442 0.34061 0.0
H1958 H 0.46567 0.74151 0.28877 0.0
H1959 H 0.49383 0.76661 0.28949 0.0
H1960 H 0.47987 0.79379 0.34373 0.0
H1961 H 0.45151 0.76899 0.34321 0.0
C1962 C 0.37031 0.7045 0.2598 0.0
C1963 C 0.36369 0.72163 0.25619 0.0
C1964 C 0.38499 0.70496 0.27397 0.0
C1965 C 0.39298 0.72251 0.28503 0.0
C1966 C 0.38634 0.73961 0.28137 0.0
C1967 C 0.3719 0.73918 0.26705 0.0
C1968 C 0.40816 0.72321 0.30053 0.0
C1969 C 0.42526 0.73612 0.30095 0.0
C1970 C 0.40569 0.7117 0.31508 0.0
C1971 C 0.38752 0.69858 0.31608 0.0
C1972 C 0.3696 0.70569 0.31669 0.0
C1973 C 0.35249 0.69317 0.31714 0.0
C1974 C 0.35312 0.67353 0.31717 0.0
C1975 C 0.37088 0.66639 0.31684 0.0
C1976 C 0.38804 0.67885 0.31635 0.0
C1977 C 0.46002 0.73475 0.38031 0.0
C1978 C 0.47985 0.73507 0.37749 0.0
C1979 C 0.4463 0.7315 0.36491 0.0
C1980 C 0.45206 0.72833 0.34634 0.0
C1981 C 0.47178 0.72779 0.3435 0.0
C1982 C 0.48557 0.73136 0.35891 0.0
C1983 C 0.43744 0.72646 0.33009 0.0
C1984 C 0.42049 0.71326 0.32948 0.0
C1985 C 0.43975 0.73814 0.31567 0.0
C1986 C 0.45662 0.75327 0.31603 0.0
C1987 C 0.46859 0.75288 0.30081 0.0
C1988 C 0.48458 0.76705 0.3012 0.0
C1989 C 0.48868 0.78174 0.31668 0.0
C1990 C 0.47673 0.78236 0.33178 0.0
C1991 C 0.46071 0.76824 0.33146 0.0
H1992 H 0.50107 0.79268 0.31696 0.0
H1993 H 0.33985 0.66386 0.31749 0.0
H1994 H 0.00289 0.42723 0.03487 0.0
H1995 H 0.00808 0.39695 0.01596 0.0
H1996 H 0.02808 0.4278 0.97131 0.0
H1997 H 0.02261 0.45812 0.99008 0.0
H1998 H 0.00504 0.39629 0.9566 0.0
H1999 H 0.06001 0.41039 0.0009 0.0
H2000 H 0.07774 0.41918 0.03227 0.0
H2001 H 0.04938 0.36784 0.04983 0.0
H2002 H 0.03126 0.35888 0.01864 0.0
H2003 H 0.0404 0.31034 0.91076 0.0
H2004 H 0.03976 0.34357 0.92624 0.0
H2005 H 0.01078 0.32209 0.97226 0.0
H2006 H 0.01118 0.28918 0.95704 0.0
H2007 H 0.04229 0.35061 0.98424 0.0
H2008 H 0.98532 0.33872 0.94014 0.0
H2009 H 0.96823 0.33036 0.90844 0.0
H2010 H 0.00223 0.37827 0.88994 0.0
H2011 H 0.01971 0.38675 0.9215 0.0
C2012 C 0.0085 0.42756 0.02107 0.0
C2013 C 0.01238 0.44505 0.01399 0.0
C2014 C 0.01151 0.41026 0.01028 0.0
C2015 C 0.01877 0.4101 0.9923 0.0
C2016 C 0.02249 0.42754 0.98512 0.0
C2017 C 0.01932 0.44485 0.99585 0.0
C2018 C 0.02226 0.39169 0.98099 0.0
C2019 C 0.01349 0.38648 0.96253 0.0
C2020 C 0.0332 0.37878 0.98871 0.0
C2021 C 0.04417 0.38404 0.00746 0.0
C2022 C 0.05746 0.40104 0.01149 0.0
C2023 C 0.06759 0.40604 0.02924 0.0
C2024 C 0.06466 0.39409 0.04305 0.0
C2025 C 0.05163 0.37709 0.03912 0.0
C2026 C 0.04144 0.37203 0.0214 0.0
C2027 C 0.03387 0.31273 0.92416 0.0
C2028 C 0.0258 0.29706 0.93261 0.0
C2029 C 0.03349 0.3317 0.93295 0.0
C2030 C 0.02521 0.33525 0.95039 0.0
C2031 C 0.01728 0.31966 0.95884 0.0
C2032 C 0.01745 0.30082 0.95002 0.0
C2033 C 0.02471 0.35512 0.96011 0.0
C2034 C 0.03408 0.3606 0.97826 0.0
C2035 C 0.0145 0.36831 0.95203 0.0
C2036 C 0.00399 0.36322 0.93309 0.0
C2037 C 0.98928 0.34736 0.92926 0.0
C2038 C 0.9795 0.34262 0.91133 0.0
C2039 C 0.98419 0.35373 0.89716 0.0
C2040 C 0.99864 0.36964 0.90092 0.0
C2041 C 0.00849 0.37443 0.91882 0.0
H2042 H 0.97659 0.35005 0.88329 0.0
H2043 H 0.07252 0.398 0.05678 0.0
H2044 H 0.67325 0.82873 0.25417 0.0
H2045 H 0.64514 0.81634 0.27022 0.0
H2046 H 0.67557 0.77081 0.28542 0.0
H2047 H 0.70374 0.78327 0.26933 0.0
H2048 H 0.63499 0.7592 0.27643 0.0
H2049 H 0.67848 0.80971 0.31578 0.0
H2050 H 0.69747 0.84203 0.32333 0.0
H2051 H 0.64541 0.86796 0.31871 0.0
H2052 H 0.62614 0.83575 0.31085 0.0
H2053 H 0.59717 0.73831 0.36171 0.0
H2054 H 0.61643 0.74685 0.33601 0.0
H2055 H 0.58465 0.7945 0.33112 0.0
H2056 H 0.56531 0.78613 0.35719 0.0
H2057 H 0.62275 0.80555 0.33202 0.0
H2058 H 0.57857 0.7547 0.2968 0.0
H2059 H 0.55968 0.72235 0.28929 0.0
H2060 H 0.61226 0.69689 0.286 0.0
H2061 H 0.6315 0.72908 0.29376 0.0
C2062 C 0.67363 0.8157 0.26042 0.0
C2063 C 0.69043 0.80679 0.26049 0.0
C2064 C 0.65766 0.80871 0.26965 0.0
C2065 C 0.65836 0.79279 0.27918 0.0
C2066 C 0.67471 0.78308 0.27811 0.0
C2067 C 0.69075 0.79015 0.26892 0.0
C2068 C 0.64312 0.78767 0.292 0.0
C2069 C 0.63234 0.76924 0.28865 0.0
C2070 C 0.63938 0.80099 0.30768 0.0
C2071 C 0.65091 0.82035 0.31251 0.0
C2072 C 0.67111 0.82231 0.31622 0.0
C2073 C 0.68192 0.8406 0.32058 0.0
C2074 C 0.67266 0.85704 0.32144 0.0
C2075 C 0.65257 0.85521 0.318 0.0
C2076 C 0.64169 0.83694 0.3136 0.0
C2077 C 0.59412 0.75054 0.35513 0.0
C2078 C 0.57972 0.76159 0.36158 0.0
C2079 C 0.60508 0.75532 0.34029 0.0
C2080 C 0.60184 0.77117 0.33144 0.0
C2081 C 0.58733 0.78214 0.33768 0.0
C2082 C 0.57629 0.77734 0.35257 0.0
C2083 C 0.61459 0.77694 0.31662 0.0
C2084 C 0.62505 0.79553 0.31964 0.0
C2085 C 0.61798 0.76374 0.30066 0.0
C2086 C 0.60648 0.74432 0.29601 0.0
C2087 C 0.58612 0.7422 0.29463 0.0
C2088 C 0.57534 0.72389 0.2903 0.0
C2089 C 0.58476 0.70757 0.28721 0.0
C2090 C 0.60498 0.70954 0.28841 0.0
C2091 C 0.61583 0.72782 0.29275 0.0
H2092 H 0.57639 0.69341 0.28385 0.0
H2093 H 0.68105 0.8712 0.32483 0.0
H2094 H 0.02455 0.0835 0.01483 0.0
H2095 H 0.02645 0.10988 0.99597 0.0
H2096 H 0.04182 0.07177 0.94811 0.0
H2097 H 0.03997 0.0453 0.96712 0.0
H2098 H 0.06316 0.10876 0.95266 0.0
H2099 H 0.99668 0.08022 0.94927 0.0
H2100 H 0.96622 0.06806 0.96221 0.0
H2101 H 0.96338 0.12436 0.99267 0.0
H2102 H 0.99399 0.1368 0.98013 0.0
H2103 H 0.04637 0.17505 0.88961 0.0
H2104 H 0.04422 0.14525 0.9035 0.0
H2105 H 0.02235 0.17417 0.95359 0.0
H2106 H 0.02404 0.20372 0.93968 0.0
H2107 H 0.00363 0.13924 0.94493 0.0
H2108 H 0.07082 0.16734 0.9511 0.0
H2109 H 0.1018 0.1801 0.93946 0.0
H2110 H 0.10383 0.12554 0.90509 0.0
H2111 H 0.07271 0.11254 0.91635 0.0
C2112 C 0.02865 0.08091 0.00038 0.0
C2113 C 0.0322 0.06258 0.99233 0.0
C2114 C 0.02962 0.09589 0.9896 0.0
C2115 C 0.03401 0.0927 0.97056 0.0
C2116 C 0.03837 0.0745 0.96275 0.0
C2117 C 0.03734 0.05946 0.97357 0.0
C2118 C 0.03323 0.10818 0.95873 0.0
C2119 C 0.05008 0.11523 0.95067 0.0
C2120 C 0.01622 0.1168 0.95643 0.0
C2121 C 0.99771 0.1094 0.96387 0.0
C2122 C 0.98964 0.08997 0.95883 0.0
C2123 C 0.97233 0.08304 0.96608 0.0
C2124 C 0.96289 0.09542 0.97828 0.0
C2125 C 0.97071 0.11478 0.98323 0.0
C2126 C 0.98803 0.12179 0.97603 0.0
C2127 C 0.04086 0.17497 0.90348 0.0
C2128 C 0.03541 0.19177 0.91355 0.0
C2129 C 0.03976 0.15797 0.91145 0.0
C2130 C 0.03343 0.15755 0.92974 0.0
C2131 C 0.0273 0.17412 0.93948 0.0
C2132 C 0.02826 0.19104 0.93148 0.0
C2133 C 0.03369 0.14015 0.93912 0.0
C2134 C 0.0167 0.13269 0.94672 0.0
C2135 C 0.05062 0.13127 0.94112 0.0
C2136 C 0.06934 0.13905 0.93439 0.0
C2137 C 0.0778 0.15812 0.94095 0.0
C2138 C 0.09539 0.16538 0.93444 0.0
C2139 C 0.10474 0.15366 0.9215 0.0
C2140 C 0.09655 0.13462 0.91508 0.0
C2141 C 0.07894 0.12729 0.92153 0.0
H2142 H 0.11836 0.15931 0.91648 0.0
H2143 H 0.9495 0.09002 0.98388 0.0
H2144 H 0.3555 0.27297 0.29083 0.0
H2145 H 0.38254 0.27385 0.27068 0.0
H2146 H 0.3446 0.28196 0.22387 0.0
H2147 H 0.3171 0.27995 0.24375 0.0
H2148 H 0.36662 0.25669 0.21184 0.0
H2149 H 0.37915 0.31915 0.2482 0.0
H2150 H 0.38361 0.34356 0.2769 0.0
H2151 H 0.43245 0.31886 0.29672 0.0
H2152 H 0.42812 0.29413 0.26826 0.0
H2153 H 0.44577 0.28016 0.15573 0.0
H2154 H 0.41878 0.28475 0.17571 0.0
H2155 H 0.44782 0.26122 0.21982 0.0
H2156 H 0.47475 0.25616 0.19968 0.0
H2157 H 0.43012 0.29643 0.23204 0.0
H2158 H 0.41516 0.23268 0.19534 0.0
H2159 H 0.41042 0.20956 0.16571 0.0
H2160 H 0.3655 0.23917 0.14539 0.0
H2161 H 0.37019 0.26266 0.17482 0.0
C2162 C 0.3528 0.2748 0.27621 0.0
C2163 C 0.33399 0.27623 0.26893 0.0
C2164 C 0.36841 0.27559 0.26474 0.0
C2165 C 0.36576 0.27824 0.24575 0.0
C2166 C 0.34707 0.27997 0.23847 0.0
C2167 C 0.33137 0.279 0.24993 0.0
C2168 C 0.38237 0.27833 0.23338 0.0
C2169 C 0.38036 0.26568 0.21616 0.0
C2170 C 0.4005 0.28981 0.23901 0.0
C2171 C 0.4032 0.30468 0.25616 0.0
C2172 C 0.39075 0.31883 0.25875 0.0
C2173 C 0.39327 0.33274 0.27496 0.0
C2174 C 0.40828 0.33273 0.28865 0.0
C2175 C 0.42082 0.31884 0.28612 0.0
C2176 C 0.41835 0.30489 0.26993 0.0
C2177 C 0.44656 0.2762 0.16977 0.0
C2178 C 0.46246 0.26787 0.17623 0.0
C2179 C 0.43108 0.27877 0.18114 0.0
C2180 C 0.43129 0.27328 0.19922 0.0
C2181 C 0.44742 0.2656 0.20594 0.0
C2182 C 0.46276 0.26271 0.19444 0.0
C2183 C 0.41428 0.27473 0.21077 0.0
C2184 C 0.41627 0.28763 0.22777 0.0
C2185 C 0.39607 0.26371 0.20483 0.0
C2186 C 0.39319 0.24956 0.18718 0.0
C2187 C 0.40441 0.23438 0.18448 0.0
C2188 C 0.4017 0.22118 0.16774 0.0
C2189 C 0.38771 0.22293 0.15365 0.0
C2190 C 0.37636 0.23785 0.1563 0.0
C2191 C 0.37903 0.25111 0.17301 0.0
H2192 H 0.38563 0.21269 0.14071 0.0
H2193 H 0.41021 0.34352 0.30119 0.0
H2194 H 0.5743 0.43754 0.02503 0.0
H2195 H 0.57597 0.41202 0.0448 0.0
H2196 H 0.52036 0.42171 0.06523 0.0
H2197 H 0.51904 0.44745 0.04594 0.0
H2198 H 0.54261 0.41294 0.09292 0.0
H2199 H 0.52502 0.38645 0.02725 0.0
H2200 H 0.52965 0.38152 0.99304 0.0
H2201 H 0.58278 0.35901 0.00363 0.0
H2202 H 0.57858 0.36404 0.03794 0.0
H2203 H 0.50538 0.31968 0.11348 0.0
H2204 H 0.51229 0.3511 0.10295 0.0
H2205 H 0.56714 0.33651 0.08441 0.0
H2206 H 0.56017 0.30506 0.09448 0.0
H2207 H 0.54834 0.34871 0.05725 0.0
H2208 H 0.56362 0.37189 0.12317 0.0
H2209 H 0.55805 0.37631 0.15716 0.0
H2210 H 0.50857 0.40444 0.14628 0.0
H2211 H 0.51368 0.39996 0.11217 0.0
C2212 C 0.56274 0.43448 0.03416 0.0
C2213 C 0.54659 0.44437 0.03414 0.0
C2214 C 0.5636 0.41984 0.04532 0.0
C2215 C 0.54811 0.41469 0.05629 0.0
C2216 C 0.53248 0.42538 0.05695 0.0
C2217 C 0.53172 0.44006 0.04592 0.0
C2218 C 0.54728 0.39725 0.06583 0.0
C2219 C 0.54378 0.39887 0.08512 0.0
C2220 C 0.5491 0.3789 0.05577 0.0
C2221 C 0.5516 0.37582 0.03515 0.0
C2222 C 0.53776 0.38057 0.02228 0.0
C2223 C 0.54029 0.37775 0.00288 0.0
C2224 C 0.55653 0.37001 0.99617 0.0
C2225 C 0.57023 0.36504 0.00885 0.0
C2226 C 0.56778 0.36787 0.02827 0.0
C2227 C 0.51907 0.32331 0.10749 0.0
C2228 C 0.53213 0.30976 0.10469 0.0
C2229 C 0.52304 0.34133 0.10151 0.0
C2230 C 0.54028 0.34625 0.09288 0.0
C2231 C 0.5537 0.33306 0.09091 0.0
C2232 C 0.54968 0.31505 0.09672 0.0
C2233 C 0.54364 0.36432 0.0844 0.0
C2234 C 0.54747 0.36279 0.06521 0.0
C2235 C 0.54204 0.38268 0.09457 0.0
C2236 C 0.53895 0.38545 0.11508 0.0
C2237 C 0.55147 0.37889 0.128 0.0
C2238 C 0.5484 0.38143 0.1473 0.0
C2239 C 0.53294 0.39061 0.15387 0.0
C2240 C 0.52053 0.39731 0.14117 0.0
C2241 C 0.52352 0.3948 0.12185 0.0
H2242 H 0.53059 0.39255 0.16882 0.0
H2243 H 0.55846 0.36783 0.98114 0.0
H2244 H 0.68486 0.22101 0.2401 0.0
H2245 H 0.65846 0.23483 0.22557 0.0
H2246 H 0.61808 0.20673 0.25997 0.0
H2247 H 0.6446 0.19258 0.27423 0.0
H2248 H 0.60444 0.19986 0.22473 0.0
H2249 H 0.62951 0.25652 0.26637 0.0
H2250 H 0.65413 0.28225 0.28317 0.0
H2251 H 0.6684 0.30065 0.23038 0.0
H2252 H 0.64408 0.27483 0.21321 0.0
H2253 H 0.53077 0.24188 0.17804 0.0
H2254 H 0.55229 0.23693 0.20464 0.0
H2255 H 0.60201 0.25139 0.17351 0.0
H2256 H 0.58074 0.25611 0.14693 0.0
H2257 H 0.60697 0.26735 0.21264 0.0
H2258 H 0.5854 0.20615 0.17181 0.0
H2259 H 0.56043 0.18033 0.15568 0.0
H2260 H 0.53872 0.1712 0.20919 0.0
H2261 H 0.56342 0.19718 0.22561 0.0
C2262 C 0.6704 0.21819 0.24483 0.0
C2263 C 0.66664 0.20595 0.25831 0.0
C2264 C 0.65532 0.22613 0.23659 0.0
C2265 C 0.63624 0.22202 0.24179 0.0
C2266 C 0.63265 0.21018 0.25576 0.0
C2267 C 0.64777 0.2022 0.26397 0.0
C2268 C 0.61996 0.22862 0.23133 0.0
C2269 C 0.60478 0.21473 0.22253 0.0
C2270 C 0.62038 0.24799 0.22824 0.0
C2271 C 0.63502 0.26363 0.23848 0.0
C2272 C 0.63799 0.26596 0.25832 0.0
C2273 C 0.65188 0.28058 0.26791 0.0
C2274 C 0.66284 0.29306 0.25785 0.0
C2275 C 0.6599 0.29096 0.23816 0.0
C2276 C 0.64603 0.27635 0.22849 0.0
C2277 C 0.5463 0.24428 0.17701 0.0
C2278 C 0.55405 0.24921 0.16031 0.0
C2279 C 0.55856 0.24142 0.19219 0.0
C2280 C 0.57875 0.24371 0.191 0.0
C2281 C 0.5865 0.24959 0.17475 0.0
C2282 C 0.57429 0.25215 0.15951 0.0
C2283 C 0.59189 0.2385 0.20584 0.0
C2284 C 0.60647 0.25262 0.21534 0.0
C2285 C 0.59083 0.2194 0.20976 0.0
C2286 C 0.57607 0.20375 0.1999 0.0
C2287 C 0.57519 0.19875 0.18011 0.0
C2288 C 0.56111 0.18407 0.17092 0.0
C2289 C 0.54795 0.17418 0.1814 0.0
C2290 C 0.54889 0.17891 0.20109 0.0
C2291 C 0.56292 0.1936 0.21035 0.0
H2292 H 0.53707 0.16281 0.17426 0.0
H2293 H 0.67359 0.30437 0.2653 0.0
H2294 H 0.4887 0.06964 0.9812 0.0
H2295 H 0.4971 0.10123 0.00106 0.0
H2296 H 0.47681 0.0769 0.04948 0.0
H2297 H 0.46897 0.04537 0.03005 0.0
H2298 H 0.46057 0.10972 0.04357 0.0
H2299 H 0.52355 0.08861 0.04696 0.0
H2300 H 0.55245 0.07677 0.03365 0.0
H2301 H 0.5636 0.12719 0.00688 0.0
H2302 H 0.53459 0.13921 0.01983 0.0
H2303 H 0.48569 0.18697 0.117 0.0
H2304 H 0.48442 0.15534 0.09772 0.0
H2305 H 0.51341 0.18176 0.05427 0.0
H2306 H 0.51529 0.21336 0.07377 0.0
H2307 H 0.52561 0.1484 0.05628 0.0
H2308 H 0.46354 0.16972 0.05156 0.0
H2309 H 0.43419 0.18208 0.06321 0.0
H2310 H 0.42049 0.13202 0.09 0.0
H2311 H 0.44993 0.11947 0.07873 0.0
C2312 C 0.48635 0.07095 0.99615 0.0
C2313 C 0.47786 0.055 0.00394 0.0
C2314 C 0.49111 0.08902 0.00746 0.0
C2315 C 0.48746 0.09142 0.02673 0.0
C2316 C 0.47957 0.07542 0.03462 0.0
C2317 C 0.47498 0.05741 0.02342 0.0
C2318 C 0.49081 0.11072 0.03859 0.0
C2319 C 0.47483 0.11808 0.04655 0.0
C2320 C 0.5093 0.12189 0.04193 0.0
C2321 C 0.52677 0.11471 0.03419 0.0
C2322 C 0.53206 0.09709 0.03809 0.0
C2323 C 0.54849 0.09036 0.03064 0.0
C2324 C 0.55982 0.10119 0.01938 0.0
C2325 C 0.55479 0.1188 0.01558 0.0
C2326 C 0.53836 0.12559 0.02299 0.0
C2327 C 0.49203 0.18602 0.10345 0.0
C2328 C 0.50044 0.2027 0.09686 0.0
C2329 C 0.4912 0.16793 0.09238 0.0
C2330 C 0.4984 0.16618 0.07431 0.0
C2331 C 0.50766 0.18271 0.0681 0.0
C2332 C 0.50871 0.20079 0.07927 0.0
C2333 C 0.49538 0.1473 0.06156 0.0
C2334 C 0.51135 0.14006 0.05333 0.0
C2335 C 0.47679 0.1363 0.05771 0.0
C2336 C 0.45904 0.14375 0.06445 0.0
C2337 C 0.45434 0.16141 0.06005 0.0
C2338 C 0.43768 0.16844 0.06657 0.0
C2339 C 0.42551 0.15786 0.07738 0.0
C2340 C 0.42995 0.14021 0.08165 0.0
C2341 C 0.44661 0.13312 0.07519 0.0
H2342 H 0.41262 0.16333 0.08241 0.0
H2343 H 0.57254 0.09596 0.01362 0.0
H2344 H 0.2672 0.38231 0.72754 0.0
H2345 H 0.29253 0.40996 0.73145 0.0
H2346 H 0.33495 0.37218 0.71631 0.0
H2347 H 0.30986 0.3443 0.71347 0.0
H2348 H 0.34862 0.39743 0.74567 0.0
H2349 H 0.31729 0.40132 0.68537 0.0
H2350 H 0.2897 0.40265 0.66289 0.0
H2351 H 0.27772 0.45484 0.69597 0.0
H2352 H 0.3051 0.45369 0.71879 0.0
H2353 H 0.4246 0.46897 0.73205 0.0
H2354 H 0.3985 0.442 0.72628 0.0
H2355 H 0.35769 0.47978 0.74638 0.0
H2356 H 0.38374 0.50703 0.75205 0.0
H2357 H 0.34314 0.4549 0.71449 0.0
H2358 H 0.37461 0.45071 0.77473 0.0
H2359 H 0.40243 0.44934 0.79693 0.0
H2360 H 0.41432 0.39739 0.76336 0.0
H2361 H 0.38673 0.3986 0.74081 0.0
C2362 C 0.28194 0.37982 0.72518 0.0
C2363 C 0.28645 0.36101 0.72023 0.0
C2364 C 0.29639 0.39571 0.72718 0.0
C2365 C 0.31564 0.39322 0.72393 0.0
C2366 C 0.32019 0.37449 0.71883 0.0
C2367 C 0.30577 0.35856 0.71702 0.0
C2368 C 0.33114 0.41006 0.72645 0.0
C2369 C 0.34753 0.40985 0.7386 0.0
C2370 C 0.32954 0.42654 0.71764 0.0
C2371 C 0.31315 0.42732 0.70387 0.0
C2372 C 0.3087 0.41301 0.68792 0.0
C2373 C 0.2931 0.41374 0.6751 0.0
C2374 C 0.28194 0.42879 0.67802 0.0
C2375 C 0.28637 0.44318 0.69373 0.0
C2376 C 0.30194 0.44251 0.7066 0.0
C2377 C 0.41008 0.47164 0.73521 0.0
C2378 C 0.40633 0.49021 0.74265 0.0
C2379 C 0.39517 0.45615 0.73194 0.0
C2380 C 0.3762 0.45882 0.73615 0.0
C2381 C 0.37225 0.47739 0.74309 0.0
C2382 C 0.38718 0.49294 0.74636 0.0
C2383 C 0.36059 0.44214 0.73357 0.0
C2384 C 0.3442 0.44242 0.72148 0.0
C2385 C 0.36219 0.42569 0.74237 0.0
C2386 C 0.37871 0.42485 0.75599 0.0
C2387 C 0.38325 0.43907 0.77201 0.0
C2388 C 0.39896 0.43831 0.78467 0.0
C2389 C 0.41017 0.42331 0.78153 0.0
C2390 C 0.40565 0.40901 0.76576 0.0
C2391 C 0.38996 0.40972 0.75305 0.0
H2392 H 0.42233 0.42275 0.79135 0.0
H2393 H 0.26987 0.42933 0.66809 0.0
H2394 H 0.28417 0.69906 0.8066 0.0
H2395 H 0.31156 0.68075 0.80691 0.0
H2396 H 0.27376 0.62873 0.78363 0.0
H2397 H 0.24615 0.64684 0.78389 0.0
H2398 H 0.299 0.62203 0.81104 0.0
H2399 H 0.30274 0.65282 0.75554 0.0
H2400 H 0.30395 0.68018 0.73766 0.0
H2401 H 0.35629 0.70717 0.77002 0.0
H2402 H 0.35525 0.68008 0.78827 0.0
H2403 H 0.37252 0.56646 0.77703 0.0
H2404 H 0.34424 0.5834 0.78137 0.0
H2405 H 0.38175 0.63607 0.80319 0.0
H2406 H 0.41002 0.61935 0.79861 0.0
H2407 H 0.35638 0.64223 0.77687 0.0
H2408 H 0.35308 0.611 0.832 0.0
H2409 H 0.35179 0.58362 0.84985 0.0
H2410 H 0.2988 0.5573 0.81823 0.0
H2411 H 0.29991 0.58442 0.80001 0.0
C2412 C 0.28161 0.68368 0.80177 0.0
C2413 C 0.26294 0.67445 0.79512 0.0
C2414 C 0.29733 0.67325 0.8018 0.0
C2415 C 0.29478 0.65339 0.79506 0.0
C2416 C 0.2761 0.64405 0.78883 0.0
C2417 C 0.26036 0.65446 0.78881 0.0
C2418 C 0.31165 0.64248 0.79409 0.0
C2419 C 0.31146 0.6263 0.80339 0.0
C2420 C 0.32809 0.64825 0.78442 0.0
C2421 C 0.3288 0.66451 0.77339 0.0
C2422 C 0.31443 0.66466 0.75893 0.0
C2423 C 0.3151 0.6801 0.74872 0.0
C2424 C 0.33016 0.69543 0.75274 0.0
C2425 C 0.34462 0.6953 0.76694 0.0
C2426 C 0.344 0.6799 0.77722 0.0
C2427 C 0.37474 0.58158 0.783 0.0
C2428 C 0.39356 0.59156 0.78739 0.0
C2429 C 0.35853 0.59125 0.78553 0.0
C2430 C 0.36083 0.61103 0.79267 0.0
C2431 C 0.37959 0.62084 0.79759 0.0
C2432 C 0.39576 0.61122 0.79501 0.0
C2433 C 0.34385 0.62181 0.79395 0.0
C2434 C 0.34398 0.63796 0.78461 0.0
C2435 C 0.32739 0.61598 0.80358 0.0
C2436 C 0.32669 0.59965 0.81451 0.0
C2437 C 0.34124 0.59929 0.82874 0.0
C2438 C 0.34052 0.58384 0.83895 0.0
C2439 C 0.32525 0.5687 0.83514 0.0
C2440 C 0.31064 0.56902 0.82115 0.0
C2441 C 0.31129 0.58444 0.81089 0.0
H2442 H 0.32472 0.55675 0.84306 0.0
H2443 H 0.33065 0.70737 0.74481 0.0
H2444 H 0.91837 0.5221 0.48591 0.0
H2445 H 0.88909 0.50266 0.49381 0.0
H2446 H 0.91668 0.45143 0.48257 0.0
H2447 H 0.94578 0.47071 0.4745 0.0
H2448 H 0.88122 0.44503 0.46663 0.0
H2449 H 0.91106 0.47404 0.52828 0.0
H2450 H 0.92451 0.50112 0.553 0.0
H2451 H 0.86989 0.52297 0.55268 0.0
H2452 H 0.85618 0.49614 0.52776 0.0
H2453 H 0.83204 0.37627 0.51305 0.0
H2454 H 0.85583 0.40182 0.50576 0.0
H2455 H 0.81363 0.44136 0.51099 0.0
H2456 H 0.78934 0.41562 0.51835 0.0
H2457 H 0.85223 0.45686 0.52841 0.0
H2458 H 0.8217 0.42503 0.46887 0.0
H2459 H 0.80876 0.39695 0.44508 0.0
H2460 H 0.86546 0.37974 0.44207 0.0
H2461 H 0.8787 0.40756 0.46607 0.0
C2462 C 0.9182 0.5067 0.48527 0.0
C2463 C 0.93435 0.49792 0.47954 0.0
C2464 C 0.90147 0.49561 0.48979 0.0
C2465 C 0.9007 0.47558 0.48891 0.0
C2466 C 0.91686 0.46684 0.48326 0.0
C2467 C 0.93349 0.47787 0.47862 0.0
C2468 C 0.88306 0.46348 0.49354 0.0
C2469 C 0.87498 0.4476 0.48019 0.0
C2470 C 0.87446 0.46714 0.51099 0.0
C2471 C 0.88267 0.48322 0.526 0.0
C2472 C 0.90197 0.48471 0.53337 0.0
C2473 C 0.90963 0.5 0.54744 0.0
C2474 C 0.89808 0.5138 0.55436 0.0
C2475 C 0.87883 0.5123 0.54727 0.0
C2476 C 0.8711 0.49705 0.53319 0.0
C2477 C 0.82769 0.39038 0.51278 0.0
C2478 C 0.80864 0.39379 0.51614 0.0
C2479 C 0.84138 0.40499 0.50858 0.0
C2480 C 0.83643 0.42339 0.50761 0.0
C2481 C 0.81768 0.4272 0.51162 0.0
C2482 C 0.80383 0.41246 0.51577 0.0
C2483 C 0.8509 0.4382 0.5017 0.0
C2484 C 0.85832 0.45455 0.51475 0.0
C2485 C 0.85902 0.43495 0.48401 0.0
C2486 C 0.85117 0.41833 0.46936 0.0
C2487 C 0.83139 0.41519 0.46323 0.0
C2488 C 0.824 0.39933 0.44969 0.0
C2489 C 0.83627 0.38655 0.44209 0.0
C2490 C 0.85597 0.38965 0.44797 0.0
C2491 C 0.86343 0.40548 0.46153 0.0
H2492 H 0.83053 0.37427 0.43161 0.0
H2493 H 0.90404 0.52562 0.56525 0.0
H2494 H 0.75582 0.81984 0.81007 0.0
H2495 H 0.74164 0.84876 0.80481 0.0
H2496 H 0.74334 0.83269 0.74449 0.0
H2497 H 0.75764 0.8037 0.74983 0.0
H2498 H 0.75475 0.87173 0.75635 0.0
H2499 H 0.70161 0.82399 0.76462 0.0
H2500 H 0.6837 0.79971 0.78103 0.0
H2501 H 0.68134 0.84273 0.82939 0.0
H2502 H 0.69948 0.86723 0.81335 0.0
H2503 H 0.69602 0.93844 0.73077 0.0
H2504 H 0.70739 0.90775 0.73383 0.0
H2505 H 0.69936 0.91698 0.79368 0.0
H2506 H 0.68701 0.94731 0.79045 0.0
H2507 H 0.69084 0.88061 0.78112 0.0
H2508 H 0.74488 0.92797 0.77438 0.0
H2509 H 0.76352 0.95271 0.75904 0.0
H2510 H 0.76531 0.9112 0.70934 0.0
H2511 H 0.74646 0.88626 0.72431 0.0
C2512 C 0.75342 0.8227 0.79572 0.0
C2513 C 0.75785 0.80979 0.78033 0.0
C2514 C 0.7452 0.8391 0.79272 0.0
C2515 C 0.74116 0.84274 0.77424 0.0
C2516 C 0.74627 0.83012 0.75885 0.0
C2517 C 0.75446 0.81365 0.76187 0.0
C2518 C 0.73125 0.85949 0.77107 0.0
C2519 C 0.74065 0.87355 0.76151 0.0
C2520 C 0.71306 0.86209 0.77823 0.0
C2521 C 0.70205 0.8474 0.78785 0.0
C2522 C 0.6974 0.82824 0.77881 0.0
C2523 C 0.68718 0.81445 0.78803 0.0
C2524 C 0.68142 0.81966 0.80626 0.0
C2525 C 0.68583 0.8387 0.81528 0.0
C2526 C 0.69606 0.85256 0.80612 0.0
C2527 C 0.69637 0.93375 0.74453 0.0
C2528 C 0.69077 0.94533 0.76041 0.0
C2529 C 0.70304 0.91628 0.7463 0.0
C2530 C 0.70487 0.91029 0.7641 0.0
C2531 C 0.69826 0.92133 0.77981 0.0
C2532 C 0.69115 0.93865 0.77796 0.0
C2533 C 0.71437 0.893 0.76646 0.0
C2534 C 0.70491 0.87882 0.77589 0.0
C2535 C 0.73262 0.89038 0.75935 0.0
C2536 C 0.74411 0.90531 0.7504 0.0
C2537 C 0.74915 0.92415 0.76014 0.0
C2538 C 0.75977 0.93821 0.75151 0.0
C2539 C 0.76555 0.93354 0.73321 0.0
C2540 C 0.7608 0.9148 0.72351 0.0
C2541 C 0.75017 0.9007 0.73206 0.0
H2542 H 0.77376 0.94445 0.72655 0.0
H2543 H 0.67352 0.80896 0.81338 0.0
H2544 H 0.60857 0.49913 0.97037 0.0
H2545 H 0.6395 0.52043 0.97759 0.0
H2546 H 0.6187 0.5461 0.02968 0.0
H2547 H 0.58791 0.52446 0.02271 0.0
H2548 H 0.63152 0.57185 0.00205 0.0
H2549 H 0.65262 0.52223 0.03478 0.0
H2550 H 0.65854 0.48908 0.03729 0.0
H2551 H 0.69704 0.49048 0.99244 0.0
H2552 H 0.69112 0.52356 0.98947 0.0
H2553 H 0.71121 0.64041 0.03448 0.0
H2554 H 0.68494 0.61382 0.03258 0.0
H2555 H 0.71579 0.57857 0.99358 0.0
H2556 H 0.74283 0.60498 0.99651 0.0
H2557 H 0.69799 0.55653 0.01429 0.0
H2558 H 0.67717 0.6031 0.97898 0.0
H2559 H 0.67094 0.63516 0.97261 0.0
H2560 H 0.63148 0.63825 0.01671 0.0
H2561 H 0.63767 0.6063 0.02352 0.0
C2562 C 0.61085 0.50897 0.98359 0.0
C2563 C 0.59596 0.51015 0.99605 0.0
C2564 C 0.62848 0.5211 0.9877 0.0
C2565 C 0.63136 0.53481 0.00416 0.0
C2566 C 0.61676 0.53553 0.01695 0.0
C2567 C 0.59926 0.52314 0.01302 0.0
C2568 C 0.64868 0.54968 0.00697 0.0
C2569 C 0.64604 0.56861 0.00507 0.0
C2570 C 0.66765 0.54517 0.00995 0.0
C2571 C 0.67127 0.52531 0.01178 0.0
C2572 C 0.6622 0.51541 0.02533 0.0
C2573 C 0.66559 0.49664 0.02687 0.0
C2574 C 0.67812 0.48766 0.015 0.0
C2575 C 0.68732 0.49745 0.00161 0.0
C2576 C 0.68397 0.51622 0.0 0.0
C2577 C 0.71244 0.62694 0.02559 0.0
C2578 C 0.72892 0.62481 0.01545 0.0
C2579 C 0.69735 0.61176 0.02441 0.0
C2580 C 0.69799 0.59431 0.01245 0.0
C2581 C 0.71481 0.5919 0.0028 0.0
C2582 C 0.73024 0.60699 0.00443 0.0
C2583 C 0.68088 0.57895 0.00969 0.0
C2584 C 0.68351 0.55989 0.01139 0.0
C2585 C 0.66185 0.58318 0.00595 0.0
C2586 C 0.65803 0.60238 0.00187 0.0
C2587 C 0.66726 0.61067 0.9874 0.0
C2588 C 0.66373 0.62881 0.9837 0.0
C2589 C 0.65086 0.63875 0.99428 0.0
C2590 C 0.64146 0.63054 0.00855 0.0
C2591 C 0.64497 0.61241 0.01232 0.0
H2592 H 0.64814 0.6528 0.99139 0.0
H2593 H 0.68072 0.47313 0.01622 0.0
H2594 H 0.28688 0.71028 0.24823 0.0
H2595 H 0.26035 0.68455 0.25033 0.0
H2596 H 0.28108 0.64905 0.20352 0.0
H2597 H 0.30718 0.67515 0.20103 0.0
H2598 H 0.2428 0.64256 0.2019 0.0
H2599 H 0.29417 0.64558 0.24965 0.0
H2600 H 0.31736 0.66101 0.27631 0.0
H2601 H 0.27024 0.67275 0.31051 0.0
H2602 H 0.24676 0.65767 0.28395 0.0
H2603 H 0.21343 0.54944 0.22677 0.0
H2604 H 0.23142 0.57924 0.21999 0.0
H2605 H 0.19926 0.61219 0.25952 0.0
H2606 H 0.18075 0.58234 0.2661 0.0
H2607 H 0.241 0.62107 0.26487 0.0
H2608 H 0.18975 0.61417 0.2159 0.0
H2609 H 0.16836 0.59664 0.18877 0.0
H2610 H 0.21772 0.58946 0.15634 0.0
H2611 H 0.23945 0.60669 0.1834 0.0
C2612 C 0.28537 0.69715 0.2381 0.0
C2613 C 0.29887 0.69457 0.22443 0.0
C2614 C 0.27035 0.68243 0.23938 0.0
C2615 C 0.26896 0.6647 0.22734 0.0
C2616 C 0.28187 0.66257 0.21297 0.0
C2617 C 0.29674 0.67743 0.21153 0.0
C2618 C 0.25513 0.64794 0.2307 0.0
C2619 C 0.24249 0.63781 0.21564 0.0
C2620 C 0.25461 0.64177 0.24867 0.0
C2621 C 0.2687 0.65068 0.26474 0.0
C2622 C 0.28876 0.65157 0.26281 0.0
C2623 C 0.30195 0.66025 0.27791 0.0
C2624 C 0.29527 0.6679 0.29507 0.0
C2625 C 0.27539 0.66685 0.29719 0.0
C2626 C 0.26213 0.65824 0.28213 0.0
C2627 C 0.20989 0.56296 0.23381 0.0
C2628 C 0.19555 0.56345 0.24692 0.0
C2629 C 0.22022 0.58001 0.22991 0.0
C2630 C 0.2166 0.59789 0.2392 0.0
C2631 C 0.2022 0.59851 0.25216 0.0
C2632 C 0.19162 0.58144 0.25585 0.0
C2633 C 0.22868 0.6158 0.23612 0.0
C2634 C 0.24112 0.62603 0.25122 0.0
C2635 C 0.22929 0.62178 0.21812 0.0
C2636 C 0.21624 0.61159 0.20175 0.0
C2637 C 0.19606 0.60872 0.20304 0.0
C2638 C 0.18387 0.59886 0.18766 0.0
C2639 C 0.19168 0.5919 0.17085 0.0
C2640 C 0.21169 0.59484 0.16938 0.0
C2641 C 0.22395 0.60467 0.18473 0.0
H2642 H 0.18222 0.58427 0.15897 0.0
H2643 H 0.3055 0.67461 0.30674 0.0
H2644 H 0.9381 0.50712 0.02939 0.0
H2645 H 0.9113 0.52651 0.02992 0.0
H2646 H 0.95209 0.57758 0.0291 0.0
H2647 H 0.97885 0.55819 0.02882 0.0
H2648 H 0.92371 0.58525 0.0521 0.0
H2649 H 0.92759 0.55314 0.98853 0.0
H2650 H 0.92808 0.52507 0.96386 0.0
H2651 H 0.87142 0.50131 0.97681 0.0
H2652 H 0.87071 0.52914 0.00174 0.0
H2653 H 0.86631 0.64771 0.01581 0.0
H2654 H 0.89008 0.62586 0.01933 0.0
H2655 H 0.84408 0.57914 0.01997 0.0
H2656 H 0.82001 0.60099 0.01621 0.0
H2657 H 0.87314 0.56766 0.99892 0.0
H2658 H 0.86837 0.60135 0.06099 0.0
H2659 H 0.86799 0.6298 0.08521 0.0
H2660 H 0.92638 0.65087 0.07493 0.0
H2661 H 0.92702 0.62267 0.05044 0.0
C2662 C 0.94129 0.52257 0.02979 0.0
C2663 C 0.9604 0.5313 0.02924 0.0
C2664 C 0.926 0.53359 0.02992 0.0
C2665 C 0.92964 0.55347 0.02925 0.0
C2666 C 0.94891 0.56229 0.0296 0.0
C2667 C 0.96418 0.55125 0.0295 0.0
C2668 C 0.91342 0.56494 0.02718 0.0
C2669 C 0.91275 0.58148 0.0404 0.0
C2670 C 0.89881 0.5598 0.01215 0.0
C2671 C 0.89919 0.5431 0.99714 0.0
C2672 C 0.9153 0.54185 0.98622 0.0
C2673 C 0.91561 0.526 0.97217 0.0
C2674 C 0.89982 0.51139 0.96881 0.0
C2675 C 0.88366 0.51262 0.97945 0.0
C2676 C 0.88329 0.52843 0.99354 0.0
C2677 C 0.86117 0.63277 0.01657 0.0
C2678 C 0.84122 0.62615 0.01587 0.0
C2679 C 0.87482 0.6203 0.01869 0.0
C2680 C 0.86889 0.60094 0.02032 0.0
C2681 C 0.84899 0.59406 0.01889 0.0
C2682 C 0.83526 0.60656 0.01672 0.0
C2683 C 0.88358 0.5881 0.02372 0.0
C2684 C 0.88398 0.57132 0.01075 0.0
C2685 C 0.89796 0.59304 0.03896 0.0
C2686 C 0.89769 0.60996 0.05377 0.0
C2687 C 0.88109 0.61211 0.0638 0.0
C2688 C 0.88083 0.62819 0.07759 0.0
C2689 C 0.89714 0.64216 0.08158 0.0
C2690 C 0.91375 0.64005 0.07181 0.0
C2691 C 0.91408 0.62401 0.05799 0.0
H2692 H 0.89691 0.65459 0.09226 0.0
H2693 H 0.90008 0.49913 0.95793 0.0
H2694 H 0.06823 0.98907 0.00842 0.0
H2695 H 0.0967 0.97271 0.00328 0.0
H2696 H 0.12289 0.0011 0.05763 0.0
H2697 H 0.09464 0.01799 0.06265 0.0
H2698 H 0.14945 0.9994 0.03075 0.0
H2699 H 0.10022 0.95574 0.05299 0.0
H2700 H 0.06765 0.93742 0.05263 0.0
H2701 H 0.074 0.90797 0.99698 0.0
H2702 H 0.10653 0.92633 0.99691 0.0
H2703 H 0.2159 0.93558 0.0503 0.0
H2704 H 0.1908 0.95647 0.04953 0.0
H2705 H 0.1658 0.92321 0.99669 0.0
H2706 H 0.1907 0.9019 0.99758 0.0
H2707 H 0.13881 0.92794 0.02063 0.0
H2708 H 0.18947 0.9701 0.99949 0.0
H2709 H 0.2221 0.98841 0.00031 0.0
H2710 H 0.21342 0.02061 0.05407 0.0
H2711 H 0.18083 0.00231 0.0537 0.0
C2712 C 0.08019 0.99214 0.01914 0.0
C2713 C 0.07911 0.00479 0.03599 0.0
C2714 C 0.09639 0.98263 0.01624 0.0
C2715 C 0.11182 0.98548 0.03018 0.0
C2716 C 0.11112 0.99863 0.04671 0.0
C2717 C 0.0949 0.00815 0.04963 0.0
C2718 C 0.12824 0.97408 0.0279 0.0
C2719 C 0.14717 0.98378 0.02869 0.0
C2720 C 0.12522 0.95369 0.0248 0.0
C2721 C 0.10572 0.94256 0.02486 0.0
C2722 C 0.09461 0.94546 0.04062 0.0
C2723 C 0.07617 0.93506 0.0405 0.0
C2724 C 0.06874 0.92158 0.02477 0.0
C2725 C 0.07976 0.91844 0.00914 0.0
C2726 C 0.09821 0.92884 0.00918 0.0
C2727 C 0.20526 0.93284 0.03835 0.0
C2728 C 0.20529 0.91698 0.02404 0.0
C2729 C 0.19093 0.9449 0.03788 0.0
C2730 C 0.17645 0.94154 0.02298 0.0
C2731 C 0.17682 0.9261 0.00834 0.0
C2732 C 0.19111 0.91396 0.00883 0.0
C2733 C 0.16014 0.95322 0.02347 0.0
C2734 C 0.14116 0.94356 0.02244 0.0
C2735 C 0.16316 0.97363 0.02639 0.0
C2736 C 0.18275 0.98471 0.02663 0.0
C2737 C 0.19457 0.98099 0.01156 0.0
C2738 C 0.21305 0.99138 0.01193 0.0
C2739 C 0.21985 0.00564 0.02725 0.0
C2740 C 0.20815 0.00956 0.04221 0.0
C2741 C 0.18965 0.99919 0.04192 0.0
H2742 H 0.23416 0.01367 0.02751 0.0
H2743 H 0.05446 0.91353 0.02471 0.0
loop_
_geom_bond_atom_site_label_1
_geom_bond_atom_site_label_2
_geom_bond_distance
_geom_bond_site_symmetry_2
_ccdc_geom_bond_type
H0 C3 0.929 . S
H1 C6 0.929 . S
H2 C8 0.930 . S
C3 H0 0.929 . S
C3 C4 1.398 . S
C3 C5 1.396 . S
C4 C3 1.398 . S
C4 C8 1.407 . S
C5 C3 1.396 . S
C5 C6 1.394 . S
C6 H1 0.929 . S
C6 C5 1.394 . S
C6 C7 1.382 . S
C7 C6 1.382 . S
C7 C8 1.392 . S
C7 N9 1.420 . S
C8 H2 0.930 . S
C8 C4 1.407 . S
C8 C7 1.392 . S
N9 C7 1.420 . S
N9 C10 1.244 . S
C10 N9 1.244 . S
H11 C14 0.929 . S
H12 C17 0.929 . S
H13 C19 0.930 . S
C14 H11 0.929 . S
C14 C15 1.398 . S
C14 C16 1.396 . S
C15 C14 1.398 . S
C15 C19 1.407 . S
C16 C14 1.396 . S
C16 C17 1.394 . S
C17 H12 0.929 . S
C17 C16 1.394 . S
C17 C18 1.382 . S
C18 C17 1.382 . S
C18 C19 1.392 . S
C18 N20 1.420 . S
C19 H13 0.930 . S
C19 C15 1.407 . S
C19 C18 1.392 . S
N20 C18 1.420 . S
N20 C21 1.244 . S
C21 N20 1.244 . S
H22 C25 0.929 . S
H23 C28 0.929 . S
H24 C30 0.930 . S
C25 H22 0.929 . S
C25 C26 1.398 1_455 S
C25 C27 1.396 . S
C26 C25 1.398 1_655 S
C26 C30 1.407 . S
C27 C25 1.396 . S
C27 C28 1.394 1_455 S
C28 H23 0.929 . S
C28 C27 1.394 1_655 S
C28 C29 1.382 . S
C29 C28 1.382 . S
C29 C30 1.392 . S
C29 N31 1.420 . S
C30 H24 0.930 . S
C30 C26 1.407 . S
C30 C29 1.392 . S
N31 C29 1.420 . S
N31 C32 1.244 . S
C32 N31 1.244 . S
H33 C36 0.929 . S
H34 C39 0.929 . S
H35 C41 0.930 . S
C36 H33 0.929 . S
C36 C37 1.398 . S
C36 C38 1.396 . S
C37 C36 1.398 . S
C37 C41 1.407 . S
C38 C36 1.396 . S
C38 C39 1.394 . S
C39 H34 0.929 . S
C39 C38 1.394 . S
C39 C40 1.382 . S
C40 C39 1.382 . S
C40 C41 1.392 . S
C40 N42 1.420 . S
C41 H35 0.930 . S
C41 C37 1.407 . S
C41 C40 1.392 . S
N42 C40 1.420 . S
N42 C43 1.244 . S
C43 N42 1.244 . S
H44 C47 0.933 . S
H45 C50 0.929 . S
H46 C52 0.930 . S
C47 H44 0.933 . S
C47 C48 1.398 . S
C47 C49 1.396 . S
C48 C47 1.398 . S
C48 C52 1.407 . S
C49 C47 1.396 . S
C49 C50 1.394 . S
C50 H45 0.929 . S
C50 C49 1.394 . S
C50 C51 1.382 . S
C51 C50 1.382 . S
C51 C52 1.392 . S
C51 N53 1.420 . S
C52 H46 0.930 . S
C52 C48 1.407 . S
C52 C51 1.392 . S
N53 C51 1.420 . S
N53 C54 1.244 . S
C54 N53 1.244 . S
H55 C58 0.929 . S
H56 C61 0.929 . S
H57 C63 0.930 . S
C58 H55 0.929 . S
C58 C59 1.398 . S
C58 C60 1.396 . S
C59 C58 1.398 . S
C59 C63 1.407 . S
C60 C58 1.396 . S
C60 C61 1.394 . S
C61 H56 0.929 . S
C61 C60 1.394 . S
C61 C62 1.382 . S
C62 C61 1.382 . S
C62 C63 1.392 . S
C62 N64 1.420 . S
C63 H57 0.930 . S
C63 C59 1.407 . S
C63 C62 1.392 . S
N64 C62 1.420 . S
N64 C65 1.244 . S
C65 N64 1.244 . S
H66 C69 0.929 . S
H67 C72 0.929 1_455 S
H68 C74 0.930 . S
C69 H66 0.929 . S
C69 C70 1.398 . S
C69 C71 1.396 . S
C70 C69 1.398 . S
C70 C74 1.407 . S
C71 C69 1.396 . S
C71 C72 1.394 . S
C72 H67 0.929 1_655 S
C72 C71 1.394 . S
C72 C73 1.382 . S
C73 C72 1.382 . S
C73 C74 1.392 . S
C73 N75 1.417 1_655 S
C74 H68 0.930 . S
C74 C70 1.407 . S
C74 C73 1.392 . S
N75 C73 1.417 1_455 S
N75 C76 1.246 . S
C76 N75 1.246 . S
H77 C80 0.929 . S
H78 C83 0.929 . S
H79 C85 0.930 . S
C80 H77 0.929 . S
C80 C81 1.398 . S
C80 C82 1.396 . S
C81 C80 1.398 . S
C81 C85 1.407 . S
C82 C80 1.396 . S
C82 C83 1.394 . S
C83 H78 0.929 . S
C83 C82 1.394 . S
C83 C84 1.382 . S
C84 C83 1.382 . S
C84 C85 1.392 . S
C84 N86 1.420 . S
C85 H79 0.930 . S
C85 C81 1.407 . S
C85 C84 1.392 . S
N86 C84 1.420 . S
N86 C87 1.244 . S
C87 N86 1.244 . S
H88 C91 0.929 . S
H89 C94 0.929 . S
H90 C96 0.930 . S
C91 H88 0.929 . S
C91 C92 1.398 . S
C91 C93 1.396 . S
C92 C91 1.398 . S
C92 C96 1.407 . S
C93 C91 1.396 . S
C93 C94 1.394 . S
C94 H89 0.929 . S
C94 C93 1.394 . S
C94 C95 1.382 . S
C95 C94 1.382 . S
C95 C96 1.392 . S
C95 N97 1.420 . S
C96 H90 0.930 . S
C96 C92 1.407 . S
C96 C95 1.392 . S
N97 C95 1.420 . S
N97 C98 1.244 . S
C98 N97 1.244 . S
H99 C102 0.929 . S
H100 C105 0.929 1_545 S
H101 C107 0.930 . S
C102 H99 0.929 . S
C102 C103 1.398 . S
C102 C104 1.396 . S
C103 C102 1.398 . S
C103 C107 1.407 . S
C104 C102 1.396 . S
C104 C105 1.394 . S
C105 H100 0.929 1_565 S
C105 C104 1.394 . S
C105 C106 1.382 . S
C106 C105 1.382 . S
C106 C107 1.392 . S
C106 N108 1.375 1_565 S
C107 H101 0.930 . S
C107 C103 1.407 . S
C107 C106 1.392 . S
N108 C106 1.375 1_545 S
N108 C109 1.275 . S
C109 N108 1.275 . S
H110 C113 0.929 . S
H111 C116 0.929 . S
H112 C118 0.930 . S
C113 H110 0.929 . S
C113 C114 1.398 . S
C113 C115 1.396 . S
C114 C113 1.398 . S
C114 C118 1.407 . S
C115 C113 1.396 . S
C115 C116 1.394 . S
C116 H111 0.929 . S
C116 C115 1.394 . S
C116 C117 1.382 . S
C117 C116 1.382 . S
C117 C118 1.392 . S
C117 N119 1.420 . S
C118 H112 0.930 . S
C118 C114 1.407 . S
C118 C117 1.392 . S
N119 C117 1.420 . S
N119 C120 1.244 . S
C120 N119 1.244 . S
H121 C124 0.929 . S
H122 C127 0.929 . S
H123 C129 0.930 . S
C124 H121 0.929 . S
C124 C125 1.398 . S
C124 C126 1.396 . S
C125 C124 1.398 . S
C125 C129 1.407 . S
C126 C124 1.396 . S
C126 C127 1.394 . S
C127 H122 0.929 . S
C127 C126 1.394 . S
C127 C128 1.382 . S
C128 C127 1.382 . S
C128 C129 1.392 . S
C128 N130 1.420 . S
C129 H123 0.930 . S
C129 C125 1.407 . S
C129 C128 1.392 . S
N130 C128 1.420 . S
N130 C131 1.244 . S
C131 N130 1.244 . S
H132 C135 0.929 . S
H133 C138 0.929 . S
H134 C140 0.930 . S
C135 H132 0.929 . S
C135 C136 1.398 . S
C135 C137 1.396 . S
C136 C135 1.398 . S
C136 C140 1.407 . S
C137 C135 1.396 . S
C137 C138 1.394 . S
C138 H133 0.929 . S
C138 C137 1.394 . S
C138 C139 1.382 . S
C139 C138 1.382 . S
C139 C140 1.392 . S
C139 N141 1.420 . S
C140 H134 0.930 . S
C140 C136 1.407 . S
C140 C139 1.392 . S
N141 C139 1.420 . S
N141 C142 1.244 . S
C142 N141 1.244 . S
H143 C146 0.929 . S
H144 C149 0.879 1_554 S
H145 C151 0.930 . S
C146 H143 0.929 . S
C146 C147 1.398 . S
C146 C148 1.396 . S
C147 C146 1.398 . S
C147 C151 1.407 . S
C148 C146 1.396 . S
C148 C149 1.438 . S
C149 H144 0.879 1_556 S
C149 C148 1.438 . S
C149 C150 1.390 . S
C150 C149 1.390 . S
C150 C151 1.392 . S
C150 N152 1.420 1_556 S
C151 H145 0.930 . S
C151 C147 1.407 . S
C151 C150 1.392 . S
N152 C150 1.420 1_554 S
N152 C153 1.244 . S
C153 N152 1.244 . S
H154 C157 0.929 . S
H155 C160 0.929 . S
H156 C162 0.930 . S
C157 H154 0.929 . S
C157 C158 1.398 . S
C157 C159 1.396 . S
C158 C157 1.398 . S
C158 C162 1.407 . S
C159 C157 1.396 . S
C159 C160 1.394 . S
C160 H155 0.929 . S
C160 C159 1.394 . S
C160 C161 1.382 . S
C161 C160 1.382 . S
C161 C162 1.392 . S
C161 N163 1.420 . S
C162 H156 0.930 . S
C162 C158 1.407 . S
C162 C161 1.392 . S
N163 C161 1.420 . S
N163 C164 1.244 . S
C164 N163 1.244 . S
H165 C168 0.929 . S
H166 C171 0.929 . S
H167 C173 0.930 1_565 S
C168 H165 0.929 . S
C168 C169 1.398 . S
C168 C170 1.396 . S
C169 C168 1.398 . S
C169 C173 1.407 . S
C170 C168 1.396 . S
C170 C171 1.394 . S
C171 H166 0.929 . S
C171 C170 1.394 . S
C171 C172 1.382 . S
C172 C171 1.382 . S
C172 C173 1.392 . S
C172 N174 1.420 . S
C173 H167 0.930 1_545 S
C173 C169 1.407 . S
C173 C172 1.392 . S
N174 C172 1.420 . S
N174 C175 1.244 . S
C175 N174 1.244 . S
Mg176 O177 2.028 . S
Mg176 O183 1.986 . S
Mg176 O185 2.114 . S
Mg176 O186 2.251 . S
Mg176 O189 2.010 . S
O177 Mg176 2.028 . S
O177 C180 1.250 . S
O178 Mg179 2.028 . S
O178 C180 1.248 . S
Mg179 O178 2.028 . S
Mg179 O184 2.033 1_554 S
Mg179 O186 2.079 . S
C180 O177 1.250 . S
C180 O178 1.248 . S
C181 O182 1.264 . S
C181 O189 1.249 . S
O182 C181 1.264 . S
O183 Mg176 1.986 . S
O183 C187 1.246 1_554 S
O184 Mg179 2.033 1_556 S
O184 C187 1.259 . S
O185 Mg176 2.114 . S
O185 C188 1.252 . S
O186 Mg176 2.251 . S
O186 Mg179 2.079 . S
O186 C188 1.273 . S
C187 O183 1.246 1_556 S
C187 O184 1.259 . S
C188 O185 1.252 . S
C188 O186 1.273 . S
O189 Mg176 2.010 . S
O189 C181 1.249 . S
Mg190 O191 2.028 . S
Mg190 O197 1.986 . S
Mg190 O199 2.114 . S
Mg190 O200 2.251 . S
Mg190 O203 2.010 . S
O191 Mg190 2.028 . S
O191 C194 1.250 . S
O192 Mg193 2.028 . S
O192 C194 1.248 . S
Mg193 O192 2.028 . S
Mg193 O198 2.032 . S
Mg193 O200 2.079 . S
C194 O191 1.250 . S
C194 O192 1.248 . S
C195 O196 1.264 . S
C195 O203 1.249 . S
O196 C195 1.264 . S
O197 Mg190 1.986 . S
O197 C201 1.246 . S
O198 Mg193 2.032 . S
O198 C201 1.259 . S
O199 Mg190 2.114 . S
O199 C202 1.252 . S
O200 Mg190 2.251 . S
O200 Mg193 2.079 . S
O200 C202 1.273 . S
C201 O197 1.246 . S
C201 O198 1.259 . S
C202 O199 1.252 . S
C202 O200 1.273 . S
O203 Mg190 2.010 . S
O203 C195 1.249 . S
Mg204 O205 2.028 1_554 S
Mg204 O211 1.986 1_554 S
Mg204 O213 2.114 . S
Mg204 O214 2.251 . S
Mg204 O217 2.010 . S
O205 Mg204 2.028 1_556 S
O205 C208 1.253 . S
O206 Mg207 2.028 . S
O206 C208 1.248 . S
Mg207 O206 2.028 . S
Mg207 O212 2.032 . S
Mg207 O214 2.079 1_556 S
C208 O205 1.253 . S
C208 O206 1.248 . S
C209 O210 1.264 . S
C209 O217 1.249 . S
O210 C209 1.264 . S
O211 Mg204 1.986 1_556 S
O211 C215 1.246 . S
O212 Mg207 2.032 . S
O212 C215 1.259 . S
O213 Mg204 2.114 . S
O213 C216 1.252 . S
O214 Mg204 2.251 . S
O214 Mg207 2.079 1_554 S
O214 C216 1.273 . S
C215 O211 1.246 . S
C215 O212 1.259 . S
C216 O213 1.252 . S
C216 O214 1.273 . S
O217 Mg204 2.010 . S
O217 C209 1.249 . S
Mg218 O219 2.028 . S
Mg218 O225 1.986 . S
Mg218 O227 2.114 . S
Mg218 O228 2.251 . S
Mg218 O231 2.010 . S
O219 Mg218 2.028 . S
O219 C222 1.250 . S
O220 Mg221 2.028 . S
O220 C222 1.248 1_565 S
Mg221 O220 2.028 . S
Mg221 O226 2.032 1_565 S
Mg221 O228 2.079 1_565 S
C222 O219 1.250 . S
C222 O220 1.248 1_545 S
C223 O224 1.264 . S
C223 O231 1.249 . S
O224 C223 1.264 . S
O225 Mg218 1.986 . S
O225 C229 1.246 . S
O226 Mg221 2.032 1_545 S
O226 C229 1.259 . S
O227 Mg218 2.114 . S
O227 C230 1.252 . S
O228 Mg218 2.251 . S
O228 Mg221 2.079 1_545 S
O228 C230 1.273 . S
C229 O225 1.246 . S
C229 O226 1.259 . S
C230 O227 1.252 . S
C230 O228 1.273 . S
O231 Mg218 2.010 . S
O231 C223 1.249 . S
Mg232 O233 2.028 . S
Mg232 O239 1.986 . S
Mg232 O241 2.114 . S
Mg232 O242 2.251 . S
Mg232 O245 2.010 . S
O233 Mg232 2.028 . S
O233 C236 1.250 . S
O234 Mg235 2.028 . S
O234 C236 1.248 . S
Mg235 O234 2.028 . S
Mg235 O240 2.032 . S
Mg235 O242 2.079 . S
C236 O233 1.250 . S
C236 O234 1.248 . S
C237 O238 1.264 . S
C237 O245 1.249 . S
O238 C237 1.264 . S
O239 Mg232 1.986 . S
O239 C243 1.246 . S
O240 Mg235 2.032 . S
O240 C243 1.259 . S
O241 Mg232 2.114 . S
O241 C244 1.252 . S
O242 Mg232 2.251 . S
O242 Mg235 2.079 . S
O242 C244 1.273 . S
C243 O239 1.246 . S
C243 O240 1.259 . S
C244 O241 1.252 . S
C244 O242 1.273 . S
O245 Mg232 2.010 . S
O245 C237 1.249 . S
Mg246 O247 2.028 . S
Mg246 O253 1.986 . S
Mg246 O255 2.114 . S
Mg246 O256 2.251 . S
Mg246 O259 2.010 . S
O247 Mg246 2.028 . S
O247 C250 1.250 . S
O248 Mg249 2.028 . S
O248 C250 1.248 . S
Mg249 O248 2.028 . S
Mg249 O254 2.032 . S
Mg249 O256 2.079 . S
C250 O247 1.250 . S
C250 O248 1.248 . S
C251 O252 1.264 . S
C251 O259 1.249 . S
O252 C251 1.264 . S
O253 Mg246 1.986 . S
O253 C257 1.246 . S
O254 Mg249 2.032 . S
O254 C257 1.259 . S
O255 Mg246 2.114 . S
O255 C258 1.252 . S
O256 Mg246 2.251 . S
O256 Mg249 2.079 . S
O256 C258 1.273 . S
C257 O253 1.246 . S
C257 O254 1.259 . S
C258 O255 1.252 . S
C258 O256 1.273 . S
O259 Mg246 2.010 . S
O259 C251 1.249 . S
Mg260 O261 2.028 . S
Mg260 O267 1.986 . S
Mg260 O269 2.114 . S
Mg260 O270 2.251 . S
Mg260 O273 2.010 . S
O261 Mg260 2.028 . S
O261 C264 1.250 . S
O262 Mg263 2.028 . S
O262 C264 1.248 . S
Mg263 O262 2.028 . S
Mg263 O268 2.032 . S
Mg263 O270 2.079 . S
C264 O261 1.250 . S
C264 O262 1.248 . S
C265 O266 1.264 . S
C265 O273 1.249 . S
O266 C265 1.264 . S
O267 Mg260 1.986 . S
O267 C271 1.246 . S
O268 Mg263 2.032 . S
O268 C271 1.259 . S
O269 Mg260 2.114 . S
O269 C272 1.252 . S
O270 Mg260 2.251 . S
O270 Mg263 2.079 . S
O270 C272 1.273 . S
C271 O267 1.246 . S
C271 O268 1.259 . S
C272 O269 1.252 . S
C272 O270 1.273 . S
O273 Mg260 2.010 . S
O273 C265 1.249 . S
Mg274 O275 2.028 1_545 S
Mg274 O281 1.986 1_545 S
Mg274 O283 2.114 . S
Mg274 O284 2.251 . S
Mg274 O287 2.010 . S
O275 Mg274 2.028 1_565 S
O275 C278 1.250 . S
O276 Mg277 2.028 . S
O276 C278 1.248 . S
Mg277 O276 2.028 . S
Mg277 O282 2.032 . S
Mg277 O284 2.079 1_565 S
C278 O275 1.250 . S
C278 O276 1.248 . S
C279 O280 1.264 . S
C279 O287 1.249 . S
O280 C279 1.264 . S
O281 Mg274 1.986 1_565 S
O281 C285 1.246 . S
O282 Mg277 2.032 . S
O282 C285 1.259 . S
O283 Mg274 2.114 . S
O283 C286 1.252 . S
O284 Mg274 2.251 . S
O284 Mg277 2.079 1_545 S
O284 C286 1.273 . S
C285 O281 1.246 . S
C285 O282 1.259 . S
C286 O283 1.252 . S
C286 O284 1.273 . S
O287 Mg274 2.010 . S
O287 C279 1.249 . S
Mg288 O289 2.028 . S
Mg288 O295 1.986 . S
Mg288 O297 2.114 . S
Mg288 O298 2.251 . S
Mg288 O301 2.010 . S
O289 Mg288 2.028 . S
O289 C292 1.250 1_455 S
O290 Mg291 2.028 . S
O290 C292 1.248 . S
Mg291 O290 2.028 . S
Mg291 O296 2.032 1_655 S
Mg291 O298 2.079 1_655 S
C292 O289 1.250 1_655 S
C292 O290 1.248 . S
C293 O294 1.264 . S
C293 O301 1.249 . S
O294 C293 1.264 . S
O295 Mg288 1.986 . S
O295 C299 1.246 . S
O296 Mg291 2.032 1_455 S
O296 C299 1.259 . S
O297 Mg288 2.114 . S
O297 C300 1.252 . S
O298 Mg288 2.251 . S
O298 Mg291 2.079 1_455 S
O298 C300 1.273 . S
C299 O295 1.246 . S
C299 O296 1.259 . S
C300 O297 1.252 . S
C300 O298 1.273 . S
O301 Mg288 2.010 . S
O301 C293 1.249 . S
Mg302 O303 2.028 . S
Mg302 O309 1.986 . S
Mg302 O311 2.114 . S
Mg302 O312 2.251 . S
Mg302 O315 2.010 . S
O303 Mg302 2.028 . S
O303 C306 1.250 . S
O304 Mg305 2.028 . S
O304 C306 1.248 . S
Mg305 O304 2.028 . S
Mg305 O310 2.032 . S
Mg305 O312 2.079 . S
C306 O303 1.250 . S
C306 O304 1.248 . S
C307 O308 1.264 . S
C307 O315 1.249 . S
O308 C307 1.264 . S
O309 Mg302 1.986 . S
O309 C313 1.246 . S
O310 Mg305 2.032 . S
O310 C313 1.259 . S
O311 Mg302 2.114 . S
O311 C314 1.252 . S
O312 Mg302 2.251 . S
O312 Mg305 2.079 . S
O312 C314 1.273 . S
C313 O309 1.246 . S
C313 O310 1.259 . S
C314 O311 1.252 . S
C314 O312 1.273 . S
O315 Mg302 2.010 . S
O315 C307 1.249 . S
Mg316 O317 2.028 1_655 S
Mg316 O323 1.986 1_655 S
Mg316 O325 2.114 . S
Mg316 O326 2.251 1_655 S
Mg316 O329 2.010 . S
O317 Mg316 2.028 1_455 S
O317 C320 1.250 . S
O318 Mg319 2.028 . S
O318 C320 1.248 . S
Mg319 O318 2.028 . S
Mg319 O324 2.032 . S
Mg319 O326 2.079 . S
C320 O317 1.250 . S
C320 O318 1.248 . S
C321 O322 1.264 . S
C321 O329 1.249 . S
O322 C321 1.264 . S
O323 Mg316 1.986 1_455 S
O323 C327 1.246 . S
O324 Mg319 2.032 . S
O324 C327 1.259 . S
O325 Mg316 2.114 . S
O325 C328 1.252 . S
O326 Mg316 2.251 1_455 S
O326 Mg319 2.079 . S
O326 C328 1.273 1_455 S
C327 O323 1.246 . S
C327 O324 1.259 . S
C328 O325 1.252 . S
C328 O326 1.273 1_655 S
O329 Mg316 2.010 . S
O329 C321 1.249 . S
Mg330 O331 2.028 . S
Mg330 O337 1.986 . S
Mg330 O339 2.114 . S
Mg330 O340 2.251 . S
Mg330 O343 2.010 . S
O331 Mg330 2.028 . S
O331 C334 1.250 . S
O332 Mg333 2.028 . S
O332 C334 1.248 . S
Mg333 O332 2.028 . S
Mg333 O338 2.032 . S
Mg333 O340 2.079 . S
C334 O331 1.250 . S
C334 O332 1.248 . S
C335 O336 1.264 . S
C335 O343 1.249 . S
O336 C335 1.264 . S
O337 Mg330 1.986 . S
O337 C341 1.246 . S
O338 Mg333 2.032 . S
O338 C341 1.259 . S
O339 Mg330 2.114 . S
O339 C342 1.252 . S
O340 Mg330 2.251 . S
O340 Mg333 2.079 . S
O340 C342 1.273 . S
C341 O337 1.246 . S
C341 O338 1.259 . S
C342 O339 1.252 . S
C342 O340 1.273 . S
O343 Mg330 2.010 . S
O343 C335 1.249 . S
H344 C362 0.951 . S
H345 C364 0.951 . S
H346 C366 0.950 . S
H347 C367 0.950 . S
H348 C369 0.950 . S
H349 C372 0.950 . S
H350 C373 0.950 . S
H351 C375 0.950 . S
H352 C376 0.950 . S
H353 C377 0.951 . S
H354 C379 0.951 . S
H355 C381 0.950 . S
H356 C382 0.950 . S
H357 C384 0.950 . S
H358 C387 0.950 . S
H359 C388 0.950 . S
H360 C390 0.950 . S
H361 C391 0.950 . S
C362 H344 0.951 . S
C362 C363 1.366 . S
C362 C364 1.388 . S
C363 C362 1.366 . S
C363 C367 1.385 . S
C364 H345 0.951 . S
C364 C362 1.388 . S
C364 C365 1.366 . S
C365 C364 1.366 . S
C365 C366 1.414 . S
C365 C368 1.499 . S
C366 H346 0.950 . S
C366 C365 1.414 . S
C366 C367 1.374 . S
C367 H347 0.950 . S
C367 C363 1.385 . S
C367 C366 1.374 . S
C368 C365 1.499 . S
C368 C369 1.373 . S
C368 C370 1.389 . S
C369 H348 0.950 . S
C369 C368 1.373 . S
C369 C385 1.377 . S
C370 C368 1.389 . S
C370 C371 1.524 . S
C370 C384 1.377 . S
C371 C370 1.524 . S
C371 C372 1.397 . S
C371 C376 1.363 . S
C372 H349 0.950 . S
C372 C371 1.397 . S
C372 C373 1.334 . S
C373 H350 0.950 . S
C373 C372 1.334 . S
C373 C374 1.287 . S
C374 C373 1.287 . S
C374 C375 1.524 . S
C374 H393 0.913 . S
C375 H351 0.950 . S
C375 C374 1.524 . S
C375 C376 1.415 . S
C376 H352 0.950 . S
C376 C371 1.363 . S
C376 C375 1.415 . S
C377 H353 0.951 . S
C377 C378 1.366 . S
C377 C379 1.388 . S
C378 C377 1.366 . S
C378 C382 1.385 . S
C379 H354 0.951 . S
C379 C377 1.388 . S
C379 C380 1.366 . S
C380 C379 1.366 . S
C380 C381 1.414 . S
C380 C383 1.499 . S
C381 H355 0.950 . S
C381 C380 1.414 . S
C381 C382 1.374 . S
C382 H356 0.950 . S
C382 C378 1.385 . S
C382 C381 1.374 . S
C383 C380 1.499 . S
C383 C384 1.373 . S
C383 C385 1.389 . S
C384 H357 0.950 . S
C384 C370 1.377 . S
C384 C383 1.373 . S
C385 C369 1.377 . S
C385 C383 1.389 . S
C385 C386 1.524 . S
C386 C385 1.524 . S
C386 C387 1.397 . S
C386 C391 1.363 . S
C387 H358 0.950 . S
C387 C386 1.397 . S
C387 C388 1.334 . S
C388 H359 0.950 . S
C388 C387 1.334 . S
C388 C389 1.287 . S
C389 C388 1.287 . S
C389 C390 1.524 . S
C389 H392 0.999 . S
C390 H360 0.950 . S
C390 C389 1.524 . S
C390 C391 1.415 . S
C391 H361 0.950 . S
C391 C386 1.363 . S
C391 C390 1.415 . S
H392 C389 0.999 . S
H393 C374 0.913 . S
H394 C412 0.951 . S
H395 C414 0.951 . S
H396 C416 0.950 . S
H397 C417 0.950 . S
H398 C419 0.950 . S
H399 C422 0.950 . S
H400 C423 0.950 . S
H401 C425 0.950 . S
H402 C426 0.950 . S
H403 C427 0.951 . S
H404 C429 0.951 . S
H405 C431 0.950 . S
H406 C432 0.950 . S
H407 C434 0.950 . S
H408 C437 0.950 . S
H409 C438 0.950 . S
H410 C440 0.950 . S
H411 C441 0.950 . S
C412 H394 0.951 . S
C412 C413 1.366 . S
C412 C414 1.388 . S
C413 C412 1.366 . S
C413 C417 1.385 . S
C414 H395 0.951 . S
C414 C412 1.388 . S
C414 C415 1.366 . S
C415 C414 1.366 . S
C415 C416 1.414 . S
C415 C418 1.499 . S
C416 H396 0.950 . S
C416 C415 1.414 . S
C416 C417 1.374 . S
C417 H397 0.950 . S
C417 C413 1.385 . S
C417 C416 1.374 . S
C418 C415 1.499 . S
C418 C419 1.373 . S
C418 C420 1.389 . S
C419 H398 0.950 . S
C419 C418 1.373 . S
C419 C435 1.377 . S
C420 C418 1.389 . S
C420 C421 1.524 . S
C420 C434 1.377 . S
C421 C420 1.524 . S
C421 C422 1.397 . S
C421 C426 1.363 . S
C422 H399 0.950 . S
C422 C421 1.397 . S
C422 C423 1.334 1_455 S
C423 H400 0.950 . S
C423 C422 1.334 1_655 S
C423 C424 1.287 . S
C424 C423 1.287 . S
C424 C425 1.524 1_655 S
C424 H443 0.913 . S
C425 H401 0.950 . S
C425 C424 1.524 1_455 S
C425 C426 1.415 . S
C426 H402 0.950 . S
C426 C421 1.363 . S
C426 C425 1.415 . S
C427 H403 0.951 . S
C427 C428 1.366 . S
C427 C429 1.388 . S
C428 C427 1.366 . S
C428 C432 1.385 . S
C429 H404 0.951 . S
C429 C427 1.388 . S
C429 C430 1.366 . S
C430 C429 1.366 . S
C430 C431 1.414 . S
C430 C433 1.499 . S
C431 H405 0.950 . S
C431 C430 1.414 . S
C431 C432 1.374 . S
C432 H406 0.950 . S
C432 C428 1.385 . S
C432 C431 1.374 . S
C433 C430 1.499 . S
C433 C434 1.373 . S
C433 C435 1.389 . S
C434 H407 0.950 . S
C434 C420 1.377 . S
C434 C433 1.373 . S
C435 C419 1.377 . S
C435 C433 1.389 . S
C435 C436 1.524 . S
C436 C435 1.524 . S
C436 C437 1.397 . S
C436 C441 1.363 . S
C437 H408 0.950 . S
C437 C436 1.397 . S
C437 C438 1.334 . S
C438 H409 0.950 . S
C438 C437 1.334 . S
C438 C439 1.287 . S
C439 C438 1.287 . S
C439 C440 1.524 . S
C439 H442 0.999 . S
C440 H410 0.950 . S
C440 C439 1.524 . S
C440 C441 1.415 . S
C441 H411 0.950 . S
C441 C436 1.363 . S
C441 C440 1.415 . S
H442 C439 0.999 . S
H443 C424 0.913 . S
H444 C462 0.951 . S
H445 C464 0.951 . S
H446 C466 0.950 . S
H447 C467 0.950 . S
H448 C469 0.950 . S
H449 C472 0.950 . S
H450 C473 0.950 . S
H451 C475 0.950 . S
H452 C476 0.950 . S
H453 C477 0.951 . S
H454 C479 0.951 . S
H455 C481 0.950 . S
H456 C482 0.950 . S
H457 C484 0.950 . S
H458 C487 0.950 . S
H459 C488 0.950 . S
H460 C490 0.950 . S
H461 C491 0.950 . S
C462 H444 0.951 . S
C462 C463 1.366 . S
C462 C464 1.388 . S
C463 C462 1.366 . S
C463 C467 1.385 . S
C464 H445 0.951 . S
C464 C462 1.388 . S
C464 C465 1.366 . S
C465 C464 1.366 . S
C465 C466 1.414 . S
C465 C468 1.499 . S
C466 H446 0.950 . S
C466 C465 1.414 . S
C466 C467 1.374 . S
C467 H447 0.950 . S
C467 C463 1.385 . S
C467 C466 1.374 . S
C468 C465 1.499 . S
C468 C469 1.373 . S
C468 C470 1.389 . S
C469 H448 0.950 . S
C469 C468 1.373 . S
C469 C485 1.377 . S
C470 C468 1.389 . S
C470 C471 1.524 . S
C470 C484 1.377 . S
C471 C470 1.524 . S
C471 C472 1.397 . S
C471 C476 1.363 . S
C472 H449 0.950 . S
C472 C471 1.397 . S
C472 C473 1.334 . S
C473 H450 0.950 . S
C473 C472 1.334 . S
C473 C474 1.287 . S
C474 C473 1.287 . S
C474 C475 1.524 . S
C474 H493 0.913 . S
C475 H451 0.950 . S
C475 C474 1.524 . S
C475 C476 1.415 . S
C476 H452 0.950 . S
C476 C471 1.363 . S
C476 C475 1.415 . S
C477 H453 0.951 . S
C477 C478 1.366 . S
C477 C479 1.388 . S
C478 C477 1.366 . S
C478 C482 1.385 . S
C479 H454 0.951 . S
C479 C477 1.388 . S
C479 C480 1.366 . S
C480 C479 1.366 . S
C480 C481 1.414 . S
C480 C483 1.499 . S
C481 H455 0.950 . S
C481 C480 1.414 . S
C481 C482 1.374 . S
C482 H456 0.950 . S
C482 C478 1.385 . S
C482 C481 1.374 . S
C483 C480 1.499 . S
C483 C484 1.373 . S
C483 C485 1.389 . S
C484 H457 0.950 . S
C484 C470 1.377 . S
C484 C483 1.373 . S
C485 C469 1.377 . S
C485 C483 1.389 . S
C485 C486 1.524 . S
C486 C485 1.524 . S
C486 C487 1.397 . S
C486 C491 1.363 . S
C487 H458 0.950 . S
C487 C486 1.397 . S
C487 C488 1.334 . S
C488 H459 0.950 . S
C488 C487 1.334 . S
C488 C489 1.287 . S
C489 C488 1.287 . S
C489 C490 1.524 . S
C489 H492 0.999 . S
C490 H460 0.950 . S
C490 C489 1.524 . S
C490 C491 1.415 . S
C491 H461 0.950 . S
C491 C486 1.363 . S
C491 C490 1.415 . S
H492 C489 0.999 . S
H493 C474 0.913 . S
H494 C512 0.951 . S
H495 C514 0.951 . S
H496 C516 0.950 . S
H497 C517 0.950 . S
H498 C519 0.950 . S
H499 C522 0.950 1_565 S
H500 C523 0.950 . S
H501 C525 0.950 . S
H502 C526 0.950 1_455 S
H503 C527 0.951 1_565 S
H504 C529 0.907 1_565 S
H505 C531 0.950 . S
H506 C532 0.950 . S
H507 C534 0.950 . S
H508 C537 0.950 1_545 S
H509 C538 0.989 . S
H510 C540 0.950 . S
H511 C541 0.950 . S
C512 H494 0.951 . S
C512 C513 1.366 1_545 S
C512 C514 1.388 . S
C513 C512 1.366 1_565 S
C513 C517 1.385 . S
C514 H495 0.951 . S
C514 C512 1.388 . S
C514 C515 1.366 1_545 S
C515 C514 1.366 1_565 S
C515 C516 1.414 . S
C515 C518 1.501 . S
C516 H496 0.950 . S
C516 C515 1.414 . S
C516 C517 1.374 . S
C517 H497 0.950 . S
C517 C513 1.385 . S
C517 C516 1.374 . S
C518 C515 1.501 . S
C518 C519 1.376 . S
C518 C520 1.384 1_565 S
C519 H498 0.950 . S
C519 C518 1.376 . S
C519 C535 1.377 . S
C520 C518 1.384 1_545 S
C520 C521 1.524 1_455 S
C520 C534 1.377 1_455 S
C521 C520 1.524 1_655 S
C521 C522 1.397 . S
C521 C526 1.363 . S
C522 H499 0.950 1_545 S
C522 C521 1.397 . S
C522 C523 1.334 . S
C523 H500 0.950 . S
C523 C522 1.334 . S
C523 C524 1.287 . S
C524 C523 1.287 . S
C524 C525 1.524 . S
C524 H543 0.913 . S
C525 H501 0.950 . S
C525 C524 1.524 . S
C525 C526 1.415 . S
C526 H502 0.950 1_655 S
C526 C521 1.363 . S
C526 C525 1.415 . S
C527 H503 0.951 1_545 S
C527 C528 1.366 . S
C527 C529 1.407 . S
C528 C527 1.366 . S
C528 C532 1.385 . S
C529 H504 0.907 1_545 S
C529 C527 1.407 . S
C529 C530 1.391 . S
C530 C529 1.391 . S
C530 C531 1.414 . S
C530 C533 1.499 . S
C531 H505 0.950 . S
C531 C530 1.414 . S
C531 C532 1.374 . S
C532 H506 0.950 . S
C532 C528 1.385 . S
C532 C531 1.374 . S
C533 C530 1.499 . S
C533 C534 1.373 . S
C533 C535 1.389 1_645 S
C534 H507 0.950 . S
C534 C520 1.377 1_655 S
C534 C533 1.373 . S
C535 C519 1.377 . S
C535 C533 1.389 1_465 S
C535 C536 1.524 . S
C536 C535 1.524 . S
C536 C537 1.397 . S
C536 C541 1.363 . S
C537 H508 0.950 1_565 S
C537 C536 1.397 . S
C537 C538 1.334 . S
C538 H509 0.989 . S
C538 C537 1.334 . S
C538 C539 1.287 . S
C539 C538 1.287 . S
C539 C540 1.524 . S
C539 H542 0.999 . S
C540 H510 0.950 . S
C540 C539 1.524 . S
C540 C541 1.415 . S
C541 H511 0.950 . S
C541 C536 1.363 . S
C541 C540 1.415 . S
H542 C539 0.999 . S
H543 C524 0.913 . S
H544 C562 0.951 . S
H545 C564 0.951 . S
H546 C566 0.950 . S
H547 C567 0.950 . S
H548 C569 0.950 . S
H549 C572 0.950 . S
H550 C573 0.950 . S
H551 C575 0.950 . S
H552 C576 0.950 . S
H553 C577 0.951 . S
H554 C579 0.951 . S
H555 C581 0.950 . S
H556 C582 0.950 . S
H557 C584 0.950 . S
H558 C587 0.950 . S
H559 C588 0.950 . S
H560 C590 0.950 . S
H561 C591 0.950 . S
C562 H544 0.951 . S
C562 C563 1.366 . S
C562 C564 1.388 . S
C563 C562 1.366 . S
C563 C567 1.385 . S
C564 H545 0.951 . S
C564 C562 1.388 . S
C564 C565 1.366 . S
C565 C564 1.366 . S
C565 C566 1.414 . S
C565 C568 1.499 . S
C566 H546 0.950 . S
C566 C565 1.414 . S
C566 C567 1.374 . S
C567 H547 0.950 . S
C567 C563 1.385 . S
C567 C566 1.374 . S
C568 C565 1.499 . S
C568 C569 1.373 . S
C568 C570 1.389 . S
C569 H548 0.950 . S
C569 C568 1.373 . S
C569 C585 1.377 . S
C570 C568 1.389 . S
C570 C571 1.524 . S
C570 C584 1.377 . S
C571 C570 1.524 . S
C571 C572 1.397 . S
C571 C576 1.363 . S
C572 H549 0.950 . S
C572 C571 1.397 . S
C572 C573 1.334 . S
C573 H550 0.950 . S
C573 C572 1.334 . S
C573 C574 1.287 . S
C574 C573 1.287 . S
C574 C575 1.524 . S
C574 H593 0.913 . S
C575 H551 0.950 . S
C575 C574 1.524 . S
C575 C576 1.415 . S
C576 H552 0.950 . S
C576 C571 1.363 . S
C576 C575 1.415 . S
C577 H553 0.951 . S
C577 C578 1.366 . S
C577 C579 1.388 . S
C578 C577 1.366 . S
C578 C582 1.385 . S
C579 H554 0.951 . S
C579 C577 1.388 . S
C579 C580 1.366 . S
C580 C579 1.366 . S
C580 C581 1.414 . S
C580 C583 1.499 . S
C581 H555 0.950 . S
C581 C580 1.414 . S
C581 C582 1.374 . S
C582 H556 0.950 . S
C582 C578 1.385 . S
C582 C581 1.374 . S
C583 C580 1.499 . S
C583 C584 1.373 . S
C583 C585 1.389 . S
C584 H557 0.950 . S
C584 C570 1.377 . S
C584 C583 1.373 . S
C585 C569 1.377 . S
C585 C583 1.389 . S
C585 C586 1.524 . S
C586 C585 1.524 . S
C586 C587 1.397 . S
C586 C591 1.363 . S
C587 H558 0.950 . S
C587 C586 1.397 . S
C587 C588 1.334 . S
C588 H559 0.950 . S
C588 C587 1.334 . S
C588 C589 1.287 . S
C589 C588 1.287 . S
C589 C590 1.524 . S
C589 H592 0.999 . S
C590 H560 0.950 . S
C590 C589 1.524 . S
C590 C591 1.415 . S
C591 H561 0.950 . S
C591 C586 1.363 . S
C591 C590 1.415 . S
H592 C589 0.999 . S
H593 C574 0.913 . S
H594 C612 0.951 . S
H595 C614 0.951 . S
H596 C616 0.950 . S
H597 C617 0.950 . S
H598 C619 0.950 . S
H599 C622 0.950 . S
H600 C623 0.950 . S
H601 C625 0.950 . S
H602 C626 0.950 . S
H603 C627 0.951 . S
H604 C629 0.951 . S
H605 C631 0.950 . S
H606 C632 0.950 . S
H607 C634 0.950 . S
H608 C637 0.950 . S
H609 C638 0.950 . S
H610 C640 0.950 . S
H611 C641 0.950 . S
C612 H594 0.951 . S
C612 C613 1.366 . S
C612 C614 1.388 . S
C613 C612 1.366 . S
C613 C617 1.385 . S
C614 H595 0.951 . S
C614 C612 1.388 . S
C614 C615 1.366 . S
C615 C614 1.366 . S
C615 C616 1.414 . S
C615 C618 1.499 . S
C616 H596 0.950 . S
C616 C615 1.414 . S
C616 C617 1.374 . S
C617 H597 0.950 . S
C617 C613 1.385 . S
C617 C616 1.374 . S
C618 C615 1.499 . S
C618 C619 1.373 . S
C618 C620 1.389 . S
C619 H598 0.950 . S
C619 C618 1.373 . S
C619 C635 1.377 . S
C620 C618 1.389 . S
C620 C621 1.524 . S
C620 C634 1.377 . S
C621 C620 1.524 . S
C621 C622 1.397 . S
C621 C626 1.363 . S
C622 H599 0.950 . S
C622 C621 1.397 . S
C622 C623 1.334 . S
C623 H600 0.950 . S
C623 C622 1.334 . S
C623 C624 1.287 . S
C624 C623 1.287 . S
C624 C625 1.524 . S
C624 H643 0.913 . S
C625 H601 0.950 . S
C625 C624 1.524 . S
C625 C626 1.415 . S
C626 H602 0.950 . S
C626 C621 1.363 . S
C626 C625 1.415 . S
C627 H603 0.951 . S
C627 C628 1.366 . S
C627 C629 1.388 . S
C628 C627 1.366 . S
C628 C632 1.385 . S
C629 H604 0.951 . S
C629 C627 1.388 . S
C629 C630 1.366 . S
C630 C629 1.366 . S
C630 C631 1.414 . S
C630 C633 1.499 . S
C631 H605 0.950 . S
C631 C630 1.414 . S
C631 C632 1.374 . S
C632 H606 0.950 . S
C632 C628 1.385 . S
C632 C631 1.374 . S
C633 C630 1.499 . S
C633 C634 1.373 . S
C633 C635 1.389 . S
C634 H607 0.950 . S
C634 C620 1.377 . S
C634 C633 1.373 . S
C635 C619 1.377 . S
C635 C633 1.389 . S
C635 C636 1.524 . S
C636 C635 1.524 . S
C636 C637 1.397 . S
C636 C641 1.363 . S
C637 H608 0.950 . S
C637 C636 1.397 . S
C637 C638 1.334 . S
C638 H609 0.950 . S
C638 C637 1.334 . S
C638 C639 1.287 . S
C639 C638 1.287 . S
C639 C640 1.524 . S
C639 H642 0.999 . S
C640 H610 0.950 . S
C640 C639 1.524 . S
C640 C641 1.415 . S
C641 H611 0.950 . S
C641 C636 1.363 . S
C641 C640 1.415 . S
H642 C639 0.999 . S
H643 C624 0.913 . S
H644 C662 0.951 . S
H645 C664 0.951 . S
H646 C666 0.950 . S
H647 C667 0.950 . S
H648 C669 0.950 . S
H649 C672 0.950 . S
H650 C673 0.950 . S
H651 C675 0.950 . S
H652 C676 0.950 . S
H653 C677 0.951 . S
H654 C679 0.951 . S
H655 C681 0.950 . S
H656 C682 0.950 . S
H657 C684 0.950 . S
H658 C687 0.950 . S
H659 C688 0.950 . S
H660 C690 0.950 . S
H661 C691 0.950 . S
C662 H644 0.951 . S
C662 C663 1.366 . S
C662 C664 1.388 . S
C663 C662 1.366 . S
C663 C667 1.385 . S
C664 H645 0.951 . S
C664 C662 1.388 . S
C664 C665 1.366 . S
C665 C664 1.366 . S
C665 C666 1.414 . S
C665 C668 1.499 . S
C666 H646 0.950 . S
C666 C665 1.414 . S
C666 C667 1.374 . S
C667 H647 0.950 . S
C667 C663 1.385 . S
C667 C666 1.374 . S
C668 C665 1.499 . S
C668 C669 1.373 . S
C668 C670 1.389 . S
C669 H648 0.950 . S
C669 C668 1.373 . S
C669 C685 1.377 . S
C670 C668 1.389 . S
C670 C671 1.524 . S
C670 C684 1.377 . S
C671 C670 1.524 . S
C671 C672 1.397 . S
C671 C676 1.363 . S
C672 H649 0.950 . S
C672 C671 1.397 . S
C672 C673 1.334 . S
C673 H650 0.950 . S
C673 C672 1.334 . S
C673 C674 1.287 . S
C674 C673 1.287 . S
C674 C675 1.524 . S
C674 H693 0.913 . S
C675 H651 0.950 . S
C675 C674 1.524 . S
C675 C676 1.415 . S
C676 H652 0.950 . S
C676 C671 1.363 . S
C676 C675 1.415 . S
C677 H653 0.951 . S
C677 C678 1.366 . S
C677 C679 1.388 . S
C678 C677 1.366 . S
C678 C682 1.385 . S
C679 H654 0.951 . S
C679 C677 1.388 . S
C679 C680 1.366 . S
C680 C679 1.366 . S
C680 C681 1.414 . S
C680 C683 1.499 . S
C681 H655 0.950 . S
C681 C680 1.414 . S
C681 C682 1.374 . S
C682 H656 0.950 . S
C682 C678 1.385 . S
C682 C681 1.374 . S
C683 C680 1.499 . S
C683 C684 1.373 . S
C683 C685 1.389 . S
C684 H657 0.950 . S
C684 C670 1.377 . S
C684 C683 1.373 . S
C685 C669 1.377 . S
C685 C683 1.389 . S
C685 C686 1.524 . S
C686 C685 1.524 . S
C686 C687 1.397 . S
C686 C691 1.363 . S
C687 H658 0.950 . S
C687 C686 1.397 . S
C687 C688 1.334 . S
C688 H659 0.950 . S
C688 C687 1.334 . S
C688 C689 1.287 . S
C689 C688 1.287 . S
C689 C690 1.524 . S
C689 H692 0.999 . S
C690 H660 0.950 . S
C690 C689 1.524 . S
C690 C691 1.415 . S
C691 H661 0.950 . S
C691 C686 1.363 . S
C691 C690 1.415 . S
H692 C689 0.999 . S
H693 C674 0.913 . S
H694 C712 0.951 . S
H695 C714 0.951 . S
H696 C716 0.950 . S
H697 C717 0.950 . S
H698 C719 0.950 . S
H699 C722 0.950 . S
H700 C723 0.950 . S
H701 C725 0.950 . S
H702 C726 0.950 . S
H703 C727 0.942 1_545 S
H704 C729 0.954 . S
H705 C731 0.950 . S
H706 C732 0.950 . S
H707 C734 0.950 . S
H708 C737 0.950 . S
H709 C738 0.950 . S
H710 C740 0.950 . S
H711 C741 0.950 . S
C712 H694 0.951 . S
C712 C713 1.366 . S
C712 C714 1.388 . S
C713 C712 1.366 . S
C713 C717 1.385 . S
C714 H695 0.951 . S
C714 C712 1.388 . S
C714 C715 1.366 . S
C715 C714 1.366 . S
C715 C716 1.414 . S
C715 C718 1.499 . S
C716 H696 0.950 . S
C716 C715 1.414 . S
C716 C717 1.374 . S
C717 H697 0.950 . S
C717 C713 1.385 . S
C717 C716 1.374 . S
C718 C715 1.499 . S
C718 C719 1.373 1_565 S
C718 C720 1.389 . S
C719 H698 0.950 . S
C719 C718 1.373 1_545 S
C719 C735 1.377 . S
C720 C718 1.389 . S
C720 C721 1.524 . S
C720 C734 1.377 . S
C721 C720 1.524 . S
C721 C722 1.397 . S
C721 C726 1.363 . S
C722 H699 0.950 . S
C722 C721 1.397 . S
C722 C723 1.334 . S
C723 H700 0.950 . S
C723 C722 1.334 . S
C723 C724 1.287 . S
C724 C723 1.287 . S
C724 C725 1.524 . S
C724 H743 0.913 . S
C725 H701 0.950 . S
C725 C724 1.524 . S
C725 C726 1.415 . S
C726 H702 0.950 . S
C726 C721 1.363 . S
C726 C725 1.415 . S
C727 H703 0.942 1_565 S
C727 C728 1.366 . S
C727 C729 1.388 . S
C728 C727 1.366 . S
C728 C732 1.385 . S
C729 H704 0.954 . S
C729 C727 1.388 . S
C729 C730 1.366 . S
C730 C729 1.366 . S
C730 C731 1.414 . S
C730 C733 1.499 . S
C731 H705 0.950 . S
C731 C730 1.414 . S
C731 C732 1.374 . S
C732 H706 0.950 . S
C732 C728 1.385 . S
C732 C731 1.374 . S
C733 C730 1.499 . S
C733 C734 1.373 . S
C733 C735 1.389 1_565 S
C734 H707 0.950 . S
C734 C720 1.377 . S
C734 C733 1.373 . S
C735 C719 1.377 . S
C735 C733 1.389 1_545 S
C735 C736 1.524 . S
C736 C735 1.524 . S
C736 C737 1.397 . S
C736 C741 1.363 . S
C737 H708 0.950 . S
C737 C736 1.397 . S
C737 C738 1.334 . S
C738 H709 0.950 . S
C738 C737 1.334 . S
C738 C739 1.287 . S
C739 C738 1.287 . S
C739 C740 1.524 . S
C739 H742 0.999 . S
C740 H710 0.950 . S
C740 C739 1.524 . S
C740 C741 1.415 . S
C741 H711 0.950 . S
C741 C736 1.363 . S
C741 C740 1.415 . S
H742 C739 0.999 . S
H743 C724 0.913 . S
H744 C762 0.951 . S
H745 C764 0.951 . S
H746 C766 0.950 . S
H747 C767 0.950 . S
H748 C769 0.950 . S
H749 C772 0.950 . S
H750 C773 0.950 . S
H751 C775 0.950 . S
H752 C776 0.950 . S
H753 C777 0.951 . S
H754 C779 0.951 . S
H755 C781 0.950 . S
H756 C782 0.950 . S
H757 C784 0.950 . S
H758 C787 0.950 . S
H759 C788 0.950 . S
H760 C790 0.950 . S
H761 C791 0.950 . S
C762 H744 0.951 . S
C762 C763 1.366 . S
C762 C764 1.388 . S
C763 C762 1.366 . S
C763 C767 1.385 . S
C764 H745 0.951 . S
C764 C762 1.388 . S
C764 C765 1.366 . S
C765 C764 1.366 . S
C765 C766 1.414 . S
C765 C768 1.499 . S
C766 H746 0.950 . S
C766 C765 1.414 . S
C766 C767 1.374 . S
C767 H747 0.950 . S
C767 C763 1.385 . S
C767 C766 1.374 . S
C768 C765 1.499 . S
C768 C769 1.373 . S
C768 C770 1.389 . S
C769 H748 0.950 . S
C769 C768 1.373 . S
C769 C785 1.377 . S
C770 C768 1.389 . S
C770 C771 1.524 . S
C770 C784 1.377 . S
C771 C770 1.524 . S
C771 C772 1.397 . S
C771 C776 1.363 . S
C772 H749 0.950 . S
C772 C771 1.397 . S
C772 C773 1.334 . S
C773 H750 0.950 . S
C773 C772 1.334 . S
C773 C774 1.287 . S
C774 C773 1.287 . S
C774 C775 1.524 . S
C774 H793 0.913 . S
C775 H751 0.950 . S
C775 C774 1.524 . S
C775 C776 1.415 . S
C776 H752 0.950 . S
C776 C771 1.363 . S
C776 C775 1.415 . S
C777 H753 0.951 . S
C777 C778 1.366 . S
C777 C779 1.388 . S
C778 C777 1.366 . S
C778 C782 1.385 . S
C779 H754 0.951 . S
C779 C777 1.388 . S
C779 C780 1.366 . S
C780 C779 1.366 . S
C780 C781 1.414 . S
C780 C783 1.499 . S
C781 H755 0.950 . S
C781 C780 1.414 . S
C781 C782 1.374 . S
C782 H756 0.950 . S
C782 C778 1.385 . S
C782 C781 1.374 . S
C783 C780 1.499 . S
C783 C784 1.373 . S
C783 C785 1.389 . S
C784 H757 0.950 . S
C784 C770 1.377 . S
C784 C783 1.373 . S
C785 C769 1.377 . S
C785 C783 1.389 . S
C785 C786 1.524 . S
C786 C785 1.524 . S
C786 C787 1.397 . S
C786 C791 1.363 . S
C787 H758 0.950 . S
C787 C786 1.397 . S
C787 C788 1.334 . S
C788 H759 0.950 . S
C788 C787 1.334 . S
C788 C789 1.287 . S
C789 C788 1.287 . S
C789 C790 1.524 . S
C789 H792 0.999 . S
C790 H760 0.950 . S
C790 C789 1.524 . S
C790 C791 1.415 . S
C791 H761 0.950 . S
C791 C786 1.363 . S
C791 C790 1.415 . S
H792 C789 0.999 . S
H793 C774 0.913 . S
H794 C812 0.951 . S
H795 C814 0.951 . S
H796 C816 0.950 . S
H797 C817 0.950 . S
H798 C819 0.950 . S
H799 C822 0.950 . S
H800 C823 0.950 . S
H801 C825 0.950 . S
H802 C826 0.950 . S
H803 C827 0.951 . S
H804 C829 0.951 . S
H805 C831 0.950 . S
H806 C832 0.950 . S
H807 C834 0.950 . S
H808 C837 0.950 . S
H809 C838 0.950 . S
H810 C840 0.950 . S
H811 C841 0.950 . S
C812 H794 0.951 . S
C812 C813 1.366 . S
C812 C814 1.388 . S
C813 C812 1.366 . S
C813 C817 1.385 . S
C814 H795 0.951 . S
C814 C812 1.388 . S
C814 C815 1.366 . S
C815 C814 1.366 . S
C815 C816 1.414 . S
C815 C818 1.499 . S
C816 H796 0.950 . S
C816 C815 1.414 . S
C816 C817 1.374 . S
C817 H797 0.950 . S
C817 C813 1.385 . S
C817 C816 1.374 . S
C818 C815 1.499 . S
C818 C819 1.373 . S
C818 C820 1.389 . S
C819 H798 0.950 . S
C819 C818 1.373 . S
C819 C835 1.377 . S
C820 C818 1.389 . S
C820 C821 1.524 . S
C820 C834 1.377 . S
C821 C820 1.524 . S
C821 C822 1.397 . S
C821 C826 1.363 . S
C822 H799 0.950 . S
C822 C821 1.397 . S
C822 C823 1.334 . S
C823 H800 0.950 . S
C823 C822 1.334 . S
C823 C824 1.287 . S
C824 C823 1.287 . S
C824 C825 1.524 . S
C824 H843 0.913 . S
C825 H801 0.950 . S
C825 C824 1.524 . S
C825 C826 1.415 . S
C826 H802 0.950 . S
C826 C821 1.363 . S
C826 C825 1.415 . S
C827 H803 0.951 . S
C827 C828 1.366 . S
C827 C829 1.388 . S
C828 C827 1.366 . S
C828 C832 1.385 . S
C829 H804 0.951 . S
C829 C827 1.388 . S
C829 C830 1.366 . S
C830 C829 1.366 . S
C830 C831 1.414 . S
C830 C833 1.499 . S
C831 H805 0.950 . S
C831 C830 1.414 . S
C831 C832 1.374 . S
C832 H806 0.950 . S
C832 C828 1.385 . S
C832 C831 1.374 . S
C833 C830 1.499 . S
C833 C834 1.373 . S
C833 C835 1.389 . S
C834 H807 0.950 . S
C834 C820 1.377 . S
C834 C833 1.373 . S
C835 C819 1.377 . S
C835 C833 1.389 . S
C835 C836 1.524 . S
C836 C835 1.524 . S
C836 C837 1.397 . S
C836 C841 1.363 . S
C837 H808 0.950 . S
C837 C836 1.397 . S
C837 C838 1.334 . S
C838 H809 0.950 . S
C838 C837 1.334 . S
C838 C839 1.287 . S
C839 C838 1.287 . S
C839 C840 1.524 . S
C839 H842 0.999 . S
C840 H810 0.950 . S
C840 C839 1.524 . S
C840 C841 1.415 . S
C841 H811 0.950 . S
C841 C836 1.363 . S
C841 C840 1.415 . S
H842 C839 0.999 . S
H843 C824 0.913 . S
H844 C862 0.951 . S
H845 C864 0.951 . S
H846 C866 0.950 . S
H847 C867 0.950 . S
H848 C869 0.950 . S
H849 C872 0.950 . S
H850 C873 0.950 . S
H851 C875 0.950 . S
H852 C876 0.950 . S
H853 C877 0.951 . S
H854 C879 0.951 . S
H855 C881 0.950 . S
H856 C882 0.950 . S
H857 C884 0.950 . S
H858 C887 0.950 . S
H859 C888 0.950 . S
H860 C890 0.950 . S
H861 C891 0.950 . S
C862 H844 0.951 . S
C862 C863 1.366 . S
C862 C864 1.388 . S
C863 C862 1.366 . S
C863 C867 1.385 . S
C864 H845 0.951 . S
C864 C862 1.388 . S
C864 C865 1.366 . S
C865 C864 1.366 . S
C865 C866 1.414 . S
C865 C868 1.499 . S
C866 H846 0.950 . S
C866 C865 1.414 . S
C866 C867 1.374 . S
C867 H847 0.950 . S
C867 C863 1.385 . S
C867 C866 1.374 . S
C868 C865 1.499 . S
C868 C869 1.373 . S
C868 C870 1.389 . S
C869 H848 0.950 . S
C869 C868 1.373 . S
C869 C885 1.377 . S
C870 C868 1.389 . S
C870 C871 1.524 . S
C870 C884 1.377 . S
C871 C870 1.524 . S
C871 C872 1.397 . S
C871 C876 1.363 . S
C872 H849 0.950 . S
C872 C871 1.397 . S
C872 C873 1.334 . S
C873 H850 0.950 . S
C873 C872 1.334 . S
C873 C874 1.287 . S
C874 C873 1.287 . S
C874 C875 1.524 . S
C874 H893 0.913 . S
C875 H851 0.950 . S
C875 C874 1.524 . S
C875 C876 1.415 . S
C876 H852 0.950 . S
C876 C871 1.363 . S
C876 C875 1.415 . S
C877 H853 0.951 . S
C877 C878 1.366 . S
C877 C879 1.388 . S
C878 C877 1.366 . S
C878 C882 1.385 . S
C879 H854 0.951 . S
C879 C877 1.388 . S
C879 C880 1.366 . S
C880 C879 1.366 . S
C880 C881 1.414 . S
C880 C883 1.499 . S
C881 H855 0.950 . S
C881 C880 1.414 . S
C881 C882 1.374 . S
C882 H856 0.950 . S
C882 C878 1.385 . S
C882 C881 1.374 . S
C883 C880 1.499 . S
C883 C884 1.373 . S
C883 C885 1.389 . S
C884 H857 0.950 . S
C884 C870 1.377 . S
C884 C883 1.373 . S
C885 C869 1.377 . S
C885 C883 1.389 . S
C885 C886 1.524 . S
C886 C885 1.524 . S
C886 C887 1.397 . S
C886 C891 1.363 . S
C887 H858 0.950 . S
C887 C886 1.397 . S
C887 C888 1.334 . S
C888 H859 0.950 . S
C888 C887 1.334 . S
C888 C889 1.287 . S
C889 C888 1.287 . S
C889 C890 1.524 . S
C889 H892 0.999 . S
C890 H860 0.950 . S
C890 C889 1.524 . S
C890 C891 1.415 . S
C891 H861 0.950 . S
C891 C886 1.363 . S
C891 C890 1.415 . S
H892 C889 0.999 . S
H893 C874 0.913 . S
H894 C912 0.951 . S
H895 C914 0.951 . S
H896 C916 0.950 . S
H897 C917 0.950 . S
H898 C919 0.950 . S
H899 C922 0.950 . S
H900 C923 0.950 . S
H901 C925 0.950 . S
H902 C926 0.950 . S
H903 C927 0.951 . S
H904 C929 0.951 . S
H905 C931 0.950 . S
H906 C932 0.950 . S
H907 C934 0.950 . S
H908 C937 0.950 . S
H909 C938 0.950 . S
H910 C940 0.950 . S
H911 C941 0.950 . S
C912 H894 0.951 . S
C912 C913 1.366 . S
C912 C914 1.388 . S
C913 C912 1.366 . S
C913 C917 1.385 . S
C914 H895 0.951 . S
C914 C912 1.388 . S
C914 C915 1.366 . S
C915 C914 1.366 . S
C915 C916 1.414 . S
C915 C918 1.499 . S
C916 H896 0.950 . S
C916 C915 1.414 . S
C916 C917 1.374 . S
C917 H897 0.950 . S
C917 C913 1.385 . S
C917 C916 1.374 . S
C918 C915 1.499 . S
C918 C919 1.373 . S
C918 C920 1.389 . S
C919 H898 0.950 . S
C919 C918 1.373 . S
C919 C935 1.377 . S
C920 C918 1.389 . S
C920 C921 1.524 . S
C920 C934 1.377 . S
C921 C920 1.524 . S
C921 C922 1.397 . S
C921 C926 1.363 . S
C922 H899 0.950 . S
C922 C921 1.397 . S
C922 C923 1.334 . S
C923 H900 0.950 . S
C923 C922 1.334 . S
C923 C924 1.287 . S
C924 C923 1.287 . S
C924 C925 1.524 . S
C924 H943 0.913 . S
C925 H901 0.950 . S
C925 C924 1.524 . S
C925 C926 1.415 . S
C926 H902 0.950 . S
C926 C921 1.363 . S
C926 C925 1.415 . S
C927 H903 0.951 . S
C927 C928 1.366 . S
C927 C929 1.388 . S
C928 C927 1.366 . S
C928 C932 1.385 . S
C929 H904 0.951 . S
C929 C927 1.388 . S
C929 C930 1.366 . S
C930 C929 1.366 . S
C930 C931 1.414 . S
C930 C933 1.499 . S
C931 H905 0.950 . S
C931 C930 1.414 . S
C931 C932 1.374 . S
C932 H906 0.950 . S
C932 C928 1.385 . S
C932 C931 1.374 . S
C933 C930 1.499 . S
C933 C934 1.373 . S
C933 C935 1.389 . S
C934 H907 0.950 . S
C934 C920 1.377 . S
C934 C933 1.373 . S
C935 C919 1.377 . S
C935 C933 1.389 . S
C935 C936 1.524 . S
C936 C935 1.524 . S
C936 C937 1.397 . S
C936 C941 1.363 . S
C937 H908 0.950 . S
C937 C936 1.397 . S
C937 C938 1.334 . S
C938 H909 0.950 . S
C938 C937 1.334 . S
C938 C939 1.287 . S
C939 C938 1.287 . S
C939 C940 1.524 . S
C939 H942 0.999 . S
C940 H910 0.950 . S
C940 C939 1.524 . S
C940 C941 1.415 . S
C941 H911 0.950 . S
C941 C936 1.363 . S
C941 C940 1.415 . S
H942 C939 0.999 . S
H943 C924 0.913 . S
H944 C962 0.951 . S
H945 C964 0.951 . S
H946 C966 0.950 . S
H947 C967 0.950 . S
H948 C969 0.950 . S
H949 C972 0.950 . S
H950 C973 0.950 . S
H951 C975 0.950 . S
H952 C976 0.950 . S
H953 C977 0.951 . S
H954 C979 0.951 . S
H955 C981 0.950 . S
H956 C982 0.950 . S
H957 C984 0.950 . S
H958 C987 0.950 . S
H959 C988 0.950 . S
H960 C990 0.950 . S
H961 C991 0.950 . S
C962 H944 0.951 . S
C962 C963 1.366 . S
C962 C964 1.388 . S
C963 C962 1.366 . S
C963 C967 1.385 . S
C964 H945 0.951 . S
C964 C962 1.388 . S
C964 C965 1.366 . S
C965 C964 1.366 . S
C965 C966 1.414 . S
C965 C968 1.499 . S
C966 H946 0.950 . S
C966 C965 1.414 . S
C966 C967 1.374 . S
C967 H947 0.950 . S
C967 C963 1.385 . S
C967 C966 1.374 . S
C968 C965 1.499 . S
C968 C969 1.373 . S
C968 C970 1.389 . S
C969 H948 0.950 . S
C969 C968 1.373 . S
C969 C985 1.377 . S
C970 C968 1.389 . S
C970 C971 1.524 . S
C970 C984 1.377 . S
C971 C970 1.524 . S
C971 C972 1.397 . S
C971 C976 1.363 . S
C972 H949 0.950 . S
C972 C971 1.397 . S
C972 C973 1.334 . S
C973 H950 0.950 . S
C973 C972 1.334 . S
C973 C974 1.287 . S
C974 C973 1.287 . S
C974 C975 1.524 . S
C974 H993 0.913 . S
C975 H951 0.950 . S
C975 C974 1.524 . S
C975 C976 1.415 . S
C976 H952 0.950 . S
C976 C971 1.363 . S
C976 C975 1.415 . S
C977 H953 0.951 . S
C977 C978 1.366 . S
C977 C979 1.388 . S
C978 C977 1.366 . S
C978 C982 1.385 . S
C979 H954 0.951 . S
C979 C977 1.388 . S
C979 C980 1.366 . S
C980 C979 1.366 . S
C980 C981 1.414 . S
C980 C983 1.499 . S
C981 H955 0.950 . S
C981 C980 1.414 . S
C981 C982 1.374 . S
C982 H956 0.950 . S
C982 C978 1.385 . S
C982 C981 1.374 . S
C983 C980 1.499 . S
C983 C984 1.373 . S
C983 C985 1.389 . S
C984 H957 0.950 . S
C984 C970 1.377 . S
C984 C983 1.373 . S
C985 C969 1.377 . S
C985 C983 1.389 . S
C985 C986 1.524 . S
C986 C985 1.524 . S
C986 C987 1.397 . S
C986 C991 1.363 . S
C987 H958 0.950 . S
C987 C986 1.397 . S
C987 C988 1.334 . S
C988 H959 0.950 . S
C988 C987 1.334 . S
C988 C989 1.287 . S
C989 C988 1.287 . S
C989 C990 1.524 . S
C989 H992 0.999 . S
C990 H960 0.950 . S
C990 C989 1.524 . S
C990 C991 1.415 . S
C991 H961 0.950 . S
C991 C986 1.363 . S
C991 C990 1.415 . S
H992 C989 0.999 . S
H993 C974 0.913 . S
H994 C1012 0.951 . S
H995 C1014 0.951 . S
H996 C1016 0.950 . S
H997 C1017 0.950 . S
H998 C1019 0.950 . S
H999 C1022 0.950 . S
H1000 C1023 0.950 . S
H1001 C1025 0.950 . S
H1002 C1026 0.950 . S
H1003 C1027 0.951 1_655 S
H1004 C1029 0.951 . S
H1005 C1031 0.950 . S
H1006 C1032 0.950 . S
H1007 C1034 0.950 . S
H1008 C1037 0.984 . S
H1009 C1038 0.950 . S
H1010 C1040 0.950 . S
H1011 C1041 0.950 . S
C1012 H994 0.951 . S
C1012 C1013 1.366 . S
C1012 C1014 1.388 . S
C1013 C1012 1.366 . S
C1013 C1017 1.385 . S
C1014 H995 0.951 . S
C1014 C1012 1.388 . S
C1014 C1015 1.366 . S
C1015 C1014 1.366 . S
C1015 C1016 1.414 . S
C1015 C1018 1.499 . S
C1016 H996 0.950 . S
C1016 C1015 1.414 . S
C1016 C1017 1.374 . S
C1017 H997 0.950 . S
C1017 C1013 1.385 . S
C1017 C1016 1.374 . S
C1018 C1015 1.499 . S
C1018 C1019 1.373 . S
C1018 C1020 1.389 . S
C1019 H998 0.950 . S
C1019 C1018 1.373 . S
C1019 C1035 1.377 . S
C1020 C1018 1.389 . S
C1020 C1021 1.524 . S
C1020 C1034 1.377 . S
C1021 C1020 1.524 . S
C1021 C1022 1.397 . S
C1021 C1026 1.363 . S
C1022 H999 0.950 . S
C1022 C1021 1.397 . S
C1022 C1023 1.334 . S
C1023 H1000 0.950 . S
C1023 C1022 1.334 . S
C1023 C1024 1.287 . S
C1024 C1023 1.287 . S
C1024 C1025 1.524 . S
C1024 H1043 0.913 . S
C1025 H1001 0.950 . S
C1025 C1024 1.524 . S
C1025 C1026 1.415 . S
C1026 H1002 0.950 . S
C1026 C1021 1.363 . S
C1026 C1025 1.415 . S
C1027 H1003 0.951 1_455 S
C1027 C1028 1.366 . S
C1027 C1029 1.388 . S
C1028 C1027 1.366 . S
C1028 C1032 1.385 . S
C1029 H1004 0.951 . S
C1029 C1027 1.388 . S
C1029 C1030 1.366 . S
C1030 C1029 1.366 . S
C1030 C1031 1.414 . S
C1030 C1033 1.499 . S
C1031 H1005 0.950 . S
C1031 C1030 1.414 . S
C1031 C1032 1.374 . S
C1032 H1006 0.950 . S
C1032 C1028 1.385 . S
C1032 C1031 1.374 . S
C1033 C1030 1.499 . S
C1033 C1034 1.373 . S
C1033 C1035 1.389 . S
C1034 H1007 0.950 . S
C1034 C1020 1.377 . S
C1034 C1033 1.373 . S
C1035 C1019 1.377 . S
C1035 C1033 1.389 . S
C1035 C1036 1.555 . S
C1036 C1035 1.555 . S
C1036 C1037 1.397 . S
C1036 C1041 1.336 1_455 S
C1037 H1008 0.984 . S
C1037 C1036 1.397 . S
C1037 C1038 1.298 1_455 S
C1038 H1009 0.950 . S
C1038 C1037 1.298 1_655 S
C1038 C1039 1.287 . S
C1039 C1038 1.287 . S
C1039 C1040 1.524 . S
C1039 H1042 0.999 . S
C1040 H1010 0.950 . S
C1040 C1039 1.524 . S
C1040 C1041 1.415 . S
C1041 H1011 0.950 . S
C1041 C1036 1.336 1_655 S
C1041 C1040 1.415 . S
H1042 C1039 0.999 . S
H1043 C1024 0.913 . S
H1044 C1062 0.951 . S
H1045 C1064 0.951 . S
H1046 C1066 0.950 . S
H1047 C1067 0.950 . S
H1048 C1069 0.950 . S
H1049 C1072 0.950 . S
H1050 C1073 0.950 . S
H1051 C1075 0.950 . S
H1052 C1076 0.950 . S
H1053 C1077 0.951 . S
H1054 C1079 0.951 . S
H1055 C1081 0.950 . S
H1056 C1082 0.950 . S
H1057 C1084 0.950 . S
H1058 C1087 0.950 . S
H1059 C1088 0.950 . S
H1060 C1090 0.950 . S
H1061 C1091 0.950 . S
C1062 H1044 0.951 . S
C1062 C1063 1.366 . S
C1062 C1064 1.388 . S
C1063 C1062 1.366 . S
C1063 C1067 1.385 . S
C1064 H1045 0.951 . S
C1064 C1062 1.388 . S
C1064 C1065 1.366 . S
C1065 C1064 1.366 . S
C1065 C1066 1.414 . S
C1065 C1068 1.499 . S
C1066 H1046 0.950 . S
C1066 C1065 1.414 . S
C1066 C1067 1.374 . S
C1067 H1047 0.950 . S
C1067 C1063 1.385 . S
C1067 C1066 1.374 . S
C1068 C1065 1.499 . S
C1068 C1069 1.373 . S
C1068 C1070 1.389 . S
C1069 H1048 0.950 . S
C1069 C1068 1.373 . S
C1069 C1085 1.377 . S
C1070 C1068 1.389 . S
C1070 C1071 1.524 . S
C1070 C1084 1.377 . S
C1071 C1070 1.524 . S
C1071 C1072 1.397 . S
C1071 C1076 1.363 . S
C1072 H1049 0.950 . S
C1072 C1071 1.397 . S
C1072 C1073 1.334 . S
C1073 H1050 0.950 . S
C1073 C1072 1.334 . S
C1073 C1074 1.287 . S
C1074 C1073 1.287 . S
C1074 C1075 1.524 . S
C1074 H1093 0.913 . S
C1075 H1051 0.950 . S
C1075 C1074 1.524 . S
C1075 C1076 1.415 . S
C1076 H1052 0.950 . S
C1076 C1071 1.363 . S
C1076 C1075 1.415 . S
C1077 H1053 0.951 . S
C1077 C1078 1.366 . S
C1077 C1079 1.388 . S
C1078 C1077 1.366 . S
C1078 C1082 1.385 . S
C1079 H1054 0.951 . S
C1079 C1077 1.388 . S
C1079 C1080 1.366 . S
C1080 C1079 1.366 . S
C1080 C1081 1.414 . S
C1080 C1083 1.499 . S
C1081 H1055 0.950 . S
C1081 C1080 1.414 . S
C1081 C1082 1.374 . S
C1082 H1056 0.950 . S
C1082 C1078 1.385 . S
C1082 C1081 1.374 . S
C1083 C1080 1.499 . S
C1083 C1084 1.373 . S
C1083 C1085 1.389 . S
C1084 H1057 0.950 . S
C1084 C1070 1.377 . S
C1084 C1083 1.373 . S
C1085 C1069 1.377 . S
C1085 C1083 1.389 . S
C1085 C1086 1.524 . S
C1086 C1085 1.524 . S
C1086 C1087 1.397 . S
C1086 C1091 1.363 . S
C1087 H1058 0.950 . S
C1087 C1086 1.397 . S
C1087 C1088 1.334 . S
C1088 H1059 0.950 . S
C1088 C1087 1.334 . S
C1088 C1089 1.287 . S
C1089 C1088 1.287 . S
C1089 C1090 1.524 . S
C1089 H1092 0.999 . S
C1090 H1060 0.950 . S
C1090 C1089 1.524 . S
C1090 C1091 1.415 . S
C1091 H1061 0.950 . S
C1091 C1086 1.363 . S
C1091 C1090 1.415 . S
H1092 C1089 0.999 . S
H1093 C1074 0.913 . S
H1094 C1112 0.951 . S
H1095 C1114 0.951 . S
H1096 C1116 0.950 . S
H1097 C1117 0.950 . S
H1098 C1119 0.950 . S
H1099 C1122 0.950 . S
H1100 C1123 0.950 . S
H1101 C1125 0.950 . S
H1102 C1126 0.950 . S
H1103 C1127 0.951 . S
H1104 C1129 0.951 . S
H1105 C1131 0.950 . S
H1106 C1132 0.950 . S
H1107 C1134 0.950 . S
H1108 C1137 0.950 . S
H1109 C1138 0.950 . S
H1110 C1140 0.950 . S
H1111 C1141 0.950 . S
C1112 H1094 0.951 . S
C1112 C1113 1.366 . S
C1112 C1114 1.388 . S
C1113 C1112 1.366 . S
C1113 C1117 1.385 . S
C1114 H1095 0.951 . S
C1114 C1112 1.388 . S
C1114 C1115 1.366 . S
C1115 C1114 1.366 . S
C1115 C1116 1.414 . S
C1115 C1118 1.499 . S
C1116 H1096 0.950 . S
C1116 C1115 1.414 . S
C1116 C1117 1.374 . S
C1117 H1097 0.950 . S
C1117 C1113 1.385 . S
C1117 C1116 1.374 . S
C1118 C1115 1.499 . S
C1118 C1119 1.373 . S
C1118 C1120 1.389 1_655 S
C1119 H1098 0.950 . S
C1119 C1118 1.373 . S
C1119 C1135 1.377 . S
C1120 C1118 1.389 1_455 S
C1120 C1121 1.524 . S
C1120 C1134 1.377 . S
C1121 C1120 1.524 . S
C1121 C1122 1.397 . S
C1121 C1126 1.363 . S
C1122 H1099 0.950 . S
C1122 C1121 1.397 . S
C1122 C1123 1.334 . S
C1123 H1100 0.950 . S
C1123 C1122 1.334 . S
C1123 C1124 1.287 . S
C1124 C1123 1.287 . S
C1124 C1125 1.524 . S
C1124 H1143 0.913 . S
C1125 H1101 0.950 . S
C1125 C1124 1.524 . S
C1125 C1126 1.415 . S
C1126 H1102 0.950 . S
C1126 C1121 1.363 . S
C1126 C1125 1.415 . S
C1127 H1103 0.951 . S
C1127 C1128 1.366 . S
C1127 C1129 1.388 . S
C1128 C1127 1.366 . S
C1128 C1132 1.385 . S
C1129 H1104 0.951 . S
C1129 C1127 1.388 . S
C1129 C1130 1.366 . S
C1130 C1129 1.366 . S
C1130 C1131 1.414 . S
C1130 C1133 1.499 . S
C1131 H1105 0.950 . S
C1131 C1130 1.414 . S
C1131 C1132 1.374 . S
C1132 H1106 0.950 . S
C1132 C1128 1.385 . S
C1132 C1131 1.374 . S
C1133 C1130 1.499 . S
C1133 C1134 1.373 1_655 S
C1133 C1135 1.389 . S
C1134 H1107 0.950 . S
C1134 C1120 1.377 . S
C1134 C1133 1.373 1_455 S
C1135 C1119 1.377 . S
C1135 C1133 1.389 . S
C1135 C1136 1.524 . S
C1136 C1135 1.524 . S
C1136 C1137 1.397 . S
C1136 C1141 1.363 . S
C1137 H1108 0.950 . S
C1137 C1136 1.397 . S
C1137 C1138 1.334 . S
C1138 H1109 0.950 . S
C1138 C1137 1.334 . S
C1138 C1139 1.287 . S
C1139 C1138 1.287 . S
C1139 C1140 1.524 . S
C1139 H1142 0.999 . S
C1140 H1110 0.950 . S
C1140 C1139 1.524 . S
C1140 C1141 1.415 . S
C1141 H1111 0.950 . S
C1141 C1136 1.363 . S
C1141 C1140 1.415 . S
H1142 C1139 0.999 . S
H1143 C1124 0.913 . S
H1144 C1162 0.951 . S
H1145 C1164 0.951 . S
H1146 C1166 0.950 . S
H1147 C1167 0.950 . S
H1148 C1169 0.950 . S
H1149 C1172 0.950 . S
H1150 C1173 0.950 . S
H1151 C1175 0.950 . S
H1152 C1176 0.950 . S
H1153 C1177 0.951 . S
H1154 C1179 0.951 . S
H1155 C1181 0.950 . S
H1156 C1182 0.950 . S
H1157 C1184 0.950 . S
H1158 C1187 0.950 . S
H1159 C1188 0.950 . S
H1160 C1190 0.950 . S
H1161 C1191 0.950 . S
C1162 H1144 0.951 . S
C1162 C1163 1.366 . S
C1162 C1164 1.388 . S
C1163 C1162 1.366 . S
C1163 C1167 1.385 . S
C1164 H1145 0.951 . S
C1164 C1162 1.388 . S
C1164 C1165 1.366 . S
C1165 C1164 1.366 . S
C1165 C1166 1.414 . S
C1165 C1168 1.499 . S
C1166 H1146 0.950 . S
C1166 C1165 1.414 . S
C1166 C1167 1.374 . S
C1167 H1147 0.950 . S
C1167 C1163 1.385 . S
C1167 C1166 1.374 . S
C1168 C1165 1.499 . S
C1168 C1169 1.373 . S
C1168 C1170 1.389 . S
C1169 H1148 0.950 . S
C1169 C1168 1.373 . S
C1169 C1185 1.377 . S
C1170 C1168 1.389 . S
C1170 C1171 1.524 . S
C1170 C1184 1.377 . S
C1171 C1170 1.524 . S
C1171 C1172 1.397 . S
C1171 C1176 1.363 . S
C1172 H1149 0.950 . S
C1172 C1171 1.397 . S
C1172 C1173 1.334 . S
C1173 H1150 0.950 . S
C1173 C1172 1.334 . S
C1173 C1174 1.287 . S
C1174 C1173 1.287 . S
C1174 C1175 1.524 . S
C1174 H1193 0.913 . S
C1175 H1151 0.950 . S
C1175 C1174 1.524 . S
C1175 C1176 1.415 . S
C1176 H1152 0.950 . S
C1176 C1171 1.363 . S
C1176 C1175 1.415 . S
C1177 H1153 0.951 . S
C1177 C1178 1.366 . S
C1177 C1179 1.388 . S
C1178 C1177 1.366 . S
C1178 C1182 1.385 . S
C1179 H1154 0.951 . S
C1179 C1177 1.388 . S
C1179 C1180 1.366 . S
C1180 C1179 1.366 . S
C1180 C1181 1.414 . S
C1180 C1183 1.499 . S
C1181 H1155 0.950 . S
C1181 C1180 1.414 . S
C1181 C1182 1.374 . S
C1182 H1156 0.950 . S
C1182 C1178 1.385 . S
C1182 C1181 1.374 . S
C1183 C1180 1.499 . S
C1183 C1184 1.373 . S
C1183 C1185 1.389 . S
C1184 H1157 0.950 . S
C1184 C1170 1.377 . S
C1184 C1183 1.373 . S
C1185 C1169 1.377 . S
C1185 C1183 1.389 . S
C1185 C1186 1.524 . S
C1186 C1185 1.524 . S
C1186 C1187 1.397 . S
C1186 C1191 1.363 . S
C1187 H1158 0.950 . S
C1187 C1186 1.397 . S
C1187 C1188 1.334 . S
C1188 H1159 0.950 . S
C1188 C1187 1.334 . S
C1188 C1189 1.287 . S
C1189 C1188 1.287 . S
C1189 C1190 1.524 . S
C1189 H1192 0.999 . S
C1190 H1160 0.950 . S
C1190 C1189 1.524 . S
C1190 C1191 1.415 . S
C1191 H1161 0.950 . S
C1191 C1186 1.363 . S
C1191 C1190 1.415 . S
H1192 C1189 0.999 . S
H1193 C1174 0.913 . S
H1194 C1212 0.951 . S
H1195 C1214 0.951 . S
H1196 C1216 0.950 . S
H1197 C1217 0.950 . S
H1198 C1219 0.950 . S
H1199 C1222 0.950 . S
H1200 C1223 0.950 . S
H1201 C1225 0.950 . S
H1202 C1226 0.950 . S
H1203 C1227 0.951 . S
H1204 C1229 0.951 . S
H1205 C1231 0.950 . S
H1206 C1232 0.950 . S
H1207 C1234 0.950 . S
H1208 C1237 0.950 . S
H1209 C1238 0.950 . S
H1210 C1240 0.950 . S
H1211 C1241 0.950 . S
C1212 H1194 0.951 . S
C1212 C1213 1.366 . S
C1212 C1214 1.388 . S
C1213 C1212 1.366 . S
C1213 C1217 1.385 . S
C1214 H1195 0.951 . S
C1214 C1212 1.388 . S
C1214 C1215 1.366 . S
C1215 C1214 1.366 . S
C1215 C1216 1.414 . S
C1215 C1218 1.499 . S
C1216 H1196 0.950 . S
C1216 C1215 1.414 . S
C1216 C1217 1.374 . S
C1217 H1197 0.950 . S
C1217 C1213 1.385 . S
C1217 C1216 1.374 . S
C1218 C1215 1.499 . S
C1218 C1219 1.373 . S
C1218 C1220 1.389 . S
C1219 H1198 0.950 . S
C1219 C1218 1.373 . S
C1219 C1235 1.377 . S
C1220 C1218 1.389 . S
C1220 C1221 1.524 . S
C1220 C1234 1.377 . S
C1221 C1220 1.524 . S
C1221 C1222 1.397 . S
C1221 C1226 1.363 . S
C1222 H1199 0.950 . S
C1222 C1221 1.397 . S
C1222 C1223 1.334 . S
C1223 H1200 0.950 . S
C1223 C1222 1.334 . S
C1223 C1224 1.287 . S
C1224 C1223 1.287 . S
C1224 C1225 1.524 . S
C1224 H1243 0.913 . S
C1225 H1201 0.950 . S
C1225 C1224 1.524 . S
C1225 C1226 1.415 . S
C1226 H1202 0.950 . S
C1226 C1221 1.363 . S
C1226 C1225 1.415 . S
C1227 H1203 0.951 . S
C1227 C1228 1.366 . S
C1227 C1229 1.388 . S
C1228 C1227 1.366 . S
C1228 C1232 1.385 . S
C1229 H1204 0.951 . S
C1229 C1227 1.388 . S
C1229 C1230 1.366 . S
C1230 C1229 1.366 . S
C1230 C1231 1.414 . S
C1230 C1233 1.499 . S
C1231 H1205 0.950 . S
C1231 C1230 1.414 . S
C1231 C1232 1.374 . S
C1232 H1206 0.950 . S
C1232 C1228 1.385 . S
C1232 C1231 1.374 . S
C1233 C1230 1.499 . S
C1233 C1234 1.373 . S
C1233 C1235 1.389 . S
C1234 H1207 0.950 . S
C1234 C1220 1.377 . S
C1234 C1233 1.373 . S
C1235 C1219 1.377 . S
C1235 C1233 1.389 . S
C1235 C1236 1.524 . S
C1236 C1235 1.524 . S
C1236 C1237 1.397 . S
C1236 C1241 1.363 . S
C1237 H1208 0.950 . S
C1237 C1236 1.397 . S
C1237 C1238 1.334 . S
C1238 H1209 0.950 . S
C1238 C1237 1.334 . S
C1238 C1239 1.287 . S
C1239 C1238 1.287 . S
C1239 C1240 1.524 . S
C1239 H1242 0.999 . S
C1240 H1210 0.950 . S
C1240 C1239 1.524 . S
C1240 C1241 1.415 . S
C1241 H1211 0.950 . S
C1241 C1236 1.363 . S
C1241 C1240 1.415 . S
H1242 C1239 0.999 . S
H1243 C1224 0.913 . S
H1244 C1262 0.951 . S
H1245 C1264 0.965 . S
H1246 C1266 0.950 . S
H1247 C1267 0.950 . S
H1248 C1269 0.950 . S
H1249 C1272 0.950 1_565 S
H1250 C1273 0.950 . S
H1251 C1275 0.950 . S
H1252 C1276 0.950 . S
H1253 C1277 0.951 . S
H1254 C1279 0.951 . S
H1255 C1281 0.950 . S
H1256 C1282 0.950 . S
H1257 C1284 0.950 . S
H1258 C1287 0.950 . S
H1259 C1288 0.950 . S
H1260 C1290 0.950 . S
H1261 C1291 0.950 . S
C1262 H1244 0.951 . S
C1262 C1263 1.366 . S
C1262 C1264 1.402 . S
C1263 C1262 1.366 . S
C1263 C1267 1.385 1_545 S
C1264 H1245 0.965 . S
C1264 C1262 1.402 . S
C1264 C1265 1.338 1_545 S
C1265 C1264 1.338 1_565 S
C1265 C1266 1.414 . S
C1265 C1268 1.522 . S
C1266 H1246 0.950 . S
C1266 C1265 1.414 . S
C1266 C1267 1.374 . S
C1267 H1247 0.950 . S
C1267 C1263 1.385 1_565 S
C1267 C1266 1.374 . S
C1268 C1265 1.522 . S
C1268 C1269 1.389 . S
C1268 C1270 1.357 1_556 S
C1269 H1248 0.950 . S
C1269 C1268 1.389 . S
C1269 C1285 1.377 . S
C1270 C1268 1.357 1_554 S
C1270 C1271 1.513 1_565 S
C1270 C1284 1.377 . S
C1271 C1270 1.513 1_545 S
C1271 C1272 1.398 . S
C1271 C1276 1.373 . S
C1272 H1249 0.950 1_545 S
C1272 C1271 1.398 . S
C1272 C1273 1.334 . S
C1273 H1250 0.950 . S
C1273 C1272 1.334 . S
C1273 C1274 1.287 . S
C1274 C1273 1.287 . S
C1274 C1275 1.524 . S
C1274 H1293 0.913 . S
C1275 H1251 0.950 . S
C1275 C1274 1.524 . S
C1275 C1276 1.415 . S
C1276 H1252 0.950 . S
C1276 C1271 1.373 . S
C1276 C1275 1.415 . S
C1277 H1253 0.951 . S
C1277 C1278 1.366 . S
C1277 C1279 1.388 . S
C1278 C1277 1.366 . S
C1278 C1282 1.385 . S
C1279 H1254 0.951 . S
C1279 C1277 1.388 . S
C1279 C1280 1.366 . S
C1280 C1279 1.366 . S
C1280 C1281 1.414 . S
C1280 C1283 1.499 . S
C1281 H1255 0.950 . S
C1281 C1280 1.414 . S
C1281 C1282 1.374 . S
C1282 H1256 0.950 . S
C1282 C1278 1.385 . S
C1282 C1281 1.374 . S
C1283 C1280 1.499 . S
C1283 C1284 1.373 . S
C1283 C1285 1.389 1_554 S
C1284 H1257 0.950 . S
C1284 C1270 1.377 . S
C1284 C1283 1.373 . S
C1285 C1269 1.377 . S
C1285 C1283 1.389 1_556 S
C1285 C1286 1.524 . S
C1286 C1285 1.524 . S
C1286 C1287 1.397 . S
C1286 C1291 1.363 . S
C1287 H1258 0.950 . S
C1287 C1286 1.397 . S
C1287 C1288 1.334 . S
C1288 H1259 0.950 . S
C1288 C1287 1.334 . S
C1288 C1289 1.287 . S
C1289 C1288 1.287 . S
C1289 C1290 1.524 . S
C1289 H1292 0.999 . S
C1290 H1260 0.950 . S
C1290 C1289 1.524 . S
C1290 C1291 1.415 . S
C1291 H1261 0.950 . S
C1291 C1286 1.363 . S
C1291 C1290 1.415 . S
H1292 C1289 0.999 . S
H1293 C1274 0.913 . S
H1294 C1312 0.951 . S
H1295 C1314 0.951 . S
H1296 C1316 0.950 . S
H1297 C1317 0.950 . S
H1298 C1319 0.950 . S
H1299 C1322 0.950 . S
H1300 C1323 0.950 . S
H1301 C1325 0.950 . S
H1302 C1326 0.950 . S
H1303 C1327 0.951 . S
H1304 C1329 0.951 . S
H1305 C1331 0.950 . S
H1306 C1332 0.950 . S
H1307 C1334 0.950 . S
H1308 C1337 0.950 . S
H1309 C1338 0.950 . S
H1310 C1340 0.950 . S
H1311 C1341 0.950 . S
C1312 H1294 0.951 . S
C1312 C1313 1.366 . S
C1312 C1314 1.388 . S
C1313 C1312 1.366 . S
C1313 C1317 1.385 . S
C1314 H1295 0.951 . S
C1314 C1312 1.388 . S
C1314 C1315 1.366 . S
C1315 C1314 1.366 . S
C1315 C1316 1.414 . S
C1315 C1318 1.499 . S
C1316 H1296 0.950 . S
C1316 C1315 1.414 . S
C1316 C1317 1.374 . S
C1317 H1297 0.950 . S
C1317 C1313 1.385 . S
C1317 C1316 1.374 . S
C1318 C1315 1.499 . S
C1318 C1319 1.373 . S
C1318 C1320 1.389 . S
C1319 H1298 0.950 . S
C1319 C1318 1.373 . S
C1319 C1335 1.377 . S
C1320 C1318 1.389 . S
C1320 C1321 1.524 . S
C1320 C1334 1.377 . S
C1321 C1320 1.524 . S
C1321 C1322 1.397 . S
C1321 C1326 1.363 . S
C1322 H1299 0.950 . S
C1322 C1321 1.397 . S
C1322 C1323 1.334 . S
C1323 H1300 0.950 . S
C1323 C1322 1.334 . S
C1323 C1324 1.287 . S
C1324 C1323 1.287 . S
C1324 C1325 1.524 . S
C1324 H1343 0.913 . S
C1325 H1301 0.950 . S
C1325 C1324 1.524 . S
C1325 C1326 1.415 . S
C1326 H1302 0.950 . S
C1326 C1321 1.363 . S
C1326 C1325 1.415 . S
C1327 H1303 0.951 . S
C1327 C1328 1.366 . S
C1327 C1329 1.388 . S
C1328 C1327 1.366 . S
C1328 C1332 1.385 . S
C1329 H1304 0.951 . S
C1329 C1327 1.388 . S
C1329 C1330 1.366 . S
C1330 C1329 1.366 . S
C1330 C1331 1.414 . S
C1330 C1333 1.499 . S
C1331 H1305 0.950 . S
C1331 C1330 1.414 . S
C1331 C1332 1.374 . S
C1332 H1306 0.950 . S
C1332 C1328 1.385 . S
C1332 C1331 1.374 . S
C1333 C1330 1.499 . S
C1333 C1334 1.373 . S
C1333 C1335 1.389 . S
C1334 H1307 0.950 . S
C1334 C1320 1.377 . S
C1334 C1333 1.373 . S
C1335 C1319 1.377 . S
C1335 C1333 1.389 . S
C1335 C1336 1.524 . S
C1336 C1335 1.524 . S
C1336 C1337 1.397 . S
C1336 C1341 1.363 . S
C1337 H1308 0.950 . S
C1337 C1336 1.397 . S
C1337 C1338 1.334 . S
C1338 H1309 0.950 . S
C1338 C1337 1.334 . S
C1338 C1339 1.287 . S
C1339 C1338 1.287 . S
C1339 C1340 1.524 . S
C1339 H1342 0.999 . S
C1340 H1310 0.950 . S
C1340 C1339 1.524 . S
C1340 C1341 1.415 . S
C1341 H1311 0.950 . S
C1341 C1336 1.363 . S
C1341 C1340 1.415 . S
H1342 C1339 0.999 . S
H1343 C1324 0.913 . S
H1344 C1362 0.951 . S
H1345 C1364 0.951 . S
H1346 C1366 0.950 . S
H1347 C1367 0.950 . S
H1348 C1369 0.950 . S
H1349 C1372 0.950 . S
H1350 C1373 0.950 . S
H1351 C1375 0.950 . S
H1352 C1376 0.950 . S
H1353 C1377 0.951 . S
H1354 C1379 0.951 . S
H1355 C1381 0.950 . S
H1356 C1382 0.950 . S
H1357 C1384 0.950 . S
H1358 C1387 0.950 . S
H1359 C1388 0.950 . S
H1360 C1390 0.950 . S
H1361 C1391 0.950 . S
C1362 H1344 0.951 . S
C1362 C1363 1.366 . S
C1362 C1364 1.388 . S
C1363 C1362 1.366 . S
C1363 C1367 1.385 1_545 S
C1364 H1345 0.951 . S
C1364 C1362 1.388 . S
C1364 C1365 1.366 . S
C1365 C1364 1.366 . S
C1365 C1366 1.414 . S
C1365 C1368 1.499 . S
C1366 H1346 0.950 . S
C1366 C1365 1.414 . S
C1366 C1367 1.374 1_545 S
C1367 H1347 0.950 . S
C1367 C1363 1.385 1_565 S
C1367 C1366 1.374 1_565 S
C1368 C1365 1.499 . S
C1368 C1369 1.373 . S
C1368 C1370 1.389 . S
C1369 H1348 0.950 . S
C1369 C1368 1.373 . S
C1369 C1385 1.377 . S
C1370 C1368 1.389 . S
C1370 C1371 1.524 . S
C1370 C1384 1.377 . S
C1371 C1370 1.524 . S
C1371 C1372 1.397 . S
C1371 C1376 1.363 . S
C1372 H1349 0.950 . S
C1372 C1371 1.397 . S
C1372 C1373 1.334 . S
C1373 H1350 0.950 . S
C1373 C1372 1.334 . S
C1373 C1374 1.287 . S
C1374 C1373 1.287 . S
C1374 C1375 1.524 . S
C1374 H1393 0.913 . S
C1375 H1351 0.950 . S
C1375 C1374 1.524 . S
C1375 C1376 1.415 . S
C1376 H1352 0.950 . S
C1376 C1371 1.363 . S
C1376 C1375 1.415 . S
C1377 H1353 0.951 . S
C1377 C1378 1.366 . S
C1377 C1379 1.388 . S
C1378 C1377 1.366 . S
C1378 C1382 1.385 . S
C1379 H1354 0.951 . S
C1379 C1377 1.388 . S
C1379 C1380 1.366 . S
C1380 C1379 1.366 . S
C1380 C1381 1.414 . S
C1380 C1383 1.499 . S
C1381 H1355 0.950 . S
C1381 C1380 1.414 . S
C1381 C1382 1.374 . S
C1382 H1356 0.950 . S
C1382 C1378 1.385 . S
C1382 C1381 1.374 . S
C1383 C1380 1.499 . S
C1383 C1384 1.373 . S
C1383 C1385 1.389 . S
C1384 H1357 0.950 . S
C1384 C1370 1.377 . S
C1384 C1383 1.373 . S
C1385 C1369 1.377 . S
C1385 C1383 1.389 . S
C1385 C1386 1.524 . S
C1386 C1385 1.524 . S
C1386 C1387 1.397 . S
C1386 C1391 1.363 . S
C1387 H1358 0.950 . S
C1387 C1386 1.397 . S
C1387 C1388 1.334 . S
C1388 H1359 0.950 . S
C1388 C1387 1.334 . S
C1388 C1389 1.287 . S
C1389 C1388 1.287 . S
C1389 C1390 1.524 . S
C1389 H1392 0.999 . S
C1390 H1360 0.950 . S
C1390 C1389 1.524 . S
C1390 C1391 1.415 . S
C1391 H1361 0.950 . S
C1391 C1386 1.363 . S
C1391 C1390 1.415 . S
H1392 C1389 0.999 . S
H1393 C1374 0.913 . S
H1394 C1412 0.951 . S
H1395 C1414 0.951 . S
H1396 C1416 0.950 . S
H1397 C1417 0.950 . S
H1398 C1419 0.950 . S
H1399 C1422 0.950 . S
H1400 C1423 0.950 . S
H1401 C1425 0.950 . S
H1402 C1426 0.950 . S
H1403 C1427 0.951 . S
H1404 C1429 0.951 . S
H1405 C1431 0.950 . S
H1406 C1432 0.950 . S
H1407 C1434 0.950 . S
H1408 C1437 0.950 . S
H1409 C1438 0.950 . S
H1410 C1440 0.950 . S
H1411 C1441 0.950 . S
C1412 H1394 0.951 . S
C1412 C1413 1.366 . S
C1412 C1414 1.388 . S
C1413 C1412 1.366 . S
C1413 C1417 1.385 . S
C1414 H1395 0.951 . S
C1414 C1412 1.388 . S
C1414 C1415 1.366 . S
C1415 C1414 1.366 . S
C1415 C1416 1.414 . S
C1415 C1418 1.499 . S
C1416 H1396 0.950 . S
C1416 C1415 1.414 . S
C1416 C1417 1.374 . S
C1417 H1397 0.950 . S
C1417 C1413 1.385 . S
C1417 C1416 1.374 . S
C1418 C1415 1.499 . S
C1418 C1419 1.373 . S
C1418 C1420 1.389 . S
C1419 H1398 0.950 . S
C1419 C1418 1.373 . S
C1419 C1435 1.377 . S
C1420 C1418 1.389 . S
C1420 C1421 1.524 . S
C1420 C1434 1.377 . S
C1421 C1420 1.524 . S
C1421 C1422 1.397 . S
C1421 C1426 1.363 . S
C1422 H1399 0.950 . S
C1422 C1421 1.397 . S
C1422 C1423 1.334 . S
C1423 H1400 0.950 . S
C1423 C1422 1.334 . S
C1423 C1424 1.287 . S
C1424 C1423 1.287 . S
C1424 C1425 1.524 . S
C1424 H1443 0.913 . S
C1425 H1401 0.950 . S
C1425 C1424 1.524 . S
C1425 C1426 1.415 . S
C1426 H1402 0.950 . S
C1426 C1421 1.363 . S
C1426 C1425 1.415 . S
C1427 H1403 0.951 . S
C1427 C1428 1.366 . S
C1427 C1429 1.388 . S
C1428 C1427 1.366 . S
C1428 C1432 1.385 . S
C1429 H1404 0.951 . S
C1429 C1427 1.388 . S
C1429 C1430 1.366 . S
C1430 C1429 1.366 . S
C1430 C1431 1.414 . S
C1430 C1433 1.499 . S
C1431 H1405 0.950 . S
C1431 C1430 1.414 . S
C1431 C1432 1.374 . S
C1432 H1406 0.950 . S
C1432 C1428 1.385 . S
C1432 C1431 1.374 . S
C1433 C1430 1.499 . S
C1433 C1434 1.373 . S
C1433 C1435 1.389 . S
C1434 H1407 0.950 . S
C1434 C1420 1.377 . S
C1434 C1433 1.373 . S
C1435 C1419 1.377 . S
C1435 C1433 1.389 . S
C1435 C1436 1.524 . S
C1436 C1435 1.524 . S
C1436 C1437 1.397 . S
C1436 C1441 1.363 . S
C1437 H1408 0.950 . S
C1437 C1436 1.397 . S
C1437 C1438 1.334 . S
C1438 H1409 0.950 . S
C1438 C1437 1.334 . S
C1438 C1439 1.287 . S
C1439 C1438 1.287 . S
C1439 C1440 1.524 . S
C1439 H1442 0.999 . S
C1440 H1410 0.950 . S
C1440 C1439 1.524 . S
C1440 C1441 1.415 . S
C1441 H1411 0.950 . S
C1441 C1436 1.363 . S
C1441 C1440 1.415 . S
H1442 C1439 0.999 . S
H1443 C1424 0.913 . S
H1444 C1462 0.951 . S
H1445 C1464 0.951 . S
H1446 C1466 0.950 . S
H1447 C1467 0.950 . S
H1448 C1469 0.950 . S
H1449 C1472 0.950 . S
H1450 C1473 0.950 . S
H1451 C1475 0.950 . S
H1452 C1476 0.950 . S
H1453 C1477 0.951 . S
H1454 C1479 0.951 . S
H1455 C1481 0.950 . S
H1456 C1482 0.950 . S
H1457 C1484 0.950 . S
H1458 C1487 0.950 . S
H1459 C1488 0.950 . S
H1460 C1490 0.950 . S
H1461 C1491 0.950 . S
C1462 H1444 0.951 . S
C1462 C1463 1.366 . S
C1462 C1464 1.388 . S
C1463 C1462 1.366 . S
C1463 C1467 1.385 . S
C1464 H1445 0.951 . S
C1464 C1462 1.388 . S
C1464 C1465 1.366 . S
C1465 C1464 1.366 . S
C1465 C1466 1.414 . S
C1465 C1468 1.499 . S
C1466 H1446 0.950 . S
C1466 C1465 1.414 . S
C1466 C1467 1.374 . S
C1467 H1447 0.950 . S
C1467 C1463 1.385 . S
C1467 C1466 1.374 . S
C1468 C1465 1.499 . S
C1468 C1469 1.373 . S
C1468 C1470 1.389 . S
C1469 H1448 0.950 . S
C1469 C1468 1.373 . S
C1469 C1485 1.377 . S
C1470 C1468 1.389 . S
C1470 C1471 1.524 . S
C1470 C1484 1.377 . S
C1471 C1470 1.524 . S
C1471 C1472 1.397 . S
C1471 C1476 1.363 . S
C1472 H1449 0.950 . S
C1472 C1471 1.397 . S
C1472 C1473 1.334 . S
C1473 H1450 0.950 . S
C1473 C1472 1.334 . S
C1473 C1474 1.287 . S
C1474 C1473 1.287 . S
C1474 C1475 1.524 . S
C1474 H1493 0.913 . S
C1475 H1451 0.950 . S
C1475 C1474 1.524 . S
C1475 C1476 1.415 . S
C1476 H1452 0.950 . S
C1476 C1471 1.363 . S
C1476 C1475 1.415 . S
C1477 H1453 0.951 . S
C1477 C1478 1.366 . S
C1477 C1479 1.388 . S
C1478 C1477 1.366 . S
C1478 C1482 1.385 . S
C1479 H1454 0.951 . S
C1479 C1477 1.388 . S
C1479 C1480 1.366 . S
C1480 C1479 1.366 . S
C1480 C1481 1.414 . S
C1480 C1483 1.499 . S
C1481 H1455 0.950 . S
C1481 C1480 1.414 . S
C1481 C1482 1.374 . S
C1482 H1456 0.950 . S
C1482 C1478 1.385 . S
C1482 C1481 1.374 . S
C1483 C1480 1.499 . S
C1483 C1484 1.373 . S
C1483 C1485 1.389 . S
C1484 H1457 0.950 . S
C1484 C1470 1.377 . S
C1484 C1483 1.373 . S
C1485 C1469 1.377 . S
C1485 C1483 1.389 . S
C1485 C1486 1.524 . S
C1486 C1485 1.524 . S
C1486 C1487 1.397 . S
C1486 C1491 1.363 . S
C1487 H1458 0.950 . S
C1487 C1486 1.397 . S
C1487 C1488 1.334 . S
C1488 H1459 0.950 . S
C1488 C1487 1.334 . S
C1488 C1489 1.287 . S
C1489 C1488 1.287 . S
C1489 C1490 1.524 . S
C1489 H1492 0.999 . S
C1490 H1460 0.950 . S
C1490 C1489 1.524 . S
C1490 C1491 1.415 . S
C1491 H1461 0.950 . S
C1491 C1486 1.363 . S
C1491 C1490 1.415 . S
H1492 C1489 0.999 . S
H1493 C1474 0.913 . S
H1494 C1512 0.951 . S
H1495 C1514 0.951 . S
H1496 C1516 0.950 . S
H1497 C1517 0.950 . S
H1498 C1519 0.950 . S
H1499 C1522 0.950 . S
H1500 C1523 0.950 . S
H1501 C1525 0.950 . S
H1502 C1526 0.950 . S
H1503 C1527 0.951 . S
H1504 C1529 0.951 . S
H1505 C1531 0.950 . S
H1506 C1532 0.950 . S
H1507 C1534 0.950 . S
H1508 C1537 0.950 . S
H1509 C1538 0.950 . S
H1510 C1540 0.950 . S
H1511 C1541 0.950 . S
C1512 H1494 0.951 . S
C1512 C1513 1.366 . S
C1512 C1514 1.388 . S
C1513 C1512 1.366 . S
C1513 C1517 1.385 . S
C1514 H1495 0.951 . S
C1514 C1512 1.388 . S
C1514 C1515 1.366 . S
C1515 C1514 1.366 . S
C1515 C1516 1.414 . S
C1515 C1518 1.499 . S
C1516 H1496 0.950 . S
C1516 C1515 1.414 . S
C1516 C1517 1.374 . S
C1517 H1497 0.950 . S
C1517 C1513 1.385 . S
C1517 C1516 1.374 . S
C1518 C1515 1.499 . S
C1518 C1519 1.373 . S
C1518 C1520 1.389 . S
C1519 H1498 0.950 . S
C1519 C1518 1.373 . S
C1519 C1535 1.377 . S
C1520 C1518 1.389 . S
C1520 C1521 1.524 . S
C1520 C1534 1.377 . S
C1521 C1520 1.524 . S
C1521 C1522 1.397 . S
C1521 C1526 1.363 . S
C1522 H1499 0.950 . S
C1522 C1521 1.397 . S
C1522 C1523 1.334 . S
C1523 H1500 0.950 . S
C1523 C1522 1.334 . S
C1523 C1524 1.287 . S
C1524 C1523 1.287 . S
C1524 C1525 1.524 . S
C1524 H1543 0.913 . S
C1525 H1501 0.950 . S
C1525 C1524 1.524 . S
C1525 C1526 1.415 . S
C1526 H1502 0.950 . S
C1526 C1521 1.363 . S
C1526 C1525 1.415 . S
C1527 H1503 0.951 . S
C1527 C1528 1.366 . S
C1527 C1529 1.388 . S
C1528 C1527 1.366 . S
C1528 C1532 1.385 . S
C1529 H1504 0.951 . S
C1529 C1527 1.388 . S
C1529 C1530 1.366 . S
C1530 C1529 1.366 . S
C1530 C1531 1.414 . S
C1530 C1533 1.499 . S
C1531 H1505 0.950 . S
C1531 C1530 1.414 . S
C1531 C1532 1.374 . S
C1532 H1506 0.950 . S
C1532 C1528 1.385 . S
C1532 C1531 1.374 . S
C1533 C1530 1.499 . S
C1533 C1534 1.373 . S
C1533 C1535 1.389 . S
C1534 H1507 0.950 . S
C1534 C1520 1.377 . S
C1534 C1533 1.373 . S
C1535 C1519 1.377 . S
C1535 C1533 1.389 . S
C1535 C1536 1.524 . S
C1536 C1535 1.524 . S
C1536 C1537 1.397 . S
C1536 C1541 1.363 . S
C1537 H1508 0.950 . S
C1537 C1536 1.397 . S
C1537 C1538 1.334 . S
C1538 H1509 0.950 . S
C1538 C1537 1.334 . S
C1538 C1539 1.287 . S
C1539 C1538 1.287 . S
C1539 C1540 1.524 . S
C1539 H1542 0.999 . S
C1540 H1510 0.950 . S
C1540 C1539 1.524 . S
C1540 C1541 1.415 . S
C1541 H1511 0.950 . S
C1541 C1536 1.363 . S
C1541 C1540 1.415 . S
H1542 C1539 0.999 . S
H1543 C1524 0.913 . S
H1544 C1562 0.951 . S
H1545 C1564 0.951 . S
H1546 C1566 0.950 . S
H1547 C1567 0.950 . S
H1548 C1569 0.950 . S
H1549 C1572 0.950 . S
H1550 C1573 0.950 . S
H1551 C1575 0.950 . S
H1552 C1576 0.950 . S
H1553 C1577 0.951 . S
H1554 C1579 0.951 . S
H1555 C1581 0.950 . S
H1556 C1582 0.950 . S
H1557 C1584 0.950 . S
H1558 C1587 0.950 . S
H1559 C1588 0.950 . S
H1560 C1590 0.950 . S
H1561 C1591 0.950 . S
C1562 H1544 0.951 . S
C1562 C1563 1.366 . S
C1562 C1564 1.388 . S
C1563 C1562 1.366 . S
C1563 C1567 1.385 . S
C1564 H1545 0.951 . S
C1564 C1562 1.388 . S
C1564 C1565 1.366 . S
C1565 C1564 1.366 . S
C1565 C1566 1.414 . S
C1565 C1568 1.499 . S
C1566 H1546 0.950 . S
C1566 C1565 1.414 . S
C1566 C1567 1.374 . S
C1567 H1547 0.950 . S
C1567 C1563 1.385 . S
C1567 C1566 1.374 . S
C1568 C1565 1.499 . S
C1568 C1569 1.373 . S
C1568 C1570 1.389 . S
C1569 H1548 0.950 . S
C1569 C1568 1.373 . S
C1569 C1585 1.377 . S
C1570 C1568 1.389 . S
C1570 C1571 1.524 . S
C1570 C1584 1.377 . S
C1571 C1570 1.524 . S
C1571 C1572 1.397 . S
C1571 C1576 1.363 . S
C1572 H1549 0.950 . S
C1572 C1571 1.397 . S
C1572 C1573 1.334 . S
C1573 H1550 0.950 . S
C1573 C1572 1.334 . S
C1573 C1574 1.287 . S
C1574 C1573 1.287 . S
C1574 C1575 1.524 . S
C1574 H1593 0.913 . S
C1575 H1551 0.950 . S
C1575 C1574 1.524 . S
C1575 C1576 1.415 . S
C1576 H1552 0.950 . S
C1576 C1571 1.363 . S
C1576 C1575 1.415 . S
C1577 H1553 0.951 . S
C1577 C1578 1.366 . S
C1577 C1579 1.388 . S
C1578 C1577 1.366 . S
C1578 C1582 1.385 . S
C1579 H1554 0.951 . S
C1579 C1577 1.388 . S
C1579 C1580 1.366 . S
C1580 C1579 1.366 . S
C1580 C1581 1.414 . S
C1580 C1583 1.499 . S
C1581 H1555 0.950 . S
C1581 C1580 1.414 . S
C1581 C1582 1.374 . S
C1582 H1556 0.950 . S
C1582 C1578 1.385 . S
C1582 C1581 1.374 . S
C1583 C1580 1.499 . S
C1583 C1584 1.373 . S
C1583 C1585 1.389 . S
C1584 H1557 0.950 . S
C1584 C1570 1.377 . S
C1584 C1583 1.373 . S
C1585 C1569 1.377 . S
C1585 C1583 1.389 . S
C1585 C1586 1.524 . S
C1586 C1585 1.524 . S
C1586 C1587 1.397 . S
C1586 C1591 1.363 . S
C1587 H1558 0.950 . S
C1587 C1586 1.397 . S
C1587 C1588 1.334 . S
C1588 H1559 0.950 . S
C1588 C1587 1.334 . S
C1588 C1589 1.287 . S
C1589 C1588 1.287 . S
C1589 C1590 1.524 . S
C1589 H1592 0.999 . S
C1590 H1560 0.950 . S
C1590 C1589 1.524 . S
C1590 C1591 1.415 . S
C1591 H1561 0.950 . S
C1591 C1586 1.363 . S
C1591 C1590 1.415 . S
H1592 C1589 0.999 . S
H1593 C1574 0.913 . S
H1594 C1612 0.951 . S
H1595 C1614 0.951 . S
H1596 C1616 0.950 . S
H1597 C1617 0.950 . S
H1598 C1619 0.950 1_565 S
H1599 C1622 0.950 . S
H1600 C1623 0.950 . S
H1601 C1625 0.950 . S
H1602 C1626 0.950 . S
H1603 C1627 0.951 . S
H1604 C1629 0.951 . S
H1605 C1631 0.950 . S
H1606 C1632 0.950 . S
H1607 C1634 0.950 . S
H1608 C1637 0.950 . S
H1609 C1638 0.950 . S
H1610 C1640 0.950 . S
H1611 C1641 0.950 . S
C1612 H1594 0.951 . S
C1612 C1613 1.366 . S
C1612 C1614 1.388 . S
C1613 C1612 1.366 . S
C1613 C1617 1.385 . S
C1614 H1595 0.951 . S
C1614 C1612 1.388 . S
C1614 C1615 1.366 . S
C1615 C1614 1.366 . S
C1615 C1616 1.414 . S
C1615 C1618 1.499 . S
C1616 H1596 0.950 . S
C1616 C1615 1.414 . S
C1616 C1617 1.374 . S
C1617 H1597 0.950 . S
C1617 C1613 1.385 . S
C1617 C1616 1.374 . S
C1618 C1615 1.499 . S
C1618 C1619 1.373 . S
C1618 C1620 1.389 . S
C1619 H1598 0.950 1_545 S
C1619 C1618 1.373 . S
C1619 C1635 1.373 1_545 S
C1620 C1618 1.389 . S
C1620 C1621 1.524 . S
C1620 C1634 1.377 . S
C1621 C1620 1.524 . S
C1621 C1622 1.397 . S
C1621 C1626 1.363 . S
C1622 H1599 0.950 . S
C1622 C1621 1.397 . S
C1622 C1623 1.334 . S
C1623 H1600 0.950 . S
C1623 C1622 1.334 . S
C1623 C1624 1.287 . S
C1624 C1623 1.287 . S
C1624 C1625 1.524 . S
C1624 H1643 0.913 . S
C1625 H1601 0.950 . S
C1625 C1624 1.524 . S
C1625 C1626 1.415 . S
C1626 H1602 0.950 . S
C1626 C1621 1.363 . S
C1626 C1625 1.415 . S
C1627 H1603 0.951 . S
C1627 C1628 1.366 . S
C1627 C1629 1.388 . S
C1628 C1627 1.366 . S
C1628 C1632 1.385 . S
C1629 H1604 0.951 . S
C1629 C1627 1.388 . S
C1629 C1630 1.366 . S
C1630 C1629 1.366 . S
C1630 C1631 1.414 . S
C1630 C1633 1.499 . S
C1631 H1605 0.950 . S
C1631 C1630 1.414 . S
C1631 C1632 1.374 . S
C1632 H1606 0.950 . S
C1632 C1628 1.385 . S
C1632 C1631 1.374 . S
C1633 C1630 1.499 . S
C1633 C1634 1.373 . S
C1633 C1635 1.373 1_545 S
C1634 H1607 0.950 . S
C1634 C1620 1.377 . S
C1634 C1633 1.373 . S
C1635 C1619 1.373 1_565 S
C1635 C1633 1.373 1_565 S
C1635 C1636 1.547 . S
C1636 C1635 1.547 . S
C1636 C1637 1.397 . S
C1636 C1641 1.363 . S
C1637 H1608 0.950 . S
C1637 C1636 1.397 . S
C1637 C1638 1.334 . S
C1638 H1609 0.950 . S
C1638 C1637 1.334 . S
C1638 C1639 1.287 . S
C1639 C1638 1.287 . S
C1639 C1640 1.524 . S
C1639 H1642 0.999 . S
C1640 H1610 0.950 . S
C1640 C1639 1.524 . S
C1640 C1641 1.415 . S
C1641 H1611 0.950 . S
C1641 C1636 1.363 . S
C1641 C1640 1.415 . S
H1642 C1639 0.999 . S
H1643 C1624 0.913 . S
H1644 C1662 0.951 . S
H1645 C1664 0.951 . S
H1646 C1666 0.950 . S
H1647 C1667 0.950 . S
H1648 C1669 0.950 . S
H1649 C1672 0.950 . S
H1650 C1673 0.950 . S
H1651 C1675 0.950 . S
H1652 C1676 0.950 . S
H1653 C1677 0.951 . S
H1654 C1679 0.951 . S
H1655 C1681 0.950 . S
H1656 C1682 0.950 . S
H1657 C1684 0.950 . S
H1658 C1687 0.950 . S
H1659 C1688 0.950 . S
H1660 C1690 0.950 . S
H1661 C1691 0.950 . S
C1662 H1644 0.951 . S
C1662 C1663 1.366 . S
C1662 C1664 1.388 . S
C1663 C1662 1.366 . S
C1663 C1667 1.385 . S
C1664 H1645 0.951 . S
C1664 C1662 1.388 . S
C1664 C1665 1.366 . S
C1665 C1664 1.366 . S
C1665 C1666 1.414 . S
C1665 C1668 1.499 . S
C1666 H1646 0.950 . S
C1666 C1665 1.414 . S
C1666 C1667 1.374 . S
C1667 H1647 0.950 . S
C1667 C1663 1.385 . S
C1667 C1666 1.374 . S
C1668 C1665 1.499 . S
C1668 C1669 1.373 . S
C1668 C1670 1.389 . S
C1669 H1648 0.950 . S
C1669 C1668 1.373 . S
C1669 C1685 1.377 . S
C1670 C1668 1.389 . S
C1670 C1671 1.524 . S
C1670 C1684 1.377 . S
C1671 C1670 1.524 . S
C1671 C1672 1.397 . S
C1671 C1676 1.363 . S
C1672 H1649 0.950 . S
C1672 C1671 1.397 . S
C1672 C1673 1.334 . S
C1673 H1650 0.950 . S
C1673 C1672 1.334 . S
C1673 C1674 1.287 . S
C1674 C1673 1.287 . S
C1674 C1675 1.524 . S
C1674 H1693 0.913 . S
C1675 H1651 0.950 . S
C1675 C1674 1.524 . S
C1675 C1676 1.415 . S
C1676 H1652 0.950 . S
C1676 C1671 1.363 . S
C1676 C1675 1.415 . S
C1677 H1653 0.951 . S
C1677 C1678 1.366 . S
C1677 C1679 1.388 . S
C1678 C1677 1.366 . S
C1678 C1682 1.385 . S
C1679 H1654 0.951 . S
C1679 C1677 1.388 . S
C1679 C1680 1.366 . S
C1680 C1679 1.366 . S
C1680 C1681 1.414 . S
C1680 C1683 1.499 . S
C1681 H1655 0.950 . S
C1681 C1680 1.414 . S
C1681 C1682 1.374 . S
C1682 H1656 0.950 . S
C1682 C1678 1.385 . S
C1682 C1681 1.374 . S
C1683 C1680 1.499 . S
C1683 C1684 1.373 . S
C1683 C1685 1.389 . S
C1684 H1657 0.950 . S
C1684 C1670 1.377 . S
C1684 C1683 1.373 . S
C1685 C1669 1.377 . S
C1685 C1683 1.389 . S
C1685 C1686 1.524 . S
C1686 C1685 1.524 . S
C1686 C1687 1.397 . S
C1686 C1691 1.363 . S
C1687 H1658 0.950 . S
C1687 C1686 1.397 . S
C1687 C1688 1.334 . S
C1688 H1659 0.950 . S
C1688 C1687 1.334 . S
C1688 C1689 1.287 . S
C1689 C1688 1.287 . S
C1689 C1690 1.524 . S
C1689 H1692 0.999 . S
C1690 H1660 0.950 . S
C1690 C1689 1.524 . S
C1690 C1691 1.415 . S
C1691 H1661 0.950 . S
C1691 C1686 1.363 . S
C1691 C1690 1.415 . S
H1692 C1689 0.999 . S
H1693 C1674 0.913 . S
H1694 C1712 0.951 . S
H1695 C1714 0.951 . S
H1696 C1716 0.950 . S
H1697 C1717 0.950 . S
H1698 C1719 0.950 . S
H1699 C1722 0.950 . S
H1700 C1723 0.950 . S
H1701 C1725 0.950 . S
H1702 C1726 0.950 . S
H1703 C1727 0.951 . S
H1704 C1729 0.951 . S
H1705 C1731 0.950 . S
H1706 C1732 0.950 . S
H1707 C1734 0.950 . S
H1708 C1737 0.950 . S
H1709 C1738 0.950 . S
H1710 C1740 0.950 . S
H1711 C1741 0.950 . S
C1712 H1694 0.951 . S
C1712 C1713 1.366 . S
C1712 C1714 1.388 . S
C1713 C1712 1.366 . S
C1713 C1717 1.385 . S
C1714 H1695 0.951 . S
C1714 C1712 1.388 . S
C1714 C1715 1.366 . S
C1715 C1714 1.366 . S
C1715 C1716 1.414 . S
C1715 C1718 1.499 . S
C1716 H1696 0.950 . S
C1716 C1715 1.414 . S
C1716 C1717 1.374 . S
C1717 H1697 0.950 . S
C1717 C1713 1.385 . S
C1717 C1716 1.374 . S
C1718 C1715 1.499 . S
C1718 C1719 1.373 . S
C1718 C1720 1.389 . S
C1719 H1698 0.950 . S
C1719 C1718 1.373 . S
C1719 C1735 1.377 . S
C1720 C1718 1.389 . S
C1720 C1721 1.524 . S
C1720 C1734 1.377 . S
C1721 C1720 1.524 . S
C1721 C1722 1.397 . S
C1721 C1726 1.363 . S
C1722 H1699 0.950 . S
C1722 C1721 1.397 . S
C1722 C1723 1.334 . S
C1723 H1700 0.950 . S
C1723 C1722 1.334 . S
C1723 C1724 1.287 . S
C1724 C1723 1.287 . S
C1724 C1725 1.524 . S
C1724 H1743 0.913 . S
C1725 H1701 0.950 . S
C1725 C1724 1.524 . S
C1725 C1726 1.415 . S
C1726 H1702 0.950 . S
C1726 C1721 1.363 . S
C1726 C1725 1.415 . S
C1727 H1703 0.951 . S
C1727 C1728 1.366 . S
C1727 C1729 1.388 . S
C1728 C1727 1.366 . S
C1728 C1732 1.385 . S
C1729 H1704 0.951 . S
C1729 C1727 1.388 . S
C1729 C1730 1.366 . S
C1730 C1729 1.366 . S
C1730 C1731 1.414 . S
C1730 C1733 1.499 . S
C1731 H1705 0.950 . S
C1731 C1730 1.414 . S
C1731 C1732 1.374 . S
C1732 H1706 0.950 . S
C1732 C1728 1.385 . S
C1732 C1731 1.374 . S
C1733 C1730 1.499 . S
C1733 C1734 1.373 . S
C1733 C1735 1.389 . S
C1734 H1707 0.950 . S
C1734 C1720 1.377 . S
C1734 C1733 1.373 . S
C1735 C1719 1.377 . S
C1735 C1733 1.389 . S
C1735 C1736 1.524 . S
C1736 C1735 1.524 . S
C1736 C1737 1.397 . S
C1736 C1741 1.363 . S
C1737 H1708 0.950 . S
C1737 C1736 1.397 . S
C1737 C1738 1.334 . S
C1738 H1709 0.950 . S
C1738 C1737 1.334 . S
C1738 C1739 1.287 . S
C1739 C1738 1.287 . S
C1739 C1740 1.524 . S
C1739 H1742 0.999 . S
C1740 H1710 0.950 . S
C1740 C1739 1.524 . S
C1740 C1741 1.415 . S
C1741 H1711 0.950 . S
C1741 C1736 1.363 . S
C1741 C1740 1.415 . S
H1742 C1739 0.999 . S
H1743 C1724 0.913 . S
H1744 C1762 0.951 . S
H1745 C1764 0.951 . S
H1746 C1766 0.950 . S
H1747 C1767 0.950 . S
H1748 C1769 0.950 . S
H1749 C1772 0.950 . S
H1750 C1773 0.950 . S
H1751 C1775 0.950 . S
H1752 C1776 0.950 . S
H1753 C1777 0.951 . S
H1754 C1779 0.951 . S
H1755 C1781 0.950 . S
H1756 C1782 0.950 . S
H1757 C1784 0.950 . S
H1758 C1787 0.950 . S
H1759 C1788 0.950 . S
H1760 C1790 0.950 . S
H1761 C1791 0.950 . S
C1762 H1744 0.951 . S
C1762 C1763 1.366 . S
C1762 C1764 1.388 . S
C1763 C1762 1.366 . S
C1763 C1767 1.385 . S
C1764 H1745 0.951 . S
C1764 C1762 1.388 . S
C1764 C1765 1.366 . S
C1765 C1764 1.366 . S
C1765 C1766 1.414 . S
C1765 C1768 1.499 . S
C1766 H1746 0.950 . S
C1766 C1765 1.414 . S
C1766 C1767 1.374 . S
C1767 H1747 0.950 . S
C1767 C1763 1.385 . S
C1767 C1766 1.374 . S
C1768 C1765 1.499 . S
C1768 C1769 1.373 . S
C1768 C1770 1.389 . S
C1769 H1748 0.950 . S
C1769 C1768 1.373 . S
C1769 C1785 1.377 . S
C1770 C1768 1.389 . S
C1770 C1771 1.524 . S
C1770 C1784 1.377 . S
C1771 C1770 1.524 . S
C1771 C1772 1.397 . S
C1771 C1776 1.363 . S
C1772 H1749 0.950 . S
C1772 C1771 1.397 . S
C1772 C1773 1.334 . S
C1773 H1750 0.950 . S
C1773 C1772 1.334 . S
C1773 C1774 1.287 . S
C1774 C1773 1.287 . S
C1774 C1775 1.524 . S
C1774 H1793 0.913 . S
C1775 H1751 0.950 . S
C1775 C1774 1.524 . S
C1775 C1776 1.415 . S
C1776 H1752 0.950 . S
C1776 C1771 1.363 . S
C1776 C1775 1.415 . S
C1777 H1753 0.951 . S
C1777 C1778 1.366 . S
C1777 C1779 1.388 . S
C1778 C1777 1.366 . S
C1778 C1782 1.385 . S
C1779 H1754 0.951 . S
C1779 C1777 1.388 . S
C1779 C1780 1.366 . S
C1780 C1779 1.366 . S
C1780 C1781 1.414 . S
C1780 C1783 1.499 . S
C1781 H1755 0.950 . S
C1781 C1780 1.414 . S
C1781 C1782 1.374 . S
C1782 H1756 0.950 . S
C1782 C1778 1.385 . S
C1782 C1781 1.374 . S
C1783 C1780 1.499 . S
C1783 C1784 1.373 . S
C1783 C1785 1.389 . S
C1784 H1757 0.950 . S
C1784 C1770 1.377 . S
C1784 C1783 1.373 . S
C1785 C1769 1.377 . S
C1785 C1783 1.389 . S
C1785 C1786 1.524 . S
C1786 C1785 1.524 . S
C1786 C1787 1.397 . S
C1786 C1791 1.363 . S
C1787 H1758 0.950 . S
C1787 C1786 1.397 . S
C1787 C1788 1.334 . S
C1788 H1759 0.950 . S
C1788 C1787 1.334 . S
C1788 C1789 1.287 . S
C1789 C1788 1.287 . S
C1789 C1790 1.524 . S
C1789 H1792 0.999 . S
C1790 H1760 0.950 . S
C1790 C1789 1.524 . S
C1790 C1791 1.415 . S
C1791 H1761 0.950 . S
C1791 C1786 1.363 . S
C1791 C1790 1.415 . S
H1792 C1789 0.999 . S
H1793 C1774 0.913 . S
H1794 C1812 0.951 . S
H1795 C1814 0.951 . S
H1796 C1816 0.950 1_655 S
H1797 C1817 0.950 . S
H1798 C1819 0.949 1_455 S
H1799 C1822 0.950 1_545 S
H1800 C1823 0.950 . S
H1801 C1825 0.950 . S
H1802 C1826 0.950 . S
H1803 C1827 0.951 . S
H1804 C1829 0.951 . S
H1805 C1831 0.950 . S
H1806 C1832 0.950 . S
H1807 C1834 0.950 . S
H1808 C1837 0.950 1_455 S
H1809 C1838 0.934 1_455 S
H1810 C1840 0.950 . S
H1811 C1841 0.950 . S
C1812 H1794 0.951 . S
C1812 C1813 1.366 . S
C1812 C1814 1.388 . S
C1813 C1812 1.366 . S
C1813 C1817 1.385 . S
C1814 H1795 0.951 . S
C1814 C1812 1.388 . S
C1814 C1815 1.366 . S
C1815 C1814 1.366 . S
C1815 C1816 1.414 . S
C1815 C1818 1.499 . S
C1816 H1796 0.950 1_455 S
C1816 C1815 1.414 . S
C1816 C1817 1.374 . S
C1817 H1797 0.950 . S
C1817 C1813 1.385 . S
C1817 C1816 1.374 . S
C1818 C1815 1.499 . S
C1818 C1819 1.367 1_455 S
C1818 C1820 1.394 . S
C1819 H1798 0.949 1_655 S
C1819 C1818 1.367 1_655 S
C1819 C1835 1.384 . S
C1820 C1818 1.394 . S
C1820 C1821 1.536 . S
C1820 C1834 1.359 1_455 S
C1821 C1820 1.536 . S
C1821 C1822 1.397 1_445 S
C1821 C1826 1.363 1_545 S
C1822 H1799 0.950 1_565 S
C1822 C1821 1.397 1_665 S
C1822 C1823 1.334 . S
C1823 H1800 0.950 . S
C1823 C1822 1.334 . S
C1823 C1824 1.287 1_655 S
C1824 C1823 1.287 1_455 S
C1824 C1825 1.524 . S
C1824 H1843 0.913 . S
C1825 H1801 0.950 . S
C1825 C1824 1.524 . S
C1825 C1826 1.415 . S
C1826 H1802 0.950 . S
C1826 C1821 1.363 1_565 S
C1826 C1825 1.415 . S
C1827 H1803 0.951 . S
C1827 C1828 1.366 . S
C1827 C1829 1.388 . S
C1828 C1827 1.366 . S
C1828 C1832 1.385 . S
C1829 H1804 0.951 . S
C1829 C1827 1.388 . S
C1829 C1830 1.366 . S
C1830 C1829 1.366 . S
C1830 C1831 1.414 . S
C1830 C1833 1.499 . S
C1831 H1805 0.950 . S
C1831 C1830 1.414 . S
C1831 C1832 1.374 . S
C1832 H1806 0.950 . S
C1832 C1828 1.385 . S
C1832 C1831 1.374 . S
C1833 C1830 1.499 . S
C1833 C1834 1.373 . S
C1833 C1835 1.389 . S
C1834 H1807 0.950 . S
C1834 C1820 1.359 1_655 S
C1834 C1833 1.373 . S
C1835 C1819 1.384 . S
C1835 C1833 1.389 . S
C1835 C1836 1.524 . S
C1836 C1835 1.524 . S
C1836 C1837 1.397 . S
C1836 C1841 1.363 . S
C1837 H1808 0.950 1_655 S
C1837 C1836 1.397 . S
C1837 C1838 1.334 . S
C1838 H1809 0.934 1_655 S
C1838 C1837 1.334 . S
C1838 C1839 1.287 . S
C1839 C1838 1.287 . S
C1839 C1840 1.524 . S
C1839 H1842 0.999 . S
C1840 H1810 0.950 . S
C1840 C1839 1.524 . S
C1840 C1841 1.415 . S
C1841 H1811 0.950 . S
C1841 C1836 1.363 . S
C1841 C1840 1.415 . S
H1842 C1839 0.999 . S
H1843 C1824 0.913 . S
H1844 C1862 0.951 . S
H1845 C1864 0.951 . S
H1846 C1866 0.950 . S
H1847 C1867 0.950 . S
H1848 C1869 0.950 . S
H1849 C1872 0.950 . S
H1850 C1873 0.950 . S
H1851 C1875 0.950 . S
H1852 C1876 0.950 . S
H1853 C1877 0.951 . S
H1854 C1879 0.951 . S
H1855 C1881 0.950 . S
H1856 C1882 0.950 . S
H1857 C1884 0.950 . S
H1858 C1887 0.950 . S
H1859 C1888 0.950 . S
H1860 C1890 0.950 . S
H1861 C1891 0.950 . S
C1862 H1844 0.951 . S
C1862 C1863 1.366 . S
C1862 C1864 1.388 . S
C1863 C1862 1.366 . S
C1863 C1867 1.385 . S
C1864 H1845 0.951 . S
C1864 C1862 1.388 . S
C1864 C1865 1.366 . S
C1865 C1864 1.366 . S
C1865 C1866 1.414 . S
C1865 C1868 1.499 . S
C1866 H1846 0.950 . S
C1866 C1865 1.414 . S
C1866 C1867 1.374 . S
C1867 H1847 0.950 . S
C1867 C1863 1.385 . S
C1867 C1866 1.374 . S
C1868 C1865 1.499 . S
C1868 C1869 1.373 . S
C1868 C1870 1.389 . S
C1869 H1848 0.950 . S
C1869 C1868 1.373 . S
C1869 C1885 1.377 . S
C1870 C1868 1.389 . S
C1870 C1871 1.524 . S
C1870 C1884 1.377 . S
C1871 C1870 1.524 . S
C1871 C1872 1.397 . S
C1871 C1876 1.363 . S
C1872 H1849 0.950 . S
C1872 C1871 1.397 . S
C1872 C1873 1.334 . S
C1873 H1850 0.950 . S
C1873 C1872 1.334 . S
C1873 C1874 1.287 . S
C1874 C1873 1.287 . S
C1874 C1875 1.524 . S
C1874 H1893 0.913 . S
C1875 H1851 0.950 . S
C1875 C1874 1.524 . S
C1875 C1876 1.415 . S
C1876 H1852 0.950 . S
C1876 C1871 1.363 . S
C1876 C1875 1.415 . S
C1877 H1853 0.951 . S
C1877 C1878 1.366 . S
C1877 C1879 1.388 . S
C1878 C1877 1.366 . S
C1878 C1882 1.385 . S
C1879 H1854 0.951 . S
C1879 C1877 1.388 . S
C1879 C1880 1.366 . S
C1880 C1879 1.366 . S
C1880 C1881 1.414 . S
C1880 C1883 1.499 . S
C1881 H1855 0.950 . S
C1881 C1880 1.414 . S
C1881 C1882 1.374 . S
C1882 H1856 0.950 . S
C1882 C1878 1.385 . S
C1882 C1881 1.374 . S
C1883 C1880 1.499 . S
C1883 C1884 1.373 . S
C1883 C1885 1.389 . S
C1884 H1857 0.950 . S
C1884 C1870 1.377 . S
C1884 C1883 1.373 . S
C1885 C1869 1.377 . S
C1885 C1883 1.389 . S
C1885 C1886 1.524 . S
C1886 C1885 1.524 . S
C1886 C1887 1.397 . S
C1886 C1891 1.363 . S
C1887 H1858 0.950 . S
C1887 C1886 1.397 . S
C1887 C1888 1.334 . S
C1888 H1859 0.950 . S
C1888 C1887 1.334 . S
C1888 C1889 1.287 . S
C1889 C1888 1.287 . S
C1889 C1890 1.524 . S
C1889 H1892 0.999 . S
C1890 H1860 0.950 . S
C1890 C1889 1.524 . S
C1890 C1891 1.415 . S
C1891 H1861 0.950 . S
C1891 C1886 1.363 . S
C1891 C1890 1.415 . S
H1892 C1889 0.999 . S
H1893 C1874 0.913 . S
H1894 C1912 0.951 . S
H1895 C1914 0.951 . S
H1896 C1916 0.950 . S
H1897 C1917 0.950 . S
H1898 C1919 0.950 . S
H1899 C1922 0.950 . S
H1900 C1923 0.956 . S
H1901 C1925 0.961 . S
H1902 C1926 0.950 . S
H1903 C1927 0.951 . S
H1904 C1929 0.951 . S
H1905 C1931 0.950 . S
H1906 C1932 0.950 . S
H1907 C1934 0.950 . S
H1908 C1937 0.950 . S
H1909 C1938 0.950 . S
H1910 C1940 0.950 . S
H1911 C1941 0.950 . S
C1912 H1894 0.951 . S
C1912 C1913 1.366 . S
C1912 C1914 1.388 . S
C1913 C1912 1.366 . S
C1913 C1917 1.385 . S
C1914 H1895 0.951 . S
C1914 C1912 1.388 . S
C1914 C1915 1.366 . S
C1915 C1914 1.366 . S
C1915 C1916 1.414 . S
C1915 C1918 1.499 . S
C1916 H1896 0.950 . S
C1916 C1915 1.414 . S
C1916 C1917 1.374 . S
C1917 H1897 0.950 . S
C1917 C1913 1.385 . S
C1917 C1916 1.374 . S
C1918 C1915 1.499 . S
C1918 C1919 1.373 . S
C1918 C1920 1.389 . S
C1919 H1898 0.950 . S
C1919 C1918 1.373 . S
C1919 C1935 1.377 . S
C1920 C1918 1.389 . S
C1920 C1921 1.524 . S
C1920 C1934 1.377 . S
C1921 C1920 1.524 . S
C1921 C1922 1.397 . S
C1921 C1926 1.363 . S
C1922 H1899 0.950 . S
C1922 C1921 1.397 . S
C1922 C1923 1.324 1_455 S
C1923 H1900 0.956 . S
C1923 C1922 1.324 1_655 S
C1923 C1924 1.291 . S
C1924 C1923 1.291 . S
C1924 C1925 1.536 . S
C1924 H1943 0.913 . S
C1925 H1901 0.961 . S
C1925 C1924 1.536 . S
C1925 C1926 1.390 1_655 S
C1926 H1902 0.950 . S
C1926 C1921 1.363 . S
C1926 C1925 1.390 1_455 S
C1927 H1903 0.951 . S
C1927 C1928 1.366 . S
C1927 C1929 1.388 . S
C1928 C1927 1.366 . S
C1928 C1932 1.385 . S
C1929 H1904 0.951 . S
C1929 C1927 1.388 . S
C1929 C1930 1.366 . S
C1930 C1929 1.366 . S
C1930 C1931 1.414 . S
C1930 C1933 1.499 . S
C1931 H1905 0.950 . S
C1931 C1930 1.414 . S
C1931 C1932 1.374 . S
C1932 H1906 0.950 . S
C1932 C1928 1.385 . S
C1932 C1931 1.374 . S
C1933 C1930 1.499 . S
C1933 C1934 1.373 . S
C1933 C1935 1.389 . S
C1934 H1907 0.950 . S
C1934 C1920 1.377 . S
C1934 C1933 1.373 . S
C1935 C1919 1.377 . S
C1935 C1933 1.389 . S
C1935 C1936 1.524 . S
C1936 C1935 1.524 . S
C1936 C1937 1.397 . S
C1936 C1941 1.363 . S
C1937 H1908 0.950 . S
C1937 C1936 1.397 . S
C1937 C1938 1.334 . S
C1938 H1909 0.950 . S
C1938 C1937 1.334 . S
C1938 C1939 1.287 . S
C1939 C1938 1.287 . S
C1939 C1940 1.524 . S
C1939 H1942 0.999 . S
C1940 H1910 0.950 . S
C1940 C1939 1.524 . S
C1940 C1941 1.415 . S
C1941 H1911 0.950 . S
C1941 C1936 1.363 . S
C1941 C1940 1.415 . S
H1942 C1939 0.999 . S
H1943 C1924 0.913 . S
H1944 C1962 0.951 . S
H1945 C1964 0.951 . S
H1946 C1966 0.950 . S
H1947 C1967 0.950 . S
H1948 C1969 0.950 . S
H1949 C1972 0.950 . S
H1950 C1973 0.950 . S
H1951 C1975 0.950 . S
H1952 C1976 0.950 . S
H1953 C1977 0.951 . S
H1954 C1979 0.951 . S
H1955 C1981 0.950 . S
H1956 C1982 0.950 . S
H1957 C1984 0.950 . S
H1958 C1987 0.950 . S
H1959 C1988 0.950 . S
H1960 C1990 0.950 . S
H1961 C1991 0.950 . S
C1962 H1944 0.951 . S
C1962 C1963 1.366 . S
C1962 C1964 1.388 . S
C1963 C1962 1.366 . S
C1963 C1967 1.385 . S
C1964 H1945 0.951 . S
C1964 C1962 1.388 . S
C1964 C1965 1.366 . S
C1965 C1964 1.366 . S
C1965 C1966 1.414 . S
C1965 C1968 1.499 . S
C1966 H1946 0.950 . S
C1966 C1965 1.414 . S
C1966 C1967 1.374 . S
C1967 H1947 0.950 . S
C1967 C1963 1.385 . S
C1967 C1966 1.374 . S
C1968 C1965 1.499 . S
C1968 C1969 1.373 . S
C1968 C1970 1.389 . S
C1969 H1948 0.950 . S
C1969 C1968 1.373 . S
C1969 C1985 1.377 . S
C1970 C1968 1.389 . S
C1970 C1971 1.524 . S
C1970 C1984 1.377 . S
C1971 C1970 1.524 . S
C1971 C1972 1.397 . S
C1971 C1976 1.363 . S
C1972 H1949 0.950 . S
C1972 C1971 1.397 . S
C1972 C1973 1.334 . S
C1973 H1950 0.950 . S
C1973 C1972 1.334 . S
C1973 C1974 1.287 . S
C1974 C1973 1.287 . S
C1974 C1975 1.524 . S
C1974 H1993 0.913 . S
C1975 H1951 0.950 . S
C1975 C1974 1.524 . S
C1975 C1976 1.415 . S
C1976 H1952 0.950 . S
C1976 C1971 1.363 . S
C1976 C1975 1.415 . S
C1977 H1953 0.951 . S
C1977 C1978 1.366 . S
C1977 C1979 1.388 . S
C1978 C1977 1.366 . S
C1978 C1982 1.385 . S
C1979 H1954 0.951 . S
C1979 C1977 1.388 . S
C1979 C1980 1.366 . S
C1980 C1979 1.366 . S
C1980 C1981 1.414 . S
C1980 C1983 1.499 . S
C1981 H1955 0.950 . S
C1981 C1980 1.414 . S
C1981 C1982 1.374 . S
C1982 H1956 0.950 . S
C1982 C1978 1.385 . S
C1982 C1981 1.374 . S
C1983 C1980 1.499 . S
C1983 C1984 1.373 . S
C1983 C1985 1.389 . S
C1984 H1957 0.950 . S
C1984 C1970 1.377 . S
C1984 C1983 1.373 . S
C1985 C1969 1.377 . S
C1985 C1983 1.389 . S
C1985 C1986 1.524 . S
C1986 C1985 1.524 . S
C1986 C1987 1.397 . S
C1986 C1991 1.363 . S
C1987 H1958 0.950 . S
C1987 C1986 1.397 . S
C1987 C1988 1.334 . S
C1988 H1959 0.950 . S
C1988 C1987 1.334 . S
C1988 C1989 1.287 . S
C1989 C1988 1.287 . S
C1989 C1990 1.524 . S
C1989 H1992 0.999 . S
C1990 H1960 0.950 . S
C1990 C1989 1.524 . S
C1990 C1991 1.415 . S
C1991 H1961 0.950 . S
C1991 C1986 1.363 . S
C1991 C1990 1.415 . S
H1992 C1989 0.999 . S
H1993 C1974 0.913 . S
H1994 C2012 0.951 . S
H1995 C2014 0.951 . S
H1996 C2016 0.950 . S
H1997 C2017 0.941 1_655 S
H1998 C2019 0.950 . S
H1999 C2022 0.971 . S
H2000 C2023 0.950 . S
H2001 C2025 0.950 . S
H2002 C2026 0.950 . S
H2003 C2027 0.951 . S
H2004 C2029 0.951 . S
H2005 C2031 0.950 . S
H2006 C2032 0.950 . S
H2007 C2034 0.950 . S
H2008 C2037 0.950 . S
H2009 C2038 0.950 . S
H2010 C2040 0.950 . S
H2011 C2041 0.950 . S
C2012 H1994 0.951 . S
C2012 C2013 1.366 . S
C2012 C2014 1.388 . S
C2013 C2012 1.366 . S
C2013 C2017 1.383 1_554 S
C2014 H1995 0.951 . S
C2014 C2012 1.388 . S
C2014 C2015 1.366 1_554 S
C2015 C2014 1.366 1_556 S
C2015 C2016 1.414 . S
C2015 C2018 1.499 . S
C2016 H1996 0.950 . S
C2016 C2015 1.414 . S
C2016 C2017 1.386 . S
C2017 H1997 0.941 1_455 S
C2017 C2013 1.383 1_556 S
C2017 C2016 1.386 . S
C2018 C2015 1.499 . S
C2018 C2019 1.373 1_455 S
C2018 C2020 1.389 . S
C2019 H1998 0.950 . S
C2019 C2018 1.373 1_655 S
C2019 C2035 1.377 . S
C2020 C2018 1.389 . S
C2020 C2021 1.516 1_556 S
C2020 C2034 1.377 . S
C2021 C2020 1.516 1_554 S
C2021 C2022 1.389 1_554 S
C2021 C2026 1.373 . S
C2022 H1999 0.971 . S
C2022 C2021 1.389 1_556 S
C2022 C2023 1.319 1_556 S
C2023 H2000 0.950 . S
C2023 C2022 1.319 1_554 S
C2023 C2024 1.287 . S
C2024 C2023 1.287 . S
C2024 C2025 1.524 . S
C2024 H2043 0.913 . S
C2025 H2001 0.950 . S
C2025 C2024 1.524 . S
C2025 C2026 1.415 . S
C2026 H2002 0.950 . S
C2026 C2021 1.373 . S
C2026 C2025 1.415 . S
C2027 H2003 0.951 . S
C2027 C2028 1.366 . S
C2027 C2029 1.388 . S
C2028 C2027 1.366 . S
C2028 C2032 1.385 . S
C2029 H2004 0.951 . S
C2029 C2027 1.388 . S
C2029 C2030 1.366 . S
C2030 C2029 1.366 . S
C2030 C2031 1.414 . S
C2030 C2033 1.499 . S
C2031 H2005 0.950 . S
C2031 C2030 1.414 . S
C2031 C2032 1.374 . S
C2032 H2006 0.950 . S
C2032 C2028 1.385 . S
C2032 C2031 1.374 . S
C2033 C2030 1.499 . S
C2033 C2034 1.373 . S
C2033 C2035 1.389 1_455 S
C2034 H2007 0.950 . S
C2034 C2020 1.377 . S
C2034 C2033 1.373 . S
C2035 C2019 1.377 . S
C2035 C2033 1.389 1_655 S
C2035 C2036 1.524 . S
C2036 C2035 1.524 . S
C2036 C2037 1.397 . S
C2036 C2041 1.363 . S
C2037 H2008 0.950 . S
C2037 C2036 1.397 . S
C2037 C2038 1.334 . S
C2038 H2009 0.950 . S
C2038 C2037 1.334 . S
C2038 C2039 1.287 . S
C2039 C2038 1.287 . S
C2039 C2040 1.524 . S
C2039 H2042 0.999 . S
C2040 H2010 0.950 . S
C2040 C2039 1.524 . S
C2040 C2041 1.415 . S
C2041 H2011 0.950 . S
C2041 C2036 1.363 . S
C2041 C2040 1.415 . S
H2042 C2039 0.999 . S
H2043 C2024 0.913 . S
H2044 C2062 0.951 . S
H2045 C2064 0.951 . S
H2046 C2066 0.950 . S
H2047 C2067 0.950 . S
H2048 C2069 0.950 . S
H2049 C2072 0.950 . S
H2050 C2073 0.950 . S
H2051 C2075 0.950 . S
H2052 C2076 0.950 . S
H2053 C2077 0.951 . S
H2054 C2079 0.951 . S
H2055 C2081 0.950 . S
H2056 C2082 0.950 . S
H2057 C2084 0.950 . S
H2058 C2087 0.950 . S
H2059 C2088 0.950 . S
H2060 C2090 0.950 . S
H2061 C2091 0.950 . S
C2062 H2044 0.951 . S
C2062 C2063 1.366 . S
C2062 C2064 1.388 . S
C2063 C2062 1.366 . S
C2063 C2067 1.385 . S
C2064 H2045 0.951 . S
C2064 C2062 1.388 . S
C2064 C2065 1.366 . S
C2065 C2064 1.366 . S
C2065 C2066 1.414 . S
C2065 C2068 1.499 . S
C2066 H2046 0.950 . S
C2066 C2065 1.414 . S
C2066 C2067 1.374 . S
C2067 H2047 0.950 . S
C2067 C2063 1.385 . S
C2067 C2066 1.374 . S
C2068 C2065 1.499 . S
C2068 C2069 1.373 . S
C2068 C2070 1.389 . S
C2069 H2048 0.950 . S
C2069 C2068 1.373 . S
C2069 C2085 1.377 . S
C2070 C2068 1.389 . S
C2070 C2071 1.524 . S
C2070 C2084 1.377 . S
C2071 C2070 1.524 . S
C2071 C2072 1.397 . S
C2071 C2076 1.363 . S
C2072 H2049 0.950 . S
C2072 C2071 1.397 . S
C2072 C2073 1.334 . S
C2073 H2050 0.950 . S
C2073 C2072 1.334 . S
C2073 C2074 1.287 . S
C2074 C2073 1.287 . S
C2074 C2075 1.524 . S
C2074 H2093 0.913 . S
C2075 H2051 0.950 . S
C2075 C2074 1.524 . S
C2075 C2076 1.415 . S
C2076 H2052 0.950 . S
C2076 C2071 1.363 . S
C2076 C2075 1.415 . S
C2077 H2053 0.951 . S
C2077 C2078 1.366 . S
C2077 C2079 1.388 . S
C2078 C2077 1.366 . S
C2078 C2082 1.385 . S
C2079 H2054 0.951 . S
C2079 C2077 1.388 . S
C2079 C2080 1.366 . S
C2080 C2079 1.366 . S
C2080 C2081 1.414 . S
C2080 C2083 1.499 . S
C2081 H2055 0.950 . S
C2081 C2080 1.414 . S
C2081 C2082 1.374 . S
C2082 H2056 0.950 . S
C2082 C2078 1.385 . S
C2082 C2081 1.374 . S
C2083 C2080 1.499 . S
C2083 C2084 1.373 . S
C2083 C2085 1.389 . S
C2084 H2057 0.950 . S
C2084 C2070 1.377 . S
C2084 C2083 1.373 . S
C2085 C2069 1.377 . S
C2085 C2083 1.389 . S
C2085 C2086 1.524 . S
C2086 C2085 1.524 . S
C2086 C2087 1.397 . S
C2086 C2091 1.363 . S
C2087 H2058 0.950 . S
C2087 C2086 1.397 . S
C2087 C2088 1.334 . S
C2088 H2059 0.950 . S
C2088 C2087 1.334 . S
C2088 C2089 1.287 . S
C2089 C2088 1.287 . S
C2089 C2090 1.524 . S
C2089 H2092 0.999 . S
C2090 H2060 0.950 . S
C2090 C2089 1.524 . S
C2090 C2091 1.415 . S
C2091 H2061 0.950 . S
C2091 C2086 1.363 . S
C2091 C2090 1.415 . S
H2092 C2089 0.999 . S
H2093 C2074 0.913 . S
H2094 C2112 0.951 . S
H2095 C2114 0.951 . S
H2096 C2116 0.950 . S
H2097 C2117 0.950 . S
H2098 C2119 0.950 . S
H2099 C2122 0.955 . S
H2100 C2123 0.950 . S
H2101 C2125 0.950 . S
H2102 C2126 0.957 1_554 S
H2103 C2127 0.951 . S
H2104 C2129 0.951 . S
H2105 C2131 0.950 . S
H2106 C2132 0.950 . S
H2107 C2134 0.950 . S
H2108 C2137 0.950 . S
H2109 C2138 0.950 . S
H2110 C2140 0.950 . S
H2111 C2141 0.950 . S
C2112 H2094 0.951 . S
C2112 C2113 1.366 . S
C2112 C2114 1.388 . S
C2113 C2112 1.366 . S
C2113 C2117 1.385 1_554 S
C2114 H2095 0.951 . S
C2114 C2112 1.388 . S
C2114 C2115 1.366 1_554 S
C2115 C2114 1.366 1_556 S
C2115 C2116 1.414 . S
C2115 C2118 1.499 . S
C2116 H2096 0.950 . S
C2116 C2115 1.414 . S
C2116 C2117 1.374 . S
C2117 H2097 0.950 . S
C2117 C2113 1.385 1_556 S
C2117 C2116 1.374 . S
C2118 C2115 1.499 . S
C2118 C2119 1.373 . S
C2118 C2120 1.389 . S
C2119 H2098 0.950 . S
C2119 C2118 1.373 . S
C2119 C2135 1.377 . S
C2120 C2118 1.389 . S
C2120 C2121 1.524 . S
C2120 C2134 1.377 . S
C2121 C2120 1.524 . S
C2121 C2122 1.402 . S
C2121 C2126 1.381 . S
C2122 H2099 0.955 . S
C2122 C2121 1.402 . S
C2122 C2123 1.323 1_455 S
C2123 H2100 0.950 . S
C2123 C2122 1.323 1_655 S
C2123 C2124 1.287 1_556 S
C2124 C2123 1.287 1_554 S
C2124 C2125 1.524 . S
C2124 H2143 0.913 . S
C2125 H2101 0.950 . S
C2125 C2124 1.524 . S
C2125 C2126 1.394 1_654 S
C2126 H2102 0.957 1_556 S
C2126 C2121 1.381 . S
C2126 C2125 1.394 1_456 S
C2127 H2103 0.951 . S
C2127 C2128 1.366 . S
C2127 C2129 1.388 . S
C2128 C2127 1.366 . S
C2128 C2132 1.385 . S
C2129 H2104 0.951 . S
C2129 C2127 1.388 . S
C2129 C2130 1.366 . S
C2130 C2129 1.366 . S
C2130 C2131 1.414 . S
C2130 C2133 1.499 . S
C2131 H2105 0.950 . S
C2131 C2130 1.414 . S
C2131 C2132 1.374 . S
C2132 H2106 0.950 . S
C2132 C2128 1.385 . S
C2132 C2131 1.374 . S
C2133 C2130 1.499 . S
C2133 C2134 1.373 . S
C2133 C2135 1.389 . S
C2134 H2107 0.950 . S
C2134 C2120 1.377 . S
C2134 C2133 1.373 . S
C2135 C2119 1.377 . S
C2135 C2133 1.389 . S
C2135 C2136 1.524 . S
C2136 C2135 1.524 . S
C2136 C2137 1.397 . S
C2136 C2141 1.363 . S
C2137 H2108 0.950 . S
C2137 C2136 1.397 . S
C2137 C2138 1.334 . S
C2138 H2109 0.950 . S
C2138 C2137 1.334 . S
C2138 C2139 1.287 . S
C2139 C2138 1.287 . S
C2139 C2140 1.524 . S
C2139 H2142 0.999 . S
C2140 H2110 0.950 . S
C2140 C2139 1.524 . S
C2140 C2141 1.415 . S
C2141 H2111 0.950 . S
C2141 C2136 1.363 . S
C2141 C2140 1.415 . S
H2142 C2139 0.999 . S
H2143 C2124 0.913 . S
H2144 C2162 0.951 . S
H2145 C2164 0.951 . S
H2146 C2166 0.950 . S
H2147 C2167 0.950 . S
H2148 C2169 0.950 . S
H2149 C2172 0.950 . S
H2150 C2173 0.950 . S
H2151 C2175 0.950 . S
H2152 C2176 0.950 . S
H2153 C2177 0.951 . S
H2154 C2179 0.951 . S
H2155 C2181 0.950 . S
H2156 C2182 0.950 . S
H2157 C2184 0.950 . S
H2158 C2187 0.950 . S
H2159 C2188 0.950 . S
H2160 C2190 0.950 . S
H2161 C2191 0.950 . S
C2162 H2144 0.951 . S
C2162 C2163 1.366 . S
C2162 C2164 1.388 . S
C2163 C2162 1.366 . S
C2163 C2167 1.385 . S
C2164 H2145 0.951 . S
C2164 C2162 1.388 . S
C2164 C2165 1.366 . S
C2165 C2164 1.366 . S
C2165 C2166 1.414 . S
C2165 C2168 1.499 . S
C2166 H2146 0.950 . S
C2166 C2165 1.414 . S
C2166 C2167 1.374 . S
C2167 H2147 0.950 . S
C2167 C2163 1.385 . S
C2167 C2166 1.374 . S
C2168 C2165 1.499 . S
C2168 C2169 1.373 . S
C2168 C2170 1.389 . S
C2169 H2148 0.950 . S
C2169 C2168 1.373 . S
C2169 C2185 1.377 . S
C2170 C2168 1.389 . S
C2170 C2171 1.524 . S
C2170 C2184 1.377 . S
C2171 C2170 1.524 . S
C2171 C2172 1.397 . S
C2171 C2176 1.363 . S
C2172 H2149 0.950 . S
C2172 C2171 1.397 . S
C2172 C2173 1.334 . S
C2173 H2150 0.950 . S
C2173 C2172 1.334 . S
C2173 C2174 1.287 . S
C2174 C2173 1.287 . S
C2174 C2175 1.524 . S
C2174 H2193 0.913 . S
C2175 H2151 0.950 . S
C2175 C2174 1.524 . S
C2175 C2176 1.415 . S
C2176 H2152 0.950 . S
C2176 C2171 1.363 . S
C2176 C2175 1.415 . S
C2177 H2153 0.951 . S
C2177 C2178 1.366 . S
C2177 C2179 1.388 . S
C2178 C2177 1.366 . S
C2178 C2182 1.385 . S
C2179 H2154 0.951 . S
C2179 C2177 1.388 . S
C2179 C2180 1.366 . S
C2180 C2179 1.366 . S
C2180 C2181 1.414 . S
C2180 C2183 1.499 . S
C2181 H2155 0.950 . S
C2181 C2180 1.414 . S
C2181 C2182 1.374 . S
C2182 H2156 0.950 . S
C2182 C2178 1.385 . S
C2182 C2181 1.374 . S
C2183 C2180 1.499 . S
C2183 C2184 1.373 . S
C2183 C2185 1.389 . S
C2184 H2157 0.950 . S
C2184 C2170 1.377 . S
C2184 C2183 1.373 . S
C2185 C2169 1.377 . S
C2185 C2183 1.389 . S
C2185 C2186 1.524 . S
C2186 C2185 1.524 . S
C2186 C2187 1.397 . S
C2186 C2191 1.363 . S
C2187 H2158 0.950 . S
C2187 C2186 1.397 . S
C2187 C2188 1.334 . S
C2188 H2159 0.950 . S
C2188 C2187 1.334 . S
C2188 C2189 1.287 . S
C2189 C2188 1.287 . S
C2189 C2190 1.524 . S
C2189 H2192 0.999 . S
C2190 H2160 0.950 . S
C2190 C2189 1.524 . S
C2190 C2191 1.415 . S
C2191 H2161 0.950 . S
C2191 C2186 1.363 . S
C2191 C2190 1.415 . S
H2192 C2189 0.999 . S
H2193 C2174 0.913 . S
H2194 C2212 0.951 . S
H2195 C2214 0.951 . S
H2196 C2216 0.950 . S
H2197 C2217 0.950 . S
H2198 C2219 0.950 . S
H2199 C2222 0.950 . S
H2200 C2223 0.950 1_556 S
H2201 C2225 0.950 . S
H2202 C2226 0.950 . S
H2203 C2227 0.951 . S
H2204 C2229 0.951 . S
H2205 C2231 0.950 . S
H2206 C2232 0.950 . S
H2207 C2234 0.950 . S
H2208 C2237 0.950 . S
H2209 C2238 0.950 . S
H2210 C2240 0.950 . S
H2211 C2241 0.950 . S
C2212 H2194 0.951 . S
C2212 C2213 1.366 . S
C2212 C2214 1.388 . S
C2213 C2212 1.366 . S
C2213 C2217 1.385 . S
C2214 H2195 0.951 . S
C2214 C2212 1.388 . S
C2214 C2215 1.366 . S
C2215 C2214 1.366 . S
C2215 C2216 1.414 . S
C2215 C2218 1.499 . S
C2216 H2196 0.950 . S
C2216 C2215 1.414 . S
C2216 C2217 1.374 . S
C2217 H2197 0.950 . S
C2217 C2213 1.385 . S
C2217 C2216 1.374 . S
C2218 C2215 1.499 . S
C2218 C2219 1.373 . S
C2218 C2220 1.389 . S
C2219 H2198 0.950 . S
C2219 C2218 1.373 . S
C2219 C2235 1.377 . S
C2220 C2218 1.389 . S
C2220 C2221 1.524 . S
C2220 C2234 1.377 . S
C2221 C2220 1.524 . S
C2221 C2222 1.397 . S
C2221 C2226 1.363 . S
C2222 H2199 0.950 . S
C2222 C2221 1.397 . S
C2222 C2223 1.334 . S
C2223 H2200 0.950 1_554 S
C2223 C2222 1.334 . S
C2223 C2224 1.287 . S
C2224 C2223 1.287 . S
C2224 C2225 1.524 . S
C2224 H2243 0.913 1_554 S
C2225 H2201 0.950 . S
C2225 C2224 1.524 . S
C2225 C2226 1.415 . S
C2226 H2202 0.950 . S
C2226 C2221 1.363 . S
C2226 C2225 1.415 . S
C2227 H2203 0.951 . S
C2227 C2228 1.366 . S
C2227 C2229 1.388 . S
C2228 C2227 1.366 . S
C2228 C2232 1.385 . S
C2229 H2204 0.951 . S
C2229 C2227 1.388 . S
C2229 C2230 1.366 . S
C2230 C2229 1.366 . S
C2230 C2231 1.414 . S
C2230 C2233 1.499 . S
C2231 H2205 0.950 . S
C2231 C2230 1.414 . S
C2231 C2232 1.374 . S
C2232 H2206 0.950 . S
C2232 C2228 1.385 . S
C2232 C2231 1.374 . S
C2233 C2230 1.499 . S
C2233 C2234 1.373 . S
C2233 C2235 1.389 . S
C2234 H2207 0.950 . S
C2234 C2220 1.377 . S
C2234 C2233 1.373 . S
C2235 C2219 1.377 . S
C2235 C2233 1.389 . S
C2235 C2236 1.524 . S
C2236 C2235 1.524 . S
C2236 C2237 1.397 . S
C2236 C2241 1.363 . S
C2237 H2208 0.950 . S
C2237 C2236 1.397 . S
C2237 C2238 1.334 . S
C2238 H2209 0.950 . S
C2238 C2237 1.334 . S
C2238 C2239 1.287 . S
C2239 C2238 1.287 . S
C2239 C2240 1.524 . S
C2239 H2242 0.999 . S
C2240 H2210 0.950 . S
C2240 C2239 1.524 . S
C2240 C2241 1.415 . S
C2241 H2211 0.950 . S
C2241 C2236 1.363 . S
C2241 C2240 1.415 . S
H2242 C2239 0.999 . S
H2243 C2224 0.913 1_556 S
H2244 C2262 0.951 . S
H2245 C2264 0.951 . S
H2246 C2266 0.950 . S
H2247 C2267 0.950 . S
H2248 C2269 0.950 . S
H2249 C2272 0.950 . S
H2250 C2273 0.950 . S
H2251 C2275 0.950 . S
H2252 C2276 0.950 . S
H2253 C2277 0.951 . S
H2254 C2279 0.951 . S
H2255 C2281 0.950 . S
H2256 C2282 0.950 . S
H2257 C2284 0.950 . S
H2258 C2287 0.950 . S
H2259 C2288 0.950 . S
H2260 C2290 0.950 . S
H2261 C2291 0.950 . S
C2262 H2244 0.951 . S
C2262 C2263 1.366 . S
C2262 C2264 1.388 . S
C2263 C2262 1.366 . S
C2263 C2267 1.385 . S
C2264 H2245 0.951 . S
C2264 C2262 1.388 . S
C2264 C2265 1.366 . S
C2265 C2264 1.366 . S
C2265 C2266 1.414 . S
C2265 C2268 1.499 . S
C2266 H2246 0.950 . S
C2266 C2265 1.414 . S
C2266 C2267 1.374 . S
C2267 H2247 0.950 . S
C2267 C2263 1.385 . S
C2267 C2266 1.374 . S
C2268 C2265 1.499 . S
C2268 C2269 1.373 . S
C2268 C2270 1.389 . S
C2269 H2248 0.950 . S
C2269 C2268 1.373 . S
C2269 C2285 1.377 . S
C2270 C2268 1.389 . S
C2270 C2271 1.524 . S
C2270 C2284 1.377 . S
C2271 C2270 1.524 . S
C2271 C2272 1.397 . S
C2271 C2276 1.363 . S
C2272 H2249 0.950 . S
C2272 C2271 1.397 . S
C2272 C2273 1.334 . S
C2273 H2250 0.950 . S
C2273 C2272 1.334 . S
C2273 C2274 1.287 . S
C2274 C2273 1.287 . S
C2274 C2275 1.524 . S
C2274 H2293 0.913 . S
C2275 H2251 0.950 . S
C2275 C2274 1.524 . S
C2275 C2276 1.415 . S
C2276 H2252 0.950 . S
C2276 C2271 1.363 . S
C2276 C2275 1.415 . S
C2277 H2253 0.951 . S
C2277 C2278 1.366 . S
C2277 C2279 1.388 . S
C2278 C2277 1.366 . S
C2278 C2282 1.385 . S
C2279 H2254 0.951 . S
C2279 C2277 1.388 . S
C2279 C2280 1.366 . S
C2280 C2279 1.366 . S
C2280 C2281 1.414 . S
C2280 C2283 1.499 . S
C2281 H2255 0.950 . S
C2281 C2280 1.414 . S
C2281 C2282 1.374 . S
C2282 H2256 0.950 . S
C2282 C2278 1.385 . S
C2282 C2281 1.374 . S
C2283 C2280 1.499 . S
C2283 C2284 1.373 . S
C2283 C2285 1.389 . S
C2284 H2257 0.950 . S
C2284 C2270 1.377 . S
C2284 C2283 1.373 . S
C2285 C2269 1.377 . S
C2285 C2283 1.389 . S
C2285 C2286 1.524 . S
C2286 C2285 1.524 . S
C2286 C2287 1.397 . S
C2286 C2291 1.363 . S
C2287 H2258 0.950 . S
C2287 C2286 1.397 . S
C2287 C2288 1.334 . S
C2288 H2259 0.950 . S
C2288 C2287 1.334 . S
C2288 C2289 1.287 . S
C2289 C2288 1.287 . S
C2289 C2290 1.524 . S
C2289 H2292 0.999 . S
C2290 H2260 0.950 . S
C2290 C2289 1.524 . S
C2290 C2291 1.415 . S
C2291 H2261 0.950 . S
C2291 C2286 1.363 . S
C2291 C2290 1.415 . S
H2292 C2289 0.999 . S
H2293 C2274 0.913 . S
H2294 C2312 0.951 . S
H2295 C2314 0.951 . S
H2296 C2316 0.950 . S
H2297 C2317 0.950 . S
H2298 C2319 0.950 . S
H2299 C2322 0.950 . S
H2300 C2323 0.950 . S
H2301 C2325 0.950 . S
H2302 C2326 0.950 . S
H2303 C2327 0.951 . S
H2304 C2329 0.951 . S
H2305 C2331 0.950 . S
H2306 C2332 0.950 . S
H2307 C2334 0.950 . S
H2308 C2337 0.950 . S
H2309 C2338 0.950 . S
H2310 C2340 0.950 . S
H2311 C2341 0.950 . S
C2312 H2294 0.951 . S
C2312 C2313 1.366 . S
C2312 C2314 1.388 1_556 S
C2313 C2312 1.366 . S
C2313 C2317 1.385 1_556 S
C2314 H2295 0.951 . S
C2314 C2312 1.388 1_554 S
C2314 C2315 1.366 . S
C2315 C2314 1.366 . S
C2315 C2316 1.414 . S
C2315 C2318 1.499 . S
C2316 H2296 0.950 . S
C2316 C2315 1.414 . S
C2316 C2317 1.374 . S
C2317 H2297 0.950 . S
C2317 C2313 1.385 1_554 S
C2317 C2316 1.374 . S
C2318 C2315 1.499 . S
C2318 C2319 1.373 . S
C2318 C2320 1.389 . S
C2319 H2298 0.950 . S
C2319 C2318 1.373 . S
C2319 C2335 1.377 . S
C2320 C2318 1.389 . S
C2320 C2321 1.524 . S
C2320 C2334 1.377 . S
C2321 C2320 1.524 . S
C2321 C2322 1.397 . S
C2321 C2326 1.363 . S
C2322 H2299 0.950 . S
C2322 C2321 1.397 . S
C2322 C2323 1.334 . S
C2323 H2300 0.950 . S
C2323 C2322 1.334 . S
C2323 C2324 1.287 . S
C2324 C2323 1.287 . S
C2324 C2325 1.524 . S
C2324 H2343 0.913 . S
C2325 H2301 0.950 . S
C2325 C2324 1.524 . S
C2325 C2326 1.415 . S
C2326 H2302 0.950 . S
C2326 C2321 1.363 . S
C2326 C2325 1.415 . S
C2327 H2303 0.951 . S
C2327 C2328 1.366 . S
C2327 C2329 1.388 . S
C2328 C2327 1.366 . S
C2328 C2332 1.385 . S
C2329 H2304 0.951 . S
C2329 C2327 1.388 . S
C2329 C2330 1.366 . S
C2330 C2329 1.366 . S
C2330 C2331 1.414 . S
C2330 C2333 1.499 . S
C2331 H2305 0.950 . S
C2331 C2330 1.414 . S
C2331 C2332 1.374 . S
C2332 H2306 0.950 . S
C2332 C2328 1.385 . S
C2332 C2331 1.374 . S
C2333 C2330 1.499 . S
C2333 C2334 1.373 . S
C2333 C2335 1.389 . S
C2334 H2307 0.950 . S
C2334 C2320 1.377 . S
C2334 C2333 1.373 . S
C2335 C2319 1.377 . S
C2335 C2333 1.389 . S
C2335 C2336 1.524 . S
C2336 C2335 1.524 . S
C2336 C2337 1.397 . S
C2336 C2341 1.363 . S
C2337 H2308 0.950 . S
C2337 C2336 1.397 . S
C2337 C2338 1.334 . S
C2338 H2309 0.950 . S
C2338 C2337 1.334 . S
C2338 C2339 1.287 . S
C2339 C2338 1.287 . S
C2339 C2340 1.524 . S
C2339 H2342 0.999 . S
C2340 H2310 0.950 . S
C2340 C2339 1.524 . S
C2340 C2341 1.415 . S
C2341 H2311 0.950 . S
C2341 C2336 1.363 . S
C2341 C2340 1.415 . S
H2342 C2339 0.999 . S
H2343 C2324 0.913 . S
H2344 C2362 0.951 . S
H2345 C2364 0.951 . S
H2346 C2366 0.950 . S
H2347 C2367 0.950 . S
H2348 C2369 0.950 . S
H2349 C2372 0.950 . S
H2350 C2373 0.950 . S
H2351 C2375 0.950 . S
H2352 C2376 0.950 . S
H2353 C2377 0.951 . S
H2354 C2379 0.951 . S
H2355 C2381 0.950 . S
H2356 C2382 0.950 . S
H2357 C2384 0.950 . S
H2358 C2387 0.950 . S
H2359 C2388 0.950 . S
H2360 C2390 0.950 . S
H2361 C2391 0.950 . S
C2362 H2344 0.951 . S
C2362 C2363 1.366 . S
C2362 C2364 1.388 . S
C2363 C2362 1.366 . S
C2363 C2367 1.385 . S
C2364 H2345 0.951 . S
C2364 C2362 1.388 . S
C2364 C2365 1.366 . S
C2365 C2364 1.366 . S
C2365 C2366 1.414 . S
C2365 C2368 1.499 . S
C2366 H2346 0.950 . S
C2366 C2365 1.414 . S
C2366 C2367 1.374 . S
C2367 H2347 0.950 . S
C2367 C2363 1.385 . S
C2367 C2366 1.374 . S
C2368 C2365 1.499 . S
C2368 C2369 1.373 . S
C2368 C2370 1.389 . S
C2369 H2348 0.950 . S
C2369 C2368 1.373 . S
C2369 C2385 1.377 . S
C2370 C2368 1.389 . S
C2370 C2371 1.524 . S
C2370 C2384 1.377 . S
C2371 C2370 1.524 . S
C2371 C2372 1.397 . S
C2371 C2376 1.363 . S
C2372 H2349 0.950 . S
C2372 C2371 1.397 . S
C2372 C2373 1.334 . S
C2373 H2350 0.950 . S
C2373 C2372 1.334 . S
C2373 C2374 1.287 . S
C2374 C2373 1.287 . S
C2374 C2375 1.524 . S
C2374 H2393 0.913 . S
C2375 H2351 0.950 . S
C2375 C2374 1.524 . S
C2375 C2376 1.415 . S
C2376 H2352 0.950 . S
C2376 C2371 1.363 . S
C2376 C2375 1.415 . S
C2377 H2353 0.951 . S
C2377 C2378 1.366 . S
C2377 C2379 1.388 . S
C2378 C2377 1.366 . S
C2378 C2382 1.385 . S
C2379 H2354 0.951 . S
C2379 C2377 1.388 . S
C2379 C2380 1.366 . S
C2380 C2379 1.366 . S
C2380 C2381 1.414 . S
C2380 C2383 1.499 . S
C2381 H2355 0.950 . S
C2381 C2380 1.414 . S
C2381 C2382 1.374 . S
C2382 H2356 0.950 . S
C2382 C2378 1.385 . S
C2382 C2381 1.374 . S
C2383 C2380 1.499 . S
C2383 C2384 1.373 . S
C2383 C2385 1.389 . S
C2384 H2357 0.950 . S
C2384 C2370 1.377 . S
C2384 C2383 1.373 . S
C2385 C2369 1.377 . S
C2385 C2383 1.389 . S
C2385 C2386 1.524 . S
C2386 C2385 1.524 . S
C2386 C2387 1.397 . S
C2386 C2391 1.363 . S
C2387 H2358 0.950 . S
C2387 C2386 1.397 . S
C2387 C2388 1.334 . S
C2388 H2359 0.950 . S
C2388 C2387 1.334 . S
C2388 C2389 1.287 . S
C2389 C2388 1.287 . S
C2389 C2390 1.524 . S
C2389 H2392 0.999 . S
C2390 H2360 0.950 . S
C2390 C2389 1.524 . S
C2390 C2391 1.415 . S
C2391 H2361 0.950 . S
C2391 C2386 1.363 . S
C2391 C2390 1.415 . S
H2392 C2389 0.999 . S
H2393 C2374 0.913 . S
H2394 C2412 0.951 . S
H2395 C2414 0.951 . S
H2396 C2416 0.950 . S
H2397 C2417 0.950 . S
H2398 C2419 0.950 . S
H2399 C2422 0.950 . S
H2400 C2423 0.950 . S
H2401 C2425 0.950 . S
H2402 C2426 0.950 . S
H2403 C2427 0.951 . S
H2404 C2429 0.951 . S
H2405 C2431 0.950 . S
H2406 C2432 0.950 . S
H2407 C2434 0.950 . S
H2408 C2437 0.950 . S
H2409 C2438 0.950 . S
H2410 C2440 0.950 . S
H2411 C2441 0.950 . S
C2412 H2394 0.951 . S
C2412 C2413 1.366 . S
C2412 C2414 1.388 . S
C2413 C2412 1.366 . S
C2413 C2417 1.385 . S
C2414 H2395 0.951 . S
C2414 C2412 1.388 . S
C2414 C2415 1.366 . S
C2415 C2414 1.366 . S
C2415 C2416 1.414 . S
C2415 C2418 1.499 . S
C2416 H2396 0.950 . S
C2416 C2415 1.414 . S
C2416 C2417 1.374 . S
C2417 H2397 0.950 . S
C2417 C2413 1.385 . S
C2417 C2416 1.374 . S
C2418 C2415 1.499 . S
C2418 C2419 1.373 . S
C2418 C2420 1.389 . S
C2419 H2398 0.950 . S
C2419 C2418 1.373 . S
C2419 C2435 1.377 . S
C2420 C2418 1.389 . S
C2420 C2421 1.524 . S
C2420 C2434 1.377 . S
C2421 C2420 1.524 . S
C2421 C2422 1.397 . S
C2421 C2426 1.363 . S
C2422 H2399 0.950 . S
C2422 C2421 1.397 . S
C2422 C2423 1.334 . S
C2423 H2400 0.950 . S
C2423 C2422 1.334 . S
C2423 C2424 1.287 . S
C2424 C2423 1.287 . S
C2424 C2425 1.524 . S
C2424 H2443 0.913 . S
C2425 H2401 0.950 . S
C2425 C2424 1.524 . S
C2425 C2426 1.415 . S
C2426 H2402 0.950 . S
C2426 C2421 1.363 . S
C2426 C2425 1.415 . S
C2427 H2403 0.951 . S
C2427 C2428 1.366 . S
C2427 C2429 1.388 . S
C2428 C2427 1.366 . S
C2428 C2432 1.385 . S
C2429 H2404 0.951 . S
C2429 C2427 1.388 . S
C2429 C2430 1.366 . S
C2430 C2429 1.366 . S
C2430 C2431 1.414 . S
C2430 C2433 1.499 . S
C2431 H2405 0.950 . S
C2431 C2430 1.414 . S
C2431 C2432 1.374 . S
C2432 H2406 0.950 . S
C2432 C2428 1.385 . S
C2432 C2431 1.374 . S
C2433 C2430 1.499 . S
C2433 C2434 1.373 . S
C2433 C2435 1.389 . S
C2434 H2407 0.950 . S
C2434 C2420 1.377 . S
C2434 C2433 1.373 . S
C2435 C2419 1.377 . S
C2435 C2433 1.389 . S
C2435 C2436 1.524 . S
C2436 C2435 1.524 . S
C2436 C2437 1.397 . S
C2436 C2441 1.363 . S
C2437 H2408 0.950 . S
C2437 C2436 1.397 . S
C2437 C2438 1.334 . S
C2438 H2409 0.950 . S
C2438 C2437 1.334 . S
C2438 C2439 1.287 . S
C2439 C2438 1.287 . S
C2439 C2440 1.524 . S
C2439 H2442 0.999 . S
C2440 H2410 0.950 . S
C2440 C2439 1.524 . S
C2440 C2441 1.415 . S
C2441 H2411 0.950 . S
C2441 C2436 1.363 . S
C2441 C2440 1.415 . S
H2442 C2439 0.999 . S
H2443 C2424 0.913 . S
H2444 C2462 0.951 . S
H2445 C2464 0.951 . S
H2446 C2466 0.950 . S
H2447 C2467 0.950 . S
H2448 C2469 0.950 . S
H2449 C2472 0.950 . S
H2450 C2473 0.950 . S
H2451 C2475 0.950 . S
H2452 C2476 0.950 . S
H2453 C2477 0.951 . S
H2454 C2479 0.951 . S
H2455 C2481 0.950 . S
H2456 C2482 0.950 . S
H2457 C2484 0.950 . S
H2458 C2487 0.950 . S
H2459 C2488 0.950 . S
H2460 C2490 0.950 . S
H2461 C2491 0.950 . S
C2462 H2444 0.951 . S
C2462 C2463 1.366 . S
C2462 C2464 1.388 . S
C2463 C2462 1.366 . S
C2463 C2467 1.385 . S
C2464 H2445 0.951 . S
C2464 C2462 1.388 . S
C2464 C2465 1.366 . S
C2465 C2464 1.366 . S
C2465 C2466 1.414 . S
C2465 C2468 1.499 . S
C2466 H2446 0.950 . S
C2466 C2465 1.414 . S
C2466 C2467 1.374 . S
C2467 H2447 0.950 . S
C2467 C2463 1.385 . S
C2467 C2466 1.374 . S
C2468 C2465 1.499 . S
C2468 C2469 1.373 . S
C2468 C2470 1.389 . S
C2469 H2448 0.950 . S
C2469 C2468 1.373 . S
C2469 C2485 1.377 . S
C2470 C2468 1.389 . S
C2470 C2471 1.524 . S
C2470 C2484 1.377 . S
C2471 C2470 1.524 . S
C2471 C2472 1.397 . S
C2471 C2476 1.363 . S
C2472 H2449 0.950 . S
C2472 C2471 1.397 . S
C2472 C2473 1.334 . S
C2473 H2450 0.950 . S
C2473 C2472 1.334 . S
C2473 C2474 1.287 . S
C2474 C2473 1.287 . S
C2474 C2475 1.524 . S
C2474 H2493 0.913 . S
C2475 H2451 0.950 . S
C2475 C2474 1.524 . S
C2475 C2476 1.415 . S
C2476 H2452 0.950 . S
C2476 C2471 1.363 . S
C2476 C2475 1.415 . S
C2477 H2453 0.951 . S
C2477 C2478 1.366 . S
C2477 C2479 1.388 . S
C2478 C2477 1.366 . S
C2478 C2482 1.385 . S
C2479 H2454 0.951 . S
C2479 C2477 1.388 . S
C2479 C2480 1.366 . S
C2480 C2479 1.366 . S
C2480 C2481 1.414 . S
C2480 C2483 1.499 . S
C2481 H2455 0.950 . S
C2481 C2480 1.414 . S
C2481 C2482 1.374 . S
C2482 H2456 0.950 . S
C2482 C2478 1.385 . S
C2482 C2481 1.374 . S
C2483 C2480 1.499 . S
C2483 C2484 1.373 . S
C2483 C2485 1.389 . S
C2484 H2457 0.950 . S
C2484 C2470 1.377 . S
C2484 C2483 1.373 . S
C2485 C2469 1.377 . S
C2485 C2483 1.389 . S
C2485 C2486 1.524 . S
C2486 C2485 1.524 . S
C2486 C2487 1.397 . S
C2486 C2491 1.363 . S
C2487 H2458 0.950 . S
C2487 C2486 1.397 . S
C2487 C2488 1.334 . S
C2488 H2459 0.950 . S
C2488 C2487 1.334 . S
C2488 C2489 1.287 . S
C2489 C2488 1.287 . S
C2489 C2490 1.524 . S
C2489 H2492 0.999 . S
C2490 H2460 0.950 . S
C2490 C2489 1.524 . S
C2490 C2491 1.415 . S
C2491 H2461 0.950 . S
C2491 C2486 1.363 . S
C2491 C2490 1.415 . S
H2492 C2489 0.999 . S
H2493 C2474 0.913 . S
H2494 C2512 0.951 . S
H2495 C2514 0.951 . S
H2496 C2516 0.950 . S
H2497 C2517 0.950 . S
H2498 C2519 0.950 . S
H2499 C2522 0.950 . S
H2500 C2523 0.950 . S
H2501 C2525 0.950 . S
H2502 C2526 0.950 . S
H2503 C2527 0.951 . S
H2504 C2529 0.951 . S
H2505 C2531 0.950 . S
H2506 C2532 0.950 . S
H2507 C2534 0.950 . S
H2508 C2537 0.950 . S
H2509 C2538 0.950 . S
H2510 C2540 0.950 . S
H2511 C2541 0.950 . S
C2512 H2494 0.951 . S
C2512 C2513 1.366 . S
C2512 C2514 1.388 . S
C2513 C2512 1.366 . S
C2513 C2517 1.385 . S
C2514 H2495 0.951 . S
C2514 C2512 1.388 . S
C2514 C2515 1.366 . S
C2515 C2514 1.366 . S
C2515 C2516 1.414 . S
C2515 C2518 1.499 . S
C2516 H2496 0.950 . S
C2516 C2515 1.414 . S
C2516 C2517 1.374 . S
C2517 H2497 0.950 . S
C2517 C2513 1.385 . S
C2517 C2516 1.374 . S
C2518 C2515 1.499 . S
C2518 C2519 1.373 . S
C2518 C2520 1.389 . S
C2519 H2498 0.950 . S
C2519 C2518 1.373 . S
C2519 C2535 1.377 . S
C2520 C2518 1.389 . S
C2520 C2521 1.524 . S
C2520 C2534 1.377 . S
C2521 C2520 1.524 . S
C2521 C2522 1.397 . S
C2521 C2526 1.363 . S
C2522 H2499 0.950 . S
C2522 C2521 1.397 . S
C2522 C2523 1.334 . S
C2523 H2500 0.950 . S
C2523 C2522 1.334 . S
C2523 C2524 1.287 . S
C2524 C2523 1.287 . S
C2524 C2525 1.524 . S
C2524 H2543 0.913 . S
C2525 H2501 0.950 . S
C2525 C2524 1.524 . S
C2525 C2526 1.415 . S
C2526 H2502 0.950 . S
C2526 C2521 1.363 . S
C2526 C2525 1.415 . S
C2527 H2503 0.951 . S
C2527 C2528 1.366 . S
C2527 C2529 1.388 . S
C2528 C2527 1.366 . S
C2528 C2532 1.385 . S
C2529 H2504 0.951 . S
C2529 C2527 1.388 . S
C2529 C2530 1.366 . S
C2530 C2529 1.366 . S
C2530 C2531 1.414 . S
C2530 C2533 1.499 . S
C2531 H2505 0.950 . S
C2531 C2530 1.414 . S
C2531 C2532 1.374 . S
C2532 H2506 0.950 . S
C2532 C2528 1.385 . S
C2532 C2531 1.374 . S
C2533 C2530 1.499 . S
C2533 C2534 1.373 . S
C2533 C2535 1.389 . S
C2534 H2507 0.950 . S
C2534 C2520 1.377 . S
C2534 C2533 1.373 . S
C2535 C2519 1.377 . S
C2535 C2533 1.389 . S
C2535 C2536 1.524 . S
C2536 C2535 1.524 . S
C2536 C2537 1.397 . S
C2536 C2541 1.363 . S
C2537 H2508 0.950 . S
C2537 C2536 1.397 . S
C2537 C2538 1.334 . S
C2538 H2509 0.950 . S
C2538 C2537 1.334 . S
C2538 C2539 1.287 . S
C2539 C2538 1.287 . S
C2539 C2540 1.524 . S
C2539 H2542 0.999 . S
C2540 H2510 0.950 . S
C2540 C2539 1.524 . S
C2540 C2541 1.415 . S
C2541 H2511 0.950 . S
C2541 C2536 1.363 . S
C2541 C2540 1.415 . S
H2542 C2539 0.999 . S
H2543 C2524 0.913 . S
H2544 C2562 0.951 . S
H2545 C2564 0.951 . S
H2546 C2566 0.950 . S
H2547 C2567 0.950 . S
H2548 C2569 0.940 1_554 S
H2549 C2572 0.950 1_554 S
H2550 C2573 0.950 1_554 S
H2551 C2575 0.950 . S
H2552 C2576 0.950 . S
H2553 C2577 0.951 . S
H2554 C2579 0.951 . S
H2555 C2581 0.950 . S
H2556 C2582 0.950 . S
H2557 C2584 0.950 . S
H2558 C2587 0.950 . S
H2559 C2588 0.950 . S
H2560 C2590 0.950 . S
H2561 C2591 0.950 . S
C2562 H2544 0.951 . S
C2562 C2563 1.366 . S
C2562 C2564 1.388 . S
C2563 C2562 1.366 . S
C2563 C2567 1.385 1_556 S
C2564 H2545 0.951 . S
C2564 C2562 1.388 . S
C2564 C2565 1.366 . S
C2565 C2564 1.366 . S
C2565 C2566 1.414 1_556 S
C2565 C2568 1.499 . S
C2566 H2546 0.950 . S
C2566 C2565 1.414 1_554 S
C2566 C2567 1.374 . S
C2567 H2547 0.950 . S
C2567 C2563 1.385 1_554 S
C2567 C2566 1.374 . S
C2568 C2565 1.499 . S
C2568 C2569 1.379 . S
C2568 C2570 1.389 . S
C2569 H2548 0.940 1_556 S
C2569 C2568 1.379 . S
C2569 C2585 1.382 . S
C2570 C2568 1.389 . S
C2570 C2571 1.524 . S
C2570 C2584 1.377 . S
C2571 C2570 1.524 . S
C2571 C2572 1.397 . S
C2571 C2576 1.363 . S
C2572 H2549 0.950 1_556 S
C2572 C2571 1.397 . S
C2572 C2573 1.334 . S
C2573 H2550 0.950 1_556 S
C2573 C2572 1.334 . S
C2573 C2574 1.287 . S
C2574 C2573 1.287 . S
C2574 C2575 1.524 . S
C2574 H2593 0.913 . S
C2575 H2551 0.950 . S
C2575 C2574 1.524 . S
C2575 C2576 1.415 . S
C2576 H2552 0.950 . S
C2576 C2571 1.363 . S
C2576 C2575 1.415 . S
C2577 H2553 0.951 . S
C2577 C2578 1.366 1_554 S
C2577 C2579 1.388 . S
C2578 C2577 1.366 1_556 S
C2578 C2582 1.385 . S
C2579 H2554 0.951 . S
C2579 C2577 1.388 . S
C2579 C2580 1.366 1_554 S
C2580 C2579 1.366 1_556 S
C2580 C2581 1.414 . S
C2580 C2583 1.499 . S
C2581 H2555 0.950 . S
C2581 C2580 1.414 . S
C2581 C2582 1.374 . S
C2582 H2556 0.950 . S
C2582 C2578 1.385 . S
C2582 C2581 1.374 . S
C2583 C2580 1.499 . S
C2583 C2584 1.373 . S
C2583 C2585 1.389 . S
C2584 H2557 0.950 . S
C2584 C2570 1.377 . S
C2584 C2583 1.373 . S
C2585 C2569 1.382 . S
C2585 C2583 1.389 . S
C2585 C2586 1.524 1_556 S
C2586 C2585 1.524 1_554 S
C2586 C2587 1.397 1_554 S
C2586 C2591 1.363 . S
C2587 H2558 0.950 . S
C2587 C2586 1.397 1_556 S
C2587 C2588 1.334 . S
C2588 H2559 0.950 . S
C2588 C2587 1.334 . S
C2588 C2589 1.287 1_556 S
C2589 C2588 1.287 1_554 S
C2589 C2590 1.524 . S
C2589 H2592 0.999 . S
C2590 H2560 0.950 . S
C2590 C2589 1.524 . S
C2590 C2591 1.415 . S
C2591 H2561 0.950 . S
C2591 C2586 1.363 . S
C2591 C2590 1.415 . S
H2592 C2589 0.999 . S
H2593 C2574 0.913 . S
H2594 C2612 0.951 . S
H2595 C2614 0.951 . S
H2596 C2616 0.950 . S
H2597 C2617 0.950 . S
H2598 C2619 0.950 . S
H2599 C2622 0.950 . S
H2600 C2623 0.950 . S
H2601 C2625 0.950 . S
H2602 C2626 0.950 . S
H2603 C2627 0.951 . S
H2604 C2629 0.951 . S
H2605 C2631 0.950 . S
H2606 C2632 0.950 . S
H2607 C2634 0.950 . S
H2608 C2637 0.950 . S
H2609 C2638 0.950 . S
H2610 C2640 0.950 . S
H2611 C2641 0.950 . S
C2612 H2594 0.951 . S
C2612 C2613 1.366 . S
C2612 C2614 1.388 . S
C2613 C2612 1.366 . S
C2613 C2617 1.385 . S
C2614 H2595 0.951 . S
C2614 C2612 1.388 . S
C2614 C2615 1.366 . S
C2615 C2614 1.366 . S
C2615 C2616 1.414 . S
C2615 C2618 1.499 . S
C2616 H2596 0.950 . S
C2616 C2615 1.414 . S
C2616 C2617 1.374 . S
C2617 H2597 0.950 . S
C2617 C2613 1.385 . S
C2617 C2616 1.374 . S
C2618 C2615 1.499 . S
C2618 C2619 1.373 . S
C2618 C2620 1.389 . S
C2619 H2598 0.950 . S
C2619 C2618 1.373 . S
C2619 C2635 1.377 . S
C2620 C2618 1.389 . S
C2620 C2621 1.524 . S
C2620 C2634 1.377 . S
C2621 C2620 1.524 . S
C2621 C2622 1.397 . S
C2621 C2626 1.363 . S
C2622 H2599 0.950 . S
C2622 C2621 1.397 . S
C2622 C2623 1.334 . S
C2623 H2600 0.950 . S
C2623 C2622 1.334 . S
C2623 C2624 1.287 . S
C2624 C2623 1.287 . S
C2624 C2625 1.524 . S
C2624 H2643 0.913 . S
C2625 H2601 0.950 . S
C2625 C2624 1.524 . S
C2625 C2626 1.415 . S
C2626 H2602 0.950 . S
C2626 C2621 1.363 . S
C2626 C2625 1.415 . S
C2627 H2603 0.951 . S
C2627 C2628 1.366 . S
C2627 C2629 1.388 . S
C2628 C2627 1.366 . S
C2628 C2632 1.385 . S
C2629 H2604 0.951 . S
C2629 C2627 1.388 . S
C2629 C2630 1.366 . S
C2630 C2629 1.366 . S
C2630 C2631 1.414 . S
C2630 C2633 1.499 . S
C2631 H2605 0.950 . S
C2631 C2630 1.414 . S
C2631 C2632 1.374 . S
C2632 H2606 0.950 . S
C2632 C2628 1.385 . S
C2632 C2631 1.374 . S
C2633 C2630 1.499 . S
C2633 C2634 1.373 . S
C2633 C2635 1.389 . S
C2634 H2607 0.950 . S
C2634 C2620 1.377 . S
C2634 C2633 1.373 . S
C2635 C2619 1.377 . S
C2635 C2633 1.389 . S
C2635 C2636 1.524 . S
C2636 C2635 1.524 . S
C2636 C2637 1.397 . S
C2636 C2641 1.363 . S
C2637 H2608 0.950 . S
C2637 C2636 1.397 . S
C2637 C2638 1.334 . S
C2638 H2609 0.950 . S
C2638 C2637 1.334 . S
C2638 C2639 1.287 . S
C2639 C2638 1.287 . S
C2639 C2640 1.524 . S
C2639 H2642 0.999 . S
C2640 H2610 0.950 . S
C2640 C2639 1.524 . S
C2640 C2641 1.415 . S
C2641 H2611 0.950 . S
C2641 C2636 1.363 . S
C2641 C2640 1.415 . S
H2642 C2639 0.999 . S
H2643 C2624 0.913 . S
H2644 C2662 0.951 . S
H2645 C2664 0.951 . S
H2646 C2666 0.950 . S
H2647 C2667 0.950 . S
H2648 C2669 0.950 . S
H2649 C2672 0.950 . S
H2650 C2673 0.950 . S
H2651 C2675 0.950 . S
H2652 C2676 0.950 1_554 S
H2653 C2677 0.951 . S
H2654 C2679 0.951 . S
H2655 C2681 0.950 . S
H2656 C2682 0.950 . S
H2657 C2684 0.976 . S
H2658 C2687 0.950 . S
H2659 C2688 0.950 . S
H2660 C2690 0.950 . S
H2661 C2691 0.950 . S
C2662 H2644 0.951 . S
C2662 C2663 1.366 . S
C2662 C2664 1.388 . S
C2663 C2662 1.366 . S
C2663 C2667 1.385 . S
C2664 H2645 0.951 . S
C2664 C2662 1.388 . S
C2664 C2665 1.366 . S
C2665 C2664 1.366 . S
C2665 C2666 1.414 . S
C2665 C2668 1.499 . S
C2666 H2646 0.950 . S
C2666 C2665 1.414 . S
C2666 C2667 1.374 . S
C2667 H2647 0.950 . S
C2667 C2663 1.385 . S
C2667 C2666 1.374 . S
C2668 C2665 1.499 . S
C2668 C2669 1.373 . S
C2668 C2670 1.389 . S
C2669 H2648 0.950 . S
C2669 C2668 1.373 . S
C2669 C2685 1.377 . S
C2670 C2668 1.389 . S
C2670 C2671 1.524 1_554 S
C2670 C2684 1.377 . S
C2671 C2670 1.524 1_556 S
C2671 C2672 1.397 . S
C2671 C2676 1.363 . S
C2672 H2649 0.950 . S
C2672 C2671 1.397 . S
C2672 C2673 1.334 . S
C2673 H2650 0.950 . S
C2673 C2672 1.334 . S
C2673 C2674 1.287 . S
C2674 C2673 1.287 . S
C2674 C2675 1.524 . S
C2674 H2693 0.913 . S
C2675 H2651 0.950 . S
C2675 C2674 1.524 . S
C2675 C2676 1.415 . S
C2676 H2652 0.950 1_556 S
C2676 C2671 1.363 . S
C2676 C2675 1.415 . S
C2677 H2653 0.951 . S
C2677 C2678 1.366 . S
C2677 C2679 1.388 . S
C2678 C2677 1.366 . S
C2678 C2682 1.385 . S
C2679 H2654 0.951 . S
C2679 C2677 1.388 . S
C2679 C2680 1.366 . S
C2680 C2679 1.366 . S
C2680 C2681 1.414 . S
C2680 C2683 1.499 . S
C2681 H2655 0.950 . S
C2681 C2680 1.414 . S
C2681 C2682 1.374 . S
C2682 H2656 0.950 . S
C2682 C2678 1.385 . S
C2682 C2681 1.374 . S
C2683 C2680 1.499 . S
C2683 C2684 1.373 . S
C2683 C2685 1.389 . S
C2684 H2657 0.976 . S
C2684 C2670 1.377 . S
C2684 C2683 1.373 . S
C2685 C2669 1.377 . S
C2685 C2683 1.389 . S
C2685 C2686 1.524 . S
C2686 C2685 1.524 . S
C2686 C2687 1.397 . S
C2686 C2691 1.363 . S
C2687 H2658 0.950 . S
C2687 C2686 1.397 . S
C2687 C2688 1.334 . S
C2688 H2659 0.950 . S
C2688 C2687 1.334 . S
C2688 C2689 1.287 . S
C2689 C2688 1.287 . S
C2689 C2690 1.524 . S
C2689 H2692 0.999 . S
C2690 H2660 0.950 . S
C2690 C2689 1.524 . S
C2690 C2691 1.415 . S
C2691 H2661 0.950 . S
C2691 C2686 1.363 . S
C2691 C2690 1.415 . S
H2692 C2689 0.999 . S
H2693 C2674 0.913 . S
H2694 C2712 0.951 . S
H2695 C2714 0.951 . S
H2696 C2716 0.950 . S
H2697 C2717 0.950 . S
H2698 C2719 0.950 1_545 S
H2699 C2722 0.950 . S
H2700 C2723 0.950 . S
H2701 C2725 0.950 1_556 S
H2702 C2726 0.950 . S
H2703 C2727 0.951 . S
H2704 C2729 0.951 . S
H2705 C2731 0.950 . S
H2706 C2732 0.950 . S
H2707 C2734 0.950 . S
H2708 C2737 0.950 . S
H2709 C2738 0.950 . S
H2710 C2740 0.950 . S
H2711 C2741 0.950 . S
C2712 H2694 0.951 . S
C2712 C2713 1.366 . S
C2712 C2714 1.388 1_545 S
C2713 C2712 1.366 . S
C2713 C2717 1.385 . S
C2714 H2695 0.951 . S
C2714 C2712 1.388 1_565 S
C2714 C2715 1.366 . S
C2715 C2714 1.366 . S
C2715 C2716 1.414 1_565 S
C2715 C2718 1.499 . S
C2716 H2696 0.950 . S
C2716 C2715 1.414 1_545 S
C2716 C2717 1.374 . S
C2717 H2697 0.950 . S
C2717 C2713 1.385 . S
C2717 C2716 1.374 . S
C2718 C2715 1.499 . S
C2718 C2719 1.373 . S
C2718 C2720 1.389 . S
C2719 H2698 0.950 1_565 S
C2719 C2718 1.373 . S
C2719 C2735 1.377 . S
C2720 C2718 1.389 . S
C2720 C2721 1.524 . S
C2720 C2734 1.377 . S
C2721 C2720 1.524 . S
C2721 C2722 1.397 . S
C2721 C2726 1.363 . S
C2722 H2699 0.950 . S
C2722 C2721 1.397 . S
C2722 C2723 1.334 . S
C2723 H2700 0.950 . S
C2723 C2722 1.334 . S
C2723 C2724 1.287 . S
C2724 C2723 1.287 . S
C2724 C2725 1.524 . S
C2724 H2743 0.913 . S
C2725 H2701 0.950 1_554 S
C2725 C2724 1.524 . S
C2725 C2726 1.415 . S
C2726 H2702 0.950 . S
C2726 C2721 1.363 . S
C2726 C2725 1.415 . S
C2727 H2703 0.951 . S
C2727 C2728 1.366 . S
C2727 C2729 1.388 . S
C2728 C2727 1.366 . S
C2728 C2732 1.385 . S
C2729 H2704 0.951 . S
C2729 C2727 1.388 . S
C2729 C2730 1.366 . S
C2730 C2729 1.366 . S
C2730 C2731 1.414 . S
C2730 C2733 1.499 . S
C2731 H2705 0.950 . S
C2731 C2730 1.414 . S
C2731 C2732 1.374 . S
C2732 H2706 0.950 . S
C2732 C2728 1.385 . S
C2732 C2731 1.374 . S
C2733 C2730 1.499 . S
C2733 C2734 1.373 . S
C2733 C2735 1.389 . S
C2734 H2707 0.950 . S
C2734 C2720 1.377 . S
C2734 C2733 1.373 . S
C2735 C2719 1.377 . S
C2735 C2733 1.389 . S
C2735 C2736 1.524 . S
C2736 C2735 1.524 . S
C2736 C2737 1.397 . S
C2736 C2741 1.363 1_565 S
C2737 H2708 0.950 . S
C2737 C2736 1.397 . S
C2737 C2738 1.334 1_565 S
C2738 H2709 0.950 . S
C2738 C2737 1.334 1_545 S
C2738 C2739 1.287 . S
C2739 C2738 1.287 . S
C2739 C2740 1.524 . S
C2739 H2742 0.999 . S
C2740 H2710 0.950 . S
C2740 C2739 1.524 . S
C2740 C2741 1.415 . S
C2741 H2711 0.950 . S
C2741 C2736 1.363 1_545 S
C2741 C2740 1.415 . S
H2742 C2739 0.999 . S
H2743 C2724 0.913 . S
C378 C187 1.516 . S
C363 C60 1.547 . S
C428 C195 1.102 . S
C413 C76 1.305 . S
C463 C81 1.651 . S
C478 C215 1.623 . S
C528 C229 1.580 . S
C513 C48 1.619 . S
C578 C244 1.538 . S
C563 C115 1.533 . S
C628 C258 1.622 . S
C613 C136 1.623 . S
C663 C131 1.370 . S
C678 C272 1.368 . S
C728 C278 1.496 . S
C713 C104 1.525 . S
C763 C126 1.524 . S
C778 C292 1.498 . S
C828 C313 1.420 . S
C813 C103 1.438 . S
C863 C120 1.368 . S
C878 C293 1.158 . S
C928 C314 1.412 . S
C913 C142 1.412 . S
C963 C82 1.455 . S
C978 C321 1.201 . S
C1013 C54 1.870 . S
C1028 C327 1.846 . S
C1063 C65 1.394 . S
C1078 C320 1.355 . S
C1113 C71 1.180 . S
C1128 C328 1.188 . S
C1163 C37 1.581 . S
C1178 C222 1.550 1_565 S
C1213 C158 2.042 . S
C1228 C223 1.817 . S
C1278 C180 1.358 . S
C1263 C169 1.402 . S
C1328 C201 1.160 . S
C1313 C98 1.159 . S
C1363 C49 1.751 1_545 S
C1378 C236 1.728 . S
C1428 C286 1.428 . S
C1413 C125 1.422 . S
C1478 C237 1.128 . S
C1463 C109 1.299 . S
C1528 C265 1.562 . S
C1513 C137 1.860 . S
C1578 C271 1.517 . S
C1563 C159 1.547 . S
C1613 C175 1.306 . S
C1628 C279 1.099 . S
C1663 C92 1.651 . S
C1678 C243 1.622 . S
C1728 C257 1.580 . S
C1713 C147 1.619 . S
C1763 C38 1.533 . S
C1778 C216 1.539 . S
C1828 C230 1.621 . S
C1813 C4 1.623 . S
C1878 C188 1.369 . S
C1863 C21 1.370 . S
C1928 C194 1.497 . S
C1913 C27 1.525 . S
C1963 C16 1.524 . S
C1978 C306 1.497 . S
C2013 C26 1.438 1_455 S
C2028 C299 1.420 . S
C2063 C43 1.368 . S
C2078 C307 1.157 . S
C2113 C10 1.413 . S
C2128 C300 1.412 . S
C2178 C335 1.202 . S
C2163 C93 1.456 . S
C2228 C341 1.847 . S
C2213 C153 1.871 . S
C2278 C334 1.356 . S
C2263 C164 1.394 . S
C2313 C170 1.180 . S
C2328 C342 1.187 . S
C2363 C114 1.581 . S
C2378 C250 1.551 . S
C2428 C251 1.816 . S
C2413 C59 2.041 . S
C2478 C264 1.358 . S
C2463 C70 1.402 . S
C2528 C285 1.161 . S
C2513 C87 1.165 . S
C2563 C148 1.751 . S
C2578 C208 1.728 . S
C2628 C202 1.428 . S
C2613 C15 1.428 . S
C2663 C32 1.299 . S
C2678 C209 1.130 . S
C2728 C181 1.560 . S
C2713 C5 1.860 . S
