# Generated by pormake.
# Topology zzz, (3,6)-cn, num edge types: 1
# Building blocks:
#     Node 0, Type 0, BuildingBlock: QEWDON_clean_linker_0, # of connection points: 3
#     Node 1, Type 0, BuildingBlock: QEWDON_clean_linker_0, # of connection points: 3
#     Node 2, Type 0, BuildingBlock: QEWDON_clean_linker_0, # of connection points: 3
#     Node 3, Type 0, BuildingBlock: QEWDON_clean_linker_0, # of connection points: 3
#     Node 4, Type 0, BuildingBlock: QEWDON_clean_linker_0, # of connection points: 3
#     Node 5, Type 0, BuildingBlock: QEWDON_clean_linker_0, # of connection points: 3
#     Node 6, Type 0, BuildingBlock: QEWDON_clean_linker_0, # of connection points: 3
#     Node 7, Type 0, BuildingBlock: QEWDON_clean_linker_0, # of connection points: 3
#     Node 8, Type 1, BuildingBlock: BETDEL_clean_sbu_0, # of connection points: 6
#     Node 9, Type 1, BuildingBlock: BETDEL_clean_sbu_0, # of connection points: 6
#     Node 10, Type 1, BuildingBlock: BETDEL_clean_sbu_0, # of connection points: 6
#     Node 11, Type 1, BuildingBlock: BETDEL_clean_sbu_0, # of connection points: 6
#     Edge 12, Type (0, 1), BuildingBlock: AJUNOK_clean_linker_0, # of connection points: 2
#     Edge 13, Type (0, 1), BuildingBlock: AJUNOK_clean_linker_0, # of connection points: 2
#     Edge 14, Type (0, 1), BuildingBlock: AJUNOK_clean_linker_0, # of connection points: 2
#     Edge 15, Type (0, 1), BuildingBlock: AJUNOK_clean_linker_0, # of connection points: 2
#     Edge 16, Type (0, 1), BuildingBlock: AJUNOK_clean_linker_0, # of connection points: 2
#     Edge 17, Type (0, 1), BuildingBlock: AJUNOK_clean_linker_0, # of connection points: 2
#     Edge 18, Type (0, 1), BuildingBlock: AJUNOK_clean_linker_0, # of connection points: 2
#     Edge 19, Type (0, 1), BuildingBlock: AJUNOK_clean_linker_0, # of connection points: 2
#     Edge 20, Type (0, 1), BuildingBlock: AJUNOK_clean_linker_0, # of connection points: 2
#     Edge 21, Type (0, 1), BuildingBlock: AJUNOK_clean_linker_0, # of connection points: 2
#     Edge 22, Type (0, 1), BuildingBlock: AJUNOK_clean_linker_0, # of connection points: 2
#     Edge 23, Type (0, 1), BuildingBlock: AJUNOK_clean_linker_0, # of connection points: 2
#     Edge 24, Type (0, 1), BuildingBlock: AJUNOK_clean_linker_0, # of connection points: 2
#     Edge 25, Type (0, 1), BuildingBlock: AJUNOK_clean_linker_0, # of connection points: 2
#     Edge 26, Type (0, 1), BuildingBlock: AJUNOK_clean_linker_0, # of connection points: 2
#     Edge 27, Type (0, 1), BuildingBlock: AJUNOK_clean_linker_0, # of connection points: 2
#     Edge 28, Type (0, 1), BuildingBlock: AJUNOK_clean_linker_0, # of connection points: 2
#     Edge 29, Type (0, 1), BuildingBlock: AJUNOK_clean_linker_0, # of connection points: 2
#     Edge 30, Type (0, 1), BuildingBlock: AJUNOK_clean_linker_0, # of connection points: 2
#     Edge 31, Type (0, 1), BuildingBlock: AJUNOK_clean_linker_0, # of connection points: 2
#     Edge 32, Type (0, 1), BuildingBlock: AJUNOK_clean_linker_0, # of connection points: 2
#     Edge 33, Type (0, 1), BuildingBlock: AJUNOK_clean_linker_0, # of connection points: 2
#     Edge 34, Type (0, 1), BuildingBlock: AJUNOK_clean_linker_0, # of connection points: 2
#     Edge 35, Type (0, 1), BuildingBlock: AJUNOK_clean_linker_0, # of connection points: 2
# Relax obj value: 0.097
# Max RMSD: 0.197
# Mean RMSD: 0.077
data_MOF--net-zzz--node1-BETDEL_clean_sbu_0--node2-QEWDON_clean_linker_0--edge1-AJUNOK_clean_linker_0
_symmetry_space_group_name_H-M    P1
_symmetry_Int_Tables_number       1
_symmetry_cell_setting            triclinic
loop_
_symmetry_equiv_pos_as_xyz
'x, y, z'
_cell_length_a     38.828412
_cell_length_b     39.729915
_cell_length_c     10.961748
_cell_angle_alpha  91.360655
_cell_angle_beta   88.013808
_cell_angle_gamma 94.779716
loop_
_atom_site_label
_atom_site_type_symbol
_atom_site_fract_x
_atom_site_fract_y
_atom_site_fract_z
_atom_type_partial_charge
H0 H 0.78548 0.52285 0.92818 0.0
C1 C 0.79787 0.52495 0.01527 0.0
C2 C 0.82838 0.50876 0.02834 0.0
C3 C 0.78508 0.54555 0.11135 0.0
H4 H 0.8706 0.50193 0.14396 0.0
C5 C 0.84615 0.51312 0.13632 0.0
C6 C 0.83732 0.53686 0.22382 0.0
C7 C 0.80613 0.55213 0.21502 0.0
C8 C 0.75149 0.56188 0.09939 0.0
H9 H 0.79901 0.56908 0.28839 0.0
C10 C 0.72499 0.54806 0.02163 0.0
C11 C 0.69362 0.56356 0.01272 0.0
C12 C 0.74559 0.59188 0.16563 0.0
H13 H 0.7651 0.60467 0.22187 0.0
C14 C 0.71443 0.60674 0.15865 0.0
H15 H 0.72826 0.52513 0.96877 0.0
C16 C 0.68864 0.59274 0.08332 0.0
H17 H 0.66514 0.60543 0.07713 0.0
H18 H 0.71051 0.62972 0.21051 0.0
H19 H 0.03184 0.78818 0.92807 0.0
C20 C 0.03058 0.80006 0.01787 0.0
C21 C 0.04701 0.83278 0.03532 0.0
C22 C 1.01045 0.78407 0.11407 0.0
H23 H 0.0556 0.87451 0.16155 0.0
C24 C 0.04408 0.84881 0.14898 0.0
C25 C 1.01997 0.8364 0.23604 0.0
C26 C 1.00417 0.80354 0.22223 0.0
C27 C 0.99389 0.74854 0.09853 0.0
H28 H 0.98697 0.79383 0.29513 0.0
C29 C 1.00908 0.72404 0.02197 0.0
C30 C 0.99369 0.69049 0.01232 0.0
C31 C 0.96252 0.73864 0.16165 0.0
H32 H 0.9488 0.75645 0.2166 0.0
C33 C 0.94764 0.70553 0.15333 0.0
H34 H 0.03297 0.73068 0.97108 0.0
C35 C 0.9631 0.6816 0.07992 0.0
H36 H 0.95043 0.65632 0.07269 0.0
H37 H 0.9236 0.69849 0.20279 0.0
H38 H 0.77617 0.05669 0.96355 0.0
C39 C 0.75649 0.04644 0.02781 0.0
C40 C 0.72205 0.05283 0.01033 0.0
C41 C 0.76523 0.0277 0.12924 0.0
H42 H 0.66942 0.04449 0.07656 0.0
C43 C 0.6962 0.04023 0.09218 0.0
C44 C 0.70368 0.02286 0.19507 0.0
C45 C 0.73812 1.01595 0.21323 0.0
C46 C 0.80248 1.02175 0.14948 0.0
H47 H 0.74348 1.00178 0.29248 0.0
C48 C 0.82717 1.02001 0.05098 0.0
C49 C 0.86235 1.01562 0.07172 0.0
C50 C 0.81403 1.0189 0.26895 0.0
H51 H 0.79674 1.02117 0.34766 0.0
C52 C 0.84848 1.01398 0.28971 0.0
H53 H 0.81927 0.02242 0.95822 0.0
C54 C 0.87242 1.01237 0.19246 0.0
H55 H 0.89895 1.00851 0.21195 0.0
H56 H 0.85679 1.01175 0.38225 0.0
H57 H 0.51089 0.77098 0.97017 0.0
C58 C 0.52245 0.75571 0.03541 0.0
C59 C 0.51819 0.7204 0.02112 0.0
C60 C 0.54103 0.77064 0.13522 0.0
H61 H 0.52855 0.67265 0.09267 0.0
C62 C 0.53232 0.69998 0.10409 0.0
C63 C 0.55099 0.71341 0.20119 0.0
C64 C 0.55554 0.74869 0.21753 0.0
C65 C 0.54446 0.80854 0.15635 0.0
H66 H 0.57037 0.7585 0.29408 0.0
C67 C 0.5421 0.83181 0.0606 0.0
C68 C 0.54494 0.8672 0.0842 0.0
C69 C 0.54956 0.8219 0.27543 0.0
H70 H 0.54975 0.80578 0.35336 0.0
C71 C 0.55412 0.8566 0.29761 0.0
H72 H 0.53787 0.82275 0.96811 0.0
C73 C 0.55229 0.87902 0.20308 0.0
H74 H 0.55648 0.90582 0.22365 0.0
H75 H 0.5588 0.86623 0.38931 0.0
H76 H 0.28009 0.55796 0.16626 0.0
C77 C 0.26422 0.54856 0.0915 0.0
C78 C 0.22917 0.55474 0.09403 0.0
C79 C 0.27856 0.53078 -0.00889 0.0
H80 H 0.18108 0.5472 0.00333 0.0
C81 C 0.2084 0.54285 -0.00101 0.0
C82 C 0.22068 0.52273 0.90504 0.0
C83 C 0.25614 0.51723 0.89832 0.0
C84 C 0.31692 0.52822 0.98055 0.0
H85 H 0.26601 0.50235 0.82288 0.0
C86 C 0.33704 0.52402 0.08414 0.0
C87 C 0.37373 0.52563 0.07431 0.0
C88 C 0.33404 0.53268 0.8663 0.0
H89 H 0.31974 0.53651 0.78538 0.0
C90 C 0.36997 0.53375 0.85538 0.0
H91 H 0.32403 0.5192 0.1716 0.0
C92 C 0.38964 0.53068 0.95797 0.0
H93 H 0.41752 0.53292 0.94589 0.0
H94 H 0.38277 0.53775 0.76697 0.0
H95 H 1.00536 0.26565 0.20849 0.0
C96 C 1.02021 0.25302 0.13836 0.0
C97 C 1.02612 0.219 0.15145 0.0
C98 C 0.03149 0.26989 0.03031 0.0
H99 H 0.04727 0.17556 0.07039 0.0
C100 C 0.04426 0.2023 0.06021 0.0
C101 C 0.05347 0.21724 0.94915 0.0
C102 C 0.04713 0.25135 0.93376 0.0
C103 C 1.02219 0.30512 0.01276 0.0
H104 H 0.05331 0.263 0.84647 0.0
C105 C 0.02905 0.33097 0.10204 0.0
C106 C 1.0171 0.36352 0.08975 0.0
C107 C 1.00385 0.31229 0.90977 0.0
H108 H 0.99788 0.29295 0.84059 0.0
C109 C 0.9914 0.34391 0.89795 0.0
H110 H 0.04374 0.32561 0.18047 0.0
C111 C 0.99731 0.36901 -0.01229 0.0
H112 H 0.98546 0.39244 0.97785 0.0
H113 H 0.9763 0.34875 0.82 0.0
H114 H 0.27645 0.99657 0.17318 0.0
C115 C 0.29574 1.00684 0.10747 0.0
C116 C 0.33023 1.00048 0.12206 0.0
C117 C 0.28629 0.02529 0.00656 0.0
H118 H 0.38251 1.00897 0.05313 0.0
C119 C 0.35564 1.01318 0.03892 0.0
C120 C 0.3475 0.03018 0.93584 0.0
C121 C 0.31277 0.03679 0.91969 0.0
C122 C 0.24871 0.03035 -0.01031 0.0
H123 H 0.30661 0.05037 0.83997 0.0
C124 C 0.22508 0.03262 0.09099 0.0
C125 C 0.18916 0.03398 0.07487 0.0
C126 C 0.2356 0.03071 0.87168 0.0
H127 H 0.25229 0.02826 0.79141 0.0
C128 C 0.20033 0.0327 0.85506 0.0
H129 H 0.23447 0.03324 0.18291 0.0
C130 C 0.17726 0.03391 0.95527 0.0
H131 H 0.14992 0.03375 0.93864 0.0
H132 H 0.19066 0.03235 0.76355 0.0
H133 H 0.54417 0.28292 0.16296 0.0
C134 C 0.5333 0.29809 0.09558 0.0
C135 C 0.53718 0.33337 0.10854 0.0
C136 C 0.51615 0.28285 -0.00637 0.0
H137 H 0.52714 0.38079 0.03381 0.0
C138 C 0.5237 0.35344 0.02283 0.0
C139 C 0.50635 0.33961 0.9231 0.0
C140 C 0.5027 0.30422 0.907 0.0
C141 C 0.51378 0.2451 0.97462 0.0
H142 H 0.48949 0.29366 0.82777 0.0
C143 C 0.51108 0.22251 0.07387 0.0
C144 C 0.50933 0.1871 0.05309 0.0
C145 C 0.51521 0.23132 0.85512 0.0
H146 H 0.51847 0.24741 0.7766 0.0
C147 C 0.51345 0.19646 0.83456 0.0
H148 H 0.50974 0.2322 0.1669 0.0
C149 C 0.51056 0.17454 0.93231 0.0
H150 H 0.51 0.14761 0.91335 0.0
H151 H 0.51478 0.18637 0.74206 0.0
Dy152 Dy 0.04694 1.01284 0.68909 0.0
C153 C 0.98692 0.09266 0.33943 0.0
C154 C 0.05072 0.96153 0.84526 0.0
Dy155 Dy 1.00726 0.0432 0.48413 0.0
O156 O 0.07666 0.98328 0.81687 0.0
O157 O 1.02255 0.9711 0.80185 0.0
O158 O 0.0994 1.01069 0.59545 0.0
O159 O 0.05908 0.02869 0.50346 0.0
C160 C 0.09041 0.02229 0.49261 0.0
C161 C 0.96761 1.01954 0.67378 0.0
O162 O 1.00812 0.99098 0.40132 0.0
O163 O 1.02191 0.96898 0.58534 0.0
O164 O 0.97264 0.08364 0.44322 0.0
O165 O 1.0105 0.07216 0.31023 0.0
O166 O 0.95838 1.01714 0.56071 0.0
O167 O 0.99731 0.03542 0.67986 0.0
O168 O 0.05319 0.06603 0.76079 0.0
O169 O 0.03612 0.08751 0.57832 0.0
C170 C 1.01299 0.96493 0.47082 0.0
C171 C 0.04864 0.09179 0.68925 0.0
Dy172 Dy 0.49999 1.00229 0.49099 0.0
C173 C 0.61703 0.06841 0.71179 0.0
C174 C 0.4349 0.9826 0.41974 0.0
Dy175 Dy 0.55146 0.04979 0.64204 0.0
O176 O 0.44399 1.00958 0.48312 0.0
O177 O 0.46201 0.96643 0.38995 0.0
O178 O 0.54443 0.97852 0.39103 0.0
O179 O 0.55025 0.0283 0.45909 0.0
C180 C 0.56633 1.00463 0.4126 0.0
C181 C 0.48493 0.04771 0.71907 0.0
O182 O 0.5409 0.08631 0.497 0.0
O183 O 0.49698 0.05299 0.40201 0.0
O184 O 0.59031 0.08523 0.74155 0.0
O185 O 0.60724 0.04138 0.64981 0.0
O186 O 0.50685 0.07387 0.74033 0.0
O187 O 0.50112 0.02397 0.67362 0.0
O188 O 0.51054 0.96562 0.63477 0.0
O189 O 0.55334 0.99941 0.73502 0.0
C190 C 0.51607 0.08224 0.41609 0.0
C191 C 0.53477 0.97004 0.71738 0.0
Dy192 Dy 0.51002 0.54321 0.66202 0.0
C193 C 0.56266 0.45784 0.31109 0.0
C194 C 0.49735 0.5963 0.81545 0.0
Dy195 Dy 0.54779 0.51009 0.46539 0.0
O196 O 0.47431 0.57948 0.75012 0.0
O197 O 0.52583 0.58143 0.80673 0.0
O198 O 0.45896 0.52203 0.59416 0.0
O199 O 0.49954 0.53487 0.4673 0.0
C200 C 0.46863 0.52191 0.47939 0.0
C201 C 0.58917 0.53283 0.64533 0.0
O202 O 0.55357 0.5607 0.37716 0.0
O203 O 0.5379 0.58605 0.55954 0.0
O204 O 0.58346 0.47217 0.3902 0.0
O205 O 0.53549 0.47467 0.30818 0.0
O206 O 0.59824 0.53331 0.53003 0.0
O207 O 0.55868 0.51884 0.65979 0.0
O208 O 0.50463 0.49245 0.74941 0.0
O209 O 0.51856 0.46743 0.56474 0.0
C210 C 0.54947 0.58819 0.44524 0.0
C211 C 0.50789 0.46505 0.67991 0.0
Dy212 Dy 1.01134 0.50958 0.66136 0.0
C213 C 0.10232 0.56484 0.31002 0.0
C214 C 0.95716 0.49288 0.81972 0.0
Dy215 Dy 0.04798 0.54727 0.46645 0.0
O216 O 0.96931 0.47268 0.73759 0.0
O217 O 0.97715 0.52068 0.823 0.0
O218 O 0.02956 0.46096 0.58897 0.0
O219 O 1.01837 0.49799 0.46532 0.0
C220 C 0.02946 0.46901 0.47472 0.0
C221 C 0.02791 0.58805 0.64737 0.0
O222 O 0.99581 0.54796 0.38392 0.0
O223 O 0.96931 0.53367 0.56873 0.0
O224 O 0.08873 0.58518 0.38843 0.0
O225 O 0.08356 0.53627 0.30849 0.0
O226 O 0.02832 0.59545 0.53246 0.0
O227 O 0.03994 0.55957 0.66162 0.0
O228 O 0.0631 0.50709 0.74321 0.0
O229 O 0.09024 0.52411 0.56231 0.0
C230 C 0.96751 0.54331 0.45502 0.0
C231 C 0.09155 0.51244 0.67367 0.0
C232 C 0.16739 1.0102 0.2768 0.0
C233 C 0.16383 0.0328 0.18189 0.0
C234 C 0.14334 1.00716 0.37541 0.0
C235 C 0.11433 0.02626 0.38361 0.0
H236 H 0.18866 0.99418 0.27403 0.0
H237 H 0.14739 0.98927 0.44555 0.0
S238 S 0.09403 0.09112 0.16549 0.0
N239 N 0.12968 0.07628 0.10703 0.0
N240 N 0.08435 0.06991 0.29166 0.0
C241 C 0.11046 0.04921 0.29057 0.0
C242 C 0.13518 0.05261 0.1901 0.0
C243 C 0.53299 0.16521 0.24453 0.0
C244 C 0.50766 0.16266 0.15533 0.0
C245 C 0.53493 0.13963 0.33032 0.0
C246 C 0.51152 0.11043 0.33096 0.0
H247 H 0.5524 0.18644 0.24476 0.0
H248 H 0.55567 0.14242 0.3943 0.0
S249 S 0.43758 0.09376 0.12511 0.0
N250 N 0.45682 0.13013 0.07931 0.0
N251 N 0.46016 0.08233 0.23971 0.0
C252 C 0.485 0.10849 0.24561 0.0
C253 C 0.48315 0.13447 0.15822 0.0
C254 C 0.4272 0.5067 0.17039 0.0
C255 C 0.39611 0.52292 0.18306 0.0
C256 C 0.45044 0.50646 0.2661 0.0
C257 C 0.44326 0.52149 0.3803 0.0
H258 H 0.43394 0.49417 0.08512 0.0
H259 H 0.47411 0.49421 0.2506 0.0
S260 S 0.36635 0.56769 0.46425 0.0
N261 N 0.36045 0.55545 0.32096 0.0
N262 N 0.40303 0.55309 0.50187 0.0
C263 C 0.41207 0.53704 0.39614 0.0
C264 C 0.38876 0.53811 0.29771 0.0
C265 C 1.02269 0.38308 0.31033 0.0
C266 C 1.02329 0.39108 0.18554 0.0
C267 C 1.02578 0.40837 0.40225 0.0
C268 C 0.02889 0.44295 0.37428 0.0
H269 H 1.01872 0.35706 0.33823 0.0
H270 H 1.0246 0.40063 0.49649 0.0
S271 S 0.03473 0.47822 0.06342 0.0
N272 N 0.0308 0.4369 0.03986 0.0
N273 N 0.0338 0.48398 0.21304 0.0
C274 C 0.0302 0.45149 0.25053 0.0
C275 C 0.02807 0.42576 0.15637 0.0
C276 C 0.92182 0.03338 0.98236 0.0
C277 C 0.88915 1.01534 0.96948 0.0
C278 C 0.94756 0.03365 0.88862 0.0
C279 C 0.94171 1.0161 0.77734 0.0
H280 H 0.9274 0.04804 0.06496 0.0
H281 H 0.97186 0.0485 0.90233 0.0
S282 S 0.86205 0.9627 0.69961 0.0
N283 N 0.85362 0.97755 0.83846 0.0
N284 N 0.90147 0.97874 0.66181 0.0
C285 C 0.90954 0.99739 0.76397 0.0
C286 C 0.88341 0.99692 0.85973 0.0
C287 C 0.55644 0.88949 0.87024 0.0
C288 C 0.54031 0.89232 -0.01295 0.0
C289 C 0.55451 0.91455 0.7821 0.0
C290 C 0.53665 0.94338 0.8082 0.0
H291 H 0.57138 0.86822 0.84778 0.0
H292 H 0.5675 0.91163 0.69389 0.0
S293 S 0.48718 0.96182 0.09291 0.0
N294 N 0.50318 0.92545 0.11794 0.0
N295 N 0.50099 0.97261 0.95414 0.0
C296 C 0.51975 0.94617 0.92236 0.0
C297 C 0.52121 0.92066 0.01126 0.0
C298 C 0.67585 0.55023 0.79798 0.0
C299 C 0.66689 0.55152 0.92319 0.0
C300 C 0.6505 0.54406 0.70986 0.0
C301 C 0.61507 0.53837 0.74298 0.0
H302 H 0.70258 0.55538 0.7675 0.0
H303 H 0.65884 0.54411 0.61454 0.0
S304 S 0.57822 0.53669 0.05994 0.0
N305 N 0.62019 0.5453 0.07663 0.0
N306 N 0.57271 0.53271 0.91132 0.0
C307 C 0.60586 0.53838 0.86828 0.0
C308 C 0.63168 0.54521 0.95812 0.0
C309 C 1.01001 0.67227 0.79947 0.0
C310 C 1.00721 0.6651 0.92439 0.0
C311 C 1.0171 0.64719 0.7119 0.0
C312 C 1.02224 0.61392 0.74531 0.0
H313 H 1.00516 0.69709 0.76859 0.0
H314 H 1.018 0.65395 0.61663 0.0
S315 S 1.02073 0.58289 0.06221 0.0
N316 N 1.01187 0.62276 0.07833 0.0
N317 N 1.02633 0.57595 0.91388 0.0
C318 C 1.02103 0.60677 0.87052 0.0
C319 C 1.01322 0.63224 0.95985 0.0
C320 C 0.03082 0.18043 0.31888 0.0
C321 C 1.00894 0.19688 0.24491 0.0
C322 C 1.023 0.14663 0.34914 0.0
C323 C 0.99233 0.12867 0.31157 0.0
H324 H 0.05624 0.19221 0.33902 0.0
H325 H 0.04187 0.13402 0.39785 0.0
S326 S 0.92309 0.16238 0.13976 0.0
N327 N 0.95321 0.19421 0.1493 0.0
N328 N 0.9375 0.131 0.21442 0.0
C329 C 0.96819 0.14595 0.25163 0.0
C330 C 0.97654 0.18025 0.21791 0.0
C331 C 0.3462 1.00155 0.33635 0.0
C332 C 0.3423 0.98281 0.22709 0.0
C333 C 0.3747 0.99815 0.40843 0.0
C334 C 0.39987 0.97597 0.37261 0.0
H335 H 0.3303 0.02226 0.35669 0.0
H336 H 0.37895 1.01568 0.48475 0.0
S337 S 0.39433 0.91353 0.11681 0.0
N338 N 0.36026 0.93534 0.10401 0.0
N339 N 0.41406 0.92897 0.23963 0.0
C340 C 0.39268 0.95288 0.2765 0.0
C341 C 0.36346 0.95613 0.20395 0.0
C342 C 0.58383 0.37155 0.19004 0.0
C343 C 0.5523 0.35208 0.2136 0.0
C344 C 0.58805 0.40581 0.22643 0.0
C345 C 0.56074 0.4212 0.28608 0.0
H346 H 0.60311 0.36178 0.12805 0.0
H347 H 0.61148 0.42083 0.19899 0.0
S348 S 0.4778 0.37813 0.40088 0.0
N349 N 0.49783 0.34811 0.32845 0.0
N350 N 0.50419 0.41276 0.38892 0.0
C351 C 0.53131 0.40068 0.32492 0.0
C352 C 0.52798 0.36567 0.29363 0.0
C353 C 0.19189 0.59542 0.18999 0.0
C354 C 0.21002 0.56641 0.20278 0.0
C355 C 0.15707 0.59566 0.2296 0.0
C356 C 0.13974 0.56684 0.28187 0.0
H357 H 0.203 0.61587 0.13369 0.0
H358 H 0.14301 0.61725 0.21026 0.0
S359 S 0.17894 0.48899 0.36719 0.0
N360 N 0.2108 0.51222 0.29871 0.0
N361 N 0.14514 0.51157 0.36713 0.0
C362 C 0.15908 0.53987 0.31066 0.0
C363 C 0.19467 0.54036 0.27524 0.0
C364 C 0.02666 0.86792 0.87954 0.0
C365 C 0.0555 0.85651 0.93479 0.0
C366 C 1.02558 0.902 0.85226 0.0
C367 C 0.05384 0.92575 0.87408 0.0
H368 H 1.00298 0.85155 0.87319 0.0
H369 H 1.00181 0.9099 0.81744 0.0
S370 S 0.13895 0.90658 -0.01539 0.0
N371 N 0.11536 0.86998 -0.01211 0.0
N372 N 0.11392 0.93406 0.93085 0.0
C373 C 0.0846 0.91374 0.9123 0.0
C374 C 0.08553 0.87894 0.94149 0.0
C375 C 0.68792 0.09585 0.92545 0.0
C376 C 0.71033 0.07001 0.90313 0.0
C377 C 0.65888 0.09794 0.85432 0.0
C378 C 0.65236 0.07499 0.757 0.0
H379 H 0.6896 0.1107 0.00959 0.0
H380 H 0.63973 0.11499 0.88388 0.0
S381 S 0.71112 1.01253 0.63297 0.0
N382 N 0.72959 0.02798 0.75815 0.0
N383 N 0.67606 0.03285 0.6203 0.0
C384 C 0.67842 0.05396 0.71956 0.0
C385 C 0.70758 0.05154 0.79316 0.0
C386 C 0.47229 0.68109 0.94022 0.0
C387 C 0.50285 0.702 0.91553 0.0
C388 C 0.46955 0.64685 0.90271 0.0
C389 C 0.49734 0.63293 0.84026 0.0
H390 H 0.45289 0.68971 0.00436 0.0
H391 H 0.44703 0.63071 0.93167 0.0
S392 S 0.57743 0.68016 0.71982 0.0
N393 N 0.55634 0.70887 0.79554 0.0
N394 N 0.55284 0.6444 0.73248 0.0
C395 C 0.52549 0.65492 0.7996 0.0
C396 C 0.52725 0.68986 0.83224 0.0
C397 C 0.8685 0.52407 0.86164 0.0
C398 C 0.84976 0.4976 0.92381 0.0
C399 C 0.90332 0.52199 0.82849 0.0
C400 C 0.91996 0.49264 0.84943 0.0
H401 H 0.85789 0.54833 0.8552 0.0
H402 H 0.91761 0.54401 0.7897 0.0
S403 S 0.87939 0.41294 0.97572 0.0
N404 N 0.84829 0.439 -0.01619 0.0
N405 N 0.91342 0.43423 0.91162 0.0
C406 C 0.9001 0.46415 0.89298 0.0
C407 C 0.86479 0.46662 0.93045 0.0
C408 C 0.08556 0.16932 0.86698 0.0
C409 C 0.06128 0.19316 0.84779 0.0
C410 C 0.08209 0.13676 0.81324 0.0
C411 C 0.05493 0.12722 0.73506 0.0
H412 H 0.10503 0.17462 0.93482 0.0
H413 H 0.09989 0.11855 0.83706 0.0
S414 S 0.9874 0.18162 0.64188 0.0
N415 N 1.01143 0.20589 0.73556 0.0
N416 N 1.00526 0.14534 0.63223 0.0
C417 C 0.03263 0.15192 0.70562 0.0
C418 C 0.03597 0.18486 0.76141 0.0
C419 C 0.39557 0.06889 0.8438 0.0
C420 C 0.37664 0.03707 0.84538 0.0
C421 C 0.43024 0.07251 0.79888 0.0
C422 C 0.44744 0.04431 0.75683 0.0
H423 H 0.38439 0.09062 0.88548 0.0
H424 H 0.44413 0.0973 0.80243 0.0
S425 S 0.40892 0.9555 0.74324 0.0
N426 N 0.37705 0.97736 0.79549 0.0
N427 N 0.44229 0.98344 0.72132 0.0
C428 C 0.42828 1.0126 0.75518 0.0
C429 C 0.39286 1.00923 0.79596 0.0
C430 C 0.47479 0.38906 0.87045 0.0
C431 C 0.49741 0.36441 0.83279 0.0
C432 C 0.47758 0.4215 0.81987 0.0
C433 C 0.50303 0.43037 0.72954 0.0
H434 H 0.4569 0.38419 0.94728 0.0
H435 H 0.46057 0.44003 0.85461 0.0
S436 S 0.56846 0.37497 0.59994 0.0
N437 N 0.54509 0.3509 0.69764 0.0
N438 N 0.55127 0.41162 0.60485 0.0
C439 C 0.52469 0.40537 0.68739 0.0
C440 C 0.52144 0.37239 0.73763 0.0
C441 C 0.18871 0.52699 0.71551 0.0
C442 C 0.19403 0.50859 0.8198 0.0
C443 C 0.15572 0.52676 0.66655 0.0
C444 C 0.12662 0.5081 0.71969 0.0
H445 H 0.20926 0.54445 0.67928 0.0
H446 H 0.15268 0.54341 0.59162 0.0
S447 S 0.12804 0.45207 -0.0154 0.0
N448 N 0.16841 0.4684 0.9673 0.0
N449 N 0.10653 0.46773 0.87461 0.0
C450 C 0.13224 0.48738 0.81781 0.0
C451 C 0.16594 0.48743 0.86707 0.0
C452 C 0.98655 0.88561 0.28212 0.0
C453 C 1.0083 0.86196 0.32486 0.0
C454 C 0.98755 0.91885 0.33007 0.0
C455 C 1.01004 0.92942 0.42358 0.0
H456 H 0.97112 0.87932 0.20299 0.0
H457 H 0.97152 0.93659 0.29101 0.0
S458 S 0.07088 0.87637 0.57085 0.0
N459 N 0.05154 0.85087 0.46865 0.0
N460 N 0.05349 0.91268 0.56095 0.0
C461 C 0.03027 0.9052 0.47221 0.0
C462 C 0.02924 0.87159 0.42287 0.0
C463 C 0.65522 0.98391 0.28293 0.0
C464 C 0.67422 1.01569 0.28358 0.0
C465 C 0.62065 0.98013 0.32857 0.0
C466 C 0.60367 1.00816 0.37353 0.0
H467 H 0.66633 0.96235 0.23959 0.0
H468 H 0.6067 0.95539 0.32373 0.0
S469 S 0.64251 0.0968 0.39347 0.0
N470 N 0.67415 0.07514 0.33793 0.0
N471 N 0.60907 0.06885 0.41393 0.0
C472 C 0.62288 0.03984 0.37683 0.0
C473 C 0.65817 0.04334 0.33501 0.0
C474 C 0.58244 0.66375 0.25254 0.0
C475 C 0.56 0.6885 0.29066 0.0
C476 C 0.57967 0.6314 0.30376 0.0
C477 C 0.55427 0.62271 0.39457 0.0
H478 H 0.60021 0.66852 0.17532 0.0
H479 H 0.59662 0.61279 0.26914 0.0
S480 S 0.48877 0.67825 0.52288 0.0
N481 N 0.51237 0.70224 0.42559 0.0
N482 N 0.50587 0.64157 0.5183 0.0
C483 C 0.53259 0.64774 0.43621 0.0
C484 C 0.53599 0.68067 0.38596 0.0
C485 C 0.89316 0.56907 0.26739 0.0
C486 C 0.8648 0.5475 0.31052 0.0
C487 C 0.92631 0.56833 0.31534 0.0
C488 C 0.9322 0.54615 0.40895 0.0
H489 H 0.89036 0.58447 0.18861 0.0
H490 H 0.94759 0.58436 0.27612 0.0
S491 S 0.86629 0.48481 0.55374 0.0
N492 N 0.84469 0.50409 0.45295 0.0
N493 N 0.90629 0.50244 0.54416 0.0
C494 C 0.90353 0.5257 0.45679 0.0
C495 C 0.87001 0.52654 0.40775 0.0
loop_
_geom_bond_atom_site_label_1
_geom_bond_atom_site_label_2
_geom_bond_distance
_geom_bond_site_symmetry_2
_ccdc_geom_bond_type
H0 C1 0.949 1_556 S
C1 H0 0.949 1_554 S
C1 C2 1.395 . S
C1 C3 1.391 . S
C2 C1 1.395 . S
C2 C5 1.390 . S
C3 C1 1.391 . S
C3 C7 1.387 . S
C3 C8 1.491 . S
H4 C5 0.950 . S
C5 C2 1.390 . S
C5 H4 0.950 . S
C5 C6 1.378 . S
C6 C5 1.378 . S
C6 C7 1.409 . S
C7 C3 1.387 . S
C7 C6 1.409 . S
C7 H9 0.951 . S
C8 C3 1.491 . S
C8 C10 1.382 . S
C8 C12 1.404 . S
H9 C7 0.951 . S
C10 C8 1.382 . S
C10 C11 1.390 . S
C10 H15 0.949 1_554 S
C11 C10 1.390 . S
C11 C16 1.399 . S
C12 C8 1.404 . S
C12 H13 0.950 . S
C12 C14 1.375 . S
H13 C12 0.950 . S
C14 C12 1.375 . S
C14 C16 1.382 . S
C14 H18 0.950 . S
H15 C10 0.949 1_556 S
C16 C11 1.399 . S
C16 C14 1.382 . S
C16 H17 0.952 . S
H17 C16 0.952 . S
H18 C14 0.950 . S
H19 C20 0.949 . S
C20 H19 0.949 . S
C20 C21 1.395 . S
C20 C22 1.391 1_556 S
C21 C20 1.395 . S
C21 C24 1.389 1_656 S
C22 C20 1.391 1_554 S
C22 C26 1.387 . S
C22 C27 1.491 . S
H23 C24 0.952 . S
C24 C21 1.389 1_454 S
C24 H23 0.952 . S
C24 C25 1.378 1_455 S
C25 C24 1.378 1_655 S
C25 C26 1.409 . S
C26 C22 1.387 . S
C26 C25 1.409 . S
C26 H28 0.951 . S
C27 C22 1.491 . S
C27 C29 1.382 . S
C27 C31 1.404 . S
H28 C26 0.951 . S
C29 C27 1.382 . S
C29 C30 1.390 1_554 S
C29 H34 0.949 1_654 S
C30 C29 1.390 1_556 S
C30 C35 1.399 1_556 S
C31 C27 1.404 . S
C31 H32 0.950 . S
C31 C33 1.375 . S
H32 C31 0.950 . S
C33 C31 1.375 . S
C33 C35 1.382 . S
C33 H37 0.950 . S
H34 C29 0.949 1_456 S
C35 C30 1.399 1_554 S
C35 C33 1.382 . S
C35 H36 0.952 . S
H36 C35 0.952 . S
H37 C33 0.950 . S
H38 C39 0.949 . S
C39 H38 0.949 . S
C39 C40 1.395 . S
C39 C41 1.391 1_556 S
C40 C39 1.395 . S
C40 C43 1.390 1_556 S
C41 C39 1.391 1_554 S
C41 C45 1.387 . S
C41 C46 1.491 . S
H42 C43 0.950 . S
C43 C40 1.390 1_554 S
C43 H42 0.950 . S
C43 C44 1.378 . S
C44 C43 1.378 . S
C44 C45 1.409 . S
C45 C41 1.387 . S
C45 C44 1.409 . S
C45 H47 0.951 . S
C46 C41 1.491 . S
C46 C48 1.382 1_554 S
C46 C50 1.404 . S
H47 C45 0.951 . S
C48 C46 1.382 1_556 S
C48 C49 1.390 . S
C48 H53 0.949 . S
C49 C48 1.390 . S
C49 C54 1.399 1_556 S
C50 C46 1.404 . S
C50 H51 0.950 . S
C50 C52 1.375 . S
H51 C50 0.950 . S
C52 C50 1.375 . S
C52 C54 1.382 . S
C52 H56 0.950 . S
H53 C48 0.949 . S
C54 C49 1.399 1_554 S
C54 C52 1.382 . S
C54 H55 0.952 . S
H55 C54 0.952 . S
H56 C52 0.950 . S
H57 C58 0.949 1_556 S
C58 H57 0.949 1_554 S
C58 C59 1.395 . S
C58 C60 1.391 . S
C59 C58 1.395 . S
C59 C62 1.390 . S
C60 C58 1.391 . S
C60 C64 1.387 . S
C60 C65 1.491 . S
H61 C62 0.950 . S
C62 C59 1.390 . S
C62 H61 0.950 . S
C62 C63 1.378 . S
C63 C62 1.378 . S
C63 C64 1.409 . S
C64 C60 1.387 . S
C64 C63 1.409 . S
C64 H66 0.951 . S
C65 C60 1.491 . S
C65 C67 1.382 . S
C65 C69 1.404 . S
H66 C64 0.951 . S
C67 C65 1.382 . S
C67 C68 1.390 . S
C67 H72 0.949 . S
C68 C67 1.390 . S
C68 C73 1.399 . S
C69 C65 1.404 . S
C69 H70 0.950 . S
C69 C71 1.375 . S
H70 C69 0.950 . S
C71 C69 1.375 . S
C71 C73 1.382 . S
C71 H75 0.950 . S
H72 C67 0.949 . S
C73 C68 1.399 . S
C73 C71 1.382 . S
C73 H74 0.952 . S
H74 C73 0.952 . S
H75 C71 0.950 . S
H76 C77 0.949 . S
C77 H76 0.949 . S
C77 C78 1.395 . S
C77 C79 1.391 . S
C78 C77 1.395 . S
C78 C81 1.390 . S
C79 C77 1.391 . S
C79 C83 1.387 1_554 S
C79 C84 1.491 . S
H80 C81 0.950 . S
C81 C78 1.390 . S
C81 H80 0.950 . S
C81 C82 1.378 1_554 S
C82 C81 1.378 1_556 S
C82 C83 1.409 . S
C83 C79 1.387 1_556 S
C83 C82 1.409 . S
C83 H85 0.951 . S
C84 C79 1.491 . S
C84 C86 1.382 . S
C84 C88 1.404 1_554 S
H85 C83 0.951 . S
C86 C84 1.382 . S
C86 C87 1.390 . S
C86 H91 0.949 . S
C87 C86 1.390 . S
C87 C92 1.399 . S
C88 C84 1.404 1_556 S
C88 H89 0.950 . S
C88 C90 1.375 . S
H89 C88 0.950 . S
C90 C88 1.375 . S
C90 C92 1.382 1_556 S
C90 H94 0.950 . S
H91 C86 0.949 . S
C92 C87 1.399 . S
C92 C90 1.382 1_554 S
C92 H93 0.952 . S
H93 C92 0.952 . S
H94 C90 0.950 . S
H95 C96 0.949 . S
C96 H95 0.949 . S
C96 C97 1.395 1_655 S
C96 C98 1.391 . S
C97 C96 1.395 1_455 S
C97 C100 1.390 . S
C98 C96 1.391 . S
C98 C102 1.387 1_554 S
C98 C103 1.491 . S
H99 C100 0.950 . S
C100 C97 1.390 . S
C100 H99 0.950 . S
C100 C101 1.378 1_554 S
C101 C100 1.378 1_556 S
C101 C102 1.409 1_455 S
C102 C98 1.387 1_556 S
C102 C101 1.409 1_655 S
C102 H104 0.951 . S
C103 C98 1.491 . S
C103 C105 1.368 1_655 S
C103 C107 1.404 1_554 S
H104 C102 0.951 . S
C105 C103 1.368 1_455 S
C105 C106 1.380 1_455 S
C105 H110 0.974 . S
C106 C105 1.380 1_655 S
C106 C111 1.399 . S
C107 C103 1.404 1_556 S
C107 H108 0.950 . S
C107 C109 1.375 . S
H108 C107 0.950 . S
C109 C107 1.375 . S
C109 C111 1.382 1_556 S
C109 H113 0.950 . S
H110 C105 0.974 . S
C111 C106 1.399 . S
C111 C109 1.382 1_554 S
C111 H112 0.952 . S
H112 C111 0.952 . S
H113 C109 0.950 . S
H114 C115 0.949 . S
C115 H114 0.949 . S
C115 C116 1.395 . S
C115 C117 1.391 . S
C116 C115 1.395 . S
C116 C119 1.390 . S
C117 C115 1.391 . S
C117 C121 1.387 1_554 S
C117 C122 1.491 . S
H118 C119 0.950 . S
C119 C116 1.390 . S
C119 H118 0.950 . S
C119 C120 1.378 1_554 S
C120 C119 1.378 1_556 S
C120 C121 1.409 . S
C121 C117 1.387 1_556 S
C121 C120 1.409 . S
C121 H123 0.951 . S
C122 C117 1.491 . S
C122 C124 1.382 . S
C122 C126 1.404 1_554 S
H123 C121 0.951 . S
C124 C122 1.382 . S
C124 C125 1.390 . S
C124 H129 0.949 . S
C125 C124 1.390 . S
C125 C130 1.399 . S
C126 C122 1.404 1_556 S
C126 H127 0.950 1_545 S
C126 C128 1.375 1_545 S
H127 C126 0.950 1_565 S
C128 C126 1.375 1_565 S
C128 C130 1.382 1_566 S
C128 H132 0.950 . S
H129 C124 0.949 . S
C130 C125 1.399 . S
C130 C128 1.382 1_544 S
C130 H131 0.952 . S
H131 C130 0.952 . S
H132 C128 0.950 . S
H133 C134 0.949 . S
C134 H133 0.949 . S
C134 C135 1.395 . S
C134 C136 1.391 1_554 S
C135 C134 1.395 . S
C135 C138 1.390 1_554 S
C136 C134 1.391 1_556 S
C136 C140 1.387 . S
C136 C141 1.491 . S
H137 C138 0.950 . S
C138 C135 1.390 1_556 S
C138 H137 0.950 . S
C138 C139 1.378 . S
C139 C138 1.378 . S
C139 C140 1.409 . S
C140 C136 1.387 . S
C140 C139 1.409 . S
C140 H142 0.951 . S
C141 C136 1.491 . S
C141 C143 1.382 1_556 S
C141 C145 1.404 . S
H142 C140 0.951 . S
C143 C141 1.382 1_554 S
C143 C144 1.390 . S
C143 H148 0.949 . S
C144 C143 1.390 . S
C144 C149 1.399 1_554 S
C145 C141 1.404 . S
C145 H146 0.950 . S
C145 C147 1.375 . S
H146 C145 0.950 . S
C147 C145 1.375 . S
C147 C149 1.382 . S
C147 H151 0.950 . S
H148 C143 0.949 . S
C149 C144 1.399 1_556 S
C149 C147 1.382 . S
C149 H150 0.952 . S
H150 C149 0.952 . S
H151 C147 0.950 . S
Dy152 O156 2.398 . S
Dy152 O157 2.491 1_455 S
Dy152 O158 2.403 . S
Dy152 O159 2.664 1_565 S
Dy152 O163 2.326 . S
Dy152 O167 2.310 1_455 S
Dy152 O168 2.351 1_565 S
C153 O164 1.185 . S
C153 O165 1.355 1_655 S
C154 O156 1.185 . S
C154 O157 1.355 1_455 S
Dy155 O159 2.310 1_655 S
Dy155 O162 2.351 1_545 S
Dy155 O164 2.398 . S
Dy155 O165 2.491 1_655 S
Dy155 O166 2.403 . S
Dy155 O167 2.664 1_545 S
Dy155 O169 2.326 . S
O156 Dy152 2.398 . S
O156 C154 1.185 . S
O157 Dy152 2.491 1_655 S
O157 C154 1.355 1_655 S
O158 Dy152 2.403 . S
O158 C160 1.254 1_565 S
O159 Dy152 2.664 1_545 S
O159 Dy155 2.310 1_455 S
O159 C160 1.268 . S
C160 O158 1.254 1_545 S
C160 O159 1.268 . S
C161 O166 1.270 . S
C161 O167 1.260 1_545 S
O162 Dy155 2.351 1_565 S
O162 C170 1.249 . S
O163 Dy152 2.326 . S
O163 C170 1.267 1_455 S
O164 C153 1.185 . S
O164 Dy155 2.398 . S
O165 C153 1.355 1_455 S
O165 Dy155 2.491 1_455 S
O166 Dy155 2.403 . S
O166 C161 1.270 . S
O167 Dy152 2.310 1_655 S
O167 Dy155 2.664 1_565 S
O167 C161 1.260 1_565 S
O168 Dy152 2.351 1_545 S
O168 C171 1.249 . S
O169 Dy155 2.326 . S
O169 C171 1.267 1_655 S
C170 O162 1.249 . S
C170 O163 1.267 1_655 S
C171 O168 1.249 . S
C171 O169 1.267 1_455 S
Dy172 O176 2.398 . S
Dy172 O177 2.491 1_565 S
Dy172 O178 2.403 . S
Dy172 O179 2.664 . S
Dy172 O183 2.326 1_565 S
Dy172 O187 2.310 1_565 S
Dy172 O188 2.351 . S
C173 O184 1.185 . S
C173 O185 1.355 1_545 S
C174 O176 1.185 1_545 S
C174 O177 1.355 . S
Dy175 O179 2.310 1_545 S
Dy175 O182 2.351 . S
Dy175 O184 2.398 . S
Dy175 O185 2.491 1_545 S
Dy175 O186 2.403 . S
Dy175 O187 2.664 . S
Dy175 O189 2.326 1_545 S
O176 Dy172 2.398 . S
O176 C174 1.185 1_565 S
O177 Dy172 2.491 1_545 S
O177 C174 1.355 . S
O178 Dy172 2.403 . S
O178 C180 1.254 . S
O179 Dy172 2.664 . S
O179 Dy175 2.310 1_565 S
O179 C180 1.268 . S
C180 O178 1.254 . S
C180 O179 1.268 . S
C181 O186 1.254 . S
C181 O187 1.268 . S
O182 Dy175 2.351 . S
O182 C190 1.249 . S
O183 Dy172 2.326 1_545 S
O183 C190 1.267 . S
O184 C173 1.185 . S
O184 Dy175 2.398 . S
O185 C173 1.355 1_565 S
O185 Dy175 2.491 1_565 S
O186 Dy175 2.403 . S
O186 C181 1.254 . S
O187 Dy172 2.310 1_545 S
O187 Dy175 2.664 . S
O187 C181 1.268 . S
O188 Dy172 2.351 . S
O188 C191 1.249 . S
O189 Dy175 2.326 1_565 S
O189 C191 1.267 . S
C190 O182 1.249 . S
C190 O183 1.267 . S
C191 O188 1.249 . S
C191 O189 1.267 . S
Dy192 O196 2.398 . S
Dy192 O197 2.491 . S
Dy192 O198 2.403 . S
Dy192 O199 2.664 . S
Dy192 O203 2.326 . S
Dy192 O207 2.310 . S
Dy192 O208 2.351 . S
C193 O204 1.185 . S
C193 O205 1.355 . S
C194 O196 1.185 . S
C194 O197 1.355 . S
Dy195 O199 2.310 . S
Dy195 O202 2.351 . S
Dy195 O204 2.398 . S
Dy195 O205 2.491 . S
Dy195 O206 2.403 . S
Dy195 O207 2.664 . S
Dy195 O209 2.326 . S
O196 Dy192 2.398 . S
O196 C194 1.185 . S
O197 Dy192 2.491 . S
O197 C194 1.355 . S
O198 Dy192 2.403 . S
O198 C200 1.254 . S
O199 Dy192 2.664 . S
O199 Dy195 2.310 . S
O199 C200 1.268 . S
C200 O198 1.254 . S
C200 O199 1.268 . S
C201 O206 1.254 . S
C201 O207 1.268 . S
O202 Dy195 2.351 . S
O202 C210 1.249 . S
O203 Dy192 2.326 . S
O203 C210 1.267 . S
O204 C193 1.185 . S
O204 Dy195 2.398 . S
O205 C193 1.355 . S
O205 Dy195 2.491 . S
O206 Dy195 2.403 . S
O206 C201 1.254 . S
O207 Dy192 2.310 . S
O207 Dy195 2.664 . S
O207 C201 1.268 . S
O208 Dy192 2.351 . S
O208 C211 1.249 . S
O209 Dy195 2.326 . S
O209 C211 1.267 . S
C210 O202 1.249 . S
C210 O203 1.267 . S
C211 O208 1.249 . S
C211 O209 1.267 . S
Dy212 O216 2.398 . S
Dy212 O217 2.491 . S
Dy212 O218 2.403 . S
Dy212 O219 2.664 1_655 S
Dy212 O223 2.326 . S
Dy212 O227 2.310 . S
Dy212 O228 2.351 1_655 S
C213 O224 1.185 . S
C213 O225 1.355 . S
C214 O216 1.185 . S
C214 O217 1.355 . S
Dy215 O219 2.310 . S
Dy215 O222 2.351 1_455 S
Dy215 O224 2.398 . S
Dy215 O225 2.491 . S
Dy215 O226 2.403 . S
Dy215 O227 2.664 1_455 S
Dy215 O229 2.326 . S
O216 Dy212 2.398 . S
O216 C214 1.185 . S
O217 Dy212 2.491 . S
O217 C214 1.355 . S
O218 Dy212 2.403 . S
O218 C220 1.254 . S
O219 Dy212 2.664 1_455 S
O219 Dy215 2.310 . S
O219 C220 1.268 1_455 S
C220 O218 1.254 . S
C220 O219 1.268 1_655 S
C221 O226 1.254 . S
C221 O227 1.268 1_455 S
O222 Dy215 2.351 1_655 S
O222 C230 1.249 . S
O223 Dy212 2.326 . S
O223 C230 1.267 . S
O224 C213 1.185 . S
O224 Dy215 2.398 . S
O225 C213 1.355 . S
O225 Dy215 2.491 . S
O226 Dy215 2.403 . S
O226 C221 1.254 . S
O227 Dy212 2.310 . S
O227 Dy215 2.664 1_655 S
O227 C221 1.268 1_655 S
O228 Dy212 2.351 1_455 S
O228 C231 1.249 . S
O229 Dy215 2.326 . S
O229 C231 1.267 . S
C230 O222 1.249 . S
C230 O223 1.267 . S
C231 O228 1.249 . S
C231 O229 1.267 . S
C232 C233 1.369 . S
C232 C234 1.419 . S
C232 H236 0.930 1_545 S
C233 C232 1.369 . S
C233 C242 1.429 . S
C234 C232 1.419 . S
C234 C235 1.363 . S
C234 H237 0.929 1_545 S
C235 C234 1.363 . S
C235 C241 1.428 . S
H236 C232 0.930 1_565 S
H237 C234 0.929 1_565 S
S238 N239 1.613 . S
S238 N240 1.610 . S
N239 S238 1.613 . S
N239 C242 1.350 . S
N240 S238 1.610 . S
N240 C241 1.351 . S
C241 C235 1.428 . S
C241 N240 1.351 . S
C241 C242 1.434 . S
C242 C233 1.429 . S
C242 N239 1.350 . S
C242 C241 1.434 . S
C243 C244 1.369 . S
C243 C245 1.419 . S
C243 H247 0.930 . S
C244 C243 1.369 . S
C244 C253 1.429 . S
C245 C243 1.419 . S
C245 C246 1.363 . S
C245 H248 0.929 . S
C246 C245 1.363 . S
C246 C252 1.428 . S
H247 C243 0.930 . S
H248 C245 0.929 . S
S249 N250 1.613 . S
S249 N251 1.610 . S
N250 S249 1.613 . S
N250 C253 1.350 . S
N251 S249 1.610 . S
N251 C252 1.351 . S
C252 C246 1.428 . S
C252 N251 1.351 . S
C252 C253 1.434 . S
C253 C244 1.429 . S
C253 N250 1.350 . S
C253 C252 1.434 . S
C254 C255 1.369 . S
C254 C256 1.419 . S
C254 H258 0.930 . S
C255 C254 1.369 . S
C255 C264 1.429 . S
C256 C254 1.419 . S
C256 C257 1.363 . S
C256 H259 0.929 . S
C257 C256 1.363 . S
C257 C263 1.428 . S
H258 C254 0.930 . S
H259 C256 0.929 . S
S260 N261 1.613 . S
S260 N262 1.610 . S
N261 S260 1.613 . S
N261 C264 1.350 . S
N262 S260 1.610 . S
N262 C263 1.351 . S
C263 C257 1.428 . S
C263 N262 1.351 . S
C263 C264 1.434 . S
C264 C255 1.429 . S
C264 N261 1.350 . S
C264 C263 1.434 . S
C265 C266 1.369 . S
C265 C267 1.419 . S
C265 H269 0.930 . S
C266 C265 1.369 . S
C266 C275 1.429 1_455 S
C267 C265 1.419 . S
C267 C268 1.367 . S
C267 H270 0.929 . S
C268 C267 1.367 . S
C268 C274 1.425 1_455 S
H269 C265 0.930 . S
H270 C267 0.929 . S
S271 N272 1.613 . S
S271 N273 1.610 . S
N272 S271 1.613 . S
N272 C275 1.350 . S
N273 S271 1.610 . S
N273 C274 1.351 . S
C274 C268 1.425 1_655 S
C274 N273 1.351 . S
C274 C275 1.434 . S
C275 C266 1.429 1_655 S
C275 N272 1.350 . S
C275 C274 1.434 . S
C276 C277 1.369 1_545 S
C276 C278 1.419 . S
C276 H280 0.930 . S
C277 C276 1.369 1_565 S
C277 C286 1.429 . S
C278 C276 1.419 . S
C278 C279 1.363 1_545 S
C278 H281 0.929 . S
C279 C278 1.363 1_565 S
C279 C285 1.428 . S
H280 C276 0.930 . S
H281 C278 0.929 . S
S282 N283 1.613 . S
S282 N284 1.610 . S
N283 S282 1.613 . S
N283 C286 1.350 . S
N284 S282 1.610 . S
N284 C285 1.351 . S
C285 C279 1.428 . S
C285 N284 1.351 . S
C285 C286 1.434 . S
C286 C277 1.429 . S
C286 N283 1.350 . S
C286 C285 1.434 . S
C287 C288 1.369 . S
C287 C289 1.419 . S
C287 H291 0.930 . S
C288 C287 1.369 . S
C288 C297 1.429 . S
C289 C287 1.419 . S
C289 C290 1.363 . S
C289 H292 0.929 . S
C290 C289 1.363 . S
C290 C296 1.428 . S
H291 C287 0.930 . S
H292 C289 0.929 . S
S293 N294 1.613 . S
S293 N295 1.610 1_554 S
N294 S293 1.613 . S
N294 C297 1.350 1_554 S
N295 S293 1.610 1_556 S
N295 C296 1.351 . S
C296 C290 1.428 . S
C296 N295 1.351 . S
C296 C297 1.434 . S
C297 C288 1.429 . S
C297 N294 1.350 1_556 S
C297 C296 1.434 . S
C298 C299 1.369 . S
C298 C300 1.419 . S
C298 H302 0.930 . S
C299 C298 1.369 . S
C299 C308 1.429 . S
C300 C298 1.419 . S
C300 C301 1.363 . S
C300 H303 0.929 . S
C301 C300 1.363 . S
C301 C307 1.428 . S
H302 C298 0.930 . S
H303 C300 0.929 . S
S304 N305 1.613 . S
S304 N306 1.610 1_554 S
N305 S304 1.613 . S
N305 C308 1.350 1_554 S
N306 S304 1.610 1_556 S
N306 C307 1.351 . S
C307 C301 1.428 . S
C307 N306 1.351 . S
C307 C308 1.434 . S
C308 C299 1.429 . S
C308 N305 1.350 1_556 S
C308 C307 1.434 . S
C309 C310 1.366 1_455 S
C309 C311 1.419 . S
C309 H313 0.930 . S
C310 C309 1.366 1_655 S
C310 C319 1.430 . S
C311 C309 1.419 . S
C311 C312 1.366 . S
C311 H314 0.929 . S
C312 C311 1.366 . S
C312 C318 1.425 1_455 S
H313 C309 0.930 . S
H314 C311 0.929 . S
S315 N316 1.613 . S
S315 N317 1.610 1_554 S
N316 S315 1.613 . S
N316 C319 1.350 1_554 S
N317 S315 1.610 1_556 S
N317 C318 1.351 . S
C318 C312 1.425 1_655 S
C318 N317 1.351 . S
C318 C319 1.434 . S
C319 C310 1.430 . S
C319 N316 1.350 1_556 S
C319 C318 1.434 . S
C320 C321 1.380 . S
C320 C322 1.419 . S
C320 H324 0.930 . S
C321 C320 1.380 . S
C321 C330 1.415 1_455 S
C322 C320 1.419 . S
C322 C323 1.363 1_455 S
C322 H325 0.929 . S
C323 C322 1.363 1_655 S
C323 C329 1.428 . S
H324 C320 0.930 . S
H325 C322 0.929 . S
S326 N327 1.613 . S
S326 N328 1.610 . S
N327 S326 1.613 . S
N327 C330 1.350 . S
N328 S326 1.610 . S
N328 C329 1.351 . S
C329 C323 1.428 . S
C329 N328 1.351 . S
C329 C330 1.434 . S
C330 C321 1.415 1_655 S
C330 N327 1.350 . S
C330 C329 1.434 . S
C331 C332 1.369 . S
C331 C333 1.419 . S
C331 H335 0.930 . S
C332 C331 1.369 . S
C332 C341 1.429 . S
C333 C331 1.419 . S
C333 C334 1.363 . S
C333 H336 0.929 . S
C334 C333 1.363 . S
C334 C340 1.428 1_545 S
H335 C331 0.930 . S
H336 C333 0.929 . S
S337 N338 1.613 . S
S337 N339 1.610 . S
N338 S337 1.613 . S
N338 C341 1.350 1_565 S
N339 S337 1.610 . S
N339 C340 1.351 . S
C340 C334 1.428 1_565 S
C340 N339 1.351 . S
C340 C341 1.434 1_565 S
C341 C332 1.429 . S
C341 N338 1.350 1_545 S
C341 C340 1.434 1_545 S
C342 C343 1.369 . S
C342 C344 1.419 . S
C342 H346 0.930 . S
C343 C342 1.369 . S
C343 C352 1.429 . S
C344 C342 1.419 . S
C344 C345 1.363 . S
C344 H347 0.929 . S
C345 C344 1.363 . S
C345 C351 1.428 . S
H346 C342 0.930 . S
H347 C344 0.929 . S
S348 N349 1.613 . S
S348 N350 1.610 . S
N349 S348 1.613 . S
N349 C352 1.350 . S
N350 S348 1.610 . S
N350 C351 1.351 . S
C351 C345 1.428 . S
C351 N350 1.351 . S
C351 C352 1.434 . S
C352 C343 1.429 . S
C352 N349 1.350 . S
C352 C351 1.434 . S
C353 C354 1.369 . S
C353 C355 1.419 . S
C353 H357 0.930 . S
C354 C353 1.369 . S
C354 C363 1.429 . S
C355 C353 1.419 . S
C355 C356 1.363 . S
C355 H358 0.929 . S
C356 C355 1.363 . S
C356 C362 1.428 . S
H357 C353 0.930 . S
H358 C355 0.929 . S
S359 N360 1.613 . S
S359 N361 1.610 . S
N360 S359 1.613 . S
N360 C363 1.350 . S
N361 S359 1.610 . S
N361 C362 1.351 . S
C362 C356 1.428 . S
C362 N361 1.351 . S
C362 C363 1.434 . S
C363 C354 1.429 . S
C363 N360 1.350 . S
C363 C362 1.434 . S
C364 C365 1.368 1_655 S
C364 C366 1.417 1_655 S
C364 H368 0.934 . S
C365 C364 1.368 1_455 S
C365 C374 1.429 1_556 S
C366 C364 1.417 1_455 S
C366 C367 1.363 . S
C366 H369 0.929 . S
C367 C366 1.363 . S
C367 C373 1.428 . S
H368 C364 0.934 . S
H369 C366 0.929 . S
S370 N371 1.613 . S
S370 N372 1.610 . S
N371 S370 1.613 . S
N371 C374 1.350 . S
N372 S370 1.610 . S
N372 C373 1.351 1_554 S
C373 C367 1.428 . S
C373 N372 1.351 1_556 S
C373 C374 1.434 1_556 S
C374 C365 1.429 1_554 S
C374 N371 1.350 . S
C374 C373 1.434 1_554 S
C375 C376 1.335 1_545 S
C375 C377 1.435 . S
C375 H379 0.949 . S
C376 C375 1.335 1_565 S
C376 C385 1.429 . S
C377 C375 1.435 . S
C377 C378 1.363 1_545 S
C377 H380 0.929 . S
C378 C377 1.363 1_565 S
C378 C384 1.428 . S
H379 C375 0.949 . S
H380 C377 0.929 . S
S381 N382 1.613 . S
S381 N383 1.610 . S
N382 S381 1.613 . S
N382 C385 1.350 . S
N383 S381 1.610 . S
N383 C384 1.351 . S
C384 C378 1.428 . S
C384 N383 1.351 . S
C384 C385 1.434 . S
C385 C376 1.429 . S
C385 N382 1.350 . S
C385 C384 1.434 . S
C386 C387 1.369 1_554 S
C386 C388 1.419 1_554 S
C386 H390 0.930 . S
C387 C386 1.369 1_556 S
C387 C396 1.429 . S
C388 C386 1.419 1_556 S
C388 C389 1.363 . S
C388 H391 0.929 1_556 S
C389 C388 1.363 . S
C389 C395 1.428 . S
H390 C386 0.930 . S
H391 C388 0.929 1_554 S
S392 N393 1.613 . S
S392 N394 1.610 . S
N393 S392 1.613 . S
N393 C396 1.350 . S
N394 S392 1.610 . S
N394 C395 1.351 . S
C395 C389 1.428 . S
C395 N394 1.351 . S
C395 C396 1.434 . S
C396 C387 1.429 . S
C396 N393 1.350 . S
C396 C395 1.434 . S
C397 C398 1.369 . S
C397 C399 1.419 . S
C397 H401 0.930 . S
C398 C397 1.369 . S
C398 C407 1.429 1_556 S
C399 C397 1.419 . S
C399 C400 1.363 . S
C399 H402 0.929 . S
C400 C399 1.363 . S
C400 C406 1.428 . S
H401 C397 0.930 . S
H402 C399 0.929 . S
S403 N404 1.613 . S
S403 N405 1.610 . S
N404 S403 1.613 . S
N404 C407 1.350 . S
N405 S403 1.610 . S
N405 C406 1.351 1_554 S
C406 C400 1.428 . S
C406 N405 1.351 1_556 S
C406 C407 1.434 1_556 S
C407 C398 1.429 1_554 S
C407 N404 1.350 . S
C407 C406 1.434 1_554 S
C408 C409 1.369 . S
C408 C410 1.419 . S
C408 H412 0.930 . S
C409 C408 1.369 . S
C409 C418 1.429 1_455 S
C410 C408 1.419 . S
C410 C411 1.363 . S
C410 H413 0.929 . S
C411 C410 1.363 . S
C411 C417 1.428 1_455 S
H412 C408 0.930 . S
H413 C410 0.929 . S
S414 N415 1.613 . S
S414 N416 1.610 1_554 S
N415 S414 1.613 . S
N415 C418 1.350 1_554 S
N416 S414 1.610 1_556 S
N416 C417 1.351 . S
C417 C411 1.428 1_655 S
C417 N416 1.351 . S
C417 C418 1.434 . S
C418 C409 1.429 1_655 S
C418 N415 1.350 1_556 S
C418 C417 1.434 . S
C419 C420 1.369 . S
C419 C421 1.419 . S
C419 H423 0.930 1_556 S
C420 C419 1.369 . S
C420 C429 1.429 . S
C421 C419 1.419 . S
C421 C422 1.363 . S
C421 H424 0.929 . S
C422 C421 1.363 . S
C422 C428 1.428 . S
H423 C419 0.930 1_554 S
H424 C421 0.929 . S
S425 N426 1.613 . S
S425 N427 1.610 . S
N426 S425 1.613 . S
N426 C429 1.350 . S
N427 S425 1.610 . S
N427 C428 1.351 . S
C428 C422 1.428 . S
C428 N427 1.351 . S
C428 C429 1.434 . S
C429 C420 1.429 . S
C429 N426 1.350 . S
C429 C428 1.434 . S
C430 C431 1.369 . S
C430 C432 1.419 . S
C430 H434 0.930 . S
C431 C430 1.369 . S
C431 C440 1.429 . S
C432 C430 1.419 . S
C432 C433 1.363 . S
C432 H435 0.929 . S
C433 C432 1.363 . S
C433 C439 1.428 . S
H434 C430 0.930 . S
H435 C432 0.929 . S
S436 N437 1.613 . S
S436 N438 1.610 . S
N437 S436 1.613 . S
N437 C440 1.350 . S
N438 S436 1.610 . S
N438 C439 1.351 . S
C439 C433 1.428 . S
C439 N438 1.351 . S
C439 C440 1.434 . S
C440 C431 1.429 . S
C440 N437 1.350 . S
C440 C439 1.434 . S
C441 C442 1.369 . S
C441 C443 1.419 . S
C441 H445 0.930 . S
C442 C441 1.369 . S
C442 C451 1.429 . S
C443 C441 1.419 . S
C443 C444 1.363 . S
C443 H446 0.929 . S
C444 C443 1.363 . S
C444 C450 1.428 . S
H445 C441 0.930 . S
H446 C443 0.929 . S
S447 N448 1.613 . S
S447 N449 1.610 1_554 S
N448 S447 1.613 . S
N448 C451 1.350 1_554 S
N449 S447 1.610 1_556 S
N449 C450 1.351 . S
C450 C444 1.428 . S
C450 N449 1.351 . S
C450 C451 1.434 . S
C451 C442 1.429 . S
C451 N448 1.350 1_556 S
C451 C450 1.434 . S
C452 C453 1.369 . S
C452 C454 1.419 . S
C452 H456 0.930 . S
C453 C452 1.369 . S
C453 C462 1.429 1_655 S
C454 C452 1.419 . S
C454 C455 1.363 . S
C454 H457 0.929 . S
C455 C454 1.363 . S
C455 C461 1.428 1_655 S
H456 C452 0.930 . S
H457 C454 0.929 . S
S458 N459 1.613 . S
S458 N460 1.610 . S
N459 S458 1.613 . S
N459 C462 1.350 . S
N460 S458 1.610 . S
N460 C461 1.351 . S
C461 C455 1.428 1_455 S
C461 N460 1.351 . S
C461 C462 1.434 . S
C462 C453 1.429 1_455 S
C462 N459 1.350 . S
C462 C461 1.434 . S
C463 C464 1.369 . S
C463 C465 1.419 . S
C463 H467 0.930 . S
C464 C463 1.369 . S
C464 C473 1.429 . S
C465 C463 1.419 . S
C465 C466 1.363 . S
C465 H468 0.929 . S
C466 C465 1.363 . S
C466 C472 1.428 . S
H467 C463 0.930 . S
H468 C465 0.929 . S
S469 N470 1.613 1_545 S
S469 N471 1.610 . S
N470 S469 1.613 1_565 S
N470 C473 1.350 . S
N471 S469 1.610 . S
N471 C472 1.351 1_545 S
C472 C466 1.428 . S
C472 N471 1.351 1_565 S
C472 C473 1.434 . S
C473 C464 1.429 . S
C473 N470 1.350 . S
C473 C472 1.434 . S
C474 C475 1.369 . S
C474 C476 1.419 . S
C474 H478 0.930 . S
C475 C474 1.369 . S
C475 C484 1.429 . S
C476 C474 1.419 . S
C476 C477 1.363 . S
C476 H479 0.929 . S
C477 C476 1.363 . S
C477 C483 1.428 . S
H478 C474 0.930 . S
H479 C476 0.929 . S
S480 N481 1.613 . S
S480 N482 1.610 . S
N481 S480 1.613 . S
N481 C484 1.350 . S
N482 S480 1.610 . S
N482 C483 1.351 . S
C483 C477 1.428 . S
C483 N482 1.351 . S
C483 C484 1.434 . S
C484 C475 1.429 . S
C484 N481 1.350 . S
C484 C483 1.434 . S
C485 C486 1.369 . S
C485 C487 1.419 . S
C485 H489 0.930 . S
C486 C485 1.369 . S
C486 C495 1.429 . S
C487 C485 1.419 . S
C487 C488 1.363 . S
C487 H490 0.929 . S
C488 C487 1.363 . S
C488 C494 1.428 . S
H489 C485 0.930 . S
H490 C487 0.929 . S
S491 N492 1.613 . S
S491 N493 1.610 . S
N492 S491 1.613 . S
N492 C495 1.350 . S
N493 S491 1.610 . S
N493 C494 1.351 . S
C494 C488 1.428 . S
C494 N493 1.351 . S
C494 C495 1.434 . S
C495 C486 1.429 . S
C495 N492 1.350 . S
C495 C494 1.434 . S
C233 C125 1.623 . S
C235 C160 1.735 . S
C246 C190 1.807 . S
C244 C144 1.755 . S
C257 C200 1.629 . S
C255 C87 1.584 . S
C268 C220 1.509 1_455 S
C266 C106 1.464 1_455 S
C279 C161 1.730 1_565 S
C277 C49 1.715 . S
C288 C68 1.831 1_556 S
C290 C191 1.801 . S
C299 C11 1.597 1_556 S
C301 C201 1.629 . S
C310 C30 1.479 . S
C312 C221 1.516 . S
C323 C153 1.073 . S
C321 C97 1.042 . S
C334 C174 0.952 . S
C332 C116 0.909 . S
C345 C193 1.215 . S
C343 C135 1.181 . S
C354 C78 0.963 . S
C356 C213 0.982 . S
C365 C21 1.030 1_455 S
C367 C154 1.069 . S
C378 C173 0.954 1_565 S
C376 C40 0.913 . S
C389 C194 1.217 . S
C387 C59 1.180 1_556 S
C398 C2 0.950 1_556 S
C400 C214 0.978 . S
C409 C101 1.528 . S
C411 C171 1.634 . S
C420 C120 1.487 . S
C422 C181 1.629 . S
C433 C211 1.823 . S
C431 C139 1.683 . S
C444 C231 1.798 . S
C442 C82 1.676 . S
C453 C25 1.534 . S
C455 C170 1.631 . S
C466 C180 1.628 . S
C464 C44 1.494 . S
C477 C210 1.823 . S
C475 C63 1.682 . S
C486 C6 1.684 . S
C488 C230 1.795 . S
