# Generated by pormake.
# Topology pyr, (3,6)-cn, num edge types: 1
# Building blocks:
#     Node 0, Type 0, BuildingBlock: INOVEN_clean_linker_0, # of connection points: 3
#     Node 1, Type 0, BuildingBlock: INOVEN_clean_linker_0, # of connection points: 3
#     Node 2, Type 0, BuildingBlock: INOVEN_clean_linker_0, # of connection points: 3
#     Node 3, Type 0, BuildingBlock: INOVEN_clean_linker_0, # of connection points: 3
#     Node 4, Type 0, BuildingBlock: INOVEN_clean_linker_0, # of connection points: 3
#     Node 5, Type 0, BuildingBlock: INOVEN_clean_linker_0, # of connection points: 3
#     Node 6, Type 0, BuildingBlock: INOVEN_clean_linker_0, # of connection points: 3
#     Node 7, Type 0, BuildingBlock: INOVEN_clean_linker_0, # of connection points: 3
#     Node 8, Type 1, BuildingBlock: FUNLAD_clean_sbu_0, # of connection points: 6
#     Node 9, Type 1, BuildingBlock: FUNLAD_clean_sbu_0, # of connection points: 6
#     Node 10, Type 1, BuildingBlock: FUNLAD_clean_sbu_0, # of connection points: 6
#     Node 11, Type 1, BuildingBlock: FUNLAD_clean_sbu_0, # of connection points: 6
#     Edge 12, Type (0, 1), BuildingBlock: OJICUG_clean_linker_0, # of connection points: 2
#     Edge 13, Type (0, 1), BuildingBlock: OJICUG_clean_linker_0, # of connection points: 2
#     Edge 14, Type (0, 1), BuildingBlock: OJICUG_clean_linker_0, # of connection points: 2
#     Edge 15, Type (0, 1), BuildingBlock: OJICUG_clean_linker_0, # of connection points: 2
#     Edge 16, Type (0, 1), BuildingBlock: OJICUG_clean_linker_0, # of connection points: 2
#     Edge 17, Type (0, 1), BuildingBlock: OJICUG_clean_linker_0, # of connection points: 2
#     Edge 18, Type (0, 1), BuildingBlock: OJICUG_clean_linker_0, # of connection points: 2
#     Edge 19, Type (0, 1), BuildingBlock: OJICUG_clean_linker_0, # of connection points: 2
#     Edge 20, Type (0, 1), BuildingBlock: OJICUG_clean_linker_0, # of connection points: 2
#     Edge 21, Type (0, 1), BuildingBlock: OJICUG_clean_linker_0, # of connection points: 2
#     Edge 22, Type (0, 1), BuildingBlock: OJICUG_clean_linker_0, # of connection points: 2
#     Edge 23, Type (0, 1), BuildingBlock: OJICUG_clean_linker_0, # of connection points: 2
#     Edge 24, Type (0, 1), BuildingBlock: OJICUG_clean_linker_0, # of connection points: 2
#     Edge 25, Type (0, 1), BuildingBlock: OJICUG_clean_linker_0, # of connection points: 2
#     Edge 26, Type (0, 1), BuildingBlock: OJICUG_clean_linker_0, # of connection points: 2
#     Edge 27, Type (0, 1), BuildingBlock: OJICUG_clean_linker_0, # of connection points: 2
#     Edge 28, Type (0, 1), BuildingBlock: OJICUG_clean_linker_0, # of connection points: 2
#     Edge 29, Type (0, 1), BuildingBlock: OJICUG_clean_linker_0, # of connection points: 2
#     Edge 30, Type (0, 1), BuildingBlock: OJICUG_clean_linker_0, # of connection points: 2
#     Edge 31, Type (0, 1), BuildingBlock: OJICUG_clean_linker_0, # of connection points: 2
#     Edge 32, Type (0, 1), BuildingBlock: OJICUG_clean_linker_0, # of connection points: 2
#     Edge 33, Type (0, 1), BuildingBlock: OJICUG_clean_linker_0, # of connection points: 2
#     Edge 34, Type (0, 1), BuildingBlock: OJICUG_clean_linker_0, # of connection points: 2
#     Edge 35, Type (0, 1), BuildingBlock: OJICUG_clean_linker_0, # of connection points: 2
# Relax obj value: 0.288
# Max RMSD: 0.214
# Mean RMSD: 0.132
data_MOF--net-pry--node1-FUNLAD_clean_sbu_0--node2-INOVEN_clean_linker_0--edge1-OJICUG_clean_linker_0
_symmetry_space_group_name_H-M    P1
_symmetry_Int_Tables_number       1
_symmetry_cell_setting            triclinic
loop_
_symmetry_equiv_pos_as_xyz
'x, y, z'
_cell_length_a     24.465719
_cell_length_b     26.81679
_cell_length_c     27.58504
_cell_angle_alpha  90.166032
_cell_angle_beta   91.042857
_cell_angle_gamma 85.998136
loop_
_atom_site_label
_atom_site_type_symbol
_atom_site_fract_x
_atom_site_fract_y
_atom_site_fract_z
_atom_type_partial_charge
H0 H 0.07641 0.25163 0.28012 0.0
H1 H 0.20255 0.13097 0.27247 0.0
H2 H 0.18724 0.24384 0.16131 0.0
N3 N 0.1037 0.2993 0.19999 0.0
N4 N 0.11152 0.31297 0.15739 0.0
C5 C 0.11093 0.23271 0.26206 0.0
C6 C 0.13601 0.1876 0.28153 0.0
C7 C 0.12908 0.25316 0.21862 0.0
C8 C 0.17364 0.22843 0.19487 0.0
C9 C 0.20145 0.18483 0.21404 0.0
C10 C 0.18146 0.16419 0.257 0.0
H11 H 0.39705 0.88571 0.67785 0.0
H12 H 0.5014 0.88343 0.80567 0.0
H13 H 0.36968 0.99869 0.78542 0.0
N14 N 0.33418 0.96126 0.69936 0.0
N15 N 0.30577 1.00075 0.70678 0.0
C16 C 0.40992 0.90208 0.71186 0.0
C17 C 0.45435 0.87981 0.73815 0.0
C18 C 0.37992 0.94418 0.72837 0.0
C19 C 0.39409 0.96617 0.7727 0.0
C20 C 0.4381 0.94507 0.80158 0.0
C21 C 0.46777 0.9007 0.78423 0.0
H22 H 0.53177 0.51463 0.07429 0.0
H23 H 0.69762 0.45748 0.10419 0.0
H24 H 0.66218 0.61264 0.07174 0.0
N25 N 0.56333 0.59396 1.0337 0.0
N26 N 0.58555 0.62531 1.00903 0.0
C27 C 0.57422 0.52116 0.08243 0.0
C28 C 0.6118 0.48055 0.09282 0.0
C29 C 0.5926 0.56766 0.07138 0.0
C30 C 0.64755 0.57674 0.0812 0.0
C31 C 0.6858 0.53721 0.09331 0.0
C32 C 0.66775 0.48888 0.09895 0.0
H33 H 0.87143 0.55267 0.50256 0.0
H34 H 0.87465 0.68236 0.59314 0.0
H35 H 0.01968 0.62742 0.51924 0.0
N36 N 0.96294 0.57149 0.45881 0.0
N37 N 1.0056 0.5854 0.44057 0.0
C38 C 0.89491 0.57995 0.52119 0.0
C39 C 0.86935 0.6127 0.55512 0.0
C40 C 0.94824 0.58665 0.50643 0.0
C41 C 0.97798 0.62274 0.52999 0.0
C42 C 0.95062 0.6605 0.55729 0.0
C43 C 0.89712 0.65346 0.57257 0.0
H44 H 0.86426 1.01004 0.8434 0.0
H45 H 0.9876 0.88701 0.82961 0.0
H46 H 0.87948 0.89569 0.95136 0.0
N47 N 0.82192 0.97961 0.92418 0.0
N48 N 0.80258 0.96042 0.96074 0.0
C49 C 0.88559 0.976 0.85701 0.0
C50 C 0.92904 0.95234 0.83066 0.0
C51 C 0.86757 0.95568 0.90002 0.0
C52 C 0.89385 0.91138 0.91815 0.0
C53 C 0.93745 0.88611 0.89397 0.0
C54 C 0.95435 0.90621 0.84911 0.0
H55 H 0.56581 0.24163 0.3642 0.0
H56 H 0.69756 0.1257 0.3664 0.0
H57 H 0.68566 0.23609 0.47991 0.0
N58 N 0.59734 0.28929 0.44456 0.0
N59 N 0.60949 0.30332 0.48654 0.0
C60 C 0.60222 0.22366 0.38125 0.0
C61 C 0.62792 0.1798 0.36044 0.0
C62 C 0.62268 0.24409 0.42456 0.0
C63 C 0.66998 0.22069 0.44654 0.0
C64 C 0.69823 0.17866 0.42564 0.0
C65 C 0.67607 0.15779 0.38312 0.0
H66 H 0.50054 0.62114 0.11299 0.0
H67 H 0.37173 0.68082 1.01768 0.0
H68 H 0.34577 0.557 0.10973 0.0
N69 N 0.4312 0.5778 0.1667 0.0
N70 N 0.44373 0.61412 0.19206 0.0
C71 C 0.46098 0.61827 0.09534 0.0
C72 C 0.44031 0.65663 0.06452 0.0
C73 C 0.42516 0.58635 0.11607 0.0
C74 C 0.37427 0.58086 0.09335 0.0
C75 C 0.35642 0.613 1.05503 0.0
C76 C 0.38911 0.65173 1.04166 0.0
H77 H 0.03369 0.52819 0.5815 0.0
H78 H 0.20016 0.46638 0.57255 0.0
H79 H 0.1662 0.61879 0.61726 0.0
N80 N 0.0576 0.60744 0.62726 0.0
N81 N 0.07263 0.63956 0.65627 0.0
C82 C 0.07731 0.53324 0.58186 0.0
C83 C 0.11448 0.49204 0.57417 0.0
C84 C 0.09534 0.57824 0.59907 0.0
C85 C 0.15188 0.58432 0.6028 0.0
C86 C 0.18999 0.54446 0.59201 0.0
C87 C 0.17105 0.4983 0.57738 0.0
C88 C 0.05358 0.10471 0.46203 0.0
N89 N 0.02539 0.18957 0.58676 0.0
C90 C 0.07719 0.20227 0.57759 0.0
C91 C 0.08965 0.25188 0.57675 0.0
C92 C 0.04835 0.28973 0.58401 0.0
C93 C 0.99552 0.27609 0.59546 0.0
C94 C 0.98481 0.22535 0.59655 0.0
Zn95 Zn 1.01224 0.11673 0.56927 0.0
C96 C 0.90659 0.1071 0.51653 0.0
N97 N 1.00123 0.96846 0.52 0.0
C98 C 0.04481 0.93659 0.50849 0.0
C99 C 0.95306 0.9511 0.53419 0.0
C100 C 0.94865 0.90023 0.54107 0.0
C101 C 0.99401 0.86678 0.53277 0.0
C102 C 0.04191 0.88508 0.51436 0.0
Zn103 Zn 1.01076 0.04115 0.53705 0.0
O104 O 0.04509 0.13371 0.49823 0.0
C105 C 0.11471 0.05283 0.59075 0.0
O106 O 0.04265 0.05911 0.46638 0.0
H107 H 0.91928 0.97694 0.54425 0.0
H108 H 0.10879 0.17431 0.56756 0.0
H109 H 0.08299 0.9512 0.4981 0.0
O110 O 0.08991 0.09508 0.59755 0.0
O111 O 0.09211 1.02111 0.56416 0.0
H112 H 0.94359 0.21484 0.60252 0.0
O113 O 0.98178 1.0228 0.60813 0.0
O114 O 0.98064 0.09716 0.64092 0.0
O115 O 0.92831 0.06306 0.50994 0.0
O116 O 0.93281 0.13783 0.54145 0.0
C117 C 0.97434 0.05036 0.64531 0.0
H118 H 0.1312 0.26041 0.56891 0.0
H119 H 0.96233 0.30422 0.60124 0.0
H120 H 0.91063 0.88732 0.55417 0.0
H121 H 0.07757 0.86012 0.50712 0.0
C122 C 0.60903 0.03854 1.05516 0.0
N123 N 0.52585 0.17926 1.05219 0.0
C124 C 0.57793 0.19042 0.06409 0.0
C125 C 0.59152 0.23966 0.06767 0.0
C126 C 0.55114 0.27844 0.0599 0.0
C127 C 0.49837 0.2664 1.0448 0.0
C128 C 0.48644 0.21609 1.0413 0.0
Zn129 Zn 0.50886 0.10758 0.06906 0.0
C130 C 0.47075 0.04268 0.99122 0.0
N131 N 0.48865 0.96197 0.11907 0.0
C132 C 0.53102 0.92987 0.13416 0.0
C133 C 0.44166 0.94503 0.1001 0.0
C134 C 0.43804 0.89435 0.09106 0.0
C135 C 0.48284 0.86085 0.10241 0.0
C136 C 0.5288 0.87857 0.12633 0.0
Zn137 Zn 0.50145 1.03358 0.10223 0.0
O138 O 0.58761 0.08163 1.04487 0.0
C139 C 0.54497 0.09609 0.17849 0.0
O140 O 0.58264 1.00997 0.08121 0.0
H141 H 0.40886 0.97119 0.08758 0.0
H142 H 0.60853 0.16145 0.07474 0.0
H143 H 0.56825 0.94423 0.14852 0.0
O144 O 0.54029 0.12411 0.14126 0.0
O145 O 0.531 0.05131 0.17446 0.0
H146 H 0.44502 0.20672 1.03302 0.0
O147 O 0.41911 0.05847 0.12434 0.0
O148 O 0.42861 0.13252 0.09353 0.0
O149 O 0.47507 1.01533 1.02888 0.0
O150 O 0.47865 0.08911 0.99608 0.0
C151 C 0.4001 0.10338 0.11735 0.0
H152 H 0.63294 0.24722 0.07845 0.0
H153 H 0.46597 0.29538 1.03848 0.0
H154 H 0.40137 0.88169 0.07375 0.0
H155 H 0.56383 0.85345 0.13615 0.0
C156 C 0.54794 0.49389 0.5745 0.0
N157 N 0.55526 0.56816 0.71283 0.0
C158 C 0.52495 0.544 0.74499 0.0
C159 C 0.52705 0.55655 0.79443 0.0
C160 C 0.55891 0.59568 0.81037 0.0
C161 C 0.59118 0.61787 0.77621 0.0
C162 C 0.58992 0.60269 0.72835 0.0
Zn163 Zn 0.53556 0.57751 0.64077 0.0
C164 C 0.6374 0.60679 0.58717 0.0
N165 N 0.50057 0.62307 0.49619 0.0
C166 C 0.46577 0.59069 0.47657 0.0
C167 C 0.52533 0.65592 0.46786 0.0
C168 C 0.51632 0.65587 0.41756 0.0
C169 C 0.48143 0.62177 0.39656 0.0
C170 C 0.45511 0.58984 0.42704 0.0
Zn171 Zn 0.52095 0.60976 0.56741 0.0
O172 O 0.5514 0.50074 0.62024 0.0
C173 C 0.4191 0.57765 0.6166 0.0
O174 O 0.53608 0.53153 0.54724 0.0
H175 H 0.55376 0.68061 0.48394 0.0
H176 H 0.49653 0.5176 0.73208 0.0
H177 H 0.44789 0.56348 0.49894 0.0
O178 O 0.45064 0.56487 0.65229 0.0
O179 O 0.43858 0.59803 0.58001 0.0
H180 H 0.61181 0.62392 0.70298 0.0
O181 O 0.50729 0.68869 0.59037 0.0
O182 O 0.51945 0.65367 0.66131 0.0
O183 O 0.60314 0.62053 0.55402 0.0
O184 O 0.62025 0.58859 0.62606 0.0
C185 C 0.51003 0.69301 0.63654 0.0
H186 H 0.50242 0.53695 0.81925 0.0
H187 H 0.61494 0.64928 0.7849 0.0
H188 H 0.53794 0.68095 0.39533 0.0
H189 H 0.42712 0.56364 0.4128 0.0
C190 C 0.99183 0.69816 0.99789 0.0
N191 N 0.02645 0.64042 0.14155 0.0
C192 C 0.07219 0.61961 0.16462 0.0
C193 C 0.07327 0.61333 0.21466 0.0
C194 C 0.02668 0.62812 0.24119 0.0
C195 C 0.98203 0.65388 0.21729 0.0
C196 C 0.98287 0.65991 0.16702 0.0
Zn197 Zn 0.01712 0.61982 0.07074 0.0
C198 C 0.90637 0.5856 1.05233 0.0
N199 N 1.00292 0.56205 0.92881 0.0
C200 C 0.04843 0.55069 0.90234 0.0
C201 C 0.95585 0.58254 0.90743 0.0
C202 C 0.95604 0.59974 0.85985 0.0
C203 C 1.00506 0.59569 0.83456 0.0
C204 C 0.05062 0.56794 0.85484 0.0
Zn205 Zn 1.01341 0.58125 0.99983 0.0
O206 O 0.99806 0.69616 1.044 0.0
C207 C 0.12511 0.61258 1.0224 0.0
O208 O 0.99475 0.65724 0.97444 0.0
H209 H 0.92021 0.59243 0.9288 0.0
H210 H 0.10585 0.60286 0.14407 0.0
H211 H 0.0852 0.53382 0.91955 0.0
O212 O 0.09995 0.62961 0.05924 0.0
O213 O 0.09917 0.58991 0.98979 0.0
H214 H 0.9468 0.67605 0.14813 0.0
O215 O 0.03354 0.50655 1.0241 0.0
O216 O 0.03689 0.54258 0.09541 0.0
O217 O 0.92907 0.57022 1.01348 0.0
O218 O 0.93356 0.60999 0.08258 0.0
C219 C 0.04137 0.50287 0.06979 0.0
H220 H 0.10839 0.59316 0.23169 0.0
H221 H 0.94571 0.66671 0.23686 0.0
H222 H 0.92 0.62037 0.84489 0.0
H223 H 0.08867 0.56273 0.83538 0.0
C224 C 0.11169 0.11376 0.3336 0.0
C225 C 0.11547 0.16575 0.32789 0.0
H226 H 0.08896 0.05374 0.37928 0.0
C227 C 0.09902 0.19686 0.36703 0.0
H228 H 0.12346 0.0884 0.30439 0.0
C229 C 0.07956 0.17692 0.41009 0.0
C230 C 0.07518 0.12506 0.41567 0.0
H231 H 0.10182 0.2369 0.36472 0.0
H232 H 0.06763 0.2025 0.4391 0.0
C233 C 0.09156 0.09378 0.37662 0.0
C234 C 0.45874 0.94176 0.89265 0.0
C235 C 0.45035 0.96976 0.84978 0.0
H236 H 0.4702 0.94229 0.97 0.0
C237 C 0.44884 1.02248 0.85402 0.0
H238 H 0.45956 0.90135 0.89134 0.0
C239 C 0.45492 0.04629 0.89936 0.0
C240 C 0.46208 1.01832 0.94236 0.0
H241 H 0.4428 0.04561 0.822 0.0
H242 H 0.45378 0.08671 0.90068 0.0
C243 C 0.46415 0.96557 0.93806 0.0
C244 C 0.51926 0.61743 0.94209 0.0
C245 C 0.56733 0.6364 0.96122 0.0
H246 H 0.47797 0.59105 0.87922 0.0
C247 C 0.6073 0.65034 0.9297 0.0
H248 H 0.48736 0.60675 0.96589 0.0
C249 C 0.60425 0.6378 0.88087 0.0
C250 C 0.55893 0.61394 0.86167 0.0
H251 H 0.64489 0.66423 0.94404 0.0
H252 H 0.6399 0.64365 0.85964 0.0
C253 C 0.51482 0.60693 0.89253 0.0
C254 C 0.97107 0.5778 0.35698 0.0
C255 C 1.01427 0.58481 0.39004 0.0
H256 H 0.94119 0.58668 0.2839 0.0
C257 C 0.06274 0.60302 0.37334 0.0
H258 H 0.93284 0.56445 0.36903 0.0
C259 C 0.06725 0.61658 0.32484 0.0
C260 C 0.02295 0.61241 0.29232 0.0
H261 H 0.09587 0.60961 0.39863 0.0
H262 H 0.10448 0.63225 0.31325 0.0
C263 C 0.9754 0.59158 0.30853 0.0
C264 C 0.28808 0.19434 0.1669 0.0
C265 C 0.25231 0.16281 0.18944 0.0
H266 H 0.36091 0.20075 0.12621 0.0
C267 C 0.26564 0.11081 0.18738 0.0
H268 H 0.28079 0.23458 0.16861 0.0
C269 C 0.31289 0.09125 0.1634 0.0
C270 C 0.34794 0.12307 0.14043 0.0
H271 H 0.23929 0.08509 0.20383 0.0
H272 H 0.32198 0.05115 0.16289 0.0
C273 C 0.33461 0.17486 0.14253 0.0
C274 C 0.24133 0.98034 0.64086 0.0
C275 C 0.25991 1.01393 0.67599 0.0
H276 H 0.18094 0.96639 0.58615 0.0
C277 C 0.23213 0.06086 0.68098 0.0
H278 H 0.26195 0.94364 0.63614 0.0
C279 C 0.18609 0.07406 0.65192 0.0
C280 C 0.1666 0.04016 0.61759 0.0
H281 H 0.24589 0.08712 0.70768 0.0
H282 H 0.16503 0.1105 0.65724 0.0
C283 C 0.19501 0.99332 0.61206 0.0
C284 C 0.76829 0.58444 0.11249 0.0
C285 C 0.74462 0.54527 0.08774 0.0
H286 H 0.83813 0.62789 0.12077 0.0
C287 C 0.77469 0.51907 1.05171 0.0
H288 H 0.7455 0.60567 0.13986 0.0
C289 C 0.82693 0.53263 1.03974 0.0
C290 C 0.85043 0.57224 0.06404 0.0
H291 H 0.75684 0.48948 1.03131 0.0
H292 H 0.84885 0.51211 1.0114 0.0
C293 C 0.82096 0.59744 0.10115 0.0
C294 C 0.79045 0.6081 0.61124 0.0
C295 C 0.81014 0.61087 0.56394 0.0
H296 H 0.71992 0.60401 0.65579 0.0
C297 C 0.77278 0.61365 0.52465 0.0
H298 H 0.81864 0.60633 0.64203 0.0
C299 C 0.71662 0.61337 0.53241 0.0
C300 C 0.69673 0.60954 0.5796 0.0
H301 H 0.78705 0.61663 0.48788 0.0
H302 H 0.68885 0.61536 0.50132 0.0
C303 C 0.73416 0.60683 0.619 0.0
C304 C 0.07102 0.40055 0.16567 0.0
C305 C 0.09011 0.35958 0.13711 0.0
H306 H 0.04127 0.47799 0.1669 0.0
C307 C 0.09173 0.36589 0.08666 0.0
H308 H 0.06986 0.39716 0.20472 0.0
C309 C 0.07481 0.41178 0.06486 0.0
C310 C 0.05675 0.45326 0.09311 0.0
H311 H 0.10673 0.33504 0.06398 0.0
H312 H 0.07712 0.41502 1.02583 0.0
C313 C 0.05491 0.44695 0.14389 0.0
C314 C 0.56103 0.4178 1.04601 0.0
C315 C 0.59406 0.42915 0.08642 0.0
H316 H 0.52171 0.36148 1.00593 0.0
C317 C 0.61164 0.39083 0.11867 0.0
H318 H 0.54794 0.44628 1.0197 0.0
C319 C 0.59662 0.34213 0.11058 0.0
C320 C 0.56419 0.33072 0.06978 0.0
H321 H 0.63695 0.39855 0.15007 0.0
H322 H 0.61049 0.31331 0.1363 0.0
C323 C 0.54605 0.3692 1.03792 0.0
C324 C 0.99581 0.72791 0.51373 0.0
C325 C 0.97093 0.71161 0.55618 0.0
H326 H 0.02278 0.78928 0.47351 0.0
C327 C 0.95876 0.74661 0.59311 0.0
H328 H 1.00438 0.70298 0.48347 0.0
C329 C 0.96821 0.79701 0.58638 0.0
C330 C 0.99058 0.81306 0.54291 0.0
H331 H 0.94012 0.73546 0.62632 0.0
H332 H 0.95675 0.82367 0.61463 0.0
C333 C 1.00598 0.77781 0.50747 0.0
C334 C 0.49306 0.83312 0.66533 0.0
C335 C 0.48196 0.83358 0.71561 0.0
H336 H 0.50877 0.78947 0.60076 0.0
C337 C 0.48508 0.78756 0.73988 0.0
H338 H 0.49113 0.86789 0.64527 0.0
C339 C 0.49548 0.74249 0.71417 0.0
C340 C 0.50243 0.74194 0.66324 0.0
H341 H 0.47602 0.7861 0.77812 0.0
H342 H 0.49585 0.70776 0.73416 0.0
C343 C 0.50251 0.78809 0.63948 0.0
C344 C 0.95408 0.94911 0.74105 0.0
C345 C 0.94528 0.97681 0.78392 0.0
H346 H 0.96867 0.95009 0.66456 0.0
C347 C 0.94678 1.02944 0.78068 0.0
H348 H 0.95273 0.90883 0.7415 0.0
C349 C 0.95564 0.05348 0.73628 0.0
C350 C 0.96307 1.02587 0.69319 0.0
H351 H 0.94076 0.0524 0.81276 0.0
H352 H 0.95649 0.09379 0.73576 0.0
C353 C 0.96256 0.97316 0.69657 0.0
C354 C 0.60251 0.10591 0.30846 0.0
C355 C 0.60585 0.15796 0.3142 0.0
H356 H 0.5802 0.04554 0.26206 0.0
C357 C 0.58861 0.18897 0.27495 0.0
H358 H 0.61507 0.08077 0.33788 0.0
C359 C 0.56929 0.16873 0.23134 0.0
C360 C 0.56566 0.11675 0.22558 0.0
H361 H 0.59103 0.22907 0.27756 0.0
H362 H 0.55695 0.19409 0.20202 0.0
C363 C 0.58228 0.08564 0.26497 0.0
C364 C 0.45627 0.56971 0.27021 0.0
C365 C 0.4524 0.61367 0.24275 0.0
H366 H 0.47044 0.53771 0.34063 0.0
C367 C 0.45909 0.65964 0.2654 0.0
H368 H 0.45199 0.53374 0.25315 0.0
C369 C 0.46878 0.66234 0.31517 0.0
C370 C 0.47259 0.61871 0.34328 0.0
H371 H 0.45641 0.69374 0.24424 0.0
H372 H 0.47237 0.69869 0.33164 0.0
C373 C 0.46662 0.57223 0.32019 0.0
C374 C 0.06897 0.66899 0.73774 0.0
C375 C 0.04043 0.6529 0.69693 0.0
H376 H 0.08113 0.66108 0.81443 0.0
C377 C 0.99003 0.63137 0.70328 0.0
H378 H 0.10742 0.68612 0.73359 0.0
C379 C 0.97545 0.61608 0.74934 0.0
C380 C 1.01057 0.62327 0.78904 0.0
H381 H 0.96627 0.61975 0.67224 0.0
H382 H 0.94012 0.59426 0.753 0.0
C383 C 0.05478 0.65339 0.7837 0.0
C384 C 0.73209 1.02965 0.97326 0.0
C385 C 0.75657 0.98232 0.98554 0.0
H386 H 0.66655 0.08484 0.98638 0.0
C387 C 0.73431 0.95505 1.02268 0.0
H388 H 0.74865 0.0516 0.94485 0.0
C389 C 0.68718 0.97378 1.04635 0.0
C390 C 0.66173 1.02058 1.0335 0.0
H391 H 0.7529 0.91857 1.03258 0.0
H392 H 0.67018 0.95122 0.07408 0.0
C393 C 0.68521 0.04868 0.99723 0.0
C394 C 0.78811 0.19253 0.46792 0.0
C395 C 0.75212 0.159 0.44766 0.0
H396 H 0.86349 0.20268 0.50573 0.0
C397 C 0.76804 0.10748 0.4496 0.0
H398 H 0.77862 0.23253 0.46596 0.0
C399 C 0.81804 0.09021 0.47195 0.0
C400 C 0.85302 0.12403 0.49321 0.0
H401 H 0.74152 0.08043 0.43461 0.0
H402 H 0.82903 0.05039 0.47299 0.0
C403 C 0.8373 0.17536 0.49068 0.0
C404 C 0.27575 0.57287 1.0182 0.0
C405 C 0.29842 0.61484 1.03888 0.0
H406 H 0.2021 0.53999 0.99473 0.0
C407 C 0.26425 0.65785 1.04844 0.0
H408 H 0.30148 0.53928 1.01081 0.0
C409 C 0.20792 0.658 1.04006 0.0
C410 C 0.18483 0.61552 1.02107 0.0
H411 H 0.28074 0.69046 0.06492 0.0
H412 H 0.18207 0.69067 1.05026 0.0
C413 C 0.21924 0.57345 1.00868 0.0
C414 C 0.26925 0.56763 0.64499 0.0
C415 C 0.24929 0.54976 0.60039 0.0
H416 H 0.33962 0.58941 0.68589 0.0
C417 C 0.28618 0.53793 0.56323 0.0
H418 H 0.24148 0.57647 0.67442 0.0
C419 C 0.34155 0.54592 0.56961 0.0
C420 C 0.36148 0.56491 0.6136 0.0
H421 H 0.27189 0.52399 0.52869 0.0
H422 H 0.36884 0.53763 0.53975 0.0
C423 C 0.32519 0.57464 0.65176 0.0
C424 C 0.96326 0.79231 0.89359 0.0
C425 C 0.96197 0.83866 0.91765 0.0
H426 H 0.97295 0.71227 0.89966 0.0
C427 C 0.974 0.83823 0.96805 0.0
H428 H 0.95342 0.7908 0.85519 0.0
C429 C 0.98403 0.79323 0.99395 0.0
C430 C 0.9828 0.74678 0.97041 0.0
H431 H 0.97335 0.8731 0.98803 0.0
H432 H 0.99173 0.79491 1.03269 0.0
C433 C 0.97362 0.74714 0.91951 0.0
C434 C 0.48274 0.72176 0.11555 0.0
C435 C 0.46243 0.70689 0.06977 0.0
H436 H 0.50522 0.78164 0.16128 0.0
C437 C 0.45514 0.74301 1.03296 0.0
H438 H 0.48766 0.69624 0.14581 0.0
C439 C 0.46385 0.79308 1.04291 0.0
C440 C 0.48093 0.80762 0.08952 0.0
H441 H 0.44041 0.73309 0.99721 0.0
H442 H 0.45571 0.8207 1.01463 0.0
C443 C 0.49235 0.77129 0.12504 0.0
C444 C 0.05641 0.42808 0.60824 0.0
C445 C 0.09399 0.44135 0.57321 0.0
H446 H 1.01286 0.36992 0.63937 0.0
C447 C 0.11387 0.40523 0.53999 0.0
H448 H 0.04113 0.45498 0.63498 0.0
C449 C 0.09723 0.35652 0.54232 0.0
C450 C 0.06115 0.34273 0.57851 0.0
H451 H 0.14255 0.41458 0.51254 0.0
H452 H 0.11324 0.32943 0.51607 0.0
C453 C 0.04014 0.37934 0.61083 0.0
C454 C 0.5994 0.35742 0.55742 0.0
C455 C 0.58899 0.34943 0.50786 0.0
H456 H 0.59421 0.4084 0.6176 0.0
C457 C 0.56257 0.38859 0.4806 0.0
H458 H 0.62007 0.3279 0.57902 0.0
C459 C 0.5483 0.43506 0.50251 0.0
C460 C 0.55965 0.44337 0.5522 0.0
H461 H 0.55438 0.38384 0.44222 0.0
H462 H 0.52903 0.46478 0.48027 0.0
C463 C 0.58461 0.40354 0.57946 0.0
loop_
_geom_bond_atom_site_label_1
_geom_bond_atom_site_label_2
_geom_bond_distance
_geom_bond_site_symmetry_2
_ccdc_geom_bond_type
H0 C5 0.929 . S
H1 C10 0.931 . S
H2 C8 0.930 . S
N3 N4 1.234 . S
N3 C7 1.453 . S
N4 N3 1.234 . S
C5 H0 0.929 . S
C5 C6 1.373 . S
C5 C7 1.368 . S
C6 C5 1.373 . S
C6 C10 1.397 . S
C7 N3 1.453 . S
C7 C5 1.368 . S
C7 C8 1.373 . S
C8 H2 0.930 . S
C8 C7 1.373 . S
C8 C9 1.371 . S
C9 C8 1.371 . S
C9 C10 1.383 . S
C10 H1 0.931 . S
C10 C6 1.397 . S
C10 C9 1.383 . S
H11 C16 0.929 . S
H12 C21 0.931 . S
H13 C19 0.930 . S
N14 N15 1.234 . S
N14 C18 1.453 . S
N15 N14 1.234 . S
C16 H11 0.929 . S
C16 C17 1.373 . S
C16 C18 1.368 . S
C17 C16 1.373 . S
C17 C21 1.397 . S
C18 N14 1.453 . S
C18 C16 1.368 . S
C18 C19 1.373 . S
C19 H13 0.930 . S
C19 C18 1.373 . S
C19 C20 1.371 . S
C20 C19 1.371 . S
C20 C21 1.383 . S
C21 H12 0.931 . S
C21 C17 1.397 . S
C21 C20 1.383 . S
H22 C27 0.929 . S
H23 C32 0.931 1_554 S
H24 C30 0.930 . S
N25 N26 1.234 . S
N25 C29 1.453 . S
N26 N25 1.234 . S
C27 H22 0.929 . S
C27 C28 1.373 . S
C27 C29 1.368 . S
C28 C27 1.373 . S
C28 C32 1.397 . S
C29 N25 1.453 . S
C29 C27 1.368 . S
C29 C30 1.373 . S
C30 H24 0.930 . S
C30 C29 1.373 . S
C30 C31 1.371 . S
C31 C30 1.371 . S
C31 C32 1.383 . S
C32 H23 0.931 1_556 S
C32 C28 1.397 . S
C32 C31 1.383 . S
H33 C38 0.929 . S
H34 C43 0.931 . S
H35 C41 0.930 . S
N36 N37 1.234 . S
N36 C40 1.453 . S
N37 N36 1.234 . S
C38 H33 0.929 . S
C38 C39 1.373 . S
C38 C40 1.368 . S
C39 C38 1.373 . S
C39 C43 1.397 . S
C40 N36 1.453 . S
C40 C38 1.368 . S
C40 C41 1.373 . S
C41 H35 0.930 . S
C41 C40 1.373 . S
C41 C42 1.371 . S
C42 C41 1.371 . S
C42 C43 1.383 . S
C43 H34 0.931 . S
C43 C39 1.397 . S
C43 C42 1.383 . S
H44 C49 0.929 . S
H45 C54 0.931 . S
H46 C52 0.930 . S
N47 N48 1.234 . S
N47 C51 1.453 . S
N48 N47 1.234 . S
C49 H44 0.929 . S
C49 C50 1.373 . S
C49 C51 1.368 . S
C50 C49 1.373 . S
C50 C54 1.397 . S
C51 N47 1.453 . S
C51 C49 1.368 . S
C51 C52 1.373 . S
C52 H46 0.930 . S
C52 C51 1.373 . S
C52 C53 1.371 . S
C53 C52 1.371 . S
C53 C54 1.383 . S
C54 H45 0.931 . S
C54 C50 1.397 . S
C54 C53 1.383 . S
H55 C60 0.929 . S
H56 C65 0.931 . S
H57 C63 0.930 . S
N58 N59 1.234 . S
N58 C62 1.453 . S
N59 N58 1.234 . S
C60 H55 0.929 . S
C60 C61 1.373 . S
C60 C62 1.368 . S
C61 C60 1.373 . S
C61 C65 1.397 . S
C62 N58 1.453 . S
C62 C60 1.368 . S
C62 C63 1.373 . S
C63 H57 0.930 . S
C63 C62 1.373 . S
C63 C64 1.371 . S
C64 C63 1.371 . S
C64 C65 1.383 . S
C65 H56 0.931 . S
C65 C61 1.397 . S
C65 C64 1.383 . S
H66 C71 0.929 . S
H67 C76 0.931 . S
H68 C74 0.930 . S
N69 N70 1.234 . S
N69 C73 1.453 . S
N70 N69 1.234 . S
C71 H66 0.929 . S
C71 C72 1.373 . S
C71 C73 1.368 . S
C72 C71 1.373 . S
C72 C76 1.397 . S
C73 N69 1.453 . S
C73 C71 1.368 . S
C73 C74 1.373 . S
C74 H68 0.930 . S
C74 C73 1.373 . S
C74 C75 1.371 . S
C75 C74 1.371 . S
C75 C76 1.383 . S
C76 H67 0.931 . S
C76 C72 1.397 . S
C76 C75 1.383 . S
H77 C82 0.929 . S
H78 C87 0.931 . S
H79 C85 0.930 . S
N80 N81 1.234 . S
N80 C84 1.453 . S
N81 N80 1.234 . S
C82 H77 0.929 . S
C82 C83 1.373 . S
C82 C84 1.368 . S
C83 C82 1.373 . S
C83 C87 1.397 . S
C84 N80 1.453 . S
C84 C82 1.368 . S
C84 C85 1.373 . S
C85 H79 0.930 . S
C85 C84 1.373 . S
C85 C86 1.371 . S
C86 C85 1.371 . S
C86 C87 1.383 . S
C87 H78 0.931 . S
C87 C83 1.397 . S
C87 C86 1.383 . S
C88 O104 1.251 . S
C88 O106 1.254 . S
N89 C90 1.333 . S
N89 C94 1.307 . S
N89 Zn95 2.020 . S
C90 N89 1.333 . S
C90 C91 1.379 . S
C90 H108 0.952 . S
C91 C90 1.379 . S
C91 C92 1.390 . S
C91 H118 0.949 . S
C92 C91 1.390 . S
C92 C93 1.357 . S
C93 C92 1.357 . S
C93 C94 1.370 . S
C93 H119 0.950 . S
C94 N89 1.307 . S
C94 C93 1.370 . S
C94 H112 0.948 1_455 S
Zn95 N89 2.020 . S
Zn95 O104 2.039 . S
Zn95 O110 2.034 . S
Zn95 O114 2.025 1_455 S
Zn95 O116 2.024 1_455 S
C96 O115 1.246 . S
C96 O116 1.249 . S
N97 C98 1.307 . S
N97 C99 1.333 . S
N97 Zn103 2.020 . S
C98 N97 1.307 . S
C98 C102 1.370 . S
C98 H109 0.948 1_655 S
C99 N97 1.333 . S
C99 C100 1.379 . S
C99 H107 0.952 . S
C100 C99 1.379 . S
C100 C101 1.390 . S
C100 H120 0.949 . S
C101 C100 1.390 . S
C101 C102 1.357 . S
C102 C98 1.370 . S
C102 C101 1.357 . S
C102 H121 0.950 . S
Zn103 N97 2.020 . S
Zn103 O106 2.025 1_665 S
Zn103 O111 2.024 1_655 S
Zn103 O113 2.039 . S
Zn103 O115 2.034 1_565 S
O104 C88 1.251 . S
O104 Zn95 2.039 . S
C105 O110 1.246 . S
C105 O111 1.249 1_545 S
O106 C88 1.254 . S
O106 Zn103 2.025 1_445 S
H107 C99 0.952 . S
H108 C90 0.952 . S
H109 C98 0.948 1_455 S
O110 Zn95 2.034 . S
O110 C105 1.246 . S
O111 Zn103 2.024 1_455 S
O111 C105 1.249 1_565 S
H112 C94 0.948 1_655 S
O113 Zn103 2.039 . S
O113 C117 1.251 1_565 S
O114 Zn95 2.025 1_655 S
O114 C117 1.254 . S
O115 C96 1.246 . S
O115 Zn103 2.034 1_545 S
O116 Zn95 2.024 1_655 S
O116 C96 1.249 . S
C117 O113 1.251 1_545 S
C117 O114 1.254 . S
H118 C91 0.949 . S
H119 C93 0.950 . S
H120 C100 0.949 . S
H121 C102 0.950 . S
C122 O138 1.251 . S
C122 O140 1.254 1_546 S
N123 C124 1.333 . S
N123 C128 1.307 . S
N123 Zn129 2.020 1_556 S
C124 N123 1.333 . S
C124 C125 1.379 . S
C124 H142 0.955 . S
C125 C124 1.379 . S
C125 C126 1.390 . S
C125 H152 0.949 . S
C126 C125 1.390 . S
C126 C127 1.357 . S
C127 C126 1.357 . S
C127 C128 1.370 . S
C127 H153 0.950 . S
C128 N123 1.307 . S
C128 C127 1.370 . S
C128 H146 0.948 . S
Zn129 N123 2.020 1_554 S
Zn129 O138 2.039 1_554 S
Zn129 O144 2.034 . S
Zn129 O148 2.025 . S
Zn129 O150 2.024 1_554 S
C130 O149 1.246 1_545 S
C130 O150 1.249 . S
N131 C132 1.307 . S
N131 C133 1.333 . S
N131 Zn137 2.020 . S
C132 N131 1.307 . S
C132 C136 1.370 . S
C132 H143 0.948 . S
C133 N131 1.333 . S
C133 C134 1.379 . S
C133 H141 0.952 . S
C134 C133 1.379 . S
C134 C135 1.390 . S
C134 H154 0.949 . S
C135 C134 1.390 . S
C135 C136 1.357 . S
C136 C132 1.370 . S
C136 C135 1.357 . S
C136 H155 0.950 . S
Zn137 N131 2.020 . S
Zn137 O140 2.025 . S
Zn137 O145 2.024 1_565 S
Zn137 O147 2.039 1_565 S
Zn137 O149 2.034 1_554 S
O138 C122 1.251 . S
O138 Zn129 2.039 1_556 S
C139 O144 1.246 . S
C139 O145 1.249 . S
O140 C122 1.254 1_564 S
O140 Zn137 2.025 . S
H141 C133 0.952 . S
H142 C124 0.955 . S
H143 C132 0.948 . S
O144 Zn129 2.034 . S
O144 C139 1.246 . S
O145 Zn137 2.024 1_545 S
O145 C139 1.249 . S
H146 C128 0.948 . S
O147 Zn137 2.039 1_545 S
O147 C151 1.251 . S
O148 Zn129 2.025 . S
O148 C151 1.254 . S
O149 C130 1.246 1_565 S
O149 Zn137 2.034 1_556 S
O150 Zn129 2.024 1_556 S
O150 C130 1.249 . S
C151 O147 1.251 . S
C151 O148 1.254 . S
H152 C125 0.949 . S
H153 C127 0.950 . S
H154 C134 0.949 . S
H155 C136 0.950 . S
C156 O172 1.251 . S
C156 O174 1.254 . S
N157 C158 1.333 . S
N157 C162 1.307 . S
N157 Zn163 2.020 . S
C158 N157 1.333 . S
C158 C159 1.379 . S
C158 H176 0.952 . S
C159 C158 1.379 . S
C159 C160 1.390 . S
C159 H186 0.949 . S
C160 C159 1.390 . S
C160 C161 1.357 . S
C161 C160 1.357 . S
C161 C162 1.370 . S
C161 H187 0.950 . S
C162 N157 1.307 . S
C162 C161 1.370 . S
C162 H180 0.948 . S
Zn163 N157 2.020 . S
Zn163 O172 2.039 . S
Zn163 O178 2.034 . S
Zn163 O182 2.025 . S
Zn163 O184 2.024 . S
C164 O183 1.246 . S
C164 O184 1.249 . S
N165 C166 1.307 . S
N165 C167 1.333 . S
N165 Zn171 2.020 . S
C166 N165 1.307 . S
C166 C170 1.370 . S
C166 H177 0.948 . S
C167 N165 1.333 . S
C167 C168 1.379 . S
C167 H175 0.952 . S
C168 C167 1.379 . S
C168 C169 1.390 . S
C168 H188 0.949 . S
C169 C168 1.390 . S
C169 C170 1.357 . S
C170 C166 1.370 . S
C170 C169 1.357 . S
C170 H189 0.950 . S
Zn171 N165 2.020 . S
Zn171 O174 2.025 . S
Zn171 O179 2.024 . S
Zn171 O181 2.039 . S
Zn171 O183 2.034 . S
O172 C156 1.251 . S
O172 Zn163 2.039 . S
C173 O178 1.246 . S
C173 O179 1.249 . S
O174 C156 1.254 . S
O174 Zn171 2.025 . S
H175 C167 0.952 . S
H176 C158 0.952 . S
H177 C166 0.948 . S
O178 Zn163 2.034 . S
O178 C173 1.246 . S
O179 Zn171 2.024 . S
O179 C173 1.249 . S
H180 C162 0.948 . S
O181 Zn171 2.039 . S
O181 C185 1.251 . S
O182 Zn163 2.025 . S
O182 C185 1.254 . S
O183 C164 1.246 . S
O183 Zn171 2.034 . S
O184 Zn163 2.024 . S
O184 C164 1.249 . S
C185 O181 1.251 . S
C185 O182 1.254 . S
H186 C159 0.949 . S
H187 C161 0.950 . S
H188 C168 0.949 . S
H189 C170 0.950 . S
C190 O206 1.251 1_556 S
C190 O208 1.254 1_655 S
N191 C192 1.333 . S
N191 C196 1.307 . S
N191 Zn197 2.020 . S
C192 N191 1.333 . S
C192 C193 1.379 . S
C192 H210 0.952 . S
C193 C192 1.379 . S
C193 C194 1.390 . S
C193 H220 0.949 . S
C194 C193 1.390 . S
C194 C195 1.357 . S
C195 C194 1.357 . S
C195 C196 1.370 . S
C195 H221 0.950 . S
C196 N191 1.307 . S
C196 C195 1.370 . S
C196 H214 0.948 . S
Zn197 N191 2.020 . S
Zn197 O206 2.039 . S
Zn197 O212 2.034 1_655 S
Zn197 O216 2.025 1_655 S
Zn197 O218 2.024 . S
C198 O217 1.246 . S
C198 O218 1.249 1_556 S
N199 C200 1.307 . S
N199 C201 1.333 . S
N199 Zn205 2.020 . S
C200 N199 1.307 . S
C200 C204 1.370 . S
C200 H211 0.948 . S
C201 N199 1.333 . S
C201 C202 1.379 . S
C201 H209 0.952 . S
C202 C201 1.379 . S
C202 C203 1.390 . S
C202 H222 0.949 . S
C203 C202 1.390 . S
C203 C204 1.357 . S
C204 C200 1.370 . S
C204 C203 1.357 . S
C204 H223 0.950 . S
Zn205 N199 2.020 . S
Zn205 O208 2.025 . S
Zn205 O213 2.024 . S
Zn205 O215 2.039 . S
Zn205 O217 2.034 1_455 S
O206 C190 1.251 1_554 S
O206 Zn197 2.039 . S
C207 O212 1.246 . S
C207 O213 1.249 1_554 S
O208 C190 1.254 1_455 S
O208 Zn205 2.025 . S
H209 C201 0.952 . S
H210 C192 0.952 . S
H211 C200 0.948 . S
O212 Zn197 2.034 1_455 S
O212 C207 1.246 . S
O213 Zn205 2.024 . S
O213 C207 1.249 1_556 S
H214 C196 0.948 . S
O215 Zn205 2.039 . S
O215 C219 1.251 1_556 S
O216 Zn197 2.025 1_455 S
O216 C219 1.254 . S
O217 C198 1.246 . S
O217 Zn205 2.034 1_655 S
O218 Zn197 2.024 . S
O218 C198 1.249 1_554 S
C219 O215 1.251 1_554 S
C219 O216 1.254 . S
H220 C193 0.949 . S
H221 C195 0.950 . S
H222 C202 0.949 . S
H223 C204 0.950 . S
C224 C225 1.387 . S
C224 H228 0.950 . S
C224 C233 1.390 . S
C225 C224 1.387 . S
C225 C227 1.387 . S
H226 C233 0.950 1_655 S
C227 C225 1.387 . S
C227 C229 1.390 . S
C227 H231 0.950 . S
H228 C224 0.950 . S
C229 C227 1.390 . S
C229 C230 1.387 . S
C229 H232 0.950 . S
C230 C229 1.387 . S
C230 C233 1.387 . S
H231 C227 0.950 . S
H232 C229 0.950 . S
C233 C224 1.390 . S
C233 H226 0.950 1_455 S
C233 C230 1.387 . S
C234 C235 1.387 . S
C234 H238 0.950 . S
C234 C243 1.390 . S
C235 C234 1.387 . S
C235 C237 1.387 1_565 S
H236 C243 0.950 . S
C237 C235 1.387 1_545 S
C237 C239 1.390 . S
C237 H241 0.950 . S
H238 C234 0.950 . S
C239 C237 1.390 . S
C239 C240 1.387 1_545 S
C239 H242 0.950 . S
C240 C239 1.387 1_565 S
C240 C243 1.387 . S
H241 C237 0.950 . S
H242 C239 0.950 . S
C243 C234 1.390 . S
C243 H236 0.950 . S
C243 C240 1.387 . S
C244 C245 1.387 . S
C244 H248 0.950 . S
C244 C253 1.390 . S
C245 C244 1.387 . S
C245 C247 1.387 . S
H246 C253 0.950 . S
C247 C245 1.387 . S
C247 C249 1.390 . S
C247 H251 0.950 . S
H248 C244 0.950 . S
C249 C247 1.390 . S
C249 C250 1.387 . S
C249 H252 0.950 . S
C250 C249 1.387 . S
C250 C253 1.387 . S
H251 C247 0.950 . S
H252 C249 0.950 . S
C253 C244 1.390 . S
C253 H246 0.950 . S
C253 C250 1.387 . S
C254 C255 1.387 . S
C254 H258 0.950 . S
C254 C263 1.390 . S
C255 C254 1.387 . S
C255 C257 1.387 . S
H256 C263 0.950 . S
C257 C255 1.387 . S
C257 C259 1.390 . S
C257 H261 0.950 . S
H258 C254 0.950 . S
C259 C257 1.390 . S
C259 C260 1.387 . S
C259 H262 0.950 . S
C260 C259 1.387 . S
C260 C263 1.387 . S
H261 C257 0.950 . S
H262 C259 0.950 . S
C263 C254 1.390 . S
C263 H256 0.950 . S
C263 C260 1.387 . S
C264 C265 1.387 . S
C264 H268 0.950 . S
C264 C273 1.390 . S
C265 C264 1.387 . S
C265 C267 1.387 . S
H266 C273 0.950 . S
C267 C265 1.387 . S
C267 C269 1.390 . S
C267 H271 0.950 . S
H268 C264 0.950 . S
C269 C267 1.390 . S
C269 C270 1.387 . S
C269 H272 0.950 . S
C270 C269 1.387 . S
C270 C273 1.387 . S
H271 C267 0.950 . S
H272 C269 0.950 . S
C273 C264 1.390 . S
C273 H266 0.950 . S
C273 C270 1.387 . S
C274 C275 1.387 . S
C274 H278 0.950 . S
C274 C283 1.390 . S
C275 C274 1.387 . S
C275 C277 1.387 1_565 S
H276 C283 0.950 . S
C277 C275 1.387 1_545 S
C277 C279 1.390 . S
C277 H281 0.950 . S
H278 C274 0.950 . S
C279 C277 1.390 . S
C279 C280 1.387 1_545 S
C279 H282 0.950 . S
C280 C279 1.387 1_565 S
C280 C283 1.387 . S
H281 C277 0.950 . S
H282 C279 0.950 . S
C283 C274 1.390 . S
C283 H276 0.950 . S
C283 C280 1.387 . S
C284 C285 1.387 1_554 S
C284 H288 0.950 . S
C284 C293 1.390 . S
C285 C284 1.387 1_556 S
C285 C287 1.387 . S
H286 C293 0.950 . S
C287 C285 1.387 . S
C287 C289 1.390 . S
C287 H291 0.950 . S
H288 C284 0.950 . S
C289 C287 1.390 . S
C289 C290 1.387 . S
C289 H292 0.950 . S
C290 C289 1.387 . S
C290 C293 1.387 1_556 S
H291 C287 0.950 . S
H292 C289 0.950 . S
C293 C284 1.390 . S
C293 H286 0.950 . S
C293 C290 1.387 1_554 S
C294 C295 1.387 . S
C294 H298 0.950 . S
C294 C303 1.390 . S
C295 C294 1.387 . S
C295 C297 1.387 . S
H296 C303 0.950 . S
C297 C295 1.387 . S
C297 C299 1.390 . S
C297 H301 0.950 . S
H298 C294 0.950 . S
C299 C297 1.390 . S
C299 C300 1.387 . S
C299 H302 0.950 . S
C300 C299 1.387 . S
C300 C303 1.387 . S
H301 C297 0.950 . S
H302 C299 0.950 . S
C303 C294 1.390 . S
C303 H296 0.950 . S
C303 C300 1.387 . S
C304 C305 1.387 . S
C304 H308 0.950 . S
C304 C313 1.390 . S
C305 C304 1.387 . S
C305 C307 1.387 . S
H306 C313 0.950 1_655 S
C307 C305 1.387 . S
C307 C309 1.390 . S
C307 H311 0.950 . S
H308 C304 0.950 . S
C309 C307 1.390 . S
C309 C310 1.387 . S
C309 H312 0.950 . S
C310 C309 1.387 . S
C310 C313 1.387 . S
H311 C307 0.950 . S
H312 C309 0.950 . S
C313 C304 1.390 . S
C313 H306 0.950 1_455 S
C313 C310 1.387 . S
C314 C315 1.387 . S
C314 H318 0.950 . S
C314 C323 1.390 . S
C315 C314 1.387 . S
C315 C317 1.387 1_556 S
H316 C323 0.950 . S
C317 C315 1.387 1_554 S
C317 C319 1.390 . S
C317 H321 0.950 . S
H318 C314 0.950 . S
C319 C317 1.390 . S
C319 C320 1.387 1_554 S
C319 H322 0.950 . S
C320 C319 1.387 1_556 S
C320 C323 1.387 . S
H321 C317 0.950 . S
H322 C319 0.950 . S
C323 C314 1.390 . S
C323 H316 0.950 . S
C323 C320 1.387 . S
C324 C325 1.387 . S
C324 H328 0.950 . S
C324 C333 1.390 . S
C325 C324 1.387 . S
C325 C327 1.387 . S
H326 C333 0.950 . S
C327 C325 1.387 . S
C327 C329 1.390 . S
C327 H331 0.950 . S
H328 C324 0.950 . S
C329 C327 1.390 . S
C329 C330 1.387 . S
C329 H332 0.950 . S
C330 C329 1.387 . S
C330 C333 1.387 . S
H331 C327 0.950 . S
H332 C329 0.950 . S
C333 C324 1.390 . S
C333 H326 0.950 . S
C333 C330 1.387 . S
C334 C335 1.387 . S
C334 H338 0.950 . S
C334 C343 1.390 . S
C335 C334 1.387 . S
C335 C337 1.387 . S
H336 C343 0.950 . S
C337 C335 1.387 . S
C337 C339 1.390 . S
C337 H341 0.950 . S
H338 C334 0.950 . S
C339 C337 1.390 . S
C339 C340 1.387 . S
C339 H342 0.950 . S
C340 C339 1.387 . S
C340 C343 1.387 . S
H341 C337 0.950 . S
H342 C339 0.950 . S
C343 C334 1.390 . S
C343 H336 0.950 . S
C343 C340 1.387 . S
C344 C345 1.387 . S
C344 H348 0.950 1_655 S
C344 C353 1.390 . S
C345 C344 1.387 . S
C345 C347 1.387 . S
H346 C353 0.950 1_455 S
C347 C345 1.387 . S
C347 C349 1.390 1_565 S
C347 H351 0.950 . S
H348 C344 0.950 1_455 S
C349 C347 1.390 1_545 S
C349 C350 1.387 1_545 S
C349 H352 0.950 . S
C350 C349 1.387 1_565 S
C350 C353 1.387 . S
H351 C347 0.950 . S
H352 C349 0.950 . S
C353 C344 1.390 . S
C353 H346 0.950 1_655 S
C353 C350 1.387 . S
C354 C355 1.387 . S
C354 H358 0.950 . S
C354 C363 1.390 . S
C355 C354 1.387 . S
C355 C357 1.387 . S
H356 C363 0.950 . S
C357 C355 1.387 . S
C357 C359 1.390 . S
C357 H361 0.950 . S
H358 C354 0.950 . S
C359 C357 1.390 . S
C359 C360 1.387 . S
C359 H362 0.950 . S
C360 C359 1.387 . S
C360 C363 1.387 . S
H361 C357 0.950 . S
H362 C359 0.950 . S
C363 C354 1.390 . S
C363 H356 0.950 . S
C363 C360 1.387 . S
C364 C365 1.387 . S
C364 H368 0.950 . S
C364 C373 1.390 . S
C365 C364 1.387 . S
C365 C367 1.387 . S
H366 C373 0.950 . S
C367 C365 1.387 . S
C367 C369 1.390 . S
C367 H371 0.950 . S
H368 C364 0.950 . S
C369 C367 1.390 . S
C369 C370 1.387 . S
C369 H372 0.950 . S
C370 C369 1.387 . S
C370 C373 1.387 . S
H371 C367 0.950 . S
H372 C369 0.950 . S
C373 C364 1.390 . S
C373 H366 0.950 . S
C373 C370 1.387 . S
C374 C375 1.387 . S
C374 H378 0.950 . S
C374 C383 1.390 . S
C375 C374 1.387 . S
C375 C377 1.387 . S
H376 C383 0.950 . S
C377 C375 1.387 . S
C377 C379 1.390 . S
C377 H381 0.950 . S
H378 C374 0.950 . S
C379 C377 1.390 . S
C379 C380 1.387 . S
C379 H382 0.950 . S
C380 C379 1.387 . S
C380 C383 1.387 . S
H381 C377 0.950 . S
H382 C379 0.950 . S
C383 C374 1.390 . S
C383 H376 0.950 . S
C383 C380 1.387 . S
C384 C385 1.387 1_545 S
C384 H388 0.950 . S
C384 C393 1.390 . S
C385 C384 1.387 1_565 S
C385 C387 1.387 . S
H386 C393 0.950 . S
C387 C385 1.387 . S
C387 C389 1.390 . S
C387 H391 0.950 . S
H388 C384 0.950 . S
C389 C387 1.390 . S
C389 C390 1.387 . S
C389 H392 0.950 1_556 S
C390 C389 1.387 . S
C390 C393 1.387 1_565 S
H391 C387 0.950 . S
H392 C389 0.950 1_554 S
C393 C384 1.390 . S
C393 H386 0.950 . S
C393 C390 1.387 1_545 S
C394 C395 1.387 . S
C394 H398 0.950 . S
C394 C403 1.390 . S
C395 C394 1.387 . S
C395 C397 1.387 . S
H396 C403 0.950 . S
C397 C395 1.387 . S
C397 C399 1.390 . S
C397 H401 0.950 . S
H398 C394 0.950 . S
C399 C397 1.390 . S
C399 C400 1.387 . S
C399 H402 0.950 . S
C400 C399 1.387 . S
C400 C403 1.387 . S
H401 C397 0.950 . S
H402 C399 0.950 . S
C403 C394 1.390 . S
C403 H396 0.950 . S
C403 C400 1.387 . S
C404 C405 1.387 . S
C404 H408 0.950 . S
C404 C413 1.390 . S
C405 C404 1.387 . S
C405 C407 1.387 . S
H406 C413 0.950 . S
C407 C405 1.387 . S
C407 C409 1.390 . S
C407 H411 0.950 . S
H408 C404 0.950 . S
C409 C407 1.390 . S
C409 C410 1.387 . S
C409 H412 0.950 . S
C410 C409 1.387 . S
C410 C413 1.387 . S
H411 C407 0.950 . S
H412 C409 0.950 . S
C413 C404 1.390 . S
C413 H406 0.950 . S
C413 C410 1.387 . S
C414 C415 1.387 . S
C414 H418 0.950 . S
C414 C423 1.390 . S
C415 C414 1.387 . S
C415 C417 1.387 . S
H416 C423 0.950 . S
C417 C415 1.387 . S
C417 C419 1.390 . S
C417 H421 0.950 . S
H418 C414 0.950 . S
C419 C417 1.390 . S
C419 C420 1.387 . S
C419 H422 0.950 . S
C420 C419 1.387 . S
C420 C423 1.387 . S
H421 C417 0.950 . S
H422 C419 0.950 . S
C423 C414 1.390 . S
C423 H416 0.950 . S
C423 C420 1.387 . S
C424 C425 1.387 . S
C424 H428 0.950 1_655 S
C424 C433 1.390 1_655 S
C425 C424 1.387 . S
C425 C427 1.387 . S
H426 C433 0.950 . S
C427 C425 1.387 . S
C427 C429 1.390 . S
C427 H431 0.950 . S
H428 C424 0.950 1_455 S
C429 C427 1.390 . S
C429 C430 1.387 . S
C429 H432 0.950 . S
C430 C429 1.387 . S
C430 C433 1.387 1_655 S
H431 C427 0.950 . S
H432 C429 0.950 . S
C433 C424 1.390 1_455 S
C433 H426 0.950 . S
C433 C430 1.387 1_455 S
C434 C435 1.387 . S
C434 H438 0.950 . S
C434 C443 1.390 . S
C435 C434 1.387 . S
C435 C437 1.387 . S
H436 C443 0.950 . S
C437 C435 1.387 . S
C437 C439 1.390 . S
C437 H441 0.950 . S
H438 C434 0.950 . S
C439 C437 1.390 . S
C439 C440 1.387 . S
C439 H442 0.950 . S
C440 C439 1.387 . S
C440 C443 1.387 . S
H441 C437 0.950 . S
H442 C439 0.950 . S
C443 C434 1.390 . S
C443 H436 0.950 . S
C443 C440 1.387 . S
C444 C445 1.387 . S
C444 H448 0.950 . S
C444 C453 1.390 . S
C445 C444 1.387 . S
C445 C447 1.387 . S
H446 C453 0.950 . S
C447 C445 1.387 . S
C447 C449 1.390 . S
C447 H451 0.950 . S
H448 C444 0.950 . S
C449 C447 1.390 . S
C449 C450 1.387 . S
C449 H452 0.950 . S
C450 C449 1.387 . S
C450 C453 1.387 . S
H451 C447 0.950 . S
H452 C449 0.950 . S
C453 C444 1.390 . S
C453 H446 0.950 . S
C453 C450 1.387 . S
C454 C455 1.387 . S
C454 H458 0.950 . S
C454 C463 1.390 . S
C455 C454 1.387 . S
C455 C457 1.387 . S
H456 C463 0.950 . S
C457 C455 1.387 . S
C457 C459 1.390 . S
C457 H461 0.950 . S
H458 C454 0.950 . S
C459 C457 1.390 . S
C459 C460 1.387 . S
C459 H462 0.950 . S
C460 C459 1.387 . S
C460 C463 1.387 . S
H461 C457 0.950 . S
H462 C459 0.950 . S
C463 C454 1.390 . S
C463 H456 0.950 . S
C463 C460 1.387 . S
C225 C6 2.490 . S
C230 C88 2.497 . S
C235 C20 2.581 . S
C240 C130 2.588 1_565 S
C250 C160 0.816 . S
C245 N26 0.818 . S
C255 N37 1.000 . S
C260 C194 1.028 . S
C270 C151 2.178 . S
C265 C9 2.170 . S
C280 C105 1.695 1_565 S
C275 N15 1.683 . S
C290 C198 1.175 . S
C285 C31 1.166 . S
C300 C164 1.181 . S
C295 C39 1.165 . S
C305 N4 2.186 . S
C310 C219 2.212 . S
C320 C126 1.267 . S
C315 C28 1.228 . S
C325 C42 1.070 . S
C330 C101 1.079 . S
C335 C17 2.331 . S
C340 C185 2.347 . S
C350 C117 2.592 1_565 S
C345 C50 2.581 . S
C355 C61 2.371 . S
C360 C139 2.396 . S
C365 N70 1.012 . S
C370 C169 1.014 . S
C375 N81 0.886 . S
C380 C203 0.892 . S
C385 N48 1.692 . S
C390 C122 1.718 1_565 S
C400 C96 2.132 . S
C395 C64 2.114 . S
C410 C207 1.082 . S
C405 C75 1.057 . S
C420 C173 1.196 . S
C415 C86 1.187 . S
C425 C53 2.469 . S
C430 C190 2.466 . S
C440 C135 1.046 . S
C435 C72 1.033 . S
C450 C92 1.226 . S
C445 C83 1.194 . S
C455 N59 2.144 . S
C460 C156 2.159 . S
