# Generated by pormake.
# Topology zzz, (3,6)-cn, num edge types: 1
# Building blocks:
#     Node 0, Type 0, BuildingBlock: BELTOD_clean_linker_0, # of connection points: 3
#     Node 1, Type 0, BuildingBlock: BELTOD_clean_linker_0, # of connection points: 3
#     Node 2, Type 0, BuildingBlock: BELTOD_clean_linker_0, # of connection points: 3
#     Node 3, Type 0, BuildingBlock: BELTOD_clean_linker_0, # of connection points: 3
#     Node 4, Type 0, BuildingBlock: BELTOD_clean_linker_0, # of connection points: 3
#     Node 5, Type 0, BuildingBlock: BELTOD_clean_linker_0, # of connection points: 3
#     Node 6, Type 0, BuildingBlock: BELTOD_clean_linker_0, # of connection points: 3
#     Node 7, Type 0, BuildingBlock: BELTOD_clean_linker_0, # of connection points: 3
#     Node 8, Type 1, BuildingBlock: KUMJIN_clean_sbu_0, # of connection points: 6
#     Node 9, Type 1, BuildingBlock: KUMJIN_clean_sbu_0, # of connection points: 6
#     Node 10, Type 1, BuildingBlock: KUMJIN_clean_sbu_0, # of connection points: 6
#     Node 11, Type 1, BuildingBlock: KUMJIN_clean_sbu_0, # of connection points: 6
#     Edge 12, Type (0, 1), BuildingBlock: AJUNOK_clean_linker_0, # of connection points: 2
#     Edge 13, Type (0, 1), BuildingBlock: AJUNOK_clean_linker_0, # of connection points: 2
#     Edge 14, Type (0, 1), BuildingBlock: AJUNOK_clean_linker_0, # of connection points: 2
#     Edge 15, Type (0, 1), BuildingBlock: AJUNOK_clean_linker_0, # of connection points: 2
#     Edge 16, Type (0, 1), BuildingBlock: AJUNOK_clean_linker_0, # of connection points: 2
#     Edge 17, Type (0, 1), BuildingBlock: AJUNOK_clean_linker_0, # of connection points: 2
#     Edge 18, Type (0, 1), BuildingBlock: AJUNOK_clean_linker_0, # of connection points: 2
#     Edge 19, Type (0, 1), BuildingBlock: AJUNOK_clean_linker_0, # of connection points: 2
#     Edge 20, Type (0, 1), BuildingBlock: AJUNOK_clean_linker_0, # of connection points: 2
#     Edge 21, Type (0, 1), BuildingBlock: AJUNOK_clean_linker_0, # of connection points: 2
#     Edge 22, Type (0, 1), BuildingBlock: AJUNOK_clean_linker_0, # of connection points: 2
#     Edge 23, Type (0, 1), BuildingBlock: AJUNOK_clean_linker_0, # of connection points: 2
#     Edge 24, Type (0, 1), BuildingBlock: AJUNOK_clean_linker_0, # of connection points: 2
#     Edge 25, Type (0, 1), BuildingBlock: AJUNOK_clean_linker_0, # of connection points: 2
#     Edge 26, Type (0, 1), BuildingBlock: AJUNOK_clean_linker_0, # of connection points: 2
#     Edge 27, Type (0, 1), BuildingBlock: AJUNOK_clean_linker_0, # of connection points: 2
#     Edge 28, Type (0, 1), BuildingBlock: AJUNOK_clean_linker_0, # of connection points: 2
#     Edge 29, Type (0, 1), BuildingBlock: AJUNOK_clean_linker_0, # of connection points: 2
#     Edge 30, Type (0, 1), BuildingBlock: AJUNOK_clean_linker_0, # of connection points: 2
#     Edge 31, Type (0, 1), BuildingBlock: AJUNOK_clean_linker_0, # of connection points: 2
#     Edge 32, Type (0, 1), BuildingBlock: AJUNOK_clean_linker_0, # of connection points: 2
#     Edge 33, Type (0, 1), BuildingBlock: AJUNOK_clean_linker_0, # of connection points: 2
#     Edge 34, Type (0, 1), BuildingBlock: AJUNOK_clean_linker_0, # of connection points: 2
#     Edge 35, Type (0, 1), BuildingBlock: AJUNOK_clean_linker_0, # of connection points: 2
# Relax obj value: 0.332
# Max RMSD: 0.213
# Mean RMSD: 0.205
data_MOF--net-zzz--node1-KUMJIN_clean_sbu_0--node2-BELTOD_clean_linker_0--edge1-AJUNOK_clean_linker_0
_symmetry_space_group_name_H-M    P1
_symmetry_Int_Tables_number       1
_symmetry_cell_setting            triclinic
loop_
_symmetry_equiv_pos_as_xyz
'x, y, z'
_cell_length_a     40.701059
_cell_length_b     40.483214
_cell_length_c     14.237108
_cell_angle_alpha  90.908112
_cell_angle_beta   89.91681
_cell_angle_gamma 89.75576
loop_
_atom_site_label
_atom_site_type_symbol
_atom_site_fract_x
_atom_site_fract_y
_atom_site_fract_z
_atom_type_partial_charge
P0 P 0.72716 0.55356 0.35787 0.0
H1 H 0.74289 0.53046 0.54886 0.0
H2 H 0.79671 0.53021 0.62245 0.0
H3 H 0.82518 0.61365 0.45826 0.0
H4 H 0.771 0.61388 0.38348 0.0
H5 H 0.69255 0.5018 0.25853 0.0
H6 H 0.65318 0.4996 0.13561 0.0
H7 H 0.63565 0.60431 0.16578 0.0
H8 H 0.67824 0.60706 0.29057 0.0
H9 H 0.7814 0.51556 0.28662 0.0
H10 H 0.73314 0.60832 0.22753 0.0
O11 O 0.72989 0.51338 0.38256 0.0
H12 H 0.8215 0.52652 0.16682 0.0
H13 H 0.77435 0.61977 0.10657 0.0
C14 C 0.75241 0.57097 0.4554 0.0
C15 C 0.75973 0.54987 0.53074 0.0
C16 C 0.79106 0.54947 0.57294 0.0
C17 C 0.81593 0.57122 0.54444 0.0
C18 C 0.80694 0.59613 0.48125 0.0
C19 C 0.77548 0.59628 0.43834 0.0
C20 C 0.68846 0.55447 0.28914 0.0
C21 C 0.67997 0.52462 0.24309 0.0
C22 C 0.65697 0.52322 0.17059 0.0
C23 C 0.64018 0.55146 0.14057 0.0
C24 C 0.64793 0.5818 0.18656 0.0
C25 C 0.67202 0.58335 0.25939 0.0
C26 C 0.75386 0.56053 0.26304 0.0
C27 C 0.77888 0.53782 0.24601 0.0
C28 C 0.80178 0.54424 0.17794 0.0
C29 C 0.80046 0.57398 0.12808 0.0
C30 C 0.77522 0.59669 0.14395 0.0
C31 C 0.75178 0.58994 0.21201 0.0
P32 P 0.98966 0.73733 0.35392 0.0
H33 H 0.02468 0.75106 0.52799 0.0
H34 H 0.02967 0.80352 0.59584 0.0
H35 H 0.93109 0.82849 0.50574 0.0
H36 H 0.92918 0.77544 0.42236 0.0
H37 H 0.04235 0.69287 0.2839 0.0
H38 H 0.04388 0.65142 0.1603 0.0
H39 H 0.93845 0.64543 0.16499 0.0
H40 H 0.93642 0.6883 0.29089 0.0
H41 H 1.00251 0.80584 0.33803 0.0
H42 H 0.941 0.73437 0.19433 0.0
O43 O 0.02997 0.74507 0.35375 0.0
H44 H 0.98856 0.84628 0.22339 0.0
H45 H 0.93048 0.77414 0.0716 0.0
C46 C 0.97738 0.75861 0.46506 0.0
C47 C 1.00322 0.7668 0.52581 0.0
C48 C 1.0059 0.79846 0.56687 0.0
C49 C 0.98093 0.82296 0.55926 0.0
C50 C 0.95192 0.8121 0.51267 0.0
C51 C 0.95015 0.78058 0.46688 0.0
C52 C 0.98904 0.69566 0.2965 0.0
C53 C 0.01909 0.68293 0.26078 0.0
C54 C 0.02022 0.65894 0.1885 0.0
C55 C 0.99138 0.64589 0.1498 0.0
C56 C 0.96123 0.65554 0.19179 0.0
C57 C 0.96007 0.68001 0.26462 0.0
C58 C 0.97441 0.76644 0.27212 0.0
C59 C 0.98566 0.79885 0.28235 0.0
C60 C 0.97687 0.82231 0.21804 0.0
C61 C 0.95902 0.81292 0.13791 0.0
C62 C 0.94433 0.7817 0.13311 0.0
C63 C 0.9516 0.75853 0.20151 0.0
P64 P 0.80346 1.00297 0.3687 0.0
H65 H 0.78153 0.03117 0.55122 0.0
H66 H 0.7263 0.02852 0.61659 0.0
H67 H 0.70914 0.93765 0.46436 0.0
H68 H 0.76503 0.93973 0.40003 0.0
H69 H 0.85516 0.04852 0.30906 0.0
H70 H 0.8946 0.04621 0.18205 0.0
H71 H 0.87856 0.94178 0.14791 0.0
H72 H 0.84038 0.94325 0.28204 0.0
H73 H 0.74926 0.04278 0.30407 0.0
H74 H 0.79033 0.94625 0.24176 0.0
O75 O 0.80389 0.04355 0.39222 0.0
H76 H 0.70405 0.03039 0.19881 0.0
H77 H 0.74645 0.93479 0.1328 0.0
C78 C 0.77777 0.9867 0.46516 0.0
C79 C 0.76684 1.00967 0.53422 0.0
C80 C 0.73474 1.00838 0.5716 0.0
C81 C 0.71264 0.98342 0.54376 0.0
C82 C 0.72519 0.95753 0.4867 0.0
C83 C 0.75755 0.95877 0.44974 0.0
C84 C 0.84265 0.9963 0.30479 0.0
C85 C 0.86013 0.02462 0.27716 0.0
C86 C 0.88276 0.02354 0.20288 0.0
C87 C 0.8887 0.99417 0.1523 0.0
C88 C 0.87342 0.96515 0.18311 0.0
C89 C 0.85109 0.96614 0.2594 0.0
C90 C 0.77457 0.99647 0.27662 0.0
C91 C 0.74935 0.01947 0.26575 0.0
C92 C 0.72313 1.01194 0.20768 0.0
C93 C 0.72177 0.98121 0.16014 0.0
C94 C 0.74707 0.95836 0.16985 0.0
C95 C 0.77303 0.96573 0.22922 0.0
P96 P 0.5417 0.81251 0.35922 0.0
H97 H 0.51626 0.79824 0.54757 0.0
H98 H 0.51844 0.74546 0.62704 0.0
H99 H 0.60447 0.71792 0.46759 0.0
H100 H 0.60297 0.77132 0.38955 0.0
H101 H 0.49708 0.86621 0.30885 0.0
H102 H 0.49997 0.90491 0.18147 0.0
H103 H 0.60414 0.88812 0.15704 0.0
H104 H 0.60172 0.84987 0.28922 0.0
H105 H 0.5018 0.76124 0.27295 0.0
H106 H 0.59991 0.79993 0.23922 0.0
O107 O 0.50119 0.81193 0.37861 0.0
H108 H 0.51481 0.71804 0.15834 0.0
H109 H 0.61213 0.75772 0.12226 0.0
C110 C 0.55834 0.78876 0.45776 0.0
C111 C 0.53671 0.78183 0.53216 0.0
C112 C 0.53775 0.75124 0.57757 0.0
C113 C 0.56096 0.72688 0.55155 0.0
C114 C 0.58593 0.73584 0.48853 0.0
C115 C 0.58493 0.76668 0.44335 0.0
C116 C 0.54892 0.85307 0.3072 0.0
C117 C 0.521 0.87113 0.27924 0.0
C118 C 0.52248 0.89333 0.20508 0.0
C119 C 0.55201 0.89859 0.15688 0.0
C120 C 0.5808 0.88383 0.19127 0.0
C121 C 0.57926 0.86145 0.26615 0.0
C122 C 0.54921 0.78505 0.26205 0.0
C123 C 0.52553 0.76154 0.23852 0.0
C124 C 0.533 0.73687 0.17342 0.0
C125 C 0.56436 0.73533 0.13186 0.0
C126 C 0.58776 0.75915 0.15277 0.0
C127 C 0.58029 0.78379 0.21835 0.0
P128 P 0.31188 0.43037 0.03901 0.0
H129 H 0.2806 0.40282 0.86839 0.0
H130 H 0.22986 0.41717 0.78676 0.0
H131 H 0.22703 0.51065 0.93446 0.0
H132 H 0.2771 0.49547 0.02093 0.0
H133 H 0.37021 0.39897 0.11688 0.0
H134 H 0.41173 0.41845 0.22794 0.0
H135 H 0.37853 0.5185 0.19067 0.0
H136 H 0.33661 0.49895 0.0786 0.0
H137 H 0.25097 0.39484 0.06945 0.0
H138 H 0.3137 0.45955 0.23329 0.0
O139 O 0.32058 0.39191 1.00267 0.0
H140 H 0.20483 0.41029 0.17093 0.0
H141 H 0.26777 0.47615 0.32878 0.0
C142 C 0.28384 0.4482 0.95073 0.0
C143 C 0.27006 0.42703 0.88152 0.0
C144 C 0.24063 0.43515 0.83461 0.0
C145 C 0.2241 0.46509 0.85368 0.0
C146 C 0.23907 0.48742 0.91752 0.0
C147 C 0.26819 0.47894 0.96629 0.0
C148 C 0.35023 0.44742 0.0868 0.0
C149 C 0.37268 0.42535 0.12837 0.0
C150 C 0.39655 0.43647 0.19274 0.0
C151 C 0.39858 0.47006 0.21825 0.0
C152 C 0.37773 0.49249 0.17202 0.0
C153 C 0.35387 0.48136 0.10703 0.0
C154 C 0.28543 0.42737 0.13965 0.0
C155 C 0.25532 0.41114 0.12917 0.0
C156 C 0.22901 0.41987 0.18738 0.0
C157 C 0.23271 0.44542 0.25444 0.0
C158 C 0.2642 0.45684 0.27619 0.0
C159 C 0.29053 0.44777 0.21913 0.0
P160 P 0.10401 0.31218 0.03232 0.0
H161 H 0.12667 0.27779 0.85716 0.0
H162 H 0.11002 0.22568 0.78274 0.0
H163 H 0.02499 0.225 0.965 0.0
H164 H 0.04067 0.27706 0.03207 0.0
H165 H 0.13581 0.36936 0.11617 0.0
H166 H 0.11842 0.40975 0.23457 0.0
H167 H 0.01801 0.37854 0.2001 0.0
H168 H 0.03582 0.3369 0.08219 0.0
H169 H 0.13603 0.24805 0.05046 0.0
H170 H 0.08494 0.31673 0.23582 0.0
O171 O 0.14084 0.32155 0.98877 0.0
H172 H 0.11909 0.20271 0.15081 0.0
H173 H 0.06782 0.27211 0.33209 0.0
C174 C 0.08438 0.28279 0.94898 0.0
C175 C 0.10337 0.26724 0.87739 0.0
C176 C 0.09413 0.23648 0.83602 0.0
C177 C 0.06562 0.21951 0.86528 0.0
C178 C 0.04632 0.23622 0.93482 0.0
C179 C 0.05523 0.26705 0.97456 0.0
C180 C 0.0872 0.35031 0.08639 0.0
C181 C 0.10977 0.37188 0.13035 0.0
C182 C 0.09985 0.39484 0.1999 0.0
C183 C 0.06681 0.39735 0.22824 0.0
C184 C 0.04366 0.37744 0.18007 0.0
C185 C 0.05379 0.35374 0.11143 0.0
C186 C 0.10999 0.28562 0.13111 0.0
C187 C 0.12248 0.25374 0.11422 0.0
C188 C 0.11276 0.22783 0.17131 0.0
C189 C 0.09128 0.23404 0.24676 0.0
C190 C 0.08404 0.26668 0.27334 0.0
C191 C 0.09353 0.29238 0.21623 0.0
P192 P 0.23618 0.11496 0.02903 0.0
H193 H 0.26887 0.1374 0.85689 0.0
H194 H 0.32 0.12012 0.77888 0.0
H195 H 0.32202 0.03203 0.94411 0.0
H196 H 0.2717 0.04993 0.02504 0.0
H197 H 0.16975 0.13856 0.07519 0.0
H198 H 0.13172 0.12196 0.19675 0.0
H199 H 0.18966 0.03358 0.23886 0.0
H200 H 0.22537 0.04901 0.11148 0.0
H201 H 0.30345 0.14148 0.05224 0.0
H202 H 0.22602 0.11243 0.2389 0.0
O203 O 0.22392 0.15064 0.98323 0.0
H204 H 0.34368 0.1194 0.16149 0.0
H205 H 0.26405 0.08142 0.32997 0.0
C206 C 0.26521 0.09477 0.94632 0.0
C207 C 0.27953 0.1138 0.87487 0.0
C208 C 0.30933 0.10422 0.83109 0.0
C209 C 0.32567 0.07497 0.85627 0.0
C210 C 0.31033 0.05485 0.92332 0.0
C211 C 0.28087 0.06478 0.96851 0.0
C212 C 0.20032 0.0947 0.08035 0.0
C213 C 0.17329 0.11465 0.10669 0.0
C214 C 0.15208 0.10563 0.17995 0.0
C215 C 0.15694 0.07609 0.23001 0.0
C216 C 0.18357 0.05574 0.20135 0.0
C217 C 0.20431 0.06449 0.1265 0.0
C218 C 0.26149 0.12397 0.13004 0.0
C219 C 0.29491 0.13004 0.11594 0.0
C220 C 0.31786 0.11609 0.1765 0.0
C221 C 0.30716 0.09443 0.24678 0.0
C222 C 0.27385 0.0958 0.27316 0.0
C223 C 0.25154 0.1128 0.21827 0.0
P224 P 0.42405 0.23765 0.03944 0.0
H225 H 0.40058 0.26727 0.86598 0.0
H226 H 0.41802 0.31623 0.78252 0.0
H227 H 0.5083 0.31753 0.9402 0.0
H228 H 0.4902 0.26871 0.02679 0.0
H229 H 0.3899 0.18914 0.13981 0.0
H230 H 0.40584 0.15626 0.26603 0.0
H231 H 0.50805 0.16488 0.1829 0.0
H232 H 0.49117 0.20652 0.06913 0.0
H233 H 0.39089 0.30126 0.07158 0.0
H234 H 0.44749 0.23275 0.23771 0.0
O235 O 0.38646 0.22922 0.99923 0.0
H236 H 0.40267 0.34432 0.18875 0.0
H237 H 0.46269 0.27397 0.33918 0.0
C238 C 0.44421 0.26347 0.95246 0.0
C239 C 0.42474 0.27707 0.88086 0.0
C240 C 0.43455 0.30551 0.83337 0.0
C241 C 0.46447 0.32102 0.85484 0.0
C242 C 0.48521 0.30604 0.92129 0.0
C243 C 0.47504 0.27779 0.9703 0.0
C244 C 0.43906 0.20012 0.09274 0.0
C245 C 0.41581 0.18336 0.14625 0.0
C246 C 0.42532 0.16316 0.21937 0.0
C247 C 0.45861 0.15524 0.23557 0.0
C248 C 0.48212 0.17007 0.17562 0.0
C249 C 0.47257 0.19328 0.10756 0.0
C250 C 0.41979 0.26402 0.14105 0.0
C251 C 0.40505 0.29507 0.13326 0.0
C252 C 0.41201 0.31963 0.20018 0.0
C253 C 0.43566 0.31364 0.2705 0.0
C254 C 0.44489 0.28089 0.28705 0.0
C255 C 0.43672 0.25642 0.22382 0.0
Eu256 Eu 0.05015 1.0097 0.74424 0.0
C257 C 0.9289 0.99755 0.52523 0.0
C258 C 0.94967 0.96542 0.39158 0.0
C259 C 0.89303 0.95962 0.44125 0.0
C260 C 0.9549 0.98879 0.46481 0.0
C261 C 0.89742 0.98412 0.51018 0.0
C262 C 0.91882 0.95068 0.3811 0.0
C263 C 0.87629 0.02012 0.63282 0.0
N264 N 0.93406 0.01893 0.59822 0.0
C265 C 0.90805 0.03158 0.64867 0.0
C266 C 0.87106 0.99567 0.5648 0.0
Eu267 Eu 0.98734 0.04064 0.60488 0.0
N268 N 0.9855 1.00106 0.48108 0.0
C269 C 1.0115 0.99099 0.4265 0.0
C270 C 0.97615 0.95563 0.33495 0.0
C271 C 1.0072 0.96838 0.35285 0.0
H272 H 0.91152 0.05113 0.70032 0.0
H273 H 0.02802 0.96045 0.31066 0.0
H274 H 0.91481 0.9318 0.32764 0.0
H275 H 0.85589 0.03013 0.67315 0.0
H276 H 0.03597 0.99901 0.4402 0.0
H277 H 1.00544 0.09482 0.01708 0.0
H278 H 0.97301 0.93764 0.27856 0.0
H279 H 0.12717 0.99941 0.65403 0.0
H280 H 1.00053 0.06609 0.86504 0.0
H281 H 0.18111 0.99663 0.73011 0.0
H282 H 0.86954 0.94745 0.4339 0.0
H283 H 0.05753 0.09103 0.10572 0.0
H284 H 0.11038 0.06036 0.11929 0.0
H285 H 0.84645 0.98636 0.55364 0.0
H286 H 0.15809 0.03293 0.04183 0.0
N287 N 0.05117 0.05241 0.85748 0.0
C288 C 0.02415 0.06679 0.89868 0.0
C289 C 0.05619 0.08113 0.03467 0.0
C290 C 0.08327 0.06537 0.99273 0.0
C291 C 0.02674 0.08303 0.98546 0.0
C292 C 0.0809 0.05404 0.89943 0.0
H293 H 0.18698 1.01543 0.89514 0.0
N294 N 0.10452 0.02687 0.76631 0.0
C295 C 0.16094 1.00925 0.76517 0.0
C296 C 0.10815 0.04 0.85394 0.0
C297 C 0.13057 1.01219 0.72058 0.0
C298 C 0.16413 0.01984 0.85831 0.0
C299 C 0.13744 0.03496 0.90395 0.0
O300 O 0.08286 0.96772 0.77056 0.0
O301 O 1.00469 0.9911 0.6667 0.0
O302 O 0.96368 0.02909 0.7499 0.0
O303 O 1.00405 0.9997 0.82756 0.0
O304 O 0.04892 0.96894 0.63383 0.0
O305 O 0.05321 0.98871 0.88362 0.0
O306 O 0.95243 0.08157 0.60015 0.0
O307 O 0.02866 0.05729 0.69813 0.0
O308 O 0.07685 0.02749 0.61392 0.0
O309 O 0.0348 0.0492 0.52248 0.0
O310 O 0.99946 0.09346 0.64789 0.0
O311 O 0.9723 0.05984 0.47031 0.0
C312 C 0.01751 0.96573 0.62482 0.0
C313 C 0.07743 0.93666 0.90956 0.0
C314 C 0.05089 0.88865 0.97384 0.0
C315 C 0.04884 0.91893 0.92796 0.0
C316 C 0.0815 0.87778 1.00798 0.0
C317 C 0.10794 0.92502 0.94048 0.0
C318 C 0.10988 0.89581 0.99056 0.0
C319 C 0.97383 1.01123 0.82227 0.0
C320 C 0.07624 0.96775 0.86007 0.0
C321 C 0.13789 0.04165 1.00045 0.0
C322 C 0.11103 0.05714 0.04433 0.0
C323 C 0.02521 0.08893 0.69762 0.0
C324 C 0.95506 0.11537 0.46708 0.0
C325 C 0.98502 0.12863 0.43727 0.0
C326 C 0.98527 0.15871 0.39026 0.0
C327 C 0.95574 0.17583 0.37504 0.0
C328 C 0.92571 0.13276 0.45255 0.0
C329 C 0.9261 0.16297 0.40686 0.0
C330 C 0.0662 0.04253 0.53805 0.0
C331 C 0.95341 0.08265 0.5084 0.0
H332 H 0.0254 0.92787 0.90228 0.0
H333 H 0.08354 0.85535 0.04804 0.0
H334 H 0.13018 0.93878 0.92681 0.0
H335 H 0.1334 0.8871 1.01575 0.0
H336 H 1.00783 0.11524 0.44794 0.0
H337 H 0.9557 0.19909 0.33839 0.0
H338 H 0.90245 0.12267 0.47526 0.0
H339 H 0.90336 0.1762 0.39503 0.0
Eu340 Eu 0.53206 0.0561 0.7535 0.0
C341 C 0.55061 0.93477 0.53289 0.0
C342 C 0.5819 0.95692 0.40305 0.0
C343 C 0.59134 0.90065 0.45244 0.0
C344 C 0.55847 0.96121 0.47551 0.0
C345 C 0.56569 0.90373 0.51747 0.0
C346 C 0.59914 0.92702 0.39436 0.0
C347 C 0.52582 0.87971 0.62125 0.0
N348 N 0.52621 0.93831 0.59727 0.0
C349 C 0.51214 0.91099 0.63565 0.0
C350 C 0.55343 0.87622 0.56412 0.0
Eu351 Eu 0.5014 0.99082 0.60527 0.0
N352 N 0.54195 0.99031 0.48622 0.0
C353 C 0.54651 1.01516 0.42352 0.0
C354 C 0.58684 0.98246 0.33975 0.0
C355 C 0.56865 1.01148 0.34919 0.0
H356 H 0.48978 0.91328 0.67614 0.0
H357 H 0.57199 0.03129 0.29991 0.0
H358 H 0.61786 0.92368 0.34086 0.0
H359 H 0.51484 0.85832 0.65324 0.0
H360 H 0.53305 0.03783 0.42798 0.0
H361 H 0.46426 1.01012 0.0561 0.0
H362 H 0.60421 0.97982 0.28246 0.0
H363 H 0.53773 0.13366 0.66463 0.0
H364 H 0.49009 1.00333 0.90283 0.0
H365 H 0.51663 0.18887 0.70614 0.0
H366 H 0.60425 0.87738 0.44349 0.0
H367 H 0.4485 0.06615 0.11312 0.0
H368 H 0.43185 0.12234 0.06039 0.0
H369 H 0.56412 0.85197 0.55285 0.0
H370 H 0.43872 0.16761 0.94658 0.0
N371 N 0.49477 0.05502 0.87866 0.0
C372 C 0.48573 0.0279 0.92838 0.0
C373 C 0.46083 0.06303 0.04619 0.0
C374 C 0.46582 0.09 0.9881 0.0
C375 C 0.46999 0.03158 1.01484 0.0
C376 C 0.48502 0.08578 0.90657 0.0
H377 H 0.47664 0.19572 0.83614 0.0
N378 N 0.50956 0.10905 0.76953 0.0
C379 C 0.50844 0.1676 0.74476 0.0
C380 C 0.49152 0.11299 0.84916 0.0
C381 C 0.51983 0.13607 0.72058 0.0
C382 C 0.48627 0.17138 0.81867 0.0
C383 C 0.47751 0.14385 0.87118 0.0
O384 O 0.57147 0.09243 0.76396 0.0
O385 O 0.5474 0.01576 0.65389 0.0
O386 O 0.51824 0.96651 0.74296 0.0
O387 O 0.54394 1.00851 0.82883 0.0
O388 O 0.58367 0.04737 0.69673 0.0
O389 O 0.55154 0.06981 0.88974 0.0
O390 O 0.46236 0.9551 0.58321 0.0
O391 O 0.48355 0.03549 0.69198 0.0
O392 O 0.51872 0.08034 0.61527 0.0
O393 O 0.48868 0.03956 0.53657 0.0
O394 O 0.45502 0.99373 0.693 0.0
O395 O 0.4812 0.98237 0.46468 0.0
C396 C 0.57838 0.02121 0.64743 0.0
C397 C 0.60574 0.0871 0.89477 0.0
C398 C 0.6476 0.05236 0.95946 0.0
C399 C 0.61805 0.05568 0.91281 0.0
C400 C 0.66579 0.08039 0.98616 0.0
C401 C 0.62363 0.1153 0.92083 0.0
C402 C 0.65385 0.11187 0.9661 0.0
C403 C 0.53575 0.97716 0.81634 0.0
C404 C 0.57314 0.0902 0.85533 0.0
C405 C 0.45417 0.14608 0.94239 0.0
C406 C 0.44962 0.11999 1.00422 0.0
C407 C 0.45593 0.02403 0.72259 0.0
C408 C 0.42855 0.95711 0.45012 0.0
C409 C 0.41236 0.98469 0.41412 0.0
C410 C 0.38101 0.98114 0.37485 0.0
C411 C 0.36603 0.95006 0.37081 0.0
C412 C 0.41346 0.92603 0.44562 0.0
C413 C 0.38234 0.92254 0.40584 0.0
C414 C 0.49941 0.07033 0.54611 0.0
C415 C 0.46104 0.95954 0.49302 0.0
H416 H 0.60421 0.03382 0.89313 0.0
H417 H 0.68877 0.07785 0.02382 0.0
H418 H 0.61399 0.13977 0.90756 0.0
H419 H 0.66765 0.13354 0.98718 0.0
H420 H 0.42386 1.00874 0.41763 0.0
H421 H 0.34175 0.94718 0.34076 0.0
H422 H 0.42578 0.90445 0.47305 0.0
H423 H 0.37081 0.89851 0.40262 0.0
Eu424 Eu 0.54347 0.50806 0.62506 0.0
C425 C 0.40114 0.52987 0.75899 0.0
C426 C 0.37945 0.57132 0.654 0.0
C427 C 0.34311 0.54444 0.76434 0.0
C428 C 0.40603 0.553 0.68943 0.0
C429 C 0.3694 0.52501 0.79597 0.0
C430 C 0.34815 0.56763 0.69376 0.0
C431 C 0.39225 0.48376 0.89745 0.0
N432 N 0.42749 0.51281 0.79196 0.0
C433 C 0.4234 0.49117 0.86414 0.0
C434 C 0.36507 0.50111 0.86465 0.0
Eu435 Eu 0.47828 0.53785 0.75401 0.0
N436 N 0.43662 0.55644 0.65348 0.0
C437 C 0.44185 0.57477 0.57558 0.0
C438 C 0.38504 0.59219 0.57819 0.0
C439 C 0.41618 0.59312 0.53696 0.0
H440 H 0.44435 0.48074 0.89999 0.0
H441 H 0.42046 0.60816 0.47605 0.0
H442 H 0.32751 0.58201 0.66889 0.0
H443 H 0.38976 0.46542 0.9508 0.0
H444 H 0.46579 0.5752 0.54347 0.0
H445 H 0.59617 0.43259 0.90332 0.0
H446 H 0.36525 0.60672 0.54891 0.0
H447 H 0.57884 0.55978 0.4719 0.0
H448 H 0.55169 0.4635 0.8294 0.0
H449 H 0.63412 0.56667 0.40819 0.0
H450 H 0.31871 0.54152 0.79349 0.0
H451 H 0.65285 0.43686 0.84279 0.0
H452 H 0.69158 0.4598 0.72522 0.0
H453 H 0.34099 0.49623 0.89363 0.0
H454 H 0.70148 0.49535 0.59089 0.0
N455 N 0.58267 0.48693 0.72986 0.0
C456 C 0.57626 0.46652 0.80315 0.0
C457 C 0.63344 0.45139 0.81149 0.0
C458 C 0.63997 0.47243 0.73689 0.0
C459 C 0.60151 0.44881 0.8456 0.0
C460 C 0.61391 0.49094 0.69832 0.0
H461 H 0.68068 0.53635 0.4794 0.0
N462 N 0.5946 0.52943 0.58483 0.0
C463 C 0.63059 0.55156 0.46904 0.0
C464 C 0.61989 0.51228 0.6238 0.0
C465 C 0.59942 0.54832 0.50708 0.0
C466 C 0.65666 0.53433 0.50844 0.0
C467 C 0.65163 0.51415 0.58531 0.0
O468 O 0.54857 0.5044 0.47057 0.0
O469 O 0.48975 0.51771 0.60341 0.0
O470 O 0.47735 0.48055 0.76339 0.0
O471 O 0.52356 0.46088 0.68411 0.0
O472 O 0.49 0.51743 0.60309 0.0
O473 O 0.56016 0.46268 0.5613 0.0
O474 O 0.45901 0.5462 0.89387 0.0
O475 O 0.53239 0.52849 0.76334 0.0
O476 O 0.55253 0.56395 0.629 0.0
O477 O 0.50183 0.58279 0.68288 0.0
O478 O 0.51084 0.54221 0.88494 0.0
O479 O 0.46049 0.58683 0.79513 0.0
C480 C 0.47201 0.49391 0.56729 0.0
C481 C 0.56251 0.45169 0.39939 0.0
C482 C 0.54367 0.40107 0.32757 0.0
C483 C 0.54099 0.42515 0.39799 0.0
C484 C 0.56867 0.40282 0.25997 0.0
C485 C 0.5877 0.4536 0.33257 0.0
C486 C 0.59104 0.42886 0.26368 0.0
C487 C 0.49666 0.45585 0.7337 0.0
C488 C 0.56162 0.47499 0.47739 0.0
C489 C 0.67722 0.49494 0.62184 0.0
C490 C 0.67151 0.47445 0.69796 0.0
C491 C 0.53886 0.53653 0.84764 0.0
C492 C 0.46266 0.59862 0.95772 0.0
C493 C 0.49284 0.61473 0.95549 0.0
C494 C 0.50307 0.63308 0.03333 0.0
C495 C 0.48298 0.63528 0.11387 0.0
C496 C 0.44281 0.60038 0.03817 0.0
C497 C 0.45298 0.61881 0.1162 0.0
C498 C 0.53124 0.58819 0.64576 0.0
C499 C 0.45296 0.57736 0.88017 0.0
H500 H 0.52145 0.42384 0.44988 0.0
H501 H 0.57039 0.38455 0.20374 0.0
H502 H 0.60506 0.47382 0.33485 0.0
H503 H 0.61046 0.4303 0.21193 0.0
H504 H 0.5085 0.61273 0.89387 0.0
H505 H 0.49029 0.65011 0.17428 0.0
H506 H 0.4197 0.5872 0.04081 0.0
H507 H 0.43763 0.62037 0.17829 0.0
Eu508 Eu 0.03748 0.54842 0.62686 0.0
C509 C 1.00819 0.40875 0.75347 0.0
C510 C 0.97016 0.3872 0.63665 0.0
C511 C 0.99131 0.3511 0.75709 0.0
C512 C 0.98871 0.4136 0.67467 0.0
C513 C 1.00988 0.37723 0.79462 0.0
C514 C 0.97127 0.35615 0.67894 0.0
C515 C 0.04357 0.40072 0.91711 0.0
N516 N 0.02347 0.43514 0.79406 0.0
C517 C 0.03918 0.43162 0.87808 0.0
C518 C 0.02887 0.37323 0.87538 0.0
Eu519 Eu 1.00398 0.48675 0.7425 0.0
N520 N 0.98652 0.44433 0.63812 0.0
C521 C 0.96791 0.44965 0.56006 0.0
C522 C 0.95032 0.39291 0.55843 0.0
C523 C 0.94978 0.42412 0.51875 0.0
H524 H 0.04696 0.45317 0.91772 0.0
H525 H 0.93479 0.42874 0.4576 0.0
H526 H 0.95666 0.33585 0.65172 0.0
H527 H 0.05707 0.39882 0.98165 0.0
H528 H 0.96637 0.47382 0.53044 0.0
H529 H 0.11158 0.60135 0.91439 0.0
H530 H 0.93549 0.37336 0.52789 0.0
H531 H 0.98467 0.58712 0.47854 0.0
H532 H 0.08046 0.55715 0.83632 0.0
H533 H 0.97525 0.64315 0.42496 0.0
H534 H 0.99179 0.32701 0.7892 0.0
H535 H 0.10868 0.65838 0.85558 0.0
H536 H 0.08519 0.69833 0.74146 0.0
H537 H 0.03118 0.34934 0.90801 0.0
H538 H 0.0478 0.70959 0.61135 0.0
N539 N 0.06004 0.5885 0.73185 0.0
C540 C 0.0788 0.58177 0.80893 0.0
C541 C 0.09453 0.63907 0.82129 0.0
C542 C 0.07388 0.64615 0.74584 0.0
C543 C 0.09634 0.6069 0.85441 0.0
C544 C 0.05584 0.62021 0.70371 0.0
H545 H 1.0057 0.68975 0.49734 0.0
N546 N 0.01644 0.60152 0.59185 0.0
C547 C 0.99145 0.63909 0.48371 0.0
C548 C 0.03352 0.62687 0.63211 0.0
C549 C 0.99613 0.60728 0.51683 0.0
C550 C 1.00874 0.66519 0.52431 0.0
C551 C 0.0303 0.65931 0.59845 0.0
O552 O 0.03755 0.55291 0.47329 0.0
O553 O 0.01721 0.49736 0.59491 0.0
O554 O 0.06049 0.47678 0.75776 0.0
O555 O 0.08251 0.52473 0.69689 0.0
O556 O 0.0659 0.50545 0.56268 0.0
O557 O 0.07599 0.57574 0.5591 0.0
O558 O 0.99464 0.4803 0.89184 0.0
O559 O 0.01688 0.53926 0.77504 0.0
O560 O 0.98021 0.55455 0.6155 0.0
O561 O 0.95795 0.50675 0.67377 0.0
O562 O 0.01685 0.53933 0.77513 0.0
O563 O 0.95486 0.475 0.79186 0.0
C564 C 0.04248 0.48448 0.5562 0.0
C565 C 0.08708 0.56998 0.39914 0.0
C566 C 0.13637 0.54714 0.32843 0.0
C567 C 0.11099 0.54507 0.39446 0.0
C568 C 0.13851 0.57518 0.27134 0.0
C569 C 0.08818 0.59657 0.33754 0.0
C570 C 0.11404 0.59929 0.27431 0.0
C571 C 0.08625 0.49632 0.7414 0.0
C572 C 0.06353 0.57183 0.47543 0.0
C573 C 0.04941 0.68475 0.63756 0.0
C574 C 0.07093 0.67827 0.71138 0.0
C575 C 0.99459 0.55861 0.81279 0.0
C576 C 0.9412 0.47468 0.95303 0.0
C577 C 0.91874 0.50056 0.95229 0.0
C578 C 0.89787 0.50526 0.02851 0.0
C579 C 0.89821 0.48314 0.10369 0.0
C580 C 0.94204 0.45261 0.02793 0.0
C581 C 0.92027 0.45669 0.10294 0.0
C582 C 0.95441 0.53548 0.63274 0.0
C583 C 0.96468 0.47074 0.87779 0.0
H584 H 0.10975 0.52422 0.44107 0.0
H585 H 0.15869 0.57803 0.22249 0.0
H586 H 0.06975 0.61596 0.34119 0.0
H587 H 0.11533 0.62027 0.22831 0.0
H588 H 0.91863 0.51794 0.89498 0.0
H589 H 0.88183 0.48669 0.16311 0.0
H590 H 0.95967 0.43247 0.02855 0.0
H591 H 0.92091 0.43977 0.16102 0.0
C592 C 0.11826 0.09132 0.36557 0.0
C593 C 0.1339 0.06662 0.30949 0.0
C594 C 0.09653 0.08344 0.43917 0.0
C595 C 0.09028 0.05051 0.46289 0.0
H596 H 0.12289 0.1172 0.35347 0.0
H597 H 0.08479 0.10334 0.47864 0.0
S598 S 0.12167 0.97602 0.33753 0.0
N599 N 0.13774 1.00711 0.27977 0.0
N600 N 0.10039 0.99292 0.42464 0.0
C601 C 0.10564 0.02552 0.40917 0.0
C602 C 0.12651 0.03337 0.33119 0.0
C603 C 0.50024 0.13623 0.35805 0.0
C604 C 0.46857 0.13346 0.31708 0.0
C605 C 0.51 0.11677 0.4345 0.0
C606 C 0.48836 0.09416 0.47486 0.0
H607 H 0.5179 0.1537 0.33197 0.0
H608 H 0.53487 0.11895 0.46082 0.0
S609 S 0.40182 0.08002 0.4101 0.0
N610 N 0.41552 0.10533 0.32983 0.0
N611 N 0.43302 0.07332 0.48041 0.0
C612 C 0.45636 0.0924 0.44004 0.0
C613 C 0.4467 0.11079 0.35966 0.0
C614 C 0.45253 0.47816 0.3074 0.0
C615 C 0.41798 0.48063 0.30351 0.0
C616 C 0.47007 0.48592 0.39092 0.0
C617 C 0.45396 0.49564 0.47507 0.0
H618 H 0.46606 0.46958 0.24608 0.0
H619 H 0.49634 0.48241 0.39065 0.0
S620 S 0.36329 0.50053 0.5045 0.0
N621 N 0.3683 0.49176 0.39189 0.0
N622 N 0.40065 0.50245 0.54922 0.0
C623 C 0.41934 0.4967 0.47195 0.0
C624 C 0.40162 0.49031 0.38636 0.0
C625 C 0.07551 0.41514 0.39793 0.0
C626 C 0.05764 0.41825 0.31353 0.0
C627 C 0.06872 0.43512 0.47792 0.0
C628 C 0.04359 0.45914 0.47814 0.0
H629 H 0.09531 0.39726 0.40196 0.0
H630 H 0.08401 0.4324 0.53958 0.0
S631 S 0.9906 0.47869 0.27506 0.0
N632 N 0.01398 0.44808 0.23544 0.0
N633 N 1.00197 0.48608 0.38451 0.0
C634 C 0.02554 0.46262 0.3945 0.0
C635 C 0.03228 0.44206 0.31295 0.0
C636 C 0.89821 0.99262 0.97594 0.0
C637 C 0.91089 0.99476 0.06811 0.0
C638 C 0.91831 0.99821 0.89635 0.0
C639 C 0.95203 1.0054 0.90582 0.0
H640 H 0.87233 0.98768 0.96545 0.0
H641 H 0.9074 0.99666 0.82715 0.0
S642 S 0.99737 1.01191 0.13221 0.0
N643 N 0.95915 1.00424 0.16367 0.0
N644 N 0.99719 1.01223 1.01636 0.0
C645 C 0.96505 1.00609 0.99787 0.0
C646 C 0.94446 1.00149 0.07827 0.0
C647 C 0.56745 0.94687 0.05472 0.0
C648 C 0.55135 0.91655 0.06589 0.0
C649 C 0.56329 0.96546 0.9724 0.0
C650 C 0.54293 0.95455 0.89739 0.0
H651 H 0.58237 0.95685 0.11126 0.0
H652 H 0.5755 0.98909 0.96911 0.0
S653 S 0.49787 0.87481 0.89077 0.0
N654 N 0.51666 0.87498 0.9933 0.0
N655 N 0.5079 0.90997 0.84154 0.0
C656 C 0.52788 0.92349 0.90741 0.0
C657 C 0.53231 0.90457 0.99069 0.0
C658 C 0.61362 0.56912 0.98425 0.0
C659 C 0.615 0.54773 0.062 0.0
C660 C 0.59128 0.56368 0.90842 0.0
C661 C 0.56952 0.53648 0.90655 0.0
H662 H 0.62981 0.59025 0.982 0.0
H663 H 0.58997 0.58175 0.85322 0.0
S664 S 0.55983 0.47595 0.09693 0.0
N665 N 0.5901 0.49982 0.1336 0.0
N666 N 0.54877 0.49044 0.99434 0.0
C667 C 0.57027 0.51576 0.98474 0.0
C668 C 0.59275 0.52105 0.061 0.0
C669 C 1.0017 0.63559 0.97496 0.0
C670 C 0.99346 0.62329 0.06428 0.0
C671 C 1.00369 0.61465 0.89406 0.0
C672 C 1.00001 0.58004 0.89944 0.0
H673 H 1.00545 0.66187 0.96689 0.0
H674 H 1.0069 0.62594 0.82658 0.0
S675 S 0.97763 0.53566 0.11553 0.0
N676 N 0.98028 0.57445 0.1517 0.0
N677 N 0.98643 0.53533 1.00261 0.0
C678 C 0.99224 0.56774 0.98875 0.0
C679 C 0.98869 0.58911 0.07014 0.0
C680 C 0.06545 0.2045 0.37976 0.0
C681 C 0.0699 0.20789 0.28246 0.0
C682 C 0.03896 0.1865 0.41491 0.0
C683 C 0.01605 0.17201 0.35352 0.0
H684 H 0.08145 0.21739 0.42868 0.0
H685 H 0.03525 0.18558 0.4902 0.0
S686 S 0.01775 0.17176 0.09395 0.0
N687 N 0.05017 0.19362 0.12568 0.0
N688 N 1.0003 0.16001 0.19253 0.0
C689 C 0.02113 0.17371 0.25655 0.0
C690 C 0.04817 0.19162 0.22071 0.0
C691 C 0.32225 0.05297 0.36919 0.0
C692 C 0.32856 0.06721 0.28119 0.0
C693 C 0.33863 0.02445 0.39721 0.0
C694 C 0.3633 1.01017 0.34135 0.0
H695 H 0.30438 0.06356 0.4173 0.0
H696 H 0.33207 1.01368 0.46339 0.0
S697 S 0.38772 0.03453 0.10273 0.0
N698 N 0.35924 0.06157 0.13395 0.0
N699 N 0.39285 1.01042 0.19392 0.0
C700 C 0.37041 0.02382 0.25426 0.0
C701 C 0.35253 0.05188 0.22281 0.0
C702 C 0.46678 0.36419 0.23321 0.0
C703 C 0.45867 0.34011 0.29994 0.0
C704 C 0.49508 0.38291 0.24189 0.0
C705 C 0.51663 0.37805 0.31651 0.0
H706 H 0.45255 0.36753 0.16997 0.0
H707 H 0.50027 0.40128 0.18935 0.0
S708 S 0.50631 0.32138 0.51563 0.0
N709 N 0.47303 0.3161 0.45122 0.0
N710 N 0.52837 0.34938 0.46112 0.0
C711 C 0.50873 0.35538 0.38607 0.0
C712 C 0.47911 0.33705 0.3796 0.0
C713 C 0.1984 0.47832 0.36889 0.0
C714 C 0.20475 0.46736 0.27636 0.0
C715 C 0.1755 0.50371 0.38681 0.0
C716 C 0.15885 0.51897 0.31235 0.0
H717 H 0.21191 0.46793 0.42699 0.0
H718 H 0.17168 0.51221 0.45856 0.0
S719 S 0.16793 0.5005 0.05896 0.0
N720 N 0.19376 0.475 0.11015 0.0
N721 N 0.14935 0.52076 0.14468 0.0
C722 C 0.16446 0.50755 0.2205 0.0
C723 C 0.18784 0.48229 0.20216 0.0
C724 C 0.96595 0.86368 0.04976 0.0
C725 C 0.96936 0.8292 0.05223 0.0
C726 C 0.99183 0.88311 0.01783 0.0
C727 C 0.02121 0.86836 0.98552 0.0
H728 H 0.94575 0.87571 0.08654 0.0
H729 H 0.98999 0.90965 0.0274 0.0
S730 S 0.03763 0.77874 0.95329 0.0
N731 N 1.00083 0.78093 1.00168 0.0
N732 N 0.04902 0.81737 0.93822 0.0
C733 C 0.02239 0.83388 0.97316 0.0
C734 C 0.99611 0.81424 1.00557 0.0
C735 C 0.66401 0.9838 0.12047 0.0
C736 C 0.69608 0.97616 0.09052 0.0
C737 C 0.64551 1.00657 0.07036 0.0
C738 C 0.6583 0.01976 0.98752 0.0
H739 H 0.65641 0.97812 0.19138 0.0
H740 H 0.62351 0.01694 0.10236 0.0
S741 S 0.7328 0.99329 0.85901 0.0
N742 N 0.73407 0.97304 0.95885 0.0
N743 N 0.69837 1.01503 0.86203 0.0
C744 C 0.68614 1.00557 0.9462 0.0
C745 C 0.70505 0.98282 0.99777 0.0
C746 C 0.57568 0.67722 0.12589 0.0
C747 C 0.57238 0.70637 0.07463 0.0
C748 C 0.55547 0.65042 0.10481 0.0
C749 C 0.5335 0.65207 0.0292 0.0
H750 H 0.58809 0.67769 0.19323 0.0
H751 H 0.55395 0.63043 0.15437 0.0
S752 S 0.53008 0.71683 0.8484 0.0
N753 N 0.55624 0.73094 0.92789 0.0
N754 N 0.51852 0.68011 0.88494 0.0
C755 C 0.53683 0.67763 0.96429 0.0
C756 C 0.55723 0.70488 0.98684 0.0
C757 C 0.8276 0.56247 0.9831 0.0
C758 C 0.82809 0.58101 0.0672 0.0
C759 C 0.85183 0.53852 0.96683 0.0
C760 C 0.87736 0.53468 0.03195 0.0
H761 H 0.80534 0.56133 0.94148 0.0
H762 H 0.84878 0.52099 0.90921 0.0
S763 S 0.89511 0.58741 0.23972 0.0
N764 N 0.86098 0.60281 0.19522 0.0
N765 N 0.9058 0.55658 0.16879 0.0
C766 C 0.88151 0.55823 0.10375 0.0
C767 C 0.85762 0.58332 0.11716 0.0
C768 C 0.08016 0.16149 0.79094 0.0
C769 C 0.05644 0.18473 0.82629 0.0
C770 C 0.07138 0.12931 0.75525 0.0
C771 C 0.03847 0.11813 0.75579 0.0
H772 H 0.10586 0.16819 0.78962 0.0
H773 H 0.09031 0.11368 0.72438 0.0
S774 S 0.96647 0.16801 0.83522 0.0
N775 N 0.99775 0.19322 0.84917 0.0
N776 N 0.98256 0.13302 0.79639 0.0
C777 C 0.01505 0.14065 0.79296 0.0
C778 C 0.02355 0.17355 0.82435 0.0
C779 C 0.3877 0.08236 0.83122 0.0
C780 C 0.35836 0.06507 0.8126 0.0
C781 C 0.41844 0.07161 0.7932 0.0
C782 C 0.42246 0.04164 0.74232 0.0
H783 H 0.38691 0.10459 0.87456 0.0
H784 H 0.43853 0.08778 0.79994 0.0
S785 S 0.35079 0.99558 0.64307 0.0
N786 N 0.33365 0.02294 0.71501 0.0
N787 N 0.39083 1.0015 0.65054 0.0
C788 C 0.39224 0.02676 0.71423 0.0
C789 C 0.36076 0.03847 0.74893 0.0
C790 C 0.44958 0.38062 0.82556 0.0
C791 C 0.47226 0.35439 0.81572 0.0
C792 C 0.45724 0.41286 0.79683 0.0
C793 C 0.48803 0.42068 0.7575 0.0
H794 H 0.42588 0.37638 0.85787 0.0
H795 H 0.43861 0.4316 0.80543 0.0
S796 S 0.5539 0.3594 0.70124 0.0
N797 N 0.52518 0.33744 0.75303 0.0
N798 N 0.53973 0.39763 0.69923 0.0
C799 C 0.51011 0.39405 0.74187 0.0
C800 C 0.50228 0.36119 0.77131 0.0
C801 C 0.18181 0.4925 0.74551 0.0
C802 C 0.18932 0.47071 0.8189 0.0
C803 C 0.14877 0.49966 0.71971 0.0
C804 C 0.1214 0.48595 0.76698 0.0
H805 H 0.2016 0.50437 0.7082 0.0
H806 H 0.14473 0.51657 0.66264 0.0
S807 S 0.12846 0.4275 0.96528 0.0
N808 N 0.16691 0.43423 0.93501 0.0
N809 N 0.10596 0.44975 0.89358 0.0
C810 C 0.12913 0.4638 0.83962 0.0
C811 C 0.16262 0.45567 0.86348 0.0
C812 C 0.96664 0.88613 0.55972 0.0
C813 C 0.98645 0.8595 0.59146 0.0
C814 C 0.97434 0.91997 0.57928 0.0
C815 C 1.0039 0.92996 0.62319 0.0
H816 H 0.94493 0.88131 0.51821 0.0
H817 H 0.95679 0.93801 0.55899 0.0
S818 S 0.05971 0.87144 0.74473 0.0
N819 N 0.03145 0.84749 0.69819 0.0
N820 N 0.04987 0.90913 0.7129 0.0
C821 C 0.02242 0.90368 0.6612 0.0
C822 C 0.0129 0.8694 0.65018 0.0
C823 C 0.658 0.97082 0.62824 0.0
C824 C 0.676 0.9881 0.55976 0.0
C825 C 0.62443 0.97858 0.64844 0.0
C826 C 0.6072 1.00382 0.60087 0.0
H827 H 0.67033 0.9523 0.66962 0.0
H828 H 0.61262 0.96635 0.70653 0.0
S829 S 0.6438 0.05684 0.41764 0.0
N830 N 0.6737 0.03092 0.44355 0.0
N831 N 0.61258 0.047 0.48577 0.0
C832 C 0.62528 0.02085 0.53222 0.0
C833 C 0.65891 1.01256 0.51045 0.0
C834 C 0.57688 0.67163 0.62651 0.0
C835 C 0.55472 0.69121 0.5748 0.0
C836 C 0.56965 0.63821 0.64812 0.0
C837 C 0.53997 0.6231 0.61914 0.0
H838 H 0.59964 0.68232 0.65156 0.0
H839 H 0.5871 0.62433 0.68938 0.0
S840 S 0.47668 0.66227 0.46895 0.0
N841 N 0.5039 0.69172 0.48688 0.0
N842 N 0.49046 0.63011 0.52695 0.0
C843 C 0.51854 0.64231 0.56452 0.0
C844 C 0.52588 0.67592 0.5425 0.0
C845 C 0.8723 0.58475 0.61932 0.0
C846 C 0.85168 0.56356 0.56592 0.0
C847 C 0.90568 0.57627 0.63873 0.0
C848 C 0.91992 0.54628 0.6055 0.0
H849 H 0.86244 0.60773 0.64755 0.0
H850 H 0.92018 0.59294 0.68191 0.0
S851 S 0.87757 0.48453 0.45308 0.0
N852 N 0.84912 0.51278 0.47453 0.0
N853 N 0.91059 0.49716 0.51003 0.0
C854 C 0.8996 0.52571 0.5501 0.0
C855 C 0.86599 0.53425 0.53056 0.0
loop_
_geom_bond_atom_site_label_1
_geom_bond_atom_site_label_2
_geom_bond_distance
_geom_bond_site_symmetry_2
_ccdc_geom_bond_type
P0 O11 1.490 . S
P0 C14 1.812 . S
P0 C20 1.803 . S
P0 C26 1.819 . S
H1 C15 0.941 . S
H2 C16 0.939 . S
H3 C18 0.940 . S
H4 C19 0.940 . S
H5 C21 0.939 . S
H6 C22 0.942 . S
H7 C24 0.940 . S
H8 C25 0.939 . S
H9 C27 0.941 . S
H10 C31 0.939 . S
O11 P0 1.490 . S
H12 C28 0.939 . S
H13 C30 0.940 . S
C14 P0 1.812 . S
C14 C15 1.389 . S
C14 C19 1.391 . S
C15 H1 0.941 . S
C15 C14 1.389 . S
C15 C16 1.397 . S
C16 H2 0.939 . S
C16 C15 1.397 . S
C16 C17 1.378 . S
C17 C16 1.378 . S
C17 C18 1.378 . S
C18 H3 0.940 . S
C18 C17 1.378 . S
C18 C19 1.396 . S
C19 H4 0.940 . S
C19 C14 1.391 . S
C19 C18 1.396 . S
C20 P0 1.803 . S
C20 C21 1.378 . S
C20 C25 1.400 . S
C21 H5 0.939 . S
C21 C20 1.378 . S
C21 C22 1.361 . S
C22 H6 0.942 . S
C22 C21 1.361 . S
C22 C23 1.369 . S
C23 C22 1.369 . S
C23 C24 1.404 . S
C24 H7 0.940 . S
C24 C23 1.404 . S
C24 C25 1.389 . S
C25 H8 0.939 . S
C25 C20 1.400 . S
C25 C24 1.389 . S
C26 P0 1.819 . S
C26 C27 1.391 . S
C26 C31 1.391 . S
C27 H9 0.941 . S
C27 C26 1.391 . S
C27 C28 1.396 . S
C28 H12 0.939 . S
C28 C27 1.396 . S
C28 C29 1.397 . S
C29 C28 1.397 . S
C29 C30 1.385 . S
C30 H13 0.940 . S
C30 C29 1.385 . S
C30 C31 1.388 . S
C31 H10 0.939 . S
C31 C26 1.391 . S
C31 C30 1.388 . S
P32 O43 1.490 1_655 S
P32 C46 1.812 . S
P32 C52 1.803 . S
P32 C58 1.819 . S
H33 C47 0.941 1_455 S
H34 C48 0.939 . S
H35 C50 0.940 . S
H36 C51 0.940 . S
H37 C53 0.939 1_455 S
H38 C54 0.942 . S
H39 C56 0.940 . S
H40 C57 0.939 . S
H41 C59 0.941 1_455 S
H42 C63 0.939 . S
O43 P32 1.490 1_455 S
H44 C60 0.939 . S
H45 C62 0.940 . S
C46 P32 1.812 . S
C46 C47 1.389 . S
C46 C51 1.391 . S
C47 H33 0.941 1_655 S
C47 C46 1.389 . S
C47 C48 1.397 . S
C48 H34 0.939 . S
C48 C47 1.397 . S
C48 C49 1.378 . S
C49 C48 1.378 . S
C49 C50 1.378 . S
C50 H35 0.940 . S
C50 C49 1.378 . S
C50 C51 1.396 . S
C51 H36 0.940 . S
C51 C46 1.391 . S
C51 C50 1.396 . S
C52 P32 1.803 . S
C52 C53 1.378 . S
C52 C57 1.400 . S
C53 H37 0.939 1_655 S
C53 C52 1.378 . S
C53 C54 1.361 . S
C54 H38 0.942 . S
C54 C53 1.361 . S
C54 C55 1.369 . S
C55 C54 1.369 . S
C55 C56 1.404 . S
C56 H39 0.940 . S
C56 C55 1.404 . S
C56 C57 1.389 . S
C57 H40 0.939 . S
C57 C52 1.400 . S
C57 C56 1.389 . S
C58 P32 1.819 . S
C58 C59 1.391 . S
C58 C63 1.391 . S
C59 H41 0.941 1_655 S
C59 C58 1.391 . S
C59 C60 1.396 . S
C60 H44 0.939 . S
C60 C59 1.396 . S
C60 C61 1.397 . S
C61 C60 1.397 . S
C61 C62 1.385 . S
C62 H45 0.940 . S
C62 C61 1.385 . S
C62 C63 1.388 . S
C63 H42 0.939 . S
C63 C58 1.391 . S
C63 C62 1.388 . S
P64 O75 1.490 . S
P64 C78 1.812 1_545 S
P64 C84 1.803 1_545 S
P64 C90 1.819 1_545 S
H65 C79 0.941 . S
H66 C80 0.939 1_545 S
H67 C82 0.940 . S
H68 C83 0.940 . S
H69 C85 0.939 . S
H70 C86 0.942 1_545 S
H71 C88 0.940 . S
H72 C89 0.939 . S
H73 C91 0.941 1_545 S
H74 C95 0.939 . S
O75 P64 1.490 . S
H76 C92 0.939 . S
H77 C94 0.940 . S
C78 P64 1.812 1_565 S
C78 C79 1.389 1_565 S
C78 C83 1.391 . S
C79 H65 0.941 . S
C79 C78 1.389 1_545 S
C79 C80 1.397 1_545 S
C80 H66 0.939 1_565 S
C80 C79 1.397 1_565 S
C80 C81 1.378 . S
C81 C80 1.378 . S
C81 C82 1.378 . S
C82 H67 0.940 . S
C82 C81 1.378 . S
C82 C83 1.396 . S
C83 H68 0.940 . S
C83 C78 1.391 . S
C83 C82 1.396 . S
C84 P64 1.803 1_565 S
C84 C85 1.378 1_565 S
C84 C89 1.400 . S
C85 H69 0.939 . S
C85 C84 1.378 1_545 S
C85 C86 1.361 1_545 S
C86 H70 0.942 1_565 S
C86 C85 1.361 1_565 S
C86 C87 1.369 . S
C87 C86 1.369 . S
C87 C88 1.404 . S
C88 H71 0.940 . S
C88 C87 1.404 . S
C88 C89 1.389 . S
C89 H72 0.939 . S
C89 C84 1.400 . S
C89 C88 1.389 . S
C90 P64 1.819 1_565 S
C90 C91 1.391 . S
C90 C95 1.391 . S
C91 H73 0.941 1_565 S
C91 C90 1.391 . S
C91 C92 1.396 . S
C92 H76 0.939 . S
C92 C91 1.396 . S
C92 C93 1.397 . S
C93 C92 1.397 . S
C93 C94 1.385 . S
C94 H77 0.940 . S
C94 C93 1.385 . S
C94 C95 1.388 . S
C95 H74 0.939 . S
C95 C90 1.391 . S
C95 C94 1.388 . S
P96 O107 1.490 . S
P96 C110 1.812 . S
P96 C116 1.803 . S
P96 C122 1.819 . S
H97 C111 0.941 . S
H98 C112 0.939 . S
H99 C114 0.940 . S
H100 C115 0.940 . S
H101 C117 0.939 . S
H102 C118 0.942 . S
H103 C120 0.940 . S
H104 C121 0.939 . S
H105 C123 0.941 . S
H106 C127 0.939 . S
O107 P96 1.490 . S
H108 C124 0.939 . S
H109 C126 0.940 . S
C110 P96 1.812 . S
C110 C111 1.389 . S
C110 C115 1.391 . S
C111 H97 0.941 . S
C111 C110 1.389 . S
C111 C112 1.397 . S
C112 H98 0.939 . S
C112 C111 1.397 . S
C112 C113 1.378 . S
C113 C112 1.378 . S
C113 C114 1.378 . S
C114 H99 0.940 . S
C114 C113 1.378 . S
C114 C115 1.396 . S
C115 H100 0.940 . S
C115 C110 1.391 . S
C115 C114 1.396 . S
C116 P96 1.803 . S
C116 C117 1.378 . S
C116 C121 1.400 . S
C117 H101 0.939 . S
C117 C116 1.378 . S
C117 C118 1.361 . S
C118 H102 0.942 . S
C118 C117 1.361 . S
C118 C119 1.369 . S
C119 C118 1.369 . S
C119 C120 1.404 . S
C120 H103 0.940 . S
C120 C119 1.404 . S
C120 C121 1.389 . S
C121 H104 0.939 . S
C121 C116 1.400 . S
C121 C120 1.389 . S
C122 P96 1.819 . S
C122 C123 1.391 . S
C122 C127 1.391 . S
C123 H105 0.941 . S
C123 C122 1.391 . S
C123 C124 1.396 . S
C124 H108 0.939 . S
C124 C123 1.396 . S
C124 C125 1.397 . S
C125 C124 1.397 . S
C125 C126 1.385 . S
C126 H109 0.940 . S
C126 C125 1.385 . S
C126 C127 1.388 . S
C127 H106 0.939 . S
C127 C122 1.391 . S
C127 C126 1.388 . S
P128 O139 1.490 . S
P128 C142 1.812 1_554 S
P128 C148 1.803 . S
P128 C154 1.819 . S
H129 C143 0.941 . S
H130 C144 0.939 . S
H131 C146 0.940 . S
H132 C147 0.940 . S
H133 C149 0.939 . S
H134 C150 0.942 . S
H135 C152 0.940 . S
H136 C153 0.939 1_556 S
H137 C155 0.941 . S
H138 C159 0.939 . S
O139 P128 1.490 . S
H140 C156 0.939 . S
H141 C158 0.940 . S
C142 P128 1.812 1_556 S
C142 C143 1.389 . S
C142 C147 1.391 . S
C143 H129 0.941 . S
C143 C142 1.389 . S
C143 C144 1.397 . S
C144 H130 0.939 . S
C144 C143 1.397 . S
C144 C145 1.378 . S
C145 C144 1.378 . S
C145 C146 1.378 . S
C146 H131 0.940 . S
C146 C145 1.378 . S
C146 C147 1.396 . S
C147 H132 0.940 . S
C147 C142 1.391 . S
C147 C146 1.396 . S
C148 P128 1.803 . S
C148 C149 1.378 . S
C148 C153 1.400 . S
C149 H133 0.939 . S
C149 C148 1.378 . S
C149 C150 1.361 . S
C150 H134 0.942 . S
C150 C149 1.361 . S
C150 C151 1.369 . S
C151 C150 1.369 . S
C151 C152 1.404 . S
C152 H135 0.940 . S
C152 C151 1.404 . S
C152 C153 1.389 . S
C153 H136 0.939 1_554 S
C153 C148 1.400 . S
C153 C152 1.389 . S
C154 P128 1.819 . S
C154 C155 1.391 . S
C154 C159 1.391 . S
C155 H137 0.941 . S
C155 C154 1.391 . S
C155 C156 1.396 . S
C156 H140 0.939 . S
C156 C155 1.396 . S
C156 C157 1.397 . S
C157 C156 1.397 . S
C157 C158 1.385 . S
C158 H141 0.940 . S
C158 C157 1.385 . S
C158 C159 1.388 . S
C159 H138 0.939 . S
C159 C154 1.391 . S
C159 C158 1.388 . S
P160 O171 1.490 . S
P160 C174 1.812 1_554 S
P160 C180 1.803 . S
P160 C186 1.819 . S
H161 C175 0.941 . S
H162 C176 0.939 . S
H163 C178 0.940 . S
H164 C179 0.940 . S
H165 C181 0.939 . S
H166 C182 0.942 . S
H167 C184 0.940 . S
H168 C185 0.939 1_556 S
H169 C187 0.941 . S
H170 C191 0.939 . S
O171 P160 1.490 . S
H172 C188 0.939 . S
H173 C190 0.940 . S
C174 P160 1.812 1_556 S
C174 C175 1.389 . S
C174 C179 1.391 . S
C175 H161 0.941 . S
C175 C174 1.389 . S
C175 C176 1.397 . S
C176 H162 0.939 . S
C176 C175 1.397 . S
C176 C177 1.378 . S
C177 C176 1.378 . S
C177 C178 1.378 . S
C178 H163 0.940 . S
C178 C177 1.378 . S
C178 C179 1.396 . S
C179 H164 0.940 . S
C179 C174 1.391 . S
C179 C178 1.396 . S
C180 P160 1.803 . S
C180 C181 1.378 . S
C180 C185 1.400 . S
C181 H165 0.939 . S
C181 C180 1.378 . S
C181 C182 1.361 . S
C182 H166 0.942 . S
C182 C181 1.361 . S
C182 C183 1.369 . S
C183 C182 1.369 . S
C183 C184 1.404 . S
C184 H167 0.940 . S
C184 C183 1.404 . S
C184 C185 1.389 . S
C185 H168 0.939 1_554 S
C185 C180 1.400 . S
C185 C184 1.389 . S
C186 P160 1.819 . S
C186 C187 1.391 . S
C186 C191 1.391 . S
C187 H169 0.941 . S
C187 C186 1.391 . S
C187 C188 1.396 . S
C188 H172 0.939 . S
C188 C187 1.396 . S
C188 C189 1.397 . S
C189 C188 1.397 . S
C189 C190 1.385 . S
C190 H173 0.940 . S
C190 C189 1.385 . S
C190 C191 1.388 . S
C191 H170 0.939 . S
C191 C186 1.391 . S
C191 C190 1.388 . S
P192 O203 1.490 . S
P192 C206 1.812 1_554 S
P192 C212 1.803 . S
P192 C218 1.819 . S
H193 C207 0.941 . S
H194 C208 0.939 . S
H195 C210 0.940 . S
H196 C211 0.940 . S
H197 C213 0.939 . S
H198 C214 0.942 . S
H199 C216 0.940 . S
H200 C217 0.939 1_556 S
H201 C219 0.941 . S
H202 C223 0.939 . S
O203 P192 1.490 . S
H204 C220 0.939 . S
H205 C222 0.940 . S
C206 P192 1.812 1_556 S
C206 C207 1.389 . S
C206 C211 1.391 . S
C207 H193 0.941 . S
C207 C206 1.389 . S
C207 C208 1.397 . S
C208 H194 0.939 . S
C208 C207 1.397 . S
C208 C209 1.378 . S
C209 C208 1.378 . S
C209 C210 1.378 . S
C210 H195 0.940 . S
C210 C209 1.378 . S
C210 C211 1.396 . S
C211 H196 0.940 . S
C211 C206 1.391 . S
C211 C210 1.396 . S
C212 P192 1.803 . S
C212 C213 1.378 . S
C212 C217 1.400 . S
C213 H197 0.939 . S
C213 C212 1.378 . S
C213 C214 1.361 . S
C214 H198 0.942 . S
C214 C213 1.361 . S
C214 C215 1.369 . S
C215 C214 1.369 . S
C215 C216 1.404 . S
C216 H199 0.940 . S
C216 C215 1.404 . S
C216 C217 1.389 . S
C217 H200 0.939 1_554 S
C217 C212 1.400 . S
C217 C216 1.389 . S
C218 P192 1.819 . S
C218 C219 1.391 . S
C218 C223 1.391 . S
C219 H201 0.941 . S
C219 C218 1.391 . S
C219 C220 1.396 . S
C220 H204 0.939 . S
C220 C219 1.396 . S
C220 C221 1.397 . S
C221 C220 1.397 . S
C221 C222 1.385 . S
C222 H205 0.940 . S
C222 C221 1.385 . S
C222 C223 1.388 . S
C223 H202 0.939 . S
C223 C218 1.391 . S
C223 C222 1.388 . S
P224 O235 1.490 . S
P224 C238 1.812 1_554 S
P224 C244 1.803 . S
P224 C250 1.819 . S
H225 C239 0.941 . S
H226 C240 0.939 . S
H227 C242 0.940 . S
H228 C243 0.940 . S
H229 C245 0.939 . S
H230 C246 0.942 . S
H231 C248 0.940 . S
H232 C249 0.939 1_556 S
H233 C251 0.941 . S
H234 C255 0.939 . S
O235 P224 1.490 . S
H236 C252 0.939 . S
H237 C254 0.940 . S
C238 P224 1.812 1_556 S
C238 C239 1.389 . S
C238 C243 1.391 . S
C239 H225 0.941 . S
C239 C238 1.389 . S
C239 C240 1.397 . S
C240 H226 0.939 . S
C240 C239 1.397 . S
C240 C241 1.378 . S
C241 C240 1.378 . S
C241 C242 1.378 . S
C242 H227 0.940 . S
C242 C241 1.378 . S
C242 C243 1.396 . S
C243 H228 0.940 . S
C243 C238 1.391 . S
C243 C242 1.396 . S
C244 P224 1.803 . S
C244 C245 1.378 . S
C244 C249 1.400 . S
C245 H229 0.939 . S
C245 C244 1.378 . S
C245 C246 1.361 . S
C246 H230 0.942 . S
C246 C245 1.361 . S
C246 C247 1.369 . S
C247 C246 1.369 . S
C247 C248 1.404 . S
C248 H231 0.940 . S
C248 C247 1.404 . S
C248 C249 1.389 . S
C249 H232 0.939 1_554 S
C249 C244 1.400 . S
C249 C248 1.389 . S
C250 P224 1.819 . S
C250 C251 1.391 . S
C250 C255 1.391 . S
C251 H233 0.941 . S
C251 C250 1.391 . S
C251 C252 1.396 . S
C252 H236 0.939 . S
C252 C251 1.396 . S
C252 C253 1.397 . S
C253 C252 1.397 . S
C253 C254 1.385 . S
C254 H237 0.940 . S
C254 C253 1.385 . S
C254 C255 1.388 . S
C255 H234 0.939 . S
C255 C250 1.391 . S
C255 C254 1.388 . S
Eu256 N287 2.657 1_565 S
Eu256 N294 2.609 . S
Eu256 O300 2.558 . S
Eu256 O301 2.612 1_455 S
Eu256 O303 2.339 1_455 S
Eu256 O304 2.563 . S
Eu256 O305 2.419 . S
Eu256 O307 2.380 1_565 S
Eu256 O308 2.432 . S
Eu256 C320 2.848 . S
C257 C260 1.434 . S
C257 C261 1.414 . S
C257 N264 1.369 1_565 S
C258 C260 1.420 . S
C258 C262 1.423 . S
C258 C270 1.392 . S
C259 C261 1.420 . S
C259 C262 1.351 . S
C259 H282 0.931 . S
C260 C257 1.434 . S
C260 C258 1.420 . S
C260 N268 1.362 . S
C261 C257 1.414 . S
C261 C259 1.420 . S
C261 C266 1.395 1_565 S
C262 C258 1.423 . S
C262 C259 1.351 . S
C262 H274 0.930 . S
C263 C265 1.400 . S
C263 C266 1.386 . S
C263 H275 0.930 . S
N264 C257 1.369 1_545 S
N264 C265 1.321 . S
N264 Eu267 2.609 . S
C265 C263 1.400 . S
C265 N264 1.321 . S
C265 H272 0.930 . S
C266 C261 1.395 1_545 S
C266 C263 1.386 . S
C266 H285 0.930 . S
Eu267 N264 2.609 . S
Eu267 N268 2.657 1_545 S
Eu267 O301 2.380 1_545 S
Eu267 O302 2.432 . S
Eu267 O306 2.558 . S
Eu267 O307 2.612 1_655 S
Eu267 O309 2.339 1_655 S
Eu267 O310 2.557 1_655 S
Eu267 O311 2.419 . S
Eu267 C331 2.848 . S
N268 C260 1.362 . S
N268 Eu267 2.657 1_565 S
N268 C269 1.334 . S
C269 N268 1.334 . S
C269 C271 1.413 . S
C269 H276 0.929 1_655 S
C270 C258 1.392 . S
C270 C271 1.367 . S
C270 H278 0.930 . S
C271 C269 1.413 . S
C271 C270 1.367 . S
C271 H273 0.930 1_655 S
H272 C265 0.930 . S
H273 C271 0.930 1_455 S
H274 C262 0.930 . S
H275 C263 0.930 . S
H276 C269 0.929 1_455 S
H277 C291 0.930 1_655 S
H278 C270 0.930 . S
H279 C297 0.930 . S
H280 C288 0.929 1_655 S
H281 C295 0.930 . S
H282 C259 0.931 . S
H283 C289 0.930 . S
H284 C322 0.930 . S
H285 C266 0.930 . S
H286 C321 0.931 . S
N287 Eu256 2.657 1_545 S
N287 C288 1.334 . S
N287 C292 1.362 . S
C288 H280 0.929 1_455 S
C288 N287 1.334 . S
C288 C291 1.413 1_556 S
C289 H283 0.930 . S
C289 C290 1.392 . S
C289 C291 1.367 . S
C290 C289 1.392 . S
C290 C292 1.420 1_554 S
C290 C322 1.423 . S
C291 H277 0.930 1_455 S
C291 C288 1.413 1_554 S
C291 C289 1.367 . S
C292 N287 1.362 . S
C292 C290 1.420 1_556 S
C292 C296 1.429 . S
H293 C298 0.930 . S
N294 Eu256 2.609 . S
N294 C296 1.377 1_565 S
N294 C297 1.321 . S
C295 H281 0.930 . S
C295 C297 1.400 . S
C295 C298 1.386 1_565 S
C296 C292 1.429 . S
C296 N294 1.377 1_545 S
C296 C299 1.411 . S
C297 H279 0.930 . S
C297 N294 1.321 . S
C297 C295 1.400 . S
C298 H293 0.930 . S
C298 C295 1.386 1_545 S
C298 C299 1.395 . S
C299 C296 1.411 . S
C299 C298 1.395 . S
C299 C321 1.420 1_556 S
O300 Eu256 2.558 . S
O300 C320 1.257 . S
O301 Eu256 2.612 1_655 S
O301 Eu267 2.380 1_565 S
O301 C312 1.276 . S
O302 Eu267 2.432 . S
O302 C319 1.264 . S
O303 Eu256 2.339 1_655 S
O303 C319 1.254 1_565 S
O304 Eu256 2.563 . S
O304 C312 1.235 1_455 S
O305 Eu256 2.419 . S
O305 C320 1.249 . S
O306 Eu267 2.558 . S
O306 C331 1.257 . S
O307 Eu256 2.380 1_545 S
O307 Eu267 2.612 1_455 S
O307 C323 1.276 . S
O308 Eu256 2.432 . S
O308 C330 1.264 1_565 S
O309 Eu267 2.339 1_455 S
O309 C330 1.254 . S
O310 Eu267 2.557 1_455 S
O310 C323 1.247 . S
O311 Eu267 2.419 . S
O311 C331 1.249 . S
C312 O301 1.276 . S
C312 O304 1.235 1_655 S
C313 C315 1.393 . S
C313 C317 1.395 . S
C313 C320 1.492 . S
C314 C315 1.392 1_554 S
C314 C316 1.386 . S
C315 C313 1.393 . S
C315 C314 1.392 1_556 S
C315 H332 0.930 . S
C316 C314 1.386 . S
C316 C318 1.395 1_554 S
C316 H333 0.930 . S
C317 C313 1.395 . S
C317 C318 1.379 . S
C317 H334 0.930 . S
C318 C316 1.395 1_556 S
C318 C317 1.379 . S
C318 H335 0.930 . S
C319 O302 1.264 . S
C319 O303 1.254 1_545 S
C320 Eu256 2.848 . S
C320 O300 1.257 . S
C320 O305 1.249 . S
C320 C313 1.492 . S
C321 H286 0.931 . S
C321 C299 1.420 1_554 S
C321 C322 1.351 . S
C322 H284 0.930 . S
C322 C290 1.423 . S
C322 C321 1.351 . S
C323 O307 1.276 . S
C323 O310 1.247 . S
C324 C325 1.393 . S
C324 C328 1.395 . S
C324 C331 1.492 . S
C325 C324 1.393 . S
C325 C326 1.392 . S
C325 H336 0.930 1_655 S
C326 C325 1.392 . S
C326 C327 1.386 . S
C327 C326 1.386 . S
C327 C329 1.395 . S
C327 H337 0.930 . S
C328 C324 1.395 . S
C328 C329 1.379 . S
C328 H338 0.930 . S
C329 C327 1.395 . S
C329 C328 1.379 . S
C329 H339 0.930 . S
C330 O308 1.264 1_545 S
C330 O309 1.254 . S
C331 Eu267 2.848 . S
C331 O306 1.257 . S
C331 O311 1.249 . S
C331 C324 1.492 . S
H332 C315 0.930 . S
H333 C316 0.930 . S
H334 C317 0.930 . S
H335 C318 0.930 . S
H336 C325 0.930 1_455 S
H337 C327 0.930 . S
H338 C328 0.930 . S
H339 C329 0.930 . S
Eu340 N371 2.657 . S
Eu340 N378 2.609 . S
Eu340 O384 2.558 . S
Eu340 O385 2.612 1_545 S
Eu340 O387 2.339 1_545 S
Eu340 O388 2.563 . S
Eu340 O389 2.419 . S
Eu340 O391 2.380 . S
Eu340 O392 2.432 . S
Eu340 C404 2.848 . S
C341 C344 1.429 . S
C341 C345 1.411 . S
C341 N348 1.377 . S
C342 C344 1.420 . S
C342 C346 1.423 . S
C342 C354 1.392 . S
C343 C345 1.420 . S
C343 C346 1.351 . S
C343 H366 0.931 . S
C344 C341 1.429 . S
C344 C342 1.420 . S
C344 N352 1.362 . S
C345 C341 1.411 . S
C345 C343 1.420 . S
C345 C350 1.395 . S
C346 C342 1.423 . S
C346 C343 1.351 . S
C346 H358 0.930 . S
C347 C349 1.400 . S
C347 C350 1.386 . S
C347 H359 0.930 . S
N348 C341 1.377 . S
N348 C349 1.321 . S
N348 Eu351 2.609 . S
C349 C347 1.400 . S
C349 N348 1.321 . S
C349 H356 0.930 . S
C350 C345 1.395 . S
C350 C347 1.386 . S
C350 H369 0.930 . S
Eu351 N348 2.609 . S
Eu351 N352 2.657 . S
Eu351 O385 2.380 . S
Eu351 O386 2.432 . S
Eu351 O390 2.558 . S
Eu351 O391 2.612 1_565 S
Eu351 O393 2.339 1_565 S
Eu351 O394 2.552 1_565 S
Eu351 O395 2.419 . S
Eu351 C415 2.848 . S
N352 C344 1.362 . S
N352 Eu351 2.657 . S
N352 C353 1.317 1_565 S
C353 N352 1.317 1_545 S
C353 C355 1.412 1_545 S
C353 H360 0.948 . S
C354 C342 1.392 . S
C354 C355 1.367 . S
C354 H362 0.930 . S
C355 C353 1.412 1_565 S
C355 C354 1.367 . S
C355 H357 0.930 1_565 S
H356 C349 0.930 . S
H357 C355 0.930 1_545 S
H358 C346 0.930 . S
H359 C347 0.930 . S
H360 C353 0.948 . S
H361 C375 0.930 1_565 S
H362 C354 0.930 . S
H363 C381 0.930 . S
H364 C372 0.929 1_565 S
H365 C379 0.930 . S
H366 C343 0.931 . S
H367 C373 0.930 . S
H368 C406 0.930 . S
H369 C350 0.930 . S
H370 C405 0.931 . S
N371 Eu340 2.657 . S
N371 C372 1.334 . S
N371 C376 1.362 . S
C372 H364 0.929 1_545 S
C372 N371 1.334 . S
C372 C375 1.413 1_556 S
C373 H367 0.930 . S
C373 C374 1.392 . S
C373 C375 1.367 . S
C374 C373 1.392 . S
C374 C376 1.420 1_554 S
C374 C406 1.423 . S
C375 H361 0.930 1_545 S
C375 C372 1.413 1_554 S
C375 C373 1.367 . S
C376 N371 1.362 . S
C376 C374 1.420 1_556 S
C376 C380 1.429 . S
H377 C382 0.930 . S
N378 Eu340 2.609 . S
N378 C380 1.377 . S
N378 C381 1.321 . S
C379 H365 0.930 . S
C379 C381 1.400 . S
C379 C382 1.386 . S
C380 C376 1.429 . S
C380 N378 1.377 . S
C380 C383 1.411 . S
C381 H363 0.930 . S
C381 N378 1.321 . S
C381 C379 1.400 . S
C382 H377 0.930 . S
C382 C379 1.386 . S
C382 C383 1.395 . S
C383 C380 1.411 . S
C383 C382 1.395 . S
C383 C405 1.420 1_556 S
O384 Eu340 2.558 . S
O384 C404 1.257 . S
O385 Eu340 2.612 1_565 S
O385 Eu351 2.380 . S
O385 C396 1.276 . S
O386 Eu351 2.432 . S
O386 C403 1.264 . S
O387 Eu340 2.339 1_565 S
O387 C403 1.254 . S
O388 Eu340 2.563 . S
O388 C396 1.235 1_545 S
O389 Eu340 2.419 . S
O389 C404 1.249 . S
O390 Eu351 2.558 . S
O390 C415 1.257 . S
O391 Eu340 2.380 . S
O391 Eu351 2.612 1_545 S
O391 C407 1.276 . S
O392 Eu340 2.432 . S
O392 C414 1.264 . S
O393 Eu351 2.339 1_545 S
O393 C414 1.254 . S
O394 Eu351 2.552 1_545 S
O394 C407 1.258 . S
O395 Eu351 2.419 . S
O395 C415 1.249 . S
C396 O385 1.276 . S
C396 O388 1.235 1_565 S
C397 C399 1.393 . S
C397 C401 1.395 . S
C397 C404 1.492 . S
C398 C399 1.392 1_554 S
C398 C400 1.386 . S
C399 C397 1.393 . S
C399 C398 1.392 1_556 S
C399 H416 0.930 . S
C400 C398 1.386 . S
C400 C402 1.395 1_554 S
C400 H417 0.930 . S
C401 C397 1.395 . S
C401 C402 1.379 . S
C401 H418 0.930 . S
C402 C400 1.395 1_556 S
C402 C401 1.379 . S
C402 H419 0.930 . S
C403 O386 1.264 . S
C403 O387 1.254 . S
C404 Eu340 2.848 . S
C404 O384 1.257 . S
C404 O389 1.249 . S
C404 C397 1.492 . S
C405 H370 0.931 . S
C405 C383 1.420 1_554 S
C405 C406 1.351 . S
C406 H368 0.930 . S
C406 C374 1.423 . S
C406 C405 1.351 . S
C407 O391 1.276 . S
C407 O394 1.258 . S
C408 C409 1.393 . S
C408 C412 1.395 . S
C408 C415 1.492 . S
C409 C408 1.393 . S
C409 C410 1.392 . S
C409 H420 0.930 1_565 S
C410 C409 1.392 . S
C410 C411 1.386 . S
C411 C410 1.386 . S
C411 C413 1.395 . S
C411 H421 0.930 . S
C412 C408 1.395 . S
C412 C413 1.379 . S
C412 H422 0.930 . S
C413 C411 1.395 . S
C413 C412 1.379 . S
C413 H423 0.930 . S
C414 O392 1.264 . S
C414 O393 1.254 . S
C415 Eu351 2.848 . S
C415 O390 1.257 . S
C415 O395 1.249 . S
C415 C408 1.492 . S
H416 C399 0.930 . S
H417 C400 0.930 . S
H418 C401 0.930 . S
H419 C402 0.930 . S
H420 C409 0.930 1_545 S
H421 C411 0.930 . S
H422 C412 0.930 . S
H423 C413 0.930 . S
Eu424 N455 2.657 . S
Eu424 N462 2.609 . S
Eu424 O468 2.558 . S
Eu424 O469 2.612 . S
Eu424 O471 2.339 . S
Eu424 O472 2.563 . S
Eu424 O473 2.419 . S
Eu424 O475 2.380 . S
Eu424 O476 2.432 . S
Eu424 C488 2.848 . S
C425 C428 1.429 . S
C425 C429 1.411 . S
C425 N432 1.377 . S
C426 C428 1.420 . S
C426 C430 1.423 . S
C426 C438 1.392 . S
C427 C429 1.420 . S
C427 C430 1.351 . S
C427 H450 0.931 . S
C428 C425 1.429 . S
C428 C426 1.420 . S
C428 N436 1.362 . S
C429 C425 1.411 . S
C429 C427 1.420 . S
C429 C434 1.395 . S
C430 C426 1.423 . S
C430 C427 1.351 . S
C430 H442 0.930 . S
C431 C433 1.400 . S
C431 C434 1.386 . S
C431 H443 0.930 . S
N432 C425 1.377 . S
N432 C433 1.321 . S
N432 Eu435 2.609 . S
C433 C431 1.400 . S
C433 N432 1.321 . S
C433 H440 0.930 . S
C434 C429 1.395 . S
C434 C431 1.386 . S
C434 H453 0.930 . S
Eu435 N432 2.609 . S
Eu435 N436 2.657 . S
Eu435 O469 2.380 . S
Eu435 O470 2.432 . S
Eu435 O474 2.558 . S
Eu435 O475 2.612 . S
Eu435 O477 2.339 . S
Eu435 O478 2.563 . S
Eu435 O479 2.419 . S
Eu435 C499 2.848 . S
N436 C428 1.362 . S
N436 Eu435 2.657 . S
N436 C437 1.334 . S
C437 N436 1.334 . S
C437 C439 1.413 . S
C437 H444 0.929 . S
C438 C426 1.392 . S
C438 C439 1.367 . S
C438 H446 0.930 . S
C439 C437 1.413 . S
C439 C438 1.367 . S
C439 H441 0.930 . S
H440 C433 0.930 . S
H441 C439 0.930 . S
H442 C430 0.930 . S
H443 C431 0.930 . S
H444 C437 0.929 . S
H445 C459 0.930 . S
H446 C438 0.930 . S
H447 C465 0.930 . S
H448 C456 0.929 . S
H449 C463 0.930 . S
H450 C427 0.931 . S
H451 C457 0.930 . S
H452 C490 0.930 . S
H453 C434 0.930 . S
H454 C489 0.931 . S
N455 Eu424 2.657 . S
N455 C456 1.334 . S
N455 C460 1.362 . S
C456 H448 0.929 . S
C456 N455 1.334 . S
C456 C459 1.413 . S
C457 H451 0.930 . S
C457 C458 1.392 . S
C457 C459 1.367 . S
C458 C457 1.392 . S
C458 C460 1.420 . S
C458 C490 1.423 . S
C459 H445 0.930 . S
C459 C456 1.413 . S
C459 C457 1.367 . S
C460 N455 1.362 . S
C460 C458 1.420 . S
C460 C464 1.429 . S
H461 C466 0.930 . S
N462 Eu424 2.609 . S
N462 C464 1.377 . S
N462 C465 1.321 . S
C463 H449 0.930 . S
C463 C465 1.400 . S
C463 C466 1.386 . S
C464 C460 1.429 . S
C464 N462 1.377 . S
C464 C467 1.411 . S
C465 H447 0.930 . S
C465 N462 1.321 . S
C465 C463 1.400 . S
C466 H461 0.930 . S
C466 C463 1.386 . S
C466 C467 1.395 . S
C467 C464 1.411 . S
C467 C466 1.395 . S
C467 C489 1.420 . S
O468 Eu424 2.558 . S
O468 C488 1.257 . S
O469 Eu424 2.612 . S
O469 Eu435 2.380 . S
O469 C480 1.276 . S
O470 Eu435 2.432 . S
O470 C487 1.264 . S
O471 Eu424 2.339 . S
O471 C487 1.254 . S
O472 Eu424 2.563 . S
O472 C480 1.235 . S
O473 Eu424 2.419 . S
O473 C488 1.249 . S
O474 Eu435 2.558 . S
O474 C499 1.257 . S
O475 Eu424 2.380 . S
O475 Eu435 2.612 . S
O475 C491 1.276 . S
O476 Eu424 2.432 . S
O476 C498 1.264 . S
O477 Eu435 2.339 . S
O477 C498 1.254 . S
O478 Eu435 2.563 . S
O478 C491 1.235 . S
O479 Eu435 2.419 . S
O479 C499 1.249 . S
C480 O469 1.276 . S
C480 O472 1.235 . S
C481 C483 1.393 . S
C481 C485 1.395 . S
C481 C488 1.492 . S
C482 C483 1.392 . S
C482 C484 1.386 . S
C483 C481 1.393 . S
C483 C482 1.392 . S
C483 H500 0.930 . S
C484 C482 1.386 . S
C484 C486 1.395 . S
C484 H501 0.930 . S
C485 C481 1.395 . S
C485 C486 1.379 . S
C485 H502 0.930 . S
C486 C484 1.395 . S
C486 C485 1.379 . S
C486 H503 0.930 . S
C487 O470 1.264 . S
C487 O471 1.254 . S
C488 Eu424 2.848 . S
C488 O468 1.257 . S
C488 O473 1.249 . S
C488 C481 1.492 . S
C489 H454 0.931 . S
C489 C467 1.420 . S
C489 C490 1.351 . S
C490 H452 0.930 . S
C490 C458 1.423 . S
C490 C489 1.351 . S
C491 O475 1.276 . S
C491 O478 1.235 . S
C492 C493 1.393 . S
C492 C496 1.395 1_556 S
C492 C499 1.492 . S
C493 C492 1.393 . S
C493 C494 1.392 1_556 S
C493 H504 0.930 . S
C494 C493 1.392 1_554 S
C494 C495 1.386 . S
C495 C494 1.386 . S
C495 C497 1.395 . S
C495 H505 0.930 . S
C496 C492 1.395 1_554 S
C496 C497 1.379 . S
C496 H506 0.930 . S
C497 C495 1.395 . S
C497 C496 1.379 . S
C497 H507 0.930 . S
C498 O476 1.264 . S
C498 O477 1.254 . S
C499 Eu435 2.848 . S
C499 O474 1.257 . S
C499 O479 1.249 . S
C499 C492 1.492 . S
H500 C483 0.930 . S
H501 C484 0.930 . S
H502 C485 0.930 . S
H503 C486 0.930 . S
H504 C493 0.930 . S
H505 C495 0.930 . S
H506 C496 0.930 . S
H507 C497 0.930 . S
Eu508 N539 2.657 . S
Eu508 N546 2.609 . S
Eu508 O552 2.558 . S
Eu508 O553 2.612 . S
Eu508 O555 2.339 . S
Eu508 O556 2.563 . S
Eu508 O557 2.419 . S
Eu508 O559 2.380 1_455 S
Eu508 O560 2.432 1_455 S
Eu508 C572 2.848 . S
C509 C512 1.429 . S
C509 C513 1.411 . S
C509 N516 1.377 . S
C510 C512 1.420 . S
C510 C514 1.423 . S
C510 C522 1.392 . S
C511 C513 1.420 . S
C511 C514 1.351 . S
C511 H534 0.931 . S
C512 C509 1.429 . S
C512 C510 1.420 . S
C512 N520 1.362 . S
C513 C509 1.411 . S
C513 C511 1.420 . S
C513 C518 1.395 1_655 S
C514 C510 1.423 . S
C514 C511 1.351 . S
C514 H526 0.930 . S
C515 C517 1.400 . S
C515 C518 1.386 . S
C515 H527 0.930 . S
N516 C509 1.377 . S
N516 C517 1.321 1_655 S
N516 Eu519 2.609 . S
C517 C515 1.400 . S
C517 N516 1.321 1_455 S
C517 H524 0.930 . S
C518 C513 1.395 1_455 S
C518 C515 1.386 . S
C518 H537 0.930 . S
Eu519 N516 2.609 . S
Eu519 N520 2.657 . S
Eu519 O553 2.380 1_655 S
Eu519 O554 2.432 1_655 S
Eu519 O558 2.558 . S
Eu519 O559 2.612 . S
Eu519 O561 2.339 . S
Eu519 O562 2.563 . S
Eu519 O563 2.419 . S
Eu519 C583 2.848 . S
N520 C512 1.362 . S
N520 Eu519 2.657 . S
N520 C521 1.334 . S
C521 N520 1.334 . S
C521 C523 1.413 . S
C521 H528 0.929 . S
C522 C510 1.392 . S
C522 C523 1.367 . S
C522 H530 0.930 . S
C523 C521 1.413 . S
C523 C522 1.367 . S
C523 H525 0.930 . S
H524 C517 0.930 . S
H525 C523 0.930 . S
H526 C514 0.930 . S
H527 C515 0.930 . S
H528 C521 0.929 . S
H529 C543 0.930 . S
H530 C522 0.930 . S
H531 C549 0.930 . S
H532 C540 0.929 . S
H533 C547 0.930 . S
H534 C511 0.931 . S
H535 C541 0.930 . S
H536 C574 0.930 . S
H537 C518 0.930 . S
H538 C573 0.931 . S
N539 Eu508 2.657 . S
N539 C540 1.334 . S
N539 C544 1.362 . S
C540 H532 0.929 . S
C540 N539 1.334 . S
C540 C543 1.413 . S
C541 H535 0.930 . S
C541 C542 1.392 . S
C541 C543 1.367 . S
C542 C541 1.392 . S
C542 C544 1.420 . S
C542 C574 1.423 . S
C543 H529 0.930 . S
C543 C540 1.413 . S
C543 C541 1.367 . S
C544 N539 1.362 . S
C544 C542 1.420 . S
C544 C548 1.429 . S
H545 C550 0.930 . S
N546 Eu508 2.609 . S
N546 C548 1.377 . S
N546 C549 1.321 1_455 S
C547 H533 0.930 . S
C547 C549 1.400 . S
C547 C550 1.386 1_655 S
C548 C544 1.429 . S
C548 N546 1.377 . S
C548 C551 1.411 . S
C549 H531 0.930 . S
C549 N546 1.321 1_655 S
C549 C547 1.400 . S
C550 H545 0.930 . S
C550 C547 1.386 1_455 S
C550 C551 1.395 . S
C551 C548 1.411 . S
C551 C550 1.395 . S
C551 C573 1.420 . S
O552 Eu508 2.558 . S
O552 C572 1.257 . S
O553 Eu508 2.612 . S
O553 Eu519 2.380 1_455 S
O553 C564 1.276 . S
O554 Eu519 2.432 1_455 S
O554 C571 1.264 . S
O555 Eu508 2.339 . S
O555 C571 1.254 . S
O556 Eu508 2.563 . S
O556 C564 1.235 . S
O557 Eu508 2.419 . S
O557 C572 1.249 . S
O558 Eu519 2.558 . S
O558 C583 1.257 . S
O559 Eu508 2.380 1_655 S
O559 Eu519 2.612 . S
O559 C575 1.276 . S
O560 Eu508 2.432 1_655 S
O560 C582 1.264 . S
O561 Eu519 2.339 . S
O561 C582 1.254 . S
O562 Eu519 2.563 . S
O562 C575 1.235 . S
O563 Eu519 2.419 . S
O563 C583 1.249 . S
C564 O553 1.276 . S
C564 O556 1.235 . S
C565 C567 1.393 . S
C565 C569 1.395 . S
C565 C572 1.492 . S
C566 C567 1.392 . S
C566 C568 1.386 . S
C567 C565 1.393 . S
C567 C566 1.392 . S
C567 H584 0.930 . S
C568 C566 1.386 . S
C568 C570 1.395 . S
C568 H585 0.930 . S
C569 C565 1.395 . S
C569 C570 1.379 . S
C569 H586 0.930 . S
C570 C568 1.395 . S
C570 C569 1.379 . S
C570 H587 0.930 . S
C571 O554 1.264 . S
C571 O555 1.254 . S
C572 Eu508 2.848 . S
C572 O552 1.257 . S
C572 O557 1.249 . S
C572 C565 1.492 . S
C573 H538 0.931 . S
C573 C551 1.420 . S
C573 C574 1.351 . S
C574 H536 0.930 . S
C574 C542 1.423 . S
C574 C573 1.351 . S
C575 O559 1.276 . S
C575 O562 1.235 . S
C576 C577 1.393 . S
C576 C580 1.395 1_556 S
C576 C583 1.492 . S
C577 C576 1.393 . S
C577 C578 1.392 1_556 S
C577 H588 0.930 . S
C578 C577 1.392 1_554 S
C578 C579 1.386 . S
C579 C578 1.386 . S
C579 C581 1.395 . S
C579 H589 0.930 . S
C580 C576 1.395 1_554 S
C580 C581 1.379 . S
C580 H590 0.930 . S
C581 C579 1.395 . S
C581 C580 1.379 . S
C581 H591 0.930 . S
C582 O560 1.264 . S
C582 O561 1.254 . S
C583 Eu519 2.848 . S
C583 O558 1.257 . S
C583 O563 1.249 . S
C583 C576 1.492 . S
H584 C567 0.930 . S
H585 C568 0.930 . S
H586 C569 0.930 . S
H587 C570 0.930 . S
H588 C577 0.930 . S
H589 C579 0.930 . S
H590 C580 0.930 . S
H591 C581 0.930 . S
C592 C593 1.369 . S
C592 C594 1.419 . S
C592 H596 0.930 . S
C593 C592 1.369 . S
C593 C602 1.429 . S
C594 C592 1.419 . S
C594 C595 1.363 . S
C594 H597 0.929 . S
C595 C594 1.363 . S
C595 C601 1.428 . S
H596 C592 0.930 . S
H597 C594 0.929 . S
S598 N599 1.613 . S
S598 N600 1.610 . S
N599 S598 1.613 . S
N599 C602 1.350 1_565 S
N600 S598 1.610 . S
N600 C601 1.351 1_565 S
C601 C595 1.428 . S
C601 N600 1.351 1_545 S
C601 C602 1.434 . S
C602 C593 1.429 . S
C602 N599 1.350 1_545 S
C602 C601 1.434 . S
C603 C604 1.369 . S
C603 C605 1.419 . S
C603 H607 0.930 . S
C604 C603 1.369 . S
C604 C613 1.429 . S
C605 C603 1.419 . S
C605 C606 1.363 . S
C605 H608 0.929 . S
C606 C605 1.363 . S
C606 C612 1.428 . S
H607 C603 0.930 . S
H608 C605 0.929 . S
S609 N610 1.613 . S
S609 N611 1.610 . S
N610 S609 1.613 . S
N610 C613 1.350 . S
N611 S609 1.610 . S
N611 C612 1.351 . S
C612 C606 1.428 . S
C612 N611 1.351 . S
C612 C613 1.434 . S
C613 C604 1.429 . S
C613 N610 1.350 . S
C613 C612 1.434 . S
C614 C615 1.369 . S
C614 C616 1.419 . S
C614 H618 0.930 . S
C615 C614 1.369 . S
C615 C624 1.429 . S
C616 C614 1.419 . S
C616 C617 1.363 . S
C616 H619 0.929 . S
C617 C616 1.363 . S
C617 C623 1.428 . S
H618 C614 0.930 . S
H619 C616 0.929 . S
S620 N621 1.613 . S
S620 N622 1.610 . S
N621 S620 1.613 . S
N621 C624 1.350 . S
N622 S620 1.610 . S
N622 C623 1.351 . S
C623 C617 1.428 . S
C623 N622 1.351 . S
C623 C624 1.434 . S
C624 C615 1.429 . S
C624 N621 1.350 . S
C624 C623 1.434 . S
C625 C626 1.369 . S
C625 C627 1.419 . S
C625 H629 0.930 . S
C626 C625 1.369 . S
C626 C635 1.429 . S
C627 C625 1.419 . S
C627 C628 1.363 . S
C627 H630 0.929 . S
C628 C627 1.363 . S
C628 C634 1.428 . S
H629 C625 0.930 . S
H630 C627 0.929 . S
S631 N632 1.613 1_655 S
S631 N633 1.610 . S
N632 S631 1.613 1_455 S
N632 C635 1.350 . S
N633 S631 1.610 . S
N633 C634 1.351 1_655 S
C634 C628 1.428 . S
C634 N633 1.351 1_455 S
C634 C635 1.434 . S
C635 C626 1.429 . S
C635 N632 1.350 . S
C635 C634 1.434 . S
C636 C637 1.369 . S
C636 C638 1.419 1_554 S
C636 H640 0.930 . S
C637 C636 1.369 . S
C637 C646 1.429 . S
C638 C636 1.419 1_556 S
C638 C639 1.363 . S
C638 H641 0.929 . S
C639 C638 1.363 . S
C639 C645 1.428 . S
H640 C636 0.930 . S
H641 C638 0.929 . S
S642 N643 1.613 1_545 S
S642 N644 1.610 1_554 S
N643 S642 1.613 1_565 S
N643 C646 1.350 . S
N644 S642 1.610 1_556 S
N644 C645 1.351 1_545 S
C645 C639 1.428 . S
C645 N644 1.351 1_565 S
C645 C646 1.434 1_556 S
C646 C637 1.429 . S
C646 N643 1.350 . S
C646 C645 1.434 1_554 S
C647 C648 1.369 . S
C647 C649 1.419 1_554 S
C647 H651 0.930 . S
C648 C647 1.369 . S
C648 C657 1.429 . S
C649 C647 1.419 1_556 S
C649 C650 1.363 . S
C649 H652 0.929 . S
C650 C649 1.363 . S
C650 C656 1.428 . S
H651 C647 0.930 . S
H652 C649 0.929 . S
S653 N654 1.613 . S
S653 N655 1.610 1_554 S
N654 S653 1.613 . S
N654 C657 1.350 . S
N655 S653 1.610 1_556 S
N655 C656 1.351 . S
C656 C650 1.428 . S
C656 N655 1.351 . S
C656 C657 1.434 1_556 S
C657 C648 1.429 . S
C657 N654 1.350 . S
C657 C656 1.434 1_554 S
C658 C659 1.369 . S
C658 C660 1.419 1_554 S
C658 H662 0.930 . S
C659 C658 1.369 . S
C659 C668 1.429 . S
C660 C658 1.419 1_556 S
C660 C661 1.363 . S
C660 H663 0.929 . S
C661 C660 1.363 . S
C661 C667 1.428 . S
H662 C658 0.930 . S
H663 C660 0.929 . S
S664 N665 1.613 . S
S664 N666 1.610 1_554 S
N665 S664 1.613 . S
N665 C668 1.350 . S
N666 S664 1.610 1_556 S
N666 C667 1.351 . S
C667 C661 1.428 . S
C667 N666 1.351 . S
C667 C668 1.434 1_556 S
C668 C659 1.429 . S
C668 N665 1.350 . S
C668 C667 1.434 1_554 S
C669 C670 1.369 . S
C669 C671 1.419 1_554 S
C669 H673 0.930 . S
C670 C669 1.369 . S
C670 C679 1.429 . S
C671 C669 1.419 1_556 S
C671 C672 1.363 . S
C671 H674 0.929 . S
C672 C671 1.363 . S
C672 C678 1.428 . S
H673 C669 0.930 . S
H674 C671 0.929 . S
S675 N676 1.613 . S
S675 N677 1.610 1_554 S
N676 S675 1.613 . S
N676 C679 1.350 . S
N677 S675 1.610 1_556 S
N677 C678 1.351 . S
C678 C672 1.428 . S
C678 N677 1.351 . S
C678 C679 1.434 1_556 S
C679 C670 1.429 . S
C679 N676 1.350 . S
C679 C678 1.434 1_554 S
C680 C681 1.369 . S
C680 C682 1.419 . S
C680 H684 0.930 . S
C681 C680 1.369 . S
C681 C690 1.429 . S
C682 C680 1.419 . S
C682 C683 1.363 1_455 S
C682 H685 0.929 . S
C683 C682 1.363 1_655 S
C683 C689 1.428 1_655 S
H684 C680 0.930 . S
H685 C682 0.929 . S
S686 N687 1.613 . S
S686 N688 1.610 1_455 S
N687 S686 1.613 . S
N687 C690 1.350 . S
N688 S686 1.610 1_655 S
N688 C689 1.351 1_655 S
C689 C683 1.428 1_455 S
C689 N688 1.351 1_455 S
C689 C690 1.434 . S
C690 C681 1.429 . S
C690 N687 1.350 . S
C690 C689 1.434 . S
C691 C692 1.369 . S
C691 C693 1.419 . S
C691 H695 0.930 . S
C692 C691 1.369 . S
C692 C701 1.429 . S
C693 C691 1.419 . S
C693 C694 1.363 1_545 S
C693 H696 0.929 1_545 S
C694 C693 1.363 1_565 S
C694 C700 1.428 1_565 S
H695 C691 0.930 . S
H696 C693 0.929 1_565 S
S697 N698 1.613 . S
S697 N699 1.610 . S
N698 S697 1.613 . S
N698 C701 1.350 . S
N699 S697 1.610 . S
N699 C700 1.351 . S
C700 C694 1.428 1_545 S
C700 N699 1.351 . S
C700 C701 1.434 . S
C701 C692 1.429 . S
C701 N698 1.350 . S
C701 C700 1.434 . S
C702 C703 1.369 . S
C702 C704 1.419 . S
C702 H706 0.930 . S
C703 C702 1.369 . S
C703 C712 1.429 . S
C704 C702 1.419 . S
C704 C705 1.363 . S
C704 H707 0.929 . S
C705 C704 1.363 . S
C705 C711 1.428 . S
H706 C702 0.930 . S
H707 C704 0.929 . S
S708 N709 1.613 . S
S708 N710 1.610 . S
N709 S708 1.613 . S
N709 C712 1.350 . S
N710 S708 1.610 . S
N710 C711 1.351 . S
C711 C705 1.428 . S
C711 N710 1.351 . S
C711 C712 1.434 . S
C712 C703 1.429 . S
C712 N709 1.350 . S
C712 C711 1.434 . S
C713 C714 1.369 . S
C713 C715 1.419 . S
C713 H717 0.930 . S
C714 C713 1.369 . S
C714 C723 1.429 . S
C715 C713 1.419 . S
C715 C716 1.363 . S
C715 H718 0.929 . S
C716 C715 1.363 . S
C716 C722 1.428 . S
H717 C713 0.930 . S
H718 C715 0.929 . S
S719 N720 1.613 . S
S719 N721 1.610 . S
N720 S719 1.613 . S
N720 C723 1.350 . S
N721 S719 1.610 . S
N721 C722 1.351 . S
C722 C716 1.428 . S
C722 N721 1.351 . S
C722 C723 1.434 . S
C723 C714 1.429 . S
C723 N720 1.350 . S
C723 C722 1.434 . S
C724 C725 1.369 . S
C724 C726 1.419 . S
C724 H728 0.930 . S
C725 C724 1.369 . S
C725 C734 1.429 . S
C726 C724 1.419 . S
C726 C727 1.363 1_655 S
C726 H729 0.929 . S
C727 C726 1.363 1_455 S
C727 C733 1.428 . S
H728 C724 0.930 . S
H729 C726 0.929 . S
S730 N731 1.613 1_455 S
S730 N732 1.610 . S
N731 S730 1.613 1_655 S
N731 C734 1.350 . S
N732 S730 1.610 . S
N732 C733 1.351 . S
C733 C727 1.428 . S
C733 N732 1.351 . S
C733 C734 1.434 1_455 S
C734 C725 1.429 . S
C734 N731 1.350 . S
C734 C733 1.434 1_655 S
C735 C736 1.369 . S
C735 C737 1.419 1_565 S
C735 H739 0.930 . S
C736 C735 1.369 . S
C736 C745 1.429 1_554 S
C737 C735 1.419 1_545 S
C737 C738 1.363 . S
C737 H740 0.929 . S
C738 C737 1.363 . S
C738 C744 1.428 1_544 S
H739 C735 0.930 . S
H740 C737 0.929 . S
S741 N742 1.613 . S
S741 N743 1.610 . S
N742 S741 1.613 . S
N742 C745 1.350 . S
N743 S741 1.610 . S
N743 C744 1.351 . S
C744 C738 1.428 1_566 S
C744 N743 1.351 . S
C744 C745 1.434 . S
C745 C736 1.429 1_556 S
C745 N742 1.350 . S
C745 C744 1.434 . S
C746 C747 1.369 . S
C746 C748 1.419 . S
C746 H750 0.930 . S
C747 C746 1.369 . S
C747 C756 1.429 1_554 S
C748 C746 1.419 . S
C748 C749 1.363 . S
C748 H751 0.929 . S
C749 C748 1.363 . S
C749 C755 1.428 1_554 S
H750 C746 0.930 . S
H751 C748 0.929 . S
S752 N753 1.613 . S
S752 N754 1.610 . S
N753 S752 1.613 . S
N753 C756 1.350 . S
N754 S752 1.610 . S
N754 C755 1.351 . S
C755 C749 1.428 1_556 S
C755 N754 1.351 . S
C755 C756 1.434 . S
C756 C747 1.429 1_556 S
C756 N753 1.350 . S
C756 C755 1.434 . S
C757 C758 1.369 . S
C757 C759 1.419 1_554 S
C757 H761 0.930 1_554 S
C758 C757 1.369 . S
C758 C767 1.429 . S
C759 C757 1.419 1_556 S
C759 C760 1.363 1_556 S
C759 H762 0.929 . S
C760 C759 1.363 1_554 S
C760 C766 1.428 . S
H761 C757 0.930 1_556 S
H762 C759 0.929 . S
S763 N764 1.613 . S
S763 N765 1.610 . S
N764 S763 1.613 . S
N764 C767 1.350 . S
N765 S763 1.610 . S
N765 C766 1.351 . S
C766 C760 1.428 . S
C766 N765 1.351 . S
C766 C767 1.434 . S
C767 C758 1.429 . S
C767 N764 1.350 . S
C767 C766 1.434 . S
C768 C769 1.369 . S
C768 C770 1.419 . S
C768 H772 0.930 . S
C769 C768 1.369 . S
C769 C778 1.429 . S
C770 C768 1.419 . S
C770 C771 1.363 . S
C770 H773 0.929 . S
C771 C770 1.363 . S
C771 C777 1.428 . S
H772 C768 0.930 . S
H773 C770 0.929 . S
S774 N775 1.589 1_655 S
S774 N776 1.610 . S
N775 S774 1.589 1_455 S
N775 C778 1.376 . S
N776 S774 1.610 . S
N776 C777 1.351 1_655 S
C777 C771 1.428 . S
C777 N776 1.351 1_455 S
C777 C778 1.434 . S
C778 C769 1.429 . S
C778 N775 1.376 . S
C778 C777 1.434 . S
C779 C780 1.369 . S
C779 C781 1.419 . S
C779 H783 0.930 . S
C780 C779 1.369 . S
C780 C789 1.429 . S
C781 C779 1.419 . S
C781 C782 1.363 . S
C781 H784 0.929 . S
C782 C781 1.363 . S
C782 C788 1.428 . S
H783 C779 0.930 . S
H784 C781 0.929 . S
S785 N786 1.613 1_565 S
S785 N787 1.610 1_565 S
N786 S785 1.613 1_545 S
N786 C789 1.350 . S
N787 S785 1.610 1_545 S
N787 C788 1.351 . S
C788 C782 1.428 . S
C788 N787 1.351 . S
C788 C789 1.434 . S
C789 C780 1.429 . S
C789 N786 1.350 . S
C789 C788 1.434 . S
C790 C791 1.369 . S
C790 C792 1.419 . S
C790 H794 0.930 . S
C791 C790 1.369 . S
C791 C800 1.429 . S
C792 C790 1.419 . S
C792 C793 1.363 . S
C792 H795 0.929 . S
C793 C792 1.363 . S
C793 C799 1.428 . S
H794 C790 0.930 . S
H795 C792 0.929 . S
S796 N797 1.613 . S
S796 N798 1.610 . S
N797 S796 1.613 . S
N797 C800 1.350 . S
N798 S796 1.610 . S
N798 C799 1.351 . S
C799 C793 1.428 . S
C799 N798 1.351 . S
C799 C800 1.434 . S
C800 C791 1.429 . S
C800 N797 1.350 . S
C800 C799 1.434 . S
C801 C802 1.369 . S
C801 C803 1.419 . S
C801 H805 0.930 . S
C802 C801 1.369 . S
C802 C811 1.429 . S
C803 C801 1.419 . S
C803 C804 1.363 . S
C803 H806 0.929 . S
C804 C803 1.363 . S
C804 C810 1.428 . S
H805 C801 0.930 . S
H806 C803 0.929 . S
S807 N808 1.613 . S
S807 N809 1.610 . S
N808 S807 1.613 . S
N808 C811 1.350 . S
N809 S807 1.610 . S
N809 C810 1.351 . S
C810 C804 1.428 . S
C810 N809 1.351 . S
C810 C811 1.434 . S
C811 C802 1.429 . S
C811 N808 1.350 . S
C811 C810 1.434 . S
C812 C813 1.369 . S
C812 C814 1.419 . S
C812 H816 0.930 . S
C813 C812 1.369 . S
C813 C822 1.429 . S
C814 C812 1.419 . S
C814 C815 1.363 . S
C814 H817 0.929 . S
C815 C814 1.363 . S
C815 C821 1.428 . S
H816 C812 0.930 . S
H817 C814 0.929 . S
S818 N819 1.613 . S
S818 N820 1.610 . S
N819 S818 1.613 . S
N819 C822 1.350 1_455 S
N820 S818 1.610 . S
N820 C821 1.351 1_455 S
C821 C815 1.428 . S
C821 N820 1.351 1_655 S
C821 C822 1.434 . S
C822 C813 1.429 . S
C822 N819 1.350 1_655 S
C822 C821 1.434 . S
C823 C824 1.369 . S
C823 C825 1.419 . S
C823 H827 0.930 . S
C824 C823 1.369 . S
C824 C833 1.429 . S
C825 C823 1.419 . S
C825 C826 1.363 . S
C825 H828 0.929 . S
C826 C825 1.363 . S
C826 C832 1.428 . S
H827 C823 0.930 . S
H828 C825 0.929 . S
S829 N830 1.613 1_545 S
S829 N831 1.610 . S
N830 S829 1.613 1_565 S
N830 C833 1.350 . S
N831 S829 1.610 . S
N831 C832 1.351 1_545 S
C832 C826 1.428 . S
C832 N831 1.351 1_565 S
C832 C833 1.434 . S
C833 C824 1.429 . S
C833 N830 1.350 . S
C833 C832 1.434 . S
C834 C835 1.369 . S
C834 C836 1.419 . S
C834 H838 0.930 . S
C835 C834 1.369 . S
C835 C844 1.429 . S
C836 C834 1.419 . S
C836 C837 1.363 . S
C836 H839 0.929 . S
C837 C836 1.363 . S
C837 C843 1.428 . S
H838 C834 0.930 . S
H839 C836 0.929 . S
S840 N841 1.613 . S
S840 N842 1.610 . S
N841 S840 1.613 . S
N841 C844 1.350 . S
N842 S840 1.610 . S
N842 C843 1.351 . S
C843 C837 1.428 . S
C843 N842 1.351 . S
C843 C844 1.434 . S
C844 C835 1.429 . S
C844 N841 1.350 . S
C844 C843 1.434 . S
C845 C846 1.369 . S
C845 C847 1.419 . S
C845 H849 0.930 . S
C846 C845 1.369 . S
C846 C855 1.429 . S
C847 C845 1.419 . S
C847 C848 1.363 . S
C847 H850 0.929 . S
C848 C847 1.363 . S
C848 C854 1.428 . S
H849 C845 0.930 . S
H850 C847 0.929 . S
S851 N852 1.613 . S
S851 N853 1.610 . S
N852 S851 1.613 . S
N852 C855 1.350 . S
N853 S851 1.610 . S
N853 C854 1.351 . S
C854 C848 1.428 . S
C854 N853 1.351 . S
C854 C855 1.434 . S
C855 C846 1.429 . S
C855 N852 1.350 . S
C855 C854 1.434 . S
C593 C215 2.407 . S
C595 C330 2.464 . S
C606 C414 2.475 . S
C604 C247 2.413 . S
C617 C480 2.320 . S
C615 C151 2.488 . S
C628 C564 2.310 . S
C626 C183 2.488 . S
C639 C319 2.463 1_565 S
C637 C87 2.304 . S
C648 C119 2.295 . S
C650 C403 2.476 . S
C659 C23 2.364 . S
C661 C491 2.318 . S
C670 C55 2.376 . S
C672 C575 2.310 . S
C683 C326 1.077 . S
C681 C189 1.031 . S
C694 C410 1.016 . S
C692 C221 0.983 . S
C705 C482 0.989 . S
C703 C253 0.966 . S
C714 C157 1.002 . S
C716 C566 1.037 . S
C725 C61 0.853 . S
C727 C314 1.076 . S
C738 C398 1.014 . S
C736 C93 0.849 . S
C749 C494 0.988 . S
C747 C125 0.832 . S
C758 C29 0.853 . S
C760 C578 1.035 . S
C769 C177 2.711 . S
C771 C323 2.828 . S
C780 C209 2.688 . S
C782 C407 2.802 . S
C793 C487 2.936 . S
C791 C241 2.602 . S
C804 C571 2.959 . S
C802 C145 2.621 . S
C813 C49 2.640 . S
C815 C312 2.825 . S
C826 C396 2.804 . S
C824 C81 2.617 . S
C837 C498 2.936 . S
C835 C113 2.522 . S
C846 C17 2.538 . S
C848 C582 2.957 . S
