# Generated by pormake.
# Topology eea, (3,6)-cn, num edge types: 1
# Building blocks:
#     Node 0, Type 0, BuildingBlock: CUQRIR_clean_linker_1, # of connection points: 3
#     Node 1, Type 0, BuildingBlock: CUQRIR_clean_linker_1, # of connection points: 3
#     Node 2, Type 0, BuildingBlock: CUQRIR_clean_linker_1, # of connection points: 3
#     Node 3, Type 0, BuildingBlock: CUQRIR_clean_linker_1, # of connection points: 3
#     Node 4, Type 0, BuildingBlock: CUQRIR_clean_linker_1, # of connection points: 3
#     Node 5, Type 0, BuildingBlock: CUQRIR_clean_linker_1, # of connection points: 3
#     Node 6, Type 0, BuildingBlock: CUQRIR_clean_linker_1, # of connection points: 3
#     Node 7, Type 0, BuildingBlock: CUQRIR_clean_linker_1, # of connection points: 3
#     Node 8, Type 0, BuildingBlock: CUQRIR_clean_linker_1, # of connection points: 3
#     Node 9, Type 0, BuildingBlock: CUQRIR_clean_linker_1, # of connection points: 3
#     Node 10, Type 0, BuildingBlock: CUQRIR_clean_linker_1, # of connection points: 3
#     Node 11, Type 0, BuildingBlock: CUQRIR_clean_linker_1, # of connection points: 3
#     Node 12, Type 0, BuildingBlock: CUQRIR_clean_linker_1, # of connection points: 3
#     Node 13, Type 0, BuildingBlock: CUQRIR_clean_linker_1, # of connection points: 3
#     Node 14, Type 0, BuildingBlock: CUQRIR_clean_linker_1, # of connection points: 3
#     Node 15, Type 0, BuildingBlock: CUQRIR_clean_linker_1, # of connection points: 3
#     Node 16, Type 0, BuildingBlock: CUQRIR_clean_linker_1, # of connection points: 3
#     Node 17, Type 0, BuildingBlock: CUQRIR_clean_linker_1, # of connection points: 3
#     Node 18, Type 1, BuildingBlock: KUMJIN_clean_sbu_0, # of connection points: 6
#     Node 19, Type 1, BuildingBlock: KUMJIN_clean_sbu_0, # of connection points: 6
#     Node 20, Type 1, BuildingBlock: KUMJIN_clean_sbu_0, # of connection points: 6
#     Node 21, Type 1, BuildingBlock: KUMJIN_clean_sbu_0, # of connection points: 6
#     Node 22, Type 1, BuildingBlock: KUMJIN_clean_sbu_0, # of connection points: 6
#     Node 23, Type 1, BuildingBlock: KUMJIN_clean_sbu_0, # of connection points: 6
#     Node 24, Type 1, BuildingBlock: KUMJIN_clean_sbu_0, # of connection points: 6
#     Node 25, Type 1, BuildingBlock: KUMJIN_clean_sbu_0, # of connection points: 6
#     Node 26, Type 1, BuildingBlock: KUMJIN_clean_sbu_0, # of connection points: 6
#     Edge 27, Type (0, 1), BuildingBlock: AJUNOK_clean_linker_0, # of connection points: 2
#     Edge 28, Type (0, 1), BuildingBlock: AJUNOK_clean_linker_0, # of connection points: 2
#     Edge 29, Type (0, 1), BuildingBlock: AJUNOK_clean_linker_0, # of connection points: 2
#     Edge 30, Type (0, 1), BuildingBlock: AJUNOK_clean_linker_0, # of connection points: 2
#     Edge 31, Type (0, 1), BuildingBlock: AJUNOK_clean_linker_0, # of connection points: 2
#     Edge 32, Type (0, 1), BuildingBlock: AJUNOK_clean_linker_0, # of connection points: 2
#     Edge 33, Type (0, 1), BuildingBlock: AJUNOK_clean_linker_0, # of connection points: 2
#     Edge 34, Type (0, 1), BuildingBlock: AJUNOK_clean_linker_0, # of connection points: 2
#     Edge 35, Type (0, 1), BuildingBlock: AJUNOK_clean_linker_0, # of connection points: 2
#     Edge 36, Type (0, 1), BuildingBlock: AJUNOK_clean_linker_0, # of connection points: 2
#     Edge 37, Type (0, 1), BuildingBlock: AJUNOK_clean_linker_0, # of connection points: 2
#     Edge 38, Type (0, 1), BuildingBlock: AJUNOK_clean_linker_0, # of connection points: 2
#     Edge 39, Type (0, 1), BuildingBlock: AJUNOK_clean_linker_0, # of connection points: 2
#     Edge 40, Type (0, 1), BuildingBlock: AJUNOK_clean_linker_0, # of connection points: 2
#     Edge 41, Type (0, 1), BuildingBlock: AJUNOK_clean_linker_0, # of connection points: 2
#     Edge 42, Type (0, 1), BuildingBlock: AJUNOK_clean_linker_0, # of connection points: 2
#     Edge 43, Type (0, 1), BuildingBlock: AJUNOK_clean_linker_0, # of connection points: 2
#     Edge 44, Type (0, 1), BuildingBlock: AJUNOK_clean_linker_0, # of connection points: 2
#     Edge 45, Type (0, 1), BuildingBlock: AJUNOK_clean_linker_0, # of connection points: 2
#     Edge 46, Type (0, 1), BuildingBlock: AJUNOK_clean_linker_0, # of connection points: 2
#     Edge 47, Type (0, 1), BuildingBlock: AJUNOK_clean_linker_0, # of connection points: 2
#     Edge 48, Type (0, 1), BuildingBlock: AJUNOK_clean_linker_0, # of connection points: 2
#     Edge 49, Type (0, 1), BuildingBlock: AJUNOK_clean_linker_0, # of connection points: 2
#     Edge 50, Type (0, 1), BuildingBlock: AJUNOK_clean_linker_0, # of connection points: 2
#     Edge 51, Type (0, 1), BuildingBlock: AJUNOK_clean_linker_0, # of connection points: 2
#     Edge 52, Type (0, 1), BuildingBlock: AJUNOK_clean_linker_0, # of connection points: 2
#     Edge 53, Type (0, 1), BuildingBlock: AJUNOK_clean_linker_0, # of connection points: 2
#     Edge 54, Type (0, 1), BuildingBlock: AJUNOK_clean_linker_0, # of connection points: 2
#     Edge 55, Type (0, 1), BuildingBlock: AJUNOK_clean_linker_0, # of connection points: 2
#     Edge 56, Type (0, 1), BuildingBlock: AJUNOK_clean_linker_0, # of connection points: 2
#     Edge 57, Type (0, 1), BuildingBlock: AJUNOK_clean_linker_0, # of connection points: 2
#     Edge 58, Type (0, 1), BuildingBlock: AJUNOK_clean_linker_0, # of connection points: 2
#     Edge 59, Type (0, 1), BuildingBlock: AJUNOK_clean_linker_0, # of connection points: 2
#     Edge 60, Type (0, 1), BuildingBlock: AJUNOK_clean_linker_0, # of connection points: 2
#     Edge 61, Type (0, 1), BuildingBlock: AJUNOK_clean_linker_0, # of connection points: 2
#     Edge 62, Type (0, 1), BuildingBlock: AJUNOK_clean_linker_0, # of connection points: 2
#     Edge 63, Type (0, 1), BuildingBlock: AJUNOK_clean_linker_0, # of connection points: 2
#     Edge 64, Type (0, 1), BuildingBlock: AJUNOK_clean_linker_0, # of connection points: 2
#     Edge 65, Type (0, 1), BuildingBlock: AJUNOK_clean_linker_0, # of connection points: 2
#     Edge 66, Type (0, 1), BuildingBlock: AJUNOK_clean_linker_0, # of connection points: 2
#     Edge 67, Type (0, 1), BuildingBlock: AJUNOK_clean_linker_0, # of connection points: 2
#     Edge 68, Type (0, 1), BuildingBlock: AJUNOK_clean_linker_0, # of connection points: 2
#     Edge 69, Type (0, 1), BuildingBlock: AJUNOK_clean_linker_0, # of connection points: 2
#     Edge 70, Type (0, 1), BuildingBlock: AJUNOK_clean_linker_0, # of connection points: 2
#     Edge 71, Type (0, 1), BuildingBlock: AJUNOK_clean_linker_0, # of connection points: 2
#     Edge 72, Type (0, 1), BuildingBlock: AJUNOK_clean_linker_0, # of connection points: 2
#     Edge 73, Type (0, 1), BuildingBlock: AJUNOK_clean_linker_0, # of connection points: 2
#     Edge 74, Type (0, 1), BuildingBlock: AJUNOK_clean_linker_0, # of connection points: 2
#     Edge 75, Type (0, 1), BuildingBlock: AJUNOK_clean_linker_0, # of connection points: 2
#     Edge 76, Type (0, 1), BuildingBlock: AJUNOK_clean_linker_0, # of connection points: 2
#     Edge 77, Type (0, 1), BuildingBlock: AJUNOK_clean_linker_0, # of connection points: 2
#     Edge 78, Type (0, 1), BuildingBlock: AJUNOK_clean_linker_0, # of connection points: 2
#     Edge 79, Type (0, 1), BuildingBlock: AJUNOK_clean_linker_0, # of connection points: 2
#     Edge 80, Type (0, 1), BuildingBlock: AJUNOK_clean_linker_0, # of connection points: 2
# Relax obj value: 0.041
# Max RMSD: 0.228
# Mean RMSD: 0.163
data_MOF--net-eea--node1-KUMJIN_clean_sbu_0--node2-CUQRIR_clean_linker_1--edge1-AJUNOK_clean_linker_0
_symmetry_space_group_name_H-M    P1
_symmetry_Int_Tables_number       1
_symmetry_cell_setting            triclinic
loop_
_symmetry_equiv_pos_as_xyz
'x, y, z'
_cell_length_a     33.424021
_cell_length_b     36.248929
_cell_length_c     48.785187
_cell_angle_alpha  83.257993
_cell_angle_beta   89.903986
_cell_angle_gamma 118.49608
loop_
_atom_site_label
_atom_site_type_symbol
_atom_site_fract_x
_atom_site_fract_y
_atom_site_fract_z
_atom_type_partial_charge
C0 C 0.21704 0.10945 0.40557 0.0
N1 N 0.22875 0.13971 0.42263 0.0
N2 N 0.2202 0.07552 0.41806 0.0
C3 C 0.20747 0.11514 0.37567 0.0
C4 C 0.23495 0.08652 0.44324 0.0
N5 N 0.23998 0.1253 0.44611 0.0
C6 C 0.24582 0.05973 0.46473 0.0
H7 H 0.17033 0.10264 0.37382 0.0
H8 H 0.2188 0.09763 0.36326 0.0
H9 H 0.22503 0.14921 0.36706 0.0
H10 H 0.28211 0.06799 0.46125 0.0
H11 H 0.2242 0.02555 0.46321 0.0
H12 H 0.24085 0.06529 0.48598 0.0
C13 C 0.92088 0.12058 0.40572 0.0
N14 N 0.9403 0.15192 0.42208 0.0
N15 N 0.88204 0.08707 0.41836 0.0
C16 C 0.94108 0.12206 0.3778 0.0
C17 C 0.87846 0.09964 0.44305 0.0
N18 N 0.91398 0.1385 0.44562 0.0
C19 C 0.83747 0.07631 0.46339 0.0
H20 H 0.92823 0.13744 0.36182 0.0
H21 H 0.93117 0.0897 0.3731 0.0
H22 H 0.97885 0.14097 0.37676 0.0
H23 H 0.84489 0.05784 0.48045 0.0
H24 H 0.80693 0.05434 0.45341 0.0
H25 H 0.82978 0.09901 0.47257 0.0
C26 C 0.89119 0.78581 0.38755 0.0
N27 N 0.91393 0.77274 0.40571 0.0
N28 N 0.84983 0.77587 0.39891 0.0
C29 C 0.90872 0.80691 0.35852 0.0
C30 C 0.84832 0.7569 0.42474 0.0
N31 N 0.88718 0.75481 0.42889 0.0
C32 C 0.8102 0.7426 0.4467 0.0
H33 H 0.93662 0.83966 0.35903 0.0
H34 H 0.8815 0.80811 0.34612 0.0
H35 H 0.92294 0.78938 0.34856 0.0
H36 H 0.78015 0.74441 0.43867 0.0
H37 H 0.82271 0.76292 0.46341 0.0
H38 H 0.79971 0.70962 0.45605 0.0
C39 C 0.12402 0.25144 0.68059 0.0
N40 N 0.15847 0.26126 0.6617 0.0
N41 N 0.0917 0.25915 0.66893 0.0
C42 C 0.12214 0.23441 0.71037 0.0
C43 C 0.10719 0.27338 0.64215 0.0
N44 N 0.14769 0.27431 0.63754 0.0
C45 C 0.08196 0.28528 0.6203 0.0
H46 H 0.08871 0.22439 0.72127 0.0
H47 H 0.14929 0.25966 0.72063 0.0
H48 H 0.12903 0.20721 0.71178 0.0
H49 H 0.05936 0.29588 0.62927 0.0
H50 H 0.06037 0.25714 0.61003 0.0
H51 H 0.10617 0.31095 0.60442 0.0
C52 C 0.80597 0.91255 0.66225 0.0
N53 N 0.79182 0.88115 0.64599 0.0
N54 N 0.79871 0.94448 0.65067 0.0
C55 C 0.82958 0.91349 0.68861 0.0
C56 C 0.77973 0.93153 0.62672 0.0
N57 N 0.77623 0.89341 0.62353 0.0
C58 C 0.76026 0.95406 0.60784 0.0
H59 H 0.80387 0.90039 0.70642 0.0
H60 H 0.85465 0.94652 0.69126 0.0
H61 H 0.84732 0.89424 0.68881 0.0
H62 H 0.78534 0.97329 0.59017 0.0
H63 H 0.75269 0.97539 0.6188 0.0
H64 H 0.72847 0.9309 0.59947 0.0
C65 C 0.1047 0.9198 0.66517 0.0
N66 N 0.08717 0.88704 0.64978 0.0
N67 N 0.14185 0.95415 0.65169 0.0
C68 C 0.08847 0.91657 0.69444 0.0
C69 C 0.14574 0.94117 0.62733 0.0
N70 N 0.11326 0.90057 0.62618 0.0
C71 C 0.18044 0.96873 0.60394 0.0
H72 H 0.05736 0.92022 0.69447 0.0
H73 H 0.11471 0.9412 0.70557 0.0
H74 H 0.0796 0.88489 0.70544 0.0
H75 H 0.20923 0.9616 0.60428 0.0
H76 H 0.19386 1.00284 0.60564 0.0
H77 H 0.16494 0.96188 0.58379 0.0
C78 C 0.87524 0.4398 0.74194 0.0
N79 N 0.89377 0.47291 0.75677 0.0
N80 N 0.88135 0.40723 0.75382 0.0
C81 C 0.84944 0.43848 0.71652 0.0
C82 C 0.90451 0.42191 0.7764 0.0
N83 N 0.91154 0.46153 0.77836 0.0
C84 C 0.92217 0.39843 0.79589 0.0
H85 H 0.82231 0.40566 0.71516 0.0
H86 H 0.87332 0.44934 0.69791 0.0
H87 H 0.83398 0.45961 0.71658 0.0
H88 H 0.95573 0.42039 0.80302 0.0
H89 H 0.92558 0.37392 0.78604 0.0
H90 H 0.898 0.38286 0.81442 0.0
C91 C 0.58625 0.45262 0.74065 0.0
N92 N 0.60856 0.48341 0.75712 0.0
N93 N 0.54675 0.42062 0.75361 0.0
C94 C 0.60081 0.45548 0.71103 0.0
C95 C 0.54599 0.43295 0.77873 0.0
N96 N 0.58262 0.47129 0.78074 0.0
C97 C 0.51165 0.40562 0.80237 0.0
H98 H 0.57083 0.4389 0.69882 0.0
H99 H 0.62267 0.44027 0.71009 0.0
H100 H 0.62058 0.48901 0.70174 0.0
H101 H 0.49584 0.37161 0.79974 0.0
H102 H 0.48434 0.41462 0.80327 0.0
H103 H 0.52808 0.41031 0.82234 0.0
C104 C 0.55342 0.11954 0.7232 0.0
N105 N 0.57792 0.10788 0.74089 0.0
N106 N 0.51229 0.10874 0.73537 0.0
C107 C 0.56839 0.14011 0.69383 0.0
C108 C 0.51266 0.09074 0.76117 0.0
N109 N 0.55244 0.09007 0.76453 0.0
C110 C 0.47575 0.07669 0.78394 0.0
H111 H 0.60144 0.14282 0.68732 0.0
H112 H 0.57137 0.17216 0.69157 0.0
H113 H 0.5421 0.1212 0.68005 0.0
H114 H 0.4427 0.07139 0.77602 0.0
H115 H 0.48634 0.10161 0.7977 0.0
H116 H 0.47101 0.04721 0.7966 0.0
C117 C 0.78959 0.58247 1.01627 0.0
N118 N 0.82101 0.58919 0.99611 0.0
N119 N 0.75698 0.59065 1.00574 0.0
C120 C 0.79179 0.56978 0.04634 0.0
C121 C 0.76899 0.60178 0.97837 0.0
N122 N 0.80865 0.60193 0.97252 0.0
C123 C 0.7389 0.60728 0.95707 0.0
H124 H 0.78985 0.53816 0.04941 0.0
H125 H 0.76389 0.56895 0.0592 0.0
H126 H 0.82504 0.59312 0.053 0.0
H127 H 0.74742 0.64109 0.95354 0.0
H128 H 0.70233 0.58825 0.96427 0.0
H129 H 0.74389 0.59775 0.93709 0.0
C130 C 0.46764 0.24169 0.99779 0.0
N131 N 0.4566 0.21145 0.98077 0.0
N132 N 0.46003 0.27344 0.98609 0.0
C133 C 0.48564 0.24021 0.02596 0.0
C134 C 0.44474 0.26192 0.96112 0.0
N135 N 0.44298 0.22456 0.95771 0.0
C136 C 0.42982 0.28633 0.94038 0.0
H137 H 0.45644 0.22275 0.04161 0.0
H138 H 0.50671 0.27235 0.03169 0.0
H139 H 0.50638 0.2237 0.02676 0.0
H140 H 0.43811 0.31773 0.94621 0.0
H141 H 0.39245 0.26763 0.93873 0.0
H142 H 0.44651 0.29116 0.91966 0.0
C143 C 0.77241 0.24932 0.99714 0.0
N144 N 0.75504 0.21534 0.98269 0.0
N145 N 0.81153 0.28202 0.98415 0.0
C146 C 0.75333 0.25031 0.02479 0.0
C147 C 0.81778 0.26644 0.96149 0.0
N148 N 0.78377 0.22636 0.9605 0.0
C149 C 0.85824 0.28972 0.94074 0.0
H150 H 0.75494 0.28149 0.02545 0.0
H151 H 0.77443 0.24619 0.04111 0.0
H152 H 0.71797 0.22486 0.02972 0.0
H153 H 0.86994 0.26804 0.93414 0.0
H154 H 0.88722 0.31596 0.94923 0.0
H155 H 0.84793 0.30286 0.92207 0.0
C156 C 0.56918 0.78219 0.06785 0.0
N157 N 0.58301 0.81418 0.08382 0.0
N158 N 0.57479 0.74968 0.08044 0.0
C159 C 0.54874 0.78189 0.04029 0.0
C160 C 0.59281 0.76293 0.10451 0.0
N161 N 0.59797 0.80196 0.10661 0.0
C162 C 0.60352 0.73665 0.12643 0.0
H163 H 0.511 0.76509 0.04355 0.0
H164 H 0.55772 0.76467 0.02633 0.0
H165 H 0.5603 0.81457 0.0299 0.0
H166 H 0.6158 0.71734 0.11675 0.0
H167 H 0.57181 0.71467 0.13937 0.0
H168 H 0.62926 0.75632 0.14016 0.0
C169 C 0.24347 0.79072 0.06888 0.0
N170 N 0.2636 0.82141 0.08565 0.0
N171 N 0.20533 0.75677 0.08166 0.0
C172 C 0.25864 0.79583 0.03907 0.0
C173 C 0.20283 0.768 0.10694 0.0
N174 N 0.23812 0.80697 0.10956 0.0
C175 C 0.16464 0.74128 0.12878 0.0
H176 H 0.22992 0.77586 0.02702 0.0
H177 H 0.28568 0.78658 0.03757 0.0
H178 H 0.27294 0.82941 0.0301 0.0
H179 H 0.14851 0.70726 0.12619 0.0
H180 H 0.13844 0.75179 0.12701 0.0
H181 H 0.17665 0.74459 0.1499 0.0
C182 C 0.22624 0.46656 0.06143 0.0
N183 N 0.24905 0.4521 0.07861 0.0
N184 N 0.18485 0.45543 0.07325 0.0
C185 C 0.24231 0.48846 0.03236 0.0
C186 C 0.1832 0.43418 0.09822 0.0
N187 N 0.22194 0.43161 0.10142 0.0
C188 C 0.14425 0.41701 0.1199 0.0
H189 H 0.26924 0.48264 0.02404 0.0
H190 H 0.25616 0.52305 0.03223 0.0
H191 H 0.21341 0.47744 0.01875 0.0
H192 H 0.12116 0.38307 0.11834 0.0
H193 H 0.1244 0.43433 0.11698 0.0
H194 H 0.15713 0.41936 0.14092 0.0
C195 C 0.45718 0.9144 0.35017 0.0
N196 N 0.49156 0.92409 0.33126 0.0
N197 N 0.42659 0.92507 0.33902 0.0
C198 C 0.45362 0.895 0.37954 0.0
C199 C 0.44329 0.94139 0.31261 0.0
N200 N 0.48268 0.94049 0.30773 0.0
C201 C 0.4196 0.95614 0.29124 0.0
H202 H 0.4398 0.86031 0.38034 0.0
H203 H 0.43073 0.90089 0.39267 0.0
H204 H 0.4879 0.90839 0.38768 0.0
H205 H 0.44292 0.97606 0.27302 0.0
H206 H 0.40587 0.97485 0.30018 0.0
H207 H 0.3904 0.92808 0.28442 0.0
C208 C 0.13888 0.57574 0.32902 0.0
N209 N 0.12485 0.54592 0.31152 0.0
N210 N 0.13313 0.6091 0.31848 0.0
C211 C 0.16067 0.57342 0.35568 0.0
C212 C 0.11536 0.59866 0.29384 0.0
N213 N 0.11077 0.56056 0.28932 0.0
C214 C 0.09868 0.62409 0.27535 0.0
H215 H 0.13361 0.55557 0.37258 0.0
H216 H 0.18318 0.60558 0.36111 0.0
H217 H 0.18074 0.55654 0.35416 0.0
H218 H 0.12593 0.64513 0.25913 0.0
H219 H 0.09024 0.64407 0.28719 0.0
H220 H 0.06796 0.60304 0.26509 0.0
C221 C 0.43791 0.58302 0.33007 0.0
N222 N 0.42153 0.54895 0.31579 0.0
N223 N 0.47729 0.61582 0.31742 0.0
C224 C 0.41683 0.58367 0.35707 0.0
C225 C 0.48409 0.60059 0.2948 0.0
N226 N 0.45075 0.56014 0.2938 0.0
C227 C 0.52475 0.6251 0.27429 0.0
H228 H 0.37962 0.57132 0.35597 0.0
H229 H 0.43211 0.61611 0.36287 0.0
H230 H 0.42234 0.5629 0.37338 0.0
H231 H 0.55648 0.63357 0.2852 0.0
H232 H 0.52578 0.65504 0.2652 0.0
H233 H 0.52407 0.60735 0.25714 0.0
Eu234 Eu 0.50539 0.99053 1.00229 0.0
C235 C 0.57175 0.13057 0.07765 0.0
C236 C 0.65387 0.16042 0.0744 0.0
C237 C 0.62008 0.20472 0.08283 0.0
C238 C 0.60987 0.12607 0.07307 0.0
C239 C 0.57637 0.16968 0.08323 0.0
C240 C 0.65878 0.2 0.07865 0.0
C241 C 0.49482 0.1351 0.09336 0.0
N242 N 0.53018 0.09562 0.07914 0.0
C243 C 0.49212 0.09682 0.08831 0.0
C244 C 0.53706 0.17187 0.09038 0.0
Eu245 Eu 0.52782 0.03236 0.06834 0.0
N246 N 0.60388 0.08723 0.06953 0.0
C247 C 0.64032 0.07989 0.06912 0.0
C248 C 0.6915 0.1535 0.07258 0.0
C249 C 0.68463 0.11295 0.07022 0.0
H250 H 0.45937 0.06845 0.09069 0.0
H251 H 0.71343 0.10708 0.0693 0.0
H252 H 0.6923 0.22685 0.07954 0.0
H253 H 0.46438 0.13617 0.09967 0.0
H254 H 0.63554 0.04869 0.06736 0.0
H255 H 0.32459 0.94404 0.99378 0.0
H256 H 0.72582 0.17891 0.07378 0.0
H257 H 0.56072 0.93746 0.9886 0.0
H258 H 0.4045 0.99208 1.00063 0.0
H259 H 0.54254 0.8649 0.98094 0.0
H260 H 0.62435 0.23512 0.08685 0.0
H261 H 0.3003 0.87012 0.98693 0.0
H262 H 0.32032 0.8121 0.98462 0.0
H263 H 0.53916 0.20139 0.09466 0.0
H264 H 0.3792 0.79009 0.98228 0.0
N265 N 0.42635 0.94587 0.9985 0.0
C266 C 0.39496 0.95994 0.99796 0.0
C267 C 0.33557 0.89082 0.9906 0.0
C268 C 0.36768 0.87643 0.99115 0.0
C269 C 0.34923 0.93265 0.99416 0.0
C270 C 0.41359 0.90522 0.99479 0.0
H271 H 0.46204 0.80955 0.98072 0.0
N272 N 0.49119 0.92236 0.99409 0.0
C273 C 0.51532 0.87233 0.98434 0.0
C274 C 0.44689 0.89301 0.99284 0.0
C275 C 0.52549 0.91328 0.9886 0.0
C276 C 0.46984 0.84115 0.98434 0.0
C277 C 0.435 0.85152 0.98795 0.0
O278 O 0.54627 1.00182 0.96408 0.0
O279 O 0.55291 0.04477 0.02396 0.0
O280 O 0.50749 0.07493 0.0407 0.0
O281 O 0.48206 0.04044 1.0016 0.0
O282 O 0.58328 0.02144 0.9996 0.0
O283 O 0.48908 0.01454 0.96323 0.0
O284 O 0.49229 1.00996 0.10948 0.0
O285 O 0.47843 0.9786 0.04659 0.0
O286 O 0.51505 0.94451 0.03304 0.0
O287 O 0.55981 0.98876 0.06387 0.0
O288 O 0.45051 1.00134 0.07333 0.0
O289 O 0.55758 0.01283 0.10333 0.0
C290 C 0.59126 0.05133 1.01426 0.0
C291 C 0.50876 0.99562 0.92252 0.0
C292 C 0.52109 1.00451 0.87213 0.0
C293 C 0.535 0.01898 0.89788 0.0
C294 C 0.48162 0.96501 0.87193 0.0
C295 C 0.46981 0.95648 0.92167 0.0
C296 C 0.45665 0.9411 0.89651 0.0
C297 C 0.48787 0.07033 1.01684 0.0
C298 C 0.52129 0.01341 0.94871 0.0
C299 C 0.38902 0.82217 0.98585 0.0
C300 C 0.35549 0.8347 0.98721 0.0
C301 C 0.44063 0.9734 0.0568 0.0
C302 C 0.53941 0.02467 0.14711 0.0
C303 C 0.53546 0.99904 0.1721 0.0
C304 C 0.54473 0.01624 0.19739 0.0
C305 C 0.55997 0.06002 0.19663 0.0
C306 C 0.55548 0.06808 0.14713 0.0
C307 C 0.56594 0.08565 0.17169 0.0
C308 C 0.54393 0.95308 0.05271 0.0
C309 C 0.5251 1.0058 0.12129 0.0
H310 H 0.56574 0.04863 0.89892 0.0
H311 H 0.46897 0.95299 0.85269 0.0
H312 H 0.44915 0.93817 0.94034 0.0
H313 H 0.42625 0.91103 0.89596 0.0
H314 H 0.52485 0.96588 0.17163 0.0
H315 H 0.5662 0.0746 0.2154 0.0
H316 H 0.55937 0.08839 0.12827 0.0
H317 H 0.57767 0.11916 0.17151 0.0
Eu318 Eu 0.03402 0.5386 0.99537 0.0
C319 C 0.87147 0.46629 0.08838 0.0
C320 C 0.85482 0.52367 0.09159 0.0
C321 C 0.79549 0.45093 0.10454 0.0
C322 C 0.88517 0.50902 0.08438 0.0
C323 C 0.82671 0.43671 0.09899 0.0
C324 C 0.80963 0.4944 0.10104 0.0
C325 C 0.84873 0.38198 0.10128 0.0
N326 N 0.90298 0.45389 0.08391 0.0
C327 C 0.8929 0.41267 0.09138 0.0
C328 C 0.81528 0.39397 0.1048 0.0
Eu329 Eu 0.97726 0.50693 0.06672 0.0
N330 N 0.92914 0.53643 0.07541 0.0
C331 C 0.94536 0.57908 0.07427 0.0
C332 C 0.8713 0.5673 0.09018 0.0
C333 C 0.9167 0.59513 0.08132 0.0
H334 H 0.91887 0.40338 0.08905 0.0
H335 H 0.92983 0.62898 0.08022 0.0
H336 H 0.7857 0.50509 0.10631 0.0
H337 H 0.84066 0.3492 0.10643 0.0
H338 H 0.98038 0.60116 0.0678 0.0
H339 H 0.08376 0.41764 0.98336 0.0
H340 H 0.84952 0.57977 0.09644 0.0
H341 H 0.09484 0.64389 0.97658 0.0
H342 H 0.0303 0.44516 0.99007 0.0
H343 H 0.17534 0.6983 0.96471 0.0
H344 H 0.76086 0.42871 0.11249 0.0
H345 H 0.16667 0.46689 0.9763 0.0
H346 H 0.23083 0.54186 0.97025 0.0
H347 H 0.78125 0.37026 0.11287 0.0
H348 H 0.25577 0.61826 0.96509 0.0
N349 N 0.08237 0.5094 0.98741 0.0
C350 C 0.06632 0.4671 0.98683 0.0
C351 C 0.14334 0.4792 0.97921 0.0
C352 C 0.15932 0.52276 0.97825 0.0
C353 C 0.09655 0.45133 0.98306 0.0
C354 C 0.12746 0.53712 0.98207 0.0
H355 H 0.23523 0.67687 0.96248 0.0
N356 N 0.10952 0.59258 0.98161 0.0
C357 C 0.16631 0.66517 0.96882 0.0
C358 C 0.14148 0.58004 0.97909 0.0
C359 C 0.12084 0.63436 0.97544 0.0
C360 C 0.20003 0.65294 0.96763 0.0
C361 C 0.18775 0.60989 0.97234 0.0
O362 O 0.0138 0.5665 0.9597 0.0
O363 O 0.97731 0.53273 0.02279 0.0
O364 O 0.9292 0.45702 0.04082 0.0
O365 O 0.97591 0.46931 1.001 0.0
O366 O 0.01218 0.58851 0.99575 0.0
O367 O 0.01683 0.50881 0.95721 0.0
O368 O 0.99322 0.47795 0.10416 0.0
O369 O 0.03179 0.5113 0.03865 0.0
O370 O 0.08346 0.58385 0.02318 0.0
O371 O 0.03325 0.57706 0.0592 0.0
O372 O 0.99999 0.45722 0.06686 0.0
O373 O 0.00801 0.54296 0.10103 0.0
C374 C 0.97842 0.56745 1.01405 0.0
C375 C 0.02816 0.5544 0.9151 0.0
C376 C 0.01774 0.55148 0.86544 0.0
C377 C 1.00259 0.53399 0.89335 0.0
C378 C 0.05859 0.5901 0.85989 0.0
C379 C 0.06958 0.59196 0.90883 0.0
C380 C 0.08453 0.60972 0.8814 0.0
C381 C 0.93797 0.44598 1.01741 0.0
C382 C 0.00948 0.53825 0.94406 0.0
C383 C 0.21998 0.5958 0.96991 0.0
C384 C 0.20578 0.55231 0.97286 0.0
C385 C 0.03172 0.47726 0.04733 0.0
C386 C 0.99152 0.5044 0.14601 0.0
C387 C 0.02121 0.5093 0.16756 0.0
C388 C 0.00556 0.50363 0.19555 0.0
C389 C 0.95983 0.49351 0.20123 0.0
C390 C 0.94607 0.49349 0.15252 0.0
C391 C 0.9304 0.48809 0.17995 0.0
C392 C 0.07348 0.59766 0.04483 0.0
C393 C 0.00812 0.51136 0.11676 0.0
H394 H 0.97085 0.50469 0.89823 0.0
H395 H 0.07038 0.60564 0.83892 0.0
H396 H 0.08981 0.6082 0.92512 0.0
H397 H 0.11602 0.63924 0.87679 0.0
H398 H 0.05636 0.51768 0.16251 0.0
H399 H 0.94687 0.49092 0.22211 0.0
H400 H 0.92283 0.48968 0.13636 0.0
H401 H 0.89541 0.48034 0.18474 0.0
Eu402 Eu 0.50585 0.48647 0.07501 0.0
C403 C 0.42928 0.56185 0.98277 0.0
C404 C 0.35046 0.50697 0.98452 0.0
C405 C 0.36966 0.58072 0.97231 0.0
C406 C 0.3969 0.51945 0.98814 0.0
C407 C 0.41612 0.59278 0.97398 0.0
C408 C 0.33691 0.53788 0.97746 0.0
C409 C 0.49594 0.64433 0.96538 0.0
N410 N 0.47394 0.57248 0.98394 0.0
C411 C 0.50724 0.61246 0.97385 0.0
C412 C 0.45016 0.63463 0.96596 0.0
Eu413 Eu 0.49033 0.51794 1.00185 0.0
N414 N 0.41112 0.49024 0.99471 0.0
C415 C 0.38107 0.4481 0.99512 0.0
C416 C 0.31924 0.46374 0.9869 0.0
C417 C 0.33477 0.43424 0.99177 0.0
H418 H 0.54267 0.61994 0.97325 0.0
H419 H 0.3111 0.40074 0.99283 0.0
H420 H 0.30134 0.52885 0.97496 0.0
H421 H 0.52249 0.67627 0.95834 0.0
H422 H 0.39195 0.42457 0.99831 0.0
H423 H 0.68026 0.60056 0.0942 0.0
H424 H 0.28338 0.45286 0.98403 0.0
H425 H 0.45125 0.38083 0.09234 0.0
H426 H 0.60045 0.57708 0.08325 0.0
H427 H 0.46984 0.3234 0.10712 0.0
H428 H 0.35885 0.60408 0.96597 0.0
H429 H 0.70725 0.54799 0.10468 0.0
H430 H 0.68896 0.47164 0.1124 0.0
H431 H 0.44142 0.65928 0.95915 0.0
H432 H 0.63169 0.39624 0.11602 0.0
N433 N 0.58247 0.51186 0.08672 0.0
C434 C 0.6116 0.55372 0.08792 0.0
C435 C 0.67209 0.53746 0.09995 0.0
C436 C 0.64128 0.49436 0.10045 0.0
C437 C 0.65696 0.56721 0.09411 0.0
C438 C 0.59592 0.48236 0.094 0.0
H439 H 0.54981 0.34068 0.1145 0.0
N440 N 0.52016 0.42972 0.09067 0.0
C441 C 0.49663 0.35604 0.10392 0.0
C442 C 0.5638 0.44 0.09598 0.0
C443 C 0.4862 0.38856 0.09563 0.0
C444 C 0.54183 0.36593 0.10801 0.0
C445 C 0.57599 0.40836 0.10448 0.0
O446 O 0.45431 0.45928 0.10968 0.0
O447 O 0.45907 0.49536 0.0454 0.0
O448 O 0.5059 0.57465 0.02446 0.0
O449 O 0.52305 0.55625 0.06903 0.0
O450 O 0.4316 0.43962 0.07266 0.0
O451 O 0.51637 0.51695 0.11285 0.0
O452 O 0.52411 0.49332 0.97626 0.0
O453 O 0.53808 0.51429 0.03223 0.0
O454 O 0.5085 0.44059 0.0477 0.0
O455 O 0.4653 0.44666 1.01161 0.0
O456 O 0.56381 0.5679 1.00294 0.0
O457 O 0.49504 0.52967 0.95626 0.0
C458 C 0.42234 0.46221 0.05396 0.0
C459 C 0.47805 0.47211 0.15494 0.0
C460 C 0.46782 0.47442 0.20464 0.0
C461 C 0.46982 0.49108 0.17657 0.0
C462 C 0.47268 0.43786 0.21046 0.0
C463 C 0.48418 0.43652 0.16168 0.0
C464 C 0.48114 0.4194 0.1892 0.0
C465 C 0.51892 0.58305 0.04972 0.0
C466 C 0.4778 0.48787 0.12548 0.0
C467 C 0.62154 0.42009 0.10977 0.0
C468 C 0.65414 0.46302 0.10773 0.0
C469 C 0.57349 0.54856 0.02365 0.0
C470 C 0.55758 0.53084 0.93156 0.0
C471 C 0.5547 0.51615 0.90551 0.0
C472 C 0.59278 0.53532 0.88577 0.0
C473 C 0.63337 0.56928 0.89263 0.0
C474 C 0.59867 0.56512 0.9374 0.0
C475 C 0.63607 0.58417 0.91806 0.0
C476 C 0.48359 0.42609 0.02643 0.0
C477 C 0.51812 0.51002 0.95264 0.0
H478 H 0.46548 0.51883 0.17157 0.0
H479 H 0.46999 0.42345 0.23161 0.0
H480 H 0.49058 0.42146 0.14564 0.0
H481 H 0.48522 0.39152 0.1941 0.0
H482 H 0.52321 0.48958 0.90079 0.0
H483 H 0.66297 0.5849 0.87804 0.0
H484 H 0.60208 0.57728 0.95692 0.0
H485 H 0.66741 0.61082 0.92276 0.0
Eu486 Eu 0.17443 0.32436 0.33397 0.0
C487 C 0.24261 0.46732 0.40739 0.0
C488 C 0.32374 0.49141 0.40769 0.0
C489 C 0.29489 0.54052 0.41295 0.0
C490 C 0.27886 0.4593 0.40512 0.0
C491 C 0.25009 0.5078 0.41188 0.0
C492 C 0.33161 0.53224 0.4111 0.0
C493 C 0.1684 0.479 0.41811 0.0
N494 N 0.19974 0.43455 0.40757 0.0
C495 C 0.16282 0.43922 0.41431 0.0
C496 C 0.21224 0.51363 0.41649 0.0
Eu497 Eu 0.19259 0.36858 0.3993 0.0
N498 N 0.26991 0.41926 0.40253 0.0
C499 C 0.30397 0.40857 0.40411 0.0
C500 C 0.35907 0.48105 0.40796 0.0
C501 C 0.34906 0.43935 0.40644 0.0
H502 H 0.12898 0.41229 0.41604 0.0
H503 H 0.37602 0.43084 0.40712 0.0
H504 H 0.36583 0.55733 0.41311 0.0
H505 H 0.13896 0.48284 0.42253 0.0
H506 H 0.29672 0.37644 0.40305 0.0
H507 H 0.99381 0.26038 0.31515 0.0
H508 H 0.39394 0.50462 0.41022 0.0
H509 H 0.24168 0.27945 0.32872 0.0
H510 H 0.07144 0.31591 0.32226 0.0
H511 H 0.2331 0.20832 0.32592 0.0
H512 H 0.30137 0.57189 0.41626 0.0
H513 H 0.97753 0.1861 0.31633 0.0
H514 H 0.00664 0.13352 0.31997 0.0
H515 H 0.21654 0.5443 0.41986 0.0
H516 H 0.07167 0.11936 0.32283 0.0
N517 N 0.09892 0.27356 0.32731 0.0
C518 C 0.06491 0.2837 0.32259 0.0
C519 C 0.01175 0.21038 0.31929 0.0
C520 C 0.04724 0.2005 0.32299 0.0
C521 C 0.02085 0.25229 0.31851 0.0
C522 C 0.09125 0.23335 0.32656 0.0
H523 H 0.15622 0.14709 0.32475 0.0
N524 N 0.17027 0.25811 0.32997 0.0
C525 C 0.20327 0.21267 0.32658 0.0
C526 C 0.12793 0.22537 0.32785 0.0
C527 C 0.20805 0.25284 0.32808 0.0
C528 C 0.15978 0.17817 0.32594 0.0
C529 C 0.12151 0.18438 0.32606 0.0
O530 O 0.22273 0.34544 0.29818 0.0
O531 O 0.22037 0.37917 0.35578 0.0
O532 O 0.17775 0.41193 0.36843 0.0
O533 O 0.14685 0.37184 0.33206 0.0
O534 O 0.25198 0.35375 0.33436 0.0
O535 O 0.1548 0.33668 0.29223 0.0
O536 O 0.15443 0.35156 0.4393 0.0
O537 O 0.14425 0.31628 0.37686 0.0
O538 O 0.17304 0.27606 0.36799 0.0
O539 O 0.21942 0.32029 0.39818 0.0
O540 O 0.11511 0.33926 0.40191 0.0
O541 O 0.21531 0.34528 0.43623 0.0
C542 C 0.2591 0.38448 0.34804 0.0
C543 C 0.19405 0.3268 0.25512 0.0
C544 C 0.21169 0.33522 0.20525 0.0
C545 C 0.20713 0.35199 0.22908 0.0
C546 C 0.20323 0.29299 0.20807 0.0
C547 C 0.18478 0.28453 0.25711 0.0
C548 C 0.1896 0.26785 0.23377 0.0
C549 C 0.15597 0.40475 0.34532 0.0
C550 C 0.19406 0.34586 0.28027 0.0
C551 C 0.07737 0.15118 0.32391 0.0
C552 C 0.04033 0.15924 0.32233 0.0
C553 C 0.10579 0.31108 0.38559 0.0
C554 C 0.1983 0.36224 0.47846 0.0
C555 C 0.19688 0.33707 0.50316 0.0
C556 C 0.20824 0.35464 0.52824 0.0
C557 C 0.22096 0.39784 0.52783 0.0
C558 C 0.21264 0.40536 0.47869 0.0
C559 C 0.22393 0.423 0.50321 0.0
C560 C 0.19971 0.2831 0.38872 0.0
C561 C 0.18345 0.34317 0.45277 0.0
H562 H 0.21309 0.38431 0.22742 0.0
H563 H 0.20676 0.27921 0.19029 0.0
H564 H 0.17443 0.26446 0.27669 0.0
H565 H 0.18281 0.2353 0.23563 0.0
H566 H 0.18618 0.30382 0.50284 0.0
H567 H 0.22712 0.41222 0.54668 0.0
H568 H 0.21414 0.4253 0.4601 0.0
H569 H 0.23386 0.45612 0.50328 0.0
Eu570 Eu 0.70244 0.87289 0.32855 0.0
C571 C 0.54529 0.80758 0.42055 0.0
C572 C 0.5371 0.86997 0.42259 0.0
C573 C 0.47134 0.80012 0.43385 0.0
C574 C 0.56401 0.85103 0.41686 0.0
C575 C 0.49899 0.78155 0.42977 0.0
C576 C 0.49047 0.84429 0.43049 0.0
C577 C 0.51255 0.72146 0.43439 0.0
N578 N 0.57335 0.79087 0.41747 0.0
C579 C 0.55836 0.74875 0.42579 0.0
C580 C 0.48249 0.73785 0.43594 0.0
Eu581 Eu 0.65026 0.83809 0.40124 0.0
N582 N 0.60933 0.87478 0.40971 0.0
C583 C 0.63036 0.91773 0.40956 0.0
C584 C 0.55825 0.91405 0.4213 0.0
C585 C 0.60514 0.93797 0.41498 0.0
H586 H 0.5818 0.73617 0.42513 0.0
H587 H 0.62196 0.97206 0.41433 0.0
H588 H 0.46919 0.85823 0.43486 0.0
H589 H 0.50061 0.68792 0.44007 0.0
H590 H 0.66651 0.93696 0.40474 0.0
H591 H 0.74616 0.74975 0.31065 0.0
H592 H 0.53893 0.92982 0.42583 0.0
H593 H 0.76451 0.97763 0.30767 0.0
H594 H 0.695 0.77882 0.31965 0.0
H595 H 0.845 0.03079 0.29417 0.0
H596 H 0.43561 0.78069 0.4407 0.0
H597 H 0.82945 0.7972 0.30351 0.0
H598 H 0.8952 0.87133 0.29779 0.0
H599 H 0.44713 0.71678 0.443 0.0
H600 H 0.92216 0.94805 0.29315 0.0
N601 N 0.74866 0.84226 0.31827 0.0
C602 C 0.73116 0.80009 0.31636 0.0
C603 C 0.8071 0.81023 0.30737 0.0
C604 C 0.82449 0.85381 0.30736 0.0
C605 C 0.76011 0.78339 0.31127 0.0
C606 C 0.79387 0.86913 0.31251 0.0
H607 H 0.90354 1.00782 0.29112 0.0
N608 N 0.77801 0.92564 0.31315 0.0
C609 C 0.83544 0.99758 0.29873 0.0
C610 C 0.80905 0.9122 0.30992 0.0
C611 C 0.79 0.96749 0.30629 0.0
C612 C 0.86838 0.98449 0.29712 0.0
C613 C 0.85524 0.94127 0.30215 0.0
O614 O 0.67993 0.90227 0.29479 0.0
O615 O 0.64689 0.86472 0.3581 0.0
O616 O 0.60308 0.7861 0.37642 0.0
O617 O 0.64352 0.80379 0.33322 0.0
O618 O 0.68051 0.92204 0.33238 0.0
O619 O 0.68331 0.84571 0.28945 0.0
O620 O 0.65866 0.80274 0.4384 0.0
O621 O 0.70374 0.84407 0.3712 0.0
O622 O 0.75307 0.92149 0.35436 0.0
O623 O 0.71215 0.9051 0.39709 0.0
O624 O 0.67191 0.78841 0.3985 0.0
O625 O 0.68342 0.86973 0.43671 0.0
C626 C 0.64715 0.89945 0.35074 0.0
C627 C 0.6928 0.89352 0.24878 0.0
C628 C 0.6851 0.89005 0.19897 0.0
C629 C 0.66951 0.87184 0.22672 0.0
C630 C 0.72354 0.93045 0.19369 0.0
C631 C 0.73146 0.93353 0.24272 0.0
C632 C 0.74659 0.95183 0.21541 0.0
C633 C 0.6088 0.77769 0.35137 0.0
C634 C 0.67518 0.87549 0.27785 0.0
C635 C 0.88641 0.92621 0.29872 0.0
C636 C 0.87106 0.88253 0.30135 0.0
C637 C 0.70295 0.80923 0.37864 0.0
C638 C 0.66004 0.8288 0.48087 0.0
C639 C 0.68933 0.83473 0.50272 0.0
C640 C 0.67306 0.82979 0.53045 0.0
C641 C 0.62707 0.81919 0.53562 0.0
C642 C 0.61436 0.81767 0.48684 0.0
C643 C 0.59804 0.81282 0.51405 0.0
C644 C 0.74798 0.92996 0.37947 0.0
C645 C 0.67746 0.83524 0.45189 0.0
H646 H 0.63965 0.8409 0.23114 0.0
H647 H 0.73573 0.94565 0.17267 0.0
H648 H 0.74957 0.95112 0.25907 0.0
H649 H 0.77617 0.98289 0.21105 0.0
H650 H 0.72471 0.84348 0.49806 0.0
H651 H 0.61364 0.81709 0.55628 0.0
H652 H 0.59144 0.81325 0.47044 0.0
H653 H 0.56285 0.80483 0.51841 0.0
Eu654 Eu 0.17726 0.82207 0.40932 0.0
C655 C 0.08697 0.88532 0.3162 0.0
C656 C 0.01343 0.8239 0.31376 0.0
C657 C 0.02198 0.89452 0.30254 0.0
C658 C 0.0598 0.84187 0.31967 0.0
C659 C 0.06859 0.91219 0.30718 0.0
C660 C 0.99454 0.85045 0.30561 0.0
C661 C 0.14463 0.9717 0.30505 0.0
N662 N 0.13203 0.90128 0.32004 0.0
C663 C 0.16131 0.94369 0.31353 0.0
C664 C 0.09795 0.95592 0.30216 0.0
Eu665 Eu 0.15788 0.85256 0.3361 0.0
N666 N 0.07936 0.81719 0.3271 0.0
C667 C 0.05493 0.77427 0.32747 0.0
C668 C 0.98784 0.77984 0.3153 0.0
C669 C 0.00881 0.75498 0.32194 0.0
H670 H 0.19745 0.95593 0.31585 0.0
H671 H 0.98948 0.72089 0.32282 0.0
H672 H 0.95897 0.83724 0.30106 0.0
H673 H 0.16777 1.00537 0.30069 0.0
H674 H 0.0703 0.75435 0.33253 0.0
H675 H 0.35325 0.93714 0.42504 0.0
H676 H 0.9522 0.76479 0.31081 0.0
H677 H 0.12317 0.71896 0.4348 0.0
H678 H 0.27257 0.91294 0.41625 0.0
H679 H 0.14184 0.66179 0.4503 0.0
H680 H 0.00714 0.91461 0.29575 0.0
H681 H 0.38117 0.88507 0.43425 0.0
H682 H 0.36345 0.80882 0.44188 0.0
H683 H 0.08512 0.97762 0.29533 0.0
H684 H 0.30556 0.73339 0.44878 0.0
N685 N 0.25496 0.84788 0.41928 0.0
C686 C 0.28414 0.88982 0.42016 0.0
C687 C 0.34574 0.87429 0.43014 0.0
C688 C 0.31498 0.83111 0.43117 0.0
C689 C 0.33003 0.90372 0.42515 0.0
C690 C 0.26906 0.81877 0.42604 0.0
H691 H 0.22255 0.67823 0.45263 0.0
N692 N 0.1925 0.76651 0.42708 0.0
C693 C 0.16891 0.69388 0.44439 0.0
C694 C 0.23671 0.77659 0.43 0.0
C695 C 0.15844 0.72623 0.43555 0.0
C696 C 0.21451 0.70327 0.44561 0.0
C697 C 0.24909 0.74524 0.43903 0.0
O698 O 0.12579 0.79913 0.44397 0.0
O699 O 0.12893 0.8271 0.37958 0.0
O700 O 0.15616 0.89947 0.36279 0.0
O701 O 0.19664 0.89245 0.40033 0.0
O702 O 0.10352 0.77272 0.40786 0.0
O703 O 0.18898 0.85595 0.4456 0.0
O704 O 0.19951 0.88656 0.29734 0.0
O705 O 0.20668 0.84906 0.36585 0.0
O706 O 0.17601 0.77185 0.38475 0.0
O707 O 0.14786 0.78501 0.34265 0.0
O708 O 0.23136 0.90297 0.33693 0.0
O709 O 0.16035 0.81856 0.30245 0.0
C710 C 0.09334 0.79292 0.38798 0.0
C711 C 0.15098 0.81488 0.48852 0.0
C712 C 0.13813 0.81785 0.53773 0.0
C713 C 0.13801 0.83194 0.50939 0.0
C714 C 0.1505 0.78601 0.54462 0.0
C715 C 0.16389 0.78377 0.49625 0.0
C716 C 0.16328 0.76925 0.52407 0.0
C717 C 0.17967 0.91348 0.38463 0.0
C718 C 0.15021 0.82876 0.45879 0.0
C719 C 0.29524 0.75705 0.44226 0.0
C720 C 0.32819 0.79998 0.43834 0.0
C721 C 0.24178 0.8834 0.35704 0.0
C722 C 0.174 0.85382 0.25661 0.0
C723 C 0.20136 0.85362 0.23435 0.0
C724 C 0.18673 0.852 0.2069 0.0
C725 C 0.14446 0.85098 0.20267 0.0
C726 C 0.13269 0.85342 0.25124 0.0
C727 C 0.11816 0.85209 0.22448 0.0
C728 C 0.15973 0.76172 0.36034 0.0
C729 C 0.18719 0.85253 0.28561 0.0
H730 H 0.12893 0.85664 0.50359 0.0
H731 H 0.15069 0.77428 0.56607 0.0
H732 H 0.17437 0.77057 0.48077 0.0
H733 H 0.17305 0.74502 0.52976 0.0
H734 H 0.23369 0.85478 0.23853 0.0
H735 H 0.13086 0.84838 0.18245 0.0
H736 H 0.11129 0.85353 0.26787 0.0
H737 H 0.08584 0.85122 0.22066 0.0
Eu738 Eu 0.84136 0.6614 0.66827 0.0
C739 C 0.9193 0.80005 0.74526 0.0
C740 C 0.99935 0.81897 0.74389 0.0
C741 C 0.97628 0.87079 0.75312 0.0
C742 C 0.95334 0.78941 0.74121 0.0
C743 C 0.93038 0.84069 0.75169 0.0
C744 C 0.01061 0.8598 0.74954 0.0
C745 C 0.84979 0.81691 0.75903 0.0
N746 N 0.87518 0.76978 0.74494 0.0
C747 C 0.84059 0.77682 0.75333 0.0
C748 C 0.89492 0.84921 0.75782 0.0
Eu749 Eu 0.86226 0.70268 0.73493 0.0
N750 N 0.94131 0.74937 0.73645 0.0
C751 C 0.97333 0.73616 0.73578 0.0
C752 C 0.03252 0.80613 0.74186 0.0
C753 C 0.01939 0.76445 0.738 0.0
H754 H 0.80572 0.75152 0.75489 0.0
H755 H 0.0447 0.75403 0.73683 0.0
H756 H 0.0457 0.88282 0.75187 0.0
H757 H 0.82215 0.8227 0.76468 0.0
H758 H 0.96371 0.70398 0.73295 0.0
H759 H 0.66034 0.61873 0.66788 0.0
H760 H 0.06819 0.82781 0.74391 0.0
H761 H 0.8912 0.60695 0.648 0.0
H762 H 0.74194 0.66567 0.67067 0.0
H763 H 0.86976 0.5343 0.63901 0.0
H764 H 0.98545 0.90216 0.75799 0.0
H765 H 0.63216 0.54391 0.6616 0.0
H766 H 0.64961 0.48555 0.65445 0.0
H767 H 0.90206 0.88008 0.76272 0.0
H768 H 0.70633 0.462 0.64793 0.0
N769 N 0.76115 0.61809 0.66668 0.0
C770 C 0.73084 0.63328 0.66788 0.0
C771 C 0.66835 0.56435 0.66301 0.0
C772 C 0.6995 0.54922 0.66081 0.0
C773 C 0.68414 0.6066 0.66641 0.0
C774 C 0.74632 0.57724 0.66263 0.0
H775 H 0.78841 0.47986 0.64212 0.0
N776 N 0.82308 0.59273 0.65833 0.0
C777 C 0.84365 0.5421 0.64471 0.0
C778 C 0.77825 0.56409 0.65857 0.0
C779 C 0.85567 0.58307 0.64993 0.0
C780 C 0.79774 0.51147 0.64655 0.0
C781 C 0.76432 0.52257 0.65278 0.0
O782 O 0.88101 0.67288 0.62941 0.0
O783 O 0.88815 0.71504 0.69066 0.0
O784 O 0.84263 0.74555 0.7072 0.0
O785 O 0.82067 0.71315 0.66705 0.0
O786 O 0.91884 0.69238 0.66573 0.0
O787 O 0.82553 0.68755 0.62984 0.0
O788 O 0.82633 0.68974 0.77519 0.0
O789 O 0.81481 0.64848 0.71302 0.0
O790 O 0.86185 0.61909 0.6953 0.0
O791 O 0.88344 0.65106 0.73559 0.0
O792 O 0.78513 0.67161 0.7386 0.0
O793 O 0.88735 0.68336 0.77228 0.0
C794 C 0.92649 0.7215 0.68099 0.0
C795 C 0.84157 0.66729 0.58867 0.0
C796 C 0.85191 0.67367 0.53825 0.0
C797 C 0.86781 0.68863 0.56366 0.0
C798 C 0.81014 0.63588 0.53881 0.0
C799 C 0.80041 0.62972 0.58852 0.0
C800 C 0.78506 0.61395 0.56373 0.0
C801 C 0.82518 0.74218 0.6827 0.0
C802 C 0.85632 0.68543 0.61462 0.0
C803 C 0.71768 0.49405 0.65221 0.0
C804 C 0.68538 0.50746 0.65599 0.0
C805 C 0.77668 0.64243 0.7232 0.0
C806 C 0.83213 0.63999 0.80849 0.0
C807 C 0.84587 0.64156 0.8357 0.0
C808 C 0.8222 0.60668 0.85642 0.0
C809 C 0.78646 0.56916 0.84869 0.0
C810 C 0.79668 0.60234 0.80127 0.0
C811 C 0.77432 0.56693 0.82128 0.0
C812 C 0.87908 0.62218 0.71978 0.0
C813 C 0.85366 0.67867 0.78839 0.0
H814 H 0.90016 0.71701 0.56414 0.0
H815 H 0.79587 0.62367 0.51989 0.0
H816 H 0.77971 0.61299 0.60746 0.0
H817 H 0.75297 0.58516 0.56373 0.0
H818 H 0.87445 0.67042 0.84067 0.0
H819 H 0.7668 0.54182 0.86396 0.0
H820 H 0.78605 0.60052 0.78031 0.0
H821 H 0.74663 0.53802 0.81569 0.0
Eu822 Eu 0.36979 0.20729 0.66591 0.0
C823 C 0.20501 0.12571 0.75338 0.0
C824 C 0.18079 0.17863 0.75599 0.0
C825 C 0.12518 0.10391 0.76479 0.0
C826 C 0.21513 0.16801 0.75016 0.0
C827 C 0.15996 0.09333 0.76112 0.0
C828 C 0.13564 0.14645 0.76246 0.0
C829 C 0.18751 0.04241 0.76418 0.0
N830 N 0.23954 0.1163 0.75061 0.0
C831 C 0.23171 0.07547 0.75701 0.0
C832 C 0.15139 0.05129 0.76591 0.0
Eu833 Eu 0.31224 0.17513 0.7363 0.0
N834 N 0.25909 0.19876 0.74387 0.0
C835 C 0.27161 0.24005 0.74571 0.0
C836 C 0.19321 0.22122 0.7566 0.0
C837 C 0.23887 0.25201 0.75173 0.0
H838 H 0.25915 0.06796 0.75559 0.0
H839 H 0.24897 0.28491 0.75288 0.0
H840 H 0.10878 0.15415 0.76651 0.0
H841 H 0.18134 1.01007 0.76842 0.0
H842 H 0.3068 0.26393 0.74265 0.0
H843 H 0.42428 0.09182 0.64698 0.0
H844 H 0.16808 0.23044 0.76193 0.0
H845 H 0.42894 0.31307 0.65034 0.0
H846 H 0.36971 0.11753 0.655 0.0
H847 H 0.50899 0.36931 0.6403 0.0
H848 H 0.09036 0.07944 0.77049 0.0
H849 H 0.50706 0.14219 0.64192 0.0
H850 H 0.57019 0.2174 0.63923 0.0
H851 H 0.11723 0.02559 0.77175 0.0
H852 H 0.59328 0.29318 0.63722 0.0
N853 N 0.42045 0.18092 0.65644 0.0
C854 C 0.40548 0.13953 0.65344 0.0
C855 C 0.48314 0.15341 0.64596 0.0
C856 C 0.49818 0.19636 0.64719 0.0
C857 C 0.43646 0.12495 0.64866 0.0
C858 C 0.46546 0.20934 0.65211 0.0
H859 H 0.57058 0.35022 0.6371 0.0
N860 N 0.44525 0.26281 0.65337 0.0
C861 C 0.50086 0.33636 0.6432 0.0
C862 C 0.47832 0.25175 0.6506 0.0
C863 C 0.45557 0.30445 0.64873 0.0
C864 C 0.53554 0.32546 0.64152 0.0
C865 C 0.52442 0.28269 0.64472 0.0
O866 O 0.36588 0.23871 0.62552 0.0
O867 O 0.31369 0.20353 0.69289 0.0
O868 O 0.26479 0.12702 0.70904 0.0
O869 O 0.31477 0.1365 0.67193 0.0
O870 O 0.34646 0.25698 0.66462 0.0
O871 O 0.33362 0.1705 0.63317 0.0
O872 O 0.36461 0.18324 0.7657 0.0
O873 O 0.36647 0.17792 0.70892 0.0
O874 O 0.41717 0.24994 0.69595 0.0
O875 O 0.36424 0.24649 0.72867 0.0
O876 O 0.33332 0.12395 0.73755 0.0
O877 O 0.30201 0.17935 0.78011 0.0
C878 C 0.31391 0.23757 0.68367 0.0
C879 C 0.35985 0.20188 0.58728 0.0
C880 C 0.34467 0.18868 0.53914 0.0
C881 C 0.3313 0.19489 0.56502 0.0
C882 C 0.38768 0.19064 0.53615 0.0
C883 C 0.40263 0.20437 0.5834 0.0
C884 C 0.41644 0.1989 0.55794 0.0
C885 C 0.27499 0.11443 0.68683 0.0
C886 C 0.34355 0.20345 0.61498 0.0
C887 C 0.5576 0.26993 0.64147 0.0
C888 C 0.54448 0.2268 0.64264 0.0
C889 C 0.36503 0.14321 0.71778 0.0
C890 C 0.34 0.15509 0.81258 0.0
C891 C 0.36166 0.17352 0.836 0.0
C892 C 0.3616 0.14793 0.86031 0.0
C893 C 0.33917 0.10371 0.86071 0.0
C894 C 0.31833 0.11095 0.81358 0.0
C895 C 0.31783 0.08548 0.83753 0.0
C896 C 0.40603 0.26552 0.7162 0.0
C897 C 0.34072 0.18203 0.7871 0.0
H898 H 0.29884 0.19417 0.56806 0.0
H899 H 0.399 0.18497 0.51705 0.0
H900 H 0.42504 0.20988 0.60018 0.0
H901 H 0.44929 0.20026 0.55521 0.0
H902 H 0.37806 0.20763 0.83536 0.0
H903 H 0.33863 0.08317 0.8789 0.0
H904 H 0.30191 0.09619 0.79582 0.0
H905 H 0.30098 0.05141 0.83809 0.0
Eu906 Eu 0.84021 0.15533 0.74051 0.0
C907 C 0.76201 0.22873 0.64768 0.0
C908 C 0.68435 0.1716 0.64824 0.0
C909 C 0.70055 0.24455 0.63603 0.0
C910 C 0.73086 0.18574 0.6527 0.0
C911 C 0.74725 0.25837 0.63852 0.0
C912 C 0.6692 0.20125 0.64077 0.0
C913 C 0.82634 0.31248 0.63137 0.0
N914 N 0.80708 0.24125 0.64968 0.0
C915 C 0.83936 0.2819 0.64021 0.0
C916 C 0.78006 0.30083 0.631 0.0
Eu917 Eu 0.82531 0.18799 0.66736 0.0
N918 N 0.74641 0.15762 0.65983 0.0
C919 C 0.71807 0.11517 0.66008 0.0
C920 C 0.6547 0.12802 0.65026 0.0
C921 C 0.67178 0.09976 0.65578 0.0
H922 H 0.87519 0.291 0.64055 0.0
H923 H 0.6493 0.06604 0.65672 0.0
H924 H 0.6335 0.19093 0.63769 0.0
H925 H 0.85197 0.34497 0.62479 0.0
H926 H 0.73028 0.09258 0.66418 0.0
H927 H 0.01354 0.27458 0.75721 0.0
H928 H 0.61887 0.11592 0.64672 0.0
H929 H 0.78972 0.05042 0.76111 0.0
H930 H 0.93238 0.24784 0.74813 0.0
H931 H 0.81203 0.9952 0.77504 0.0
H932 H 0.68852 0.26693 0.6294 0.0
H933 H 0.04453 0.22471 0.76552 0.0
H934 H 0.03006 0.14941 0.77233 0.0
H935 H 0.77005 0.32454 0.62393 0.0
H936 H 0.97512 0.07321 0.77729 0.0
N937 N 0.91778 0.1836 0.75064 0.0
C938 C 0.94539 0.22571 0.75193 0.0
C939 C 0.00885 0.21279 0.7616 0.0
C940 C 0.97957 0.16934 0.76215 0.0
C941 C 0.99145 0.24101 0.75703 0.0
C942 C 0.93341 0.1555 0.75695 0.0
H943 H 0.89356 0.0154 0.77892 0.0
N944 N 0.85799 0.10079 0.75628 0.0
C945 C 0.83788 0.02811 0.77064 0.0
C946 C 0.90255 0.11273 0.75983 0.0
C947 C 0.82534 0.05935 0.7628 0.0
C948 C 0.88394 0.03964 0.77275 0.0
C949 C 0.91689 0.08247 0.76784 0.0
O950 O 0.78771 0.12945 0.77462 0.0
O951 O 0.79276 0.16186 0.71049 0.0
O952 O 0.83396 0.2419 0.69077 0.0
O953 O 0.85288 0.22361 0.73483 0.0
O954 O 0.76696 0.1061 0.73766 0.0
O955 O 0.85174 0.18414 0.77917 0.0
O956 O 0.87061 0.17716 0.64064 0.0
O957 O 0.87301 0.18539 0.69797 0.0
O958 O 0.84245 0.10849 0.71419 0.0
O959 O 0.80629 0.11806 0.67494 0.0
O960 O 0.89772 0.23986 0.66935 0.0
O961 O 0.81976 0.18972 0.62222 0.0
C962 C 0.75677 0.1277 0.7187 0.0
C963 C 0.80957 0.13925 0.82055 0.0
C964 C 0.79788 0.14089 0.87026 0.0
C965 C 0.80354 0.15939 0.84224 0.0
C966 C 0.79694 0.10148 0.87585 0.0
C967 C 0.81015 0.10082 0.82719 0.0
C968 C 0.80357 0.08202 0.85457 0.0
C969 C 0.84585 0.24947 0.7163 0.0
C970 C 0.81196 0.15657 0.79107 0.0
C971 C 0.96331 0.09599 0.77149 0.0
C972 C 0.9946 0.13937 0.76865 0.0
C973 C 0.90798 0.22048 0.68989 0.0
C974 C 0.88577 0.20733 0.59327 0.0
C975 C 0.88544 0.18892 0.56903 0.0
C976 C 0.91639 0.21321 0.54579 0.0
C977 C 0.94807 0.25568 0.5477 0.0
C978 C 0.91771 0.24984 0.59419 0.0
C979 C 0.94865 0.27369 0.57161 0.0
C980 C 0.82299 0.09701 0.69078 0.0
C981 C 0.85329 0.18216 0.61761 0.0
H982 H 0.80342 0.18927 0.83731 0.0
H983 H 0.79081 0.08538 0.8968 0.0
H984 H 0.81464 0.08476 0.81114 0.0
H985 H 0.80315 0.0519 0.85933 0.0
H986 H 0.86091 0.15604 0.56816 0.0
H987 H 0.97296 0.27498 0.53073 0.0
H988 H 0.9189 0.26455 0.61246 0.0
H989 H 0.97339 0.30641 0.57267 0.0
C990 C 0.31261 0.90025 0.07585 0.0
C991 C 0.30795 0.85927 0.07958 0.0
C992 C 0.35529 0.93642 0.06739 0.0
C993 C 0.39507 0.93335 0.06159 0.0
H994 H 0.28309 0.9044 0.0791 0.0
H995 H 0.35721 0.96732 0.06543 0.0
S996 S 0.40011 0.83263 0.06879 0.0
N997 N 0.34634 0.81765 0.07731 0.0
N998 N 0.42576 0.88479 0.06121 0.0
C999 C 0.39035 0.89232 0.06515 0.0
C1000 C 0.34712 0.85568 0.07408 0.0
C1001 C 0.15351 0.50193 0.05593 0.0
C1002 C 0.14884 0.4612 0.06137 0.0
C1003 C 0.11572 0.50735 0.04944 0.0
C1004 C 0.07256 0.47211 0.04805 0.0
H1005 H 0.18582 0.52938 0.05835 0.0
H1006 H 0.11983 0.53902 0.04709 0.0
S1007 S 0.04493 0.35951 0.05685 0.0
N1008 N 0.09988 0.38569 0.06196 0.0
N1009 N 0.02832 0.39569 0.05024 0.0
C1010 C 0.06833 0.43148 0.05187 0.0
C1011 C 0.10677 0.42607 0.05824 0.0
C1012 C 0.52617 0.67168 0.08781 0.0
C1013 C 0.56029 0.70845 0.07192 0.0
C1014 C 0.51275 0.63117 0.08043 0.0
C1015 C 0.53226 0.62607 0.05655 0.0
H1016 H 0.50998 0.67437 0.10615 0.0
H1017 H 0.48672 0.60364 0.0934 0.0
S1018 S 0.62528 0.71186 1.0092 0.0
N1019 N 0.61566 0.73677 0.03252 0.0
N1020 N 0.58861 0.66108 1.01772 0.0
C1021 C 0.56632 0.66256 0.0405 0.0
C1022 C 0.58082 0.70364 0.04843 0.0
C1023 C 0.85989 0.32655 0.01891 0.0
C1024 C 0.84102 0.32327 0.99288 0.0
C1025 C 0.89026 0.36627 0.027 0.0
C1026 C 0.90384 0.40437 1.00918 0.0
H1027 H 0.85212 0.29816 0.03285 0.0
H1028 H 0.90442 0.36702 0.04699 0.0
S1029 S 0.86312 0.41375 0.9394 0.0
N1030 N 0.83652 0.36226 0.95005 0.0
N1031 N 0.89519 0.43624 0.96459 0.0
C1032 C 0.88517 0.40158 0.98321 0.0
C1033 C 0.85343 0.36131 0.97525 0.0
C1034 C 0.70085 0.61122 0.01914 0.0
C1035 C 0.71362 0.57973 0.01849 0.0
C1036 C 0.65499 0.60037 0.02326 0.0
C1037 C 0.62077 0.55775 0.02676 0.0
H1038 H 0.72616 0.64429 1.01437 0.0
H1039 H 0.64601 0.6255 0.02204 0.0
S1040 S 0.63826 0.46401 0.02795 0.0
N1041 N 0.69012 0.5049 0.02337 0.0
N1042 N 0.6033 0.48403 0.03008 0.0
C1043 C 0.63361 0.52599 0.02765 0.0
C1044 C 0.68039 0.53717 0.0239 0.0
C1045 C 0.43919 0.14641 1.01264 0.0
C1046 C 0.45856 0.1722 0.98712 0.0
C1047 C 0.44797 0.11291 0.0219 0.0
C1048 C 0.47489 0.1027 1.00551 0.0
H1049 H 0.41847 0.15328 0.02604 0.0
H1050 H 0.4339 0.09512 0.04215 0.0
S1051 S 0.5303 0.1575 0.93604 0.0
N1052 N 0.50503 0.18411 0.94536 0.0
N1053 N 0.51794 0.11875 0.96158 0.0
C1054 C 0.49172 0.12613 0.97912 0.0
C1055 C 0.48433 0.16138 0.97016 0.0
C1056 C 0.71559 0.13634 0.99383 0.0
C1057 C 0.71378 0.17465 0.98995 0.0
C1058 C 0.67602 0.09698 1.00186 0.0
C1059 C 0.633 0.09415 1.00716 0.0
H1060 H 0.74793 0.13681 0.99098 0.0
H1061 H 0.67926 0.06845 1.00436 0.0
S1062 S 0.60938 0.18501 0.99821 0.0
N1063 N 0.66458 0.20672 0.98989 0.0
N1064 N 0.59143 0.13384 1.00658 0.0
C1065 C 0.63083 0.13231 1.00305 0.0
C1066 C 0.67079 0.17213 0.99409 0.0
C1067 C 0.85571 0.54364 1.00872 0.0
C1068 C 0.86058 0.58393 0.99979 0.0
C1069 C 0.89388 0.53842 1.01453 0.0
C1070 C 0.93795 0.57354 1.01196 0.0
H1071 H 0.82214 0.51611 1.01102 0.0
H1072 H 0.88892 0.50672 0.02049 0.0
S1073 S 0.96768 0.68576 0.99075 0.0
N1074 N 0.91166 0.65925 0.98952 0.0
N1075 N 0.98385 0.64999 1.00068 0.0
C1076 C 0.9429 0.61402 1.00347 0.0
C1077 C 0.90407 0.61911 0.99732 0.0
C1078 C 0.50846 0.34211 1.00301 0.0
C1079 C 0.46506 0.3101 0.99789 0.0
C1080 C 0.51395 0.37881 1.01331 0.0
C1081 C 0.47643 0.3853 1.01822 0.0
H1082 H 0.53836 0.33898 0.99856 0.0
H1083 H 0.54794 0.4029 1.0165 0.0
S1084 S 0.35533 0.30948 1.01006 0.0
N1085 N 0.38371 0.28592 1.00014 0.0
N1086 N 0.39409 0.35527 0.01879 0.0
C1087 C 0.4328 0.35309 1.01369 0.0
C1088 C 0.42713 0.31545 1.00367 0.0
C1089 C 0.12629 0.70492 0.07203 0.0
C1090 C 0.17342 0.7182 0.07079 0.0
C1091 C 0.09445 0.66611 0.06364 0.0
C1092 C 0.1083 0.63922 0.05292 0.0
H1093 H 0.11388 0.72458 0.07986 0.0
H1094 H 0.05864 0.65734 0.06537 0.0
S1095 S 0.22781 0.65943 0.04479 0.0
N1096 N 0.23222 0.70094 0.05817 0.0
N1097 N 0.17289 0.62932 0.04111 0.0
C1098 C 0.15547 0.65271 0.05077 0.0
C1099 C 0.18783 0.69181 0.05994 0.0
C1100 C 0.29647 0.41853 0.07136 0.0
C1101 C 0.29265 0.45522 0.07238 0.0
C1102 C 0.33843 0.4213 0.06391 0.0
C1103 C 0.37771 0.46084 0.05698 0.0
H1104 H 0.26677 0.38763 0.07619 0.0
H1105 H 0.34035 0.39229 0.06394 0.0
S1106 S 0.385 0.5662 0.05719 0.0
N1107 N 0.33098 0.53198 0.06635 0.0
N1108 N 0.40995 0.53747 0.05225 0.0
C1109 C 0.37405 0.49776 0.05777 0.0
C1110 C 0.33143 0.49485 0.06551 0.0
C1111 C 0.53125 0.84323 0.07131 0.0
C1112 C 0.57434 0.85009 0.07925 0.0
C1113 C 0.52309 0.87684 0.06222 0.0
C1114 C 0.55565 0.91922 0.06332 0.0
H1115 H 0.50384 0.81135 0.07096 0.0
H1116 H 0.49103 0.8693 0.05356 0.0
S1117 S 0.67419 0.95554 0.08353 0.0
N1118 N 0.65147 0.90342 0.08666 0.0
N1119 N 0.63333 0.96656 0.07369 0.0
C1120 C 0.59844 0.92696 0.07272 0.0
C1121 C 0.60819 0.89247 0.08003 0.0
C1122 C 0.98134 0.22235 0.3932 0.0
C1123 C 0.98128 0.1925 0.41451 0.0
C1124 C 0.02157 0.26043 0.3839 0.0
C1125 C 0.06429 0.26878 0.39377 0.0
H1126 H 0.94972 0.21643 0.384 0.0
H1127 H 0.01905 0.28368 0.36901 0.0
S1128 S 0.08115 0.20453 0.45313 0.0
N1129 N 0.02639 0.17675 0.44788 0.0
N1130 N 0.10211 0.24691 0.42951 0.0
C1131 C 0.06421 0.23991 0.41592 0.0
C1132 C 0.02289 0.20197 0.42622 0.0
C1133 C 0.82308 0.82692 0.38386 0.0
C1134 C 0.81582 0.78514 0.38731 0.0
C1135 C 0.78671 0.83529 0.37883 0.0
C1136 C 0.74237 0.80195 0.37715 0.0
H1137 H 0.85633 0.85274 0.38685 0.0
H1138 H 0.79277 0.86756 0.37797 0.0
S1139 S 0.7077 0.6879 0.38137 0.0
N1140 N 0.76298 0.711 0.38583 0.0
N1141 N 0.69412 0.72636 0.37701 0.0
C1142 C 0.73554 0.76044 0.37892 0.0
C1143 C 0.77256 0.75214 0.38361 0.0
C1144 C 0.24316 0.02246 0.40813 0.0
C1145 C 0.21058 0.03663 0.40733 0.0
C1146 C 0.23293 0.98282 0.40055 0.0
C1147 C 0.19005 0.9561 0.39118 0.0
H1148 H 0.27664 0.04198 0.41511 0.0
H1149 H 0.25896 0.97311 0.40196 0.0
S1150 S 0.09324 0.97885 0.38424 0.0
N1151 N 0.13361 0.02071 0.39634 0.0
N1152 N 0.11528 0.94734 0.38058 0.0
C1153 C 0.15776 0.97058 0.38918 0.0
C1154 C 0.16781 0.01055 0.39757 0.0
C1155 C 0.51985 0.69493 0.31049 0.0
C1156 C 0.50824 0.65603 0.3269 0.0
C1157 C 0.55252 0.73404 0.31836 0.0
C1158 C 0.57438 0.73598 0.34325 0.0
H1159 H 0.50359 0.69507 0.29134 0.0
H1160 H 0.56038 0.76303 0.30499 0.0
S1161 S 0.55816 0.64337 0.39284 0.0
N1162 N 0.52301 0.62217 0.36857 0.0
N1163 N 0.58309 0.69517 0.38366 0.0
C1164 C 0.56292 0.69735 0.35984 0.0
C1165 C 0.53022 0.65759 0.35164 0.0
C1166 C 0.36957 0.94474 0.35282 0.0
C1167 C 0.38177 0.91329 0.35005 0.0
C1168 C 0.32377 0.93429 0.35686 0.0
C1169 C 0.28908 0.89196 0.35901 0.0
H1170 H 0.39544 0.97775 0.3501 0.0
H1171 H 0.31524 0.95957 0.35726 0.0
S1172 S 0.30429 0.79788 0.35507 0.0
N1173 N 0.35658 0.83833 0.35112 0.0
N1174 N 0.27022 0.81831 0.35927 0.0
C1175 C 0.30119 0.85999 0.358 0.0
C1176 C 0.34779 0.87076 0.35356 0.0
C1177 C 0.15703 0.49943 0.30129 0.0
C1178 C 0.1258 0.50616 0.31647 0.0
C1179 C 0.16495 0.46494 0.30978 0.0
C1180 C 0.14182 0.43619 0.33369 0.0
H1181 H 0.17719 0.52225 0.28373 0.0
H1182 H 0.19092 0.46199 0.29841 0.0
S1183 S 0.05274 0.43712 0.3784 0.0
N1184 N 0.06904 0.47927 0.35498 0.0
N1185 N 0.08335 0.41456 0.37064 0.0
C1186 C 0.10877 0.44136 0.34799 0.0
C1187 C 0.10086 0.4763 0.33944 0.0
C1188 C 0.33748 0.50402 0.32675 0.0
C1189 C 0.3813 0.50769 0.32369 0.0
C1190 C 0.29838 0.46461 0.33549 0.0
C1191 C 0.30121 0.42687 0.3411 0.0
H1192 H 0.33334 0.5319 0.32213 0.0
H1193 H 0.26558 0.46362 0.33727 0.0
S1194 S 0.40781 0.41913 0.33733 0.0
N1195 N 0.42501 0.4701 0.32846 0.0
N1196 N 0.35183 0.39612 0.34311 0.0
C1197 C 0.34475 0.43012 0.33788 0.0
C1198 C 0.3846 0.47036 0.32966 0.0
C1199 C 0.57314 0.95155 0.33819 0.0
C1200 C 0.53 0.9172 0.33585 0.0
C1201 C 0.61056 0.9452 0.34413 0.0
C1202 C 0.60568 0.90416 0.3488 0.0
H1203 H 0.57778 0.98343 0.33568 0.0
H1204 H 0.64367 0.9726 0.34499 0.0
S1205 S 0.49847 0.80365 0.34632 0.0
N1206 N 0.48362 0.841 0.33935 0.0
N1207 N 0.55361 0.82859 0.35104 0.0
C1208 C 0.56217 0.86946 0.34728 0.0
C1209 C 0.52433 0.8761 0.3408 0.0
C1210 C 0.17144 0.68722 0.31617 0.0
C1211 C 0.14243 0.64681 0.33059 0.0
C1212 C 0.17759 0.72424 0.32631 0.0
C1213 C 0.15525 0.72225 0.35137 0.0
H1214 H 0.18882 0.69005 0.29666 0.0
H1215 H 0.19967 0.75468 0.31432 0.0
S1216 S 0.07313 0.6242 0.39584 0.0
N1217 N 0.08972 0.60703 0.3705 0.0
N1218 N 0.10119 0.67646 0.38951 0.0
C1219 C 0.12628 0.68209 0.36598 0.0
C1220 C 0.11993 0.6444 0.35562 0.0
C1221 C 0.83275 0.04756 0.38192 0.0
C1222 C 0.85093 0.04749 0.40801 0.0
C1223 C 0.80054 1.00953 0.37245 0.0
C1224 C 0.78451 0.9698 0.38883 0.0
H1225 H 0.84267 0.07735 0.369 0.0
H1226 H 0.78689 0.01147 0.35255 0.0
S1227 S 0.82408 0.95147 0.45755 0.0
N1228 N 0.85305 1.00337 0.44889 0.0
N1229 N 0.79133 0.9328 0.43183 0.0
C1230 C 0.80303 0.96926 0.41467 0.0
C1231 C 0.83646 1.00774 0.42403 0.0
C1232 C 0.99675 0.81806 0.39596 0.0
C1233 C 0.95858 0.77747 0.40068 0.0
C1234 C 0.04039 0.82331 0.39004 0.0
C1235 C 0.04701 0.78803 0.38869 0.0
H1236 H 0.99275 0.84575 0.39727 0.0
H1237 H 0.0692 0.85496 0.38758 0.0
S1238 S 0.95711 0.67575 0.39592 0.0
N1239 N 0.92928 0.70217 0.40043 0.0
N1240 N 0.01157 0.71159 0.39084 0.0
C1241 C 0.00884 0.74747 0.39257 0.0
C1242 C 0.96448 0.74229 0.39811 0.0
C1243 C 0.25651 0.21781 0.41707 0.0
C1244 C 0.22074 0.17588 0.41818 0.0
C1245 C 0.24923 0.25285 0.40916 0.0
C1246 C 0.2063 0.24701 0.40124 0.0
H1247 H 0.29067 0.22372 0.42106 0.0
H1248 H 0.2779 0.28454 0.40776 0.0
S1249 S 0.10114 0.14349 0.402 0.0
N1250 N 0.14027 0.13089 0.41301 0.0
N1251 N 0.1274 0.19569 0.39581 0.0
C1252 C 0.17028 0.20516 0.40282 0.0
C1253 C 0.17729 0.16993 0.41185 0.0
C1254 C 0.65274 0.56229 0.74806 0.0
C1255 C 0.65125 0.52267 0.74965 0.0
C1256 C 0.69298 0.60029 0.73854 0.0
C1257 C 0.73361 0.60056 0.72997 0.0
H1258 H 0.62235 0.56384 0.75384 0.0
H1259 H 0.6923 0.62995 0.73796 0.0
S1260 S 0.74851 0.50515 0.73222 0.0
N1261 N 0.69454 0.4861 0.74302 0.0
N1262 N 0.76978 0.55704 0.72562 0.0
C1263 C 0.73261 0.56105 0.7319 0.0
C1264 C 0.69162 0.52236 0.74156 0.0
C1265 C 0.48496 0.15961 0.72138 0.0
C1266 C 0.47758 0.11782 0.72474 0.0
C1267 C 0.44849 0.16807 0.71727 0.0
C1268 C 0.40376 0.13486 0.71647 0.0
H1269 H 0.51854 0.18548 0.72367 0.0
H1270 H 0.45498 0.20047 0.71628 0.0
S1271 S 0.368 0.02044 0.72224 0.0
N1272 N 0.42381 0.04354 0.72472 0.0
N1273 N 0.35463 0.05905 0.71833 0.0
C1274 C 0.39652 0.09319 0.71865 0.0
C1275 C 0.43373 0.08479 0.72219 0.0
C1276 C 0.88446 0.36665 0.71705 0.0
C1277 C 0.86908 0.36741 0.74378 0.0
C1278 C 0.87567 0.32827 0.70781 0.0
C1279 C 0.85186 0.28945 0.72518 0.0
H1280 H 0.9045 0.39606 0.70355 0.0
H1281 H 0.88905 0.32916 0.68737 0.0
S1282 S 0.79993 0.27396 0.79571 0.0
N1283 N 0.82506 0.32572 0.78629 0.0
N1284 N 0.81008 0.25391 0.76951 0.0
C1285 C 0.83513 0.28976 0.75158 0.0
C1286 C 0.84333 0.32863 0.76073 0.0
C1287 C 0.16121 0.0211 0.6713 0.0
C1288 C 0.17449 0.99281 0.66215 0.0
C1289 C 0.19361 0.05994 0.67977 0.0
C1290 C 0.24067 0.0724 0.67889 0.0
H1291 H 0.12567 0.01342 0.67146 0.0
H1292 H 0.18187 0.08085 0.68639 0.0
S1293 S 0.29185 1.00682 0.66025 0.0
N1294 N 0.23702 0.97788 0.6559 0.0
N1295 N 0.29752 0.0508 0.67046 0.0
C1296 C 0.25381 0.04359 0.67061 0.0
C1297 C 0.2209 1.00391 0.66262 0.0
C1298 C 0.03617 0.2801 0.68374 0.0
C1299 C 0.04737 0.24813 0.68048 0.0
C1300 C 0.99069 0.27038 0.68858 0.0
C1301 C 0.9553 0.2283 0.69095 0.0
H1302 H 0.0625 0.31295 0.6807 0.0
H1303 H 0.98291 0.29605 0.68937 0.0
S1304 S 0.96805 0.13319 0.68545 0.0
N1305 N 0.02068 0.17307 0.68113 0.0
N1306 N 0.93497 0.15437 0.69049 0.0
C1307 C 0.96655 0.19586 0.68922 0.0
C1308 C 0.0128 0.2059 0.68408 0.0
C1309 C 0.82204 0.83301 0.63652 0.0
C1310 C 0.79341 0.84194 0.65244 0.0
C1311 C 0.83081 0.79938 0.64586 0.0
C1312 C 0.81162 0.77412 0.67155 0.0
H1313 H 0.83941 0.85341 0.6175 0.0
H1314 H 0.85439 0.79438 0.63357 0.0
S1315 S 0.72904 0.78081 0.71867 0.0
N1316 N 0.74192 0.81992 0.69332 0.0
N1317 N 0.75873 0.75735 0.71096 0.0
C1318 C 0.78098 0.78134 0.68674 0.0
C1319 C 0.77173 0.81506 0.67713 0.0
C1320 C 1.00465 0.84184 0.66457 0.0
C1321 C 0.04753 0.84549 0.65764 0.0
C1322 C 0.96589 0.80205 0.67286 0.0
C1323 C 0.96838 0.76409 0.67465 0.0
H1324 H 1.00099 0.87009 0.66327 0.0
H1325 H 0.93363 0.80102 0.67743 0.0
S1326 S 0.07321 0.75629 0.6611 0.0
N1327 N 0.09049 0.80763 0.65525 0.0
N1328 N 0.01793 0.73317 0.66967 0.0
C1329 C 0.01118 0.76744 0.66805 0.0
C1330 C 0.05063 0.80793 0.65995 0.0
C1331 C 0.19632 0.21714 0.66432 0.0
C1332 C 0.19777 0.25589 0.66697 0.0
C1333 C 0.23313 0.21025 0.67156 0.0
C1334 C 0.27277 0.24239 0.68102 0.0
H1335 H 0.16639 0.19206 0.65683 0.0
H1336 H 0.23127 0.18026 0.66877 0.0
S1337 S 0.29122 0.34782 0.69387 0.0
N1338 N 0.23906 0.32436 0.68311 0.0
N1339 N 0.31089 0.3139 0.69295 0.0
C1340 C 0.27437 0.28113 0.68376 0.0
C1341 C 0.23597 0.28713 0.67793 0.0
C1342 C 0.78815 0.9813 0.68749 0.0
C1343 C 0.8078 0.98293 0.66153 0.0
C1344 C 0.79406 0.01848 0.69731 0.0
C1345 C 0.81957 0.05835 0.68137 0.0
H1346 H 0.76706 0.95099 0.69986 0.0
H1347 H 0.77727 0.01584 0.71699 0.0
S1348 S 0.8816 0.07981 0.61336 0.0
N1349 N 0.85663 0.02777 0.62122 0.0
N1350 N 0.86699 0.09734 0.6393 0.0
C1351 C 0.84038 0.06035 0.6558 0.0
C1352 C 0.83474 0.02271 0.64598 0.0
C1353 C 0.52272 0.35452 0.73202 0.0
C1354 C 0.51187 0.38325 0.7429 0.0
C1355 C 0.48856 0.31702 0.72305 0.0
C1356 C 0.44196 0.30631 0.72493 0.0
H1357 H 0.55778 0.36073 0.73094 0.0
H1358 H 0.49867 0.29577 0.71514 0.0
S1359 S 0.39654 0.37378 0.74839 0.0
N1360 N 0.45187 0.40052 0.75216 0.0
N1361 N 0.38798 0.33003 0.73638 0.0
C1362 C 0.43108 0.33554 0.735 0.0
C1363 C 0.46586 0.3739 0.74368 0.0
C1364 C 0.62934 0.07839 0.73376 0.0
C1365 C 0.62289 0.11359 0.73529 0.0
C1366 C 0.67271 0.08353 0.72716 0.0
C1367 C 0.71088 0.12409 0.72131 0.0
H1368 H 0.60059 0.04677 0.73745 0.0
H1369 H 0.67653 0.05554 0.72682 0.0
S1370 S 0.71109 0.2264 0.72243 0.0
N1371 N 0.65739 0.19009 0.73041 0.0
N1372 N 0.73898 0.20011 0.71776 0.0
C1373 C 0.70454 0.15959 0.72241 0.0
C1374 C 0.66046 0.15423 0.72942 0.0
C1375 C 0.87247 0.52725 0.76594 0.0
C1376 C 0.89638 0.51382 0.74954 0.0
C1377 C 0.86939 0.56414 0.75697 0.0
C1378 C 0.88965 0.58834 0.73117 0.0
H1379 H 0.85424 0.50804 0.7851 0.0
H1380 H 0.8489 0.57238 0.76956 0.0
S1381 S 0.96088 0.56933 0.68244 0.0
N1382 N 0.94433 0.52967 0.70784 0.0
N1383 N 0.93817 0.59852 0.69082 0.0
C1384 C 0.91552 0.57629 0.71535 0.0
C1385 C 0.91897 0.53913 0.72459 0.0
C1386 C 0.54732 0.98844 0.27469 0.0
C1387 C 0.50644 0.95049 0.28098 0.0
C1388 C 0.56226 1.00695 0.24718 0.0
C1389 C 0.53556 0.98937 0.22495 0.0
H1390 H 0.56576 1.00591 0.29108 0.0
H1391 H 0.59328 0.03707 0.24355 0.0
S1392 S 0.4288 0.88589 0.2312 0.0
N1393 N 0.44375 0.89179 0.26328 0.0
N1394 N 0.46841 0.92821 0.21171 0.0
C1395 C 0.49671 0.94908 0.23106 0.0
C1396 C 0.483 0.92936 0.25905 0.0
C1397 C 0.10687 0.56102 0.23874 0.0
C1398 C 0.09051 0.53931 0.26564 0.0
C1399 C 0.08065 0.54771 0.2158 0.0
C1400 C 0.03706 0.51174 0.21876 0.0
H1401 H 0.13881 0.59037 0.2358 0.0
H1402 H 0.09339 0.56749 0.19601 0.0
S1403 S 0.9828 0.43913 0.28409 0.0
N1404 N 0.03056 0.47755 0.29344 0.0
N1405 N 0.98251 0.45061 0.25033 0.0
C1406 C 0.02254 0.48735 0.24519 0.0
C1407 C 0.04897 0.50148 0.26859 0.0
C1408 C 0.42142 0.52523 0.25184 0.0
C1409 C 0.45046 0.53348 0.2738 0.0
C1410 C 0.4271 0.50636 0.2294 0.0
C1411 C 0.46203 0.49506 0.2282 0.0
H1412 H 0.39525 0.53477 0.25161 0.0
H1413 H 0.40412 0.50068 0.21287 0.0
S1414 S 0.54769 0.5116 0.2805 0.0
N1415 N 0.51525 0.52951 0.29289 0.0
N1416 N 0.52651 0.49473 0.25111 0.0
C1417 C 0.49086 0.50298 0.25033 0.0
C1418 C 0.48491 0.52193 0.27299 0.0
C1419 C 0.91694 0.49047 0.82237 0.0
C1420 C 0.93821 0.48813 0.79831 0.0
C1421 C 0.94278 0.5114 0.84382 0.0
C1422 C 0.99084 0.53009 0.84213 0.0
H1423 H 0.88007 0.47512 0.82485 0.0
H1424 H 0.92489 0.51271 0.8619 0.0
S1425 S 0.06181 0.52994 0.78337 0.0
N1426 N 0.00906 0.50543 0.77373 0.0
N1427 N 0.05797 0.54284 0.81426 0.0
C1428 C 0.01221 0.52764 0.81792 0.0
C1429 C 0.98582 0.50712 0.79599 0.0
C1430 C 0.62491 0.49957 0.82186 0.0
C1431 C 0.58978 0.49427 0.80431 0.0
C1432 C 0.62578 0.51299 0.84803 0.0
C1433 C 0.5911 0.52093 0.85787 0.0
H1434 H 0.65069 0.49155 0.81581 0.0
H1435 H 0.65315 0.51601 0.86102 0.0
S1436 S 0.49441 0.51592 0.81827 0.0
N1437 N 0.52191 0.50147 0.79749 0.0
N1438 N 0.52286 0.52569 0.84653 0.0
C1439 C 0.55683 0.51716 0.83995 0.0
C1440 C 0.55643 0.50421 0.81325 0.0
C1441 C 0.5552 0.03302 0.79516 0.0
C1442 C 0.56467 0.07537 0.79017 0.0
C1443 C 0.54616 0.01155 0.82219 0.0
C1444 C 0.54446 0.0312 0.84519 0.0
H1445 H 0.55006 0.01515 0.77801 0.0
H1446 H 0.53676 0.97826 0.82481 0.0
S1447 S 0.57377 0.14433 0.84258 0.0
N1448 N 0.57924 0.13829 0.81001 0.0
N1449 N 0.55883 0.09778 0.86074 0.0
C1450 C 0.55853 0.07497 0.84046 0.0
C1451 C 0.56946 0.09704 0.81295 0.0
C1452 C 0.14943 0.26661 0.58823 0.0
C1453 C 0.17248 0.28619 0.61087 0.0
C1454 C 0.16328 0.28726 0.56102 0.0
C1455 C 0.20186 0.32767 0.55536 0.0
H1456 H 0.11755 0.23725 0.59189 0.0
H1457 H 0.1412 0.27298 0.54481 0.0
S1458 S 0.28228 0.38569 0.60671 0.0
N1459 N 0.24004 0.34439 0.62538 0.0
N1460 N 0.26964 0.38067 0.5742 0.0
C1461 C 0.22929 0.34404 0.57748 0.0
C1462 C 0.21387 0.32388 0.60526 0.0
C1463 C 0.77315 0.8911 0.57326 0.0
C1464 C 0.7568 0.87052 0.60039 0.0
C1465 C 0.74739 0.87612 0.55044 0.0
C1466 C 0.7043 0.83955 0.55379 0.0
H1467 H 0.80465 0.92085 0.56998 0.0
H1468 H 0.76 0.89508 0.53037 0.0
S1469 S 0.65066 0.76943 0.62005 0.0
N1470 N 0.69775 0.80915 0.62898 0.0
N1471 N 0.65041 0.77916 0.58612 0.0
C1472 C 0.68992 0.81629 0.58056 0.0
C1473 C 0.71592 0.8321 0.60382 0.0
C1474 C 0.15319 0.86926 0.60343 0.0
C1475 C 0.11481 0.8752 0.60581 0.0
C1476 C 0.16007 0.85083 0.58144 0.0
C1477 C 0.12901 0.83769 0.56058 0.0
H1478 H 0.17871 0.87997 0.61852 0.0
H1479 H 0.19064 0.84763 0.58048 0.0
S1480 S 0.02181 0.84475 0.55788 0.0
N1481 N 0.04462 0.8657 0.586 0.0
N1482 N 0.05711 0.83059 0.54448 0.0
C1483 C 0.08992 0.84283 0.56293 0.0
C1484 C 0.08285 0.86153 0.58561 0.0
C1485 C 0.59405 0.83089 0.14959 0.0
C1486 C 0.61971 0.82669 0.12851 0.0
C1487 C 0.61509 0.85085 0.17266 0.0
C1488 C 0.66243 0.86731 0.17521 0.0
H1489 H 0.55755 0.81796 0.14843 0.0
H1490 H 0.59432 0.85371 0.18847 0.0
S1491 S 0.74367 0.86274 0.1255 0.0
N1492 N 0.69401 0.83977 0.1116 0.0
N1493 N 0.73365 0.8768 0.15466 0.0
C1494 C 0.6881 0.8631 0.15407 0.0
C1495 C 0.66672 0.84293 0.13081 0.0
C1496 C 0.22429 0.858 0.13152 0.0
C1497 C 0.24191 0.82965 0.13287 0.0
C1498 C 0.21098 0.86831 0.15567 0.0
C1499 C 0.21285 0.84937 0.18241 0.0
H1500 H 0.21711 0.8695 0.11167 0.0
H1501 H 0.1962 0.88926 0.15316 0.0
S1502 S 0.26216 0.77685 0.19688 0.0
N1503 N 0.2666 0.78734 0.1628 0.0
N1504 N 0.2388 0.80388 0.20818 0.0
C1505 C 0.23417 0.8237 0.18396 0.0
C1506 C 0.24923 0.81451 0.15924 0.0
C1507 C 0.1987 0.36347 0.12961 0.0
C1508 C 0.22905 0.40706 0.12433 0.0
C1509 C 0.19475 0.34038 0.15546 0.0
C1510 C 0.2213 0.35999 0.17711 0.0
H1511 H 0.17558 0.34784 0.11412 0.0
H1512 H 0.16878 0.30741 0.15892 0.0
S1513 S 0.31111 0.47255 0.17203 0.0
N1514 N 0.28923 0.46842 0.14145 0.0
N1515 N 0.28335 0.42489 0.19011 0.0
C1516 C 0.25433 0.40311 0.17134 0.0
C1517 C 0.25801 0.42664 0.14489 0.0
C1518 C 0.82509 0.57357 0.93322 0.0
C1519 C 0.82865 0.60836 0.94506 0.0
C1520 C 0.82694 0.57453 0.90433 0.0
C1521 C 0.83148 0.61004 0.88634 0.0
H1522 H 0.8168 0.54427 0.94632 0.0
H1523 H 0.82192 0.54623 0.89613 0.0
S1524 S 0.84817 0.71116 0.9082 0.0
N1525 N 0.84355 0.68096 0.93739 0.0
N1526 N 0.84384 0.68248 0.88335 0.0
C1527 C 0.83916 0.64637 0.89825 0.0
C1528 C 0.83868 0.64559 0.92755 0.0
C1529 C 0.38168 0.16727 0.93583 0.0
C1530 C 0.42565 0.20219 0.93412 0.0
C1531 C 0.36142 0.14973 0.91196 0.0
C1532 C 0.38432 0.16667 0.88544 0.0
H1533 H 0.36232 0.15453 0.95562 0.0
H1534 H 0.327 0.12343 0.91419 0.0
S1535 S 0.50216 0.2558 0.87067 0.0
N1536 N 0.49263 0.2515 0.90443 0.0
N1537 N 0.45514 0.2186 0.85963 0.0
C1538 C 0.42902 0.2008 0.88377 0.0
C1539 C 0.44951 0.21849 0.90806 0.0
C1540 C 0.75826 0.19851 0.91598 0.0
C1541 C 0.78204 0.19998 0.93996 0.0
C1542 C 0.76351 0.17965 0.89342 0.0
C1543 C 0.79307 0.16187 0.89398 0.0
H1544 H 0.73653 0.21313 0.91442 0.0
H1545 H 0.74436 0.17905 0.87544 0.0
S1546 S 0.86525 0.16074 0.95168 0.0
N1547 N 0.83678 0.18345 0.96273 0.0
N1548 N 0.84798 0.14923 0.92061 0.0
C1549 C 0.81707 0.16353 0.91802 0.0
C1550 C 0.8112 0.1822 0.94089 0.0
C1551 C 0.3084 0.17852 0.4651 0.0
C1552 C 0.2618 0.14906 0.46844 0.0
C1553 C 0.33383 0.19375 0.48794 0.0
C1554 C 0.31425 0.17857 0.51533 0.0
H1555 H 0.32596 0.18779 0.44478 0.0
H1556 H 0.36984 0.21601 0.48406 0.0
S1557 S 0.19201 0.10194 0.53468 0.0
N1558 N 0.19579 0.10767 0.50053 0.0
N1559 N 0.24378 0.13307 0.5439 0.0
C1560 C 0.26682 0.15041 0.51877 0.0
C1561 C 0.24068 0.1363 0.49526 0.0
C1562 C 0.92054 0.14002 0.49622 0.0
C1563 C 0.92045 0.16042 0.46974 0.0
C1564 C 0.91859 0.15676 0.5206 0.0
C1565 C 0.91684 0.19496 0.51962 0.0
H1566 H 0.92105 0.1102 0.49806 0.0
H1567 H 0.91868 0.13973 0.54038 0.0
S1568 S 0.91433 0.26015 0.4555 0.0
N1569 N 0.91715 0.22021 0.44418 0.0
N1570 N 0.9146 0.25239 0.48954 0.0
C1571 C 0.91737 0.21596 0.49317 0.0
C1572 C 0.91898 0.19863 0.46841 0.0
C1573 C 0.88338 0.69599 0.46106 0.0
C1574 C 0.89762 0.73939 0.45495 0.0
C1575 C 0.87387 0.67591 0.48845 0.0
C1576 C 0.8759 0.69804 0.51084 0.0
H1577 H 0.87492 0.67653 0.44457 0.0
H1578 H 0.86108 0.64199 0.49186 0.0
S1579 S 0.9172 0.81396 0.50536 0.0
N1580 N 0.91977 0.80519 0.47312 0.0
N1581 N 0.89849 0.76755 0.52461 0.0
C1582 C 0.89426 0.74242 0.50502 0.0
C1583 C 0.90577 0.76297 0.47707 0.0
loop_
_geom_bond_atom_site_label_1
_geom_bond_atom_site_label_2
_geom_bond_distance
_geom_bond_site_symmetry_2
_ccdc_geom_bond_type
C0 N1 1.317 . S
C0 N2 1.348 . S
C0 C3 1.485 . S
N1 C0 1.317 . S
N1 N5 1.370 . S
N2 C0 1.348 . S
N2 C4 1.346 . S
C3 C0 1.485 . S
C3 H7 0.960 . S
C3 H8 0.961 . S
C3 H9 0.960 . S
C4 N2 1.346 . S
C4 N5 1.307 . S
C4 C6 1.486 . S
N5 N1 1.370 . S
N5 C4 1.307 . S
C6 C4 1.486 . S
C6 H10 0.960 . S
C6 H11 0.960 . S
C6 H12 0.959 . S
H7 C3 0.960 . S
H8 C3 0.961 . S
H9 C3 0.960 . S
H10 C6 0.960 . S
H11 C6 0.960 . S
H12 C6 0.959 . S
C13 N14 1.317 . S
C13 N15 1.348 . S
C13 C16 1.485 . S
N14 C13 1.317 . S
N14 N18 1.370 . S
N15 C13 1.348 . S
N15 C17 1.346 . S
C16 C13 1.485 . S
C16 H20 0.960 . S
C16 H21 0.961 . S
C16 H22 0.960 . S
C17 N15 1.346 . S
C17 N18 1.307 . S
C17 C19 1.486 . S
N18 N14 1.370 . S
N18 C17 1.307 . S
C19 C17 1.486 . S
C19 H23 0.960 . S
C19 H24 0.960 . S
C19 H25 0.959 . S
H20 C16 0.960 . S
H21 C16 0.961 . S
H22 C16 0.960 . S
H23 C19 0.960 . S
H24 C19 0.960 . S
H25 C19 0.959 . S
C26 N27 1.317 . S
C26 N28 1.348 . S
C26 C29 1.485 . S
N27 C26 1.317 . S
N27 N31 1.370 . S
N28 C26 1.348 . S
N28 C30 1.346 . S
C29 C26 1.485 . S
C29 H33 0.960 . S
C29 H34 0.961 . S
C29 H35 0.960 . S
C30 N28 1.346 . S
C30 N31 1.307 . S
C30 C32 1.486 . S
N31 N27 1.370 . S
N31 C30 1.307 . S
C32 C30 1.486 . S
C32 H36 0.960 . S
C32 H37 0.960 . S
C32 H38 0.959 . S
H33 C29 0.960 . S
H34 C29 0.961 . S
H35 C29 0.960 . S
H36 C32 0.960 . S
H37 C32 0.960 . S
H38 C32 0.959 . S
C39 N40 1.317 . S
C39 N41 1.348 . S
C39 C42 1.485 . S
N40 C39 1.317 . S
N40 N44 1.370 . S
N41 C39 1.348 . S
N41 C43 1.346 . S
C42 C39 1.485 . S
C42 H46 0.960 . S
C42 H47 0.961 . S
C42 H48 0.960 . S
C43 N41 1.346 . S
C43 N44 1.307 . S
C43 C45 1.486 . S
N44 N40 1.370 . S
N44 C43 1.307 . S
C45 C43 1.486 . S
C45 H49 0.960 . S
C45 H50 0.960 1_455 S
C45 H51 0.959 . S
H46 C42 0.960 . S
H47 C42 0.961 . S
H48 C42 0.960 . S
H49 C45 0.960 . S
H50 C45 0.960 1_655 S
H51 C45 0.959 . S
C52 N53 1.317 . S
C52 N54 1.348 . S
C52 C55 1.485 . S
N53 C52 1.317 . S
N53 N57 1.370 . S
N54 C52 1.348 . S
N54 C56 1.346 . S
C55 C52 1.485 . S
C55 H59 0.960 . S
C55 H60 0.961 . S
C55 H61 0.960 . S
C56 N54 1.346 . S
C56 N57 1.307 . S
C56 C58 1.486 . S
N57 N53 1.370 . S
N57 C56 1.307 . S
C58 C56 1.486 . S
C58 H62 0.960 . S
C58 H63 0.960 . S
C58 H64 0.959 . S
H59 C55 0.960 . S
H60 C55 0.961 . S
H61 C55 0.960 . S
H62 C58 0.960 . S
H63 C58 0.960 . S
H64 C58 0.959 . S
C65 N66 1.317 . S
C65 N67 1.348 . S
C65 C68 1.485 . S
N66 C65 1.317 . S
N66 N70 1.370 . S
N67 C65 1.348 . S
N67 C69 1.346 . S
C68 C65 1.485 . S
C68 H72 0.960 . S
C68 H73 0.961 . S
C68 H74 0.960 . S
C69 N67 1.346 . S
C69 N70 1.307 . S
C69 C71 1.486 . S
N70 N66 1.370 . S
N70 C69 1.307 . S
C71 C69 1.486 . S
C71 H75 0.960 . S
C71 H76 0.960 . S
C71 H77 0.959 . S
H72 C68 0.960 . S
H73 C68 0.961 . S
H74 C68 0.960 . S
H75 C71 0.960 . S
H76 C71 0.960 . S
H77 C71 0.959 . S
C78 N79 1.317 . S
C78 N80 1.348 . S
C78 C81 1.485 . S
N79 C78 1.317 . S
N79 N83 1.370 . S
N80 C78 1.348 . S
N80 C82 1.346 . S
C81 C78 1.485 . S
C81 H85 0.960 . S
C81 H86 0.961 . S
C81 H87 0.960 . S
C82 N80 1.346 . S
C82 N83 1.307 . S
C82 C84 1.486 . S
N83 N79 1.370 . S
N83 C82 1.307 . S
C84 C82 1.486 . S
C84 H88 0.960 . S
C84 H89 0.960 . S
C84 H90 0.959 . S
H85 C81 0.960 . S
H86 C81 0.961 . S
H87 C81 0.960 . S
H88 C84 0.960 . S
H89 C84 0.960 . S
H90 C84 0.959 . S
C91 N92 1.317 . S
C91 N93 1.348 . S
C91 C94 1.485 . S
N92 C91 1.317 . S
N92 N96 1.370 . S
N93 C91 1.348 . S
N93 C95 1.346 . S
C94 C91 1.485 . S
C94 H98 0.960 . S
C94 H99 0.961 . S
C94 H100 0.960 . S
C95 N93 1.346 . S
C95 N96 1.307 . S
C95 C97 1.486 . S
N96 N92 1.370 . S
N96 C95 1.307 . S
C97 C95 1.486 . S
C97 H101 0.960 . S
C97 H102 0.960 . S
C97 H103 0.959 . S
H98 C94 0.960 . S
H99 C94 0.961 . S
H100 C94 0.960 . S
H101 C97 0.960 . S
H102 C97 0.960 . S
H103 C97 0.959 . S
C104 N105 1.317 . S
C104 N106 1.348 . S
C104 C107 1.485 . S
N105 C104 1.317 . S
N105 N109 1.370 . S
N106 C104 1.348 . S
N106 C108 1.346 . S
C107 C104 1.485 . S
C107 H111 0.960 . S
C107 H112 0.961 . S
C107 H113 0.960 . S
C108 N106 1.346 . S
C108 N109 1.307 . S
C108 C110 1.486 . S
N109 N105 1.370 . S
N109 C108 1.307 . S
C110 C108 1.486 . S
C110 H114 0.960 . S
C110 H115 0.960 . S
C110 H116 0.959 . S
H111 C107 0.960 . S
H112 C107 0.961 . S
H113 C107 0.960 . S
H114 C110 0.960 . S
H115 C110 0.960 . S
H116 C110 0.959 . S
C117 N118 1.317 . S
C117 N119 1.348 . S
C117 C120 1.485 1_556 S
N118 C117 1.317 . S
N118 N122 1.370 . S
N119 C117 1.348 . S
N119 C121 1.346 . S
C120 C117 1.485 1_554 S
C120 H124 0.960 . S
C120 H125 0.961 . S
C120 H126 0.960 . S
C121 N119 1.346 . S
C121 N122 1.307 . S
C121 C123 1.486 . S
N122 N118 1.370 . S
N122 C121 1.307 . S
C123 C121 1.486 . S
C123 H127 0.960 . S
C123 H128 0.960 . S
C123 H129 0.959 . S
H124 C120 0.960 . S
H125 C120 0.961 . S
H126 C120 0.960 . S
H127 C123 0.960 . S
H128 C123 0.960 . S
H129 C123 0.959 . S
C130 N131 1.317 . S
C130 N132 1.348 . S
C130 C133 1.485 1_556 S
N131 C130 1.317 . S
N131 N135 1.370 . S
N132 C130 1.348 . S
N132 C134 1.346 . S
C133 C130 1.485 1_554 S
C133 H137 0.960 . S
C133 H138 0.961 . S
C133 H139 0.960 . S
C134 N132 1.346 . S
C134 N135 1.307 . S
C134 C136 1.486 . S
N135 N131 1.370 . S
N135 C134 1.307 . S
C136 C134 1.486 . S
C136 H140 0.960 . S
C136 H141 0.960 . S
C136 H142 0.959 . S
H137 C133 0.960 . S
H138 C133 0.961 . S
H139 C133 0.960 . S
H140 C136 0.960 . S
H141 C136 0.960 . S
H142 C136 0.959 . S
C143 N144 1.317 . S
C143 N145 1.348 . S
C143 C146 1.485 1_556 S
N144 C143 1.317 . S
N144 N148 1.370 . S
N145 C143 1.348 . S
N145 C147 1.346 . S
C146 C143 1.485 1_554 S
C146 H150 0.960 . S
C146 H151 0.961 . S
C146 H152 0.960 . S
C147 N145 1.346 . S
C147 N148 1.307 . S
C147 C149 1.486 . S
N148 N144 1.370 . S
N148 C147 1.307 . S
C149 C147 1.486 . S
C149 H153 0.960 . S
C149 H154 0.960 . S
C149 H155 0.959 . S
H150 C146 0.960 . S
H151 C146 0.961 . S
H152 C146 0.960 . S
H153 C149 0.960 . S
H154 C149 0.960 . S
H155 C149 0.959 . S
C156 N157 1.317 . S
C156 N158 1.348 . S
C156 C159 1.485 . S
N157 C156 1.317 . S
N157 N161 1.370 . S
N158 C156 1.348 . S
N158 C160 1.346 . S
C159 C156 1.485 . S
C159 H163 0.960 . S
C159 H164 0.961 . S
C159 H165 0.960 . S
C160 N158 1.346 . S
C160 N161 1.307 . S
C160 C162 1.486 . S
N161 N157 1.370 . S
N161 C160 1.307 . S
C162 C160 1.486 . S
C162 H166 0.960 . S
C162 H167 0.960 . S
C162 H168 0.959 . S
H163 C159 0.960 . S
H164 C159 0.961 . S
H165 C159 0.960 . S
H166 C162 0.960 . S
H167 C162 0.960 . S
H168 C162 0.959 . S
C169 N170 1.317 . S
C169 N171 1.348 . S
C169 C172 1.485 . S
N170 C169 1.317 . S
N170 N174 1.370 . S
N171 C169 1.348 . S
N171 C173 1.346 . S
C172 C169 1.485 . S
C172 H176 0.960 . S
C172 H177 0.961 . S
C172 H178 0.960 . S
C173 N171 1.346 . S
C173 N174 1.307 . S
C173 C175 1.486 . S
N174 N170 1.370 . S
N174 C173 1.307 . S
C175 C173 1.486 . S
C175 H179 0.960 . S
C175 H180 0.960 . S
C175 H181 0.959 . S
H176 C172 0.960 . S
H177 C172 0.961 . S
H178 C172 0.960 . S
H179 C175 0.960 . S
H180 C175 0.960 . S
H181 C175 0.959 . S
C182 N183 1.317 . S
C182 N184 1.348 . S
C182 C185 1.485 . S
N183 C182 1.317 . S
N183 N187 1.370 . S
N184 C182 1.348 . S
N184 C186 1.346 . S
C185 C182 1.485 . S
C185 H189 0.960 . S
C185 H190 0.961 . S
C185 H191 0.960 . S
C186 N184 1.346 . S
C186 N187 1.307 . S
C186 C188 1.486 . S
N187 N183 1.370 . S
N187 C186 1.307 . S
C188 C186 1.486 . S
C188 H192 0.960 . S
C188 H193 0.960 . S
C188 H194 0.959 . S
H189 C185 0.960 . S
H190 C185 0.961 . S
H191 C185 0.960 . S
H192 C188 0.960 . S
H193 C188 0.960 . S
H194 C188 0.959 . S
C195 N196 1.317 . S
C195 N197 1.348 . S
C195 C198 1.485 . S
N196 C195 1.317 . S
N196 N200 1.370 . S
N197 C195 1.348 . S
N197 C199 1.346 . S
C198 C195 1.485 . S
C198 H202 0.960 . S
C198 H203 0.961 . S
C198 H204 0.960 . S
C199 N197 1.346 . S
C199 N200 1.307 . S
C199 C201 1.486 . S
N200 N196 1.370 . S
N200 C199 1.307 . S
C201 C199 1.486 . S
C201 H205 0.960 . S
C201 H206 0.960 . S
C201 H207 0.959 . S
H202 C198 0.960 . S
H203 C198 0.961 . S
H204 C198 0.960 . S
H205 C201 0.960 . S
H206 C201 0.960 . S
H207 C201 0.959 . S
C208 N209 1.317 . S
C208 N210 1.348 . S
C208 C211 1.485 . S
N209 C208 1.317 . S
N209 N213 1.370 . S
N210 C208 1.348 . S
N210 C212 1.346 . S
C211 C208 1.485 . S
C211 H215 0.960 . S
C211 H216 0.961 . S
C211 H217 0.960 . S
C212 N210 1.346 . S
C212 N213 1.307 . S
C212 C214 1.486 . S
N213 N209 1.370 . S
N213 C212 1.307 . S
C214 C212 1.486 . S
C214 H218 0.960 . S
C214 H219 0.960 . S
C214 H220 0.959 . S
H215 C211 0.960 . S
H216 C211 0.961 . S
H217 C211 0.960 . S
H218 C214 0.960 . S
H219 C214 0.960 . S
H220 C214 0.959 . S
C221 N222 1.317 . S
C221 N223 1.348 . S
C221 C224 1.485 . S
N222 C221 1.317 . S
N222 N226 1.370 . S
N223 C221 1.348 . S
N223 C225 1.346 . S
C224 C221 1.485 . S
C224 H228 0.960 . S
C224 H229 0.961 . S
C224 H230 0.960 . S
C225 N223 1.346 . S
C225 N226 1.307 . S
C225 C227 1.486 . S
N226 N222 1.370 . S
N226 C225 1.307 . S
C227 C225 1.486 . S
C227 H231 0.960 . S
C227 H232 0.960 . S
C227 H233 0.959 . S
H228 C224 0.960 . S
H229 C224 0.961 . S
H230 C224 0.960 . S
H231 C227 0.960 . S
H232 C227 0.960 . S
H233 C227 0.959 . S
Eu234 N265 2.657 . S
Eu234 N272 2.609 . S
Eu234 O278 2.558 . S
Eu234 O279 2.612 1_566 S
Eu234 O281 2.339 1_565 S
Eu234 O282 2.563 1_565 S
Eu234 O283 2.419 1_565 S
Eu234 O285 2.380 1_556 S
Eu234 O286 2.432 1_556 S
Eu234 C298 2.848 1_565 S
C235 C238 1.429 . S
C235 C239 1.411 . S
C235 N242 1.377 . S
C236 C238 1.420 . S
C236 C240 1.423 . S
C236 C248 1.392 . S
C237 C239 1.420 . S
C237 C240 1.351 . S
C237 H260 0.931 . S
C238 C235 1.429 . S
C238 C236 1.420 . S
C238 N246 1.362 . S
C239 C235 1.411 . S
C239 C237 1.420 . S
C239 C244 1.395 . S
C240 C236 1.423 . S
C240 C237 1.351 . S
C240 H252 0.930 . S
C241 C243 1.400 . S
C241 C244 1.386 . S
C241 H253 0.930 . S
N242 C235 1.377 . S
N242 C243 1.321 . S
N242 Eu245 2.609 . S
C243 C241 1.400 . S
C243 N242 1.321 . S
C243 H250 0.930 . S
C244 C239 1.395 . S
C244 C241 1.386 . S
C244 H263 0.930 . S
Eu245 N242 2.609 . S
Eu245 N246 2.657 . S
Eu245 O279 2.380 . S
Eu245 O280 2.432 . S
Eu245 O284 2.558 . S
Eu245 O285 2.612 1_545 S
Eu245 O287 2.339 1_545 S
Eu245 O288 2.563 1_545 S
Eu245 O289 2.419 1_545 S
Eu245 C309 2.848 1_545 S
N246 C238 1.362 . S
N246 Eu245 2.657 . S
N246 C247 1.334 . S
C247 N246 1.334 . S
C247 C249 1.413 . S
C247 H254 0.929 . S
C248 C236 1.392 . S
C248 C249 1.367 . S
C248 H256 0.930 . S
C249 C247 1.413 . S
C249 C248 1.367 . S
C249 H251 0.930 . S
H250 C243 0.930 . S
H251 C249 0.930 . S
H252 C240 0.930 . S
H253 C241 0.930 . S
H254 C247 0.929 . S
H255 C269 0.930 . S
H256 C248 0.930 . S
H257 C275 0.930 . S
H258 C266 0.929 1_545 S
H259 C273 0.930 . S
H260 C237 0.931 . S
H261 C267 0.930 . S
H262 C300 0.930 . S
H263 C244 0.930 . S
H264 C299 0.931 . S
N265 Eu234 2.657 . S
N265 C266 1.334 . S
N265 C270 1.362 . S
C266 H258 0.929 1_565 S
C266 N265 1.334 . S
C266 C269 1.413 . S
C267 H261 0.930 . S
C267 C268 1.392 . S
C267 C269 1.367 . S
C268 C267 1.392 . S
C268 C270 1.420 . S
C268 C300 1.423 . S
C269 H255 0.930 . S
C269 C266 1.413 . S
C269 C267 1.367 . S
C270 N265 1.362 . S
C270 C268 1.420 . S
C270 C274 1.429 . S
H271 C276 0.930 . S
N272 Eu234 2.609 . S
N272 C274 1.377 . S
N272 C275 1.321 . S
C273 H259 0.930 . S
C273 C275 1.400 . S
C273 C276 1.386 . S
C274 C270 1.429 . S
C274 N272 1.377 . S
C274 C277 1.411 . S
C275 H257 0.930 . S
C275 N272 1.321 . S
C275 C273 1.400 . S
C276 H271 0.930 . S
C276 C273 1.386 . S
C276 C277 1.395 . S
C277 C274 1.411 . S
C277 C276 1.395 . S
C277 C299 1.420 . S
O278 Eu234 2.558 . S
O278 C298 1.257 1_565 S
O279 Eu234 2.612 1_544 S
O279 Eu245 2.380 . S
O279 C290 1.276 1_554 S
O280 Eu245 2.432 . S
O280 C297 1.264 . S
O281 Eu234 2.339 1_545 S
O281 C297 1.254 1_556 S
O282 Eu234 2.563 1_545 S
O282 C290 1.235 . S
O283 Eu234 2.419 1_545 S
O283 C298 1.249 . S
O284 Eu245 2.558 . S
O284 C309 1.257 1_545 S
O285 Eu234 2.380 1_554 S
O285 Eu245 2.612 1_565 S
O285 C301 1.276 . S
O286 Eu234 2.432 1_554 S
O286 C308 1.264 . S
O287 Eu245 2.339 1_565 S
O287 C308 1.254 . S
O288 Eu245 2.563 1_565 S
O288 C301 1.235 . S
O289 Eu245 2.419 1_565 S
O289 C309 1.249 . S
C290 O279 1.276 1_556 S
C290 O282 1.235 . S
C291 C293 1.393 . S
C291 C295 1.395 . S
C291 C298 1.492 . S
C292 C293 1.392 . S
C292 C294 1.386 . S
C293 C291 1.393 . S
C293 C292 1.392 . S
C293 H310 0.930 . S
C294 C292 1.386 . S
C294 C296 1.395 . S
C294 H311 0.930 . S
C295 C291 1.395 . S
C295 C296 1.379 . S
C295 H312 0.930 1_545 S
C296 C294 1.395 . S
C296 C295 1.379 . S
C296 H313 0.930 . S
C297 O280 1.264 . S
C297 O281 1.254 1_554 S
C298 Eu234 2.848 1_545 S
C298 O278 1.257 1_545 S
C298 O283 1.249 . S
C298 C291 1.492 . S
C299 H264 0.931 . S
C299 C277 1.420 . S
C299 C300 1.351 . S
C300 H262 0.930 . S
C300 C268 1.423 . S
C300 C299 1.351 . S
C301 O285 1.276 . S
C301 O288 1.235 . S
C302 C303 1.393 . S
C302 C306 1.395 . S
C302 C309 1.492 . S
C303 C302 1.393 . S
C303 C304 1.392 . S
C303 H314 0.930 . S
C304 C303 1.392 . S
C304 C305 1.386 . S
C305 C304 1.386 . S
C305 C307 1.395 . S
C305 H315 0.930 . S
C306 C302 1.395 . S
C306 C307 1.379 . S
C306 H316 0.930 1_565 S
C307 C305 1.395 . S
C307 C306 1.379 . S
C307 H317 0.930 . S
C308 O286 1.264 . S
C308 O287 1.254 . S
C309 Eu245 2.848 1_565 S
C309 O284 1.257 1_565 S
C309 O289 1.249 . S
C309 C302 1.492 . S
H310 C293 0.930 . S
H311 C294 0.930 . S
H312 C295 0.930 1_565 S
H313 C296 0.930 . S
H314 C303 0.930 . S
H315 C305 0.930 . S
H316 C306 0.930 1_545 S
H317 C307 0.930 . S
Eu318 N349 2.657 . S
Eu318 N356 2.609 . S
Eu318 O362 2.558 . S
Eu318 O363 2.612 1_456 S
Eu318 O365 2.339 1_455 S
Eu318 O366 2.563 1_455 S
Eu318 O367 2.419 . S
Eu318 O369 2.380 1_556 S
Eu318 O370 2.432 . S
Eu318 C382 2.848 . S
C319 C322 1.429 . S
C319 C323 1.411 . S
C319 N326 1.377 . S
C320 C322 1.420 . S
C320 C324 1.423 . S
C320 C332 1.392 . S
C321 C323 1.420 . S
C321 C324 1.351 . S
C321 H344 0.931 . S
C322 C319 1.429 . S
C322 C320 1.420 . S
C322 N330 1.362 . S
C323 C319 1.411 . S
C323 C321 1.420 . S
C323 C328 1.395 . S
C324 C320 1.423 . S
C324 C321 1.351 . S
C324 H336 0.930 . S
C325 C327 1.400 . S
C325 C328 1.386 . S
C325 H337 0.930 . S
N326 C319 1.377 . S
N326 C327 1.321 . S
N326 Eu329 2.609 . S
C327 C325 1.400 . S
C327 N326 1.321 . S
C327 H334 0.930 . S
C328 C323 1.395 . S
C328 C325 1.386 . S
C328 H347 0.930 . S
Eu329 N326 2.609 . S
Eu329 N330 2.657 . S
Eu329 O363 2.380 . S
Eu329 O364 2.432 . S
Eu329 O368 2.558 . S
Eu329 O369 2.612 1_655 S
Eu329 O371 2.339 1_655 S
Eu329 O372 2.563 1_655 S
Eu329 O373 2.419 . S
Eu329 C393 2.848 . S
N330 C322 1.362 . S
N330 Eu329 2.657 . S
N330 C331 1.334 . S
C331 N330 1.334 . S
C331 C333 1.413 . S
C331 H338 0.929 . S
C332 C320 1.392 . S
C332 C333 1.367 . S
C332 H340 0.930 . S
C333 C331 1.413 . S
C333 C332 1.367 . S
C333 H335 0.930 . S
H334 C327 0.930 . S
H335 C333 0.930 . S
H336 C324 0.930 . S
H337 C325 0.930 . S
H338 C331 0.929 . S
H339 C353 0.930 . S
H340 C332 0.930 . S
H341 C359 0.930 . S
H342 C350 0.929 . S
H343 C357 0.930 . S
H344 C321 0.931 . S
H345 C351 0.930 . S
H346 C384 0.930 . S
H347 C328 0.930 . S
H348 C383 0.931 . S
N349 Eu318 2.657 . S
N349 C350 1.334 . S
N349 C354 1.362 . S
C350 H342 0.929 . S
C350 N349 1.334 . S
C350 C353 1.413 . S
C351 H345 0.930 . S
C351 C352 1.392 . S
C351 C353 1.367 . S
C352 C351 1.392 . S
C352 C354 1.420 . S
C352 C384 1.423 . S
C353 H339 0.930 . S
C353 C350 1.413 . S
C353 C351 1.367 . S
C354 N349 1.362 . S
C354 C352 1.420 . S
C354 C358 1.429 . S
H355 C360 0.930 . S
N356 Eu318 2.609 . S
N356 C358 1.377 . S
N356 C359 1.321 . S
C357 H343 0.930 . S
C357 C359 1.400 . S
C357 C360 1.386 . S
C358 C354 1.429 . S
C358 N356 1.377 . S
C358 C361 1.411 . S
C359 H341 0.930 . S
C359 N356 1.321 . S
C359 C357 1.400 . S
C360 H355 0.930 . S
C360 C357 1.386 . S
C360 C361 1.395 . S
C361 C358 1.411 . S
C361 C360 1.395 . S
C361 C383 1.420 . S
O362 Eu318 2.558 . S
O362 C382 1.257 . S
O363 Eu318 2.612 1_654 S
O363 Eu329 2.380 . S
O363 C374 1.276 1_554 S
O364 Eu329 2.432 . S
O364 C381 1.249 1_554 S
O365 Eu318 2.339 1_655 S
O365 C381 1.263 . S
O366 Eu318 2.563 1_655 S
O366 C374 1.235 . S
O367 Eu318 2.419 . S
O367 C382 1.249 . S
O368 Eu329 2.558 . S
O368 C393 1.257 . S
O369 Eu318 2.380 1_554 S
O369 Eu329 2.612 1_455 S
O369 C385 1.276 . S
O370 Eu318 2.432 . S
O370 C392 1.264 1_556 S
O371 Eu329 2.339 1_455 S
O371 C392 1.254 . S
O372 Eu329 2.563 1_455 S
O372 C385 1.235 . S
O373 Eu329 2.419 . S
O373 C393 1.249 . S
C374 O363 1.276 1_556 S
C374 O366 1.235 . S
C375 C377 1.393 1_455 S
C375 C379 1.395 . S
C375 C382 1.492 . S
C376 C377 1.392 . S
C376 C378 1.386 1_655 S
C377 C375 1.393 1_655 S
C377 C376 1.392 . S
C377 H394 0.930 . S
C378 C376 1.386 1_455 S
C378 C380 1.395 . S
C378 H395 0.930 . S
C379 C375 1.395 . S
C379 C380 1.379 . S
C379 H396 0.930 . S
C380 C378 1.395 . S
C380 C379 1.379 . S
C380 H397 0.930 . S
C381 O364 1.249 1_556 S
C381 O365 1.263 . S
C382 Eu318 2.848 . S
C382 O362 1.257 . S
C382 O367 1.249 . S
C382 C375 1.492 . S
C383 H348 0.931 . S
C383 C361 1.420 . S
C383 C384 1.351 . S
C384 H346 0.930 . S
C384 C352 1.423 . S
C384 C383 1.351 . S
C385 O369 1.276 . S
C385 O372 1.235 . S
C386 C387 1.393 1_655 S
C386 C390 1.395 . S
C386 C393 1.492 . S
C387 C386 1.393 1_455 S
C387 C388 1.392 . S
C387 H398 0.930 . S
C388 C387 1.392 . S
C388 C389 1.386 . S
C389 C388 1.386 . S
C389 C391 1.395 1_455 S
C389 H399 0.930 . S
C390 C386 1.395 . S
C390 C391 1.379 . S
C390 H400 0.930 . S
C391 C389 1.395 1_655 S
C391 C390 1.379 . S
C391 H401 0.930 . S
C392 O370 1.264 1_554 S
C392 O371 1.254 . S
C393 Eu329 2.848 . S
C393 O368 1.257 . S
C393 O373 1.249 . S
C393 C386 1.492 . S
H394 C377 0.930 . S
H395 C378 0.930 . S
H396 C379 0.930 . S
H397 C380 0.930 . S
H398 C387 0.930 . S
H399 C389 0.930 . S
H400 C390 0.930 . S
H401 C391 0.930 . S
Eu402 N433 2.657 . S
Eu402 N440 2.609 . S
Eu402 O446 2.558 . S
Eu402 O447 2.612 . S
Eu402 O449 2.339 . S
Eu402 O450 2.563 . S
Eu402 O451 2.419 . S
Eu402 O453 2.380 . S
Eu402 O454 2.432 . S
Eu402 C466 2.848 . S
C403 C406 1.429 . S
C403 C407 1.411 . S
C403 N410 1.377 . S
C404 C406 1.420 . S
C404 C408 1.423 . S
C404 C416 1.392 . S
C405 C407 1.420 . S
C405 C408 1.351 . S
C405 H428 0.931 . S
C406 C403 1.429 . S
C406 C404 1.420 . S
C406 N414 1.362 . S
C407 C403 1.411 . S
C407 C405 1.420 . S
C407 C412 1.395 . S
C408 C404 1.423 . S
C408 C405 1.351 . S
C408 H420 0.930 . S
C409 C411 1.400 . S
C409 C412 1.386 . S
C409 H421 0.930 . S
N410 C403 1.377 . S
N410 C411 1.321 . S
N410 Eu413 2.609 . S
C411 C409 1.400 . S
C411 N410 1.321 . S
C411 H418 0.930 . S
C412 C407 1.395 . S
C412 C409 1.386 . S
C412 H431 0.930 . S
Eu413 N410 2.609 . S
Eu413 N414 2.657 . S
Eu413 O447 2.380 1_556 S
Eu413 O448 2.432 1_556 S
Eu413 O452 2.558 . S
Eu413 O453 2.612 1_556 S
Eu413 O455 2.339 1_556 S
Eu413 O456 2.563 . S
Eu413 O457 2.419 . S
Eu413 C477 2.848 . S
N414 C406 1.362 . S
N414 Eu413 2.657 . S
N414 C415 1.334 . S
C415 N414 1.334 . S
C415 C417 1.413 . S
C415 H422 0.929 . S
C416 C404 1.392 . S
C416 C417 1.367 . S
C416 H424 0.930 . S
C417 C415 1.413 . S
C417 C416 1.367 . S
C417 H419 0.930 . S
H418 C411 0.930 . S
H419 C417 0.930 . S
H420 C408 0.930 . S
H421 C409 0.930 . S
H422 C415 0.929 . S
H423 C437 0.930 . S
H424 C416 0.930 . S
H425 C443 0.930 . S
H426 C434 0.929 . S
H427 C441 0.930 . S
H428 C405 0.931 . S
H429 C435 0.930 . S
H430 C468 0.930 . S
H431 C412 0.930 . S
H432 C467 0.931 . S
N433 Eu402 2.657 . S
N433 C434 1.334 . S
N433 C438 1.362 . S
C434 H426 0.929 . S
C434 N433 1.334 . S
C434 C437 1.413 . S
C435 H429 0.930 . S
C435 C436 1.392 . S
C435 C437 1.367 . S
C436 C435 1.392 . S
C436 C438 1.420 . S
C436 C468 1.423 . S
C437 H423 0.930 . S
C437 C434 1.413 . S
C437 C435 1.367 . S
C438 N433 1.362 . S
C438 C436 1.420 . S
C438 C442 1.429 . S
H439 C444 0.930 . S
N440 Eu402 2.609 . S
N440 C442 1.377 . S
N440 C443 1.321 . S
C441 H427 0.930 . S
C441 C443 1.400 . S
C441 C444 1.386 . S
C442 C438 1.429 . S
C442 N440 1.377 . S
C442 C445 1.411 . S
C443 H425 0.930 . S
C443 N440 1.321 . S
C443 C441 1.400 . S
C444 H439 0.930 . S
C444 C441 1.386 . S
C444 C445 1.395 . S
C445 C442 1.411 . S
C445 C444 1.395 . S
C445 C467 1.420 . S
O446 Eu402 2.558 . S
O446 C466 1.257 . S
O447 Eu402 2.612 . S
O447 Eu413 2.380 1_554 S
O447 C458 1.276 . S
O448 Eu413 2.432 1_554 S
O448 C465 1.264 . S
O449 Eu402 2.339 . S
O449 C465 1.254 . S
O450 Eu402 2.563 . S
O450 C458 1.235 . S
O451 Eu402 2.419 . S
O451 C466 1.249 . S
O452 Eu413 2.558 . S
O452 C477 1.257 . S
O453 Eu402 2.380 . S
O453 Eu413 2.612 1_554 S
O453 C469 1.276 . S
O454 Eu402 2.432 . S
O454 C476 1.264 . S
O455 Eu413 2.339 1_554 S
O455 C476 1.254 . S
O456 Eu413 2.563 . S
O456 C469 1.235 1_556 S
O457 Eu413 2.419 . S
O457 C477 1.249 . S
C458 O447 1.276 . S
C458 O450 1.235 . S
C459 C461 1.393 . S
C459 C463 1.395 . S
C459 C466 1.492 . S
C460 C461 1.392 . S
C460 C462 1.386 . S
C461 C459 1.393 . S
C461 C460 1.392 . S
C461 H478 0.930 . S
C462 C460 1.386 . S
C462 C464 1.395 . S
C462 H479 0.930 . S
C463 C459 1.395 . S
C463 C464 1.379 . S
C463 H480 0.930 . S
C464 C462 1.395 . S
C464 C463 1.379 . S
C464 H481 0.930 . S
C465 O448 1.264 . S
C465 O449 1.254 . S
C466 Eu402 2.848 . S
C466 O446 1.257 . S
C466 O451 1.249 . S
C466 C459 1.492 . S
C467 H432 0.931 . S
C467 C445 1.420 . S
C467 C468 1.351 . S
C468 H430 0.930 . S
C468 C436 1.423 . S
C468 C467 1.351 . S
C469 O453 1.276 . S
C469 O456 1.235 1_554 S
C470 C471 1.393 . S
C470 C474 1.395 . S
C470 C477 1.492 . S
C471 C470 1.393 . S
C471 C472 1.392 . S
C471 H482 0.930 . S
C472 C471 1.392 . S
C472 C473 1.386 . S
C473 C472 1.386 . S
C473 C475 1.395 . S
C473 H483 0.930 . S
C474 C470 1.395 . S
C474 C475 1.379 . S
C474 H484 0.930 . S
C475 C473 1.395 . S
C475 C474 1.379 . S
C475 H485 0.930 . S
C476 O454 1.264 . S
C476 O455 1.254 . S
C477 Eu413 2.848 . S
C477 O452 1.257 . S
C477 O457 1.249 . S
C477 C470 1.492 . S
H478 C461 0.930 . S
H479 C462 0.930 . S
H480 C463 0.930 . S
H481 C464 0.930 . S
H482 C471 0.930 . S
H483 C473 0.930 . S
H484 C474 0.930 . S
H485 C475 0.930 . S
Eu486 N517 2.657 . S
Eu486 N524 2.609 . S
Eu486 O530 2.558 . S
Eu486 O531 2.612 . S
Eu486 O533 2.339 . S
Eu486 O534 2.563 . S
Eu486 O535 2.419 . S
Eu486 O537 2.380 . S
Eu486 O538 2.432 . S
Eu486 C550 2.848 . S
C487 C490 1.429 . S
C487 C491 1.411 . S
C487 N494 1.377 . S
C488 C490 1.420 . S
C488 C492 1.423 . S
C488 C500 1.392 . S
C489 C491 1.420 . S
C489 C492 1.351 . S
C489 H512 0.931 . S
C490 C487 1.429 . S
C490 C488 1.420 . S
C490 N498 1.362 . S
C491 C487 1.411 . S
C491 C489 1.420 . S
C491 C496 1.395 . S
C492 C488 1.423 . S
C492 C489 1.351 . S
C492 H504 0.930 . S
C493 C495 1.400 . S
C493 C496 1.386 . S
C493 H505 0.930 . S
N494 C487 1.377 . S
N494 C495 1.321 . S
N494 Eu497 2.609 . S
C495 C493 1.400 . S
C495 N494 1.321 . S
C495 H502 0.930 . S
C496 C491 1.395 . S
C496 C493 1.386 . S
C496 H515 0.930 . S
Eu497 N494 2.609 . S
Eu497 N498 2.657 . S
Eu497 O531 2.380 . S
Eu497 O532 2.432 . S
Eu497 O536 2.558 . S
Eu497 O537 2.612 . S
Eu497 O539 2.339 . S
Eu497 O540 2.563 . S
Eu497 O541 2.419 . S
Eu497 C561 2.848 . S
N498 C490 1.362 . S
N498 Eu497 2.657 . S
N498 C499 1.334 . S
C499 N498 1.334 . S
C499 C501 1.413 . S
C499 H506 0.929 . S
C500 C488 1.392 . S
C500 C501 1.367 . S
C500 H508 0.930 . S
C501 C499 1.413 . S
C501 C500 1.367 . S
C501 H503 0.930 . S
H502 C495 0.930 . S
H503 C501 0.930 . S
H504 C492 0.930 . S
H505 C493 0.930 . S
H506 C499 0.929 . S
H507 C521 0.930 . S
H508 C500 0.930 . S
H509 C527 0.930 . S
H510 C518 0.929 . S
H511 C525 0.930 . S
H512 C489 0.931 . S
H513 C519 0.930 1_655 S
H514 C552 0.930 1_655 S
H515 C496 0.930 . S
H516 C551 0.931 . S
N517 Eu486 2.657 . S
N517 C518 1.334 . S
N517 C522 1.362 . S
C518 H510 0.929 . S
C518 N517 1.334 . S
C518 C521 1.413 . S
C519 H513 0.930 1_455 S
C519 C520 1.392 . S
C519 C521 1.367 . S
C520 C519 1.392 . S
C520 C522 1.420 . S
C520 C552 1.423 . S
C521 H507 0.930 . S
C521 C518 1.413 . S
C521 C519 1.367 . S
C522 N517 1.362 . S
C522 C520 1.420 . S
C522 C526 1.429 . S
H523 C528 0.930 . S
N524 Eu486 2.609 . S
N524 C526 1.377 . S
N524 C527 1.321 . S
C525 H511 0.930 . S
C525 C527 1.400 . S
C525 C528 1.386 . S
C526 C522 1.429 . S
C526 N524 1.377 . S
C526 C529 1.411 . S
C527 H509 0.930 . S
C527 N524 1.321 . S
C527 C525 1.400 . S
C528 H523 0.930 . S
C528 C525 1.386 . S
C528 C529 1.395 . S
C529 C526 1.411 . S
C529 C528 1.395 . S
C529 C551 1.420 . S
O530 Eu486 2.558 . S
O530 C550 1.257 . S
O531 Eu486 2.612 . S
O531 Eu497 2.380 . S
O531 C542 1.276 . S
O532 Eu497 2.432 . S
O532 C549 1.264 . S
O533 Eu486 2.339 . S
O533 C549 1.254 . S
O534 Eu486 2.563 . S
O534 C542 1.235 . S
O535 Eu486 2.419 . S
O535 C550 1.249 . S
O536 Eu497 2.558 . S
O536 C561 1.257 . S
O537 Eu486 2.380 . S
O537 Eu497 2.612 . S
O537 C553 1.276 . S
O538 Eu486 2.432 . S
O538 C560 1.264 . S
O539 Eu497 2.339 . S
O539 C560 1.254 . S
O540 Eu497 2.563 . S
O540 C553 1.235 . S
O541 Eu497 2.419 . S
O541 C561 1.249 . S
C542 O531 1.276 . S
C542 O534 1.235 . S
C543 C545 1.393 . S
C543 C547 1.395 . S
C543 C550 1.492 . S
C544 C545 1.392 . S
C544 C546 1.386 . S
C545 C543 1.393 . S
C545 C544 1.392 . S
C545 H562 0.930 . S
C546 C544 1.386 . S
C546 C548 1.395 . S
C546 H563 0.930 . S
C547 C543 1.395 . S
C547 C548 1.379 . S
C547 H564 0.930 . S
C548 C546 1.395 . S
C548 C547 1.379 . S
C548 H565 0.930 . S
C549 O532 1.264 . S
C549 O533 1.254 . S
C550 Eu486 2.848 . S
C550 O530 1.257 . S
C550 O535 1.249 . S
C550 C543 1.492 . S
C551 H516 0.931 . S
C551 C529 1.420 . S
C551 C552 1.351 . S
C552 H514 0.930 1_455 S
C552 C520 1.423 . S
C552 C551 1.351 . S
C553 O537 1.276 . S
C553 O540 1.235 . S
C554 C555 1.393 . S
C554 C558 1.395 . S
C554 C561 1.492 . S
C555 C554 1.393 . S
C555 C556 1.392 . S
C555 H566 0.930 . S
C556 C555 1.392 . S
C556 C557 1.386 . S
C557 C556 1.386 . S
C557 C559 1.395 . S
C557 H567 0.930 . S
C558 C554 1.395 . S
C558 C559 1.379 . S
C558 H568 0.930 . S
C559 C557 1.395 . S
C559 C558 1.379 . S
C559 H569 0.930 . S
C560 O538 1.264 . S
C560 O539 1.254 . S
C561 Eu497 2.848 . S
C561 O536 1.257 . S
C561 O541 1.249 . S
C561 C554 1.492 . S
H562 C545 0.930 . S
H563 C546 0.930 . S
H564 C547 0.930 . S
H565 C548 0.930 . S
H566 C555 0.930 . S
H567 C557 0.930 . S
H568 C558 0.930 . S
H569 C559 0.930 . S
Eu570 N601 2.657 . S
Eu570 N608 2.609 . S
Eu570 O614 2.558 . S
Eu570 O615 2.612 . S
Eu570 O617 2.339 . S
Eu570 O618 2.563 . S
Eu570 O619 2.419 . S
Eu570 O621 2.380 . S
Eu570 O622 2.432 . S
Eu570 C634 2.848 . S
C571 C574 1.429 . S
C571 C575 1.411 . S
C571 N578 1.377 . S
C572 C574 1.420 . S
C572 C576 1.423 . S
C572 C584 1.392 . S
C573 C575 1.420 . S
C573 C576 1.351 . S
C573 H596 0.931 . S
C574 C571 1.429 . S
C574 C572 1.420 . S
C574 N582 1.362 . S
C575 C571 1.411 . S
C575 C573 1.420 . S
C575 C580 1.395 . S
C576 C572 1.423 . S
C576 C573 1.351 . S
C576 H588 0.930 . S
C577 C579 1.400 . S
C577 C580 1.386 . S
C577 H589 0.930 . S
N578 C571 1.377 . S
N578 C579 1.321 . S
N578 Eu581 2.609 . S
C579 C577 1.400 . S
C579 N578 1.321 . S
C579 H586 0.930 . S
C580 C575 1.395 . S
C580 C577 1.386 . S
C580 H599 0.930 . S
Eu581 N578 2.609 . S
Eu581 N582 2.657 . S
Eu581 O615 2.380 . S
Eu581 O616 2.432 . S
Eu581 O620 2.558 . S
Eu581 O621 2.612 . S
Eu581 O623 2.339 . S
Eu581 O624 2.563 . S
Eu581 O625 2.419 . S
Eu581 C645 2.848 . S
N582 C574 1.362 . S
N582 Eu581 2.657 . S
N582 C583 1.334 . S
C583 N582 1.334 . S
C583 C585 1.413 . S
C583 H590 0.929 . S
C584 C572 1.392 . S
C584 C585 1.367 . S
C584 H592 0.930 . S
C585 C583 1.413 . S
C585 C584 1.367 . S
C585 H587 0.930 . S
H586 C579 0.930 . S
H587 C585 0.930 . S
H588 C576 0.930 . S
H589 C577 0.930 . S
H590 C583 0.929 . S
H591 C605 0.930 . S
H592 C584 0.930 . S
H593 C611 0.930 . S
H594 C602 0.929 . S
H595 C609 0.930 1_545 S
H596 C573 0.931 . S
H597 C603 0.930 . S
H598 C636 0.930 . S
H599 C580 0.930 . S
H600 C635 0.931 . S
N601 Eu570 2.657 . S
N601 C602 1.334 . S
N601 C606 1.362 . S
C602 H594 0.929 . S
C602 N601 1.334 . S
C602 C605 1.413 . S
C603 H597 0.930 . S
C603 C604 1.392 . S
C603 C605 1.367 . S
C604 C603 1.392 . S
C604 C606 1.420 . S
C604 C636 1.423 . S
C605 H591 0.930 . S
C605 C602 1.413 . S
C605 C603 1.367 . S
C606 N601 1.362 . S
C606 C604 1.420 . S
C606 C610 1.429 . S
H607 C612 0.930 . S
N608 Eu570 2.609 . S
N608 C610 1.377 . S
N608 C611 1.321 . S
C609 H595 0.930 1_565 S
C609 C611 1.400 . S
C609 C612 1.386 . S
C610 C606 1.429 . S
C610 N608 1.377 . S
C610 C613 1.411 . S
C611 H593 0.930 . S
C611 N608 1.321 . S
C611 C609 1.400 . S
C612 H607 0.930 . S
C612 C609 1.386 . S
C612 C613 1.395 . S
C613 C610 1.411 . S
C613 C612 1.395 . S
C613 C635 1.420 . S
O614 Eu570 2.558 . S
O614 C634 1.257 . S
O615 Eu570 2.612 . S
O615 Eu581 2.380 . S
O615 C626 1.276 . S
O616 Eu581 2.432 . S
O616 C633 1.264 . S
O617 Eu570 2.339 . S
O617 C633 1.254 . S
O618 Eu570 2.563 . S
O618 C626 1.235 . S
O619 Eu570 2.419 . S
O619 C634 1.249 . S
O620 Eu581 2.558 . S
O620 C645 1.257 . S
O621 Eu570 2.380 . S
O621 Eu581 2.612 . S
O621 C637 1.276 . S
O622 Eu570 2.432 . S
O622 C644 1.264 . S
O623 Eu581 2.339 . S
O623 C644 1.254 . S
O624 Eu581 2.563 . S
O624 C637 1.235 . S
O625 Eu581 2.419 . S
O625 C645 1.249 . S
C626 O615 1.276 . S
C626 O618 1.235 . S
C627 C629 1.393 . S
C627 C631 1.395 . S
C627 C634 1.492 . S
C628 C629 1.392 . S
C628 C630 1.386 . S
C629 C627 1.393 . S
C629 C628 1.392 . S
C629 H646 0.930 . S
C630 C628 1.386 . S
C630 C632 1.395 . S
C630 H647 0.930 . S
C631 C627 1.395 . S
C631 C632 1.379 . S
C631 H648 0.930 . S
C632 C630 1.395 . S
C632 C631 1.379 . S
C632 H649 0.930 . S
C633 O616 1.264 . S
C633 O617 1.254 . S
C634 Eu570 2.848 . S
C634 O614 1.257 . S
C634 O619 1.249 . S
C634 C627 1.492 . S
C635 H600 0.931 . S
C635 C613 1.420 . S
C635 C636 1.351 . S
C636 H598 0.930 . S
C636 C604 1.423 . S
C636 C635 1.351 . S
C637 O621 1.276 . S
C637 O624 1.235 . S
C638 C639 1.393 . S
C638 C642 1.395 . S
C638 C645 1.492 . S
C639 C638 1.393 . S
C639 C640 1.392 . S
C639 H650 0.930 . S
C640 C639 1.392 . S
C640 C641 1.386 . S
C641 C640 1.386 . S
C641 C643 1.395 . S
C641 H651 0.930 . S
C642 C638 1.395 . S
C642 C643 1.379 . S
C642 H652 0.930 . S
C643 C641 1.395 . S
C643 C642 1.379 . S
C643 H653 0.930 . S
C644 O622 1.264 . S
C644 O623 1.254 . S
C645 Eu581 2.848 . S
C645 O620 1.257 . S
C645 O625 1.249 . S
C645 C638 1.492 . S
H646 C629 0.930 . S
H647 C630 0.930 . S
H648 C631 0.930 . S
H649 C632 0.930 . S
H650 C639 0.930 . S
H651 C641 0.930 . S
H652 C642 0.930 . S
H653 C643 0.930 . S
Eu654 N685 2.657 . S
Eu654 N692 2.609 . S
Eu654 O698 2.558 . S
Eu654 O699 2.612 . S
Eu654 O701 2.339 . S
Eu654 O702 2.563 . S
Eu654 O703 2.419 . S
Eu654 O705 2.380 . S
Eu654 O706 2.432 . S
Eu654 C718 2.848 . S
C655 C658 1.429 . S
C655 C659 1.411 . S
C655 N662 1.377 . S
C656 C658 1.420 1_655 S
C656 C660 1.423 . S
C656 C668 1.392 . S
C657 C659 1.420 . S
C657 C660 1.351 1_455 S
C657 H680 0.931 1_455 S
C658 C655 1.429 . S
C658 C656 1.420 1_455 S
C658 N666 1.362 . S
C659 C655 1.411 . S
C659 C657 1.420 . S
C659 C664 1.395 . S
C660 C656 1.423 . S
C660 C657 1.351 1_655 S
C660 H672 0.930 . S
C661 C663 1.400 . S
C661 C664 1.386 . S
C661 H673 0.930 . S
N662 C655 1.377 . S
N662 C663 1.321 . S
N662 Eu665 2.609 . S
C663 C661 1.400 . S
C663 N662 1.321 . S
C663 H670 0.930 . S
C664 C659 1.395 . S
C664 C661 1.386 . S
C664 H683 0.930 . S
Eu665 N662 2.609 . S
Eu665 N666 2.657 . S
Eu665 O699 2.380 . S
Eu665 O700 2.432 . S
Eu665 O704 2.558 . S
Eu665 O705 2.612 . S
Eu665 O707 2.339 . S
Eu665 O708 2.563 . S
Eu665 O709 2.419 . S
Eu665 C729 2.848 . S
N666 C658 1.362 . S
N666 Eu665 2.657 . S
N666 C667 1.334 . S
C667 N666 1.334 . S
C667 C669 1.413 1_455 S
C667 H674 0.929 . S
C668 C656 1.392 . S
C668 C669 1.367 . S
C668 H676 0.930 . S
C669 C667 1.413 1_655 S
C669 C668 1.367 . S
C669 H671 0.930 . S
H670 C663 0.930 . S
H671 C669 0.930 . S
H672 C660 0.930 . S
H673 C661 0.930 . S
H674 C667 0.929 . S
H675 C689 0.930 . S
H676 C668 0.930 . S
H677 C695 0.930 . S
H678 C686 0.929 . S
H679 C693 0.930 . S
H680 C657 0.931 1_655 S
H681 C687 0.930 . S
H682 C720 0.930 . S
H683 C664 0.930 . S
H684 C719 0.931 . S
N685 Eu654 2.657 . S
N685 C686 1.334 . S
N685 C690 1.362 . S
C686 H678 0.929 . S
C686 N685 1.334 . S
C686 C689 1.413 . S
C687 H681 0.930 . S
C687 C688 1.392 . S
C687 C689 1.367 . S
C688 C687 1.392 . S
C688 C690 1.420 . S
C688 C720 1.423 . S
C689 H675 0.930 . S
C689 C686 1.413 . S
C689 C687 1.367 . S
C690 N685 1.362 . S
C690 C688 1.420 . S
C690 C694 1.429 . S
H691 C696 0.930 . S
N692 Eu654 2.609 . S
N692 C694 1.377 . S
N692 C695 1.321 . S
C693 H679 0.930 . S
C693 C695 1.400 . S
C693 C696 1.386 . S
C694 C690 1.429 . S
C694 N692 1.377 . S
C694 C697 1.411 . S
C695 H677 0.930 . S
C695 N692 1.321 . S
C695 C693 1.400 . S
C696 H691 0.930 . S
C696 C693 1.386 . S
C696 C697 1.395 . S
C697 C694 1.411 . S
C697 C696 1.395 . S
C697 C719 1.420 . S
O698 Eu654 2.558 . S
O698 C718 1.257 . S
O699 Eu654 2.612 . S
O699 Eu665 2.380 . S
O699 C710 1.276 . S
O700 Eu665 2.432 . S
O700 C717 1.264 . S
O701 Eu654 2.339 . S
O701 C717 1.254 . S
O702 Eu654 2.563 . S
O702 C710 1.235 . S
O703 Eu654 2.419 . S
O703 C718 1.249 . S
O704 Eu665 2.558 . S
O704 C729 1.257 . S
O705 Eu654 2.380 . S
O705 Eu665 2.612 . S
O705 C721 1.276 . S
O706 Eu654 2.432 . S
O706 C728 1.264 . S
O707 Eu665 2.339 . S
O707 C728 1.254 . S
O708 Eu665 2.563 . S
O708 C721 1.235 . S
O709 Eu665 2.419 . S
O709 C729 1.249 . S
C710 O699 1.276 . S
C710 O702 1.235 . S
C711 C713 1.393 . S
C711 C715 1.395 . S
C711 C718 1.492 . S
C712 C713 1.392 . S
C712 C714 1.386 . S
C713 C711 1.393 . S
C713 C712 1.392 . S
C713 H730 0.930 . S
C714 C712 1.386 . S
C714 C716 1.395 . S
C714 H731 0.930 . S
C715 C711 1.395 . S
C715 C716 1.379 . S
C715 H732 0.930 . S
C716 C714 1.395 . S
C716 C715 1.379 . S
C716 H733 0.930 . S
C717 O700 1.264 . S
C717 O701 1.254 . S
C718 Eu654 2.848 . S
C718 O698 1.257 . S
C718 O703 1.249 . S
C718 C711 1.492 . S
C719 H684 0.931 . S
C719 C697 1.420 . S
C719 C720 1.351 . S
C720 H682 0.930 . S
C720 C688 1.423 . S
C720 C719 1.351 . S
C721 O705 1.276 . S
C721 O708 1.235 . S
C722 C723 1.393 . S
C722 C726 1.395 . S
C722 C729 1.492 . S
C723 C722 1.393 . S
C723 C724 1.392 . S
C723 H734 0.930 . S
C724 C723 1.392 . S
C724 C725 1.386 . S
C725 C724 1.386 . S
C725 C727 1.395 . S
C725 H735 0.930 . S
C726 C722 1.395 . S
C726 C727 1.379 . S
C726 H736 0.930 . S
C727 C725 1.395 . S
C727 C726 1.379 . S
C727 H737 0.930 . S
C728 O706 1.264 . S
C728 O707 1.254 . S
C729 Eu665 2.848 . S
C729 O704 1.257 . S
C729 O709 1.249 . S
C729 C722 1.492 . S
H730 C713 0.930 . S
H731 C714 0.930 . S
H732 C715 0.930 . S
H733 C716 0.930 . S
H734 C723 0.930 . S
H735 C725 0.930 . S
H736 C726 0.930 . S
H737 C727 0.930 . S
Eu738 N769 2.657 . S
Eu738 N776 2.609 . S
Eu738 O782 2.558 . S
Eu738 O783 2.612 . S
Eu738 O785 2.339 . S
Eu738 O786 2.563 . S
Eu738 O787 2.419 . S
Eu738 O789 2.380 . S
Eu738 O790 2.432 . S
Eu738 C802 2.848 . S
C739 C742 1.429 . S
C739 C743 1.411 . S
C739 N746 1.377 . S
C740 C742 1.420 1_455 S
C740 C744 1.423 . S
C740 C752 1.392 . S
C741 C743 1.420 1_455 S
C741 C744 1.351 . S
C741 H764 0.931 . S
C742 C739 1.429 . S
C742 C740 1.420 1_655 S
C742 N750 1.362 . S
C743 C739 1.411 . S
C743 C741 1.420 1_655 S
C743 C748 1.395 . S
C744 C740 1.423 . S
C744 C741 1.351 . S
C744 H756 0.930 . S
C745 C747 1.400 . S
C745 C748 1.386 . S
C745 H757 0.930 . S
N746 C739 1.377 . S
N746 C747 1.321 . S
N746 Eu749 2.609 . S
C747 C745 1.400 . S
C747 N746 1.321 . S
C747 H754 0.930 . S
C748 C743 1.395 . S
C748 C745 1.386 . S
C748 H767 0.930 . S
Eu749 N746 2.609 . S
Eu749 N750 2.657 . S
Eu749 O783 2.380 . S
Eu749 O784 2.432 . S
Eu749 O788 2.558 . S
Eu749 O789 2.612 . S
Eu749 O791 2.339 . S
Eu749 O792 2.563 . S
Eu749 O793 2.419 . S
Eu749 C813 2.848 . S
N750 C742 1.362 . S
N750 Eu749 2.657 . S
N750 C751 1.334 . S
C751 N750 1.334 . S
C751 C753 1.413 1_655 S
C751 H758 0.929 . S
C752 C740 1.392 . S
C752 C753 1.367 . S
C752 H760 0.930 . S
C753 C751 1.413 1_455 S
C753 C752 1.367 . S
C753 H755 0.930 . S
H754 C747 0.930 . S
H755 C753 0.930 . S
H756 C744 0.930 . S
H757 C745 0.930 . S
H758 C751 0.929 . S
H759 C773 0.930 . S
H760 C752 0.930 . S
H761 C779 0.930 . S
H762 C770 0.929 . S
H763 C777 0.930 . S
H764 C741 0.931 . S
H765 C771 0.930 . S
H766 C804 0.930 . S
H767 C748 0.930 . S
H768 C803 0.931 . S
N769 Eu738 2.657 . S
N769 C770 1.334 . S
N769 C774 1.362 . S
C770 H762 0.929 . S
C770 N769 1.334 . S
C770 C773 1.413 . S
C771 H765 0.930 . S
C771 C772 1.392 . S
C771 C773 1.367 . S
C772 C771 1.392 . S
C772 C774 1.420 . S
C772 C804 1.423 . S
C773 H759 0.930 . S
C773 C770 1.413 . S
C773 C771 1.367 . S
C774 N769 1.362 . S
C774 C772 1.420 . S
C774 C778 1.429 . S
H775 C780 0.930 . S
N776 Eu738 2.609 . S
N776 C778 1.377 . S
N776 C779 1.321 . S
C777 H763 0.930 . S
C777 C779 1.400 . S
C777 C780 1.386 . S
C778 C774 1.429 . S
C778 N776 1.377 . S
C778 C781 1.411 . S
C779 H761 0.930 . S
C779 N776 1.321 . S
C779 C777 1.400 . S
C780 H775 0.930 . S
C780 C777 1.386 . S
C780 C781 1.395 . S
C781 C778 1.411 . S
C781 C780 1.395 . S
C781 C803 1.420 . S
O782 Eu738 2.558 . S
O782 C802 1.257 . S
O783 Eu738 2.612 . S
O783 Eu749 2.380 . S
O783 C794 1.276 . S
O784 Eu749 2.432 . S
O784 C801 1.264 . S
O785 Eu738 2.339 . S
O785 C801 1.254 . S
O786 Eu738 2.563 . S
O786 C794 1.235 . S
O787 Eu738 2.419 . S
O787 C802 1.249 . S
O788 Eu749 2.558 . S
O788 C813 1.257 . S
O789 Eu738 2.380 . S
O789 Eu749 2.612 . S
O789 C805 1.276 . S
O790 Eu738 2.432 . S
O790 C812 1.264 . S
O791 Eu749 2.339 . S
O791 C812 1.254 . S
O792 Eu749 2.563 . S
O792 C805 1.235 . S
O793 Eu749 2.419 . S
O793 C813 1.249 . S
C794 O783 1.276 . S
C794 O786 1.235 . S
C795 C797 1.393 . S
C795 C799 1.395 . S
C795 C802 1.492 . S
C796 C797 1.392 . S
C796 C798 1.386 . S
C797 C795 1.393 . S
C797 C796 1.392 . S
C797 H814 0.930 . S
C798 C796 1.386 . S
C798 C800 1.395 . S
C798 H815 0.930 . S
C799 C795 1.395 . S
C799 C800 1.379 . S
C799 H816 0.930 . S
C800 C798 1.395 . S
C800 C799 1.379 . S
C800 H817 0.930 . S
C801 O784 1.264 . S
C801 O785 1.254 . S
C802 Eu738 2.848 . S
C802 O782 1.257 . S
C802 O787 1.249 . S
C802 C795 1.492 . S
C803 H768 0.931 . S
C803 C781 1.420 . S
C803 C804 1.351 . S
C804 H766 0.930 . S
C804 C772 1.423 . S
C804 C803 1.351 . S
C805 O789 1.276 . S
C805 O792 1.235 . S
C806 C807 1.393 . S
C806 C810 1.395 . S
C806 C813 1.492 . S
C807 C806 1.393 . S
C807 C808 1.392 . S
C807 H818 0.930 . S
C808 C807 1.392 . S
C808 C809 1.386 . S
C809 C808 1.386 . S
C809 C811 1.395 . S
C809 H819 0.930 . S
C810 C806 1.395 . S
C810 C811 1.379 . S
C810 H820 0.930 . S
C811 C809 1.395 . S
C811 C810 1.379 . S
C811 H821 0.930 . S
C812 O790 1.264 . S
C812 O791 1.254 . S
C813 Eu749 2.848 . S
C813 O788 1.257 . S
C813 O793 1.249 . S
C813 C806 1.492 . S
H814 C797 0.930 . S
H815 C798 0.930 . S
H816 C799 0.930 . S
H817 C800 0.930 . S
H818 C807 0.930 . S
H819 C809 0.930 . S
H820 C810 0.930 . S
H821 C811 0.930 . S
Eu822 N853 2.657 . S
Eu822 N860 2.609 . S
Eu822 O866 2.558 . S
Eu822 O867 2.612 . S
Eu822 O869 2.339 . S
Eu822 O870 2.563 . S
Eu822 O871 2.419 . S
Eu822 O873 2.380 . S
Eu822 O874 2.432 . S
Eu822 C886 2.848 . S
C823 C826 1.429 . S
C823 C827 1.411 . S
C823 N830 1.377 . S
C824 C826 1.420 . S
C824 C828 1.423 . S
C824 C836 1.392 . S
C825 C827 1.420 . S
C825 C828 1.351 . S
C825 H848 0.931 . S
C826 C823 1.429 . S
C826 C824 1.420 . S
C826 N834 1.362 . S
C827 C823 1.411 . S
C827 C825 1.420 . S
C827 C832 1.395 . S
C828 C824 1.423 . S
C828 C825 1.351 . S
C828 H840 0.930 . S
C829 C831 1.400 . S
C829 C832 1.386 . S
C829 H841 0.930 . S
N830 C823 1.377 . S
N830 C831 1.321 . S
N830 Eu833 2.609 . S
C831 C829 1.400 . S
C831 N830 1.321 . S
C831 H838 0.930 . S
C832 C827 1.395 . S
C832 C829 1.386 . S
C832 H851 0.930 . S
Eu833 N830 2.609 . S
Eu833 N834 2.657 . S
Eu833 O867 2.380 . S
Eu833 O868 2.432 . S
Eu833 O872 2.558 . S
Eu833 O873 2.612 . S
Eu833 O875 2.339 . S
Eu833 O876 2.563 . S
Eu833 O877 2.419 . S
Eu833 C897 2.848 . S
N834 C826 1.362 . S
N834 Eu833 2.657 . S
N834 C835 1.334 . S
C835 N834 1.334 . S
C835 C837 1.413 . S
C835 H842 0.929 . S
C836 C824 1.392 . S
C836 C837 1.367 . S
C836 H844 0.930 . S
C837 C835 1.413 . S
C837 C836 1.367 . S
C837 H839 0.930 . S
H838 C831 0.930 . S
H839 C837 0.930 . S
H840 C828 0.930 . S
H841 C829 0.930 . S
H842 C835 0.929 . S
H843 C857 0.930 . S
H844 C836 0.930 . S
H845 C863 0.930 . S
H846 C854 0.929 . S
H847 C861 0.930 . S
H848 C825 0.931 . S
H849 C855 0.930 . S
H850 C888 0.930 . S
H851 C832 0.930 . S
H852 C887 0.931 . S
N853 Eu822 2.657 . S
N853 C854 1.334 . S
N853 C858 1.362 . S
C854 H846 0.929 . S
C854 N853 1.334 . S
C854 C857 1.413 . S
C855 H849 0.930 . S
C855 C856 1.392 . S
C855 C857 1.367 . S
C856 C855 1.392 . S
C856 C858 1.420 . S
C856 C888 1.423 . S
C857 H843 0.930 . S
C857 C854 1.413 . S
C857 C855 1.367 . S
C858 N853 1.362 . S
C858 C856 1.420 . S
C858 C862 1.429 . S
H859 C864 0.930 . S
N860 Eu822 2.609 . S
N860 C862 1.377 . S
N860 C863 1.321 . S
C861 H847 0.930 . S
C861 C863 1.400 . S
C861 C864 1.386 . S
C862 C858 1.429 . S
C862 N860 1.377 . S
C862 C865 1.411 . S
C863 H845 0.930 . S
C863 N860 1.321 . S
C863 C861 1.400 . S
C864 H859 0.930 . S
C864 C861 1.386 . S
C864 C865 1.395 . S
C865 C862 1.411 . S
C865 C864 1.395 . S
C865 C887 1.420 . S
O866 Eu822 2.558 . S
O866 C886 1.257 . S
O867 Eu822 2.612 . S
O867 Eu833 2.380 . S
O867 C878 1.276 . S
O868 Eu833 2.432 . S
O868 C885 1.264 . S
O869 Eu822 2.339 . S
O869 C885 1.254 . S
O870 Eu822 2.563 . S
O870 C878 1.235 . S
O871 Eu822 2.419 . S
O871 C886 1.249 . S
O872 Eu833 2.558 . S
O872 C897 1.257 . S
O873 Eu822 2.380 . S
O873 Eu833 2.612 . S
O873 C889 1.276 . S
O874 Eu822 2.432 . S
O874 C896 1.264 . S
O875 Eu833 2.339 . S
O875 C896 1.254 . S
O876 Eu833 2.563 . S
O876 C889 1.235 . S
O877 Eu833 2.419 . S
O877 C897 1.249 . S
C878 O867 1.276 . S
C878 O870 1.235 . S
C879 C881 1.393 . S
C879 C883 1.395 . S
C879 C886 1.492 . S
C880 C881 1.392 . S
C880 C882 1.386 . S
C881 C879 1.393 . S
C881 C880 1.392 . S
C881 H898 0.930 . S
C882 C880 1.386 . S
C882 C884 1.395 . S
C882 H899 0.930 . S
C883 C879 1.395 . S
C883 C884 1.379 . S
C883 H900 0.930 . S
C884 C882 1.395 . S
C884 C883 1.379 . S
C884 H901 0.930 . S
C885 O868 1.264 . S
C885 O869 1.254 . S
C886 Eu822 2.848 . S
C886 O866 1.257 . S
C886 O871 1.249 . S
C886 C879 1.492 . S
C887 H852 0.931 . S
C887 C865 1.420 . S
C887 C888 1.351 . S
C888 H850 0.930 . S
C888 C856 1.423 . S
C888 C887 1.351 . S
C889 O873 1.276 . S
C889 O876 1.235 . S
C890 C891 1.393 . S
C890 C894 1.395 . S
C890 C897 1.492 . S
C891 C890 1.393 . S
C891 C892 1.392 . S
C891 H902 0.930 . S
C892 C891 1.392 . S
C892 C893 1.386 . S
C893 C892 1.386 . S
C893 C895 1.395 . S
C893 H903 0.930 . S
C894 C890 1.395 . S
C894 C895 1.379 . S
C894 H904 0.930 . S
C895 C893 1.395 . S
C895 C894 1.379 . S
C895 H905 0.930 . S
C896 O874 1.264 . S
C896 O875 1.254 . S
C897 Eu833 2.848 . S
C897 O872 1.257 . S
C897 O877 1.249 . S
C897 C890 1.492 . S
H898 C881 0.930 . S
H899 C882 0.930 . S
H900 C883 0.930 . S
H901 C884 0.930 . S
H902 C891 0.930 . S
H903 C893 0.930 . S
H904 C894 0.930 . S
H905 C895 0.930 . S
Eu906 N937 2.657 . S
Eu906 N944 2.609 . S
Eu906 O950 2.558 . S
Eu906 O951 2.612 . S
Eu906 O953 2.339 . S
Eu906 O954 2.563 . S
Eu906 O955 2.419 . S
Eu906 O957 2.380 . S
Eu906 O958 2.432 . S
Eu906 C970 2.848 . S
C907 C910 1.429 . S
C907 C911 1.411 . S
C907 N914 1.377 . S
C908 C910 1.420 . S
C908 C912 1.423 . S
C908 C920 1.392 . S
C909 C911 1.420 . S
C909 C912 1.351 . S
C909 H932 0.931 . S
C910 C907 1.429 . S
C910 C908 1.420 . S
C910 N918 1.362 . S
C911 C907 1.411 . S
C911 C909 1.420 . S
C911 C916 1.395 . S
C912 C908 1.423 . S
C912 C909 1.351 . S
C912 H924 0.930 . S
C913 C915 1.400 . S
C913 C916 1.386 . S
C913 H925 0.930 . S
N914 C907 1.377 . S
N914 C915 1.321 . S
N914 Eu917 2.609 . S
C915 C913 1.400 . S
C915 N914 1.321 . S
C915 H922 0.930 . S
C916 C911 1.395 . S
C916 C913 1.386 . S
C916 H935 0.930 . S
Eu917 N914 2.609 . S
Eu917 N918 2.657 . S
Eu917 O951 2.380 . S
Eu917 O952 2.432 . S
Eu917 O956 2.558 . S
Eu917 O957 2.612 . S
Eu917 O959 2.339 . S
Eu917 O960 2.563 . S
Eu917 O961 2.419 . S
Eu917 C981 2.848 . S
N918 C910 1.362 . S
N918 Eu917 2.657 . S
N918 C919 1.334 . S
C919 N918 1.334 . S
C919 C921 1.413 . S
C919 H926 0.929 . S
C920 C908 1.392 . S
C920 C921 1.367 . S
C920 H928 0.930 . S
C921 C919 1.413 . S
C921 C920 1.367 . S
C921 H923 0.930 . S
H922 C915 0.930 . S
H923 C921 0.930 . S
H924 C912 0.930 . S
H925 C913 0.930 . S
H926 C919 0.929 . S
H927 C941 0.930 1_455 S
H928 C920 0.930 . S
H929 C947 0.930 . S
H930 C938 0.929 . S
H931 C945 0.930 1_565 S
H932 C909 0.931 . S
H933 C939 0.930 . S
H934 C972 0.930 . S
H935 C916 0.930 . S
H936 C971 0.931 . S
N937 Eu906 2.657 . S
N937 C938 1.334 . S
N937 C942 1.362 . S
C938 H930 0.929 . S
C938 N937 1.334 . S
C938 C941 1.413 . S
C939 H933 0.930 . S
C939 C940 1.392 1_455 S
C939 C941 1.367 1_455 S
C940 C939 1.392 1_655 S
C940 C942 1.420 . S
C940 C972 1.423 1_655 S
C941 H927 0.930 1_655 S
C941 C938 1.413 . S
C941 C939 1.367 1_655 S
C942 N937 1.362 . S
C942 C940 1.420 . S
C942 C946 1.429 . S
H943 C948 0.930 . S
N944 Eu906 2.609 . S
N944 C946 1.377 . S
N944 C947 1.321 . S
C945 H931 0.930 1_545 S
C945 C947 1.400 . S
C945 C948 1.386 . S
C946 C942 1.429 . S
C946 N944 1.377 . S
C946 C949 1.411 . S
C947 H929 0.930 . S
C947 N944 1.321 . S
C947 C945 1.400 . S
C948 H943 0.930 . S
C948 C945 1.386 . S
C948 C949 1.395 . S
C949 C946 1.411 . S
C949 C948 1.395 . S
C949 C971 1.420 . S
O950 Eu906 2.558 . S
O950 C970 1.257 . S
O951 Eu906 2.612 . S
O951 Eu917 2.380 . S
O951 C962 1.276 . S
O952 Eu917 2.432 . S
O952 C969 1.264 . S
O953 Eu906 2.339 . S
O953 C969 1.254 . S
O954 Eu906 2.563 . S
O954 C962 1.235 . S
O955 Eu906 2.419 . S
O955 C970 1.249 . S
O956 Eu917 2.558 . S
O956 C981 1.257 . S
O957 Eu906 2.380 . S
O957 Eu917 2.612 . S
O957 C973 1.276 . S
O958 Eu906 2.432 . S
O958 C980 1.264 . S
O959 Eu917 2.339 . S
O959 C980 1.254 . S
O960 Eu917 2.563 . S
O960 C973 1.235 . S
O961 Eu917 2.419 . S
O961 C981 1.249 . S
C962 O951 1.276 . S
C962 O954 1.235 . S
C963 C965 1.393 . S
C963 C967 1.395 . S
C963 C970 1.492 . S
C964 C965 1.392 . S
C964 C966 1.386 . S
C965 C963 1.393 . S
C965 C964 1.392 . S
C965 H982 0.930 . S
C966 C964 1.386 . S
C966 C968 1.395 . S
C966 H983 0.930 . S
C967 C963 1.395 . S
C967 C968 1.379 . S
C967 H984 0.930 . S
C968 C966 1.395 . S
C968 C967 1.379 . S
C968 H985 0.930 . S
C969 O952 1.264 . S
C969 O953 1.254 . S
C970 Eu906 2.848 . S
C970 O950 1.257 . S
C970 O955 1.249 . S
C970 C963 1.492 . S
C971 H936 0.931 . S
C971 C949 1.420 . S
C971 C972 1.351 1_655 S
C972 H934 0.930 . S
C972 C940 1.423 1_455 S
C972 C971 1.351 1_455 S
C973 O957 1.276 . S
C973 O960 1.235 . S
C974 C975 1.393 . S
C974 C978 1.395 . S
C974 C981 1.492 . S
C975 C974 1.393 . S
C975 C976 1.392 . S
C975 H986 0.930 . S
C976 C975 1.392 . S
C976 C977 1.386 . S
C977 C976 1.386 . S
C977 C979 1.395 . S
C977 H987 0.930 . S
C978 C974 1.395 . S
C978 C979 1.379 . S
C978 H988 0.930 . S
C979 C977 1.395 . S
C979 C978 1.379 . S
C979 H989 0.930 . S
C980 O958 1.264 . S
C980 O959 1.254 . S
C981 Eu917 2.848 . S
C981 O956 1.257 . S
C981 O961 1.249 . S
C981 C974 1.492 . S
H982 C965 0.930 . S
H983 C966 0.930 . S
H984 C967 0.930 . S
H985 C968 0.930 . S
H986 C975 0.930 . S
H987 C977 0.930 . S
H988 C978 0.930 . S
H989 C979 0.930 . S
C990 C991 1.369 . S
C990 C992 1.419 . S
C990 H994 0.930 . S
C991 C990 1.369 . S
C991 C1000 1.429 . S
C992 C990 1.419 . S
C992 C993 1.363 . S
C992 H995 0.929 . S
C993 C992 1.363 . S
C993 C999 1.428 . S
H994 C990 0.930 . S
H995 C992 0.929 . S
S996 N997 1.613 . S
S996 N998 1.610 . S
N997 S996 1.613 . S
N997 C1000 1.350 . S
N998 S996 1.610 . S
N998 C999 1.351 . S
C999 C993 1.428 . S
C999 N998 1.351 . S
C999 C1000 1.434 . S
C1000 C991 1.429 . S
C1000 N997 1.350 . S
C1000 C999 1.434 . S
C1001 C1002 1.369 . S
C1001 C1003 1.419 . S
C1001 H1005 0.930 . S
C1002 C1001 1.369 . S
C1002 C1011 1.429 . S
C1003 C1001 1.419 . S
C1003 C1004 1.363 . S
C1003 H1006 0.929 . S
C1004 C1003 1.363 . S
C1004 C1010 1.428 . S
H1005 C1001 0.930 . S
H1006 C1003 0.929 . S
S1007 N1008 1.613 1_556 S
S1007 N1009 1.611 . S
N1008 S1007 1.613 1_554 S
N1008 C1011 1.350 . S
N1009 S1007 1.611 . S
N1009 C1010 1.346 1_556 S
C1010 C1004 1.428 . S
C1010 N1009 1.346 1_554 S
C1010 C1011 1.434 . S
C1011 C1002 1.429 . S
C1011 N1008 1.350 . S
C1011 C1010 1.434 . S
C1012 C1013 1.369 . S
C1012 C1014 1.419 . S
C1012 H1016 0.930 . S
C1013 C1012 1.369 . S
C1013 C1022 1.429 . S
C1014 C1012 1.419 . S
C1014 C1015 1.363 . S
C1014 H1017 0.929 . S
C1015 C1014 1.363 . S
C1015 C1021 1.428 . S
H1016 C1012 0.930 . S
H1017 C1014 0.929 . S
S1018 N1019 1.613 . S
S1018 N1020 1.610 . S
N1019 S1018 1.613 . S
N1019 C1022 1.350 . S
N1020 S1018 1.610 . S
N1020 C1021 1.351 . S
C1021 C1015 1.428 . S
C1021 N1020 1.351 . S
C1021 C1022 1.434 . S
C1022 C1013 1.429 . S
C1022 N1019 1.350 . S
C1022 C1021 1.434 . S
C1023 C1024 1.369 1_554 S
C1023 C1025 1.419 . S
C1023 H1027 0.930 . S
C1024 C1023 1.369 1_556 S
C1024 C1033 1.429 . S
C1025 C1023 1.419 . S
C1025 C1026 1.363 1_554 S
C1025 H1028 0.929 . S
C1026 C1025 1.363 1_556 S
C1026 C1032 1.428 . S
H1027 C1023 0.930 . S
H1028 C1025 0.929 . S
S1029 N1030 1.613 . S
S1029 N1031 1.610 . S
N1030 S1029 1.613 . S
N1030 C1033 1.350 . S
N1031 S1029 1.610 . S
N1031 C1032 1.351 . S
C1032 C1026 1.428 . S
C1032 N1031 1.351 . S
C1032 C1033 1.434 . S
C1033 C1024 1.429 . S
C1033 N1030 1.350 . S
C1033 C1032 1.434 . S
C1034 C1035 1.369 . S
C1034 C1036 1.419 . S
C1034 H1038 0.930 . S
C1035 C1034 1.369 . S
C1035 C1044 1.429 1_556 S
C1036 C1034 1.419 . S
C1036 C1037 1.363 1_556 S
C1036 H1039 0.929 . S
C1037 C1036 1.363 1_554 S
C1037 C1043 1.428 . S
H1038 C1034 0.930 . S
H1039 C1036 0.929 . S
S1040 N1041 1.613 . S
S1040 N1042 1.610 . S
N1041 S1040 1.613 . S
N1041 C1044 1.350 . S
N1042 S1040 1.610 . S
N1042 C1043 1.351 . S
C1043 C1037 1.428 . S
C1043 N1042 1.351 . S
C1043 C1044 1.434 . S
C1044 C1035 1.429 1_554 S
C1044 N1041 1.350 . S
C1044 C1043 1.434 . S
C1045 C1046 1.369 1_554 S
C1045 C1047 1.419 . S
C1045 H1049 0.930 . S
C1046 C1045 1.369 1_556 S
C1046 C1055 1.429 . S
C1047 C1045 1.419 . S
C1047 C1048 1.363 1_554 S
C1047 H1050 0.929 . S
C1048 C1047 1.363 1_556 S
C1048 C1054 1.428 . S
H1049 C1045 0.930 . S
H1050 C1047 0.929 . S
S1051 N1052 1.613 . S
S1051 N1053 1.610 . S
N1052 S1051 1.613 . S
N1052 C1055 1.350 . S
N1053 S1051 1.610 . S
N1053 C1054 1.351 . S
C1054 C1048 1.428 . S
C1054 N1053 1.351 . S
C1054 C1055 1.434 . S
C1055 C1046 1.429 . S
C1055 N1052 1.350 . S
C1055 C1054 1.434 . S
C1056 C1057 1.369 . S
C1056 C1058 1.419 . S
C1056 H1060 0.930 . S
C1057 C1056 1.369 . S
C1057 C1066 1.429 1_556 S
C1058 C1056 1.419 . S
C1058 C1059 1.363 . S
C1058 H1061 0.929 . S
C1059 C1058 1.363 . S
C1059 C1065 1.428 1_556 S
H1060 C1056 0.930 . S
H1061 C1058 0.929 . S
S1062 N1063 1.613 . S
S1062 N1064 1.610 . S
N1063 S1062 1.613 . S
N1063 C1066 1.350 . S
N1064 S1062 1.610 . S
N1064 C1065 1.351 . S
C1065 C1059 1.428 1_554 S
C1065 N1064 1.351 . S
C1065 C1066 1.434 . S
C1066 C1057 1.429 1_554 S
C1066 N1063 1.350 . S
C1066 C1065 1.434 . S
C1067 C1068 1.369 . S
C1067 C1069 1.419 . S
C1067 H1071 0.930 . S
C1068 C1067 1.369 . S
C1068 C1077 1.429 . S
C1069 C1067 1.419 . S
C1069 C1070 1.363 . S
C1069 H1072 0.929 . S
C1070 C1069 1.363 . S
C1070 C1076 1.428 . S
H1071 C1067 0.930 . S
H1072 C1069 0.929 . S
S1073 N1074 1.613 . S
S1073 N1075 1.610 . S
N1074 S1073 1.613 . S
N1074 C1077 1.350 . S
N1075 S1073 1.610 . S
N1075 C1076 1.351 . S
C1076 C1070 1.428 . S
C1076 N1075 1.351 . S
C1076 C1077 1.434 . S
C1077 C1068 1.429 . S
C1077 N1074 1.350 . S
C1077 C1076 1.434 . S
C1078 C1079 1.369 1_554 S
C1078 C1080 1.419 . S
C1078 H1082 0.930 . S
C1079 C1078 1.369 1_556 S
C1079 C1088 1.429 . S
C1080 C1078 1.419 . S
C1080 C1081 1.363 . S
C1080 H1083 0.929 . S
C1081 C1080 1.363 . S
C1081 C1087 1.428 1_554 S
H1082 C1078 0.930 . S
H1083 C1080 0.929 . S
S1084 N1085 1.613 . S
S1084 N1086 1.610 . S
N1085 S1084 1.613 . S
N1085 C1088 1.350 . S
N1086 S1084 1.610 . S
N1086 C1087 1.351 . S
C1087 C1081 1.428 1_556 S
C1087 N1086 1.351 . S
C1087 C1088 1.434 . S
C1088 C1079 1.429 . S
C1088 N1085 1.350 . S
C1088 C1087 1.434 . S
C1089 C1090 1.369 . S
C1089 C1091 1.419 . S
C1089 H1093 0.930 . S
C1090 C1089 1.369 . S
C1090 C1099 1.429 . S
C1091 C1089 1.419 . S
C1091 C1092 1.363 . S
C1091 H1094 0.929 . S
C1092 C1091 1.363 . S
C1092 C1098 1.428 . S
H1093 C1089 0.930 . S
H1094 C1091 0.929 . S
S1095 N1096 1.613 1_556 S
S1095 N1097 1.610 . S
N1096 S1095 1.613 1_554 S
N1096 C1099 1.350 . S
N1097 S1095 1.610 . S
N1097 C1098 1.351 1_556 S
C1098 C1092 1.428 . S
C1098 N1097 1.351 1_554 S
C1098 C1099 1.434 . S
C1099 C1090 1.429 . S
C1099 N1096 1.350 . S
C1099 C1098 1.434 . S
C1100 C1101 1.369 . S
C1100 C1102 1.419 . S
C1100 H1104 0.930 . S
C1101 C1100 1.369 . S
C1101 C1110 1.429 . S
C1102 C1100 1.419 . S
C1102 C1103 1.363 . S
C1102 H1105 0.929 . S
C1103 C1102 1.363 . S
C1103 C1109 1.428 . S
H1104 C1100 0.930 . S
H1105 C1102 0.929 . S
S1106 N1107 1.613 . S
S1106 N1108 1.610 . S
N1107 S1106 1.613 . S
N1107 C1110 1.350 . S
N1108 S1106 1.610 . S
N1108 C1109 1.351 . S
C1109 C1103 1.428 . S
C1109 N1108 1.351 . S
C1109 C1110 1.434 . S
C1110 C1101 1.429 . S
C1110 N1107 1.350 . S
C1110 C1109 1.434 . S
C1111 C1112 1.369 . S
C1111 C1113 1.419 . S
C1111 H1115 0.930 . S
C1112 C1111 1.369 . S
C1112 C1121 1.429 . S
C1113 C1111 1.419 . S
C1113 C1114 1.363 . S
C1113 H1116 0.929 . S
C1114 C1113 1.363 . S
C1114 C1120 1.428 . S
H1115 C1111 0.930 . S
H1116 C1113 0.929 . S
S1117 N1118 1.613 . S
S1117 N1119 1.610 . S
N1118 S1117 1.613 . S
N1118 C1121 1.350 . S
N1119 S1117 1.610 . S
N1119 C1120 1.351 . S
C1120 C1114 1.428 . S
C1120 N1119 1.351 . S
C1120 C1121 1.434 . S
C1121 C1112 1.429 . S
C1121 N1118 1.350 . S
C1121 C1120 1.434 . S
C1122 C1123 1.369 . S
C1122 C1124 1.419 1_655 S
C1122 H1126 0.930 . S
C1123 C1122 1.369 . S
C1123 C1132 1.429 . S
C1124 C1122 1.419 1_455 S
C1124 C1125 1.363 . S
C1124 H1127 0.929 . S
C1125 C1124 1.363 . S
C1125 C1131 1.428 . S
H1126 C1122 0.930 . S
H1127 C1124 0.929 . S
S1128 N1129 1.613 1_455 S
S1128 N1130 1.610 . S
N1129 S1128 1.613 1_655 S
N1129 C1132 1.350 . S
N1130 S1128 1.610 . S
N1130 C1131 1.351 . S
C1131 C1125 1.428 . S
C1131 N1130 1.351 . S
C1131 C1132 1.434 1_455 S
C1132 C1123 1.429 . S
C1132 N1129 1.350 . S
C1132 C1131 1.434 1_655 S
C1133 C1134 1.369 . S
C1133 C1135 1.419 . S
C1133 H1137 0.930 . S
C1134 C1133 1.369 . S
C1134 C1143 1.429 . S
C1135 C1133 1.419 . S
C1135 C1136 1.363 . S
C1135 H1138 0.929 . S
C1136 C1135 1.363 . S
C1136 C1142 1.428 . S
H1137 C1133 0.930 . S
H1138 C1135 0.929 . S
S1139 N1140 1.613 . S
S1139 N1141 1.610 . S
N1140 S1139 1.613 . S
N1140 C1143 1.350 . S
N1141 S1139 1.610 . S
N1141 C1142 1.351 . S
C1142 C1136 1.428 . S
C1142 N1141 1.351 . S
C1142 C1143 1.434 . S
C1143 C1134 1.429 . S
C1143 N1140 1.350 . S
C1143 C1142 1.434 . S
C1144 C1145 1.369 . S
C1144 C1146 1.419 1_545 S
C1144 H1148 0.930 . S
C1145 C1144 1.369 . S
C1145 C1154 1.429 1_545 S
C1146 C1144 1.419 1_565 S
C1146 C1147 1.363 . S
C1146 H1149 0.929 . S
C1147 C1146 1.363 . S
C1147 C1153 1.428 . S
H1148 C1144 0.930 . S
H1149 C1146 0.929 . S
S1150 N1151 1.613 1_565 S
S1150 N1152 1.610 . S
N1151 S1150 1.613 1_545 S
N1151 C1154 1.352 1_545 S
N1152 S1150 1.610 . S
N1152 C1153 1.351 . S
C1153 C1147 1.428 . S
C1153 N1152 1.351 . S
C1153 C1154 1.431 . S
C1154 C1145 1.429 1_565 S
C1154 N1151 1.352 1_565 S
C1154 C1153 1.431 . S
C1155 C1156 1.369 . S
C1155 C1157 1.419 . S
C1155 H1159 0.930 . S
C1156 C1155 1.369 . S
C1156 C1165 1.429 . S
C1157 C1155 1.419 . S
C1157 C1158 1.363 . S
C1157 H1160 0.929 . S
C1158 C1157 1.363 . S
C1158 C1164 1.428 . S
H1159 C1155 0.930 . S
H1160 C1157 0.929 . S
S1161 N1162 1.613 . S
S1161 N1163 1.610 . S
N1162 S1161 1.613 . S
N1162 C1165 1.350 . S
N1163 S1161 1.610 . S
N1163 C1164 1.351 . S
C1164 C1158 1.428 . S
C1164 N1163 1.351 . S
C1164 C1165 1.434 . S
C1165 C1156 1.429 . S
C1165 N1162 1.350 . S
C1165 C1164 1.434 . S
C1166 C1167 1.369 . S
C1166 C1168 1.419 . S
C1166 H1170 0.930 . S
C1167 C1166 1.369 . S
C1167 C1176 1.429 . S
C1168 C1166 1.419 . S
C1168 C1169 1.363 . S
C1168 H1171 0.929 . S
C1169 C1168 1.363 . S
C1169 C1175 1.428 . S
H1170 C1166 0.930 . S
H1171 C1168 0.929 . S
S1172 N1173 1.613 . S
S1172 N1174 1.610 . S
N1173 S1172 1.613 . S
N1173 C1176 1.350 . S
N1174 S1172 1.610 . S
N1174 C1175 1.351 . S
C1175 C1169 1.428 . S
C1175 N1174 1.351 . S
C1175 C1176 1.434 . S
C1176 C1167 1.429 . S
C1176 N1173 1.350 . S
C1176 C1175 1.434 . S
C1177 C1178 1.369 . S
C1177 C1179 1.419 . S
C1177 H1181 0.930 . S
C1178 C1177 1.369 . S
C1178 C1187 1.429 . S
C1179 C1177 1.419 . S
C1179 C1180 1.363 . S
C1179 H1182 0.929 . S
C1180 C1179 1.363 . S
C1180 C1186 1.428 . S
H1181 C1177 0.930 . S
H1182 C1179 0.929 . S
S1183 N1184 1.613 . S
S1183 N1185 1.610 . S
N1184 S1183 1.613 . S
N1184 C1187 1.350 . S
N1185 S1183 1.610 . S
N1185 C1186 1.351 . S
C1186 C1180 1.428 . S
C1186 N1185 1.351 . S
C1186 C1187 1.434 . S
C1187 C1178 1.429 . S
C1187 N1184 1.350 . S
C1187 C1186 1.434 . S
C1188 C1189 1.369 . S
C1188 C1190 1.419 . S
C1188 H1192 0.930 . S
C1189 C1188 1.369 . S
C1189 C1198 1.429 . S
C1190 C1188 1.419 . S
C1190 C1191 1.363 . S
C1190 H1193 0.929 . S
C1191 C1190 1.363 . S
C1191 C1197 1.428 . S
H1192 C1188 0.930 . S
H1193 C1190 0.929 . S
S1194 N1195 1.613 . S
S1194 N1196 1.610 . S
N1195 S1194 1.613 . S
N1195 C1198 1.350 . S
N1196 S1194 1.610 . S
N1196 C1197 1.351 . S
C1197 C1191 1.428 . S
C1197 N1196 1.351 . S
C1197 C1198 1.434 . S
C1198 C1189 1.429 . S
C1198 N1195 1.350 . S
C1198 C1197 1.434 . S
C1199 C1200 1.369 . S
C1199 C1201 1.419 . S
C1199 H1203 0.930 . S
C1200 C1199 1.369 . S
C1200 C1209 1.429 . S
C1201 C1199 1.419 . S
C1201 C1202 1.363 . S
C1201 H1204 0.929 . S
C1202 C1201 1.363 . S
C1202 C1208 1.428 . S
H1203 C1199 0.930 . S
H1204 C1201 0.929 . S
S1205 N1206 1.613 . S
S1205 N1207 1.610 . S
N1206 S1205 1.613 . S
N1206 C1209 1.350 . S
N1207 S1205 1.610 . S
N1207 C1208 1.351 . S
C1208 C1202 1.428 . S
C1208 N1207 1.351 . S
C1208 C1209 1.434 . S
C1209 C1200 1.429 . S
C1209 N1206 1.350 . S
C1209 C1208 1.434 . S
C1210 C1211 1.369 . S
C1210 C1212 1.419 . S
C1210 H1214 0.930 . S
C1211 C1210 1.369 . S
C1211 C1220 1.429 . S
C1212 C1210 1.419 . S
C1212 C1213 1.363 . S
C1212 H1215 0.929 . S
C1213 C1212 1.363 . S
C1213 C1219 1.428 . S
H1214 C1210 0.930 . S
H1215 C1212 0.929 . S
S1216 N1217 1.613 1_655 S
S1216 N1218 1.610 1_655 S
N1217 S1216 1.613 1_455 S
N1217 C1220 1.350 . S
N1218 S1216 1.610 1_455 S
N1218 C1219 1.351 . S
C1219 C1213 1.428 . S
C1219 N1218 1.351 . S
C1219 C1220 1.434 . S
C1220 C1211 1.429 . S
C1220 N1217 1.350 . S
C1220 C1219 1.434 . S
C1221 C1222 1.369 . S
C1221 C1223 1.419 . S
C1221 H1225 0.930 . S
C1222 C1221 1.369 . S
C1222 C1231 1.429 . S
C1223 C1221 1.419 . S
C1223 C1224 1.363 1_545 S
C1223 H1226 0.929 . S
C1224 C1223 1.363 1_565 S
C1224 C1230 1.428 . S
H1225 C1221 0.930 . S
H1226 C1223 0.929 . S
S1227 N1228 1.613 1_565 S
S1227 N1229 1.610 . S
N1228 S1227 1.613 1_545 S
N1228 C1231 1.350 . S
N1229 S1227 1.610 . S
N1229 C1230 1.351 . S
C1230 C1224 1.428 . S
C1230 N1229 1.351 . S
C1230 C1231 1.434 1_565 S
C1231 C1222 1.429 . S
C1231 N1228 1.350 . S
C1231 C1230 1.434 1_545 S
C1232 C1233 1.369 1_455 S
C1232 C1234 1.419 . S
C1232 H1236 0.930 . S
C1233 C1232 1.369 1_655 S
C1233 C1242 1.429 . S
C1234 C1232 1.419 . S
C1234 C1235 1.363 . S
C1234 H1237 0.929 . S
C1235 C1234 1.363 . S
C1235 C1241 1.428 . S
H1236 C1232 0.930 . S
H1237 C1234 0.929 . S
S1238 N1239 1.613 . S
S1238 N1240 1.610 . S
N1239 S1238 1.613 . S
N1239 C1242 1.350 . S
N1240 S1238 1.610 . S
N1240 C1241 1.351 1_655 S
C1241 C1235 1.428 . S
C1241 N1240 1.351 1_455 S
C1241 C1242 1.434 1_455 S
C1242 C1233 1.429 . S
C1242 N1239 1.350 . S
C1242 C1241 1.434 1_655 S
C1243 C1244 1.369 . S
C1243 C1245 1.419 . S
C1243 H1247 0.930 . S
C1244 C1243 1.369 . S
C1244 C1253 1.429 . S
C1245 C1243 1.419 . S
C1245 C1246 1.363 . S
C1245 H1248 0.929 . S
C1246 C1245 1.363 . S
C1246 C1252 1.428 . S
H1247 C1243 0.930 . S
H1248 C1245 0.929 . S
S1249 N1250 1.613 . S
S1249 N1251 1.610 . S
N1250 S1249 1.613 . S
N1250 C1253 1.350 . S
N1251 S1249 1.610 . S
N1251 C1252 1.351 . S
C1252 C1246 1.428 . S
C1252 N1251 1.351 . S
C1252 C1253 1.434 . S
C1253 C1244 1.429 . S
C1253 N1250 1.350 . S
C1253 C1252 1.434 . S
C1254 C1255 1.369 . S
C1254 C1256 1.419 . S
C1254 H1258 0.930 . S
C1255 C1254 1.369 . S
C1255 C1264 1.429 . S
C1256 C1254 1.419 . S
C1256 C1257 1.363 . S
C1256 H1259 0.929 . S
C1257 C1256 1.363 . S
C1257 C1263 1.428 . S
H1258 C1254 0.930 . S
H1259 C1256 0.929 . S
S1260 N1261 1.613 . S
S1260 N1262 1.610 . S
N1261 S1260 1.613 . S
N1261 C1264 1.350 . S
N1262 S1260 1.610 . S
N1262 C1263 1.351 . S
C1263 C1257 1.428 . S
C1263 N1262 1.351 . S
C1263 C1264 1.434 . S
C1264 C1255 1.429 . S
C1264 N1261 1.350 . S
C1264 C1263 1.434 . S
C1265 C1266 1.369 . S
C1265 C1267 1.419 . S
C1265 H1269 0.930 . S
C1266 C1265 1.369 . S
C1266 C1275 1.429 . S
C1267 C1265 1.419 . S
C1267 C1268 1.363 . S
C1267 H1270 0.929 . S
C1268 C1267 1.363 . S
C1268 C1274 1.428 . S
H1269 C1265 0.930 . S
H1270 C1267 0.929 . S
S1271 N1272 1.613 . S
S1271 N1273 1.610 . S
N1272 S1271 1.613 . S
N1272 C1275 1.350 . S
N1273 S1271 1.610 . S
N1273 C1274 1.351 . S
C1274 C1268 1.428 . S
C1274 N1273 1.351 . S
C1274 C1275 1.434 . S
C1275 C1266 1.429 . S
C1275 N1272 1.350 . S
C1275 C1274 1.434 . S
C1276 C1277 1.369 . S
C1276 C1278 1.419 . S
C1276 H1280 0.930 . S
C1277 C1276 1.369 . S
C1277 C1286 1.429 . S
C1278 C1276 1.419 . S
C1278 C1279 1.363 . S
C1278 H1281 0.929 . S
C1279 C1278 1.363 . S
C1279 C1285 1.428 . S
H1280 C1276 0.930 . S
H1281 C1278 0.929 . S
S1282 N1283 1.613 . S
S1282 N1284 1.610 . S
N1283 S1282 1.613 . S
N1283 C1286 1.350 . S
N1284 S1282 1.610 . S
N1284 C1285 1.351 . S
C1285 C1279 1.428 . S
C1285 N1284 1.351 . S
C1285 C1286 1.434 . S
C1286 C1277 1.429 . S
C1286 N1283 1.350 . S
C1286 C1285 1.434 . S
C1287 C1288 1.369 . S
C1287 C1289 1.419 1_565 S
C1287 H1291 0.930 . S
C1288 C1287 1.369 . S
C1288 C1297 1.429 1_565 S
C1289 C1287 1.419 1_545 S
C1289 C1290 1.363 . S
C1289 H1292 0.929 . S
C1290 C1289 1.363 . S
C1290 C1296 1.428 . S
H1291 C1287 0.930 . S
H1292 C1289 0.929 . S
S1293 N1294 1.613 . S
S1293 N1295 1.610 . S
N1294 S1293 1.613 . S
N1294 C1297 1.350 . S
N1295 S1293 1.610 . S
N1295 C1296 1.351 . S
C1296 C1290 1.428 . S
C1296 N1295 1.351 . S
C1296 C1297 1.434 . S
C1297 C1288 1.429 1_545 S
C1297 N1294 1.350 . S
C1297 C1296 1.434 . S
C1298 C1299 1.369 . S
C1298 C1300 1.419 . S
C1298 H1302 0.930 1_655 S
C1299 C1298 1.369 . S
C1299 C1308 1.429 . S
C1300 C1298 1.419 . S
C1300 C1301 1.363 . S
C1300 H1303 0.929 . S
C1301 C1300 1.363 . S
C1301 C1307 1.428 . S
H1302 C1298 0.930 1_455 S
H1303 C1300 0.929 . S
S1304 N1305 1.613 . S
S1304 N1306 1.610 . S
N1305 S1304 1.613 . S
N1305 C1308 1.350 . S
N1306 S1304 1.610 . S
N1306 C1307 1.351 . S
C1307 C1301 1.428 . S
C1307 N1306 1.351 . S
C1307 C1308 1.434 . S
C1308 C1299 1.429 . S
C1308 N1305 1.350 . S
C1308 C1307 1.434 . S
C1309 C1310 1.369 . S
C1309 C1311 1.419 . S
C1309 H1313 0.930 . S
C1310 C1309 1.369 . S
C1310 C1319 1.429 . S
C1311 C1309 1.419 . S
C1311 C1312 1.363 . S
C1311 H1314 0.929 . S
C1312 C1311 1.363 . S
C1312 C1318 1.428 . S
H1313 C1309 0.930 . S
H1314 C1311 0.929 . S
S1315 N1316 1.613 . S
S1315 N1317 1.610 . S
N1316 S1315 1.613 . S
N1316 C1319 1.350 . S
N1317 S1315 1.610 . S
N1317 C1318 1.351 . S
C1318 C1312 1.428 . S
C1318 N1317 1.351 . S
C1318 C1319 1.434 . S
C1319 C1310 1.429 . S
C1319 N1316 1.350 . S
C1319 C1318 1.434 . S
C1320 C1321 1.369 . S
C1320 C1322 1.419 1_455 S
C1320 H1324 0.930 . S
C1321 C1320 1.369 . S
C1321 C1330 1.429 . S
C1322 C1320 1.419 1_655 S
C1322 C1323 1.363 . S
C1322 H1325 0.929 . S
C1323 C1322 1.363 . S
C1323 C1329 1.428 1_655 S
H1324 C1320 0.930 . S
H1325 C1322 0.929 . S
S1326 N1327 1.613 . S
S1326 N1328 1.610 . S
N1327 S1326 1.613 . S
N1327 C1330 1.350 . S
N1328 S1326 1.610 . S
N1328 C1329 1.351 . S
C1329 C1323 1.428 1_455 S
C1329 N1328 1.351 . S
C1329 C1330 1.434 . S
C1330 C1321 1.429 . S
C1330 N1327 1.350 . S
C1330 C1329 1.434 . S
C1331 C1332 1.369 . S
C1331 C1333 1.419 . S
C1331 H1335 0.930 . S
C1332 C1331 1.369 . S
C1332 C1341 1.429 . S
C1333 C1331 1.419 . S
C1333 C1334 1.363 . S
C1333 H1336 0.929 . S
C1334 C1333 1.363 . S
C1334 C1340 1.428 . S
H1335 C1331 0.930 . S
H1336 C1333 0.929 . S
S1337 N1338 1.613 . S
S1337 N1339 1.610 . S
N1338 S1337 1.613 . S
N1338 C1341 1.350 . S
N1339 S1337 1.610 . S
N1339 C1340 1.351 . S
C1340 C1334 1.428 . S
C1340 N1339 1.351 . S
C1340 C1341 1.434 . S
C1341 C1332 1.429 . S
C1341 N1338 1.350 . S
C1341 C1340 1.434 . S
C1342 C1343 1.369 . S
C1342 C1344 1.419 1_565 S
C1342 H1346 0.930 . S
C1343 C1342 1.369 . S
C1343 C1352 1.429 . S
C1344 C1342 1.419 1_545 S
C1344 C1345 1.363 . S
C1344 H1347 0.929 . S
C1345 C1344 1.363 . S
C1345 C1351 1.428 . S
H1346 C1342 0.930 . S
H1347 C1344 0.929 . S
S1348 N1349 1.613 1_545 S
S1348 N1350 1.610 . S
N1349 S1348 1.613 1_565 S
N1349 C1352 1.350 . S
N1350 S1348 1.610 . S
N1350 C1351 1.351 . S
C1351 C1345 1.428 . S
C1351 N1350 1.351 . S
C1351 C1352 1.434 1_545 S
C1352 C1343 1.429 . S
C1352 N1349 1.350 . S
C1352 C1351 1.434 1_565 S
C1353 C1354 1.369 . S
C1353 C1355 1.419 . S
C1353 H1357 0.930 . S
C1354 C1353 1.369 . S
C1354 C1363 1.429 . S
C1355 C1353 1.419 . S
C1355 C1356 1.363 . S
C1355 H1358 0.929 . S
C1356 C1355 1.363 . S
C1356 C1362 1.428 . S
H1357 C1353 0.930 . S
H1358 C1355 0.929 . S
S1359 N1360 1.613 . S
S1359 N1361 1.610 . S
N1360 S1359 1.613 . S
N1360 C1363 1.350 . S
N1361 S1359 1.610 . S
N1361 C1362 1.351 . S
C1362 C1356 1.428 . S
C1362 N1361 1.351 . S
C1362 C1363 1.434 . S
C1363 C1354 1.429 . S
C1363 N1360 1.350 . S
C1363 C1362 1.434 . S
C1364 C1365 1.369 . S
C1364 C1366 1.419 . S
C1364 H1368 0.930 . S
C1365 C1364 1.369 . S
C1365 C1374 1.429 . S
C1366 C1364 1.419 . S
C1366 C1367 1.363 . S
C1366 H1369 0.929 . S
C1367 C1366 1.363 . S
C1367 C1373 1.428 . S
H1368 C1364 0.930 . S
H1369 C1366 0.929 . S
S1370 N1371 1.613 . S
S1370 N1372 1.610 . S
N1371 S1370 1.613 . S
N1371 C1374 1.350 . S
N1372 S1370 1.610 . S
N1372 C1373 1.351 . S
C1373 C1367 1.428 . S
C1373 N1372 1.351 . S
C1373 C1374 1.434 . S
C1374 C1365 1.429 . S
C1374 N1371 1.350 . S
C1374 C1373 1.434 . S
C1375 C1376 1.369 . S
C1375 C1377 1.419 . S
C1375 H1379 0.930 . S
C1376 C1375 1.369 . S
C1376 C1385 1.429 . S
C1377 C1375 1.419 . S
C1377 C1378 1.363 . S
C1377 H1380 0.929 . S
C1378 C1377 1.363 . S
C1378 C1384 1.428 . S
H1379 C1375 0.930 . S
H1380 C1377 0.929 . S
S1381 N1382 1.613 . S
S1381 N1383 1.610 . S
N1382 S1381 1.613 . S
N1382 C1385 1.350 . S
N1383 S1381 1.610 . S
N1383 C1384 1.351 . S
C1384 C1378 1.428 . S
C1384 N1383 1.351 . S
C1384 C1385 1.434 . S
C1385 C1376 1.429 . S
C1385 N1382 1.350 . S
C1385 C1384 1.434 . S
C1386 C1387 1.369 . S
C1386 C1388 1.419 . S
C1386 H1390 0.930 . S
C1387 C1386 1.369 . S
C1387 C1396 1.429 . S
C1388 C1386 1.419 . S
C1388 C1389 1.363 . S
C1388 H1391 0.929 . S
C1389 C1388 1.363 . S
C1389 C1395 1.428 . S
H1390 C1386 0.930 . S
H1391 C1388 0.929 . S
S1392 N1393 1.613 . S
S1392 N1394 1.610 . S
N1393 S1392 1.613 . S
N1393 C1396 1.350 . S
N1394 S1392 1.610 . S
N1394 C1395 1.351 . S
C1395 C1389 1.428 . S
C1395 N1394 1.351 . S
C1395 C1396 1.434 . S
C1396 C1387 1.429 . S
C1396 N1393 1.350 . S
C1396 C1395 1.434 . S
C1397 C1398 1.369 . S
C1397 C1399 1.419 . S
C1397 H1401 0.930 . S
C1398 C1397 1.369 . S
C1398 C1407 1.429 . S
C1399 C1397 1.419 . S
C1399 C1400 1.363 . S
C1399 H1402 0.929 . S
C1400 C1399 1.363 . S
C1400 C1406 1.428 . S
H1401 C1397 0.930 . S
H1402 C1399 0.929 . S
S1403 N1404 1.613 . S
S1403 N1405 1.610 . S
N1404 S1403 1.613 . S
N1404 C1407 1.350 . S
N1405 S1403 1.610 . S
N1405 C1406 1.351 . S
C1406 C1400 1.428 . S
C1406 N1405 1.351 . S
C1406 C1407 1.434 . S
C1407 C1398 1.429 . S
C1407 N1404 1.350 . S
C1407 C1406 1.434 . S
C1408 C1409 1.369 . S
C1408 C1410 1.419 . S
C1408 H1412 0.930 . S
C1409 C1408 1.369 . S
C1409 C1418 1.429 . S
C1410 C1408 1.419 . S
C1410 C1411 1.363 . S
C1410 H1413 0.929 . S
C1411 C1410 1.363 . S
C1411 C1417 1.428 . S
H1412 C1408 0.930 . S
H1413 C1410 0.929 . S
S1414 N1415 1.613 . S
S1414 N1416 1.610 . S
N1415 S1414 1.613 . S
N1415 C1418 1.350 . S
N1416 S1414 1.610 . S
N1416 C1417 1.351 . S
C1417 C1411 1.428 . S
C1417 N1416 1.351 . S
C1417 C1418 1.434 . S
C1418 C1409 1.429 . S
C1418 N1415 1.350 . S
C1418 C1417 1.434 . S
C1419 C1420 1.369 . S
C1419 C1421 1.419 . S
C1419 H1423 0.930 . S
C1420 C1419 1.369 . S
C1420 C1429 1.429 . S
C1421 C1419 1.419 . S
C1421 C1422 1.363 . S
C1421 H1424 0.929 . S
C1422 C1421 1.363 . S
C1422 C1428 1.428 . S
H1423 C1419 0.930 . S
H1424 C1421 0.929 . S
S1425 N1426 1.613 . S
S1425 N1427 1.610 . S
N1426 S1425 1.613 . S
N1426 C1429 1.350 1_455 S
N1427 S1425 1.610 . S
N1427 C1428 1.351 1_455 S
C1428 C1422 1.428 . S
C1428 N1427 1.351 1_655 S
C1428 C1429 1.434 . S
C1429 C1420 1.429 . S
C1429 N1426 1.350 1_655 S
C1429 C1428 1.434 . S
C1430 C1431 1.369 . S
C1430 C1432 1.419 . S
C1430 H1434 0.930 . S
C1431 C1430 1.369 . S
C1431 C1440 1.429 . S
C1432 C1430 1.419 . S
C1432 C1433 1.363 . S
C1432 H1435 0.929 . S
C1433 C1432 1.363 . S
C1433 C1439 1.428 . S
H1434 C1430 0.930 . S
H1435 C1432 0.929 . S
S1436 N1437 1.613 . S
S1436 N1438 1.610 . S
N1437 S1436 1.613 . S
N1437 C1440 1.350 . S
N1438 S1436 1.610 . S
N1438 C1439 1.351 . S
C1439 C1433 1.428 . S
C1439 N1438 1.351 . S
C1439 C1440 1.434 . S
C1440 C1431 1.429 . S
C1440 N1437 1.350 . S
C1440 C1439 1.434 . S
C1441 C1442 1.369 . S
C1441 C1443 1.419 . S
C1441 H1445 0.930 . S
C1442 C1441 1.369 . S
C1442 C1451 1.429 . S
C1443 C1441 1.419 . S
C1443 C1444 1.363 . S
C1443 H1446 0.929 . S
C1444 C1443 1.363 . S
C1444 C1450 1.428 . S
H1445 C1441 0.930 . S
H1446 C1443 0.929 . S
S1447 N1448 1.613 . S
S1447 N1449 1.610 . S
N1448 S1447 1.613 . S
N1448 C1451 1.350 . S
N1449 S1447 1.610 . S
N1449 C1450 1.351 . S
C1450 C1444 1.428 . S
C1450 N1449 1.351 . S
C1450 C1451 1.434 . S
C1451 C1442 1.429 . S
C1451 N1448 1.350 . S
C1451 C1450 1.434 . S
C1452 C1453 1.369 . S
C1452 C1454 1.419 . S
C1452 H1456 0.930 . S
C1453 C1452 1.369 . S
C1453 C1462 1.429 . S
C1454 C1452 1.419 . S
C1454 C1455 1.363 . S
C1454 H1457 0.929 . S
C1455 C1454 1.363 . S
C1455 C1461 1.428 . S
H1456 C1452 0.930 . S
H1457 C1454 0.929 . S
S1458 N1459 1.613 . S
S1458 N1460 1.610 . S
N1459 S1458 1.613 . S
N1459 C1462 1.350 . S
N1460 S1458 1.610 . S
N1460 C1461 1.351 . S
C1461 C1455 1.428 . S
C1461 N1460 1.351 . S
C1461 C1462 1.434 . S
C1462 C1453 1.429 . S
C1462 N1459 1.350 . S
C1462 C1461 1.434 . S
C1463 C1464 1.369 . S
C1463 C1465 1.419 . S
C1463 H1467 0.930 . S
C1464 C1463 1.369 . S
C1464 C1473 1.429 . S
C1465 C1463 1.419 . S
C1465 C1466 1.363 . S
C1465 H1468 0.929 . S
C1466 C1465 1.363 . S
C1466 C1472 1.428 . S
H1467 C1463 0.930 . S
H1468 C1465 0.929 . S
S1469 N1470 1.613 . S
S1469 N1471 1.610 . S
N1470 S1469 1.613 . S
N1470 C1473 1.350 . S
N1471 S1469 1.610 . S
N1471 C1472 1.351 . S
C1472 C1466 1.428 . S
C1472 N1471 1.351 . S
C1472 C1473 1.434 . S
C1473 C1464 1.429 . S
C1473 N1470 1.350 . S
C1473 C1472 1.434 . S
C1474 C1475 1.369 . S
C1474 C1476 1.419 . S
C1474 H1478 0.930 . S
C1475 C1474 1.369 . S
C1475 C1484 1.429 . S
C1476 C1474 1.419 . S
C1476 C1477 1.363 . S
C1476 H1479 0.929 . S
C1477 C1476 1.363 . S
C1477 C1483 1.428 . S
H1478 C1474 0.930 . S
H1479 C1476 0.929 . S
S1480 N1481 1.613 . S
S1480 N1482 1.610 . S
N1481 S1480 1.613 . S
N1481 C1484 1.350 . S
N1482 S1480 1.610 . S
N1482 C1483 1.351 . S
C1483 C1477 1.428 . S
C1483 N1482 1.351 . S
C1483 C1484 1.434 . S
C1484 C1475 1.429 . S
C1484 N1481 1.350 . S
C1484 C1483 1.434 . S
C1485 C1486 1.369 . S
C1485 C1487 1.419 . S
C1485 H1489 0.930 . S
C1486 C1485 1.369 . S
C1486 C1495 1.429 . S
C1487 C1485 1.419 . S
C1487 C1488 1.363 . S
C1487 H1490 0.929 . S
C1488 C1487 1.363 . S
C1488 C1494 1.428 . S
H1489 C1485 0.930 . S
H1490 C1487 0.929 . S
S1491 N1492 1.613 . S
S1491 N1493 1.610 . S
N1492 S1491 1.613 . S
N1492 C1495 1.350 . S
N1493 S1491 1.610 . S
N1493 C1494 1.351 . S
C1494 C1488 1.428 . S
C1494 N1493 1.351 . S
C1494 C1495 1.434 . S
C1495 C1486 1.429 . S
C1495 N1492 1.350 . S
C1495 C1494 1.434 . S
C1496 C1497 1.369 . S
C1496 C1498 1.419 . S
C1496 H1500 0.930 . S
C1497 C1496 1.369 . S
C1497 C1506 1.429 . S
C1498 C1496 1.419 . S
C1498 C1499 1.363 . S
C1498 H1501 0.929 . S
C1499 C1498 1.363 . S
C1499 C1505 1.428 . S
H1500 C1496 0.930 . S
H1501 C1498 0.929 . S
S1502 N1503 1.613 . S
S1502 N1504 1.610 . S
N1503 S1502 1.613 . S
N1503 C1506 1.350 . S
N1504 S1502 1.610 . S
N1504 C1505 1.351 . S
C1505 C1499 1.428 . S
C1505 N1504 1.351 . S
C1505 C1506 1.434 . S
C1506 C1497 1.429 . S
C1506 N1503 1.350 . S
C1506 C1505 1.434 . S
C1507 C1508 1.369 . S
C1507 C1509 1.419 . S
C1507 H1511 0.930 . S
C1508 C1507 1.369 . S
C1508 C1517 1.429 . S
C1509 C1507 1.419 . S
C1509 C1510 1.363 . S
C1509 H1512 0.929 . S
C1510 C1509 1.363 . S
C1510 C1516 1.428 . S
H1511 C1507 0.930 . S
H1512 C1509 0.929 . S
S1513 N1514 1.613 . S
S1513 N1515 1.610 . S
N1514 S1513 1.613 . S
N1514 C1517 1.350 . S
N1515 S1513 1.610 . S
N1515 C1516 1.351 . S
C1516 C1510 1.428 . S
C1516 N1515 1.351 . S
C1516 C1517 1.434 . S
C1517 C1508 1.429 . S
C1517 N1514 1.350 . S
C1517 C1516 1.434 . S
C1518 C1519 1.369 . S
C1518 C1520 1.419 . S
C1518 H1522 0.930 . S
C1519 C1518 1.369 . S
C1519 C1528 1.429 . S
C1520 C1518 1.419 . S
C1520 C1521 1.363 . S
C1520 H1523 0.929 . S
C1521 C1520 1.363 . S
C1521 C1527 1.428 . S
H1522 C1518 0.930 . S
H1523 C1520 0.929 . S
S1524 N1525 1.613 . S
S1524 N1526 1.610 . S
N1525 S1524 1.613 . S
N1525 C1528 1.350 . S
N1526 S1524 1.610 . S
N1526 C1527 1.351 . S
C1527 C1521 1.428 . S
C1527 N1526 1.351 . S
C1527 C1528 1.434 . S
C1528 C1519 1.429 . S
C1528 N1525 1.350 . S
C1528 C1527 1.434 . S
C1529 C1530 1.369 . S
C1529 C1531 1.419 . S
C1529 H1533 0.930 . S
C1530 C1529 1.369 . S
C1530 C1539 1.429 . S
C1531 C1529 1.419 . S
C1531 C1532 1.363 . S
C1531 H1534 0.929 . S
C1532 C1531 1.363 . S
C1532 C1538 1.428 . S
H1533 C1529 0.930 . S
H1534 C1531 0.929 . S
S1535 N1536 1.613 . S
S1535 N1537 1.610 . S
N1536 S1535 1.613 . S
N1536 C1539 1.350 . S
N1537 S1535 1.610 . S
N1537 C1538 1.351 . S
C1538 C1532 1.428 . S
C1538 N1537 1.351 . S
C1538 C1539 1.434 . S
C1539 C1530 1.429 . S
C1539 N1536 1.350 . S
C1539 C1538 1.434 . S
C1540 C1541 1.369 . S
C1540 C1542 1.419 . S
C1540 H1544 0.930 . S
C1541 C1540 1.369 . S
C1541 C1550 1.429 . S
C1542 C1540 1.419 . S
C1542 C1543 1.363 . S
C1542 H1545 0.929 . S
C1543 C1542 1.363 . S
C1543 C1549 1.428 . S
H1544 C1540 0.930 . S
H1545 C1542 0.929 . S
S1546 N1547 1.613 . S
S1546 N1548 1.610 . S
N1547 S1546 1.613 . S
N1547 C1550 1.350 . S
N1548 S1546 1.610 . S
N1548 C1549 1.351 . S
C1549 C1543 1.428 . S
C1549 N1548 1.351 . S
C1549 C1550 1.434 . S
C1550 C1541 1.429 . S
C1550 N1547 1.350 . S
C1550 C1549 1.434 . S
C1551 C1552 1.369 . S
C1551 C1553 1.419 . S
C1551 H1555 0.930 . S
C1552 C1551 1.369 . S
C1552 C1561 1.429 . S
C1553 C1551 1.419 . S
C1553 C1554 1.363 . S
C1553 H1556 0.929 . S
C1554 C1553 1.363 . S
C1554 C1560 1.428 . S
H1555 C1551 0.930 . S
H1556 C1553 0.929 . S
S1557 N1558 1.613 . S
S1557 N1559 1.610 . S
N1558 S1557 1.613 . S
N1558 C1561 1.350 . S
N1559 S1557 1.610 . S
N1559 C1560 1.351 . S
C1560 C1554 1.428 . S
C1560 N1559 1.351 . S
C1560 C1561 1.434 . S
C1561 C1552 1.429 . S
C1561 N1558 1.350 . S
C1561 C1560 1.434 . S
C1562 C1563 1.369 . S
C1562 C1564 1.419 . S
C1562 H1566 0.930 . S
C1563 C1562 1.369 . S
C1563 C1572 1.429 . S
C1564 C1562 1.419 . S
C1564 C1565 1.363 . S
C1564 H1567 0.929 . S
C1565 C1564 1.363 . S
C1565 C1571 1.428 . S
H1566 C1562 0.930 . S
H1567 C1564 0.929 . S
S1568 N1569 1.613 . S
S1568 N1570 1.610 . S
N1569 S1568 1.613 . S
N1569 C1572 1.350 . S
N1570 S1568 1.610 . S
N1570 C1571 1.351 . S
C1571 C1565 1.428 . S
C1571 N1570 1.351 . S
C1571 C1572 1.434 . S
C1572 C1563 1.429 . S
C1572 N1569 1.350 . S
C1572 C1571 1.434 . S
C1573 C1574 1.369 . S
C1573 C1575 1.419 . S
C1573 H1577 0.930 . S
C1574 C1573 1.369 . S
C1574 C1583 1.429 . S
C1575 C1573 1.419 . S
C1575 C1576 1.363 . S
C1575 H1578 0.929 . S
C1576 C1575 1.363 . S
C1576 C1582 1.428 . S
H1577 C1573 0.930 . S
H1578 C1575 0.929 . S
S1579 N1580 1.613 . S
S1579 N1581 1.610 . S
N1580 S1579 1.613 . S
N1580 C1583 1.350 . S
N1581 S1579 1.610 . S
N1581 C1582 1.351 . S
C1582 C1576 1.428 . S
C1582 N1581 1.351 . S
C1582 C1583 1.434 . S
C1583 C1574 1.429 . S
C1583 N1580 1.350 . S
C1583 C1582 1.434 . S
C991 N170 1.894 . S
C993 C301 1.829 . S
C1002 N184 1.093 . S
C1004 C385 1.078 . S
C1013 N158 1.559 . S
C1015 C465 1.526 . S
C1024 N145 1.536 . S
C1026 C381 1.517 . S
C1037 C469 1.034 . S
C1035 N119 1.057 . S
C1046 N131 1.858 . S
C1048 C297 1.813 1_556 S
C1059 C290 1.574 . S
C1057 N144 1.630 . S
C1070 C374 1.415 . S
C1068 N118 1.419 . S
C1079 N132 1.460 . S
C1081 C476 1.455 . S
C1090 N171 1.450 . S
C1092 C392 1.445 . S
C1101 N183 1.380 . S
C1103 C458 1.378 . S
C1114 C308 1.553 . S
C1112 N157 1.594 . S
C1125 C553 1.830 . S
C1123 N14 1.893 . S
C1134 N28 1.094 . S
C1136 C637 1.079 . S
C1145 N2 1.556 . S
C1147 C717 1.531 . S
C1156 N223 1.539 . S
C1158 C633 1.507 . S
C1167 N197 1.056 . S
C1169 C721 1.036 . S
C1178 N209 1.858 . S
C1180 C549 1.811 . S
C1189 N222 1.632 . S
C1191 C542 1.568 . S
C1200 N196 1.417 . S
C1202 C626 1.420 . S
C1213 C728 1.454 . S
C1211 N210 1.461 . S
C1222 N15 1.448 . S
C1224 C644 1.446 . S
C1235 C710 1.374 . S
C1233 N27 1.379 . S
C1244 N1 1.592 . S
C1246 C560 1.554 . S
C1257 C805 1.831 . S
C1255 N92 1.892 . S
C1266 N106 1.089 . S
C1268 C889 1.073 . S
C1279 C969 1.531 . S
C1277 N80 1.555 . S
C1290 C885 1.509 . S
C1288 N67 1.537 . S
C1301 C973 1.026 . S
C1299 N41 1.053 1_655 S
C1310 N53 1.857 . S
C1312 C801 1.812 . S
C1321 N66 1.631 . S
C1323 C794 1.571 . S
C1332 N40 1.417 . S
C1334 C878 1.418 . S
C1345 C980 1.456 . S
C1343 N54 1.459 . S
C1354 N93 1.449 . S
C1356 C896 1.444 . S
C1365 N105 1.383 . S
C1367 C962 1.377 . S
C1376 N79 1.593 . S
C1378 C812 1.553 . S
C1387 N200 1.330 . S
C1389 C304 1.221 . S
C1400 C388 1.513 . S
C1398 N213 1.703 . S
C1409 N226 1.522 . S
C1411 C460 1.407 . S
C1420 N83 1.552 . S
C1422 C376 1.417 . S
C1431 N96 1.685 . S
C1433 C472 1.502 . S
C1444 C292 1.261 . S
C1442 N109 1.355 . S
C1453 N44 1.328 . S
C1455 C556 1.212 . S
C1464 N57 1.702 . S
C1466 C640 1.515 . S
C1475 N70 1.525 . S
C1477 C712 1.400 . S
C1486 N161 1.552 . S
C1488 C628 1.415 . S
C1499 C724 1.512 . S
C1497 N174 1.681 . S
C1508 N187 1.356 . S
C1510 C544 1.261 . S
C1519 N122 1.324 . S
C1521 C808 1.208 . S
C1530 N135 1.699 . S
C1532 C892 1.520 . S
C1543 C964 1.405 . S
C1541 N148 1.523 . S
C1552 N5 1.550 . S
C1554 C880 1.425 . S
C1563 N18 1.686 . S
C1565 C976 1.501 . S
C1574 N31 1.353 . S
C1576 C796 1.260 . S
