# Generated by pormake.
# Topology anh, (6,3)-cn, num edge types: 1
# Building blocks:
#     Node 0, Type 0, BuildingBlock: CUKXOW_clean_sbu_0, # of connection points: 6
#     Node 1, Type 0, BuildingBlock: CUKXOW_clean_sbu_0, # of connection points: 6
#     Node 2, Type 0, BuildingBlock: CUKXOW_clean_sbu_0, # of connection points: 6
#     Node 3, Type 1, BuildingBlock: VETTIZ_charged_linker_0, # of connection points: 3
#     Node 4, Type 1, BuildingBlock: VETTIZ_charged_linker_0, # of connection points: 3
#     Node 5, Type 1, BuildingBlock: VETTIZ_charged_linker_0, # of connection points: 3
#     Node 6, Type 1, BuildingBlock: VETTIZ_charged_linker_0, # of connection points: 3
#     Node 7, Type 1, BuildingBlock: VETTIZ_charged_linker_0, # of connection points: 3
#     Node 8, Type 1, BuildingBlock: VETTIZ_charged_linker_0, # of connection points: 3
#     Edge 9, Type (0, 1), BuildingBlock: KIFKEQ_clean_linker_1, # of connection points: 2
#     Edge 10, Type (0, 1), BuildingBlock: KIFKEQ_clean_linker_1, # of connection points: 2
#     Edge 11, Type (0, 1), BuildingBlock: KIFKEQ_clean_linker_1, # of connection points: 2
#     Edge 12, Type (0, 1), BuildingBlock: KIFKEQ_clean_linker_1, # of connection points: 2
#     Edge 13, Type (0, 1), BuildingBlock: KIFKEQ_clean_linker_1, # of connection points: 2
#     Edge 14, Type (0, 1), BuildingBlock: KIFKEQ_clean_linker_1, # of connection points: 2
#     Edge 15, Type (0, 1), BuildingBlock: KIFKEQ_clean_linker_1, # of connection points: 2
#     Edge 16, Type (0, 1), BuildingBlock: KIFKEQ_clean_linker_1, # of connection points: 2
#     Edge 17, Type (0, 1), BuildingBlock: KIFKEQ_clean_linker_1, # of connection points: 2
#     Edge 18, Type (0, 1), BuildingBlock: KIFKEQ_clean_linker_1, # of connection points: 2
#     Edge 19, Type (0, 1), BuildingBlock: KIFKEQ_clean_linker_1, # of connection points: 2
#     Edge 20, Type (0, 1), BuildingBlock: KIFKEQ_clean_linker_1, # of connection points: 2
#     Edge 21, Type (0, 1), BuildingBlock: KIFKEQ_clean_linker_1, # of connection points: 2
#     Edge 22, Type (0, 1), BuildingBlock: KIFKEQ_clean_linker_1, # of connection points: 2
#     Edge 23, Type (0, 1), BuildingBlock: KIFKEQ_clean_linker_1, # of connection points: 2
#     Edge 24, Type (0, 1), BuildingBlock: KIFKEQ_clean_linker_1, # of connection points: 2
#     Edge 25, Type (0, 1), BuildingBlock: KIFKEQ_clean_linker_1, # of connection points: 2
#     Edge 26, Type (0, 1), BuildingBlock: KIFKEQ_clean_linker_1, # of connection points: 2
# Relax obj value: 0.137
# Max RMSD: 0.196
# Mean RMSD: 0.142
data_MOF--net-anh--node1-CUKXOW_clean_sbu_0--node2-VETTIZ_charged_linker_0--edge1-KIFKEQ_clean_linker_1
_symmetry_space_group_name_H-M    P1
_symmetry_Int_Tables_number       1
_symmetry_cell_setting            triclinic
loop_
_symmetry_equiv_pos_as_xyz
'x, y, z'
_cell_length_a     34.832195
_cell_length_b     33.767512
_cell_length_c     66.347807
_cell_angle_alpha  95.344576
_cell_angle_beta   90.390688
_cell_angle_gamma 114.32713
loop_
_atom_site_label
_atom_site_type_symbol
_atom_site_fract_x
_atom_site_fract_y
_atom_site_fract_z
_atom_type_partial_charge
Tb0 Tb 0.0883 0.53854 0.15385 0.0
C1 C 0.06149 0.49944 0.19447 0.0
Tb2 Tb 0.03084 0.43884 0.15303 0.0
O3 O 0.03759 0.55531 0.16596 0.0
O4 O 1.02264 0.49664 0.14817 0.0
O5 O 0.09239 0.52901 0.18541 0.0
C6 C 0.96251 0.36405 0.15471 0.0
O7 O 0.03036 0.46574 0.18423 0.0
C8 C 0.11248 0.45311 0.15403 0.0
C9 C 0.0606 0.47766 0.11181 0.0
O10 O 0.99236 0.38256 0.16874 0.0
O11 O 0.97129 0.38743 0.13954 0.0
O12 O 0.0813 0.41461 0.15298 0.0
O13 O 0.09559 0.4798 0.15419 0.0
O14 O 0.03359 0.4442 0.1207 0.0
O15 O 0.0868 0.51525 0.12191 0.0
C16 C 0.15209 0.61619 0.15111 0.0
O17 O 0.1146 0.6033 0.1426 0.0
O18 O 0.15327 0.58568 0.16125 0.0
C19 C 1.00694 0.51843 0.15908 0.0
Tb20 Tb 0.50312 0.9977 0.49642 0.0
C21 C 0.54275 0.0274 0.45552 0.0
Tb22 Tb 0.59526 0.06266 0.49809 0.0
O23 O 0.48393 0.04692 0.48618 0.0
O24 O 0.53745 0.06522 0.5055 0.0
O25 O 0.51202 0.99635 0.4641 0.0
C26 C 0.66456 0.13627 0.49702 0.0
O27 O 0.57594 0.05818 0.46611 0.0
C28 C 0.58337 0.98101 0.49873 0.0
C29 C 0.55629 0.03006 0.53869 0.0
O30 O 0.66225 0.09719 0.49209 0.0
O31 O 0.62802 0.13372 0.50236 0.0
O32 O 0.61655 0.01401 0.50696 0.0
O33 O 0.56104 0.99495 0.489 0.0
O34 O 0.58683 0.06164 0.53038 0.0
O35 O 0.52328 0.9997 0.52795 0.0
C36 C 0.4295 0.93064 0.50048 0.0
O37 O 0.43763 0.97148 0.50531 0.0
O38 O 0.46261 0.92753 0.49305 0.0
C39 C 0.51633 0.0795 0.49517 0.0
Tb40 Tb 0.55427 0.57621 0.83605 0.0
C41 C 0.60538 0.57749 0.87502 0.0
Tb42 Tb 0.64198 0.57752 0.832 0.0
O43 O 0.5242 0.50816 0.84294 0.0
O44 O 0.57896 0.52991 0.82688 0.0
O45 O 0.57974 0.59281 0.86717 0.0
C46 C 0.70621 0.55514 0.8271 0.0
O47 O 0.62976 0.56413 0.86354 0.0
C48 C 0.63834 0.65411 0.83271 0.0
C49 C 0.59027 0.57456 0.79228 0.0
O50 O 0.70688 0.58746 0.83962 0.0
O51 O 0.66971 0.53575 0.81758 0.0
O52 O 0.66744 0.6452 0.8239 0.0
O53 O 0.61669 0.62261 0.84229 0.0
O54 O 0.62394 0.57177 0.8002 0.0
O55 O 0.55958 0.57708 0.8033 0.0
C56 C 0.49476 0.60617 0.83698 0.0
O57 O 0.52489 0.61612 0.82448 0.0
O58 O 0.49735 0.57839 0.84859 0.0
C59 C 0.55505 0.499 0.83645 0.0
C60 C 0.65391 0.09864 0.17799 0.0
C61 C 0.69165 0.12747 0.18866 0.0
C62 C 0.69331 0.13222 0.20998 0.0
C63 C 0.62058 0.08006 0.20993 0.0
C64 C 0.61883 0.07486 0.18897 0.0
C65 C 0.57663 0.04074 0.18042 0.0
H66 H 0.37855 0.89632 0.19861 0.0
C67 C 0.57926 0.05111 0.21688 0.0
C68 C 0.55313 0.02781 0.1997 0.0
H69 H 0.43617 0.91481 0.14082 0.0
H70 H 0.50001 0.97271 0.15704 0.0
H71 H 0.45304 0.89424 0.22083 0.0
H72 H 0.41634 1.00028 0.21704 0.0
H73 H 0.43222 1.00214 0.24245 0.0
H74 H 0.38831 0.95439 0.23083 0.0
H75 H 0.41242 0.89953 0.23581 0.0
H76 H 0.46718 0.92491 0.24459 0.0
C77 C 0.58376 1.00237 0.169 0.0
C78 C 0.55618 0.06263 0.16705 0.0
C79 C 0.55615 0.04899 0.29242 0.0
C80 C 0.52148 0.02503 0.30359 0.0
C81 C 0.48324 0.99674 0.29305 0.0
C82 C 0.47982 0.9918 0.27184 0.0
C83 C 0.51506 0.01512 0.26091 0.0
C84 C 0.55226 0.04345 0.27121 0.0
C85 C 0.58647 0.06525 0.25709 0.0
C86 C 0.56382 0.04473 0.23661 0.0
C87 C 0.5221 0.01549 0.23898 0.0
C88 C 0.62342 0.05223 0.26122 0.0
C89 C 0.59832 0.11506 0.26024 0.0
C90 C 0.40453 0.91354 0.18935 0.0
C91 C 0.4022 0.90166 0.16841 0.0
C92 C 0.43728 0.92371 0.15699 0.0
C93 C 0.47426 0.95707 0.16645 0.0
C94 C 0.47641 0.96774 0.18758 0.0
C95 C 0.44175 0.94594 0.19859 0.0
C96 C 0.45016 0.95861 0.22097 0.0
C97 C 0.49557 0.99184 0.22173 0.0
C98 C 0.5109 0.99761 0.20216 0.0
C99 C 0.44525 0.91738 0.23125 0.0
C100 C 0.42014 0.97974 0.2284 0.0
H101 H 0.6615 0.11425 0.23686 0.0
H102 H 0.65207 0.09416 0.16157 0.0
H103 H 0.55895 0.09433 0.17491 0.0
H104 H 0.52217 0.04282 0.16371 0.0
H105 H 0.57202 0.06925 0.15248 0.0
H106 H 0.61039 0.99795 0.17629 0.0
H107 H 0.59137 1.00829 0.15302 0.0
H108 H 0.55642 0.97062 0.16928 0.0
H109 H 0.58584 0.07148 0.29999 0.0
H110 H 0.45616 0.97745 0.3012 0.0
H111 H 0.44999 0.96941 0.26479 0.0
H112 H 0.61168 0.01889 0.26625 0.0
H113 H 0.64597 0.0752 0.27329 0.0
H114 H 0.64074 0.05035 0.24753 0.0
H115 H 0.56998 0.12156 0.2634 0.0
H116 H 0.611 0.13175 0.24666 0.0
H117 H 0.62147 0.13103 0.27327 0.0
H118 H 0.72203 0.1545 0.21844 0.0
C119 C 0.65805 0.10892 0.22064 0.0
C120 C 0.54664 0.64264 0.51145 0.0
C121 C 0.54357 0.67983 0.52151 0.0
C122 C 0.54041 0.68295 0.54265 0.0
C123 C 0.54548 0.61391 0.54382 0.0
C124 C 0.54689 0.60963 0.52294 0.0
C125 C 0.5478 0.56643 0.51514 0.0
H126 H 0.56555 0.38149 0.53841 0.0
C127 C 0.54816 0.57558 0.55156 0.0
C128 C 0.54923 0.54712 0.53489 0.0
H129 H 0.54549 0.41204 0.47865 0.0
H130 H 0.54491 0.48099 0.49316 0.0
H131 H 0.63064 0.47907 0.55697 0.0
H132 H 0.49703 0.40314 0.55706 0.0
H133 H 0.5103 0.43508 0.58053 0.0
H134 H 0.53297 0.39627 0.57439 0.0
H135 H 0.60676 0.43278 0.57105 0.0
H136 H 0.61554 0.48709 0.58168 0.0
C137 C 0.58815 0.5756 0.50337 0.0
C138 C 0.50656 0.53895 0.50228 0.0
C139 C 0.56109 0.57195 0.62776 0.0
C140 C 0.56556 0.54147 0.6396 0.0
C141 C 0.56621 0.50288 0.6298 0.0
C142 C 0.56324 0.49511 0.60866 0.0
C143 C 0.55926 0.52603 0.59704 0.0
C144 C 0.55791 0.56349 0.60659 0.0
C145 C 0.55295 0.59229 0.59173 0.0
C146 C 0.55165 0.56583 0.57167 0.0
C147 C 0.55567 0.52737 0.57495 0.0
C148 C 0.59261 0.63627 0.59445 0.0
C149 C 0.51064 0.59631 0.59532 0.0
C150 C 0.56166 0.40334 0.52841 0.0
C151 C 0.55637 0.392 0.50744 0.0
C152 C 0.54999 0.42051 0.4949 0.0
C153 C 0.54948 0.46026 0.50336 0.0
C154 C 0.55441 0.47089 0.52456 0.0
C155 C 0.55997 0.44213 0.53659 0.0
C156 C 0.56167 0.45615 0.55875 0.0
C157 C 0.55651 0.49836 0.55829 0.0
C158 C 0.55288 0.50763 0.53828 0.0
C159 C 0.60573 0.464 0.56777 0.0
C160 C 0.52385 0.42093 0.56834 0.0
H161 H 0.53953 0.65522 0.5699 0.0
H162 H 0.54857 0.63935 0.49514 0.0
H163 H 0.47944 0.54389 0.50896 0.0
H164 H 0.49772 0.5035 0.50171 0.0
H165 H 0.50906 0.54837 0.48658 0.0
H166 H 0.61614 0.60059 0.51233 0.0
H167 H 0.58583 0.58815 0.48872 0.0
H168 H 0.59467 0.54638 0.50021 0.0
H169 H 0.56071 0.60206 0.63476 0.0
H170 H 0.56871 0.47837 0.63849 0.0
H171 H 0.56424 0.46524 0.60224 0.0
H172 H 0.62158 0.63061 0.59667 0.0
H173 H 0.59063 0.65736 0.60793 0.0
H174 H 0.59812 0.65475 0.58111 0.0
H175 H 0.4878 0.56787 0.60244 0.0
H176 H 0.4941 0.59632 0.58101 0.0
H177 H 0.5155 0.62623 0.60548 0.0
H178 H 0.53813 0.71136 0.55062 0.0
C179 C 0.54146 0.65039 0.55383 0.0
C180 C 0.21154 0.63738 0.85272 0.0
C181 C 0.24899 0.65452 0.86503 0.0
C182 C 0.24638 0.64903 0.88591 0.0
C183 C 0.17158 0.60401 0.88106 0.0
C184 C 0.17355 0.61154 0.86091 0.0
C185 C 0.13225 0.58565 0.84924 0.0
H186 H 0.92533 0.45954 0.85101 0.0
C187 C 0.12878 0.57147 0.88421 0.0
C188 C 0.10569 0.56023 0.86559 0.0
H189 H 0.99595 0.52063 0.8006 0.0
H190 H 0.06107 0.54104 0.82012 0.0
H191 H 0.9931 0.41727 0.86388 0.0
H192 H 0.97198 0.53093 0.88458 0.0
H193 H 0.97935 0.50707 0.90595 0.0
H194 H 0.93592 0.47611 0.88813 0.0
H195 H 0.95212 0.4143 0.88068 0.0
H196 H 1.00518 0.42715 0.8901 0.0
C197 C 0.13895 0.5551 0.83198 0.0
C198 C 0.11617 0.61862 0.84192 0.0
C199 C 0.09175 0.51949 0.95368 0.0
C200 C 0.05522 0.48828 0.96116 0.0
C201 C 1.01942 0.46553 0.94789 0.0
C202 C 1.02008 0.47371 0.92754 0.0
C203 C 0.05687 0.50506 0.92035 0.0
C204 C 0.09194 0.52711 0.93334 0.0
C205 C 0.12874 0.55818 0.92295 0.0
C206 C 0.10995 0.55111 0.90154 0.0
C207 C 0.06782 0.52027 0.90014 0.0
C208 C 0.16529 0.54336 0.92413 0.0
C209 C 0.13959 0.60512 0.93294 0.0
C210 C 0.95481 0.47585 0.84386 0.0
C211 C 0.95548 0.48954 0.82442 0.0
C212 C 0.99462 0.51072 0.81574 0.0
C213 C 0.03235 0.52295 0.82718 0.0
C214 C 0.03084 0.51377 0.84745 0.0
C215 C 0.99276 0.48847 0.85513 0.0
C216 C 0.99736 0.48175 0.87697 0.0
C217 C 0.04402 0.50977 0.88146 0.0
C218 C 0.06324 0.52881 0.86417 0.0
C219 C 0.98615 0.43261 0.87815 0.0
C220 C 0.96962 0.49958 0.88969 0.0
H221 H 0.20838 0.61996 0.90979 0.0
H222 H 0.21208 0.64139 0.83671 0.0
H223 H 0.12159 0.64572 0.85404 0.0
H224 H 0.08197 0.6042 0.83817 0.0
H225 H 0.13306 0.6333 0.8285 0.0
H226 H 0.16508 0.54607 0.83613 0.0
H227 H 0.14695 0.57108 0.81776 0.0
H228 H 0.11121 0.52345 0.82888 0.0
H229 H 0.11967 0.538 0.96346 0.0
H230 H 0.991 0.44101 0.95319 0.0
H231 H 0.99187 0.45544 0.9182 0.0
H232 H 0.15308 0.50742 0.92471 0.0
H233 H 0.18626 0.55946 0.93789 0.0
H234 H 0.18444 0.54953 0.91061 0.0
H235 H 0.11034 0.60957 0.93646 0.0
H236 H 0.15658 0.63058 0.92298 0.0
H237 H 0.15862 0.61189 0.94737 0.0
H238 H 0.27445 0.66114 0.89587 0.0
C239 C 0.2079 0.62418 0.89398 0.0
C240 C 0.93574 0.43721 0.46993 0.0
C241 C 0.90156 0.40296 0.45902 0.0
C242 C 0.89858 0.40077 0.43775 0.0
C243 C 0.96295 0.46645 0.43838 0.0
C244 C 0.9658 0.46894 0.45929 0.0
C245 C 1.00319 0.50905 0.46829 0.0
H246 H 0.16888 0.69813 0.45285 0.0
C247 C 0.99846 0.50443 0.43188 0.0
C248 C 1.02199 0.53 0.4493 0.0
H249 H 0.13084 0.64602 0.51002 0.0
H250 H 0.07342 0.58233 0.49263 0.0
H251 H 0.16392 0.61269 0.43102 0.0
H252 H 0.07512 0.67099 0.4319 0.0
H253 H 0.07777 0.65167 0.40659 0.0
H254 H 0.12462 0.69249 0.41993 0.0
H255 H 0.16858 0.65431 0.41508 0.0
H256 H 0.13801 0.59707 0.40698 0.0
C257 C 0.03324 0.49415 0.47951 0.0
C258 C 0.9866 0.53771 0.48194 0.0
C259 C 1.01986 0.51745 0.35681 0.0
C260 C 0.05064 0.54843 0.34608 0.0
C261 C 0.08166 0.58608 0.3569 0.0
C262 C 0.08254 0.59229 0.37809 0.0
C263 C 0.0522 0.56046 0.38862 0.0
C264 C 1.02134 0.52404 0.37797 0.0
C265 C 0.99173 0.49365 0.39167 0.0
C266 C 1.01081 0.51724 0.41235 0.0
C267 C 0.04603 0.55628 0.41043 0.0
C268 C 0.99476 0.44904 0.38798 0.0
C269 C 0.94698 0.49163 0.38759 0.0
C270 C 0.14763 0.67337 0.46165 0.0
C271 C 0.15344 0.67725 0.48277 0.0
C272 C 0.12638 0.64368 0.4937 0.0
C273 C 0.09322 0.6069 0.48359 0.0
C274 C 0.08773 0.60362 0.46235 0.0
C275 C 0.11514 0.6364 0.45179 0.0
C276 C 0.10703 0.62645 0.42928 0.0
C277 C 0.06927 0.58282 0.42795 0.0
C278 C 0.05772 0.56962 0.44731 0.0
C279 C 0.14632 0.62265 0.41995 0.0
C280 C 0.09577 0.66226 0.42133 0.0
H281 H 0.92503 0.42857 0.4112 0.0
H282 H 0.93844 0.4397 0.48632 0.0
H283 H 0.95819 0.53859 0.47459 0.0
H284 H 1.00949 0.57213 0.48472 0.0
H285 H 0.97759 0.52452 0.49676 0.0
H286 H 0.0337 0.46407 0.47131 0.0
H287 H 1.02308 0.48674 0.49507 0.0
H288 H 0.06638 0.51845 0.48037 0.0
H289 H 0.99517 0.48855 0.34892 0.0
H290 H 0.10595 0.61028 0.34902 0.0
H291 H 0.10716 0.6214 0.38544 0.0
H292 H 0.02811 0.45389 0.38624 0.0
H293 H 0.97638 0.42995 0.37393 0.0
H294 H 0.98398 0.42888 0.40069 0.0
H295 H 0.94838 0.52157 0.38128 0.0
H296 H 0.92963 0.4902 0.40162 0.0
H297 H 0.9279 0.46324 0.37657 0.0
H298 H 0.87263 0.37437 0.4291 0.0
C299 C 0.92909 0.43221 0.42739 0.0
C300 C 0.59886 0.96271 0.82035 0.0
C301 C 0.59983 0.92419 0.81048 0.0
C302 C 0.59647 0.91743 0.78923 0.0
C303 C 0.59113 0.98625 0.78757 0.0
C304 C 0.59416 0.99334 0.80851 0.0
C305 C 0.5914 0.03603 0.81582 0.0
H306 H 0.56048 0.21289 0.78913 0.0
C307 C 0.58614 0.02311 0.77944 0.0
C308 C 0.58583 0.05269 0.79583 0.0
H309 H 0.58066 0.18807 0.85004 0.0
H310 H 0.58806 0.1216 0.83681 0.0
H311 H 0.63321 0.19153 0.77102 0.0
H312 H 0.49958 0.11834 0.77301 0.0
H313 H 0.51264 0.10275 0.749 0.0
H314 H 0.52249 0.15919 0.75595 0.0
H315 H 0.59601 0.19968 0.75499 0.0
H316 H 0.61733 0.1604 0.7474 0.0
C317 C 0.63324 0.06662 0.82743 0.0
C318 C 0.55247 0.0258 0.82876 0.0
C319 C 0.57437 0.02345 0.70294 0.0
C320 C 0.56716 0.0518 0.69074 0.0
C321 C 0.56246 0.08867 0.69999 0.0
C322 C 0.56502 0.09734 0.72109 0.0
C323 C 0.57209 0.0687 0.73317 0.0
C324 C 0.57637 0.03238 0.72407 0.0
C325 C 0.5822 1.00488 0.73936 0.0
C326 C 0.58159 0.03129 0.75915 0.0
C327 C 0.57585 0.06854 0.75536 0.0
C328 C 0.62581 1.00358 0.73643 0.0
C329 C 0.54404 0.95949 0.73658 0.0
C330 C 0.56602 0.19303 0.79973 0.0
C331 C 0.56913 0.2053 0.82063 0.0
C332 C 0.5778 0.17911 0.83382 0.0
C333 C 0.58192 0.14053 0.82612 0.0
C334 C 0.57785 0.12842 0.80501 0.0
C335 C 0.57056 0.15522 0.79236 0.0
C336 C 0.5684 0.13948 0.77042 0.0
C337 C 0.57495 0.09827 0.77166 0.0
C338 C 0.5803 0.09111 0.79189 0.0
C339 C 0.60532 0.17447 0.76025 0.0
C340 C 0.5237 0.12962 0.76144 0.0
H341 H 0.59011 0.94073 0.76166 0.0
H342 H 0.6014 0.96855 0.83673 0.0
H343 H 0.52441 0.99859 0.82086 0.0
H344 H 0.54394 0.05378 0.83154 0.0
H345 H 0.55797 0.01582 0.84362 0.0
H346 H 0.66058 0.06642 0.81892 0.0
H347 H 0.63526 0.05593 0.84259 0.0
H348 H 0.63735 0.10094 0.82941 0.0
H349 H 0.57758 0.99455 0.6962 0.0
H350 H 0.55725 0.11113 0.69085 0.0
H351 H 0.5613 0.12607 0.72712 0.0
H352 H 0.64966 0.03599 0.73302 0.0
H353 H 0.62416 0.9792 0.72361 0.0
H354 H 0.6389 0.99645 0.75014 0.0
H355 H 0.51589 0.96126 0.72941 0.0
H356 H 0.53311 0.94638 0.75118 0.0
H357 H 0.55154 0.93533 0.7268 0.0
H358 H 0.59734 0.88816 0.78143 0.0
C359 C 0.59228 0.94811 0.77778 0.0
C360 C 0.67175 0.48894 0.15023 0.0
C361 C 0.70869 0.48999 0.14072 0.0
C362 C 0.71091 0.49226 0.11975 0.0
C363 C 0.64244 0.49471 0.11773 0.0
C364 C 0.63851 0.49095 0.13825 0.0
C365 C 0.59569 0.48922 0.14465 0.0
H366 H 0.41223 0.5052 0.11321 0.0
C367 C 0.60482 0.49841 0.10932 0.0
C368 C 0.57639 0.49509 0.12481 0.0
H369 H 0.43747 0.47807 0.17294 0.0
H370 H 0.50634 0.48148 0.16264 0.0
H371 H 0.50102 0.57889 0.10869 0.0
H372 H 0.44298 0.44145 0.08943 0.0
H373 H 0.47206 0.46601 0.06907 0.0
H374 H 0.43024 0.48064 0.07775 0.0
H375 H 0.4648 0.5567 0.08703 0.0
H376 H 0.52086 0.5733 0.08491 0.0
C377 C 0.60269 0.52701 0.16117 0.0
C378 C 0.56979 0.44409 0.15182 0.0
C379 C 0.60455 0.52755 0.03554 0.0
C380 C 0.57674 0.53665 0.02334 0.0
C381 C 0.53974 0.53714 0.03154 0.0
C382 C 0.53055 0.52865 0.05162 0.0
C383 C 0.5588 0.51986 0.06376 0.0
C384 C 0.59509 0.51965 0.05566 0.0
C385 C 0.62217 0.51132 0.0709 0.0
C386 C 0.59602 0.5063 0.08954 0.0
C387 C 0.55892 0.51093 0.08521 0.0
C388 C 0.66484 0.55239 0.07382 0.0
C389 C 0.62553 0.46804 0.06316 0.0
C390 C 0.4324 0.50048 0.12436 0.0
C391 C 0.41909 0.49204 0.14401 0.0
C392 C 0.4466 0.48472 0.15762 0.0
C393 C 0.48656 0.48668 0.15165 0.0
C394 C 0.49912 0.49542 0.13175 0.0
C395 C 0.47154 0.50192 0.11867 0.0
C396 C 0.48783 0.51007 0.09804 0.0
C397 C 0.52953 0.50682 0.10039 0.0
C398 C 0.5373 0.49859 0.1202 0.0
C399 C 0.49376 0.55695 0.09426 0.0
C400 C 0.45676 0.47299 0.08263 0.0
H401 H 0.68308 0.49673 0.0925 0.0
H402 H 0.66898 0.48671 0.16636 0.0
H403 H 0.56924 0.41766 0.14033 0.0
H404 H 0.53669 0.43848 0.15409 0.0
H405 H 0.58379 0.44062 0.16629 0.0
H406 H 0.62428 0.55867 0.15599 0.0
H407 H 0.61698 0.52243 0.1753 0.0
H408 H 0.57286 0.52957 0.16484 0.0
H409 H 0.63349 0.52747 0.02971 0.0
H410 H 0.51764 0.54368 0.02232 0.0
H411 H 0.50172 0.52927 0.05683 0.0
H412 H 0.66072 0.58257 0.0713 0.0
H413 H 0.68801 0.5496 0.063 0.0
H414 H 0.67894 0.55908 0.08941 0.0
H415 H 0.59685 0.44537 0.05385 0.0
H416 H 0.62748 0.44919 0.07561 0.0
H417 H 0.65303 0.47421 0.05358 0.0
H418 H 0.73858 0.49293 0.11213 0.0
C419 C 0.6784 0.49458 0.10834 0.0
H420 H 0.18342 0.53174 0.15534 0.0
H421 H 0.14593 0.393 0.15317 0.0
H422 H 0.25748 0.54361 0.15612 0.0
H423 H 0.21956 0.4041 0.15305 0.0
H424 H 0.35736 0.43399 0.1661 0.0
H425 H 0.28507 0.42681 0.17045 0.0
H426 H 0.311 0.53826 0.13708 0.0
H427 H 0.38311 0.54655 0.13375 0.0
C428 C 0.19089 0.50377 0.15503 0.0
C429 C 0.15838 0.46154 0.15428 0.0
C430 C 0.23365 0.51039 0.1553 0.0
C431 C 0.24539 0.47487 0.15467 0.0
C432 C 0.21257 0.4326 0.15396 0.0
C433 C 0.16997 0.42612 0.15382 0.0
C434 C 0.34787 0.45751 0.16009 0.0
C435 C 0.3764 0.49055 0.14937 0.0
C436 C 0.30598 0.45304 0.1623 0.0
C437 C 0.2912 0.48152 0.15389 0.0
C438 C 0.32049 0.51566 0.14396 0.0
C439 C 0.36216 0.52016 0.14184 0.0
H440 H 0.66926 0.21841 0.5047 0.0
H441 H 0.7434 0.14674 0.48635 0.0
H442 H 0.72887 0.2869 0.49983 0.0
H443 H 0.80314 0.2154 0.48133 0.0
H444 H 0.81729 0.37864 0.45508 0.0
H445 H 0.76169 0.31613 0.46806 0.0
H446 H 0.85567 0.28788 0.49894 0.0
H447 H 0.91159 0.35086 0.48579 0.0
C448 C 0.69851 0.21741 0.49983 0.0
C449 C 0.70178 0.17743 0.4957 0.0
C450 C 0.73254 0.25656 0.49703 0.0
C451 C 0.77052 0.25641 0.49013 0.0
C452 C 0.77436 0.21648 0.48685 0.0
C453 C 0.74016 0.17723 0.48956 0.0
C454 C 0.82596 0.35944 0.46491 0.0
C455 C 0.86851 0.36921 0.4694 0.0
C456 C 0.79421 0.32386 0.47244 0.0
C457 C 0.80441 0.2971 0.48445 0.0
C458 C 0.84703 0.30787 0.48959 0.0
C459 C 0.8789 0.34394 0.48224 0.0
H460 H 0.68497 0.72476 0.81317 0.0
H461 H 0.58139 0.67798 0.85274 0.0
H462 H 0.67624 0.79277 0.81242 0.0
H463 H 0.57214 0.74588 0.85181 0.0
H464 H 0.53861 0.84636 0.81814 0.0
H465 H 0.54871 0.7821 0.8265 0.0
H466 H 0.68318 0.85971 0.8336 0.0
H467 H 0.67269 0.92383 0.82514 0.0
C468 C 0.66043 0.72912 0.82178 0.0
C469 C 0.63362 0.69585 0.83284 0.0
C470 C 0.65558 0.76824 0.82148 0.0
C471 C 0.62357 0.77498 0.83212 0.0
C472 C 0.59695 0.74174 0.84335 0.0
C473 C 0.60217 0.70279 0.84384 0.0
C474 C 0.57009 0.84994 0.82232 0.0
C475 C 0.6048 0.89016 0.82141 0.0
C476 C 0.57597 0.81311 0.82698 0.0
C477 C 0.61683 0.81556 0.83051 0.0
C478 C 0.65134 0.85654 0.83072 0.0
C479 C 0.64537 0.89343 0.82621 0.0
H480 H 0.93855 0.45407 0.13698 0.0
H481 H 0.97146 0.56331 0.18286 0.0
H482 H 0.8651 0.44488 0.13643 0.0
H483 H 0.8981 0.55345 0.183 0.0
H484 H 0.77635 0.56032 0.15842 0.0
H485 H 0.84713 0.56473 0.16471 0.0
H486 H 0.79977 0.4246 0.15119 0.0
H487 H 0.72926 0.42103 0.14422 0.0
C488 C 0.92998 0.47572 0.14719 0.0
C489 C 0.96114 0.50964 0.15985 0.0
C490 C 0.88759 0.47036 0.147 0.0
C491 C 0.87489 0.49855 0.15959 0.0
C492 C 0.90615 0.53153 0.17272 0.0
C493 C 0.94845 0.53705 0.17277 0.0
C494 C 0.78077 0.53029 0.15766 0.0
C495 C 0.74676 0.49019 0.15143 0.0
C496 C 0.82168 0.53273 0.16109 0.0
C497 C 0.83006 0.49507 0.15832 0.0
C498 C 0.79531 0.45458 0.15316 0.0
C499 C 0.75445 0.45227 0.14962 0.0
H500 H 0.40995 0.84398 0.49185 0.0
H501 H 0.35784 0.93447 0.5145 0.0
H502 H 0.34111 0.78314 0.4934 0.0
H503 H 0.28901 0.8736 0.5163 0.0
H504 H 0.1708 0.76247 0.48037 0.0
H505 H 0.23778 0.82481 0.48941 0.0
H506 H 0.28523 0.7405 0.51583 0.0
H507 H 0.21783 0.67782 0.50653 0.0
C508 C 0.38383 0.85071 0.49739 0.0
C509 C 0.3889 0.89379 0.50281 0.0
C510 C 0.34456 0.81591 0.49849 0.0
C511 C 0.30966 0.82363 0.50498 0.0
C512 C 0.31526 0.86672 0.51111 0.0
C513 C 0.35458 0.9015 0.51007 0.0
C514 C 0.19519 0.75761 0.48863 0.0
C515 C 0.18946 0.71555 0.49271 0.0
C516 C 0.23348 0.79326 0.49388 0.0
C517 C 0.2669 0.78744 0.50315 0.0
C518 C 0.26012 0.74579 0.50849 0.0
C519 C 0.22153 0.71008 0.50338 0.0
H520 H 0.48896 0.42034 0.83862 0.0
H521 H 0.62425 0.47986 0.83703 0.0
H522 H 0.49033 0.34865 0.83879 0.0
H523 H 0.62603 0.40825 0.83591 0.0
H524 H 0.62032 0.27545 0.84719 0.0
H525 H 0.61611 0.34627 0.85386 0.0
H526 H 0.50173 0.29713 0.81568 0.0
H527 H 0.50544 0.22677 0.80966 0.0
C528 C 0.51907 0.41807 0.83806 0.0
C529 C 0.55649 0.45568 0.8369 0.0
C530 C 0.51989 0.3769 0.83806 0.0
C531 C 0.55825 0.37222 0.83703 0.0
C532 C 0.59583 0.41025 0.83668 0.0
C533 C 0.59487 0.4514 0.83673 0.0
C534 C 0.59377 0.27962 0.8407 0.0
C535 C 0.56332 0.24558 0.82784 0.0
C536 C 0.59161 0.32037 0.84427 0.0
C537 C 0.55878 0.32784 0.83515 0.0
C538 C 0.52727 0.29284 0.82316 0.0
C539 C 0.52951 0.25241 0.81959 0.0
H540 H 0.52128 0.90839 0.478 0.0
H541 H 0.63164 0.94936 0.51827 0.0
H542 H 0.50962 0.83181 0.47903 0.0
H543 H 0.62103 0.87336 0.51866 0.0
H544 H 0.61095 0.7367 0.5035 0.0
H545 H 0.62055 0.80891 0.49443 0.0
H546 H 0.49128 0.78041 0.50782 0.0
H547 H 0.48209 0.70866 0.51715 0.0
C548 C 0.54286 0.90103 0.48713 0.0
C549 C 0.57682 0.93476 0.49841 0.0
C550 C 0.53644 0.8573 0.48756 0.0
C551 C 0.56455 0.84664 0.49883 0.0
C552 C 0.59915 0.88057 0.50961 0.0
C553 C 0.60507 0.92408 0.50949 0.0
C554 C 0.58428 0.74541 0.50379 0.0
C555 C 0.54572 0.71718 0.51083 0.0
C556 C 0.58985 0.7868 0.49882 0.0
C557 C 0.55674 0.80038 0.50058 0.0
C558 C 0.51724 0.77075 0.50618 0.0
C559 C 0.51192 0.7297 0.51147 0.0
H560 H 0.70341 0.48222 0.80501 0.0
H561 H 0.78788 0.60023 0.84081 0.0
H562 H 0.76225 0.46187 0.79815 0.0
H563 H 0.84661 0.57999 0.83394 0.0
H564 H 0.94983 0.55693 0.80714 0.0
H565 H 0.88693 0.57012 0.80352 0.0
H566 H 0.81073 0.44102 0.81998 0.0
H567 H 0.87386 0.42697 0.82305 0.0
C568 C 0.73463 0.5038 0.81134 0.0
C569 C 0.74141 0.54277 0.82342 0.0
C570 C 0.76812 0.49215 0.8074 0.0
C571 C 0.80889 0.51965 0.81527 0.0
C572 C 0.81555 0.55866 0.82735 0.0
C573 C 0.78201 0.57005 0.83146 0.0
C574 C 0.91959 0.53045 0.80908 0.0
C575 C 0.91692 0.4911 0.81575 0.0
C576 C 0.88362 0.53836 0.80728 0.0
C577 C 0.84437 0.50707 0.81206 0.0
C578 C 0.84081 0.46581 0.81638 0.0
C579 C 0.87691 0.45784 0.8182 0.0
H580 H 0.23384 0.63808 0.16217 0.0
H581 H 0.15163 0.68928 0.13658 0.0
H582 H 0.29367 0.70851 0.16131 0.0
H583 H 0.2118 0.76038 0.13586 0.0
H584 H 0.31966 0.88709 0.17197 0.0
H585 H 0.25806 0.81795 0.1637 0.0
H586 H 0.33823 0.76029 0.13695 0.0
H587 H 0.39991 0.82959 0.14527 0.0
C588 C 0.22868 0.66441 0.15623 0.0
C589 C 0.18815 0.65843 0.14956 0.0
C590 C 0.26299 0.70461 0.15556 0.0
C591 C 0.25746 0.7399 0.14842 0.0
C592 C 0.21694 0.73373 0.14145 0.0
C593 C 0.1826 0.69316 0.14185 0.0
C594 C 0.32388 0.85992 0.16384 0.0
C595 C 0.3645 0.86354 0.15933 0.0
C596 C 0.28864 0.82042 0.15905 0.0
C597 C 0.29342 0.78361 0.14988 0.0
C598 C 0.33372 0.78805 0.1442 0.0
C599 C 0.36893 0.82776 0.14878 0.0
H600 H 0.56604 0.14905 0.52161 0.0
H601 H 0.48633 0.11478 0.46703 0.0
H602 H 0.57886 0.22546 0.52095 0.0
H603 H 0.49987 0.19155 0.46591 0.0
H604 H 0.49065 0.32261 0.48765 0.0
H605 H 0.48307 0.24706 0.48254 0.0
H606 H 0.6123 0.28924 0.50477 0.0
H607 H 0.61879 0.36421 0.51065 0.0
C608 C 0.55186 0.15808 0.50926 0.0
C609 C 0.52537 0.12609 0.49433 0.0
C610 C 0.55933 0.20199 0.50878 0.0
C611 C 0.54061 0.21505 0.49329 0.0
C612 C 0.51445 0.18284 0.4782 0.0
C613 C 0.50677 0.13885 0.47879 0.0
C614 C 0.51767 0.31569 0.49086 0.0
C615 C 0.55529 0.34907 0.49948 0.0
C616 C 0.51341 0.27237 0.488 0.0
C617 C 0.54686 0.26168 0.49357 0.0
C618 C 0.58547 0.29588 0.50082 0.0
C619 C 0.58948 0.33896 0.50392 0.0
H620 H 0.45101 0.61064 0.86986 0.0
H621 H 0.47277 0.64855 0.80913 0.0
H622 H 0.39999 0.6428 0.87353 0.0
H623 H 0.4202 0.67964 0.8126 0.0
H624 H 0.26795 0.62482 0.82825 0.0
H625 H 0.33665 0.63032 0.81878 0.0
H626 H 0.39419 0.72096 0.87177 0.0
H627 H 0.3253 0.71792 0.88088 0.0
C628 C 0.44494 0.6261 0.85735 0.0
C629 C 0.4651 0.62669 0.83913 0.0
C630 C 0.41634 0.64507 0.85956 0.0
C631 C 0.40683 0.66417 0.84343 0.0
C632 C 0.42762 0.66559 0.82529 0.0
C633 C 0.45718 0.64752 0.82327 0.0
C634 C 0.29516 0.64802 0.83738 0.0
C635 C 0.29074 0.66984 0.85578 0.0
C636 C 0.33471 0.65103 0.83188 0.0
C637 C 0.37027 0.67532 0.8448 0.0
C638 C 0.36688 0.70163 0.86172 0.0
C639 C 0.32739 0.69942 0.86702 0.0
H640 H 0.94167 0.31609 0.18663 0.0
H641 H 0.89533 0.32356 0.12725 0.0
H642 H 0.87599 0.25407 0.19128 0.0
H643 H 0.82936 0.26021 0.13162 0.0
H644 H 0.70051 0.18778 0.16232 0.0
H645 H 0.76696 0.24161 0.15128 0.0
H646 H 0.83496 0.17896 0.18056 0.0
H647 H 0.76879 0.12658 0.19212 0.0
C648 C 0.91756 0.30397 0.17443 0.0
C649 C 0.92355 0.32456 0.1566 0.0
C650 C 0.87994 0.26813 0.17701 0.0
C651 C 0.84735 0.25178 0.16176 0.0
C652 C 0.85365 0.27209 0.14372 0.0
C653 C 0.89145 0.30817 0.14117 0.0
C654 C 0.72968 0.18508 0.1659 0.0
C655 C 0.72979 0.15343 0.17816 0.0
C656 C 0.76774 0.21584 0.1596 0.0
C657 C 0.80647 0.21517 0.16536 0.0
C658 C 0.8059 0.18121 0.17631 0.0
C659 C 0.76804 0.15094 0.18278 0.0
H660 H 0.9997 0.41832 0.08486 0.0
H661 H 0.12123 0.52875 0.0882 0.0
H662 H 0.99768 0.4158 0.04792 0.0
H663 H 0.119 0.52612 0.05139 0.0
H664 H 0.11821 0.48364 0.98432 0.0
H665 H 0.11956 0.4767 0.02054 0.0
H666 H 0.99204 0.46652 0.0231 0.0
H667 H 0.99087 0.47449 0.98695 0.0
C668 C 1.02615 0.44173 0.07773 0.0
C669 C 0.06057 0.47384 0.08945 0.0
C670 C 1.02483 0.44041 0.05661 0.0
C671 C 0.05815 0.47078 0.04684 0.0
C672 C 0.09306 0.50205 0.05853 0.0
C673 C 0.09418 0.50371 0.07961 0.0
C674 C 0.09049 0.48009 0.9926 0.0
C675 C 0.05459 0.48012 0.98278 0.0
C676 C 0.09124 0.47594 0.01331 0.0
C677 C 0.05599 0.47129 0.0246 0.0
C678 C 1.01951 0.46962 0.01469 0.0
C679 C 1.01885 0.47413 0.99399 0.0
H680 H 0.60271 0.07951 0.43171 0.0
H681 H 0.4765 0.97674 0.42897 0.0
H682 H 0.59781 0.08092 0.39513 0.0
H683 H 0.47192 0.97805 0.39238 0.0
H684 H 0.46332 0.02661 0.33091 0.0
H685 H 0.46866 0.02795 0.36768 0.0
H686 H 0.59402 0.0323 0.36389 0.0
H687 H 0.58855 0.03022 0.32714 0.0
C688 C 0.57395 0.05716 0.42334 0.0
C689 C 0.54002 0.02794 0.43329 0.0
C690 C 0.57126 0.05789 0.40237 0.0
C691 C 0.53448 0.02964 0.39092 0.0
C692 C 0.50049 1.00055 0.40085 0.0
C693 C 0.50327 0.99961 0.4218 0.0
C694 C 0.49193 0.02758 0.3379 0.0
C695 C 0.52546 0.02819 0.32605 0.0
C696 C 0.49498 0.02839 0.35895 0.0
C697 C 0.5317 0.0301 0.36864 0.0
C698 C 0.56552 0.03151 0.35686 0.0
C699 C 0.56239 0.03044 0.3358 0.0
H700 H 0.65354 0.59217 0.76611 0.0
H701 H 0.5194 0.55584 0.76823 0.0
H702 H 0.64832 0.58844 0.72943 0.0
H703 H 0.51382 0.55045 0.73128 0.0
H704 H 0.52409 0.57779 0.66503 0.0
H705 H 0.53109 0.59011 0.70196 0.0
H706 H 0.62219 0.53363 0.70174 0.0
H707 H 0.61718 0.52391 0.66501 0.0
C708 C 0.62283 0.58312 0.75871 0.0
C709 C 0.58679 0.57384 0.77005 0.0
C710 C 0.61981 0.5808 0.73765 0.0
C711 C 0.58057 0.56859 0.72736 0.0
C712 C 0.54461 0.56035 0.73873 0.0
C713 C 0.54774 0.56318 0.75989 0.0
C714 C 0.54609 0.56866 0.67288 0.0
C715 C 0.56995 0.5497 0.66205 0.0
C716 C 0.5497 0.57521 0.69406 0.0
C717 C 0.57716 0.56283 0.70484 0.0
C718 C 0.60117 0.54415 0.69396 0.0
C719 C 0.5978 0.53794 0.67286 0.0
H720 H 0.49316 0.98282 0.56229 0.0
H721 H 0.6241 0.07497 0.56527 0.0
H722 H 0.49556 0.9837 0.59907 0.0
H723 H 0.62629 0.07564 0.60211 0.0
H724 H 0.6219 0.03328 0.6665 0.0
H725 H 0.61946 0.02412 0.62935 0.0
H726 H 0.50395 0.04254 0.62778 0.0
H727 H 0.50638 0.05159 0.66478 0.0
C728 C 0.52254 1.00302 0.57075 0.0
C729 C 0.55839 0.02907 0.56087 0.0
C730 C 0.52381 1.00359 0.59181 0.0
C731 C 0.56107 0.02979 0.60338 0.0
C732 C 0.59726 0.05489 0.5935 0.0
C733 C 0.59588 0.05474 0.57244 0.0
C734 C 0.59581 0.03484 0.65815 0.0
C735 C 0.56441 0.04331 0.66841 0.0
C736 C 0.59457 0.02992 0.63697 0.0
C737 C 0.56156 0.0327 0.62576 0.0
C738 C 0.52957 0.03992 0.63607 0.0
C739 C 0.53111 0.04541 0.65719 0.0
H740 H 0.65778 0.55548 0.89831 0.0
H741 H 0.55331 0.5932 0.90181 0.0
H742 H 0.65566 0.54902 0.93473 0.0
H743 H 0.55029 0.58535 0.93768 0.0
H744 H 0.57383 0.60387 0.00474 0.0
H745 H 0.58611 0.61747 0.96942 0.0
H746 H 0.61225 0.50291 0.95869 0.0
H747 H 0.60124 0.49031 0.99428 0.0
C748 C 0.63447 0.56246 0.90682 0.0
C749 C 0.60586 0.57503 0.89715 0.0
C750 C 0.63308 0.55851 0.92766 0.0
C751 C 0.60291 0.56683 0.93918 0.0
C752 C 0.57455 0.57961 0.92944 0.0
C753 C 0.57613 0.58384 0.90875 0.0
C754 C 0.58231 0.58173 0.9948 0.0
C755 C 0.5862 0.54584 0.00213 0.0
C756 C 0.58927 0.5894 0.97457 0.0
C757 C 0.59971 0.561 0.96113 0.0
C758 C 0.60473 0.52572 0.96865 0.0
C759 C 0.59823 0.51835 0.98899 0.0
H760 H 0.1165 0.56678 0.22059 0.0
H761 H 1.00367 0.44644 0.21881 0.0
H762 H 0.11333 0.57816 0.2572 0.0
H763 H 1.00033 0.45835 0.25542 0.0
H764 H 0.0374 0.47197 0.32327 0.0
H765 H 0.03987 0.45965 0.28661 0.0
H766 H 0.06819 0.59549 0.28179 0.0
H767 H 0.06549 0.60782 0.31848 0.0
C768 C 0.09103 0.54273 0.22798 0.0
C769 C 0.06032 0.50569 0.21675 0.0
C770 C 0.08909 0.54946 0.24894 0.0
C771 C 0.05649 0.51925 0.25914 0.0
C772 C 1.02603 0.48199 0.24797 0.0
C773 C 0.02789 0.47529 0.22699 0.0
C774 C 0.04363 0.49909 0.31436 0.0
C775 C 0.05121 0.54087 0.32375 0.0
C776 C 0.04511 0.49202 0.29338 0.0
C777 C 0.05431 0.52662 0.28137 0.0
C778 C 0.06166 0.56835 0.29072 0.0
C779 C 0.0601 0.57541 0.31171 0.0
loop_
_geom_bond_atom_site_label_1
_geom_bond_atom_site_label_2
_geom_bond_distance
_geom_bond_site_symmetry_2
_ccdc_geom_bond_type
Tb0 O3 2.453 1_455 S
Tb0 O4 2.596 1_455 S
Tb0 O5 2.374 . S
Tb0 O13 2.343 . S
Tb0 O15 2.353 . S
Tb0 O17 2.427 . S
Tb0 O18 2.513 . S
C1 O5 1.251 . S
C1 O7 1.263 . S
Tb2 O4 2.343 1_455 S
Tb2 O7 2.353 . S
Tb2 O10 2.427 1_455 S
Tb2 O11 2.513 1_455 S
Tb2 O12 2.453 . S
Tb2 O13 2.596 . S
Tb2 O14 2.374 . S
O3 Tb0 2.453 1_655 S
O3 C19 1.245 . S
O4 Tb0 2.596 1_655 S
O4 Tb2 2.343 1_655 S
O4 C19 1.259 . S
O5 Tb0 2.374 . S
O5 C1 1.251 . S
C6 O10 1.275 . S
C6 O11 1.246 . S
O7 C1 1.263 . S
O7 Tb2 2.353 . S
C8 O12 1.245 . S
C8 O13 1.259 . S
C9 O14 1.250 . S
C9 O15 1.263 . S
O10 Tb2 2.427 1_655 S
O10 C6 1.275 . S
O11 Tb2 2.513 1_655 S
O11 C6 1.246 . S
O12 Tb2 2.453 . S
O12 C8 1.245 . S
O13 Tb0 2.343 . S
O13 Tb2 2.596 . S
O13 C8 1.259 . S
O14 Tb2 2.374 . S
O14 C9 1.250 . S
O15 Tb0 2.353 . S
O15 C9 1.263 . S
C16 O17 1.275 . S
C16 O18 1.246 . S
O17 Tb0 2.427 . S
O17 C16 1.275 . S
O18 Tb0 2.513 . S
O18 C16 1.246 . S
C19 O3 1.245 . S
C19 O4 1.259 . S
Tb20 O23 2.453 . S
Tb20 O24 2.596 . S
Tb20 O25 2.374 . S
Tb20 O33 2.343 1_545 S
Tb20 O35 2.353 . S
Tb20 O37 2.427 1_545 S
Tb20 O38 2.513 1_545 S
C21 O25 1.251 . S
C21 O27 1.263 . S
Tb22 O24 2.343 . S
Tb22 O27 2.353 . S
Tb22 O30 2.427 . S
Tb22 O31 2.513 . S
Tb22 O32 2.453 1_545 S
Tb22 O33 2.596 1_545 S
Tb22 O34 2.374 . S
O23 Tb20 2.453 . S
O23 C39 1.245 . S
O24 Tb20 2.596 . S
O24 Tb22 2.343 . S
O24 C39 1.259 . S
O25 Tb20 2.374 . S
O25 C21 1.251 . S
C26 O30 1.275 . S
C26 O31 1.246 . S
O27 C21 1.263 . S
O27 Tb22 2.353 . S
C28 O32 1.245 . S
C28 O33 1.259 . S
C29 O34 1.250 . S
C29 O35 1.263 . S
O30 Tb22 2.427 . S
O30 C26 1.275 . S
O31 Tb22 2.513 . S
O31 C26 1.246 . S
O32 Tb22 2.453 1_565 S
O32 C28 1.245 . S
O33 Tb20 2.343 1_565 S
O33 Tb22 2.596 1_565 S
O33 C28 1.259 . S
O34 Tb22 2.374 . S
O34 C29 1.250 . S
O35 Tb20 2.353 . S
O35 C29 1.263 . S
C36 O37 1.275 . S
C36 O38 1.246 . S
O37 Tb20 2.427 1_565 S
O37 C36 1.275 . S
O38 Tb20 2.513 1_565 S
O38 C36 1.246 . S
C39 O23 1.245 . S
C39 O24 1.259 . S
Tb40 O43 2.453 . S
Tb40 O44 2.596 . S
Tb40 O45 2.374 . S
Tb40 O53 2.343 . S
Tb40 O55 2.353 . S
Tb40 O57 2.427 . S
Tb40 O58 2.513 . S
C41 O45 1.251 . S
C41 O47 1.263 . S
Tb42 O44 2.343 . S
Tb42 O47 2.353 . S
Tb42 O50 2.427 . S
Tb42 O51 2.513 . S
Tb42 O52 2.453 . S
Tb42 O53 2.596 . S
Tb42 O54 2.374 . S
O43 Tb40 2.453 . S
O43 C59 1.245 . S
O44 Tb40 2.596 . S
O44 Tb42 2.343 . S
O44 C59 1.259 . S
O45 Tb40 2.374 . S
O45 C41 1.251 . S
C46 O50 1.275 . S
C46 O51 1.246 . S
O47 C41 1.263 . S
O47 Tb42 2.353 . S
C48 O52 1.245 . S
C48 O53 1.259 . S
C49 O54 1.250 . S
C49 O55 1.263 . S
O50 Tb42 2.427 . S
O50 C46 1.275 . S
O51 Tb42 2.513 . S
O51 C46 1.246 . S
O52 Tb42 2.453 . S
O52 C48 1.245 . S
O53 Tb40 2.343 . S
O53 Tb42 2.596 . S
O53 C48 1.259 . S
O54 Tb42 2.374 . S
O54 C49 1.250 . S
O55 Tb40 2.353 . S
O55 C49 1.263 . S
C56 O57 1.275 . S
C56 O58 1.246 . S
O57 Tb40 2.427 . S
O57 C56 1.275 . S
O58 Tb40 2.513 . S
O58 C56 1.246 . S
C59 O43 1.245 . S
C59 O44 1.259 . S
C60 C61 1.391 . S
C60 C64 1.391 . S
C60 H102 0.948 . S
C61 C60 1.391 . S
C61 C62 1.391 . S
C62 C61 1.391 . S
C62 H118 0.947 . S
C62 C119 1.392 . S
C63 C64 1.391 . S
C63 C67 1.397 . S
C63 C119 1.419 . S
C64 C60 1.391 . S
C64 C63 1.391 . S
C64 C65 1.399 . S
C65 C64 1.399 . S
C65 C68 1.396 . S
C65 C77 1.453 . S
C65 C78 1.684 . S
H66 C90 0.948 . S
C67 C63 1.397 . S
C67 C68 1.394 . S
C67 C86 1.723 . S
C68 C65 1.396 . S
C68 C67 1.394 . S
C68 C98 1.723 . S
H69 C92 0.947 . S
H70 C93 0.948 . S
H71 C99 0.982 . S
H72 C100 0.979 . S
H73 C100 0.980 . S
H74 C100 0.983 . S
H75 C99 0.979 . S
H76 C99 0.977 . S
C77 C65 1.453 . S
C77 H106 0.982 . S
C77 H107 0.979 . S
C77 H108 0.977 . S
C78 C65 1.684 . S
C78 H103 0.979 . S
C78 H104 0.980 . S
C78 H105 0.983 . S
C79 C80 1.391 . S
C79 C84 1.391 . S
C79 H109 0.948 . S
C80 C79 1.391 . S
C80 C81 1.391 . S
C81 C80 1.391 . S
C81 C82 1.392 . S
C81 H110 0.947 1_545 S
C82 C81 1.392 . S
C82 C83 1.419 . S
C82 H111 0.948 1_545 S
C83 C82 1.419 . S
C83 C84 1.391 . S
C83 C87 1.397 . S
C84 C79 1.391 . S
C84 C83 1.391 . S
C84 C85 1.399 . S
C85 C84 1.399 . S
C85 C86 1.396 . S
C85 C88 1.453 . S
C85 C89 1.684 . S
C86 C67 1.723 . S
C86 C85 1.396 . S
C86 C87 1.394 . S
C87 C83 1.397 . S
C87 C86 1.394 . S
C87 C97 1.723 1_545 S
C88 C85 1.453 . S
C88 H112 0.982 . S
C88 H113 0.979 . S
C88 H114 0.977 . S
C89 C85 1.684 . S
C89 H115 0.979 . S
C89 H116 0.980 . S
C89 H117 0.983 . S
C90 H66 0.948 . S
C90 C91 1.391 . S
C90 C95 1.391 . S
C91 C90 1.391 . S
C91 C92 1.391 . S
C92 H69 0.947 . S
C92 C91 1.391 . S
C92 C93 1.392 . S
C93 H70 0.948 . S
C93 C92 1.392 . S
C93 C94 1.419 . S
C94 C93 1.419 . S
C94 C95 1.391 . S
C94 C98 1.397 1_565 S
C95 C90 1.391 . S
C95 C94 1.391 . S
C95 C96 1.399 . S
C96 C95 1.399 . S
C96 C97 1.396 . S
C96 C99 1.453 . S
C96 C100 1.684 . S
C97 C87 1.723 1_565 S
C97 C96 1.396 . S
C97 C98 1.394 1_565 S
C98 C68 1.723 . S
C98 C94 1.397 1_545 S
C98 C97 1.394 1_545 S
C99 H71 0.982 . S
C99 H75 0.979 . S
C99 H76 0.977 . S
C99 C96 1.453 . S
C100 H72 0.979 . S
C100 H73 0.980 . S
C100 H74 0.983 . S
C100 C96 1.684 . S
H101 C119 0.948 . S
H102 C60 0.948 . S
H103 C78 0.979 . S
H104 C78 0.980 . S
H105 C78 0.983 . S
H106 C77 0.982 . S
H107 C77 0.979 . S
H108 C77 0.977 . S
H109 C79 0.948 . S
H110 C81 0.947 1_565 S
H111 C82 0.948 1_565 S
H112 C88 0.982 . S
H113 C88 0.979 . S
H114 C88 0.977 . S
H115 C89 0.979 . S
H116 C89 0.980 . S
H117 C89 0.983 . S
H118 C62 0.947 . S
C119 C62 1.392 . S
C119 C63 1.419 . S
C119 H101 0.948 . S
C120 C121 1.391 . S
C120 C124 1.391 . S
C120 H162 0.948 . S
C121 C120 1.391 . S
C121 C122 1.391 . S
C122 C121 1.391 . S
C122 H178 0.947 . S
C122 C179 1.392 . S
C123 C124 1.391 . S
C123 C127 1.397 . S
C123 C179 1.419 . S
C124 C120 1.391 . S
C124 C123 1.391 . S
C124 C125 1.399 . S
C125 C124 1.399 . S
C125 C128 1.396 . S
C125 C137 1.453 . S
C125 C138 1.684 . S
H126 C150 0.948 . S
C127 C123 1.397 . S
C127 C128 1.394 . S
C127 C146 1.723 . S
C128 C125 1.396 . S
C128 C127 1.394 . S
C128 C158 1.723 . S
H129 C152 0.947 . S
H130 C153 0.948 . S
H131 C159 0.982 . S
H132 C160 0.979 . S
H133 C160 0.980 . S
H134 C160 0.983 . S
H135 C159 0.979 . S
H136 C159 0.977 . S
C137 C125 1.453 . S
C137 H166 0.982 . S
C137 H167 0.979 . S
C137 H168 0.977 . S
C138 C125 1.684 . S
C138 H163 0.979 . S
C138 H164 0.980 . S
C138 H165 0.983 . S
C139 C140 1.391 . S
C139 C144 1.391 . S
C139 H169 0.948 . S
C140 C139 1.391 . S
C140 C141 1.391 . S
C141 C140 1.391 . S
C141 C142 1.392 . S
C141 H170 0.947 . S
C142 C141 1.392 . S
C142 C143 1.419 . S
C142 H171 0.948 . S
C143 C142 1.419 . S
C143 C144 1.391 . S
C143 C147 1.397 . S
C144 C139 1.391 . S
C144 C143 1.391 . S
C144 C145 1.399 . S
C145 C144 1.399 . S
C145 C146 1.396 . S
C145 C148 1.453 . S
C145 C149 1.684 . S
C146 C127 1.723 . S
C146 C145 1.396 . S
C146 C147 1.394 . S
C147 C143 1.397 . S
C147 C146 1.394 . S
C147 C157 1.723 . S
C148 C145 1.453 . S
C148 H172 0.982 . S
C148 H173 0.979 . S
C148 H174 0.977 . S
C149 C145 1.684 . S
C149 H175 0.979 . S
C149 H176 0.980 . S
C149 H177 0.983 . S
C150 H126 0.948 . S
C150 C151 1.391 . S
C150 C155 1.391 . S
C151 C150 1.391 . S
C151 C152 1.391 . S
C152 H129 0.947 . S
C152 C151 1.391 . S
C152 C153 1.392 . S
C153 H130 0.948 . S
C153 C152 1.392 . S
C153 C154 1.419 . S
C154 C153 1.419 . S
C154 C155 1.391 . S
C154 C158 1.397 . S
C155 C150 1.391 . S
C155 C154 1.391 . S
C155 C156 1.399 . S
C156 C155 1.399 . S
C156 C157 1.396 . S
C156 C159 1.453 . S
C156 C160 1.684 . S
C157 C147 1.723 . S
C157 C156 1.396 . S
C157 C158 1.394 . S
C158 C128 1.723 . S
C158 C154 1.397 . S
C158 C157 1.394 . S
C159 H131 0.982 . S
C159 H135 0.979 . S
C159 H136 0.977 . S
C159 C156 1.453 . S
C160 H132 0.979 . S
C160 H133 0.980 . S
C160 H134 0.983 . S
C160 C156 1.684 . S
H161 C179 0.948 . S
H162 C120 0.948 . S
H163 C138 0.979 . S
H164 C138 0.980 . S
H165 C138 0.983 . S
H166 C137 0.982 . S
H167 C137 0.979 . S
H168 C137 0.977 . S
H169 C139 0.948 . S
H170 C141 0.947 . S
H171 C142 0.948 . S
H172 C148 0.982 . S
H173 C148 0.979 . S
H174 C148 0.977 . S
H175 C149 0.979 . S
H176 C149 0.980 . S
H177 C149 0.983 . S
H178 C122 0.947 . S
C179 C122 1.392 . S
C179 C123 1.419 . S
C179 H161 0.948 . S
C180 C181 1.391 . S
C180 C184 1.391 . S
C180 H222 0.948 . S
C181 C180 1.391 . S
C181 C182 1.391 . S
C182 C181 1.391 . S
C182 H238 0.947 . S
C182 C239 1.392 . S
C183 C184 1.391 . S
C183 C187 1.397 . S
C183 C239 1.419 . S
C184 C180 1.391 . S
C184 C183 1.391 . S
C184 C185 1.399 . S
C185 C184 1.399 . S
C185 C188 1.396 . S
C185 C197 1.453 . S
C185 C198 1.684 . S
H186 C210 0.948 . S
C187 C183 1.397 . S
C187 C188 1.394 . S
C187 C206 1.723 . S
C188 C185 1.396 . S
C188 C187 1.394 . S
C188 C218 1.723 . S
H189 C212 0.947 . S
H190 C213 0.948 . S
H191 C219 0.982 . S
H192 C220 0.979 1_455 S
H193 C220 0.980 . S
H194 C220 0.983 . S
H195 C219 0.979 . S
H196 C219 0.977 . S
C197 C185 1.453 . S
C197 H226 0.982 . S
C197 H227 0.979 . S
C197 H228 0.977 . S
C198 C185 1.684 . S
C198 H223 0.979 . S
C198 H224 0.980 . S
C198 H225 0.983 . S
C199 C200 1.391 . S
C199 C204 1.391 . S
C199 H229 0.948 . S
C200 C199 1.391 . S
C200 C201 1.391 . S
C201 C200 1.391 . S
C201 C202 1.392 . S
C201 H230 0.947 . S
C202 C201 1.392 . S
C202 C203 1.419 . S
C202 H231 0.948 . S
C203 C202 1.419 . S
C203 C204 1.391 . S
C203 C207 1.397 . S
C204 C199 1.391 . S
C204 C203 1.391 . S
C204 C205 1.399 . S
C205 C204 1.399 . S
C205 C206 1.396 . S
C205 C208 1.453 . S
C205 C209 1.684 . S
C206 C187 1.723 . S
C206 C205 1.396 . S
C206 C207 1.394 . S
C207 C203 1.397 . S
C207 C206 1.394 . S
C207 C217 1.723 . S
C208 C205 1.453 . S
C208 H232 0.982 . S
C208 H233 0.979 . S
C208 H234 0.977 . S
C209 C205 1.684 . S
C209 H235 0.979 . S
C209 H236 0.980 . S
C209 H237 0.983 . S
C210 H186 0.948 . S
C210 C211 1.391 . S
C210 C215 1.391 . S
C211 C210 1.391 . S
C211 C212 1.391 . S
C212 H189 0.947 . S
C212 C211 1.391 . S
C212 C213 1.392 1_655 S
C213 H190 0.948 . S
C213 C212 1.392 1_455 S
C213 C214 1.419 . S
C214 C213 1.419 . S
C214 C215 1.391 1_455 S
C214 C218 1.397 . S
C215 C210 1.391 . S
C215 C214 1.391 1_655 S
C215 C216 1.399 . S
C216 C215 1.399 . S
C216 C217 1.396 1_655 S
C216 C219 1.453 . S
C216 C220 1.684 . S
C217 C207 1.723 . S
C217 C216 1.396 1_455 S
C217 C218 1.394 . S
C218 C188 1.723 . S
C218 C214 1.397 . S
C218 C217 1.394 . S
C219 H191 0.982 . S
C219 H195 0.979 . S
C219 H196 0.977 . S
C219 C216 1.453 . S
C220 H192 0.979 1_655 S
C220 H193 0.980 . S
C220 H194 0.983 . S
C220 C216 1.684 . S
H221 C239 0.948 . S
H222 C180 0.948 . S
H223 C198 0.979 . S
H224 C198 0.980 . S
H225 C198 0.983 . S
H226 C197 0.982 . S
H227 C197 0.979 . S
H228 C197 0.977 . S
H229 C199 0.948 . S
H230 C201 0.947 . S
H231 C202 0.948 . S
H232 C208 0.982 . S
H233 C208 0.979 . S
H234 C208 0.977 . S
H235 C209 0.979 . S
H236 C209 0.980 . S
H237 C209 0.983 . S
H238 C182 0.947 . S
C239 C182 1.392 . S
C239 C183 1.419 . S
C239 H221 0.948 . S
C240 C241 1.391 . S
C240 C244 1.391 . S
C240 H282 0.948 . S
C241 C240 1.391 . S
C241 C242 1.391 . S
C242 C241 1.391 . S
C242 H298 0.947 . S
C242 C299 1.392 . S
C243 C244 1.391 . S
C243 C247 1.397 . S
C243 C299 1.419 . S
C244 C240 1.391 . S
C244 C243 1.391 . S
C244 C245 1.399 . S
C245 C244 1.399 . S
C245 C248 1.396 . S
C245 C257 1.453 . S
C245 C258 1.684 . S
H246 C270 0.948 . S
C247 C243 1.397 . S
C247 C248 1.394 . S
C247 C266 1.723 . S
C248 C245 1.396 . S
C248 C247 1.394 . S
C248 C278 1.723 1_655 S
H249 C272 0.947 . S
H250 C273 0.948 . S
H251 C279 0.982 . S
H252 C280 0.979 . S
H253 C280 0.980 . S
H254 C280 0.983 . S
H255 C279 0.979 . S
H256 C279 0.977 . S
C257 C245 1.453 . S
C257 H286 0.982 1_655 S
C257 H287 0.979 . S
C257 H288 0.977 1_655 S
C258 C245 1.684 . S
C258 H283 0.979 . S
C258 H284 0.980 . S
C258 H285 0.983 . S
C259 C260 1.391 1_655 S
C259 C264 1.391 . S
C259 H289 0.948 . S
C260 C259 1.391 1_455 S
C260 C261 1.391 . S
C261 C260 1.391 . S
C261 C262 1.392 . S
C261 H290 0.947 . S
C262 C261 1.392 . S
C262 C263 1.419 . S
C262 H291 0.948 . S
C263 C262 1.419 . S
C263 C264 1.391 1_455 S
C263 C267 1.397 . S
C264 C259 1.391 . S
C264 C263 1.391 1_655 S
C264 C265 1.399 . S
C265 C264 1.399 . S
C265 C266 1.396 . S
C265 C268 1.453 . S
C265 C269 1.684 . S
C266 C247 1.723 . S
C266 C265 1.396 . S
C266 C267 1.394 1_655 S
C267 C263 1.397 . S
C267 C266 1.394 1_455 S
C267 C277 1.723 . S
C268 C265 1.453 . S
C268 H292 0.982 . S
C268 H293 0.979 . S
C268 H294 0.977 . S
C269 C265 1.684 . S
C269 H295 0.979 . S
C269 H296 0.980 . S
C269 H297 0.983 . S
C270 H246 0.948 . S
C270 C271 1.391 . S
C270 C275 1.391 . S
C271 C270 1.391 . S
C271 C272 1.391 . S
C272 H249 0.947 . S
C272 C271 1.391 . S
C272 C273 1.392 . S
C273 H250 0.948 . S
C273 C272 1.392 . S
C273 C274 1.419 . S
C274 C273 1.419 . S
C274 C275 1.391 . S
C274 C278 1.397 . S
C275 C270 1.391 . S
C275 C274 1.391 . S
C275 C276 1.399 . S
C276 C275 1.399 . S
C276 C277 1.396 . S
C276 C279 1.453 . S
C276 C280 1.684 . S
C277 C267 1.723 . S
C277 C276 1.396 . S
C277 C278 1.394 . S
C278 C248 1.723 1_455 S
C278 C274 1.397 . S
C278 C277 1.394 . S
C279 H251 0.982 . S
C279 H255 0.979 . S
C279 H256 0.977 . S
C279 C276 1.453 . S
C280 H252 0.979 . S
C280 H253 0.980 . S
C280 H254 0.983 . S
C280 C276 1.684 . S
H281 C299 0.948 . S
H282 C240 0.948 . S
H283 C258 0.979 . S
H284 C258 0.980 . S
H285 C258 0.983 . S
H286 C257 0.982 1_455 S
H287 C257 0.979 . S
H288 C257 0.977 1_455 S
H289 C259 0.948 . S
H290 C261 0.947 . S
H291 C262 0.948 . S
H292 C268 0.982 . S
H293 C268 0.979 . S
H294 C268 0.977 . S
H295 C269 0.979 . S
H296 C269 0.980 . S
H297 C269 0.983 . S
H298 C242 0.947 . S
C299 C242 1.392 . S
C299 C243 1.419 . S
C299 H281 0.948 . S
C300 C301 1.391 . S
C300 C304 1.391 . S
C300 H342 0.948 . S
C301 C300 1.391 . S
C301 C302 1.391 . S
C302 C301 1.391 . S
C302 H358 0.947 . S
C302 C359 1.392 . S
C303 C304 1.391 . S
C303 C307 1.397 . S
C303 C359 1.419 . S
C304 C300 1.391 . S
C304 C303 1.391 . S
C304 C305 1.399 . S
C305 C304 1.399 . S
C305 C308 1.396 1_565 S
C305 C317 1.453 1_565 S
C305 C318 1.684 . S
H306 C330 0.948 . S
C307 C303 1.397 . S
C307 C308 1.394 1_565 S
C307 C326 1.723 . S
C308 C305 1.396 1_545 S
C308 C307 1.394 1_545 S
C308 C338 1.723 . S
H309 C332 0.947 . S
H310 C333 0.948 . S
H311 C339 0.982 . S
H312 C340 0.979 . S
H313 C340 0.980 . S
H314 C340 0.983 . S
H315 C339 0.979 . S
H316 C339 0.977 . S
C317 C305 1.453 1_545 S
C317 H346 0.982 . S
C317 H347 0.979 . S
C317 H348 0.977 . S
C318 C305 1.684 . S
C318 H343 0.979 . S
C318 H344 0.980 1_565 S
C318 H345 0.983 . S
C319 C320 1.391 1_565 S
C319 C324 1.391 . S
C319 H349 0.948 . S
C320 C319 1.391 1_545 S
C320 C321 1.391 . S
C321 C320 1.391 . S
C321 C322 1.392 . S
C321 H350 0.947 . S
C322 C321 1.392 . S
C322 C323 1.419 . S
C322 H351 0.948 . S
C323 C322 1.419 . S
C323 C324 1.391 1_545 S
C323 C327 1.397 . S
C324 C319 1.391 . S
C324 C323 1.391 1_565 S
C324 C325 1.399 . S
C325 C324 1.399 . S
C325 C326 1.396 . S
C325 C328 1.453 . S
C325 C329 1.684 . S
C326 C307 1.723 . S
C326 C325 1.396 . S
C326 C327 1.394 1_565 S
C327 C323 1.397 . S
C327 C326 1.394 1_545 S
C327 C337 1.723 . S
C328 C325 1.453 . S
C328 H352 0.982 . S
C328 H353 0.979 . S
C328 H354 0.977 . S
C329 C325 1.684 . S
C329 H355 0.979 . S
C329 H356 0.980 . S
C329 H357 0.983 . S
C330 H306 0.948 . S
C330 C331 1.391 . S
C330 C335 1.391 . S
C331 C330 1.391 . S
C331 C332 1.391 . S
C332 H309 0.947 . S
C332 C331 1.391 . S
C332 C333 1.392 . S
C333 H310 0.948 . S
C333 C332 1.392 . S
C333 C334 1.419 . S
C334 C333 1.419 . S
C334 C335 1.391 . S
C334 C338 1.397 . S
C335 C330 1.391 . S
C335 C334 1.391 . S
C335 C336 1.399 . S
C336 C335 1.399 . S
C336 C337 1.396 . S
C336 C339 1.453 . S
C336 C340 1.684 . S
C337 C327 1.723 . S
C337 C336 1.396 . S
C337 C338 1.394 . S
C338 C308 1.723 . S
C338 C334 1.397 . S
C338 C337 1.394 . S
C339 H311 0.982 . S
C339 H315 0.979 . S
C339 H316 0.977 . S
C339 C336 1.453 . S
C340 H312 0.979 . S
C340 H313 0.980 . S
C340 H314 0.983 . S
C340 C336 1.684 . S
H341 C359 0.948 . S
H342 C300 0.948 . S
H343 C318 0.979 . S
H344 C318 0.980 1_545 S
H345 C318 0.983 . S
H346 C317 0.982 . S
H347 C317 0.979 . S
H348 C317 0.977 . S
H349 C319 0.948 . S
H350 C321 0.947 . S
H351 C322 0.948 . S
H352 C328 0.982 . S
H353 C328 0.979 . S
H354 C328 0.977 . S
H355 C329 0.979 . S
H356 C329 0.980 . S
H357 C329 0.983 . S
H358 C302 0.947 . S
C359 C302 1.392 . S
C359 C303 1.419 . S
C359 H341 0.948 . S
C360 C361 1.391 . S
C360 C364 1.391 . S
C360 H402 0.948 . S
C361 C360 1.391 . S
C361 C362 1.391 . S
C362 C361 1.391 . S
C362 H418 0.947 . S
C362 C419 1.392 . S
C363 C364 1.391 . S
C363 C367 1.397 . S
C363 C419 1.419 . S
C364 C360 1.391 . S
C364 C363 1.391 . S
C364 C365 1.399 . S
C365 C364 1.399 . S
C365 C368 1.396 . S
C365 C377 1.453 . S
C365 C378 1.684 . S
H366 C390 0.948 . S
C367 C363 1.397 . S
C367 C368 1.394 . S
C367 C386 1.723 . S
C368 C365 1.396 . S
C368 C367 1.394 . S
C368 C398 1.723 . S
H369 C392 0.947 . S
H370 C393 0.948 . S
H371 C399 0.982 . S
H372 C400 0.979 . S
H373 C400 0.980 . S
H374 C400 0.983 . S
H375 C399 0.979 . S
H376 C399 0.977 . S
C377 C365 1.453 . S
C377 H406 0.982 . S
C377 H407 0.979 . S
C377 H408 0.977 . S
C378 C365 1.684 . S
C378 H403 0.979 . S
C378 H404 0.980 . S
C378 H405 0.983 . S
C379 C380 1.391 . S
C379 C384 1.391 . S
C379 H409 0.948 . S
C380 C379 1.391 . S
C380 C381 1.391 . S
C381 C380 1.391 . S
C381 C382 1.392 . S
C381 H410 0.947 . S
C382 C381 1.392 . S
C382 C383 1.419 . S
C382 H411 0.948 . S
C383 C382 1.419 . S
C383 C384 1.391 . S
C383 C387 1.397 . S
C384 C379 1.391 . S
C384 C383 1.391 . S
C384 C385 1.399 . S
C385 C384 1.399 . S
C385 C386 1.396 . S
C385 C388 1.453 . S
C385 C389 1.684 . S
C386 C367 1.723 . S
C386 C385 1.396 . S
C386 C387 1.394 . S
C387 C383 1.397 . S
C387 C386 1.394 . S
C387 C397 1.723 . S
C388 C385 1.453 . S
C388 H412 0.982 . S
C388 H413 0.979 . S
C388 H414 0.977 . S
C389 C385 1.684 . S
C389 H415 0.979 . S
C389 H416 0.980 . S
C389 H417 0.983 . S
C390 H366 0.948 . S
C390 C391 1.391 . S
C390 C395 1.391 . S
C391 C390 1.391 . S
C391 C392 1.391 . S
C392 H369 0.947 . S
C392 C391 1.391 . S
C392 C393 1.392 . S
C393 H370 0.948 . S
C393 C392 1.392 . S
C393 C394 1.419 . S
C394 C393 1.419 . S
C394 C395 1.391 . S
C394 C398 1.397 . S
C395 C390 1.391 . S
C395 C394 1.391 . S
C395 C396 1.399 . S
C396 C395 1.399 . S
C396 C397 1.396 . S
C396 C399 1.453 . S
C396 C400 1.684 . S
C397 C387 1.723 . S
C397 C396 1.396 . S
C397 C398 1.394 . S
C398 C368 1.723 . S
C398 C394 1.397 . S
C398 C397 1.394 . S
C399 H371 0.982 . S
C399 H375 0.979 . S
C399 H376 0.977 . S
C399 C396 1.453 . S
C400 H372 0.979 . S
C400 H373 0.980 . S
C400 H374 0.983 . S
C400 C396 1.684 . S
H401 C419 0.948 . S
H402 C360 0.948 . S
H403 C378 0.979 . S
H404 C378 0.980 . S
H405 C378 0.983 . S
H406 C377 0.982 . S
H407 C377 0.979 . S
H408 C377 0.977 . S
H409 C379 0.948 . S
H410 C381 0.947 . S
H411 C382 0.948 . S
H412 C388 0.982 . S
H413 C388 0.979 . S
H414 C388 0.977 . S
H415 C389 0.979 . S
H416 C389 0.980 . S
H417 C389 0.983 . S
H418 C362 0.947 . S
C419 C362 1.392 . S
C419 C363 1.419 . S
C419 H401 0.948 . S
H420 C428 0.950 . S
H421 C433 0.950 . S
H422 C430 0.950 . S
H423 C432 0.950 . S
H424 C434 0.950 . S
H425 C436 0.950 . S
H426 C438 0.950 . S
H427 C439 0.950 . S
C428 H420 0.950 . S
C428 C429 1.386 . S
C428 C430 1.391 . S
C429 C428 1.386 . S
C429 C433 1.393 . S
C430 H422 0.950 . S
C430 C428 1.391 . S
C430 C431 1.400 . S
C431 C430 1.400 . S
C431 C432 1.398 . S
C431 C437 1.491 . S
C432 H423 0.950 . S
C432 C431 1.398 . S
C432 C433 1.391 . S
C433 H421 0.950 . S
C433 C429 1.393 . S
C433 C432 1.391 . S
C434 H424 0.950 . S
C434 C435 1.386 . S
C434 C436 1.391 . S
C435 C434 1.386 . S
C435 C439 1.393 . S
C436 H425 0.950 . S
C436 C434 1.391 . S
C436 C437 1.400 . S
C437 C431 1.491 . S
C437 C436 1.400 . S
C437 C438 1.398 . S
C438 H426 0.950 . S
C438 C437 1.398 . S
C438 C439 1.391 . S
C439 H427 0.950 . S
C439 C435 1.393 . S
C439 C438 1.391 . S
H440 C448 0.950 . S
H441 C453 0.950 . S
H442 C450 0.950 . S
H443 C452 0.950 . S
H444 C454 0.950 . S
H445 C456 0.950 . S
H446 C458 0.950 . S
H447 C459 0.950 . S
C448 H440 0.950 . S
C448 C449 1.386 . S
C448 C450 1.391 . S
C449 C448 1.386 . S
C449 C453 1.393 . S
C450 H442 0.950 . S
C450 C448 1.391 . S
C450 C451 1.400 . S
C451 C450 1.400 . S
C451 C452 1.398 . S
C451 C457 1.491 . S
C452 H443 0.950 . S
C452 C451 1.398 . S
C452 C453 1.391 . S
C453 H441 0.950 . S
C453 C449 1.393 . S
C453 C452 1.391 . S
C454 H444 0.950 . S
C454 C455 1.386 . S
C454 C456 1.391 . S
C455 C454 1.386 . S
C455 C459 1.393 . S
C456 H445 0.950 . S
C456 C454 1.391 . S
C456 C457 1.400 . S
C457 C451 1.491 . S
C457 C456 1.400 . S
C457 C458 1.398 . S
C458 H446 0.950 . S
C458 C457 1.398 . S
C458 C459 1.391 . S
C459 H447 0.950 . S
C459 C455 1.393 . S
C459 C458 1.391 . S
H460 C468 0.950 . S
H461 C473 0.950 . S
H462 C470 0.950 . S
H463 C472 0.950 . S
H464 C474 0.950 . S
H465 C476 0.950 . S
H466 C478 0.950 . S
H467 C479 0.950 . S
C468 H460 0.950 . S
C468 C469 1.386 . S
C468 C470 1.391 . S
C469 C468 1.386 . S
C469 C473 1.393 . S
C470 H462 0.950 . S
C470 C468 1.391 . S
C470 C471 1.400 . S
C471 C470 1.400 . S
C471 C472 1.398 . S
C471 C477 1.491 . S
C472 H463 0.950 . S
C472 C471 1.398 . S
C472 C473 1.391 . S
C473 H461 0.950 . S
C473 C469 1.393 . S
C473 C472 1.391 . S
C474 H464 0.950 . S
C474 C475 1.386 . S
C474 C476 1.391 . S
C475 C474 1.386 . S
C475 C479 1.393 . S
C476 H465 0.950 . S
C476 C474 1.391 . S
C476 C477 1.400 . S
C477 C471 1.491 . S
C477 C476 1.400 . S
C477 C478 1.398 . S
C478 H466 0.950 . S
C478 C477 1.398 . S
C478 C479 1.391 . S
C479 H467 0.950 . S
C479 C475 1.393 . S
C479 C478 1.391 . S
H480 C488 0.950 . S
H481 C493 0.950 . S
H482 C490 0.950 . S
H483 C492 0.950 . S
H484 C494 0.950 . S
H485 C496 0.950 . S
H486 C498 0.950 . S
H487 C499 0.950 . S
C488 H480 0.950 . S
C488 C489 1.386 . S
C488 C490 1.391 . S
C489 C488 1.386 . S
C489 C493 1.393 . S
C490 H482 0.950 . S
C490 C488 1.391 . S
C490 C491 1.400 . S
C491 C490 1.400 . S
C491 C492 1.398 . S
C491 C497 1.491 . S
C492 H483 0.950 . S
C492 C491 1.398 . S
C492 C493 1.391 . S
C493 H481 0.950 . S
C493 C489 1.393 . S
C493 C492 1.391 . S
C494 H484 0.950 . S
C494 C495 1.386 . S
C494 C496 1.391 . S
C495 C494 1.386 . S
C495 C499 1.393 . S
C496 H485 0.950 . S
C496 C494 1.391 . S
C496 C497 1.400 . S
C497 C491 1.491 . S
C497 C496 1.400 . S
C497 C498 1.398 . S
C498 H486 0.950 . S
C498 C497 1.398 . S
C498 C499 1.391 . S
C499 H487 0.950 . S
C499 C495 1.393 . S
C499 C498 1.391 . S
H500 C508 0.950 . S
H501 C513 0.950 . S
H502 C510 0.950 . S
H503 C512 0.950 . S
H504 C514 0.950 . S
H505 C516 0.950 . S
H506 C518 0.950 . S
H507 C519 0.950 . S
C508 H500 0.950 . S
C508 C509 1.386 . S
C508 C510 1.391 . S
C509 C508 1.386 . S
C509 C513 1.393 . S
C510 H502 0.950 . S
C510 C508 1.391 . S
C510 C511 1.400 . S
C511 C510 1.400 . S
C511 C512 1.398 . S
C511 C517 1.491 . S
C512 H503 0.950 . S
C512 C511 1.398 . S
C512 C513 1.391 . S
C513 H501 0.950 . S
C513 C509 1.393 . S
C513 C512 1.391 . S
C514 H504 0.950 . S
C514 C515 1.386 . S
C514 C516 1.391 . S
C515 C514 1.386 . S
C515 C519 1.393 . S
C516 H505 0.950 . S
C516 C514 1.391 . S
C516 C517 1.400 . S
C517 C511 1.491 . S
C517 C516 1.400 . S
C517 C518 1.398 . S
C518 H506 0.950 . S
C518 C517 1.398 . S
C518 C519 1.391 . S
C519 H507 0.950 . S
C519 C515 1.393 . S
C519 C518 1.391 . S
H520 C528 0.950 . S
H521 C533 0.950 . S
H522 C530 0.950 . S
H523 C532 0.950 . S
H524 C534 0.950 . S
H525 C536 0.950 . S
H526 C538 0.950 . S
H527 C539 0.950 . S
C528 H520 0.950 . S
C528 C529 1.386 . S
C528 C530 1.391 . S
C529 C528 1.386 . S
C529 C533 1.393 . S
C530 H522 0.950 . S
C530 C528 1.391 . S
C530 C531 1.400 . S
C531 C530 1.400 . S
C531 C532 1.398 . S
C531 C537 1.491 . S
C532 H523 0.950 . S
C532 C531 1.398 . S
C532 C533 1.391 . S
C533 H521 0.950 . S
C533 C529 1.393 . S
C533 C532 1.391 . S
C534 H524 0.950 . S
C534 C535 1.386 . S
C534 C536 1.391 . S
C535 C534 1.386 . S
C535 C539 1.393 . S
C536 H525 0.950 . S
C536 C534 1.391 . S
C536 C537 1.400 . S
C537 C531 1.491 . S
C537 C536 1.400 . S
C537 C538 1.398 . S
C538 H526 0.950 . S
C538 C537 1.398 . S
C538 C539 1.391 . S
C539 H527 0.950 . S
C539 C535 1.393 . S
C539 C538 1.391 . S
H540 C548 0.950 . S
H541 C553 0.950 . S
H542 C550 0.950 . S
H543 C552 0.950 . S
H544 C554 0.950 . S
H545 C556 0.950 . S
H546 C558 0.950 . S
H547 C559 0.950 . S
C548 H540 0.950 . S
C548 C549 1.386 . S
C548 C550 1.391 . S
C549 C548 1.386 . S
C549 C553 1.393 . S
C550 H542 0.950 . S
C550 C548 1.391 . S
C550 C551 1.400 . S
C551 C550 1.400 . S
C551 C552 1.398 . S
C551 C557 1.491 . S
C552 H543 0.950 . S
C552 C551 1.398 . S
C552 C553 1.391 . S
C553 H541 0.950 . S
C553 C549 1.393 . S
C553 C552 1.391 . S
C554 H544 0.950 . S
C554 C555 1.386 . S
C554 C556 1.391 . S
C555 C554 1.386 . S
C555 C559 1.393 . S
C556 H545 0.950 . S
C556 C554 1.391 . S
C556 C557 1.400 . S
C557 C551 1.491 . S
C557 C556 1.400 . S
C557 C558 1.398 . S
C558 H546 0.950 . S
C558 C557 1.398 . S
C558 C559 1.391 . S
C559 H547 0.950 . S
C559 C555 1.393 . S
C559 C558 1.391 . S
H560 C568 0.950 . S
H561 C573 0.950 . S
H562 C570 0.950 . S
H563 C572 0.950 . S
H564 C574 0.950 . S
H565 C576 0.950 . S
H566 C578 0.950 . S
H567 C579 0.950 . S
C568 H560 0.950 . S
C568 C569 1.386 . S
C568 C570 1.391 . S
C569 C568 1.386 . S
C569 C573 1.393 . S
C570 H562 0.950 . S
C570 C568 1.391 . S
C570 C571 1.400 . S
C571 C570 1.400 . S
C571 C572 1.398 . S
C571 C577 1.491 . S
C572 H563 0.950 . S
C572 C571 1.398 . S
C572 C573 1.391 . S
C573 H561 0.950 . S
C573 C569 1.393 . S
C573 C572 1.391 . S
C574 H564 0.950 . S
C574 C575 1.386 . S
C574 C576 1.391 . S
C575 C574 1.386 . S
C575 C579 1.393 . S
C576 H565 0.950 . S
C576 C574 1.391 . S
C576 C577 1.400 . S
C577 C571 1.491 . S
C577 C576 1.400 . S
C577 C578 1.398 . S
C578 H566 0.950 . S
C578 C577 1.398 . S
C578 C579 1.391 . S
C579 H567 0.950 . S
C579 C575 1.393 . S
C579 C578 1.391 . S
H580 C588 0.950 . S
H581 C593 0.950 . S
H582 C590 0.950 . S
H583 C592 0.950 . S
H584 C594 0.950 . S
H585 C596 0.950 . S
H586 C598 0.950 . S
H587 C599 0.950 . S
C588 H580 0.950 . S
C588 C589 1.386 . S
C588 C590 1.391 . S
C589 C588 1.386 . S
C589 C593 1.393 . S
C590 H582 0.950 . S
C590 C588 1.391 . S
C590 C591 1.400 . S
C591 C590 1.400 . S
C591 C592 1.398 . S
C591 C597 1.491 . S
C592 H583 0.950 . S
C592 C591 1.398 . S
C592 C593 1.391 . S
C593 H581 0.950 . S
C593 C589 1.393 . S
C593 C592 1.391 . S
C594 H584 0.950 . S
C594 C595 1.386 . S
C594 C596 1.391 . S
C595 C594 1.386 . S
C595 C599 1.393 . S
C596 H585 0.950 . S
C596 C594 1.391 . S
C596 C597 1.400 . S
C597 C591 1.491 . S
C597 C596 1.400 . S
C597 C598 1.398 . S
C598 H586 0.950 . S
C598 C597 1.398 . S
C598 C599 1.391 . S
C599 H587 0.950 . S
C599 C595 1.393 . S
C599 C598 1.391 . S
H600 C608 0.950 . S
H601 C613 0.950 . S
H602 C610 0.950 . S
H603 C612 0.950 . S
H604 C614 0.950 . S
H605 C616 0.950 . S
H606 C618 0.950 . S
H607 C619 0.950 . S
C608 H600 0.950 . S
C608 C609 1.386 . S
C608 C610 1.391 . S
C609 C608 1.386 . S
C609 C613 1.393 . S
C610 H602 0.950 . S
C610 C608 1.391 . S
C610 C611 1.400 . S
C611 C610 1.400 . S
C611 C612 1.398 . S
C611 C617 1.491 . S
C612 H603 0.950 . S
C612 C611 1.398 . S
C612 C613 1.391 . S
C613 H601 0.950 . S
C613 C609 1.393 . S
C613 C612 1.391 . S
C614 H604 0.950 . S
C614 C615 1.386 . S
C614 C616 1.391 . S
C615 C614 1.386 . S
C615 C619 1.393 . S
C616 H605 0.950 . S
C616 C614 1.391 . S
C616 C617 1.400 . S
C617 C611 1.491 . S
C617 C616 1.400 . S
C617 C618 1.398 . S
C618 H606 0.950 . S
C618 C617 1.398 . S
C618 C619 1.391 . S
C619 H607 0.950 . S
C619 C615 1.393 . S
C619 C618 1.391 . S
H620 C628 0.950 . S
H621 C633 0.950 . S
H622 C630 0.950 . S
H623 C632 0.950 . S
H624 C634 0.950 . S
H625 C636 0.950 . S
H626 C638 0.950 . S
H627 C639 0.950 . S
C628 H620 0.950 . S
C628 C629 1.386 . S
C628 C630 1.391 . S
C629 C628 1.386 . S
C629 C633 1.393 . S
C630 H622 0.950 . S
C630 C628 1.391 . S
C630 C631 1.400 . S
C631 C630 1.400 . S
C631 C632 1.398 . S
C631 C637 1.491 . S
C632 H623 0.950 . S
C632 C631 1.398 . S
C632 C633 1.391 . S
C633 H621 0.950 . S
C633 C629 1.393 . S
C633 C632 1.391 . S
C634 H624 0.950 . S
C634 C635 1.386 . S
C634 C636 1.391 . S
C635 C634 1.386 . S
C635 C639 1.393 . S
C636 H625 0.950 . S
C636 C634 1.391 . S
C636 C637 1.400 . S
C637 C631 1.491 . S
C637 C636 1.400 . S
C637 C638 1.398 . S
C638 H626 0.950 . S
C638 C637 1.398 . S
C638 C639 1.391 . S
C639 H627 0.950 . S
C639 C635 1.393 . S
C639 C638 1.391 . S
H640 C648 0.950 . S
H641 C653 0.950 . S
H642 C650 0.950 . S
H643 C652 0.950 . S
H644 C654 0.950 . S
H645 C656 0.950 . S
H646 C658 0.950 . S
H647 C659 0.950 . S
C648 H640 0.950 . S
C648 C649 1.386 . S
C648 C650 1.391 . S
C649 C648 1.386 . S
C649 C653 1.393 . S
C650 H642 0.950 . S
C650 C648 1.391 . S
C650 C651 1.400 . S
C651 C650 1.400 . S
C651 C652 1.398 . S
C651 C657 1.491 . S
C652 H643 0.950 . S
C652 C651 1.398 . S
C652 C653 1.391 . S
C653 H641 0.950 . S
C653 C649 1.393 . S
C653 C652 1.391 . S
C654 H644 0.950 . S
C654 C655 1.386 . S
C654 C656 1.391 . S
C655 C654 1.386 . S
C655 C659 1.393 . S
C656 H645 0.950 . S
C656 C654 1.391 . S
C656 C657 1.400 . S
C657 C651 1.491 . S
C657 C656 1.400 . S
C657 C658 1.398 . S
C658 H646 0.950 . S
C658 C657 1.398 . S
C658 C659 1.391 . S
C659 H647 0.950 . S
C659 C655 1.393 . S
C659 C658 1.391 . S
H660 C668 0.950 . S
H661 C673 0.950 . S
H662 C670 0.950 . S
H663 C672 0.950 . S
H664 C674 0.950 1_556 S
H665 C676 0.950 . S
H666 C678 0.950 . S
H667 C679 0.950 . S
C668 H660 0.950 . S
C668 C669 1.386 . S
C668 C670 1.391 . S
C669 C668 1.386 . S
C669 C673 1.393 . S
C670 H662 0.950 . S
C670 C668 1.391 . S
C670 C671 1.400 . S
C671 C670 1.400 . S
C671 C672 1.398 . S
C671 C677 1.491 . S
C672 H663 0.950 . S
C672 C671 1.398 . S
C672 C673 1.391 . S
C673 H661 0.950 . S
C673 C669 1.393 . S
C673 C672 1.391 . S
C674 H664 0.950 1_554 S
C674 C675 1.386 1_554 S
C674 C676 1.391 . S
C675 C674 1.386 1_556 S
C675 C679 1.393 1_556 S
C676 H665 0.950 . S
C676 C674 1.391 . S
C676 C677 1.400 . S
C677 C671 1.491 . S
C677 C676 1.400 . S
C677 C678 1.398 . S
C678 H666 0.950 . S
C678 C677 1.398 . S
C678 C679 1.391 . S
C679 H667 0.950 . S
C679 C675 1.393 1_554 S
C679 C678 1.391 . S
H680 C688 0.950 . S
H681 C693 0.950 . S
H682 C690 0.950 . S
H683 C692 0.950 . S
H684 C694 0.950 . S
H685 C696 0.950 . S
H686 C698 0.950 . S
H687 C699 0.950 . S
C688 H680 0.950 . S
C688 C689 1.386 . S
C688 C690 1.391 . S
C689 C688 1.386 . S
C689 C693 1.393 . S
C690 H682 0.950 . S
C690 C688 1.391 . S
C690 C691 1.400 . S
C691 C690 1.400 . S
C691 C692 1.398 . S
C691 C697 1.491 . S
C692 H683 0.950 . S
C692 C691 1.398 . S
C692 C693 1.391 . S
C693 H681 0.950 . S
C693 C689 1.393 . S
C693 C692 1.391 . S
C694 H684 0.950 . S
C694 C695 1.386 . S
C694 C696 1.391 . S
C695 C694 1.386 . S
C695 C699 1.393 . S
C696 H685 0.950 . S
C696 C694 1.391 . S
C696 C697 1.400 . S
C697 C691 1.491 . S
C697 C696 1.400 . S
C697 C698 1.398 . S
C698 H686 0.950 . S
C698 C697 1.398 . S
C698 C699 1.391 . S
C699 H687 0.950 . S
C699 C695 1.393 . S
C699 C698 1.391 . S
H700 C708 0.950 . S
H701 C713 0.950 . S
H702 C710 0.950 . S
H703 C712 0.950 . S
H704 C714 0.950 . S
H705 C716 0.950 . S
H706 C718 0.950 . S
H707 C719 0.950 . S
C708 H700 0.950 . S
C708 C709 1.386 . S
C708 C710 1.391 . S
C709 C708 1.386 . S
C709 C713 1.393 . S
C710 H702 0.950 . S
C710 C708 1.391 . S
C710 C711 1.400 . S
C711 C710 1.400 . S
C711 C712 1.398 . S
C711 C717 1.491 . S
C712 H703 0.950 . S
C712 C711 1.398 . S
C712 C713 1.391 . S
C713 H701 0.950 . S
C713 C709 1.393 . S
C713 C712 1.391 . S
C714 H704 0.950 . S
C714 C715 1.386 . S
C714 C716 1.391 . S
C715 C714 1.386 . S
C715 C719 1.393 . S
C716 H705 0.950 . S
C716 C714 1.391 . S
C716 C717 1.400 . S
C717 C711 1.491 . S
C717 C716 1.400 . S
C717 C718 1.398 . S
C718 H706 0.950 . S
C718 C717 1.398 . S
C718 C719 1.391 . S
C719 H707 0.950 . S
C719 C715 1.393 . S
C719 C718 1.391 . S
H720 C728 0.950 1_565 S
H721 C733 0.950 . S
H722 C730 0.955 . S
H723 C732 0.950 . S
H724 C734 0.950 . S
H725 C736 0.950 . S
H726 C738 0.950 . S
H727 C739 0.950 . S
C728 H720 0.950 1_545 S
C728 C729 1.386 . S
C728 C730 1.387 1_545 S
C729 C728 1.386 . S
C729 C733 1.393 . S
C730 H722 0.955 . S
C730 C728 1.387 1_565 S
C730 C731 1.401 1_565 S
C731 C730 1.401 1_545 S
C731 C732 1.398 . S
C731 C737 1.491 . S
C732 H723 0.950 . S
C732 C731 1.398 . S
C732 C733 1.391 . S
C733 H721 0.950 . S
C733 C729 1.393 . S
C733 C732 1.391 . S
C734 H724 0.950 . S
C734 C735 1.386 . S
C734 C736 1.391 . S
C735 C734 1.386 . S
C735 C739 1.393 1_545 S
C736 H725 0.950 . S
C736 C734 1.391 . S
C736 C737 1.400 . S
C737 C731 1.491 . S
C737 C736 1.400 . S
C737 C738 1.398 1_545 S
C738 H726 0.950 . S
C738 C737 1.398 1_565 S
C738 C739 1.391 . S
C739 H727 0.950 . S
C739 C735 1.393 1_565 S
C739 C738 1.391 . S
H740 C748 0.950 . S
H741 C753 0.950 . S
H742 C750 0.950 . S
H743 C752 0.950 . S
H744 C754 0.978 . S
H745 C756 0.950 . S
H746 C758 0.950 . S
H747 C759 0.950 . S
C748 H740 0.950 . S
C748 C749 1.386 . S
C748 C750 1.391 . S
C749 C748 1.386 . S
C749 C753 1.393 . S
C750 H742 0.950 . S
C750 C748 1.391 . S
C750 C751 1.400 . S
C751 C750 1.400 . S
C751 C752 1.398 . S
C751 C757 1.491 . S
C752 H743 0.950 . S
C752 C751 1.398 . S
C752 C753 1.391 . S
C753 H741 0.950 . S
C753 C749 1.393 . S
C753 C752 1.391 . S
C754 H744 0.978 . S
C754 C755 1.368 1_556 S
C754 C756 1.391 . S
C755 C754 1.368 1_554 S
C755 C759 1.373 1_554 S
C756 H745 0.950 . S
C756 C754 1.391 . S
C756 C757 1.400 . S
C757 C751 1.491 . S
C757 C756 1.400 . S
C757 C758 1.398 . S
C758 H746 0.950 . S
C758 C757 1.398 . S
C758 C759 1.391 . S
C759 H747 0.950 . S
C759 C755 1.373 1_556 S
C759 C758 1.391 . S
H760 C768 0.950 . S
H761 C773 0.950 . S
H762 C770 0.950 . S
H763 C772 0.950 . S
H764 C774 0.950 . S
H765 C776 0.950 . S
H766 C778 0.950 . S
H767 C779 0.950 . S
C768 H760 0.950 . S
C768 C769 1.386 . S
C768 C770 1.391 . S
C769 C768 1.386 . S
C769 C773 1.393 1_455 S
C770 H762 0.950 . S
C770 C768 1.391 . S
C770 C771 1.400 . S
C771 C770 1.400 . S
C771 C772 1.398 1_455 S
C771 C777 1.491 . S
C772 H763 0.950 . S
C772 C771 1.398 1_655 S
C772 C773 1.391 . S
C773 H761 0.950 . S
C773 C769 1.393 1_655 S
C773 C772 1.391 . S
C774 H764 0.950 . S
C774 C775 1.386 1_655 S
C774 C776 1.391 . S
C775 C774 1.386 1_455 S
C775 C779 1.393 . S
C776 H765 0.950 . S
C776 C774 1.391 . S
C776 C777 1.400 1_655 S
C777 C771 1.491 . S
C777 C776 1.400 1_455 S
C777 C778 1.398 . S
C778 H766 0.950 . S
C778 C777 1.398 . S
C778 C779 1.391 . S
C779 H767 0.950 . S
C779 C775 1.393 . S
C779 C778 1.391 . S
C429 C8 2.017 . S
C435 C391 2.116 . S
C449 C26 1.329 . S
C455 C241 1.284 . S
C469 C48 1.512 . S
C475 C301 1.467 . S
C489 C19 1.837 . S
C495 C361 1.760 . S
C515 C271 1.560 . S
C509 C36 1.523 . S
C535 C331 1.820 . S
C529 C59 1.715 . S
C549 C28 1.508 . S
C555 C121 1.473 . S
C569 C46 1.225 . S
C575 C211 1.267 . S
C589 C16 1.597 . S
C595 C91 1.644 . S
C615 C151 1.764 . S
C609 C39 1.699 . S
C635 C181 0.976 . S
C629 C56 1.039 . S
C649 C6 1.383 . S
C655 C61 1.338 . S
C675 C200 1.416 . S
C669 C9 1.406 . S
C689 C21 1.494 . S
C695 C80 1.492 . S
C709 C49 1.468 . S
C715 C140 1.466 . S
C735 C320 1.423 . S
C729 C29 1.470 . S
C755 C380 1.607 . S
C749 C41 1.570 . S
C769 C1 1.505 . S
C775 C260 1.484 . S
