# Generated by pormake.
# Topology cml, (3,6)-cn, num edge types: 1
# Building blocks:
#     Node 0, Type 0, BuildingBlock: VETTIZ_charged_linker_0, # of connection points: 3
#     Node 1, Type 0, BuildingBlock: VETTIZ_charged_linker_0, # of connection points: 3
#     Node 2, Type 0, BuildingBlock: VETTIZ_charged_linker_0, # of connection points: 3
#     Node 3, Type 0, BuildingBlock: VETTIZ_charged_linker_0, # of connection points: 3
#     Node 4, Type 0, BuildingBlock: VETTIZ_charged_linker_0, # of connection points: 3
#     Node 5, Type 0, BuildingBlock: VETTIZ_charged_linker_0, # of connection points: 3
#     Node 6, Type 0, BuildingBlock: VETTIZ_charged_linker_0, # of connection points: 3
#     Node 7, Type 0, BuildingBlock: VETTIZ_charged_linker_0, # of connection points: 3
#     Node 8, Type 1, BuildingBlock: OJICUG_clean_sbu_0, # of connection points: 6
#     Node 9, Type 1, BuildingBlock: OJICUG_clean_sbu_0, # of connection points: 6
#     Node 10, Type 1, BuildingBlock: OJICUG_clean_sbu_0, # of connection points: 6
#     Node 11, Type 1, BuildingBlock: OJICUG_clean_sbu_0, # of connection points: 6
#     Edge 12, Type (0, 1), BuildingBlock: XIVTED_clean_linker_0, # of connection points: 2
#     Edge 13, Type (0, 1), BuildingBlock: XIVTED_clean_linker_0, # of connection points: 2
#     Edge 14, Type (0, 1), BuildingBlock: XIVTED_clean_linker_0, # of connection points: 2
#     Edge 15, Type (0, 1), BuildingBlock: XIVTED_clean_linker_0, # of connection points: 2
#     Edge 16, Type (0, 1), BuildingBlock: XIVTED_clean_linker_0, # of connection points: 2
#     Edge 17, Type (0, 1), BuildingBlock: XIVTED_clean_linker_0, # of connection points: 2
#     Edge 18, Type (0, 1), BuildingBlock: XIVTED_clean_linker_0, # of connection points: 2
#     Edge 19, Type (0, 1), BuildingBlock: XIVTED_clean_linker_0, # of connection points: 2
#     Edge 20, Type (0, 1), BuildingBlock: XIVTED_clean_linker_0, # of connection points: 2
#     Edge 21, Type (0, 1), BuildingBlock: XIVTED_clean_linker_0, # of connection points: 2
#     Edge 22, Type (0, 1), BuildingBlock: XIVTED_clean_linker_0, # of connection points: 2
#     Edge 23, Type (0, 1), BuildingBlock: XIVTED_clean_linker_0, # of connection points: 2
#     Edge 24, Type (0, 1), BuildingBlock: XIVTED_clean_linker_0, # of connection points: 2
#     Edge 25, Type (0, 1), BuildingBlock: XIVTED_clean_linker_0, # of connection points: 2
#     Edge 26, Type (0, 1), BuildingBlock: XIVTED_clean_linker_0, # of connection points: 2
#     Edge 27, Type (0, 1), BuildingBlock: XIVTED_clean_linker_0, # of connection points: 2
#     Edge 28, Type (0, 1), BuildingBlock: XIVTED_clean_linker_0, # of connection points: 2
#     Edge 29, Type (0, 1), BuildingBlock: XIVTED_clean_linker_0, # of connection points: 2
#     Edge 30, Type (0, 1), BuildingBlock: XIVTED_clean_linker_0, # of connection points: 2
#     Edge 31, Type (0, 1), BuildingBlock: XIVTED_clean_linker_0, # of connection points: 2
#     Edge 32, Type (0, 1), BuildingBlock: XIVTED_clean_linker_0, # of connection points: 2
#     Edge 33, Type (0, 1), BuildingBlock: XIVTED_clean_linker_0, # of connection points: 2
#     Edge 34, Type (0, 1), BuildingBlock: XIVTED_clean_linker_0, # of connection points: 2
#     Edge 35, Type (0, 1), BuildingBlock: XIVTED_clean_linker_0, # of connection points: 2
# Relax obj value: 0.076
# Max RMSD: 0.088
# Mean RMSD: 0.083
data_MOF--net-cml--node1-OJICUG_clean_sbu_0--node2-VETTIZ_charged_linker_0--edge1-XIVTED_clean_linker_0
_symmetry_space_group_name_H-M    P1
_symmetry_Int_Tables_number       1
_symmetry_cell_setting            triclinic
loop_
_symmetry_equiv_pos_as_xyz
'x, y, z'
_cell_length_a     47.263653
_cell_length_b     47.926498
_cell_length_c     45.150298
_cell_angle_alpha  90.015898
_cell_angle_beta   89.901519
_cell_angle_gamma 89.809695
loop_
_atom_site_label
_atom_site_type_symbol
_atom_site_fract_x
_atom_site_fract_y
_atom_site_fract_z
_atom_type_partial_charge
C0 C 0.2985 0.36295 0.09558 0.0
C1 C 0.31987 0.37807 0.11003 0.0
C2 C 0.3282 0.40412 0.09856 0.0
C3 C 0.29517 0.39919 0.05812 0.0
C4 C 0.28625 0.37405 0.06983 0.0
C5 C 0.26282 0.36129 0.0518 0.0
H6 H 0.18411 0.36355 0.92667 0.0
C7 C 0.27938 0.40432 0.03053 0.0
C8 C 0.26016 0.38237 0.02676 0.0
H9 H 0.17808 0.30581 0.00011 0.0
H10 H 0.2148 0.33074 0.02587 0.0
H11 H 0.18685 0.41865 0.96802 0.0
H12 H 0.24975 0.36791 0.9248 0.0
H13 H 0.26152 0.40246 0.92195 0.0
H14 H 0.22851 0.39265 0.90489 0.0
H15 H 0.19207 0.41863 0.92864 0.0
H16 H 0.21195 0.44141 0.95259 0.0
C17 C 0.23575 0.3602 0.0712 0.0
C18 C 0.27305 0.33248 0.04052 0.0
C19 C 0.30731 0.48538 0.9647 0.0
C20 C 0.29923 0.49345 0.93602 0.0
C21 C 0.27739 0.47888 0.92162 0.0
C22 C 0.26411 0.45625 0.93548 0.0
C23 C 0.27302 0.44793 0.96386 0.0
C24 C 0.29415 0.46258 0.97804 0.0
C25 C 0.30193 0.45001 0.00742 0.0
C26 C 0.28195 0.42534 0.00858 0.0
C27 C 0.26508 0.42431 0.98309 0.0
C28 C 0.29523 0.4717 0.03195 0.0
C29 C 0.33339 0.44075 0.00582 0.0
C30 C 0.19032 0.3564 0.94846 0.0
C31 C 0.17818 0.3325 0.96117 0.0
C32 C 0.18741 0.32381 0.98946 0.0
C33 C 0.20859 0.33844 0.00454 0.0
C34 C 0.22064 0.3621 0.99132 0.0
C35 C 0.21116 0.37091 0.96394 0.0
C36 C 0.22572 0.39691 0.95357 0.0
C37 C 0.2454 0.40238 0.97934 0.0
C38 C 0.24267 0.38173 0.00123 0.0
C39 C 0.20313 0.42022 0.95026 0.0
C40 C 0.24214 0.38991 0.9247 0.0
H41 H 0.32351 0.43453 0.06504 0.0
H42 H 0.29141 0.34308 0.10422 0.0
H43 H 0.29504 0.3339 0.03181 0.0
H44 H 0.26022 0.32433 0.02209 0.0
H45 H 0.27298 0.31687 0.0587 0.0
H46 H 0.23569 0.37701 0.08822 0.0
H47 H 0.23403 0.33995 0.08301 0.0
H48 H 0.21624 0.36386 0.05825 0.0
H49 H 0.32446 0.49582 0.97606 0.0
H50 H 0.27081 0.48483 0.89954 0.0
H51 H 0.2478 0.44581 0.9233 0.0
H52 H 0.27664 0.4848 0.02587 0.0
H53 H 0.31339 0.48592 0.03562 0.0
H54 H 0.28924 0.46191 0.05322 0.0
H55 H 0.33875 0.43273 0.98336 0.0
H56 H 0.33853 0.42335 0.02087 0.0
H57 H 0.34776 0.45847 0.0106 0.0
H58 H 0.34474 0.41606 0.10921 0.0
C59 C 0.31597 0.41475 0.07277 0.0
C60 C 0.80097 0.63533 0.45186 0.0
C61 C 0.81175 0.66049 0.46309 0.0
C62 C 0.80121 0.67081 0.49024 0.0
C63 C 0.77032 0.63089 0.49481 0.0
C64 C 0.78039 0.62093 0.46804 0.0
C65 C 0.76671 0.5939 0.45929 0.0
H66 H 0.66885 0.49501 0.48727 0.0
C67 C 0.74945 0.61076 0.50623 0.0
C68 C 0.74732 0.58897 0.48557 0.0
H69 H 0.72204 0.5034 0.40977 0.0
H70 H 0.74565 0.54271 0.4321 0.0
H71 H 0.71792 0.50567 0.53499 0.0
H72 H 0.65545 0.55896 0.495 0.0
H73 H 0.65594 0.56615 0.53319 0.0
H74 H 0.64713 0.53164 0.52078 0.0
H75 H 0.68211 0.50668 0.54812 0.0
H76 H 0.70868 0.53023 0.56221 0.0
C77 C 0.79005 0.57122 0.457 0.0
C78 C 0.74998 0.59892 0.43024 0.0
C79 C 0.69819 0.62982 0.60341 0.0
C80 C 0.67859 0.61419 0.61988 0.0
C81 C 0.67059 0.58757 0.60969 0.0
C82 C 0.68142 0.57688 0.58317 0.0
C83 C 0.70048 0.59293 0.56655 0.0
C84 C 0.70908 0.61865 0.57702 0.0
C85 C 0.73066 0.63198 0.55703 0.0
C86 C 0.73295 0.61032 0.53254 0.0
C87 C 0.71492 0.58773 0.53809 0.0
C88 C 0.75867 0.63492 0.57455 0.0
C89 C 0.71821 0.6599 0.54558 0.0
C90 C 0.686 0.50491 0.47534 0.0
C91 C 0.69348 0.49617 0.44665 0.0
C92 C 0.71562 0.50998 0.43173 0.0
C93 C 0.72927 0.53281 0.44473 0.0
C94 C 0.72059 0.54209 0.47286 0.0
C95 C 0.69967 0.52785 0.4879 0.0
C96 C 0.69273 0.54094 0.5173 0.0
C97 C 0.71238 0.5659 0.51703 0.0
C98 C 0.7286 0.56647 0.49098 0.0
C99 C 0.70051 0.51987 0.54207 0.0
C100 C 0.66115 0.54982 0.51686 0.0
H101 H 0.77354 0.66509 0.52664 0.0
H102 H 0.80874 0.62671 0.4312 0.0
H103 H 0.74167 0.62065 0.42916 0.0
H104 H 0.731 0.58567 0.42838 0.0
H105 H 0.76362 0.59561 0.41048 0.0
H106 H 0.80604 0.5739 0.47483 0.0
H107 H 0.80128 0.57244 0.43541 0.0
H108 H 0.78183 0.54986 0.45998 0.0
H109 H 0.705 0.65017 0.61097 0.0
H110 H 0.65537 0.57525 0.62194 0.0
H111 H 0.67419 0.55667 0.57643 0.0
H112 H 0.76114 0.61776 0.59096 0.0
H113 H 0.75933 0.65496 0.5869 0.0
H114 H 0.77763 0.63326 0.5603 0.0
H115 H 0.6953 0.65767 0.54051 0.0
H116 H 0.72797 0.66697 0.52468 0.0
H117 H 0.72039 0.67664 0.56244 0.0
H118 H 0.80878 0.69039 0.49915 0.0
C119 C 0.78063 0.65615 0.50614 0.0
C120 C 0.68997 0.4847 0.96253 0.0
C121 C 0.67342 0.50302 0.97987 0.0
C122 C 0.67358 0.49974 0.01095 0.0
C123 C 0.70161 0.4577 0.00623 0.0
C124 C 0.70414 0.46249 0.97621 0.0
C125 C 0.72245 0.44092 0.96124 0.0
H126 H 0.79291 0.31818 0.96933 0.0
C127 C 0.71554 0.43091 0.01297 0.0
C128 C 0.7284 0.42126 0.9869 0.0
H129 H 0.78967 0.37598 0.89578 0.0
H130 H 0.76021 0.40711 0.92446 0.0
H131 H 0.79997 0.36432 0.02219 0.0
H132 H 0.72849 0.32199 0.98442 0.0
H133 H 0.71987 0.32789 0.02169 0.0
H134 H 0.74981 0.30598 0.01251 0.0
H135 H 0.79402 0.3274 0.02499 0.0
H136 H 0.77838 0.35133 0.05102 0.0
C137 C 0.7497 0.45544 0.94991 0.0
C138 C 0.70488 0.4266 0.93666 0.0
C139 C 0.69361 0.3834 0.11037 0.0
C140 C 0.69793 0.35611 0.12075 0.0
C141 C 0.71498 0.33769 0.10412 0.0
C142 C 0.727 0.34626 0.07714 0.0
C143 C 0.72138 0.3733 0.06645 0.0
C144 C 0.70509 0.39139 0.08318 0.0
C145 C 0.69932 0.41849 0.06757 0.0
C146 C 0.71465 0.41364 0.03847 0.0
C147 C 0.72766 0.38726 0.03799 0.0
C148 C 0.71277 0.44249 0.08572 0.0
C149 C 0.66684 0.4211 0.06341 0.0
C150 C 0.78566 0.33741 0.95925 0.0
C151 C 0.7937 0.34461 0.93021 0.0
C152 C 0.78411 0.37008 0.91819 0.0
C153 C 0.76696 0.38812 0.93485 0.0
C154 C 0.75924 0.38063 0.96383 0.0
C155 C 0.76855 0.35564 0.97558 0.0
C156 C 0.75801 0.35107 0.00668 0.0
C157 C 0.74202 0.37809 0.01211 0.0
C158 C 0.74253 0.39511 0.9868 0.0
C159 C 0.78384 0.3482 0.02748 0.0
C160 C 0.73815 0.32535 0.00659 0.0
H161 H 0.6861 0.47532 0.04779 0.0
H162 H 0.69089 0.48666 0.93868 0.0
H163 H 0.68336 0.42141 0.94499 0.0
H164 H 0.71419 0.4067 0.92908 0.0
H165 H 0.70243 0.44051 0.91716 0.0
H166 H 0.75403 0.47509 0.96222 0.0
H167 H 0.74799 0.46091 0.92608 0.0
H168 H 0.76886 0.44248 0.95335 0.0
H169 H 0.68009 0.39781 0.12235 0.0
H170 H 0.7186 0.31656 0.11177 0.0
H171 H 0.7396 0.3313 0.06529 0.0
H172 H 0.73079 0.43491 0.09939 0.0
H173 H 0.69711 0.45217 0.10098 0.0
H174 H 0.722 0.45886 0.07138 0.0
H175 H 0.65781 0.40095 0.05571 0.0
H176 H 0.66053 0.43656 0.04667 0.0
H177 H 0.65629 0.4267 0.08461 0.0
H178 H 0.66227 0.5142 0.02513 0.0
C179 C 0.68754 0.4772 0.02417 0.0
C180 C 0.19746 0.62719 0.44674 0.0
C181 C 0.18808 0.65315 0.45752 0.0
C182 C 0.19727 0.66214 0.48567 0.0
C183 C 0.22562 0.62033 0.49105 0.0
C184 C 0.21598 0.61114 0.46388 0.0
C185 C 0.22825 0.58328 0.45548 0.0
H186 H 0.32204 0.48059 0.4841 0.0
C187 C 0.24517 0.59909 0.50287 0.0
C188 C 0.24641 0.57707 0.48237 0.0
H189 H 0.27136 0.4921 0.40546 0.0
H190 H 0.2472 0.53101 0.42857 0.0
H191 H 0.33659 0.54349 0.49118 0.0
H192 H 0.27345 0.4922 0.53236 0.0
H193 H 0.28273 0.51706 0.55921 0.0
H194 H 0.30918 0.49287 0.54561 0.0
H195 H 0.34442 0.51585 0.51677 0.0
H196 H 0.3371 0.5506 0.52931 0.0
C197 C 0.24619 0.58719 0.42696 0.0
C198 C 0.20368 0.5622 0.45241 0.0
C199 C 0.30529 0.62 0.5935 0.0
C200 C 0.32623 0.60424 0.6081 0.0
C201 C 0.32938 0.57574 0.60104 0.0
C202 C 0.31384 0.56372 0.57813 0.0
C203 C 0.2951 0.58037 0.5618 0.0
C204 C 0.28989 0.60757 0.57046 0.0
C205 C 0.26769 0.62127 0.55141 0.0
C206 C 0.26211 0.59837 0.5288 0.0
C207 C 0.27871 0.57474 0.53476 0.0
C208 C 0.28086 0.64749 0.53694 0.0
C209 C 0.24134 0.6274 0.5709 0.0
C210 C 0.30515 0.49096 0.47217 0.0
C211 C 0.29856 0.48332 0.44296 0.0
C212 C 0.27692 0.49778 0.42793 0.0
C213 C 0.26303 0.52041 0.44135 0.0
C214 C 0.27123 0.52893 0.46989 0.0
C215 C 0.29155 0.51388 0.48501 0.0
C216 C 0.29906 0.52688 0.51423 0.0
C217 C 0.2801 0.55249 0.51405 0.0
C218 C 0.26394 0.55361 0.48803 0.0
C219 C 0.33093 0.53456 0.51315 0.0
C220 C 0.29094 0.50625 0.53927 0.0
H221 H 0.22232 0.65391 0.52357 0.0
H222 H 0.19104 0.61971 0.42514 0.0
H223 H 0.18752 0.56568 0.47 0.0
H224 H 0.21057 0.54031 0.45516 0.0
H225 H 0.19297 0.56445 0.43066 0.0
H226 H 0.25529 0.60855 0.42577 0.0
H227 H 0.23319 0.58405 0.40677 0.0
H228 H 0.26479 0.5732 0.42603 0.0
H229 H 0.30199 0.6418 0.59885 0.0
H230 H 0.34459 0.56287 0.61273 0.0
H231 H 0.31786 0.54218 0.57324 0.0
H232 H 0.30217 0.64255 0.52779 0.0
H233 H 0.28331 0.66452 0.55343 0.0
H234 H 0.2684 0.65562 0.51822 0.0
H235 H 0.24044 0.61342 0.59055 0.0
H236 H 0.22128 0.62348 0.55897 0.0
H237 H 0.2414 0.64922 0.57917 0.0
H238 H 0.1899 0.68174 0.49484 0.0
C239 C 0.21593 0.64586 0.50247 0.0
C240 C 0.80482 0.86167 0.09695 0.0
C241 C 0.82455 0.8779 0.11249 0.0
C242 C 0.83183 0.90447 0.10154 0.0
C243 C 0.80074 0.89797 0.05964 0.0
C244 C 0.793 0.87223 0.07077 0.0
C245 C 0.77112 0.85819 0.05178 0.0
H246 H 0.68911 0.86084 0.92899 0.0
C247 C 0.7853 0.90253 0.0317 0.0
C248 C 0.76765 0.87946 0.02709 0.0
H249 H 0.69215 0.7976 0.99728 0.0
H250 H 0.7279 0.82368 0.02327 0.0
H251 H 0.69235 0.91403 0.97238 0.0
H252 H 0.75467 0.86759 0.92337 0.0
H253 H 0.76651 0.9022 0.92335 0.0
H254 H 0.73316 0.89379 0.9061 0.0
H255 H 0.69511 0.91468 0.93272 0.0
H256 H 0.71525 0.93819 0.95552 0.0
C257 C 0.7437 0.85495 0.07036 0.0
C258 C 0.78375 0.83036 0.0403 0.0
C259 C 0.80884 0.98622 0.9676 0.0
C260 C 0.80033 0.99426 0.93903 0.0
C261 C 0.77888 0.97913 0.92465 0.0
C262 C 0.76662 0.95583 0.93823 0.0
C263 C 0.77616 0.94739 0.96633 0.0
C264 C 0.79668 0.96271 0.98068 0.0
C265 C 0.80506 0.95004 0.00986 0.0
C266 C 0.78653 0.92426 0.01039 0.0
C267 C 0.76962 0.92293 0.98493 0.0
C268 C 0.79706 0.97087 0.03481 0.0
C269 C 0.83697 0.94253 0.00832 0.0
C270 C 0.69767 0.85243 0.94937 0.0
C271 C 0.68771 0.82718 0.96113 0.0
C272 C 0.69919 0.81721 0.98796 0.0
C273 C 0.72003 0.83233 0.00297 0.0
C274 C 0.72955 0.85768 0.99104 0.0
C275 C 0.71846 0.86725 0.96462 0.0
C276 C 0.73125 0.89443 0.95506 0.0
C277 C 0.75137 0.89993 0.98048 0.0
C278 C 0.75038 0.87832 0.00144 0.0
C279 C 0.70737 0.91661 0.95358 0.0
C280 C 0.74711 0.88952 0.92536 0.0
H281 H 0.82667 0.93482 0.06796 0.0
H282 H 0.79855 0.84135 0.10512 0.0
H283 H 0.80643 0.83298 0.03425 0.0
H284 H 0.77344 0.82277 0.01995 0.0
H285 H 0.78251 0.81385 0.05751 0.0
H286 H 0.74124 0.87245 0.08637 0.0
H287 H 0.74396 0.83522 0.08325 0.0
H288 H 0.72432 0.85575 0.05674 0.0
H289 H 0.82563 -0.00282 0.97899 0.0
H290 H 0.77189 0.9851 0.9027 0.0
H291 H 0.75061 0.94497 0.92604 0.0
H292 H 0.77814 0.98347 0.02869 0.0
H293 H 0.81462 0.98562 0.03929 0.0
H294 H 0.79102 0.96033 0.05565 0.0
H295 H 0.84261 0.93423 0.98605 0.0
H296 H 0.8432 0.92594 0.02393 0.0
H297 H 0.85029 0.96117 0.01245 0.0
H298 H 0.84714 0.91726 0.11306 0.0
C299 C 0.82004 0.91457 0.07525 0.0
C300 C 0.299 0.14003 0.45043 0.0
C301 C 0.3104 0.16507 0.4613 0.0
C302 C 0.303 0.17392 0.49013 0.0
C303 C 0.27286 0.13358 0.49622 0.0
C304 C 0.28054 0.12464 0.46823 0.0
C305 C 0.26665 0.09763 0.45991 0.0
H306 H 0.17176 -0.00269 0.49191 0.0
C307 C 0.25304 0.11296 0.50872 0.0
C308 C 0.24962 0.09166 0.48767 0.0
H309 H 0.22052 0.00762 0.41156 0.0
H310 H 0.24524 0.04649 0.43337 0.0
H311 H 0.22283 0.00709 0.53709 0.0
H312 H 0.15879 0.06135 0.50156 0.0
H313 H 0.16091 0.06756 0.53986 0.0
H314 H 0.1516 0.03339 0.52692 0.0
H315 H 0.18777 0.00812 0.55229 0.0
H316 H 0.21522 0.03129 0.56522 0.0
C317 C 0.29012 0.07547 0.4548 0.0
C318 C 0.24746 0.10314 0.43268 0.0
C319 C 0.20399 0.1316 0.60726 0.0
C320 C 0.18473 0.11585 0.6241 0.0
C321 C 0.17749 0.0888 0.61457 0.0
C322 C 0.18837 0.07794 0.58817 0.0
C323 C 0.20666 0.09428 0.57095 0.0
C324 C 0.21493 0.12025 0.58096 0.0
C325 C 0.23593 0.13375 0.56038 0.0
C326 C 0.23783 0.11206 0.53585 0.0
C327 C 0.22025 0.08925 0.54202 0.0
C328 C 0.26437 0.13703 0.57708 0.0
C329 C 0.223 0.16155 0.54925 0.0
C330 C 0.1882 0.00754 0.47923 0.0
C331 C 0.19411 -0.00051 0.44992 0.0
C332 C 0.21534 0.01368 0.43404 0.0
C333 C 0.22965 0.03624 0.44676 0.0
C334 C 0.22249 0.0449 0.47558 0.0
C335 C 0.20248 0.03026 0.49151 0.0
C336 C 0.19701 0.04281 0.5215 0.0
C337 C 0.21668 0.06777 0.52072 0.0
C338 C 0.23142 0.06891 0.49376 0.0
C339 C 0.20592 0.02129 0.54541 0.0
C340 C 0.16544 0.05168 0.52285 0.0
H341 H 0.27942 0.16623 0.52925 0.0
H342 H 0.30394 0.1327 0.42832 0.0
H343 H 0.23813 0.12448 0.43355 0.0
H344 H 0.22903 0.0891 0.43162 0.0
H345 H 0.25964 0.10141 0.41169 0.0
H346 H 0.30799 0.07857 0.47046 0.0
H347 H 0.29879 0.0768 0.43196 0.0
H348 H 0.28283 0.05395 0.45896 0.0
H349 H 0.21027 0.15225 0.61437 0.0
H350 H 0.1626 0.07634 0.62711 0.0
H351 H 0.18162 0.05745 0.58188 0.0
H352 H 0.26682 0.1209 0.59462 0.0
H353 H 0.26585 0.15777 0.58793 0.0
H354 H 0.28292 0.13396 0.56245 0.0
H355 H 0.20045 0.15862 0.54299 0.0
H356 H 0.23353 0.16971 0.52926 0.0
H357 H 0.22382 0.1778 0.56677 0.0
H358 H 0.31188 0.19282 0.49935 0.0
C359 C 0.28431 0.15834 0.5076 0.0
C360 C 0.19551 0.99118 0.95703 0.0
C361 C 0.17392 0.00701 0.97054 0.0
C362 C 0.16618 0.001 1e-05 0.0
C363 C 0.19846 0.96174 0.00058 0.0
C364 C 0.20736 0.96862 0.97238 0.0
C365 C 0.22882 0.94818 0.96049 0.0
H366 H 0.29677 0.82468 0.9751 0.0
C367 C 0.21212 0.9352 0.00891 0.0
C368 C 0.23001 0.92713 0.98561 0.0
H369 H 0.30756 0.88636 0.90603 0.0
H370 H 0.27313 0.91617 0.92991 0.0
H371 H 0.29777 0.86926 0.02914 0.0
H372 H 0.22995 0.82992 0.9812 0.0
H373 H 0.21974 0.83148 0.01856 0.0
H374 H 0.25057 0.8114 0.00818 0.0
H375 H 0.29013 0.83268 0.03207 0.0
H376 H 0.27221 0.85804 0.05487 0.0
C377 C 0.25731 0.96366 0.95644 0.0
C378 C 0.21689 0.9352 0.93169 0.0
C379 C 0.18208 0.88736 0.10376 0.0
C380 C 0.18743 0.86085 0.11576 0.0
C381 C 0.2061 0.84263 0.10088 0.0
C382 C 0.21929 0.85084 0.07438 0.0
C383 C 0.21342 0.8774 0.06249 0.0
C384 C 0.19502 0.89507 0.07722 0.0
C385 C 0.18959 0.92166 0.0606 0.0
C386 C 0.20817 0.91736 0.03361 0.0
C387 C 0.22221 0.89154 0.03485 0.0
C388 C 0.2001 0.94629 0.07987 0.0
C389 C 0.15763 0.92287 0.05261 0.0
C390 C 0.29197 0.84471 0.96517 0.0
C391 C 0.30504 0.85315 0.93862 0.0
C392 C 0.29761 0.87917 0.92625 0.0
C393 C 0.2778 0.89657 0.94029 0.0
C394 C 0.26522 0.88787 0.96696 0.0
C395 C 0.27252 0.8624 0.97905 0.0
C396 C 0.25775 0.85691 0.00798 0.0
C397 C 0.24066 0.88351 0.01151 0.0
C398 C 0.24481 0.90138 0.98723 0.0
C399 C 0.28049 0.85385 0.03244 0.0
C400 C 0.23859 0.83099 0.00408 0.0
H401 H 0.17098 0.97457 0.03715 0.0
H402 H 0.20229 -0.00441 0.9346 0.0
H403 H 0.19409 0.93006 0.93443 0.0
H404 H 0.22728 0.91542 0.92549 0.0
H405 H 0.21879 0.94995 0.91282 0.0
H406 H 0.2593 0.98132 0.97231 0.0
H407 H 0.25931 0.97237 0.93374 0.0
H408 H 0.2758 0.95017 0.96114 0.0
H409 H 0.16721 0.90152 0.11424 0.0
H410 H 0.21044 0.82206 0.10975 0.0
H411 H 0.23327 0.83609 0.06399 0.0
H412 H 0.22012 0.94069 0.0914 0.0
H413 H 0.18425 0.95192 0.09707 0.0
H414 H 0.20522 0.96505 0.06673 0.0
H415 H 0.14832 0.90163 0.05111 0.0
H416 H 0.15364 0.93213 0.03059 0.0
H417 H 0.14538 0.93463 0.06954 0.0
H418 H 0.1495 0.01266 0.01094 0.0
C419 C 0.17843 0.97857 0.01512 0.0
C420 C 0.69155 0.12372 0.4459 0.0
C421 C 0.68196 0.14972 0.4564 0.0
C422 C 0.69024 0.1586 0.4849 0.0
C423 C 0.71855 0.1169 0.49101 0.0
C424 C 0.70962 0.10766 0.4636 0.0
C425 C 0.72221 0.0798 0.45563 0.0
H426 H 0.81683 0.97843 0.48671 0.0
C427 C 0.73797 0.09584 0.50335 0.0
C428 C 0.73977 0.07372 0.48301 0.0
H429 H 0.76669 0.98818 0.40742 0.0
H430 H 0.74162 0.02691 0.42982 0.0
H431 H 0.83011 0.04166 0.49343 0.0
H432 H 0.76761 0.9893 0.53414 0.0
H433 H 0.77575 0.01468 0.56086 0.0
H434 H 0.80305 0.99103 0.54809 0.0
H435 H 0.83815 0.01417 0.51913 0.0
H436 H 0.83016 0.04879 0.53156 0.0
C437 C 0.74079 0.08372 0.42759 0.0
C438 C 0.69781 0.0586 0.45195 0.0
C439 C 0.79735 0.11847 0.59397 0.0
C440 C 0.81841 0.10312 0.60883 0.0
C441 C 0.82166 0.07449 0.60246 0.0
C442 C 0.80618 0.06195 0.57981 0.0
C443 C 0.78743 0.07823 0.56307 0.0
C444 C 0.78203 0.10553 0.5712 0.0
C445 C 0.75984 0.11879 0.5518 0.0
C446 C 0.75459 0.09552 0.52951 0.0
C447 C 0.77132 0.07211 0.53596 0.0
C448 C 0.77291 0.14491 0.53701 0.0
C449 C 0.73332 0.125 0.57102 0.0
C450 C 0.79988 0.98833 0.47446 0.0
C451 C 0.79378 0.9803 0.44526 0.0
C452 C 0.77196 0.9942 0.42986 0.0
C453 C 0.75753 0.01672 0.44288 0.0
C454 C 0.76533 0.02571 0.47138 0.0
C455 C 0.78571 0.01111 0.48691 0.0
C456 C 0.79265 0.02445 0.5161 0.0
C457 C 0.77325 0.04973 0.51546 0.0
C458 C 0.75743 0.05045 0.48918 0.0
C459 C 0.82439 0.03266 0.51535 0.0
C460 C 0.78459 0.00387 0.54122 0.0
H461 H 0.71416 0.15033 0.52354 0.0
H462 H 0.68572 0.11628 0.42411 0.0
H463 H 0.68097 0.06234 0.46876 0.0
H464 H 0.70463 0.0368 0.45548 0.0
H465 H 0.68795 0.06042 0.42971 0.0
H466 H 0.75073 0.10474 0.42731 0.0
H467 H 0.72801 0.08168 0.40709 0.0
H468 H 0.75879 0.06905 0.42651 0.0
H469 H 0.79397 0.14036 0.59883 0.0
H470 H 0.83699 0.06195 0.61438 0.0
H471 H 0.81032 0.04035 0.57536 0.0
H472 H 0.79422 0.13995 0.52788 0.0
H473 H 0.77532 0.16211 0.5533 0.0
H474 H 0.76038 0.15286 0.51825 0.0
H475 H 0.73275 0.11184 0.59131 0.0
H476 H 0.71339 0.12008 0.55926 0.0
H477 H 0.73277 0.14715 0.57828 0.0
H478 H 0.6826 0.17818 0.49389 0.0
C479 C 0.70841 0.14232 0.50223 0.0
Sc480 Sc 0.00063 0.79038 0.30911 0.0
Sc481 Sc 0.00123 0.86417 0.31304 0.0
Sc482 Sc 0.00413 0.82497 0.37813 0.0
O483 O 0.00198 0.82643 0.33334 0.0
C484 C 0.96217 0.77435 0.36409 0.0
C485 C 0.95739 0.82953 0.27403 0.0
C486 C 0.95892 0.87316 0.36747 0.0
C487 C 0.04289 0.82863 0.27174 0.0
C488 C 0.04629 0.77657 0.35953 0.0
C489 C 0.0447 0.87651 0.36489 0.0
O490 O 0.96807 0.77208 0.33669 0.0
O491 O 0.9676 0.85192 0.28441 0.0
O492 O 0.96922 0.85348 0.383 0.0
O493 O 0.0333 0.80483 0.27917 0.0
O494 O 0.03874 0.79628 0.37663 0.0
O495 O 0.03501 0.88116 0.33918 0.0
O496 O 0.03371 0.77092 0.33533 0.0
O497 O 0.03301 0.85145 0.28183 0.0
O498 O 0.03486 0.85764 0.38161 0.0
O499 O 0.96733 0.80551 0.28016 0.0
O500 O 0.97429 0.79172 0.381 0.0
O501 O 0.96905 0.88018 0.34244 0.0
Sc502 Sc 0.99289 0.20531 0.80126 0.0
Sc503 Sc 0.99382 0.1318 0.80824 0.0
Sc504 Sc 0.98404 0.17323 0.87112 0.0
O505 O 0.99019 0.17019 0.8268 0.0
C506 C 0.02809 0.22212 0.85853 0.0
C507 C 0.04103 0.16573 0.77358 0.0
C508 C 0.02834 0.12345 0.86827 0.0
C509 C 0.95756 0.16496 0.75981 0.0
C510 C 0.94367 0.22128 0.84693 0.0
C511 C 0.94399 0.12214 0.85434 0.0
O512 O 0.02288 0.22467 0.83101 0.0
O513 O 0.03138 0.14348 0.78498 0.0
O514 O 0.0173 0.14419 0.88145 0.0
O515 O 0.96309 0.18943 0.76902 0.0
O516 O 0.95038 0.20269 0.86568 0.0
O517 O 0.9563 0.11644 0.83 0.0
O518 O 0.95758 0.22555 0.82321 0.0
O519 O 0.96798 0.14302 0.77124 0.0
O520 O 0.95242 0.14127 0.87164 0.0
O521 O 0.02873 0.18931 0.77614 0.0
O522 O 0.01502 0.20525 0.87529 0.0
O523 O 0.02094 0.11591 0.84249 0.0
Sc524 Sc 0.49985 0.28923 0.30216 0.0
Sc525 Sc 0.50305 0.36294 0.3071 0.0
Sc526 Sc 0.50171 0.32308 0.37183 0.0
O527 O 0.50155 0.32499 0.32697 0.0
C528 C 0.45717 0.27574 0.35486 0.0
C529 C 0.45915 0.3302 0.26619 0.0
C530 C 0.45976 0.37401 0.35997 0.0
C531 C 0.54504 0.3264 0.26728 0.0
C532 C 0.54211 0.27235 0.35437 0.0
C533 C 0.54562 0.37221 0.36082 0.0
O534 O 0.46613 0.27156 0.32863 0.0
O535 O 0.47046 0.35209 0.27654 0.0
O536 O 0.46953 0.35452 0.37607 0.0
O537 O 0.53373 0.30298 0.27331 0.0
O538 O 0.53354 0.29131 0.37189 0.0
O539 O 0.53591 0.37848 0.33548 0.0
O540 O 0.53166 0.26845 0.32874 0.0
O541 O 0.53603 0.34941 0.27772 0.0
O542 O 0.53533 0.35279 0.37656 0.0
O543 O 0.46754 0.30574 0.27283 0.0
O544 O 0.46825 0.29322 0.37243 0.0
O545 O 0.46994 0.37991 0.33466 0.0
Sc546 Sc 0.4958 0.70382 0.80683 0.0
Sc547 Sc 0.49744 0.63028 0.81332 0.0
Sc548 Sc 0.48743 0.67129 0.87651 0.0
O549 O 0.49352 0.66854 0.83215 0.0
C550 C 0.53155 0.72016 0.86407 0.0
C551 C 0.54367 0.66466 0.77793 0.0
C552 C 0.53149 0.62116 0.87339 0.0
C553 C 0.46014 0.66354 0.76565 0.0
C554 C 0.44794 0.72067 0.85378 0.0
C555 C 0.44721 0.62066 0.85924 0.0
O556 O 0.52618 0.72274 0.83655 0.0
O557 O 0.53448 0.64231 0.78948 0.0
O558 O 0.51956 0.64118 0.88693 0.0
O559 O 0.46564 0.68801 0.77492 0.0
O560 O 0.45495 0.70181 0.87202 0.0
O561 O 0.46032 0.61444 0.8355 0.0
O562 O 0.46084 0.72442 0.82934 0.0
O563 O 0.47088 0.64161 0.77684 0.0
O564 O 0.455 0.6402 0.87635 0.0
O565 O 0.53123 0.68812 0.78089 0.0
O566 O 0.51888 0.7029 0.88077 0.0
O567 O 0.52537 0.61448 0.84698 0.0
H568 H 0.13585 0.35289 0.9253 0.0
H569 H 0.06014 0.20716 0.90564 0.0
H570 H 0.1705 0.27583 0.95951 0.0
H571 H 0.04862 0.27358 0.84216 0.0
H572 H 0.09732 0.23402 0.92942 0.0
H573 H 0.10059 0.32604 0.89801 0.0
C574 C 0.13624 0.33035 0.92696 0.0
C575 C 0.15626 0.31663 0.94484 0.0
C576 C 0.08677 0.2427 0.91023 0.0
C577 C 0.11556 0.28599 0.91413 0.0
C578 C 0.06542 0.22749 0.89673 0.0
C579 C 0.05118 0.2383 0.872 0.0
C580 C 0.0937 0.26916 0.89927 0.0
C581 C 0.05915 0.26455 0.86117 0.0
C582 C 0.11603 0.31511 0.91141 0.0
C583 C 0.15523 0.28741 0.94654 0.0
N584 N 0.07978 0.2793 0.8751 0.0
N585 N 0.13513 0.2731 0.93152 0.0
H586 H 0.81705 0.66936 0.40309 0.0
H587 H 0.95267 0.76616 0.42283 0.0
H588 H 0.85812 0.68597 0.48656 0.0
H589 H 0.92259 0.74074 0.33665 0.0
H590 H 0.91691 0.7374 0.44584 0.0
H591 H 0.85446 0.69546 0.37769 0.0
C592 C 0.83399 0.67834 0.41605 0.0
C593 C 0.83433 0.6757 0.44705 0.0
C594 C 0.91806 0.73795 0.42189 0.0
C595 C 0.87688 0.70568 0.41821 0.0
C596 C 0.9385 0.75452 0.40864 0.0
C597 C 0.94061 0.75604 0.37766 0.0
C598 C 0.89928 0.72274 0.4042 0.0
C599 C 0.92172 0.74019 0.36061 0.0
C600 C 0.85525 0.69329 0.40154 0.0
C601 C 0.85664 0.68795 0.46273 0.0
N602 N 0.90167 0.72426 0.37413 0.0
N603 N 0.87691 0.70244 0.44816 0.0
H604 H 0.79258 0.28753 0.92743 0.0
H605 H 0.9315 0.27411 0.82677 0.0
H606 H 0.83777 0.35891 0.89352 0.0
H607 H 0.89924 0.20844 0.88274 0.0
H608 H 0.89204 0.30407 0.84269 0.0
H609 H 0.82652 0.2569 0.90273 0.0
C610 C 0.80962 0.29678 0.91476 0.0
C611 C 0.81256 0.32586 0.91294 0.0
C612 C 0.89357 0.28301 0.85124 0.0
C613 C 0.85129 0.29086 0.88426 0.0
C614 C 0.91596 0.2659 0.8421 0.0
C615 C 0.91881 0.2389 0.85374 0.0
C616 C 0.8738 0.27281 0.87181 0.0
C617 C 0.8981 0.22927 0.87354 0.0
C618 C 0.8289 0.27928 0.90055 0.0
C619 C 0.83462 0.33663 0.89548 0.0
N620 N 0.87655 0.24624 0.882 0.0
N621 N 0.85329 0.31912 0.88198 0.0
H622 H 0.14354 0.63694 0.42248 0.0
H623 H 0.08969 0.79173 0.3954 0.0
H624 H 0.18934 0.70992 0.45114 0.0
H625 H 0.05725 0.7217 0.34601 0.0
H626 H 0.12639 0.76174 0.41593 0.0
H627 H 0.11167 0.66705 0.39417 0.0
C628 C 0.14708 0.65925 0.42262 0.0
C629 C 0.16902 0.67093 0.43948 0.0
C630 C 0.11145 0.75293 0.40038 0.0
C631 C 0.13243 0.70545 0.40743 0.0
C632 C 0.09043 0.77003 0.38872 0.0
C633 C 0.07027 0.75909 0.36919 0.0
C634 C 0.11211 0.72453 0.39287 0.0
C635 C 0.07242 0.73092 0.36102 0.0
C636 C 0.12884 0.67641 0.40649 0.0
C637 C 0.17235 0.70001 0.43906 0.0
N638 N 0.09278 0.71445 0.37324 0.0
N639 N 0.15414 0.71626 0.42349 0.0
H640 H 0.68108 0.81835 0.90143 0.0
H641 H 0.54116 0.7278 0.92293 0.0
H642 H 0.64222 0.80111 0.98605 0.0
H643 H 0.57252 0.75199 0.83676 0.0
H644 H 0.57882 0.75421 0.94594 0.0
H645 H 0.64234 0.79376 0.87691 0.0
C646 C 0.66437 0.80948 0.91485 0.0
C647 C 0.66492 0.81172 0.94587 0.0
C648 C 0.5775 0.75388 0.922 0.0
C649 C 0.62076 0.78345 0.91799 0.0
C650 C 0.55597 0.73872 0.90877 0.0
C651 C 0.55372 0.73753 0.87779 0.0
C652 C 0.59717 0.76796 0.90423 0.0
C653 C 0.57345 0.75235 0.86071 0.0
C654 C 0.64233 0.7954 0.90084 0.0
C655 C 0.64293 0.79951 0.96215 0.0
N656 N 0.5945 0.76688 0.87419 0.0
N657 N 0.62178 0.78592 0.94802 0.0
H658 H 0.31318 0.22201 0.45673 0.0
H659 H 0.43977 0.22312 0.33893 0.0
H660 H 0.3518 0.14654 0.4231 0.0
H661 H 0.4192 0.29223 0.39649 0.0
H662 H 0.40157 0.19603 0.36211 0.0
H663 H 0.34648 0.24934 0.42747 0.0
C664 C 0.32871 0.21115 0.44331 0.0
C665 C 0.32986 0.18189 0.4427 0.0
C666 C 0.4054 0.2172 0.36944 0.0
C667 C 0.36766 0.21313 0.40862 0.0
C668 C 0.42702 0.23266 0.35615 0.0
C669 C 0.43279 0.25978 0.36608 0.0
C670 C 0.38931 0.22922 0.39236 0.0
C671 C 0.41571 0.27122 0.38847 0.0
C672 C 0.34758 0.22678 0.42644 0.0
C673 C 0.34997 0.16903 0.42414 0.0
N674 N 0.39479 0.25588 0.40088 0.0
N675 N 0.36816 0.18474 0.4079 0.0
H676 H 0.34575 0.82215 0.96614 0.0
H677 H 0.42376 0.76459 0.82272 0.0
H678 H 0.31453 0.84333 0.8791 0.0
H679 H 0.42003 0.72106 0.90649 0.0
H680 H 0.38863 0.79822 0.84185 0.0
H681 H 0.37947 0.79022 0.9436 0.0
C682 C 0.34581 0.81997 0.94227 0.0
C683 C 0.32682 0.83507 0.92457 0.0
C684 C 0.39553 0.78111 0.85577 0.0
C685 C 0.366 0.79883 0.89851 0.0
C686 C 0.4155 0.76195 0.84493 0.0
C687 C 0.42508 0.74003 0.86305 0.0
C688 C 0.38559 0.77843 0.88497 0.0
C689 C 0.41356 0.73761 0.89165 0.0
C690 C 0.36519 0.8018 0.9294 0.0
C691 C 0.32876 0.8321 0.89361 0.0
N692 N 0.39472 0.75667 0.90173 0.0
N693 N 0.34802 0.81421 0.88149 0.0
H694 H 0.68431 0.20641 0.45035 0.0
H695 H 0.55399 0.21819 0.33836 0.0
H696 H 0.6384 0.13428 0.41952 0.0
H697 H 0.58281 0.28534 0.39433 0.0
H698 H 0.59051 0.18775 0.35999 0.0
H699 H 0.65263 0.23627 0.42191 0.0
C700 C 0.6675 0.19683 0.4377 0.0
C701 C 0.66373 0.1678 0.43776 0.0
C702 C 0.58885 0.20922 0.36731 0.0
C703 C 0.6277 0.20191 0.40464 0.0
C704 C 0.56818 0.22657 0.35491 0.0
C705 C 0.56524 0.25418 0.36483 0.0
C706 C 0.60685 0.2198 0.38931 0.0
C707 C 0.5841 0.26406 0.38634 0.0
C708 C 0.64954 0.21389 0.4213 0.0
C709 C 0.64212 0.15654 0.4201 0.0
N710 N 0.60405 0.24689 0.39787 0.0
N711 N 0.62477 0.17366 0.40434 0.0
H712 H 0.32049 0.49253 0.87968 0.0
H713 H 0.41143 0.63039 0.90575 0.0
H714 H 0.31481 0.54429 0.95767 0.0
H715 H 0.42468 0.57449 0.83186 0.0
H716 H 0.37102 0.60267 0.921 0.0
H717 H 0.35311 0.52624 0.85761 0.0
C718 C 0.32568 0.51128 0.89189 0.0
C719 C 0.31522 0.51557 0.92063 0.0
C720 C 0.38266 0.5965 0.90137 0.0
C721 C 0.3527 0.55387 0.8958 0.0
C722 C 0.40585 0.6123 0.89264 0.0
C723 C 0.4218 0.60455 0.86767 0.0
C724 C 0.37529 0.57266 0.88513 0.0
C725 C 0.41319 0.5811 0.85141 0.0
C726 C 0.34446 0.53038 0.8794 0.0
C727 C 0.32278 0.54004 0.93563 0.0
N728 N 0.39062 0.56583 0.86057 0.0
N729 N 0.34125 0.55816 0.92313 0.0
H730 H 0.67479 0.49606 0.38935 0.0
H731 H 0.57304 0.36528 0.41385 0.0
H732 H 0.67284 0.4473 0.4697 0.0
H733 H 0.57412 0.41525 0.33421 0.0
H734 H 0.61251 0.39248 0.43297 0.0
H735 H 0.64164 0.46351 0.3668 0.0
C736 C 0.66781 0.47821 0.40209 0.0
C737 C 0.67646 0.47451 0.43155 0.0
C738 C 0.60418 0.39742 0.41127 0.0
C739 C 0.63797 0.43748 0.40606 0.0
C740 C 0.58156 0.38193 0.40033 0.0
C741 C 0.56999 0.38813 0.37245 0.0
C742 C 0.61534 0.41931 0.39426 0.0
C743 C 0.58214 0.40983 0.3559 0.0
C744 C 0.64865 0.45976 0.38927 0.0
C745 C 0.66635 0.45121 0.44709 0.0
N746 N 0.60405 0.4247 0.36712 0.0
N747 N 0.64746 0.4337 0.43424 0.0
H748 H 0.62113 0.5205 -0.001 0.0
H749 H 0.57516 0.59114 0.84923 0.0
H750 H 0.68116 0.53248 0.92775 0.0
H751 H 0.53831 0.61511 0.93307 0.0
H752 H 0.61171 0.56488 0.8759 0.0
H753 H 0.58824 0.5514 0.97383 0.0
C754 C 0.62776 0.52995 0.97837 0.0
C755 C 0.65424 0.52376 0.96566 0.0
C756 C 0.59568 0.57604 0.88836 0.0
C757 C 0.61583 0.55841 0.93612 0.0
C758 C 0.57472 0.5908 0.87322 0.0
C759 C 0.55363 0.60519 0.889 0.0
C760 C 0.59512 0.57523 0.91941 0.0
C761 C 0.5542 0.60433 0.92006 0.0
C762 C 0.60874 0.54743 0.96389 0.0
C763 C 0.6609 0.53611 0.93826 0.0
N764 N 0.57446 0.58934 0.93426 0.0
N765 N 0.64168 0.5526 0.92423 0.0
H766 H 0.3181 0.43307 0.46342 0.0
H767 H 0.43116 0.41678 0.33247 0.0
H768 H 0.32153 0.48777 0.38762 0.0
H769 H 0.43009 0.36571 0.41133 0.0
H770 H 0.38833 0.44037 0.34985 0.0
H771 H 0.35564 0.40461 0.44149 0.0
C772 C 0.3265 0.43882 0.44194 0.0
C773 C 0.31688 0.46291 0.42742 0.0
C774 C 0.39748 0.42397 0.3633 0.0
C775 C 0.36005 0.43071 0.40234 0.0
C776 C 0.42203 0.41058 0.35347 0.0
C777 C 0.43446 0.38936 0.37056 0.0
C778 C 0.38523 0.41608 0.39038 0.0
C779 C 0.42147 0.38208 0.39747 0.0
C780 C 0.34797 0.42265 0.42946 0.0
C781 C 0.32822 0.46927 0.39948 0.0
N782 N 0.39764 0.39544 0.40654 0.0
N783 N 0.34947 0.45345 0.388 0.0
H784 H 0.81521 0.0454 0.96068 0.0
H785 H 0.92009 0.07704 0.82625 0.0
H786 H 0.8208 0.99399 0.88242 0.0
H787 H 0.9107 0.12987 0.90325 0.0
H788 H 0.88052 0.04876 0.84388 0.0
H789 H 0.84661 0.07927 0.93732 0.0
C790 C 0.82284 0.04143 0.93843 0.0
C791 C 0.81564 0.01681 0.92354 0.0
C792 C 0.88703 0.06668 0.85676 0.0
C793 C 0.85176 0.05524 0.89674 0.0
C794 C 0.90965 0.08281 0.84674 0.0
C795 C 0.91904 0.10567 0.86347 0.0
C796 C 0.87376 0.07344 0.88371 0.0
C797 C 0.90451 0.11225 0.88975 0.0
C798 C 0.84073 0.06075 0.92507 0.0
C799 C 0.82577 0.0128 0.8946 0.0
N800 N 0.88278 0.0961 0.89913 0.0
N801 N 0.84364 0.03167 0.88226 0.0
H802 H 0.17557 0.9498 0.47277 0.0
H803 H 0.0718 0.91967 0.33674 0.0
H804 H 0.17174 0.00085 0.39413 0.0
H805 H 0.07276 0.87156 0.41766 0.0
H806 H 0.11129 0.94721 0.35546 0.0
H807 H 0.14116 0.9181 0.45071 0.0
C808 C 0.16764 0.9542 0.45076 0.0
C809 C 0.17637 0.9781 0.43535 0.0
C810 C 0.10288 0.93057 0.36907 0.0
C811 C 0.13694 0.94199 0.40999 0.0
C812 C 0.08027 0.91487 0.35842 0.0
C813 C 0.06872 0.89338 0.37573 0.0
C814 C 0.11406 0.92476 0.39721 0.0
C815 C 0.08077 0.88803 0.40359 0.0
C816 C 0.14803 0.9361 0.43816 0.0
C817 C 0.16576 0.98257 0.40671 0.0
N818 N 0.1027 0.90367 0.41348 0.0
N819 N 0.1464 0.96482 0.39506 0.0
H820 H 0.15601 0.00209 0.91328 0.0
H821 H 0.05239 0.13378 0.92252 0.0
H822 H 0.15286 0.05793 0.9883 0.0
H823 H 0.05745 0.07798 0.84748 0.0
H824 H 0.0911 0.10812 0.94588 0.0
H825 H 0.12293 0.03229 0.88721 0.0
C826 C 0.14882 0.02101 0.92409 0.0
C827 C 0.15715 0.0274 0.95313 0.0
C828 C 0.08375 0.10156 0.92427 0.0
C829 C 0.11852 0.06173 0.9236 0.0
C830 C 0.06156 0.11612 0.91096 0.0
C831 C 0.05144 0.10793 0.88305 0.0
C832 C 0.09592 0.07862 0.90961 0.0
C833 C 0.06437 0.08501 0.86907 0.0
C834 C 0.12964 0.03812 0.90927 0.0
C835 C 0.14665 0.05197 0.96613 0.0
N836 N 0.08585 0.07114 0.88254 0.0
N837 N 0.12768 0.06813 0.95137 0.0
H838 H 0.81622 0.98429 0.3896 0.0
H839 H 0.92917 0.86309 0.41855 0.0
H840 H 0.81548 0.93119 0.46678 0.0
H841 H 0.92923 0.91548 0.34067 0.0
H842 H 0.88561 0.8857 0.43491 0.0
H843 H 0.85453 0.95614 0.36884 0.0
C844 C 0.82364 0.9663 0.40188 0.0
C845 C 0.81278 0.9602 0.43008 0.0
C846 C 0.89512 0.89222 0.41421 0.0
C847 C 0.85719 0.92837 0.40683 0.0
C848 C 0.92013 0.87942 0.40491 0.0
C849 C 0.93309 0.88751 0.37826 0.0
C850 C 0.88293 0.91334 0.39682 0.0
C851 C 0.92016 0.90865 0.36146 0.0
C852 C 0.84577 0.95042 0.39016 0.0
C853 C 0.82355 0.93688 0.44516 0.0
N854 N 0.89585 0.92087 0.37107 0.0
N855 N 0.84537 0.92199 0.43349 0.0
H856 H 0.34276 0.32594 0.11813 0.0
H857 H 0.42438 0.37523 0.26334 0.0
H858 H 0.33028 0.40503 0.16188 0.0
H859 H 0.43774 0.29408 0.2241 0.0
H860 H 0.38603 0.3837 0.22893 0.0
H861 H 0.37322 0.31094 0.15926 0.0
C862 C 0.346 0.3399 0.13668 0.0
C863 C 0.33435 0.36688 0.13653 0.0
C864 C 0.39716 0.36394 0.22778 0.0
C865 C 0.36918 0.35009 0.18325 0.0
C866 C 0.41924 0.35912 0.2474 0.0
C867 C 0.43464 0.33407 0.24627 0.0
C868 C 0.39043 0.34373 0.20646 0.0
C869 C 0.42653 0.31376 0.22555 0.0
C870 C 0.36349 0.33142 0.16002 0.0
C871 C 0.33927 0.38423 0.16093 0.0
N872 N 0.40514 0.31918 0.20614 0.0
N873 N 0.35648 0.37563 0.18313 0.0
H874 H 0.67284 0.5885 0.67335 0.0
H875 H 0.56222 0.70068 0.7345 0.0
H876 H 0.65436 0.66561 0.62805 0.0
H877 H 0.58321 0.62324 0.77823 0.0
H878 H 0.60076 0.69216 0.69911 0.0
H879 H 0.64523 0.60471 0.7157 0.0
C880 C 0.66314 0.609 0.67251 0.0
C881 C 0.66552 0.62561 0.64711 0.0
C882 C 0.59712 0.67726 0.71671 0.0
C883 C 0.63357 0.64428 0.69534 0.0
C884 C 0.57519 0.68215 0.73695 0.0
C885 C 0.56916 0.66239 0.75902 0.0
C886 C 0.61307 0.65251 0.71869 0.0
C887 C 0.5867 0.63879 0.76123 0.0
C888 C 0.6474 0.6183 0.69669 0.0
C889 C 0.65295 0.65218 0.64728 0.0
N890 N 0.60761 0.6344 0.74117 0.0
N891 N 0.63711 0.66056 0.67087 0.0
H892 H 0.69262 0.38269 0.17391 0.0
H893 H 0.5656 0.28577 0.22958 0.0
H894 H 0.66658 0.30855 0.12731 0.0
H895 H 0.58295 0.36878 0.26192 0.0
H896 H 0.60756 0.28894 0.19758 0.0
H897 H 0.65844 0.37222 0.2129 0.0
C898 C 0.67999 0.36393 0.17218 0.0
C899 C 0.68213 0.34665 0.14723 0.0
C900 C 0.60217 0.30634 0.21184 0.0
C901 C 0.64267 0.33471 0.19149 0.0
C902 C 0.57824 0.30457 0.23006 0.0
C903 C 0.5705 0.32719 0.24816 0.0
C904 C 0.61856 0.33075 0.21207 0.0
C905 C 0.58777 0.35098 0.24801 0.0
C906 C 0.66041 0.35801 0.19435 0.0
C907 C 0.66556 0.3224 0.14623 0.0
N908 N 0.61087 0.35212 0.23024 0.0
N909 N 0.64617 0.31733 0.16787 0.0
H910 H 0.38308 0.59674 0.60991 0.0
H911 H 0.41287 0.69413 0.75004 0.0
H912 H 0.31564 0.64239 0.65281 0.0
H913 H 0.46434 0.62392 0.72341 0.0
H914 H 0.37995 0.68348 0.70917 0.0
H915 H 0.41632 0.61527 0.64578 0.0
C916 C 0.37522 0.61059 0.62704 0.0
C917 C 0.34641 0.61742 0.62888 0.0
C918 C 0.39859 0.67063 0.71231 0.0
C919 C 0.38459 0.63912 0.66992 0.0
C920 C 0.41738 0.67676 0.7354 0.0
C921 C 0.44115 0.65971 0.74014 0.0
C922 C 0.40417 0.64774 0.69371 0.0
C923 C 0.44607 0.63739 0.72074 0.0
C924 C 0.39426 0.6213 0.64742 0.0
C925 C 0.33766 0.63638 0.65084 0.0
N926 N 0.42779 0.6321 0.69843 0.0
N927 N 0.35669 0.64642 0.6708 0.0
H928 H 0.83103 0.90511 0.16495 0.0
H929 H 0.93864 0.79249 0.23157 0.0
H930 H 0.84924 0.82681 0.12177 0.0
H931 H 0.92064 0.87303 0.27025 0.0
H932 H 0.90128 0.80102 0.19481 0.0
H933 H 0.85881 0.89003 0.20748 0.0
C934 C 0.84077 0.88462 0.16458 0.0
C935 C 0.83821 0.86732 0.13973 0.0
C936 C 0.90539 0.81664 0.21157 0.0
C937 C 0.87031 0.84989 0.18823 0.0
C938 C 0.92663 0.81176 0.23256 0.0
C939 C 0.93308 0.83228 0.25366 0.0
C940 C 0.89051 0.84211 0.21194 0.0
C941 C 0.9168 0.85683 0.25404 0.0
C942 C 0.85661 0.87596 0.18886 0.0
C943 C 0.8508 0.84076 0.14055 0.0
N944 N 0.89649 0.8611 0.23341 0.0
N945 N 0.86669 0.83296 0.16428 0.0
H946 H 0.17827 0.09159 0.67829 0.0
H947 H 0.06172 0.20187 0.73132 0.0
H948 H 0.15886 0.16675 0.62984 0.0
H949 H 0.08021 0.12399 0.77539 0.0
H950 H 0.10235 0.19381 0.69845 0.0
H951 H 0.14807 0.10772 0.71871 0.0
C952 C 0.16788 0.11169 0.67639 0.0
C953 C 0.17072 0.12771 0.65061 0.0
C954 C 0.09765 0.17869 0.71556 0.0
C955 C 0.13576 0.14622 0.69657 0.0
C956 C 0.07451 0.18331 0.73435 0.0
C957 C 0.06725 0.16335 0.75579 0.0
C958 C 0.11362 0.15403 0.71841 0.0
C959 C 0.08464 0.13971 0.75882 0.0
C960 C 0.15062 0.12092 0.69944 0.0
C961 C 0.15716 0.15379 0.64939 0.0
N962 N 0.1068 0.13563 0.74021 0.0
N963 N 0.13986 0.16207 0.67188 0.0
H964 H 0.18087 0.89032 0.16685 0.0
H965 H 0.0639 0.78793 0.2344 0.0
H966 H 0.15869 0.81212 0.12587 0.0
H967 H 0.07754 0.87305 0.26227 0.0
H968 H 0.1035 0.79254 0.19945 0.0
H969 H 0.14882 0.87984 0.20769 0.0
C970 C 0.16944 0.87076 0.16668 0.0
C971 C 0.1721 0.85222 0.14282 0.0
C972 C 0.09782 0.81009 0.21338 0.0
C973 C 0.1351 0.84016 0.18932 0.0
C974 C 0.07525 0.8075 0.23329 0.0
C975 C 0.06714 0.83025 0.25103 0.0
C976 C 0.11248 0.83549 0.21151 0.0
C977 C 0.08269 0.85506 0.24877 0.0
C978 C 0.15111 0.86479 0.18995 0.0
C979 C 0.15719 0.82695 0.14389 0.0
N980 N 0.1045 0.857 0.22937 0.0
N981 N 0.13898 0.82179 0.16661 0.0
H982 H 0.80814 0.14214 0.65274 0.0
H983 H 0.96416 0.1277 0.71569 0.0
H984 H 0.87532 0.09609 0.60988 0.0
H985 H 0.9081 0.19278 0.74636 0.0
H986 H 0.93091 0.11659 0.67655 0.0
H987 H 0.84315 0.16204 0.68707 0.0
C988 C 0.83022 0.13639 0.65044 0.0
C989 C 0.83878 0.11692 0.62893 0.0
C990 C 0.92584 0.13353 0.69154 0.0
C991 C 0.87863 0.13948 0.66777 0.0
C992 C 0.94483 0.13982 0.71394 0.0
C993 C 0.93872 0.16106 0.73427 0.0
C994 C 0.90014 0.14819 0.68968 0.0
C995 C 0.91351 0.17629 0.73095 0.0
C996 C 0.85013 0.14774 0.66996 0.0
C997 C 0.86762 0.11032 0.62673 0.0
N998 N 0.89481 0.16927 0.70925 0.0
N999 N 0.88638 0.12136 0.64601 0.0
loop_
_geom_bond_atom_site_label_1
_geom_bond_atom_site_label_2
_geom_bond_distance
_geom_bond_site_symmetry_2
_ccdc_geom_bond_type
C0 C1 1.391 . S
C0 C4 1.391 . S
C0 H42 0.948 . S
C1 C0 1.391 . S
C1 C2 1.391 . S
C2 C1 1.391 . S
C2 H58 0.947 . S
C2 C59 1.392 . S
C3 C4 1.391 . S
C3 C7 1.397 . S
C3 C59 1.419 . S
C4 C0 1.391 . S
C4 C3 1.391 . S
C4 C5 1.399 . S
C5 C4 1.399 . S
C5 C8 1.396 . S
C5 C17 1.453 . S
C5 C18 1.684 . S
H6 C30 0.948 . S
C7 C3 1.397 . S
C7 C8 1.394 . S
C7 C26 1.723 . S
C8 C5 1.396 . S
C8 C7 1.394 . S
C8 C38 1.723 . S
H9 C32 0.947 1_554 S
H10 C33 0.948 . S
H11 C39 0.982 . S
H12 C40 0.979 . S
H13 C40 0.980 . S
H14 C40 0.983 . S
H15 C39 0.979 . S
H16 C39 0.977 . S
C17 C5 1.453 . S
C17 H46 0.982 . S
C17 H47 0.979 . S
C17 H48 0.977 . S
C18 C5 1.684 . S
C18 H43 0.979 . S
C18 H44 0.980 . S
C18 H45 0.983 . S
C19 C20 1.391 . S
C19 C24 1.391 . S
C19 H49 0.948 . S
C20 C19 1.391 . S
C20 C21 1.391 . S
C21 C20 1.391 . S
C21 C22 1.392 . S
C21 H50 0.947 . S
C22 C21 1.392 . S
C22 C23 1.419 . S
C22 H51 0.948 . S
C23 C22 1.419 . S
C23 C24 1.391 . S
C23 C27 1.397 . S
C24 C19 1.391 . S
C24 C23 1.391 . S
C24 C25 1.399 1_556 S
C25 C24 1.399 1_554 S
C25 C26 1.396 . S
C25 C28 1.453 . S
C25 C29 1.684 . S
C26 C7 1.723 . S
C26 C25 1.396 . S
C26 C27 1.394 1_554 S
C27 C23 1.397 . S
C27 C26 1.394 1_556 S
C27 C37 1.723 . S
C28 C25 1.453 . S
C28 H52 0.982 . S
C28 H53 0.979 . S
C28 H54 0.977 . S
C29 C25 1.684 . S
C29 H55 0.979 . S
C29 H56 0.980 . S
C29 H57 0.983 . S
C30 H6 0.948 . S
C30 C31 1.391 . S
C30 C35 1.391 . S
C31 C30 1.391 . S
C31 C32 1.391 . S
C32 H9 0.947 1_556 S
C32 C31 1.391 . S
C32 C33 1.392 1_556 S
C33 H10 0.948 . S
C33 C32 1.392 1_554 S
C33 C34 1.419 1_554 S
C34 C33 1.419 1_556 S
C34 C35 1.391 . S
C34 C38 1.397 1_556 S
C35 C30 1.391 . S
C35 C34 1.391 . S
C35 C36 1.399 . S
C36 C35 1.399 . S
C36 C37 1.396 . S
C36 C39 1.453 . S
C36 C40 1.684 . S
C37 C27 1.723 . S
C37 C36 1.396 . S
C37 C38 1.394 1_556 S
C38 C8 1.723 . S
C38 C34 1.397 1_554 S
C38 C37 1.394 1_554 S
C39 H11 0.982 . S
C39 H15 0.979 . S
C39 H16 0.977 . S
C39 C36 1.453 . S
C40 H12 0.979 . S
C40 H13 0.980 . S
C40 H14 0.983 . S
C40 C36 1.684 . S
H41 C59 0.948 . S
H42 C0 0.948 . S
H43 C18 0.979 . S
H44 C18 0.980 . S
H45 C18 0.983 . S
H46 C17 0.982 . S
H47 C17 0.979 . S
H48 C17 0.977 . S
H49 C19 0.948 . S
H50 C21 0.947 . S
H51 C22 0.948 . S
H52 C28 0.982 . S
H53 C28 0.979 . S
H54 C28 0.977 . S
H55 C29 0.979 . S
H56 C29 0.980 . S
H57 C29 0.983 . S
H58 C2 0.947 . S
C59 C2 1.392 . S
C59 C3 1.419 . S
C59 H41 0.948 . S
C60 C61 1.391 . S
C60 C64 1.391 . S
C60 H102 0.948 . S
C61 C60 1.391 . S
C61 C62 1.391 . S
C62 C61 1.391 . S
C62 H118 0.947 . S
C62 C119 1.392 . S
C63 C64 1.391 . S
C63 C67 1.397 . S
C63 C119 1.419 . S
C64 C60 1.391 . S
C64 C63 1.391 . S
C64 C65 1.399 . S
C65 C64 1.399 . S
C65 C68 1.396 . S
C65 C77 1.453 . S
C65 C78 1.684 . S
H66 C90 0.948 . S
C67 C63 1.397 . S
C67 C68 1.394 . S
C67 C86 1.723 . S
C68 C65 1.396 . S
C68 C67 1.394 . S
C68 C98 1.723 . S
H69 C92 0.947 . S
H70 C93 0.948 . S
H71 C99 0.982 . S
H72 C100 0.979 . S
H73 C100 0.980 . S
H74 C100 0.983 . S
H75 C99 0.979 . S
H76 C99 0.977 . S
C77 C65 1.453 . S
C77 H106 0.982 . S
C77 H107 0.979 . S
C77 H108 0.977 . S
C78 C65 1.684 . S
C78 H103 0.979 . S
C78 H104 0.980 . S
C78 H105 0.983 . S
C79 C80 1.391 . S
C79 C84 1.391 . S
C79 H109 0.948 . S
C80 C79 1.391 . S
C80 C81 1.391 . S
C81 C80 1.391 . S
C81 C82 1.392 . S
C81 H110 0.947 . S
C82 C81 1.392 . S
C82 C83 1.419 . S
C82 H111 0.948 . S
C83 C82 1.419 . S
C83 C84 1.391 . S
C83 C87 1.397 . S
C84 C79 1.391 . S
C84 C83 1.391 . S
C84 C85 1.399 . S
C85 C84 1.399 . S
C85 C86 1.396 . S
C85 C88 1.453 . S
C85 C89 1.684 . S
C86 C67 1.723 . S
C86 C85 1.396 . S
C86 C87 1.394 . S
C87 C83 1.397 . S
C87 C86 1.394 . S
C87 C97 1.723 . S
C88 C85 1.453 . S
C88 H112 0.982 . S
C88 H113 0.979 . S
C88 H114 0.977 . S
C89 C85 1.684 . S
C89 H115 0.979 . S
C89 H116 0.980 . S
C89 H117 0.983 . S
C90 H66 0.948 . S
C90 C91 1.391 . S
C90 C95 1.391 . S
C91 C90 1.391 . S
C91 C92 1.391 . S
C92 H69 0.947 . S
C92 C91 1.391 . S
C92 C93 1.392 . S
C93 H70 0.948 . S
C93 C92 1.392 . S
C93 C94 1.419 . S
C94 C93 1.419 . S
C94 C95 1.391 . S
C94 C98 1.397 . S
C95 C90 1.391 . S
C95 C94 1.391 . S
C95 C96 1.399 . S
C96 C95 1.399 . S
C96 C97 1.396 . S
C96 C99 1.453 . S
C96 C100 1.684 . S
C97 C87 1.723 . S
C97 C96 1.396 . S
C97 C98 1.394 . S
C98 C68 1.723 . S
C98 C94 1.397 . S
C98 C97 1.394 . S
C99 H71 0.982 . S
C99 H75 0.979 . S
C99 H76 0.977 . S
C99 C96 1.453 . S
C100 H72 0.979 . S
C100 H73 0.980 . S
C100 H74 0.983 . S
C100 C96 1.684 . S
H101 C119 0.948 . S
H102 C60 0.948 . S
H103 C78 0.979 . S
H104 C78 0.980 . S
H105 C78 0.983 . S
H106 C77 0.982 . S
H107 C77 0.979 . S
H108 C77 0.977 . S
H109 C79 0.948 . S
H110 C81 0.947 . S
H111 C82 0.948 . S
H112 C88 0.982 . S
H113 C88 0.979 . S
H114 C88 0.977 . S
H115 C89 0.979 . S
H116 C89 0.980 . S
H117 C89 0.983 . S
H118 C62 0.947 . S
C119 C62 1.392 . S
C119 C63 1.419 . S
C119 H101 0.948 . S
C120 C121 1.391 . S
C120 C124 1.391 . S
C120 H162 0.948 . S
C121 C120 1.391 . S
C121 C122 1.391 . S
C122 C121 1.391 . S
C122 H178 0.947 . S
C122 C179 1.392 . S
C123 C124 1.391 . S
C123 C127 1.397 . S
C123 C179 1.419 . S
C124 C120 1.391 . S
C124 C123 1.391 . S
C124 C125 1.399 . S
C125 C124 1.399 . S
C125 C128 1.396 . S
C125 C137 1.453 . S
C125 C138 1.684 . S
H126 C150 0.948 . S
C127 C123 1.397 . S
C127 C128 1.394 . S
C127 C146 1.723 1_556 S
C128 C125 1.396 . S
C128 C127 1.394 . S
C128 C158 1.723 . S
H129 C152 0.947 . S
H130 C153 0.948 . S
H131 C159 0.982 . S
H132 C160 0.979 . S
H133 C160 0.980 . S
H134 C160 0.983 . S
H135 C159 0.979 . S
H136 C159 0.977 . S
C137 C125 1.453 . S
C137 H166 0.982 . S
C137 H167 0.979 . S
C137 H168 0.977 . S
C138 C125 1.684 . S
C138 H163 0.979 . S
C138 H164 0.980 . S
C138 H165 0.983 . S
C139 C140 1.391 . S
C139 C144 1.391 . S
C139 H169 0.948 . S
C140 C139 1.391 . S
C140 C141 1.391 . S
C141 C140 1.391 . S
C141 C142 1.392 . S
C141 H170 0.947 . S
C142 C141 1.392 . S
C142 C143 1.419 . S
C142 H171 0.948 . S
C143 C142 1.419 . S
C143 C144 1.391 . S
C143 C147 1.397 . S
C144 C139 1.391 . S
C144 C143 1.391 . S
C144 C145 1.399 . S
C145 C144 1.399 . S
C145 C146 1.396 . S
C145 C148 1.453 . S
C145 C149 1.684 . S
C146 C127 1.723 1_554 S
C146 C145 1.396 . S
C146 C147 1.394 . S
C147 C143 1.397 . S
C147 C146 1.394 . S
C147 C157 1.723 . S
C148 C145 1.453 . S
C148 H172 0.982 . S
C148 H173 0.979 . S
C148 H174 0.977 . S
C149 C145 1.684 . S
C149 H175 0.979 . S
C149 H176 0.980 . S
C149 H177 0.983 . S
C150 H126 0.948 . S
C150 C151 1.391 . S
C150 C155 1.391 . S
C151 C150 1.391 . S
C151 C152 1.391 . S
C152 H129 0.947 . S
C152 C151 1.391 . S
C152 C153 1.392 . S
C153 H130 0.948 . S
C153 C152 1.392 . S
C153 C154 1.419 . S
C154 C153 1.419 . S
C154 C155 1.391 . S
C154 C158 1.397 . S
C155 C150 1.391 . S
C155 C154 1.391 . S
C155 C156 1.399 1_556 S
C156 C155 1.399 1_554 S
C156 C157 1.396 . S
C156 C159 1.453 . S
C156 C160 1.684 . S
C157 C147 1.723 . S
C157 C156 1.396 . S
C157 C158 1.394 1_554 S
C158 C128 1.723 . S
C158 C154 1.397 . S
C158 C157 1.394 1_556 S
C159 H131 0.982 . S
C159 H135 0.979 . S
C159 H136 0.977 . S
C159 C156 1.453 . S
C160 H132 0.979 . S
C160 H133 0.980 . S
C160 H134 0.983 . S
C160 C156 1.684 . S
H161 C179 0.948 1_554 S
H162 C120 0.948 . S
H163 C138 0.979 . S
H164 C138 0.980 . S
H165 C138 0.983 . S
H166 C137 0.982 . S
H167 C137 0.979 . S
H168 C137 0.977 . S
H169 C139 0.948 . S
H170 C141 0.947 . S
H171 C142 0.948 . S
H172 C148 0.982 . S
H173 C148 0.979 . S
H174 C148 0.977 . S
H175 C149 0.979 . S
H176 C149 0.980 . S
H177 C149 0.983 . S
H178 C122 0.947 . S
C179 C122 1.392 . S
C179 C123 1.419 . S
C179 H161 0.948 1_556 S
C180 C181 1.391 . S
C180 C184 1.391 . S
C180 H222 0.948 . S
C181 C180 1.391 . S
C181 C182 1.391 . S
C182 C181 1.391 . S
C182 H238 0.947 . S
C182 C239 1.392 . S
C183 C184 1.391 . S
C183 C187 1.397 . S
C183 C239 1.419 . S
C184 C180 1.391 . S
C184 C183 1.391 . S
C184 C185 1.399 . S
C185 C184 1.399 . S
C185 C188 1.396 . S
C185 C197 1.453 . S
C185 C198 1.684 . S
H186 C210 0.948 . S
C187 C183 1.397 . S
C187 C188 1.394 . S
C187 C206 1.723 . S
C188 C185 1.396 . S
C188 C187 1.394 . S
C188 C218 1.723 . S
H189 C212 0.947 . S
H190 C213 0.948 . S
H191 C219 0.982 . S
H192 C220 0.979 . S
H193 C220 0.980 . S
H194 C220 0.983 . S
H195 C219 0.979 . S
H196 C219 0.977 . S
C197 C185 1.453 . S
C197 H226 0.982 . S
C197 H227 0.979 . S
C197 H228 0.977 . S
C198 C185 1.684 . S
C198 H223 0.979 . S
C198 H224 0.980 . S
C198 H225 0.983 . S
C199 C200 1.391 . S
C199 C204 1.391 . S
C199 H229 0.948 . S
C200 C199 1.391 . S
C200 C201 1.391 . S
C201 C200 1.391 . S
C201 C202 1.392 . S
C201 H230 0.947 . S
C202 C201 1.392 . S
C202 C203 1.419 . S
C202 H231 0.948 . S
C203 C202 1.419 . S
C203 C204 1.391 . S
C203 C207 1.397 . S
C204 C199 1.391 . S
C204 C203 1.391 . S
C204 C205 1.399 . S
C205 C204 1.399 . S
C205 C206 1.396 . S
C205 C208 1.453 . S
C205 C209 1.684 . S
C206 C187 1.723 . S
C206 C205 1.396 . S
C206 C207 1.394 . S
C207 C203 1.397 . S
C207 C206 1.394 . S
C207 C217 1.723 . S
C208 C205 1.453 . S
C208 H232 0.982 . S
C208 H233 0.979 . S
C208 H234 0.977 . S
C209 C205 1.684 . S
C209 H235 0.979 . S
C209 H236 0.980 . S
C209 H237 0.983 . S
C210 H186 0.948 . S
C210 C211 1.391 . S
C210 C215 1.391 . S
C211 C210 1.391 . S
C211 C212 1.391 . S
C212 H189 0.947 . S
C212 C211 1.391 . S
C212 C213 1.392 . S
C213 H190 0.948 . S
C213 C212 1.392 . S
C213 C214 1.419 . S
C214 C213 1.419 . S
C214 C215 1.391 . S
C214 C218 1.397 . S
C215 C210 1.391 . S
C215 C214 1.391 . S
C215 C216 1.399 . S
C216 C215 1.399 . S
C216 C217 1.396 . S
C216 C219 1.453 . S
C216 C220 1.684 . S
C217 C207 1.723 . S
C217 C216 1.396 . S
C217 C218 1.394 . S
C218 C188 1.723 . S
C218 C214 1.397 . S
C218 C217 1.394 . S
C219 H191 0.982 . S
C219 H195 0.979 . S
C219 H196 0.977 . S
C219 C216 1.453 . S
C220 H192 0.979 . S
C220 H193 0.980 . S
C220 H194 0.983 . S
C220 C216 1.684 . S
H221 C239 0.948 . S
H222 C180 0.948 . S
H223 C198 0.979 . S
H224 C198 0.980 . S
H225 C198 0.983 . S
H226 C197 0.982 . S
H227 C197 0.979 . S
H228 C197 0.977 . S
H229 C199 0.948 . S
H230 C201 0.947 . S
H231 C202 0.948 . S
H232 C208 0.982 . S
H233 C208 0.979 . S
H234 C208 0.977 . S
H235 C209 0.979 . S
H236 C209 0.980 . S
H237 C209 0.983 . S
H238 C182 0.947 . S
C239 C182 1.392 . S
C239 C183 1.419 . S
C239 H221 0.948 . S
C240 C241 1.391 . S
C240 C244 1.391 . S
C240 H282 0.948 . S
C241 C240 1.391 . S
C241 C242 1.391 . S
C242 C241 1.391 . S
C242 H298 0.947 . S
C242 C299 1.392 . S
C243 C244 1.391 . S
C243 C247 1.397 . S
C243 C299 1.419 . S
C244 C240 1.391 . S
C244 C243 1.391 . S
C244 C245 1.399 . S
C245 C244 1.399 . S
C245 C248 1.396 . S
C245 C257 1.453 . S
C245 C258 1.684 . S
H246 C270 0.948 . S
C247 C243 1.397 . S
C247 C248 1.394 . S
C247 C266 1.723 . S
C248 C245 1.396 . S
C248 C247 1.394 . S
C248 C278 1.723 . S
H249 C272 0.947 1_554 S
H250 C273 0.948 . S
H251 C279 0.982 . S
H252 C280 0.979 . S
H253 C280 0.980 . S
H254 C280 0.983 . S
H255 C279 0.979 . S
H256 C279 0.977 . S
C257 C245 1.453 . S
C257 H286 0.982 . S
C257 H287 0.979 . S
C257 H288 0.977 . S
C258 C245 1.684 . S
C258 H283 0.979 . S
C258 H284 0.980 . S
C258 H285 0.983 . S
C259 C260 1.391 . S
C259 C264 1.391 . S
C259 H289 0.948 . S
C260 C259 1.391 . S
C260 C261 1.391 . S
C261 C260 1.391 . S
C261 C262 1.392 . S
C261 H290 0.947 . S
C262 C261 1.392 . S
C262 C263 1.419 . S
C262 H291 0.948 . S
C263 C262 1.419 . S
C263 C264 1.391 . S
C263 C267 1.397 . S
C264 C259 1.391 . S
C264 C263 1.391 . S
C264 C265 1.399 1_556 S
C265 C264 1.399 1_554 S
C265 C266 1.396 . S
C265 C268 1.453 . S
C265 C269 1.684 . S
C266 C247 1.723 . S
C266 C265 1.396 . S
C266 C267 1.394 1_554 S
C267 C263 1.397 . S
C267 C266 1.394 1_556 S
C267 C277 1.723 . S
C268 C265 1.453 . S
C268 H292 0.982 . S
C268 H293 0.979 . S
C268 H294 0.977 . S
C269 C265 1.684 . S
C269 H295 0.979 . S
C269 H296 0.980 . S
C269 H297 0.983 . S
C270 H246 0.948 . S
C270 C271 1.391 . S
C270 C275 1.391 . S
C271 C270 1.391 . S
C271 C272 1.391 . S
C272 H249 0.947 1_556 S
C272 C271 1.391 . S
C272 C273 1.392 1_556 S
C273 H250 0.948 . S
C273 C272 1.392 1_554 S
C273 C274 1.419 1_554 S
C274 C273 1.419 1_556 S
C274 C275 1.391 . S
C274 C278 1.397 1_556 S
C275 C270 1.391 . S
C275 C274 1.391 . S
C275 C276 1.399 . S
C276 C275 1.399 . S
C276 C277 1.396 . S
C276 C279 1.453 . S
C276 C280 1.684 . S
C277 C267 1.723 . S
C277 C276 1.396 . S
C277 C278 1.394 1_556 S
C278 C248 1.723 . S
C278 C274 1.397 1_554 S
C278 C277 1.394 1_554 S
C279 H251 0.982 . S
C279 H255 0.979 . S
C279 H256 0.977 . S
C279 C276 1.453 . S
C280 H252 0.979 . S
C280 H253 0.980 . S
C280 H254 0.983 . S
C280 C276 1.684 . S
H281 C299 0.948 . S
H282 C240 0.948 . S
H283 C258 0.979 . S
H284 C258 0.980 . S
H285 C258 0.983 . S
H286 C257 0.982 . S
H287 C257 0.979 . S
H288 C257 0.977 . S
H289 C259 0.948 . S
H290 C261 0.947 . S
H291 C262 0.948 . S
H292 C268 0.982 . S
H293 C268 0.979 . S
H294 C268 0.977 . S
H295 C269 0.979 . S
H296 C269 0.980 . S
H297 C269 0.983 . S
H298 C242 0.947 . S
C299 C242 1.392 . S
C299 C243 1.419 . S
C299 H281 0.948 . S
C300 C301 1.391 . S
C300 C304 1.391 . S
C300 H342 0.948 . S
C301 C300 1.391 . S
C301 C302 1.391 . S
C302 C301 1.391 . S
C302 H358 0.947 . S
C302 C359 1.392 . S
C303 C304 1.391 . S
C303 C307 1.397 . S
C303 C359 1.419 . S
C304 C300 1.391 . S
C304 C303 1.391 . S
C304 C305 1.399 . S
C305 C304 1.399 . S
C305 C308 1.396 . S
C305 C317 1.453 . S
C305 C318 1.684 . S
H306 C330 0.948 . S
C307 C303 1.397 . S
C307 C308 1.394 . S
C307 C326 1.723 . S
C308 C305 1.396 . S
C308 C307 1.394 . S
C308 C338 1.723 . S
H309 C332 0.947 . S
H310 C333 0.948 . S
H311 C339 0.982 . S
H312 C340 0.979 . S
H313 C340 0.980 . S
H314 C340 0.983 . S
H315 C339 0.979 . S
H316 C339 0.977 . S
C317 C305 1.453 . S
C317 H346 0.982 . S
C317 H347 0.979 . S
C317 H348 0.977 . S
C318 C305 1.684 . S
C318 H343 0.979 . S
C318 H344 0.980 . S
C318 H345 0.983 . S
C319 C320 1.391 . S
C319 C324 1.391 . S
C319 H349 0.948 . S
C320 C319 1.391 . S
C320 C321 1.391 . S
C321 C320 1.391 . S
C321 C322 1.392 . S
C321 H350 0.947 . S
C322 C321 1.392 . S
C322 C323 1.419 . S
C322 H351 0.948 . S
C323 C322 1.419 . S
C323 C324 1.391 . S
C323 C327 1.397 . S
C324 C319 1.391 . S
C324 C323 1.391 . S
C324 C325 1.399 . S
C325 C324 1.399 . S
C325 C326 1.396 . S
C325 C328 1.453 . S
C325 C329 1.684 . S
C326 C307 1.723 . S
C326 C325 1.396 . S
C326 C327 1.394 . S
C327 C323 1.397 . S
C327 C326 1.394 . S
C327 C337 1.723 . S
C328 C325 1.453 . S
C328 H352 0.982 . S
C328 H353 0.979 . S
C328 H354 0.977 . S
C329 C325 1.684 . S
C329 H355 0.979 . S
C329 H356 0.980 . S
C329 H357 0.983 . S
C330 H306 0.948 . S
C330 C331 1.391 . S
C330 C335 1.391 . S
C331 C330 1.391 . S
C331 C332 1.391 . S
C332 H309 0.947 . S
C332 C331 1.391 . S
C332 C333 1.392 . S
C333 H310 0.948 . S
C333 C332 1.392 . S
C333 C334 1.419 . S
C334 C333 1.419 . S
C334 C335 1.391 . S
C334 C338 1.397 . S
C335 C330 1.391 . S
C335 C334 1.391 . S
C335 C336 1.399 . S
C336 C335 1.399 . S
C336 C337 1.396 . S
C336 C339 1.453 . S
C336 C340 1.684 . S
C337 C327 1.723 . S
C337 C336 1.396 . S
C337 C338 1.394 . S
C338 C308 1.723 . S
C338 C334 1.397 . S
C338 C337 1.394 . S
C339 H311 0.982 . S
C339 H315 0.979 . S
C339 H316 0.977 . S
C339 C336 1.453 . S
C340 H312 0.979 . S
C340 H313 0.980 . S
C340 H314 0.983 . S
C340 C336 1.684 . S
H341 C359 0.948 . S
H342 C300 0.948 . S
H343 C318 0.979 . S
H344 C318 0.980 . S
H345 C318 0.983 . S
H346 C317 0.982 . S
H347 C317 0.979 . S
H348 C317 0.977 . S
H349 C319 0.948 . S
H350 C321 0.947 . S
H351 C322 0.948 . S
H352 C328 0.982 . S
H353 C328 0.979 . S
H354 C328 0.977 . S
H355 C329 0.979 . S
H356 C329 0.980 . S
H357 C329 0.983 . S
H358 C302 0.947 . S
C359 C302 1.392 . S
C359 C303 1.419 . S
C359 H341 0.948 . S
C360 C361 1.391 . S
C360 C364 1.391 . S
C360 H402 0.948 . S
C361 C360 1.391 . S
C361 C362 1.391 . S
C362 C361 1.391 . S
C362 H418 0.947 1_565 S
C362 C419 1.392 . S
C363 C364 1.391 . S
C363 C367 1.397 . S
C363 C419 1.419 . S
C364 C360 1.391 . S
C364 C363 1.391 . S
C364 C365 1.399 . S
C365 C364 1.399 . S
C365 C368 1.396 . S
C365 C377 1.453 . S
C365 C378 1.684 . S
H366 C390 0.948 . S
C367 C363 1.397 . S
C367 C368 1.394 . S
C367 C386 1.723 1_556 S
C368 C365 1.396 . S
C368 C367 1.394 . S
C368 C398 1.723 . S
H369 C392 0.947 . S
H370 C393 0.948 . S
H371 C399 0.982 . S
H372 C400 0.979 . S
H373 C400 0.980 . S
H374 C400 0.983 . S
H375 C399 0.979 . S
H376 C399 0.977 . S
C377 C365 1.453 . S
C377 H406 0.982 . S
C377 H407 0.979 . S
C377 H408 0.977 . S
C378 C365 1.684 . S
C378 H403 0.979 . S
C378 H404 0.980 . S
C378 H405 0.983 . S
C379 C380 1.391 . S
C379 C384 1.391 . S
C379 H409 0.948 . S
C380 C379 1.391 . S
C380 C381 1.391 . S
C381 C380 1.391 . S
C381 C382 1.392 . S
C381 H410 0.947 . S
C382 C381 1.392 . S
C382 C383 1.419 . S
C382 H411 0.948 . S
C383 C382 1.419 . S
C383 C384 1.391 . S
C383 C387 1.397 . S
C384 C379 1.391 . S
C384 C383 1.391 . S
C384 C385 1.399 . S
C385 C384 1.399 . S
C385 C386 1.396 . S
C385 C388 1.453 . S
C385 C389 1.684 . S
C386 C367 1.723 1_554 S
C386 C385 1.396 . S
C386 C387 1.394 . S
C387 C383 1.397 . S
C387 C386 1.394 . S
C387 C397 1.723 . S
C388 C385 1.453 . S
C388 H412 0.982 . S
C388 H413 0.979 . S
C388 H414 0.977 . S
C389 C385 1.684 . S
C389 H415 0.979 . S
C389 H416 0.980 . S
C389 H417 0.983 . S
C390 H366 0.948 . S
C390 C391 1.391 . S
C390 C395 1.391 . S
C391 C390 1.391 . S
C391 C392 1.391 . S
C392 H369 0.947 . S
C392 C391 1.391 . S
C392 C393 1.392 . S
C393 H370 0.948 . S
C393 C392 1.392 . S
C393 C394 1.419 . S
C394 C393 1.419 . S
C394 C395 1.391 . S
C394 C398 1.397 . S
C395 C390 1.391 . S
C395 C394 1.391 . S
C395 C396 1.399 1_556 S
C396 C395 1.399 1_554 S
C396 C397 1.396 . S
C396 C399 1.453 . S
C396 C400 1.684 . S
C397 C387 1.723 . S
C397 C396 1.396 . S
C397 C398 1.394 1_554 S
C398 C368 1.723 . S
C398 C394 1.397 . S
C398 C397 1.394 1_556 S
C399 H371 0.982 . S
C399 H375 0.979 . S
C399 H376 0.977 . S
C399 C396 1.453 . S
C400 H372 0.979 . S
C400 H373 0.980 . S
C400 H374 0.983 . S
C400 C396 1.684 . S
H401 C419 0.948 1_554 S
H402 C360 0.948 . S
H403 C378 0.979 . S
H404 C378 0.980 . S
H405 C378 0.983 . S
H406 C377 0.982 . S
H407 C377 0.979 . S
H408 C377 0.977 . S
H409 C379 0.948 . S
H410 C381 0.947 . S
H411 C382 0.948 . S
H412 C388 0.982 . S
H413 C388 0.979 . S
H414 C388 0.977 . S
H415 C389 0.979 . S
H416 C389 0.980 . S
H417 C389 0.983 . S
H418 C362 0.947 1_545 S
C419 C362 1.392 . S
C419 C363 1.419 . S
C419 H401 0.948 1_556 S
C420 C421 1.391 . S
C420 C424 1.391 . S
C420 H462 0.948 . S
C421 C420 1.391 . S
C421 C422 1.391 . S
C422 C421 1.391 . S
C422 H478 0.947 . S
C422 C479 1.392 . S
C423 C424 1.391 . S
C423 C427 1.397 . S
C423 C479 1.419 . S
C424 C420 1.391 . S
C424 C423 1.391 . S
C424 C425 1.399 . S
C425 C424 1.399 . S
C425 C428 1.396 . S
C425 C437 1.453 . S
C425 C438 1.684 . S
H426 C450 0.952 . S
C427 C423 1.397 . S
C427 C428 1.394 . S
C427 C446 1.723 . S
C428 C425 1.396 . S
C428 C427 1.394 . S
C428 C458 1.723 . S
H429 C452 0.947 . S
H430 C453 0.948 . S
H431 C459 0.982 . S
H432 C460 0.979 . S
H433 C460 0.980 . S
H434 C460 0.983 . S
H435 C459 0.979 . S
H436 C459 0.977 . S
C437 C425 1.453 . S
C437 H466 0.982 . S
C437 H467 0.979 . S
C437 H468 0.977 . S
C438 C425 1.684 . S
C438 H463 0.979 . S
C438 H464 0.980 . S
C438 H465 0.983 . S
C439 C440 1.391 . S
C439 C444 1.391 . S
C439 H469 0.948 . S
C440 C439 1.391 . S
C440 C441 1.391 . S
C441 C440 1.391 . S
C441 C442 1.392 . S
C441 H470 0.947 . S
C442 C441 1.392 . S
C442 C443 1.419 . S
C442 H471 0.948 . S
C443 C442 1.419 . S
C443 C444 1.391 . S
C443 C447 1.397 . S
C444 C439 1.391 . S
C444 C443 1.391 . S
C444 C445 1.399 . S
C445 C444 1.399 . S
C445 C446 1.396 . S
C445 C448 1.453 . S
C445 C449 1.684 . S
C446 C427 1.723 . S
C446 C445 1.396 . S
C446 C447 1.394 . S
C447 C443 1.397 . S
C447 C446 1.394 . S
C447 C457 1.723 . S
C448 C445 1.453 . S
C448 H472 0.982 . S
C448 H473 0.979 . S
C448 H474 0.977 . S
C449 C445 1.684 . S
C449 H475 0.979 . S
C449 H476 0.980 . S
C449 H477 0.983 . S
C450 H426 0.952 . S
C450 C451 1.404 . S
C450 C455 1.391 . S
C451 C450 1.404 . S
C451 C452 1.410 . S
C452 H429 0.947 . S
C452 C451 1.410 . S
C452 C453 1.392 . S
C453 H430 0.948 . S
C453 C452 1.392 . S
C453 C454 1.419 . S
C454 C453 1.419 . S
C454 C455 1.391 . S
C454 C458 1.397 . S
C455 C450 1.391 . S
C455 C454 1.391 . S
C455 C456 1.399 . S
C456 C455 1.399 . S
C456 C457 1.396 . S
C456 C459 1.453 . S
C456 C460 1.684 . S
C457 C447 1.723 . S
C457 C456 1.396 . S
C457 C458 1.394 . S
C458 C428 1.723 . S
C458 C454 1.397 . S
C458 C457 1.394 . S
C459 H431 0.982 . S
C459 H435 0.979 . S
C459 H436 0.977 . S
C459 C456 1.453 . S
C460 H432 0.979 . S
C460 H433 0.980 . S
C460 H434 0.983 . S
C460 C456 1.684 . S
H461 C479 0.948 . S
H462 C420 0.948 . S
H463 C438 0.979 . S
H464 C438 0.980 . S
H465 C438 0.983 . S
H466 C437 0.982 . S
H467 C437 0.979 . S
H468 C437 0.977 . S
H469 C439 0.948 . S
H470 C441 0.947 . S
H471 C442 0.948 . S
H472 C448 0.982 . S
H473 C448 0.979 . S
H474 C448 0.977 . S
H475 C449 0.979 . S
H476 C449 0.980 . S
H477 C449 0.983 . S
H478 C422 0.947 . S
C479 C422 1.392 . S
C479 C423 1.419 . S
C479 H461 0.948 . S
Sc480 O483 2.025 . S
Sc480 O490 2.105 1_455 S
Sc480 O493 2.105 . S
Sc480 O496 2.105 . S
Sc480 O499 2.105 1_455 S
Sc481 O483 2.025 . S
Sc481 O491 2.105 1_455 S
Sc481 O495 2.105 . S
Sc481 O497 2.105 . S
Sc481 O501 2.105 1_455 S
Sc482 O483 2.025 . S
Sc482 O492 2.105 1_455 S
Sc482 O494 2.105 . S
Sc482 O498 2.105 . S
Sc482 O500 2.105 1_455 S
O483 Sc480 2.025 . S
O483 Sc481 2.025 . S
O483 Sc482 2.025 . S
C484 O490 1.268 . S
C484 O500 1.268 . S
C485 O491 1.268 . S
C485 O499 1.268 . S
C486 O492 1.268 . S
C486 O501 1.268 . S
C487 O493 1.268 . S
C487 O497 1.268 . S
C488 O494 1.268 . S
C488 O496 1.268 . S
C489 O495 1.268 . S
C489 O498 1.268 . S
O490 Sc480 2.105 1_655 S
O490 C484 1.268 . S
O491 Sc481 2.105 1_655 S
O491 C485 1.268 . S
O492 Sc482 2.105 1_655 S
O492 C486 1.268 . S
O493 Sc480 2.105 . S
O493 C487 1.268 . S
O494 Sc482 2.105 . S
O494 C488 1.268 . S
O495 Sc481 2.105 . S
O495 C489 1.268 . S
O496 Sc480 2.105 . S
O496 C488 1.268 . S
O497 Sc481 2.105 . S
O497 C487 1.268 . S
O498 Sc482 2.105 . S
O498 C489 1.268 . S
O499 Sc480 2.105 1_655 S
O499 C485 1.268 . S
O500 Sc482 2.105 1_655 S
O500 C484 1.268 . S
O501 Sc481 2.105 1_655 S
O501 C486 1.268 . S
Sc502 O505 2.025 . S
Sc502 O512 2.105 . S
Sc502 O515 2.105 1_455 S
Sc502 O518 2.105 1_455 S
Sc502 O521 2.105 . S
Sc503 O505 2.025 . S
Sc503 O513 2.105 . S
Sc503 O517 2.105 1_455 S
Sc503 O519 2.105 1_455 S
Sc503 O523 2.105 . S
Sc504 O505 2.025 . S
Sc504 O514 2.105 . S
Sc504 O516 2.105 1_455 S
Sc504 O520 2.105 1_455 S
Sc504 O522 2.105 . S
O505 Sc502 2.025 . S
O505 Sc503 2.025 . S
O505 Sc504 2.025 . S
C506 O512 1.268 . S
C506 O522 1.268 . S
C507 O513 1.268 . S
C507 O521 1.268 . S
C508 O514 1.268 . S
C508 O523 1.268 . S
C509 O515 1.268 . S
C509 O519 1.268 . S
C510 O516 1.268 . S
C510 O518 1.268 . S
C511 O517 1.268 . S
C511 O520 1.268 . S
O512 Sc502 2.105 . S
O512 C506 1.268 . S
O513 Sc503 2.105 . S
O513 C507 1.268 . S
O514 Sc504 2.105 . S
O514 C508 1.268 . S
O515 Sc502 2.105 1_655 S
O515 C509 1.268 . S
O516 Sc504 2.105 1_655 S
O516 C510 1.268 . S
O517 Sc503 2.105 1_655 S
O517 C511 1.268 . S
O518 Sc502 2.105 1_655 S
O518 C510 1.268 . S
O519 Sc503 2.105 1_655 S
O519 C509 1.268 . S
O520 Sc504 2.105 1_655 S
O520 C511 1.268 . S
O521 Sc502 2.105 . S
O521 C507 1.268 . S
O522 Sc504 2.105 . S
O522 C506 1.268 . S
O523 Sc503 2.105 . S
O523 C508 1.268 . S
Sc524 O527 2.025 . S
Sc524 O534 2.105 . S
Sc524 O537 2.105 . S
Sc524 O540 2.105 . S
Sc524 O543 2.105 . S
Sc525 O527 2.025 . S
Sc525 O535 2.105 . S
Sc525 O539 2.105 . S
Sc525 O541 2.105 . S
Sc525 O545 2.105 . S
Sc526 O527 2.025 . S
Sc526 O536 2.105 . S
Sc526 O538 2.105 . S
Sc526 O542 2.105 . S
Sc526 O544 2.105 . S
O527 Sc524 2.025 . S
O527 Sc525 2.025 . S
O527 Sc526 2.025 . S
C528 O534 1.268 . S
C528 O544 1.268 . S
C529 O535 1.268 . S
C529 O543 1.268 . S
C530 O536 1.268 . S
C530 O545 1.268 . S
C531 O537 1.268 . S
C531 O541 1.268 . S
C532 O538 1.268 . S
C532 O540 1.268 . S
C533 O539 1.268 . S
C533 O542 1.268 . S
O534 Sc524 2.105 . S
O534 C528 1.268 . S
O535 Sc525 2.105 . S
O535 C529 1.268 . S
O536 Sc526 2.105 . S
O536 C530 1.268 . S
O537 Sc524 2.105 . S
O537 C531 1.268 . S
O538 Sc526 2.105 . S
O538 C532 1.268 . S
O539 Sc525 2.105 . S
O539 C533 1.268 . S
O540 Sc524 2.105 . S
O540 C532 1.268 . S
O541 Sc525 2.105 . S
O541 C531 1.268 . S
O542 Sc526 2.105 . S
O542 C533 1.268 . S
O543 Sc524 2.105 . S
O543 C529 1.268 . S
O544 Sc526 2.105 . S
O544 C528 1.268 . S
O545 Sc525 2.105 . S
O545 C530 1.268 . S
Sc546 O549 2.025 . S
Sc546 O556 2.105 . S
Sc546 O559 2.105 . S
Sc546 O562 2.105 . S
Sc546 O565 2.105 . S
Sc547 O549 2.025 . S
Sc547 O557 2.105 . S
Sc547 O561 2.105 . S
Sc547 O563 2.105 . S
Sc547 O567 2.105 . S
Sc548 O549 2.025 . S
Sc548 O558 2.105 . S
Sc548 O560 2.105 . S
Sc548 O564 2.105 . S
Sc548 O566 2.105 . S
O549 Sc546 2.025 . S
O549 Sc547 2.025 . S
O549 Sc548 2.025 . S
C550 O556 1.268 . S
C550 O566 1.268 . S
C551 O557 1.268 . S
C551 O565 1.268 . S
C552 O558 1.268 . S
C552 O567 1.268 . S
C553 O559 1.268 . S
C553 O563 1.268 . S
C554 O560 1.268 . S
C554 O562 1.268 . S
C555 O561 1.268 . S
C555 O564 1.268 . S
O556 Sc546 2.105 . S
O556 C550 1.268 . S
O557 Sc547 2.105 . S
O557 C551 1.268 . S
O558 Sc548 2.105 . S
O558 C552 1.268 . S
O559 Sc546 2.105 . S
O559 C553 1.268 . S
O560 Sc548 2.105 . S
O560 C554 1.268 . S
O561 Sc547 2.105 . S
O561 C555 1.268 . S
O562 Sc546 2.105 . S
O562 C554 1.268 . S
O563 Sc547 2.105 . S
O563 C553 1.268 . S
O564 Sc548 2.105 . S
O564 C555 1.268 . S
O565 Sc546 2.105 . S
O565 C551 1.268 . S
O566 Sc548 2.105 . S
O566 C550 1.268 . S
O567 Sc547 2.105 . S
O567 C552 1.268 . S
H568 C574 0.930 . S
H569 C578 0.930 . S
H570 C583 0.929 . S
H571 C581 0.929 . S
H572 C576 0.929 . S
H573 C582 0.929 . S
C574 H568 0.930 . S
C574 C575 1.367 . S
C574 C582 1.378 . S
C575 C574 1.367 . S
C575 C583 1.433 . S
C576 H572 0.929 . S
C576 C578 1.378 . S
C576 C580 1.350 . S
C577 C580 1.463 . S
C577 C582 1.350 . S
C577 N585 1.427 . S
C578 H569 0.930 . S
C578 C576 1.378 . S
C578 C579 1.367 . S
C579 C578 1.367 . S
C579 C581 1.433 . S
C580 C576 1.350 . S
C580 C577 1.463 . S
C580 N584 1.427 . S
C581 H571 0.929 . S
C581 C579 1.433 . S
C581 N584 1.384 . S
C582 H573 0.929 . S
C582 C574 1.378 . S
C582 C577 1.350 . S
C583 H570 0.929 . S
C583 C575 1.433 . S
C583 N585 1.384 . S
N584 C580 1.427 . S
N584 C581 1.384 . S
N585 C577 1.427 . S
N585 C583 1.384 . S
H586 C592 0.930 . S
H587 C596 0.930 . S
H588 C601 0.929 . S
H589 C599 0.929 . S
H590 C594 0.929 . S
H591 C600 0.929 . S
C592 H586 0.930 . S
C592 C593 1.367 . S
C592 C600 1.378 . S
C593 C592 1.367 . S
C593 C601 1.433 . S
C594 H590 0.929 . S
C594 C596 1.378 . S
C594 C598 1.350 . S
C595 C598 1.463 . S
C595 C600 1.350 . S
C595 N603 1.427 . S
C596 H587 0.930 . S
C596 C594 1.378 . S
C596 C597 1.367 . S
C597 C596 1.367 . S
C597 C599 1.433 . S
C598 C594 1.350 . S
C598 C595 1.463 . S
C598 N602 1.427 . S
C599 H589 0.929 . S
C599 C597 1.433 . S
C599 N602 1.384 . S
C600 H591 0.929 . S
C600 C592 1.378 . S
C600 C595 1.350 . S
C601 H588 0.929 . S
C601 C593 1.433 . S
C601 N603 1.384 . S
N602 C598 1.427 . S
N602 C599 1.384 . S
N603 C595 1.427 . S
N603 C601 1.384 . S
H604 C610 0.930 . S
H605 C614 0.930 . S
H606 C619 0.929 . S
H607 C617 0.929 . S
H608 C612 0.929 . S
H609 C618 0.929 . S
C610 H604 0.930 . S
C610 C611 1.367 . S
C610 C618 1.378 . S
C611 C610 1.367 . S
C611 C619 1.433 . S
C612 H608 0.929 . S
C612 C614 1.378 . S
C612 C616 1.350 . S
C613 C616 1.463 . S
C613 C618 1.350 . S
C613 N621 1.427 . S
C614 H605 0.930 . S
C614 C612 1.378 . S
C614 C615 1.367 . S
C615 C614 1.367 . S
C615 C617 1.433 . S
C616 C612 1.350 . S
C616 C613 1.463 . S
C616 N620 1.427 . S
C617 H607 0.929 . S
C617 C615 1.433 . S
C617 N620 1.384 . S
C618 H609 0.929 . S
C618 C610 1.378 . S
C618 C613 1.350 . S
C619 H606 0.929 . S
C619 C611 1.433 . S
C619 N621 1.384 . S
N620 C616 1.427 . S
N620 C617 1.384 . S
N621 C613 1.427 . S
N621 C619 1.384 . S
H622 C628 0.930 . S
H623 C632 0.930 . S
H624 C637 0.929 . S
H625 C635 0.929 . S
H626 C630 0.929 . S
H627 C636 0.929 . S
C628 H622 0.930 . S
C628 C629 1.367 . S
C628 C636 1.378 . S
C629 C628 1.367 . S
C629 C637 1.433 . S
C630 H626 0.929 . S
C630 C632 1.378 . S
C630 C634 1.350 . S
C631 C634 1.463 . S
C631 C636 1.350 . S
C631 N639 1.427 . S
C632 H623 0.930 . S
C632 C630 1.378 . S
C632 C633 1.367 . S
C633 C632 1.367 . S
C633 C635 1.433 . S
C634 C630 1.350 . S
C634 C631 1.463 . S
C634 N638 1.427 . S
C635 H625 0.929 . S
C635 C633 1.433 . S
C635 N638 1.384 . S
C636 H627 0.929 . S
C636 C628 1.378 . S
C636 C631 1.350 . S
C637 H624 0.929 . S
C637 C629 1.433 . S
C637 N639 1.384 . S
N638 C634 1.427 . S
N638 C635 1.384 . S
N639 C631 1.427 . S
N639 C637 1.384 . S
H640 C646 0.930 . S
H641 C650 0.930 . S
H642 C655 0.929 . S
H643 C653 0.929 . S
H644 C648 0.929 . S
H645 C654 0.929 . S
C646 H640 0.930 . S
C646 C647 1.367 . S
C646 C654 1.378 . S
C647 C646 1.367 . S
C647 C655 1.433 . S
C648 H644 0.929 . S
C648 C650 1.378 . S
C648 C652 1.350 . S
C649 C652 1.463 . S
C649 C654 1.350 . S
C649 N657 1.427 . S
C650 H641 0.930 . S
C650 C648 1.378 . S
C650 C651 1.367 . S
C651 C650 1.367 . S
C651 C653 1.433 . S
C652 C648 1.350 . S
C652 C649 1.463 . S
C652 N656 1.427 . S
C653 H643 0.929 . S
C653 C651 1.433 . S
C653 N656 1.384 . S
C654 H645 0.929 . S
C654 C646 1.378 . S
C654 C649 1.350 . S
C655 H642 0.929 . S
C655 C647 1.433 . S
C655 N657 1.384 . S
N656 C652 1.427 . S
N656 C653 1.384 . S
N657 C649 1.427 . S
N657 C655 1.384 . S
H658 C664 0.930 . S
H659 C668 0.930 . S
H660 C673 0.929 . S
H661 C671 0.929 . S
H662 C666 0.929 . S
H663 C672 0.929 . S
C664 H658 0.930 . S
C664 C665 1.367 . S
C664 C672 1.378 . S
C665 C664 1.367 . S
C665 C673 1.433 . S
C666 H662 0.929 . S
C666 C668 1.378 . S
C666 C670 1.350 . S
C667 C670 1.463 . S
C667 C672 1.350 . S
C667 N675 1.427 . S
C668 H659 0.930 . S
C668 C666 1.378 . S
C668 C669 1.367 . S
C669 C668 1.367 . S
C669 C671 1.433 . S
C670 C666 1.350 . S
C670 C667 1.463 . S
C670 N674 1.427 . S
C671 H661 0.929 . S
C671 C669 1.433 . S
C671 N674 1.384 . S
C672 H663 0.929 . S
C672 C664 1.378 . S
C672 C667 1.350 . S
C673 H660 0.929 . S
C673 C665 1.433 . S
C673 N675 1.384 . S
N674 C670 1.427 . S
N674 C671 1.384 . S
N675 C667 1.427 . S
N675 C673 1.384 . S
H676 C682 0.930 . S
H677 C686 0.930 . S
H678 C691 0.929 . S
H679 C689 0.929 . S
H680 C684 0.929 . S
H681 C690 0.929 . S
C682 H676 0.930 . S
C682 C683 1.367 . S
C682 C690 1.378 . S
C683 C682 1.367 . S
C683 C691 1.433 . S
C684 H680 0.929 . S
C684 C686 1.378 . S
C684 C688 1.350 . S
C685 C688 1.463 . S
C685 C690 1.350 . S
C685 N693 1.427 . S
C686 H677 0.930 . S
C686 C684 1.378 . S
C686 C687 1.367 . S
C687 C686 1.367 . S
C687 C689 1.433 . S
C688 C684 1.350 . S
C688 C685 1.463 . S
C688 N692 1.427 . S
C689 H679 0.929 . S
C689 C687 1.433 . S
C689 N692 1.384 . S
C690 H681 0.929 . S
C690 C682 1.378 . S
C690 C685 1.350 . S
C691 H678 0.929 . S
C691 C683 1.433 . S
C691 N693 1.384 . S
N692 C688 1.427 . S
N692 C689 1.384 . S
N693 C685 1.427 . S
N693 C691 1.384 . S
H694 C700 0.930 . S
H695 C704 0.930 . S
H696 C709 0.929 . S
H697 C707 0.929 . S
H698 C702 0.929 . S
H699 C708 0.929 . S
C700 H694 0.930 . S
C700 C701 1.367 . S
C700 C708 1.378 . S
C701 C700 1.367 . S
C701 C709 1.433 . S
C702 H698 0.929 . S
C702 C704 1.378 . S
C702 C706 1.350 . S
C703 C706 1.463 . S
C703 C708 1.350 . S
C703 N711 1.427 . S
C704 H695 0.930 . S
C704 C702 1.378 . S
C704 C705 1.367 . S
C705 C704 1.367 . S
C705 C707 1.433 . S
C706 C702 1.350 . S
C706 C703 1.463 . S
C706 N710 1.427 . S
C707 H697 0.929 . S
C707 C705 1.433 . S
C707 N710 1.384 . S
C708 H699 0.929 . S
C708 C700 1.378 . S
C708 C703 1.350 . S
C709 H696 0.929 . S
C709 C701 1.433 . S
C709 N711 1.384 . S
N710 C706 1.427 . S
N710 C707 1.384 . S
N711 C703 1.427 . S
N711 C709 1.384 . S
H712 C718 0.930 . S
H713 C722 0.930 . S
H714 C727 0.929 . S
H715 C725 0.929 . S
H716 C720 0.929 . S
H717 C726 0.929 . S
C718 H712 0.930 . S
C718 C719 1.367 . S
C718 C726 1.378 . S
C719 C718 1.367 . S
C719 C727 1.433 . S
C720 H716 0.929 . S
C720 C722 1.378 . S
C720 C724 1.350 . S
C721 C724 1.463 . S
C721 C726 1.350 . S
C721 N729 1.427 . S
C722 H713 0.930 . S
C722 C720 1.378 . S
C722 C723 1.367 . S
C723 C722 1.367 . S
C723 C725 1.433 . S
C724 C720 1.350 . S
C724 C721 1.463 . S
C724 N728 1.427 . S
C725 H715 0.929 . S
C725 C723 1.433 . S
C725 N728 1.384 . S
C726 H717 0.929 . S
C726 C718 1.378 . S
C726 C721 1.350 . S
C727 H714 0.929 . S
C727 C719 1.433 . S
C727 N729 1.384 . S
N728 C724 1.427 . S
N728 C725 1.384 . S
N729 C721 1.427 . S
N729 C727 1.384 . S
H730 C736 0.930 . S
H731 C740 0.930 . S
H732 C745 0.929 . S
H733 C743 0.929 . S
H734 C738 0.929 . S
H735 C744 0.929 . S
C736 H730 0.930 . S
C736 C737 1.367 . S
C736 C744 1.378 . S
C737 C736 1.367 . S
C737 C745 1.433 . S
C738 H734 0.929 . S
C738 C740 1.378 . S
C738 C742 1.350 . S
C739 C742 1.463 . S
C739 C744 1.350 . S
C739 N747 1.427 . S
C740 H731 0.930 . S
C740 C738 1.378 . S
C740 C741 1.367 . S
C741 C740 1.367 . S
C741 C743 1.433 . S
C742 C738 1.350 . S
C742 C739 1.463 . S
C742 N746 1.427 . S
C743 H733 0.929 . S
C743 C741 1.433 . S
C743 N746 1.384 . S
C744 H735 0.929 . S
C744 C736 1.378 . S
C744 C739 1.350 . S
C745 H732 0.929 . S
C745 C737 1.433 . S
C745 N747 1.384 . S
N746 C742 1.427 . S
N746 C743 1.384 . S
N747 C739 1.427 . S
N747 C745 1.384 . S
H748 C754 0.930 . S
H749 C758 0.930 . S
H750 C763 0.929 . S
H751 C761 0.929 . S
H752 C756 0.929 . S
H753 C762 0.929 . S
C754 H748 0.930 . S
C754 C755 1.367 . S
C754 C762 1.378 . S
C755 C754 1.367 . S
C755 C763 1.433 . S
C756 H752 0.929 . S
C756 C758 1.378 . S
C756 C760 1.350 . S
C757 C760 1.463 . S
C757 C762 1.350 . S
C757 N765 1.427 . S
C758 H749 0.930 . S
C758 C756 1.378 . S
C758 C759 1.367 . S
C759 C758 1.367 . S
C759 C761 1.433 . S
C760 C756 1.350 . S
C760 C757 1.463 . S
C760 N764 1.427 . S
C761 H751 0.929 . S
C761 C759 1.433 . S
C761 N764 1.384 . S
C762 H753 0.929 . S
C762 C754 1.378 . S
C762 C757 1.350 . S
C763 H750 0.929 . S
C763 C755 1.433 . S
C763 N765 1.384 . S
N764 C760 1.427 . S
N764 C761 1.384 . S
N765 C757 1.427 . S
N765 C763 1.384 . S
H766 C772 0.930 . S
H767 C776 0.930 . S
H768 C781 0.929 . S
H769 C779 0.929 . S
H770 C774 0.929 . S
H771 C780 0.929 . S
C772 H766 0.930 . S
C772 C773 1.367 . S
C772 C780 1.378 . S
C773 C772 1.367 . S
C773 C781 1.433 . S
C774 H770 0.929 . S
C774 C776 1.378 . S
C774 C778 1.350 . S
C775 C778 1.463 . S
C775 C780 1.350 . S
C775 N783 1.427 . S
C776 H767 0.930 . S
C776 C774 1.378 . S
C776 C777 1.367 . S
C777 C776 1.367 . S
C777 C779 1.433 . S
C778 C774 1.350 . S
C778 C775 1.463 . S
C778 N782 1.427 . S
C779 H769 0.929 . S
C779 C777 1.433 . S
C779 N782 1.384 . S
C780 H771 0.929 . S
C780 C772 1.378 . S
C780 C775 1.350 . S
C781 H768 0.929 . S
C781 C773 1.433 . S
C781 N783 1.384 . S
N782 C778 1.427 . S
N782 C779 1.384 . S
N783 C775 1.427 . S
N783 C781 1.384 . S
H784 C790 0.930 . S
H785 C794 0.930 . S
H786 C799 0.929 . S
H787 C797 0.929 . S
H788 C792 0.929 . S
H789 C798 0.929 . S
C790 H784 0.930 . S
C790 C791 1.367 . S
C790 C798 1.378 . S
C791 C790 1.367 . S
C791 C799 1.433 . S
C792 H788 0.929 . S
C792 C794 1.378 . S
C792 C796 1.350 . S
C793 C796 1.463 . S
C793 C798 1.350 . S
C793 N801 1.427 . S
C794 H785 0.930 . S
C794 C792 1.378 . S
C794 C795 1.367 . S
C795 C794 1.367 . S
C795 C797 1.433 . S
C796 C792 1.350 . S
C796 C793 1.463 . S
C796 N800 1.427 . S
C797 H787 0.929 . S
C797 C795 1.433 . S
C797 N800 1.384 . S
C798 H789 0.929 . S
C798 C790 1.378 . S
C798 C793 1.350 . S
C799 H786 0.929 . S
C799 C791 1.433 . S
C799 N801 1.384 . S
N800 C796 1.427 . S
N800 C797 1.384 . S
N801 C793 1.427 . S
N801 C799 1.384 . S
H802 C808 0.930 . S
H803 C812 0.930 . S
H804 C817 0.929 . S
H805 C815 0.929 . S
H806 C810 0.929 . S
H807 C816 0.929 . S
C808 H802 0.930 . S
C808 C809 1.367 . S
C808 C816 1.378 . S
C809 C808 1.367 . S
C809 C817 1.433 . S
C810 H806 0.929 . S
C810 C812 1.378 . S
C810 C814 1.350 . S
C811 C814 1.463 . S
C811 C816 1.350 . S
C811 N819 1.427 . S
C812 H803 0.930 . S
C812 C810 1.378 . S
C812 C813 1.367 . S
C813 C812 1.367 . S
C813 C815 1.433 . S
C814 C810 1.350 . S
C814 C811 1.463 . S
C814 N818 1.427 . S
C815 H805 0.929 . S
C815 C813 1.433 . S
C815 N818 1.384 . S
C816 H807 0.929 . S
C816 C808 1.378 . S
C816 C811 1.350 . S
C817 H804 0.929 . S
C817 C809 1.433 . S
C817 N819 1.384 . S
N818 C814 1.427 . S
N818 C815 1.384 . S
N819 C811 1.427 . S
N819 C817 1.384 . S
H820 C826 0.930 1_565 S
H821 C830 0.930 . S
H822 C835 0.929 . S
H823 C833 0.929 . S
H824 C828 0.929 . S
H825 C834 0.929 . S
C826 H820 0.930 1_545 S
C826 C827 1.367 . S
C826 C834 1.378 . S
C827 C826 1.367 . S
C827 C835 1.433 . S
C828 H824 0.929 . S
C828 C830 1.378 . S
C828 C832 1.350 . S
C829 C832 1.463 . S
C829 C834 1.350 . S
C829 N837 1.427 . S
C830 H821 0.930 . S
C830 C828 1.378 . S
C830 C831 1.367 . S
C831 C830 1.367 . S
C831 C833 1.433 . S
C832 C828 1.350 . S
C832 C829 1.463 . S
C832 N836 1.427 . S
C833 H823 0.929 . S
C833 C831 1.433 . S
C833 N836 1.384 . S
C834 H825 0.929 . S
C834 C826 1.378 . S
C834 C829 1.350 . S
C835 H822 0.929 . S
C835 C827 1.433 . S
C835 N837 1.384 . S
N836 C832 1.427 . S
N836 C833 1.384 . S
N837 C829 1.427 . S
N837 C835 1.384 . S
H838 C844 0.930 1_545 S
H839 C848 0.930 . S
H840 C853 0.929 . S
H841 C851 0.929 . S
H842 C846 0.929 . S
H843 C852 0.929 . S
C844 H838 0.930 1_565 S
C844 C845 1.367 . S
C844 C852 1.378 . S
C845 C844 1.367 . S
C845 C853 1.433 . S
C846 H842 0.929 . S
C846 C848 1.378 . S
C846 C850 1.350 . S
C847 C850 1.463 . S
C847 C852 1.350 . S
C847 N855 1.427 . S
C848 H839 0.930 . S
C848 C846 1.378 . S
C848 C849 1.367 . S
C849 C848 1.367 . S
C849 C851 1.433 . S
C850 C846 1.350 . S
C850 C847 1.463 . S
C850 N854 1.427 . S
C851 H841 0.929 . S
C851 C849 1.433 . S
C851 N854 1.384 . S
C852 H843 0.929 . S
C852 C844 1.378 . S
C852 C847 1.350 . S
C853 H840 0.929 . S
C853 C845 1.433 . S
C853 N855 1.384 . S
N854 C850 1.427 . S
N854 C851 1.384 . S
N855 C847 1.427 . S
N855 C853 1.384 . S
H856 C862 0.930 . S
H857 C866 0.930 . S
H858 C871 0.929 . S
H859 C869 0.929 . S
H860 C864 0.929 . S
H861 C870 0.929 . S
C862 H856 0.930 . S
C862 C863 1.367 . S
C862 C870 1.378 . S
C863 C862 1.367 . S
C863 C871 1.433 . S
C864 H860 0.929 . S
C864 C866 1.378 . S
C864 C868 1.350 . S
C865 C868 1.463 . S
C865 C870 1.350 . S
C865 N873 1.427 . S
C866 H857 0.930 . S
C866 C864 1.378 . S
C866 C867 1.367 . S
C867 C866 1.367 . S
C867 C869 1.433 . S
C868 C864 1.350 . S
C868 C865 1.463 . S
C868 N872 1.427 . S
C869 H859 0.929 . S
C869 C867 1.433 . S
C869 N872 1.384 . S
C870 H861 0.929 . S
C870 C862 1.378 . S
C870 C865 1.350 . S
C871 H858 0.929 . S
C871 C863 1.433 . S
C871 N873 1.384 . S
N872 C868 1.427 . S
N872 C869 1.384 . S
N873 C865 1.427 . S
N873 C871 1.384 . S
H874 C880 0.930 . S
H875 C884 0.930 . S
H876 C889 0.929 . S
H877 C887 0.929 . S
H878 C882 0.929 . S
H879 C888 0.929 . S
C880 H874 0.930 . S
C880 C881 1.367 . S
C880 C888 1.378 . S
C881 C880 1.367 . S
C881 C889 1.433 . S
C882 H878 0.929 . S
C882 C884 1.378 . S
C882 C886 1.350 . S
C883 C886 1.463 . S
C883 C888 1.350 . S
C883 N891 1.427 . S
C884 H875 0.930 . S
C884 C882 1.378 . S
C884 C885 1.367 . S
C885 C884 1.367 . S
C885 C887 1.433 . S
C886 C882 1.350 . S
C886 C883 1.463 . S
C886 N890 1.427 . S
C887 H877 0.929 . S
C887 C885 1.433 . S
C887 N890 1.384 . S
C888 H879 0.929 . S
C888 C880 1.378 . S
C888 C883 1.350 . S
C889 H876 0.929 . S
C889 C881 1.433 . S
C889 N891 1.384 . S
N890 C886 1.427 . S
N890 C887 1.384 . S
N891 C883 1.427 . S
N891 C889 1.384 . S
H892 C898 0.930 . S
H893 C902 0.930 . S
H894 C907 0.929 . S
H895 C905 0.929 . S
H896 C900 0.929 . S
H897 C906 0.929 . S
C898 H892 0.930 . S
C898 C899 1.367 . S
C898 C906 1.378 . S
C899 C898 1.367 . S
C899 C907 1.433 . S
C900 H896 0.929 . S
C900 C902 1.378 . S
C900 C904 1.350 . S
C901 C904 1.463 . S
C901 C906 1.350 . S
C901 N909 1.427 . S
C902 H893 0.930 . S
C902 C900 1.378 . S
C902 C903 1.367 . S
C903 C902 1.367 . S
C903 C905 1.433 . S
C904 C900 1.350 . S
C904 C901 1.463 . S
C904 N908 1.427 . S
C905 H895 0.929 . S
C905 C903 1.433 . S
C905 N908 1.384 . S
C906 H897 0.929 . S
C906 C898 1.378 . S
C906 C901 1.350 . S
C907 H894 0.929 . S
C907 C899 1.433 . S
C907 N909 1.384 . S
N908 C904 1.427 . S
N908 C905 1.384 . S
N909 C901 1.427 . S
N909 C907 1.384 . S
H910 C916 0.930 . S
H911 C920 0.930 . S
H912 C925 0.929 . S
H913 C923 0.929 . S
H914 C918 0.929 . S
H915 C924 0.929 . S
C916 H910 0.930 . S
C916 C917 1.367 . S
C916 C924 1.378 . S
C917 C916 1.367 . S
C917 C925 1.433 . S
C918 H914 0.929 . S
C918 C920 1.378 . S
C918 C922 1.350 . S
C919 C922 1.463 . S
C919 C924 1.350 . S
C919 N927 1.427 . S
C920 H911 0.930 . S
C920 C918 1.378 . S
C920 C921 1.367 . S
C921 C920 1.367 . S
C921 C923 1.433 . S
C922 C918 1.350 . S
C922 C919 1.463 . S
C922 N926 1.427 . S
C923 H913 0.929 . S
C923 C921 1.433 . S
C923 N926 1.384 . S
C924 H915 0.929 . S
C924 C916 1.378 . S
C924 C919 1.350 . S
C925 H912 0.929 . S
C925 C917 1.433 . S
C925 N927 1.384 . S
N926 C922 1.427 . S
N926 C923 1.384 . S
N927 C919 1.427 . S
N927 C925 1.384 . S
H928 C934 0.930 . S
H929 C938 0.930 . S
H930 C943 0.929 . S
H931 C941 0.929 . S
H932 C936 0.929 . S
H933 C942 0.929 . S
C934 H928 0.930 . S
C934 C935 1.367 . S
C934 C942 1.378 . S
C935 C934 1.367 . S
C935 C943 1.433 . S
C936 H932 0.929 . S
C936 C938 1.378 . S
C936 C940 1.350 . S
C937 C940 1.463 . S
C937 C942 1.350 . S
C937 N945 1.427 . S
C938 H929 0.930 . S
C938 C936 1.378 . S
C938 C939 1.367 . S
C939 C938 1.367 . S
C939 C941 1.433 . S
C940 C936 1.350 . S
C940 C937 1.463 . S
C940 N944 1.427 . S
C941 H931 0.929 . S
C941 C939 1.433 . S
C941 N944 1.384 . S
C942 H933 0.929 . S
C942 C934 1.378 . S
C942 C937 1.350 . S
C943 H930 0.929 . S
C943 C935 1.433 . S
C943 N945 1.384 . S
N944 C940 1.427 . S
N944 C941 1.384 . S
N945 C937 1.427 . S
N945 C943 1.384 . S
H946 C952 0.930 . S
H947 C956 0.930 . S
H948 C961 0.929 . S
H949 C959 0.929 . S
H950 C954 0.929 . S
H951 C960 0.929 . S
C952 H946 0.930 . S
C952 C953 1.367 . S
C952 C960 1.378 . S
C953 C952 1.367 . S
C953 C961 1.433 . S
C954 H950 0.929 . S
C954 C956 1.378 . S
C954 C958 1.350 . S
C955 C958 1.463 . S
C955 C960 1.350 . S
C955 N963 1.427 . S
C956 H947 0.930 . S
C956 C954 1.378 . S
C956 C957 1.367 . S
C957 C956 1.367 . S
C957 C959 1.433 . S
C958 C954 1.350 . S
C958 C955 1.463 . S
C958 N962 1.427 . S
C959 H949 0.929 . S
C959 C957 1.433 . S
C959 N962 1.384 . S
C960 H951 0.929 . S
C960 C952 1.378 . S
C960 C955 1.350 . S
C961 H948 0.929 . S
C961 C953 1.433 . S
C961 N963 1.384 . S
N962 C958 1.427 . S
N962 C959 1.384 . S
N963 C955 1.427 . S
N963 C961 1.384 . S
H964 C970 0.930 . S
H965 C974 0.930 . S
H966 C979 0.929 . S
H967 C977 0.929 . S
H968 C972 0.929 . S
H969 C978 0.929 . S
C970 H964 0.930 . S
C970 C971 1.367 . S
C970 C978 1.378 . S
C971 C970 1.367 . S
C971 C979 1.433 . S
C972 H968 0.929 . S
C972 C974 1.378 . S
C972 C976 1.350 . S
C973 C976 1.463 . S
C973 C978 1.350 . S
C973 N981 1.427 . S
C974 H965 0.930 . S
C974 C972 1.378 . S
C974 C975 1.367 . S
C975 C974 1.367 . S
C975 C977 1.433 . S
C976 C972 1.350 . S
C976 C973 1.463 . S
C976 N980 1.427 . S
C977 H967 0.929 . S
C977 C975 1.433 . S
C977 N980 1.384 . S
C978 H969 0.929 . S
C978 C970 1.378 . S
C978 C973 1.350 . S
C979 H966 0.929 . S
C979 C971 1.433 . S
C979 N981 1.384 . S
N980 C976 1.427 . S
N980 C977 1.384 . S
N981 C973 1.427 . S
N981 C979 1.384 . S
H982 C988 0.930 . S
H983 C992 0.930 . S
H984 C997 0.929 . S
H985 C995 0.929 . S
H986 C990 0.929 . S
H987 C996 0.929 . S
C988 H982 0.930 . S
C988 C989 1.367 . S
C988 C996 1.378 . S
C989 C988 1.367 . S
C989 C997 1.433 . S
C990 H986 0.929 . S
C990 C992 1.378 . S
C990 C994 1.350 . S
C991 C994 1.463 . S
C991 C996 1.350 . S
C991 N999 1.427 . S
C992 H983 0.930 . S
C992 C990 1.378 . S
C992 C993 1.367 . S
C993 C992 1.367 . S
C993 C995 1.433 . S
C994 C990 1.350 . S
C994 C991 1.463 . S
C994 N998 1.427 . S
C995 H985 0.929 . S
C995 C993 1.433 . S
C995 N998 1.384 . S
C996 H987 0.929 . S
C996 C988 1.378 . S
C996 C991 1.350 . S
C997 H984 0.929 . S
C997 C989 1.433 . S
C997 N999 1.384 . S
N998 C994 1.427 . S
N998 C995 1.384 . S
N999 C991 1.427 . S
N999 C997 1.384 . S
C575 C31 1.518 . S
C579 C506 1.520 . S
C597 C484 1.512 . S
C593 C61 1.508 . S
C615 C510 1.514 . S
C611 C151 1.493 . S
C633 C488 1.523 . S
C629 C181 1.551 . S
C651 C550 1.513 . S
C647 C271 1.510 . S
C669 C528 1.517 . S
C665 C301 1.505 . S
C683 C391 1.501 . S
C687 C554 1.523 . S
C705 C532 1.513 . S
C701 C421 1.548 . S
C719 C20 1.542 . S
C723 C555 1.564 . S
C741 C533 1.563 . S
C737 C91 1.543 . S
C755 C121 1.463 . S
C759 C552 1.568 . S
C773 C211 1.579 . S
C777 C530 1.566 . S
C795 C511 1.567 . S
C791 C260 1.546 1_545 S
C809 C331 1.546 1_565 S
C813 C489 1.565 . S
C831 C508 1.567 . S
C827 C361 1.467 1_545 S
C849 C486 1.568 . S
C845 C451 1.555 1_565 S
C867 C529 1.539 . S
C863 C1 1.445 . S
C885 C551 1.540 . S
C881 C80 1.448 . S
C899 C140 1.517 . S
C903 C531 1.540 . S
C921 C553 1.542 . S
C917 C200 1.486 . S
C939 C485 1.535 . S
C935 C241 1.460 . S
C953 C320 1.451 . S
C957 C507 1.537 . S
C971 C380 1.517 . S
C975 C487 1.533 . S
C989 C440 1.501 . S
C993 C509 1.535 . S
