# Generated by pormake.
# Topology ptr, (4,4)-cn, num edge types: 1
# Building blocks:
#     Node 0, Type 0, BuildingBlock: KUFVIS_clean_sbu_0, # of connection points: 4
#     Node 1, Type 0, BuildingBlock: KUFVIS_clean_sbu_0, # of connection points: 4
#     Node 2, Type 0, BuildingBlock: KUFVIS_clean_sbu_0, # of connection points: 4
#     Node 3, Type 0, BuildingBlock: KUFVIS_clean_sbu_0, # of connection points: 4
#     Node 4, Type 0, BuildingBlock: KUFVIS_clean_sbu_0, # of connection points: 4
#     Node 5, Type 0, BuildingBlock: KUFVIS_clean_sbu_0, # of connection points: 4
#     Node 6, Type 0, BuildingBlock: KUFVIS_clean_sbu_0, # of connection points: 4
#     Node 7, Type 0, BuildingBlock: KUFVIS_clean_sbu_0, # of connection points: 4
#     Node 8, Type 0, BuildingBlock: KUFVIS_clean_sbu_0, # of connection points: 4
#     Node 9, Type 0, BuildingBlock: KUFVIS_clean_sbu_0, # of connection points: 4
#     Node 10, Type 0, BuildingBlock: KUFVIS_clean_sbu_0, # of connection points: 4
#     Node 11, Type 0, BuildingBlock: KUFVIS_clean_sbu_0, # of connection points: 4
#     Node 12, Type 0, BuildingBlock: KUFVIS_clean_sbu_0, # of connection points: 4
#     Node 13, Type 0, BuildingBlock: KUFVIS_clean_sbu_0, # of connection points: 4
#     Node 14, Type 0, BuildingBlock: KUFVIS_clean_sbu_0, # of connection points: 4
#     Node 15, Type 0, BuildingBlock: KUFVIS_clean_sbu_0, # of connection points: 4
#     Node 16, Type 0, BuildingBlock: KUFVIS_clean_sbu_0, # of connection points: 4
#     Node 17, Type 0, BuildingBlock: KUFVIS_clean_sbu_0, # of connection points: 4
#     Node 18, Type 1, BuildingBlock: NAWXER_clean_linker_0, # of connection points: 4
#     Node 19, Type 1, BuildingBlock: NAWXER_clean_linker_0, # of connection points: 4
#     Node 20, Type 1, BuildingBlock: NAWXER_clean_linker_0, # of connection points: 4
#     Node 21, Type 1, BuildingBlock: NAWXER_clean_linker_0, # of connection points: 4
#     Node 22, Type 1, BuildingBlock: NAWXER_clean_linker_0, # of connection points: 4
#     Node 23, Type 1, BuildingBlock: NAWXER_clean_linker_0, # of connection points: 4
#     Node 24, Type 1, BuildingBlock: NAWXER_clean_linker_0, # of connection points: 4
#     Node 25, Type 1, BuildingBlock: NAWXER_clean_linker_0, # of connection points: 4
#     Node 26, Type 1, BuildingBlock: NAWXER_clean_linker_0, # of connection points: 4
#     Node 27, Type 1, BuildingBlock: NAWXER_clean_linker_0, # of connection points: 4
#     Node 28, Type 1, BuildingBlock: NAWXER_clean_linker_0, # of connection points: 4
#     Node 29, Type 1, BuildingBlock: NAWXER_clean_linker_0, # of connection points: 4
#     Node 30, Type 1, BuildingBlock: NAWXER_clean_linker_0, # of connection points: 4
#     Node 31, Type 1, BuildingBlock: NAWXER_clean_linker_0, # of connection points: 4
#     Node 32, Type 1, BuildingBlock: NAWXER_clean_linker_0, # of connection points: 4
#     Node 33, Type 1, BuildingBlock: NAWXER_clean_linker_0, # of connection points: 4
#     Node 34, Type 1, BuildingBlock: NAWXER_clean_linker_0, # of connection points: 4
#     Node 35, Type 1, BuildingBlock: NAWXER_clean_linker_0, # of connection points: 4
#     Edge 36, Type (0, 1), BuildingBlock: CIFDUS_clean_linker_0, # of connection points: 2
#     Edge 37, Type (0, 1), BuildingBlock: CIFDUS_clean_linker_0, # of connection points: 2
#     Edge 38, Type (0, 1), BuildingBlock: CIFDUS_clean_linker_0, # of connection points: 2
#     Edge 39, Type (0, 1), BuildingBlock: CIFDUS_clean_linker_0, # of connection points: 2
#     Edge 40, Type (0, 1), BuildingBlock: CIFDUS_clean_linker_0, # of connection points: 2
#     Edge 41, Type (0, 1), BuildingBlock: CIFDUS_clean_linker_0, # of connection points: 2
#     Edge 42, Type (0, 1), BuildingBlock: CIFDUS_clean_linker_0, # of connection points: 2
#     Edge 43, Type (0, 1), BuildingBlock: CIFDUS_clean_linker_0, # of connection points: 2
#     Edge 44, Type (0, 1), BuildingBlock: CIFDUS_clean_linker_0, # of connection points: 2
#     Edge 45, Type (0, 1), BuildingBlock: CIFDUS_clean_linker_0, # of connection points: 2
#     Edge 46, Type (0, 1), BuildingBlock: CIFDUS_clean_linker_0, # of connection points: 2
#     Edge 47, Type (0, 1), BuildingBlock: CIFDUS_clean_linker_0, # of connection points: 2
#     Edge 48, Type (0, 1), BuildingBlock: CIFDUS_clean_linker_0, # of connection points: 2
#     Edge 49, Type (0, 1), BuildingBlock: CIFDUS_clean_linker_0, # of connection points: 2
#     Edge 50, Type (0, 1), BuildingBlock: CIFDUS_clean_linker_0, # of connection points: 2
#     Edge 51, Type (0, 1), BuildingBlock: CIFDUS_clean_linker_0, # of connection points: 2
#     Edge 52, Type (0, 1), BuildingBlock: CIFDUS_clean_linker_0, # of connection points: 2
#     Edge 53, Type (0, 1), BuildingBlock: CIFDUS_clean_linker_0, # of connection points: 2
#     Edge 54, Type (0, 1), BuildingBlock: CIFDUS_clean_linker_0, # of connection points: 2
#     Edge 55, Type (0, 1), BuildingBlock: CIFDUS_clean_linker_0, # of connection points: 2
#     Edge 56, Type (0, 1), BuildingBlock: CIFDUS_clean_linker_0, # of connection points: 2
#     Edge 57, Type (0, 1), BuildingBlock: CIFDUS_clean_linker_0, # of connection points: 2
#     Edge 58, Type (0, 1), BuildingBlock: CIFDUS_clean_linker_0, # of connection points: 2
#     Edge 59, Type (0, 1), BuildingBlock: CIFDUS_clean_linker_0, # of connection points: 2
#     Edge 60, Type (0, 1), BuildingBlock: CIFDUS_clean_linker_0, # of connection points: 2
#     Edge 61, Type (0, 1), BuildingBlock: CIFDUS_clean_linker_0, # of connection points: 2
#     Edge 62, Type (0, 1), BuildingBlock: CIFDUS_clean_linker_0, # of connection points: 2
#     Edge 63, Type (0, 1), BuildingBlock: CIFDUS_clean_linker_0, # of connection points: 2
#     Edge 64, Type (0, 1), BuildingBlock: CIFDUS_clean_linker_0, # of connection points: 2
#     Edge 65, Type (0, 1), BuildingBlock: CIFDUS_clean_linker_0, # of connection points: 2
#     Edge 66, Type (0, 1), BuildingBlock: CIFDUS_clean_linker_0, # of connection points: 2
#     Edge 67, Type (0, 1), BuildingBlock: CIFDUS_clean_linker_0, # of connection points: 2
#     Edge 68, Type (0, 1), BuildingBlock: CIFDUS_clean_linker_0, # of connection points: 2
#     Edge 69, Type (0, 1), BuildingBlock: CIFDUS_clean_linker_0, # of connection points: 2
#     Edge 70, Type (0, 1), BuildingBlock: CIFDUS_clean_linker_0, # of connection points: 2
#     Edge 71, Type (0, 1), BuildingBlock: CIFDUS_clean_linker_0, # of connection points: 2
#     Edge 72, Type (0, 1), BuildingBlock: CIFDUS_clean_linker_0, # of connection points: 2
#     Edge 73, Type (0, 1), BuildingBlock: CIFDUS_clean_linker_0, # of connection points: 2
#     Edge 74, Type (0, 1), BuildingBlock: CIFDUS_clean_linker_0, # of connection points: 2
#     Edge 75, Type (0, 1), BuildingBlock: CIFDUS_clean_linker_0, # of connection points: 2
#     Edge 76, Type (0, 1), BuildingBlock: CIFDUS_clean_linker_0, # of connection points: 2
#     Edge 77, Type (0, 1), BuildingBlock: CIFDUS_clean_linker_0, # of connection points: 2
#     Edge 78, Type (0, 1), BuildingBlock: CIFDUS_clean_linker_0, # of connection points: 2
#     Edge 79, Type (0, 1), BuildingBlock: CIFDUS_clean_linker_0, # of connection points: 2
#     Edge 80, Type (0, 1), BuildingBlock: CIFDUS_clean_linker_0, # of connection points: 2
#     Edge 81, Type (0, 1), BuildingBlock: CIFDUS_clean_linker_0, # of connection points: 2
#     Edge 82, Type (0, 1), BuildingBlock: CIFDUS_clean_linker_0, # of connection points: 2
#     Edge 83, Type (0, 1), BuildingBlock: CIFDUS_clean_linker_0, # of connection points: 2
#     Edge 84, Type (0, 1), BuildingBlock: CIFDUS_clean_linker_0, # of connection points: 2
#     Edge 85, Type (0, 1), BuildingBlock: CIFDUS_clean_linker_0, # of connection points: 2
#     Edge 86, Type (0, 1), BuildingBlock: CIFDUS_clean_linker_0, # of connection points: 2
#     Edge 87, Type (0, 1), BuildingBlock: CIFDUS_clean_linker_0, # of connection points: 2
#     Edge 88, Type (0, 1), BuildingBlock: CIFDUS_clean_linker_0, # of connection points: 2
#     Edge 89, Type (0, 1), BuildingBlock: CIFDUS_clean_linker_0, # of connection points: 2
#     Edge 90, Type (0, 1), BuildingBlock: CIFDUS_clean_linker_0, # of connection points: 2
#     Edge 91, Type (0, 1), BuildingBlock: CIFDUS_clean_linker_0, # of connection points: 2
#     Edge 92, Type (0, 1), BuildingBlock: CIFDUS_clean_linker_0, # of connection points: 2
#     Edge 93, Type (0, 1), BuildingBlock: CIFDUS_clean_linker_0, # of connection points: 2
#     Edge 94, Type (0, 1), BuildingBlock: CIFDUS_clean_linker_0, # of connection points: 2
#     Edge 95, Type (0, 1), BuildingBlock: CIFDUS_clean_linker_0, # of connection points: 2
#     Edge 96, Type (0, 1), BuildingBlock: CIFDUS_clean_linker_0, # of connection points: 2
#     Edge 97, Type (0, 1), BuildingBlock: CIFDUS_clean_linker_0, # of connection points: 2
#     Edge 98, Type (0, 1), BuildingBlock: CIFDUS_clean_linker_0, # of connection points: 2
#     Edge 99, Type (0, 1), BuildingBlock: CIFDUS_clean_linker_0, # of connection points: 2
#     Edge 100, Type (0, 1), BuildingBlock: CIFDUS_clean_linker_0, # of connection points: 2
#     Edge 101, Type (0, 1), BuildingBlock: CIFDUS_clean_linker_0, # of connection points: 2
#     Edge 102, Type (0, 1), BuildingBlock: CIFDUS_clean_linker_0, # of connection points: 2
#     Edge 103, Type (0, 1), BuildingBlock: CIFDUS_clean_linker_0, # of connection points: 2
#     Edge 104, Type (0, 1), BuildingBlock: CIFDUS_clean_linker_0, # of connection points: 2
#     Edge 105, Type (0, 1), BuildingBlock: CIFDUS_clean_linker_0, # of connection points: 2
#     Edge 106, Type (0, 1), BuildingBlock: CIFDUS_clean_linker_0, # of connection points: 2
#     Edge 107, Type (0, 1), BuildingBlock: CIFDUS_clean_linker_0, # of connection points: 2
# Relax obj value: 0.038
# Max RMSD: 0.167
# Mean RMSD: 0.065
data_MOF--net-ptr--node1-KUFVIS_clean_sbu_0--node2-NAWXER_clean_linker_0--edge1-CIFDUS_clean_linker_0
_symmetry_space_group_name_H-M    P1
_symmetry_Int_Tables_number       1
_symmetry_cell_setting            triclinic
loop_
_symmetry_equiv_pos_as_xyz
'x, y, z'
_cell_length_a     77.929836
_cell_length_b     77.568191
_cell_length_c     57.430454
_cell_angle_alpha  89.875305
_cell_angle_beta   90.469847
_cell_angle_gamma 119.46759
loop_
_atom_site_label
_atom_site_type_symbol
_atom_site_fract_x
_atom_site_fract_y
_atom_site_fract_z
_atom_type_partial_charge
Mn0 Mn 0.99815 0.34453 0.99984 0.0
Mn1 Mn 0.03667 0.39087 0.00596 0.0
C2 C 0.00211 0.36894 0.97397 0.0
C3 C 0.98364 0.31269 0.98428 0.0
C4 C 1.0 0.37504 0.03517 0.0
O5 O 0.01643 0.34002 0.02103 0.0
O6 O 0.04074 0.37161 0.02487 0.0
C7 C 0.06659 0.38398 0.98282 0.0
N8 N 0.05681 0.39442 0.98458 0.0
C9 C 0.0759 0.41632 0.95369 0.0
C10 C 0.08626 0.40588 0.95164 0.0
C11 C 0.08154 0.3896 0.96623 0.0
C12 C 0.06119 0.41006 0.97059 0.0
H13 H 0.06301 0.37146 0.99398 0.0
C14 C 0.03289 0.3531 0.02952 0.0
O15 O 0.97685 0.31652 0.003 0.0
O16 O 0.99944 0.32713 0.97542 0.0
N17 N 0.03521 0.41127 0.98871 0.0
C18 C 0.02305 0.41901 0.99194 0.0
C19 C 0.02538 0.435 0.97818 0.0
C20 C 0.04038 0.44307 0.9615 0.0
C21 C 0.05292 0.43506 0.95872 0.0
C22 C 0.0499 0.41913 0.97296 0.0
H23 H 0.01157 0.41292 0.00478 0.0
O24 O 0.98493 0.35356 0.97713 0.0
O25 O 0.01668 0.36979 0.98616 0.0
O26 O 0.99138 0.35749 0.0269 0.0
O27 O 0.01663 0.38882 0.02816 0.0
C28 C 0.06792 0.44187 0.94192 0.0
C29 C 0.07937 0.43248 0.93938 0.0
H30 H 0.09776 0.41013 0.93881 0.0
H31 H 0.08941 0.38142 0.96468 0.0
H32 H 0.01562 0.44106 0.98041 0.0
H33 H 0.04201 0.45528 0.95077 0.0
H34 H 0.07055 0.45411 0.93061 0.0
H35 H 0.09067 0.43767 0.92617 0.0
Mn36 Mn 0.65155 0.64562 0.01793 0.0
Mn37 Mn 0.64811 0.60089 0.02581 0.0
C38 C 0.6318 0.62479 0.0469 0.0
C39 C 0.66566 0.67934 0.02628 0.0
C40 C 0.62502 0.60843 0.98875 0.0
O41 O 0.67541 0.64884 1.0002 0.0
O42 O 0.66989 0.61768 0.00418 0.0
C43 C 0.68613 0.61614 0.05113 0.0
N44 N 0.66625 0.60391 0.05023 0.0
C45 C 0.6664 0.59091 0.08828 0.0
C46 C 0.68689 0.60328 0.08953 0.0
C47 C 0.69678 0.61597 0.0709 0.0
C48 C 0.65657 0.59175 0.06816 0.0
H49 H 0.69384 0.62597 0.03691 0.0
C50 C 0.6796 0.63523 0.99586 0.0
O51 O 0.65579 0.67195 0.0071 0.0
O52 O 0.6683 0.66739 0.03972 0.0
N53 N 0.62808 0.58276 0.04639 0.0
C54 C 0.60836 0.57142 0.04229 0.0
C55 C 0.59633 0.5578 0.05918 0.0
C56 C 0.60474 0.5557 0.07995 0.0
C57 C 0.62515 0.56707 0.0835 0.0
C58 C 0.63641 0.58033 0.06596 0.0
H59 H 0.60185 0.57291 0.02638 0.0
O60 O 0.6286 0.63848 0.03852 0.0
O61 O 0.64659 0.62362 0.03824 0.0
O62 O 0.6332 0.62713 0.99211 0.0
O63 O 0.62868 0.59683 1.00105 0.0
C64 C 0.63474 0.56588 0.10383 0.0
C65 C 0.65535 0.57785 0.10626 0.0
H66 H 0.69515 0.60319 0.10475 0.0
H67 H 0.71258 0.62562 0.07176 0.0
H68 H 0.5806 0.549 0.05623 0.0
H69 H 0.59539 0.54532 0.09305 0.0
H70 H 0.6264 0.55588 0.11776 0.0
H71 H 0.66255 0.57688 0.12202 0.0
Mn72 Mn 0.35048 0.99506 0.02267 0.0
Mn73 Mn 0.393 0.03832 0.01852 0.0
C74 C 0.37679 0.00069 0.04657 0.0
C75 C 0.31908 0.97742 0.03876 0.0
C76 C 0.37967 0.00466 0.98336 0.0
O77 O 0.34295 0.0125 0.00333 0.0
O78 O 0.37082 0.04194 0.00694 0.0
C79 C 0.38559 0.062 0.05321 0.0
N80 N 0.397 0.05452 0.04524 0.0
C81 C 0.42091 0.07076 0.07583 0.0
C82 C 0.40948 0.07877 0.08427 0.0
C83 C 0.39171 0.07431 0.07295 0.0
C84 C 0.41404 0.05858 0.0561 0.0
H85 H 0.37191 0.05857 0.04455 0.0
C86 C 0.35288 0.0312 1.00024 0.0
O87 O 0.3234 0.97168 0.01952 0.0
O88 O 0.33273 0.9936 0.04816 0.0
N89 N 0.41576 0.03716 0.02912 0.0
C90 C 0.42446 0.02733 0.01958 0.0
C91 C 0.44201 0.02958 0.02941 0.0
C92 C 0.45057 0.04209 0.04872 0.0
C93 C 0.44152 0.0523 0.058 0.0
C94 C 0.42405 0.04949 0.04746 0.0
H95 H 0.41802 0.01777 0.00467 0.0
O96 O 0.36229 0.9829 0.04335 0.0
O97 O 0.37512 0.01481 0.03637 0.0
O98 O 0.36458 0.99176 0.99434 0.0
O99 O 0.39042 0.02249 0.99043 0.0
C100 C 0.44894 0.06486 0.07756 0.0
C101 C 0.43865 0.07409 0.08647 0.0
H102 H 0.41412 0.08823 0.09953 0.0
H103 H 0.38275 0.08035 0.07943 0.0
H104 H 0.44892 0.02167 0.02212 0.0
H105 H 0.46402 0.04367 0.05635 0.0
H106 H 0.46238 0.06726 0.08613 0.0
H107 H 0.44432 0.08344 0.10176 0.0
Mn108 Mn 0.00925 0.65947 0.00457 0.0
Mn109 Mn 0.053 0.66046 0.00394 0.0
C110 C 0.0143 0.63965 0.97874 0.0
C111 C 0.98986 0.67249 0.98984 0.0
C112 C 0.02178 0.6385 0.04072 0.0
O113 O 0.02712 0.68449 0.023 0.0
O114 O 0.05598 0.68468 0.01952 0.0
C115 C 0.0739 0.69425 0.97183 0.0
N116 N 0.06743 0.67494 0.97727 0.0
C117 C 0.08109 0.66998 0.94216 0.0
C118 C 0.08803 0.68986 0.93625 0.0
C119 C 0.08439 0.70204 0.95113 0.0
C120 C 0.0708 0.66308 0.96305 0.0
H121 H 0.07102 0.70362 0.98316 0.0
C122 C 0.04564 0.69231 0.02671 0.0
O123 O 0.98549 0.66283 0.00942 0.0
O124 O 0.00575 0.6752 0.97972 0.0
N125 N 0.05241 0.63798 0.98942 0.0
C126 C 0.04429 0.61903 0.99738 0.0
C127 C 0.04632 0.60486 0.98432 0.0
C128 C 0.05684 0.61036 0.96335 0.0
C129 C 0.06539 0.63004 0.95575 0.0
C130 C 0.06301 0.64355 0.9696 0.0
H131 H 0.03617 0.61471 0.01348 0.0
O132 O 0.99659 0.63563 0.98402 0.0
O133 O 0.02855 0.65533 0.98849 0.0
O134 O 0.00857 0.64223 0.03259 0.0
O135 O 0.0387 0.64489 0.03139 0.0
C136 C 0.07591 0.63672 0.93479 0.0
C137 C 0.08372 0.65666 0.92798 0.0
H138 H 0.09605 0.6959 0.92025 0.0
H139 H 0.08961 0.71737 0.94663 0.0
H140 H 0.0397 0.58971 0.99032 0.0
H141 H 0.05817 0.59934 0.95319 0.0
H142 H 0.07789 0.62659 0.92365 0.0
H143 H 0.0916 0.66157 0.9117 0.0
Mn144 Mn 0.34898 0.35737 0.01185 0.0
Mn145 Mn 0.39122 0.35546 0.01716 0.0
C146 C 0.3738 0.37946 0.03618 0.0
C147 C 0.3167 0.3461 0.02462 0.0
C148 C 0.38223 0.37448 0.97596 0.0
O149 O 0.34181 0.3307 0.99721 0.0
O150 O 0.37008 0.33023 0.00374 0.0
C151 C 0.37786 0.32482 0.05387 0.0
N152 N 0.39094 0.3433 0.04623 0.0
C153 C 0.40977 0.35071 0.08183 0.0
C154 C 0.39656 0.3317 0.09003 0.0
C155 C 0.38051 0.31873 0.07601 0.0
C156 C 0.40633 0.35597 0.05965 0.0
H157 H 0.36547 0.31484 0.04315 0.0
C158 C 0.35235 0.32233 0.99596 0.0
O159 O 0.32228 0.35395 0.00411 0.0
O160 O 0.3296 0.34423 0.03707 0.0
N161 N 0.41326 0.37869 0.02975 0.0
C162 C 0.42457 0.39653 0.01929 0.0
C163 C 0.44121 0.41125 0.03104 0.0
C164 C 0.44622 0.40738 0.05324 0.0
C165 C 0.43465 0.38874 0.06339 0.0
C166 C 0.41832 0.37461 0.05078 0.0
H167 H 0.42087 0.39955 1.00217 0.0
O168 O 0.36004 0.383 0.02901 0.0
O169 O 0.37233 0.36275 0.0295 0.0
O170 O 0.36551 0.37182 0.98292 0.0
O171 O 0.39262 0.3686 0.98728 0.0
C172 C 0.43856 0.38369 0.08562 0.0
C173 C 0.42608 0.36471 0.09487 0.0
H174 H 0.39855 0.32696 0.10711 0.0
H175 H 0.37021 0.30407 0.08226 0.0
H176 H 0.45013 0.42556 0.02303 0.0
H177 H 0.45896 0.41883 0.06234 0.0
H178 H 0.451 0.39436 0.09586 0.0
H179 H 0.4291 0.36108 0.1121 0.0
Mn180 Mn 0.65163 0.00435 1.00007 0.0
Mn181 Mn 0.60574 0.96502 0.00279 0.0
C182 C 0.62767 0.0021 0.97458 0.0
C183 C 0.68336 0.01925 0.98474 0.0
C184 C 0.62154 0.99902 0.03743 0.0
O185 O 0.65578 0.98439 0.01852 0.0
O186 O 0.62479 0.95845 0.01822 0.0
C187 C 0.6108 0.937 0.97259 0.0
N188 N 0.60117 0.94715 0.97765 0.0
C189 C 0.57879 0.93221 0.94537 0.0
C190 C 0.58838 0.92148 0.9399 0.0
C191 C 0.60448 0.92392 0.95354 0.0
C192 C 0.58561 0.94486 0.9647 0.0
H193 H 0.62321 0.93888 0.98301 0.0
C194 C 0.64314 0.9666 0.02359 0.0
O195 O 0.6798 0.02534 0.00425 0.0
O196 O 0.66872 0.0041 0.97489 0.0
N197 N 0.58594 0.96931 0.9884 0.0
C198 C 0.57961 0.98217 0.99464 0.0
C199 C 0.56429 0.98247 0.98191 0.0
C200 C 0.55556 0.96946 0.96304 0.0
C201 C 0.56226 0.95627 0.95703 0.0
C202 C 0.57753 0.9566 0.97041 0.0
H203 H 0.58631 0.99224 0.00909 0.0
O204 O 0.64291 0.01912 0.97933 0.0
O205 O 0.62675 0.98679 0.98517 0.0
O206 O 0.63851 0.00951 0.02834 0.0
O207 O 0.60859 0.98235 0.02916 0.0
C208 C 0.55482 0.94327 0.93785 0.0
C209 C 0.56307 0.93124 0.93203 0.0
H210 H 0.58366 0.91151 0.92511 0.0
H211 H 0.61203 0.91578 0.94935 0.0
H212 H 0.55927 0.99275 0.98658 0.0
H213 H 0.54389 0.96987 0.95312 0.0
H214 H 0.54303 0.94271 0.92718 0.0
H215 H 0.55747 0.92158 0.91699 0.0
Mn216 Mn 0.66287 0.68348 0.33534 0.0
Mn217 Mn 0.70218 0.72948 0.33196 0.0
C218 C 0.66275 0.70577 0.30881 0.0
C219 C 0.64691 0.65064 0.32242 0.0
C220 C 0.67201 0.71629 0.37073 0.0
O221 O 0.68428 0.6807 0.35261 0.0
O222 O 0.71003 0.71127 0.34682 0.0
C223 C 0.72674 0.72225 0.29866 0.0
N224 N 0.71729 0.73235 0.30478 0.0
C225 C 0.73057 0.75415 0.27191 0.0
C226 C 0.7405 0.74402 0.26527 0.0
C227 C 0.73849 0.72793 0.27863 0.0
C228 C 0.71897 0.74772 0.29192 0.0
H229 H 0.72539 0.71004 0.30907 0.0
C230 C 0.70249 0.69359 0.35477 0.0
O231 O 0.64237 0.65543 0.34222 0.0
O232 O 0.66123 0.66469 0.31103 0.0
N233 N 0.69677 0.74872 0.31797 0.0
C234 C 0.68507 0.75592 0.32583 0.0
C235 C 0.68445 0.77132 0.31363 0.0
C236 C 0.69614 0.77939 0.29377 0.0
C237 C 0.70827 0.77192 0.28622 0.0
C238 C 0.70811 0.75642 0.29893 0.0
H239 H 0.67622 0.74989 0.34121 0.0
O240 O 0.64635 0.69074 0.31547 0.0
O241 O 0.67883 0.70734 0.31779 0.0
O242 O 0.66025 0.69879 0.3633 0.0
O243 O 0.68779 0.72838 0.36027 0.0
C244 C 0.72028 0.77901 0.26637 0.0
C245 C 0.73147 0.77017 0.25926 0.0
H246 H 0.74959 0.74837 0.24985 0.0
H247 H 0.74607 0.72001 0.27358 0.0
H248 H 0.67506 0.77702 0.31957 0.0
H249 H 0.6956 0.79125 0.28439 0.0
H250 H 0.72073 0.791 0.2562 0.0
H251 H 0.74037 0.77552 0.24373 0.0
Mn252 Mn 0.32601 0.98694 0.36203 0.0
Mn253 Mn 0.32916 0.94539 0.36882 0.0
C254 C 0.30638 0.96358 0.38923 0.0
C255 C 0.3377 0.02001 0.37225 0.0
C256 C 0.308 0.95229 0.32801 0.0
O257 O 0.3513 0.99316 0.34487 0.0
O258 O 0.35412 0.96659 0.35534 0.0
C259 C 0.36012 0.95942 0.40538 0.0
N260 N 0.34162 0.94617 0.39789 0.0
C261 C 0.33464 0.92795 0.43378 0.0
C262 C 0.3537 0.94128 0.44178 0.0
C263 C 0.36647 0.95712 0.42754 0.0
C264 C 0.32916 0.93096 0.41151 0.0
H265 H 0.36991 0.97169 0.39455 0.0
C266 C 0.36067 0.9835 0.34549 0.0
O267 O 0.32808 0.01283 0.35287 0.0
O268 O 0.34108 0.00825 0.38509 0.0
N269 N 0.3061 0.92362 0.38179 0.0
C270 C 0.288 0.91244 0.37177 0.0
C271 C 0.27336 0.89619 0.38393 0.0
C272 C 0.27752 0.89149 0.40614 0.0
C273 C 0.29636 0.90299 0.41591 0.0
C274 C 0.31041 0.9189 0.40289 0.0
H275 H 0.28471 0.91593 0.35468 0.0
O276 O 0.30202 0.97677 0.3819 0.0
O277 O 0.3224 0.96479 0.38089 0.0
O278 O 0.30958 0.96861 0.33517 0.0
O279 O 0.31561 0.94316 0.33876 0.0
C280 C 0.30165 0.89948 0.43822 0.0
C281 C 0.32076 0.91199 0.44717 0.0
H282 H 0.35862 0.93961 0.45891 0.0
H283 H 0.38115 0.96756 0.43367 0.0
H284 H 0.25887 0.88737 0.37625 0.0
H285 H 0.26612 0.87909 0.41558 0.0
H286 H 0.29106 0.88736 0.44875 0.0
H287 H 0.32457 0.90929 0.46446 0.0
Mn288 Mn 0.01418 0.33413 0.34924 0.0
Mn289 Mn 0.05562 0.37825 0.35458 0.0
C290 C 0.03742 0.33819 0.37725 0.0
C291 C 0.9812 0.31398 0.3597 0.0
C292 C 0.04835 0.34887 0.31547 0.0
O293 O 0.00826 0.353 0.33015 0.0
O294 O 0.03446 0.38228 0.34048 0.0
C295 C 0.04232 0.39669 0.38997 0.0
N296 N 0.05531 0.3908 0.38304 0.0
C297 C 0.07374 0.4023 0.41887 0.0
C298 C 0.06068 0.40869 0.42628 0.0
C299 C 0.04487 0.40582 0.41179 0.0
C300 C 0.07049 0.39336 0.39692 0.0
H301 H 0.03006 0.39434 0.37896 0.0
C302 C 0.01778 0.37194 0.33023 0.0
O303 O 0.98817 0.31051 0.34089 0.0
O304 O 0.99308 0.32945 0.37173 0.0
N305 N 0.07731 0.37659 0.36811 0.0
C306 C 0.08817 0.36897 0.35872 0.0
C307 C 0.10435 0.37029 0.37123 0.0
C308 C 0.10929 0.37957 0.39313 0.0
C309 C 0.09809 0.38759 0.40227 0.0
C310 C 0.08225 0.386 0.38891 0.0
H311 H 0.08449 0.36185 0.34188 0.0
O312 O 0.02411 0.32061 0.37077 0.0
O313 O 0.03634 0.35281 0.36764 0.0
O314 O 0.03239 0.33448 0.32329 0.0
O315 O 0.05735 0.36599 0.32507 0.0
C316 C 0.10183 0.39682 0.42426 0.0
C317 C 0.08964 0.40412 0.43258 0.0
H318 H 0.06255 0.41565 0.44315 0.0
H319 H 0.03465 0.41057 0.41746 0.0
H320 H 0.11292 0.36408 0.36405 0.0
H321 H 0.12162 0.38035 0.40285 0.0
H322 H 0.1139 0.39815 0.43504 0.0
H323 H 0.0925 0.41095 0.44965 0.0
Mn324 Mn 0.66804 0.98039 0.33462 0.0
Mn325 Mn 0.70557 0.97038 0.33811 0.0
C326 C 0.67013 0.95928 0.30785 0.0
C327 C 0.65431 0.99916 0.32026 0.0
C328 C 0.67063 0.95264 0.37066 0.0
O329 O 0.68812 0.00273 0.35541 0.0
O330 O 0.71297 0.99572 0.35429 0.0
C331 C 0.73527 0.00327 0.30971 0.0
N332 N 0.72415 0.9835 0.31386 0.0
C333 C 0.73885 0.97569 0.28181 0.0
C334 C 0.75055 0.99598 0.27727 0.0
C335 C 0.74872 0.00982 0.29125 0.0
C336 C 0.72583 0.97005 0.30056 0.0
H337 H 0.73389 0.01395 0.32042 0.0
C338 C 0.70567 0.00662 0.36055 0.0
O339 O 0.64776 0.98868 0.33909 0.0
O340 O 0.66954 0.99963 0.31067 0.0
N341 N 0.70032 0.94634 0.32288 0.0
C342 C 0.6867 0.92734 0.32826 0.0
C343 C 0.68583 0.91168 0.31513 0.0
C344 C 0.69906 0.91569 0.29675 0.0
C345 C 0.71302 0.93535 0.29164 0.0
C346 C 0.71322 0.95035 0.30537 0.0
H347 H 0.67648 0.92419 0.34233 0.0
O348 O 0.6534 0.95849 0.31179 0.0
O349 O 0.68517 0.9723 0.31984 0.0
O350 O 0.66103 0.96023 0.36121 0.0
O351 O 0.68744 0.95584 0.36374 0.0
C352 C 0.72634 0.94068 0.27303 0.0
C353 C 0.73925 0.96084 0.26812 0.0
H354 H 0.76084 0.00109 0.26294 0.0
H355 H 0.75763 0.0255 0.28779 0.0
H356 H 0.67495 0.89655 0.31911 0.0
H357 H 0.6982 0.90357 0.28651 0.0
H358 H 0.7265 0.9294 0.26208 0.0
H359 H 0.74918 0.96475 0.25351 0.0
Mn360 Mn 0.01846 0.68253 0.35651 0.0
Mn361 Mn 0.05973 0.6789 0.35903 0.0
C362 C 0.04288 0.70157 0.38301 0.0
C363 C 0.98622 0.66992 0.36994 0.0
C364 C 0.05156 0.70157 0.3211 0.0
O365 O 0.01135 0.65776 0.33761 0.0
O366 O 0.03816 0.6545 0.34424 0.0
C367 C 0.04657 0.64607 0.39286 0.0
N368 N 0.05954 0.66504 0.38665 0.0
C369 C 0.07806 0.67052 0.42222 0.0
C370 C 0.06499 0.65099 0.42893 0.0
C371 C 0.04916 0.63873 0.41419 0.0
C372 C 0.0748 0.67698 0.40071 0.0
H373 H 0.03431 0.63666 0.38164 0.0
C374 C 0.02092 0.64843 0.33553 0.0
O375 O 0.99176 0.67994 0.35061 0.0
O376 O 0.99911 0.66681 0.38057 0.0
N377 N 0.08177 0.70138 0.37291 0.0
C378 C 0.0927 0.72001 0.36418 0.0
C379 C 0.10889 0.73424 0.37701 0.0
C380 C 0.11379 0.72914 0.39857 0.0
C381 C 0.10254 0.70978 0.407 0.0
C382 C 0.08667 0.69618 0.39334 0.0
H383 H 0.08899 0.72403 0.34764 0.0
O384 O 0.02947 0.70612 0.37741 0.0
O385 O 0.04123 0.68566 0.37338 0.0
O386 O 0.03545 0.69969 0.32923 0.0
O387 O 0.06108 0.69381 0.33058 0.0
C388 C 0.10625 0.70354 0.42859 0.0
C389 C 0.094 0.68393 0.43621 0.0
H390 H 0.06687 0.6453 0.44543 0.0
H391 H 0.03894 0.62368 0.4193 0.0
H392 H 0.11751 0.74914 0.37038 0.0
H393 H 0.12615 0.74022 0.40854 0.0
H394 H 0.11836 0.71375 0.43958 0.0
H395 H 0.09688 0.67936 0.45295 0.0
Mn396 Mn 0.31918 0.34034 0.34249 0.0
Mn397 Mn 0.27461 0.29911 0.3391 0.0
C398 C 0.29494 0.33986 0.31867 0.0
C399 C 0.35147 0.35863 0.3294 0.0
C400 C 0.28788 0.32767 0.38005 0.0
O401 O 0.32417 0.31908 0.35672 0.0
O402 O 0.29462 0.29214 0.34991 0.0
C403 C 0.2824 0.27854 0.30073 0.0
N404 N 0.27153 0.28625 0.30979 0.0
C405 C 0.24962 0.27539 0.27664 0.0
C406 C 0.26052 0.26724 0.26699 0.0
C407 C 0.27703 0.2689 0.27904 0.0
C408 C 0.25574 0.28492 0.29823 0.0
H409 H 0.29506 0.27973 0.30999 0.0
C410 C 0.31257 0.30038 0.35695 0.0
O411 O 0.3466 0.36152 0.35002 0.0
O412 O 0.33776 0.34469 0.3169 0.0
N413 N 0.25374 0.3036 0.32866 0.0
C414 C 0.24533 0.31301 0.33989 0.0
C415 C 0.22896 0.31323 0.32981 0.0
C416 C 0.22125 0.30357 0.30847 0.0
C417 C 0.22996 0.29373 0.29741 0.0
C418 C 0.24624 0.294 0.3083 0.0
H419 H 0.2511 0.32033 0.35637 0.0
O420 O 0.30969 0.35659 0.32539 0.0
O421 O 0.29499 0.32398 0.32576 0.0
O422 O 0.3044 0.34059 0.37173 0.0
O423 O 0.27615 0.31148 0.36965 0.0
C424 C 0.22328 0.28387 0.27589 0.0
C425 C 0.2331 0.2747 0.26551 0.0
H426 H 0.25644 0.25981 0.25026 0.0
H427 H 0.28557 0.26272 0.27166 0.0
H428 H 0.22229 0.32082 0.33847 0.0
H429 H 0.20869 0.30387 0.30068 0.0
H430 H 0.21077 0.28347 0.26703 0.0
H431 H 0.22802 0.26743 0.24879 0.0
Mn432 Mn 0.33292 0.01927 0.66714 0.0
Mn433 Mn 0.37043 0.06637 0.66635 0.0
C434 C 0.33271 0.0414 0.64038 0.0
C435 C 0.31879 0.98672 0.65371 0.0
C436 C 0.33858 0.0505 0.7033 0.0
O437 O 0.35455 0.01757 0.68538 0.0
O438 O 0.37932 0.04895 0.68122 0.0
C439 C 0.39772 0.06222 0.63428 0.0
N440 N 0.38686 0.07098 0.63993 0.0
C441 C 0.39877 0.09249 0.60664 0.0
C442 C 0.41016 0.08376 0.60052 0.0
C443 C 0.40959 0.06854 0.61437 0.0
C444 C 0.38735 0.08569 0.62678 0.0
H445 H 0.39732 0.05052 0.64489 0.0
C446 C 0.37246 0.03108 0.68831 0.0
O447 O 0.31333 0.99088 0.67326 0.0
O448 O 0.33308 0.00128 0.64282 0.0
N449 N 0.36369 0.0846 0.65212 0.0
C450 C 0.35041 0.09007 0.6592 0.0
C451 C 0.34826 0.10437 0.64644 0.0
C452 C 0.35989 0.113 0.62668 0.0
C453 C 0.37354 0.10721 0.61982 0.0
C454 C 0.37505 0.09291 0.63324 0.0
H455 H 0.34141 0.08345 0.67435 0.0
O456 O 0.31639 0.02584 0.6462 0.0
O457 O 0.34863 0.04369 0.65065 0.0
O458 O 0.32811 0.03314 0.69483 0.0
O459 O 0.35457 0.0636 0.69407 0.0
C460 C 0.38527 0.11462 0.5998 0.0
C461 C 0.3979 0.10728 0.59323 0.0
H462 H 0.41922 0.08848 0.58508 0.0
H463 H 0.41827 0.06167 0.60969 0.0
H464 H 0.33763 0.10869 0.65177 0.0
H465 H 0.35806 0.12388 0.61675 0.0
H466 H 0.3844 0.12566 0.58906 0.0
H467 H 0.40657 0.11283 0.57757 0.0
Mn468 Mn 0.97664 0.3168 0.6811 0.0
Mn469 Mn 0.97749 0.27366 0.68214 0.0
C470 C 0.95445 0.29094 0.70395 0.0
C471 C 0.98796 0.34878 0.69533 0.0
C472 C 0.95939 0.28548 0.64253 0.0
O473 O 0.00317 0.32423 0.6665 0.0
O474 O 0.00293 0.29524 0.67033 0.0
C475 C 0.00765 0.28421 0.71921 0.0
N476 N 0.98918 0.27192 0.71078 0.0
C477 C 0.98119 0.25076 0.74432 0.0
C478 C 1.00016 0.26313 0.75331 0.0
C479 C 0.01342 0.27996 0.74072 0.0
C480 C 0.97625 0.25579 0.72284 0.0
H481 H 0.01786 0.29716 0.70958 0.0
C482 C 0.01123 0.31345 0.66416 0.0
O483 O 0.98032 0.3437 0.6746 0.0
O484 O 0.98962 0.33551 0.70738 0.0
N485 N 0.95393 0.25126 0.69312 0.0
C486 C 0.93611 0.24102 0.68218 0.0
C487 C 0.9211 0.22384 0.69256 0.0
C488 C 0.92465 0.21722 0.7139 0.0
C489 C 0.94324 0.22776 0.72457 0.0
C490 C 0.95766 0.24471 0.71334 0.0
H491 H 0.93333 0.24596 0.66571 0.0
O492 O 0.95106 0.30513 0.69802 0.0
O493 O 0.97096 0.2925 0.69679 0.0
O494 O 0.96237 0.30185 0.65133 0.0
O495 O 0.96478 0.27409 0.65238 0.0
C496 C 0.94797 0.22223 0.74604 0.0
C497 C 0.96691 0.23376 0.75594 0.0
H498 H 0.00466 0.25991 0.7699 0.0
H499 H 0.02806 0.28961 0.74759 0.0
H500 H 0.90682 0.21574 0.68415 0.0
H501 H 0.91299 0.20407 0.72195 0.0
H502 H 0.93708 0.20929 0.75523 0.0
H503 H 0.9703 0.22951 0.7726 0.0
Mn504 Mn 0.68458 0.66245 0.68222 0.0
Mn505 Mn 0.72928 0.70395 0.68444 0.0
C506 C 0.7079 0.66515 0.70946 0.0
C507 C 0.6516 0.64335 0.69304 0.0
C508 C 0.71935 0.67109 0.65002 0.0
O509 O 0.6795 0.68178 0.66326 0.0
O510 O 0.71032 0.70755 0.66442 0.0
C511 C 0.71582 0.72809 0.71028 0.0
N512 N 0.72837 0.72068 0.70824 0.0
C513 C 0.74629 0.73802 0.74268 0.0
C514 C 0.73363 0.74592 0.74509 0.0
C515 C 0.71827 0.74085 0.72887 0.0
C516 C 0.743 0.72522 0.72394 0.0
H517 H 0.70405 0.7243 0.69782 0.0
C518 C 0.69236 0.69931 0.65746 0.0
O519 O 0.65821 0.63984 0.674 0.0
O520 O 0.66387 0.65861 0.70522 0.0
N521 N 0.74966 0.70359 0.70294 0.0
C522 C 0.76066 0.69479 0.69811 0.0
C523 C 0.77656 0.69825 0.71276 0.0
C524 C 0.78136 0.71115 0.73183 0.0
C525 C 0.77026 0.72057 0.73601 0.0
C526 C 0.7545 0.71645 0.72089 0.0
H527 H 0.75728 0.68516 0.68325 0.0
O528 O 0.69356 0.64802 0.70323 0.0
O529 O 0.70811 0.6806 0.70008 0.0
O530 O 0.70121 0.66068 0.65551 0.0
O531 O 0.73148 0.68722 0.66018 0.0
C532 C 0.77409 0.73371 0.75474 0.0
C533 C 0.76202 0.74232 0.75817 0.0
H534 H 0.73552 0.75585 0.75934 0.0
H535 H 0.7084 0.74684 0.73065 0.0
H536 H 0.78515 0.69104 0.70929 0.0
H537 H 0.79359 0.71372 0.74315 0.0
H538 H 0.7861 0.73708 0.76679 0.0
H539 H 0.76495 0.75221 0.77279 0.0
Mn540 Mn 0.33016 0.31559 0.67683 0.0
Mn541 Mn 0.37463 0.3184 0.67135 0.0
C542 C 0.33374 0.29449 0.65147 0.0
C543 C 0.30792 0.32616 0.66576 0.0
C544 C 0.34721 0.29802 0.71189 0.0
O545 O 0.34888 0.34204 0.69227 0.0
O546 O 0.37782 0.34322 0.68537 0.0
C547 C 0.39102 0.34982 0.63555 0.0
N548 N 0.38619 0.33123 0.64267 0.0
C549 C 0.39831 0.3249 0.60714 0.0
C550 C 0.40352 0.34402 0.59947 0.0
C551 C 0.3998 0.35651 0.61371 0.0
C552 C 0.38954 0.31904 0.62903 0.0
H553 H 0.38816 0.35944 0.64645 0.0
C554 C 0.36766 0.35075 0.69342 0.0
O555 O 0.3066 0.31779 0.68578 0.0
O556 O 0.32256 0.32904 0.65264 0.0
N557 N 0.37424 0.29557 0.65814 0.0
C558 C 0.36819 0.27752 0.66805 0.0
C559 C 0.37074 0.26322 0.65599 0.0
C560 C 0.37977 0.26772 0.63406 0.0
C561 C 0.38633 0.28657 0.62449 0.0
C562 C 0.38347 0.30025 0.63737 0.0
H563 H 0.36137 0.27401 0.68496 0.0
O564 O 0.31645 0.29042 0.65875 0.0
O565 O 0.34849 0.31117 0.65866 0.0
O566 O 0.33301 0.30061 0.70494 0.0
O567 O 0.36343 0.30451 0.7009 0.0
C568 C 0.3954 0.29224 0.60256 0.0
C569 C 0.40132 0.31137 0.59386 0.0
H570 H 0.4103 0.34923 0.58264 0.0
H571 H 0.40372 0.37126 0.60787 0.0
H572 H 0.36574 0.24875 0.66356 0.0
H573 H 0.38156 0.2566 0.62473 0.0
H574 H 0.39768 0.28193 0.59213 0.0
H575 H 0.40806 0.31548 0.57686 0.0
Mn576 Mn 0.68188 0.02068 0.67879 0.0
Mn577 Mn 0.72233 0.01551 0.68229 0.0
C578 C 0.70707 0.04056 0.7042 0.0
C579 C 0.6497 0.00953 0.69163 0.0
C580 C 0.71453 0.03706 0.64265 0.0
O581 O 0.67386 0.99491 0.66129 0.0
O582 O 0.69987 0.99073 0.66967 0.0
C583 C 0.70883 0.98495 0.7191 0.0
N584 N 0.72232 0.00315 0.7111 0.0
C585 C 0.74219 0.00977 0.74574 0.0
C586 C 0.72857 0.99104 0.75429 0.0
C587 C 0.71179 0.9786 0.74093 0.0
C588 C 0.73842 0.0153 0.7239 0.0
H589 H 0.69588 0.97539 0.7089 0.0
C590 C 0.68275 0.98481 0.66073 0.0
O591 O 0.65575 0.01903 0.67206 0.0
O592 O 0.66208 0.00621 0.70321 0.0
N593 N 0.74543 0.03817 0.69413 0.0
C594 C 0.75706 0.05582 0.68344 0.0
C595 C 0.77444 0.07 0.69454 0.0
C596 C 0.77981 0.0658 0.71634 0.0
C597 C 0.76786 0.04735 0.72673 0.0
C598 C 0.7508 0.03375 0.71476 0.0
H599 H 0.7531 0.05911 0.66662 0.0
O600 O 0.69374 0.04517 0.69836 0.0
O601 O 0.70476 0.02399 0.69578 0.0
O602 O 0.69899 0.03642 0.65088 0.0
O603 O 0.72353 0.0289 0.65254 0.0
C604 C 0.77211 0.042 0.7486 0.0
C605 C 0.75924 0.02325 0.75814 0.0
H606 H 0.73079 0.9861 0.77113 0.0
H607 H 0.70117 0.96417 0.74746 0.0
H608 H 0.78365 0.08416 0.68633 0.0
H609 H 0.79313 0.07684 0.72494 0.0
H610 H 0.7851 0.05228 0.75836 0.0
H611 H 0.76253 0.0194 0.7751 0.0
Mn612 Mn 0.98133 0.67116 0.66815 0.0
Mn613 Mn 0.93966 0.62701 0.66408 0.0
C614 C 0.95802 0.66619 0.63989 0.0
C615 C 0.01418 0.69104 0.65745 0.0
C616 C 0.94701 0.65738 0.70198 0.0
O617 O 0.98778 0.65286 0.68725 0.0
O618 O 0.96055 0.62361 0.67989 0.0
C619 C 0.95313 0.60666 0.63156 0.0
N620 N 0.94022 0.61308 0.63697 0.0
C621 C 0.92168 0.59922 0.60166 0.0
C622 C 0.9347 0.59236 0.59576 0.0
C623 C 0.95052 0.59614 0.61075 0.0
C624 C 0.92499 0.60958 0.62264 0.0
H625 H 0.96531 0.60957 0.64304 0.0
C626 C 0.97779 0.63401 0.68885 0.0
O627 O 0.00728 0.69493 0.67604 0.0
O628 O 0.00219 0.67551 0.64556 0.0
N629 N 0.91824 0.62815 0.64901 0.0
C630 C 0.90759 0.63661 0.65671 0.0
C631 C 0.89151 0.63465 0.64341 0.0
C632 C 0.88644 0.62386 0.62247 0.0
C633 C 0.89746 0.61507 0.61506 0.0
C634 C 0.91326 0.61744 0.6291 0.0
H635 H 0.91138 0.64487 0.67282 0.0
O636 O 0.97094 0.684 0.64618 0.0
O637 O 0.95924 0.65192 0.65017 0.0
O638 O 0.96348 0.67123 0.69448 0.0
O639 O 0.93753 0.64042 0.69216 0.0
C640 C 0.89363 0.60439 0.59406 0.0
C641 C 0.90575 0.5965 0.58734 0.0
H642 H 0.93279 0.58431 0.57968 0.0
H643 H 0.96069 0.59097 0.60627 0.0
H644 H 0.8831 0.64149 0.64924 0.0
H645 H 0.87417 0.62256 0.61213 0.0
H646 H 0.88158 0.60241 0.58278 0.0
H647 H 0.90283 0.58856 0.571 0.0
C648 C 0.21711 0.33733 0.09989 0.0
C649 C 0.22308 0.32301 0.10257 0.0
C650 C 0.2017 0.33641 0.11322 0.0
C651 C 0.1921 0.32131 0.1297 0.0
C652 C 0.21277 0.30737 0.11832 0.0
C653 C 0.19746 0.30652 0.13169 0.0
C654 C 0.17663 0.32112 0.14482 0.0
C655 C 0.20377 0.3063 0.21495 0.0
C656 C 0.22306 0.32181 0.2119 0.0
C657 C 0.1886 0.3047 0.20039 0.0
C658 C 0.1926 0.31851 0.18251 0.0
C659 C 0.2272 0.33548 0.1939 0.0
C660 C 0.21205 0.33391 0.17936 0.0
C661 C 0.17614 0.31821 0.16918 0.0
C662 C 0.10121 0.30434 0.20859 0.0
C663 C 0.10535 0.32246 0.21897 0.0
C664 C 0.11441 0.30341 0.19291 0.0
C665 C 0.13172 0.32064 0.18674 0.0
C666 C 0.12289 0.33967 0.21269 0.0
C667 C 0.13584 0.33876 0.19667 0.0
C668 C 0.14633 0.31964 0.17139 0.0
C669 C 0.12845 0.35107 0.11061 0.0
C670 C 0.10792 0.33861 0.11156 0.0
C671 C 0.14112 0.34603 0.12229 0.0
C672 C 0.13353 0.32851 0.13526 0.0
C673 C 0.10035 0.32089 0.12431 0.0
C674 C 0.11307 0.31584 0.13597 0.0
C675 C 0.14731 0.32352 0.1473 0.0
H676 H 0.22477 0.34965 0.08807 0.0
H677 H 0.19773 0.34791 0.11123 0.0
H678 H 0.21662 0.29582 0.12046 0.0
H679 H 0.1899 0.29436 0.14374 0.0
H680 H 0.20037 0.29576 0.22896 0.0
H681 H 0.17368 0.29291 0.20337 0.0
H682 H 0.24201 0.3477 0.1916 0.0
H683 H 0.21543 0.34518 0.16627 0.0
H684 H 0.08779 0.2908 0.21258 0.0
H685 H 0.11111 0.28924 0.18559 0.0
H686 H 0.12698 0.35383 0.22062 0.0
H687 H 0.14934 0.35216 0.19242 0.0
H688 H 0.13478 0.36461 0.10054 0.0
H689 H 0.15688 0.3559 0.12129 0.0
H690 H 0.08461 0.31098 0.12537 0.0
H691 H 0.10691 0.30191 0.14519 0.0
N692 N 0.16236 0.32404 0.13489 0.0
N693 N 0.1609 0.31737 0.18146 0.0
C694 C 0.64821 0.87132 0.10502 0.0
C695 C 0.66247 0.89029 0.0974 0.0
C696 C 0.65382 0.85909 0.11673 0.0
C697 C 0.67378 0.86535 0.12064 0.0
C698 C 0.68255 0.89627 0.10103 0.0
C699 C 0.68814 0.88373 0.11215 0.0
C700 C 0.67941 0.85257 0.13365 0.0
C701 C 0.67966 0.89697 0.18674 0.0
C702 C 0.6681 0.88784 0.20656 0.0
C703 C 0.68388 0.88598 0.17068 0.0
C704 C 0.67601 0.86548 0.17356 0.0
C705 C 0.66051 0.86735 0.20938 0.0
C706 C 0.66417 0.85637 0.19302 0.0
C707 C 0.68088 0.85312 0.15815 0.0
C708 C 0.69094 0.78123 0.18048 0.0
C709 C 0.68155 0.77788 0.20224 0.0
C710 C 0.6931 0.79686 0.16618 0.0
C711 C 0.68478 0.80865 0.17264 0.0
C712 C 0.67517 0.79108 0.2095 0.0
C713 C 0.67629 0.80577 0.1948 0.0
C714 C 0.68463 0.82426 0.15754 0.0
C715 C 0.66467 0.77094 0.11248 0.0
C716 C 0.67844 0.77383 0.09515 0.0
C717 C 0.66538 0.78711 0.12399 0.0
C718 C 0.68031 0.80643 0.11892 0.0
C719 C 0.69243 0.79321 0.08882 0.0
C720 C 0.69337 0.80943 0.10067 0.0
C721 C 0.68248 0.82335 0.13296 0.0
H722 H 0.63265 0.86583 0.10194 0.0
H723 H 0.64257 0.84473 0.12284 0.0
H724 H 0.69402 0.91079 0.0958 0.0
H725 H 0.70365 0.88866 0.1149 0.0
H726 H 0.68571 0.91266 0.18366 0.0
H727 H 0.69384 0.89373 0.15662 0.0
H728 H 0.65214 0.85964 0.22459 0.0
H729 H 0.65796 0.84062 0.19595 0.0
H730 H 0.69645 0.77173 0.17424 0.0
H731 H 0.70104 0.79942 0.15004 0.0
H732 H 0.66914 0.7902 0.22663 0.0
H733 H 0.67019 0.8148 0.20096 0.0
H734 H 0.65356 0.75612 0.1174 0.0
H735 H 0.65478 0.78451 0.13753 0.0
H736 H 0.70313 0.79576 0.07542 0.0
H737 H 0.70476 0.82426 0.09622 0.0
N738 N 0.68022 0.83772 0.12197 0.0
N739 N 0.68381 0.83919 0.16877 0.0
C740 C 0.12135 0.77909 0.13308 0.0
C741 C 0.11238 0.78171 0.11308 0.0
C742 C 0.13246 0.79493 0.14807 0.0
C743 C 0.13476 0.81375 0.14352 0.0
C744 C 0.11412 0.80037 0.10888 0.0
C745 C 0.12541 0.81632 0.12386 0.0
C746 C 0.149 0.83106 0.15743 0.0
C747 C 0.10024 0.79358 0.20776 0.0
C748 C 0.1063 0.78539 0.22574 0.0
C749 C 0.11421 0.80824 0.1932 0.0
C750 C 0.13445 0.81502 0.19657 0.0
C751 C 0.12654 0.79231 0.22907 0.0
C752 C 0.14043 0.80703 0.21477 0.0
C753 C 0.14968 0.83094 0.18202 0.0
C754 C 0.22186 0.90876 0.20742 0.0
C755 C 0.22865 0.90151 0.22572 0.0
C756 C 0.20666 0.89566 0.19253 0.0
C757 C 0.19801 0.87508 0.1957 0.0
C758 C 0.22001 0.88091 0.22866 0.0
C759 C 0.20488 0.86791 0.2139 0.0
C760 C 0.18088 0.86072 0.18158 0.0
C761 C 0.22971 0.88688 0.12807 0.0
C762 C 0.22721 0.89904 0.11181 0.0
C763 C 0.21459 0.87517 0.14345 0.0
C764 C 0.19661 0.87523 0.14263 0.0
C765 C 0.20939 0.89945 0.11136 0.0
C766 C 0.19408 0.88739 0.12644 0.0
C767 C 0.17991 0.86118 0.15703 0.0
H768 H 0.12019 0.76486 0.1368 0.0
H769 H 0.14 0.79262 0.16265 0.0
H770 H 0.10751 0.80283 0.09348 0.0
H771 H 0.12725 0.83077 0.11979 0.0
H772 H 0.08474 0.78854 0.20483 0.0
H773 H 0.10924 0.81443 0.17954 0.0
H774 H 0.13168 0.78651 0.243 0.0
H775 H 0.15593 0.81209 0.21785 0.0
H776 H 0.22821 0.92454 0.20468 0.0
H777 H 0.20134 0.90163 0.17899 0.0
H778 H 0.22456 0.87478 0.24282 0.0
H779 H 0.19838 0.85213 0.21687 0.0
H780 H 0.24336 0.88638 0.12879 0.0
H781 H 0.21672 0.86563 0.15553 0.0
H782 H 0.2071 0.90864 0.09889 0.0
H783 H 0.18022 0.88744 0.12535 0.0
N784 N 0.16404 0.84631 0.14592 0.0
N785 N 0.16566 0.84568 0.19302 0.0
C786 C 0.33529 0.11025 0.83531 0.0
C787 C 0.32294 0.10179 0.81576 0.0
C788 C 0.3318 0.12186 0.85107 0.0
C789 C 0.31564 0.12499 0.84789 0.0
C790 C 0.30618 0.10403 0.81331 0.0
C791 C 0.30264 0.1156 0.82914 0.0
C792 C 0.31427 0.14071 0.86105 0.0
C793 C 0.31012 0.09754 0.91779 0.0
C794 C 0.32733 0.10561 0.93174 0.0
C795 C 0.30663 0.10957 0.90236 0.0
C796 C 0.32014 0.1299 0.90085 0.0
C797 C 0.34095 0.12595 0.92962 0.0
C798 C 0.33724 0.13795 0.91467 0.0
C799 C 0.31668 0.14322 0.88545 0.0
C800 C 0.31409 0.20864 0.92681 0.0
C801 C 0.33059 0.22679 0.92085 0.0
C802 C 0.30921 0.19152 0.91389 0.0
C803 C 0.32046 0.19234 0.89451 0.0
C804 C 0.34164 0.2276 0.90122 0.0
C805 C 0.33664 0.21056 0.88821 0.0
C806 C 0.31654 0.17392 0.8824 0.0
C807 C 0.32844 0.20684 0.80745 0.0
C808 C 0.31751 0.21654 0.81132 0.0
C809 C 0.32698 0.1921 0.82256 0.0
C810 C 0.3147 0.18677 0.84206 0.0
C811 C 0.30476 0.21085 0.8305 0.0
C812 C 0.30338 0.19609 0.84579 0.0
C813 C 0.31405 0.17139 0.85802 0.0
H814 H 0.34825 0.10868 0.83782 0.0
H815 H 0.3425 0.12942 0.86479 0.0
H816 H 0.29648 0.09793 0.79834 0.0
H817 H 0.29025 0.11801 0.82609 0.0
H818 H 0.29915 0.08204 0.91903 0.0
H819 H 0.29324 0.10309 0.89196 0.0
H820 H 0.35467 0.13272 0.93935 0.0
H821 H 0.34796 0.15357 0.91361 0.0
H822 H 0.30545 0.20755 0.94198 0.0
H823 H 0.29682 0.17755 0.91923 0.0
H824 H 0.35438 0.2414 0.89616 0.0
H825 H 0.34583 0.2115 0.87366 0.0
H826 H 0.33809 0.21058 0.79258 0.0
H827 H 0.33577 0.18507 0.81919 0.0
H828 H 0.29611 0.21802 0.83388 0.0
H829 H 0.29349 0.19197 0.86045 0.0
N830 N 0.313 0.15489 0.84841 0.0
N831 N 0.3177 0.15971 0.89512 0.0
C832 C 0.90636 0.20659 0.90447 0.0
C833 C 0.90083 0.21599 0.92144 0.0
C834 C 0.89222 0.19242 0.88948 0.0
C835 C 0.87234 0.18742 0.89119 0.0
C836 C 0.88091 0.21101 0.92284 0.0
C837 C 0.86683 0.19677 0.90805 0.0
C838 C 0.85687 0.17144 0.8769 0.0
C839 C 0.89221 0.22087 0.82679 0.0
C840 C 0.89906 0.21561 0.80704 0.0
C841 C 0.87893 0.20624 0.84179 0.0
C842 C 0.87272 0.18612 0.83767 0.0
C843 C 0.89276 0.1956 0.80265 0.0
C844 C 0.87975 0.18098 0.81787 0.0
C845 C 0.85753 0.17024 0.8524 0.0
C846 C 0.77661 0.10315 0.82793 0.0
C847 C 0.78189 0.09591 0.80852 0.0
C848 C 0.79115 0.1171 0.8427 0.0
C849 C 0.81122 0.12356 0.83872 0.0
C850 C 0.80184 0.10239 0.80435 0.0
C851 C 0.81636 0.11602 0.81937 0.0
C852 C 0.82706 0.13953 0.85294 0.0
C853 C 0.79065 0.09284 0.90693 0.0
C854 C 0.7815 0.09941 0.92296 0.0
C855 C 0.80499 0.10619 0.89168 0.0
C856 C 0.81042 0.12632 0.8922 0.0
C857 C 0.78702 0.11962 0.92328 0.0
C858 C 0.80143 0.13292 0.90823 0.0
C859 C 0.82636 0.14102 0.87742 0.0
H860 H 0.92152 0.20988 0.90307 0.0
H861 H 0.89673 0.18505 0.87692 0.0
H862 H 0.87615 0.21823 0.93529 0.0
H863 H 0.85155 0.19309 0.90971 0.0
H864 H 0.89668 0.23625 0.8302 0.0
H865 H 0.87309 0.21071 0.85616 0.0
H866 H 0.89782 0.19129 0.78736 0.0
H867 H 0.87499 0.1656 0.81402 0.0
H868 H 0.76127 0.09859 0.83111 0.0
H869 H 0.78666 0.1233 0.85668 0.0
H870 H 0.80618 0.09707 0.7893 0.0
H871 H 0.83169 0.12093 0.81564 0.0
H872 H 0.78696 0.07744 0.90639 0.0
H873 H 0.81208 0.10086 0.87979 0.0
H874 H 0.78005 0.12519 0.93497 0.0
H875 H 0.80547 0.14842 0.90899 0.0
N876 N 0.84127 0.15689 0.8883 0.0
N877 N 0.84266 0.15422 0.8415 0.0
C878 C 0.78629 0.68961 0.90447 0.0
C879 C 0.77798 0.67409 0.92073 0.0
C880 C 0.80279 0.69293 0.89156 0.0
C881 C 0.81116 0.68059 0.89434 0.0
C882 C 0.78672 0.6621 0.92388 0.0
C883 C 0.80311 0.66534 0.91087 0.0
C884 C 0.82873 0.68388 0.88092 0.0
C885 C 0.78164 0.66728 0.82557 0.0
C886 C 0.78419 0.68366 0.81247 0.0
C887 C 0.79665 0.66882 0.8404 0.0
C888 C 0.81456 0.68667 0.84207 0.0
C889 C 0.802 0.70161 0.81437 0.0
C890 C 0.8172 0.70301 0.82882 0.0
C891 C 0.83079 0.68792 0.85681 0.0
C892 C 0.89705 0.6755 0.82861 0.0
C893 C 0.90483 0.6895 0.81054 0.0
C894 C 0.8841 0.6762 0.84481 0.0
C895 C 0.87879 0.69107 0.84348 0.0
C896 C 0.90015 0.70484 0.80982 0.0
C897 C 0.88718 0.70553 0.82602 0.0
C898 C 0.86241 0.68992 0.85768 0.0
C899 C 0.90863 0.69839 0.91205 0.0
C900 C 0.90289 0.68196 0.92689 0.0
C901 C 0.89499 0.69947 0.89692 0.0
C902 C 0.87528 0.68423 0.89641 0.0
C903 C 0.88312 0.66668 0.92609 0.0
C904 C 0.86947 0.66793 0.91124 0.0
C905 C 0.86027 0.68568 0.88182 0.0
H906 H 0.77995 0.69912 0.90154 0.0
H907 H 0.80909 0.70528 0.87959 0.0
H908 H 0.78103 0.6503 0.93661 0.0
H909 H 0.80944 0.6558 0.91364 0.0
H910 H 0.76804 0.65329 0.82428 0.0
H911 H 0.79443 0.65596 0.85025 0.0
H912 H 0.80431 0.71436 0.80423 0.0
H913 H 0.83098 0.71686 0.82976 0.0
H914 H 0.90046 0.66357 0.82977 0.0
H915 H 0.87745 0.66448 0.85757 0.0
H916 H 0.90569 0.71573 0.79601 0.0
H917 H 0.88313 0.71699 0.82441 0.0
H918 H 0.92359 0.71063 0.9124 0.0
H919 H 0.89974 0.71243 0.88603 0.0
H920 H 0.87813 0.65359 0.93678 0.0
H921 H 0.85432 0.65601 0.91121 0.0
N922 N 0.84351 0.68281 0.8924 0.0
N923 N 0.84755 0.6909 0.84619 0.0
C924 C 0.75653 0.63733 0.4432 0.0
C925 C 0.76287 0.65178 0.42562 0.0
C926 C 0.77027 0.6348 0.45648 0.0
C927 C 0.79059 0.64701 0.45277 0.0
C928 C 0.78314 0.66306 0.42105 0.0
C929 C 0.79681 0.66078 0.43453 0.0
C930 C 0.80572 0.64556 0.46712 0.0
C931 C 0.77195 0.66063 0.51966 0.0
C932 C 0.76383 0.64718 0.5382 0.0
C933 C 0.78478 0.65906 0.50401 0.0
C934 C 0.78941 0.64375 0.50626 0.0
C935 C 0.76827 0.63173 0.54023 0.0
C936 C 0.78098 0.63009 0.52447 0.0
C937 C 0.80474 0.64325 0.49161 0.0
C938 C 0.88586 0.66721 0.52141 0.0
C939 C 0.88189 0.654 0.53992 0.0
C940 C 0.87132 0.66351 0.50466 0.0
C941 C 0.85263 0.64654 0.50627 0.0
C942 C 0.86354 0.63671 0.5411 0.0
C943 C 0.84896 0.63306 0.52445 0.0
C944 C 0.83605 0.64456 0.49166 0.0
C945 C 0.87611 0.63797 0.44011 0.0
C946 C 0.88543 0.65416 0.42476 0.0
C947 C 0.86068 0.63581 0.45433 0.0
C948 C 0.85404 0.64963 0.45328 0.0
C949 C 0.87864 0.66796 0.42386 0.0
C950 C 0.86299 0.66557 0.43775 0.0
C951 C 0.83711 0.64708 0.46729 0.0
H952 H 0.74102 0.62832 0.4471 0.0
H953 H 0.765 0.62346 0.46978 0.0
H954 H 0.78854 0.67387 0.40715 0.0
H955 H 0.81234 0.67013 0.43092 0.0
H956 H 0.76911 0.67291 0.51789 0.0
H957 H 0.79161 0.67024 0.49066 0.0
H958 H 0.76216 0.62108 0.55424 0.0
H959 H 0.78451 0.61831 0.52677 0.0
H960 H 0.8999 0.68075 0.52047 0.0
H961 H 0.87434 0.67448 0.49129 0.0
H962 H 0.86023 0.62648 0.55545 0.0
H963 H 0.83456 0.62007 0.52625 0.0
H964 H 0.88053 0.62676 0.44099 0.0
H965 H 0.85369 0.62315 0.46582 0.0
H966 H 0.88559 0.68082 0.41268 0.0
H967 H 0.85803 0.67637 0.43662 0.0
N968 N 0.82192 0.64746 0.45604 0.0
N969 N 0.81988 0.64266 0.50279 0.0
C970 C 0.33636 0.23046 0.44845 0.0
C971 C 0.35192 0.24179 0.43329 0.0
C972 C 0.33678 0.21592 0.46224 0.0
C973 C 0.35279 0.21243 0.46118 0.0
C974 C 0.36821 0.23871 0.43253 0.0
C975 C 0.36853 0.22388 0.44623 0.0
C976 C 0.35196 0.19567 0.47429 0.0
C977 C 0.36232 0.24162 0.52977 0.0
C978 C 0.34614 0.23588 0.54468 0.0
C979 C 0.36282 0.22802 0.51413 0.0
C980 C 0.34719 0.20844 0.51321 0.0
C981 C 0.33031 0.21639 0.54312 0.0
C982 C 0.33094 0.20281 0.52777 0.0
C983 C 0.34793 0.19327 0.4983 0.0
C984 C 0.33902 0.11276 0.52063 0.0
C985 C 0.32666 0.10924 0.53998 0.0
C986 C 0.34414 0.12904 0.50603 0.0
C987 C 0.33615 0.14158 0.50959 0.0
C988 C 0.3187 0.12187 0.5433 0.0
C989 C 0.32309 0.13748 0.52815 0.0
C990 C 0.34244 0.16017 0.49622 0.0
C991 C 0.32463 0.11379 0.43981 0.0
C992 C 0.34097 0.11556 0.42755 0.0
C993 C 0.32653 0.12908 0.45436 0.0
C994 C 0.34478 0.14647 0.45681 0.0
C995 C 0.35916 0.13309 0.42983 0.0
C996 C 0.36098 0.14851 0.44411 0.0
C997 C 0.34688 0.16269 0.47216 0.0
H998 H 0.32363 0.23259 0.44922 0.0
H999 H 0.32425 0.20694 0.47321 0.0
H1000 H 0.38026 0.24723 0.42076 0.0
H1001 H 0.38089 0.22121 0.445 0.0
H1002 H 0.37487 0.25643 0.53064 0.0
H1003 H 0.37565 0.23263 0.50328 0.0
H1004 H 0.31737 0.21153 0.55384 0.0
H1005 H 0.31865 0.18782 0.52727 0.0
H1006 H 0.34522 0.10331 0.5169 0.0
H1007 H 0.35487 0.13205 0.49258 0.0
H1008 H 0.30965 0.12041 0.55815 0.0
H1009 H 0.31669 0.14686 0.53158 0.0
H1010 H 0.31047 0.1004 0.4385 0.0
H1011 H 0.31377 0.12733 0.46376 0.0
H1012 H 0.37194 0.1349 0.42044 0.0
H1013 H 0.37512 0.1619 0.44559 0.0
N1014 N 0.35148 0.18037 0.46214 0.0
N1015 N 0.34334 0.17568 0.50817 0.0
C1016 C 0.77599 0.10534 0.45136 0.0
C1017 C 0.76577 0.10775 0.43249 0.0
C1018 C 0.78999 0.12168 0.46383 0.0
C1019 C 0.79385 0.14088 0.45815 0.0
C1020 C 0.76952 0.12696 0.42683 0.0
C1021 C 0.78357 0.1434 0.43945 0.0
C1022 C 0.80978 0.1582 0.47054 0.0
C1023 C 0.76321 0.12477 0.52486 0.0
C1024 C 0.76939 0.11643 0.54255 0.0
C1025 C 0.77689 0.13843 0.50918 0.0
C1026 C 0.79698 0.14401 0.51101 0.0
C1027 C 0.78952 0.12223 0.54442 0.0
C1028 C 0.80313 0.13592 0.52894 0.0
C1029 C 0.81194 0.15873 0.49505 0.0
C1030 C 0.88768 0.23326 0.51686 0.0
C1031 C 0.89519 0.2249 0.53299 0.0
C1032 C 0.87148 0.22108 0.50261 0.0
C1033 C 0.86253 0.20037 0.5044 0.0
C1034 C 0.88643 0.20418 0.53421 0.0
C1035 C 0.87027 0.1921 0.52017 0.0
C1036 C 0.84405 0.18694 0.49183 0.0
C1037 C 0.89037 0.21331 0.43604 0.0
C1038 C 0.88779 0.22655 0.42162 0.0
C1039 C 0.87543 0.20068 0.45113 0.0
C1040 C 0.85754 0.2009 0.45195 0.0
C1041 C 0.86987 0.22677 0.4225 0.0
C1042 C 0.85477 0.21386 0.43733 0.0
C1043 C 0.84154 0.18712 0.46748 0.0
H1044 H 0.77335 0.09076 0.45634 0.0
H1045 H 0.79816 0.11929 0.4776 0.0
H1046 H 0.76205 0.12932 0.41222 0.0
H1047 H 0.78653 0.15809 0.4345 0.0
H1048 H 0.74781 0.12061 0.52301 0.0
H1049 H 0.7718 0.14475 0.49579 0.0
H1050 H 0.79482 0.11637 0.55811 0.0
H1051 H 0.81853 0.14007 0.53088 0.0
H1052 H 0.89415 0.24918 0.51551 0.0
H1053 H 0.86555 0.2278 0.49085 0.0
H1054 H 0.89156 0.19721 0.54669 0.0
H1055 H 0.86354 0.17617 0.52197 0.0
H1056 H 0.90407 0.21291 0.43585 0.0
H1057 H 0.87778 0.1906 0.46203 0.0
H1058 H 0.86745 0.23675 0.41149 0.0
H1059 H 0.84101 0.21414 0.43757 0.0
N1060 N 0.82452 0.17265 0.45771 0.0
N1061 N 0.8291 0.1729 0.50458 0.0
C1062 C 0.96933 0.538 0.13945 0.0
C1063 C 0.98522 0.55732 0.14234 0.0
C1064 C 0.96756 0.52256 0.1537 0.0
C1065 C 0.98152 0.526 0.17131 0.0
C1066 C 0.99875 0.56091 0.16063 0.0
C1067 C 0.99703 0.54542 0.17481 0.0
C1068 C 0.98119 0.50881 0.18326 0.0
C1069 C 0.01023 0.54742 0.25295 0.0
C1070 C 0.99646 0.55375 0.25744 0.0
C1071 C 0.00617 0.53261 0.2366 0.0
C1072 C 0.98852 0.52414 0.22378 0.0
C1073 C 0.97872 0.5452 0.24445 0.0
C1074 C 0.97485 0.53061 0.22766 0.0
C1075 C 0.9844 0.50792 0.20735 0.0
C1076 C 0.99775 0.43809 0.21827 0.0
C1077 C 0.98786 0.43083 0.23948 0.0
C1078 C 0.9958 0.45261 0.20581 0.0
C1079 C 0.98349 0.45974 0.21399 0.0
C1080 C 0.9756 0.43799 0.24762 0.0
C1081 C 0.97344 0.45226 0.23503 0.0
C1082 C 0.9823 0.47626 0.20231 0.0
C1083 C 0.96502 0.42922 0.14544 0.0
C1084 C 0.97636 0.43666 0.12517 0.0
C1085 C 0.96593 0.44222 0.16302 0.0
C1086 C 0.97853 0.46275 0.16074 0.0
C1087 C 0.98896 0.45715 0.12312 0.0
C1088 C 0.99 0.47 0.14063 0.0
C1089 C 0.97945 0.4773 0.17809 0.0
H1090 H 0.95878 0.53454 0.1254 0.0
H1091 H 0.9556 0.50771 0.15039 0.0
H1092 H 0.01107 0.57562 0.16356 0.0
H1093 H 0.00843 0.54854 0.18765 0.0
H1094 H 0.02429 0.55395 0.26197 0.0
H1095 H 0.01696 0.52787 0.23377 0.0
H1096 H 0.96761 0.54944 0.24754 0.0
H1097 H 0.96102 0.52406 0.2181 0.0
H1098 H 0.00757 0.43309 0.21178 0.0
H1099 H 0.00438 0.45863 0.19018 0.0
H1100 H 0.96775 0.43264 0.26386 0.0
H1101 H 0.96403 0.45764 0.2419 0.0
H1102 H 0.95515 0.41347 0.14739 0.0
H1103 H 0.95661 0.43627 0.17813 0.0
H1104 H 0.99813 0.46329 0.10792 0.0
H1105 H 0.99985 0.48574 0.13842 0.0
N1106 N 0.97891 0.49346 0.16972 0.0
N1107 N 0.9847 0.49168 0.21587 0.0
C1108 C 0.45461 0.43419 0.15806 0.0
C1109 C 0.44437 0.44002 0.14246 0.0
C1110 C 0.46837 0.44778 0.17386 0.0
C1111 C 0.4722 0.46745 0.17429 0.0
C1112 C 0.44809 0.45971 0.14332 0.0
C1113 C 0.46202 0.4733 0.15885 0.0
C1114 C 0.48755 0.48236 0.1898 0.0
C1115 C 0.43734 0.44168 0.23401 0.0
C1116 C 0.44174 0.4317 0.25141 0.0
C1117 C 0.45243 0.45756 0.22224 0.0
C1118 C 0.47226 0.46337 0.22703 0.0
C1119 C 0.46152 0.43804 0.25709 0.0
C1120 C 0.47669 0.45375 0.24492 0.0
C1121 C 0.48831 0.47999 0.21412 0.0
C1122 C 0.55464 0.56018 0.24432 0.0
C1123 C 0.56211 0.55393 0.2628 0.0
C1124 C 0.54048 0.54636 0.22915 0.0
C1125 C 0.53399 0.52602 0.23169 0.0
C1126 C 0.55535 0.53368 0.26587 0.0
C1127 C 0.54145 0.51984 0.25038 0.0
C1128 C 0.51835 0.51098 0.21634 0.0
C1129 C 0.5631 0.54722 0.1585 0.0
C1130 C 0.55648 0.55821 0.14532 0.0
C1131 C 0.55083 0.53351 0.17511 0.0
C1132 C 0.53177 0.53052 0.17864 0.0
C1133 C 0.53783 0.55598 0.15015 0.0
C1134 C 0.52551 0.54207 0.16635 0.0
C1135 C 0.51718 0.51345 0.19207 0.0
H1136 H 0.45238 0.41927 0.1577 0.0
H1137 H 0.47633 0.44304 0.18537 0.0
H1138 H 0.44022 0.46468 0.132 0.0
H1139 H 0.46476 0.48842 0.15891 0.0
H1140 H 0.42218 0.43735 0.22975 0.0
H1141 H 0.44851 0.46535 0.20947 0.0
H1142 H 0.46521 0.43062 0.2706 0.0
H1143 H 0.49186 0.45821 0.24927 0.0
H1144 H 0.55947 0.57576 0.24195 0.0
H1145 H 0.53428 0.55165 0.2159 0.0
H1146 H 0.5609 0.5286 0.28013 0.0
H1147 H 0.53649 0.50426 0.25305 0.0
H1148 H 0.57729 0.54841 0.15514 0.0
H1149 H 0.55578 0.52448 0.1842 0.0
H1150 H 0.53242 0.56453 0.14083 0.0
H1151 H 0.51081 0.53991 0.16883 0.0
N1152 N 0.50188 0.49906 0.17985 0.0
N1153 N 0.5038 0.49428 0.22638 0.0
C1154 C 0.45977 0.03313 0.24238 0.0
C1155 C 0.45038 0.01691 0.25763 0.0
C1156 C 0.47573 0.03564 0.22886 0.0
C1157 C 0.48263 0.02201 0.23032 0.0
C1158 C 0.4573 0.00324 0.25882 0.0
C1159 C 0.47334 0.00587 0.24551 0.0
C1160 C 0.49997 0.02471 0.21692 0.0
C1161 C 0.45279 0.00837 0.16144 0.0
C1162 C 0.45602 0.02463 0.14762 0.0
C1163 C 0.46746 0.00971 0.1767 0.0
C1164 C 0.48569 0.02723 0.17811 0.0
C1165 C 0.47409 0.0423 0.14937 0.0
C1166 C 0.48895 0.04349 0.16429 0.0
C1167 C 0.50174 0.02795 0.19267 0.0
C1168 C 0.56219 0.00624 0.16683 0.0
C1169 C 0.56975 0.01791 0.14674 0.0
C1170 C 0.55085 0.00997 0.1826 0.0
C1171 C 0.54713 0.02577 0.179 0.0
C1172 C 0.56672 0.03421 0.1436 0.0
C1173 C 0.55544 0.03802 0.15951 0.0
C1174 C 0.53229 0.02763 0.19329 0.0
C1175 C 0.57967 0.03565 0.24507 0.0
C1176 C 0.5735 0.02043 0.26175 0.0
C1177 C 0.56591 0.03713 0.23054 0.0
C1178 C 0.54572 0.02344 0.23241 0.0
C1179 C 0.55323 0.00681 0.2635 0.0
C1180 C 0.53953 0.00842 0.24917 0.0
C1181 C 0.53078 0.02499 0.21775 0.0
H1182 H 0.45507 0.04412 0.24121 0.0
H1183 H 0.48292 0.04846 0.21763 0.0
H1184 H 0.45023 0.99032 0.26989 0.0
H1185 H 0.47837 0.99514 0.24691 0.0
H1186 H 0.43896 0.99459 0.16026 0.0
H1187 H 0.46477 0.99689 0.18696 0.0
H1188 H 0.47689 0.05494 0.1387 0.0
H1189 H 0.503 0.05706 0.16499 0.0
H1190 H 0.56437 0.99366 0.16989 0.0
H1191 H 0.54412 0.99976 0.19689 0.0
H1192 H 0.57212 0.04336 0.1282 0.0
H1193 H 0.55257 0.05012 0.15611 0.0
H1194 H 0.59509 0.04659 0.24343 0.0
H1195 H 0.57103 0.04913 0.2181 0.0
H1196 H 0.54789 0.99465 0.27574 0.0
H1197 H 0.52403 0.99768 0.25096 0.0
N1198 N 0.51458 0.02343 0.22849 0.0
N1199 N 0.51777 0.02922 0.1818 0.0
C1200 C 0.5585 0.01706 0.77203 0.0
C1201 C 0.55648 0.00174 0.75724 0.0
C1202 C 0.5434 0.01406 0.78735 0.0
C1203 C 0.52596 0.99572 0.78808 0.0
C1204 C 0.539 0.98338 0.75801 0.0
C1205 C 0.52377 0.98049 0.77309 0.0
C1206 C 0.50959 0.99284 0.80344 0.0
C1207 C 0.55767 0.99706 0.85316 0.0
C1208 C 0.56125 0.00928 0.87285 0.0
C1209 C 0.54198 0.99294 0.83786 0.0
C1210 C 0.53005 0.00158 0.84142 0.0
C1211 C 0.54935 0.01805 0.87597 0.0
C1212 C 0.53429 0.01452 0.86034 0.0
C1213 C 0.51177 0.996 0.82779 0.0
C1214 C 0.43174 0.98188 0.8597 0.0
C1215 C 0.43894 0.9981 0.8751 0.0
C1216 C 0.44463 0.97968 0.8446 0.0
C1217 C 0.4649 0.99356 0.8449 0.0
C1218 C 0.4592 0.0118 0.87536 0.0
C1219 C 0.47199 0.0095 0.86057 0.0
C1220 C 0.47926 0.99169 0.8298 0.0
C1221 C 0.44386 0.00721 0.78166 0.0
C1222 C 0.43291 0.99285 0.76471 0.0
C1223 C 0.4579 0.00561 0.79518 0.0
C1224 C 0.46107 0.98943 0.79236 0.0
C1225 C 0.43585 0.97648 0.76205 0.0
C1226 C 0.45002 0.9749 0.77565 0.0
C1227 C 0.47716 0.9889 0.80547 0.0
H1228 H 0.57185 0.03131 0.77192 0.0
H1229 H 0.54527 0.02614 0.79846 0.0
H1230 H 0.53699 0.97136 0.7467 0.0
H1231 H 0.51032 0.96632 0.77317 0.0
H1232 H 0.56663 0.99025 0.84974 0.0
H1233 H 0.53885 0.98245 0.82387 0.0
H1234 H 0.55094 0.02705 0.89106 0.0
H1235 H 0.52539 0.02144 0.86368 0.0
H1236 H 0.41619 0.97108 0.85919 0.0
H1237 H 0.43885 0.96707 0.83292 0.0
H1238 H 0.46526 0.02425 0.88729 0.0
H1239 H 0.48754 0.02038 0.86125 0.0
H1240 H 0.44181 0.01991 0.78419 0.0
H1241 H 0.46665 0.01734 0.80744 0.0
H1242 H 0.4277 0.96532 0.74895 0.0
H1243 H 0.4525 0.96247 0.77299 0.0
N1244 N 0.4923 0.98934 0.79324 0.0
N1245 N 0.49642 0.99506 0.8398 0.0
C1246 C 0.98796 0.55053 0.78303 0.0
C1247 C 1.00079 0.56155 0.76504 0.0
C1248 C 0.99245 0.53893 0.79764 0.0
C1249 C 0.00988 0.53812 0.79461 0.0
C1250 C 0.01851 0.56117 0.7623 0.0
C1251 C 0.0229 0.5493 0.77685 0.0
C1252 C 0.01322 0.52406 0.80859 0.0
C1253 C 0.0279 0.5708 0.86814 0.0
C1254 C 0.0109 0.56467 0.88174 0.0
C1255 C 0.02839 0.55833 0.85082 0.0
C1256 C 0.01192 0.53962 0.84697 0.0
C1257 C 0.99408 0.54642 0.87662 0.0
C1258 C 0.99469 0.53395 0.85965 0.0
C1259 C 0.01339 0.52449 0.83306 0.0
C1260 C 0.01447 0.44912 0.86075 0.0
C1261 C 0.0028 0.44551 0.88076 0.0
C1262 C 0.01806 0.46478 0.8457 0.0
C1263 C 0.00926 0.47656 0.84973 0.0
C1264 C 0.995 0.4581 0.88526 0.0
C1265 C 0.99791 0.4731 0.86984 0.0
C1266 C 0.01201 0.49309 0.83424 0.0
C1267 C 0.99077 0.43956 0.78906 0.0
C1268 C 0.0043 0.44144 0.77186 0.0
C1269 C 0.99284 0.45624 0.80075 0.0
C1270 C 0.00886 0.47506 0.79603 0.0
C1271 C 0.01961 0.4604 0.76608 0.0
C1272 C 0.02188 0.47709 0.77811 0.0
C1273 C 0.01191 0.4926 0.80955 0.0
H1274 H 0.97422 0.55061 0.7855 0.0
H1275 H 0.98191 0.53001 0.8108 0.0
H1276 H 0.02853 0.56943 0.74841 0.0
H1277 H 0.03629 0.54862 0.77406 0.0
H1278 H 0.04113 0.58472 0.87169 0.0
H1279 H 0.04192 0.56279 0.8414 0.0
H1280 H 0.98058 0.54145 0.88628 0.0
H1281 H 0.98188 0.51949 0.85698 0.0
H1282 H 0.0208 0.43985 0.85652 0.0
H1283 H 0.02764 0.46757 0.83097 0.0
H1284 H 0.98672 0.45663 0.90087 0.0
H1285 H 0.99117 0.48208 0.8738 0.0
H1286 H 0.97862 0.42514 0.7935 0.0
H1287 H 0.98215 0.45439 0.81386 0.0
H1288 H 0.03017 0.46222 0.75281 0.0
H1289 H 0.03411 0.49152 0.77387 0.0
N1290 N 0.01268 0.50821 0.79768 0.0
N1291 N 0.01284 0.50911 0.84479 0.0
C1292 C 0.54643 0.58196 0.78495 0.0
C1293 C 0.55201 0.57707 0.76371 0.0
C1294 C 0.53102 0.56753 0.79817 0.0
C1295 C 0.52147 0.54751 0.79136 0.0
C1296 C 0.54111 0.55727 0.75597 0.0
C1297 C 0.52632 0.54273 0.76972 0.0
C1298 C 0.50635 0.53143 0.8062 0.0
C1299 C 0.55864 0.56269 0.85635 0.0
C1300 C 0.55438 0.56942 0.87705 0.0
C1301 C 0.54347 0.5508 0.84076 0.0
C1302 C 0.52389 0.54596 0.84532 0.0
C1303 C 0.53489 0.56484 0.88136 0.0
C1304 C 0.51982 0.55326 0.86565 0.0
C1305 C 0.50722 0.53129 0.8309 0.0
C1306 C 0.45529 0.46261 0.87994 0.0
C1307 C 0.43492 0.45453 0.87617 0.0
C1308 C 0.46885 0.47733 0.86533 0.0
C1309 C 0.4624 0.48418 0.84639 0.0
C1310 C 0.42841 0.46154 0.85736 0.0
C1311 C 0.44204 0.47619 0.84254 0.0
C1312 C 0.47723 0.50028 0.83164 0.0
C1313 C 0.44082 0.46581 0.76121 0.0
C1314 C 0.44027 0.44779 0.76621 0.0
C1315 C 0.45252 0.4827 0.77472 0.0
C1316 C 0.46343 0.48168 0.79374 0.0
C1317 C 0.45111 0.44683 0.78535 0.0
C1318 C 0.46257 0.46358 0.79894 0.0
C1319 C 0.47695 0.49971 0.80708 0.0
H1320 H 0.55416 0.59685 0.79188 0.0
H1321 H 0.5269 0.57211 0.81395 0.0
H1322 H 0.54398 0.55276 0.73932 0.0
H1323 H 0.51888 0.52758 0.76347 0.0
H1324 H 0.57352 0.56579 0.85283 0.0
H1325 H 0.54694 0.54485 0.82561 0.0
H1326 H 0.53124 0.56988 0.89718 0.0
H1327 H 0.50483 0.54955 0.86971 0.0
H1328 H 0.46079 0.45778 0.89449 0.0
H1329 H 0.48445 0.48333 0.8688 0.0
H1330 H 0.4128 0.4556 0.85406 0.0
H1331 H 0.43668 0.4815 0.82831 0.0
H1332 H 0.43274 0.46698 0.74642 0.0
H1333 H 0.45316 0.49658 0.77024 0.0
H1334 H 0.45091 0.43312 0.78964 0.0
H1335 H 0.47121 0.46249 0.81316 0.0
N1336 N 0.49131 0.5154 0.79536 0.0
N1337 N 0.49245 0.51591 0.84246 0.0
C1338 C 0.65145 0.76623 0.49524 0.0
C1339 C 0.63785 0.75871 0.47662 0.0
C1340 C 0.65108 0.7797 0.51101 0.0
C1341 C 0.63657 0.78541 0.50924 0.0
C1342 C 0.62313 0.76419 0.47505 0.0
C1343 C 0.62254 0.77741 0.49117 0.0
C1344 C 0.63744 0.8014 0.52426 0.0
C1345 C 0.63309 0.75335 0.57248 0.0
C1346 C 0.64951 0.75957 0.58744 0.0
C1347 C 0.63007 0.76726 0.56008 0.0
C1348 C 0.64351 0.78763 0.56224 0.0
C1349 C 0.66239 0.78 0.59026 0.0
C1350 C 0.65942 0.79381 0.57787 0.0
C1351 C 0.64146 0.80283 0.54854 0.0
C1352 C 0.64002 0.87619 0.57909 0.0
C1353 C 0.6575 0.88523 0.59254 0.0
C1354 C 0.63594 0.86024 0.5643 0.0
C1355 C 0.64912 0.85284 0.56292 0.0
C1356 C 0.67088 0.87805 0.5904 0.0
C1357 C 0.6666 0.8619 0.57605 0.0
C1358 C 0.6444 0.83501 0.54897 0.0
C1359 C 0.66457 0.88326 0.49483 0.0
C1360 C 0.64928 0.88217 0.48049 0.0
C1361 C 0.66131 0.8678 0.50991 0.0
C1362 C 0.64279 0.85069 0.51088 0.0
C1363 C 0.63055 0.86509 0.48197 0.0
C1364 C 0.62743 0.84941 0.49677 0.0
C1365 C 0.64024 0.83355 0.5249 0.0
H1366 H 0.66284 0.76218 0.49727 0.0
H1367 H 0.66263 0.78616 0.52407 0.0
H1368 H 0.61261 0.75899 0.46078 0.0
H1369 H 0.61141 0.78184 0.48914 0.0
H1370 H 0.62285 0.73774 0.56995 0.0
H1371 H 0.61737 0.76207 0.54863 0.0
H1372 H 0.67489 0.78538 0.60207 0.0
H1373 H 0.66988 0.80941 0.58014 0.0
H1374 H 0.62921 0.88105 0.58039 0.0
H1375 H 0.62223 0.85329 0.55451 0.0
H1376 H 0.68477 0.88488 0.59981 0.0
H1377 H 0.67702 0.85649 0.57513 0.0
H1378 H 0.67935 0.89574 0.4939 0.0
H1379 H 0.67353 0.86891 0.5202 0.0
H1380 H 0.61828 0.8637 0.4716 0.0
H1381 H 0.61305 0.83624 0.49712 0.0
N1382 N 0.63686 0.8168 0.5135 0.0
N1383 N 0.64487 0.81965 0.5598 0.0
C1384 C 0.12286 0.77063 0.49503 0.0
C1385 C 0.11346 0.77758 0.47962 0.0
C1386 C 0.13559 0.783 0.51249 0.0
C1387 C 0.13924 0.80253 0.51467 0.0
C1388 C 0.11617 0.79673 0.48308 0.0
C1389 C 0.12914 0.80915 0.50018 0.0
C1390 C 0.15592 0.81706 0.52889 0.0
C1391 C 0.10733 0.78806 0.58099 0.0
C1392 C 0.1099 0.77573 0.59691 0.0
C1393 C 0.12264 0.80048 0.56625 0.0
C1394 C 0.14088 0.80098 0.56731 0.0
C1395 C 0.12805 0.77598 0.59776 0.0
C1396 C 0.14354 0.78875 0.58329 0.0
C1397 C 0.15752 0.81546 0.55313 0.0
C1398 C 0.22862 0.894 0.57741 0.0
C1399 C 0.23574 0.88785 0.59635 0.0
C1400 C 0.2136 0.8801 0.56317 0.0
C1401 C 0.20592 0.8597 0.56703 0.0
C1402 C 0.2278 0.86756 0.60071 0.0
C1403 C 0.21309 0.8536 0.58608 0.0
C1404 C 0.18923 0.84469 0.55284 0.0
C1405 C 0.23435 0.87865 0.49518 0.0
C1406 C 0.22792 0.88864 0.47996 0.0
C1407 C 0.22156 0.8655 0.51193 0.0
C1408 C 0.2022 0.86218 0.51368 0.0
C1409 C 0.20881 0.88588 0.48265 0.0
C1410 C 0.19607 0.87267 0.49912 0.0
C1411 C 0.18738 0.8463 0.52848 0.0
H1412 H 0.12126 0.75605 0.49284 0.0
H1413 H 0.14352 0.77775 0.5233 0.0
H1414 H 0.10874 0.80241 0.47207 0.0
H1415 H 0.13182 0.82421 0.50158 0.0
H1416 H 0.09344 0.78805 0.57992 0.0
H1417 H 0.12038 0.81009 0.55442 0.0
H1418 H 0.13037 0.76664 0.60995 0.0
H1419 H 0.15758 0.7891 0.58458 0.0
H1420 H 0.23425 0.90962 0.57409 0.0
H1421 H 0.20767 0.88543 0.54965 0.0
H1422 H 0.23302 0.86254 0.61536 0.0
H1423 H 0.20719 0.838 0.58977 0.0
H1424 H 0.24893 0.88034 0.4935 0.0
H1425 H 0.2265 0.85733 0.52281 0.0
H1426 H 0.20351 0.89368 0.47168 0.0
H1427 H 0.1812 0.87035 0.50021 0.0
N1428 N 0.17081 0.83241 0.5176 0.0
N1429 N 0.17416 0.82926 0.56418 0.0
C1430 C 0.23281 0.34681 0.50188 0.0
C1431 C 0.22556 0.33003 0.48733 0.0
C1432 C 0.21988 0.35026 0.51536 0.0
C1433 C 0.19951 0.33692 0.51463 0.0
C1434 C 0.20519 0.31663 0.48701 0.0
C1435 C 0.19236 0.32005 0.50045 0.0
C1436 C 0.18514 0.34098 0.52667 0.0
C1437 C 0.21618 0.32848 0.58593 0.0
C1438 C 0.23229 0.3466 0.59301 0.0
C1439 C 0.20106 0.32813 0.57233 0.0
C1440 C 0.20164 0.34587 0.56592 0.0
C1441 C 0.23273 0.36435 0.58679 0.0
C1442 C 0.21735 0.36397 0.5736 0.0
C1443 C 0.18611 0.34538 0.55062 0.0
C1444 C 0.10326 0.32118 0.5712 0.0
C1445 C 0.10533 0.33425 0.58927 0.0
C1446 C 0.11918 0.32501 0.55703 0.0
C1447 C 0.13755 0.34209 0.56046 0.0
C1448 C 0.12348 0.35169 0.5923 0.0
C1449 C 0.13954 0.35546 0.57815 0.0
C1450 C 0.15501 0.34439 0.54771 0.0
C1451 C 0.12026 0.35247 0.488 0.0
C1452 C 0.11188 0.3363 0.47244 0.0
C1453 C 0.13338 0.35358 0.50556 0.0
C1454 C 0.13851 0.33865 0.5077 0.0
C1455 C 0.11635 0.32092 0.47558 0.0
C1456 C 0.12971 0.32224 0.49276 0.0
C1457 C 0.15457 0.34091 0.52352 0.0
H1458 H 0.24842 0.35741 0.50257 0.0
H1459 H 0.22574 0.36369 0.52562 0.0
H1460 H 0.19898 0.30379 0.47568 0.0
H1461 H 0.1767 0.30964 0.49941 0.0
H1462 H 0.2156 0.31462 0.59034 0.0
H1463 H 0.18901 0.31404 0.56654 0.0
H1464 H 0.24499 0.37848 0.59207 0.0
H1465 H 0.21799 0.37778 0.56879 0.0
H1466 H 0.08942 0.30765 0.56844 0.0
H1467 H 0.11732 0.31406 0.54411 0.0
H1468 H 0.12548 0.36192 0.60623 0.0
H1469 H 0.15364 0.36856 0.58137 0.0
H1470 H 0.11734 0.36468 0.48606 0.0
H1471 H 0.14021 0.36651 0.51674 0.0
H1472 H 0.1098 0.30794 0.46449 0.0
H1473 H 0.1334 0.3105 0.49417 0.0
N1474 N 0.1695 0.33909 0.51409 0.0
N1475 N 0.17092 0.34671 0.56035 0.0
H1476 H 0.98589 0.40028 0.0321 0.0
H1477 H 0.99365 0.36183 0.07992 0.0
H1478 H 0.98455 0.37604 0.11259 0.0
H1479 H 0.9788 0.40271 0.12775 0.0
H1480 H 0.97183 0.44135 0.07916 0.0
H1481 H 0.97611 0.42379 0.04655 0.0
C1482 C 0.98526 0.39483 0.04965 0.0
C1483 C 0.99051 0.38022 0.05379 0.0
C1484 C 0.98037 0.40329 0.06819 0.0
C1485 C 0.9895 0.37303 0.07646 0.0
C1486 C 0.98446 0.38127 0.0951 0.0
C1487 C 0.97776 0.40693 0.11 0.0
C1488 C 0.97535 0.42351 0.10585 0.0
C1489 C 0.98049 0.39687 0.09125 0.0
C1490 C 0.97405 0.42887 0.08277 0.0
C1491 C 0.97648 0.41884 0.06412 0.0
H1492 H 0.59249 0.60393 0.05128 0.0
H1493 H 0.64679 0.622 0.08872 0.0
H1494 H 0.62835 0.60382 0.12324 0.0
H1495 H 0.59661 0.58184 0.14216 0.0
H1496 H 0.54251 0.56223 0.10311 0.0
H1497 H 0.56097 0.58196 0.06997 0.0
C1498 C 0.60019 0.60379 0.06704 0.0
C1499 C 0.62083 0.61362 0.06743 0.0
C1500 C 0.58952 0.59308 0.08653 0.0
C1501 C 0.63083 0.61391 0.08797 0.0
C1502 C 0.6203 0.60365 0.10769 0.0
C1503 C 0.58886 0.58182 0.12639 0.0
C1504 C 0.56813 0.5707 0.12538 0.0
C1505 C 0.59962 0.59292 0.10705 0.0
C1506 C 0.55838 0.571 0.10475 0.0
C1507 C 0.56893 0.58217 0.08563 0.0
H1508 H 0.38915 0.0246 0.08455 0.0
H1509 H 0.39867 0.98251 0.04606 0.0
H1510 H 0.42385 0.98585 0.07429 0.0
H1511 H 0.44328 0.00092 0.10988 0.0
H1512 H 0.43509 0.04423 0.14756 0.0
H1513 H 0.40929 0.04039 0.1198 0.0
C1514 C 0.39707 0.0165 0.08222 0.0
C1515 C 0.39273 0.00392 0.06291 0.0
C1516 C 0.41158 0.01862 0.09846 0.0
C1517 C 0.40225 0.99267 0.06055 0.0
C1518 C 0.41657 0.99455 0.07667 0.0
C1519 C 0.43582 0.00951 0.11189 0.0
C1520 C 0.44087 0.02275 0.13063 0.0
C1521 C 0.4214 0.00752 0.09565 0.0
C1522 C 0.43133 0.03396 0.13317 0.0
C1523 C 0.41659 0.03171 0.11738 0.0
H1524 H 0.40046 0.02866 0.94801 0.0
H1525 H 0.37301 0.96778 0.97031 0.0
H1526 H 0.3874 0.9597 0.93711 0.0
H1527 H 0.41073 0.97096 0.90399 0.0
H1528 H 0.43784 0.03206 0.88248 0.0
H1529 H 0.42057 0.039 0.91304 0.0
C1530 C 0.39746 0.01356 0.94552 0.0
C1531 C 0.38591 0.9989 0.96178 0.0
C1532 C 0.40585 0.0091 0.92659 0.0
C1533 C 0.38188 0.97935 0.95806 0.0
C1534 C 0.3902 0.97476 0.93914 0.0
C1535 C 0.4125 0.98567 0.90573 0.0
C1536 C 0.42578 0.00105 0.89122 0.0
C1537 C 0.4026 0.98963 0.92359 0.0
C1538 C 0.42798 0.02006 0.8937 0.0
C1539 C 0.4181 0.02405 0.91116 0.0
H1540 H 0.97794 0.38296 0.96198 0.0
H1541 H 0.03083 0.38293 0.94119 0.0
H1542 H 0.03584 0.40653 0.90994 0.0
H1543 H 0.02634 0.4291 0.89099 0.0
H1544 H 0.97 0.42409 0.90769 0.0
H1545 H 0.96546 0.40091 0.9385 0.0
C1546 C 0.99057 0.38822 0.9506 0.0
C1547 C 0.00478 0.38247 0.95469 0.0
C1548 C 0.99287 0.40108 0.93225 0.0
C1549 C 0.02046 0.38833 0.93915 0.0
C1550 C 0.02315 0.40155 0.92114 0.0
C1551 C 0.01281 0.42268 0.90087 0.0
C1552 C 0.99895 0.42915 0.89734 0.0
C1553 C 0.00968 0.40844 0.91792 0.0
C1554 C 0.98153 0.42037 0.91058 0.0
C1555 C 0.97871 0.40683 0.92811 0.0
H1556 H 0.62697 0.62095 0.94394 0.0
H1557 H 0.58907 0.57579 0.99219 0.0
H1558 H 0.56386 0.5602 0.96213 0.0
H1559 H 0.55261 0.55896 0.92202 0.0
H1560 H 0.59068 0.60244 0.8724 0.0
H1561 H 0.61585 0.6191 0.90287 0.0
C1562 C 0.61314 0.60774 0.94778 0.0
C1563 C 0.60988 0.59948 0.97024 0.0
C1564 C 0.59879 0.59854 0.93013 0.0
C1565 C 0.59203 0.58227 0.97502 0.0
C1566 C 0.57755 0.57339 0.95784 0.0
C1567 C 0.56638 0.57217 0.91795 0.0
C1568 C 0.56977 0.57963 0.89516 0.0
C1569 C 0.58079 0.58133 0.93535 0.0
C1570 C 0.5878 0.5965 0.8899 0.0
C1571 C 0.60212 0.60601 0.90731 0.0
H1572 H 1.0 0.60043 0.97557 0.0
H1573 H 0.03364 0.65503 0.93831 0.0
H1574 H 0.03599 0.63679 0.90474 0.0
H1575 H 0.02747 0.605 0.88573 0.0
H1576 H 0.99469 0.55061 0.92422 0.0
H1577 H 0.99302 0.56902 0.95751 0.0
C1578 C 0.00801 0.60826 0.96014 0.0
C1579 C 0.01715 0.62894 0.95948 0.0
C1580 C 0.00931 0.5977 0.94109 0.0
C1581 C 0.02705 0.63907 0.93931 0.0
C1582 C 0.02825 0.62865 0.92011 0.0
C1583 C 0.02013 0.5972 0.90146 0.0
C1584 C 0.01088 0.57639 0.90221 0.0
C1585 C 0.01938 0.60792 0.92079 0.0
C1586 C 0.00143 0.56655 0.92282 0.0
C1587 C 1.00057 0.57707 0.94199 0.0
H1588 H 0.37491 0.40183 0.95412 0.0
H1589 H 0.40951 0.37237 0.94895 0.0
H1590 H 0.42767 0.39349 0.91653 0.0
H1591 H 0.43582 0.42204 0.89175 0.0
H1592 H 0.40233 0.45253 0.89677 0.0
H1593 H 0.38149 0.42916 0.92669 0.0
C1594 C 0.38619 0.39983 0.94562 0.0
C1595 C 0.39094 0.38564 0.95419 0.0
C1596 C 0.39691 0.41231 0.92701 0.0
C1597 C 0.40567 0.38331 0.94298 0.0
C1598 C 0.41611 0.39539 0.92438 0.0
C1599 C 0.4239 0.42352 0.89933 0.0
C1600 C 0.42078 0.43912 0.89226 0.0
C1601 C 0.41221 0.41025 0.91666 0.0
C1602 C 0.40502 0.44061 0.90189 0.0
C1603 C 0.39318 0.42732 0.9191 0.0
H1604 H 0.61553 0.02778 0.96199 0.0
H1605 H 0.61522 0.97468 0.93993 0.0
H1606 H 0.59431 0.97176 0.9064 0.0
H1607 H 0.57481 0.98365 0.88491 0.0
H1608 H 0.58222 0.04127 0.90204 0.0
H1609 H 0.60155 0.043 0.93608 0.0
C1610 C 0.6107 0.0155 0.94989 0.0
C1611 C 0.61532 1.00048 0.95433 0.0
C1612 C 0.59994 0.01475 0.92988 0.0
C1613 C 0.61027 0.98542 0.9378 0.0
C1614 C 0.59872 0.98401 0.91841 0.0
C1615 C 0.58098 0.99689 0.89556 0.0
C1616 C 0.57616 0.0119 0.8911 0.0
C1617 C 0.59317 0.99845 0.91451 0.0
C1618 C 0.5846 0.02888 0.90546 0.0
C1619 C 0.59594 0.03007 0.92491 0.0
H1620 H 0.59228 0.97697 0.06732 0.0
H1621 H 0.63813 0.03704 0.05509 0.0
H1622 H 0.62661 0.04832 0.08835 0.0
H1623 H 0.60236 0.04103 0.12003 0.0
H1624 H 0.55668 0.98055 0.13082 0.0
H1625 H 0.56942 0.96959 0.09908 0.0
C1626 C 0.59985 0.99257 0.07185 0.0
C1627 C 0.61595 0.00615 0.05852 0.0
C1628 C 0.59316 0.99889 0.09082 0.0
C1629 C 0.6257 0.02625 0.06501 0.0
C1630 C 0.61906 0.03271 0.08398 0.0
C1631 C 0.59525 0.02546 0.11543 0.0
C1632 C 0.57864 0.01164 0.12799 0.0
C1633 C 0.60262 0.01917 0.09686 0.0
C1634 C 0.56968 0.9915 0.12185 0.0
C1635 C 0.57686 0.9852 0.10353 0.0
H1636 H 0.9862 0.61438 0.0621 0.0
H1637 H 0.0485 0.63392 0.06683 0.0
H1638 H 0.04274 0.61157 0.09906 0.0
H1639 H 0.0202 0.58499 0.12434 0.0
H1640 H 0.95787 0.56495 0.12085 0.0
H1641 H 0.9635 0.58878 0.08978 0.0
C1642 C 0.99852 0.61389 0.07035 0.0
C1643 C 0.01774 0.6258 0.06173 0.0
C1644 C 0.99514 0.60076 0.08906 0.0
C1645 C 0.0335 0.62487 0.07274 0.0
C1646 C 0.03026 0.61206 0.0913 0.0
C1647 C 0.00783 0.58606 0.11723 0.0
C1648 C 0.98864 0.57311 0.12504 0.0
C1649 C 0.01115 0.59974 0.09938 0.0
C1650 C 0.97281 0.57454 0.11506 0.0
C1651 C 0.97602 0.58823 0.0973 0.0
H1652 H 0.38024 0.37058 0.07977 0.0
H1653 H 0.39868 0.41858 0.03097 0.0
H1654 H 0.42239 0.44159 0.05948 0.0
H1655 H 0.43828 0.44775 0.09775 0.0
H1656 H 0.41845 0.40025 0.14781 0.0
H1657 H 0.39529 0.37718 0.11911 0.0
C1658 C 0.38966 0.38605 0.07543 0.0
C1659 C 0.38843 0.39288 0.05316 0.0
C1660 C 0.40298 0.3992 0.09205 0.0
C1661 C 0.39989 0.41305 0.04789 0.0
C1662 C 0.41337 0.42615 0.06417 0.0
C1663 C 0.42871 0.43244 0.10262 0.0
C1664 C 0.43016 0.42585 0.12504 0.0
C1665 C 0.4151 0.41936 0.08625 0.0
C1666 C 0.4179 0.40577 0.13065 0.0
C1667 C 0.40449 0.39257 0.11431 0.0
H1668 H 0.63622 0.70599 0.391 0.0
H1669 H 0.6991 0.74324 0.39993 0.0
H1670 H 0.69398 0.75884 0.43366 0.0
H1671 H 0.67213 0.76395 0.45873 0.0
H1672 H 0.60912 0.7271 0.45161 0.0
H1673 H 0.61382 0.70963 0.41891 0.0
C1674 C 0.64874 0.71731 0.40058 0.0
C1675 C 0.668 0.72356 0.39274 0.0
C1676 C 0.64571 0.72653 0.42009 0.0
C1677 C 0.6841 0.73832 0.40531 0.0
C1678 C 0.68122 0.74728 0.42467 0.0
C1679 C 0.65934 0.75177 0.45052 0.0
C1680 C 0.6403 0.74686 0.45781 0.0
C1681 C 0.66214 0.74179 0.43193 0.0
C1682 C 0.62398 0.73139 0.44628 0.0
C1683 C 0.62666 0.7213 0.42763 0.0
H1684 H 0.26762 0.93752 0.38878 0.0
H1685 H 0.31947 0.96086 0.43231 0.0
H1686 H 0.29991 0.93968 0.46459 0.0
H1687 H 0.26775 0.9146 0.48033 0.0
H1688 H 0.21634 0.89042 0.43552 0.0
H1689 H 0.23597 0.91168 0.40387 0.0
C1690 C 0.27457 0.93778 0.40533 0.0
C1691 C 0.29492 0.95015 0.40813 0.0
C1692 C 0.26328 0.92546 0.42357 0.0
C1693 C 0.30385 0.95091 0.4297 0.0
C1694 C 0.29266 0.93892 0.44813 0.0
C1695 C 0.26088 0.91386 0.4636 0.0
C1696 C 0.24048 0.90113 0.46054 0.0
C1697 C 0.27234 0.92604 0.44524 0.0
C1698 C 0.23187 0.90043 0.43866 0.0
C1699 C 0.2431 0.91251 0.42045 0.0
H1700 H 0.06374 0.32533 0.37902 0.0
H1701 H 0.03962 0.35492 0.41941 0.0
H1702 H 0.06029 0.35679 0.45286 0.0
H1703 H 0.08503 0.34958 0.47055 0.0
H1704 H 0.11075 0.32213 0.42853 0.0
H1705 H 0.08968 0.31982 0.39592 0.0
C1706 C 0.06321 0.33232 0.39514 0.0
C1707 C 0.05073 0.34048 0.39673 0.0
C1708 C 0.0753 0.33358 0.41404 0.0
C1709 C 0.04964 0.34907 0.41774 0.0
C1710 C 0.06134 0.35002 0.43685 0.0
C1711 C 0.08621 0.34327 0.45422 0.0
C1712 C 0.0993 0.3357 0.45234 0.0
C1713 C 0.0743 0.34237 0.43517 0.0
C1714 C 0.10044 0.32751 0.43092 0.0
C1715 C 0.08848 0.32631 0.41209 0.0
H1716 H 0.05021 0.31587 0.30335 0.0
H1717 H 0.0676 0.37533 0.28114 0.0
H1718 H 0.08545 0.37187 0.24835 0.0
H1719 H 0.09734 0.35261 0.22703 0.0
H1720 H 0.08298 0.29439 0.25161 0.0
H1721 H 0.06236 0.2965 0.28183 0.0
C1722 C 0.05769 0.32793 0.29111 0.0
C1723 C 0.05752 0.34579 0.29458 0.0
C1724 C 0.0685 0.32607 0.27267 0.0
C1725 C 0.06755 0.36144 0.27884 0.0
C1726 C 0.07777 0.35948 0.2601 0.0
C1727 C 0.08992 0.34041 0.23909 0.0
C1728 C 0.09192 0.32339 0.23684 0.0
C1729 C 0.07863 0.34199 0.25707 0.0
C1730 C 0.08161 0.30759 0.25244 0.0
C1731 C 0.0699 0.30884 0.26998 0.0
H1732 H 0.68543 0.71565 0.27039 0.0
H1733 H 0.63836 0.72081 0.30242 0.0
H1734 H 0.63789 0.74089 0.26977 0.0
H1735 H 0.6522 0.75845 0.23394 0.0
H1736 H 0.70344 0.75848 0.20541 0.0
H1737 H 0.69988 0.73358 0.23375 0.0
C1738 C 0.67535 0.72153 0.2703 0.0
C1739 C 0.66262 0.71774 0.28913 0.0
C1740 C 0.6756 0.73352 0.25185 0.0
C1741 C 0.64871 0.7242 0.28834 0.0
C1742 C 0.64841 0.73558 0.2697 0.0
C1743 C 0.66314 0.75369 0.23418 0.0
C1744 C 0.67855 0.76116 0.21783 0.0
C1745 C 0.66216 0.74075 0.25173 0.0
C1746 C 0.69141 0.75327 0.21761 0.0
C1747 C 0.68957 0.73915 0.23407 0.0
H1748 H 0.28202 0.96074 0.30491 0.0
H1749 H 0.30734 0.92216 0.30303 0.0
H1750 H 0.28625 0.90429 0.27016 0.0
H1751 H 0.2593 0.89813 0.24342 0.0
H1752 H 0.23266 0.93541 0.2458 0.0
H1753 H 0.25588 0.9555 0.27647 0.0
C1754 C 0.28308 0.94857 0.29716 0.0
C1755 C 0.2962 0.94277 0.30667 0.0
C1756 C 0.27066 0.93807 0.27827 0.0
C1757 C 0.2973 0.9269 0.29633 0.0
C1758 C 0.28523 0.91663 0.27745 0.0
C1759 C 0.25855 0.91065 0.25063 0.0
C1760 C 0.24411 0.9151 0.24245 0.0
C1761 C 0.27162 0.92184 0.26857 0.0
C1762 C 0.24368 0.93168 0.25165 0.0
C1763 C 0.25686 0.94309 0.26934 0.0
H1764 H 0.64547 0.92167 0.29424 0.0
H1765 H 0.69785 0.97489 0.27419 0.0
H1766 H 0.70199 0.95775 0.24077 0.0
H1767 H 0.69188 0.9269 0.21922 0.0
H1768 H 0.63602 0.87534 0.2354 0.0
H1769 H 0.63239 0.89242 0.26867 0.0
C1770 C 0.65781 0.92941 0.28255 0.0
C1771 C 0.67214 0.94903 0.28741 0.0
C1772 C 0.65961 0.91968 0.26291 0.0
C1773 C 0.68742 0.95935 0.27152 0.0
C1774 C 0.68961 0.94964 0.25227 0.0
C1775 C 0.67862 0.91941 0.22951 0.0
C1776 C 0.66462 0.89946 0.22491 0.0
C1777 C 0.67601 0.92964 0.24809 0.0
C1778 C 0.64762 0.8903 0.23888 0.0
C1779 C 0.64533 0.90015 0.25788 0.0
H1780 H 0.04619 0.73151 0.30296 0.0
H1781 H 0.0773 0.69905 0.29181 0.0
H1782 H 0.0957 0.72115 0.26025 0.0
H1783 H 0.10511 0.75117 0.23786 0.0
H1784 H 0.07511 0.7846 0.2486 0.0
H1785 H 0.05396 0.76055 0.27783 0.0
C1786 C 0.05677 0.72911 0.29337 0.0
C1787 C 0.06049 0.71375 0.30002 0.0
C1788 C 0.06762 0.74214 0.27521 0.0
C1789 C 0.07429 0.71089 0.28737 0.0
C1790 C 0.08486 0.72353 0.26925 0.0
C1791 C 0.09387 0.75314 0.24653 0.0
C1792 C 0.09183 0.76974 0.24132 0.0
C1793 C 0.08201 0.73946 0.26341 0.0
C1794 C 0.07695 0.7719 0.25232 0.0
C1795 C 0.06494 0.75822 0.26913 0.0
H1796 H 0.2885 0.32211 0.27696 0.0
H1797 H 0.27275 0.35797 0.31911 0.0
H1798 H 0.24951 0.35632 0.28893 0.0
H1799 H 0.23227 0.34279 0.25156 0.0
H1800 H 0.24814 0.30705 0.20937 0.0
H1801 H 0.27293 0.31051 0.23844 0.0
C1802 C 0.27988 0.32948 0.27943 0.0
C1803 C 0.28157 0.33949 0.30037 0.0
C1804 C 0.26673 0.32851 0.26202 0.0
C1805 C 0.27115 0.34977 0.30323 0.0
C1806 C 0.25795 0.34884 0.28603 0.0
C1807 C 0.24131 0.33592 0.24881 0.0
C1808 C 0.23854 0.32463 0.22867 0.0
C1809 C 0.25535 0.33793 0.26557 0.0
C1810 C 0.25018 0.31576 0.22492 0.0
C1811 C 0.2643 0.31778 0.24145 0.0
H1812 H 0.2638 0.30115 0.41178 0.0
H1813 H 0.29664 0.3638 0.39774 0.0
H1814 H 0.28153 0.37037 0.4313 0.0
H1815 H 0.25625 0.35785 0.46188 0.0
H1816 H 0.2244 0.29517 0.4765 0.0
H1817 H 0.24188 0.2891 0.44542 0.0
C1818 C 0.26782 0.31627 0.41624 0.0
C1819 C 0.28111 0.33194 0.40216 0.0
C1820 C 0.25911 0.31991 0.4355 0.0
C1821 C 0.28643 0.35148 0.40833 0.0
C1822 C 0.27772 0.35523 0.42743 0.0
C1823 C 0.25347 0.34292 0.45869 0.0
C1824 C 0.23871 0.32695 0.47125 0.0
C1825 C 0.26366 0.33951 0.4408 0.0
C1826 C 0.23529 0.30769 0.46673 0.0
C1827 C 0.24534 0.30419 0.449 0.0
H1828 H 0.68314 0.9577 0.41535 0.0
H1829 H 0.63885 0.91583 0.3686 0.0
H1830 H 0.62754 0.89024 0.39884 0.0
H1831 H 0.63251 0.87919 0.43722 0.0
H1832 H 0.67508 0.92211 0.48516 0.0
H1833 H 0.6849 0.94777 0.45575 0.0
C1834 C 0.67075 0.94306 0.41205 0.0
C1835 C 0.66172 0.93855 0.38997 0.0
C1836 C 0.66426 0.92855 0.42957 0.0
C1837 C 0.64579 0.91959 0.38566 0.0
C1838 C 0.63945 0.90496 0.40286 0.0
C1839 C 0.64359 0.8942 0.4416 0.0
C1840 C 0.65331 0.89838 0.46343 0.0
C1841 C 0.64886 0.90917 0.42476 0.0
C1842 C 0.66776 0.91808 0.46836 0.0
C1843 C 0.67331 0.93292 0.45158 0.0
H1844 H 0.0685 0.74049 0.38489 0.0
H1845 H 0.04635 0.68665 0.42446 0.0
H1846 H 0.06642 0.7053 0.45817 0.0
H1847 H 0.08917 0.7373 0.47672 0.0
H1848 H 0.11234 0.79086 0.43585 0.0
H1849 H 0.0929 0.772 0.40243 0.0
C1850 C 0.06836 0.7329 0.40084 0.0
C1851 C 0.05657 0.7123 0.40216 0.0
C1852 C 0.07989 0.7437 0.41998 0.0
C1853 C 0.05591 0.7025 0.42298 0.0
C1854 C 0.06722 0.71318 0.44225 0.0
C1855 C 0.09016 0.74484 0.46046 0.0
C1856 C 0.10194 0.76559 0.45911 0.0
C1857 C 0.07918 0.73383 0.441 0.0
C1858 C 0.10293 0.77503 0.43778 0.0
C1859 C 0.09195 0.76424 0.41851 0.0
H1860 H 0.36138 0.08063 0.73244 0.0
H1861 H 0.30168 0.03312 0.72301 0.0
H1862 H 0.29157 0.04419 0.75766 0.0
H1863 H 0.29965 0.06841 0.7898 0.0
H1864 H 0.35967 0.11571 0.79813 0.0
H1865 H 0.36967 0.10347 0.76493 0.0
C1866 C 0.34612 0.07262 0.73789 0.0
C1867 C 0.33228 0.05618 0.72495 0.0
C1868 C 0.34047 0.079 0.75775 0.0
C1869 C 0.31265 0.04585 0.7326 0.0
C1870 C 0.30686 0.05221 0.75238 0.0
C1871 C 0.31491 0.07597 0.78437 0.0
C1872 C 0.32888 0.09293 0.79661 0.0
C1873 C 0.32062 0.06892 0.76497 0.0
C1874 C 0.34864 0.10245 0.78941 0.0
C1875 C 0.35438 0.09556 0.77024 0.0
H1876 H 0.96474 0.28345 0.74616 0.0
H1877 H 0.91513 0.26631 0.69998 0.0
H1878 H 0.8934 0.24129 0.72797 0.0
H1879 H 0.88885 0.2236 0.76514 0.0
H1880 H 0.93807 0.24182 0.81224 0.0
H1881 H 0.9598 0.26708 0.78439 0.0
C1882 C 0.94918 0.27409 0.74229 0.0
C1883 C 0.94154 0.276 0.72082 0.0
C1884 C 0.93681 0.26003 0.75861 0.0
C1885 C 0.92128 0.26459 0.71624 0.0
C1886 C 0.90891 0.25036 0.73221 0.0
C1887 C 0.90435 0.23317 0.76919 0.0
C1888 C 0.91203 0.23092 0.79044 0.0
C1889 C 0.91656 0.24778 0.75331 0.0
C1890 C 0.932 0.2434 0.79585 0.0
C1891 C 0.94434 0.25781 0.78001 0.0
H1892 H 0.71943 0.6874 0.74896 0.0
H1893 H 0.72665 0.64379 0.71056 0.0
H1894 H 0.74995 0.64461 0.73996 0.0
H1895 H 0.7696 0.65904 0.77557 0.0
H1896 H 0.76417 0.70422 0.81284 0.0
H1897 H 0.7388 0.70151 0.78514 0.0
C1898 C 0.72632 0.67828 0.74702 0.0
C1899 C 0.72203 0.66613 0.7273 0.0
C1900 C 0.73988 0.67904 0.76387 0.0
C1901 C 0.73022 0.65363 0.72538 0.0
C1902 C 0.74349 0.65408 0.74216 0.0
C1903 C 0.76275 0.6682 0.7776 0.0
C1904 C 0.76861 0.68177 0.7961 0.0
C1905 C 0.74866 0.66694 0.76128 0.0
C1906 C 0.75984 0.69371 0.79861 0.0
C1907 C 0.74533 0.69211 0.78286 0.0
H1908 H 0.71122 0.66779 0.60363 0.0
H1909 H 0.74548 0.65823 0.65607 0.0
H1910 H 0.76153 0.64889 0.62613 0.0
H1911 H 0.76727 0.64542 0.58501 0.0
H1912 H 0.7341 0.65606 0.53198 0.0
H1913 H 0.71622 0.66307 0.56202 0.0
C1914 C 0.72203 0.6634 0.60836 0.0
C1915 C 0.72728 0.66369 0.63187 0.0
C1916 C 0.73147 0.65841 0.59096 0.0
C1917 C 0.74141 0.65823 0.638 0.0
C1918 C 0.75054 0.65288 0.62091 0.0
C1919 C 0.75589 0.64895 0.58002 0.0
C1920 C 0.75198 0.65016 0.5563 0.0
C1921 C 0.74591 0.6532 0.59733 0.0
C1922 C 0.73748 0.65516 0.55013 0.0
C1923 C 0.72722 0.65912 0.56729 0.0
H1924 H 0.30696 0.05373 0.62803 0.0
H1925 H 0.35801 0.05135 0.60442 0.0
H1926 H 0.36053 0.07169 0.57061 0.0
H1927 H 0.3502 0.0929 0.55062 0.0
H1928 H 0.2949 0.08944 0.56956 0.0
H1929 H 0.29247 0.06913 0.60283 0.0
C1930 C 0.31863 0.05777 0.61545 0.0
C1931 C 0.33324 0.05253 0.61944 0.0
C1932 C 0.31944 0.0687 0.59557 0.0
C1933 C 0.34752 0.05659 0.60241 0.0
C1934 C 0.34877 0.06794 0.58296 0.0
C1935 C 0.33721 0.08736 0.56135 0.0
C1936 C 0.32323 0.09366 0.5577 0.0
C1937 C 0.33515 0.0746 0.57978 0.0
C1938 C 0.30662 0.08599 0.57235 0.0
C1939 C 0.30499 0.07404 0.59135 0.0
H1940 H 0.96014 0.2595 0.61162 0.0
H1941 H 0.93365 0.29616 0.62347 0.0
H1942 H 0.91265 0.28201 0.58903 0.0
H1943 H 0.89959 0.25681 0.55786 0.0
H1944 H 0.9267 0.2207 0.54595 0.0
H1945 H 0.94971 0.23712 0.57807 0.0
C1946 C 0.94988 0.26452 0.60658 0.0
C1947 C 0.9483 0.27867 0.62027 0.0
C1948 C 0.93787 0.25634 0.58681 0.0
C1949 C 0.93516 0.28525 0.61327 0.0
C1950 C 0.92308 0.27711 0.59362 0.0
C1951 C 0.91083 0.25286 0.56193 0.0
C1952 C 0.91122 0.23733 0.54972 0.0
C1953 C 0.92402 0.26233 0.58054 0.0
C1954 C 0.92583 0.23233 0.55536 0.0
C1955 C 0.93901 0.24173 0.5737 0.0
H1956 H 0.34935 0.30425 0.60829 0.0
H1957 H 0.32036 0.25534 0.65572 0.0
H1958 H 0.3219 0.2329 0.62697 0.0
H1959 H 0.33214 0.22744 0.5889 0.0
H1960 H 0.35959 0.27584 0.5402 0.0
H1961 H 0.35859 0.2984 0.56914 0.0
C1962 C 0.3436 0.2887 0.61228 0.0
C1963 C 0.33543 0.28145 0.63426 0.0
C1964 C 0.34432 0.27588 0.59552 0.0
C1965 C 0.32716 0.2612 0.63905 0.0
C1966 C 0.32802 0.24842 0.62264 0.0
C1967 C 0.33765 0.24285 0.58439 0.0
C1968 C 0.34582 0.24983 0.56227 0.0
C1969 C 0.33666 0.25562 0.60088 0.0
C1970 C 0.35337 0.27003 0.55712 0.0
C1971 C 0.35264 0.28292 0.57358 0.0
H1972 H 0.71041 0.06726 0.62316 0.0
H1973 H 0.73909 0.03228 0.61349 0.0
H1974 H 0.75735 0.05283 0.58076 0.0
H1975 H 0.76717 0.08208 0.55663 0.0
H1976 H 0.73972 0.11807 0.56616 0.0
H1977 H 0.71879 0.09565 0.59674 0.0
C1978 C 0.72042 0.06397 0.61365 0.0
C1979 C 0.72347 0.04833 0.621 0.0
C1980 C 0.73122 0.07611 0.59484 0.0
C1981 C 0.73659 0.04434 0.60848 0.0
C1982 C 0.74707 0.05609 0.58969 0.0
C1983 C 0.75658 0.08501 0.56537 0.0
C1984 C 0.75518 0.10184 0.55933 0.0
C1985 C 0.74486 0.07226 0.58307 0.0
C1986 C 0.74107 0.10518 0.57045 0.0
C1987 C 0.72918 0.09243 0.58804 0.0
H1988 H 0.93288 0.68013 0.63197 0.0
H1989 H 0.95713 0.64646 0.60079 0.0
H1990 H 0.93633 0.64037 0.56616 0.0
H1991 H 0.9096 0.64296 0.54586 0.0
H1992 H 0.88527 0.6765 0.57721 0.0
H1993 H 0.90743 0.68415 0.61085 0.0
C1994 C 0.93353 0.67149 0.61752 0.0
C1995 C 0.94581 0.66307 0.61906 0.0
C1996 C 0.92143 0.66795 0.59785 0.0
C1997 C 0.94716 0.65243 0.60012 0.0
C1998 C 0.93539 0.64907 0.58033 0.0
C1999 C 0.90939 0.65208 0.56003 0.0
C2000 C 0.89602 0.65923 0.55932 0.0
C2001 C 0.92216 0.6564 0.57921 0.0
C2002 C 0.8956 0.67095 0.57761 0.0
C2003 C 0.90822 0.6753 0.59676 0.0
H2004 H 0.95787 0.69221 0.72567 0.0
H2005 H 0.91561 0.62962 0.7261 0.0
H2006 H 0.89971 0.63404 0.75986 0.0
H2007 H 0.89671 0.65544 0.78854 0.0
H2008 H 0.93814 0.71807 0.78884 0.0
H2009 H 0.95527 0.71384 0.7556 0.0
C2010 C 0.94525 0.67954 0.73322 0.0
C2011 C 0.93801 0.66063 0.72312 0.0
C2012 C 0.93591 0.68215 0.75279 0.0
C2013 C 0.92155 0.6444 0.73322 0.0
C2014 C 0.91239 0.64686 0.75265 0.0
C2015 C 0.9097 0.66815 0.78164 0.0
C2016 C 0.91619 0.68701 0.79132 0.0
C2017 C 0.91934 0.66564 0.76249 0.0
C2018 C 0.93276 0.70337 0.78168 0.0
C2019 C 0.94259 0.70096 0.76269 0.0
H2020 H 0.31297 0.27274 0.73445 0.0
H2021 H 0.37603 0.29622 0.73703 0.0
H2022 H 0.37237 0.27416 0.76905 0.0
H2023 H 0.35137 0.24666 0.7945 0.0
H2024 H 0.2883 0.22207 0.79182 0.0
H2025 H 0.29189 0.24632 0.76207 0.0
C2026 C 0.32593 0.27322 0.74222 0.0
C2027 C 0.34473 0.28605 0.7331 0.0
C2028 C 0.32373 0.26022 0.76059 0.0
C2029 C 0.36134 0.2864 0.74344 0.0
C2030 C 0.35929 0.27377 0.76181 0.0
C2031 C 0.3384 0.24662 0.78742 0.0
C2032 C 0.3196 0.23243 0.79513 0.0
C2033 C 0.34056 0.26035 0.77017 0.0
C2034 C 0.30296 0.23286 0.7862 0.0
C2035 C 0.305 0.24664 0.76909 0.0
H2036 H 0.71329 0.03027 0.74716 0.0
H2037 H 0.73405 0.0791 0.69923 0.0
H2038 H 0.75937 0.10063 0.72731 0.0
H2039 H 0.77591 0.10534 0.76532 0.0
H2040 H 0.75401 0.05731 0.81445 0.0
H2041 H 0.72889 0.03548 0.78615 0.0
C2042 C 0.72355 0.04559 0.74292 0.0
C2043 C 0.72252 0.05303 0.72097 0.0
C2044 C 0.73774 0.05792 0.75936 0.0
C2045 C 0.7351 0.07306 0.71587 0.0
C2046 C 0.74948 0.08533 0.7319 0.0
C2047 C 0.7656 0.09007 0.7697 0.0
C2048 C 0.76673 0.08275 0.79167 0.0
C2049 C 0.75104 0.07788 0.75361 0.0
C2050 C 0.75328 0.0631 0.79751 0.0
C2051 C 0.73896 0.0507 0.7814 0.0
H2052 H 0.06342 0.37623 0.05823 0.0
H2053 H 0.0271 0.31558 0.03596 0.0
H2054 H 0.04666 0.30559 0.06013 0.0
H2055 H 0.07514 0.31444 0.086 0.0
H2056 H 0.11082 0.37506 0.1087 0.0
H2057 H 0.09049 0.3847 0.0857 0.0
C2058 C 0.05972 0.3608 0.05865 0.0
C2059 C 0.04391 0.34672 0.04514 0.0
C2060 C 0.07098 0.35517 0.07255 0.0
C2061 C 0.0392 0.32675 0.04618 0.0
C2062 C 0.05041 0.32102 0.05995 0.0
C2063 C 0.07828 0.3297 0.0862 0.0
C2064 C 0.0946 0.34404 0.09888 0.0
C2065 C 0.06646 0.33515 0.07302 0.0
C2066 C 0.09858 0.3638 0.09874 0.0
C2067 C 0.08691 0.36932 0.08569 0.0
H2068 H 0.67598 0.69382 0.06991 0.0
H2069 H 0.66683 0.70991 1.00086 0.0
H2070 H 0.67154 0.74156 0.01578 0.0
H2071 H 0.67566 0.76349 0.04929 0.0
H2072 H 0.68207 0.7455 0.11841 0.0
H2073 H 0.68103 0.71575 0.1027 0.0
C2074 C 0.67533 0.70436 0.05801 0.0
C2075 C 0.67112 0.69954 0.03429 0.0
C2076 C 0.67733 0.72211 0.06684 0.0
C2077 C 0.67009 0.71329 0.01919 0.0
C2078 C 0.67269 0.73134 0.02774 0.0
C2079 C 0.67701 0.75309 0.06078 0.0
C2080 C 0.67884 0.75653 0.08494 0.0
C2081 C 0.6759 0.73573 0.05164 0.0
C2082 C 0.68046 0.74298 0.09977 0.0
C2083 C 0.67992 0.72603 0.0908 0.0
H2084 H 0.29684 0.93739 0.0396 0.0
H2085 H 0.29948 0.99073 0.06561 0.0
H2086 H 0.27024 0.97109 0.08929 0.0
H2087 H 0.24526 0.93874 0.10472 0.0
H2088 H 0.24463 0.88565 0.08153 0.0
H2089 H 0.27167 0.90504 0.05473 0.0
C2090 C 0.29076 0.94465 0.05016 0.0
C2091 C 0.30013 0.96543 0.05074 0.0
C2092 C 0.27445 0.93328 0.06446 0.0
C2093 C 0.29243 0.97472 0.06486 0.0
C2094 C 0.27577 0.96351 0.07845 0.0
C2095 C 0.25098 0.93148 0.09361 0.0
C2096 C 0.24305 0.91086 0.09502 0.0
C2097 C 0.26687 0.94279 0.07873 0.0
C2098 C 0.25065 0.90155 0.08078 0.0
C2099 C 0.26605 0.91261 0.06544 0.0
H2100 H 0.35828 0.06798 0.00756 0.0
H2101 H 0.32739 0.01676 0.96329 0.0
H2102 H 0.31609 0.03496 0.93837 0.0
H2103 H 0.3174 0.06637 0.92754 0.0
H2104 H 0.34599 0.11649 0.97424 0.0
H2105 H 0.35596 0.09782 0.99955 0.0
C2106 C 0.34888 0.06074 0.99259 0.0
C2107 C 0.3438 0.04115 0.98714 0.0
C2108 C 0.34228 0.07119 0.97856 0.0
C2109 C 0.33143 0.03184 0.96788 0.0
C2110 C 0.32509 0.04228 0.95355 0.0
C2111 C 0.32546 0.07316 0.94345 0.0
C2112 C 0.33136 0.09314 0.94843 0.0
C2113 C 0.33073 0.06211 0.95849 0.0
C2114 C 0.34186 0.10148 0.96927 0.0
C2115 C 0.34743 0.09073 0.984 0.0
H2116 H 0.94987 0.28016 0.99791 0.0
H2117 H 0.99205 0.30271 0.9421 0.0
H2118 H 0.9707 0.27397 0.91819 0.0
H2119 H 0.9385 0.24446 0.91156 0.0
H2120 H 0.89659 0.2215 0.96767 0.0
H2121 H 0.91931 0.2485 0.99286 0.0
C2122 C 0.95455 0.27862 0.98067 0.0
C2123 C 0.97242 0.29366 0.97173 0.0
C2124 C 0.94209 0.26217 0.96688 0.0
C2125 C 0.97832 0.29139 0.9494 0.0
C2126 C 0.96606 0.275 0.93564 0.0
C2127 C 0.93446 0.24508 0.92944 0.0
C2128 C 0.91566 0.23113 0.93749 0.0
C2129 C 0.94767 0.26058 0.94395 0.0
C2130 C 0.91072 0.23233 0.96073 0.0
C2131 C 0.92377 0.2477 0.97525 0.0
H2132 H 0.70944 0.67147 0.98209 0.0
H2133 H 0.68796 0.60866 0.97524 0.0
H2134 H 0.71598 0.61518 0.95107 0.0
H2135 H 0.74671 0.63845 0.93217 0.0
H2136 H 0.76938 0.70132 0.94005 0.0
H2137 H 0.74061 0.69498 0.96304 0.0
C2138 C 0.71084 0.65922 0.97522 0.0
C2139 C 0.69656 0.63961 0.9806 0.0
C2140 C 0.72719 0.66304 0.96142 0.0
C2141 C 0.69872 0.62392 0.97159 0.0
C2142 C 0.71475 0.62761 0.95769 0.0
C2143 C 0.74552 0.65081 0.9391 0.0
C2144 C 0.76029 0.67033 0.93441 0.0
C2145 C 0.72913 0.64708 0.95263 0.0
C2146 C 0.75817 0.68612 0.94313 0.0
C2147 C 0.74176 0.68252 0.95643 0.0
H2148 H 0.95242 0.66396 1.0018 0.0
H2149 H 0.99763 0.69429 0.95041 0.0
H2150 H 0.97509 0.70041 0.92695 0.0
H2151 H 0.94193 0.69485 0.9192 0.0
H2152 H 0.89669 0.66587 0.97091 0.0
H2153 H 0.9197 0.66128 0.99565 0.0
C2154 C 0.95741 0.67218 0.98566 0.0
C2155 C 0.97668 0.6785 0.97786 0.0
C2156 C 0.94426 0.67561 0.972 0.0
C2157 C 0.98287 0.68912 0.95685 0.0
C2158 C 0.96996 0.6926 0.94331 0.0
C2159 C 0.93711 0.68789 0.93607 0.0
C2160 C 0.91741 0.68052 0.94287 0.0
C2161 C 0.95051 0.68557 0.95045 0.0
C2162 C 0.91156 0.67127 0.96478 0.0
C2163 C 0.92479 0.66878 0.97911 0.0
H2164 H 0.3728 0.3044 0.98165 0.0
H2165 H 0.31414 0.29699 0.9819 0.0
H2166 H 0.30199 0.26637 0.95933 0.0
H2167 H 0.30842 0.24227 0.93821 0.0
H2168 H 0.36754 0.25104 0.93725 0.0
H2169 H 0.3791 0.2806 0.96134 0.0
C2170 C 0.35729 0.29606 0.977 0.0
C2171 C 0.34442 0.30305 0.98357 0.0
C2172 C 0.35051 0.27875 0.96369 0.0
C2173 C 0.32442 0.29202 0.97711 0.0
C2174 C 0.31746 0.27451 0.96416 0.0
C2175 C 0.32379 0.25063 0.94343 0.0
C2176 C 0.33714 0.24456 0.93582 0.0
C2177 C 0.33042 0.26782 0.95715 0.0
C2178 C 0.35704 0.25558 0.94258 0.0
C2179 C 0.36365 0.27242 0.95646 0.0
H2180 H 0.71576 0.05369 0.99824 0.0
H2181 H 0.69365 0.00963 0.94366 0.0
H2182 H 0.72268 0.02997 0.92035 0.0
H2183 H 0.75259 0.06162 0.91371 0.0
H2184 H 0.77535 0.10553 0.96844 0.0
H2185 H 0.74776 0.08399 0.99323 0.0
C2186 C 0.71746 0.0484 0.98142 0.0
C2187 C 0.70245 0.03026 0.97265 0.0
C2188 C 0.73416 0.06028 0.96791 0.0
C2189 C 0.70491 0.0236 0.95082 0.0
C2190 C 0.7215 0.03525 0.93739 0.0
C2191 C 0.7518 0.06636 0.93123 0.0
C2192 C 0.76592 0.08535 0.93897 0.0
C2193 C 0.73597 0.05384 0.9455 0.0
C2194 C 0.76444 0.09121 0.96172 0.0
C2195 C 0.74872 0.07884 0.97602 0.0
H2196 H 0.62393 0.93946 0.05702 0.0
H2197 H 0.67778 0.96666 0.01772 0.0
H2198 H 0.6884 0.94514 0.03668 0.0
H2199 H 0.68172 0.91788 0.06334 0.0
H2200 H 0.62945 0.89341 0.10591 0.0
H2201 H 0.61867 0.91424 0.08627 0.0
C2202 C 0.638 0.94065 0.05268 0.0
C2203 C 0.65002 0.95444 0.03595 0.0
C2204 C 0.64418 0.92859 0.06401 0.0
C2205 C 0.66834 0.95614 0.03064 0.0
C2206 C 0.67436 0.94381 0.04139 0.0
C2207 C 0.66814 0.91728 0.06873 0.0
C2208 C 0.65635 0.90373 0.08596 0.0
C2209 C 0.66234 0.9299 0.05803 0.0
C2210 C 0.63863 0.90314 0.09225 0.0
C2211 C 0.6325 0.91524 0.08121 0.0
H2212 H 0.08276 0.70923 0.04452 0.0
H2213 H 0.03125 0.71642 0.04176 0.0
H2214 H 0.04758 0.74526 0.0675 0.0
H2215 H 0.07622 0.76771 0.09218 0.0
H2216 H 0.12688 0.75918 0.09535 0.0
H2217 H 0.1111 0.73156 0.0681 0.0
C2218 C 0.07507 0.71713 0.04933 0.0
C2219 C 0.05576 0.71057 0.04114 0.0
C2220 C 0.08438 0.73342 0.0644 0.0
C2221 C 0.0461 0.72105 0.04779 0.0
C2222 C 0.05543 0.73755 0.06255 0.0
C2223 C 0.08379 0.75985 0.08674 0.0
C2224 C 0.10261 0.76535 0.09592 0.0
C2225 C 0.07451 0.74376 0.07117 0.0
C2226 C 0.11226 0.75501 0.08882 0.0
C2227 C 0.10329 0.73928 0.07316 0.0
H2228 H 0.30285 0.33033 0.06699 0.0
H2229 H 0.28679 0.35037 0.00466 0.0
H2230 H 0.25599 0.34434 0.02291 0.0
H2231 H 0.23431 0.33467 0.05738 0.0
H2232 H 0.25172 0.31595 0.11985 0.0
H2233 H 0.28116 0.31999 0.1006 0.0
C2234 C 0.29258 0.33326 0.05725 0.0
C2235 C 0.29718 0.34084 0.03448 0.0
C2236 C 0.27511 0.33002 0.06793 0.0
C2237 C 0.28363 0.34451 0.02219 0.0
C2238 C 0.26604 0.34113 0.03266 0.0
C2239 C 0.24457 0.33152 0.0668 0.0
C2240 C 0.24066 0.32492 0.09008 0.0
C2241 C 0.26175 0.33415 0.05567 0.0
C2242 C 0.25407 0.3207 0.10186 0.0
C2243 C 0.27103 0.32315 0.0909 0.0
H2244 H 0.69557 0.65684 0.3685 0.0
H2245 H 0.73933 0.71896 0.37095 0.0
H2246 H 0.76123 0.71137 0.39349 0.0
H2247 H 0.76801 0.68758 0.4129 0.0
H2248 H 0.72573 0.62519 0.40932 0.0
H2249 H 0.70299 0.63252 0.3874 0.0
C2250 C 0.7099 0.66869 0.37395 0.0
C2251 C 0.71573 0.68843 0.36795 0.0
C2252 C 0.72264 0.66425 0.38688 0.0
C2253 C 0.73442 0.70361 0.37512 0.0
C2254 C 0.74698 0.69932 0.38812 0.0
C2255 C 0.75397 0.67549 0.40703 0.0
C2256 C 0.7487 0.65585 0.41257 0.0
C2257 C 0.74125 0.67974 0.39407 0.0
C2258 C 0.73013 0.64047 0.40544 0.0
C2259 C 0.71718 0.64464 0.39276 0.0
H2260 H 0.31823 0.04051 0.36441 0.0
H2261 H 0.36862 0.0438 0.40017 0.0
H2262 H 0.37504 0.07464 0.41906 0.0
H2263 H 0.3647 0.09913 0.42798 0.0
H2264 H 0.31282 0.09452 0.39469 0.0
H2265 H 0.30851 0.06577 0.37239 0.0
C2266 C 0.33083 0.04823 0.37597 0.0
C2267 C 0.34303 0.04001 0.38079 0.0
C2268 C 0.33398 0.06557 0.38749 0.0
C2269 C 0.35907 0.0499 0.39617 0.0
C2270 C 0.3627 0.06748 0.40705 0.0
C2271 C 0.35262 0.09198 0.41559 0.0
C2272 C 0.3391 0.09891 0.41297 0.0
C2273 C 0.35 0.07522 0.40324 0.0
C2274 C 0.32334 0.08934 0.39712 0.0
C2275 C 0.3209 0.07295 0.38433 0.0
H2276 H 0.96119 0.27384 0.35592 0.0
H2277 H 0.95737 0.32307 0.3848 0.0
H2278 H 0.92705 0.30026 0.40499 0.0
H2279 H 0.90325 0.26637 0.41726 0.0
H2280 H 0.90863 0.21723 0.39109 0.0
H2281 H 0.93663 0.23979 0.36716 0.0
C2282 C 0.95344 0.27951 0.36624 0.0
C2283 C 0.96137 0.30008 0.36873 0.0
C2284 C 0.93645 0.26629 0.3786 0.0
C2285 C 0.95148 0.30728 0.38257 0.0
C2286 C 0.9342 0.29424 0.3942 0.0
C2287 C 0.9104 0.26061 0.40606 0.0
C2288 C 0.90391 0.24018 0.40596 0.0
C2289 C 0.92679 0.27373 0.39279 0.0
C2290 C 0.91348 0.23293 0.3916 0.0
C2291 C 0.92944 0.24581 0.37787 0.0
H2292 H 0.00301 0.36523 0.28604 0.0
H2293 H 0.01565 0.40391 0.34514 0.0
H2294 H 0.00634 0.42486 0.32266 0.0
H2295 H 0.99675 0.43347 0.28551 0.0
H2296 H 0.98657 0.39653 0.22526 0.0
H2297 H 0.99292 0.37374 0.24864 0.0
C2298 C 0.00335 0.37805 0.29403 0.0
C2299 C 0.00977 0.38293 0.31727 0.0
C2300 C 0.9987 0.39049 0.28067 0.0
C2301 C 0.01064 0.39983 0.32732 0.0
C2302 C 0.0054 0.41185 0.31445 0.0
C2303 C 0.99569 0.42029 0.27758 0.0
C2304 C 0.99112 0.41663 0.25372 0.0
C2305 C 0.99974 0.40752 0.29101 0.0
C2306 C 0.99016 0.39971 0.24357 0.0
C2307 C 0.99372 0.38665 0.25695 0.0
H2308 H 0.61167 0.61992 0.33698 0.0
H2309 H 0.65506 0.63735 0.28268 0.0
H2310 H 0.63305 0.60812 0.26009 0.0
H2311 H 0.60012 0.57954 0.25365 0.0
H2312 H 0.55661 0.56143 0.30755 0.0
H2313 H 0.5799 0.58885 0.33244 0.0
C2314 C 0.61645 0.61709 0.32045 0.0
C2315 C 0.6349 0.63096 0.31144 0.0
C2316 C 0.60357 0.60024 0.30731 0.0
C2317 C 0.64088 0.62704 0.28997 0.0
C2318 C 0.62826 0.61034 0.27694 0.0
C2319 C 0.59594 0.5815 0.27101 0.0
C2320 C 0.57681 0.56874 0.27886 0.0
C2321 C 0.60938 0.59719 0.2851 0.0
C2322 C 0.57137 0.5712 0.30131 0.0
C2323 C 0.58464 0.58687 0.31545 0.0
H2324 H 0.37163 0.0042 0.3048 0.0
H2325 H 0.39236 0.98018 0.35893 0.0
H2326 H 0.42257 0.98979 0.33732 0.0
H2327 H 0.44217 0.00313 0.30219 0.0
H2328 H 0.42035 0.02447 0.24616 0.0
H2329 H 0.39181 0.01822 0.26951 0.0
C2330 C 0.38293 0.00139 0.31198 0.0
C2331 C 0.37981 0.99155 0.33346 0.0
C2332 C 0.40004 0.00638 0.29906 0.0
C2333 C 0.39442 0.9877 0.34242 0.0
C2334 C 0.41167 0.99316 0.33005 0.0
C2335 C 0.43112 0.00628 0.29491 0.0
C2336 C 0.43344 0.01411 0.27228 0.0
C2337 C 0.41445 0.00211 0.30815 0.0
C2338 C 0.41915 0.0186 0.26356 0.0
C2339 C 0.4027 0.0149 0.27686 0.0
H2340 H 0.6213 0.99941 0.33514 0.0
H2341 H 0.66254 0.01808 0.27837 0.0
H2342 H 0.64176 0.0274 0.25574 0.0
H2343 H 0.61033 0.0271 0.25051 0.0
H2344 H 0.56943 0.00929 0.30764 0.0
H2345 H 0.5915 0.00257 0.33145 0.0
C2346 C 0.6259 0.00582 0.31797 0.0
C2347 C 0.64338 0.00787 0.30843 0.0
C2348 C 0.61377 0.01099 0.3049 0.0
C2349 C 0.64915 0.01627 0.28617 0.0
C2350 C 0.63721 0.02152 0.27312 0.0
C2351 C 0.60637 0.02214 0.26832 0.0
C2352 C 0.588 0.0184 0.27702 0.0
C2353 C 0.61924 0.01848 0.28208 0.0
C2354 C 0.58318 0.0118 0.30016 0.0
C2355 C 0.59588 0.00809 0.31391 0.0
H2356 H 0.02773 0.61733 0.33855 0.0
H2357 H 0.9951 0.63925 0.29919 0.0
H2358 H 0.98413 0.61164 0.27188 0.0
H2359 H 0.98593 0.58275 0.25755 0.0
H2360 H 0.01653 0.55946 0.29878 0.0
H2361 H 0.02639 0.58631 0.32664 0.0
C2362 C 0.01807 0.61595 0.32411 0.0
C2363 C 0.01238 0.6304 0.32082 0.0
C2364 C 0.01168 0.59996 0.30857 0.0
C2365 C 0.99965 0.62829 0.30219 0.0
C2366 C 0.99347 0.61256 0.28646 0.0
C2367 C 0.99442 0.58324 0.27282 0.0
C2368 C 1.0008 0.5692 0.27558 0.0
C2369 C 0.99966 0.59848 0.28926 0.0
C2370 C 0.01193 0.57035 0.29557 0.0
C2371 C 0.01745 0.58563 0.31174 0.0
H2372 H 0.3629 0.35895 0.28505 0.0
H2373 H 0.38403 0.38817 0.35137 0.0
H2374 H 0.415 0.41243 0.33339 0.0
H2375 H 0.43476 0.42708 0.29793 0.0
H2376 H 0.41218 0.39874 0.23155 0.0
H2377 H 0.38311 0.3723 0.25042 0.0
C2378 C 0.37436 0.37045 0.29568 0.0
C2379 C 0.37113 0.37181 0.31949 0.0
C2380 C 0.39182 0.38459 0.28514 0.0
C2381 C 0.38614 0.38684 0.33298 0.0
C2382 C 0.40382 0.40075 0.32269 0.0
C2383 C 0.42358 0.4149 0.28776 0.0
C2384 C 0.42547 0.41477 0.26345 0.0
C2385 C 0.40664 0.40003 0.29867 0.0
C2386 C 0.41088 0.39911 0.25029 0.0
C2387 C 0.3943 0.38404 0.26105 0.0
H2388 H 0.34644 0.31069 0.38197 0.0
H2389 H 0.29443 0.26026 0.35363 0.0
H2390 H 0.30323 0.2379 0.37315 0.0
H2391 H 0.32376 0.2324 0.40109 0.0
H2392 H 0.37566 0.28195 0.43009 0.0
H2393 H 0.36905 0.30495 0.40726 0.0
C2394 C 0.33719 0.29482 0.37982 0.0
C2395 C 0.31961 0.28723 0.36666 0.0
C2396 C 0.34226 0.28188 0.39129 0.0
C2397 C 0.30787 0.26659 0.36395 0.0
C2398 C 0.31288 0.25373 0.37508 0.0
C2399 C 0.33373 0.24825 0.40211 0.0
C2400 C 0.35001 0.25562 0.41724 0.0
C2401 C 0.32972 0.26119 0.38923 0.0
C2402 C 0.36303 0.27608 0.41844 0.0
C2403 C 0.35917 0.28916 0.40552 0.0
H2404 H 0.69891 0.03683 0.374 0.0
H2405 H 0.74214 0.01731 0.37797 0.0
H2406 H 0.76425 0.04676 0.39984 0.0
H2407 H 0.77174 0.07806 0.41776 0.0
H2408 H 0.72921 0.0983 0.41489 0.0
H2409 H 0.70665 0.06882 0.39234 0.0
C2410 C 0.71313 0.03899 0.37971 0.0
C2411 C 0.71871 0.02471 0.37428 0.0
C2412 C 0.72602 0.05617 0.39237 0.0
C2413 C 0.73731 0.02791 0.38178 0.0
C2414 C 0.75006 0.04481 0.39433 0.0
C2415 C 0.75744 0.07596 0.41245 0.0
C2416 C 0.7521 0.09027 0.41823 0.0
C2417 C 0.74459 0.059 0.39973 0.0
C2418 C 0.73372 0.08754 0.4106 0.0
C2419 C 0.72078 0.07063 0.39782 0.0
H2420 H 0.95603 0.67608 0.3549 0.0
H2421 H 0.97307 0.6496 0.41022 0.0
H2422 H 0.9435 0.64215 0.43157 0.0
H2423 H 0.91411 0.64512 0.43615 0.0
H2424 H 0.89527 0.66962 0.38043 0.0
H2425 H 0.92434 0.67618 0.35803 0.0
C2426 C 0.95312 0.66847 0.37147 0.0
C2427 C 0.96689 0.66359 0.38095 0.0
C2428 C 0.9359 0.66412 0.38386 0.0
C2429 C 0.96285 0.65367 0.40247 0.0
C2430 C 0.94592 0.64941 0.41481 0.0
C2431 C 0.916 0.65148 0.41891 0.0
C2432 C 0.90244 0.65697 0.41023 0.0
C2433 C 0.93251 0.65485 0.40588 0.0
C2434 C 0.90561 0.66561 0.38794 0.0
C2435 C 0.92219 0.66924 0.37496 0.0
H2436 H 0.36481 0.99547 0.70714 0.0
H2437 H 0.41143 0.05581 0.69742 0.0
H2438 H 0.43413 0.04882 0.71912 0.0
H2439 H 0.44072 0.02625 0.74198 0.0
H2440 H 0.39479 0.96603 0.75257 0.0
H2441 H 0.37195 0.97222 0.72903 0.0
C2442 C 0.37994 0.00708 0.7097 0.0
C2443 C 0.38625 0.0262 0.70078 0.0
C2444 C 0.39308 0.003 0.7223 0.0
C2445 C 0.40601 0.04099 0.70417 0.0
C2446 C 0.41908 0.03704 0.71658 0.0
C2447 C 0.42568 0.01449 0.73919 0.0
C2448 C 0.41932 0.99582 0.7492 0.0
C2449 C 0.41273 0.01821 0.72592 0.0
C2450 C 0.39997 0.98054 0.74501 0.0
C2451 C 0.38692 0.98412 0.73168 0.0
H2452 H 0.99367 0.35882 0.74092 0.0
H2453 H 0.99327 0.38218 0.67282 0.0
H2454 H 0.99942 0.41349 0.69039 0.0
H2455 H 0.00336 0.43366 0.72546 0.0
H2456 H 0.00159 0.40908 0.79338 0.0
H2457 H 0.99783 0.37881 0.77559 0.0
C2458 C 0.99514 0.37083 0.72988 0.0
C2459 C 0.9931 0.36822 0.7056 0.0
C2460 C 0.99814 0.38852 0.74012 0.0
C2461 C 0.99479 0.38384 0.69157 0.0
C2462 C 0.99828 0.40172 0.70161 0.0
C2463 C 0.00229 0.42169 0.73627 0.0
C2464 C 0.00269 0.42351 0.76066 0.0
C2465 C 0.99974 0.40415 0.7259 0.0
C2466 C 0.00114 0.40789 0.77457 0.0
C2467 C 0.99905 0.39063 0.76441 0.0
H2468 H 0.62729 0.65079 0.72011 0.0
H2469 H 0.63206 0.60368 0.6865 0.0
H2470 H 0.60186 0.57911 0.70529 0.0
H2471 H 0.57583 0.57103 0.73341 0.0
H2472 H 0.56796 0.61797 0.76288 0.0
H2473 H 0.59792 0.64244 0.74409 0.0
C2474 C 0.62153 0.63514 0.7167 0.0
C2475 C 0.63193 0.62904 0.70206 0.0
C2476 C 0.60382 0.62103 0.72716 0.0
C2477 C 0.62426 0.60875 0.69761 0.0
C2478 C 0.60706 0.59468 0.70847 0.0
C2479 C 0.58008 0.5865 0.73538 0.0
C2480 C 0.56939 0.59227 0.75019 0.0
C2481 C 0.59688 0.60064 0.72356 0.0
C2482 C 0.57595 0.61271 0.75249 0.0
C2483 C 0.59308 0.62688 0.74144 0.0
H2484 H 0.65528 0.69373 0.64761 0.0
H2485 H 0.71696 0.73183 0.6325 0.0
H2486 H 0.70897 0.75296 0.60891 0.0
H2487 H 0.68495 0.76151 0.59347 0.0
H2488 H 0.6233 0.72482 0.6091 0.0
H2489 H 0.63075 0.70213 0.63105 0.0
C2490 C 0.66693 0.70657 0.63901 0.0
C2491 C 0.68672 0.71118 0.64205 0.0
C2492 C 0.66227 0.71897 0.62551 0.0
C2493 C 0.70162 0.72795 0.63076 0.0
C2494 C 0.69709 0.74008 0.61717 0.0
C2495 C 0.67312 0.74865 0.60182 0.0
C2496 C 0.65363 0.74505 0.59983 0.0
C2497 C 0.67753 0.7359 0.61467 0.0
C2498 C 0.63844 0.72795 0.61024 0.0
C2499 C 0.64272 0.71502 0.62293 0.0
H2500 H 0.28628 0.95377 0.66997 0.0
H2501 H 0.32598 0.9757 0.61166 0.0
H2502 H 0.30438 0.94614 0.58931 0.0
H2503 H 0.27239 0.91592 0.58458 0.0
H2504 H 0.23275 0.8933 0.64261 0.0
H2505 H 0.25612 0.92113 0.66689 0.0
C2506 C 0.29038 0.95189 0.65256 0.0
C2507 C 0.30758 0.96708 0.64242 0.0
C2508 C 0.27778 0.93482 0.63964 0.0
C2509 C 0.31275 0.96434 0.61986 0.0
C2510 C 0.30036 0.94746 0.60698 0.0
C2511 C 0.26909 0.917 0.60267 0.0
C2512 C 0.25094 0.90284 0.61185 0.0
C2513 C 0.28256 0.93293 0.61641 0.0
C2514 C 0.24672 0.90413 0.63529 0.0
C2515 C 0.26002 0.92005 0.64909 0.0
H2516 H 0.03189 0.29452 0.65509 0.0
H2517 H 0.0342 0.35094 0.6463 0.0
H2518 H 0.06436 0.36295 0.62352 0.0
H2519 H 0.08891 0.3565 0.60378 0.0
H2520 H 0.08506 0.2994 0.61193 0.0
H2521 H 0.05664 0.28862 0.63722 0.0
C2522 C 0.03898 0.30953 0.64839 0.0
C2523 C 0.0306 0.32172 0.65234 0.0
C2524 C 0.05601 0.31618 0.63498 0.0
C2525 C 0.04022 0.34116 0.64353 0.0
C2526 C 0.05746 0.34803 0.63042 0.0
C2527 C 0.08191 0.34179 0.61132 0.0
C2528 C 0.08891 0.32867 0.60581 0.0
C2529 C 0.06531 0.33554 0.62568 0.0
C2530 C 0.07973 0.30963 0.61563 0.0
C2531 C 0.06353 0.30348 0.63015 0.0
H2532 H 0.31037 0.34992 0.62963 0.0
H2533 H 0.27067 0.31185 0.68242 0.0
H2534 H 0.2438 0.31536 0.66507 0.0
H2535 H 0.23101 0.32735 0.63313 0.0
H2536 H 0.27098 0.36634 0.58125 0.0
H2537 H 0.29835 0.36447 0.6 0.0
C2538 C 0.29589 0.34257 0.63749 0.0
C2539 C 0.29248 0.33051 0.65717 0.0
C2540 C 0.28053 0.34473 0.62747 0.0
C2541 C 0.27369 0.32124 0.66728 0.0
C2542 C 0.25828 0.32315 0.65729 0.0
C2543 C 0.24577 0.33554 0.62611 0.0
C2544 C 0.24902 0.34686 0.6058 0.0
C2545 C 0.26144 0.33454 0.63712 0.0
C2546 C 0.2682 0.3576 0.59693 0.0
C2547 C 0.2838 0.35646 0.60758 0.0
H2548 H 0.68794 0.95317 0.66842 0.0
H2549 H 0.65751 0.97409 0.62343 0.0
H2550 H 0.6465 0.94488 0.59855 0.0
H2551 H 0.6479 0.91483 0.58793 0.0
H2552 H 0.6765 0.89299 0.63484 0.0
H2553 H 0.68612 0.92133 0.66025 0.0
C2554 C 0.67871 0.95124 0.6533 0.0
C2555 C 0.67369 0.96586 0.64768 0.0
C2556 C 0.67239 0.93441 0.63915 0.0
C2557 C 0.66153 0.96302 0.6282 0.0
C2558 C 0.65535 0.94638 0.61386 0.0
C2559 C 0.65592 0.916 0.60389 0.0
C2560 C 0.66182 0.90186 0.60897 0.0
C2561 C 0.66102 0.93216 0.61893 0.0
C2562 C 0.67231 0.90389 0.62983 0.0
C2563 C 0.67767 0.92003 0.64461 0.0
H2564 H 0.03517 0.7311 0.66088 0.0
H2565 H 0.03757 0.68061 0.63364 0.0
H2566 H 0.06865 0.70249 0.61424 0.0
H2567 H 0.09356 0.736 0.60207 0.0
H2568 H 0.08949 0.78639 0.62626 0.0
H2569 H 0.06076 0.76472 0.64976 0.0
C2570 C 0.04275 0.72496 0.65108 0.0
C2571 C 0.03423 0.70433 0.64877 0.0
C2572 C 0.06019 0.73765 0.63917 0.0
C2573 C 0.04392 0.69648 0.63566 0.0
C2574 C 0.06164 0.70898 0.6245 0.0
C2575 C 0.0865 0.74219 0.61277 0.0
C2576 C 0.09354 0.76269 0.61249 0.0
C2577 C 0.06967 0.72958 0.62567 0.0
C2578 C 0.08419 0.7706 0.62616 0.0
C2579 C 0.06781 0.75823 0.6396 0.0
H2580 H 0.95993 0.59469 0.698 0.0
H2581 H 0.01428 0.64927 0.70995 0.0
H2582 H 0.02681 0.63146 0.7335 0.0
H2583 H 0.02157 0.6004 0.75226 0.0
H2584 H 0.96654 0.54658 0.74087 0.0
H2585 H 0.95507 0.56411 0.71543 0.0
C2586 C 0.97458 0.60279 0.70561 0.0
C2587 C 0.98606 0.62336 0.70225 0.0
C2588 C 0.98156 0.59256 0.71931 0.0
C2589 C 0.00503 0.63346 0.7123 0.0
C2590 C 0.01223 0.62328 0.72578 0.0
C2591 C 0.00718 0.59257 0.74397 0.0
C2592 C 0.99484 0.5723 0.74847 0.0
C2593 C 1.00052 0.60285 0.72962 0.0
C2594 C 0.97617 0.56224 0.73781 0.0
C2595 C 0.96963 0.57224 0.72325 0.0
H2596 H 0.40647 0.37045 0.70518 0.0
H2597 H 0.35338 0.37469 0.70947 0.0
H2598 H 0.37134 0.40568 0.7314 0.0
H2599 H 0.40204 0.43095 0.75085 0.0
H2600 H 0.45433 0.4253 0.74727 0.0
H2601 H 0.43673 0.39548 0.72356 0.0
C2602 C 0.39875 0.37814 0.71071 0.0
C2603 C 0.37854 0.37014 0.70563 0.0
C2604 C 0.40904 0.3957 0.72359 0.0
C2605 C 0.3689 0.38042 0.71314 0.0
C2606 C 0.37917 0.39815 0.72571 0.0
C2607 C 0.40955 0.42323 0.74468 0.0
C2608 C 0.42942 0.43023 0.7509 0.0
C2609 C 0.39922 0.40585 0.73125 0.0
C2610 C 0.43898 0.42005 0.74294 0.0
C2611 C 0.42895 0.40305 0.72933 0.0
H2612 H 0.62934 0.02971 0.68981 0.0
H2613 H 0.62682 0.97658 0.71661 0.0
H2614 H 0.59681 0.96863 0.73791 0.0
H2615 H 0.5728 0.97814 0.75151 0.0
H2616 H 0.57669 0.0326 0.72741 0.0
H2617 H 0.60458 0.03877 0.70265 0.0
C2618 C 0.62194 0.01621 0.69995 0.0
C2619 C 0.63013 0.00364 0.70151 0.0
C2620 C 0.60509 0.01214 0.71294 0.0
C2621 C 0.62071 0.98642 0.71511 0.0
C2622 C 0.6036 0.98192 0.72737 0.0
C2623 C 0.57961 0.99122 0.7406 0.0
C2624 C 0.57272 0.00489 0.74129 0.0
C2625 C 0.5959 0.99487 0.72682 0.0
C2626 C 0.58185 0.02193 0.72731 0.0
C2627 C 0.59775 0.02543 0.7131 0.0
loop_
_geom_bond_atom_site_label_1
_geom_bond_atom_site_label_2
_geom_bond_distance
_geom_bond_site_symmetry_2
_ccdc_geom_bond_type
Mn0 O5 2.095 1_655 S
Mn0 O15 2.162 . S
Mn0 O16 2.297 1_554 S
Mn0 O24 2.385 1_554 S
Mn0 O25 2.209 1_654 S
Mn0 O26 2.094 . S
Mn1 O6 2.121 . S
Mn1 N8 2.257 1_554 S
Mn1 N17 2.282 . S
Mn1 O25 2.215 1_554 S
Mn1 O27 2.117 . S
C2 O24 1.234 1_455 S
C2 O25 1.283 . S
C3 O15 1.281 1_556 S
C3 O16 1.236 . S
C4 O26 1.240 . S
C4 O27 1.264 1_655 S
O5 Mn0 2.095 1_455 S
O5 C14 1.250 . S
O6 Mn1 2.121 . S
O6 C14 1.258 . S
C7 N8 1.326 . S
C7 C11 1.460 . S
C7 H13 0.929 . S
N8 Mn1 2.257 1_556 S
N8 C7 1.326 . S
N8 C12 1.362 . S
C9 C10 1.258 . S
C9 C12 1.431 . S
C9 C29 1.449 . S
C10 C9 1.258 . S
C10 C11 1.477 . S
C10 H30 0.931 . S
C11 C7 1.460 . S
C11 C10 1.477 . S
C11 H31 0.930 . S
C12 N8 1.362 . S
C12 C9 1.431 . S
C12 C22 1.476 . S
H13 C7 0.929 . S
C14 O5 1.250 . S
C14 O6 1.258 . S
O15 Mn0 2.162 . S
O15 C3 1.281 1_554 S
O16 Mn0 2.297 1_556 S
O16 C3 1.236 . S
N17 Mn1 2.282 . S
N17 C18 1.328 . S
N17 C22 1.318 1_554 S
C18 N17 1.328 . S
C18 C19 1.457 1_554 S
C18 H23 0.929 . S
C19 C18 1.457 1_556 S
C19 C20 1.291 . S
C19 H32 0.931 . S
C20 C19 1.291 . S
C20 C21 1.373 . S
C20 H33 0.929 . S
C21 C20 1.373 . S
C21 C22 1.396 . S
C21 C28 1.403 . S
C22 C12 1.476 . S
C22 N17 1.318 1_556 S
C22 C21 1.396 . S
H23 C18 0.929 . S
O24 Mn0 2.385 1_556 S
O24 C2 1.234 1_655 S
O25 Mn0 2.209 1_456 S
O25 Mn1 2.215 1_556 S
O25 C2 1.283 . S
O26 Mn0 2.094 . S
O26 C4 1.240 . S
O27 Mn1 2.117 . S
O27 C4 1.264 1_455 S
C28 C21 1.403 . S
C28 C29 1.399 . S
C28 H34 0.929 . S
C29 C9 1.449 . S
C29 C28 1.399 . S
C29 H35 0.930 . S
H30 C10 0.931 . S
H31 C11 0.930 . S
H32 C19 0.931 . S
H33 C20 0.929 . S
H34 C28 0.929 . S
H35 C29 0.930 . S
Mn36 O41 2.095 1_554 S
Mn36 O51 2.162 . S
Mn36 O52 2.297 . S
Mn36 O60 2.385 . S
Mn36 O61 2.209 . S
Mn36 O62 2.094 1_554 S
Mn37 O42 2.121 . S
Mn37 N44 2.257 1_556 S
Mn37 N53 2.282 1_556 S
Mn37 O61 2.215 1_556 S
Mn37 O63 2.117 . S
C38 O60 1.234 . S
C38 O61 1.283 . S
C39 O51 1.281 . S
C39 O52 1.236 . S
C40 O62 1.240 . S
C40 O63 1.264 . S
O41 Mn36 2.095 1_556 S
O41 C50 1.250 . S
O42 Mn37 2.121 . S
O42 C50 1.258 . S
C43 N44 1.326 . S
C43 C47 1.460 . S
C43 H49 0.929 . S
N44 Mn37 2.257 1_554 S
N44 C43 1.326 . S
N44 C48 1.362 . S
C45 C46 1.258 . S
C45 C48 1.431 . S
C45 C65 1.449 . S
C46 C45 1.258 . S
C46 C47 1.477 . S
C46 H66 0.931 . S
C47 C43 1.460 . S
C47 C46 1.477 . S
C47 H67 0.930 . S
C48 N44 1.362 . S
C48 C45 1.431 . S
C48 C58 1.476 . S
H49 C43 0.929 . S
C50 O41 1.250 . S
C50 O42 1.258 . S
O51 Mn36 2.162 . S
O51 C39 1.281 . S
O52 Mn36 2.297 . S
O52 C39 1.236 . S
N53 Mn37 2.282 1_554 S
N53 C54 1.328 . S
N53 C58 1.318 . S
C54 N53 1.328 . S
C54 C55 1.457 . S
C54 H59 0.929 1_554 S
C55 C54 1.457 . S
C55 C56 1.291 . S
C55 H68 0.931 . S
C56 C55 1.291 . S
C56 C57 1.373 . S
C56 H69 0.929 . S
C57 C56 1.373 . S
C57 C58 1.396 . S
C57 C64 1.403 . S
C58 C48 1.476 . S
C58 N53 1.318 . S
C58 C57 1.396 . S
H59 C54 0.929 1_556 S
O60 Mn36 2.385 . S
O60 C38 1.234 . S
O61 Mn36 2.209 . S
O61 Mn37 2.215 1_554 S
O61 C38 1.283 . S
O62 Mn36 2.094 1_556 S
O62 C40 1.240 . S
O63 Mn37 2.117 . S
O63 C40 1.264 . S
C64 C57 1.403 . S
C64 C65 1.399 . S
C64 H70 0.929 . S
C65 C45 1.449 . S
C65 C64 1.399 . S
C65 H71 0.930 . S
H66 C46 0.931 . S
H67 C47 0.930 . S
H68 C55 0.931 . S
H69 C56 0.929 . S
H70 C64 0.929 . S
H71 C65 0.930 . S
Mn72 O77 2.095 1_564 S
Mn72 O87 2.162 . S
Mn72 O88 2.297 . S
Mn72 O96 2.385 . S
Mn72 O97 2.209 1_565 S
Mn72 O98 2.094 1_554 S
Mn73 O78 2.113 1_554 S
Mn73 N80 2.291 . S
Mn73 N89 2.301 . S
Mn73 O97 2.250 . S
Mn73 O99 2.085 1_554 S
C74 O96 1.234 1_545 S
C74 O97 1.283 . S
C75 O87 1.281 . S
C75 O88 1.236 . S
C76 O98 1.240 . S
C76 O99 1.264 1_565 S
O77 Mn72 2.095 1_546 S
O77 C86 1.250 . S
O78 Mn73 2.113 1_556 S
O78 C86 1.258 . S
C79 N80 1.326 . S
C79 C83 1.460 . S
C79 H85 0.929 . S
N80 Mn73 2.291 . S
N80 C79 1.326 . S
N80 C84 1.362 . S
C81 C82 1.258 . S
C81 C84 1.431 . S
C81 C101 1.449 . S
C82 C81 1.258 . S
C82 C83 1.477 . S
C82 H102 0.931 . S
C83 C79 1.460 . S
C83 C82 1.477 . S
C83 H103 0.930 . S
C84 N80 1.362 . S
C84 C81 1.431 . S
C84 C94 1.476 . S
H85 C79 0.929 . S
C86 O77 1.250 . S
C86 O78 1.258 . S
O87 Mn72 2.162 . S
O87 C75 1.281 . S
O88 Mn72 2.297 . S
O88 C75 1.236 . S
N89 Mn73 2.301 . S
N89 C90 1.328 . S
N89 C94 1.318 . S
C90 N89 1.328 . S
C90 C91 1.457 . S
C90 H95 0.960 . S
C91 C90 1.457 . S
C91 C92 1.291 . S
C91 H104 0.931 . S
C92 C91 1.291 . S
C92 C93 1.373 . S
C92 H105 0.929 . S
C93 C92 1.373 . S
C93 C94 1.396 . S
C93 C100 1.403 . S
C94 C84 1.476 . S
C94 N89 1.318 . S
C94 C93 1.396 . S
H95 C90 0.960 . S
O96 Mn72 2.385 . S
O96 C74 1.234 1_565 S
O97 Mn72 2.209 1_545 S
O97 Mn73 2.250 . S
O97 C74 1.283 . S
O98 Mn72 2.094 1_556 S
O98 C76 1.240 . S
O99 Mn73 2.085 1_556 S
O99 C76 1.264 1_545 S
C100 C93 1.403 . S
C100 C101 1.399 . S
C100 H106 0.929 . S
C101 C81 1.449 . S
C101 C100 1.399 . S
C101 H107 0.930 . S
H102 C82 0.931 . S
H103 C83 0.930 . S
H104 C91 0.931 . S
H105 C92 0.929 . S
H106 C100 0.929 . S
H107 C101 0.930 . S
Mn108 O113 2.095 1_655 S
Mn108 O123 2.162 . S
Mn108 O124 2.297 1_554 S
Mn108 O132 2.385 1_554 S
Mn108 O133 2.209 1_654 S
Mn108 O134 2.094 . S
Mn109 O114 2.121 . S
Mn109 N116 2.257 1_554 S
Mn109 N125 2.282 . S
Mn109 O133 2.215 1_554 S
Mn109 O135 2.117 . S
C110 O132 1.234 1_455 S
C110 O133 1.283 . S
C111 O123 1.281 1_556 S
C111 O124 1.236 . S
C112 O134 1.240 . S
C112 O135 1.264 1_655 S
O113 Mn108 2.095 1_455 S
O113 C122 1.250 . S
O114 Mn109 2.121 . S
O114 C122 1.258 . S
C115 N116 1.326 . S
C115 C119 1.460 . S
C115 H121 0.929 . S
N116 Mn109 2.257 1_556 S
N116 C115 1.326 . S
N116 C120 1.362 . S
C117 C118 1.258 . S
C117 C120 1.431 . S
C117 C137 1.449 . S
C118 C117 1.258 . S
C118 C119 1.477 . S
C118 H138 0.931 . S
C119 C115 1.460 . S
C119 C118 1.477 . S
C119 H139 0.930 . S
C120 N116 1.362 . S
C120 C117 1.431 . S
C120 C130 1.476 . S
H121 C115 0.929 . S
C122 O113 1.250 . S
C122 O114 1.258 . S
O123 Mn108 2.162 . S
O123 C111 1.281 1_554 S
O124 Mn108 2.297 1_556 S
O124 C111 1.236 . S
N125 Mn109 2.282 . S
N125 C126 1.328 . S
N125 C130 1.318 1_554 S
C126 N125 1.328 . S
C126 C127 1.457 1_554 S
C126 H131 0.929 . S
C127 C126 1.457 1_556 S
C127 C128 1.291 . S
C127 H140 0.931 . S
C128 C127 1.291 . S
C128 C129 1.373 . S
C128 H141 0.929 . S
C129 C128 1.373 . S
C129 C130 1.396 . S
C129 C136 1.403 . S
C130 C120 1.476 . S
C130 N125 1.318 1_556 S
C130 C129 1.396 . S
H131 C126 0.929 . S
O132 Mn108 2.385 1_556 S
O132 C110 1.234 1_655 S
O133 Mn108 2.209 1_456 S
O133 Mn109 2.215 1_556 S
O133 C110 1.283 . S
O134 Mn108 2.094 . S
O134 C112 1.240 . S
O135 Mn109 2.117 . S
O135 C112 1.264 1_455 S
C136 C129 1.403 . S
C136 C137 1.399 . S
C136 H142 0.929 . S
C137 C117 1.449 . S
C137 C136 1.399 . S
C137 H143 0.930 . S
H138 C118 0.931 . S
H139 C119 0.930 . S
H140 C127 0.931 . S
H141 C128 0.929 . S
H142 C136 0.929 . S
H143 C137 0.930 . S
Mn144 O149 2.095 1_554 S
Mn144 O159 2.162 . S
Mn144 O160 2.297 . S
Mn144 O168 2.385 . S
Mn144 O169 2.209 . S
Mn144 O170 2.094 1_554 S
Mn145 O150 2.121 . S
Mn145 N152 2.257 1_556 S
Mn145 N161 2.282 1_556 S
Mn145 O169 2.215 1_556 S
Mn145 O171 2.117 . S
C146 O168 1.234 . S
C146 O169 1.283 . S
C147 O159 1.281 . S
C147 O160 1.236 . S
C148 O170 1.240 . S
C148 O171 1.264 . S
O149 Mn144 2.095 1_556 S
O149 C158 1.250 . S
O150 Mn145 2.121 . S
O150 C158 1.258 . S
C151 N152 1.326 . S
C151 C155 1.460 . S
C151 H157 0.929 . S
N152 Mn145 2.257 1_554 S
N152 C151 1.326 . S
N152 C156 1.362 . S
C153 C154 1.258 . S
C153 C156 1.431 . S
C153 C173 1.449 . S
C154 C153 1.258 . S
C154 C155 1.477 . S
C154 H174 0.931 . S
C155 C151 1.460 . S
C155 C154 1.477 . S
C155 H175 0.930 . S
C156 N152 1.362 . S
C156 C153 1.431 . S
C156 C166 1.476 . S
H157 C151 0.929 . S
C158 O149 1.250 . S
C158 O150 1.258 . S
O159 Mn144 2.162 . S
O159 C147 1.281 . S
O160 Mn144 2.297 . S
O160 C147 1.236 . S
N161 Mn145 2.282 1_554 S
N161 C162 1.328 . S
N161 C166 1.318 . S
C162 N161 1.328 . S
C162 C163 1.457 . S
C162 H167 0.929 1_554 S
C163 C162 1.457 . S
C163 C164 1.291 . S
C163 H176 0.931 . S
C164 C163 1.291 . S
C164 C165 1.373 . S
C164 H177 0.929 . S
C165 C164 1.373 . S
C165 C166 1.396 . S
C165 C172 1.403 . S
C166 C156 1.476 . S
C166 N161 1.318 . S
C166 C165 1.396 . S
H167 C162 0.929 1_556 S
O168 Mn144 2.385 . S
O168 C146 1.234 . S
O169 Mn144 2.209 . S
O169 Mn145 2.215 1_554 S
O169 C146 1.283 . S
O170 Mn144 2.094 1_556 S
O170 C148 1.240 . S
O171 Mn145 2.117 . S
O171 C148 1.264 . S
C172 C165 1.403 . S
C172 C173 1.399 . S
C172 H178 0.929 . S
C173 C153 1.449 . S
C173 C172 1.399 . S
C173 H179 0.930 . S
H174 C154 0.931 . S
H175 C155 0.930 . S
H176 C163 0.931 . S
H177 C164 0.929 . S
H178 C172 0.929 . S
H179 C173 0.930 . S
Mn180 O185 2.095 1_545 S
Mn180 O195 2.162 . S
Mn180 O196 2.297 1_554 S
Mn180 O204 2.385 1_554 S
Mn180 O205 2.209 1_544 S
Mn180 O206 2.094 . S
Mn181 O186 2.121 . S
Mn181 N188 2.257 1_554 S
Mn181 N197 2.282 . S
Mn181 O205 2.215 1_554 S
Mn181 O207 2.117 . S
C182 O204 1.234 1_565 S
C182 O205 1.283 . S
C183 O195 1.281 1_556 S
C183 O196 1.236 . S
C184 O206 1.240 . S
C184 O207 1.264 1_545 S
O185 Mn180 2.095 1_565 S
O185 C194 1.250 . S
O186 Mn181 2.121 . S
O186 C194 1.258 . S
C187 N188 1.326 . S
C187 C191 1.460 . S
C187 H193 0.929 . S
N188 Mn181 2.257 1_556 S
N188 C187 1.326 . S
N188 C192 1.362 . S
C189 C190 1.258 . S
C189 C192 1.431 . S
C189 C209 1.449 . S
C190 C189 1.258 . S
C190 C191 1.477 . S
C190 H210 0.931 . S
C191 C187 1.460 . S
C191 C190 1.477 . S
C191 H211 0.930 . S
C192 N188 1.362 . S
C192 C189 1.431 . S
C192 C202 1.476 . S
H193 C187 0.929 . S
C194 O185 1.250 . S
C194 O186 1.258 . S
O195 Mn180 2.162 . S
O195 C183 1.281 1_554 S
O196 Mn180 2.297 1_556 S
O196 C183 1.236 . S
N197 Mn181 2.282 . S
N197 C198 1.328 . S
N197 C202 1.318 1_554 S
C198 N197 1.328 . S
C198 C199 1.457 1_554 S
C198 H203 0.929 . S
C199 C198 1.457 1_556 S
C199 C200 1.291 . S
C199 H212 0.931 . S
C200 C199 1.291 . S
C200 C201 1.373 . S
C200 H213 0.929 . S
C201 C200 1.373 . S
C201 C202 1.396 . S
C201 C208 1.403 . S
C202 C192 1.476 . S
C202 N197 1.318 1_556 S
C202 C201 1.396 . S
H203 C198 0.929 . S
O204 Mn180 2.385 1_556 S
O204 C182 1.234 1_545 S
O205 Mn180 2.209 1_566 S
O205 Mn181 2.215 1_556 S
O205 C182 1.283 . S
O206 Mn180 2.094 . S
O206 C184 1.240 . S
O207 Mn181 2.117 . S
O207 C184 1.264 1_565 S
C208 C201 1.403 . S
C208 C209 1.399 . S
C208 H214 0.929 . S
C209 C189 1.449 . S
C209 C208 1.399 . S
C209 H215 0.930 . S
H210 C190 0.931 . S
H211 C191 0.930 . S
H212 C199 0.931 . S
H213 C200 0.929 . S
H214 C208 0.929 . S
H215 C209 0.930 . S
Mn216 O221 2.095 . S
Mn216 O231 2.162 . S
Mn216 O232 2.297 . S
Mn216 O240 2.385 . S
Mn216 O241 2.209 . S
Mn216 O242 2.094 . S
Mn217 O222 2.121 . S
Mn217 N224 2.257 . S
Mn217 N233 2.282 . S
Mn217 O241 2.215 . S
Mn217 O243 2.117 . S
C218 O240 1.234 . S
C218 O241 1.283 . S
C219 O231 1.281 . S
C219 O232 1.236 . S
C220 O242 1.240 . S
C220 O243 1.264 . S
O221 Mn216 2.095 . S
O221 C230 1.250 . S
O222 Mn217 2.121 . S
O222 C230 1.258 . S
C223 N224 1.326 . S
C223 C227 1.460 . S
C223 H229 0.929 . S
N224 Mn217 2.257 . S
N224 C223 1.326 . S
N224 C228 1.362 . S
C225 C226 1.258 . S
C225 C228 1.431 . S
C225 C245 1.449 . S
C226 C225 1.258 . S
C226 C227 1.477 . S
C226 H246 0.931 . S
C227 C223 1.460 . S
C227 C226 1.477 . S
C227 H247 0.930 . S
C228 N224 1.362 . S
C228 C225 1.431 . S
C228 C238 1.476 . S
H229 C223 0.929 . S
C230 O221 1.250 . S
C230 O222 1.258 . S
O231 Mn216 2.162 . S
O231 C219 1.281 . S
O232 Mn216 2.297 . S
O232 C219 1.236 . S
N233 Mn217 2.282 . S
N233 C234 1.328 . S
N233 C238 1.318 . S
C234 N233 1.328 . S
C234 C235 1.457 . S
C234 H239 0.929 . S
C235 C234 1.457 . S
C235 C236 1.291 . S
C235 H248 0.931 . S
C236 C235 1.291 . S
C236 C237 1.373 . S
C236 H249 0.929 . S
C237 C236 1.373 . S
C237 C238 1.396 . S
C237 C244 1.403 . S
C238 C228 1.476 . S
C238 N233 1.318 . S
C238 C237 1.396 . S
H239 C234 0.929 . S
O240 Mn216 2.385 . S
O240 C218 1.234 . S
O241 Mn216 2.209 . S
O241 Mn217 2.215 . S
O241 C218 1.283 . S
O242 Mn216 2.094 . S
O242 C220 1.240 . S
O243 Mn217 2.117 . S
O243 C220 1.264 . S
C244 C237 1.403 . S
C244 C245 1.399 . S
C244 H250 0.929 . S
C245 C225 1.449 . S
C245 C244 1.399 . S
C245 H251 0.930 . S
H246 C226 0.931 . S
H247 C227 0.930 . S
H248 C235 0.931 . S
H249 C236 0.929 . S
H250 C244 0.929 . S
H251 C245 0.930 . S
Mn252 O257 2.095 . S
Mn252 O267 2.162 1_565 S
Mn252 O268 2.297 1_565 S
Mn252 O276 2.385 . S
Mn252 O277 2.209 . S
Mn252 O278 2.094 . S
Mn253 O258 2.121 . S
Mn253 N260 2.257 . S
Mn253 N269 2.282 . S
Mn253 O277 2.215 . S
Mn253 O279 2.117 . S
C254 O276 1.234 . S
C254 O277 1.283 . S
C255 O267 1.281 . S
C255 O268 1.236 . S
C256 O278 1.240 . S
C256 O279 1.264 . S
O257 Mn252 2.095 . S
O257 C266 1.250 . S
O258 Mn253 2.121 . S
O258 C266 1.258 . S
C259 N260 1.326 . S
C259 C263 1.460 . S
C259 H265 0.929 . S
N260 Mn253 2.257 . S
N260 C259 1.326 . S
N260 C264 1.362 . S
C261 C262 1.258 . S
C261 C264 1.431 . S
C261 C281 1.449 . S
C262 C261 1.258 . S
C262 C263 1.477 . S
C262 H282 0.931 . S
C263 C259 1.460 . S
C263 C262 1.477 . S
C263 H283 0.930 . S
C264 N260 1.362 . S
C264 C261 1.431 . S
C264 C274 1.476 . S
H265 C259 0.929 . S
C266 O257 1.250 . S
C266 O258 1.258 . S
O267 Mn252 2.162 1_545 S
O267 C255 1.281 . S
O268 Mn252 2.297 1_545 S
O268 C255 1.236 . S
N269 Mn253 2.282 . S
N269 C270 1.328 . S
N269 C274 1.318 . S
C270 N269 1.328 . S
C270 C271 1.457 . S
C270 H275 0.929 . S
C271 C270 1.457 . S
C271 C272 1.291 . S
C271 H284 0.931 . S
C272 C271 1.291 . S
C272 C273 1.373 . S
C272 H285 0.929 . S
C273 C272 1.373 . S
C273 C274 1.396 . S
C273 C280 1.403 . S
C274 C264 1.476 . S
C274 N269 1.318 . S
C274 C273 1.396 . S
H275 C270 0.929 . S
O276 Mn252 2.385 . S
O276 C254 1.234 . S
O277 Mn252 2.209 . S
O277 Mn253 2.215 . S
O277 C254 1.283 . S
O278 Mn252 2.094 . S
O278 C256 1.240 . S
O279 Mn253 2.117 . S
O279 C256 1.264 . S
C280 C273 1.403 . S
C280 C281 1.399 . S
C280 H286 0.929 . S
C281 C261 1.449 . S
C281 C280 1.399 . S
C281 H287 0.930 . S
H282 C262 0.931 . S
H283 C263 0.930 . S
H284 C271 0.931 . S
H285 C272 0.929 . S
H286 C280 0.929 . S
H287 C281 0.930 . S
Mn288 O293 2.095 . S
Mn288 O303 2.162 1_455 S
Mn288 O304 2.297 1_455 S
Mn288 O312 2.385 . S
Mn288 O313 2.209 . S
Mn288 O314 2.094 . S
Mn289 O294 2.121 . S
Mn289 N296 2.257 . S
Mn289 N305 2.282 . S
Mn289 O313 2.215 . S
Mn289 O315 2.117 . S
C290 O312 1.234 . S
C290 O313 1.283 . S
C291 O303 1.281 . S
C291 O304 1.236 . S
C292 O314 1.240 . S
C292 O315 1.264 . S
O293 Mn288 2.095 . S
O293 C302 1.250 . S
O294 Mn289 2.121 . S
O294 C302 1.258 . S
C295 N296 1.326 . S
C295 C299 1.460 . S
C295 H301 0.929 . S
N296 Mn289 2.257 . S
N296 C295 1.326 . S
N296 C300 1.362 . S
C297 C298 1.258 . S
C297 C300 1.431 . S
C297 C317 1.449 . S
C298 C297 1.258 . S
C298 C299 1.477 . S
C298 H318 0.931 . S
C299 C295 1.460 . S
C299 C298 1.477 . S
C299 H319 0.930 . S
C300 N296 1.362 . S
C300 C297 1.431 . S
C300 C310 1.476 . S
H301 C295 0.929 . S
C302 O293 1.250 . S
C302 O294 1.258 . S
O303 Mn288 2.162 1_655 S
O303 C291 1.281 . S
O304 Mn288 2.297 1_655 S
O304 C291 1.236 . S
N305 Mn289 2.282 . S
N305 C306 1.328 . S
N305 C310 1.318 . S
C306 N305 1.328 . S
C306 C307 1.457 . S
C306 H311 0.929 . S
C307 C306 1.457 . S
C307 C308 1.291 . S
C307 H320 0.931 . S
C308 C307 1.291 . S
C308 C309 1.373 . S
C308 H321 0.929 . S
C309 C308 1.373 . S
C309 C310 1.396 . S
C309 C316 1.403 . S
C310 C300 1.476 . S
C310 N305 1.318 . S
C310 C309 1.396 . S
H311 C306 0.929 . S
O312 Mn288 2.385 . S
O312 C290 1.234 . S
O313 Mn288 2.209 . S
O313 Mn289 2.215 . S
O313 C290 1.283 . S
O314 Mn288 2.094 . S
O314 C292 1.240 . S
O315 Mn289 2.117 . S
O315 C292 1.264 . S
C316 C309 1.403 . S
C316 C317 1.399 . S
C316 H322 0.929 . S
C317 C297 1.449 . S
C317 C316 1.399 . S
C317 H323 0.930 . S
H318 C298 0.931 . S
H319 C299 0.930 . S
H320 C307 0.931 . S
H321 C308 0.929 . S
H322 C316 0.929 . S
H323 C317 0.930 . S
Mn324 O329 2.095 1_565 S
Mn324 O339 2.162 . S
Mn324 O340 2.297 . S
Mn324 O348 2.385 . S
Mn324 O349 2.209 . S
Mn324 O350 2.094 . S
Mn325 O330 2.121 1_565 S
Mn325 N332 2.257 . S
Mn325 N341 2.282 . S
Mn325 O349 2.215 . S
Mn325 O351 2.117 . S
C326 O348 1.234 . S
C326 O349 1.283 . S
C327 O339 1.281 . S
C327 O340 1.236 . S
C328 O350 1.240 . S
C328 O351 1.264 . S
O329 Mn324 2.095 1_545 S
O329 C338 1.250 . S
O330 Mn325 2.121 1_545 S
O330 C338 1.258 . S
C331 N332 1.326 1_545 S
C331 C335 1.460 . S
C331 H337 0.929 . S
N332 Mn325 2.257 . S
N332 C331 1.326 1_565 S
N332 C336 1.362 . S
C333 C334 1.258 1_565 S
C333 C336 1.431 . S
C333 C353 1.449 . S
C334 C333 1.258 1_545 S
C334 C335 1.477 . S
C334 H354 0.931 . S
C335 C331 1.460 . S
C335 C334 1.477 . S
C335 H355 0.930 . S
C336 N332 1.362 . S
C336 C333 1.431 . S
C336 C346 1.476 . S
H337 C331 0.929 . S
C338 O329 1.250 . S
C338 O330 1.258 . S
O339 Mn324 2.162 . S
O339 C327 1.281 . S
O340 Mn324 2.297 . S
O340 C327 1.236 . S
N341 Mn325 2.282 . S
N341 C342 1.328 . S
N341 C346 1.318 . S
C342 N341 1.328 . S
C342 C343 1.457 . S
C342 H347 0.929 . S
C343 C342 1.457 . S
C343 C344 1.291 . S
C343 H356 0.931 . S
C344 C343 1.291 . S
C344 C345 1.373 . S
C344 H357 0.929 . S
C345 C344 1.373 . S
C345 C346 1.396 . S
C345 C352 1.403 . S
C346 C336 1.476 . S
C346 N341 1.318 . S
C346 C345 1.396 . S
H347 C342 0.929 . S
O348 Mn324 2.385 . S
O348 C326 1.234 . S
O349 Mn324 2.209 . S
O349 Mn325 2.215 . S
O349 C326 1.283 . S
O350 Mn324 2.094 . S
O350 C328 1.240 . S
O351 Mn325 2.117 . S
O351 C328 1.264 . S
C352 C345 1.403 . S
C352 C353 1.399 . S
C352 H358 0.929 . S
C353 C333 1.449 . S
C353 C352 1.399 . S
C353 H359 0.930 . S
H354 C334 0.931 . S
H355 C335 0.930 . S
H356 C343 0.931 . S
H357 C344 0.929 . S
H358 C352 0.929 . S
H359 C353 0.930 . S
Mn360 O365 2.095 . S
Mn360 O375 2.162 1_455 S
Mn360 O376 2.297 1_455 S
Mn360 O384 2.385 . S
Mn360 O385 2.209 . S
Mn360 O386 2.094 . S
Mn361 O366 2.121 . S
Mn361 N368 2.257 . S
Mn361 N377 2.282 . S
Mn361 O385 2.215 . S
Mn361 O387 2.117 . S
C362 O384 1.234 . S
C362 O385 1.283 . S
C363 O375 1.281 . S
C363 O376 1.236 . S
C364 O386 1.240 . S
C364 O387 1.264 . S
O365 Mn360 2.095 . S
O365 C374 1.250 . S
O366 Mn361 2.121 . S
O366 C374 1.258 . S
C367 N368 1.326 . S
C367 C371 1.460 . S
C367 H373 0.929 . S
N368 Mn361 2.257 . S
N368 C367 1.326 . S
N368 C372 1.362 . S
C369 C370 1.258 . S
C369 C372 1.431 . S
C369 C389 1.449 . S
C370 C369 1.258 . S
C370 C371 1.477 . S
C370 H390 0.931 . S
C371 C367 1.460 . S
C371 C370 1.477 . S
C371 H391 0.930 . S
C372 N368 1.362 . S
C372 C369 1.431 . S
C372 C382 1.476 . S
H373 C367 0.929 . S
C374 O365 1.250 . S
C374 O366 1.258 . S
O375 Mn360 2.162 1_655 S
O375 C363 1.281 . S
O376 Mn360 2.297 1_655 S
O376 C363 1.236 . S
N377 Mn361 2.282 . S
N377 C378 1.328 . S
N377 C382 1.318 . S
C378 N377 1.328 . S
C378 C379 1.457 . S
C378 H383 0.929 . S
C379 C378 1.457 . S
C379 C380 1.291 . S
C379 H392 0.931 . S
C380 C379 1.291 . S
C380 C381 1.373 . S
C380 H393 0.929 . S
C381 C380 1.373 . S
C381 C382 1.396 . S
C381 C388 1.403 . S
C382 C372 1.476 . S
C382 N377 1.318 . S
C382 C381 1.396 . S
H383 C378 0.929 . S
O384 Mn360 2.385 . S
O384 C362 1.234 . S
O385 Mn360 2.209 . S
O385 Mn361 2.215 . S
O385 C362 1.283 . S
O386 Mn360 2.094 . S
O386 C364 1.240 . S
O387 Mn361 2.117 . S
O387 C364 1.264 . S
C388 C381 1.403 . S
C388 C389 1.399 . S
C388 H394 0.929 . S
C389 C369 1.449 . S
C389 C388 1.399 . S
C389 H395 0.930 . S
H390 C370 0.931 . S
H391 C371 0.930 . S
H392 C379 0.931 . S
H393 C380 0.929 . S
H394 C388 0.929 . S
H395 C389 0.930 . S
Mn396 O401 2.095 . S
Mn396 O411 2.162 . S
Mn396 O412 2.297 . S
Mn396 O420 2.385 . S
Mn396 O421 2.209 . S
Mn396 O422 2.094 . S
Mn397 O402 2.121 . S
Mn397 N404 2.257 . S
Mn397 N413 2.282 . S
Mn397 O421 2.215 . S
Mn397 O423 2.117 . S
C398 O420 1.234 . S
C398 O421 1.283 . S
C399 O411 1.281 . S
C399 O412 1.236 . S
C400 O422 1.240 . S
C400 O423 1.264 . S
O401 Mn396 2.095 . S
O401 C410 1.250 . S
O402 Mn397 2.121 . S
O402 C410 1.258 . S
C403 N404 1.326 . S
C403 C407 1.460 . S
C403 H409 0.929 . S
N404 Mn397 2.257 . S
N404 C403 1.326 . S
N404 C408 1.362 . S
C405 C406 1.258 . S
C405 C408 1.431 . S
C405 C425 1.449 . S
C406 C405 1.258 . S
C406 C407 1.477 . S
C406 H426 0.931 . S
C407 C403 1.460 . S
C407 C406 1.477 . S
C407 H427 0.930 . S
C408 N404 1.362 . S
C408 C405 1.431 . S
C408 C418 1.476 . S
H409 C403 0.929 . S
C410 O401 1.250 . S
C410 O402 1.258 . S
O411 Mn396 2.162 . S
O411 C399 1.281 . S
O412 Mn396 2.297 . S
O412 C399 1.236 . S
N413 Mn397 2.282 . S
N413 C414 1.328 . S
N413 C418 1.318 . S
C414 N413 1.328 . S
C414 C415 1.457 . S
C414 H419 0.929 . S
C415 C414 1.457 . S
C415 C416 1.291 . S
C415 H428 0.931 . S
C416 C415 1.291 . S
C416 C417 1.373 . S
C416 H429 0.929 . S
C417 C416 1.373 . S
C417 C418 1.396 . S
C417 C424 1.403 . S
C418 C408 1.476 . S
C418 N413 1.318 . S
C418 C417 1.396 . S
H419 C414 0.929 . S
O420 Mn396 2.385 . S
O420 C398 1.234 . S
O421 Mn396 2.209 . S
O421 Mn397 2.215 . S
O421 C398 1.283 . S
O422 Mn396 2.094 . S
O422 C400 1.240 . S
O423 Mn397 2.117 . S
O423 C400 1.264 . S
C424 C417 1.403 . S
C424 C425 1.399 . S
C424 H430 0.929 . S
C425 C405 1.449 . S
C425 C424 1.399 . S
C425 H431 0.930 . S
H426 C406 0.931 . S
H427 C407 0.930 . S
H428 C415 0.931 . S
H429 C416 0.929 . S
H430 C424 0.929 . S
H431 C425 0.930 . S
Mn432 O437 2.095 . S
Mn432 O447 2.162 1_545 S
Mn432 O448 2.297 1_545 S
Mn432 O456 2.385 . S
Mn432 O457 2.209 . S
Mn432 O458 2.094 . S
Mn433 O438 2.121 . S
Mn433 N440 2.257 . S
Mn433 N449 2.282 . S
Mn433 O457 2.215 . S
Mn433 O459 2.117 . S
C434 O456 1.234 . S
C434 O457 1.283 . S
C435 O447 1.281 . S
C435 O448 1.236 . S
C436 O458 1.240 . S
C436 O459 1.264 . S
O437 Mn432 2.095 . S
O437 C446 1.250 . S
O438 Mn433 2.121 . S
O438 C446 1.258 . S
C439 N440 1.326 . S
C439 C443 1.460 . S
C439 H445 0.929 . S
N440 Mn433 2.257 . S
N440 C439 1.326 . S
N440 C444 1.362 . S
C441 C442 1.258 . S
C441 C444 1.431 . S
C441 C461 1.449 . S
C442 C441 1.258 . S
C442 C443 1.477 . S
C442 H462 0.931 . S
C443 C439 1.460 . S
C443 C442 1.477 . S
C443 H463 0.930 . S
C444 N440 1.362 . S
C444 C441 1.431 . S
C444 C454 1.476 . S
H445 C439 0.929 . S
C446 O437 1.250 . S
C446 O438 1.258 . S
O447 Mn432 2.162 1_565 S
O447 C435 1.281 . S
O448 Mn432 2.297 1_565 S
O448 C435 1.236 . S
N449 Mn433 2.282 . S
N449 C450 1.328 . S
N449 C454 1.318 . S
C450 N449 1.328 . S
C450 C451 1.457 . S
C450 H455 0.929 . S
C451 C450 1.457 . S
C451 C452 1.291 . S
C451 H464 0.931 . S
C452 C451 1.291 . S
C452 C453 1.373 . S
C452 H465 0.929 . S
C453 C452 1.373 . S
C453 C454 1.396 . S
C453 C460 1.403 . S
C454 C444 1.476 . S
C454 N449 1.318 . S
C454 C453 1.396 . S
H455 C450 0.929 . S
O456 Mn432 2.385 . S
O456 C434 1.234 . S
O457 Mn432 2.209 . S
O457 Mn433 2.215 . S
O457 C434 1.283 . S
O458 Mn432 2.094 . S
O458 C436 1.240 . S
O459 Mn433 2.117 . S
O459 C436 1.264 . S
C460 C453 1.403 . S
C460 C461 1.399 . S
C460 H466 0.929 . S
C461 C441 1.449 . S
C461 C460 1.399 . S
C461 H467 0.930 . S
H462 C442 0.931 . S
H463 C443 0.930 . S
H464 C451 0.931 . S
H465 C452 0.929 . S
H466 C460 0.929 . S
H467 C461 0.930 . S
Mn468 O473 2.109 . S
Mn468 O483 2.162 . S
Mn468 O484 2.297 . S
Mn468 O492 2.385 . S
Mn468 O493 2.209 . S
Mn468 O494 2.094 . S
Mn469 O474 2.121 1_655 S
Mn469 N476 2.257 . S
Mn469 N485 2.282 . S
Mn469 O493 2.215 . S
Mn469 O495 2.117 . S
C470 O492 1.234 . S
C470 O493 1.283 . S
C471 O483 1.281 . S
C471 O484 1.236 . S
C472 O494 1.240 . S
C472 O495 1.264 . S
O473 Mn468 2.109 . S
O473 C482 1.232 1_655 S
O474 Mn469 2.121 1_455 S
O474 C482 1.258 . S
C475 N476 1.326 1_455 S
C475 C479 1.460 . S
C475 H481 0.929 . S
N476 Mn469 2.257 . S
N476 C475 1.326 1_655 S
N476 C480 1.362 . S
C477 C478 1.258 1_655 S
C477 C480 1.431 . S
C477 C497 1.449 . S
C478 C477 1.258 1_455 S
C478 C479 1.477 . S
C478 H498 0.931 . S
C479 C475 1.460 . S
C479 C478 1.477 . S
C479 H499 0.930 . S
C480 N476 1.362 . S
C480 C477 1.431 . S
C480 C490 1.476 . S
H481 C475 0.929 . S
C482 O473 1.232 1_455 S
C482 O474 1.258 . S
O483 Mn468 2.162 . S
O483 C471 1.281 . S
O484 Mn468 2.297 . S
O484 C471 1.236 . S
N485 Mn469 2.282 . S
N485 C486 1.328 . S
N485 C490 1.318 . S
C486 N485 1.328 . S
C486 C487 1.457 . S
C486 H491 0.929 . S
C487 C486 1.457 . S
C487 C488 1.291 . S
C487 H500 0.931 . S
C488 C487 1.291 . S
C488 C489 1.373 . S
C488 H501 0.929 . S
C489 C488 1.373 . S
C489 C490 1.396 . S
C489 C496 1.403 . S
C490 C480 1.476 . S
C490 N485 1.318 . S
C490 C489 1.396 . S
H491 C486 0.929 . S
O492 Mn468 2.385 . S
O492 C470 1.234 . S
O493 Mn468 2.209 . S
O493 Mn469 2.215 . S
O493 C470 1.283 . S
O494 Mn468 2.094 . S
O494 C472 1.240 . S
O495 Mn469 2.117 . S
O495 C472 1.264 . S
C496 C489 1.403 . S
C496 C497 1.399 . S
C496 H502 0.929 . S
C497 C477 1.449 . S
C497 C496 1.399 . S
C497 H503 0.930 . S
H498 C478 0.931 . S
H499 C479 0.930 . S
H500 C487 0.931 . S
H501 C488 0.929 . S
H502 C496 0.929 . S
H503 C497 0.930 . S
Mn504 O509 2.095 . S
Mn504 O519 2.162 . S
Mn504 O520 2.297 . S
Mn504 O528 2.385 . S
Mn504 O529 2.209 . S
Mn504 O530 2.094 . S
Mn505 O510 2.121 . S
Mn505 N512 2.257 . S
Mn505 N521 2.282 . S
Mn505 O529 2.215 . S
Mn505 O531 2.117 . S
C506 O528 1.234 . S
C506 O529 1.283 . S
C507 O519 1.281 . S
C507 O520 1.236 . S
C508 O530 1.240 . S
C508 O531 1.264 . S
O509 Mn504 2.095 . S
O509 C518 1.250 . S
O510 Mn505 2.121 . S
O510 C518 1.258 . S
C511 N512 1.326 . S
C511 C515 1.460 . S
C511 H517 0.929 . S
N512 Mn505 2.257 . S
N512 C511 1.326 . S
N512 C516 1.362 . S
C513 C514 1.258 . S
C513 C516 1.431 . S
C513 C533 1.449 . S
C514 C513 1.258 . S
C514 C515 1.477 . S
C514 H534 0.931 . S
C515 C511 1.460 . S
C515 C514 1.477 . S
C515 H535 0.930 . S
C516 N512 1.362 . S
C516 C513 1.431 . S
C516 C526 1.476 . S
H517 C511 0.929 . S
C518 O509 1.250 . S
C518 O510 1.258 . S
O519 Mn504 2.162 . S
O519 C507 1.281 . S
O520 Mn504 2.297 . S
O520 C507 1.236 . S
N521 Mn505 2.282 . S
N521 C522 1.328 . S
N521 C526 1.318 . S
C522 N521 1.328 . S
C522 C523 1.457 . S
C522 H527 0.929 . S
C523 C522 1.457 . S
C523 C524 1.291 . S
C523 H536 0.931 . S
C524 C523 1.291 . S
C524 C525 1.373 . S
C524 H537 0.929 . S
C525 C524 1.373 . S
C525 C526 1.396 . S
C525 C532 1.403 . S
C526 C516 1.476 . S
C526 N521 1.318 . S
C526 C525 1.396 . S
H527 C522 0.929 . S
O528 Mn504 2.385 . S
O528 C506 1.234 . S
O529 Mn504 2.209 . S
O529 Mn505 2.215 . S
O529 C506 1.283 . S
O530 Mn504 2.094 . S
O530 C508 1.240 . S
O531 Mn505 2.117 . S
O531 C508 1.264 . S
C532 C525 1.403 . S
C532 C533 1.399 . S
C532 H538 0.929 . S
C533 C513 1.449 . S
C533 C532 1.399 . S
C533 H539 0.930 . S
H534 C514 0.931 . S
H535 C515 0.930 . S
H536 C523 0.931 . S
H537 C524 0.929 . S
H538 C532 0.929 . S
H539 C533 0.930 . S
Mn540 O545 2.095 . S
Mn540 O555 2.162 . S
Mn540 O556 2.297 . S
Mn540 O564 2.385 . S
Mn540 O565 2.209 . S
Mn540 O566 2.094 . S
Mn541 O546 2.121 . S
Mn541 N548 2.257 . S
Mn541 N557 2.282 . S
Mn541 O565 2.215 . S
Mn541 O567 2.117 . S
C542 O564 1.234 . S
C542 O565 1.283 . S
C543 O555 1.281 . S
C543 O556 1.236 . S
C544 O566 1.240 . S
C544 O567 1.264 . S
O545 Mn540 2.095 . S
O545 C554 1.250 . S
O546 Mn541 2.121 . S
O546 C554 1.258 . S
C547 N548 1.326 . S
C547 C551 1.460 . S
C547 H553 0.929 . S
N548 Mn541 2.257 . S
N548 C547 1.326 . S
N548 C552 1.362 . S
C549 C550 1.258 . S
C549 C552 1.431 . S
C549 C569 1.449 . S
C550 C549 1.258 . S
C550 C551 1.477 . S
C550 H570 0.931 . S
C551 C547 1.460 . S
C551 C550 1.477 . S
C551 H571 0.930 . S
C552 N548 1.362 . S
C552 C549 1.431 . S
C552 C562 1.476 . S
H553 C547 0.929 . S
C554 O545 1.250 . S
C554 O546 1.258 . S
O555 Mn540 2.162 . S
O555 C543 1.281 . S
O556 Mn540 2.297 . S
O556 C543 1.236 . S
N557 Mn541 2.282 . S
N557 C558 1.328 . S
N557 C562 1.318 . S
C558 N557 1.328 . S
C558 C559 1.457 . S
C558 H563 0.929 . S
C559 C558 1.457 . S
C559 C560 1.291 . S
C559 H572 0.931 . S
C560 C559 1.291 . S
C560 C561 1.373 . S
C560 H573 0.929 . S
C561 C560 1.373 . S
C561 C562 1.396 . S
C561 C568 1.403 . S
C562 C552 1.476 . S
C562 N557 1.318 . S
C562 C561 1.396 . S
H563 C558 0.929 . S
O564 Mn540 2.385 . S
O564 C542 1.234 . S
O565 Mn540 2.209 . S
O565 Mn541 2.215 . S
O565 C542 1.283 . S
O566 Mn540 2.094 . S
O566 C544 1.240 . S
O567 Mn541 2.117 . S
O567 C544 1.264 . S
C568 C561 1.403 . S
C568 C569 1.399 . S
C568 H574 0.929 . S
C569 C549 1.449 . S
C569 C568 1.399 . S
C569 H575 0.930 . S
H570 C550 0.931 . S
H571 C551 0.930 . S
H572 C559 0.931 . S
H573 C560 0.929 . S
H574 C568 0.929 . S
H575 C569 0.930 . S
Mn576 O581 2.095 1_545 S
Mn576 O591 2.162 . S
Mn576 O592 2.297 . S
Mn576 O600 2.385 . S
Mn576 O601 2.209 . S
Mn576 O602 2.094 . S
Mn577 O582 2.121 1_545 S
Mn577 N584 2.257 . S
Mn577 N593 2.282 . S
Mn577 O601 2.215 . S
Mn577 O603 2.117 . S
C578 O600 1.234 . S
C578 O601 1.283 . S
C579 O591 1.281 . S
C579 O592 1.236 . S
C580 O602 1.240 . S
C580 O603 1.264 . S
O581 Mn576 2.095 1_565 S
O581 C590 1.250 . S
O582 Mn577 2.121 1_565 S
O582 C590 1.258 . S
C583 N584 1.326 1_565 S
C583 C587 1.460 . S
C583 H589 0.929 . S
N584 Mn577 2.257 . S
N584 C583 1.326 1_545 S
N584 C588 1.362 . S
C585 C586 1.258 1_545 S
C585 C588 1.431 . S
C585 C605 1.449 . S
C586 C585 1.258 1_565 S
C586 C587 1.477 . S
C586 H606 0.931 . S
C587 C583 1.460 . S
C587 C586 1.477 . S
C587 H607 0.930 . S
C588 N584 1.362 . S
C588 C585 1.431 . S
C588 C598 1.476 . S
H589 C583 0.929 . S
C590 O581 1.250 . S
C590 O582 1.258 . S
O591 Mn576 2.162 . S
O591 C579 1.281 . S
O592 Mn576 2.297 . S
O592 C579 1.236 . S
N593 Mn577 2.282 . S
N593 C594 1.328 . S
N593 C598 1.318 . S
C594 N593 1.328 . S
C594 C595 1.457 . S
C594 H599 0.929 . S
C595 C594 1.457 . S
C595 C596 1.291 . S
C595 H608 0.931 . S
C596 C595 1.291 . S
C596 C597 1.373 . S
C596 H609 0.929 . S
C597 C596 1.373 . S
C597 C598 1.396 . S
C597 C604 1.403 . S
C598 C588 1.476 . S
C598 N593 1.318 . S
C598 C597 1.396 . S
H599 C594 0.929 . S
O600 Mn576 2.385 . S
O600 C578 1.234 . S
O601 Mn576 2.209 . S
O601 Mn577 2.215 . S
O601 C578 1.283 . S
O602 Mn576 2.094 . S
O602 C580 1.240 . S
O603 Mn577 2.117 . S
O603 C580 1.264 . S
C604 C597 1.403 . S
C604 C605 1.399 . S
C604 H610 0.929 . S
C605 C585 1.449 . S
C605 C604 1.399 . S
C605 H611 0.930 . S
H606 C586 0.931 . S
H607 C587 0.930 . S
H608 C595 0.931 . S
H609 C596 0.929 . S
H610 C604 0.929 . S
H611 C605 0.930 . S
Mn612 O617 2.095 . S
Mn612 O627 2.162 1_655 S
Mn612 O628 2.297 1_655 S
Mn612 O636 2.385 . S
Mn612 O637 2.209 . S
Mn612 O638 2.094 . S
Mn613 O618 2.121 . S
Mn613 N620 2.257 . S
Mn613 N629 2.282 . S
Mn613 O637 2.215 . S
Mn613 O639 2.117 . S
C614 O636 1.234 . S
C614 O637 1.283 . S
C615 O627 1.281 . S
C615 O628 1.236 . S
C616 O638 1.240 . S
C616 O639 1.264 . S
O617 Mn612 2.095 . S
O617 C626 1.250 . S
O618 Mn613 2.121 . S
O618 C626 1.258 . S
C619 N620 1.326 . S
C619 C623 1.460 . S
C619 H625 0.929 . S
N620 Mn613 2.257 . S
N620 C619 1.326 . S
N620 C624 1.362 . S
C621 C622 1.258 . S
C621 C624 1.431 . S
C621 C641 1.449 . S
C622 C621 1.258 . S
C622 C623 1.477 . S
C622 H642 0.931 . S
C623 C619 1.460 . S
C623 C622 1.477 . S
C623 H643 0.930 . S
C624 N620 1.362 . S
C624 C621 1.431 . S
C624 C634 1.476 . S
H625 C619 0.929 . S
C626 O617 1.250 . S
C626 O618 1.258 . S
O627 Mn612 2.162 1_455 S
O627 C615 1.281 . S
O628 Mn612 2.297 1_455 S
O628 C615 1.236 . S
N629 Mn613 2.282 . S
N629 C630 1.328 . S
N629 C634 1.318 . S
C630 N629 1.328 . S
C630 C631 1.457 . S
C630 H635 0.929 . S
C631 C630 1.457 . S
C631 C632 1.291 . S
C631 H644 0.931 . S
C632 C631 1.291 . S
C632 C633 1.373 . S
C632 H645 0.929 . S
C633 C632 1.373 . S
C633 C634 1.396 . S
C633 C640 1.403 . S
C634 C624 1.476 . S
C634 N629 1.318 . S
C634 C633 1.396 . S
H635 C630 0.929 . S
O636 Mn612 2.385 . S
O636 C614 1.234 . S
O637 Mn612 2.209 . S
O637 Mn613 2.215 . S
O637 C614 1.283 . S
O638 Mn612 2.094 . S
O638 C616 1.240 . S
O639 Mn613 2.117 . S
O639 C616 1.264 . S
C640 C633 1.403 . S
C640 C641 1.399 . S
C640 H646 0.929 . S
C641 C621 1.449 . S
C641 C640 1.399 . S
C641 H647 0.930 . S
H642 C622 0.931 . S
H643 C623 0.930 . S
H644 C631 0.931 . S
H645 C632 0.929 . S
H646 C640 0.929 . S
H647 C641 0.930 . S
C648 C649 1.384 . S
C648 C650 1.384 . S
C648 H676 0.931 . S
C649 C648 1.384 . S
C649 C652 1.382 . S
C650 C648 1.384 . S
C650 C651 1.381 . S
C650 H677 0.930 . S
C651 C650 1.381 . S
C651 C653 1.381 . S
C651 C654 1.487 . S
C652 C649 1.382 . S
C652 C653 1.387 . S
C652 H678 0.930 . S
C653 C651 1.381 . S
C653 C652 1.387 . S
C653 H679 0.931 . S
C654 C651 1.487 . S
C654 C661 1.399 . S
C654 N692 1.343 . S
C655 C656 1.384 . S
C655 C657 1.384 . S
C655 H680 0.931 . S
C656 C655 1.384 . S
C656 C659 1.382 . S
C657 C655 1.384 . S
C657 C658 1.381 . S
C657 H681 0.930 . S
C658 C657 1.381 . S
C658 C660 1.381 . S
C658 C661 1.487 . S
C659 C656 1.382 . S
C659 C660 1.387 . S
C659 H682 0.930 . S
C660 C658 1.381 . S
C660 C659 1.387 . S
C660 H683 0.931 . S
C661 C654 1.399 . S
C661 C658 1.487 . S
C661 N693 1.343 . S
C662 C663 1.384 . S
C662 C664 1.384 . S
C662 H684 0.931 . S
C663 C662 1.384 . S
C663 C666 1.382 . S
C664 C662 1.384 . S
C664 C665 1.381 . S
C664 H685 0.930 . S
C665 C664 1.381 . S
C665 C667 1.381 . S
C665 C668 1.487 . S
C666 C663 1.382 . S
C666 C667 1.387 . S
C666 H686 0.930 . S
C667 C665 1.381 . S
C667 C666 1.387 . S
C667 H687 0.931 . S
C668 C665 1.487 . S
C668 C675 1.399 . S
C668 N693 1.343 . S
C669 C670 1.384 . S
C669 C671 1.384 . S
C669 H688 0.931 . S
C670 C669 1.384 . S
C670 C673 1.382 . S
C671 C669 1.384 . S
C671 C672 1.381 . S
C671 H689 0.930 . S
C672 C671 1.381 . S
C672 C674 1.381 . S
C672 C675 1.487 . S
C673 C670 1.382 . S
C673 C674 1.387 . S
C673 H690 0.930 . S
C674 C672 1.381 . S
C674 C673 1.387 . S
C674 H691 0.931 . S
C675 C668 1.399 . S
C675 C672 1.487 . S
C675 N692 1.343 . S
H676 C648 0.931 . S
H677 C650 0.930 . S
H678 C652 0.930 . S
H679 C653 0.931 . S
H680 C655 0.931 . S
H681 C657 0.930 . S
H682 C659 0.930 . S
H683 C660 0.931 . S
H684 C662 0.931 . S
H685 C664 0.930 . S
H686 C666 0.930 . S
H687 C667 0.931 . S
H688 C669 0.931 . S
H689 C671 0.930 . S
H690 C673 0.930 . S
H691 C674 0.931 . S
N692 C654 1.343 . S
N692 C675 1.343 . S
N693 C661 1.343 . S
N693 C668 1.343 . S
C694 C695 1.384 . S
C694 C696 1.384 . S
C694 H722 0.931 . S
C695 C694 1.384 . S
C695 C698 1.382 . S
C696 C694 1.384 . S
C696 C697 1.381 . S
C696 H723 0.930 . S
C697 C696 1.381 . S
C697 C699 1.381 . S
C697 C700 1.487 . S
C698 C695 1.382 . S
C698 C699 1.387 . S
C698 H724 0.930 . S
C699 C697 1.381 . S
C699 C698 1.387 . S
C699 H725 0.931 . S
C700 C697 1.487 . S
C700 C707 1.399 . S
C700 N738 1.343 . S
C701 C702 1.384 . S
C701 C703 1.384 . S
C701 H726 0.931 . S
C702 C701 1.384 . S
C702 C705 1.382 . S
C703 C701 1.384 . S
C703 C704 1.381 . S
C703 H727 0.930 . S
C704 C703 1.381 . S
C704 C706 1.381 . S
C704 C707 1.487 . S
C705 C702 1.382 . S
C705 C706 1.387 . S
C705 H728 0.930 . S
C706 C704 1.381 . S
C706 C705 1.387 . S
C706 H729 0.931 . S
C707 C700 1.399 . S
C707 C704 1.487 . S
C707 N739 1.343 . S
C708 C709 1.384 . S
C708 C710 1.384 . S
C708 H730 0.931 . S
C709 C708 1.384 . S
C709 C712 1.382 . S
C710 C708 1.384 . S
C710 C711 1.381 . S
C710 H731 0.930 . S
C711 C710 1.381 . S
C711 C713 1.381 . S
C711 C714 1.487 . S
C712 C709 1.382 . S
C712 C713 1.387 . S
C712 H732 0.930 . S
C713 C711 1.381 . S
C713 C712 1.387 . S
C713 H733 0.931 . S
C714 C711 1.487 . S
C714 C721 1.399 . S
C714 N739 1.343 . S
C715 C716 1.384 . S
C715 C717 1.384 . S
C715 H734 0.931 . S
C716 C715 1.384 . S
C716 C719 1.382 . S
C717 C715 1.384 . S
C717 C718 1.381 . S
C717 H735 0.930 . S
C718 C717 1.381 . S
C718 C720 1.381 . S
C718 C721 1.487 . S
C719 C716 1.382 . S
C719 C720 1.387 . S
C719 H736 0.930 . S
C720 C718 1.381 . S
C720 C719 1.387 . S
C720 H737 0.931 . S
C721 C714 1.399 . S
C721 C718 1.487 . S
C721 N738 1.343 . S
H722 C694 0.931 . S
H723 C696 0.930 . S
H724 C698 0.930 . S
H725 C699 0.931 . S
H726 C701 0.931 . S
H727 C703 0.930 . S
H728 C705 0.930 . S
H729 C706 0.931 . S
H730 C708 0.931 . S
H731 C710 0.930 . S
H732 C712 0.930 . S
H733 C713 0.931 . S
H734 C715 0.931 . S
H735 C717 0.930 . S
H736 C719 0.930 . S
H737 C720 0.931 . S
N738 C700 1.343 . S
N738 C721 1.343 . S
N739 C707 1.343 . S
N739 C714 1.343 . S
C740 C741 1.384 . S
C740 C742 1.384 . S
C740 H768 0.931 . S
C741 C740 1.384 . S
C741 C744 1.382 . S
C742 C740 1.384 . S
C742 C743 1.381 . S
C742 H769 0.930 . S
C743 C742 1.381 . S
C743 C745 1.381 . S
C743 C746 1.487 . S
C744 C741 1.382 . S
C744 C745 1.387 . S
C744 H770 0.930 . S
C745 C743 1.381 . S
C745 C744 1.387 . S
C745 H771 0.931 . S
C746 C743 1.487 . S
C746 C753 1.399 . S
C746 N784 1.343 . S
C747 C748 1.384 . S
C747 C749 1.384 . S
C747 H772 0.931 . S
C748 C747 1.384 . S
C748 C751 1.382 . S
C749 C747 1.384 . S
C749 C750 1.381 . S
C749 H773 0.930 . S
C750 C749 1.381 . S
C750 C752 1.381 . S
C750 C753 1.487 . S
C751 C748 1.382 . S
C751 C752 1.387 . S
C751 H774 0.930 . S
C752 C750 1.381 . S
C752 C751 1.387 . S
C752 H775 0.931 . S
C753 C746 1.399 . S
C753 C750 1.487 . S
C753 N785 1.343 . S
C754 C755 1.384 . S
C754 C756 1.384 . S
C754 H776 0.931 . S
C755 C754 1.384 . S
C755 C758 1.382 . S
C756 C754 1.384 . S
C756 C757 1.381 . S
C756 H777 0.930 . S
C757 C756 1.381 . S
C757 C759 1.381 . S
C757 C760 1.487 . S
C758 C755 1.382 . S
C758 C759 1.387 . S
C758 H778 0.930 . S
C759 C757 1.381 . S
C759 C758 1.387 . S
C759 H779 0.931 . S
C760 C757 1.487 . S
C760 C767 1.399 . S
C760 N785 1.343 . S
C761 C762 1.384 . S
C761 C763 1.384 . S
C761 H780 0.931 . S
C762 C761 1.384 . S
C762 C765 1.382 . S
C763 C761 1.384 . S
C763 C764 1.381 . S
C763 H781 0.930 . S
C764 C763 1.381 . S
C764 C766 1.381 . S
C764 C767 1.487 . S
C765 C762 1.382 . S
C765 C766 1.387 . S
C765 H782 0.930 . S
C766 C764 1.381 . S
C766 C765 1.387 . S
C766 H783 0.931 . S
C767 C760 1.399 . S
C767 C764 1.487 . S
C767 N784 1.343 . S
H768 C740 0.931 . S
H769 C742 0.930 . S
H770 C744 0.930 . S
H771 C745 0.931 . S
H772 C747 0.931 . S
H773 C749 0.930 . S
H774 C751 0.930 . S
H775 C752 0.931 . S
H776 C754 0.931 . S
H777 C756 0.930 . S
H778 C758 0.930 . S
H779 C759 0.931 . S
H780 C761 0.931 . S
H781 C763 0.930 . S
H782 C765 0.930 . S
H783 C766 0.931 . S
N784 C746 1.343 . S
N784 C767 1.343 . S
N785 C753 1.343 . S
N785 C760 1.343 . S
C786 C787 1.384 . S
C786 C788 1.384 . S
C786 H814 0.931 . S
C787 C786 1.384 . S
C787 C790 1.382 . S
C788 C786 1.384 . S
C788 C789 1.381 . S
C788 H815 0.930 . S
C789 C788 1.381 . S
C789 C791 1.381 . S
C789 C792 1.487 . S
C790 C787 1.382 . S
C790 C791 1.387 . S
C790 H816 0.930 . S
C791 C789 1.381 . S
C791 C790 1.387 . S
C791 H817 0.931 . S
C792 C789 1.487 . S
C792 C799 1.399 . S
C792 N830 1.343 . S
C793 C794 1.384 . S
C793 C795 1.384 . S
C793 H818 0.931 . S
C794 C793 1.384 . S
C794 C797 1.382 . S
C795 C793 1.384 . S
C795 C796 1.381 . S
C795 H819 0.930 . S
C796 C795 1.381 . S
C796 C798 1.381 . S
C796 C799 1.487 . S
C797 C794 1.382 . S
C797 C798 1.387 . S
C797 H820 0.930 . S
C798 C796 1.381 . S
C798 C797 1.387 . S
C798 H821 0.931 . S
C799 C792 1.399 . S
C799 C796 1.487 . S
C799 N831 1.343 . S
C800 C801 1.384 . S
C800 C802 1.384 . S
C800 H822 0.931 . S
C801 C800 1.384 . S
C801 C804 1.382 . S
C802 C800 1.384 . S
C802 C803 1.381 . S
C802 H823 0.930 . S
C803 C802 1.381 . S
C803 C805 1.381 . S
C803 C806 1.487 . S
C804 C801 1.382 . S
C804 C805 1.387 . S
C804 H824 0.930 . S
C805 C803 1.381 . S
C805 C804 1.387 . S
C805 H825 0.931 . S
C806 C803 1.487 . S
C806 C813 1.399 . S
C806 N831 1.343 . S
C807 C808 1.384 . S
C807 C809 1.384 . S
C807 H826 0.931 . S
C808 C807 1.384 . S
C808 C811 1.382 . S
C809 C807 1.384 . S
C809 C810 1.381 . S
C809 H827 0.930 . S
C810 C809 1.381 . S
C810 C812 1.381 . S
C810 C813 1.487 . S
C811 C808 1.382 . S
C811 C812 1.387 . S
C811 H828 0.930 . S
C812 C810 1.381 . S
C812 C811 1.387 . S
C812 H829 0.931 . S
C813 C806 1.399 . S
C813 C810 1.487 . S
C813 N830 1.343 . S
H814 C786 0.931 . S
H815 C788 0.930 . S
H816 C790 0.930 . S
H817 C791 0.931 . S
H818 C793 0.931 . S
H819 C795 0.930 . S
H820 C797 0.930 . S
H821 C798 0.931 . S
H822 C800 0.931 . S
H823 C802 0.930 . S
H824 C804 0.930 . S
H825 C805 0.931 . S
H826 C807 0.931 . S
H827 C809 0.930 . S
H828 C811 0.930 . S
H829 C812 0.931 . S
N830 C792 1.343 . S
N830 C813 1.343 . S
N831 C799 1.343 . S
N831 C806 1.343 . S
C832 C833 1.384 . S
C832 C834 1.384 . S
C832 H860 0.931 . S
C833 C832 1.384 . S
C833 C836 1.382 . S
C834 C832 1.384 . S
C834 C835 1.381 . S
C834 H861 0.930 . S
C835 C834 1.381 . S
C835 C837 1.381 . S
C835 C838 1.487 . S
C836 C833 1.382 . S
C836 C837 1.387 . S
C836 H862 0.930 . S
C837 C835 1.381 . S
C837 C836 1.387 . S
C837 H863 0.931 . S
C838 C835 1.487 . S
C838 C845 1.399 . S
C838 N876 1.343 . S
C839 C840 1.384 . S
C839 C841 1.384 . S
C839 H864 0.931 . S
C840 C839 1.384 . S
C840 C843 1.382 . S
C841 C839 1.384 . S
C841 C842 1.381 . S
C841 H865 0.930 . S
C842 C841 1.381 . S
C842 C844 1.381 . S
C842 C845 1.487 . S
C843 C840 1.382 . S
C843 C844 1.387 . S
C843 H866 0.930 . S
C844 C842 1.381 . S
C844 C843 1.387 . S
C844 H867 0.931 . S
C845 C838 1.399 . S
C845 C842 1.487 . S
C845 N877 1.343 . S
C846 C847 1.384 . S
C846 C848 1.384 . S
C846 H868 0.931 . S
C847 C846 1.384 . S
C847 C850 1.382 . S
C848 C846 1.384 . S
C848 C849 1.381 . S
C848 H869 0.930 . S
C849 C848 1.381 . S
C849 C851 1.381 . S
C849 C852 1.487 . S
C850 C847 1.382 . S
C850 C851 1.387 . S
C850 H870 0.930 . S
C851 C849 1.381 . S
C851 C850 1.387 . S
C851 H871 0.931 . S
C852 C849 1.487 . S
C852 C859 1.399 . S
C852 N877 1.343 . S
C853 C854 1.384 . S
C853 C855 1.384 . S
C853 H872 0.931 . S
C854 C853 1.384 . S
C854 C857 1.382 . S
C855 C853 1.384 . S
C855 C856 1.381 . S
C855 H873 0.930 . S
C856 C855 1.381 . S
C856 C858 1.381 . S
C856 C859 1.487 . S
C857 C854 1.382 . S
C857 C858 1.387 . S
C857 H874 0.930 . S
C858 C856 1.381 . S
C858 C857 1.387 . S
C858 H875 0.931 . S
C859 C852 1.399 . S
C859 C856 1.487 . S
C859 N876 1.343 . S
H860 C832 0.931 . S
H861 C834 0.930 . S
H862 C836 0.930 . S
H863 C837 0.931 . S
H864 C839 0.931 . S
H865 C841 0.930 . S
H866 C843 0.930 . S
H867 C844 0.931 . S
H868 C846 0.931 . S
H869 C848 0.930 . S
H870 C850 0.930 . S
H871 C851 0.931 . S
H872 C853 0.931 . S
H873 C855 0.930 . S
H874 C857 0.930 . S
H875 C858 0.931 . S
N876 C838 1.343 . S
N876 C859 1.343 . S
N877 C845 1.343 . S
N877 C852 1.343 . S
C878 C879 1.384 . S
C878 C880 1.384 . S
C878 H906 0.931 . S
C879 C878 1.384 . S
C879 C882 1.382 . S
C880 C878 1.384 . S
C880 C881 1.381 . S
C880 H907 0.930 . S
C881 C880 1.381 . S
C881 C883 1.381 . S
C881 C884 1.487 . S
C882 C879 1.382 . S
C882 C883 1.387 . S
C882 H908 0.930 . S
C883 C881 1.381 . S
C883 C882 1.387 . S
C883 H909 0.931 . S
C884 C881 1.487 . S
C884 C891 1.399 . S
C884 N922 1.343 . S
C885 C886 1.384 . S
C885 C887 1.384 . S
C885 H910 0.931 . S
C886 C885 1.384 . S
C886 C889 1.382 . S
C887 C885 1.384 . S
C887 C888 1.381 . S
C887 H911 0.930 . S
C888 C887 1.381 . S
C888 C890 1.381 . S
C888 C891 1.487 . S
C889 C886 1.382 . S
C889 C890 1.387 . S
C889 H912 0.930 . S
C890 C888 1.381 . S
C890 C889 1.387 . S
C890 H913 0.931 . S
C891 C884 1.399 . S
C891 C888 1.487 . S
C891 N923 1.343 . S
C892 C893 1.384 . S
C892 C894 1.384 . S
C892 H914 0.931 . S
C893 C892 1.384 . S
C893 C896 1.382 . S
C894 C892 1.384 . S
C894 C895 1.381 . S
C894 H915 0.930 . S
C895 C894 1.381 . S
C895 C897 1.381 . S
C895 C898 1.487 . S
C896 C893 1.382 . S
C896 C897 1.387 . S
C896 H916 0.930 . S
C897 C895 1.381 . S
C897 C896 1.387 . S
C897 H917 0.931 . S
C898 C895 1.487 . S
C898 C905 1.399 . S
C898 N923 1.343 . S
C899 C900 1.384 . S
C899 C901 1.384 . S
C899 H918 0.931 . S
C900 C899 1.384 . S
C900 C903 1.382 . S
C901 C899 1.384 . S
C901 C902 1.381 . S
C901 H919 0.930 . S
C902 C901 1.381 . S
C902 C904 1.381 . S
C902 C905 1.487 . S
C903 C900 1.382 . S
C903 C904 1.387 . S
C903 H920 0.930 . S
C904 C902 1.381 . S
C904 C903 1.387 . S
C904 H921 0.931 . S
C905 C898 1.399 . S
C905 C902 1.487 . S
C905 N922 1.343 . S
H906 C878 0.931 . S
H907 C880 0.930 . S
H908 C882 0.930 . S
H909 C883 0.931 . S
H910 C885 0.931 . S
H911 C887 0.930 . S
H912 C889 0.930 . S
H913 C890 0.931 . S
H914 C892 0.931 . S
H915 C894 0.930 . S
H916 C896 0.930 . S
H917 C897 0.931 . S
H918 C899 0.931 . S
H919 C901 0.930 . S
H920 C903 0.930 . S
H921 C904 0.931 . S
N922 C884 1.343 . S
N922 C905 1.343 . S
N923 C891 1.343 . S
N923 C898 1.343 . S
C924 C925 1.384 . S
C924 C926 1.384 . S
C924 H952 0.931 . S
C925 C924 1.384 . S
C925 C928 1.382 . S
C926 C924 1.384 . S
C926 C927 1.381 . S
C926 H953 0.930 . S
C927 C926 1.381 . S
C927 C929 1.381 . S
C927 C930 1.487 . S
C928 C925 1.382 . S
C928 C929 1.387 . S
C928 H954 0.930 . S
C929 C927 1.381 . S
C929 C928 1.387 . S
C929 H955 0.931 . S
C930 C927 1.487 . S
C930 C937 1.399 . S
C930 N968 1.343 . S
C931 C932 1.384 . S
C931 C933 1.384 . S
C931 H956 0.931 . S
C932 C931 1.384 . S
C932 C935 1.382 . S
C933 C931 1.384 . S
C933 C934 1.381 . S
C933 H957 0.930 . S
C934 C933 1.381 . S
C934 C936 1.381 . S
C934 C937 1.487 . S
C935 C932 1.382 . S
C935 C936 1.387 . S
C935 H958 0.930 . S
C936 C934 1.381 . S
C936 C935 1.387 . S
C936 H959 0.931 . S
C937 C930 1.399 . S
C937 C934 1.487 . S
C937 N969 1.343 . S
C938 C939 1.384 . S
C938 C940 1.384 . S
C938 H960 0.931 . S
C939 C938 1.384 . S
C939 C942 1.382 . S
C940 C938 1.384 . S
C940 C941 1.381 . S
C940 H961 0.930 . S
C941 C940 1.381 . S
C941 C943 1.381 . S
C941 C944 1.487 . S
C942 C939 1.382 . S
C942 C943 1.387 . S
C942 H962 0.930 . S
C943 C941 1.381 . S
C943 C942 1.387 . S
C943 H963 0.931 . S
C944 C941 1.487 . S
C944 C951 1.399 . S
C944 N969 1.343 . S
C945 C946 1.384 . S
C945 C947 1.384 . S
C945 H964 0.931 . S
C946 C945 1.384 . S
C946 C949 1.382 . S
C947 C945 1.384 . S
C947 C948 1.381 . S
C947 H965 0.930 . S
C948 C947 1.381 . S
C948 C950 1.381 . S
C948 C951 1.487 . S
C949 C946 1.382 . S
C949 C950 1.387 . S
C949 H966 0.930 . S
C950 C948 1.381 . S
C950 C949 1.387 . S
C950 H967 0.931 . S
C951 C944 1.399 . S
C951 C948 1.487 . S
C951 N968 1.343 . S
H952 C924 0.931 . S
H953 C926 0.930 . S
H954 C928 0.930 . S
H955 C929 0.931 . S
H956 C931 0.931 . S
H957 C933 0.930 . S
H958 C935 0.930 . S
H959 C936 0.931 . S
H960 C938 0.931 . S
H961 C940 0.930 . S
H962 C942 0.930 . S
H963 C943 0.931 . S
H964 C945 0.931 . S
H965 C947 0.930 . S
H966 C949 0.930 . S
H967 C950 0.931 . S
N968 C930 1.343 . S
N968 C951 1.343 . S
N969 C937 1.343 . S
N969 C944 1.343 . S
C970 C971 1.384 . S
C970 C972 1.384 . S
C970 H998 0.931 . S
C971 C970 1.384 . S
C971 C974 1.382 . S
C972 C970 1.384 . S
C972 C973 1.381 . S
C972 H999 0.930 . S
C973 C972 1.381 . S
C973 C975 1.381 . S
C973 C976 1.487 . S
C974 C971 1.382 . S
C974 C975 1.387 . S
C974 H1000 0.930 . S
C975 C973 1.381 . S
C975 C974 1.387 . S
C975 H1001 0.931 . S
C976 C973 1.487 . S
C976 C983 1.399 . S
C976 N1014 1.343 . S
C977 C978 1.384 . S
C977 C979 1.384 . S
C977 H1002 0.931 . S
C978 C977 1.384 . S
C978 C981 1.382 . S
C979 C977 1.384 . S
C979 C980 1.381 . S
C979 H1003 0.930 . S
C980 C979 1.381 . S
C980 C982 1.381 . S
C980 C983 1.487 . S
C981 C978 1.382 . S
C981 C982 1.387 . S
C981 H1004 0.930 . S
C982 C980 1.381 . S
C982 C981 1.387 . S
C982 H1005 0.931 . S
C983 C976 1.399 . S
C983 C980 1.487 . S
C983 N1015 1.343 . S
C984 C985 1.384 . S
C984 C986 1.384 . S
C984 H1006 0.931 . S
C985 C984 1.384 . S
C985 C988 1.382 . S
C986 C984 1.384 . S
C986 C987 1.381 . S
C986 H1007 0.930 . S
C987 C986 1.381 . S
C987 C989 1.381 . S
C987 C990 1.487 . S
C988 C985 1.382 . S
C988 C989 1.387 . S
C988 H1008 0.930 . S
C989 C987 1.381 . S
C989 C988 1.387 . S
C989 H1009 0.931 . S
C990 C987 1.487 . S
C990 C997 1.399 . S
C990 N1015 1.343 . S
C991 C992 1.384 . S
C991 C993 1.384 . S
C991 H1010 0.931 . S
C992 C991 1.384 . S
C992 C995 1.382 . S
C993 C991 1.384 . S
C993 C994 1.381 . S
C993 H1011 0.930 . S
C994 C993 1.381 . S
C994 C996 1.381 . S
C994 C997 1.487 . S
C995 C992 1.382 . S
C995 C996 1.387 . S
C995 H1012 0.930 . S
C996 C994 1.381 . S
C996 C995 1.387 . S
C996 H1013 0.931 . S
C997 C990 1.399 . S
C997 C994 1.487 . S
C997 N1014 1.343 . S
H998 C970 0.931 . S
H999 C972 0.930 . S
H1000 C974 0.930 . S
H1001 C975 0.931 . S
H1002 C977 0.931 . S
H1003 C979 0.930 . S
H1004 C981 0.930 . S
H1005 C982 0.931 . S
H1006 C984 0.931 . S
H1007 C986 0.930 . S
H1008 C988 0.930 . S
H1009 C989 0.931 . S
H1010 C991 0.931 . S
H1011 C993 0.930 . S
H1012 C995 0.930 . S
H1013 C996 0.931 . S
N1014 C976 1.343 . S
N1014 C997 1.343 . S
N1015 C983 1.343 . S
N1015 C990 1.343 . S
C1016 C1017 1.384 . S
C1016 C1018 1.384 . S
C1016 H1044 0.931 . S
C1017 C1016 1.384 . S
C1017 C1020 1.382 . S
C1018 C1016 1.384 . S
C1018 C1019 1.381 . S
C1018 H1045 0.930 . S
C1019 C1018 1.381 . S
C1019 C1021 1.381 . S
C1019 C1022 1.487 . S
C1020 C1017 1.382 . S
C1020 C1021 1.387 . S
C1020 H1046 0.930 . S
C1021 C1019 1.381 . S
C1021 C1020 1.387 . S
C1021 H1047 0.931 . S
C1022 C1019 1.487 . S
C1022 C1029 1.399 . S
C1022 N1060 1.343 . S
C1023 C1024 1.384 . S
C1023 C1025 1.384 . S
C1023 H1048 0.931 . S
C1024 C1023 1.384 . S
C1024 C1027 1.382 . S
C1025 C1023 1.384 . S
C1025 C1026 1.381 . S
C1025 H1049 0.930 . S
C1026 C1025 1.381 . S
C1026 C1028 1.381 . S
C1026 C1029 1.487 . S
C1027 C1024 1.382 . S
C1027 C1028 1.387 . S
C1027 H1050 0.930 . S
C1028 C1026 1.381 . S
C1028 C1027 1.387 . S
C1028 H1051 0.931 . S
C1029 C1022 1.399 . S
C1029 C1026 1.487 . S
C1029 N1061 1.343 . S
C1030 C1031 1.384 . S
C1030 C1032 1.384 . S
C1030 H1052 0.931 . S
C1031 C1030 1.384 . S
C1031 C1034 1.382 . S
C1032 C1030 1.384 . S
C1032 C1033 1.381 . S
C1032 H1053 0.930 . S
C1033 C1032 1.381 . S
C1033 C1035 1.381 . S
C1033 C1036 1.487 . S
C1034 C1031 1.382 . S
C1034 C1035 1.387 . S
C1034 H1054 0.930 . S
C1035 C1033 1.381 . S
C1035 C1034 1.387 . S
C1035 H1055 0.931 . S
C1036 C1033 1.487 . S
C1036 C1043 1.399 . S
C1036 N1061 1.343 . S
C1037 C1038 1.384 . S
C1037 C1039 1.384 . S
C1037 H1056 0.931 . S
C1038 C1037 1.384 . S
C1038 C1041 1.382 . S
C1039 C1037 1.384 . S
C1039 C1040 1.381 . S
C1039 H1057 0.930 . S
C1040 C1039 1.381 . S
C1040 C1042 1.381 . S
C1040 C1043 1.487 . S
C1041 C1038 1.382 . S
C1041 C1042 1.387 . S
C1041 H1058 0.930 . S
C1042 C1040 1.381 . S
C1042 C1041 1.387 . S
C1042 H1059 0.931 . S
C1043 C1036 1.399 . S
C1043 C1040 1.487 . S
C1043 N1060 1.343 . S
H1044 C1016 0.931 . S
H1045 C1018 0.930 . S
H1046 C1020 0.930 . S
H1047 C1021 0.931 . S
H1048 C1023 0.931 . S
H1049 C1025 0.930 . S
H1050 C1027 0.930 . S
H1051 C1028 0.931 . S
H1052 C1030 0.931 . S
H1053 C1032 0.930 . S
H1054 C1034 0.930 . S
H1055 C1035 0.931 . S
H1056 C1037 0.931 . S
H1057 C1039 0.930 . S
H1058 C1041 0.930 . S
H1059 C1042 0.931 . S
N1060 C1022 1.343 . S
N1060 C1043 1.343 . S
N1061 C1029 1.343 . S
N1061 C1036 1.343 . S
C1062 C1063 1.384 . S
C1062 C1064 1.384 . S
C1062 H1090 0.931 . S
C1063 C1062 1.384 . S
C1063 C1066 1.382 1_655 S
C1064 C1062 1.384 . S
C1064 C1065 1.387 1_655 S
C1064 H1091 0.930 . S
C1065 C1064 1.387 1_455 S
C1065 C1067 1.378 . S
C1065 C1068 1.475 . S
C1066 C1063 1.382 1_455 S
C1066 C1067 1.387 . S
C1066 H1092 0.930 . S
C1067 C1065 1.378 . S
C1067 C1066 1.387 . S
C1067 H1093 0.931 . S
C1068 C1065 1.475 . S
C1068 C1075 1.398 1_455 S
C1068 N1106 1.355 . S
C1069 C1070 1.384 . S
C1069 C1071 1.384 . S
C1069 H1094 0.931 . S
C1070 C1069 1.384 . S
C1070 C1073 1.382 1_455 S
C1071 C1069 1.384 . S
C1071 C1072 1.384 . S
C1071 H1095 0.930 . S
C1072 C1071 1.384 . S
C1072 C1074 1.375 1_455 S
C1072 C1075 1.494 1_455 S
C1073 C1070 1.382 1_655 S
C1073 C1074 1.387 . S
C1073 H1096 0.930 . S
C1074 C1072 1.375 1_655 S
C1074 C1073 1.387 . S
C1074 H1097 0.931 . S
C1075 C1068 1.398 1_655 S
C1075 C1072 1.494 1_655 S
C1075 N1107 1.367 . S
C1076 C1077 1.384 . S
C1076 C1078 1.384 . S
C1076 H1098 0.931 . S
C1077 C1076 1.384 . S
C1077 C1080 1.382 1_455 S
C1078 C1076 1.384 . S
C1078 C1079 1.387 . S
C1078 H1099 0.930 . S
C1079 C1078 1.387 . S
C1079 C1081 1.378 1_455 S
C1079 C1082 1.481 1_455 S
C1080 C1077 1.382 1_655 S
C1080 C1081 1.387 . S
C1080 H1100 0.930 . S
C1081 C1079 1.378 1_655 S
C1081 C1080 1.387 . S
C1081 H1101 0.931 . S
C1082 C1079 1.481 1_655 S
C1082 C1089 1.398 1_655 S
C1082 N1107 1.318 . S
C1083 C1084 1.384 . S
C1083 C1085 1.384 . S
C1083 H1102 0.931 . S
C1084 C1083 1.384 . S
C1084 C1087 1.382 1_655 S
C1085 C1083 1.384 . S
C1085 C1086 1.380 . S
C1085 H1103 0.930 . S
C1086 C1085 1.380 . S
C1086 C1088 1.384 1_655 S
C1086 C1089 1.494 1_655 S
C1087 C1084 1.382 1_455 S
C1087 C1088 1.387 . S
C1087 H1104 0.930 . S
C1088 C1086 1.384 1_455 S
C1088 C1087 1.387 . S
C1088 H1105 0.931 . S
C1089 C1082 1.398 1_455 S
C1089 C1086 1.494 1_455 S
C1089 N1106 1.335 . S
H1090 C1062 0.931 . S
H1091 C1064 0.930 . S
H1092 C1066 0.930 . S
H1093 C1067 0.931 . S
H1094 C1069 0.931 . S
H1095 C1071 0.930 . S
H1096 C1073 0.930 . S
H1097 C1074 0.931 . S
H1098 C1076 0.931 . S
H1099 C1078 0.930 . S
H1100 C1080 0.930 . S
H1101 C1081 0.931 . S
H1102 C1083 0.931 . S
H1103 C1085 0.930 . S
H1104 C1087 0.930 . S
H1105 C1088 0.931 . S
N1106 C1068 1.355 . S
N1106 C1089 1.335 . S
N1107 C1075 1.367 . S
N1107 C1082 1.318 . S
C1108 C1109 1.384 . S
C1108 C1110 1.384 . S
C1108 H1136 0.931 . S
C1109 C1108 1.384 . S
C1109 C1112 1.382 . S
C1110 C1108 1.384 . S
C1110 C1111 1.381 . S
C1110 H1137 0.930 . S
C1111 C1110 1.381 . S
C1111 C1113 1.381 . S
C1111 C1114 1.487 . S
C1112 C1109 1.382 . S
C1112 C1113 1.387 . S
C1112 H1138 0.930 . S
C1113 C1111 1.381 . S
C1113 C1112 1.387 . S
C1113 H1139 0.931 . S
C1114 C1111 1.487 . S
C1114 C1121 1.399 . S
C1114 N1152 1.343 . S
C1115 C1116 1.384 . S
C1115 C1117 1.384 . S
C1115 H1140 0.931 . S
C1116 C1115 1.384 . S
C1116 C1119 1.382 . S
C1117 C1115 1.384 . S
C1117 C1118 1.381 . S
C1117 H1141 0.930 . S
C1118 C1117 1.381 . S
C1118 C1120 1.381 . S
C1118 C1121 1.487 . S
C1119 C1116 1.382 . S
C1119 C1120 1.387 . S
C1119 H1142 0.930 . S
C1120 C1118 1.381 . S
C1120 C1119 1.387 . S
C1120 H1143 0.931 . S
C1121 C1114 1.399 . S
C1121 C1118 1.487 . S
C1121 N1153 1.343 . S
C1122 C1123 1.384 . S
C1122 C1124 1.384 . S
C1122 H1144 0.931 . S
C1123 C1122 1.384 . S
C1123 C1126 1.382 . S
C1124 C1122 1.384 . S
C1124 C1125 1.381 . S
C1124 H1145 0.930 . S
C1125 C1124 1.381 . S
C1125 C1127 1.381 . S
C1125 C1128 1.487 . S
C1126 C1123 1.382 . S
C1126 C1127 1.387 . S
C1126 H1146 0.930 . S
C1127 C1125 1.381 . S
C1127 C1126 1.387 . S
C1127 H1147 0.931 . S
C1128 C1125 1.487 . S
C1128 C1135 1.399 . S
C1128 N1153 1.343 . S
C1129 C1130 1.384 . S
C1129 C1131 1.384 . S
C1129 H1148 0.931 . S
C1130 C1129 1.384 . S
C1130 C1133 1.382 . S
C1131 C1129 1.384 . S
C1131 C1132 1.381 . S
C1131 H1149 0.930 . S
C1132 C1131 1.381 . S
C1132 C1134 1.381 . S
C1132 C1135 1.487 . S
C1133 C1130 1.382 . S
C1133 C1134 1.387 . S
C1133 H1150 0.930 . S
C1134 C1132 1.381 . S
C1134 C1133 1.387 . S
C1134 H1151 0.931 . S
C1135 C1128 1.399 . S
C1135 C1132 1.487 . S
C1135 N1152 1.343 . S
H1136 C1108 0.931 . S
H1137 C1110 0.930 . S
H1138 C1112 0.930 . S
H1139 C1113 0.931 . S
H1140 C1115 0.931 . S
H1141 C1117 0.930 . S
H1142 C1119 0.930 . S
H1143 C1120 0.931 . S
H1144 C1122 0.931 . S
H1145 C1124 0.930 . S
H1146 C1126 0.930 . S
H1147 C1127 0.931 . S
H1148 C1129 0.931 . S
H1149 C1131 0.930 . S
H1150 C1133 0.930 . S
H1151 C1134 0.931 . S
N1152 C1114 1.343 . S
N1152 C1135 1.343 . S
N1153 C1121 1.343 . S
N1153 C1128 1.343 . S
C1154 C1155 1.384 1_545 S
C1154 C1156 1.384 . S
C1154 H1182 0.931 . S
C1155 C1154 1.384 1_565 S
C1155 C1158 1.382 . S
C1156 C1154 1.384 . S
C1156 C1157 1.381 1_545 S
C1156 H1183 0.930 . S
C1157 C1156 1.381 1_565 S
C1157 C1159 1.381 . S
C1157 C1160 1.487 . S
C1158 C1155 1.382 . S
C1158 C1159 1.387 . S
C1158 H1184 0.930 . S
C1159 C1157 1.381 . S
C1159 C1158 1.387 . S
C1159 H1185 0.931 . S
C1160 C1157 1.487 . S
C1160 C1167 1.399 1_565 S
C1160 N1198 1.343 . S
C1161 C1162 1.384 1_565 S
C1161 C1163 1.384 . S
C1161 H1186 0.931 . S
C1162 C1161 1.384 1_545 S
C1162 C1165 1.382 . S
C1163 C1161 1.384 . S
C1163 C1164 1.381 1_565 S
C1163 H1187 0.930 . S
C1164 C1163 1.381 1_545 S
C1164 C1166 1.381 . S
C1164 C1167 1.487 . S
C1165 C1162 1.382 . S
C1165 C1166 1.387 . S
C1165 H1188 0.930 . S
C1166 C1164 1.381 . S
C1166 C1165 1.387 . S
C1166 H1189 0.931 . S
C1167 C1160 1.399 1_545 S
C1167 C1164 1.487 . S
C1167 N1199 1.343 . S
C1168 C1169 1.384 1_565 S
C1168 C1170 1.384 . S
C1168 H1190 0.931 . S
C1169 C1168 1.384 1_545 S
C1169 C1172 1.382 . S
C1170 C1168 1.384 . S
C1170 C1171 1.381 1_565 S
C1170 H1191 0.930 . S
C1171 C1170 1.381 1_545 S
C1171 C1173 1.381 . S
C1171 C1174 1.487 . S
C1172 C1169 1.382 . S
C1172 C1173 1.387 . S
C1172 H1192 0.930 . S
C1173 C1171 1.381 . S
C1173 C1172 1.387 . S
C1173 H1193 0.931 . S
C1174 C1171 1.487 . S
C1174 C1181 1.399 1_545 S
C1174 N1199 1.343 . S
C1175 C1176 1.384 1_545 S
C1175 C1177 1.384 . S
C1175 H1194 0.931 . S
C1176 C1175 1.384 1_565 S
C1176 C1179 1.382 . S
C1177 C1175 1.384 . S
C1177 C1178 1.381 1_545 S
C1177 H1195 0.930 . S
C1178 C1177 1.381 1_565 S
C1178 C1180 1.381 . S
C1178 C1181 1.487 . S
C1179 C1176 1.382 . S
C1179 C1180 1.387 . S
C1179 H1196 0.930 . S
C1180 C1178 1.381 . S
C1180 C1179 1.387 . S
C1180 H1197 0.931 . S
C1181 C1174 1.399 1_565 S
C1181 C1178 1.487 . S
C1181 N1198 1.343 . S
H1182 C1154 0.931 . S
H1183 C1156 0.930 . S
H1184 C1158 0.930 . S
H1185 C1159 0.931 . S
H1186 C1161 0.931 . S
H1187 C1163 0.930 . S
H1188 C1165 0.930 . S
H1189 C1166 0.931 . S
H1190 C1168 0.931 . S
H1191 C1170 0.930 . S
H1192 C1172 0.930 . S
H1193 C1173 0.931 . S
H1194 C1175 0.931 . S
H1195 C1177 0.930 . S
H1196 C1179 0.930 . S
H1197 C1180 0.931 . S
N1198 C1160 1.343 . S
N1198 C1181 1.343 . S
N1199 C1167 1.343 . S
N1199 C1174 1.343 . S
C1200 C1201 1.384 . S
C1200 C1202 1.384 . S
C1200 H1228 0.931 . S
C1201 C1200 1.384 . S
C1201 C1204 1.382 1_545 S
C1202 C1200 1.384 . S
C1202 C1203 1.385 . S
C1202 H1229 0.930 . S
C1203 C1202 1.385 . S
C1203 C1205 1.371 1_545 S
C1203 C1206 1.496 1_545 S
C1204 C1201 1.382 1_565 S
C1204 C1205 1.387 . S
C1204 H1230 0.930 . S
C1205 C1203 1.371 1_565 S
C1205 C1204 1.387 . S
C1205 H1231 0.931 . S
C1206 C1203 1.496 1_565 S
C1206 C1213 1.399 1_565 S
C1206 N1244 1.365 . S
C1207 C1208 1.384 . S
C1207 C1209 1.384 . S
C1207 H1232 0.931 . S
C1208 C1207 1.384 . S
C1208 C1211 1.382 1_565 S
C1209 C1207 1.384 . S
C1209 C1210 1.384 . S
C1209 H1233 0.930 . S
C1210 C1209 1.384 . S
C1210 C1212 1.380 1_565 S
C1210 C1213 1.478 1_565 S
C1211 C1208 1.382 1_545 S
C1211 C1212 1.387 . S
C1211 H1234 0.930 . S
C1212 C1210 1.380 1_545 S
C1212 C1211 1.387 . S
C1212 H1235 0.931 . S
C1213 C1206 1.399 1_545 S
C1213 C1210 1.478 1_545 S
C1213 N1245 1.352 . S
C1214 C1215 1.384 . S
C1214 C1216 1.384 . S
C1214 H1236 0.931 . S
C1215 C1214 1.384 . S
C1215 C1218 1.382 1_565 S
C1216 C1214 1.384 . S
C1216 C1217 1.382 . S
C1216 H1237 0.930 . S
C1217 C1216 1.382 . S
C1217 C1219 1.380 1_565 S
C1217 C1220 1.496 1_565 S
C1218 C1215 1.382 1_545 S
C1218 C1219 1.387 . S
C1218 H1238 0.930 . S
C1219 C1217 1.380 1_545 S
C1219 C1218 1.387 . S
C1219 H1239 0.931 . S
C1220 C1217 1.496 1_545 S
C1220 C1227 1.399 1_545 S
C1220 N1245 1.336 . S
C1221 C1222 1.384 . S
C1221 C1223 1.384 . S
C1221 H1240 0.931 . S
C1222 C1221 1.384 . S
C1222 C1225 1.382 1_545 S
C1223 C1221 1.384 . S
C1223 C1224 1.399 . S
C1223 H1241 0.930 . S
C1224 C1223 1.399 . S
C1224 C1226 1.372 1_545 S
C1224 C1227 1.478 1_545 S
C1225 C1222 1.382 1_565 S
C1225 C1226 1.387 . S
C1225 H1242 0.930 . S
C1226 C1224 1.372 1_565 S
C1226 C1225 1.387 . S
C1226 H1243 0.931 . S
C1227 C1220 1.399 1_565 S
C1227 C1224 1.478 1_565 S
C1227 N1244 1.320 . S
H1228 C1200 0.931 . S
H1229 C1202 0.930 . S
H1230 C1204 0.930 . S
H1231 C1205 0.931 . S
H1232 C1207 0.931 . S
H1233 C1209 0.930 . S
H1234 C1211 0.930 . S
H1235 C1212 0.931 . S
H1236 C1214 0.931 . S
H1237 C1216 0.930 . S
H1238 C1218 0.930 . S
H1239 C1219 0.931 . S
H1240 C1221 0.931 . S
H1241 C1223 0.930 . S
H1242 C1225 0.930 . S
H1243 C1226 0.931 . S
N1244 C1206 1.365 . S
N1244 C1227 1.320 . S
N1245 C1213 1.352 . S
N1245 C1220 1.336 . S
C1246 C1247 1.384 . S
C1246 C1248 1.384 . S
C1246 H1274 0.931 . S
C1247 C1246 1.384 . S
C1247 C1250 1.382 1_655 S
C1248 C1246 1.384 . S
C1248 C1249 1.411 . S
C1248 H1275 0.930 . S
C1249 C1248 1.411 . S
C1249 C1251 1.366 1_655 S
C1249 C1252 1.475 1_655 S
C1250 C1247 1.382 1_455 S
C1250 C1251 1.387 . S
C1250 H1276 0.930 . S
C1251 C1249 1.366 1_455 S
C1251 C1250 1.387 . S
C1251 H1277 0.931 . S
C1252 C1249 1.475 1_455 S
C1252 C1259 1.399 1_455 S
C1252 N1290 1.324 . S
C1253 C1254 1.384 . S
C1253 C1255 1.384 . S
C1253 H1278 0.931 . S
C1254 C1253 1.384 . S
C1254 C1257 1.382 1_455 S
C1255 C1253 1.384 . S
C1255 C1256 1.386 . S
C1255 H1279 0.930 . S
C1256 C1255 1.386 . S
C1256 C1258 1.368 1_455 S
C1256 C1259 1.500 1_455 S
C1257 C1254 1.382 1_655 S
C1257 C1258 1.387 . S
C1257 H1280 0.930 . S
C1258 C1256 1.368 1_655 S
C1258 C1257 1.387 . S
C1258 H1281 0.931 . S
C1259 C1252 1.399 1_655 S
C1259 C1256 1.500 1_655 S
C1259 N1291 1.362 . S
C1260 C1261 1.384 . S
C1260 C1262 1.384 . S
C1260 H1282 0.931 . S
C1261 C1260 1.384 . S
C1261 C1264 1.382 1_455 S
C1262 C1260 1.384 . S
C1262 C1263 1.397 . S
C1262 H1283 0.930 . S
C1263 C1262 1.397 . S
C1263 C1265 1.373 1_455 S
C1263 C1266 1.475 1_455 S
C1264 C1261 1.382 1_655 S
C1264 C1265 1.387 . S
C1264 H1284 0.930 . S
C1265 C1263 1.373 1_655 S
C1265 C1264 1.387 . S
C1265 H1285 0.931 . S
C1266 C1263 1.475 1_655 S
C1266 C1273 1.399 1_655 S
C1266 N1291 1.324 . S
C1267 C1268 1.384 . S
C1267 C1269 1.384 . S
C1267 H1286 0.931 . S
C1268 C1267 1.384 . S
C1268 C1271 1.382 1_655 S
C1269 C1267 1.384 . S
C1269 C1270 1.390 . S
C1269 H1287 0.930 . S
C1270 C1269 1.390 . S
C1270 C1272 1.360 1_655 S
C1270 C1273 1.500 1_655 S
C1271 C1268 1.382 1_455 S
C1271 C1272 1.387 . S
C1271 H1288 0.930 . S
C1272 C1270 1.360 1_455 S
C1272 C1271 1.387 . S
C1272 H1289 0.931 . S
C1273 C1266 1.399 1_455 S
C1273 C1270 1.500 1_455 S
C1273 N1290 1.362 . S
H1274 C1246 0.931 . S
H1275 C1248 0.930 . S
H1276 C1250 0.930 . S
H1277 C1251 0.931 . S
H1278 C1253 0.931 . S
H1279 C1255 0.930 . S
H1280 C1257 0.930 . S
H1281 C1258 0.931 . S
H1282 C1260 0.931 . S
H1283 C1262 0.930 . S
H1284 C1264 0.930 . S
H1285 C1265 0.931 . S
H1286 C1267 0.931 . S
H1287 C1269 0.930 . S
H1288 C1271 0.930 . S
H1289 C1272 0.931 . S
N1290 C1252 1.324 . S
N1290 C1273 1.362 . S
N1291 C1259 1.362 . S
N1291 C1266 1.324 . S
C1292 C1293 1.384 . S
C1292 C1294 1.384 . S
C1292 H1320 0.931 . S
C1293 C1292 1.384 . S
C1293 C1296 1.382 . S
C1294 C1292 1.384 . S
C1294 C1295 1.381 . S
C1294 H1321 0.930 . S
C1295 C1294 1.381 . S
C1295 C1297 1.381 . S
C1295 C1298 1.487 . S
C1296 C1293 1.382 . S
C1296 C1297 1.387 . S
C1296 H1322 0.930 . S
C1297 C1295 1.381 . S
C1297 C1296 1.387 . S
C1297 H1323 0.931 . S
C1298 C1295 1.487 . S
C1298 C1305 1.399 . S
C1298 N1336 1.343 . S
C1299 C1300 1.384 . S
C1299 C1301 1.384 . S
C1299 H1324 0.931 . S
C1300 C1299 1.384 . S
C1300 C1303 1.382 . S
C1301 C1299 1.384 . S
C1301 C1302 1.381 . S
C1301 H1325 0.930 . S
C1302 C1301 1.381 . S
C1302 C1304 1.381 . S
C1302 C1305 1.487 . S
C1303 C1300 1.382 . S
C1303 C1304 1.387 . S
C1303 H1326 0.930 . S
C1304 C1302 1.381 . S
C1304 C1303 1.387 . S
C1304 H1327 0.931 . S
C1305 C1298 1.399 . S
C1305 C1302 1.487 . S
C1305 N1337 1.343 . S
C1306 C1307 1.384 . S
C1306 C1308 1.384 . S
C1306 H1328 0.931 . S
C1307 C1306 1.384 . S
C1307 C1310 1.382 . S
C1308 C1306 1.384 . S
C1308 C1309 1.381 . S
C1308 H1329 0.930 . S
C1309 C1308 1.381 . S
C1309 C1311 1.381 . S
C1309 C1312 1.487 . S
C1310 C1307 1.382 . S
C1310 C1311 1.387 . S
C1310 H1330 0.930 . S
C1311 C1309 1.381 . S
C1311 C1310 1.387 . S
C1311 H1331 0.931 . S
C1312 C1309 1.487 . S
C1312 C1319 1.399 . S
C1312 N1337 1.343 . S
C1313 C1314 1.384 . S
C1313 C1315 1.384 . S
C1313 H1332 0.931 . S
C1314 C1313 1.384 . S
C1314 C1317 1.382 . S
C1315 C1313 1.384 . S
C1315 C1316 1.381 . S
C1315 H1333 0.930 . S
C1316 C1315 1.381 . S
C1316 C1318 1.381 . S
C1316 C1319 1.487 . S
C1317 C1314 1.382 . S
C1317 C1318 1.387 . S
C1317 H1334 0.930 . S
C1318 C1316 1.381 . S
C1318 C1317 1.387 . S
C1318 H1335 0.931 . S
C1319 C1312 1.399 . S
C1319 C1316 1.487 . S
C1319 N1336 1.343 . S
H1320 C1292 0.931 . S
H1321 C1294 0.930 . S
H1322 C1296 0.930 . S
H1323 C1297 0.931 . S
H1324 C1299 0.931 . S
H1325 C1301 0.930 . S
H1326 C1303 0.930 . S
H1327 C1304 0.931 . S
H1328 C1306 0.931 . S
H1329 C1308 0.930 . S
H1330 C1310 0.930 . S
H1331 C1311 0.931 . S
H1332 C1313 0.931 . S
H1333 C1315 0.930 . S
H1334 C1317 0.930 . S
H1335 C1318 0.931 . S
N1336 C1298 1.343 . S
N1336 C1319 1.343 . S
N1337 C1305 1.343 . S
N1337 C1312 1.343 . S
C1338 C1339 1.384 . S
C1338 C1340 1.384 . S
C1338 H1366 0.931 . S
C1339 C1338 1.384 . S
C1339 C1342 1.382 . S
C1340 C1338 1.384 . S
C1340 C1341 1.381 . S
C1340 H1367 0.930 . S
C1341 C1340 1.381 . S
C1341 C1343 1.381 . S
C1341 C1344 1.487 . S
C1342 C1339 1.382 . S
C1342 C1343 1.387 . S
C1342 H1368 0.930 . S
C1343 C1341 1.381 . S
C1343 C1342 1.387 . S
C1343 H1369 0.931 . S
C1344 C1341 1.487 . S
C1344 C1351 1.399 . S
C1344 N1382 1.343 . S
C1345 C1346 1.384 . S
C1345 C1347 1.384 . S
C1345 H1370 0.931 . S
C1346 C1345 1.384 . S
C1346 C1349 1.382 . S
C1347 C1345 1.384 . S
C1347 C1348 1.381 . S
C1347 H1371 0.930 . S
C1348 C1347 1.381 . S
C1348 C1350 1.381 . S
C1348 C1351 1.487 . S
C1349 C1346 1.382 . S
C1349 C1350 1.387 . S
C1349 H1372 0.930 . S
C1350 C1348 1.381 . S
C1350 C1349 1.387 . S
C1350 H1373 0.931 . S
C1351 C1344 1.399 . S
C1351 C1348 1.487 . S
C1351 N1383 1.343 . S
C1352 C1353 1.384 . S
C1352 C1354 1.384 . S
C1352 H1374 0.931 . S
C1353 C1352 1.384 . S
C1353 C1356 1.382 . S
C1354 C1352 1.384 . S
C1354 C1355 1.381 . S
C1354 H1375 0.930 . S
C1355 C1354 1.381 . S
C1355 C1357 1.381 . S
C1355 C1358 1.487 . S
C1356 C1353 1.382 . S
C1356 C1357 1.387 . S
C1356 H1376 0.930 . S
C1357 C1355 1.381 . S
C1357 C1356 1.387 . S
C1357 H1377 0.931 . S
C1358 C1355 1.487 . S
C1358 C1365 1.399 . S
C1358 N1383 1.343 . S
C1359 C1360 1.384 . S
C1359 C1361 1.384 . S
C1359 H1378 0.931 . S
C1360 C1359 1.384 . S
C1360 C1363 1.382 . S
C1361 C1359 1.384 . S
C1361 C1362 1.381 . S
C1361 H1379 0.930 . S
C1362 C1361 1.381 . S
C1362 C1364 1.381 . S
C1362 C1365 1.487 . S
C1363 C1360 1.382 . S
C1363 C1364 1.387 . S
C1363 H1380 0.930 . S
C1364 C1362 1.381 . S
C1364 C1363 1.387 . S
C1364 H1381 0.931 . S
C1365 C1358 1.399 . S
C1365 C1362 1.487 . S
C1365 N1382 1.343 . S
H1366 C1338 0.931 . S
H1367 C1340 0.930 . S
H1368 C1342 0.930 . S
H1369 C1343 0.931 . S
H1370 C1345 0.931 . S
H1371 C1347 0.930 . S
H1372 C1349 0.930 . S
H1373 C1350 0.931 . S
H1374 C1352 0.931 . S
H1375 C1354 0.930 . S
H1376 C1356 0.930 . S
H1377 C1357 0.931 . S
H1378 C1359 0.931 . S
H1379 C1361 0.930 . S
H1380 C1363 0.930 . S
H1381 C1364 0.931 . S
N1382 C1344 1.343 . S
N1382 C1365 1.343 . S
N1383 C1351 1.343 . S
N1383 C1358 1.343 . S
C1384 C1385 1.384 . S
C1384 C1386 1.384 . S
C1384 H1412 0.931 . S
C1385 C1384 1.384 . S
C1385 C1388 1.382 . S
C1386 C1384 1.384 . S
C1386 C1387 1.381 . S
C1386 H1413 0.930 . S
C1387 C1386 1.381 . S
C1387 C1389 1.381 . S
C1387 C1390 1.487 . S
C1388 C1385 1.382 . S
C1388 C1389 1.387 . S
C1388 H1414 0.930 . S
C1389 C1387 1.381 . S
C1389 C1388 1.387 . S
C1389 H1415 0.931 . S
C1390 C1387 1.487 . S
C1390 C1397 1.399 . S
C1390 N1428 1.343 . S
C1391 C1392 1.384 . S
C1391 C1393 1.384 . S
C1391 H1416 0.931 . S
C1392 C1391 1.384 . S
C1392 C1395 1.382 . S
C1393 C1391 1.384 . S
C1393 C1394 1.381 . S
C1393 H1417 0.930 . S
C1394 C1393 1.381 . S
C1394 C1396 1.381 . S
C1394 C1397 1.487 . S
C1395 C1392 1.382 . S
C1395 C1396 1.387 . S
C1395 H1418 0.930 . S
C1396 C1394 1.381 . S
C1396 C1395 1.387 . S
C1396 H1419 0.931 . S
C1397 C1390 1.399 . S
C1397 C1394 1.487 . S
C1397 N1429 1.343 . S
C1398 C1399 1.384 . S
C1398 C1400 1.384 . S
C1398 H1420 0.931 . S
C1399 C1398 1.384 . S
C1399 C1402 1.382 . S
C1400 C1398 1.384 . S
C1400 C1401 1.381 . S
C1400 H1421 0.930 . S
C1401 C1400 1.381 . S
C1401 C1403 1.381 . S
C1401 C1404 1.487 . S
C1402 C1399 1.382 . S
C1402 C1403 1.387 . S
C1402 H1422 0.930 . S
C1403 C1401 1.381 . S
C1403 C1402 1.387 . S
C1403 H1423 0.931 . S
C1404 C1401 1.487 . S
C1404 C1411 1.399 . S
C1404 N1429 1.343 . S
C1405 C1406 1.384 . S
C1405 C1407 1.384 . S
C1405 H1424 0.931 . S
C1406 C1405 1.384 . S
C1406 C1409 1.382 . S
C1407 C1405 1.384 . S
C1407 C1408 1.381 . S
C1407 H1425 0.930 . S
C1408 C1407 1.381 . S
C1408 C1410 1.381 . S
C1408 C1411 1.487 . S
C1409 C1406 1.382 . S
C1409 C1410 1.387 . S
C1409 H1426 0.930 . S
C1410 C1408 1.381 . S
C1410 C1409 1.387 . S
C1410 H1427 0.931 . S
C1411 C1404 1.399 . S
C1411 C1408 1.487 . S
C1411 N1428 1.343 . S
H1412 C1384 0.931 . S
H1413 C1386 0.930 . S
H1414 C1388 0.930 . S
H1415 C1389 0.931 . S
H1416 C1391 0.931 . S
H1417 C1393 0.930 . S
H1418 C1395 0.930 . S
H1419 C1396 0.931 . S
H1420 C1398 0.931 . S
H1421 C1400 0.930 . S
H1422 C1402 0.930 . S
H1423 C1403 0.931 . S
H1424 C1405 0.931 . S
H1425 C1407 0.930 . S
H1426 C1409 0.930 . S
H1427 C1410 0.931 . S
N1428 C1390 1.343 . S
N1428 C1411 1.343 . S
N1429 C1397 1.343 . S
N1429 C1404 1.343 . S
C1430 C1431 1.384 . S
C1430 C1432 1.384 . S
C1430 H1458 0.931 . S
C1431 C1430 1.384 . S
C1431 C1434 1.382 . S
C1432 C1430 1.384 . S
C1432 C1433 1.381 . S
C1432 H1459 0.930 . S
C1433 C1432 1.381 . S
C1433 C1435 1.381 . S
C1433 C1436 1.487 . S
C1434 C1431 1.382 . S
C1434 C1435 1.387 . S
C1434 H1460 0.930 . S
C1435 C1433 1.381 . S
C1435 C1434 1.387 . S
C1435 H1461 0.931 . S
C1436 C1433 1.487 . S
C1436 C1443 1.399 . S
C1436 N1474 1.343 . S
C1437 C1438 1.384 . S
C1437 C1439 1.384 . S
C1437 H1462 0.931 . S
C1438 C1437 1.384 . S
C1438 C1441 1.382 . S
C1439 C1437 1.384 . S
C1439 C1440 1.381 . S
C1439 H1463 0.930 . S
C1440 C1439 1.381 . S
C1440 C1442 1.381 . S
C1440 C1443 1.487 . S
C1441 C1438 1.382 . S
C1441 C1442 1.387 . S
C1441 H1464 0.930 . S
C1442 C1440 1.381 . S
C1442 C1441 1.387 . S
C1442 H1465 0.931 . S
C1443 C1436 1.399 . S
C1443 C1440 1.487 . S
C1443 N1475 1.343 . S
C1444 C1445 1.384 . S
C1444 C1446 1.384 . S
C1444 H1466 0.931 . S
C1445 C1444 1.384 . S
C1445 C1448 1.382 . S
C1446 C1444 1.384 . S
C1446 C1447 1.381 . S
C1446 H1467 0.930 . S
C1447 C1446 1.381 . S
C1447 C1449 1.381 . S
C1447 C1450 1.487 . S
C1448 C1445 1.382 . S
C1448 C1449 1.387 . S
C1448 H1468 0.930 . S
C1449 C1447 1.381 . S
C1449 C1448 1.387 . S
C1449 H1469 0.931 . S
C1450 C1447 1.487 . S
C1450 C1457 1.399 . S
C1450 N1475 1.343 . S
C1451 C1452 1.384 . S
C1451 C1453 1.384 . S
C1451 H1470 0.931 . S
C1452 C1451 1.384 . S
C1452 C1455 1.382 . S
C1453 C1451 1.384 . S
C1453 C1454 1.381 . S
C1453 H1471 0.930 . S
C1454 C1453 1.381 . S
C1454 C1456 1.381 . S
C1454 C1457 1.487 . S
C1455 C1452 1.382 . S
C1455 C1456 1.387 . S
C1455 H1472 0.930 . S
C1456 C1454 1.381 . S
C1456 C1455 1.387 . S
C1456 H1473 0.931 . S
C1457 C1450 1.399 . S
C1457 C1454 1.487 . S
C1457 N1474 1.343 . S
H1458 C1430 0.931 . S
H1459 C1432 0.930 . S
H1460 C1434 0.930 . S
H1461 C1435 0.931 . S
H1462 C1437 0.931 . S
H1463 C1439 0.930 . S
H1464 C1441 0.930 . S
H1465 C1442 0.931 . S
H1466 C1444 0.931 . S
H1467 C1446 0.930 . S
H1468 C1448 0.930 . S
H1469 C1449 0.931 . S
H1470 C1451 0.931 . S
H1471 C1453 0.930 . S
H1472 C1455 0.930 . S
H1473 C1456 0.931 . S
N1474 C1436 1.343 . S
N1474 C1457 1.343 . S
N1475 C1443 1.343 . S
N1475 C1450 1.343 . S
H1476 C1482 0.930 . S
H1477 C1485 0.930 . S
H1478 C1486 0.930 . S
H1479 C1487 0.930 . S
H1480 C1490 0.930 . S
H1481 C1491 0.930 . S
C1482 H1476 0.930 . S
C1482 C1483 1.355 . S
C1482 C1484 1.415 . S
C1483 C1482 1.355 . S
C1483 C1485 1.419 1_655 S
C1484 C1482 1.415 . S
C1484 C1489 1.425 1_655 S
C1484 C1491 1.409 . S
C1485 H1477 0.930 . S
C1485 C1483 1.419 1_455 S
C1485 C1486 1.362 . S
C1486 H1478 0.930 . S
C1486 C1485 1.362 . S
C1486 C1489 1.409 . S
C1487 H1479 0.930 . S
C1487 C1488 1.355 1_455 S
C1487 C1489 1.415 . S
C1488 C1487 1.355 1_655 S
C1488 C1490 1.419 . S
C1489 C1484 1.425 1_455 S
C1489 C1486 1.409 . S
C1489 C1487 1.415 . S
C1490 H1480 0.930 . S
C1490 C1488 1.419 . S
C1490 C1491 1.362 . S
C1491 H1481 0.930 . S
C1491 C1484 1.409 . S
C1491 C1490 1.362 . S
H1492 C1498 0.930 . S
H1493 C1501 0.930 . S
H1494 C1502 0.930 . S
H1495 C1503 0.930 . S
H1496 C1506 0.930 . S
H1497 C1507 0.930 . S
C1498 H1492 0.930 . S
C1498 C1499 1.355 . S
C1498 C1500 1.415 . S
C1499 C1498 1.355 . S
C1499 C1501 1.419 . S
C1500 C1498 1.415 . S
C1500 C1505 1.425 . S
C1500 C1507 1.409 . S
C1501 H1493 0.930 . S
C1501 C1499 1.419 . S
C1501 C1502 1.362 . S
C1502 H1494 0.930 . S
C1502 C1501 1.362 . S
C1502 C1505 1.409 . S
C1503 H1495 0.930 . S
C1503 C1504 1.355 . S
C1503 C1505 1.415 . S
C1504 C1503 1.355 . S
C1504 C1506 1.419 . S
C1505 C1500 1.425 . S
C1505 C1502 1.409 . S
C1505 C1503 1.415 . S
C1506 H1496 0.930 . S
C1506 C1504 1.419 . S
C1506 C1507 1.362 . S
C1507 H1497 0.930 . S
C1507 C1500 1.409 . S
C1507 C1506 1.362 . S
H1508 C1514 0.930 . S
H1509 C1517 0.930 . S
H1510 C1518 0.930 . S
H1511 C1519 0.930 . S
H1512 C1522 0.930 . S
H1513 C1523 0.930 . S
C1514 H1508 0.930 . S
C1514 C1515 1.355 . S
C1514 C1516 1.415 . S
C1515 C1514 1.355 . S
C1515 C1517 1.419 . S
C1516 C1514 1.415 . S
C1516 C1521 1.425 . S
C1516 C1523 1.409 . S
C1517 H1509 0.930 . S
C1517 C1515 1.419 . S
C1517 C1518 1.362 . S
C1518 H1510 0.930 . S
C1518 C1517 1.362 . S
C1518 C1521 1.409 . S
C1519 H1511 0.930 . S
C1519 C1520 1.355 . S
C1519 C1521 1.415 . S
C1520 C1519 1.355 . S
C1520 C1522 1.419 . S
C1521 C1516 1.425 . S
C1521 C1518 1.409 . S
C1521 C1519 1.415 . S
C1522 H1512 0.930 . S
C1522 C1520 1.419 . S
C1522 C1523 1.362 . S
C1523 H1513 0.930 . S
C1523 C1516 1.409 . S
C1523 C1522 1.362 . S
H1524 C1530 0.930 . S
H1525 C1533 0.925 1_545 S
H1526 C1534 0.930 . S
H1527 C1535 0.927 . S
H1528 C1538 0.930 . S
H1529 C1539 0.930 . S
C1530 H1524 0.930 . S
C1530 C1531 1.355 . S
C1530 C1532 1.415 . S
C1531 C1530 1.355 . S
C1531 C1533 1.415 . S
C1532 C1530 1.415 . S
C1532 C1537 1.425 . S
C1532 C1539 1.409 . S
C1533 H1525 0.925 1_565 S
C1533 C1531 1.415 . S
C1533 C1534 1.372 1_565 S
C1534 H1526 0.930 . S
C1534 C1533 1.372 1_545 S
C1534 C1537 1.409 1_545 S
C1535 H1527 0.927 . S
C1535 C1536 1.352 1_545 S
C1535 C1537 1.421 1_545 S
C1536 C1535 1.352 1_565 S
C1536 C1538 1.419 . S
C1537 C1532 1.425 . S
C1537 C1534 1.409 1_565 S
C1537 C1535 1.421 1_565 S
C1538 H1528 0.930 . S
C1538 C1536 1.419 . S
C1538 C1539 1.362 . S
C1539 H1529 0.930 . S
C1539 C1532 1.409 . S
C1539 C1538 1.362 . S
H1540 C1546 0.930 . S
H1541 C1549 0.930 . S
H1542 C1550 0.930 . S
H1543 C1551 0.930 . S
H1544 C1554 0.930 . S
H1545 C1555 0.930 . S
C1546 H1540 0.930 . S
C1546 C1547 1.355 1_655 S
C1546 C1548 1.415 . S
C1547 C1546 1.355 1_455 S
C1547 C1549 1.419 . S
C1548 C1546 1.415 . S
C1548 C1553 1.425 1_655 S
C1548 C1555 1.409 . S
C1549 H1541 0.930 . S
C1549 C1547 1.419 . S
C1549 C1550 1.362 . S
C1550 H1542 0.930 . S
C1550 C1549 1.362 . S
C1550 C1553 1.409 . S
C1551 H1543 0.930 . S
C1551 C1552 1.355 . S
C1551 C1553 1.415 . S
C1552 C1551 1.355 . S
C1552 C1554 1.419 1_455 S
C1553 C1548 1.425 1_455 S
C1553 C1550 1.409 . S
C1553 C1551 1.415 . S
C1554 H1544 0.930 . S
C1554 C1552 1.419 1_655 S
C1554 C1555 1.362 . S
C1555 H1545 0.930 . S
C1555 C1548 1.409 . S
C1555 C1554 1.362 . S
H1556 C1562 0.930 . S
H1557 C1565 0.930 . S
H1558 C1566 0.930 . S
H1559 C1567 0.930 . S
H1560 C1570 0.930 . S
H1561 C1571 0.930 . S
C1562 H1556 0.930 . S
C1562 C1563 1.355 . S
C1562 C1564 1.415 . S
C1563 C1562 1.355 . S
C1563 C1565 1.419 . S
C1564 C1562 1.415 . S
C1564 C1569 1.425 . S
C1564 C1571 1.409 . S
C1565 H1557 0.930 . S
C1565 C1563 1.419 . S
C1565 C1566 1.362 . S
C1566 H1558 0.930 . S
C1566 C1565 1.362 . S
C1566 C1569 1.409 . S
C1567 H1559 0.930 . S
C1567 C1568 1.355 . S
C1567 C1569 1.415 . S
C1568 C1567 1.355 . S
C1568 C1570 1.419 . S
C1569 C1564 1.425 . S
C1569 C1566 1.409 . S
C1569 C1567 1.415 . S
C1570 H1560 0.930 . S
C1570 C1568 1.419 . S
C1570 C1571 1.362 . S
C1571 H1561 0.930 . S
C1571 C1564 1.409 . S
C1571 C1570 1.362 . S
H1572 C1578 0.930 . S
H1573 C1581 0.930 . S
H1574 C1582 0.930 . S
H1575 C1583 0.930 . S
H1576 C1586 0.937 1_655 S
H1577 C1587 0.931 1_655 S
C1578 H1572 0.930 . S
C1578 C1579 1.355 . S
C1578 C1580 1.415 . S
C1579 C1578 1.355 . S
C1579 C1581 1.419 . S
C1580 C1578 1.415 . S
C1580 C1585 1.425 . S
C1580 C1587 1.399 . S
C1581 H1573 0.930 . S
C1581 C1579 1.419 . S
C1581 C1582 1.362 . S
C1582 H1574 0.930 . S
C1582 C1581 1.362 . S
C1582 C1585 1.409 . S
C1583 H1575 0.930 . S
C1583 C1584 1.355 . S
C1583 C1585 1.415 . S
C1584 C1583 1.355 . S
C1584 C1586 1.418 . S
C1585 C1580 1.425 . S
C1585 C1582 1.409 . S
C1585 C1583 1.415 . S
C1586 H1576 0.937 1_455 S
C1586 C1584 1.418 . S
C1586 C1587 1.366 . S
C1587 H1577 0.931 1_455 S
C1587 C1580 1.399 . S
C1587 C1586 1.366 . S
H1588 C1594 0.930 . S
H1589 C1597 0.930 . S
H1590 C1598 0.930 . S
H1591 C1599 0.930 . S
H1592 C1602 0.930 . S
H1593 C1603 0.930 . S
C1594 H1588 0.930 . S
C1594 C1595 1.355 . S
C1594 C1596 1.415 . S
C1595 C1594 1.355 . S
C1595 C1597 1.419 . S
C1596 C1594 1.415 . S
C1596 C1601 1.425 . S
C1596 C1603 1.409 . S
C1597 H1589 0.930 . S
C1597 C1595 1.419 . S
C1597 C1598 1.362 . S
C1598 H1590 0.930 . S
C1598 C1597 1.362 . S
C1598 C1601 1.409 . S
C1599 H1591 0.930 . S
C1599 C1600 1.355 . S
C1599 C1601 1.415 . S
C1600 C1599 1.355 . S
C1600 C1602 1.419 . S
C1601 C1596 1.425 . S
C1601 C1598 1.409 . S
C1601 C1599 1.415 . S
C1602 H1592 0.930 . S
C1602 C1600 1.419 . S
C1602 C1603 1.362 . S
C1603 H1593 0.930 . S
C1603 C1596 1.409 . S
C1603 C1602 1.362 . S
H1604 C1610 0.930 . S
H1605 C1613 0.930 . S
H1606 C1614 0.930 . S
H1607 C1615 0.930 . S
H1608 C1618 0.930 . S
H1609 C1619 0.930 . S
C1610 H1604 0.930 . S
C1610 C1611 1.355 1_545 S
C1610 C1612 1.396 . S
C1611 C1610 1.355 1_565 S
C1611 C1613 1.419 . S
C1612 C1610 1.396 . S
C1612 C1617 1.422 1_545 S
C1612 C1619 1.435 . S
C1613 H1605 0.930 . S
C1613 C1611 1.419 . S
C1613 C1614 1.362 . S
C1614 H1606 0.930 . S
C1614 C1613 1.362 . S
C1614 C1617 1.409 . S
C1615 H1607 0.930 . S
C1615 C1616 1.355 . S
C1615 C1617 1.415 . S
C1616 C1615 1.355 . S
C1616 C1618 1.419 1_565 S
C1617 C1612 1.422 1_565 S
C1617 C1614 1.409 . S
C1617 C1615 1.415 . S
C1618 H1608 0.930 . S
C1618 C1616 1.419 1_545 S
C1618 C1619 1.362 . S
C1619 H1609 0.930 . S
C1619 C1612 1.435 . S
C1619 C1618 1.362 . S
H1620 C1626 0.930 . S
H1621 C1629 0.930 . S
H1622 C1630 0.930 . S
H1623 C1631 0.930 . S
H1624 C1634 0.930 . S
H1625 C1635 0.930 . S
C1626 H1620 0.930 . S
C1626 C1627 1.355 1_565 S
C1626 C1628 1.415 . S
C1627 C1626 1.355 1_545 S
C1627 C1629 1.419 . S
C1628 C1626 1.415 . S
C1628 C1633 1.425 1_565 S
C1628 C1635 1.409 . S
C1629 H1621 0.930 . S
C1629 C1627 1.419 . S
C1629 C1630 1.362 . S
C1630 H1622 0.930 . S
C1630 C1629 1.362 . S
C1630 C1633 1.409 . S
C1631 H1623 0.930 . S
C1631 C1632 1.355 . S
C1631 C1633 1.415 . S
C1632 C1631 1.355 . S
C1632 C1634 1.419 1_545 S
C1633 C1628 1.425 1_545 S
C1633 C1630 1.409 . S
C1633 C1631 1.415 . S
C1634 H1624 0.930 . S
C1634 C1632 1.419 1_565 S
C1634 C1635 1.362 . S
C1635 H1625 0.930 . S
C1635 C1628 1.409 . S
C1635 C1634 1.362 . S
H1636 C1642 0.930 . S
H1637 C1645 0.930 . S
H1638 C1646 0.930 . S
H1639 C1647 0.930 . S
H1640 C1650 0.930 . S
H1641 C1651 0.930 . S
C1642 H1636 0.930 . S
C1642 C1643 1.355 . S
C1642 C1644 1.415 . S
C1643 C1642 1.355 . S
C1643 C1645 1.419 1_655 S
C1644 C1642 1.415 . S
C1644 C1649 1.425 1_655 S
C1644 C1651 1.409 . S
C1645 H1637 0.930 . S
C1645 C1643 1.419 1_455 S
C1645 C1646 1.362 . S
C1646 H1638 0.930 . S
C1646 C1645 1.362 . S
C1646 C1649 1.409 . S
C1647 H1639 0.930 . S
C1647 C1648 1.355 1_455 S
C1647 C1649 1.415 . S
C1648 C1647 1.355 1_655 S
C1648 C1650 1.419 . S
C1649 C1644 1.425 1_455 S
C1649 C1646 1.409 . S
C1649 C1647 1.415 . S
C1650 H1640 0.930 . S
C1650 C1648 1.419 . S
C1650 C1651 1.362 . S
C1651 H1641 0.930 . S
C1651 C1644 1.409 . S
C1651 C1650 1.362 . S
H1652 C1658 0.930 . S
H1653 C1661 0.930 . S
H1654 C1662 0.930 . S
H1655 C1663 0.930 . S
H1656 C1666 0.930 . S
H1657 C1667 0.930 . S
C1658 H1652 0.930 . S
C1658 C1659 1.355 . S
C1658 C1660 1.415 . S
C1659 C1658 1.355 . S
C1659 C1661 1.419 . S
C1660 C1658 1.415 . S
C1660 C1665 1.425 . S
C1660 C1667 1.409 . S
C1661 H1653 0.930 . S
C1661 C1659 1.419 . S
C1661 C1662 1.362 . S
C1662 H1654 0.930 . S
C1662 C1661 1.362 . S
C1662 C1665 1.409 . S
C1663 H1655 0.930 . S
C1663 C1664 1.355 . S
C1663 C1665 1.415 . S
C1664 C1663 1.355 . S
C1664 C1666 1.419 . S
C1665 C1660 1.425 . S
C1665 C1662 1.409 . S
C1665 C1663 1.415 . S
C1666 H1656 0.930 . S
C1666 C1664 1.419 . S
C1666 C1667 1.362 . S
C1667 H1657 0.930 . S
C1667 C1660 1.409 . S
C1667 C1666 1.362 . S
H1668 C1674 0.930 . S
H1669 C1677 0.930 . S
H1670 C1678 0.930 . S
H1671 C1679 0.930 . S
H1672 C1682 0.930 . S
H1673 C1683 0.930 . S
C1674 H1668 0.930 . S
C1674 C1675 1.355 . S
C1674 C1676 1.415 . S
C1675 C1674 1.355 . S
C1675 C1677 1.419 . S
C1676 C1674 1.415 . S
C1676 C1681 1.425 . S
C1676 C1683 1.409 . S
C1677 H1669 0.930 . S
C1677 C1675 1.419 . S
C1677 C1678 1.362 . S
C1678 H1670 0.930 . S
C1678 C1677 1.362 . S
C1678 C1681 1.409 . S
C1679 H1671 0.930 . S
C1679 C1680 1.355 . S
C1679 C1681 1.415 . S
C1680 C1679 1.355 . S
C1680 C1682 1.419 . S
C1681 C1676 1.425 . S
C1681 C1678 1.409 . S
C1681 C1679 1.415 . S
C1682 H1672 0.930 . S
C1682 C1680 1.419 . S
C1682 C1683 1.362 . S
C1683 H1673 0.930 . S
C1683 C1676 1.409 . S
C1683 C1682 1.362 . S
H1684 C1690 0.930 . S
H1685 C1693 0.930 . S
H1686 C1694 0.930 . S
H1687 C1695 0.930 . S
H1688 C1698 0.930 . S
H1689 C1699 0.930 . S
C1690 H1684 0.930 . S
C1690 C1691 1.355 . S
C1690 C1692 1.415 . S
C1691 C1690 1.355 . S
C1691 C1693 1.419 . S
C1692 C1690 1.415 . S
C1692 C1697 1.425 . S
C1692 C1699 1.409 . S
C1693 H1685 0.930 . S
C1693 C1691 1.419 . S
C1693 C1694 1.362 . S
C1694 H1686 0.930 . S
C1694 C1693 1.362 . S
C1694 C1697 1.409 . S
C1695 H1687 0.930 . S
C1695 C1696 1.355 . S
C1695 C1697 1.415 . S
C1696 C1695 1.355 . S
C1696 C1698 1.419 . S
C1697 C1692 1.425 . S
C1697 C1694 1.409 . S
C1697 C1695 1.415 . S
C1698 H1688 0.930 . S
C1698 C1696 1.419 . S
C1698 C1699 1.362 . S
C1699 H1689 0.930 . S
C1699 C1692 1.409 . S
C1699 C1698 1.362 . S
H1700 C1706 0.930 . S
H1701 C1709 0.930 . S
H1702 C1710 0.930 . S
H1703 C1711 0.930 . S
H1704 C1714 0.930 . S
H1705 C1715 0.930 . S
C1706 H1700 0.930 . S
C1706 C1707 1.355 . S
C1706 C1708 1.415 . S
C1707 C1706 1.355 . S
C1707 C1709 1.419 . S
C1708 C1706 1.415 . S
C1708 C1713 1.425 . S
C1708 C1715 1.409 . S
C1709 H1701 0.930 . S
C1709 C1707 1.419 . S
C1709 C1710 1.362 . S
C1710 H1702 0.930 . S
C1710 C1709 1.362 . S
C1710 C1713 1.409 . S
C1711 H1703 0.930 . S
C1711 C1712 1.355 . S
C1711 C1713 1.415 . S
C1712 C1711 1.355 . S
C1712 C1714 1.419 . S
C1713 C1708 1.425 . S
C1713 C1710 1.409 . S
C1713 C1711 1.415 . S
C1714 H1704 0.930 . S
C1714 C1712 1.419 . S
C1714 C1715 1.362 . S
C1715 H1705 0.930 . S
C1715 C1708 1.409 . S
C1715 C1714 1.362 . S
H1716 C1722 0.930 . S
H1717 C1725 0.930 . S
H1718 C1726 0.930 . S
H1719 C1727 0.930 . S
H1720 C1730 0.930 . S
H1721 C1731 0.930 . S
C1722 H1716 0.930 . S
C1722 C1723 1.355 . S
C1722 C1724 1.415 . S
C1723 C1722 1.355 . S
C1723 C1725 1.419 . S
C1724 C1722 1.415 . S
C1724 C1729 1.425 . S
C1724 C1731 1.409 . S
C1725 H1717 0.930 . S
C1725 C1723 1.419 . S
C1725 C1726 1.362 . S
C1726 H1718 0.930 . S
C1726 C1725 1.362 . S
C1726 C1729 1.409 . S
C1727 H1719 0.930 . S
C1727 C1728 1.355 . S
C1727 C1729 1.415 . S
C1728 C1727 1.355 . S
C1728 C1730 1.419 . S
C1729 C1724 1.425 . S
C1729 C1726 1.409 . S
C1729 C1727 1.415 . S
C1730 H1720 0.930 . S
C1730 C1728 1.419 . S
C1730 C1731 1.362 . S
C1731 H1721 0.930 . S
C1731 C1724 1.409 . S
C1731 C1730 1.362 . S
H1732 C1738 0.930 . S
H1733 C1741 0.930 . S
H1734 C1742 0.930 . S
H1735 C1743 0.930 . S
H1736 C1746 0.930 . S
H1737 C1747 0.930 . S
C1738 H1732 0.930 . S
C1738 C1739 1.355 . S
C1738 C1740 1.415 . S
C1739 C1738 1.355 . S
C1739 C1741 1.419 . S
C1740 C1738 1.415 . S
C1740 C1745 1.425 . S
C1740 C1747 1.409 . S
C1741 H1733 0.930 . S
C1741 C1739 1.419 . S
C1741 C1742 1.362 . S
C1742 H1734 0.930 . S
C1742 C1741 1.362 . S
C1742 C1745 1.409 . S
C1743 H1735 0.930 . S
C1743 C1744 1.355 . S
C1743 C1745 1.415 . S
C1744 C1743 1.355 . S
C1744 C1746 1.419 . S
C1745 C1740 1.425 . S
C1745 C1742 1.409 . S
C1745 C1743 1.415 . S
C1746 H1736 0.930 . S
C1746 C1744 1.419 . S
C1746 C1747 1.362 . S
C1747 H1737 0.930 . S
C1747 C1740 1.409 . S
C1747 C1746 1.362 . S
H1748 C1754 0.930 . S
H1749 C1757 0.930 . S
H1750 C1758 0.930 . S
H1751 C1759 0.930 . S
H1752 C1762 0.930 . S
H1753 C1763 0.930 . S
C1754 H1748 0.930 . S
C1754 C1755 1.355 . S
C1754 C1756 1.415 . S
C1755 C1754 1.355 . S
C1755 C1757 1.419 . S
C1756 C1754 1.415 . S
C1756 C1761 1.425 . S
C1756 C1763 1.409 . S
C1757 H1749 0.930 . S
C1757 C1755 1.419 . S
C1757 C1758 1.362 . S
C1758 H1750 0.930 . S
C1758 C1757 1.362 . S
C1758 C1761 1.409 . S
C1759 H1751 0.930 . S
C1759 C1760 1.355 . S
C1759 C1761 1.415 . S
C1760 C1759 1.355 . S
C1760 C1762 1.419 . S
C1761 C1756 1.425 . S
C1761 C1758 1.409 . S
C1761 C1759 1.415 . S
C1762 H1752 0.930 . S
C1762 C1760 1.419 . S
C1762 C1763 1.362 . S
C1763 H1753 0.930 . S
C1763 C1756 1.409 . S
C1763 C1762 1.362 . S
H1764 C1770 0.930 . S
H1765 C1773 0.930 . S
H1766 C1774 0.930 . S
H1767 C1775 0.930 . S
H1768 C1778 0.930 . S
H1769 C1779 0.930 . S
C1770 H1764 0.930 . S
C1770 C1771 1.355 . S
C1770 C1772 1.415 . S
C1771 C1770 1.355 . S
C1771 C1773 1.419 . S
C1772 C1770 1.415 . S
C1772 C1777 1.425 . S
C1772 C1779 1.409 . S
C1773 H1765 0.930 . S
C1773 C1771 1.419 . S
C1773 C1774 1.362 . S
C1774 H1766 0.930 . S
C1774 C1773 1.362 . S
C1774 C1777 1.409 . S
C1775 H1767 0.930 . S
C1775 C1776 1.355 . S
C1775 C1777 1.415 . S
C1776 C1775 1.355 . S
C1776 C1778 1.419 . S
C1777 C1772 1.425 . S
C1777 C1774 1.409 . S
C1777 C1775 1.415 . S
C1778 H1768 0.930 . S
C1778 C1776 1.419 . S
C1778 C1779 1.362 . S
C1779 H1769 0.930 . S
C1779 C1772 1.409 . S
C1779 C1778 1.362 . S
H1780 C1786 0.930 . S
H1781 C1789 0.930 . S
H1782 C1790 0.930 . S
H1783 C1791 0.930 . S
H1784 C1794 0.930 . S
H1785 C1795 0.930 . S
C1786 H1780 0.930 . S
C1786 C1787 1.355 . S
C1786 C1788 1.415 . S
C1787 C1786 1.355 . S
C1787 C1789 1.419 . S
C1788 C1786 1.415 . S
C1788 C1793 1.425 . S
C1788 C1795 1.409 . S
C1789 H1781 0.930 . S
C1789 C1787 1.419 . S
C1789 C1790 1.362 . S
C1790 H1782 0.930 . S
C1790 C1789 1.362 . S
C1790 C1793 1.409 . S
C1791 H1783 0.930 . S
C1791 C1792 1.355 . S
C1791 C1793 1.415 . S
C1792 C1791 1.355 . S
C1792 C1794 1.419 . S
C1793 C1788 1.425 . S
C1793 C1790 1.409 . S
C1793 C1791 1.415 . S
C1794 H1784 0.930 . S
C1794 C1792 1.419 . S
C1794 C1795 1.362 . S
C1795 H1785 0.930 . S
C1795 C1788 1.409 . S
C1795 C1794 1.362 . S
H1796 C1802 0.930 . S
H1797 C1805 0.930 . S
H1798 C1806 0.930 . S
H1799 C1807 0.930 . S
H1800 C1810 0.930 . S
H1801 C1811 0.930 . S
C1802 H1796 0.930 . S
C1802 C1803 1.355 . S
C1802 C1804 1.415 . S
C1803 C1802 1.355 . S
C1803 C1805 1.419 . S
C1804 C1802 1.415 . S
C1804 C1809 1.425 . S
C1804 C1811 1.409 . S
C1805 H1797 0.930 . S
C1805 C1803 1.419 . S
C1805 C1806 1.362 . S
C1806 H1798 0.930 . S
C1806 C1805 1.362 . S
C1806 C1809 1.409 . S
C1807 H1799 0.930 . S
C1807 C1808 1.355 . S
C1807 C1809 1.415 . S
C1808 C1807 1.355 . S
C1808 C1810 1.419 . S
C1809 C1804 1.425 . S
C1809 C1806 1.409 . S
C1809 C1807 1.415 . S
C1810 H1800 0.930 . S
C1810 C1808 1.419 . S
C1810 C1811 1.362 . S
C1811 H1801 0.930 . S
C1811 C1804 1.409 . S
C1811 C1810 1.362 . S
H1812 C1818 0.930 . S
H1813 C1821 0.930 . S
H1814 C1822 0.930 . S
H1815 C1823 0.930 . S
H1816 C1826 0.930 . S
H1817 C1827 0.930 . S
C1818 H1812 0.930 . S
C1818 C1819 1.355 . S
C1818 C1820 1.415 . S
C1819 C1818 1.355 . S
C1819 C1821 1.419 . S
C1820 C1818 1.415 . S
C1820 C1825 1.425 . S
C1820 C1827 1.409 . S
C1821 H1813 0.930 . S
C1821 C1819 1.419 . S
C1821 C1822 1.362 . S
C1822 H1814 0.930 . S
C1822 C1821 1.362 . S
C1822 C1825 1.409 . S
C1823 H1815 0.930 . S
C1823 C1824 1.355 . S
C1823 C1825 1.415 . S
C1824 C1823 1.355 . S
C1824 C1826 1.419 . S
C1825 C1820 1.425 . S
C1825 C1822 1.409 . S
C1825 C1823 1.415 . S
C1826 H1816 0.930 . S
C1826 C1824 1.419 . S
C1826 C1827 1.362 . S
C1827 H1817 0.930 . S
C1827 C1820 1.409 . S
C1827 C1826 1.362 . S
H1828 C1834 0.930 . S
H1829 C1837 0.930 . S
H1830 C1838 0.930 . S
H1831 C1839 0.930 . S
H1832 C1842 0.930 . S
H1833 C1843 0.930 . S
C1834 H1828 0.930 . S
C1834 C1835 1.355 . S
C1834 C1836 1.415 . S
C1835 C1834 1.355 . S
C1835 C1837 1.419 . S
C1836 C1834 1.415 . S
C1836 C1841 1.425 . S
C1836 C1843 1.409 . S
C1837 H1829 0.930 . S
C1837 C1835 1.419 . S
C1837 C1838 1.362 . S
C1838 H1830 0.930 . S
C1838 C1837 1.362 . S
C1838 C1841 1.409 . S
C1839 H1831 0.930 . S
C1839 C1840 1.355 . S
C1839 C1841 1.415 . S
C1840 C1839 1.355 . S
C1840 C1842 1.419 . S
C1841 C1836 1.425 . S
C1841 C1838 1.409 . S
C1841 C1839 1.415 . S
C1842 H1832 0.930 . S
C1842 C1840 1.419 . S
C1842 C1843 1.362 . S
C1843 H1833 0.930 . S
C1843 C1836 1.409 . S
C1843 C1842 1.362 . S
H1844 C1850 0.930 . S
H1845 C1853 0.930 . S
H1846 C1854 0.930 . S
H1847 C1855 0.930 . S
H1848 C1858 0.930 . S
H1849 C1859 0.930 . S
C1850 H1844 0.930 . S
C1850 C1851 1.355 . S
C1850 C1852 1.415 . S
C1851 C1850 1.355 . S
C1851 C1853 1.419 . S
C1852 C1850 1.415 . S
C1852 C1857 1.425 . S
C1852 C1859 1.409 . S
C1853 H1845 0.930 . S
C1853 C1851 1.419 . S
C1853 C1854 1.362 . S
C1854 H1846 0.930 . S
C1854 C1853 1.362 . S
C1854 C1857 1.409 . S
C1855 H1847 0.930 . S
C1855 C1856 1.355 . S
C1855 C1857 1.415 . S
C1856 C1855 1.355 . S
C1856 C1858 1.419 . S
C1857 C1852 1.425 . S
C1857 C1854 1.409 . S
C1857 C1855 1.415 . S
C1858 H1848 0.930 . S
C1858 C1856 1.419 . S
C1858 C1859 1.362 . S
C1859 H1849 0.930 . S
C1859 C1852 1.409 . S
C1859 C1858 1.362 . S
H1860 C1866 0.930 . S
H1861 C1869 0.930 . S
H1862 C1870 0.930 . S
H1863 C1871 0.930 . S
H1864 C1874 0.930 . S
H1865 C1875 0.930 . S
C1866 H1860 0.930 . S
C1866 C1867 1.355 . S
C1866 C1868 1.415 . S
C1867 C1866 1.355 . S
C1867 C1869 1.419 . S
C1868 C1866 1.415 . S
C1868 C1873 1.425 . S
C1868 C1875 1.409 . S
C1869 H1861 0.930 . S
C1869 C1867 1.419 . S
C1869 C1870 1.362 . S
C1870 H1862 0.930 . S
C1870 C1869 1.362 . S
C1870 C1873 1.409 . S
C1871 H1863 0.930 . S
C1871 C1872 1.355 . S
C1871 C1873 1.415 . S
C1872 C1871 1.355 . S
C1872 C1874 1.419 . S
C1873 C1868 1.425 . S
C1873 C1870 1.409 . S
C1873 C1871 1.415 . S
C1874 H1864 0.930 . S
C1874 C1872 1.419 . S
C1874 C1875 1.362 . S
C1875 H1865 0.930 . S
C1875 C1868 1.409 . S
C1875 C1874 1.362 . S
H1876 C1882 0.930 . S
H1877 C1885 0.930 . S
H1878 C1886 0.930 . S
H1879 C1887 0.930 . S
H1880 C1890 0.930 . S
H1881 C1891 0.930 . S
C1882 H1876 0.930 . S
C1882 C1883 1.355 . S
C1882 C1884 1.415 . S
C1883 C1882 1.355 . S
C1883 C1885 1.419 . S
C1884 C1882 1.415 . S
C1884 C1889 1.425 . S
C1884 C1891 1.409 . S
C1885 H1877 0.930 . S
C1885 C1883 1.419 . S
C1885 C1886 1.362 . S
C1886 H1878 0.930 . S
C1886 C1885 1.362 . S
C1886 C1889 1.409 . S
C1887 H1879 0.930 . S
C1887 C1888 1.355 . S
C1887 C1889 1.415 . S
C1888 C1887 1.355 . S
C1888 C1890 1.419 . S
C1889 C1884 1.425 . S
C1889 C1886 1.409 . S
C1889 C1887 1.415 . S
C1890 H1880 0.930 . S
C1890 C1888 1.419 . S
C1890 C1891 1.362 . S
C1891 H1881 0.930 . S
C1891 C1884 1.409 . S
C1891 C1890 1.362 . S
H1892 C1898 0.930 . S
H1893 C1901 0.930 . S
H1894 C1902 0.930 . S
H1895 C1903 0.930 . S
H1896 C1906 0.930 . S
H1897 C1907 0.930 . S
C1898 H1892 0.930 . S
C1898 C1899 1.355 . S
C1898 C1900 1.415 . S
C1899 C1898 1.355 . S
C1899 C1901 1.419 . S
C1900 C1898 1.415 . S
C1900 C1905 1.425 . S
C1900 C1907 1.409 . S
C1901 H1893 0.930 . S
C1901 C1899 1.419 . S
C1901 C1902 1.362 . S
C1902 H1894 0.930 . S
C1902 C1901 1.362 . S
C1902 C1905 1.409 . S
C1903 H1895 0.930 . S
C1903 C1904 1.355 . S
C1903 C1905 1.415 . S
C1904 C1903 1.355 . S
C1904 C1906 1.419 . S
C1905 C1900 1.425 . S
C1905 C1902 1.409 . S
C1905 C1903 1.415 . S
C1906 H1896 0.930 . S
C1906 C1904 1.419 . S
C1906 C1907 1.362 . S
C1907 H1897 0.930 . S
C1907 C1900 1.409 . S
C1907 C1906 1.362 . S
H1908 C1914 0.930 . S
H1909 C1917 0.930 . S
H1910 C1918 0.930 . S
H1911 C1919 0.930 . S
H1912 C1922 0.930 . S
H1913 C1923 0.930 . S
C1914 H1908 0.930 . S
C1914 C1915 1.355 . S
C1914 C1916 1.415 . S
C1915 C1914 1.355 . S
C1915 C1917 1.419 . S
C1916 C1914 1.415 . S
C1916 C1921 1.425 . S
C1916 C1923 1.409 . S
C1917 H1909 0.930 . S
C1917 C1915 1.419 . S
C1917 C1918 1.362 . S
C1918 H1910 0.930 . S
C1918 C1917 1.362 . S
C1918 C1921 1.409 . S
C1919 H1911 0.930 . S
C1919 C1920 1.355 . S
C1919 C1921 1.415 . S
C1920 C1919 1.355 . S
C1920 C1922 1.419 . S
C1921 C1916 1.425 . S
C1921 C1918 1.409 . S
C1921 C1919 1.415 . S
C1922 H1912 0.930 . S
C1922 C1920 1.419 . S
C1922 C1923 1.362 . S
C1923 H1913 0.930 . S
C1923 C1916 1.409 . S
C1923 C1922 1.362 . S
H1924 C1930 0.930 . S
H1925 C1933 0.930 . S
H1926 C1934 0.930 . S
H1927 C1935 0.930 . S
H1928 C1938 0.930 . S
H1929 C1939 0.930 . S
C1930 H1924 0.930 . S
C1930 C1931 1.355 . S
C1930 C1932 1.415 . S
C1931 C1930 1.355 . S
C1931 C1933 1.419 . S
C1932 C1930 1.415 . S
C1932 C1937 1.425 . S
C1932 C1939 1.409 . S
C1933 H1925 0.930 . S
C1933 C1931 1.419 . S
C1933 C1934 1.362 . S
C1934 H1926 0.930 . S
C1934 C1933 1.362 . S
C1934 C1937 1.409 . S
C1935 H1927 0.930 . S
C1935 C1936 1.355 . S
C1935 C1937 1.415 . S
C1936 C1935 1.355 . S
C1936 C1938 1.419 . S
C1937 C1932 1.425 . S
C1937 C1934 1.409 . S
C1937 C1935 1.415 . S
C1938 H1928 0.930 . S
C1938 C1936 1.419 . S
C1938 C1939 1.362 . S
C1939 H1929 0.930 . S
C1939 C1932 1.409 . S
C1939 C1938 1.362 . S
H1940 C1946 0.930 . S
H1941 C1949 0.930 . S
H1942 C1950 0.930 . S
H1943 C1951 0.930 . S
H1944 C1954 0.930 . S
H1945 C1955 0.930 . S
C1946 H1940 0.930 . S
C1946 C1947 1.355 . S
C1946 C1948 1.415 . S
C1947 C1946 1.355 . S
C1947 C1949 1.419 . S
C1948 C1946 1.415 . S
C1948 C1953 1.425 . S
C1948 C1955 1.409 . S
C1949 H1941 0.930 . S
C1949 C1947 1.419 . S
C1949 C1950 1.362 . S
C1950 H1942 0.930 . S
C1950 C1949 1.362 . S
C1950 C1953 1.409 . S
C1951 H1943 0.930 . S
C1951 C1952 1.355 . S
C1951 C1953 1.415 . S
C1952 C1951 1.355 . S
C1952 C1954 1.419 . S
C1953 C1948 1.425 . S
C1953 C1950 1.409 . S
C1953 C1951 1.415 . S
C1954 H1944 0.930 . S
C1954 C1952 1.419 . S
C1954 C1955 1.362 . S
C1955 H1945 0.930 . S
C1955 C1948 1.409 . S
C1955 C1954 1.362 . S
H1956 C1962 0.930 . S
H1957 C1965 0.930 . S
H1958 C1966 0.930 . S
H1959 C1967 0.930 . S
H1960 C1970 0.930 . S
H1961 C1971 0.930 . S
C1962 H1956 0.930 . S
C1962 C1963 1.355 . S
C1962 C1964 1.415 . S
C1963 C1962 1.355 . S
C1963 C1965 1.419 . S
C1964 C1962 1.415 . S
C1964 C1969 1.425 . S
C1964 C1971 1.409 . S
C1965 H1957 0.930 . S
C1965 C1963 1.419 . S
C1965 C1966 1.362 . S
C1966 H1958 0.930 . S
C1966 C1965 1.362 . S
C1966 C1969 1.409 . S
C1967 H1959 0.930 . S
C1967 C1968 1.355 . S
C1967 C1969 1.415 . S
C1968 C1967 1.355 . S
C1968 C1970 1.419 . S
C1969 C1964 1.425 . S
C1969 C1966 1.409 . S
C1969 C1967 1.415 . S
C1970 H1960 0.930 . S
C1970 C1968 1.419 . S
C1970 C1971 1.362 . S
C1971 H1961 0.930 . S
C1971 C1964 1.409 . S
C1971 C1970 1.362 . S
H1972 C1978 0.930 . S
H1973 C1981 0.930 . S
H1974 C1982 0.930 . S
H1975 C1983 0.930 . S
H1976 C1986 0.930 . S
H1977 C1987 0.930 . S
C1978 H1972 0.930 . S
C1978 C1979 1.355 . S
C1978 C1980 1.415 . S
C1979 C1978 1.355 . S
C1979 C1981 1.419 . S
C1980 C1978 1.415 . S
C1980 C1985 1.425 . S
C1980 C1987 1.409 . S
C1981 H1973 0.930 . S
C1981 C1979 1.419 . S
C1981 C1982 1.362 . S
C1982 H1974 0.930 . S
C1982 C1981 1.362 . S
C1982 C1985 1.409 . S
C1983 H1975 0.930 . S
C1983 C1984 1.355 . S
C1983 C1985 1.415 . S
C1984 C1983 1.355 . S
C1984 C1986 1.419 . S
C1985 C1980 1.425 . S
C1985 C1982 1.409 . S
C1985 C1983 1.415 . S
C1986 H1976 0.930 . S
C1986 C1984 1.419 . S
C1986 C1987 1.362 . S
C1987 H1977 0.930 . S
C1987 C1980 1.409 . S
C1987 C1986 1.362 . S
H1988 C1994 0.930 . S
H1989 C1997 0.930 . S
H1990 C1998 0.930 . S
H1991 C1999 0.930 . S
H1992 C2002 0.930 . S
H1993 C2003 0.930 . S
C1994 H1988 0.930 . S
C1994 C1995 1.355 . S
C1994 C1996 1.415 . S
C1995 C1994 1.355 . S
C1995 C1997 1.419 . S
C1996 C1994 1.415 . S
C1996 C2001 1.425 . S
C1996 C2003 1.409 . S
C1997 H1989 0.930 . S
C1997 C1995 1.419 . S
C1997 C1998 1.362 . S
C1998 H1990 0.930 . S
C1998 C1997 1.362 . S
C1998 C2001 1.409 . S
C1999 H1991 0.930 . S
C1999 C2000 1.355 . S
C1999 C2001 1.415 . S
C2000 C1999 1.355 . S
C2000 C2002 1.419 . S
C2001 C1996 1.425 . S
C2001 C1998 1.409 . S
C2001 C1999 1.415 . S
C2002 H1992 0.930 . S
C2002 C2000 1.419 . S
C2002 C2003 1.362 . S
C2003 H1993 0.930 . S
C2003 C1996 1.409 . S
C2003 C2002 1.362 . S
H2004 C2010 0.930 . S
H2005 C2013 0.930 . S
H2006 C2014 0.930 . S
H2007 C2015 0.930 . S
H2008 C2018 0.930 . S
H2009 C2019 0.930 . S
C2010 H2004 0.930 . S
C2010 C2011 1.355 . S
C2010 C2012 1.415 . S
C2011 C2010 1.355 . S
C2011 C2013 1.419 . S
C2012 C2010 1.415 . S
C2012 C2017 1.425 . S
C2012 C2019 1.409 . S
C2013 H2005 0.930 . S
C2013 C2011 1.419 . S
C2013 C2014 1.362 . S
C2014 H2006 0.930 . S
C2014 C2013 1.362 . S
C2014 C2017 1.409 . S
C2015 H2007 0.930 . S
C2015 C2016 1.355 . S
C2015 C2017 1.415 . S
C2016 C2015 1.355 . S
C2016 C2018 1.419 . S
C2017 C2012 1.425 . S
C2017 C2014 1.409 . S
C2017 C2015 1.415 . S
C2018 H2008 0.930 . S
C2018 C2016 1.419 . S
C2018 C2019 1.362 . S
C2019 H2009 0.930 . S
C2019 C2012 1.409 . S
C2019 C2018 1.362 . S
H2020 C2026 0.930 . S
H2021 C2029 0.930 . S
H2022 C2030 0.930 . S
H2023 C2031 0.930 . S
H2024 C2034 0.930 . S
H2025 C2035 0.930 . S
C2026 H2020 0.930 . S
C2026 C2027 1.355 . S
C2026 C2028 1.415 . S
C2027 C2026 1.355 . S
C2027 C2029 1.419 . S
C2028 C2026 1.415 . S
C2028 C2033 1.425 . S
C2028 C2035 1.409 . S
C2029 H2021 0.930 . S
C2029 C2027 1.419 . S
C2029 C2030 1.362 . S
C2030 H2022 0.930 . S
C2030 C2029 1.362 . S
C2030 C2033 1.409 . S
C2031 H2023 0.930 . S
C2031 C2032 1.355 . S
C2031 C2033 1.415 . S
C2032 C2031 1.355 . S
C2032 C2034 1.419 . S
C2033 C2028 1.425 . S
C2033 C2030 1.409 . S
C2033 C2031 1.415 . S
C2034 H2024 0.930 . S
C2034 C2032 1.419 . S
C2034 C2035 1.362 . S
C2035 H2025 0.930 . S
C2035 C2028 1.409 . S
C2035 C2034 1.362 . S
H2036 C2042 0.930 . S
H2037 C2045 0.930 . S
H2038 C2046 0.930 . S
H2039 C2047 0.930 . S
H2040 C2050 0.930 . S
H2041 C2051 0.930 . S
C2042 H2036 0.930 . S
C2042 C2043 1.355 . S
C2042 C2044 1.415 . S
C2043 C2042 1.355 . S
C2043 C2045 1.419 . S
C2044 C2042 1.415 . S
C2044 C2049 1.425 . S
C2044 C2051 1.409 . S
C2045 H2037 0.930 . S
C2045 C2043 1.419 . S
C2045 C2046 1.362 . S
C2046 H2038 0.930 . S
C2046 C2045 1.362 . S
C2046 C2049 1.409 . S
C2047 H2039 0.930 . S
C2047 C2048 1.355 . S
C2047 C2049 1.415 . S
C2048 C2047 1.355 . S
C2048 C2050 1.419 . S
C2049 C2044 1.425 . S
C2049 C2046 1.409 . S
C2049 C2047 1.415 . S
C2050 H2040 0.930 . S
C2050 C2048 1.419 . S
C2050 C2051 1.362 . S
C2051 H2041 0.930 . S
C2051 C2044 1.409 . S
C2051 C2050 1.362 . S
H2052 C2058 0.930 . S
H2053 C2061 0.930 . S
H2054 C2062 0.930 . S
H2055 C2063 0.930 . S
H2056 C2066 0.930 . S
H2057 C2067 0.930 . S
C2058 H2052 0.930 . S
C2058 C2059 1.355 . S
C2058 C2060 1.415 . S
C2059 C2058 1.355 . S
C2059 C2061 1.419 . S
C2060 C2058 1.415 . S
C2060 C2065 1.425 . S
C2060 C2067 1.409 . S
C2061 H2053 0.930 . S
C2061 C2059 1.419 . S
C2061 C2062 1.362 . S
C2062 H2054 0.930 . S
C2062 C2061 1.362 . S
C2062 C2065 1.409 . S
C2063 H2055 0.930 . S
C2063 C2064 1.355 . S
C2063 C2065 1.415 . S
C2064 C2063 1.355 . S
C2064 C2066 1.419 . S
C2065 C2060 1.425 . S
C2065 C2062 1.409 . S
C2065 C2063 1.415 . S
C2066 H2056 0.930 . S
C2066 C2064 1.419 . S
C2066 C2067 1.362 . S
C2067 H2057 0.930 . S
C2067 C2060 1.409 . S
C2067 C2066 1.362 . S
H2068 C2074 0.930 . S
H2069 C2077 0.930 . S
H2070 C2078 0.930 . S
H2071 C2079 0.930 . S
H2072 C2082 0.930 . S
H2073 C2083 0.930 . S
C2074 H2068 0.930 . S
C2074 C2075 1.355 . S
C2074 C2076 1.415 . S
C2075 C2074 1.355 . S
C2075 C2077 1.419 . S
C2076 C2074 1.415 . S
C2076 C2081 1.425 . S
C2076 C2083 1.409 . S
C2077 H2069 0.930 . S
C2077 C2075 1.419 . S
C2077 C2078 1.362 . S
C2078 H2070 0.930 . S
C2078 C2077 1.362 . S
C2078 C2081 1.409 . S
C2079 H2071 0.930 . S
C2079 C2080 1.355 . S
C2079 C2081 1.415 . S
C2080 C2079 1.355 . S
C2080 C2082 1.419 . S
C2081 C2076 1.425 . S
C2081 C2078 1.409 . S
C2081 C2079 1.415 . S
C2082 H2072 0.930 . S
C2082 C2080 1.419 . S
C2082 C2083 1.362 . S
C2083 H2073 0.930 . S
C2083 C2076 1.409 . S
C2083 C2082 1.362 . S
H2084 C2090 0.930 . S
H2085 C2093 0.930 . S
H2086 C2094 0.930 . S
H2087 C2095 0.930 . S
H2088 C2098 0.930 . S
H2089 C2099 0.930 . S
C2090 H2084 0.930 . S
C2090 C2091 1.355 . S
C2090 C2092 1.415 . S
C2091 C2090 1.355 . S
C2091 C2093 1.419 . S
C2092 C2090 1.415 . S
C2092 C2097 1.425 . S
C2092 C2099 1.409 . S
C2093 H2085 0.930 . S
C2093 C2091 1.419 . S
C2093 C2094 1.362 . S
C2094 H2086 0.930 . S
C2094 C2093 1.362 . S
C2094 C2097 1.409 . S
C2095 H2087 0.930 . S
C2095 C2096 1.355 . S
C2095 C2097 1.415 . S
C2096 C2095 1.355 . S
C2096 C2098 1.419 . S
C2097 C2092 1.425 . S
C2097 C2094 1.409 . S
C2097 C2095 1.415 . S
C2098 H2088 0.930 . S
C2098 C2096 1.419 . S
C2098 C2099 1.362 . S
C2099 H2089 0.930 . S
C2099 C2092 1.409 . S
C2099 C2098 1.362 . S
H2100 C2106 0.895 1_554 S
H2101 C2109 0.930 . S
H2102 C2110 0.930 . S
H2103 C2111 0.930 . S
H2104 C2114 0.930 . S
H2105 C2115 0.930 . S
C2106 H2100 0.895 1_556 S
C2106 C2107 1.355 . S
C2106 C2108 1.415 . S
C2107 C2106 1.355 . S
C2107 C2109 1.419 . S
C2108 C2106 1.415 . S
C2108 C2113 1.425 . S
C2108 C2115 1.409 . S
C2109 H2101 0.930 . S
C2109 C2107 1.419 . S
C2109 C2110 1.362 . S
C2110 H2102 0.930 . S
C2110 C2109 1.362 . S
C2110 C2113 1.409 . S
C2111 H2103 0.930 . S
C2111 C2112 1.355 . S
C2111 C2113 1.415 . S
C2112 C2111 1.355 . S
C2112 C2114 1.419 . S
C2113 C2108 1.425 . S
C2113 C2110 1.409 . S
C2113 C2111 1.415 . S
C2114 H2104 0.930 . S
C2114 C2112 1.419 . S
C2114 C2115 1.362 . S
C2115 H2105 0.930 . S
C2115 C2108 1.409 . S
C2115 C2114 1.362 . S
H2116 C2122 0.930 . S
H2117 C2125 0.930 . S
H2118 C2126 0.930 . S
H2119 C2127 0.930 . S
H2120 C2130 0.930 . S
H2121 C2131 0.930 . S
C2122 H2116 0.930 . S
C2122 C2123 1.355 . S
C2122 C2124 1.415 . S
C2123 C2122 1.355 . S
C2123 C2125 1.419 . S
C2124 C2122 1.415 . S
C2124 C2129 1.425 . S
C2124 C2131 1.409 . S
C2125 H2117 0.930 . S
C2125 C2123 1.419 . S
C2125 C2126 1.362 . S
C2126 H2118 0.930 . S
C2126 C2125 1.362 . S
C2126 C2129 1.409 . S
C2127 H2119 0.930 . S
C2127 C2128 1.355 . S
C2127 C2129 1.415 . S
C2128 C2127 1.355 . S
C2128 C2130 1.419 . S
C2129 C2124 1.425 . S
C2129 C2126 1.409 . S
C2129 C2127 1.415 . S
C2130 H2120 0.930 . S
C2130 C2128 1.419 . S
C2130 C2131 1.362 . S
C2131 H2121 0.930 . S
C2131 C2124 1.409 . S
C2131 C2130 1.362 . S
H2132 C2138 0.930 . S
H2133 C2141 0.930 . S
H2134 C2142 0.930 . S
H2135 C2143 0.930 . S
H2136 C2146 0.930 . S
H2137 C2147 0.930 . S
C2138 H2132 0.930 . S
C2138 C2139 1.355 . S
C2138 C2140 1.415 . S
C2139 C2138 1.355 . S
C2139 C2141 1.419 . S
C2140 C2138 1.415 . S
C2140 C2145 1.425 . S
C2140 C2147 1.409 . S
C2141 H2133 0.930 . S
C2141 C2139 1.419 . S
C2141 C2142 1.362 . S
C2142 H2134 0.930 . S
C2142 C2141 1.362 . S
C2142 C2145 1.409 . S
C2143 H2135 0.930 . S
C2143 C2144 1.355 . S
C2143 C2145 1.415 . S
C2144 C2143 1.355 . S
C2144 C2146 1.419 . S
C2145 C2140 1.425 . S
C2145 C2142 1.409 . S
C2145 C2143 1.415 . S
C2146 H2136 0.930 . S
C2146 C2144 1.419 . S
C2146 C2147 1.362 . S
C2147 H2137 0.930 . S
C2147 C2140 1.409 . S
C2147 C2146 1.362 . S
H2148 C2154 0.930 . S
H2149 C2157 0.930 . S
H2150 C2158 0.930 . S
H2151 C2159 0.930 . S
H2152 C2162 0.930 . S
H2153 C2163 0.930 . S
C2154 H2148 0.930 . S
C2154 C2155 1.355 . S
C2154 C2156 1.415 . S
C2155 C2154 1.355 . S
C2155 C2157 1.419 . S
C2156 C2154 1.415 . S
C2156 C2161 1.425 . S
C2156 C2163 1.409 . S
C2157 H2149 0.930 . S
C2157 C2155 1.419 . S
C2157 C2158 1.362 . S
C2158 H2150 0.930 . S
C2158 C2157 1.362 . S
C2158 C2161 1.409 . S
C2159 H2151 0.930 . S
C2159 C2160 1.355 . S
C2159 C2161 1.415 . S
C2160 C2159 1.355 . S
C2160 C2162 1.419 . S
C2161 C2156 1.425 . S
C2161 C2158 1.409 . S
C2161 C2159 1.415 . S
C2162 H2152 0.930 . S
C2162 C2160 1.419 . S
C2162 C2163 1.362 . S
C2163 H2153 0.930 . S
C2163 C2156 1.409 . S
C2163 C2162 1.362 . S
H2164 C2170 0.930 . S
H2165 C2173 0.930 . S
H2166 C2174 0.930 . S
H2167 C2175 0.930 . S
H2168 C2178 0.930 . S
H2169 C2179 0.930 . S
C2170 H2164 0.930 . S
C2170 C2171 1.355 . S
C2170 C2172 1.415 . S
C2171 C2170 1.355 . S
C2171 C2173 1.419 . S
C2172 C2170 1.415 . S
C2172 C2177 1.425 . S
C2172 C2179 1.409 . S
C2173 H2165 0.930 . S
C2173 C2171 1.419 . S
C2173 C2174 1.362 . S
C2174 H2166 0.930 . S
C2174 C2173 1.362 . S
C2174 C2177 1.409 . S
C2175 H2167 0.930 . S
C2175 C2176 1.355 . S
C2175 C2177 1.415 . S
C2176 C2175 1.355 . S
C2176 C2178 1.419 . S
C2177 C2172 1.425 . S
C2177 C2174 1.409 . S
C2177 C2175 1.415 . S
C2178 H2168 0.930 . S
C2178 C2176 1.419 . S
C2178 C2179 1.362 . S
C2179 H2169 0.930 . S
C2179 C2172 1.409 . S
C2179 C2178 1.362 . S
H2180 C2186 0.930 . S
H2181 C2189 0.930 . S
H2182 C2190 0.930 . S
H2183 C2191 0.930 . S
H2184 C2194 0.930 . S
H2185 C2195 0.930 . S
C2186 H2180 0.930 . S
C2186 C2187 1.355 . S
C2186 C2188 1.415 . S
C2187 C2186 1.355 . S
C2187 C2189 1.419 . S
C2188 C2186 1.415 . S
C2188 C2193 1.425 . S
C2188 C2195 1.409 . S
C2189 H2181 0.930 . S
C2189 C2187 1.419 . S
C2189 C2190 1.362 . S
C2190 H2182 0.930 . S
C2190 C2189 1.362 . S
C2190 C2193 1.409 . S
C2191 H2183 0.930 . S
C2191 C2192 1.355 . S
C2191 C2193 1.415 . S
C2192 C2191 1.355 . S
C2192 C2194 1.419 . S
C2193 C2188 1.425 . S
C2193 C2190 1.409 . S
C2193 C2191 1.415 . S
C2194 H2184 0.930 . S
C2194 C2192 1.419 . S
C2194 C2195 1.362 . S
C2195 H2185 0.930 . S
C2195 C2188 1.409 . S
C2195 C2194 1.362 . S
H2196 C2202 0.930 . S
H2197 C2205 0.930 . S
H2198 C2206 0.930 . S
H2199 C2207 0.930 . S
H2200 C2210 0.930 . S
H2201 C2211 0.930 . S
C2202 H2196 0.930 . S
C2202 C2203 1.355 . S
C2202 C2204 1.415 . S
C2203 C2202 1.355 . S
C2203 C2205 1.419 . S
C2204 C2202 1.415 . S
C2204 C2209 1.425 . S
C2204 C2211 1.409 . S
C2205 H2197 0.930 . S
C2205 C2203 1.419 . S
C2205 C2206 1.362 . S
C2206 H2198 0.930 . S
C2206 C2205 1.362 . S
C2206 C2209 1.409 . S
C2207 H2199 0.930 . S
C2207 C2208 1.355 . S
C2207 C2209 1.415 . S
C2208 C2207 1.355 . S
C2208 C2210 1.419 . S
C2209 C2204 1.425 . S
C2209 C2206 1.409 . S
C2209 C2207 1.415 . S
C2210 H2200 0.930 . S
C2210 C2208 1.419 . S
C2210 C2211 1.362 . S
C2211 H2201 0.930 . S
C2211 C2204 1.409 . S
C2211 C2210 1.362 . S
H2212 C2218 0.930 . S
H2213 C2221 0.930 . S
H2214 C2222 0.930 . S
H2215 C2223 0.930 . S
H2216 C2226 0.930 . S
H2217 C2227 0.930 . S
C2218 H2212 0.930 . S
C2218 C2219 1.355 . S
C2218 C2220 1.415 . S
C2219 C2218 1.355 . S
C2219 C2221 1.419 . S
C2220 C2218 1.415 . S
C2220 C2225 1.425 . S
C2220 C2227 1.409 . S
C2221 H2213 0.930 . S
C2221 C2219 1.419 . S
C2221 C2222 1.362 . S
C2222 H2214 0.930 . S
C2222 C2221 1.362 . S
C2222 C2225 1.409 . S
C2223 H2215 0.930 . S
C2223 C2224 1.355 . S
C2223 C2225 1.415 . S
C2224 C2223 1.355 . S
C2224 C2226 1.419 . S
C2225 C2220 1.425 . S
C2225 C2222 1.409 . S
C2225 C2223 1.415 . S
C2226 H2216 0.930 . S
C2226 C2224 1.419 . S
C2226 C2227 1.362 . S
C2227 H2217 0.930 . S
C2227 C2220 1.409 . S
C2227 C2226 1.362 . S
H2228 C2234 0.930 . S
H2229 C2237 0.930 . S
H2230 C2238 0.930 . S
H2231 C2239 0.930 . S
H2232 C2242 0.930 . S
H2233 C2243 0.930 . S
C2234 H2228 0.930 . S
C2234 C2235 1.355 . S
C2234 C2236 1.415 . S
C2235 C2234 1.355 . S
C2235 C2237 1.419 . S
C2236 C2234 1.415 . S
C2236 C2241 1.425 . S
C2236 C2243 1.409 . S
C2237 H2229 0.930 . S
C2237 C2235 1.419 . S
C2237 C2238 1.362 . S
C2238 H2230 0.930 . S
C2238 C2237 1.362 . S
C2238 C2241 1.409 . S
C2239 H2231 0.930 . S
C2239 C2240 1.355 . S
C2239 C2241 1.415 . S
C2240 C2239 1.355 . S
C2240 C2242 1.419 . S
C2241 C2236 1.425 . S
C2241 C2238 1.409 . S
C2241 C2239 1.415 . S
C2242 H2232 0.930 . S
C2242 C2240 1.419 . S
C2242 C2243 1.362 . S
C2243 H2233 0.930 . S
C2243 C2236 1.409 . S
C2243 C2242 1.362 . S
H2244 C2250 0.930 . S
H2245 C2253 0.930 . S
H2246 C2254 0.930 . S
H2247 C2255 0.930 . S
H2248 C2258 0.930 . S
H2249 C2259 0.930 . S
C2250 H2244 0.930 . S
C2250 C2251 1.355 . S
C2250 C2252 1.415 . S
C2251 C2250 1.355 . S
C2251 C2253 1.419 . S
C2252 C2250 1.415 . S
C2252 C2257 1.425 . S
C2252 C2259 1.409 . S
C2253 H2245 0.930 . S
C2253 C2251 1.419 . S
C2253 C2254 1.362 . S
C2254 H2246 0.930 . S
C2254 C2253 1.362 . S
C2254 C2257 1.409 . S
C2255 H2247 0.930 . S
C2255 C2256 1.355 . S
C2255 C2257 1.415 . S
C2256 C2255 1.355 . S
C2256 C2258 1.419 . S
C2257 C2252 1.425 . S
C2257 C2254 1.409 . S
C2257 C2255 1.415 . S
C2258 H2248 0.930 . S
C2258 C2256 1.419 . S
C2258 C2259 1.362 . S
C2259 H2249 0.930 . S
C2259 C2252 1.409 . S
C2259 C2258 1.362 . S
H2260 C2266 0.930 . S
H2261 C2269 0.930 . S
H2262 C2270 0.930 . S
H2263 C2271 0.930 . S
H2264 C2274 0.930 . S
H2265 C2275 0.930 . S
C2266 H2260 0.930 . S
C2266 C2267 1.355 . S
C2266 C2268 1.415 . S
C2267 C2266 1.355 . S
C2267 C2269 1.419 . S
C2268 C2266 1.415 . S
C2268 C2273 1.425 . S
C2268 C2275 1.409 . S
C2269 H2261 0.930 . S
C2269 C2267 1.419 . S
C2269 C2270 1.362 . S
C2270 H2262 0.930 . S
C2270 C2269 1.362 . S
C2270 C2273 1.409 . S
C2271 H2263 0.930 . S
C2271 C2272 1.355 . S
C2271 C2273 1.415 . S
C2272 C2271 1.355 . S
C2272 C2274 1.419 . S
C2273 C2268 1.425 . S
C2273 C2270 1.409 . S
C2273 C2271 1.415 . S
C2274 H2264 0.930 . S
C2274 C2272 1.419 . S
C2274 C2275 1.362 . S
C2275 H2265 0.930 . S
C2275 C2268 1.409 . S
C2275 C2274 1.362 . S
H2276 C2282 0.930 . S
H2277 C2285 0.930 . S
H2278 C2286 0.930 . S
H2279 C2287 0.930 . S
H2280 C2290 0.930 . S
H2281 C2291 0.930 . S
C2282 H2276 0.930 . S
C2282 C2283 1.355 . S
C2282 C2284 1.415 . S
C2283 C2282 1.355 . S
C2283 C2285 1.419 . S
C2284 C2282 1.415 . S
C2284 C2289 1.425 . S
C2284 C2291 1.409 . S
C2285 H2277 0.930 . S
C2285 C2283 1.419 . S
C2285 C2286 1.362 . S
C2286 H2278 0.930 . S
C2286 C2285 1.362 . S
C2286 C2289 1.409 . S
C2287 H2279 0.930 . S
C2287 C2288 1.355 . S
C2287 C2289 1.415 . S
C2288 C2287 1.355 . S
C2288 C2290 1.419 . S
C2289 C2284 1.425 . S
C2289 C2286 1.409 . S
C2289 C2287 1.415 . S
C2290 H2280 0.930 . S
C2290 C2288 1.419 . S
C2290 C2291 1.362 . S
C2291 H2281 0.930 . S
C2291 C2284 1.409 . S
C2291 C2290 1.362 . S
H2292 C2298 0.930 . S
H2293 C2301 0.930 . S
H2294 C2302 0.930 . S
H2295 C2303 0.930 . S
H2296 C2306 0.930 . S
H2297 C2307 0.930 . S
C2298 H2292 0.930 . S
C2298 C2299 1.355 . S
C2298 C2300 1.415 . S
C2299 C2298 1.355 . S
C2299 C2301 1.419 1_455 S
C2300 C2298 1.415 . S
C2300 C2305 1.429 . S
C2300 C2307 1.409 . S
C2301 H2293 0.930 . S
C2301 C2299 1.419 1_655 S
C2301 C2302 1.362 . S
C2302 H2294 0.930 . S
C2302 C2301 1.362 . S
C2302 C2305 1.409 1_655 S
C2303 H2295 0.930 . S
C2303 C2304 1.355 1_655 S
C2303 C2305 1.412 1_655 S
C2304 C2303 1.355 1_455 S
C2304 C2306 1.419 . S
C2305 C2300 1.429 . S
C2305 C2302 1.409 1_455 S
C2305 C2303 1.412 1_455 S
C2306 H2296 0.930 . S
C2306 C2304 1.419 . S
C2306 C2307 1.362 . S
C2307 H2297 0.930 . S
C2307 C2300 1.409 . S
C2307 C2306 1.362 . S
H2308 C2314 0.930 . S
H2309 C2317 0.930 . S
H2310 C2318 0.930 . S
H2311 C2319 0.930 . S
H2312 C2322 0.930 . S
H2313 C2323 0.930 . S
C2314 H2308 0.930 . S
C2314 C2315 1.355 . S
C2314 C2316 1.415 . S
C2315 C2314 1.355 . S
C2315 C2317 1.419 . S
C2316 C2314 1.415 . S
C2316 C2321 1.425 . S
C2316 C2323 1.409 . S
C2317 H2309 0.930 . S
C2317 C2315 1.419 . S
C2317 C2318 1.362 . S
C2318 H2310 0.930 . S
C2318 C2317 1.362 . S
C2318 C2321 1.409 . S
C2319 H2311 0.930 . S
C2319 C2320 1.355 . S
C2319 C2321 1.415 . S
C2320 C2319 1.355 . S
C2320 C2322 1.419 . S
C2321 C2316 1.425 . S
C2321 C2318 1.409 . S
C2321 C2319 1.415 . S
C2322 H2312 0.930 . S
C2322 C2320 1.419 . S
C2322 C2323 1.362 . S
C2323 H2313 0.930 . S
C2323 C2316 1.409 . S
C2323 C2322 1.362 . S
H2324 C2330 0.930 . S
H2325 C2333 0.930 . S
H2326 C2334 0.930 . S
H2327 C2335 0.930 . S
H2328 C2338 0.930 . S
H2329 C2339 0.930 . S
C2330 H2324 0.930 . S
C2330 C2331 1.355 . S
C2330 C2332 1.415 . S
C2331 C2330 1.355 . S
C2331 C2333 1.419 . S
C2332 C2330 1.415 . S
C2332 C2337 1.425 . S
C2332 C2339 1.409 1_565 S
C2333 H2325 0.930 . S
C2333 C2331 1.419 . S
C2333 C2334 1.362 . S
C2334 H2326 0.930 . S
C2334 C2333 1.362 . S
C2334 C2337 1.409 . S
C2335 H2327 0.930 . S
C2335 C2336 1.355 . S
C2335 C2337 1.415 . S
C2336 C2335 1.355 . S
C2336 C2338 1.419 1_565 S
C2337 C2332 1.425 . S
C2337 C2334 1.409 . S
C2337 C2335 1.415 . S
C2338 H2328 0.930 . S
C2338 C2336 1.419 1_545 S
C2338 C2339 1.362 . S
C2339 H2329 0.930 . S
C2339 C2332 1.409 1_545 S
C2339 C2338 1.362 . S
H2340 C2346 0.930 . S
H2341 C2349 0.930 . S
H2342 C2350 0.930 . S
H2343 C2351 0.930 . S
H2344 C2354 0.930 . S
H2345 C2355 0.930 . S
C2346 H2340 0.930 . S
C2346 C2347 1.355 . S
C2346 C2348 1.415 . S
C2347 C2346 1.355 . S
C2347 C2349 1.419 1_565 S
C2348 C2346 1.415 . S
C2348 C2353 1.436 . S
C2348 C2355 1.409 . S
C2349 H2341 0.930 . S
C2349 C2347 1.419 1_545 S
C2349 C2350 1.362 . S
C2350 H2342 0.930 . S
C2350 C2349 1.362 . S
C2350 C2353 1.412 1_545 S
C2351 H2343 0.930 . S
C2351 C2352 1.355 1_545 S
C2351 C2353 1.401 1_545 S
C2352 C2351 1.355 1_565 S
C2352 C2354 1.419 . S
C2353 C2348 1.436 . S
C2353 C2350 1.412 1_565 S
C2353 C2351 1.401 1_565 S
C2354 H2344 0.930 . S
C2354 C2352 1.419 . S
C2354 C2355 1.362 . S
C2355 H2345 0.930 . S
C2355 C2348 1.409 . S
C2355 C2354 1.362 . S
H2356 C2362 0.930 . S
H2357 C2365 0.930 . S
H2358 C2366 0.930 . S
H2359 C2367 0.930 . S
H2360 C2370 0.951 1_655 S
H2361 C2371 0.932 . S
C2362 H2356 0.930 . S
C2362 C2363 1.355 . S
C2362 C2364 1.415 . S
C2363 C2362 1.355 . S
C2363 C2365 1.419 . S
C2364 C2362 1.415 . S
C2364 C2369 1.425 . S
C2364 C2371 1.409 . S
C2365 H2357 0.930 . S
C2365 C2363 1.419 . S
C2365 C2366 1.362 . S
C2366 H2358 0.930 . S
C2366 C2365 1.362 . S
C2366 C2369 1.409 . S
C2367 H2359 0.930 . S
C2367 C2368 1.355 . S
C2367 C2369 1.415 . S
C2368 C2367 1.355 . S
C2368 C2370 1.422 . S
C2369 C2364 1.425 . S
C2369 C2366 1.409 . S
C2369 C2367 1.415 . S
C2370 H2360 0.951 1_455 S
C2370 C2368 1.422 . S
C2370 C2371 1.343 . S
C2371 H2361 0.932 . S
C2371 C2364 1.409 . S
C2371 C2370 1.343 . S
H2372 C2378 0.930 . S
H2373 C2381 0.930 . S
H2374 C2382 0.930 . S
H2375 C2383 0.930 . S
H2376 C2386 0.930 . S
H2377 C2387 0.930 . S
C2378 H2372 0.930 . S
C2378 C2379 1.355 . S
C2378 C2380 1.415 . S
C2379 C2378 1.355 . S
C2379 C2381 1.419 . S
C2380 C2378 1.415 . S
C2380 C2385 1.425 . S
C2380 C2387 1.409 . S
C2381 H2373 0.930 . S
C2381 C2379 1.419 . S
C2381 C2382 1.362 . S
C2382 H2374 0.930 . S
C2382 C2381 1.362 . S
C2382 C2385 1.409 . S
C2383 H2375 0.930 . S
C2383 C2384 1.355 . S
C2383 C2385 1.415 . S
C2384 C2383 1.355 . S
C2384 C2386 1.419 . S
C2385 C2380 1.425 . S
C2385 C2382 1.409 . S
C2385 C2383 1.415 . S
C2386 H2376 0.930 . S
C2386 C2384 1.419 . S
C2386 C2387 1.362 . S
C2387 H2377 0.930 . S
C2387 C2380 1.409 . S
C2387 C2386 1.362 . S
H2388 C2394 0.930 . S
H2389 C2397 0.930 . S
H2390 C2398 0.930 . S
H2391 C2399 0.930 . S
H2392 C2402 0.930 . S
H2393 C2403 0.930 . S
C2394 H2388 0.930 . S
C2394 C2395 1.355 . S
C2394 C2396 1.415 . S
C2395 C2394 1.355 . S
C2395 C2397 1.419 . S
C2396 C2394 1.415 . S
C2396 C2401 1.425 . S
C2396 C2403 1.409 . S
C2397 H2389 0.930 . S
C2397 C2395 1.419 . S
C2397 C2398 1.362 . S
C2398 H2390 0.930 . S
C2398 C2397 1.362 . S
C2398 C2401 1.409 . S
C2399 H2391 0.930 . S
C2399 C2400 1.355 . S
C2399 C2401 1.415 . S
C2400 C2399 1.355 . S
C2400 C2402 1.419 . S
C2401 C2396 1.425 . S
C2401 C2398 1.409 . S
C2401 C2399 1.415 . S
C2402 H2392 0.930 . S
C2402 C2400 1.419 . S
C2402 C2403 1.362 . S
C2403 H2393 0.930 . S
C2403 C2396 1.409 . S
C2403 C2402 1.362 . S
H2404 C2410 0.930 . S
H2405 C2413 0.930 . S
H2406 C2414 0.930 . S
H2407 C2415 0.930 . S
H2408 C2418 0.930 . S
H2409 C2419 0.930 . S
C2410 H2404 0.930 . S
C2410 C2411 1.355 . S
C2410 C2412 1.415 . S
C2411 C2410 1.355 . S
C2411 C2413 1.419 . S
C2412 C2410 1.415 . S
C2412 C2417 1.425 . S
C2412 C2419 1.409 . S
C2413 H2405 0.930 . S
C2413 C2411 1.419 . S
C2413 C2414 1.362 . S
C2414 H2406 0.930 . S
C2414 C2413 1.362 . S
C2414 C2417 1.409 . S
C2415 H2407 0.930 . S
C2415 C2416 1.355 . S
C2415 C2417 1.415 . S
C2416 C2415 1.355 . S
C2416 C2418 1.419 . S
C2417 C2412 1.425 . S
C2417 C2414 1.409 . S
C2417 C2415 1.415 . S
C2418 H2408 0.930 . S
C2418 C2416 1.419 . S
C2418 C2419 1.362 . S
C2419 H2409 0.930 . S
C2419 C2412 1.409 . S
C2419 C2418 1.362 . S
H2420 C2426 0.930 . S
H2421 C2429 0.930 . S
H2422 C2430 0.930 . S
H2423 C2431 0.930 . S
H2424 C2434 0.930 . S
H2425 C2435 0.930 . S
C2426 H2420 0.930 . S
C2426 C2427 1.355 . S
C2426 C2428 1.415 . S
C2427 C2426 1.355 . S
C2427 C2429 1.419 . S
C2428 C2426 1.415 . S
C2428 C2433 1.425 . S
C2428 C2435 1.409 . S
C2429 H2421 0.930 . S
C2429 C2427 1.419 . S
C2429 C2430 1.362 . S
C2430 H2422 0.930 . S
C2430 C2429 1.362 . S
C2430 C2433 1.409 . S
C2431 H2423 0.930 . S
C2431 C2432 1.355 . S
C2431 C2433 1.415 . S
C2432 C2431 1.355 . S
C2432 C2434 1.419 . S
C2433 C2428 1.425 . S
C2433 C2430 1.409 . S
C2433 C2431 1.415 . S
C2434 H2424 0.930 . S
C2434 C2432 1.419 . S
C2434 C2435 1.362 . S
C2435 H2425 0.930 . S
C2435 C2428 1.409 . S
C2435 C2434 1.362 . S
H2436 C2442 0.930 . S
H2437 C2445 0.930 . S
H2438 C2446 0.930 . S
H2439 C2447 0.930 . S
H2440 C2450 0.930 . S
H2441 C2451 0.930 . S
C2442 H2436 0.930 . S
C2442 C2443 1.355 1_565 S
C2442 C2444 1.413 . S
C2443 C2442 1.355 1_545 S
C2443 C2445 1.419 . S
C2444 C2442 1.413 . S
C2444 C2449 1.422 1_565 S
C2444 C2451 1.415 . S
C2445 H2437 0.930 . S
C2445 C2443 1.419 . S
C2445 C2446 1.362 . S
C2446 H2438 0.930 . S
C2446 C2445 1.362 . S
C2446 C2449 1.409 . S
C2447 H2439 0.930 . S
C2447 C2448 1.355 . S
C2447 C2449 1.415 . S
C2448 C2447 1.355 . S
C2448 C2450 1.419 1_545 S
C2449 C2444 1.422 1_545 S
C2449 C2446 1.409 . S
C2449 C2447 1.415 . S
C2450 H2440 0.930 . S
C2450 C2448 1.419 1_565 S
C2450 C2451 1.362 . S
C2451 H2441 0.930 . S
C2451 C2444 1.415 . S
C2451 C2450 1.362 . S
H2452 C2458 0.888 1_455 S
H2453 C2461 0.930 . S
H2454 C2462 0.930 . S
H2455 C2463 0.930 . S
H2456 C2466 0.930 . S
H2457 C2467 0.930 . S
C2458 H2452 0.888 1_655 S
C2458 C2459 1.374 . S
C2458 C2460 1.405 . S
C2459 C2458 1.374 . S
C2459 C2461 1.419 . S
C2460 C2458 1.405 . S
C2460 C2465 1.487 . S
C2460 C2467 1.385 1_655 S
C2461 H2453 0.930 . S
C2461 C2459 1.419 . S
C2461 C2462 1.362 . S
C2462 H2454 0.930 . S
C2462 C2461 1.362 . S
C2462 C2465 1.409 . S
C2463 H2455 0.930 . S
C2463 C2464 1.355 . S
C2463 C2465 1.415 . S
C2464 C2463 1.355 . S
C2464 C2466 1.419 1_655 S
C2465 C2460 1.487 . S
C2465 C2462 1.409 . S
C2465 C2463 1.415 . S
C2466 H2456 0.930 . S
C2466 C2464 1.419 1_455 S
C2466 C2467 1.362 . S
C2467 H2457 0.930 . S
C2467 C2460 1.385 1_455 S
C2467 C2466 1.362 . S
H2468 C2474 0.930 . S
H2469 C2477 0.930 . S
H2470 C2478 0.930 . S
H2471 C2479 0.930 . S
H2472 C2482 0.930 . S
H2473 C2483 0.930 . S
C2474 H2468 0.930 . S
C2474 C2475 1.355 . S
C2474 C2476 1.415 . S
C2475 C2474 1.355 . S
C2475 C2477 1.419 . S
C2476 C2474 1.415 . S
C2476 C2481 1.425 . S
C2476 C2483 1.409 . S
C2477 H2469 0.930 . S
C2477 C2475 1.419 . S
C2477 C2478 1.362 . S
C2478 H2470 0.930 . S
C2478 C2477 1.362 . S
C2478 C2481 1.409 . S
C2479 H2471 0.930 . S
C2479 C2480 1.355 . S
C2479 C2481 1.415 . S
C2480 C2479 1.355 . S
C2480 C2482 1.419 . S
C2481 C2476 1.425 . S
C2481 C2478 1.409 . S
C2481 C2479 1.415 . S
C2482 H2472 0.930 . S
C2482 C2480 1.419 . S
C2482 C2483 1.362 . S
C2483 H2473 0.930 . S
C2483 C2476 1.409 . S
C2483 C2482 1.362 . S
H2484 C2490 0.930 . S
H2485 C2493 0.930 . S
H2486 C2494 0.930 . S
H2487 C2495 0.930 . S
H2488 C2498 0.930 . S
H2489 C2499 0.930 . S
C2490 H2484 0.930 . S
C2490 C2491 1.355 . S
C2490 C2492 1.415 . S
C2491 C2490 1.355 . S
C2491 C2493 1.419 . S
C2492 C2490 1.415 . S
C2492 C2497 1.425 . S
C2492 C2499 1.409 . S
C2493 H2485 0.930 . S
C2493 C2491 1.419 . S
C2493 C2494 1.362 . S
C2494 H2486 0.930 . S
C2494 C2493 1.362 . S
C2494 C2497 1.409 . S
C2495 H2487 0.930 . S
C2495 C2496 1.355 . S
C2495 C2497 1.415 . S
C2496 C2495 1.355 . S
C2496 C2498 1.419 . S
C2497 C2492 1.425 . S
C2497 C2494 1.409 . S
C2497 C2495 1.415 . S
C2498 H2488 0.930 . S
C2498 C2496 1.419 . S
C2498 C2499 1.362 . S
C2499 H2489 0.930 . S
C2499 C2492 1.409 . S
C2499 C2498 1.362 . S
H2500 C2506 0.930 . S
H2501 C2509 0.930 . S
H2502 C2510 0.930 . S
H2503 C2511 0.930 . S
H2504 C2514 0.930 . S
H2505 C2515 0.930 . S
C2506 H2500 0.930 . S
C2506 C2507 1.355 . S
C2506 C2508 1.415 . S
C2507 C2506 1.355 . S
C2507 C2509 1.419 . S
C2508 C2506 1.415 . S
C2508 C2513 1.425 . S
C2508 C2515 1.409 . S
C2509 H2501 0.930 . S
C2509 C2507 1.419 . S
C2509 C2510 1.362 . S
C2510 H2502 0.930 . S
C2510 C2509 1.362 . S
C2510 C2513 1.409 . S
C2511 H2503 0.930 . S
C2511 C2512 1.355 . S
C2511 C2513 1.415 . S
C2512 C2511 1.355 . S
C2512 C2514 1.419 . S
C2513 C2508 1.425 . S
C2513 C2510 1.409 . S
C2513 C2511 1.415 . S
C2514 H2504 0.930 . S
C2514 C2512 1.419 . S
C2514 C2515 1.362 . S
C2515 H2505 0.930 . S
C2515 C2508 1.409 . S
C2515 C2514 1.362 . S
H2516 C2522 0.930 . S
H2517 C2525 0.930 . S
H2518 C2526 0.930 . S
H2519 C2527 0.930 . S
H2520 C2530 0.930 . S
H2521 C2531 0.930 . S
C2522 H2516 0.930 . S
C2522 C2523 1.355 . S
C2522 C2524 1.415 . S
C2523 C2522 1.355 . S
C2523 C2525 1.419 . S
C2524 C2522 1.415 . S
C2524 C2529 1.425 . S
C2524 C2531 1.409 . S
C2525 H2517 0.930 . S
C2525 C2523 1.419 . S
C2525 C2526 1.362 . S
C2526 H2518 0.930 . S
C2526 C2525 1.362 . S
C2526 C2529 1.409 . S
C2527 H2519 0.930 . S
C2527 C2528 1.355 . S
C2527 C2529 1.415 . S
C2528 C2527 1.355 . S
C2528 C2530 1.419 . S
C2529 C2524 1.425 . S
C2529 C2526 1.409 . S
C2529 C2527 1.415 . S
C2530 H2520 0.930 . S
C2530 C2528 1.419 . S
C2530 C2531 1.362 . S
C2531 H2521 0.930 . S
C2531 C2524 1.409 . S
C2531 C2530 1.362 . S
H2532 C2538 0.930 . S
H2533 C2541 0.930 . S
H2534 C2542 0.930 . S
H2535 C2543 0.930 . S
H2536 C2546 0.930 . S
H2537 C2547 0.930 . S
C2538 H2532 0.930 . S
C2538 C2539 1.355 . S
C2538 C2540 1.415 . S
C2539 C2538 1.355 . S
C2539 C2541 1.419 . S
C2540 C2538 1.415 . S
C2540 C2545 1.425 . S
C2540 C2547 1.409 . S
C2541 H2533 0.930 . S
C2541 C2539 1.419 . S
C2541 C2542 1.362 . S
C2542 H2534 0.930 . S
C2542 C2541 1.362 . S
C2542 C2545 1.409 . S
C2543 H2535 0.930 . S
C2543 C2544 1.355 . S
C2543 C2545 1.415 . S
C2544 C2543 1.355 . S
C2544 C2546 1.419 . S
C2545 C2540 1.425 . S
C2545 C2542 1.409 . S
C2545 C2543 1.415 . S
C2546 H2536 0.930 . S
C2546 C2544 1.419 . S
C2546 C2547 1.362 . S
C2547 H2537 0.930 . S
C2547 C2540 1.409 . S
C2547 C2546 1.362 . S
H2548 C2554 0.930 . S
H2549 C2557 0.930 . S
H2550 C2558 0.930 . S
H2551 C2559 0.930 . S
H2552 C2562 0.930 . S
H2553 C2563 0.930 . S
C2554 H2548 0.930 . S
C2554 C2555 1.355 . S
C2554 C2556 1.415 . S
C2555 C2554 1.355 . S
C2555 C2557 1.419 . S
C2556 C2554 1.415 . S
C2556 C2561 1.425 . S
C2556 C2563 1.409 . S
C2557 H2549 0.930 . S
C2557 C2555 1.419 . S
C2557 C2558 1.362 . S
C2558 H2550 0.930 . S
C2558 C2557 1.362 . S
C2558 C2561 1.409 . S
C2559 H2551 0.930 . S
C2559 C2560 1.355 . S
C2559 C2561 1.415 . S
C2560 C2559 1.355 . S
C2560 C2562 1.419 . S
C2561 C2556 1.425 . S
C2561 C2558 1.409 . S
C2561 C2559 1.415 . S
C2562 H2552 0.930 . S
C2562 C2560 1.419 . S
C2562 C2563 1.362 . S
C2563 H2553 0.930 . S
C2563 C2556 1.409 . S
C2563 C2562 1.362 . S
H2564 C2570 0.930 . S
H2565 C2573 0.930 . S
H2566 C2574 0.930 . S
H2567 C2575 0.930 . S
H2568 C2578 0.930 . S
H2569 C2579 0.930 . S
C2570 H2564 0.930 . S
C2570 C2571 1.355 . S
C2570 C2572 1.415 . S
C2571 C2570 1.355 . S
C2571 C2573 1.419 . S
C2572 C2570 1.415 . S
C2572 C2577 1.425 . S
C2572 C2579 1.409 . S
C2573 H2565 0.930 . S
C2573 C2571 1.419 . S
C2573 C2574 1.362 . S
C2574 H2566 0.930 . S
C2574 C2573 1.362 . S
C2574 C2577 1.409 . S
C2575 H2567 0.930 . S
C2575 C2576 1.355 . S
C2575 C2577 1.415 . S
C2576 C2575 1.355 . S
C2576 C2578 1.419 . S
C2577 C2572 1.425 . S
C2577 C2574 1.409 . S
C2577 C2575 1.415 . S
C2578 H2568 0.930 . S
C2578 C2576 1.419 . S
C2578 C2579 1.362 . S
C2579 H2569 0.930 . S
C2579 C2572 1.409 . S
C2579 C2578 1.362 . S
H2580 C2586 0.930 . S
H2581 C2589 0.930 . S
H2582 C2590 0.930 . S
H2583 C2591 0.930 . S
H2584 C2594 0.930 . S
H2585 C2595 0.930 . S
C2586 H2580 0.930 . S
C2586 C2587 1.355 . S
C2586 C2588 1.415 . S
C2587 C2586 1.355 . S
C2587 C2589 1.419 1_655 S
C2588 C2586 1.415 . S
C2588 C2593 1.406 1_655 S
C2588 C2595 1.409 . S
C2589 H2581 0.930 . S
C2589 C2587 1.419 1_455 S
C2589 C2590 1.362 . S
C2590 H2582 0.930 . S
C2590 C2589 1.362 . S
C2590 C2593 1.408 . S
C2591 H2583 0.930 . S
C2591 C2592 1.355 1_455 S
C2591 C2593 1.434 . S
C2592 C2591 1.355 1_655 S
C2592 C2594 1.419 . S
C2593 C2588 1.406 1_455 S
C2593 C2590 1.408 . S
C2593 C2591 1.434 . S
C2594 H2584 0.930 . S
C2594 C2592 1.419 . S
C2594 C2595 1.362 . S
C2595 H2585 0.930 . S
C2595 C2588 1.409 . S
C2595 C2594 1.362 . S
H2596 C2602 0.930 . S
H2597 C2605 0.930 . S
H2598 C2606 0.930 . S
H2599 C2607 0.930 . S
H2600 C2610 0.930 . S
H2601 C2611 0.930 . S
C2602 H2596 0.930 . S
C2602 C2603 1.355 . S
C2602 C2604 1.415 . S
C2603 C2602 1.355 . S
C2603 C2605 1.419 . S
C2604 C2602 1.415 . S
C2604 C2609 1.425 . S
C2604 C2611 1.409 . S
C2605 H2597 0.930 . S
C2605 C2603 1.419 . S
C2605 C2606 1.362 . S
C2606 H2598 0.930 . S
C2606 C2605 1.362 . S
C2606 C2609 1.409 . S
C2607 H2599 0.930 . S
C2607 C2608 1.355 . S
C2607 C2609 1.415 . S
C2608 C2607 1.355 . S
C2608 C2610 1.419 . S
C2609 C2604 1.425 . S
C2609 C2606 1.409 . S
C2609 C2607 1.415 . S
C2610 H2600 0.930 . S
C2610 C2608 1.419 . S
C2610 C2611 1.362 . S
C2611 H2601 0.930 . S
C2611 C2604 1.409 . S
C2611 C2610 1.362 . S
H2612 C2618 0.930 . S
H2613 C2621 0.930 . S
H2614 C2622 0.930 . S
H2615 C2623 0.930 . S
H2616 C2626 0.930 . S
H2617 C2627 0.930 . S
C2618 H2612 0.930 . S
C2618 C2619 1.355 . S
C2618 C2620 1.415 . S
C2619 C2618 1.355 . S
C2619 C2621 1.419 1_545 S
C2620 C2618 1.415 . S
C2620 C2625 1.425 1_545 S
C2620 C2627 1.409 . S
C2621 H2613 0.930 . S
C2621 C2619 1.419 1_565 S
C2621 C2622 1.362 . S
C2622 H2614 0.930 . S
C2622 C2621 1.362 . S
C2622 C2625 1.409 . S
C2623 H2615 0.930 . S
C2623 C2624 1.355 1_565 S
C2623 C2625 1.415 . S
C2624 C2623 1.355 1_545 S
C2624 C2626 1.419 . S
C2625 C2620 1.425 1_565 S
C2625 C2622 1.409 . S
C2625 C2623 1.415 . S
C2626 H2616 0.930 . S
C2626 C2624 1.419 . S
C2626 C2627 1.362 . S
C2627 H2617 0.930 . S
C2627 C2620 1.409 . S
C2627 C2626 1.362 . S
C1483 C4 1.409 . S
C1488 C1084 1.437 . S
C1499 C38 1.711 . S
C1504 C1130 1.689 . S
C1520 C1162 1.459 . S
C1515 C74 1.416 . S
C1531 C76 1.379 . S
C1536 C1215 1.427 . S
C1547 C2 1.534 . S
C1552 C1261 1.554 . S
C1563 C40 1.536 . S
C1568 C1300 1.538 . S
C1579 C110 1.500 . S
C1584 C1254 1.507 . S
C1600 C1307 1.546 . S
C1595 C148 1.563 . S
C1616 C1208 1.518 . S
C1611 C182 1.470 . S
C1627 C184 1.475 . S
C1632 C1169 1.482 . S
C1648 C1063 1.430 . S
C1643 C112 1.376 . S
C1659 C146 1.629 . S
C1664 C1109 1.647 . S
C1675 C220 1.647 . S
C1680 C1339 1.653 . S
C1691 C254 1.795 . S
C1696 C1406 1.737 . S
C1712 C1452 1.623 . S
C1707 C290 1.663 . S
C1723 C292 1.534 . S
C1728 C663 1.546 . S
C1739 C218 1.684 . S
C1744 C709 1.699 . S
C1755 C256 1.584 . S
C1760 C755 1.566 . S
C1771 C326 1.679 . S
C1776 C702 1.635 . S
C1787 C364 1.615 . S
C1792 C748 1.605 . S
C1808 C656 1.680 . S
C1803 C398 1.693 . S
C1824 C1431 1.653 . S
C1819 C400 1.662 . S
C1840 C1360 1.542 . S
C1835 C328 1.528 . S
C1856 C1385 1.674 . S
C1851 C362 1.736 . S
C1867 C436 1.579 . S
C1872 C787 1.540 . S
C1883 C470 1.748 . S
C1888 C840 1.761 . S
C1899 C506 1.649 . S
C1904 C886 1.652 . S
C1915 C508 1.618 . S
C1920 C932 1.624 . S
C1936 C985 1.647 . S
C1931 C434 1.699 . S
C1952 C1031 1.570 . S
C1947 C472 1.605 . S
C1968 C978 1.747 . S
C1963 C542 1.770 . S
C1984 C1024 1.628 . S
C1979 C580 1.637 . S
C1995 C614 1.691 . S
C2000 C939 1.653 . S
C2016 C893 1.592 . S
C2011 C616 1.572 . S
C2027 C544 1.560 . S
C2032 C808 1.526 . S
C2048 C847 1.689 . S
C2043 C578 1.674 . S
C2064 C670 1.640 . S
C2059 C14 1.674 . S
C2075 C39 1.563 . S
C2080 C716 1.533 . S
C2096 C762 1.545 . S
C2091 C75 1.578 . S
C2112 C794 1.513 . S
C2107 C86 1.488 . S
C2128 C833 1.621 . S
C2123 C3 1.639 . S
C2144 C879 1.574 . S
C2139 C50 1.549 . S
C2155 C111 1.609 . S
C2160 C900 1.585 . S
C2171 C158 1.521 . S
C2176 C801 1.500 . S
C2187 C183 1.716 . S
C2192 C854 1.696 . S
C2203 C194 1.658 . S
C2208 C695 1.628 . S
C2224 C741 1.574 . S
C2219 C122 1.552 . S
C2235 C147 1.507 . S
C2240 C649 1.500 . S
C2256 C925 1.616 . S
C2251 C230 1.589 . S
C2267 C255 1.683 . S
C2272 C992 1.661 . S
C2283 C291 1.610 . S
C2288 C1038 1.575 . S
C2304 C1077 1.313 . S
C2299 C302 1.291 . S
C2315 C219 1.594 . S
C2320 C1123 1.580 . S
C2331 C266 1.350 . S
C2336 C1155 1.421 . S
C2347 C327 1.354 . S
C2352 C1176 1.350 . S
C2363 C374 1.295 . S
C2368 C1070 1.390 . S
C2384 C1116 1.653 . S
C2379 C399 1.668 . S
C2395 C410 1.596 . S
C2400 C971 1.594 . S
C2411 C338 1.578 . S
C2416 C1017 1.621 . S
C2432 C946 1.580 . S
C2427 C363 1.609 . S
C2448 C1222 1.429 . S
C2443 C446 1.326 . S
C2459 C471 1.396 . S
C2464 C1268 1.398 . S
C2475 C507 1.557 . S
C2480 C1293 1.539 . S
C2496 C1346 1.487 . S
C2491 C518 1.465 . S
C2512 C1399 1.639 . S
C2507 C435 1.668 . S
C2523 C482 1.675 . S
C2528 C1445 1.646 . S
C2539 C543 1.549 . S
C2544 C1438 1.526 . S
C2555 C590 1.591 . S
C2560 C1353 1.630 . S
C2576 C1392 1.693 . S
C2571 C615 1.722 . S
C2592 C1247 1.436 . S
C2587 C626 1.363 . S
C2608 C1314 1.535 . S
C2603 C554 1.548 . S
C2619 C579 1.355 . S
C2624 C1201 1.349 . S
