# Generated by pormake.
# Topology tsx, (6,3)-cn, num edge types: 1
# Building blocks:
#     Node 0, Type 0, BuildingBlock: CIFDUS_clean_sbu_1, # of connection points: 6
#     Node 1, Type 0, BuildingBlock: CIFDUS_clean_sbu_1, # of connection points: 6
#     Node 2, Type 1, BuildingBlock: QEWDON_clean_linker_0, # of connection points: 3
#     Node 3, Type 1, BuildingBlock: QEWDON_clean_linker_0, # of connection points: 3
#     Node 4, Type 1, BuildingBlock: QEWDON_clean_linker_0, # of connection points: 3
#     Node 5, Type 1, BuildingBlock: QEWDON_clean_linker_0, # of connection points: 3
#     Edge 6, Type (0, 1), BuildingBlock: CIFDUS_clean_linker_0, # of connection points: 2
#     Edge 7, Type (0, 1), BuildingBlock: CIFDUS_clean_linker_0, # of connection points: 2
#     Edge 8, Type (0, 1), BuildingBlock: CIFDUS_clean_linker_0, # of connection points: 2
#     Edge 9, Type (0, 1), BuildingBlock: CIFDUS_clean_linker_0, # of connection points: 2
#     Edge 10, Type (0, 1), BuildingBlock: CIFDUS_clean_linker_0, # of connection points: 2
#     Edge 11, Type (0, 1), BuildingBlock: CIFDUS_clean_linker_0, # of connection points: 2
#     Edge 12, Type (0, 1), BuildingBlock: CIFDUS_clean_linker_0, # of connection points: 2
#     Edge 13, Type (0, 1), BuildingBlock: CIFDUS_clean_linker_0, # of connection points: 2
#     Edge 14, Type (0, 1), BuildingBlock: CIFDUS_clean_linker_0, # of connection points: 2
#     Edge 15, Type (0, 1), BuildingBlock: CIFDUS_clean_linker_0, # of connection points: 2
#     Edge 16, Type (0, 1), BuildingBlock: CIFDUS_clean_linker_0, # of connection points: 2
#     Edge 17, Type (0, 1), BuildingBlock: CIFDUS_clean_linker_0, # of connection points: 2
# Relax obj value: 0.105
# Max RMSD: 0.199
# Mean RMSD: 0.145
data_MOF--net-tsx--node1-CIFDUS_clean_sbu_1--node2-QEWDON_clean_linker_0--edge1-CIFDUS_clean_linker_0
_symmetry_space_group_name_H-M    P1
_symmetry_Int_Tables_number       1
_symmetry_cell_setting            triclinic
loop_
_symmetry_equiv_pos_as_xyz
'x, y, z'
_cell_length_a     17.201642
_cell_length_b     21.912533
_cell_length_c     29.124164
_cell_angle_alpha  98.790448
_cell_angle_beta   112.28243
_cell_angle_gamma 90.568667
loop_
_atom_site_label
_atom_site_type_symbol
_atom_site_fract_x
_atom_site_fract_y
_atom_site_fract_z
_atom_type_partial_charge
O0 O 0.06947 0.10227 0.0507 0.0
Mn1 Mn 0.14248 0.02518 0.05511 0.0
O2 O 0.93637 0.06697 0.0281 0.0
Mn3 Mn 0.95715 -0.00487 0.99488 0.0
O4 O 0.22183 0.95181 0.06167 0.0
O5 O 0.24159 0.08594 0.07283 0.0
Mn6 Mn 0.32331 0.07399 0.12864 0.0
O7 O 0.15814 0.03146 0.13058 0.0
O8 O 0.35179 -0.00516 0.11324 0.0
O9 O 0.12283 0.01779 0.97891 0.0
O10 O 0.98205 0.00025 0.93915 0.0
O11 O 0.36293 0.13854 0.10769 0.0
O12 O 0.28026 0.08662 0.1785 0.0
C13 C 0.98759 0.91687 0.02906 0.0
C14 C 0.99323 0.11082 0.04559 0.0
C15 C 0.30194 0.9488 0.08482 0.0
C16 C 0.29002 0.12985 0.07081 0.0
C17 C 0.21056 0.05998 0.17327 0.0
C18 C 0.05529 0.00788 0.93857 0.0
O19 O 0.04309 0.96216 0.03691 0.0
O20 O 0.91105 0.92291 0.99912 0.0
O21 O 0.47586 0.56904 0.50588 0.0
Mn22 Mn 0.56858 0.50557 0.52249 0.0
O23 O 0.36564 0.51713 0.44005 0.0
Mn24 Mn 0.4123 0.4418 0.43329 0.0
O25 O 0.65943 0.44122 0.53888 0.0
O26 O 0.66052 0.5753 0.55103 0.0
Mn27 Mn 0.72654 0.56469 0.61231 0.0
O28 O 0.55882 0.50441 0.59265 0.0
O29 O 0.77225 0.48879 0.60506 0.0
O30 O 0.57553 0.50803 0.45141 0.0
O31 O 0.47797 0.43605 0.3963 0.0
O32 O 0.773 0.63373 0.60122 0.0
O33 O 0.66145 0.57108 0.65023 0.0
C34 C 0.4302 0.38754 0.49029 0.0
C35 C 0.40034 0.56592 0.47231 0.0
C36 C 0.7344 0.4413 0.5722 0.0
C37 C 0.71249 0.62195 0.55718 0.0
C38 C 0.59476 0.53605 0.63725 0.0
C39 C 0.53801 0.47654 0.40678 0.0
O40 O 0.47926 0.4349 0.49452 0.0
O41 O 0.36969 0.37263 0.44651 0.0
H42 H 0.12004 0.05068 0.43747 0.0
C43 C 0.1393 0.00605 0.44711 0.0
C44 C 0.15634 0.96351 0.41159 0.0
C45 C 0.14774 -0.00888 0.49417 0.0
H46 H 0.20382 0.87531 0.39759 0.0
C47 C 0.18691 0.90696 0.4242 0.0
C48 C 0.20003 0.89213 0.47158 0.0
C49 C 0.17868 0.93364 0.50599 0.0
C50 C 0.12478 0.03551 0.53047 0.0
H51 H 0.18514 0.91994 0.54127 0.0
C52 C 0.05922 0.09185 0.50882 0.0
C53 C 0.03596 0.16269 0.5835 0.0
C54 C 0.16624 0.03096 0.59287 0.0
H55 H 0.20942 -0.0043 0.6045 0.0
C56 C 0.15234 0.07707 0.64127 0.0
H57 H 1.03383 0.09241 0.46835 0.0
C58 C 0.0922 0.13818 0.63887 0.0
H59 H 0.09055 0.16283 0.67359 0.0
H60 H 0.1865 0.06612 0.67835 0.0
H61 H 1.02679 0.04679 0.66041 0.0
C62 C 1.00845 0.00474 0.63306 0.0
C63 C 0.98453 0.95229 0.64784 0.0
C64 C 1.00278 0.00407 0.5833 0.0
H65 H 0.92307 0.86047 0.62191 0.0
C66 C 0.94594 0.90026 0.61131 0.0
C67 C 0.92654 0.9018 0.5603 0.0
C68 C 0.95774 0.95259 0.54645 0.0
C69 C 1.02303 0.06238 0.56601 0.0
H70 H 0.94232 0.95384 0.50692 0.0
C71 C 0.15449 0.13627 0.57936 0.0
C72 C 0.12481 0.1932 0.54393 0.0
C73 C 0.93405 0.08694 0.52345 0.0
H74 H 0.87379 0.06186 0.51332 0.0
C75 C 0.93742 0.14936 0.4962 0.0
H76 H 0.22156 0.13692 0.60302 0.0
C77 C 1.02278 0.19698 0.50552 0.0
H78 H 1.00958 0.23446 0.48408 0.0
H79 H 0.8778 0.16052 0.46969 0.0
H80 H 0.55902 0.50358 0.9125 0.0
C81 C 0.61079 0.47478 0.92619 0.0
C82 C 0.63404 0.43621 0.89097 0.0
C83 C 0.65489 0.47722 0.97838 0.0
H84 H 0.71657 0.36594 0.88202 0.0
C85 C 0.69816 0.39622 0.9086 0.0
C86 C 0.74044 0.39614 0.96043 0.0
C87 C 0.71925 0.43739 0.99495 0.0
C88 C 0.64023 0.52557 1.01529 0.0
H89 H 0.75597 0.44005 0.03477 0.0
C90 C 0.60611 0.59362 0.99662 0.0
C91 C 0.59648 0.6725 0.07174 0.0
C92 C 0.664 0.51515 0.07572 0.0
H93 H 0.68434 0.4704 0.08466 0.0
C94 C 0.65968 0.56626 0.12497 0.0
H95 H 0.59181 0.59736 0.95726 0.0
C96 C 0.62868 0.6396 0.12497 0.0
H97 H 0.62743 0.66559 0.15937 0.0
H98 H 0.67814 0.5497 0.16047 0.0
H99 H 0.504 0.59226 0.13159 0.0
C100 C 0.48367 0.54742 0.10819 0.0
C101 C 0.44637 0.50424 0.12535 0.0
C102 C 0.49695 0.53177 0.06296 0.0
H103 H 0.37938 0.41537 0.10705 0.0
C104 C 0.40846 0.4489 0.09348 0.0
C105 C 0.41154 0.43489 0.04547 0.0
C106 C 0.4584 0.47564 0.03092 0.0
C107 C 0.54461 0.57722 0.04666 0.0
H108 H 0.46472 0.46387 0.99504 0.0
C109 C 0.70184 0.61917 0.07144 0.0
C110 C 0.70609 0.67859 0.04137 0.0
C111 C 0.47819 0.61815 1.00376 0.0
H112 H 0.41088 0.60733 0.98985 0.0
C113 C 0.5151 0.6764 0.9833 0.0
H114 H 0.76202 0.6071 0.098 0.0
C115 C 0.6174 0.70361 1.00055 0.0
H116 H 0.62655 0.74264 0.98398 0.0
H117 H 0.46802 0.69964 0.95667 0.0
H118 H 0.37814 0.15643 1.01721 0.0
H119 H 0.15665 0.20024 0.04665 0.0
H120 H 0.15971 0.30108 1.02127 0.0
H121 H 0.25312 0.38573 1.02007 0.0
H122 H 0.48824 0.34582 1.0055 0.0
H123 H 0.45189 0.23493 0.99366 0.0
C124 C 0.32811 0.18698 1.01532 0.0
C125 C 0.267 0.1714 0.03352 0.0
C126 C 0.33482 0.2466 1.00468 0.0
C127 C 0.20265 0.21082 0.03147 0.0
C128 C 0.20593 0.26917 1.01817 0.0
C129 C 0.29442 0.35241 1.01197 0.0
C130 C 0.37426 0.37349 1.0152 0.0
C131 C 0.2757 0.28915 1.00892 0.0
C132 C 0.42694 0.33055 1.00378 0.0
C133 C 0.40661 0.26714 0.99776 0.0
H134 H 0.45758 0.93828 0.0858 0.0
H135 H 0.23661 0.82927 0.07121 0.0
H136 H 0.31251 0.73483 0.07083 0.0
H137 H 0.44306 0.68495 0.07702 0.0
H138 H 0.65907 0.79461 0.08541 0.0
H139 H 0.58522 0.88834 0.08906 0.0
C140 C 0.42576 0.89379 0.08238 0.0
C141 C 0.34182 0.89052 0.07877 0.0
C142 C 0.46937 0.8404 0.08199 0.0
C143 C 0.30101 0.8327 0.07369 0.0
C144 C 0.34463 0.77901 0.07397 0.0
C145 C 0.47333 0.72922 0.07848 0.0
C146 C 0.55497 0.73229 0.07804 0.0
C147 C 0.42897 0.78253 0.07839 0.0
C148 C 0.59549 0.79044 0.0837 0.0
C149 C 0.55302 0.84408 0.0856 0.0
H150 H 0.98884 0.88957 0.11645 0.0
H151 H 1.01564 0.81124 0.97914 0.0
H152 H 0.92642 0.7197 0.97075 0.0
H153 H 0.80802 0.67961 0.98957 0.0
H154 H 0.78765 0.75408 0.1298 0.0
H155 H 0.90582 0.83028 0.14993 0.0
C156 C 0.97993 0.85051 0.08665 0.0
C157 C 1.0053 0.85796 0.04728 0.0
C158 C 0.92531 0.79933 0.08106 0.0
C159 C 0.99527 0.80676 1.0095 0.0
C160 C 0.94198 0.75515 1.00382 0.0
C161 C 0.83105 0.71172 1.02494 0.0
C162 C 0.78724 0.71421 0.057 0.0
C163 C 0.90099 0.75377 0.03709 0.0
C164 C 0.81878 0.75382 0.10367 0.0
C165 C 0.88674 0.79682 0.11542 0.0
H166 H 1.01066 0.19875 0.99467 0.0
H167 H 0.90404 0.15865 0.09972 0.0
H168 H 0.8211 0.24912 0.0861 0.0
H169 H 0.76407 0.32912 0.03484 0.0
H170 H 0.86688 0.36701 0.92716 0.0
H171 H 0.96682 0.28787 0.95135 0.0
C172 C 0.9725 0.2118 1.01639 0.0
C173 C 0.96465 0.17345 0.04903 0.0
C174 C 0.92265 0.26223 1.00674 0.0
C175 C 0.91177 0.18854 0.07511 0.0
C176 C 0.8638 0.23971 0.06688 0.0
C177 C 0.80958 0.32105 1.01745 0.0
C178 C 0.80715 0.35313 0.97871 0.0
C179 C 0.86631 0.27533 0.03128 0.0
C180 C 0.86609 0.34179 0.95622 0.0
C181 C 0.92362 0.29691 0.97027 0.0
H182 H 0.63631 0.72361 0.52443 0.0
H183 H 0.81127 0.59287 0.50589 0.0
H184 H 0.89367 0.67384 0.49178 0.0
H185 H 0.93845 0.78598 0.51443 0.0
H186 H 0.76107 0.91637 0.53011 0.0
H187 H 0.65599 0.83187 0.5142 0.0
C188 C 0.68898 0.71205 0.51371 0.0
C189 C 0.7188 0.65284 0.51722 0.0
C190 C 0.73734 0.75951 0.50685 0.0
C191 C 0.78728 0.63834 0.50347 0.0
C192 C 0.83558 0.68504 0.49645 0.0
C193 C 0.875 0.79578 0.51104 0.0
C194 C 0.85772 0.85704 0.52413 0.0
C195 C 0.81493 0.74666 0.50239 0.0
C196 C 0.77551 0.86941 0.52003 0.0
C197 C 0.71575 0.82099 0.51172 0.0
H198 H 0.90344 0.42974 0.60853 0.0
H199 H 0.66353 0.32286 0.54041 0.0
H200 H 0.7353 0.22694 0.54455 0.0
H201 H 0.86578 0.17383 0.56566 0.0
H202 H 0.10526 0.27989 0.62577 0.0
H203 H 1.03456 0.37586 0.62974 0.0
C204 C 0.86689 0.38543 0.59458 0.0
C205 C 0.77826 0.38343 0.57382 0.0
C206 C 0.90853 0.33049 0.59602 0.0
C207 C 0.73178 0.32568 0.55592 0.0
C208 C 0.77275 0.27082 0.55862 0.0
C209 C 0.90253 0.2179 0.57802 0.0
C210 C 0.99028 0.22022 0.59077 0.0
C211 C 0.86104 0.27272 0.57801 0.0
C212 C 0.03717 0.2774 0.61224 0.0
C213 C 0.9968 0.33216 0.61466 0.0
H214 H 0.33405 0.42547 0.53927 0.0
H215 H 0.5035 0.2866 0.52791 0.0
H216 H 0.4244 0.21212 0.55164 0.0
H217 H 0.28709 0.18034 0.5531 0.0
H218 H 0.10499 0.31635 0.54617 0.0
H219 H 0.20617 0.39735 0.55036 0.0
C220 C 0.3561 0.37984 0.54483 0.0
C221 C 0.42413 0.3613 0.53209 0.0
C222 C 0.30458 0.3357 0.55225 0.0
C223 C 0.45183 0.30199 0.5383 0.0
C224 C 0.40503 0.25895 0.55039 0.0
C225 C 0.27035 0.22795 0.55356 0.0
C226 C 0.18849 0.24225 0.54908 0.0
C227 C 0.32792 0.27411 0.55371 0.0
C228 C 0.16712 0.30389 0.54894 0.0
C229 C 0.22526 0.35045 0.55175 0.0
H230 H 0.43583 0.67623 0.53855 0.0
H231 H 0.25087 0.57975 0.39793 0.0
H232 H 0.16924 0.66971 0.38838 0.0
H233 H 0.15325 0.77763 0.41641 0.0
H234 H 0.33583 0.87693 0.55566 0.0
H235 H 0.41397 0.7839 0.56985 0.0
C236 C 0.37752 0.67485 0.50597 0.0
C237 C 0.35031 0.62112 0.46894 0.0
C238 C 0.3299 0.7272 0.50049 0.0
C239 C 0.27399 0.62018 0.42715 0.0
C240 C 0.22686 0.67173 0.42149 0.0
C241 C 0.20972 0.77863 0.45013 0.0
C242 C 0.23916 0.83391 0.48473 0.0
C243 C 0.25467 0.72563 0.45749 0.0
C244 C 0.31174 0.83462 0.52861 0.0
C245 C 0.35681 0.78166 0.53645 0.0
H246 H 0.11513 0.97167 0.18841 0.0
H247 H 0.27081 0.14155 0.26159 0.0
H248 H 0.26013 0.12999 0.34113 0.0
H249 H 0.21871 0.06619 0.39178 0.0
H250 H 0.07117 0.893 0.31984 0.0
H251 H 0.06613 0.9112 0.23796 0.0
C252 C 0.14541 0.00671 0.22155 0.0
C253 C 0.19401 0.05721 0.21919 0.0
C254 C 0.14122 -0.00123 0.26754 0.0
C255 C 0.23356 0.10197 0.26257 0.0
C256 C 0.2276 0.09537 0.30808 0.0
C257 C 0.18424 0.03311 0.35798 0.0
C258 C 0.14561 0.97833 0.36167 0.0
C259 C 0.18348 0.04315 0.31132 0.0
C260 C 0.10192 0.93531 0.31779 0.0
C261 C 0.09901 0.94569 0.27105 0.0
H262 H 0.9346 0.9554 0.85059 0.0
H263 H 0.1863 0.04455 0.91343 0.0
H264 H 0.18788 0.03359 0.8285 0.0
H265 H 0.11498 8e-05 0.73598 0.0
H266 H 0.86223 0.91286 0.67647 0.0
H267 H 0.8644 0.92128 0.76109 0.0
C268 C 0.99003 0.97291 0.84607 0.0
C269 C 0.05995 0.00142 0.88833 0.0
C270 C 0.99041 0.96634 0.79775 0.0
C271 C 0.13156 0.02257 0.8815 0.0
C272 C 0.13236 0.01636 0.833 0.0
C273 C 0.0606 0.98289 0.74174 0.0
C274 C 0.98889 0.95524 0.69999 0.0
C275 C 0.06179 -0.01145 0.79078 0.0
C276 C 0.91887 0.93302 0.70788 0.0
C277 C 0.9197 0.93834 0.75625 0.0
H278 H 0.55916 0.42637 0.66061 0.0
H279 H 0.57664 0.62405 0.70745 0.0
H280 H 0.57749 0.60976 0.78912 0.0
H281 H 0.60015 0.54237 0.85175 0.0
H282 H 0.59034 0.3444 0.80763 0.0
H283 H 0.56014 0.35738 0.72073 0.0
C284 C 0.55986 0.46608 0.68809 0.0
C285 C 0.5677 0.52619 0.67816 0.0
C286 C 0.56428 0.4575 0.73602 0.0
C287 C 0.57026 0.57739 0.71433 0.0
C288 C 0.57163 0.56923 0.76121 0.0
C289 C 0.58882 0.50179 0.82298 0.0
C290 C 0.59887 0.44254 0.8366 0.0
C291 C 0.57276 0.50965 0.77328 0.0
C292 C 0.58486 0.3907 0.79856 0.0
C293 C 0.56728 0.39806 0.74874 0.0
H294 H 0.4087 0.50502 0.33054 0.0
H295 H 0.67791 0.4957 0.38345 0.0
H296 H 0.6737 0.51198 0.30051 0.0
H297 H 0.58895 0.51474 0.20979 0.0
H298 H 0.31845 0.51358 0.15802 0.0
H299 H 0.32698 0.51534 0.24398 0.0
C300 C 0.46679 0.50723 0.3241 0.0
C301 C 0.54339 0.49821 0.36246 0.0
C302 C 0.46302 0.51407 0.27647 0.0
C303 C 0.61834 0.50235 0.35429 0.0
C304 C 0.61558 0.51112 0.30684 0.0
C305 C 0.53232 0.51616 0.21784 0.0
C306 C 0.453 0.51422 0.17805 0.0
C307 C 0.53777 0.51494 0.26717 0.0
C308 C 0.37975 0.51514 0.18825 0.0
C309 C 0.38475 0.51601 0.23723 0.0
loop_
_geom_bond_atom_site_label_1
_geom_bond_atom_site_label_2
_geom_bond_distance
_geom_bond_site_symmetry_2
_ccdc_geom_bond_type
O0 Mn1 2.163 . S
O0 C14 1.244 1_454 S
Mn1 O0 2.163 . S
Mn1 O4 2.160 1_545 S
Mn1 O5 2.221 . S
Mn1 O7 2.165 . S
Mn1 O9 2.160 1_554 S
Mn1 O19 2.221 1_444 S
O2 Mn3 2.087 1_545 S
O2 C14 1.256 . S
Mn3 O2 2.087 1_565 S
Mn3 O10 2.089 1_565 S
Mn3 O19 2.290 . S
Mn3 O20 2.251 . S
O4 Mn1 2.160 1_565 S
O4 C15 1.239 . S
O5 Mn1 2.221 . S
O5 Mn6 2.290 . S
O5 C16 1.278 . S
Mn6 O5 2.290 . S
Mn6 O8 2.089 1_545 S
Mn6 O11 2.251 . S
Mn6 O12 2.087 . S
O7 Mn1 2.165 . S
O7 C17 1.244 . S
O8 Mn6 2.089 1_565 S
O8 C15 1.256 . S
O9 Mn1 2.160 1_556 S
O9 C18 1.239 . S
O10 Mn3 2.089 1_545 S
O10 C18 1.256 1_655 S
O11 Mn6 2.251 . S
O11 C16 1.241 . S
O12 Mn6 2.087 . S
O12 C17 1.256 . S
C13 O19 1.278 . S
C13 O20 1.241 . S
C14 O0 1.244 1_656 S
C14 O2 1.256 . S
C15 O4 1.239 . S
C15 O8 1.256 . S
C16 O5 1.278 . S
C16 O11 1.241 . S
C17 O7 1.244 . S
C17 O12 1.256 . S
C18 O9 1.239 . S
C18 O10 1.256 1_455 S
O19 Mn1 2.221 1_666 S
O19 Mn3 2.290 . S
O19 C13 1.278 . S
O20 Mn3 2.251 . S
O20 C13 1.241 . S
O21 Mn22 2.163 . S
O21 C35 1.244 . S
Mn22 O21 2.163 . S
Mn22 O25 2.160 . S
Mn22 O26 2.221 . S
Mn22 O28 2.163 . S
Mn22 O30 2.160 . S
Mn22 O40 2.221 . S
O23 Mn24 2.087 . S
O23 C35 1.256 . S
Mn24 O23 2.087 . S
Mn24 O31 2.089 . S
Mn24 O40 2.290 . S
Mn24 O41 2.251 . S
O25 Mn22 2.160 . S
O25 C36 1.239 . S
O26 Mn22 2.221 . S
O26 Mn27 2.290 . S
O26 C37 1.278 . S
Mn27 O26 2.290 . S
Mn27 O29 2.089 . S
Mn27 O32 2.251 . S
Mn27 O33 2.087 . S
O28 Mn22 2.163 . S
O28 C38 1.244 . S
O29 Mn27 2.089 . S
O29 C36 1.256 . S
O30 Mn22 2.160 . S
O30 C39 1.239 . S
O31 Mn24 2.089 . S
O31 C39 1.256 . S
O32 Mn27 2.251 . S
O32 C37 1.241 . S
O33 Mn27 2.087 . S
O33 C38 1.256 . S
C34 O40 1.278 . S
C34 O41 1.241 . S
C35 O21 1.244 . S
C35 O23 1.256 . S
C36 O25 1.239 . S
C36 O29 1.256 . S
C37 O26 1.278 . S
C37 O32 1.241 . S
C38 O28 1.244 . S
C38 O33 1.256 . S
C39 O30 1.239 . S
C39 O31 1.256 . S
O40 Mn22 2.221 . S
O40 Mn24 2.290 . S
O40 C34 1.278 . S
O41 Mn24 2.251 . S
O41 C34 1.241 . S
H42 C43 0.949 . S
C43 H42 0.949 . S
C43 C44 1.395 1_545 S
C43 C45 1.391 . S
C44 C43 1.395 1_565 S
C44 C47 1.390 . S
C45 C43 1.391 . S
C45 C49 1.387 1_545 S
C45 C50 1.491 . S
H46 C47 0.950 . S
C47 C44 1.390 . S
C47 H46 0.950 . S
C47 C48 1.378 . S
C48 C47 1.378 . S
C48 C49 1.409 . S
C49 C45 1.387 1_565 S
C49 C48 1.409 . S
C49 H51 0.951 . S
C50 C45 1.491 . S
C50 C52 1.382 . S
C50 C54 1.404 . S
H51 C49 0.951 . S
C52 C50 1.382 . S
C52 C53 1.390 1_455 S
C52 H57 0.949 1_455 S
C53 C52 1.390 1_655 S
C53 C58 1.399 1_655 S
C54 C50 1.404 . S
C54 H55 0.950 . S
C54 C56 1.375 . S
H55 C54 0.950 . S
C56 C54 1.375 . S
C56 C58 1.382 . S
C56 H60 0.950 . S
H57 C52 0.949 1_655 S
C58 C53 1.399 1_455 S
C58 C56 1.382 . S
C58 H59 0.952 . S
H59 C58 0.952 . S
H60 C56 0.950 . S
H61 C62 0.952 . S
C62 H61 0.952 . S
C62 C63 1.392 1_455 S
C62 C64 1.391 1_455 S
C63 C62 1.392 1_655 S
C63 C66 1.390 1_545 S
C64 C62 1.391 1_655 S
C64 C68 1.387 . S
C64 C69 1.491 1_655 S
H65 C66 0.950 . S
C66 C63 1.390 1_565 S
C66 H65 0.950 . S
C66 C67 1.378 . S
C67 C66 1.378 . S
C67 C68 1.409 1_565 S
C68 C64 1.387 . S
C68 C67 1.409 1_545 S
C68 H70 0.951 . S
C69 C64 1.491 1_455 S
C69 C71 1.382 . S
C69 C73 1.404 1_455 S
H70 C68 0.951 . S
C71 C69 1.382 . S
C71 C72 1.390 . S
C71 H76 0.949 . S
C72 C71 1.390 . S
C72 C77 1.399 . S
C73 C69 1.404 1_655 S
C73 H74 0.950 . S
C73 C75 1.375 . S
H74 C73 0.950 . S
C75 C73 1.375 . S
C75 C77 1.382 1_655 S
C75 H79 0.950 . S
H76 C71 0.949 . S
C77 C72 1.399 . S
C77 C75 1.382 1_455 S
C77 H78 0.952 . S
H78 C77 0.952 . S
H79 C75 0.950 . S
H80 C81 0.949 . S
C81 H80 0.949 . S
C81 C82 1.395 . S
C81 C83 1.391 . S
C82 C81 1.395 . S
C82 C85 1.390 . S
C83 C81 1.391 . S
C83 C87 1.387 . S
C83 C88 1.491 1_556 S
H84 C85 0.950 . S
C85 C82 1.390 . S
C85 H84 0.950 . S
C85 C86 1.378 . S
C86 C85 1.378 . S
C86 C87 1.409 . S
C87 C83 1.387 . S
C87 C86 1.409 . S
C87 H89 0.951 1_556 S
C88 C83 1.491 1_554 S
C88 C90 1.382 1_554 S
C88 C92 1.404 . S
H89 C87 0.951 1_554 S
C90 C88 1.382 1_556 S
C90 C91 1.390 1_556 S
C90 H95 0.949 . S
C91 C90 1.390 1_554 S
C91 C96 1.399 . S
C92 C88 1.404 . S
C92 H93 0.950 . S
C92 C94 1.375 . S
H93 C92 0.950 . S
C94 C92 1.375 . S
C94 C96 1.382 . S
C94 H98 0.950 . S
H95 C90 0.949 . S
C96 C91 1.399 . S
C96 C94 1.382 . S
C96 H97 0.952 . S
H97 C96 0.952 . S
H98 C94 0.950 . S
H99 C100 0.949 . S
C100 H99 0.949 . S
C100 C101 1.395 . S
C100 C102 1.391 . S
C101 C100 1.395 . S
C101 C104 1.390 . S
C102 C100 1.391 . S
C102 C106 1.387 . S
C102 C107 1.491 . S
H103 C104 0.950 . S
C104 C101 1.390 . S
C104 H103 0.950 . S
C104 C105 1.378 . S
C105 C104 1.378 . S
C105 C106 1.409 . S
C106 C102 1.387 . S
C106 C105 1.409 . S
C106 H108 0.951 1_554 S
C107 C102 1.491 . S
C107 C109 1.382 . S
C107 C111 1.404 1_554 S
H108 C106 0.951 1_556 S
C109 C107 1.382 . S
C109 C110 1.390 . S
C109 H114 0.949 . S
C110 C109 1.390 . S
C110 C115 1.399 1_554 S
C111 C107 1.404 1_556 S
C111 H112 0.950 . S
C111 C113 1.375 . S
H112 C111 0.950 . S
C113 C111 1.375 . S
C113 C115 1.382 . S
C113 H117 0.950 . S
H114 C109 0.949 . S
C115 C110 1.399 1_556 S
C115 C113 1.382 . S
C115 H116 0.952 . S
H116 C115 0.952 . S
H117 C113 0.950 . S
H118 C124 0.930 . S
H119 C127 0.930 . S
H120 C128 0.930 . S
H121 C129 0.930 1_556 S
H122 C132 0.930 . S
H123 C133 0.930 . S
C124 H118 0.930 . S
C124 C125 1.355 . S
C124 C126 1.415 . S
C125 C124 1.355 . S
C125 C127 1.419 1_554 S
C126 C124 1.415 . S
C126 C131 1.425 . S
C126 C133 1.409 . S
C127 H119 0.930 . S
C127 C125 1.419 1_556 S
C127 C128 1.362 . S
C128 H120 0.930 . S
C128 C127 1.362 . S
C128 C131 1.409 1_556 S
C129 H121 0.930 1_554 S
C129 C130 1.355 . S
C129 C131 1.415 . S
C130 C129 1.355 . S
C130 C132 1.419 . S
C131 C126 1.425 . S
C131 C128 1.409 1_554 S
C131 C129 1.415 . S
C132 H122 0.930 . S
C132 C130 1.419 . S
C132 C133 1.362 . S
C133 H123 0.930 . S
C133 C126 1.409 . S
C133 C132 1.362 . S
H134 C140 0.930 . S
H135 C143 0.930 . S
H136 C144 0.930 . S
H137 C145 0.930 . S
H138 C148 0.930 . S
H139 C149 0.930 . S
C140 H134 0.930 . S
C140 C141 1.355 . S
C140 C142 1.415 . S
C141 C140 1.355 . S
C141 C143 1.419 . S
C142 C140 1.415 . S
C142 C147 1.425 . S
C142 C149 1.409 . S
C143 H135 0.930 . S
C143 C141 1.419 . S
C143 C144 1.362 . S
C144 H136 0.930 . S
C144 C143 1.362 . S
C144 C147 1.409 . S
C145 H137 0.930 . S
C145 C146 1.355 . S
C145 C147 1.415 . S
C146 C145 1.355 . S
C146 C148 1.419 . S
C147 C142 1.425 . S
C147 C144 1.409 . S
C147 C145 1.415 . S
C148 H138 0.930 . S
C148 C146 1.419 . S
C148 C149 1.362 . S
C149 H139 0.930 . S
C149 C142 1.409 . S
C149 C148 1.362 . S
H150 C156 0.930 . S
H151 C159 0.930 . S
H152 C160 0.930 . S
H153 C161 0.930 . S
H154 C164 0.930 . S
H155 C165 0.930 . S
C156 H150 0.930 . S
C156 C157 1.355 . S
C156 C158 1.415 . S
C157 C156 1.355 . S
C157 C159 1.419 1_554 S
C158 C156 1.415 . S
C158 C163 1.425 1_554 S
C158 C165 1.409 . S
C159 H151 0.930 . S
C159 C157 1.419 1_556 S
C159 C160 1.362 . S
C160 H152 0.930 . S
C160 C159 1.362 . S
C160 C163 1.409 . S
C161 H153 0.930 . S
C161 C162 1.355 1_556 S
C161 C163 1.415 . S
C162 C161 1.355 1_554 S
C162 C164 1.419 . S
C163 C158 1.425 1_556 S
C163 C160 1.409 . S
C163 C161 1.415 . S
C164 H154 0.930 . S
C164 C162 1.419 . S
C164 C165 1.362 . S
C165 H155 0.930 . S
C165 C158 1.409 . S
C165 C164 1.362 . S
H166 C172 0.930 1_554 S
H167 C175 0.930 . S
H168 C176 0.930 . S
H169 C177 0.930 . S
H170 C180 0.930 . S
H171 C181 0.930 . S
C172 H166 0.930 1_556 S
C172 C173 1.355 . S
C172 C174 1.415 . S
C173 C172 1.355 . S
C173 C175 1.419 . S
C174 C172 1.415 . S
C174 C179 1.425 . S
C174 C181 1.409 . S
C175 H167 0.930 . S
C175 C173 1.419 . S
C175 C176 1.362 . S
C176 H168 0.930 . S
C176 C175 1.362 . S
C176 C179 1.409 . S
C177 H169 0.930 . S
C177 C178 1.355 . S
C177 C179 1.415 . S
C178 C177 1.355 . S
C178 C180 1.419 . S
C179 C174 1.425 . S
C179 C176 1.409 . S
C179 C177 1.415 . S
C180 H170 0.930 . S
C180 C178 1.419 . S
C180 C181 1.362 . S
C181 H171 0.930 . S
C181 C174 1.409 . S
C181 C180 1.362 . S
H182 C188 0.930 . S
H183 C191 0.930 . S
H184 C192 0.930 . S
H185 C193 0.930 . S
H186 C196 0.930 . S
H187 C197 0.930 . S
C188 H182 0.930 . S
C188 C189 1.355 . S
C188 C190 1.415 . S
C189 C188 1.355 . S
C189 C191 1.419 . S
C190 C188 1.415 . S
C190 C195 1.425 . S
C190 C197 1.409 . S
C191 H183 0.930 . S
C191 C189 1.419 . S
C191 C192 1.362 . S
C192 H184 0.930 . S
C192 C191 1.362 . S
C192 C195 1.409 . S
C193 H185 0.930 . S
C193 C194 1.355 . S
C193 C195 1.415 . S
C194 C193 1.355 . S
C194 C196 1.419 . S
C195 C190 1.425 . S
C195 C192 1.409 . S
C195 C193 1.415 . S
C196 H186 0.930 . S
C196 C194 1.419 . S
C196 C197 1.362 . S
C197 H187 0.930 . S
C197 C190 1.409 . S
C197 C196 1.362 . S
H198 C204 0.930 . S
H199 C207 0.930 . S
H200 C208 0.930 . S
H201 C209 0.930 . S
H202 C212 0.930 . S
H203 C213 0.930 . S
C204 H198 0.930 . S
C204 C205 1.355 . S
C204 C206 1.415 . S
C205 C204 1.355 . S
C205 C207 1.419 . S
C206 C204 1.415 . S
C206 C211 1.425 . S
C206 C213 1.409 . S
C207 H199 0.930 . S
C207 C205 1.419 . S
C207 C208 1.362 . S
C208 H200 0.930 . S
C208 C207 1.362 . S
C208 C211 1.409 . S
C209 H201 0.930 . S
C209 C210 1.355 . S
C209 C211 1.415 . S
C210 C209 1.355 . S
C210 C212 1.419 . S
C211 C206 1.425 . S
C211 C208 1.409 . S
C211 C209 1.415 . S
C212 H202 0.930 . S
C212 C210 1.419 . S
C212 C213 1.362 . S
C213 H203 0.930 . S
C213 C206 1.409 . S
C213 C212 1.362 . S
H214 C220 0.930 . S
H215 C223 0.930 . S
H216 C224 0.930 . S
H217 C225 0.930 . S
H218 C228 0.930 . S
H219 C229 0.930 . S
C220 H214 0.930 . S
C220 C221 1.355 . S
C220 C222 1.415 . S
C221 C220 1.355 . S
C221 C223 1.419 . S
C222 C220 1.415 . S
C222 C227 1.425 . S
C222 C229 1.409 . S
C223 H215 0.930 . S
C223 C221 1.419 . S
C223 C224 1.362 . S
C224 H216 0.930 . S
C224 C223 1.362 . S
C224 C227 1.409 . S
C225 H217 0.930 . S
C225 C226 1.355 . S
C225 C227 1.415 . S
C226 C225 1.355 . S
C226 C228 1.419 . S
C227 C222 1.425 . S
C227 C224 1.409 . S
C227 C225 1.415 . S
C228 H218 0.930 . S
C228 C226 1.419 . S
C228 C229 1.362 . S
C229 H219 0.930 . S
C229 C222 1.409 . S
C229 C228 1.362 . S
H230 C236 0.930 . S
H231 C239 0.930 . S
H232 C240 0.930 . S
H233 C241 0.930 . S
H234 C244 0.930 . S
H235 C245 0.930 . S
C236 H230 0.930 . S
C236 C237 1.355 . S
C236 C238 1.415 . S
C237 C236 1.355 . S
C237 C239 1.419 . S
C238 C236 1.415 . S
C238 C243 1.425 . S
C238 C245 1.409 . S
C239 H231 0.930 . S
C239 C237 1.419 . S
C239 C240 1.362 . S
C240 H232 0.930 . S
C240 C239 1.362 . S
C240 C243 1.409 . S
C241 H233 0.930 . S
C241 C242 1.355 . S
C241 C243 1.415 . S
C242 C241 1.355 . S
C242 C244 1.419 . S
C243 C238 1.425 . S
C243 C240 1.409 . S
C243 C241 1.415 . S
C244 H234 0.930 . S
C244 C242 1.419 . S
C244 C245 1.362 . S
C245 H235 0.930 . S
C245 C238 1.409 . S
C245 C244 1.362 . S
H246 C252 0.930 . S
H247 C255 0.930 . S
H248 C256 0.930 . S
H249 C257 0.930 . S
H250 C260 0.930 . S
H251 C261 0.930 1_655 S
C252 H246 0.930 . S
C252 C253 1.355 1_565 S
C252 C254 1.415 . S
C253 C252 1.355 1_545 S
C253 C255 1.419 . S
C254 C252 1.415 . S
C254 C259 1.425 1_565 S
C254 C261 1.409 . S
C255 H247 0.930 . S
C255 C253 1.419 . S
C255 C256 1.362 . S
C256 H248 0.930 . S
C256 C255 1.362 . S
C256 C259 1.409 . S
C257 H249 0.930 . S
C257 C258 1.355 1_545 S
C257 C259 1.415 . S
C258 C257 1.355 1_565 S
C258 C260 1.419 . S
C259 C254 1.425 1_545 S
C259 C256 1.409 . S
C259 C257 1.415 . S
C260 H250 0.930 . S
C260 C258 1.419 . S
C260 C261 1.362 . S
C261 H251 0.930 1_455 S
C261 C254 1.409 . S
C261 C260 1.362 . S
H262 C268 0.930 1_565 S
H263 C271 0.930 . S
H264 C272 0.930 . S
H265 C273 0.930 . S
H266 C276 0.930 . S
H267 C277 0.930 . S
C268 H262 0.930 1_545 S
C268 C269 1.355 1_655 S
C268 C270 1.415 . S
C269 C268 1.355 1_455 S
C269 C271 1.419 . S
C270 C268 1.415 . S
C270 C275 1.425 1_655 S
C270 C277 1.409 1_545 S
C271 H263 0.930 . S
C271 C269 1.419 . S
C271 C272 1.362 . S
C272 H264 0.930 . S
C272 C271 1.362 . S
C272 C275 1.409 . S
C273 H265 0.930 . S
C273 C274 1.355 1_455 S
C273 C275 1.415 . S
C274 C273 1.355 1_655 S
C274 C276 1.419 1_545 S
C275 C270 1.425 1_455 S
C275 C272 1.409 . S
C275 C273 1.415 . S
C276 H266 0.930 . S
C276 C274 1.419 1_565 S
C276 C277 1.362 . S
C277 H267 0.930 . S
C277 C270 1.409 1_565 S
C277 C276 1.362 . S
H278 C284 0.930 . S
H279 C287 0.930 . S
H280 C288 0.930 . S
H281 C289 0.930 . S
H282 C292 0.930 . S
H283 C293 0.930 . S
C284 H278 0.930 . S
C284 C285 1.355 . S
C284 C286 1.415 . S
C285 C284 1.355 . S
C285 C287 1.419 . S
C286 C284 1.415 . S
C286 C291 1.425 . S
C286 C293 1.409 . S
C287 H279 0.930 . S
C287 C285 1.419 . S
C287 C288 1.362 . S
C288 H280 0.930 . S
C288 C287 1.362 . S
C288 C291 1.409 . S
C289 H281 0.930 . S
C289 C290 1.355 . S
C289 C291 1.415 . S
C290 C289 1.355 . S
C290 C292 1.419 . S
C291 C286 1.425 . S
C291 C288 1.409 . S
C291 C289 1.415 . S
C292 H282 0.930 . S
C292 C290 1.419 . S
C292 C293 1.362 . S
C293 H283 0.930 . S
C293 C286 1.409 . S
C293 C292 1.362 . S
H294 C300 0.930 . S
H295 C303 0.930 . S
H296 C304 0.930 . S
H297 C305 0.930 . S
H298 C308 0.930 . S
H299 C309 0.930 . S
C300 H294 0.930 . S
C300 C301 1.355 . S
C300 C302 1.415 . S
C301 C300 1.355 . S
C301 C303 1.419 . S
C302 C300 1.415 . S
C302 C307 1.425 . S
C302 C309 1.409 . S
C303 H295 0.930 . S
C303 C301 1.419 . S
C303 C304 1.362 . S
C304 H296 0.930 . S
C304 C303 1.362 . S
C304 C307 1.409 . S
C305 H297 0.930 . S
C305 C306 1.355 . S
C305 C307 1.415 . S
C306 C305 1.355 . S
C306 C308 1.419 . S
C307 C302 1.425 . S
C307 C304 1.409 . S
C307 C305 1.415 . S
C308 H298 0.930 . S
C308 C306 1.419 . S
C308 C309 1.362 . S
C309 H299 0.930 . S
C309 C302 1.409 . S
C309 C308 1.362 . S
C130 C105 1.508 . S
C125 C16 1.461 . S
C141 C15 1.480 . S
C146 C91 1.409 . S
C157 C13 1.290 1_554 S
C162 C110 1.457 . S
C173 C14 1.469 . S
C178 C86 1.507 . S
C189 C37 1.416 . S
C194 C67 1.515 . S
C205 C36 1.466 . S
C210 C53 1.417 . S
C226 C72 1.431 . S
C221 C34 1.341 . S
C242 C48 1.509 . S
C237 C35 1.468 . S
C253 C17 1.601 . S
C258 C44 1.655 . S
C269 C18 1.442 . S
C274 C63 1.417 . S
C290 C82 1.650 . S
C285 C38 1.610 . S
C301 C39 1.442 . S
C306 C101 1.421 . S
