# Generated by pormake.
# Topology nom, (4,4)-cn, num edge types: 1
# Building blocks:
#     Node 0, Type 0, BuildingBlock: NAHDIM_clean_linker_0, # of connection points: 4
#     Node 1, Type 0, BuildingBlock: NAHDIM_clean_linker_0, # of connection points: 4
#     Node 2, Type 0, BuildingBlock: NAHDIM_clean_linker_0, # of connection points: 4
#     Node 3, Type 0, BuildingBlock: NAHDIM_clean_linker_0, # of connection points: 4
#     Node 4, Type 0, BuildingBlock: NAHDIM_clean_linker_0, # of connection points: 4
#     Node 5, Type 0, BuildingBlock: NAHDIM_clean_linker_0, # of connection points: 4
#     Node 6, Type 1, BuildingBlock: NAHDIM_clean_sbu_0, # of connection points: 4
#     Node 7, Type 1, BuildingBlock: NAHDIM_clean_sbu_0, # of connection points: 4
#     Node 8, Type 1, BuildingBlock: NAHDIM_clean_sbu_0, # of connection points: 4
#     Node 9, Type 1, BuildingBlock: NAHDIM_clean_sbu_0, # of connection points: 4
#     Node 10, Type 1, BuildingBlock: NAHDIM_clean_sbu_0, # of connection points: 4
#     Node 11, Type 1, BuildingBlock: NAHDIM_clean_sbu_0, # of connection points: 4
#     Edge 12, Type (0, 1), BuildingBlock: XIVTED_clean_linker_0, # of connection points: 2
#     Edge 13, Type (0, 1), BuildingBlock: XIVTED_clean_linker_0, # of connection points: 2
#     Edge 14, Type (0, 1), BuildingBlock: XIVTED_clean_linker_0, # of connection points: 2
#     Edge 15, Type (0, 1), BuildingBlock: XIVTED_clean_linker_0, # of connection points: 2
#     Edge 16, Type (0, 1), BuildingBlock: XIVTED_clean_linker_0, # of connection points: 2
#     Edge 17, Type (0, 1), BuildingBlock: XIVTED_clean_linker_0, # of connection points: 2
#     Edge 18, Type (0, 1), BuildingBlock: XIVTED_clean_linker_0, # of connection points: 2
#     Edge 19, Type (0, 1), BuildingBlock: XIVTED_clean_linker_0, # of connection points: 2
#     Edge 20, Type (0, 1), BuildingBlock: XIVTED_clean_linker_0, # of connection points: 2
#     Edge 21, Type (0, 1), BuildingBlock: XIVTED_clean_linker_0, # of connection points: 2
#     Edge 22, Type (0, 1), BuildingBlock: XIVTED_clean_linker_0, # of connection points: 2
#     Edge 23, Type (0, 1), BuildingBlock: XIVTED_clean_linker_0, # of connection points: 2
#     Edge 24, Type (0, 1), BuildingBlock: XIVTED_clean_linker_0, # of connection points: 2
#     Edge 25, Type (0, 1), BuildingBlock: XIVTED_clean_linker_0, # of connection points: 2
#     Edge 26, Type (0, 1), BuildingBlock: XIVTED_clean_linker_0, # of connection points: 2
#     Edge 27, Type (0, 1), BuildingBlock: XIVTED_clean_linker_0, # of connection points: 2
#     Edge 28, Type (0, 1), BuildingBlock: XIVTED_clean_linker_0, # of connection points: 2
#     Edge 29, Type (0, 1), BuildingBlock: XIVTED_clean_linker_0, # of connection points: 2
#     Edge 30, Type (0, 1), BuildingBlock: XIVTED_clean_linker_0, # of connection points: 2
#     Edge 31, Type (0, 1), BuildingBlock: XIVTED_clean_linker_0, # of connection points: 2
#     Edge 32, Type (0, 1), BuildingBlock: XIVTED_clean_linker_0, # of connection points: 2
#     Edge 33, Type (0, 1), BuildingBlock: XIVTED_clean_linker_0, # of connection points: 2
#     Edge 34, Type (0, 1), BuildingBlock: XIVTED_clean_linker_0, # of connection points: 2
#     Edge 35, Type (0, 1), BuildingBlock: XIVTED_clean_linker_0, # of connection points: 2
# Relax obj value: 0.064
# Max RMSD: 0.130
# Mean RMSD: 0.124
data_MOF--net-nom--node1-NAHDIM_clean_sbu_0--node2-NAHDIM_clean_linker_0--edge1-XIVTED_clean_linker_0
_symmetry_space_group_name_H-M    P1
_symmetry_Int_Tables_number       1
_symmetry_cell_setting            triclinic
loop_
_symmetry_equiv_pos_as_xyz
'x, y, z'
_cell_length_a     56.914459
_cell_length_b     58.714514
_cell_length_c     70.144414
_cell_angle_alpha  90.075918
_cell_angle_beta   90.645511
_cell_angle_gamma 121.0379
loop_
_atom_site_label
_atom_site_type_symbol
_atom_site_fract_x
_atom_site_fract_y
_atom_site_fract_z
_atom_type_partial_charge
C0 C 0.17064 0.58555 0.2366 0.0
C1 C 0.17755 0.60134 0.25536 0.0
C2 C 0.13164 0.58858 0.26678 0.0
C3 C 0.12405 0.56272 0.27251 0.0
C4 C 0.09742 0.54486 0.27877 0.0
C5 C 0.07788 0.55288 0.2792 0.0
C6 C 0.08556 0.57901 0.27387 0.0
C7 C 0.11244 0.59658 0.26786 0.0
C8 C 0.08997 0.5172 0.28458 0.0
C9 C 0.06517 0.58815 0.2741 0.0
C10 C 0.98051 0.42242 0.18051 0.0
C11 C 0.96935 0.43795 0.19058 0.0
C12 C 0.96936 0.4439 0.22486 0.0
C13 C 0.9705 0.46835 0.2251 0.0
C14 C 0.98045 0.485 0.24124 0.0
C15 C 0.9898 0.47715 0.25729 0.0
C16 C 0.98753 0.45195 0.25733 0.0
C17 C 0.97674 0.4354 0.2412 0.0
C18 C 0.98184 0.51136 0.24087 0.0
C19 C 0.99775 0.44299 0.27398 0.0
C20 C 0.87762 0.42758 0.35577 0.0
C21 C 0.88486 0.45317 0.34977 0.0
C22 C 0.91249 0.473 0.3476 0.0
C23 C 0.93319 0.46702 0.35142 0.0
C24 C 0.92596 0.44163 0.35836 0.0
C25 C 0.89819 0.42231 0.36066 0.0
C26 C 0.91955 0.50016 0.3408 0.0
C27 C 0.94751 0.43466 0.36277 0.0
C28 C 0.1326 0.61785 0.4061 0.0
C29 C 0.11433 0.58908 0.41253 0.0
C30 C 0.06656 0.56684 0.40223 0.0
C31 C 0.0489 0.57488 0.39527 0.0
C32 C 0.02855 0.55953 0.38159 0.0
C33 C 0.0256 0.53534 0.37512 0.0
C34 C 0.04208 0.52616 0.38324 0.0
C35 C 0.06245 0.54206 0.39672 0.0
C36 C 0.01107 0.56968 0.3734 0.0
C37 C 0.03883 0.50001 0.37715 0.0
C38 C 0.049 0.53332 0.284 0.0
C39 C 0.03218 0.51606 0.26954 0.0
C40 C 0.00499 0.49644 0.27296 0.0
C41 C 0.99382 0.49444 0.29121 0.0
C42 C 0.96623 0.47573 0.29495 0.0
C43 C 0.95573 0.4733 0.31316 0.0
C44 C 0.97248 0.48946 0.32833 0.0
C45 C 0.96221 0.48672 0.34701 0.0
C46 C 0.97974 0.50229 0.36191 0.0
C47 C 0.00734 0.52092 0.35861 0.0
C48 C 0.01769 0.52471 0.3399 0.0
C49 C 0.04515 0.54395 0.336 0.0
C50 C 0.05538 0.54704 0.31766 0.0
C51 C 0.03863 0.53087 0.30256 0.0
C52 C 0.01086 0.51146 0.30614 0.0
C53 C 0.00028 0.50866 0.32478 0.0
C54 C 0.81536 0.37531 0.33692 0.0
C55 C 0.82991 0.40374 0.34479 0.0
O56 O 0.1569 0.60624 0.2599 0.0
O57 O 0.08757 0.58347 0.41402 0.0
O58 O 0.85109 0.40752 0.35688 0.0
O59 O 0.962 0.42845 0.20895 0.0
H60 H 0.17997 0.58978 0.26695 0.0
H61 H 0.15164 0.56584 0.23801 0.0
H62 H 0.16747 0.59641 0.22485 0.0
H63 H 0.18754 0.58222 0.23277 0.0
H64 H 0.13854 0.55607 0.27196 0.0
H65 H 0.11845 0.61656 0.26354 0.0
H66 H 0.07516 0.50256 0.27405 0.0
H67 H 0.10816 0.51491 0.28542 0.0
H68 H 0.07985 0.5123 0.29867 0.0
H69 H 0.07429 0.60905 0.26935 0.0
H70 H 0.04741 0.57511 0.26465 0.0
H71 H 0.05726 0.58646 0.28875 0.0
H72 H 0.98642 0.45913 0.19092 0.0
H73 H 0.98653 0.42972 0.16572 0.0
H74 H 0.99894 0.42525 0.18831 0.0
H75 H 0.96493 0.40083 0.18003 0.0
H76 H 0.96396 0.47456 0.21261 0.0
H77 H 0.97543 0.41632 0.24088 0.0
H78 H 0.00346 0.52756 0.23903 0.0
H79 H 0.96934 0.5124 0.22901 0.0
H80 H 0.97464 0.51495 0.25458 0.0
H81 H 0.99691 0.424 0.27096 0.0
H82 H 0.01923 0.45842 0.27769 0.0
H83 H 0.98503 0.44015 0.28664 0.0
H84 H 0.83805 0.41706 0.33222 0.0
H85 H 0.86897 0.45763 0.34672 0.0
H86 H 0.89234 0.40262 0.36561 0.0
H87 H 0.92784 0.50328 0.32616 0.0
H88 H 0.90144 0.50259 0.34056 0.0
H89 H 0.93573 0.51581 0.35014 0.0
H90 H 0.93844 0.41376 0.3675 0.0
H91 H 0.96003 0.43772 0.34994 0.0
H92 H 0.96153 0.44806 0.37418 0.0
H93 H 0.11589 0.57636 0.40142 0.0
H94 H 0.15418 0.62281 0.40483 0.0
H95 H 0.12548 0.62051 0.39192 0.0
H96 H 0.13181 0.63185 0.41638 0.0
H97 H 0.05195 0.59384 0.39994 0.0
H98 H 0.07539 0.53532 0.40278 0.0
H99 H 0.01499 0.5733 0.35791 0.0
H100 H 0.98903 0.55443 0.37502 0.0
H101 H 0.01525 0.58841 0.38041 0.0
H102 H 0.05086 0.49424 0.3864 0.0
H103 H 0.01688 0.48402 0.37748 0.0
H104 H 0.04586 0.50156 0.36226 0.0
H105 H 0.04064 0.51748 0.25549 0.0
H106 H 0.95249 0.4627 0.28383 0.0
H107 H 0.93438 0.45838 0.31521 0.0
H108 H 0.97192 0.4996 0.37628 0.0
H109 H 0.05908 0.55686 0.34707 0.0
H110 H 0.07667 0.56207 0.31551 0.0
H111 H 0.80702 0.36065 0.34867 0.0
H112 H 0.7983 0.37178 0.32712 0.0
H113 H 0.83009 0.37213 0.3288 0.0
C114 C 0.40744 0.87775 0.57304 0.0
C115 C 0.40862 0.86344 0.55511 0.0
C116 C 0.42629 0.89997 0.5326 0.0
C117 C 0.45375 0.90677 0.53136 0.0
C118 C 0.47409 0.9323 0.52564 0.0
C119 C 0.4668 0.95142 0.52131 0.0
C120 C 0.43897 0.94432 0.52206 0.0
C121 C 0.41899 0.91844 0.52735 0.0
C122 C 0.50343 0.93895 0.52452 0.0
C123 C 0.43042 0.96424 0.51782 0.0
C124 C 0.56218 0.04208 0.62672 0.0
C125 C 0.56033 0.06445 0.61701 0.0
C126 C 0.56318 0.06137 0.58266 0.0
C127 C 0.53933 0.06081 0.57655 0.0
C128 C 0.52675 0.04905 0.55903 0.0
C129 C 0.53839 0.0378 0.54742 0.0
C130 C 0.56323 0.0396 0.55312 0.0
C131 C 0.57551 0.0517 0.57064 0.0
C132 C 0.50067 0.04808 0.55311 0.0
C133 C 0.57626 0.02794 0.54101 0.0
C134 C 0.60004 0.14947 0.44949 0.0
C135 C 0.57298 0.14038 0.45498 0.0
C136 C 0.55384 0.11308 0.45639 0.0
C137 C 0.5621 0.09457 0.45253 0.0
C138 C 0.58905 0.10367 0.44626 0.0
C139 C 0.60759 0.13108 0.44458 0.0
C140 C 0.52495 0.10404 0.46238 0.0
C141 C 0.59848 0.0845 0.44186 0.0
C142 C 0.41398 0.90493 0.39392 0.0
C143 C 0.44302 0.92165 0.38616 0.0
C144 C 0.46587 0.96744 0.39726 0.0
C145 C 0.45681 0.9838 0.4043 0.0
C146 C 0.47165 0.00267 0.41867 0.0
C147 C 0.49638 0.00545 0.42576 0.0
C148 C 0.50665 0.99028 0.41763 0.0
C149 C 0.49122 0.97135 0.40345 0.0
C150 C 0.46035 0.01879 0.42687 0.0
C151 C 0.53342 0.99341 0.42441 0.0
C152 C 0.48845 0.97925 0.51721 0.0
C153 C 0.50327 0.99554 0.53269 0.0
C154 C 0.5234 0.0222 0.53016 0.0
C155 C 0.52869 0.03325 0.51171 0.0
C156 C 0.54824 0.06018 0.50872 0.0
C157 C 0.55307 0.07089 0.49049 0.0
C158 C 0.53855 0.05505 0.47455 0.0
C159 C 0.54297 0.06583 0.45599 0.0
C160 C 0.52888 0.04932 0.44039 0.0
C161 C 0.51013 0.02223 0.44284 0.0
C162 C 0.50478 0.01126 0.46135 0.0
C163 C 0.48545 0.9842 0.46436 0.0
C164 C 0.48019 0.97362 0.48261 0.0
C165 C 0.49402 0.98967 0.49857 0.0
C166 C 0.51396 0.01688 0.49585 0.0
C167 C 0.51912 0.02774 0.47723 0.0
C168 C 0.64999 0.21488 0.46642 0.0
C169 C 0.62025 0.19538 0.46041 0.0
O170 O 0.40644 0.87586 0.53894 0.0
O171 O 0.44969 0.94787 0.38466 0.0
O172 O 0.61941 0.17574 0.44894 0.0
O173 O 0.57466 0.07103 0.60008 0.0
H174 H 0.42844 0.864 0.55521 0.0
H175 H 0.42495 0.8986 0.57335 0.0
H176 H 0.38803 0.87795 0.57325 0.0
H177 H 0.40881 0.86772 0.58606 0.0
H178 H 0.45936 0.8922 0.53469 0.0
H179 H 0.39766 0.91282 0.52817 0.0
H180 H 0.51561 0.95282 0.53632 0.0
H181 H 0.50515 0.92099 0.52565 0.0
H182 H 0.5126 0.94909 0.51089 0.0
H183 H 0.4084 0.95627 0.5208 0.0
H184 H 0.44296 0.98259 0.52647 0.0
H185 H 0.43405 0.9699 0.50258 0.0
H186 H 0.53817 0.05679 0.61433 0.0
H187 H 0.55252 0.02411 0.6174 0.0
H188 H 0.5839 0.04804 0.62941 0.0
H189 H 0.55116 0.03686 0.64048 0.0
H190 H 0.53048 0.06943 0.58548 0.0
H191 H 0.59421 0.05271 0.57538 0.0
H192 H 0.50258 0.05576 0.53839 0.0
H193 H 0.48338 0.02713 0.55303 0.0
H194 H 0.49561 0.05984 0.56284 0.0
H195 H 0.59583 0.03137 0.54732 0.0
H196 H 0.56191 0.0062 0.53929 0.0
H197 H 0.58032 0.03681 0.52658 0.0
H198 H 0.60881 0.18653 0.47381 0.0
H199 H 0.56676 0.15454 0.45818 0.0
H200 H 0.62842 0.13834 0.44008 0.0
H201 H 0.52171 0.09599 0.47705 0.0
H202 H 0.52073 0.12053 0.46222 0.0
H203 H 0.50991 0.08785 0.4528 0.0
H204 H 0.62049 0.09485 0.43801 0.0
H205 H 0.5952 0.07169 0.45439 0.0
H206 H 0.5861 0.07131 0.42981 0.0
H207 H 0.45699 0.9198 0.39644 0.0
H208 H 0.40819 0.88379 0.39517 0.0
H209 H 0.41307 0.91234 0.40831 0.0
H210 H 0.39891 0.90615 0.38443 0.0
H211 H 0.43745 0.98092 0.39911 0.0
H212 H 0.49877 0.95942 0.39734 0.0
H213 H 0.45595 0.01413 0.44222 0.0
H214 H 0.47587 0.04032 0.42583 0.0
H215 H 0.44124 0.0148 0.41944 0.0
H216 H 0.54009 0.98243 0.41519 0.0
H217 H 0.54973 0.01477 0.42473 0.0
H218 H 0.53111 0.9858 0.43917 0.0
H219 H 0.49902 0.98735 0.54696 0.0
H220 H 0.55992 0.07331 0.52047 0.0
H221 H 0.56836 0.09176 0.48907 0.0
H222 H 0.53257 0.05764 0.42617 0.0
H223 H 0.47401 0.97088 0.45264 0.0
H224 H 0.4651 0.95269 0.48406 0.0
H225 H 0.65119 0.23075 0.47577 0.0
H226 H 0.65826 0.2042 0.4745 0.0
H227 H 0.66299 0.22416 0.45375 0.0
C228 C 0.5696 0.43378 0.73055 0.0
C229 C 0.5786 0.42835 0.7114 0.0
C230 C 0.55594 0.44439 0.69025 0.0
C231 C 0.57762 0.47063 0.68771 0.0
C232 C 0.57256 0.49041 0.68146 0.0
C233 C 0.54524 0.48389 0.67796 0.0
C234 C 0.52341 0.45732 0.68007 0.0
C235 C 0.52917 0.43781 0.68584 0.0
C236 C 0.59641 0.51836 0.67883 0.0
C237 C 0.49396 0.44965 0.67677 0.0
C238 C 0.5839 0.60701 0.7805 0.0
C239 C 0.55667 0.59281 0.76942 0.0
C240 C 0.55222 0.59005 0.73487 0.0
C241 C 0.52731 0.56576 0.7332 0.0
C242 C 0.52043 0.55055 0.71638 0.0
C243 C 0.53905 0.55968 0.70108 0.0
C244 C 0.56361 0.58481 0.70245 0.0
C245 C 0.56956 0.59992 0.71925 0.0
C246 C 0.49372 0.52427 0.71525 0.0
C247 C 0.58427 0.59511 0.68662 0.0
C248 C 0.47841 0.61172 0.60152 0.0
C249 C 0.45948 0.58609 0.60798 0.0
C250 C 0.46716 0.56706 0.61037 0.0
C251 C 0.49438 0.57394 0.60641 0.0
C252 C 0.51314 0.59942 0.59918 0.0
C253 C 0.50474 0.61788 0.5966 0.0
C254 C 0.44632 0.53974 0.61743 0.0
C255 C 0.54223 0.60737 0.59462 0.0
C256 C 0.54119 0.4328 0.55855 0.0
C257 C 0.55177 0.45756 0.54617 0.0
C258 C 0.52632 0.4787 0.55468 0.0
C259 C 0.49993 0.46901 0.5616 0.0
C260 C 0.49489 0.4835 0.5752 0.0
C261 C 0.51677 0.5084 0.58166 0.0
C262 C 0.54303 0.51917 0.57355 0.0
C263 C 0.54751 0.50419 0.56009 0.0
C264 C 0.46659 0.47167 0.58339 0.0
C265 C 0.56663 0.54601 0.57971 0.0
C266 C 0.53938 0.50512 0.67318 0.0
C267 C 0.54051 0.52157 0.688 0.0
C268 C 0.53468 0.54164 0.68481 0.0
C269 C 0.52641 0.54484 0.66642 0.0
C270 C 0.51879 0.56374 0.6629 0.0
C271 C 0.51114 0.56699 0.64464 0.0
C272 C 0.51096 0.55156 0.62919 0.0
C273 C 0.50347 0.55485 0.61052 0.0
C274 C 0.50488 0.5401 0.59536 0.0
C275 C 0.51322 0.52178 0.59838 0.0
C276 C 0.51953 0.51732 0.61705 0.0
C277 C 0.52702 0.49829 0.62064 0.0
C278 C 0.53341 0.49417 0.63901 0.0
C279 C 0.53287 0.50912 0.65447 0.0
C280 C 0.52588 0.52874 0.65114 0.0
C281 C 0.51867 0.53247 0.63246 0.0
C282 C 0.46732 0.66287 0.61763 0.0
C283 C 0.45405 0.63374 0.61153 0.0
O284 O 0.55999 0.42504 0.69713 0.0
O285 O 0.53098 0.46294 0.54314 0.0
O286 O 0.47204 0.63097 0.59998 0.0
O287 O 0.56043 0.60401 0.7515 0.0
H288 H 0.59928 0.44537 0.70804 0.0
H289 H 0.56925 0.4525 0.72986 0.0
H290 H 0.54874 0.41722 0.73415 0.0
H291 H 0.58419 0.43604 0.74211 0.0
H292 H 0.59855 0.4758 0.69043 0.0
H293 H 0.51263 0.41744 0.68768 0.0
H294 H 0.59642 0.53134 0.69036 0.0
H295 H 0.61643 0.51934 0.67927 0.0
H296 H 0.59436 0.52646 0.66502 0.0
H297 H 0.47929 0.42877 0.68088 0.0
H298 H 0.48938 0.46301 0.68504 0.0
H299 H 0.49059 0.45195 0.66146 0.0
H300 H 0.5509 0.57159 0.76819 0.0
H301 H 0.58131 0.59844 0.79499 0.0
H302 H 0.59942 0.60443 0.77292 0.0
H303 H 0.59172 0.62863 0.78183 0.0
H304 H 0.51344 0.55852 0.74513 0.0
H305 H 0.58856 0.61888 0.72066 0.0
H306 H 0.49789 0.50787 0.71692 0.0
H307 H 0.47936 0.52241 0.72658 0.0
H308 H 0.48364 0.52177 0.70112 0.0
H309 H 0.60329 0.61401 0.69058 0.0
H310 H 0.58984 0.58012 0.68284 0.0
H311 H 0.57515 0.5986 0.67371 0.0
H312 H 0.45038 0.62222 0.62492 0.0
H313 H 0.43873 0.58091 0.61115 0.0
H314 H 0.51903 0.6376 0.59133 0.0
H315 H 0.45195 0.53723 0.63215 0.0
H316 H 0.42527 0.53646 0.61757 0.0
H317 H 0.44628 0.52423 0.60832 0.0
H318 H 0.55481 0.62853 0.59036 0.0
H319 H 0.5521 0.60405 0.60719 0.0
H320 H 0.54209 0.59473 0.58278 0.0
H321 H 0.56937 0.47422 0.55401 0.0
H322 H 0.55752 0.42801 0.56085 0.0
H323 H 0.53509 0.43648 0.57268 0.0
H324 H 0.52305 0.41544 0.55175 0.0
H325 H 0.4836 0.44949 0.55702 0.0
H326 H 0.56766 0.51219 0.55402 0.0
H327 H 0.46726 0.4673 0.59872 0.0
H328 H 0.45966 0.48619 0.58243 0.0
H329 H 0.45136 0.45301 0.57593 0.0
H330 H 0.585 0.55268 0.57075 0.0
H331 H 0.56042 0.56109 0.57901 0.0
H332 H 0.5723 0.54503 0.59475 0.0
H333 H 0.54638 0.5189 0.70222 0.0
H334 H 0.51862 0.57617 0.67425 0.0
H335 H 0.50557 0.58193 0.64277 0.0
H336 H 0.4998 0.54319 0.58102 0.0
H337 H 0.52789 0.48622 0.60931 0.0
H338 H 0.53899 0.47926 0.64092 0.0
H339 H 0.47234 0.67593 0.60501 0.0
H340 H 0.45329 0.66561 0.62697 0.0
H341 H 0.48659 0.66906 0.62576 0.0
C342 C 0.15047 0.52239 0.91819 0.0
C343 C 0.1595 0.53401 0.89824 0.0
C344 C 0.12067 0.51263 0.87576 0.0
C345 C 0.11877 0.53472 0.8705 0.0
C346 C 0.09461 0.53131 0.86216 0.0
C347 C 0.07216 0.50533 0.85875 0.0
C348 C 0.07456 0.48309 0.86311 0.0
C349 C 0.09893 0.48709 0.87145 0.0
C350 C 0.09291 0.55541 0.85718 0.0
C351 C 0.05116 0.45511 0.85939 0.0
C352 C 0.91331 0.45851 0.95266 0.0
C353 C 0.93624 0.4689 0.93904 0.0
C354 C 0.94631 0.4799 0.90602 0.0
C355 C 0.94739 0.45894 0.89741 0.0
C356 C 0.96473 0.46353 0.88202 0.0
C357 C 0.98131 0.48969 0.87512 0.0
C358 C 0.97961 0.51079 0.88339 0.0
C359 C 0.96186 0.50555 0.89871 0.0
C360 C 0.96567 0.44047 0.87336 0.0
C361 C 0.99683 0.53881 0.8762 0.0
C362 C 0.89025 0.46636 0.76882 0.0
C363 C 0.89361 0.44564 0.77539 0.0
C364 C 0.91989 0.44964 0.77837 0.0
C365 C 0.9432 0.4751 0.77521 0.0
C366 C 0.93983 0.49556 0.76759 0.0
C367 C 0.91329 0.49074 0.76421 0.0
C368 C 0.92269 0.42695 0.78561 0.0
C369 C 0.9642 0.52284 0.76383 0.0
C370 C 0.13311 0.48621 0.72664 0.0
C371 C 0.11679 0.49991 0.72304 0.0
C372 C 0.07021 0.48279 0.73434 0.0
C373 C 0.04825 0.45938 0.74149 0.0
C374 C 0.02937 0.46004 0.75382 0.0
C375 C 0.03232 0.48478 0.75872 0.0
C376 C 0.05346 0.50842 0.75049 0.0
C377 C 0.07227 0.5072 0.73839 0.0
C378 C 0.00687 0.43441 0.76214 0.0
C379 C 0.05659 0.535 0.75495 0.0
C380 C 0.04566 0.50138 0.85167 0.0
C381 C 0.027 0.49957 0.86523 0.0
C382 C 0.00118 0.49485 0.85981 0.0
C383 C 0.99388 0.49256 0.84028 0.0
C384 C 0.96834 0.4885 0.83434 0.0
C385 C 0.96098 0.48537 0.81513 0.0
C386 C 0.97863 0.48557 0.80114 0.0
C387 C 0.97073 0.481 0.78165 0.0
C388 C 0.98875 0.48131 0.76812 0.0
C389 C 0.01462 0.48603 0.77355 0.0
C390 C 0.02289 0.49064 0.79297 0.0
C391 C 0.04872 0.49531 0.79894 0.0
C392 C 0.05643 0.49926 0.81812 0.0
C393 C 0.03847 0.49836 0.83209 0.0
C394 C 0.01246 0.49395 0.82639 0.0
C395 C 0.00473 0.49022 0.8068 0.0
C396 C 0.82968 0.46529 0.78344 0.0
C397 C 0.84379 0.44955 0.77972 0.0
O398 O 0.14318 0.51506 0.88465 0.0
O399 O 0.08903 0.48107 0.72373 0.0
O400 O 0.86515 0.46362 0.76721 0.0
O401 O 0.93039 0.47558 0.92139 0.0
H402 H 0.15723 0.55167 0.89759 0.0
H403 H 0.12915 0.51765 0.9206 0.0
H404 H 0.15095 0.50383 0.91983 0.0
H405 H 0.16403 0.53703 0.92923 0.0
H406 H 0.13606 0.55465 0.87267 0.0
H407 H 0.10085 0.4702 0.87517 0.0
H408 H 0.07673 0.55557 0.86578 0.0
H409 H 0.11261 0.5743 0.85984 0.0
H410 H 0.087 0.55445 0.84193 0.0
H411 H 0.05677 0.44001 0.86274 0.0
H412 H 0.03339 0.45116 0.8682 0.0
H413 H 0.04453 0.45279 0.8442 0.0
H414 H 0.95692 0.4838 0.94484 0.0
H415 H 0.90163 0.41605 0.95662 0.0
H416 H 0.92106 0.47318 0.96493 0.0
H417 H 0.8986 0.46452 0.94708 0.0
H418 H 0.93474 0.43896 0.9027 0.0
H419 H 0.96057 0.52154 0.90535 0.0
H420 H 0.96168 0.43946 0.85776 0.0
H421 H 0.98645 0.44351 0.87551 0.0
H422 H 0.95045 0.42114 0.87974 0.0
H423 H 0.99266 0.55292 0.88384 0.0
H424 H 0.0189 0.54557 0.87797 0.0
H425 H 0.99278 0.53934 0.86073 0.0
H426 H 0.85199 0.44761 0.79376 0.0
H427 H 0.87573 0.42643 0.77837 0.0
H428 H 0.91038 0.50644 0.75884 0.0
H429 H 0.92815 0.43002 0.80102 0.0
H430 H 0.90333 0.40749 0.78378 0.0
H431 H 0.93935 0.42622 0.77807 0.0
H432 H 0.95806 0.53673 0.75822 0.0
H433 H 0.97629 0.53133 0.77722 0.0
H434 H 0.97781 0.5213 0.75336 0.0
H435 H 0.1228 0.51496 0.73466 0.0
H436 H 0.15548 0.50092 0.72623 0.0
H437 H 0.12821 0.47688 0.74094 0.0
H438 H 0.1279 0.47047 0.71575 0.0
H439 H 0.04658 0.44062 0.73797 0.0
H440 H 0.0886 0.5253 0.73221 0.0
H441 H 0.00887 0.43525 0.77793 0.0
H442 H 0.98659 0.4318 0.75848 0.0
H443 H 0.00735 0.41681 0.75687 0.0
H444 H 0.0722 0.55111 0.7459 0.0
H445 H 0.03666 0.5339 0.75287 0.0
H446 H 0.06283 0.54024 0.77013 0.0
H447 H 0.03237 0.50111 0.88027 0.0
H448 H 0.95375 0.48771 0.8445 0.0
H449 H 0.94108 0.48244 0.81145 0.0
H450 H 0.98243 0.47748 0.75324 0.0
H451 H 0.06328 0.49587 0.78888 0.0
H452 H 0.07652 0.50271 0.82189 0.0
H453 H 0.82136 0.46846 0.76995 0.0
H454 H 0.81265 0.45454 0.79363 0.0
H455 H 0.84466 0.485 0.78973 0.0
C456 C 0.44881 0.87902 0.89672 0.0
C457 C 0.44665 0.86576 0.91597 0.0
C458 C 0.47171 0.906 0.93574 0.0
C459 C 0.44984 0.91009 0.93911 0.0
C460 C 0.4547 0.93458 0.94603 0.0
C461 C 0.48197 0.95556 0.94935 0.0
C462 C 0.50399 0.95128 0.9465 0.0
C463 C 0.49847 0.92633 0.94005 0.0
C464 C 0.43067 0.93823 0.94937 0.0
C465 C 0.53337 0.9733 0.94964 0.0
C466 C 0.44738 0.04437 0.84632 0.0
C467 C 0.47395 0.05583 0.85805 0.0
C468 C 0.47657 0.05622 0.8926 0.0
C469 C 0.50136 0.05681 0.89502 0.0
C470 C 0.50698 0.04755 0.91188 0.0
C471 C 0.48712 0.03701 0.92642 0.0
C472 C 0.46246 0.03725 0.92421 0.0
C473 C 0.45783 0.04746 0.90744 0.0
C474 C 0.53378 0.04826 0.9139 0.0
C475 C 0.44044 0.02562 0.93912 0.0
C476 C 0.53379 0.14549 0.02682 0.0
C477 C 0.55456 0.14138 0.02025 0.0
C478 C 0.54983 0.11558 0.01807 0.0
C479 C 0.52363 0.09349 0.02215 0.0
C480 C 0.50302 0.09763 0.02944 0.0
C481 C 0.50856 0.12367 0.03193 0.0
C482 C 0.57264 0.11193 0.01101 0.0
C483 C 0.47493 0.07456 0.03409 0.0
C484 C 0.50584 0.9178 0.07451 0.0
C485 C 0.49146 0.92923 0.08594 0.0
C486 C 0.50901 0.97406 0.07453 0.0
C487 C 0.53418 0.99324 0.06707 0.0
C488 C 0.53551 0.01043 0.05266 0.0
C489 C 0.51105 0.00863 0.04597 0.0
C490 C 0.48571 0.99035 0.05438 0.0
C491 C 0.48496 0.97318 0.06857 0.0
C492 C 0.56287 0.02989 0.04414 0.0
C493 C 0.45937 0.98855 0.04805 0.0
C494 C 0.48748 0.98248 0.95429 0.0
C495 C 0.48603 0.99764 0.93952 0.0
C496 C 0.49077 0.02314 0.94285 0.0
C497 C 0.49777 0.03421 0.96143 0.0
C498 C 0.50352 0.06011 0.96521 0.0
C499 C 0.5098 0.07058 0.98363 0.0
C500 C 0.51088 0.05566 0.99895 0.0
C501 C 0.5173 0.06615 0.01774 0.0
C502 C 0.51754 0.05055 0.0327 0.0
C503 C 0.51164 0.02462 0.02941 0.0
C504 C 0.50577 0.01399 0.01067 0.0
C505 C 0.50023 0.98813 0.00683 0.0
C506 C 0.49418 0.97773 0.98839 0.0
C507 C 0.49356 0.99282 0.97307 0.0
C508 C 0.49894 0.01888 0.97662 0.0
C509 C 0.50527 0.02955 0.99542 0.0
C510 C 0.54189 0.20876 0.01382 0.0
C511 C 0.55491 0.19194 0.01744 0.0
O512 O 0.46797 0.88307 0.92805 0.0
O513 O 0.50843 0.95661 0.08743 0.0
O514 O 0.53726 0.17012 0.02825 0.0
O515 O 0.46986 0.06323 0.87591 0.0
H516 H 0.42666 0.85997 0.92251 0.0
H517 H 0.44695 0.89679 0.89866 0.0
H518 H 0.46887 0.88531 0.89006 0.0
H519 H 0.43204 0.86504 0.8869 0.0
H520 H 0.42893 0.89438 0.93632 0.0
H521 H 0.51517 0.92292 0.93757 0.0
H522 H 0.43011 0.95127 0.93816 0.0
H523 H 0.4108 0.91904 0.949 0.0
H524 H 0.43297 0.94808 0.96337 0.0
H525 H 0.54819 0.96723 0.94556 0.0
H526 H 0.53764 0.991 0.94121 0.0
H527 H 0.53684 0.9793 0.96489 0.0
H528 H 0.47852 0.03955 0.85936 0.0
H529 H 0.45018 0.03826 0.83192 0.0
H530 H 0.43077 0.02659 0.85353 0.0
H531 H 0.44094 0.05922 0.84477 0.0
H532 H 0.51618 0.06427 0.88366 0.0
H533 H 0.43886 0.04734 0.90543 0.0
H534 H 0.53 0.02785 0.91203 0.0
H535 H 0.54888 0.06129 0.90311 0.0
H536 H 0.5428 0.05539 0.92836 0.0
H537 H 0.42139 0.0249 0.93433 0.0
H538 H 0.43532 0.00515 0.94271 0.0
H539 H 0.44804 0.0378 0.95235 0.0
H540 H 0.55756 0.18521 0.00318 0.0
H541 H 0.57446 0.15821 0.01679 0.0
H542 H 0.49283 0.1271 0.03724 0.0
H543 H 0.56801 0.1043 0.99612 0.0
H544 H 0.59278 0.13084 0.01129 0.0
H545 H 0.57421 0.09706 0.01982 0.0
H546 H 0.46073 0.08115 0.03867 0.0
H547 H 0.46588 0.06131 0.02143 0.0
H548 H 0.47669 0.06267 0.0457 0.0
H549 H 0.4721 0.92391 0.07819 0.0
H550 H 0.49257 0.89583 0.07328 0.0
H551 H 0.51009 0.92618 0.05991 0.0
H552 H 0.52561 0.92284 0.08147 0.0
H553 H 0.55267 0.99401 0.07206 0.0
H554 H 0.46561 0.95907 0.07497 0.0
H555 H 0.56239 0.02586 0.02863 0.0
H556 H 0.56695 0.05043 0.04583 0.0
H557 H 0.58 0.02879 0.05091 0.0
H558 H 0.44193 0.97537 0.05736 0.0
H559 H 0.46195 0.00864 0.04803 0.0
H560 H 0.4542 0.98065 0.03324 0.0
H561 H 0.4808 0.98931 0.9252 0.0
H562 H 0.50312 0.07252 0.95396 0.0
H563 H 0.51376 0.09054 0.98569 0.0
H564 H 0.52217 0.05861 0.0471 0.0
H565 H 0.50051 0.9756 0.01802 0.0
H566 H 0.48996 0.95768 0.98629 0.0
H567 H 0.5379 0.21568 0.02749 0.0
H568 H 0.55561 0.22631 0.00503 0.0
H569 H 0.5221 0.19673 0.00599 0.0
C570 C 0.62951 0.49354 0.061 0.0
C571 C 0.62075 0.47339 0.07719 0.0
C572 C 0.59949 0.48923 0.09927 0.0
C573 C 0.57182 0.46899 0.09802 0.0
C574 C 0.55107 0.47389 0.10323 0.0
C575 C 0.55824 0.49957 0.10964 0.0
C576 C 0.58621 0.51989 0.11113 0.0
C577 C 0.6065 0.51424 0.10626 0.0
C578 C 0.52149 0.45167 0.10182 0.0
C579 C 0.59468 0.54768 0.11757 0.0
C580 C 0.47539 0.58343 0.01203 0.0
C581 C 0.48614 0.58071 0.0306 0.0
C582 C 0.48393 0.54675 0.05185 0.0
C583 C 0.50136 0.56479 0.06596 0.0
C584 C 0.50813 0.55585 0.08246 0.0
C585 C 0.49636 0.5282 0.08532 0.0
C586 C 0.47801 0.50994 0.07148 0.0
C587 C 0.47228 0.51951 0.05481 0.0
C588 C 0.52847 0.57613 0.09657 0.0
C589 C 0.46482 0.48035 0.07412 0.0
C590 C 0.42618 0.56171 0.18667 0.0
C591 C 0.45294 0.57855 0.18018 0.0
C592 C 0.47094 0.56914 0.17793 0.0
C593 C 0.46165 0.5421 0.18172 0.0
C594 C 0.43499 0.52537 0.18891 0.0
C595 C 0.41774 0.53558 0.19159 0.0
C596 C 0.4997 0.58803 0.1712 0.0
C597 C 0.42447 0.49655 0.1933 0.0
C598 C 0.61626 0.50511 0.23735 0.0
C599 C 0.58668 0.49214 0.24413 0.0
C600 C 0.56153 0.51302 0.23329 0.0
C601 C 0.56857 0.53786 0.2261 0.0
C602 C 0.55192 0.54035 0.21239 0.0
C603 C 0.52732 0.51741 0.20619 0.0
C604 C 0.51907 0.49251 0.21455 0.0
C605 C 0.53637 0.49055 0.228 0.0
C606 C 0.56118 0.56728 0.20395 0.0
C607 C 0.49252 0.46786 0.20872 0.0
C608 C 0.53651 0.50549 0.11412 0.0
C609 C 0.52448 0.51132 0.09893 0.0
C610 C 0.50508 0.51869 0.10201 0.0
C611 C 0.4969 0.51975 0.12079 0.0
C612 C 0.47676 0.52621 0.1244 0.0
C613 C 0.47044 0.52924 0.14299 0.0
C614 C 0.48418 0.52612 0.15866 0.0
C615 C 0.47954 0.53123 0.17756 0.0
C616 C 0.49331 0.52758 0.19279 0.0
C617 C 0.51183 0.5191 0.18967 0.0
C618 C 0.51692 0.51413 0.17088 0.0
C619 C 0.53568 0.50586 0.16723 0.0
C620 C 0.54151 0.50222 0.14868 0.0
C621 C 0.52924 0.50723 0.13303 0.0
C622 C 0.50958 0.51469 0.13637 0.0
C623 C 0.50332 0.51803 0.15533 0.0
C624 C 0.37565 0.5769 0.17153 0.0
C625 C 0.40596 0.58715 0.1756 0.0
O626 O 0.61993 0.48515 0.09412 0.0
O627 O 0.57946 0.51134 0.24521 0.0
O628 O 0.40801 0.57002 0.18814 0.0
O629 O 0.47827 0.55479 0.03514 0.0
H630 H 0.60018 0.45604 0.07358 0.0
H631 H 0.61448 0.50012 0.05929 0.0
H632 H 0.65004 0.51124 0.06415 0.0
H633 H 0.63028 0.48441 0.04732 0.0
H634 H 0.56638 0.4493 0.09329 0.0
H635 H 0.62799 0.52958 0.10735 0.0
H636 H 0.51082 0.45631 0.0905 0.0
H637 H 0.51942 0.43224 0.09839 0.0
H638 H 0.51098 0.44992 0.11546 0.0
H639 H 0.61701 0.56183 0.11588 0.0
H640 H 0.58322 0.55507 0.10931 0.0
H641 H 0.58962 0.54744 0.13282 0.0
H642 H 0.50825 0.59557 0.03328 0.0
H643 H 0.49401 0.59641 0.00315 0.0
H644 H 0.46926 0.5647 0.00362 0.0
H645 H 0.44581 0.59612 0.01998 0.0
H646 H 0.51029 0.58594 0.06407 0.0
H647 H 0.45871 0.50571 0.04393 0.0
H648 H 0.51759 0.57604 0.10961 0.0
H649 H 0.54415 0.57116 0.10081 0.0
H650 H 0.53911 0.59658 0.09071 0.0
H651 H 0.44777 0.46886 0.06375 0.0
H652 H 0.48044 0.47464 0.07214 0.0
H653 H 0.45682 0.47472 0.08881 0.0
H654 H 0.41517 0.58709 0.16166 0.0
H655 H 0.4598 0.59906 0.17692 0.0
H656 H 0.39714 0.52289 0.19684 0.0
H657 H 0.50123 0.58399 0.15595 0.0
H658 H 0.50539 0.60913 0.17263 0.0
H659 H 0.51479 0.58517 0.17938 0.0
H660 H 0.40253 0.48569 0.19737 0.0
H661 H 0.42694 0.48652 0.1807 0.0
H662 H 0.43671 0.49524 0.20521 0.0
H663 H 0.57361 0.47642 0.23348 0.0
H664 H 0.62252 0.49008 0.2363 0.0
H665 H 0.61801 0.51383 0.22301 0.0
H666 H 0.63048 0.52121 0.24733 0.0
H667 H 0.58781 0.55514 0.23062 0.0
H668 H 0.53038 0.47147 0.23425 0.0
H669 H 0.56388 0.56665 0.18835 0.0
H670 H 0.54521 0.57249 0.20613 0.0
H671 H 0.58079 0.58317 0.2104 0.0
H672 H 0.48738 0.45081 0.21819 0.0
H673 H 0.47545 0.47185 0.20891 0.0
H674 H 0.49418 0.46221 0.19391 0.0
H675 H 0.53105 0.51103 0.08451 0.0
H676 H 0.46596 0.52934 0.11286 0.0
H677 H 0.45499 0.53453 0.1449 0.0
H678 H 0.49007 0.53199 0.20721 0.0
H679 H 0.54631 0.50233 0.17867 0.0
H680 H 0.5562 0.49596 0.14674 0.0
H681 H 0.36483 0.57584 0.1849 0.0
H682 H 0.37344 0.59016 0.16133 0.0
H683 H 0.36573 0.55666 0.16511 0.0
C684 C 0.58144 0.32958 0.40793 0.0
O685 O 0.57089 0.33963 0.41935 0.0
O686 O 0.65125 0.4009 0.3892 0.0
Zn687 Zn 0.61038 0.38286 0.39223 0.0
O688 O 0.60017 0.39563 0.41566 0.0
C689 C 0.59954 0.41439 0.36787 0.0
O690 O 0.61232 0.43097 0.38212 0.0
O691 O 0.59705 0.34384 0.39462 0.0
C692 C 0.61689 0.41533 0.42597 0.0
O693 O 0.64293 0.42894 0.42147 0.0
C694 C 0.66503 0.3945 0.39993 0.0
O695 O 0.65264 0.37798 0.41401 0.0
O696 O 0.59521 0.39091 0.36889 0.0
C697 C 0.25573 0.6722 0.56082 0.0
O698 O 0.23526 0.66229 0.54845 0.0
O699 O 0.25969 0.60277 0.57149 0.0
Zn700 Zn 0.23401 0.6168 0.57145 0.0
O701 O 0.20922 0.6058 0.54826 0.0
C702 C 0.19106 0.58047 0.59589 0.0
O703 O 0.18427 0.56524 0.58064 0.0
O704 O 0.25824 0.65671 0.57218 0.0
C705 C 0.20846 0.59112 0.53466 0.0
O706 O 0.22444 0.58112 0.53534 0.0
C707 C 0.28086 0.61372 0.56113 0.0
O708 O 0.28384 0.63197 0.54893 0.0
O709 O 0.21161 0.60402 0.59526 0.0
C710 C 0.59311 0.26605 0.72965 0.0
O711 O 0.57765 0.24362 0.72033 0.0
O712 O 0.66393 0.26306 0.75013 0.0
Zn713 Zn 0.62334 0.2415 0.74487 0.0
O714 O 0.61408 0.21803 0.72165 0.0
C715 C 0.60716 0.20005 0.77223 0.0
O716 O 0.62501 0.19665 0.76288 0.0
O717 O 0.61218 0.26844 0.74061 0.0
C718 C 0.62982 0.21067 0.71501 0.0
O719 O 0.65383 0.21914 0.7232 0.0
C720 C 0.67829 0.28038 0.73777 0.0
O721 O 0.66636 0.28121 0.72185 0.0
O722 O 0.60328 0.2187 0.76732 0.0
C723 C 0.44659 0.69665 0.89301 0.0
O724 O 0.4653 0.69254 0.90057 0.0
O725 O 0.3754 0.61795 0.88107 0.0
Zn726 Zn 0.41643 0.63964 0.88482 0.0
O727 O 0.42745 0.63241 0.91046 0.0
C728 C 0.42838 0.61206 0.85555 0.0
O729 O 0.4052 0.59125 0.86093 0.0
O730 O 0.42534 0.6774 0.88521 0.0
C731 C 0.42891 0.61214 0.91472 0.0
O732 O 0.42332 0.59387 0.9017 0.0
C733 C 0.35906 0.59489 0.88751 0.0
O734 O 0.36889 0.58209 0.89672 0.0
O735 O 0.43676 0.63439 0.86363 0.0
C736 C 0.75458 0.41034 0.08614 0.0
O737 O 0.76442 0.40839 0.10268 0.0
O738 O 0.75202 0.34365 0.06531 0.0
Zn739 Zn 0.78003 0.38188 0.07084 0.0
O740 O 0.8006 0.38648 0.0954 0.0
C741 C 0.80071 0.39477 0.03241 0.0
O742 O 0.77466 0.38397 0.02776 0.0
O743 O 0.75951 0.40131 0.07121 0.0
C744 C 0.8207 0.4097 0.099 0.0
O745 O 0.82573 0.42902 0.08721 0.0
C746 C 0.7316 0.3313 0.07621 0.0
O747 O 0.73072 0.34311 0.09189 0.0
O748 O 0.80754 0.39605 0.04985 0.0
C749 C 0.44877 0.76535 0.21789 0.0
O750 O 0.44986 0.78028 0.2036 0.0
O751 O 0.38348 0.76451 0.24099 0.0
Zn752 Zn 0.42339 0.79087 0.23695 0.0
O753 O 0.42905 0.81285 0.21347 0.0
C754 C 0.42834 0.83051 0.26178 0.0
O755 O 0.41239 0.83087 0.24825 0.0
O756 O 0.44036 0.76814 0.23395 0.0
C757 C 0.45189 0.83428 0.21124 0.0
O758 O 0.47114 0.84165 0.2244 0.0
C759 C 0.36263 0.76368 0.23351 0.0
O760 O 0.36595 0.78215 0.22142 0.0
O761 O 0.43712 0.81461 0.26017 0.0
H762 H 0.18803 0.64681 0.23634 0.0
H763 H 0.34963 0.72253 0.2576 0.0
H764 H 0.22815 0.61443 0.26948 0.0
H765 H 0.31255 0.75344 0.2197 0.0
H766 H 0.30446 0.68452 0.264 0.0
H767 H 0.23261 0.68762 0.23189 0.0
C768 C 0.20621 0.64846 0.24285 0.0
C769 C 0.2044 0.62738 0.2535 0.0
C770 C 0.30611 0.6996 0.25431 0.0
C771 C 0.25534 0.6737 0.2483 0.0
C772 C 0.33196 0.7214 0.25064 0.0
C773 C 0.33495 0.74119 0.23799 0.0
C774 C 0.2829 0.69743 0.24529 0.0
C775 C 0.31122 0.7386 0.22949 0.0
C776 C 0.2316 0.67166 0.24025 0.0
C777 C 0.22858 0.63031 0.26136 0.0
N778 N 0.28616 0.71704 0.23325 0.0
N779 N 0.253 0.653 0.25861 0.0
H780 H 0.6293 0.21383 0.42347 0.0
H781 H 0.55462 0.2964 0.43772 0.0
H782 H 0.58536 0.21063 0.47403 0.0
H783 H 0.60487 0.30524 0.38937 0.0
H784 H 0.55885 0.25915 0.44854 0.0
H785 H 0.61419 0.24178 0.40831 0.0
C786 C 0.61609 0.21869 0.43124 0.0
C787 C 0.60847 0.20988 0.44999 0.0
C788 C 0.56868 0.26903 0.43544 0.0
C789 C 0.59141 0.24208 0.43291 0.0
C790 C 0.56619 0.29027 0.4292 0.0
C791 C 0.57974 0.30424 0.41275 0.0
C792 C 0.5849 0.26174 0.42518 0.0
C793 C 0.5943 0.29524 0.40225 0.0
C794 C 0.60754 0.23468 0.42263 0.0
C795 C 0.5916 0.21695 0.45953 0.0
N796 N 0.59676 0.27477 0.40876 0.0
N797 N 0.58377 0.23276 0.45093 0.0
H798 H 0.44565 0.64572 0.575 0.0
H799 H 0.28448 0.58267 0.5888 0.0
H800 H 0.40172 0.60215 0.62472 0.0
H801 H 0.33028 0.63593 0.54314 0.0
H802 H 0.32557 0.58241 0.5988 0.0
H803 H 0.40209 0.63546 0.56005 0.0
C804 C 0.42674 0.63362 0.58261 0.0
C805 C 0.42722 0.62474 0.6011 0.0
C806 C 0.32655 0.59391 0.58646 0.0
C807 C 0.37743 0.61317 0.58424 0.0
C808 C 0.30305 0.59399 0.58068 0.0
C809 C 0.30402 0.60968 0.56526 0.0
C810 C 0.35123 0.60961 0.57676 0.0
C811 C 0.32864 0.62379 0.55523 0.0
C812 C 0.40193 0.62784 0.57413 0.0
C813 C 0.40221 0.60933 0.61044 0.0
N814 N 0.35135 0.62366 0.56128 0.0
N815 N 0.37836 0.60417 0.60196 0.0
H816 H 0.82356 0.4356 0.74291 0.0
H817 H 0.70772 0.28794 0.77085 0.0
H818 H 0.81695 0.40213 0.79866 0.0
H819 H 0.71321 0.32221 0.71546 0.0
H820 H 0.75148 0.32728 0.77991 0.0
H821 H 0.7868 0.39219 0.73131 0.0
C822 C 0.81463 0.41895 0.75261 0.0
C823 C 0.82337 0.42234 0.77172 0.0
C824 C 0.74326 0.32607 0.7657 0.0
C825 C 0.78104 0.37277 0.7587 0.0
C826 C 0.7183 0.30356 0.76049 0.0
C827 C 0.70659 0.30193 0.74245 0.0
C828 C 0.75656 0.34713 0.7528 0.0
C829 C 0.72131 0.32272 0.72959 0.0
C830 C 0.79362 0.39421 0.74602 0.0
C831 C 0.81087 0.40027 0.78379 0.0
N832 N 0.74537 0.34458 0.73509 0.0
N833 N 0.79024 0.37646 0.77711 0.0
H834 H 0.40364 0.8161 0.90772 0.0
H835 H 0.48945 0.74325 0.90779 0.0
H836 H 0.49144 0.85875 0.91607 0.0
H837 H 0.40804 0.7092 0.88339 0.0
H838 H 0.49041 0.78502 0.91315 0.0
H839 H 0.40442 0.77559 0.90127 0.0
C840 C 0.42304 0.81681 0.90839 0.0
C841 C 0.44737 0.84063 0.91289 0.0
C842 C 0.47245 0.76841 0.90651 0.0
C843 C 0.44855 0.79448 0.90527 0.0
C844 C 0.47188 0.74459 0.90345 0.0
C845 C 0.4486 0.72266 0.89517 0.0
C846 C 0.44948 0.77015 0.90144 0.0
C847 C 0.42642 0.72553 0.88983 0.0
C848 C 0.42352 0.79377 0.90459 0.0
C849 C 0.4721 0.84066 0.9131 0.0
N850 N 0.42735 0.74874 0.89318 0.0
N851 N 0.47203 0.81786 0.90949 0.0
H852 H 0.62096 0.43375 0.05691 0.0
H853 H 0.7461 0.43903 0.11316 0.0
H854 H 0.66662 0.49201 0.10094 0.0
H855 H 0.72068 0.40552 0.05655 0.0
H856 H 0.71373 0.45474 0.11121 0.0
H857 H 0.65403 0.41894 0.05886 0.0
C858 C 0.63779 0.4432 0.06711 0.0
C859 C 0.64067 0.4637 0.07905 0.0
C860 C 0.71539 0.44406 0.09921 0.0
C861 C 0.67864 0.44707 0.08129 0.0
C862 C 0.73379 0.43506 0.10032 0.0
C863 C 0.73611 0.421 0.08498 0.0
C864 C 0.69893 0.43857 0.08278 0.0
C865 C 0.71966 0.4164 0.06868 0.0
C866 C 0.65671 0.43488 0.06815 0.0
C867 C 0.66322 0.47574 0.09175 0.0
N868 N 0.70163 0.42499 0.06806 0.0
N869 N 0.68122 0.46708 0.09265 0.0
H870 H 0.40947 0.82122 0.57067 0.0
H871 H 0.25605 0.71176 0.53984 0.0
H872 H 0.35525 0.84067 0.54118 0.0
H873 H 0.30424 0.69767 0.58084 0.0
H874 H 0.29291 0.75841 0.53831 0.0
H875 H 0.37194 0.77497 0.57256 0.0
C876 C 0.38971 0.81563 0.5644 0.0
C877 C 0.38566 0.83465 0.55535 0.0
C878 C 0.2953 0.74511 0.54771 0.0
C879 C 0.34248 0.78188 0.55769 0.0
C880 C 0.27429 0.71849 0.5486 0.0
C881 C 0.27704 0.70077 0.5605 0.0
C882 C 0.31933 0.754 0.55867 0.0
C883 C 0.30117 0.7106 0.5715 0.0
C884 C 0.36827 0.78931 0.56558 0.0
C885 C 0.35945 0.82653 0.54789 0.0
N886 N 0.32142 0.7365 0.57023 0.0
N887 N 0.33889 0.8007 0.54912 0.0
H888 H 0.62274 0.42536 0.72325 0.0
H889 H 0.55243 0.26815 0.70961 0.0
H890 H 0.53883 0.3755 0.70411 0.0
H891 H 0.62623 0.3167 0.74295 0.0
H892 H 0.54845 0.30738 0.70453 0.0
H893 H 0.62595 0.38576 0.7275 0.0
C894 C 0.60511 0.40605 0.71972 0.0
C895 C 0.58073 0.40378 0.71291 0.0
C896 C 0.56542 0.30933 0.71301 0.0
C897 C 0.58405 0.35828 0.71799 0.0
C898 C 0.56772 0.28699 0.7159 0.0
C899 C 0.58966 0.28912 0.72675 0.0
C900 C 0.58535 0.33396 0.72087 0.0
C901 C 0.60891 0.31405 0.73453 0.0
C902 C 0.60687 0.38346 0.72225 0.0
C903 C 0.55822 0.37821 0.709 0.0
N904 N 0.60636 0.33546 0.73137 0.0
N905 N 0.56047 0.35644 0.71149 0.0
H906 H 0.20284 0.58427 0.89128 0.0
H907 H 0.31755 0.54525 0.89768 0.0
H908 H 0.18328 0.50326 0.89746 0.0
H909 H 0.33247 0.62007 0.87544 0.0
H910 H 0.26852 0.52952 0.89874 0.0
H911 H 0.25091 0.59812 0.88668 0.0
C912 C 0.2087 0.56941 0.89168 0.0
C913 C 0.18915 0.54264 0.89499 0.0
C914 C 0.28253 0.54929 0.89347 0.0
C915 C 0.24406 0.55829 0.88976 0.0
C916 C 0.31051 0.55829 0.89287 0.0
C917 C 0.32916 0.58406 0.88655 0.0
C918 C 0.27323 0.56631 0.88793 0.0
C919 C 0.31887 0.60006 0.88046 0.0
C920 C 0.2361 0.57729 0.88898 0.0
C921 C 0.19781 0.52415 0.8952 0.0
N922 N 0.29165 0.59102 0.88147 0.0
N923 N 0.22468 0.53235 0.89278 0.0
H924 H 0.60625 0.21407 0.00225 0.0
H925 H 0.68331 0.30078 0.09498 0.0
H926 H 0.56566 0.2077 0.05521 0.0
H927 H 0.72412 0.30459 0.04252 0.0
H928 H 0.64105 0.26312 0.08197 0.0
H929 H 0.65042 0.24393 0.01784 0.0
C930 C 0.60673 0.21876 0.01724 0.0
C931 C 0.58236 0.20838 0.02749 0.0
C932 C 0.65932 0.272 0.07339 0.0
C933 C 0.63272 0.24281 0.0454 0.0
C934 C 0.6835 0.29349 0.08082 0.0
C935 C 0.70722 0.3061 0.06973 0.0
C936 C 0.65881 0.26315 0.05468 0.0
C937 C 0.70628 0.29566 0.05153 0.0
C938 C 0.63192 0.23579 0.02615 0.0
C939 C 0.58404 0.21521 0.04685 0.0
N940 N 0.68239 0.275 0.0445 0.0
N941 N 0.60879 0.23215 0.05515 0.0
H942 H 0.43861 0.63406 0.1571 0.0
H943 H 0.43746 0.72419 0.242 0.0
H944 H 0.40395 0.60353 0.2122 0.0
H945 H 0.46546 0.75274 0.18518 0.0
H946 H 0.43322 0.68189 0.23332 0.0
H947 H 0.45619 0.67924 0.16902 0.0
C948 C 0.43511 0.63695 0.17182 0.0
C949 C 0.4199 0.61509 0.18371 0.0
C950 C 0.44066 0.69755 0.22284 0.0
C951 C 0.43952 0.66669 0.19739 0.0
C952 C 0.44322 0.72178 0.22781 0.0
C953 C 0.4514 0.74193 0.21419 0.0
C954 C 0.44632 0.69343 0.20413 0.0
C955 C 0.45871 0.73767 0.19606 0.0
C956 C 0.44508 0.66273 0.17861 0.0
C957 C 0.41571 0.6199 0.20262 0.0
N958 N 0.45567 0.7138 0.1915 0.0
N959 N 0.42527 0.64518 0.20883 0.0
H960 H 0.80486 0.43045 0.33237 0.0
H961 H 0.69927 0.38159 0.41832 0.0
H962 H 0.80859 0.38702 0.38066 0.0
H963 H 0.69512 0.4244 0.36966 0.0
H964 H 0.74296 0.38873 0.40697 0.0
H965 H 0.76827 0.43353 0.34783 0.0
C966 C 0.79824 0.42194 0.34638 0.0
C967 C 0.80982 0.40859 0.35531 0.0
C968 C 0.73265 0.39682 0.39888 0.0
C969 C 0.76766 0.41159 0.37297 0.0
C970 C 0.7077 0.3928 0.40538 0.0
C971 C 0.69331 0.40211 0.3948 0.0
C972 C 0.74324 0.41014 0.38162 0.0
C973 C 0.70536 0.41665 0.3782 0.0
C974 C 0.77731 0.42363 0.35519 0.0
C975 C 0.8003 0.39764 0.37337 0.0
N976 N 0.72946 0.41995 0.37201 0.0
N977 N 0.77964 0.39921 0.38154 0.0
H978 H 0.14368 0.56461 0.41944 0.0
H979 H 0.17198 0.60775 0.52936 0.0
H980 H 0.10888 0.60502 0.44837 0.0
H981 H 0.20538 0.56544 0.50115 0.0
H982 H 0.14602 0.60393 0.50043 0.0
H983 H 0.16373 0.56172 0.44973 0.0
C984 C 0.13998 0.57255 0.43225 0.0
C985 C 0.12444 0.58488 0.43146 0.0
C986 C 0.15888 0.59532 0.50057 0.0
C987 C 0.14765 0.58206 0.46609 0.0
C988 C 0.17374 0.5975 0.51711 0.0
C989 C 0.19108 0.58707 0.51765 0.0
C990 C 0.16142 0.58274 0.48436 0.0
C991 C 0.19238 0.57388 0.50136 0.0
C992 C 0.15147 0.57097 0.44951 0.0
C993 C 0.12054 0.59516 0.44841 0.0
N994 N 0.1779 0.57225 0.48533 0.0
N995 N 0.13217 0.59362 0.46501 0.0
H996 H 0.61423 0.09884 0.62768 0.0
H997 H 0.57969 0.18592 0.69698 0.0
H998 H 0.53271 0.08452 0.63582 0.0
H999 H 0.65832 0.19141 0.69655 0.0
H1000 H 0.56353 0.15223 0.67181 0.0
H1001 H 0.63211 0.13625 0.65023 0.0
C1002 C 0.60017 0.10374 0.63413 0.0
C1003 C 0.57198 0.08862 0.6299 0.0
C1004 C 0.58435 0.16086 0.67717 0.0
C1005 C 0.59218 0.13123 0.65567 0.0
C1006 C 0.59363 0.18016 0.69153 0.0
C1007 C 0.62037 0.19141 0.69898 0.0
C1008 C 0.60194 0.15277 0.67014 0.0
C1009 C 0.63751 0.18318 0.6913 0.0
C1010 C 0.61033 0.12501 0.64701 0.0
C1011 C 0.55458 0.09571 0.63866 0.0
N1012 N 0.62797 0.16431 0.67733 0.0
N1013 N 0.56496 0.11647 0.65114 0.0
H1014 H 0.51148 0.55322 0.78752 0.0
H1015 H 0.47373 0.65172 0.83798 0.0
H1016 H 0.55265 0.63706 0.77553 0.0
H1017 H 0.42178 0.56628 0.83993 0.0
H1018 H 0.50298 0.6468 0.8152 0.0
H1019 H 0.47832 0.55746 0.80677 0.0
C1020 C 0.51336 0.57248 0.78883 0.0
C1021 C 0.53482 0.59484 0.77998 0.0
C1022 C 0.48508 0.62913 0.8205 0.0
C1023 C 0.49725 0.59995 0.80216 0.0
C1024 C 0.4684 0.63191 0.83355 0.0
C1025 C 0.44534 0.60936 0.84095 0.0
C1026 C 0.47886 0.60361 0.81494 0.0
C1027 C 0.43937 0.58421 0.83462 0.0
C1028 C 0.49445 0.5749 0.79981 0.0
C1029 C 0.5364 0.61936 0.78217 0.0
N1030 N 0.45615 0.58201 0.82209 0.0
N1031 N 0.518 0.62131 0.79316 0.0
H1032 H 0.88713 0.4224 0.91663 0.0
H1033 H 0.85631 0.41931 0.03742 0.0
H1034 H 0.95908 0.45133 0.97099 0.0
H1035 H 0.79345 0.39181 0.99355 0.0
H1036 H 0.89081 0.43256 0.01275 0.0
H1037 H 0.84796 0.41047 0.9465 0.0
C1038 C 0.89279 0.42367 0.93153 0.0
C1039 C 0.92898 0.44242 0.94042 0.0
C1040 C 0.86948 0.42372 0.00853 0.0
C1041 C 0.8813 0.42527 0.97418 0.0
C1042 C 0.84975 0.41614 0.0226 0.0
C1043 C 0.82188 0.40422 0.01755 0.0
C1044 C 0.8613 0.4193 0.98931 0.0
C1045 C 0.81466 0.4008 0.9981 0.0
C1046 C 0.86933 0.41814 0.94997 0.0
C1047 C 0.93811 0.44179 0.96582 0.0
N1048 N 0.83427 0.40818 0.98466 0.0
N1049 N 0.91313 0.43535 0.98009 0.0
H1050 H 0.44208 0.8884 0.0984 0.0
H1051 H 0.49905 0.87999 0.20146 0.0
H1052 H 0.52535 0.94141 0.11758 0.0
H1053 H 0.41704 0.8244 0.18091 0.0
H1054 H 0.50819 0.90459 0.17172 0.0
H1055 H 0.43165 0.86653 0.1294 0.0
C1056 C 0.45806 0.89563 0.10926 0.0
C1057 C 0.48448 0.917 0.10555 0.0
C1058 C 0.48817 0.88706 0.17374 0.0
C1059 C 0.47289 0.89182 0.14095 0.0
C1060 C 0.48292 0.87299 0.19073 0.0
C1061 C 0.45728 0.85 0.19365 0.0
C1062 C 0.46763 0.87809 0.15954 0.0
C1063 C 0.43714 0.84195 0.17926 0.0
C1064 C 0.45215 0.88309 0.12692 0.0
C1065 C 0.50461 0.92526 0.11998 0.0
N1066 N 0.44278 0.85593 0.16281 0.0
N1067 N 0.4984 0.91264 0.13704 0.0
H1068 H 0.59962 0.51617 0.27962 0.0
H1069 H 0.57752 0.3872 0.33425 0.0
H1070 H 0.56891 0.44002 0.25216 0.0
H1071 H 0.60623 0.46324 0.3615 0.0
H1072 H 0.57056 0.40498 0.3046 0.0
H1073 H 0.59872 0.49606 0.31028 0.0
C1074 C 0.59228 0.4951 0.28012 0.0
C1075 C 0.58393 0.47961 0.2634 0.0
C1076 C 0.57819 0.4177 0.31711 0.0
C1077 C 0.58343 0.45655 0.29836 0.0
C1078 C 0.58213 0.40755 0.33405 0.0
C1079 C 0.59272 0.42384 0.35033 0.0
C1080 C 0.58495 0.44433 0.31646 0.0
C1081 C 0.59824 0.45002 0.34927 0.0
C1082 C 0.59186 0.48364 0.29761 0.0
C1083 C 0.57519 0.45254 0.26478 0.0
N1084 N 0.59448 0.45949 0.33259 0.0
N1085 N 0.57525 0.44188 0.28195 0.0
H1086 H 0.46492 0.89077 0.37758 0.0
H1087 H 0.41401 0.86751 0.26872 0.0
H1088 H 0.4242 0.92775 0.35128 0.0
H1089 H 0.45566 0.83096 0.29445 0.0
H1090 H 0.4205 0.89212 0.29825 0.0
H1091 H 0.46452 0.87096 0.34677 0.0
C1092 C 0.4562 0.89497 0.36524 0.0
C1093 C 0.44485 0.91114 0.3669 0.0
C1094 C 0.42837 0.87884 0.29743 0.0
C1095 C 0.44392 0.88825 0.33169 0.0
C1096 C 0.42468 0.86476 0.28055 0.0
C1097 C 0.43414 0.84698 0.27915 0.0
C1098 C 0.44153 0.87508 0.31311 0.0
C1099 C 0.44795 0.84438 0.29492 0.0
C1100 C 0.45591 0.88361 0.34768 0.0
C1101 C 0.43343 0.91563 0.35054 0.0
N1102 N 0.45107 0.85814 0.3113 0.0
N1103 N 0.43319 0.90418 0.33364 0.0
H1104 H 0.60483 0.47948 0.53405 0.0
H1105 H 0.56397 0.39329 0.4379 0.0
H1106 H 0.52125 0.42576 0.5158 0.0
H1107 H 0.64707 0.45395 0.45274 0.0
H1108 H 0.54797 0.4049 0.46635 0.0
H1109 H 0.62076 0.47056 0.5043 0.0
C1110 C 0.58984 0.46598 0.52367 0.0
C1111 C 0.56169 0.45346 0.5273 0.0
C1112 C 0.56969 0.41574 0.46336 0.0
C1113 C 0.57973 0.44285 0.49336 0.0
C1114 C 0.57887 0.4091 0.44712 0.0
C1115 C 0.60694 0.42262 0.44295 0.0
C1116 C 0.5887 0.43598 0.47561 0.0
C1117 C 0.62526 0.44297 0.45541 0.0
C1118 C 0.59893 0.46085 0.50672 0.0
C1119 C 0.54313 0.43592 0.51348 0.0
N1120 N 0.61583 0.44895 0.47121 0.0
N1121 N 0.55248 0.43105 0.49715 0.0
H1122 H 0.15166 0.55273 0.71533 0.0
H1123 H 0.14718 0.53066 0.60244 0.0
H1124 H 0.09914 0.47736 0.6873 0.0
H1125 H 0.20176 0.6055 0.63068 0.0
H1126 H 0.12594 0.51198 0.63302 0.0
H1127 H 0.1669 0.57356 0.68414 0.0
C1128 C 0.14306 0.54068 0.70257 0.0
C1129 C 0.12395 0.51337 0.70385 0.0
C1130 C 0.14244 0.53254 0.63251 0.0
C1131 C 0.14158 0.53688 0.66814 0.0
C1132 C 0.15458 0.54324 0.61504 0.0
C1133 C 0.17647 0.56963 0.61401 0.0
C1134 C 0.15229 0.5483 0.64911 0.0
C1135 C 0.18507 0.58501 0.63081 0.0
C1136 C 0.15181 0.55252 0.68478 0.0
C1137 C 0.1137 0.49854 0.6869 0.0
N1138 N 0.17309 0.57406 0.64768 0.0
N1139 N 0.12274 0.51046 0.66975 0.0
H1140 H 0.51725 0.0583 0.8393 0.0
H1141 H 0.56854 0.20127 0.79453 0.0
H1142 H 0.48264 0.1063 0.85358 0.0
H1143 H 0.60725 0.15572 0.78415 0.0
H1144 H 0.53859 0.16799 0.81758 0.0
H1145 H 0.55212 0.09495 0.82048 0.0
C1146 C 0.51723 0.07672 0.83863 0.0
C1147 C 0.49712 0.07934 0.84802 0.0
C1148 C 0.55377 0.16537 0.81036 0.0
C1149 C 0.53667 0.12126 0.82628 0.0
C1150 C 0.57088 0.18437 0.79718 0.0
C1151 C 0.59031 0.18119 0.78727 0.0
C1152 C 0.55599 0.14294 0.8136 0.0
C1153 C 0.59248 0.15894 0.79137 0.0
C1154 C 0.53709 0.09762 0.82787 0.0
C1155 C 0.49787 0.10355 0.84658 0.0
N1156 N 0.5754 0.14059 0.80411 0.0
N1157 N 0.51721 0.12352 0.8358 0.0
H1158 H 0.42326 0.54017 0.03299 0.0
H1159 H 0.45776 0.65075 0.94144 0.0
H1160 H 0.50196 0.63827 0.03285 0.0
H1161 H 0.41462 0.5657 0.93302 0.0
H1162 H 0.46699 0.64462 0.97463 0.0
H1163 H 0.41176 0.5496 0.99441 0.0
C1164 C 0.43397 0.55979 0.02678 0.0
C1165 C 0.46723 0.58751 0.0364 0.0
C1166 C 0.4556 0.62734 0.96547 0.0
C1167 C 0.4502 0.5973 0.99232 0.0
C1168 C 0.45027 0.6308 0.94659 0.0
C1169 C 0.43548 0.60868 0.9345 0.0
C1170 C 0.44554 0.6016 0.97237 0.0
C1171 C 0.42628 0.58326 0.94186 0.0
C1172 C 0.42824 0.56542 0.0027 0.0
C1173 C 0.48356 0.62165 0.02669 0.0
N1174 N 0.43123 0.58037 0.96045 0.0
N1175 N 0.47455 0.62212 0.00467 0.0
H1176 H 0.96685 0.47542 0.16877 0.0
H1177 H 0.81813 0.37391 0.12528 0.0
H1178 H 0.91696 0.39434 0.18736 0.0
H1179 H 0.86658 0.45651 0.1095 0.0
H1180 H 0.8523 0.38172 0.14991 0.0
H1181 H 0.92871 0.46972 0.14878 0.0
C1182 C 0.94771 0.4565 0.16877 0.0
C1183 C 0.94499 0.43532 0.1797 0.0
C1184 C 0.85533 0.39818 0.14116 0.0
C1185 C 0.90136 0.42845 0.15668 0.0
C1186 C 0.83582 0.39374 0.1271 0.0
C1187 C 0.83964 0.41453 0.11517 0.0
C1188 C 0.87887 0.42357 0.14326 0.0
C1189 C 0.86288 0.43983 0.11825 0.0
C1190 C 0.92595 0.45321 0.15736 0.0
C1191 C 0.91981 0.41115 0.17914 0.0
N1192 N 0.88171 0.44358 0.13187 0.0
N1193 N 0.89902 0.4083 0.1677 0.0
loop_
_geom_bond_atom_site_label_1
_geom_bond_atom_site_label_2
_geom_bond_distance
_geom_bond_site_symmetry_2
_ccdc_geom_bond_type
C0 C1 1.560 . S
C0 H61 0.959 . S
C0 H62 0.959 . S
C0 H63 0.960 . S
C1 C0 1.560 . S
C1 O56 1.426 . S
C1 H60 0.980 . S
C2 C3 1.407 . S
C2 C7 1.418 . S
C2 O56 1.334 . S
C3 C2 1.407 . S
C3 C4 1.360 . S
C3 H64 0.929 . S
C4 C3 1.360 . S
C4 C5 1.401 . S
C4 C8 1.527 . S
C5 C4 1.401 . S
C5 C6 1.405 . S
C5 C38 1.587 . S
C6 C5 1.405 . S
C6 C7 1.332 . S
C6 C9 1.496 . S
C7 C2 1.418 . S
C7 C6 1.332 . S
C7 H65 0.929 . S
C8 C4 1.527 . S
C8 H66 0.959 . S
C8 H67 0.961 . S
C8 H68 0.961 . S
C9 C6 1.496 . S
C9 H69 0.960 . S
C9 H70 0.960 . S
C9 H71 0.961 . S
C10 C11 1.517 . S
C10 H73 0.961 . S
C10 H74 0.960 . S
C10 H75 0.959 . S
C11 C10 1.517 . S
C11 O59 1.468 . S
C11 H72 0.980 . S
C12 C13 1.349 . S
C12 C17 1.367 . S
C12 O59 1.408 . S
C13 C12 1.349 . S
C13 C14 1.407 . S
C13 H76 0.930 . S
C14 C13 1.407 . S
C14 C15 1.449 . S
C14 C18 1.535 . S
C15 C14 1.449 . S
C15 C16 1.384 . S
C15 C40 1.553 1_655 S
C16 C15 1.384 . S
C16 C17 1.364 . S
C16 C19 1.450 . S
C17 C12 1.367 . S
C17 C16 1.364 . S
C17 H77 0.931 . S
C18 C14 1.535 . S
C18 H78 0.959 1_655 S
C18 H79 0.961 1_655 S
C18 H80 0.959 . S
C19 C16 1.450 . S
C19 H81 0.960 . S
C19 H82 0.960 1_655 S
C19 H83 0.960 . S
C20 C21 1.309 . S
C20 C25 1.304 . S
C20 O58 1.435 . S
C21 C20 1.309 . S
C21 C22 1.476 . S
C21 H85 0.930 . S
C22 C21 1.476 . S
C22 C23 1.400 . S
C22 C26 1.567 . S
C23 C22 1.400 . S
C23 C24 1.373 . S
C23 C45 1.432 . S
C24 C23 1.373 . S
C24 C25 1.339 . S
C24 C27 1.530 . S
C25 C20 1.304 . S
C25 C24 1.339 . S
C25 H86 0.930 . S
C26 C22 1.567 . S
C26 H87 0.961 . S
C26 H88 0.960 . S
C26 H89 0.958 . S
C27 C24 1.530 . S
C27 H90 0.961 . S
C27 H91 0.960 . S
C27 H92 0.960 . S
C28 C29 1.530 . S
C28 H94 0.961 . S
C28 H95 0.961 . S
C28 H96 0.959 . S
C29 C28 1.530 . S
C29 O57 1.412 . S
C29 H93 0.980 . S
C30 C31 1.288 . S
C30 C35 1.377 . S
C30 O57 1.393 . S
C31 C30 1.288 . S
C31 C32 1.369 . S
C31 H97 0.932 . S
C32 C31 1.369 . S
C32 C33 1.398 . S
C32 C36 1.527 . S
C33 C32 1.398 . S
C33 C34 1.380 . S
C33 C47 1.497 . S
C34 C33 1.380 . S
C34 C35 1.383 . S
C34 C37 1.603 . S
C35 C30 1.377 . S
C35 C34 1.383 . S
C35 H98 0.929 . S
C36 C32 1.527 . S
C36 H99 0.961 . S
C36 H100 0.959 . S
C36 H101 0.959 . S
C37 C34 1.603 . S
C37 H102 0.960 . S
C37 H103 0.962 . S
C37 H104 0.961 . S
C38 C5 1.587 . S
C38 C39 1.360 . S
C38 C51 1.412 . S
C39 C38 1.360 . S
C39 C40 1.365 . S
C39 H105 0.929 . S
C40 C15 1.553 1_455 S
C40 C39 1.365 . S
C40 C41 1.404 . S
C41 C40 1.404 . S
C41 C42 1.395 1_455 S
C41 C52 1.451 . S
C42 C41 1.395 1_655 S
C42 C43 1.322 . S
C42 H106 0.930 . S
C43 C42 1.322 . S
C43 C44 1.459 . S
C43 H107 0.929 . S
C44 C43 1.459 . S
C44 C45 1.445 . S
C44 C53 1.395 1_655 S
C45 C23 1.432 . S
C45 C44 1.445 . S
C45 C46 1.370 . S
C46 C45 1.370 . S
C46 C47 1.438 1_655 S
C46 H108 0.930 . S
C47 C33 1.497 . S
C47 C46 1.438 1_455 S
C47 C48 1.360 . S
C48 C47 1.360 . S
C48 C49 1.401 . S
C48 C53 1.446 . S
C49 C48 1.401 . S
C49 C50 1.347 . S
C49 H109 0.929 . S
C50 C49 1.347 . S
C50 C51 1.455 . S
C50 H110 0.930 . S
C51 C38 1.412 . S
C51 C50 1.455 . S
C51 C52 1.331 . S
C52 C41 1.451 . S
C52 C51 1.331 . S
C52 C53 1.497 . S
C53 C44 1.395 1_455 S
C53 C48 1.446 . S
C53 C52 1.497 . S
C54 C55 1.582 . S
C54 H111 0.962 . S
C54 H112 0.959 . S
C54 H113 0.958 . S
C55 C54 1.582 . S
C55 O58 1.458 . S
C55 H84 0.980 . S
O56 C1 1.426 . S
O56 C2 1.334 . S
O57 C29 1.412 . S
O57 C30 1.393 . S
O58 C20 1.435 . S
O58 C55 1.458 . S
O59 C11 1.468 . S
O59 C12 1.408 . S
H60 C1 0.980 . S
H61 C0 0.959 . S
H62 C0 0.959 . S
H63 C0 0.960 . S
H64 C3 0.929 . S
H65 C7 0.929 . S
H66 C8 0.959 . S
H67 C8 0.961 . S
H68 C8 0.961 . S
H69 C9 0.960 . S
H70 C9 0.960 . S
H71 C9 0.961 . S
H72 C11 0.980 . S
H73 C10 0.961 . S
H74 C10 0.960 . S
H75 C10 0.959 . S
H76 C13 0.930 . S
H77 C17 0.931 . S
H78 C18 0.959 1_455 S
H79 C18 0.961 1_455 S
H80 C18 0.959 . S
H81 C19 0.960 . S
H82 C19 0.960 1_455 S
H83 C19 0.960 . S
H84 C55 0.980 . S
H85 C21 0.930 . S
H86 C25 0.930 . S
H87 C26 0.961 . S
H88 C26 0.960 . S
H89 C26 0.958 . S
H90 C27 0.961 . S
H91 C27 0.960 . S
H92 C27 0.960 . S
H93 C29 0.980 . S
H94 C28 0.961 . S
H95 C28 0.961 . S
H96 C28 0.959 . S
H97 C31 0.932 . S
H98 C35 0.929 . S
H99 C36 0.961 . S
H100 C36 0.959 . S
H101 C36 0.959 . S
H102 C37 0.960 . S
H103 C37 0.962 . S
H104 C37 0.961 . S
H105 C39 0.929 . S
H106 C42 0.930 . S
H107 C43 0.929 . S
H108 C46 0.930 . S
H109 C49 0.929 . S
H110 C50 0.930 . S
H111 C54 0.962 . S
H112 C54 0.959 . S
H113 C54 0.958 . S
C114 C115 1.560 . S
C114 H175 0.959 . S
C114 H176 0.959 . S
C114 H177 0.960 . S
C115 C114 1.560 . S
C115 O170 1.426 . S
C115 H174 0.980 . S
C116 C117 1.407 . S
C116 C121 1.418 . S
C116 O170 1.334 . S
C117 C116 1.407 . S
C117 C118 1.360 . S
C117 H178 0.929 . S
C118 C117 1.360 . S
C118 C119 1.401 . S
C118 C122 1.527 . S
C119 C118 1.401 . S
C119 C120 1.405 . S
C119 C152 1.587 . S
C120 C119 1.405 . S
C120 C121 1.332 . S
C120 C123 1.496 . S
C121 C116 1.418 . S
C121 C120 1.332 . S
C121 H179 0.929 . S
C122 C118 1.527 . S
C122 H180 0.959 . S
C122 H181 0.961 . S
C122 H182 0.961 . S
C123 C120 1.496 . S
C123 H183 0.960 . S
C123 H184 0.960 . S
C123 H185 0.961 . S
C124 C125 1.517 . S
C124 H187 0.961 . S
C124 H188 0.960 . S
C124 H189 0.959 . S
C125 C124 1.517 . S
C125 O173 1.468 . S
C125 H186 0.980 . S
C126 C127 1.349 . S
C126 C131 1.367 . S
C126 O173 1.408 . S
C127 C126 1.349 . S
C127 C128 1.407 . S
C127 H190 0.930 . S
C128 C127 1.407 . S
C128 C129 1.449 . S
C128 C132 1.535 . S
C129 C128 1.449 . S
C129 C130 1.384 . S
C129 C154 1.553 . S
C130 C129 1.384 . S
C130 C131 1.364 . S
C130 C133 1.450 . S
C131 C126 1.367 . S
C131 C130 1.364 . S
C131 H191 0.931 . S
C132 C128 1.535 . S
C132 H192 0.959 . S
C132 H193 0.961 . S
C132 H194 0.959 . S
C133 C130 1.450 . S
C133 H195 0.960 . S
C133 H196 0.960 . S
C133 H197 0.960 . S
C134 C135 1.309 . S
C134 C139 1.304 . S
C134 O172 1.435 . S
C135 C134 1.309 . S
C135 C136 1.476 . S
C135 H199 0.930 . S
C136 C135 1.476 . S
C136 C137 1.400 . S
C136 C140 1.567 . S
C137 C136 1.400 . S
C137 C138 1.373 . S
C137 C159 1.432 . S
C138 C137 1.373 . S
C138 C139 1.339 . S
C138 C141 1.530 . S
C139 C134 1.304 . S
C139 C138 1.339 . S
C139 H200 0.930 . S
C140 C136 1.567 . S
C140 H201 0.961 . S
C140 H202 0.960 . S
C140 H203 0.958 . S
C141 C138 1.530 . S
C141 H204 0.961 . S
C141 H205 0.960 . S
C141 H206 0.960 . S
C142 C143 1.530 . S
C142 H208 0.961 . S
C142 H209 0.961 . S
C142 H210 0.959 . S
C143 C142 1.530 . S
C143 O171 1.412 . S
C143 H207 0.980 . S
C144 C145 1.288 . S
C144 C149 1.377 . S
C144 O171 1.393 . S
C145 C144 1.288 . S
C145 C146 1.369 . S
C145 H211 0.932 . S
C146 C145 1.369 . S
C146 C147 1.398 . S
C146 C150 1.527 1_565 S
C147 C146 1.398 . S
C147 C148 1.380 . S
C147 C161 1.497 1_565 S
C148 C147 1.380 . S
C148 C149 1.383 . S
C148 C151 1.603 . S
C149 C144 1.377 . S
C149 C148 1.383 . S
C149 H212 0.929 . S
C150 C146 1.527 1_545 S
C150 H213 0.961 . S
C150 H214 0.959 . S
C150 H215 0.959 1_545 S
C151 C148 1.603 . S
C151 H216 0.960 . S
C151 H217 0.962 1_565 S
C151 H218 0.961 . S
C152 C119 1.587 . S
C152 C153 1.360 . S
C152 C165 1.412 . S
C153 C152 1.360 . S
C153 C154 1.365 1_565 S
C153 H219 0.929 . S
C154 C129 1.553 . S
C154 C153 1.365 1_545 S
C154 C155 1.404 . S
C155 C154 1.404 . S
C155 C156 1.395 . S
C155 C166 1.451 . S
C156 C155 1.395 . S
C156 C157 1.322 . S
C156 H220 0.930 . S
C157 C156 1.322 . S
C157 C158 1.459 . S
C157 H221 0.929 . S
C158 C157 1.459 . S
C158 C159 1.445 . S
C158 C167 1.395 . S
C159 C137 1.432 . S
C159 C158 1.445 . S
C159 C160 1.370 . S
C160 C159 1.370 . S
C160 C161 1.438 . S
C160 H222 0.930 . S
C161 C147 1.497 1_545 S
C161 C160 1.438 . S
C161 C162 1.360 . S
C162 C161 1.360 . S
C162 C163 1.401 1_545 S
C162 C167 1.446 . S
C163 C162 1.401 1_565 S
C163 C164 1.347 . S
C163 H223 0.929 . S
C164 C163 1.347 . S
C164 C165 1.455 . S
C164 H224 0.930 . S
C165 C152 1.412 . S
C165 C164 1.455 . S
C165 C166 1.331 1_565 S
C166 C155 1.451 . S
C166 C165 1.331 1_545 S
C166 C167 1.497 . S
C167 C158 1.395 . S
C167 C162 1.446 . S
C167 C166 1.497 . S
C168 C169 1.582 . S
C168 H225 0.962 . S
C168 H226 0.959 . S
C168 H227 0.958 . S
C169 C168 1.582 . S
C169 O172 1.458 . S
C169 H198 0.980 . S
O170 C115 1.426 . S
O170 C116 1.334 . S
O171 C143 1.412 . S
O171 C144 1.393 . S
O172 C134 1.435 . S
O172 C169 1.458 . S
O173 C125 1.468 . S
O173 C126 1.408 . S
H174 C115 0.980 . S
H175 C114 0.959 . S
H176 C114 0.959 . S
H177 C114 0.960 . S
H178 C117 0.929 . S
H179 C121 0.929 . S
H180 C122 0.959 . S
H181 C122 0.961 . S
H182 C122 0.961 . S
H183 C123 0.960 . S
H184 C123 0.960 . S
H185 C123 0.961 . S
H186 C125 0.980 . S
H187 C124 0.961 . S
H188 C124 0.960 . S
H189 C124 0.959 . S
H190 C127 0.930 . S
H191 C131 0.931 . S
H192 C132 0.959 . S
H193 C132 0.961 . S
H194 C132 0.959 . S
H195 C133 0.960 . S
H196 C133 0.960 . S
H197 C133 0.960 . S
H198 C169 0.980 . S
H199 C135 0.930 . S
H200 C139 0.930 . S
H201 C140 0.961 . S
H202 C140 0.960 . S
H203 C140 0.958 . S
H204 C141 0.961 . S
H205 C141 0.960 . S
H206 C141 0.960 . S
H207 C143 0.980 . S
H208 C142 0.961 . S
H209 C142 0.961 . S
H210 C142 0.959 . S
H211 C145 0.932 . S
H212 C149 0.929 . S
H213 C150 0.961 . S
H214 C150 0.959 . S
H215 C150 0.959 1_565 S
H216 C151 0.960 . S
H217 C151 0.962 1_545 S
H218 C151 0.961 . S
H219 C153 0.929 . S
H220 C156 0.930 . S
H221 C157 0.929 . S
H222 C160 0.930 . S
H223 C163 0.929 . S
H224 C164 0.930 . S
H225 C168 0.962 . S
H226 C168 0.959 . S
H227 C168 0.958 . S
C228 C229 1.560 . S
C228 H289 0.959 . S
C228 H290 0.959 . S
C228 H291 0.960 . S
C229 C228 1.560 . S
C229 O284 1.426 . S
C229 H288 0.980 . S
C230 C231 1.407 . S
C230 C235 1.418 . S
C230 O284 1.334 . S
C231 C230 1.407 . S
C231 C232 1.360 . S
C231 H292 0.929 . S
C232 C231 1.360 . S
C232 C233 1.401 . S
C232 C236 1.527 . S
C233 C232 1.401 . S
C233 C234 1.405 . S
C233 C266 1.587 . S
C234 C233 1.405 . S
C234 C235 1.332 . S
C234 C237 1.496 . S
C235 C230 1.418 . S
C235 C234 1.332 . S
C235 H293 0.929 . S
C236 C232 1.527 . S
C236 H294 0.959 . S
C236 H295 0.961 . S
C236 H296 0.961 . S
C237 C234 1.496 . S
C237 H297 0.960 . S
C237 H298 0.960 . S
C237 H299 0.961 . S
C238 C239 1.517 . S
C238 H301 0.961 . S
C238 H302 0.960 . S
C238 H303 0.959 . S
C239 C238 1.517 . S
C239 O287 1.468 . S
C239 H300 0.980 . S
C240 C241 1.349 . S
C240 C245 1.367 . S
C240 O287 1.408 . S
C241 C240 1.349 . S
C241 C242 1.407 . S
C241 H304 0.930 . S
C242 C241 1.407 . S
C242 C243 1.449 . S
C242 C246 1.535 . S
C243 C242 1.449 . S
C243 C244 1.384 . S
C243 C268 1.553 . S
C244 C243 1.384 . S
C244 C245 1.364 . S
C244 C247 1.450 . S
C245 C240 1.367 . S
C245 C244 1.364 . S
C245 H305 0.931 . S
C246 C242 1.535 . S
C246 H306 0.959 . S
C246 H307 0.961 . S
C246 H308 0.959 . S
C247 C244 1.450 . S
C247 H309 0.960 . S
C247 H310 0.960 . S
C247 H311 0.960 . S
C248 C249 1.309 . S
C248 C253 1.304 . S
C248 O286 1.435 . S
C249 C248 1.309 . S
C249 C250 1.476 . S
C249 H313 0.930 . S
C250 C249 1.476 . S
C250 C251 1.400 . S
C250 C254 1.567 . S
C251 C250 1.400 . S
C251 C252 1.373 . S
C251 C273 1.432 . S
C252 C251 1.373 . S
C252 C253 1.339 . S
C252 C255 1.530 . S
C253 C248 1.304 . S
C253 C252 1.339 . S
C253 H314 0.930 . S
C254 C250 1.567 . S
C254 H315 0.961 . S
C254 H316 0.960 . S
C254 H317 0.958 . S
C255 C252 1.530 . S
C255 H318 0.961 . S
C255 H319 0.960 . S
C255 H320 0.960 . S
C256 C257 1.530 . S
C256 H322 0.961 . S
C256 H323 0.961 . S
C256 H324 0.959 . S
C257 C256 1.530 . S
C257 O285 1.412 . S
C257 H321 0.980 . S
C258 C259 1.288 . S
C258 C263 1.377 . S
C258 O285 1.393 . S
C259 C258 1.288 . S
C259 C260 1.369 . S
C259 H325 0.932 . S
C260 C259 1.369 . S
C260 C261 1.398 . S
C260 C264 1.527 . S
C261 C260 1.398 . S
C261 C262 1.380 . S
C261 C275 1.497 . S
C262 C261 1.380 . S
C262 C263 1.383 . S
C262 C265 1.603 . S
C263 C258 1.377 . S
C263 C262 1.383 . S
C263 H326 0.929 . S
C264 C260 1.527 . S
C264 H327 0.961 . S
C264 H328 0.959 . S
C264 H329 0.959 . S
C265 C262 1.603 . S
C265 H330 0.960 . S
C265 H331 0.962 . S
C265 H332 0.961 . S
C266 C233 1.587 . S
C266 C267 1.360 . S
C266 C279 1.412 . S
C267 C266 1.360 . S
C267 C268 1.365 . S
C267 H333 0.929 . S
C268 C243 1.553 . S
C268 C267 1.365 . S
C268 C269 1.404 . S
C269 C268 1.404 . S
C269 C270 1.395 . S
C269 C280 1.451 . S
C270 C269 1.395 . S
C270 C271 1.322 . S
C270 H334 0.930 . S
C271 C270 1.322 . S
C271 C272 1.459 . S
C271 H335 0.929 . S
C272 C271 1.459 . S
C272 C273 1.445 . S
C272 C281 1.395 . S
C273 C251 1.432 . S
C273 C272 1.445 . S
C273 C274 1.370 . S
C274 C273 1.370 . S
C274 C275 1.438 . S
C274 H336 0.930 . S
C275 C261 1.497 . S
C275 C274 1.438 . S
C275 C276 1.360 . S
C276 C275 1.360 . S
C276 C277 1.401 . S
C276 C281 1.446 . S
C277 C276 1.401 . S
C277 C278 1.347 . S
C277 H337 0.929 . S
C278 C277 1.347 . S
C278 C279 1.455 . S
C278 H338 0.930 . S
C279 C266 1.412 . S
C279 C278 1.455 . S
C279 C280 1.331 . S
C280 C269 1.451 . S
C280 C279 1.331 . S
C280 C281 1.497 . S
C281 C272 1.395 . S
C281 C276 1.446 . S
C281 C280 1.497 . S
C282 C283 1.582 . S
C282 H339 0.962 . S
C282 H340 0.959 . S
C282 H341 0.958 . S
C283 C282 1.582 . S
C283 O286 1.458 . S
C283 H312 0.980 . S
O284 C229 1.426 . S
O284 C230 1.334 . S
O285 C257 1.412 . S
O285 C258 1.393 . S
O286 C248 1.435 . S
O286 C283 1.458 . S
O287 C239 1.468 . S
O287 C240 1.408 . S
H288 C229 0.980 . S
H289 C228 0.959 . S
H290 C228 0.959 . S
H291 C228 0.960 . S
H292 C231 0.929 . S
H293 C235 0.929 . S
H294 C236 0.959 . S
H295 C236 0.961 . S
H296 C236 0.961 . S
H297 C237 0.960 . S
H298 C237 0.960 . S
H299 C237 0.961 . S
H300 C239 0.980 . S
H301 C238 0.961 . S
H302 C238 0.960 . S
H303 C238 0.959 . S
H304 C241 0.930 . S
H305 C245 0.931 . S
H306 C246 0.959 . S
H307 C246 0.961 . S
H308 C246 0.959 . S
H309 C247 0.960 . S
H310 C247 0.960 . S
H311 C247 0.960 . S
H312 C283 0.980 . S
H313 C249 0.930 . S
H314 C253 0.930 . S
H315 C254 0.961 . S
H316 C254 0.960 . S
H317 C254 0.958 . S
H318 C255 0.961 . S
H319 C255 0.960 . S
H320 C255 0.960 . S
H321 C257 0.980 . S
H322 C256 0.961 . S
H323 C256 0.961 . S
H324 C256 0.959 . S
H325 C259 0.932 . S
H326 C263 0.929 . S
H327 C264 0.961 . S
H328 C264 0.959 . S
H329 C264 0.959 . S
H330 C265 0.960 . S
H331 C265 0.962 . S
H332 C265 0.961 . S
H333 C267 0.929 . S
H334 C270 0.930 . S
H335 C271 0.929 . S
H336 C274 0.930 . S
H337 C277 0.929 . S
H338 C278 0.930 . S
H339 C282 0.962 . S
H340 C282 0.959 . S
H341 C282 0.958 . S
C342 C343 1.560 . S
C342 H403 0.959 . S
C342 H404 0.959 . S
C342 H405 0.960 . S
C343 C342 1.560 . S
C343 O398 1.426 . S
C343 H402 0.980 . S
C344 C345 1.407 . S
C344 C349 1.418 . S
C344 O398 1.334 . S
C345 C344 1.407 . S
C345 C346 1.360 . S
C345 H406 0.929 . S
C346 C345 1.360 . S
C346 C347 1.401 . S
C346 C350 1.527 . S
C347 C346 1.401 . S
C347 C348 1.405 . S
C347 C380 1.587 . S
C348 C347 1.405 . S
C348 C349 1.332 . S
C348 C351 1.496 . S
C349 C344 1.418 . S
C349 C348 1.332 . S
C349 H407 0.929 . S
C350 C346 1.527 . S
C350 H408 0.959 . S
C350 H409 0.961 . S
C350 H410 0.961 . S
C351 C348 1.496 . S
C351 H411 0.960 . S
C351 H412 0.960 . S
C351 H413 0.961 . S
C352 C353 1.517 . S
C352 H415 0.961 . S
C352 H416 0.960 . S
C352 H417 0.959 . S
C353 C352 1.517 . S
C353 O401 1.468 . S
C353 H414 0.980 . S
C354 C355 1.349 . S
C354 C359 1.367 . S
C354 O401 1.408 . S
C355 C354 1.349 . S
C355 C356 1.407 . S
C355 H418 0.930 . S
C356 C355 1.407 . S
C356 C357 1.449 . S
C356 C360 1.540 . S
C357 C356 1.449 . S
C357 C358 1.384 . S
C357 C382 1.553 1_655 S
C358 C357 1.384 . S
C358 C359 1.364 . S
C358 C361 1.450 . S
C359 C354 1.367 . S
C359 C358 1.364 . S
C359 H419 0.931 . S
C360 C356 1.540 . S
C360 H420 0.955 1_655 S
C360 H421 0.957 1_655 S
C360 H422 0.962 . S
C361 C358 1.450 . S
C361 H423 0.960 . S
C361 H424 0.960 1_655 S
C361 H425 0.960 . S
C362 C363 1.309 . S
C362 C367 1.304 . S
C362 O400 1.435 . S
C363 C362 1.309 . S
C363 C364 1.476 . S
C363 H427 0.930 . S
C364 C363 1.476 . S
C364 C365 1.400 . S
C364 C368 1.567 . S
C365 C364 1.400 . S
C365 C366 1.373 . S
C365 C387 1.432 . S
C366 C365 1.373 . S
C366 C367 1.339 . S
C366 C369 1.530 . S
C367 C362 1.304 . S
C367 C366 1.339 . S
C367 H428 0.930 . S
C368 C364 1.567 . S
C368 H429 0.961 . S
C368 H430 0.960 . S
C368 H431 0.958 . S
C369 C366 1.530 . S
C369 H432 0.961 . S
C369 H433 0.960 . S
C369 H434 0.960 . S
C370 C371 1.530 . S
C370 H436 0.961 . S
C370 H437 0.961 . S
C370 H438 0.959 . S
C371 C370 1.530 . S
C371 O399 1.412 . S
C371 H435 0.980 . S
C372 C373 1.288 . S
C372 C377 1.377 . S
C372 O399 1.393 . S
C373 C372 1.288 . S
C373 C374 1.369 . S
C373 H439 0.932 . S
C374 C373 1.369 . S
C374 C375 1.398 . S
C374 C378 1.527 . S
C375 C374 1.398 . S
C375 C376 1.380 . S
C375 C389 1.497 . S
C376 C375 1.380 . S
C376 C377 1.383 . S
C376 C379 1.603 . S
C377 C372 1.377 . S
C377 C376 1.383 . S
C377 H440 0.929 . S
C378 C374 1.527 . S
C378 H441 0.961 . S
C378 H442 0.987 . S
C378 H443 0.959 . S
C379 C376 1.603 . S
C379 H444 0.960 . S
C379 H445 0.962 . S
C379 H446 0.961 . S
C380 C347 1.587 . S
C380 C381 1.360 . S
C380 C393 1.412 . S
C381 C380 1.360 . S
C381 C382 1.365 . S
C381 H447 0.929 . S
C382 C357 1.553 1_455 S
C382 C381 1.365 . S
C382 C383 1.404 . S
C383 C382 1.404 . S
C383 C384 1.395 1_455 S
C383 C394 1.451 . S
C384 C383 1.395 1_655 S
C384 C385 1.322 . S
C384 H448 0.930 . S
C385 C384 1.322 . S
C385 C386 1.459 . S
C385 H449 0.929 . S
C386 C385 1.459 . S
C386 C387 1.445 . S
C386 C395 1.395 1_655 S
C387 C365 1.432 . S
C387 C386 1.445 . S
C387 C388 1.370 . S
C388 C387 1.370 . S
C388 C389 1.438 1_655 S
C388 H450 0.930 . S
C389 C375 1.497 . S
C389 C388 1.438 1_455 S
C389 C390 1.360 . S
C390 C389 1.360 . S
C390 C391 1.401 . S
C390 C395 1.446 . S
C391 C390 1.401 . S
C391 C392 1.347 . S
C391 H451 0.929 . S
C392 C391 1.347 . S
C392 C393 1.455 . S
C392 H452 0.930 . S
C393 C380 1.412 . S
C393 C392 1.455 . S
C393 C394 1.331 . S
C394 C383 1.451 . S
C394 C393 1.331 . S
C394 C395 1.497 . S
C395 C386 1.395 1_455 S
C395 C390 1.446 . S
C395 C394 1.497 . S
C396 C397 1.582 . S
C396 H453 0.962 . S
C396 H454 0.959 . S
C396 H455 0.958 . S
C397 C396 1.582 . S
C397 O400 1.458 . S
C397 H426 0.980 . S
O398 C343 1.426 . S
O398 C344 1.334 . S
O399 C371 1.412 . S
O399 C372 1.393 . S
O400 C362 1.435 . S
O400 C397 1.458 . S
O401 C353 1.468 . S
O401 C354 1.408 . S
H402 C343 0.980 . S
H403 C342 0.959 . S
H404 C342 0.959 . S
H405 C342 0.960 . S
H406 C345 0.929 . S
H407 C349 0.929 . S
H408 C350 0.959 . S
H409 C350 0.961 . S
H410 C350 0.961 . S
H411 C351 0.960 . S
H412 C351 0.960 . S
H413 C351 0.961 . S
H414 C353 0.980 . S
H415 C352 0.961 . S
H416 C352 0.960 . S
H417 C352 0.959 . S
H418 C355 0.930 . S
H419 C359 0.931 . S
H420 C360 0.955 1_455 S
H421 C360 0.957 1_455 S
H422 C360 0.962 . S
H423 C361 0.960 . S
H424 C361 0.960 1_455 S
H425 C361 0.960 . S
H426 C397 0.980 . S
H427 C363 0.930 . S
H428 C367 0.930 . S
H429 C368 0.961 . S
H430 C368 0.960 . S
H431 C368 0.958 . S
H432 C369 0.961 . S
H433 C369 0.960 . S
H434 C369 0.960 . S
H435 C371 0.980 . S
H436 C370 0.961 . S
H437 C370 0.961 . S
H438 C370 0.959 . S
H439 C373 0.932 . S
H440 C377 0.929 . S
H441 C378 0.961 . S
H442 C378 0.987 . S
H443 C378 0.959 . S
H444 C379 0.960 . S
H445 C379 0.962 . S
H446 C379 0.961 . S
H447 C381 0.929 . S
H448 C384 0.930 . S
H449 C385 0.929 . S
H450 C388 0.930 . S
H451 C391 0.929 . S
H452 C392 0.930 . S
H453 C396 0.962 . S
H454 C396 0.959 . S
H455 C396 0.958 . S
C456 C457 1.560 . S
C456 H517 0.959 . S
C456 H518 0.959 . S
C456 H519 0.960 . S
C457 C456 1.560 . S
C457 O512 1.426 . S
C457 H516 0.980 . S
C458 C459 1.407 . S
C458 C463 1.418 . S
C458 O512 1.334 . S
C459 C458 1.407 . S
C459 C460 1.360 . S
C459 H520 0.929 . S
C460 C459 1.360 . S
C460 C461 1.401 . S
C460 C464 1.527 . S
C461 C460 1.401 . S
C461 C462 1.405 . S
C461 C494 1.587 . S
C462 C461 1.405 . S
C462 C463 1.332 . S
C462 C465 1.496 . S
C463 C458 1.418 . S
C463 C462 1.332 . S
C463 H521 0.929 . S
C464 C460 1.527 . S
C464 H522 0.959 . S
C464 H523 0.961 . S
C464 H524 0.961 . S
C465 C462 1.496 . S
C465 H525 0.960 . S
C465 H526 0.960 . S
C465 H527 0.961 . S
C466 C467 1.517 . S
C466 H529 0.961 . S
C466 H530 0.960 . S
C466 H531 0.959 . S
C467 C466 1.517 . S
C467 O515 1.468 . S
C467 H528 0.980 . S
C468 C469 1.349 . S
C468 C473 1.367 . S
C468 O515 1.408 . S
C469 C468 1.349 . S
C469 C470 1.407 . S
C469 H532 0.930 . S
C470 C469 1.407 . S
C470 C471 1.449 . S
C470 C474 1.535 . S
C471 C470 1.449 . S
C471 C472 1.384 . S
C471 C496 1.553 . S
C472 C471 1.384 . S
C472 C473 1.364 . S
C472 C475 1.450 . S
C473 C468 1.367 . S
C473 C472 1.364 . S
C473 H533 0.931 . S
C474 C470 1.535 . S
C474 H534 0.959 . S
C474 H535 0.961 . S
C474 H536 0.959 . S
C475 C472 1.450 . S
C475 H537 0.960 . S
C475 H538 0.960 . S
C475 H539 0.960 . S
C476 C477 1.309 . S
C476 C481 1.304 . S
C476 O514 1.435 . S
C477 C476 1.309 . S
C477 C478 1.476 . S
C477 H541 0.930 . S
C478 C477 1.476 . S
C478 C479 1.400 . S
C478 C482 1.567 . S
C479 C478 1.400 . S
C479 C480 1.373 . S
C479 C501 1.432 . S
C480 C479 1.373 . S
C480 C481 1.339 . S
C480 C483 1.530 . S
C481 C476 1.304 . S
C481 C480 1.339 . S
C481 H542 0.930 . S
C482 C478 1.567 . S
C482 H543 0.961 . S
C482 H544 0.960 . S
C482 H545 0.958 . S
C483 C480 1.530 . S
C483 H546 0.961 . S
C483 H547 0.960 . S
C483 H548 0.960 . S
C484 C485 1.530 . S
C484 H550 0.961 . S
C484 H551 0.961 . S
C484 H552 0.959 . S
C485 C484 1.530 . S
C485 O513 1.412 . S
C485 H549 0.980 . S
C486 C487 1.288 . S
C486 C491 1.377 . S
C486 O513 1.393 . S
C487 C486 1.288 . S
C487 C488 1.369 . S
C487 H553 0.932 . S
C488 C487 1.369 . S
C488 C489 1.398 . S
C488 C492 1.527 1_565 S
C489 C488 1.398 . S
C489 C490 1.380 . S
C489 C503 1.497 1_565 S
C490 C489 1.380 . S
C490 C491 1.383 . S
C490 C493 1.603 . S
C491 C486 1.377 . S
C491 C490 1.383 . S
C491 H554 0.929 . S
C492 C488 1.527 1_545 S
C492 H555 0.961 . S
C492 H556 0.959 . S
C492 H557 0.959 . S
C493 C490 1.603 . S
C493 H558 0.960 . S
C493 H559 0.962 . S
C493 H560 0.961 . S
C494 C461 1.587 . S
C494 C495 1.360 . S
C494 C507 1.412 . S
C495 C494 1.360 . S
C495 C496 1.365 1_565 S
C495 H561 0.929 . S
C496 C471 1.553 . S
C496 C495 1.365 1_545 S
C496 C497 1.404 . S
C497 C496 1.404 . S
C497 C498 1.395 . S
C497 C508 1.451 . S
C498 C497 1.395 . S
C498 C499 1.322 . S
C498 H562 0.930 . S
C499 C498 1.322 . S
C499 C500 1.459 . S
C499 H563 0.929 . S
C500 C499 1.459 . S
C500 C501 1.445 1_556 S
C500 C509 1.395 . S
C501 C479 1.432 . S
C501 C500 1.445 1_554 S
C501 C502 1.370 . S
C502 C501 1.370 . S
C502 C503 1.438 . S
C502 H564 0.930 . S
C503 C489 1.497 1_545 S
C503 C502 1.438 . S
C503 C504 1.360 . S
C504 C503 1.360 . S
C504 C505 1.401 1_545 S
C504 C509 1.446 1_554 S
C505 C504 1.401 1_565 S
C505 C506 1.347 1_554 S
C505 H565 0.929 . S
C506 C505 1.347 1_556 S
C506 C507 1.455 . S
C506 H566 0.930 . S
C507 C494 1.412 . S
C507 C506 1.455 . S
C507 C508 1.331 1_565 S
C508 C497 1.451 . S
C508 C507 1.331 1_545 S
C508 C509 1.497 . S
C509 C500 1.395 . S
C509 C504 1.446 1_556 S
C509 C508 1.497 . S
C510 C511 1.582 . S
C510 H567 0.962 . S
C510 H568 0.959 . S
C510 H569 0.958 . S
C511 C510 1.582 . S
C511 O514 1.458 . S
C511 H540 0.980 . S
O512 C457 1.426 . S
O512 C458 1.334 . S
O513 C485 1.412 . S
O513 C486 1.393 . S
O514 C476 1.435 . S
O514 C511 1.458 . S
O515 C467 1.468 . S
O515 C468 1.408 . S
H516 C457 0.980 . S
H517 C456 0.959 . S
H518 C456 0.959 . S
H519 C456 0.960 . S
H520 C459 0.929 . S
H521 C463 0.929 . S
H522 C464 0.959 . S
H523 C464 0.961 . S
H524 C464 0.961 . S
H525 C465 0.960 . S
H526 C465 0.960 . S
H527 C465 0.961 . S
H528 C467 0.980 . S
H529 C466 0.961 . S
H530 C466 0.960 . S
H531 C466 0.959 . S
H532 C469 0.930 . S
H533 C473 0.931 . S
H534 C474 0.959 . S
H535 C474 0.961 . S
H536 C474 0.959 . S
H537 C475 0.960 . S
H538 C475 0.960 . S
H539 C475 0.960 . S
H540 C511 0.980 . S
H541 C477 0.930 . S
H542 C481 0.930 . S
H543 C482 0.961 . S
H544 C482 0.960 . S
H545 C482 0.958 . S
H546 C483 0.961 . S
H547 C483 0.960 . S
H548 C483 0.960 . S
H549 C485 0.980 . S
H550 C484 0.961 . S
H551 C484 0.961 . S
H552 C484 0.959 . S
H553 C487 0.932 . S
H554 C491 0.929 . S
H555 C492 0.961 . S
H556 C492 0.959 . S
H557 C492 0.959 . S
H558 C493 0.960 . S
H559 C493 0.962 . S
H560 C493 0.961 . S
H561 C495 0.929 . S
H562 C498 0.930 . S
H563 C499 0.929 . S
H564 C502 0.930 . S
H565 C505 0.929 . S
H566 C506 0.930 . S
H567 C510 0.962 . S
H568 C510 0.959 . S
H569 C510 0.958 . S
C570 C571 1.560 . S
C570 H631 0.959 . S
C570 H632 0.959 . S
C570 H633 0.960 . S
C571 C570 1.560 . S
C571 O626 1.426 . S
C571 H630 0.980 . S
C572 C573 1.407 . S
C572 C577 1.418 . S
C572 O626 1.334 . S
C573 C572 1.407 . S
C573 C574 1.360 . S
C573 H634 0.929 . S
C574 C573 1.360 . S
C574 C575 1.401 . S
C574 C578 1.527 . S
C575 C574 1.401 . S
C575 C576 1.405 . S
C575 C608 1.587 . S
C576 C575 1.405 . S
C576 C577 1.332 . S
C576 C579 1.496 . S
C577 C572 1.418 . S
C577 C576 1.332 . S
C577 H635 0.929 . S
C578 C574 1.527 . S
C578 H636 0.959 . S
C578 H637 0.961 . S
C578 H638 0.961 . S
C579 C576 1.496 . S
C579 H639 0.960 . S
C579 H640 0.960 . S
C579 H641 0.961 . S
C580 C581 1.517 . S
C580 H643 0.961 . S
C580 H644 0.960 . S
C580 H645 0.959 . S
C581 C580 1.517 . S
C581 O629 1.468 . S
C581 H642 0.980 . S
C582 C583 1.349 . S
C582 C587 1.367 . S
C582 O629 1.408 . S
C583 C582 1.349 . S
C583 C584 1.407 . S
C583 H646 0.930 . S
C584 C583 1.407 . S
C584 C585 1.449 . S
C584 C588 1.535 . S
C585 C584 1.449 . S
C585 C586 1.384 . S
C585 C610 1.553 . S
C586 C585 1.384 . S
C586 C587 1.364 . S
C586 C589 1.450 . S
C587 C582 1.367 . S
C587 C586 1.364 . S
C587 H647 0.931 . S
C588 C584 1.535 . S
C588 H648 0.959 . S
C588 H649 0.961 . S
C588 H650 0.959 . S
C589 C586 1.450 . S
C589 H651 0.960 . S
C589 H652 0.960 . S
C589 H653 0.960 . S
C590 C591 1.309 . S
C590 C595 1.304 . S
C590 O628 1.435 . S
C591 C590 1.309 . S
C591 C592 1.476 . S
C591 H655 0.930 . S
C592 C591 1.476 . S
C592 C593 1.400 . S
C592 C596 1.567 . S
C593 C592 1.400 . S
C593 C594 1.373 . S
C593 C615 1.432 . S
C594 C593 1.373 . S
C594 C595 1.339 . S
C594 C597 1.530 . S
C595 C590 1.304 . S
C595 C594 1.339 . S
C595 H656 0.930 . S
C596 C592 1.567 . S
C596 H657 0.961 . S
C596 H658 0.960 . S
C596 H659 0.958 . S
C597 C594 1.530 . S
C597 H660 0.961 . S
C597 H661 0.960 . S
C597 H662 0.960 . S
C598 C599 1.530 . S
C598 H664 0.961 . S
C598 H665 0.961 . S
C598 H666 0.959 . S
C599 C598 1.530 . S
C599 O627 1.412 . S
C599 H663 0.980 . S
C600 C601 1.288 . S
C600 C605 1.377 . S
C600 O627 1.393 . S
C601 C600 1.288 . S
C601 C602 1.369 . S
C601 H667 0.932 . S
C602 C601 1.369 . S
C602 C603 1.398 . S
C602 C606 1.527 . S
C603 C602 1.398 . S
C603 C604 1.380 . S
C603 C617 1.497 . S
C604 C603 1.380 . S
C604 C605 1.383 . S
C604 C607 1.603 . S
C605 C600 1.377 . S
C605 C604 1.383 . S
C605 H668 0.929 . S
C606 C602 1.527 . S
C606 H669 0.961 . S
C606 H670 0.959 . S
C606 H671 0.959 . S
C607 C604 1.603 . S
C607 H672 0.960 . S
C607 H673 0.962 . S
C607 H674 0.961 . S
C608 C575 1.587 . S
C608 C609 1.360 . S
C608 C621 1.412 . S
C609 C608 1.360 . S
C609 C610 1.365 . S
C609 H675 0.929 . S
C610 C585 1.553 . S
C610 C609 1.365 . S
C610 C611 1.404 . S
C611 C610 1.404 . S
C611 C612 1.395 . S
C611 C622 1.451 . S
C612 C611 1.395 . S
C612 C613 1.322 . S
C612 H676 0.930 . S
C613 C612 1.322 . S
C613 C614 1.459 . S
C613 H677 0.929 . S
C614 C613 1.459 . S
C614 C615 1.445 . S
C614 C623 1.395 . S
C615 C593 1.432 . S
C615 C614 1.445 . S
C615 C616 1.370 . S
C616 C615 1.370 . S
C616 C617 1.438 . S
C616 H678 0.930 . S
C617 C603 1.497 . S
C617 C616 1.438 . S
C617 C618 1.360 . S
C618 C617 1.360 . S
C618 C619 1.401 . S
C618 C623 1.446 . S
C619 C618 1.401 . S
C619 C620 1.347 . S
C619 H679 0.929 . S
C620 C619 1.347 . S
C620 C621 1.455 . S
C620 H680 0.930 . S
C621 C608 1.412 . S
C621 C620 1.455 . S
C621 C622 1.331 . S
C622 C611 1.451 . S
C622 C621 1.331 . S
C622 C623 1.497 . S
C623 C614 1.395 . S
C623 C618 1.446 . S
C623 C622 1.497 . S
C624 C625 1.582 . S
C624 H681 0.962 . S
C624 H682 0.959 . S
C624 H683 0.958 . S
C625 C624 1.582 . S
C625 O628 1.458 . S
C625 H654 0.980 . S
O626 C571 1.426 . S
O626 C572 1.334 . S
O627 C599 1.412 . S
O627 C600 1.393 . S
O628 C590 1.435 . S
O628 C625 1.458 . S
O629 C581 1.468 . S
O629 C582 1.408 . S
H630 C571 0.980 . S
H631 C570 0.959 . S
H632 C570 0.959 . S
H633 C570 0.960 . S
H634 C573 0.929 . S
H635 C577 0.929 . S
H636 C578 0.959 . S
H637 C578 0.961 . S
H638 C578 0.961 . S
H639 C579 0.960 . S
H640 C579 0.960 . S
H641 C579 0.961 . S
H642 C581 0.980 . S
H643 C580 0.961 . S
H644 C580 0.960 . S
H645 C580 0.959 . S
H646 C583 0.930 . S
H647 C587 0.931 . S
H648 C588 0.959 . S
H649 C588 0.961 . S
H650 C588 0.959 . S
H651 C589 0.960 . S
H652 C589 0.960 . S
H653 C589 0.960 . S
H654 C625 0.980 . S
H655 C591 0.930 . S
H656 C595 0.930 . S
H657 C596 0.961 . S
H658 C596 0.960 . S
H659 C596 0.958 . S
H660 C597 0.961 . S
H661 C597 0.960 . S
H662 C597 0.960 . S
H663 C599 0.980 . S
H664 C598 0.961 . S
H665 C598 0.961 . S
H666 C598 0.959 . S
H667 C601 0.932 . S
H668 C605 0.929 . S
H669 C606 0.961 . S
H670 C606 0.959 . S
H671 C606 0.959 . S
H672 C607 0.960 . S
H673 C607 0.962 . S
H674 C607 0.961 . S
H675 C609 0.929 . S
H676 C612 0.930 . S
H677 C613 0.929 . S
H678 C616 0.930 . S
H679 C619 0.929 . S
H680 C620 0.930 . S
H681 C624 0.962 . S
H682 C624 0.959 . S
H683 C624 0.958 . S
C684 O685 1.160 . S
C684 O691 1.185 . S
O685 C684 1.160 . S
O686 Zn687 1.899 . S
O686 C694 1.284 . S
Zn687 O686 1.899 . S
Zn687 O688 2.032 . S
Zn687 O691 2.086 . S
Zn687 O696 1.977 . S
O688 Zn687 2.032 . S
O688 C692 1.278 . S
C689 O690 1.203 . S
C689 O696 1.267 . S
O690 C689 1.203 . S
O691 C684 1.185 . S
O691 Zn687 2.086 . S
C692 O688 1.278 . S
C692 O693 1.211 . S
O693 C692 1.211 . S
C694 O686 1.284 . S
C694 O695 1.273 . S
O695 C694 1.273 . S
O696 Zn687 1.977 . S
O696 C689 1.267 . S
C697 O698 1.160 . S
C697 O704 1.185 . S
O698 C697 1.160 . S
O699 Zn700 1.899 . S
O699 C707 1.284 . S
Zn700 O699 1.899 . S
Zn700 O701 2.032 . S
Zn700 O704 2.086 . S
Zn700 O709 1.977 . S
O701 Zn700 2.032 . S
O701 C705 1.278 . S
C702 O703 1.203 . S
C702 O709 1.267 . S
O703 C702 1.203 . S
O704 C697 1.185 . S
O704 Zn700 2.086 . S
C705 O701 1.278 . S
C705 O706 1.211 . S
O706 C705 1.211 . S
C707 O699 1.284 . S
C707 O708 1.273 . S
O708 C707 1.273 . S
O709 Zn700 1.977 . S
O709 C702 1.267 . S
C710 O711 1.160 . S
C710 O717 1.185 . S
O711 C710 1.160 . S
O712 Zn713 1.899 . S
O712 C720 1.284 . S
Zn713 O712 1.899 . S
Zn713 O714 2.032 . S
Zn713 O717 2.086 . S
Zn713 O722 1.977 . S
O714 Zn713 2.032 . S
O714 C718 1.278 . S
C715 O716 1.203 . S
C715 O722 1.267 . S
O716 C715 1.203 . S
O717 C710 1.185 . S
O717 Zn713 2.086 . S
C718 O714 1.278 . S
C718 O719 1.211 . S
O719 C718 1.211 . S
C720 O712 1.284 . S
C720 O721 1.273 . S
O721 C720 1.273 . S
O722 Zn713 1.977 . S
O722 C715 1.267 . S
C723 O724 1.160 . S
C723 O730 1.185 . S
O724 C723 1.160 . S
O725 Zn726 1.899 . S
O725 C733 1.284 . S
Zn726 O725 1.899 . S
Zn726 O727 2.032 . S
Zn726 O730 2.086 . S
Zn726 O735 1.977 . S
O727 Zn726 2.032 . S
O727 C731 1.278 . S
C728 O729 1.203 . S
C728 O735 1.267 . S
O729 C728 1.203 . S
O730 C723 1.185 . S
O730 Zn726 2.086 . S
C731 O727 1.278 . S
C731 O732 1.211 . S
O732 C731 1.211 . S
C733 O725 1.284 . S
C733 O734 1.273 . S
O734 C733 1.273 . S
O735 Zn726 1.977 . S
O735 C728 1.267 . S
C736 O737 1.160 . S
C736 O743 1.185 . S
O737 C736 1.160 . S
O738 Zn739 1.899 . S
O738 C746 1.284 . S
Zn739 O738 1.899 . S
Zn739 O740 2.032 . S
Zn739 O743 2.086 . S
Zn739 O748 1.977 . S
O740 Zn739 2.032 . S
O740 C744 1.278 . S
C741 O742 1.203 . S
C741 O748 1.267 . S
O742 C741 1.203 . S
O743 C736 1.185 . S
O743 Zn739 2.086 . S
C744 O740 1.278 . S
C744 O745 1.211 . S
O745 C744 1.211 . S
C746 O738 1.284 . S
C746 O747 1.273 . S
O747 C746 1.273 . S
O748 Zn739 1.977 . S
O748 C741 1.267 . S
C749 O750 1.160 . S
C749 O756 1.185 . S
O750 C749 1.160 . S
O751 Zn752 1.899 . S
O751 C759 1.284 . S
Zn752 O751 1.899 . S
Zn752 O753 2.032 . S
Zn752 O756 2.086 . S
Zn752 O761 1.977 . S
O753 Zn752 2.032 . S
O753 C757 1.278 . S
C754 O755 1.203 . S
C754 O761 1.267 . S
O755 C754 1.203 . S
O756 C749 1.185 . S
O756 Zn752 2.086 . S
C757 O753 1.278 . S
C757 O758 1.211 . S
O758 C757 1.211 . S
C759 O751 1.284 . S
C759 O760 1.273 . S
O760 C759 1.273 . S
O761 Zn752 1.977 . S
O761 C754 1.267 . S
H762 C768 0.930 . S
H763 C772 0.930 . S
H764 C777 0.929 . S
H765 C775 0.929 . S
H766 C770 0.929 . S
H767 C776 0.929 . S
C768 H762 0.930 . S
C768 C769 1.367 . S
C768 C776 1.378 . S
C769 C768 1.367 . S
C769 C777 1.433 . S
C770 H766 0.929 . S
C770 C772 1.378 . S
C770 C774 1.350 . S
C771 C774 1.463 . S
C771 C776 1.350 . S
C771 N779 1.427 . S
C772 H763 0.930 . S
C772 C770 1.378 . S
C772 C773 1.367 . S
C773 C772 1.367 . S
C773 C775 1.433 . S
C774 C770 1.350 . S
C774 C771 1.463 . S
C774 N778 1.427 . S
C775 H765 0.929 . S
C775 C773 1.433 . S
C775 N778 1.384 . S
C776 H767 0.929 . S
C776 C768 1.378 . S
C776 C771 1.350 . S
C777 H764 0.929 . S
C777 C769 1.433 . S
C777 N779 1.384 . S
N778 C774 1.427 . S
N778 C775 1.384 . S
N779 C771 1.427 . S
N779 C777 1.384 . S
H780 C786 0.930 . S
H781 C790 0.930 . S
H782 C795 0.929 . S
H783 C793 0.929 . S
H784 C788 0.929 . S
H785 C794 0.929 . S
C786 H780 0.930 . S
C786 C787 1.367 . S
C786 C794 1.378 . S
C787 C786 1.367 . S
C787 C795 1.433 . S
C788 H784 0.929 . S
C788 C790 1.378 . S
C788 C792 1.350 . S
C789 C792 1.463 . S
C789 C794 1.350 . S
C789 N797 1.427 . S
C790 H781 0.930 . S
C790 C788 1.378 . S
C790 C791 1.367 . S
C791 C790 1.367 . S
C791 C793 1.433 . S
C792 C788 1.350 . S
C792 C789 1.463 . S
C792 N796 1.427 . S
C793 H783 0.929 . S
C793 C791 1.433 . S
C793 N796 1.384 . S
C794 H785 0.929 . S
C794 C786 1.378 . S
C794 C789 1.350 . S
C795 H782 0.929 . S
C795 C787 1.433 . S
C795 N797 1.384 . S
N796 C792 1.427 . S
N796 C793 1.384 . S
N797 C789 1.427 . S
N797 C795 1.384 . S
H798 C804 0.930 . S
H799 C808 0.930 . S
H800 C813 0.929 . S
H801 C811 0.929 . S
H802 C806 0.929 . S
H803 C812 0.929 . S
C804 H798 0.930 . S
C804 C805 1.367 . S
C804 C812 1.378 . S
C805 C804 1.367 . S
C805 C813 1.433 . S
C806 H802 0.929 . S
C806 C808 1.378 . S
C806 C810 1.350 . S
C807 C810 1.463 . S
C807 C812 1.350 . S
C807 N815 1.427 . S
C808 H799 0.930 . S
C808 C806 1.378 . S
C808 C809 1.367 . S
C809 C808 1.367 . S
C809 C811 1.433 . S
C810 C806 1.350 . S
C810 C807 1.463 . S
C810 N814 1.427 . S
C811 H801 0.929 . S
C811 C809 1.433 . S
C811 N814 1.384 . S
C812 H803 0.929 . S
C812 C804 1.378 . S
C812 C807 1.350 . S
C813 H800 0.929 . S
C813 C805 1.433 . S
C813 N815 1.384 . S
N814 C810 1.427 . S
N814 C811 1.384 . S
N815 C807 1.427 . S
N815 C813 1.384 . S
H816 C822 0.930 . S
H817 C826 0.930 . S
H818 C831 0.929 . S
H819 C829 0.929 . S
H820 C824 0.929 . S
H821 C830 0.929 . S
C822 H816 0.930 . S
C822 C823 1.367 . S
C822 C830 1.378 . S
C823 C822 1.367 . S
C823 C831 1.433 . S
C824 H820 0.929 . S
C824 C826 1.378 . S
C824 C828 1.350 . S
C825 C828 1.463 . S
C825 C830 1.350 . S
C825 N833 1.427 . S
C826 H817 0.930 . S
C826 C824 1.378 . S
C826 C827 1.367 . S
C827 C826 1.367 . S
C827 C829 1.433 . S
C828 C824 1.350 . S
C828 C825 1.463 . S
C828 N832 1.427 . S
C829 H819 0.929 . S
C829 C827 1.433 . S
C829 N832 1.384 . S
C830 H821 0.929 . S
C830 C822 1.378 . S
C830 C825 1.350 . S
C831 H818 0.929 . S
C831 C823 1.433 . S
C831 N833 1.384 . S
N832 C828 1.427 . S
N832 C829 1.384 . S
N833 C825 1.427 . S
N833 C831 1.384 . S
H834 C840 0.930 . S
H835 C844 0.930 . S
H836 C849 0.929 . S
H837 C847 0.929 . S
H838 C842 0.929 . S
H839 C848 0.929 . S
C840 H834 0.930 . S
C840 C841 1.367 . S
C840 C848 1.378 . S
C841 C840 1.367 . S
C841 C849 1.433 . S
C842 H838 0.929 . S
C842 C844 1.378 . S
C842 C846 1.350 . S
C843 C846 1.463 . S
C843 C848 1.350 . S
C843 N851 1.427 . S
C844 H835 0.930 . S
C844 C842 1.378 . S
C844 C845 1.367 . S
C845 C844 1.367 . S
C845 C847 1.433 . S
C846 C842 1.350 . S
C846 C843 1.463 . S
C846 N850 1.427 . S
C847 H837 0.929 . S
C847 C845 1.433 . S
C847 N850 1.384 . S
C848 H839 0.929 . S
C848 C840 1.378 . S
C848 C843 1.350 . S
C849 H836 0.929 . S
C849 C841 1.433 . S
C849 N851 1.384 . S
N850 C846 1.427 . S
N850 C847 1.384 . S
N851 C843 1.427 . S
N851 C849 1.384 . S
H852 C858 0.930 . S
H853 C862 0.930 . S
H854 C867 0.929 . S
H855 C865 0.929 . S
H856 C860 0.929 . S
H857 C866 0.929 . S
C858 H852 0.930 . S
C858 C859 1.367 . S
C858 C866 1.378 . S
C859 C858 1.367 . S
C859 C867 1.433 . S
C860 H856 0.929 . S
C860 C862 1.378 . S
C860 C864 1.350 . S
C861 C864 1.463 . S
C861 C866 1.350 . S
C861 N869 1.427 . S
C862 H853 0.930 . S
C862 C860 1.378 . S
C862 C863 1.367 . S
C863 C862 1.367 . S
C863 C865 1.433 . S
C864 C860 1.350 . S
C864 C861 1.463 . S
C864 N868 1.427 . S
C865 H855 0.929 . S
C865 C863 1.433 . S
C865 N868 1.384 . S
C866 H857 0.929 . S
C866 C858 1.378 . S
C866 C861 1.350 . S
C867 H854 0.929 . S
C867 C859 1.433 . S
C867 N869 1.384 . S
N868 C864 1.427 . S
N868 C865 1.384 . S
N869 C861 1.427 . S
N869 C867 1.384 . S
H870 C876 0.930 . S
H871 C880 0.930 . S
H872 C885 0.929 . S
H873 C883 0.929 . S
H874 C878 0.929 . S
H875 C884 0.929 . S
C876 H870 0.930 . S
C876 C877 1.367 . S
C876 C884 1.378 . S
C877 C876 1.367 . S
C877 C885 1.433 . S
C878 H874 0.929 . S
C878 C880 1.378 . S
C878 C882 1.350 . S
C879 C882 1.463 . S
C879 C884 1.350 . S
C879 N887 1.427 . S
C880 H871 0.930 . S
C880 C878 1.378 . S
C880 C881 1.367 . S
C881 C880 1.367 . S
C881 C883 1.433 . S
C882 C878 1.350 . S
C882 C879 1.463 . S
C882 N886 1.427 . S
C883 H873 0.929 . S
C883 C881 1.433 . S
C883 N886 1.384 . S
C884 H875 0.929 . S
C884 C876 1.378 . S
C884 C879 1.350 . S
C885 H872 0.929 . S
C885 C877 1.433 . S
C885 N887 1.384 . S
N886 C882 1.427 . S
N886 C883 1.384 . S
N887 C879 1.427 . S
N887 C885 1.384 . S
H888 C894 0.930 . S
H889 C898 0.930 . S
H890 C903 0.929 . S
H891 C901 0.929 . S
H892 C896 0.929 . S
H893 C902 0.929 . S
C894 H888 0.930 . S
C894 C895 1.367 . S
C894 C902 1.378 . S
C895 C894 1.367 . S
C895 C903 1.433 . S
C896 H892 0.929 . S
C896 C898 1.378 . S
C896 C900 1.350 . S
C897 C900 1.463 . S
C897 C902 1.350 . S
C897 N905 1.427 . S
C898 H889 0.930 . S
C898 C896 1.378 . S
C898 C899 1.367 . S
C899 C898 1.367 . S
C899 C901 1.433 . S
C900 C896 1.350 . S
C900 C897 1.463 . S
C900 N904 1.427 . S
C901 H891 0.929 . S
C901 C899 1.433 . S
C901 N904 1.384 . S
C902 H893 0.929 . S
C902 C894 1.378 . S
C902 C897 1.350 . S
C903 H890 0.929 . S
C903 C895 1.433 . S
C903 N905 1.384 . S
N904 C900 1.427 . S
N904 C901 1.384 . S
N905 C897 1.427 . S
N905 C903 1.384 . S
H906 C912 0.930 . S
H907 C916 0.930 . S
H908 C921 0.929 . S
H909 C919 0.929 . S
H910 C914 0.929 . S
H911 C920 0.929 . S
C912 H906 0.930 . S
C912 C913 1.367 . S
C912 C920 1.378 . S
C913 C912 1.367 . S
C913 C921 1.433 . S
C914 H910 0.929 . S
C914 C916 1.378 . S
C914 C918 1.350 . S
C915 C918 1.463 . S
C915 C920 1.350 . S
C915 N923 1.427 . S
C916 H907 0.930 . S
C916 C914 1.378 . S
C916 C917 1.367 . S
C917 C916 1.367 . S
C917 C919 1.433 . S
C918 C914 1.350 . S
C918 C915 1.463 . S
C918 N922 1.427 . S
C919 H909 0.929 . S
C919 C917 1.433 . S
C919 N922 1.384 . S
C920 H911 0.929 . S
C920 C912 1.378 . S
C920 C915 1.350 . S
C921 H908 0.929 . S
C921 C913 1.433 . S
C921 N923 1.384 . S
N922 C918 1.427 . S
N922 C919 1.384 . S
N923 C915 1.427 . S
N923 C921 1.384 . S
H924 C930 0.930 . S
H925 C934 0.930 . S
H926 C939 0.929 . S
H927 C937 0.929 . S
H928 C932 0.929 . S
H929 C938 0.929 . S
C930 H924 0.930 . S
C930 C931 1.367 . S
C930 C938 1.378 . S
C931 C930 1.367 . S
C931 C939 1.433 . S
C932 H928 0.929 . S
C932 C934 1.378 . S
C932 C936 1.350 . S
C933 C936 1.463 . S
C933 C938 1.350 . S
C933 N941 1.427 . S
C934 H925 0.930 . S
C934 C932 1.378 . S
C934 C935 1.367 . S
C935 C934 1.367 . S
C935 C937 1.433 . S
C936 C932 1.350 . S
C936 C933 1.463 . S
C936 N940 1.427 . S
C937 H927 0.929 . S
C937 C935 1.433 . S
C937 N940 1.384 . S
C938 H929 0.929 . S
C938 C930 1.378 . S
C938 C933 1.350 . S
C939 H926 0.929 . S
C939 C931 1.433 . S
C939 N941 1.384 . S
N940 C936 1.427 . S
N940 C937 1.384 . S
N941 C933 1.427 . S
N941 C939 1.384 . S
H942 C948 0.930 . S
H943 C952 0.930 . S
H944 C957 0.929 . S
H945 C955 0.929 . S
H946 C950 0.929 . S
H947 C956 0.929 . S
C948 H942 0.930 . S
C948 C949 1.367 . S
C948 C956 1.378 . S
C949 C948 1.367 . S
C949 C957 1.433 . S
C950 H946 0.929 . S
C950 C952 1.378 . S
C950 C954 1.350 . S
C951 C954 1.463 . S
C951 C956 1.350 . S
C951 N959 1.427 . S
C952 H943 0.930 . S
C952 C950 1.378 . S
C952 C953 1.367 . S
C953 C952 1.367 . S
C953 C955 1.433 . S
C954 C950 1.350 . S
C954 C951 1.463 . S
C954 N958 1.427 . S
C955 H945 0.929 . S
C955 C953 1.433 . S
C955 N958 1.384 . S
C956 H947 0.929 . S
C956 C948 1.378 . S
C956 C951 1.350 . S
C957 H944 0.929 . S
C957 C949 1.433 . S
C957 N959 1.384 . S
N958 C954 1.427 . S
N958 C955 1.384 . S
N959 C951 1.427 . S
N959 C957 1.384 . S
H960 C966 0.930 . S
H961 C970 0.930 . S
H962 C975 0.929 . S
H963 C973 0.929 . S
H964 C968 0.929 . S
H965 C974 0.929 . S
C966 H960 0.930 . S
C966 C967 1.367 . S
C966 C974 1.378 . S
C967 C966 1.367 . S
C967 C975 1.433 . S
C968 H964 0.929 . S
C968 C970 1.378 . S
C968 C972 1.350 . S
C969 C972 1.463 . S
C969 C974 1.350 . S
C969 N977 1.427 . S
C970 H961 0.930 . S
C970 C968 1.378 . S
C970 C971 1.367 . S
C971 C970 1.367 . S
C971 C973 1.433 . S
C972 C968 1.350 . S
C972 C969 1.463 . S
C972 N976 1.427 . S
C973 H963 0.929 . S
C973 C971 1.433 . S
C973 N976 1.384 . S
C974 H965 0.929 . S
C974 C966 1.378 . S
C974 C969 1.350 . S
C975 H962 0.929 . S
C975 C967 1.433 . S
C975 N977 1.384 . S
N976 C972 1.427 . S
N976 C973 1.384 . S
N977 C969 1.427 . S
N977 C975 1.384 . S
H978 C984 0.930 . S
H979 C988 0.930 . S
H980 C993 0.929 . S
H981 C991 0.929 . S
H982 C986 0.929 . S
H983 C992 0.929 . S
C984 H978 0.930 . S
C984 C985 1.367 . S
C984 C992 1.378 . S
C985 C984 1.367 . S
C985 C993 1.433 . S
C986 H982 0.929 . S
C986 C988 1.378 . S
C986 C990 1.350 . S
C987 C990 1.463 . S
C987 C992 1.350 . S
C987 N995 1.427 . S
C988 H979 0.930 . S
C988 C986 1.378 . S
C988 C989 1.367 . S
C989 C988 1.367 . S
C989 C991 1.433 . S
C990 C986 1.350 . S
C990 C987 1.463 . S
C990 N994 1.427 . S
C991 H981 0.929 . S
C991 C989 1.433 . S
C991 N994 1.384 . S
C992 H983 0.929 . S
C992 C984 1.378 . S
C992 C987 1.350 . S
C993 H980 0.929 . S
C993 C985 1.433 . S
C993 N995 1.384 . S
N994 C990 1.427 . S
N994 C991 1.384 . S
N995 C987 1.427 . S
N995 C993 1.384 . S
H996 C1002 0.930 . S
H997 C1006 0.930 . S
H998 C1011 0.929 . S
H999 C1009 0.929 . S
H1000 C1004 0.929 . S
H1001 C1010 0.929 . S
C1002 H996 0.930 . S
C1002 C1003 1.367 . S
C1002 C1010 1.378 . S
C1003 C1002 1.367 . S
C1003 C1011 1.433 . S
C1004 H1000 0.929 . S
C1004 C1006 1.378 . S
C1004 C1008 1.350 . S
C1005 C1008 1.463 . S
C1005 C1010 1.350 . S
C1005 N1013 1.427 . S
C1006 H997 0.930 . S
C1006 C1004 1.378 . S
C1006 C1007 1.367 . S
C1007 C1006 1.367 . S
C1007 C1009 1.433 . S
C1008 C1004 1.350 . S
C1008 C1005 1.463 . S
C1008 N1012 1.427 . S
C1009 H999 0.929 . S
C1009 C1007 1.433 . S
C1009 N1012 1.384 . S
C1010 H1001 0.929 . S
C1010 C1002 1.378 . S
C1010 C1005 1.350 . S
C1011 H998 0.929 . S
C1011 C1003 1.433 . S
C1011 N1013 1.384 . S
N1012 C1008 1.427 . S
N1012 C1009 1.384 . S
N1013 C1005 1.427 . S
N1013 C1011 1.384 . S
H1014 C1020 0.930 . S
H1015 C1024 0.930 . S
H1016 C1029 0.929 . S
H1017 C1027 0.929 . S
H1018 C1022 0.929 . S
H1019 C1028 0.929 . S
C1020 H1014 0.930 . S
C1020 C1021 1.367 . S
C1020 C1028 1.378 . S
C1021 C1020 1.367 . S
C1021 C1029 1.433 . S
C1022 H1018 0.929 . S
C1022 C1024 1.378 . S
C1022 C1026 1.350 . S
C1023 C1026 1.463 . S
C1023 C1028 1.350 . S
C1023 N1031 1.427 . S
C1024 H1015 0.930 . S
C1024 C1022 1.378 . S
C1024 C1025 1.367 . S
C1025 C1024 1.367 . S
C1025 C1027 1.433 . S
C1026 C1022 1.350 . S
C1026 C1023 1.463 . S
C1026 N1030 1.427 . S
C1027 H1017 0.929 . S
C1027 C1025 1.433 . S
C1027 N1030 1.384 . S
C1028 H1019 0.929 . S
C1028 C1020 1.378 . S
C1028 C1023 1.350 . S
C1029 H1016 0.929 . S
C1029 C1021 1.433 . S
C1029 N1031 1.384 . S
N1030 C1026 1.427 . S
N1030 C1027 1.384 . S
N1031 C1023 1.427 . S
N1031 C1029 1.384 . S
H1032 C1038 0.930 . S
H1033 C1042 0.930 . S
H1034 C1047 0.929 . S
H1035 C1045 0.929 . S
H1036 C1040 0.929 . S
H1037 C1046 0.929 . S
C1038 H1032 0.930 . S
C1038 C1039 1.367 . S
C1038 C1046 1.378 . S
C1039 C1038 1.367 . S
C1039 C1047 1.433 . S
C1040 H1036 0.929 . S
C1040 C1042 1.378 1_556 S
C1040 C1044 1.350 . S
C1041 C1044 1.463 . S
C1041 C1046 1.350 . S
C1041 N1049 1.427 . S
C1042 H1033 0.930 . S
C1042 C1040 1.378 1_554 S
C1042 C1043 1.367 . S
C1043 C1042 1.367 . S
C1043 C1045 1.433 . S
C1044 C1040 1.350 . S
C1044 C1041 1.463 . S
C1044 N1048 1.427 . S
C1045 H1035 0.929 . S
C1045 C1043 1.433 . S
C1045 N1048 1.384 1_554 S
C1046 H1037 0.929 . S
C1046 C1038 1.378 . S
C1046 C1041 1.350 . S
C1047 H1034 0.929 . S
C1047 C1039 1.433 . S
C1047 N1049 1.384 . S
N1048 C1044 1.427 . S
N1048 C1045 1.384 1_556 S
N1049 C1041 1.427 . S
N1049 C1047 1.384 . S
H1050 C1056 0.930 . S
H1051 C1060 0.930 . S
H1052 C1065 0.929 . S
H1053 C1063 0.929 . S
H1054 C1058 0.929 . S
H1055 C1064 0.929 . S
C1056 H1050 0.930 . S
C1056 C1057 1.367 . S
C1056 C1064 1.378 . S
C1057 C1056 1.367 . S
C1057 C1065 1.433 . S
C1058 H1054 0.929 . S
C1058 C1060 1.378 . S
C1058 C1062 1.350 . S
C1059 C1062 1.463 . S
C1059 C1064 1.350 . S
C1059 N1067 1.427 . S
C1060 H1051 0.930 . S
C1060 C1058 1.378 . S
C1060 C1061 1.367 . S
C1061 C1060 1.367 . S
C1061 C1063 1.433 . S
C1062 C1058 1.350 . S
C1062 C1059 1.463 . S
C1062 N1066 1.427 . S
C1063 H1053 0.929 . S
C1063 C1061 1.433 . S
C1063 N1066 1.384 . S
C1064 H1055 0.929 . S
C1064 C1056 1.378 . S
C1064 C1059 1.350 . S
C1065 H1052 0.929 . S
C1065 C1057 1.433 . S
C1065 N1067 1.384 . S
N1066 C1062 1.427 . S
N1066 C1063 1.384 . S
N1067 C1059 1.427 . S
N1067 C1065 1.384 . S
H1068 C1074 0.930 . S
H1069 C1078 0.930 . S
H1070 C1083 0.929 . S
H1071 C1081 0.929 . S
H1072 C1076 0.929 . S
H1073 C1082 0.929 . S
C1074 H1068 0.930 . S
C1074 C1075 1.367 . S
C1074 C1082 1.378 . S
C1075 C1074 1.367 . S
C1075 C1083 1.433 . S
C1076 H1072 0.929 . S
C1076 C1078 1.378 . S
C1076 C1080 1.350 . S
C1077 C1080 1.463 . S
C1077 C1082 1.350 . S
C1077 N1085 1.427 . S
C1078 H1069 0.930 . S
C1078 C1076 1.378 . S
C1078 C1079 1.367 . S
C1079 C1078 1.367 . S
C1079 C1081 1.433 . S
C1080 C1076 1.350 . S
C1080 C1077 1.463 . S
C1080 N1084 1.427 . S
C1081 H1071 0.929 . S
C1081 C1079 1.433 . S
C1081 N1084 1.384 . S
C1082 H1073 0.929 . S
C1082 C1074 1.378 . S
C1082 C1077 1.350 . S
C1083 H1070 0.929 . S
C1083 C1075 1.433 . S
C1083 N1085 1.384 . S
N1084 C1080 1.427 . S
N1084 C1081 1.384 . S
N1085 C1077 1.427 . S
N1085 C1083 1.384 . S
H1086 C1092 0.930 . S
H1087 C1096 0.930 . S
H1088 C1101 0.929 . S
H1089 C1099 0.929 . S
H1090 C1094 0.929 . S
H1091 C1100 0.929 . S
C1092 H1086 0.930 . S
C1092 C1093 1.367 . S
C1092 C1100 1.378 . S
C1093 C1092 1.367 . S
C1093 C1101 1.433 . S
C1094 H1090 0.929 . S
C1094 C1096 1.378 . S
C1094 C1098 1.350 . S
C1095 C1098 1.463 . S
C1095 C1100 1.350 . S
C1095 N1103 1.427 . S
C1096 H1087 0.930 . S
C1096 C1094 1.378 . S
C1096 C1097 1.367 . S
C1097 C1096 1.367 . S
C1097 C1099 1.433 . S
C1098 C1094 1.350 . S
C1098 C1095 1.463 . S
C1098 N1102 1.427 . S
C1099 H1089 0.929 . S
C1099 C1097 1.433 . S
C1099 N1102 1.384 . S
C1100 H1091 0.929 . S
C1100 C1092 1.378 . S
C1100 C1095 1.350 . S
C1101 H1088 0.929 . S
C1101 C1093 1.433 . S
C1101 N1103 1.384 . S
N1102 C1098 1.427 . S
N1102 C1099 1.384 . S
N1103 C1095 1.427 . S
N1103 C1101 1.384 . S
H1104 C1110 0.930 . S
H1105 C1114 0.930 . S
H1106 C1119 0.929 . S
H1107 C1117 0.929 . S
H1108 C1112 0.929 . S
H1109 C1118 0.929 . S
C1110 H1104 0.930 . S
C1110 C1111 1.367 . S
C1110 C1118 1.378 . S
C1111 C1110 1.367 . S
C1111 C1119 1.433 . S
C1112 H1108 0.929 . S
C1112 C1114 1.378 . S
C1112 C1116 1.350 . S
C1113 C1116 1.463 . S
C1113 C1118 1.350 . S
C1113 N1121 1.427 . S
C1114 H1105 0.930 . S
C1114 C1112 1.378 . S
C1114 C1115 1.367 . S
C1115 C1114 1.367 . S
C1115 C1117 1.433 . S
C1116 C1112 1.350 . S
C1116 C1113 1.463 . S
C1116 N1120 1.427 . S
C1117 H1107 0.929 . S
C1117 C1115 1.433 . S
C1117 N1120 1.384 . S
C1118 H1109 0.929 . S
C1118 C1110 1.378 . S
C1118 C1113 1.350 . S
C1119 H1106 0.929 . S
C1119 C1111 1.433 . S
C1119 N1121 1.384 . S
N1120 C1116 1.427 . S
N1120 C1117 1.384 . S
N1121 C1113 1.427 . S
N1121 C1119 1.384 . S
H1122 C1128 0.930 . S
H1123 C1132 0.930 . S
H1124 C1137 0.929 . S
H1125 C1135 0.929 . S
H1126 C1130 0.929 . S
H1127 C1136 0.929 . S
C1128 H1122 0.930 . S
C1128 C1129 1.367 . S
C1128 C1136 1.378 . S
C1129 C1128 1.367 . S
C1129 C1137 1.433 . S
C1130 H1126 0.929 . S
C1130 C1132 1.378 . S
C1130 C1134 1.350 . S
C1131 C1134 1.463 . S
C1131 C1136 1.350 . S
C1131 N1139 1.427 . S
C1132 H1123 0.930 . S
C1132 C1130 1.378 . S
C1132 C1133 1.367 . S
C1133 C1132 1.367 . S
C1133 C1135 1.433 . S
C1134 C1130 1.350 . S
C1134 C1131 1.463 . S
C1134 N1138 1.427 . S
C1135 H1125 0.929 . S
C1135 C1133 1.433 . S
C1135 N1138 1.384 . S
C1136 H1127 0.929 . S
C1136 C1128 1.378 . S
C1136 C1131 1.350 . S
C1137 H1124 0.929 . S
C1137 C1129 1.433 . S
C1137 N1139 1.384 . S
N1138 C1134 1.427 . S
N1138 C1135 1.384 . S
N1139 C1131 1.427 . S
N1139 C1137 1.384 . S
H1140 C1146 0.930 . S
H1141 C1150 0.930 . S
H1142 C1155 0.929 . S
H1143 C1153 0.929 . S
H1144 C1148 0.929 . S
H1145 C1154 0.929 . S
C1146 H1140 0.930 . S
C1146 C1147 1.367 . S
C1146 C1154 1.378 . S
C1147 C1146 1.367 . S
C1147 C1155 1.433 . S
C1148 H1144 0.929 . S
C1148 C1150 1.378 . S
C1148 C1152 1.350 . S
C1149 C1152 1.463 . S
C1149 C1154 1.350 . S
C1149 N1157 1.427 . S
C1150 H1141 0.930 . S
C1150 C1148 1.378 . S
C1150 C1151 1.367 . S
C1151 C1150 1.367 . S
C1151 C1153 1.433 . S
C1152 C1148 1.350 . S
C1152 C1149 1.463 . S
C1152 N1156 1.427 . S
C1153 H1143 0.929 . S
C1153 C1151 1.433 . S
C1153 N1156 1.384 . S
C1154 H1145 0.929 . S
C1154 C1146 1.378 . S
C1154 C1149 1.350 . S
C1155 H1142 0.929 . S
C1155 C1147 1.433 . S
C1155 N1157 1.384 . S
N1156 C1152 1.427 . S
N1156 C1153 1.384 . S
N1157 C1149 1.427 . S
N1157 C1155 1.384 . S
H1158 C1164 0.930 . S
H1159 C1168 0.930 . S
H1160 C1173 0.929 . S
H1161 C1171 0.929 . S
H1162 C1166 0.929 . S
H1163 C1172 0.906 1_556 S
C1164 H1158 0.930 . S
C1164 C1165 1.367 . S
C1164 C1172 1.421 . S
C1165 C1164 1.367 . S
C1165 C1173 1.433 . S
C1166 H1162 0.929 . S
C1166 C1168 1.378 . S
C1166 C1170 1.350 . S
C1167 C1170 1.463 . S
C1167 C1172 1.332 1_556 S
C1167 N1175 1.427 1_556 S
C1168 H1159 0.930 . S
C1168 C1166 1.378 . S
C1168 C1169 1.367 . S
C1169 C1168 1.367 . S
C1169 C1171 1.433 . S
C1170 C1166 1.350 . S
C1170 C1167 1.463 . S
C1170 N1174 1.427 . S
C1171 H1161 0.929 . S
C1171 C1169 1.433 . S
C1171 N1174 1.384 . S
C1172 H1163 0.906 1_554 S
C1172 C1164 1.421 . S
C1172 C1167 1.332 1_554 S
C1173 H1160 0.929 . S
C1173 C1165 1.433 . S
C1173 N1175 1.384 . S
N1174 C1170 1.427 . S
N1174 C1171 1.384 . S
N1175 C1167 1.427 1_554 S
N1175 C1173 1.384 . S
H1176 C1182 0.930 . S
H1177 C1186 0.930 . S
H1178 C1191 0.929 . S
H1179 C1189 0.929 . S
H1180 C1184 0.929 . S
H1181 C1190 0.929 . S
C1182 H1176 0.930 . S
C1182 C1183 1.367 . S
C1182 C1190 1.378 . S
C1183 C1182 1.367 . S
C1183 C1191 1.433 . S
C1184 H1180 0.929 . S
C1184 C1186 1.378 . S
C1184 C1188 1.350 . S
C1185 C1188 1.463 . S
C1185 C1190 1.350 . S
C1185 N1193 1.427 . S
C1186 H1177 0.930 . S
C1186 C1184 1.378 . S
C1186 C1187 1.367 . S
C1187 C1186 1.367 . S
C1187 C1189 1.433 . S
C1188 C1184 1.350 . S
C1188 C1185 1.463 . S
C1188 N1192 1.427 . S
C1189 H1179 0.929 . S
C1189 C1187 1.433 . S
C1189 N1192 1.384 . S
C1190 H1181 0.929 . S
C1190 C1182 1.378 . S
C1190 C1185 1.350 . S
C1191 H1178 0.929 . S
C1191 C1183 1.433 . S
C1191 N1193 1.384 . S
N1192 C1188 1.427 . S
N1192 C1189 1.384 . S
N1193 C1185 1.427 . S
N1193 C1191 1.384 . S
C773 C759 1.731 . S
C769 C1 1.256 . S
C787 C169 1.504 . S
C791 C684 1.654 . S
C805 C283 1.629 . S
C809 C707 1.885 . S
C823 C397 1.149 . S
C827 C720 1.417 . S
C845 C723 1.511 . S
C841 C457 1.142 . S
C859 C571 1.022 . S
C863 C736 1.330 . S
C877 C115 1.115 . S
C881 C697 1.446 . S
C895 C229 1.143 . S
C899 C710 1.528 . S
C913 C343 1.003 . S
C917 C733 1.293 . S
C935 C746 1.757 . S
C931 C511 1.493 . S
C953 C749 1.616 . S
C949 C625 1.454 . S
C971 C694 1.871 . S
C967 C55 1.594 . S
C985 C29 1.135 . S
C989 C705 1.375 . S
C1003 C125 0.903 . S
C1007 C718 1.450 . S
C1025 C728 1.415 . S
C1021 C239 0.900 . S
C1039 C353 0.871 . S
C1043 C741 1.368 . S
C1061 C757 1.362 . S
C1057 C485 1.063 . S
C1079 C689 1.363 . S
C1075 C599 1.114 . S
C1097 C754 1.355 . S
C1093 C143 1.117 . S
C1111 C257 1.144 . S
C1115 C692 1.424 . S
C1133 C702 1.286 . S
C1129 C371 1.120 . S
C1147 C467 0.912 . S
C1151 C715 1.413 . S
C1165 C581 0.854 . S
C1169 C731 1.392 . S
C1183 C11 0.901 . S
C1187 C744 1.465 . S
