# Generated by pormake.
# Topology pyr, (3,6)-cn, num edge types: 1
# Building blocks:
#     Node 0, Type 0, BuildingBlock: KAKCAD_clean_linker_0, # of connection points: 3
#     Node 1, Type 0, BuildingBlock: KAKCAD_clean_linker_0, # of connection points: 3
#     Node 2, Type 0, BuildingBlock: KAKCAD_clean_linker_0, # of connection points: 3
#     Node 3, Type 0, BuildingBlock: KAKCAD_clean_linker_0, # of connection points: 3
#     Node 4, Type 0, BuildingBlock: KAKCAD_clean_linker_0, # of connection points: 3
#     Node 5, Type 0, BuildingBlock: KAKCAD_clean_linker_0, # of connection points: 3
#     Node 6, Type 0, BuildingBlock: KAKCAD_clean_linker_0, # of connection points: 3
#     Node 7, Type 0, BuildingBlock: KAKCAD_clean_linker_0, # of connection points: 3
#     Node 8, Type 1, BuildingBlock: PAMTUU_clean_sbu_0, # of connection points: 6
#     Node 9, Type 1, BuildingBlock: PAMTUU_clean_sbu_0, # of connection points: 6
#     Node 10, Type 1, BuildingBlock: PAMTUU_clean_sbu_0, # of connection points: 6
#     Node 11, Type 1, BuildingBlock: PAMTUU_clean_sbu_0, # of connection points: 6
#     Edge 12, Type (0, 1), BuildingBlock: ZUJKAS_clean_linker_0, # of connection points: 2
#     Edge 13, Type (0, 1), BuildingBlock: ZUJKAS_clean_linker_0, # of connection points: 2
#     Edge 14, Type (0, 1), BuildingBlock: ZUJKAS_clean_linker_0, # of connection points: 2
#     Edge 15, Type (0, 1), BuildingBlock: ZUJKAS_clean_linker_0, # of connection points: 2
#     Edge 16, Type (0, 1), BuildingBlock: ZUJKAS_clean_linker_0, # of connection points: 2
#     Edge 17, Type (0, 1), BuildingBlock: ZUJKAS_clean_linker_0, # of connection points: 2
#     Edge 18, Type (0, 1), BuildingBlock: ZUJKAS_clean_linker_0, # of connection points: 2
#     Edge 19, Type (0, 1), BuildingBlock: ZUJKAS_clean_linker_0, # of connection points: 2
#     Edge 20, Type (0, 1), BuildingBlock: ZUJKAS_clean_linker_0, # of connection points: 2
#     Edge 21, Type (0, 1), BuildingBlock: ZUJKAS_clean_linker_0, # of connection points: 2
#     Edge 22, Type (0, 1), BuildingBlock: ZUJKAS_clean_linker_0, # of connection points: 2
#     Edge 23, Type (0, 1), BuildingBlock: ZUJKAS_clean_linker_0, # of connection points: 2
#     Edge 24, Type (0, 1), BuildingBlock: ZUJKAS_clean_linker_0, # of connection points: 2
#     Edge 25, Type (0, 1), BuildingBlock: ZUJKAS_clean_linker_0, # of connection points: 2
#     Edge 26, Type (0, 1), BuildingBlock: ZUJKAS_clean_linker_0, # of connection points: 2
#     Edge 27, Type (0, 1), BuildingBlock: ZUJKAS_clean_linker_0, # of connection points: 2
#     Edge 28, Type (0, 1), BuildingBlock: ZUJKAS_clean_linker_0, # of connection points: 2
#     Edge 29, Type (0, 1), BuildingBlock: ZUJKAS_clean_linker_0, # of connection points: 2
#     Edge 30, Type (0, 1), BuildingBlock: ZUJKAS_clean_linker_0, # of connection points: 2
#     Edge 31, Type (0, 1), BuildingBlock: ZUJKAS_clean_linker_0, # of connection points: 2
#     Edge 32, Type (0, 1), BuildingBlock: ZUJKAS_clean_linker_0, # of connection points: 2
#     Edge 33, Type (0, 1), BuildingBlock: ZUJKAS_clean_linker_0, # of connection points: 2
#     Edge 34, Type (0, 1), BuildingBlock: ZUJKAS_clean_linker_0, # of connection points: 2
#     Edge 35, Type (0, 1), BuildingBlock: ZUJKAS_clean_linker_0, # of connection points: 2
# Relax obj value: 0.062
# Max RMSD: 0.110
# Mean RMSD: 0.047
data_MOF--net-pyr--node1-PAMTUU_clean_sbu_0--node2-KAKCAD_clean_linker_0--edge1-ZUJKAS_clean_linker_0
_symmetry_space_group_name_H-M    P1
_symmetry_Int_Tables_number       1
_symmetry_cell_setting            triclinic
loop_
_symmetry_equiv_pos_as_xyz
'x, y, z'
_cell_length_a     58.000479
_cell_length_b     58.80137
_cell_length_c     56.921101
_cell_angle_alpha  90.37269
_cell_angle_beta   89.317005
_cell_angle_gamma 99.158877
loop_
_atom_site_label
_atom_site_type_symbol
_atom_site_fract_x
_atom_site_fract_y
_atom_site_fract_z
_atom_type_partial_charge
C0 C 0.24706 0.23673 0.26485 0.0
C1 C 0.25871 0.23305 0.28563 0.0
C2 C 0.25951 0.24607 0.24516 0.0
C3 C 0.28395 0.25209 0.24576 0.0
C4 C 0.29566 0.24858 0.26659 0.0
C5 C 0.28315 0.23913 0.28635 0.0
C6 C 0.29699 0.26112 0.22429 0.0
C7 C 0.28771 0.27637 0.20959 0.0
C8 C 0.29803 0.28267 0.18773 0.0
C9 C 0.31841 0.27438 0.18084 0.0
C10 C 0.32797 0.25898 0.19525 0.0
C11 C 0.31732 0.25271 0.21712 0.0
C12 C 0.347 0.24703 0.18625 0.0
C13 C 0.34616 0.23836 0.16317 0.0
C14 C 0.36497 0.24252 0.20104 0.0
C15 C 0.38132 0.22904 0.1931 0.0
C16 C 0.38001 0.21978 0.17023 0.0
C17 C 0.28558 0.29535 0.17102 0.0
C18 C 0.26234 0.28662 0.16553 0.0
C19 C 0.29641 0.31602 0.16073 0.0
C20 C 0.28377 0.32819 0.14577 0.0
C21 C 0.26037 0.31952 0.14055 0.0
C22 C 0.2499 0.2985 0.15037 0.0
C23 C 0.36244 0.22491 0.15526 0.0
H24 H 0.22833 0.23173 0.26352 0.0
H25 H 0.24998 0.24797 0.22924 0.0
H26 H 0.31446 0.25317 0.26762 0.0
H27 H 0.29259 0.23661 0.30218 0.0
H28 H 0.27191 0.28285 0.2148 0.0
H29 H 0.32385 0.23997 0.22777 0.0
H30 H 0.32608 0.27893 0.1637 0.0
H31 H 0.33227 0.24106 0.15147 0.0
H32 H 0.36615 0.24914 0.21887 0.0
H33 H 0.39482 0.22563 0.20496 0.0
H34 H 0.25372 0.27058 0.1731 0.0
H35 H 0.31437 0.32299 0.16473 0.0
H36 H 0.36061 0.2177 0.1377 0.0
H37 H 0.2318 0.29158 0.14693 0.0
H38 H 0.29219 0.34438 0.13841 0.0
C39 C 0.22725 0.80891 0.79793 0.0
C40 C 0.25108 0.80933 0.80246 0.0
C41 C 0.21745 0.79908 0.77713 0.0
C42 C 0.23138 0.78977 0.76033 0.0
C43 C 0.25516 0.78999 0.76516 0.0
C44 C 0.26482 0.79949 0.78601 0.0
C45 C 0.22177 0.78108 0.73721 0.0
C46 C 0.20595 0.79252 0.72527 0.0
C47 C 0.19905 0.78612 0.70224 0.0
C48 C 0.20845 0.76822 0.691 0.0
C49 C 0.22438 0.75665 0.70262 0.0
C50 C 0.23017 0.76265 0.72599 0.0
C51 C 0.23672 0.73987 0.68988 0.0
C52 C 0.22522 0.72428 0.67332 0.0
C53 C 0.26065 0.73999 0.69375 0.0
C54 C 0.27271 0.72482 0.68166 0.0
C55 C 0.26129 0.70927 0.66516 0.0
C56 C 0.18344 0.79938 0.68943 0.0
C57 C 0.16401 0.80624 0.70082 0.0
C58 C 0.18842 0.80613 0.66604 0.0
C59 C 0.17458 0.81982 0.65446 0.0
C60 C 0.15546 0.82711 0.66602 0.0
C61 C 0.15016 0.81993 0.68924 0.0
C62 C 0.23745 0.70919 0.66097 0.0
H63 H 0.21626 0.81631 0.8104 0.0
H64 H 0.19903 0.79897 0.77415 0.0
H65 H 0.26664 0.78359 0.75247 0.0
H66 H 0.28334 0.79998 0.78882 0.0
H67 H 0.19996 0.80728 0.73337 0.0
H68 H 0.24183 0.75328 0.7353 0.0
H69 H 0.2039 0.7638 0.67296 0.0
H70 H 0.20679 0.72364 0.67 0.0
H71 H 0.2703 0.75219 0.70579 0.0
H72 H 0.29121 0.72564 0.68486 0.0
H73 H 0.15961 0.80115 0.71879 0.0
H74 H 0.20341 0.80138 0.65683 0.0
H75 H 0.22824 0.69731 0.64835 0.0
H76 H 0.13567 0.8254 0.69871 0.0
H77 H 0.17896 0.8248 0.63647 0.0
C78 C 0.73813 0.41492 0.87548 0.0
C79 C 0.75406 0.4017 0.88487 0.0
C80 C 0.71776 0.40434 0.86407 0.0
C81 C 0.71267 0.38019 0.86164 0.0
C82 C 0.7289 0.36707 0.87059 0.0
C83 C 0.74916 0.37761 0.88203 0.0
C84 C 0.69032 0.36856 0.85057 0.0
C85 C 0.68072 0.37805 0.83087 0.0
C86 C 0.65967 0.36713 0.82061 0.0
C87 C 0.6482 0.34628 0.83058 0.0
C88 C 0.65756 0.33625 0.85008 0.0
C89 C 0.67845 0.34773 0.85991 0.0
C90 C 0.64595 0.31368 0.86032 0.0
C91 C 0.62159 0.30877 0.86384 0.0
C92 C 0.65942 0.29704 0.86741 0.0
C93 C 0.64898 0.27636 0.87795 0.0
C94 C 0.62468 0.27157 0.8819 0.0
C95 C 0.6499 0.37733 0.79931 0.0
C96 C 0.66468 0.38711 0.78094 0.0
C97 C 0.62573 0.37742 0.79708 0.0
C98 C 0.61669 0.38709 0.77729 0.0
C99 C 0.63147 0.39681 0.75888 0.0
C100 C 0.65563 0.39658 0.76105 0.0
C101 C 0.61113 0.2881 0.8746 0.0
H102 H 0.74107 0.43348 0.87745 0.0
H103 H 0.70568 0.41511 0.85771 0.0
H104 H 0.72603 0.3485 0.86866 0.0
H105 H 0.76115 0.36679 0.88848 0.0
H106 H 0.68968 0.39401 0.82347 0.0
H107 H 0.68524 0.34059 0.87538 0.0
H108 H 0.63236 0.33741 0.82266 0.0
H109 H 0.61062 0.32115 0.85876 0.0
H110 H 0.67819 0.29998 0.8648 0.0
H111 H 0.66012 0.26429 0.88345 0.0
H112 H 0.68334 0.38722 0.78175 0.0
H113 H 0.61373 0.37025 0.81084 0.0
H114 H 0.59235 0.28502 0.87707 0.0
H115 H 0.66768 0.40403 0.74747 0.0
H116 H 0.598 0.38668 0.7763 0.0
C117 C 0.86712 0.6445 0.26347 0.0
C118 C 0.89122 0.64402 0.26089 0.0
C119 C 0.8582 0.65431 0.28348 0.0
C120 C 0.87311 0.66412 0.30147 0.0
C121 C 0.89723 0.66381 0.29883 0.0
C122 C 0.90614 0.65381 0.2789 0.0
C123 C 0.86347 0.67452 0.32286 0.0
C124 C 0.84265 0.66354 0.3337 0.0
C125 C 0.83321 0.67318 0.35367 0.0
C126 C 0.84463 0.69441 0.36242 0.0
C127 C 0.86542 0.70568 0.35204 0.0
C128 C 0.8749 0.69548 0.33246 0.0
C129 C 0.87695 0.72818 0.36186 0.0
C130 C 0.86399 0.74616 0.36581 0.0
C131 C 0.90054 0.73151 0.36844 0.0
C132 C 0.91073 0.75211 0.37935 0.0
C133 C 0.8977 0.77003 0.38345 0.0
C134 C 0.81158 0.66115 0.36568 0.0
C135 C 0.79234 0.65034 0.35273 0.0
C136 C 0.80991 0.66073 0.39037 0.0
C137 C 0.7895 0.65014 0.40178 0.0
C138 C 0.77009 0.63965 0.38888 0.0
C139 C 0.77187 0.63976 0.36416 0.0
C140 C 0.87429 0.7669 0.37626 0.0
H141 H 0.85504 0.63698 0.25013 0.0
H142 H 0.83957 0.65441 0.28473 0.0
H143 H 0.90925 0.67102 0.31236 0.0
H144 H 0.9248 0.65398 0.27748 0.0
H145 H 0.83412 0.6471 0.32697 0.0
H146 H 0.89076 0.7043 0.32425 0.0
H147 H 0.83735 0.70225 0.37749 0.0
H148 H 0.84579 0.74413 0.36088 0.0
H149 H 0.91091 0.71792 0.36574 0.0
H150 H 0.92884 0.75406 0.38456 0.0
H151 H 0.79288 0.65051 0.3337 0.0
H152 H 0.8245 0.66844 0.40098 0.0
H153 H 0.86373 0.78029 0.37928 0.0
H154 H 0.75724 0.63212 0.35357 0.0
H155 H 0.78907 0.65 0.4208 0.0
C156 C 0.75421 0.78658 0.75526 0.0
C157 C 0.76174 0.81038 0.75286 0.0
C158 C 0.74028 0.77804 0.77449 0.0
C159 C 0.73351 0.79318 0.79155 0.0
C160 C 0.74031 0.81702 0.78853 0.0
C161 C 0.7542 0.8255 0.76941 0.0
C162 C 0.72112 0.78438 0.81344 0.0
C163 C 0.72837 0.76621 0.82572 0.0
C164 C 0.71933 0.76001 0.84819 0.0
C165 C 0.70274 0.77219 0.85839 0.0
C166 C 0.69509 0.79032 0.84624 0.0
C167 C 0.70399 0.79585 0.82355 0.0
C168 C 0.6793 0.80473 0.85778 0.0
C169 C 0.66071 0.7949 0.87245 0.0
C170 C 0.68311 0.82874 0.85448 0.0
C171 C 0.66856 0.84251 0.86522 0.0
C172 C 0.65 0.8327 0.8798 0.0
C173 C 0.72925 0.74244 0.86169 0.0
C174 C 0.73349 0.72204 0.85067 0.0
C175 C 0.7367 0.74697 0.8849 0.0
C176 C 0.74932 0.73205 0.89635 0.0
C177 C 0.75471 0.71231 0.88482 0.0
C178 C 0.74605 0.70711 0.86212 0.0
C179 C 0.64626 0.80878 0.88345 0.0
H180 H 0.7598 0.77452 0.74278 0.0
H181 H 0.73516 0.75959 0.77625 0.0
H182 H 0.73569 0.82917 0.80147 0.0
H183 H 0.75942 0.84396 0.76783 0.0
H184 H 0.74225 0.75786 0.81845 0.0
H185 H 0.69799 0.80956 0.81387 0.0
H186 H 0.69641 0.76802 0.87607 0.0
H187 H 0.65718 0.77647 0.87525 0.0
H188 H 0.69764 0.83704 0.84387 0.0
H189 H 0.67212 0.86096 0.86247 0.0
H190 H 0.72766 0.71796 0.83291 0.0
H191 H 0.73392 0.76269 0.89375 0.0
H192 H 0.63198 0.8008 0.89456 0.0
H193 H 0.74954 0.6918 0.85295 0.0
H194 H 0.75592 0.73666 0.91375 0.0
C195 C 0.79218 0.20433 0.24964 0.0
C196 C 0.78499 0.21873 0.23253 0.0
C197 C 0.80088 0.21333 0.27106 0.0
C198 C 0.80273 0.23703 0.27592 0.0
C199 C 0.7961 0.25158 0.25858 0.0
C200 C 0.78727 0.24251 0.23711 0.0
C201 C 0.81028 0.24604 0.29955 0.0
C202 C 0.82785 0.23705 0.31144 0.0
C203 C 0.8329 0.2428 0.33502 0.0
C204 C 0.82097 0.25889 0.34635 0.0
C205 C 0.80376 0.26864 0.33452 0.0
C206 C 0.79852 0.26202 0.31115 0.0
C207 C 0.78995 0.28442 0.34689 0.0
C208 C 0.78184 0.27988 0.37004 0.0
C209 C 0.78359 0.30341 0.33513 0.0
C210 C 0.76879 0.317 0.34591 0.0
C211 C 0.76009 0.312 0.36875 0.0
C212 C 0.84933 0.23063 0.3481 0.0
C213 C 0.84928 0.20696 0.3442 0.0
C214 C 0.86473 0.24216 0.3648 0.0
C215 C 0.87971 0.23026 0.37726 0.0
C216 C 0.87972 0.20667 0.37309 0.0
C217 C 0.86436 0.19519 0.35643 0.0
C218 C 0.76712 0.29356 0.38087 0.0
H219 H 0.79018 0.18587 0.24691 0.0
H220 H 0.8053 0.20152 0.28417 0.0
H221 H 0.79754 0.26994 0.26169 0.0
H222 H 0.78203 0.25406 0.22418 0.0
H223 H 0.83736 0.22512 0.30238 0.0
H224 H 0.78433 0.26836 0.30241 0.0
H225 H 0.82462 0.26337 0.36457 0.0
H226 H 0.78611 0.26521 0.37951 0.0
H227 H 0.78985 0.30762 0.31743 0.0
H228 H 0.76398 0.33133 0.33627 0.0
H229 H 0.83724 0.19733 0.33198 0.0
H230 H 0.86535 0.2604 0.36812 0.0
H231 H 0.76051 0.28913 0.39841 0.0
H232 H 0.86361 0.17691 0.35321 0.0
H233 H 0.89146 0.23954 0.38997 0.0
C234 C 0.27066 0.62921 0.1826 0.0
C235 C 0.26758 0.63135 0.15823 0.0
C236 C 0.29138 0.63962 0.19353 0.0
C237 C 0.30976 0.65235 0.1804 0.0
C238 C 0.30681 0.6539 0.15592 0.0
C239 C 0.28607 0.64372 0.14508 0.0
C240 C 0.33167 0.66445 0.19198 0.0
C241 C 0.34154 0.65484 0.21143 0.0
C242 C 0.36226 0.66612 0.22205 0.0
C243 C 0.37324 0.68739 0.21253 0.0
C244 C 0.3638 0.69741 0.19303 0.0
C245 C 0.34288 0.68585 0.18333 0.0
C246 C 0.37547 0.71988 0.18247 0.0
C247 C 0.38624 0.7383 0.19653 0.0
C248 C 0.37524 0.72335 0.15798 0.0
C249 C 0.38473 0.74458 0.14797 0.0
C250 C 0.39501 0.76316 0.16202 0.0
C251 C 0.37245 0.6555 0.2429 0.0
C252 C 0.35788 0.64382 0.26047 0.0
C253 C 0.39678 0.65676 0.24544 0.0
C254 C 0.40616 0.6466 0.26474 0.0
C255 C 0.39158 0.63489 0.28229 0.0
C256 C 0.36726 0.63374 0.27979 0.0
C257 C 0.3959 0.75959 0.18645 0.0
H258 H 0.25678 0.61997 0.19338 0.0
H259 H 0.29271 0.63813 0.21239 0.0
H260 H 0.32063 0.66293 0.14494 0.0
H261 H 0.28462 0.64537 0.12624 0.0
H262 H 0.33342 0.63819 0.21794 0.0
H263 H 0.33493 0.69389 0.16913 0.0
H264 H 0.38918 0.69618 0.22029 0.0
H265 H 0.38667 0.73652 0.21543 0.0
H266 H 0.36772 0.70955 0.14637 0.0
H267 H 0.38414 0.74635 0.12907 0.0
H268 H 0.3391 0.64261 0.25946 0.0
H269 H 0.40868 0.66533 0.2323 0.0
H270 H 0.40351 0.77346 0.19793 0.0
H271 H 0.35531 0.62473 0.29264 0.0
H272 H 0.42496 0.64819 0.26598 0.0
C273 C 0.15303 0.27829 0.66884 0.0
C274 C 0.12884 0.27326 0.6649 0.0
C275 C 0.16305 0.29936 0.67878 0.0
C276 C 0.14921 0.31607 0.68517 0.0
C277 C 0.12495 0.31091 0.6817 0.0
C278 C 0.11491 0.28983 0.67159 0.0
C279 C 0.1603 0.33904 0.69455 0.0
C280 C 0.18116 0.35041 0.68431 0.0
C281 C 0.19212 0.37194 0.69269 0.0
C282 C 0.1819 0.3822 0.71176 0.0
C283 C 0.16109 0.37117 0.72258 0.0
C284 C 0.15033 0.34965 0.71363 0.0
C285 C 0.15091 0.38198 0.74346 0.0
C286 C 0.16547 0.39325 0.76102 0.0
C287 C 0.12661 0.38116 0.74609 0.0
C288 C 0.1172 0.39139 0.7656 0.0
C289 C 0.13178 0.40266 0.78316 0.0
C290 C 0.21428 0.38353 0.68137 0.0
C291 C 0.23219 0.37086 0.67548 0.0
C292 C 0.21753 0.40712 0.67584 0.0
C293 C 0.23798 0.41765 0.66434 0.0
C294 C 0.25583 0.40492 0.65834 0.0
C295 C 0.25269 0.38142 0.66421 0.0
C296 C 0.15607 0.4034 0.78055 0.0
H297 H 0.16439 0.26611 0.66376 0.0
H298 H 0.18175 0.30258 0.68142 0.0
H299 H 0.11376 0.3234 0.68627 0.0
H300 H 0.0962 0.28651 0.66908 0.0
H301 H 0.18865 0.3427 0.66928 0.0
H302 H 0.13459 0.34076 0.72197 0.0
H303 H 0.19027 0.3988 0.71826 0.0
H304 H 0.18423 0.39403 0.75985 0.0
H305 H 0.11482 0.37282 0.7329 0.0
H306 H 0.09842 0.39021 0.76704 0.0
H307 H 0.23037 0.35271 0.67965 0.0
H308 H 0.20405 0.41736 0.67997 0.0
H309 H 0.16793 0.41209 0.79349 0.0
H310 H 0.26594 0.37102 0.65971 0.0
H311 H 0.23987 0.43582 0.66027 0.0
Tb312 Tb 0.03752 0.02287 0.50756 0.0
Tb313 Tb 0.99371 0.01691 0.54527 0.0
C314 C 0.99589 0.98145 0.50342 0.0
C315 C 0.08538 0.04629 0.46567 0.0
C316 C 0.11312 0.08167 0.44031 0.0
C317 C 0.1149 0.05844 0.43593 0.0
C318 C 0.10116 0.04092 0.44854 0.0
C319 C 0.08315 0.06937 0.46992 0.0
C320 C 0.09695 0.08696 0.45733 0.0
C321 C 0.0719 0.02763 0.47935 0.0
O322 O 1.01012 0.03834 0.49114 0.0
O323 O 0.99002 0.04667 0.52423 0.0
O324 O 0.02134 0.04266 0.55988 0.0
O325 O 0.0404 0.0558 0.52592 0.0
O326 O 0.9579 0.01533 0.55227 0.0
O327 O 0.98229 1.0136 0.58036 0.0
O328 O 0.01241 0.98863 0.55211 0.0
O329 O 0.04814 1.00588 0.53855 0.0
O330 O 0.01848 0.98846 0.50104 0.0
O331 O 0.98267 0.99254 0.51684 0.0
C332 C 0.99516 0.04959 0.50184 0.0
O333 O 0.07374 0.02957 0.50209 0.0
O334 O 0.05035 0.02105 0.47301 0.0
C335 C 0.03541 0.05859 0.54823 0.0
C336 C 0.94507 0.99169 0.58449 0.0
C337 C 0.9169 0.95346 0.60505 0.0
C338 C 0.91746 0.97566 0.6146 0.0
C339 C 0.93143 0.99462 0.60438 0.0
C340 C 0.9445 0.96963 0.57473 0.0
C341 C 0.93041 0.95064 0.58488 0.0
C342 C 0.96038 1.01163 0.57459 0.0
C343 C 0.03515 0.98997 0.55105 0.0
H344 H 0.12686 0.05376 0.42264 0.0
H345 H 0.10298 0.02315 0.44502 0.0
H346 H 0.071 0.07377 0.48315 0.0
H347 H 0.09528 0.10467 0.46124 0.0
H348 H 0.907 0.9784 0.62995 0.0
H349 H 0.93173 1.01155 0.61211 0.0
H350 H 0.95513 0.96709 0.55944 0.0
H351 H 0.93046 0.93371 0.57727 0.0
Tb352 Tb 0.52897 0.02434 0.04519 0.0
Tb353 Tb 0.48493 0.01788 1.00898 0.0
C354 C 0.52837 0.99435 0.99976 0.0
C355 C 0.58422 0.0488 0.07622 0.0
C356 C 0.6252 0.08013 0.08623 0.0
C357 C 0.62661 0.05855 0.07596 0.0
C358 C 0.60633 0.04301 0.07111 0.0
C359 C 0.5828 0.07064 0.08579 0.0
C360 C 0.60303 0.0861 0.09073 0.0
C361 C 0.56296 0.03151 0.07313 0.0
O362 O 0.53312 0.05666 0.02554 0.0
O363 O 0.51116 0.0445 0.99309 0.0
O364 O 0.48274 0.04735 0.0314 0.0
O365 O 0.4983 0.03294 0.06325 0.0
O366 O 0.47158 1.01415 0.97487 0.0
O367 O 0.44885 0.01698 1.00484 0.0
O368 O 0.47526 0.99144 0.03604 0.0
O369 O 0.51099 0.98962 0.05266 0.0
O370 O 0.54062 1.01067 1.01232 0.0
O371 O 0.50549 0.99144 0.99978 0.0
C372 C 0.52673 0.05977 1.00379 0.0
O373 O 0.54301 0.03849 0.07673 0.0
O374 O 0.56229 0.01789 0.05492 0.0
C375 C 0.4856 0.04703 0.05412 0.0
C376 C 0.43282 0.99394 0.97315 0.0
C377 C 0.39912 0.95904 0.954 0.0
C378 C 0.39241 0.97885 0.96427 0.0
C379 C 0.40911 0.99614 0.97365 0.0
C380 C 0.43959 0.97394 0.9635 0.0
C381 C 0.4229 0.95669 0.95394 0.0
C382 C 0.45004 1.01293 0.98234 0.0
C383 C 0.48881 0.98111 0.04951 0.0
H384 H 0.6434 0.05349 0.07203 0.0
H385 H 0.60795 0.02627 0.06383 0.0
H386 H 0.56607 0.07565 0.09013 0.0
H387 H 0.60123 0.10236 0.09902 0.0
H388 H 0.37423 0.98105 0.96502 0.0
H389 H 0.40352 1.01138 0.98116 0.0
H390 H 0.45779 0.97176 0.96302 0.0
H391 H 0.42874 0.94181 0.94595 0.0
Tb392 Tb 0.5136 0.49251 0.50556 0.0
Tb393 Tb 0.51203 0.53997 0.535 0.0
C394 C 0.49085 0.53277 0.48375 0.0
C395 C 0.53662 0.44447 0.47618 0.0
C396 C 0.57495 0.42346 0.46183 0.0
C397 C 0.55354 0.41878 0.44995 0.0
C398 C 0.53455 0.42918 0.4571 0.0
C399 C 0.55788 0.44925 0.48813 0.0
C400 C 0.57685 0.43877 0.48108 0.0
C401 C 0.51685 0.45603 0.48291 0.0
O402 O 0.54304 0.51719 0.49277 0.0
O403 O 0.54846 0.54234 0.52395 0.0
O404 O 0.52193 0.51515 0.56004 0.0
O405 O 0.53796 0.49166 0.53459 0.0
O406 O 0.51676 0.57615 0.53675 0.0
O407 O 0.50487 0.55553 0.56695 0.0
O408 O 0.47619 0.52204 0.5347 0.0
O409 O 0.48363 0.48529 0.52945 0.0
O410 O 0.48929 0.5103 0.48618 0.0
O411 O 0.50236 0.54704 0.49904 0.0
C412 C 0.55585 0.53405 0.50422 0.0
O413 O 0.51202 0.45659 0.5053 0.0
O414 O 0.51661 0.47593 0.47311 0.0
C415 C 0.53491 0.49908 0.55609 0.0
C416 C 0.4879 0.58834 0.56095 0.0
C417 C 0.44774 0.60834 0.57031 0.0
C418 C 0.46838 0.61527 0.583 0.0
C419 C 0.4883 0.60529 0.57837 0.0
C420 C 0.46761 0.58183 0.54777 0.0
C421 C 0.4477 0.59177 0.55238 0.0
C422 C 0.50784 0.57605 0.55787 0.0
C423 C 0.46976 0.49968 0.53647 0.0
H424 H 0.55156 0.40742 0.43481 0.0
H425 H 0.51833 0.4255 0.44754 0.0
H426 H 0.55984 0.46117 0.50284 0.0
H427 H 0.59294 0.44256 0.49082 0.0
H428 H 0.46905 0.62821 0.59671 0.0
H429 H 0.50382 0.61042 0.58875 0.0
H430 H 0.46697 0.56859 0.53435 0.0
H431 H 0.43203 0.58585 0.54249 0.0
Tb432 Tb 1.00926 0.54489 1.00798 0.0
Tb433 Tb 1.00884 0.49707 0.03669 0.0
C434 C 0.03278 0.50496 0.98628 0.0
C435 C 0.98615 0.59312 0.98175 0.0
C436 C 0.94604 0.61223 0.97074 0.0
C437 C 0.9661 0.61627 0.95623 0.0
C438 C 0.986 0.60678 0.96172 0.0
C439 C 0.96629 0.58923 0.99639 0.0
C440 C 0.94649 0.59879 0.99102 0.0
C441 C 1.00637 0.58175 0.9866 0.0
O442 O 0.98043 0.52036 0.99377 0.0
O443 O 0.97289 0.49548 0.02474 0.0
O444 O 0.99878 0.52186 0.06195 0.0
O445 O 0.98376 0.54534 0.03648 0.0
O446 O 1.0024 0.46089 0.03749 0.0
O447 O 0.01467 0.48058 0.06815 0.0
O448 O 0.04494 0.51456 0.03834 0.0
O449 O 0.03885 0.55159 0.03194 0.0
O450 O 0.03427 0.52739 0.98887 0.0
O451 O 0.02056 0.49058 1.00106 0.0
C452 C 0.96668 0.50371 1.00473 0.0
O453 O 0.01206 0.58091 1.00862 0.0
O454 O 1.0063 0.562 0.9761 0.0
C455 C 0.98616 0.53804 0.05793 0.0
C456 C 0.03032 0.44712 0.06068 0.0
C457 C 0.06936 0.42517 0.06776 0.0
C458 C 0.04905 0.41947 0.08168 0.0
C459 C 0.02968 0.43041 0.07816 0.0
C460 C 0.05032 0.45251 0.04641 0.0
C461 C 0.06966 0.44159 0.04988 0.0
C462 C 0.01102 0.46025 0.05846 0.0
C463 C 0.0519 0.53693 0.03975 0.0
H464 H 0.96624 0.62627 0.9403 0.0
H465 H 1.0011 0.60973 0.95009 0.0
H466 H 0.96597 0.57857 1.01187 0.0
H467 H 0.9315 0.5956 1.00276 0.0
H468 H 0.04822 0.40669 0.09541 0.0
H469 H 0.01439 0.42616 0.08938 0.0
H470 H 0.05117 0.46559 0.03296 0.0
H471 H 0.08512 0.44656 0.03908 0.0
H472 H 0.2168 0.24151 0.30319 0.0
H473 H 0.19242 0.21968 0.33334 0.0
H474 H 0.24563 0.17731 0.34384 0.0
H475 H 0.27004 0.19891 0.31358 0.0
H476 H 0.17659 0.17229 0.32958 0.0
H477 H 0.22708 0.19312 0.41124 0.0
H478 H 0.23212 0.2105 0.38506 0.0
H479 H 0.24379 0.18405 0.38715 0.0
C480 C 0.22341 0.22768 0.31209 0.0
C481 C 0.2453 0.22185 0.30594 0.0
C482 C 0.20951 0.21532 0.32936 0.0
C483 C 0.21732 0.19705 0.34094 0.0
C484 C 0.23949 0.19167 0.33544 0.0
H485 H 0.15942 0.08426 0.42919 0.0
H486 H 0.18381 0.11361 0.40574 0.0
C487 C 0.25341 0.20403 0.31815 0.0
C488 C 0.20142 0.18222 0.35705 0.0
H489 H 0.19607 0.16117 0.41291 0.0
C490 C 0.18067 0.17005 0.34788 0.0
C491 C 0.20693 0.17929 0.38085 0.0
C492 C 0.22859 0.19258 0.39177 0.0
C493 C 0.1656 0.15439 0.36168 0.0
C494 C 0.17124 0.15122 0.38541 0.0
C495 C 0.19181 0.16369 0.39471 0.0
C496 C 0.15656 0.13421 0.40052 0.0
C497 C 0.14426 0.14074 0.35047 0.0
C498 C 0.13326 0.13631 0.40566 0.0
C499 C 0.11918 0.11941 0.41884 0.0
C500 C 0.12823 0.10021 0.42721 0.0
C501 C 0.1518 0.09859 0.42261 0.0
C502 C 0.16582 0.11544 0.4094 0.0
H503 H 0.14537 0.1413 0.33098 0.0
H504 H 0.14182 0.12245 0.35609 0.0
H505 H 0.12858 0.14808 0.35604 0.0
H506 H 0.12591 0.15089 0.39927 0.0
H507 H 0.10109 0.12113 0.42201 0.0
H508 H 0.24655 0.85211 0.81878 0.0
H509 H 0.26957 0.87426 0.84944 0.0
H510 H 0.3037 0.8159 0.86389 0.0
H511 H 0.28103 0.79382 0.83294 0.0
H512 H 0.27622 0.86858 0.89697 0.0
H513 H 0.35813 0.8654 0.84623 0.0
H514 H 0.32962 0.85636 0.83392 0.0
H515 H 0.34194 0.83767 0.85341 0.0
C516 C 0.25865 0.84388 0.82881 0.0
C517 C 0.26222 0.82136 0.82334 0.0
C518 C 0.27183 0.85656 0.84625 0.0
C519 C 0.28871 0.84688 0.85854 0.0
C520 C 0.2912 0.82388 0.85418 0.0
H521 H 0.39664 0.91198 0.95432 0.0
H522 H 0.3689 0.88334 0.93341 0.0
C523 C 0.2782 0.81128 0.83659 0.0
C524 C 0.30459 0.86134 0.87486 0.0
H525 H 0.36191 0.88397 0.88312 0.0
C526 C 0.29496 0.87187 0.89402 0.0
C527 C 0.32905 0.86569 0.87088 0.0
C528 C 0.34034 0.85588 0.8499 0.0
C529 C 0.30916 0.88671 0.90927 0.0
C530 C 0.33352 0.89119 0.90512 0.0
C531 C 0.34321 0.88032 0.88629 0.0
C532 C 0.34921 0.90823 0.91914 0.0
C533 C 0.29804 0.89753 0.92969 0.0
C534 C 0.34736 0.93166 0.91785 0.0
C535 C 0.36333 0.94808 0.92945 0.0
C536 C 0.38149 0.94137 0.94262 0.0
C537 C 0.38307 0.91778 0.94412 0.0
C538 C 0.36714 0.90137 0.93236 0.0
H539 H 0.2803 0.88813 0.93385 0.0
H540 H 0.30899 0.89797 0.94561 0.0
H541 H 0.2964 0.91554 0.92519 0.0
H542 H 0.33394 0.93732 0.90728 0.0
H543 H 0.36185 0.96609 0.92749 0.0
H544 H 0.59623 0.42329 0.75687 0.0
H545 H 0.58068 0.44006 0.72228 0.0
H546 H 0.62931 0.41109 0.67788 0.0
H547 H 0.64477 0.39403 0.7123 0.0
H548 H 0.60469 0.47181 0.68872 0.0
H549 H 0.56608 0.38989 0.64553 0.0
H550 H 0.57424 0.39141 0.67609 0.0
H551 H 0.59622 0.39189 0.65353 0.0
C552 C 0.60351 0.42023 0.73975 0.0
C553 C 0.6218 0.40712 0.73759 0.0
C554 C 0.59465 0.43 0.71992 0.0
C555 C 0.60353 0.42671 0.69725 0.0
C556 C 0.62182 0.41369 0.69501 0.0
H557 H 0.5663 0.46821 0.55568 0.0
H558 H 0.58354 0.45151 0.58937 0.0
C559 C 0.63084 0.40409 0.71485 0.0
C560 C 0.59401 0.43724 0.67612 0.0
H561 H 0.56565 0.42409 0.62406 0.0
C562 C 0.59609 0.46134 0.67463 0.0
C563 C 0.58292 0.42374 0.65748 0.0
C564 C 0.5795 0.39779 0.65819 0.0
C565 C 0.58779 0.47225 0.65509 0.0
C566 C 0.57629 0.45875 0.63659 0.0
C567 C 0.57435 0.43461 0.63805 0.0
C568 C 0.56591 0.46926 0.61584 0.0
C569 C 0.59211 0.49822 0.65426 0.0
C570 C 0.5499 0.48469 0.6191 0.0
C571 C 0.54018 0.49446 0.59982 0.0
C572 C 0.54583 0.48887 0.57655 0.0
C573 C 0.56155 0.4731 0.57325 0.0
C574 C 0.57142 0.46345 0.5926 0.0
H575 H 0.60736 0.50554 0.66507 0.0
H576 H 0.59526 0.50456 0.63598 0.0
H577 H 0.57661 0.50484 0.6615 0.0
H578 H 0.5446 0.48903 0.63665 0.0
H579 H 0.52795 0.50625 0.60324 0.0
H580 H 0.87874 0.64731 0.21468 0.0
H581 H 0.89381 0.62921 0.18005 0.0
H582 H 0.94042 0.5986 0.22396 0.0
H583 H 0.92526 0.61636 0.25871 0.0
H584 H 0.94139 0.63378 0.16275 0.0
H585 H 0.90553 0.5434 0.18596 0.0
H586 H 0.89506 0.56777 0.19944 0.0
H587 H 0.92216 0.55973 0.20859 0.0
C588 C 0.89206 0.63657 0.21704 0.0
C589 C 0.90067 0.63326 0.23961 0.0
C590 C 0.90076 0.62633 0.19716 0.0
C591 C 0.91807 0.61228 0.19935 0.0
C592 C 0.92685 0.60909 0.2218 0.0
H593 H 0.99171 0.53096 0.10495 0.0
H594 H 0.97506 0.54941 0.13823 0.0
C595 C 0.91829 0.61946 0.24166 0.0
C596 C 0.92714 0.60121 0.17817 0.0
H597 H 0.93134 0.54889 0.15325 0.0
C598 C 0.9391 0.61522 0.16059 0.0
C599 C 0.92423 0.57698 0.17534 0.0
C600 C 0.91089 0.56102 0.1932 0.0
C601 C 0.94874 0.60572 0.14064 0.0
C602 C 0.94581 0.58144 0.13776 0.0
C603 C 0.93365 0.56746 0.15531 0.0
C604 C 0.9557 0.57015 0.11708 0.0
C605 C 0.96267 0.62184 0.12329 0.0
C606 C 0.95019 0.57524 0.09387 0.0
C607 C 0.95989 0.56477 0.07467 0.0
C608 C 0.97508 0.54868 0.07819 0.0
C609 C 0.98011 0.54323 0.10145 0.0
C610 C 0.97056 0.5538 0.12059 0.0
H611 H 0.96895 0.63897 0.13129 0.0
H612 H 0.978 0.61461 0.11644 0.0
H613 H 0.95141 0.62452 0.10826 0.0
H614 H 0.93829 0.58725 0.09056 0.0
H615 H 0.95544 0.5693 0.05707 0.0
H616 H 0.40081 0.21755 0.12705 0.0
H617 H 0.42197 0.18758 0.11232 0.0
H618 H 0.41691 0.15594 0.18072 0.0
H619 H 0.39475 0.18527 0.19535 0.0
H620 H 0.4627 0.17283 0.12503 0.0
H621 H 0.38627 0.10379 0.13876 0.0
H622 H 0.38404 0.13398 0.14098 0.0
H623 H 0.39626 0.11985 0.16463 0.0
C624 C 0.40417 0.20421 0.13897 0.0
C625 C 0.39577 0.20361 0.16227 0.0
C626 C 0.41641 0.18719 0.13057 0.0
C627 C 0.42056 0.16928 0.1453 0.0
C628 C 0.41343 0.16934 0.16894 0.0
H629 H 0.48492 0.04944 0.10225 0.0
H630 H 0.47044 0.07874 0.1268 0.0
C631 C 0.40104 0.1863 0.17734 0.0
C632 C 0.43141 0.15011 0.13542 0.0
H633 H 0.42024 0.09261 0.1224 0.0
C634 C 0.45352 0.15526 0.12465 0.0
C635 C 0.41931 0.12719 0.13488 0.0
C636 C 0.39508 0.12081 0.14524 0.0
C637 C 0.46363 0.13818 0.11293 0.0
C638 C 0.45129 0.11549 0.11196 0.0
C639 C 0.4296 0.1101 0.12337 0.0
C640 C 0.45977 0.0976 0.09744 0.0
C641 C 0.48721 0.14452 0.1012 0.0
C642 C 0.4581 0.09844 0.07295 0.0
C643 C 0.46609 0.08172 0.05893 0.0
C644 C 0.47601 0.0639 0.0692 0.0
C645 C 0.4774 0.06297 0.09383 0.0
C646 C 0.46919 0.07966 0.10787 0.0
H647 H 0.49629 0.16166 0.10706 0.0
H648 H 0.49844 0.13137 0.10493 0.0
H649 H 0.48492 0.14502 0.08189 0.0
H650 H 0.45067 0.11212 0.06467 0.0
H651 H 0.46479 0.08298 0.04003 0.0
H652 H 0.1717 0.86424 0.63847 0.0
H653 H 0.1491 0.89043 0.61939 0.0
H654 H 0.08544 0.852 0.64775 0.0
H655 H 0.10792 0.82551 0.66678 0.0
H656 H 0.11282 0.87979 0.58637 0.0
H657 H 0.08247 0.91898 0.66798 0.0
H658 H 0.1062 0.90248 0.66773 0.0
H659 H 0.07652 0.88806 0.66645 0.0
C660 C 0.15287 0.8612 0.64049 0.0
C661 C 0.14161 0.84278 0.65416 0.0
C662 C 0.14001 0.87626 0.62968 0.0
C663 C 0.11566 0.87331 0.63243 0.0
C664 C 0.10428 0.85482 0.64582 0.0
H665 H 0.01417 0.95407 0.57823 0.0
H666 H 0.03287 0.92492 0.59774 0.0
C667 C 0.11715 0.83972 0.65666 0.0
C668 C 0.10228 0.88948 0.62093 0.0
H669 H 0.06834 0.93082 0.63204 0.0
C670 C 0.10306 0.89094 0.59633 0.0
C671 C 0.08951 0.9039 0.63401 0.0
C672 C 0.08869 0.9035 0.66051 0.0
C673 C 0.09143 0.90649 0.58442 0.0
C674 C 0.07906 0.92124 0.59752 0.0
C675 C 0.07789 0.91949 0.62209 0.0
C676 C 0.06779 0.93906 0.58603 0.0
C677 C 0.09231 0.90686 0.55792 0.0
C678 C 0.08133 0.95689 0.57338 0.0
C679 C 0.07074 0.97355 0.56223 0.0
C680 C 0.04641 0.97279 0.56363 0.0
C681 C 0.03294 0.95514 0.57674 0.0
C682 C 0.04357 0.93847 0.5879 0.0
H683 H 0.09691 0.89061 0.55053 0.0
H684 H 0.07529 0.90957 0.55061 0.0
H685 H 0.10584 0.92126 0.55201 0.0
H686 H 0.10011 0.9579 0.57214 0.0
H687 H 0.08167 0.98695 0.55241 0.0
H688 H 0.77369 0.38638 0.92445 0.0
H689 H 0.80873 0.40412 0.94518 0.0
H690 H 0.81858 0.45985 0.89543 0.0
H691 H 0.78346 0.44225 0.87463 0.0
H692 H 0.85372 0.41361 0.93148 0.0
H693 H 0.8242 0.49569 0.95601 0.0
H694 H 0.80453 0.4714 0.94453 0.0
H695 H 0.82321 0.4902 0.92498 0.0
C696 C 0.7833 0.40238 0.9178 0.0
C697 C 0.77551 0.41282 0.89777 0.0
C698 C 0.80338 0.4126 0.9298 0.0
C699 C 0.81629 0.43362 0.92226 0.0
C700 C 0.80871 0.444 0.90214 0.0
H701 H 0.94658 0.51859 0.9654 0.0
H702 H 0.91042 0.5014 0.9462 0.0
C703 C 0.78855 0.43384 0.89017 0.0
C704 C 0.83796 0.44423 0.93505 0.0
H705 H 0.86428 0.49361 0.96232 0.0
C706 C 0.8559 0.43106 0.93834 0.0
C707 C 0.84104 0.46704 0.94411 0.0
C708 C 0.82214 0.48185 0.94246 0.0
C709 C 0.87682 0.44011 0.94985 0.0
C710 C 0.87995 0.46295 0.95877 0.0
C711 C 0.86202 0.47613 0.95553 0.0
C712 C 0.90184 0.47362 0.97108 0.0
C713 C 0.89569 0.4253 0.95179 0.0
C714 C 0.90909 0.4641 0.99185 0.0
C715 C 0.92986 0.47397 1.00299 0.0
C716 C 0.94395 0.49366 0.99367 0.0
C717 C 0.93637 0.50339 0.97312 0.0
C718 C 0.91558 0.49357 0.96208 0.0
H719 H 0.89315 0.4107 0.93909 0.0
H720 H 0.91323 0.43559 0.94869 0.0
H721 H 0.89528 0.41803 0.96975 0.0
H722 H 0.89864 0.44902 0.99952 0.0
H723 H 0.93498 0.466 1.01879 0.0
H724 H 0.74059 0.59972 0.37738 0.0
H725 H 0.70464 0.58235 0.3976 0.0
H726 H 0.71421 0.63702 0.44908 0.0
H727 H 0.74962 0.65495 0.42854 0.0
H728 H 0.698 0.56607 0.44294 0.0
H729 H 0.6472 0.63717 0.42961 0.0
H730 H 0.67395 0.63537 0.4137 0.0
H731 H 0.67486 0.64613 0.44338 0.0
C732 C 0.7349 0.60827 0.3928 0.0
C733 C 0.74809 0.62886 0.40119 0.0
C734 C 0.71439 0.59819 0.40447 0.0
C735 C 0.70644 0.60851 0.42471 0.0
C736 C 0.71966 0.62892 0.43326 0.0
H737 H 0.58602 0.57221 0.51928 0.0
H738 H 0.62305 0.58975 0.50098 0.0
C739 C 0.74014 0.63901 0.42162 0.0
C740 C 0.68465 0.59767 0.43714 0.0
H741 H 0.63063 0.60736 0.4555 0.0
C742 C 0.68324 0.57508 0.4456 0.0
C743 C 0.66535 0.6094 0.44073 0.0
C744 C 0.66524 0.63327 0.4312 0.0
C745 C 0.6633 0.56406 0.45775 0.0
C746 C 0.64399 0.57577 0.46126 0.0
C747 C 0.64543 0.5984 0.45293 0.0
C748 C 0.62188 0.56463 0.4729 0.0
C749 C 0.66328 0.54011 0.46709 0.0
C750 C 0.60876 0.54473 0.4632 0.0
C751 C 0.58762 0.53467 0.4736 0.0
C752 C 0.57894 0.54431 0.49396 0.0
C753 C 0.59216 0.56422 0.50372 0.0
C754 C 0.61333 0.57432 0.49323 0.0
H755 H 0.6813 0.5362 0.46889 0.0
H756 H 0.65431 0.53784 0.48446 0.0
H757 H 0.65383 0.52737 0.45469 0.0
H758 H 0.61468 0.53716 0.44728 0.0
H759 H 0.57796 0.51941 0.46548 0.0
H760 H 0.2561 0.36485 0.14532 0.0
H761 H 0.22618 0.38427 0.12768 0.0
H762 H 0.20213 0.32346 0.08653 0.0
H763 H 0.23185 0.30391 0.10422 0.0
H764 H 0.2116 0.39307 0.08052 0.0
H765 H 0.14651 0.33161 0.13048 0.0
H766 H 0.17743 0.33501 0.13603 0.0
H767 H 0.16534 0.31853 0.11113 0.0
C768 C 0.24486 0.35588 0.13201 0.0
C769 C 0.24602 0.3328 0.12634 0.0
C770 C 0.22777 0.36695 0.12201 0.0
C771 C 0.21171 0.35509 0.1062 0.0
C772 C 0.21412 0.33272 0.09903 0.0
H773 H 0.09884 0.40922 0.03587 0.0
H774 H 0.13416 0.39281 0.04403 0.0
C775 C 0.23108 0.32161 0.10911 0.0
C776 C 0.19102 0.3651 0.09924 0.0
H777 H 0.13177 0.35786 0.10589 0.0
C778 C 0.19411 0.38538 0.08594 0.0
C779 C 0.16832 0.35515 0.10673 0.0
C780 C 0.1641 0.33399 0.12205 0.0
C781 C 0.17496 0.39595 0.0798 0.0
C782 C 0.15224 0.38576 0.08699 0.0
C783 C 0.14922 0.36551 0.10029 0.0
C784 C 0.13133 0.39623 0.08178 0.0
C785 C 0.17922 0.41822 0.06625 0.0
C786 C 0.11783 0.4031 0.10033 0.0
C787 C 0.09764 0.41235 0.09576 0.0
C788 C 0.09052 0.4148 0.07252 0.0
C789 C 0.10404 0.40779 0.05395 0.0
C790 C 0.12424 0.3985 0.05856 0.0
H791 H 0.19785 0.42639 0.06669 0.0
H792 H 0.17438 0.41469 0.04763 0.0
H793 H 0.16831 0.43061 0.07339 0.0
H794 H 0.123 0.40142 0.11839 0.0
H795 H 0.08781 0.4179 0.11042 0.0
H796 H 0.63551 0.22787 0.87611 0.0
H797 H 0.61853 0.19239 0.89622 0.0
H798 H 0.57241 0.22968 0.9353 0.0
H799 H 0.58916 0.2652 0.91507 0.0
H800 H 0.61757 0.18012 0.94102 0.0
H801 H 0.52614 0.17641 0.91261 0.0
H802 H 0.54991 0.19615 0.89984 0.0
H803 H 0.53713 0.2028 0.92753 0.0
C804 C 0.62174 0.2286 0.88898 0.0
C805 C 0.61372 0.24958 0.89379 0.0
C806 C 0.61196 0.20818 0.90048 0.0
C807 C 0.59382 0.20802 0.91714 0.0
C808 C 0.58588 0.22898 0.92211 0.0
H809 H 0.55554 0.09782 0.02116 0.0
H810 H 0.57161 0.13332 1.00063 0.0
C811 C 0.59555 0.2494 0.9105 0.0
C812 C 0.58379 0.18612 0.92967 0.0
H813 H 0.53267 0.15029 0.94266 0.0
C814 C 0.59899 0.17361 0.94129 0.0
C815 C 0.55956 0.17719 0.92988 0.0
C816 C 0.54225 0.18869 0.9166 0.0
C817 C 0.59075 0.15287 0.95322 0.0
C818 C 0.56643 0.14441 0.95418 0.0
C819 C 0.55126 0.15673 0.94228 0.0
C820 C 0.55641 0.12265 0.96698 0.0
C821 C 0.60835 0.13994 0.96415 0.0
C822 C 0.54176 0.1048 0.95536 0.0
C823 C 0.53224 0.08448 0.9672 0.0
C824 C 0.53705 0.08138 0.99108 0.0
C825 C 0.55157 0.09935 1.00275 0.0
C826 C 0.56096 0.11972 0.99093 0.0
H827 H 0.62592 0.14464 0.95593 0.0
H828 H 0.60992 0.1444 0.9831 0.0
H829 H 0.60293 0.12102 0.96249 0.0
H830 H 0.53779 0.1065 0.93697 0.0
H831 H 0.52113 0.07117 0.95755 0.0
H832 H 0.92266 0.77455 0.42423 0.0
H833 H 0.93824 0.81006 0.44527 0.0
H834 H 0.913 0.85008 0.39075 0.0
H835 H 0.8965 0.81457 0.37029 0.0
H836 H 0.96992 0.84462 0.43635 0.0
H837 H 0.88725 0.87942 0.4456 0.0
H838 H 0.88814 0.85063 0.43499 0.0
H839 H 0.89406 0.87484 0.41533 0.0
C840 C 0.92043 0.79094 0.41676 0.0
C841 C 0.90818 0.79172 0.39568 0.0
C842 C 0.92931 0.81128 0.42883 0.0
C843 C 0.9264 0.83295 0.42001 0.0
C844 C 0.91481 0.83372 0.39851 0.0
H845 H 0.01273 0.96127 0.46478 0.0
H846 H 0.99579 0.92572 0.44486 0.0
C847 C 0.90554 0.81337 0.38667 0.0
C848 C 0.93597 0.85462 0.43301 0.0
H849 H 0.92217 0.90566 0.45364 0.0
C850 C 0.95937 0.85786 0.44024 0.0
C851 C 0.92224 0.87188 0.43866 0.0
C852 C 0.89648 0.86892 0.43347 0.0
C853 C 0.96947 0.87783 0.45246 0.0
C854 C 0.95614 0.89569 0.45685 0.0
C855 C 0.93261 0.89226 0.45003 0.0
C856 C 0.96616 0.91793 0.46861 0.0
C857 C 0.99416 0.87914 0.46107 0.0
C858 C 0.95469 0.9263 0.488 0.0
C859 C 0.96406 0.94708 0.49907 0.0
C860 C 0.98528 0.9599 0.49117 0.0
C861 C 0.99655 0.95169 0.47157 0.0
C862 C 0.98695 0.93117 0.46025 0.0
H863 H 0.99878 0.86169 0.46354 0.0
H864 H 1.00645 0.88813 0.44779 0.0
H865 H 0.99674 0.88867 0.47798 0.0
H866 H 0.93856 0.91661 0.49479 0.0
H867 H 0.95491 0.95286 0.51412 0.0
H868 H 0.26199 0.70109 0.61777 0.0
H869 H 0.28829 0.67936 0.59609 0.0
H870 H 0.31767 0.66174 0.66151 0.0
H871 H 0.29133 0.68299 0.68315 0.0
H872 H 0.33682 0.69032 0.59775 0.0
H873 H 0.30826 0.60042 0.62623 0.0
H874 H 0.28997 0.62244 0.62944 0.0
H875 H 0.31228 0.62009 0.65061 0.0
C876 C 0.27366 0.69205 0.62749 0.0
C877 C 0.27471 0.69375 0.65212 0.0
C878 C 0.28871 0.67976 0.61511 0.0
C879 C 0.30473 0.66873 0.62722 0.0
C880 C 0.30514 0.66973 0.65184 0.0
H881 H 0.43071 0.61533 0.6142 0.0
H882 H 0.39458 0.6295 0.62473 0.0
C883 C 0.29025 0.68206 0.66417 0.0
C884 C 0.32275 0.65822 0.61437 0.0
H885 H 0.34801 0.60967 0.61198 0.0
C886 C 0.33903 0.67254 0.60039 0.0
C887 C 0.32554 0.63505 0.61789 0.0
C888 C 0.30793 0.61855 0.63167 0.0
C889 C 0.35889 0.6647 0.59109 0.0
C890 C 0.3623 0.64188 0.59568 0.0
C891 C 0.34541 0.62722 0.60865 0.0
C892 C 0.38413 0.63344 0.58882 0.0
C893 C 0.37671 0.68124 0.57758 0.0
C894 C 0.39017 0.63095 0.56511 0.0
C895 C 0.41096 0.62304 0.55902 0.0
C896 C 0.426 0.61745 0.57656 0.0
C897 C 0.41976 0.6199 0.60027 0.0
C898 C 0.39901 0.62777 0.60633 0.0
H899 H 0.37337 0.69929 0.57901 0.0
H900 H 0.39459 0.68051 0.58399 0.0
H901 H 0.37615 0.67627 0.55873 0.0
H902 H 0.37876 0.63501 0.55136 0.0
H903 H 0.41532 0.62142 0.5406 0.0
H904 H 0.80036 0.84296 0.75703 0.0
H905 H 0.82687 0.85981 0.72596 0.0
H906 H 0.788 0.81505 0.67497 0.0
H907 H 0.76088 0.79834 0.7061 0.0
H908 H 0.85483 0.83774 0.69359 0.0
H909 H 0.78855 0.88132 0.64945 0.0
H910 H 0.78424 0.87029 0.67896 0.0
H911 H 0.78148 0.8508 0.65442 0.0
C912 C 0.79732 0.83679 0.73918 0.0
C913 C 0.77833 0.81958 0.73392 0.0
C914 C 0.81261 0.84628 0.7215 0.0
C915 C 0.80923 0.83882 0.69819 0.0
C916 C 0.7907 0.82119 0.69286 0.0
H917 H 0.88796 0.91792 0.58405 0.0
H918 H 0.86277 0.88581 0.60347 0.0
C919 C 0.77535 0.81159 0.71064 0.0
C920 C 0.82491 0.85032 0.67968 0.0
H921 H 0.82735 0.89055 0.63641 0.0
C922 C 0.8488 0.84898 0.68078 0.0
C923 C 0.81692 0.86484 0.66293 0.0
C924 C 0.79143 0.86712 0.66129 0.0
C925 C 0.8651 0.86265 0.66633 0.0
C926 C 0.85728 0.8783 0.65069 0.0
C927 C 0.83325 0.87856 0.6485 0.0
C928 C 0.87376 0.89637 0.63861 0.0
C929 C 0.89062 0.86072 0.66841 0.0
C930 C 0.88813 0.91293 0.65197 0.0
C931 C 0.9024 0.9312 0.641 0.0
C932 C 0.90251 0.93336 0.61643 0.0
C933 C 0.88836 0.91657 0.60301 0.0
C934 C 0.87395 0.89829 0.61404 0.0
H935 H 0.89295 0.84345 0.67488 0.0
H936 H 0.89989 0.86388 0.65127 0.0
H937 H 0.89887 0.87374 0.68122 0.0
H938 H 0.88788 0.91202 0.67098 0.0
H939 H 0.91327 0.94375 0.65178 0.0
H940 H 0.74575 0.22921 0.21176 0.0
H941 H 0.72333 0.20788 0.18021 0.0
H942 H 0.77519 0.16322 0.17349 0.0
H943 H 0.79801 0.18468 0.20472 0.0
H944 H 0.74362 0.1878 0.12798 0.0
H945 H 0.70334 0.12902 0.19904 0.0
H946 H 0.71283 0.15929 0.20471 0.0
H947 H 0.73404 0.14067 0.19979 0.0
C948 C 0.75279 0.21533 0.20307 0.0
C949 C 0.77355 0.20848 0.21088 0.0
C950 C 0.73993 0.20316 0.18511 0.0
C951 C 0.74768 0.18405 0.17466 0.0
C952 C 0.76904 0.178 0.18137 0.0
H953 H 0.66397 0.06803 0.10659 0.0
H954 H 0.69649 0.09347 0.12434 0.0
C955 C 0.78192 0.19015 0.19932 0.0
C956 C 0.73202 0.16863 0.15915 0.0
H957 H 0.69003 0.12102 0.16076 0.0
C958 C 0.73192 0.17313 0.135 0.0
C959 C 0.71699 0.14953 0.16851 0.0
C960 C 0.71661 0.14417 0.19443 0.0
C961 C 0.71694 0.15885 0.11986 0.0
C962 C 0.70151 0.13996 0.12933 0.0
C963 C 0.70192 0.13544 0.1535 0.0
C964 C 0.68409 0.12498 0.11493 0.0
C965 C 0.71796 0.16396 0.09391 0.0
C966 C 0.66659 0.13425 0.10322 0.0
C967 C 0.64809 0.11972 0.09273 0.0
C968 C 0.64656 0.09563 0.09406 0.0
C969 C 0.66468 0.08646 0.10493 0.0
C970 C 0.68324 0.10099 0.11526 0.0
H971 H 0.73506 0.17411 0.08868 0.0
H972 H 0.71499 0.14784 0.08333 0.0
H973 H 0.70415 0.17428 0.08961 0.0
H974 H 0.66662 0.15267 0.10311 0.0
H975 H 0.63459 0.12737 0.08424 0.0
H976 H 0.4301 0.61252 0.28347 0.0
H977 H 0.44612 0.59463 0.31698 0.0
H978 H 0.39227 0.61434 0.36189 0.0
H979 H 0.37616 0.63229 0.32853 0.0
H980 H 0.46441 0.61153 0.35784 0.0
H981 H 0.38642 0.54713 0.37816 0.0
H982 H 0.38923 0.56366 0.35139 0.0
H983 H 0.38032 0.5761 0.37833 0.0
C984 C 0.42165 0.61321 0.30046 0.0
C985 C 0.40161 0.62389 0.30299 0.0
C986 C 0.43083 0.6028 0.31971 0.0
C987 C 0.42027 0.6026 0.34212 0.0
C988 C 0.40048 0.61353 0.34479 0.0
H989 H 0.48816 0.57816 0.47464 0.0
H990 H 0.47125 0.59445 0.44077 0.0
C991 C 0.39125 0.6239 0.32556 0.0
C992 C 0.43028 0.5915 0.36268 0.0
H993 H 0.41664 0.55172 0.4066 0.0
C994 C 0.45391 0.59841 0.36841 0.0
C995 C 0.4169 0.57402 0.37649 0.0
C996 C 0.39188 0.56459 0.37068 0.0
C997 C 0.46428 0.58883 0.38757 0.0
C998 C 0.45065 0.57203 0.40195 0.0
C999 C 0.42716 0.56474 0.39593 0.0
C1000 C 0.46046 0.56182 0.42318 0.0
C1001 C 0.48996 0.59654 0.39189 0.0
C1002 C 0.45944 0.53782 0.4254 0.0
C1003 C 0.469 0.52833 0.44503 0.0
C1004 C 0.47978 0.54256 0.46313 0.0
C1005 C 0.48029 0.56654 0.46108 0.0
C1006 C 0.47071 0.57598 0.44151 0.0
H1007 H 0.49922 0.60382 0.37576 0.0
H1008 H 0.49208 0.6102 0.40558 0.0
H1009 H 0.49844 0.58205 0.39807 0.0
H1010 H 0.45154 0.52638 0.41172 0.0
H1011 H 0.46816 0.50983 0.44588 0.0
H1012 H 0.14593 0.40327 0.82922 0.0
H1013 H 0.12968 0.42114 0.86322 0.0
H1014 H 0.07881 0.44487 0.81881 0.0
H1015 H 0.09499 0.42709 0.7847 0.0
H1016 H 0.12549 0.46596 0.87286 0.0
H1017 H 0.03758 0.41281 0.87058 0.0
H1018 H 0.0619 0.4057 0.85354 0.0
H1019 H 0.04592 0.42756 0.84354 0.0
C1020 C 0.13136 0.41239 0.82659 0.0
C1021 C 0.12177 0.41357 0.80407 0.0
C1022 C 0.12201 0.42256 0.84614 0.0
C1023 C 0.10273 0.43411 0.84379 0.0
C1024 C 0.09329 0.4356 0.82131 0.0
H1025 H 0.05596 0.52807 0.94872 0.0
H1026 H 0.07335 0.51158 0.91442 0.0
C1027 C 0.1026 0.42538 0.80175 0.0
C1028 C 0.09274 0.44476 0.86479 0.0
H1029 H 0.04251 0.4445 0.89706 0.0
C1030 C 0.10735 0.46123 0.87815 0.0
C1031 C 0.06912 0.43846 0.872 0.0
C1032 C 0.05275 0.42001 0.85933 0.0
C1033 C 0.09898 0.47169 0.89821 0.0
C1034 C 0.0752 0.46586 0.90503 0.0
C1035 C 0.06067 0.44921 0.89181 0.0
C1036 C 0.06514 0.47624 0.92616 0.0
C1037 C 0.11589 0.48849 0.91226 0.0
C1038 C 0.0543 0.46198 0.94415 0.0
C1039 C 0.0442 0.47135 0.96371 0.0
C1040 C 0.04453 0.49529 0.96583 0.0
C1041 C 0.05549 0.5096 0.94785 0.0
C1042 C 0.06557 0.50017 0.92821 0.0
H1043 H 0.1343 0.48639 0.90861 0.0
H1044 H 0.1139 0.50632 0.90745 0.0
H1045 H 0.11239 0.48632 0.9314 0.0
H1046 H 0.05364 0.44348 0.94307 0.0
H1047 H 0.03597 0.45971 0.97713 0.0
H1048 H 0.63661 0.83297 0.92596 0.0
H1049 H 0.61436 0.85992 0.94546 0.0
H1050 H 0.60719 0.893 0.87908 0.0
H1051 H 0.62982 0.86643 0.85965 0.0
H1052 H 0.62145 0.92386 0.9126 0.0
H1053 H 0.54542 0.86287 0.94568 0.0
H1054 H 0.57281 0.85581 0.95514 0.0
H1055 H 0.56587 0.85459 0.92438 0.0
C1056 C 0.62994 0.84577 0.91551 0.0
C1057 C 0.63491 0.84765 0.89132 0.0
C1058 C 0.61719 0.86111 0.92664 0.0
C1059 C 0.60885 0.87829 0.91367 0.0
C1060 C 0.61344 0.87987 0.88942 0.0
H1061 H 0.50985 0.96333 0.96639 0.0
H1062 H 0.52963 0.93598 0.94458 0.0
C1063 C 0.62637 0.86472 0.87836 0.0
C1064 C 0.59649 0.89546 0.92549 0.0
H1065 H 0.54984 0.90119 0.9609 0.0
C1066 C 0.6057 0.91891 0.92305 0.0
C1067 C 0.57579 0.889 0.93887 0.0
C1068 C 0.56424 0.86422 0.941 0.0
C1069 C 0.59498 0.93607 0.93387 0.0
C1070 C 0.57485 0.92956 0.94805 0.0
C1071 C 0.56542 0.90614 0.95021 0.0
C1072 C 0.56321 0.94676 0.96075 0.0
C1073 C 0.60513 0.961 0.92965 0.0
C1074 C 0.57552 0.96187 0.97712 0.0
C1075 C 0.56434 0.9777 0.98943 0.0
C1076 C 0.54052 0.97845 0.98587 0.0
C1077 C 0.52821 0.96322 0.96953 0.0
C1078 C 0.53947 0.94754 0.95708 0.0
H1079 H 0.61578 0.96312 0.91322 0.0
H1080 H 0.59118 0.97186 0.9285 0.0
H1081 H 0.6167 0.96742 0.94444 0.0
H1082 H 0.59369 0.96117 0.98067 0.0
H1083 H 0.57424 0.98901 1.00209 0.0
H1084 H 0.88712 0.20748 0.42044 0.0
H1085 H 0.90945 0.18298 0.44273 0.0
H1086 H 0.92865 0.15162 0.37822 0.0
H1087 H 0.90657 0.17613 0.35584 0.0
H1088 H 0.89949 0.13266 0.44001 0.0
H1089 H 0.99111 0.16804 0.41511 0.0
H1090 H 0.96745 0.18449 0.4126 0.0
H1091 H 0.97085 0.1626 0.39129 0.0
C1092 C 0.89651 0.1957 0.41101 0.0
C1093 C 0.89509 0.19366 0.38643 0.0
C1094 C 0.90914 0.18167 0.42374 0.0
C1095 C 0.92081 0.16566 0.41207 0.0
C1096 C 0.92 0.16408 0.38751 0.0
H1097 H 0.99699 0.0574 0.45435 0.0
H1098 H 0.97874 0.0856 0.43277 0.0
C1099 C 0.90725 0.17795 0.37479 0.0
C1100 C 0.93229 0.14933 0.42562 0.0
H1101 H 0.98502 0.13281 0.43603 0.0
C1102 C 0.91821 0.13276 0.43932 0.0
C1103 C 0.95664 0.14941 0.42437 0.0
C1104 C 0.9725 0.16717 0.4102 0.0
C1105 C 0.9278 0.11593 0.45155 0.0
C1106 C 0.95223 0.1161 0.45052 0.0
C1107 C 0.96632 0.13273 0.43681 0.0
C1108 C 0.96348 0.09921 0.46364 0.0
C1109 C 0.91158 0.09774 0.46489 0.0
C1110 C 0.96123 0.09776 0.48816 0.0
C1111 C 0.97142 0.08156 0.50051 0.0
C1112 C 0.98438 0.06669 0.48859 0.0
C1113 C 0.98705 0.06852 0.46405 0.0
C1114 C 0.97668 0.08465 0.45169 0.0
H1115 H 0.89339 0.09601 0.4584 0.0
H1116 H 0.91746 0.08071 0.46349 0.0
H1117 H 0.91136 0.10268 0.48373 0.0
H1118 H 0.95163 0.10923 0.4978 0.0
H1119 H 0.96925 0.08085 0.51942 0.0
H1120 H 0.24341 0.6505 0.1243 0.0
H1121 H 0.20722 0.63374 0.10489 0.0
H1122 H 0.20502 0.57172 0.1454 0.0
H1123 H 0.24097 0.58865 0.16528 0.0
H1124 H 0.19638 0.59792 0.07717 0.0
H1125 H 0.13975 0.58244 0.15628 0.0
H1126 H 0.16861 0.59919 0.15731 0.0
H1127 H 0.16481 0.56818 0.15768 0.0
C1128 C 0.23524 0.63328 0.12914 0.0
C1129 C 0.24519 0.62102 0.14652 0.0
C1130 C 0.21443 0.62369 0.118 0.0
C1131 C 0.20289 0.60152 0.12383 0.0
C1132 C 0.21297 0.5891 0.14097 0.0
H1133 H 0.08033 0.51303 0.06504 0.0
H1134 H 0.11694 0.52822 0.08486 0.0
C1135 C 0.23368 0.5988 0.15231 0.0
C1136 C 0.18078 0.59133 0.11149 0.0
H1137 H 0.12391 0.56595 0.12053 0.0
C1138 C 0.18055 0.59106 0.08674 0.0
C1139 C 0.15988 0.58229 0.12376 0.0
C1140 C 0.15814 0.58323 0.1502 0.0
C1141 C 0.16036 0.58191 0.0741 0.0
C1142 C 0.13963 0.57275 0.08638 0.0
C1143 C 0.13981 0.57284 0.11106 0.0
C1144 C 0.11747 0.56344 0.0739 0.0
C1145 C 0.16142 0.58181 0.04762 0.0
C1146 C 0.10539 0.57812 0.06115 0.0
C1147 C 0.08432 0.56952 0.04991 0.0
C1148 C 0.07481 0.54594 0.05099 0.0
C1149 C 0.08709 0.53124 0.06364 0.0
C1150 C 0.10804 0.53992 0.07509 0.0
H1151 H 0.17968 0.58512 0.04084 0.0
H1152 H 0.15264 0.56505 0.04054 0.0
H1153 H 0.15212 0.59548 0.04087 0.0
H1154 H 0.11211 0.59637 0.06014 0.0
H1155 H 0.07543 0.58143 0.04044 0.0
H1156 H 0.30118 0.39958 0.6667 0.0
H1157 H 0.33655 0.41681 0.6454 0.0
H1158 H 0.29519 0.45243 0.60023 0.0
H1159 H 0.25965 0.43508 0.62131 0.0
H1160 H 0.32885 0.42847 0.57626 0.0
H1161 H 0.3686 0.48556 0.64801 0.0
H1162 H 0.35921 0.45599 0.65606 0.0
H1163 H 0.33795 0.47346 0.64772 0.0
C1164 C 0.29957 0.41105 0.65221 0.0
C1165 C 0.27751 0.41596 0.64578 0.0
C1166 C 0.31986 0.42103 0.64016 0.0
C1167 C 0.31859 0.4361 0.62134 0.0
C1168 C 0.29663 0.44096 0.61477 0.0
H1169 H 0.43688 0.52403 0.5546 0.0
H1170 H 0.39978 0.50889 0.57404 0.0
C1171 C 0.27633 0.43114 0.62694 0.0
C1172 C 0.34013 0.44635 0.60823 0.0
H1173 H 0.39232 0.48212 0.61436 0.0
C1174 C 0.3427 0.44026 0.58455 0.0
C1175 C 0.35809 0.46195 0.61896 0.0
C1176 C 0.35586 0.46985 0.64403 0.0
C1177 C 0.36295 0.44893 0.5715 0.0
C1178 C 0.38126 0.46397 0.58244 0.0
C1179 C 0.37842 0.47047 0.60598 0.0
C1180 C 0.40354 0.47307 0.56986 0.0
C1181 C 0.36443 0.4421 0.546 0.0
C1182 C 0.41815 0.45802 0.56106 0.0
C1183 C 0.4394 0.46662 0.54989 0.0
C1184 C 0.44663 0.4905 0.54733 0.0
C1185 C 0.43191 0.50554 0.55611 0.0
C1186 C 0.41067 0.49691 0.56732 0.0
H1187 H 0.34689 0.43579 0.53868 0.0
H1188 H 0.37301 0.45681 0.53523 0.0
H1189 H 0.37498 0.42798 0.5444 0.0
H1190 H 0.41332 0.43959 0.5632 0.0
H1191 H 0.4503 0.45449 0.54353 0.0
H1192 H 0.79066 0.69542 0.86327 0.0
H1193 H 0.81953 0.67523 0.88112 0.0
H1194 H 0.78533 0.6781 0.94854 0.0
H1195 H 0.75618 0.69843 0.93071 0.0
H1196 H 0.83247 0.69268 0.95055 0.0
H1197 H 0.81476 0.60929 0.9034 0.0
H1198 H 0.81906 0.63323 0.8836 0.0
H1199 H 0.7945 0.62964 0.90364 0.0
C1200 C 0.7889 0.69129 0.88179 0.0
C1201 C 0.771 0.69837 0.89554 0.0
C1202 C 0.80544 0.67974 0.89197 0.0
C1203 C 0.80434 0.67482 0.91607 0.0
C1204 C 0.78639 0.68162 0.92986 0.0
H1205 H 0.90073 0.59065 0.97462 0.0
H1206 H 0.86533 0.60572 0.96423 0.0
C1207 C 0.76981 0.69327 0.91968 0.0
C1208 C 0.82295 0.66401 0.92695 0.0
H1209 H 0.85232 0.61835 0.92159 0.0
C1210 C 0.83663 0.67627 0.94447 0.0
C1211 C 0.82815 0.64246 0.91924 0.0
C1212 C 0.81318 0.62778 0.90161 0.0
C1213 C 0.85602 0.66803 0.95373 0.0
C1214 C 0.86213 0.64723 0.94486 0.0
C1215 C 0.84782 0.63447 0.92812 0.0
C1216 C 0.88357 0.63864 0.95224 0.0
C1217 C 0.86976 0.68169 0.9729 0.0
C1218 C 0.9056 0.6521 0.9488 0.0
C1219 C 0.92587 0.64365 0.95498 0.0
C1220 C 0.92452 0.62146 0.96449 0.0
C1221 C 0.9024 0.60797 0.96775 0.0
C1222 C 0.88214 0.61648 0.96167 0.0
H1223 H 0.85896 0.69272 0.98262 0.0
H1224 H 0.87654 0.6702 0.98562 0.0
H1225 H 0.88483 0.69315 0.96493 0.0
H1226 H 0.90714 0.66905 0.94103 0.0
H1227 H 0.94259 0.65454 0.95238 0.0
H1228 H 0.43528 0.79311 0.17278 0.0
H1229 H 0.45064 0.83017 0.15441 0.0
H1230 H 0.39188 0.82222 0.10782 0.0
H1231 H 0.37625 0.78545 0.12627 0.0
H1232 H 0.46305 0.83949 0.1063 0.0
H1233 H 0.3925 0.88737 0.13492 0.0
H1234 H 0.39682 0.86063 0.1483 0.0
H1235 H 0.38259 0.86042 0.12041 0.0
C1236 C 0.42545 0.79933 0.15881 0.0
C1237 C 0.40444 0.78611 0.15112 0.0
C1238 C 0.43436 0.82053 0.14819 0.0
C1239 C 0.42234 0.82928 0.12984 0.0
C1240 C 0.40138 0.81615 0.12215 0.0
H1241 H 0.44565 0.95427 0.04354 0.0
H1242 H 0.43011 0.91765 0.06254 0.0
C1243 C 0.39256 0.79491 0.13261 0.0
C1244 C 0.43196 0.85179 0.11835 0.0
H1245 H 0.41997 0.9059 0.10726 0.0
C1246 C 0.45368 0.85405 0.10664 0.0
C1247 C 0.41974 0.87084 0.11852 0.0
C1248 C 0.39671 0.86988 0.13136 0.0
C1249 C 0.46323 0.87449 0.0948 0.0
C1250 C 0.45112 0.89368 0.09514 0.0
C1251 C 0.42938 0.89138 0.10688 0.0
C1252 C 0.4607 0.91623 0.08357 0.0
C1253 C 0.48591 0.87498 0.08139 0.0
C1254 C 0.48298 0.92813 0.08916 0.0
C1255 C 0.492 0.94904 0.07817 0.0
C1256 C 0.47888 0.95895 0.06146 0.0
C1257 C 0.45635 0.94728 0.05625 0.0
C1258 C 0.4474 0.92625 0.06716 0.0
H1259 H 0.48897 0.85734 0.07665 0.0
H1260 H 0.48617 0.88522 0.06504 0.0
H1261 H 0.50059 0.88293 0.09258 0.0
H1262 H 0.49344 0.92133 0.10222 0.0
H1263 H 0.5093 0.95751 0.08291 0.0
H1264 H 0.13938 0.22994 0.67242 0.0
H1265 H 0.12346 0.19391 0.65265 0.0
H1266 H 0.07875 0.22983 0.61166 0.0
H1267 H 0.09454 0.26598 0.63145 0.0
H1268 H 0.05538 0.18915 0.6277 0.0
H1269 H 0.13894 0.17456 0.58681 0.0
H1270 H 0.14053 0.17765 0.61816 0.0
H1271 H 0.13535 0.20156 0.60048 0.0
C1272 C 0.12629 0.23026 0.65907 0.0
C1273 C 0.11841 0.25101 0.65346 0.0
C1274 C 0.11722 0.20959 0.64771 0.0
C1275 C 0.10022 0.20912 0.63024 0.0
C1276 C 0.09193 0.22968 0.62497 0.0
H1277 H 0.06222 0.09699 0.52931 0.0
H1278 H 0.07721 0.13336 0.549 0.0
C1279 C 0.10092 0.25037 0.6364 0.0
C1280 C 0.09091 0.18719 0.61768 0.0
H1281 H 0.10732 0.14343 0.58473 0.0
C1282 C 0.06675 0.1792 0.61825 0.0
C1283 C 0.10562 0.1743 0.60497 0.0
C1284 C 0.13152 0.18254 0.60232 0.0
C1285 C 0.05699 0.15858 0.60691 0.0
C1286 C 0.07181 0.14521 0.59501 0.0
C1287 C 0.09593 0.15344 0.59406 0.0
C1288 C 0.06266 0.12286 0.58315 0.0
C1289 C 0.0308 0.15161 0.6074 0.0
C1290 C 0.04976 0.10454 0.59576 0.0
C1291 C 0.04105 0.08369 0.58451 0.0
C1292 C 0.04524 0.08052 0.56038 0.0
C1293 C 0.05858 0.09874 0.54789 0.0
C1294 C 0.0672 0.11961 0.55914 0.0
H1295 H 0.02175 0.16657 0.61103 0.0
H1296 H 0.02441 0.14362 0.59048 0.0
H1297 H 0.0259 0.13884 0.62158 0.0
H1298 H 0.04649 0.1063 0.6144 0.0
H1299 H 0.03102 0.07006 0.59478 0.0
H1300 H 0.75876 0.32876 0.41373 0.0
H1301 H 0.72911 0.3492 0.43138 0.0
H1302 H 0.69254 0.34497 0.36556 0.0
H1303 H 0.72216 0.32483 0.3478 0.0
H1304 H 0.69577 0.38748 0.38544 0.0
H1305 H 0.66367 0.32 0.45106 0.0
H1306 H 0.69436 0.33079 0.45276 0.0
H1307 H 0.68294 0.31516 0.42707 0.0
C1308 C 0.74435 0.33215 0.40308 0.0
C1309 C 0.74276 0.32517 0.3794 0.0
C1310 C 0.7274 0.34376 0.41319 0.0
C1311 C 0.70841 0.34827 0.39989 0.0
C1312 C 0.70703 0.34165 0.37615 0.0
H1313 H 0.57486 0.3793 0.44606 0.0
H1314 H 0.60797 0.36215 0.43147 0.0
C1315 C 0.72402 0.33022 0.366 0.0
C1316 C 0.68987 0.35986 0.41052 0.0
H1317 H 0.64753 0.35447 0.45324 0.0
C1318 C 0.68525 0.38031 0.4003 0.0
C1319 C 0.67598 0.3503 0.42973 0.0
C1320 C 0.67928 0.32775 0.4407 0.0
C1321 C 0.66705 0.3914 0.40866 0.0
C1322 C 0.65343 0.38207 0.42814 0.0
C1323 C 0.65812 0.36169 0.43844 0.0
C1324 C 0.63356 0.3926 0.43744 0.0
C1325 C 0.6621 0.41258 0.39605 0.0
C1326 C 0.63699 0.41532 0.44595 0.0
C1327 C 0.61802 0.42531 0.45398 0.0
C1328 C 0.59527 0.41266 0.45392 0.0
C1329 C 0.59204 0.38969 0.44594 0.0
C1330 C 0.61099 0.37978 0.43778 0.0
H1331 H 0.66994 0.41392 0.37811 0.0
H1332 H 0.64301 0.41253 0.39461 0.0
H1333 H 0.66973 0.42815 0.40608 0.0
H1334 H 0.65433 0.42538 0.44629 0.0
H1335 H 0.62116 0.44309 0.45983 0.0
loop_
_geom_bond_atom_site_label_1
_geom_bond_atom_site_label_2
_geom_bond_distance
_geom_bond_site_symmetry_2
_ccdc_geom_bond_type
C0 C1 1.386 . S
C0 C2 1.397 . S
C0 H24 0.931 . S
C1 C0 1.386 . S
C1 C5 1.397 . S
C2 C0 1.397 . S
C2 C3 1.384 . S
C2 H25 0.930 . S
C3 C2 1.384 . S
C3 C4 1.377 . S
C3 C6 1.481 . S
C4 C3 1.377 . S
C4 C5 1.389 . S
C4 H26 0.929 . S
C5 C1 1.397 . S
C5 C4 1.389 . S
C5 H27 0.931 . S
C6 C3 1.481 . S
C6 C7 1.387 . S
C6 C11 1.390 . S
C7 C6 1.387 . S
C7 C8 1.401 . S
C7 H28 0.930 . S
C8 C7 1.401 . S
C8 C9 1.376 . S
C8 C17 1.511 . S
C9 C8 1.376 . S
C9 C10 1.392 . S
C9 H30 0.931 . S
C10 C9 1.392 . S
C10 C11 1.361 . S
C10 C12 1.500 . S
C11 C6 1.390 . S
C11 C10 1.361 . S
C11 H29 0.931 . S
C12 C10 1.500 . S
C12 C13 1.371 . S
C12 C14 1.365 . S
C13 C12 1.371 . S
C13 C23 1.386 . S
C13 H31 0.931 . S
C14 C12 1.365 . S
C14 C15 1.409 . S
C14 H32 0.929 . S
C15 C14 1.409 . S
C15 C16 1.380 . S
C15 H33 0.930 . S
C16 C15 1.380 . S
C16 C23 1.357 . S
C17 C8 1.511 . S
C17 C18 1.341 . S
C17 C19 1.371 . S
C18 C17 1.341 . S
C18 C22 1.394 . S
C18 H34 0.930 . S
C19 C17 1.371 . S
C19 C20 1.392 . S
C19 H35 0.931 . S
C20 C19 1.392 . S
C20 C21 1.331 . S
C20 H38 0.932 . S
C21 C20 1.331 . S
C21 C22 1.336 . S
C22 C18 1.394 . S
C22 C21 1.336 . S
C22 H37 0.929 . S
C23 C13 1.386 . S
C23 C16 1.357 . S
C23 H36 0.928 . S
H24 C0 0.931 . S
H25 C2 0.930 . S
H26 C4 0.929 . S
H27 C5 0.931 . S
H28 C7 0.930 . S
H29 C11 0.931 . S
H30 C9 0.931 . S
H31 C13 0.931 . S
H32 C14 0.929 . S
H33 C15 0.930 . S
H34 C18 0.930 . S
H35 C19 0.931 . S
H36 C23 0.928 . S
H37 C22 0.929 . S
H38 C20 0.932 . S
C39 C40 1.386 . S
C39 C41 1.397 . S
C39 H63 0.931 . S
C40 C39 1.386 . S
C40 C44 1.397 . S
C41 C39 1.397 . S
C41 C42 1.384 . S
C41 H64 0.930 . S
C42 C41 1.384 . S
C42 C43 1.377 . S
C42 C45 1.481 . S
C43 C42 1.377 . S
C43 C44 1.389 . S
C43 H65 0.929 . S
C44 C40 1.397 . S
C44 C43 1.389 . S
C44 H66 0.931 . S
C45 C42 1.481 . S
C45 C46 1.387 . S
C45 C50 1.390 . S
C46 C45 1.387 . S
C46 C47 1.401 . S
C46 H67 0.930 . S
C47 C46 1.401 . S
C47 C48 1.376 . S
C47 C56 1.511 . S
C48 C47 1.376 . S
C48 C49 1.392 . S
C48 H69 0.931 . S
C49 C48 1.392 . S
C49 C50 1.361 . S
C49 C51 1.500 . S
C50 C45 1.390 . S
C50 C49 1.361 . S
C50 H68 0.931 . S
C51 C49 1.500 . S
C51 C52 1.371 . S
C51 C53 1.365 . S
C52 C51 1.371 . S
C52 C62 1.386 . S
C52 H70 0.931 . S
C53 C51 1.365 . S
C53 C54 1.409 . S
C53 H71 0.929 . S
C54 C53 1.409 . S
C54 C55 1.380 . S
C54 H72 0.930 . S
C55 C54 1.380 . S
C55 C62 1.357 . S
C56 C47 1.511 . S
C56 C57 1.341 . S
C56 C58 1.371 . S
C57 C56 1.341 . S
C57 C61 1.394 . S
C57 H73 0.930 . S
C58 C56 1.371 . S
C58 C59 1.392 . S
C58 H74 0.931 . S
C59 C58 1.392 . S
C59 C60 1.331 . S
C59 H77 0.932 . S
C60 C59 1.331 . S
C60 C61 1.336 . S
C61 C57 1.394 . S
C61 C60 1.336 . S
C61 H76 0.929 . S
C62 C52 1.386 . S
C62 C55 1.357 . S
C62 H75 0.928 . S
H63 C39 0.931 . S
H64 C41 0.930 . S
H65 C43 0.929 . S
H66 C44 0.931 . S
H67 C46 0.930 . S
H68 C50 0.931 . S
H69 C48 0.931 . S
H70 C52 0.931 . S
H71 C53 0.929 . S
H72 C54 0.930 . S
H73 C57 0.930 . S
H74 C58 0.931 . S
H75 C62 0.928 . S
H76 C61 0.929 . S
H77 C59 0.932 . S
C78 C79 1.386 . S
C78 C80 1.397 . S
C78 H102 0.931 . S
C79 C78 1.386 . S
C79 C83 1.397 . S
C80 C78 1.397 . S
C80 C81 1.384 . S
C80 H103 0.930 . S
C81 C80 1.384 . S
C81 C82 1.377 . S
C81 C84 1.481 . S
C82 C81 1.377 . S
C82 C83 1.389 . S
C82 H104 0.929 . S
C83 C79 1.397 . S
C83 C82 1.389 . S
C83 H105 0.931 . S
C84 C81 1.481 . S
C84 C85 1.387 . S
C84 C89 1.390 . S
C85 C84 1.387 . S
C85 C86 1.401 . S
C85 H106 0.930 . S
C86 C85 1.401 . S
C86 C87 1.376 . S
C86 C95 1.511 . S
C87 C86 1.376 . S
C87 C88 1.392 . S
C87 H108 0.931 . S
C88 C87 1.392 . S
C88 C89 1.361 . S
C88 C90 1.500 . S
C89 C84 1.390 . S
C89 C88 1.361 . S
C89 H107 0.931 . S
C90 C88 1.500 . S
C90 C91 1.371 . S
C90 C92 1.365 . S
C91 C90 1.371 . S
C91 C101 1.386 . S
C91 H109 0.931 . S
C92 C90 1.365 . S
C92 C93 1.409 . S
C92 H110 0.929 . S
C93 C92 1.409 . S
C93 C94 1.380 . S
C93 H111 0.930 . S
C94 C93 1.380 . S
C94 C101 1.357 . S
C95 C86 1.511 . S
C95 C96 1.341 . S
C95 C97 1.371 . S
C96 C95 1.341 . S
C96 C100 1.394 . S
C96 H112 0.930 . S
C97 C95 1.371 . S
C97 C98 1.392 . S
C97 H113 0.931 . S
C98 C97 1.392 . S
C98 C99 1.331 . S
C98 H116 0.932 . S
C99 C98 1.331 . S
C99 C100 1.336 . S
C100 C96 1.394 . S
C100 C99 1.336 . S
C100 H115 0.929 . S
C101 C91 1.386 . S
C101 C94 1.357 . S
C101 H114 0.928 . S
H102 C78 0.931 . S
H103 C80 0.930 . S
H104 C82 0.929 . S
H105 C83 0.931 . S
H106 C85 0.930 . S
H107 C89 0.931 . S
H108 C87 0.931 . S
H109 C91 0.931 . S
H110 C92 0.929 . S
H111 C93 0.930 . S
H112 C96 0.930 . S
H113 C97 0.931 . S
H114 C101 0.928 . S
H115 C100 0.929 . S
H116 C98 0.932 . S
C117 C118 1.386 . S
C117 C119 1.397 . S
C117 H141 0.931 . S
C118 C117 1.386 . S
C118 C122 1.397 . S
C119 C117 1.397 . S
C119 C120 1.384 . S
C119 H142 0.930 . S
C120 C119 1.384 . S
C120 C121 1.377 . S
C120 C123 1.481 . S
C121 C120 1.377 . S
C121 C122 1.389 . S
C121 H143 0.929 . S
C122 C118 1.397 . S
C122 C121 1.389 . S
C122 H144 0.931 . S
C123 C120 1.481 . S
C123 C124 1.387 . S
C123 C128 1.390 . S
C124 C123 1.387 . S
C124 C125 1.401 . S
C124 H145 0.930 . S
C125 C124 1.401 . S
C125 C126 1.376 . S
C125 C134 1.511 . S
C126 C125 1.376 . S
C126 C127 1.392 . S
C126 H147 0.931 . S
C127 C126 1.392 . S
C127 C128 1.361 . S
C127 C129 1.500 . S
C128 C123 1.390 . S
C128 C127 1.361 . S
C128 H146 0.931 . S
C129 C127 1.500 . S
C129 C130 1.371 . S
C129 C131 1.365 . S
C130 C129 1.371 . S
C130 C140 1.386 . S
C130 H148 0.931 . S
C131 C129 1.365 . S
C131 C132 1.409 . S
C131 H149 0.929 . S
C132 C131 1.409 . S
C132 C133 1.380 . S
C132 H150 0.930 . S
C133 C132 1.380 . S
C133 C140 1.357 . S
C134 C125 1.511 . S
C134 C135 1.341 . S
C134 C136 1.371 . S
C135 C134 1.341 . S
C135 C139 1.394 . S
C135 H151 0.930 . S
C136 C134 1.371 . S
C136 C137 1.392 . S
C136 H152 0.931 . S
C137 C136 1.392 . S
C137 C138 1.331 . S
C137 H155 0.932 . S
C138 C137 1.331 . S
C138 C139 1.336 . S
C139 C135 1.394 . S
C139 C138 1.336 . S
C139 H154 0.929 . S
C140 C130 1.386 . S
C140 C133 1.357 . S
C140 H153 0.928 . S
H141 C117 0.931 . S
H142 C119 0.930 . S
H143 C121 0.929 . S
H144 C122 0.931 . S
H145 C124 0.930 . S
H146 C128 0.931 . S
H147 C126 0.931 . S
H148 C130 0.931 . S
H149 C131 0.929 . S
H150 C132 0.930 . S
H151 C135 0.930 . S
H152 C136 0.931 . S
H153 C140 0.928 . S
H154 C139 0.929 . S
H155 C137 0.932 . S
C156 C157 1.386 . S
C156 C158 1.397 . S
C156 H180 0.931 . S
C157 C156 1.386 . S
C157 C161 1.397 . S
C158 C156 1.397 . S
C158 C159 1.384 . S
C158 H181 0.930 . S
C159 C158 1.384 . S
C159 C160 1.377 . S
C159 C162 1.481 . S
C160 C159 1.377 . S
C160 C161 1.389 . S
C160 H182 0.929 . S
C161 C157 1.397 . S
C161 C160 1.389 . S
C161 H183 0.931 . S
C162 C159 1.481 . S
C162 C163 1.387 . S
C162 C167 1.390 . S
C163 C162 1.387 . S
C163 C164 1.401 . S
C163 H184 0.930 . S
C164 C163 1.401 . S
C164 C165 1.376 . S
C164 C173 1.511 . S
C165 C164 1.376 . S
C165 C166 1.392 . S
C165 H186 0.931 . S
C166 C165 1.392 . S
C166 C167 1.361 . S
C166 C168 1.500 . S
C167 C162 1.390 . S
C167 C166 1.361 . S
C167 H185 0.931 . S
C168 C166 1.500 . S
C168 C169 1.371 . S
C168 C170 1.365 . S
C169 C168 1.371 . S
C169 C179 1.386 . S
C169 H187 0.931 . S
C170 C168 1.365 . S
C170 C171 1.409 . S
C170 H188 0.929 . S
C171 C170 1.409 . S
C171 C172 1.380 . S
C171 H189 0.930 . S
C172 C171 1.380 . S
C172 C179 1.357 . S
C173 C164 1.511 . S
C173 C174 1.341 . S
C173 C175 1.371 . S
C174 C173 1.341 . S
C174 C178 1.394 . S
C174 H190 0.930 . S
C175 C173 1.371 . S
C175 C176 1.392 . S
C175 H191 0.931 . S
C176 C175 1.392 . S
C176 C177 1.331 . S
C176 H194 0.932 . S
C177 C176 1.331 . S
C177 C178 1.336 . S
C178 C174 1.394 . S
C178 C177 1.336 . S
C178 H193 0.929 . S
C179 C169 1.386 . S
C179 C172 1.357 . S
C179 H192 0.928 . S
H180 C156 0.931 . S
H181 C158 0.930 . S
H182 C160 0.929 . S
H183 C161 0.931 . S
H184 C163 0.930 . S
H185 C167 0.931 . S
H186 C165 0.931 . S
H187 C169 0.931 . S
H188 C170 0.929 . S
H189 C171 0.930 . S
H190 C174 0.930 . S
H191 C175 0.931 . S
H192 C179 0.928 . S
H193 C178 0.929 . S
H194 C176 0.932 . S
C195 C196 1.386 . S
C195 C197 1.397 . S
C195 H219 0.931 . S
C196 C195 1.386 . S
C196 C200 1.397 . S
C197 C195 1.397 . S
C197 C198 1.384 . S
C197 H220 0.930 . S
C198 C197 1.384 . S
C198 C199 1.377 . S
C198 C201 1.481 . S
C199 C198 1.377 . S
C199 C200 1.389 . S
C199 H221 0.929 . S
C200 C196 1.397 . S
C200 C199 1.389 . S
C200 H222 0.931 . S
C201 C198 1.481 . S
C201 C202 1.387 . S
C201 C206 1.390 . S
C202 C201 1.387 . S
C202 C203 1.401 . S
C202 H223 0.930 . S
C203 C202 1.401 . S
C203 C204 1.376 . S
C203 C212 1.511 . S
C204 C203 1.376 . S
C204 C205 1.392 . S
C204 H225 0.931 . S
C205 C204 1.392 . S
C205 C206 1.361 . S
C205 C207 1.500 . S
C206 C201 1.390 . S
C206 C205 1.361 . S
C206 H224 0.931 . S
C207 C205 1.500 . S
C207 C208 1.371 . S
C207 C209 1.365 . S
C208 C207 1.371 . S
C208 C218 1.386 . S
C208 H226 0.931 . S
C209 C207 1.365 . S
C209 C210 1.409 . S
C209 H227 0.929 . S
C210 C209 1.409 . S
C210 C211 1.380 . S
C210 H228 0.930 . S
C211 C210 1.380 . S
C211 C218 1.357 . S
C212 C203 1.511 . S
C212 C213 1.341 . S
C212 C214 1.371 . S
C213 C212 1.341 . S
C213 C217 1.394 . S
C213 H229 0.930 . S
C214 C212 1.371 . S
C214 C215 1.392 . S
C214 H230 0.931 . S
C215 C214 1.392 . S
C215 C216 1.331 . S
C215 H233 0.932 . S
C216 C215 1.331 . S
C216 C217 1.336 . S
C217 C213 1.394 . S
C217 C216 1.336 . S
C217 H232 0.929 . S
C218 C208 1.386 . S
C218 C211 1.357 . S
C218 H231 0.928 . S
H219 C195 0.931 . S
H220 C197 0.930 . S
H221 C199 0.929 . S
H222 C200 0.931 . S
H223 C202 0.930 . S
H224 C206 0.931 . S
H225 C204 0.931 . S
H226 C208 0.931 . S
H227 C209 0.929 . S
H228 C210 0.930 . S
H229 C213 0.930 . S
H230 C214 0.931 . S
H231 C218 0.928 . S
H232 C217 0.929 . S
H233 C215 0.932 . S
C234 C235 1.386 . S
C234 C236 1.397 . S
C234 H258 0.931 . S
C235 C234 1.386 . S
C235 C239 1.397 . S
C236 C234 1.397 . S
C236 C237 1.384 . S
C236 H259 0.930 . S
C237 C236 1.384 . S
C237 C238 1.377 . S
C237 C240 1.481 . S
C238 C237 1.377 . S
C238 C239 1.389 . S
C238 H260 0.929 . S
C239 C235 1.397 . S
C239 C238 1.389 . S
C239 H261 0.931 . S
C240 C237 1.481 . S
C240 C241 1.387 . S
C240 C245 1.390 . S
C241 C240 1.387 . S
C241 C242 1.401 . S
C241 H262 0.930 . S
C242 C241 1.401 . S
C242 C243 1.376 . S
C242 C251 1.511 . S
C243 C242 1.376 . S
C243 C244 1.392 . S
C243 H264 0.931 . S
C244 C243 1.392 . S
C244 C245 1.361 . S
C244 C246 1.500 . S
C245 C240 1.390 . S
C245 C244 1.361 . S
C245 H263 0.931 . S
C246 C244 1.500 . S
C246 C247 1.371 . S
C246 C248 1.365 . S
C247 C246 1.371 . S
C247 C257 1.386 . S
C247 H265 0.931 . S
C248 C246 1.365 . S
C248 C249 1.409 . S
C248 H266 0.929 . S
C249 C248 1.409 . S
C249 C250 1.380 . S
C249 H267 0.930 . S
C250 C249 1.380 . S
C250 C257 1.357 . S
C251 C242 1.511 . S
C251 C252 1.341 . S
C251 C253 1.371 . S
C252 C251 1.341 . S
C252 C256 1.394 . S
C252 H268 0.930 . S
C253 C251 1.371 . S
C253 C254 1.392 . S
C253 H269 0.931 . S
C254 C253 1.392 . S
C254 C255 1.331 . S
C254 H272 0.932 . S
C255 C254 1.331 . S
C255 C256 1.336 . S
C256 C252 1.394 . S
C256 C255 1.336 . S
C256 H271 0.929 . S
C257 C247 1.386 . S
C257 C250 1.357 . S
C257 H270 0.928 . S
H258 C234 0.931 . S
H259 C236 0.930 . S
H260 C238 0.929 . S
H261 C239 0.931 . S
H262 C241 0.930 . S
H263 C245 0.931 . S
H264 C243 0.931 . S
H265 C247 0.931 . S
H266 C248 0.929 . S
H267 C249 0.930 . S
H268 C252 0.930 . S
H269 C253 0.931 . S
H270 C257 0.928 . S
H271 C256 0.929 . S
H272 C254 0.932 . S
C273 C274 1.386 . S
C273 C275 1.397 . S
C273 H297 0.931 . S
C274 C273 1.386 . S
C274 C278 1.397 . S
C275 C273 1.397 . S
C275 C276 1.384 . S
C275 H298 0.930 . S
C276 C275 1.384 . S
C276 C277 1.377 . S
C276 C279 1.481 . S
C277 C276 1.377 . S
C277 C278 1.389 . S
C277 H299 0.929 . S
C278 C274 1.397 . S
C278 C277 1.389 . S
C278 H300 0.931 . S
C279 C276 1.481 . S
C279 C280 1.387 . S
C279 C284 1.390 . S
C280 C279 1.387 . S
C280 C281 1.401 . S
C280 H301 0.930 . S
C281 C280 1.401 . S
C281 C282 1.376 . S
C281 C290 1.511 . S
C282 C281 1.376 . S
C282 C283 1.392 . S
C282 H303 0.931 . S
C283 C282 1.392 . S
C283 C284 1.361 . S
C283 C285 1.500 . S
C284 C279 1.390 . S
C284 C283 1.361 . S
C284 H302 0.931 . S
C285 C283 1.500 . S
C285 C286 1.371 . S
C285 C287 1.365 . S
C286 C285 1.371 . S
C286 C296 1.386 . S
C286 H304 0.931 . S
C287 C285 1.365 . S
C287 C288 1.409 . S
C287 H305 0.929 . S
C288 C287 1.409 . S
C288 C289 1.380 . S
C288 H306 0.930 . S
C289 C288 1.380 . S
C289 C296 1.357 . S
C290 C281 1.511 . S
C290 C291 1.341 . S
C290 C292 1.371 . S
C291 C290 1.341 . S
C291 C295 1.394 . S
C291 H307 0.930 . S
C292 C290 1.371 . S
C292 C293 1.392 . S
C292 H308 0.931 . S
C293 C292 1.392 . S
C293 C294 1.331 . S
C293 H311 0.932 . S
C294 C293 1.331 . S
C294 C295 1.336 . S
C295 C291 1.394 . S
C295 C294 1.336 . S
C295 H310 0.929 . S
C296 C286 1.386 . S
C296 C289 1.357 . S
C296 H309 0.928 . S
H297 C273 0.931 . S
H298 C275 0.930 . S
H299 C277 0.929 . S
H300 C278 0.931 . S
H301 C280 0.930 . S
H302 C284 0.931 . S
H303 C282 0.931 . S
H304 C286 0.931 . S
H305 C287 0.929 . S
H306 C288 0.930 . S
H307 C291 0.930 . S
H308 C292 0.931 . S
H309 C296 0.928 . S
H310 C295 0.929 . S
H311 C293 0.932 . S
Tb312 C321 2.764 . S
Tb312 O322 2.325 1_455 S
Tb312 O325 2.303 . S
Tb312 O329 2.322 1_545 S
Tb312 O330 2.349 1_545 S
Tb312 O333 2.415 . S
Tb312 O334 2.399 . S
Tb313 O323 2.322 . S
Tb313 O324 2.349 . S
Tb313 O326 2.415 1_545 S
Tb313 O327 2.399 1_545 S
Tb313 O328 2.325 1_645 S
Tb313 O331 2.303 1_545 S
Tb313 C342 2.764 1_545 S
C314 O330 1.261 1_655 S
C314 O331 1.257 . S
C315 C318 1.358 . S
C315 C319 1.332 . S
C315 C321 1.504 . S
C316 C317 1.373 . S
C316 C320 1.308 . S
C317 C316 1.373 . S
C317 C318 1.429 . S
C317 H344 0.932 . S
C318 C315 1.358 . S
C318 C317 1.429 . S
C318 H345 0.930 . S
C319 C315 1.332 . S
C319 C320 1.394 . S
C319 H346 0.932 . S
C320 C316 1.308 . S
C320 C319 1.394 . S
C320 H347 0.929 . S
C321 Tb312 2.764 . S
C321 C315 1.504 . S
C321 O333 1.239 . S
C321 O334 1.263 . S
O322 Tb312 2.325 1_655 S
O322 C332 1.236 . S
O323 Tb313 2.322 . S
O323 C332 1.257 . S
O324 Tb313 2.349 . S
O324 C335 1.261 1_655 S
O325 Tb312 2.303 . S
O325 C335 1.257 . S
O326 Tb313 2.415 1_565 S
O326 C342 1.239 . S
O327 Tb313 2.399 1_565 S
O327 C342 1.263 . S
O328 Tb313 2.325 1_465 S
O328 C343 1.236 . S
O329 Tb312 2.322 1_565 S
O329 C343 1.257 . S
O330 Tb312 2.349 1_565 S
O330 C314 1.261 1_455 S
O331 Tb313 2.303 1_565 S
O331 C314 1.257 . S
C332 O322 1.236 . S
C332 O323 1.257 . S
O333 Tb312 2.415 . S
O333 C321 1.239 . S
O334 Tb312 2.399 . S
O334 C321 1.263 . S
C335 O324 1.261 1_455 S
C335 O325 1.257 . S
C336 C339 1.358 . S
C336 C340 1.332 . S
C336 C342 1.504 . S
C337 C338 1.373 . S
C337 C341 1.308 . S
C338 C337 1.373 . S
C338 C339 1.429 . S
C338 H348 0.932 . S
C339 C336 1.358 . S
C339 C338 1.429 . S
C339 H349 0.930 . S
C340 C336 1.332 . S
C340 C341 1.394 . S
C340 H350 0.932 . S
C341 C337 1.308 . S
C341 C340 1.394 . S
C341 H351 0.929 . S
C342 Tb313 2.764 1_565 S
C342 O326 1.239 . S
C342 O327 1.263 . S
C342 C336 1.504 . S
C343 O328 1.236 . S
C343 O329 1.257 . S
H344 C317 0.932 . S
H345 C318 0.930 . S
H346 C319 0.932 . S
H347 C320 0.929 . S
H348 C338 0.932 . S
H349 C339 0.930 . S
H350 C340 0.932 . S
H351 C341 0.929 . S
Tb352 C361 2.764 . S
Tb352 O362 2.325 1_554 S
Tb352 O365 2.303 . S
Tb352 O369 2.322 1_545 S
Tb352 O370 2.377 1_545 S
Tb352 O373 2.415 . S
Tb352 O374 2.399 . S
Tb353 O363 2.330 . S
Tb353 O364 2.337 1_556 S
Tb353 O366 2.407 1_545 S
Tb353 O367 2.396 1_545 S
Tb353 O368 2.318 1_546 S
Tb353 O371 2.299 1_545 S
Tb353 C382 2.758 1_545 S
C354 O370 1.225 1_556 S
C354 O371 1.257 . S
C355 C358 1.358 . S
C355 C359 1.332 . S
C355 C361 1.504 . S
C356 C357 1.373 . S
C356 C360 1.308 . S
C357 C356 1.373 . S
C357 C358 1.429 . S
C357 H384 0.932 . S
C358 C355 1.358 . S
C358 C357 1.429 . S
C358 H385 0.930 . S
C359 C355 1.332 . S
C359 C360 1.394 . S
C359 H386 0.932 . S
C360 C356 1.308 . S
C360 C359 1.394 . S
C360 H387 0.929 . S
C361 Tb352 2.764 . S
C361 C355 1.504 . S
C361 O373 1.239 . S
C361 O374 1.263 . S
O362 Tb352 2.325 1_556 S
O362 C372 1.236 . S
O363 Tb353 2.330 . S
O363 C372 1.257 . S
O364 Tb353 2.337 1_554 S
O364 C375 1.285 . S
O365 Tb352 2.303 . S
O365 C375 1.257 . S
O366 Tb353 2.407 1_565 S
O366 C382 1.239 . S
O367 Tb353 2.396 1_565 S
O367 C382 1.263 . S
O368 Tb353 2.318 1_564 S
O368 C383 1.236 . S
O369 Tb352 2.322 1_565 S
O369 C383 1.257 . S
O370 Tb352 2.377 1_565 S
O370 C354 1.225 1_554 S
O371 Tb353 2.299 1_565 S
O371 C354 1.257 . S
C372 O362 1.236 . S
C372 O363 1.257 . S
O373 Tb352 2.415 . S
O373 C361 1.239 . S
O374 Tb352 2.399 . S
O374 C361 1.263 . S
C375 O364 1.285 . S
C375 O365 1.257 . S
C376 C379 1.358 . S
C376 C380 1.332 . S
C376 C382 1.504 . S
C377 C378 1.373 . S
C377 C381 1.308 . S
C378 C377 1.373 . S
C378 C379 1.429 . S
C378 H388 0.932 . S
C379 C376 1.358 . S
C379 C378 1.429 . S
C379 H389 0.930 . S
C380 C376 1.332 . S
C380 C381 1.394 . S
C380 H390 0.932 . S
C381 C377 1.308 . S
C381 C380 1.394 . S
C381 H391 0.929 . S
C382 Tb353 2.758 1_565 S
C382 O366 1.239 . S
C382 O367 1.263 . S
C382 C376 1.504 . S
C383 O368 1.236 . S
C383 O369 1.257 . S
H384 C357 0.932 . S
H385 C358 0.930 . S
H386 C359 0.932 . S
H387 C360 0.929 . S
H388 C378 0.932 . S
H389 C379 0.930 . S
H390 C380 0.932 . S
H391 C381 0.929 . S
Tb392 C401 2.764 . S
Tb392 O402 2.325 . S
Tb392 O405 2.303 . S
Tb392 O409 2.322 . S
Tb392 O410 2.349 . S
Tb392 O413 2.415 . S
Tb392 O414 2.399 . S
Tb393 O403 2.322 . S
Tb393 O404 2.349 . S
Tb393 O406 2.415 . S
Tb393 O407 2.399 . S
Tb393 O408 2.325 . S
Tb393 O411 2.303 . S
Tb393 C422 2.764 . S
C394 O410 1.261 . S
C394 O411 1.257 . S
C395 C398 1.358 . S
C395 C399 1.332 . S
C395 C401 1.504 . S
C396 C397 1.373 . S
C396 C400 1.308 . S
C397 C396 1.373 . S
C397 C398 1.429 . S
C397 H424 0.932 . S
C398 C395 1.358 . S
C398 C397 1.429 . S
C398 H425 0.930 . S
C399 C395 1.332 . S
C399 C400 1.394 . S
C399 H426 0.932 . S
C400 C396 1.308 . S
C400 C399 1.394 . S
C400 H427 0.929 . S
C401 Tb392 2.764 . S
C401 C395 1.504 . S
C401 O413 1.239 . S
C401 O414 1.263 . S
O402 Tb392 2.325 . S
O402 C412 1.236 . S
O403 Tb393 2.322 . S
O403 C412 1.257 . S
O404 Tb393 2.349 . S
O404 C415 1.261 . S
O405 Tb392 2.303 . S
O405 C415 1.257 . S
O406 Tb393 2.415 . S
O406 C422 1.239 . S
O407 Tb393 2.399 . S
O407 C422 1.263 . S
O408 Tb393 2.325 . S
O408 C423 1.236 . S
O409 Tb392 2.322 . S
O409 C423 1.257 . S
O410 Tb392 2.349 . S
O410 C394 1.261 . S
O411 Tb393 2.303 . S
O411 C394 1.257 . S
C412 O402 1.236 . S
C412 O403 1.257 . S
O413 Tb392 2.415 . S
O413 C401 1.239 . S
O414 Tb392 2.399 . S
O414 C401 1.263 . S
C415 O404 1.261 . S
C415 O405 1.257 . S
C416 C419 1.358 . S
C416 C420 1.332 . S
C416 C422 1.504 . S
C417 C418 1.373 . S
C417 C421 1.308 . S
C418 C417 1.373 . S
C418 C419 1.429 . S
C418 H428 0.932 . S
C419 C416 1.358 . S
C419 C418 1.429 . S
C419 H429 0.930 . S
C420 C416 1.332 . S
C420 C421 1.394 . S
C420 H430 0.932 . S
C421 C417 1.308 . S
C421 C420 1.394 . S
C421 H431 0.929 . S
C422 Tb393 2.764 . S
C422 O406 1.239 . S
C422 O407 1.263 . S
C422 C416 1.504 . S
C423 O408 1.236 . S
C423 O409 1.257 . S
H424 C397 0.932 . S
H425 C398 0.930 . S
H426 C399 0.932 . S
H427 C400 0.929 . S
H428 C418 0.932 . S
H429 C419 0.930 . S
H430 C420 0.932 . S
H431 C421 0.929 . S
Tb432 C441 2.764 . S
Tb432 O442 2.325 . S
Tb432 O445 2.303 1_556 S
Tb432 O449 2.316 1_656 S
Tb432 O450 2.349 1_655 S
Tb432 O453 2.415 . S
Tb432 O454 2.399 . S
Tb433 O443 2.322 1_455 S
Tb433 O444 2.349 1_455 S
Tb433 O446 2.415 . S
Tb433 O447 2.399 . S
Tb433 O448 2.325 . S
Tb433 O451 2.303 1_554 S
Tb433 C462 2.764 . S
C434 O450 1.261 . S
C434 O451 1.257 . S
C435 C438 1.358 . S
C435 C439 1.332 . S
C435 C441 1.504 . S
C436 C437 1.373 . S
C436 C440 1.308 . S
C437 C436 1.373 . S
C437 C438 1.429 . S
C437 H464 0.932 . S
C438 C435 1.358 . S
C438 C437 1.429 . S
C438 H465 0.930 . S
C439 C435 1.332 . S
C439 C440 1.394 . S
C439 H466 0.932 . S
C440 C436 1.308 . S
C440 C439 1.394 . S
C440 H467 0.929 . S
C441 Tb432 2.764 . S
C441 C435 1.504 . S
C441 O453 1.239 . S
C441 O454 1.263 . S
O442 Tb432 2.325 . S
O442 C452 1.236 . S
O443 Tb433 2.322 1_655 S
O443 C452 1.257 1_554 S
O444 Tb433 2.349 1_655 S
O444 C455 1.261 . S
O445 Tb432 2.303 1_554 S
O445 C455 1.257 . S
O446 Tb433 2.415 . S
O446 C462 1.239 . S
O447 Tb433 2.399 . S
O447 C462 1.263 . S
O448 Tb433 2.325 . S
O448 C463 1.236 . S
O449 Tb432 2.316 1_454 S
O449 C463 1.268 . S
O450 Tb432 2.349 1_455 S
O450 C434 1.261 . S
O451 Tb433 2.303 1_556 S
O451 C434 1.257 . S
C452 O442 1.236 . S
C452 O443 1.257 1_556 S
O453 Tb432 2.415 . S
O453 C441 1.239 . S
O454 Tb432 2.399 . S
O454 C441 1.263 . S
C455 O444 1.261 . S
C455 O445 1.257 . S
C456 C459 1.358 . S
C456 C460 1.332 . S
C456 C462 1.504 . S
C457 C458 1.373 . S
C457 C461 1.308 . S
C458 C457 1.373 . S
C458 C459 1.429 . S
C458 H468 0.932 . S
C459 C456 1.358 . S
C459 C458 1.429 . S
C459 H469 0.930 . S
C460 C456 1.332 . S
C460 C461 1.394 . S
C460 H470 0.932 . S
C461 C457 1.308 . S
C461 C460 1.394 . S
C461 H471 0.929 . S
C462 Tb433 2.764 . S
C462 O446 1.239 . S
C462 O447 1.263 . S
C462 C456 1.504 . S
C463 O448 1.236 . S
C463 O449 1.268 . S
H464 C437 0.932 . S
H465 C438 0.930 . S
H466 C439 0.932 . S
H467 C440 0.929 . S
H468 C458 0.932 . S
H469 C459 0.930 . S
H470 C460 0.932 . S
H471 C461 0.929 . S
H472 C480 0.929 . S
H473 C482 0.930 . S
H474 C484 0.930 . S
H475 C487 0.929 . S
H476 C490 0.930 . S
H477 C492 0.960 . S
H478 C492 0.960 . S
H479 C492 0.960 . S
C480 H472 0.929 . S
C480 C481 1.377 . S
C480 C482 1.384 . S
C481 C480 1.377 . S
C481 C487 1.390 . S
C482 H473 0.930 . S
C482 C480 1.384 . S
C482 C483 1.372 . S
C483 C482 1.372 . S
C483 C484 1.400 . S
C483 C488 1.490 . S
C484 H474 0.930 . S
C484 C483 1.400 . S
C484 C487 1.386 . S
H485 C501 0.930 . S
H486 C502 0.931 . S
C487 H475 0.929 . S
C487 C481 1.390 . S
C487 C484 1.386 . S
C488 C483 1.490 . S
C488 C490 1.395 . S
C488 C491 1.403 . S
H489 C495 0.930 . S
C490 H476 0.930 . S
C490 C488 1.395 . S
C490 C493 1.403 . S
C491 C488 1.403 . S
C491 C492 1.524 . S
C491 C495 1.400 . S
C492 H477 0.960 . S
C492 H478 0.960 . S
C492 H479 0.960 . S
C492 C491 1.524 . S
C493 C490 1.403 . S
C493 C494 1.392 . S
C493 C497 1.495 . S
C494 C493 1.392 . S
C494 C495 1.385 . S
C494 C496 1.478 . S
C495 H489 0.930 . S
C495 C491 1.400 . S
C495 C494 1.385 . S
C496 C494 1.478 . S
C496 C498 1.381 . S
C496 C502 1.383 . S
C497 C493 1.495 . S
C497 H503 0.959 . S
C497 H504 0.961 . S
C497 H505 0.960 . S
C498 C496 1.381 . S
C498 C499 1.394 . S
C498 H506 0.930 . S
C499 C498 1.394 . S
C499 C500 1.383 . S
C499 H507 0.929 . S
C500 C499 1.383 . S
C500 C501 1.377 . S
C501 H485 0.930 . S
C501 C500 1.377 . S
C501 C502 1.379 . S
C502 H486 0.931 . S
C502 C496 1.383 . S
C502 C501 1.379 . S
H503 C497 0.959 . S
H504 C497 0.961 . S
H505 C497 0.960 . S
H506 C498 0.930 . S
H507 C499 0.929 . S
H508 C516 0.929 . S
H509 C518 0.930 . S
H510 C520 0.930 . S
H511 C523 0.929 . S
H512 C526 0.930 . S
H513 C528 0.960 . S
H514 C528 0.960 . S
H515 C528 0.960 . S
C516 H508 0.929 . S
C516 C517 1.377 . S
C516 C518 1.384 . S
C517 C516 1.377 . S
C517 C523 1.390 . S
C518 H509 0.930 . S
C518 C516 1.384 . S
C518 C519 1.372 . S
C519 C518 1.372 . S
C519 C520 1.400 . S
C519 C524 1.490 . S
C520 H510 0.930 . S
C520 C519 1.400 . S
C520 C523 1.386 . S
H521 C537 0.930 . S
H522 C538 0.931 . S
C523 H511 0.929 . S
C523 C517 1.390 . S
C523 C520 1.386 . S
C524 C519 1.490 . S
C524 C526 1.395 . S
C524 C527 1.403 . S
H525 C531 0.930 . S
C526 H512 0.930 . S
C526 C524 1.395 . S
C526 C529 1.403 . S
C527 C524 1.403 . S
C527 C528 1.524 . S
C527 C531 1.400 . S
C528 H513 0.960 . S
C528 H514 0.960 . S
C528 H515 0.960 . S
C528 C527 1.524 . S
C529 C526 1.403 . S
C529 C530 1.392 . S
C529 C533 1.495 . S
C530 C529 1.392 . S
C530 C531 1.385 . S
C530 C532 1.478 . S
C531 H525 0.930 . S
C531 C527 1.400 . S
C531 C530 1.385 . S
C532 C530 1.478 . S
C532 C534 1.381 . S
C532 C538 1.383 . S
C533 C529 1.495 . S
C533 H539 0.959 . S
C533 H540 0.961 . S
C533 H541 0.960 . S
C534 C532 1.381 . S
C534 C535 1.394 . S
C534 H542 0.930 . S
C535 C534 1.394 . S
C535 C536 1.383 . S
C535 H543 0.929 . S
C536 C535 1.383 . S
C536 C537 1.377 . S
C537 H521 0.930 . S
C537 C536 1.377 . S
C537 C538 1.379 . S
C538 H522 0.931 . S
C538 C532 1.383 . S
C538 C537 1.379 . S
H539 C533 0.959 . S
H540 C533 0.961 . S
H541 C533 0.960 . S
H542 C534 0.930 . S
H543 C535 0.929 . S
H544 C552 0.929 . S
H545 C554 0.930 . S
H546 C556 0.930 . S
H547 C559 0.929 . S
H548 C562 0.930 . S
H549 C564 0.960 . S
H550 C564 0.960 . S
H551 C564 0.960 . S
C552 H544 0.929 . S
C552 C553 1.377 . S
C552 C554 1.384 . S
C553 C552 1.377 . S
C553 C559 1.390 . S
C554 H545 0.930 . S
C554 C552 1.384 . S
C554 C555 1.372 . S
C555 C554 1.372 . S
C555 C556 1.400 . S
C555 C560 1.490 . S
C556 H546 0.930 . S
C556 C555 1.400 . S
C556 C559 1.386 . S
H557 C573 0.930 . S
H558 C574 0.931 . S
C559 H547 0.929 . S
C559 C553 1.390 . S
C559 C556 1.386 . S
C560 C555 1.490 . S
C560 C562 1.395 . S
C560 C563 1.403 . S
H561 C567 0.930 . S
C562 H548 0.930 . S
C562 C560 1.395 . S
C562 C565 1.403 . S
C563 C560 1.403 . S
C563 C564 1.524 . S
C563 C567 1.400 . S
C564 H549 0.960 . S
C564 H550 0.960 . S
C564 H551 0.960 . S
C564 C563 1.524 . S
C565 C562 1.403 . S
C565 C566 1.392 . S
C565 C569 1.495 . S
C566 C565 1.392 . S
C566 C567 1.385 . S
C566 C568 1.478 . S
C567 H561 0.930 . S
C567 C563 1.400 . S
C567 C566 1.385 . S
C568 C566 1.478 . S
C568 C570 1.381 . S
C568 C574 1.383 . S
C569 C565 1.495 . S
C569 H575 0.959 . S
C569 H576 0.961 . S
C569 H577 0.960 . S
C570 C568 1.381 . S
C570 C571 1.394 . S
C570 H578 0.930 . S
C571 C570 1.394 . S
C571 C572 1.383 . S
C571 H579 0.929 . S
C572 C571 1.383 . S
C572 C573 1.377 . S
C573 H557 0.930 . S
C573 C572 1.377 . S
C573 C574 1.379 . S
C574 H558 0.931 . S
C574 C568 1.383 . S
C574 C573 1.379 . S
H575 C569 0.959 . S
H576 C569 0.961 . S
H577 C569 0.960 . S
H578 C570 0.930 . S
H579 C571 0.929 . S
H580 C588 0.929 . S
H581 C590 0.930 . S
H582 C592 0.930 . S
H583 C595 0.929 . S
H584 C598 0.930 . S
H585 C600 0.960 . S
H586 C600 0.960 . S
H587 C600 0.960 . S
C588 H580 0.929 . S
C588 C589 1.377 . S
C588 C590 1.384 . S
C589 C588 1.377 . S
C589 C595 1.390 . S
C590 H581 0.930 . S
C590 C588 1.384 . S
C590 C591 1.372 . S
C591 C590 1.372 . S
C591 C592 1.400 . S
C591 C596 1.490 . S
C592 H582 0.930 . S
C592 C591 1.400 . S
C592 C595 1.386 . S
H593 C609 0.930 . S
H594 C610 0.931 . S
C595 H583 0.929 . S
C595 C589 1.390 . S
C595 C592 1.386 . S
C596 C591 1.490 . S
C596 C598 1.395 . S
C596 C599 1.403 . S
H597 C603 0.930 . S
C598 H584 0.930 . S
C598 C596 1.395 . S
C598 C601 1.403 . S
C599 C596 1.403 . S
C599 C600 1.524 . S
C599 C603 1.400 . S
C600 H585 0.960 . S
C600 H586 0.960 . S
C600 H587 0.960 . S
C600 C599 1.524 . S
C601 C598 1.403 . S
C601 C602 1.392 . S
C601 C605 1.495 . S
C602 C601 1.392 . S
C602 C603 1.385 . S
C602 C604 1.478 . S
C603 H597 0.930 . S
C603 C599 1.400 . S
C603 C602 1.385 . S
C604 C602 1.478 . S
C604 C606 1.381 . S
C604 C610 1.383 . S
C605 C601 1.495 . S
C605 H611 0.959 . S
C605 H612 0.961 . S
C605 H613 0.960 . S
C606 C604 1.381 . S
C606 C607 1.394 . S
C606 H614 0.930 . S
C607 C606 1.394 . S
C607 C608 1.383 . S
C607 H615 0.929 . S
C608 C607 1.383 . S
C608 C609 1.377 . S
C609 H593 0.930 . S
C609 C608 1.377 . S
C609 C610 1.379 . S
C610 H594 0.931 . S
C610 C604 1.383 . S
C610 C609 1.379 . S
H611 C605 0.959 . S
H612 C605 0.961 . S
H613 C605 0.960 . S
H614 C606 0.930 . S
H615 C607 0.929 . S
H616 C624 0.929 . S
H617 C626 0.930 . S
H618 C628 0.930 . S
H619 C631 0.929 . S
H620 C634 0.930 . S
H621 C636 0.960 . S
H622 C636 0.960 . S
H623 C636 0.960 . S
C624 H616 0.929 . S
C624 C625 1.377 . S
C624 C626 1.384 . S
C625 C624 1.377 . S
C625 C631 1.390 . S
C626 H617 0.930 . S
C626 C624 1.384 . S
C626 C627 1.372 . S
C627 C626 1.372 . S
C627 C628 1.400 . S
C627 C632 1.490 . S
C628 H618 0.930 . S
C628 C627 1.400 . S
C628 C631 1.386 . S
H629 C645 0.930 . S
H630 C646 0.931 . S
C631 H619 0.929 . S
C631 C625 1.390 . S
C631 C628 1.386 . S
C632 C627 1.490 . S
C632 C634 1.395 . S
C632 C635 1.403 . S
H633 C639 0.930 . S
C634 H620 0.930 . S
C634 C632 1.395 . S
C634 C637 1.403 . S
C635 C632 1.403 . S
C635 C636 1.524 . S
C635 C639 1.400 . S
C636 H621 0.960 . S
C636 H622 0.960 . S
C636 H623 0.960 . S
C636 C635 1.524 . S
C637 C634 1.403 . S
C637 C638 1.392 . S
C637 C641 1.495 . S
C638 C637 1.392 . S
C638 C639 1.385 . S
C638 C640 1.478 . S
C639 H633 0.930 . S
C639 C635 1.400 . S
C639 C638 1.385 . S
C640 C638 1.478 . S
C640 C642 1.381 . S
C640 C646 1.383 . S
C641 C637 1.495 . S
C641 H647 0.959 . S
C641 H648 0.961 . S
C641 H649 0.960 . S
C642 C640 1.381 . S
C642 C643 1.394 . S
C642 H650 0.930 . S
C643 C642 1.394 . S
C643 C644 1.383 . S
C643 H651 0.929 . S
C644 C643 1.383 . S
C644 C645 1.377 . S
C645 H629 0.930 . S
C645 C644 1.377 . S
C645 C646 1.379 . S
C646 H630 0.931 . S
C646 C640 1.383 . S
C646 C645 1.379 . S
H647 C641 0.959 . S
H648 C641 0.961 . S
H649 C641 0.960 . S
H650 C642 0.930 . S
H651 C643 0.929 . S
H652 C660 0.929 . S
H653 C662 0.930 . S
H654 C664 0.930 . S
H655 C667 0.929 . S
H656 C670 0.930 . S
H657 C672 0.960 . S
H658 C672 0.960 . S
H659 C672 0.960 . S
C660 H652 0.929 . S
C660 C661 1.377 . S
C660 C662 1.384 . S
C661 C660 1.377 . S
C661 C667 1.390 . S
C662 H653 0.930 . S
C662 C660 1.384 . S
C662 C663 1.372 . S
C663 C662 1.372 . S
C663 C664 1.400 . S
C663 C668 1.490 . S
C664 H654 0.930 . S
C664 C663 1.400 . S
C664 C667 1.386 . S
H665 C681 0.930 . S
H666 C682 0.931 . S
C667 H655 0.929 . S
C667 C661 1.390 . S
C667 C664 1.386 . S
C668 C663 1.490 . S
C668 C670 1.395 . S
C668 C671 1.403 . S
H669 C675 0.930 . S
C670 H656 0.930 . S
C670 C668 1.395 . S
C670 C673 1.403 . S
C671 C668 1.403 . S
C671 C672 1.524 . S
C671 C675 1.400 . S
C672 H657 0.960 . S
C672 H658 0.960 . S
C672 H659 0.960 . S
C672 C671 1.524 . S
C673 C670 1.403 . S
C673 C674 1.392 . S
C673 C677 1.495 . S
C674 C673 1.392 . S
C674 C675 1.385 . S
C674 C676 1.478 . S
C675 H669 0.930 . S
C675 C671 1.400 . S
C675 C674 1.385 . S
C676 C674 1.478 . S
C676 C678 1.381 . S
C676 C682 1.383 . S
C677 C673 1.495 . S
C677 H683 0.959 . S
C677 H684 0.961 . S
C677 H685 0.960 . S
C678 C676 1.381 . S
C678 C679 1.394 . S
C678 H686 0.930 . S
C679 C678 1.394 . S
C679 C680 1.383 . S
C679 H687 0.929 . S
C680 C679 1.383 . S
C680 C681 1.377 . S
C681 H665 0.930 . S
C681 C680 1.377 . S
C681 C682 1.379 . S
C682 H666 0.931 . S
C682 C676 1.383 . S
C682 C681 1.379 . S
H683 C677 0.959 . S
H684 C677 0.961 . S
H685 C677 0.960 . S
H686 C678 0.930 . S
H687 C679 0.929 . S
H688 C696 0.929 . S
H689 C698 0.930 . S
H690 C700 0.930 . S
H691 C703 0.929 . S
H692 C706 0.930 . S
H693 C708 0.960 . S
H694 C708 0.960 . S
H695 C708 0.960 . S
C696 H688 0.929 . S
C696 C697 1.377 . S
C696 C698 1.384 . S
C697 C696 1.377 . S
C697 C703 1.390 . S
C698 H689 0.930 . S
C698 C696 1.384 . S
C698 C699 1.372 . S
C699 C698 1.372 . S
C699 C700 1.400 . S
C699 C704 1.490 . S
C700 H690 0.930 . S
C700 C699 1.400 . S
C700 C703 1.386 . S
H701 C717 0.930 . S
H702 C718 0.931 . S
C703 H691 0.929 . S
C703 C697 1.390 . S
C703 C700 1.386 . S
C704 C699 1.490 . S
C704 C706 1.395 . S
C704 C707 1.403 . S
H705 C711 0.930 . S
C706 H692 0.930 . S
C706 C704 1.395 . S
C706 C709 1.403 . S
C707 C704 1.403 . S
C707 C708 1.524 . S
C707 C711 1.400 . S
C708 H693 0.960 . S
C708 H694 0.960 . S
C708 H695 0.960 . S
C708 C707 1.524 . S
C709 C706 1.403 . S
C709 C710 1.392 . S
C709 C713 1.495 . S
C710 C709 1.392 . S
C710 C711 1.385 . S
C710 C712 1.478 . S
C711 H705 0.930 . S
C711 C707 1.400 . S
C711 C710 1.385 . S
C712 C710 1.478 . S
C712 C714 1.381 . S
C712 C718 1.383 . S
C713 C709 1.495 . S
C713 H719 0.959 . S
C713 H720 0.961 . S
C713 H721 0.960 . S
C714 C712 1.381 . S
C714 C715 1.394 . S
C714 H722 0.930 . S
C715 C714 1.394 . S
C715 C716 1.383 . S
C715 H723 0.929 1_556 S
C716 C715 1.383 . S
C716 C717 1.377 . S
C717 H701 0.930 . S
C717 C716 1.377 . S
C717 C718 1.379 . S
C718 H702 0.931 . S
C718 C712 1.383 . S
C718 C717 1.379 . S
H719 C713 0.959 . S
H720 C713 0.961 . S
H721 C713 0.960 . S
H722 C714 0.930 . S
H723 C715 0.929 1_554 S
H724 C732 0.929 . S
H725 C734 0.930 . S
H726 C736 0.930 . S
H727 C739 0.929 . S
H728 C742 0.930 . S
H729 C744 0.960 . S
H730 C744 0.960 . S
H731 C744 0.960 . S
C732 H724 0.929 . S
C732 C733 1.377 . S
C732 C734 1.384 . S
C733 C732 1.377 . S
C733 C739 1.390 . S
C734 H725 0.930 . S
C734 C732 1.384 . S
C734 C735 1.372 . S
C735 C734 1.372 . S
C735 C736 1.400 . S
C735 C740 1.490 . S
C736 H726 0.930 . S
C736 C735 1.400 . S
C736 C739 1.386 . S
H737 C753 0.930 . S
H738 C754 0.931 . S
C739 H727 0.929 . S
C739 C733 1.390 . S
C739 C736 1.386 . S
C740 C735 1.490 . S
C740 C742 1.395 . S
C740 C743 1.403 . S
H741 C747 0.930 . S
C742 H728 0.930 . S
C742 C740 1.395 . S
C742 C745 1.403 . S
C743 C740 1.403 . S
C743 C744 1.524 . S
C743 C747 1.400 . S
C744 H729 0.960 . S
C744 H730 0.960 . S
C744 H731 0.960 . S
C744 C743 1.524 . S
C745 C742 1.403 . S
C745 C746 1.392 . S
C745 C749 1.495 . S
C746 C745 1.392 . S
C746 C747 1.385 . S
C746 C748 1.478 . S
C747 H741 0.930 . S
C747 C743 1.400 . S
C747 C746 1.385 . S
C748 C746 1.478 . S
C748 C750 1.381 . S
C748 C754 1.383 . S
C749 C745 1.495 . S
C749 H755 0.959 . S
C749 H756 0.961 . S
C749 H757 0.960 . S
C750 C748 1.381 . S
C750 C751 1.394 . S
C750 H758 0.930 . S
C751 C750 1.394 . S
C751 C752 1.383 . S
C751 H759 0.929 . S
C752 C751 1.383 . S
C752 C753 1.377 . S
C753 H737 0.930 . S
C753 C752 1.377 . S
C753 C754 1.379 . S
C754 H738 0.931 . S
C754 C748 1.383 . S
C754 C753 1.379 . S
H755 C749 0.959 . S
H756 C749 0.961 . S
H757 C749 0.960 . S
H758 C750 0.930 . S
H759 C751 0.929 . S
H760 C768 0.929 . S
H761 C770 0.930 . S
H762 C772 0.930 . S
H763 C775 0.929 . S
H764 C778 0.930 . S
H765 C780 0.960 . S
H766 C780 0.960 . S
H767 C780 0.960 . S
C768 H760 0.929 . S
C768 C769 1.377 . S
C768 C770 1.384 . S
C769 C768 1.377 . S
C769 C775 1.390 . S
C770 H761 0.930 . S
C770 C768 1.384 . S
C770 C771 1.372 . S
C771 C770 1.372 . S
C771 C772 1.400 . S
C771 C776 1.490 . S
C772 H762 0.930 . S
C772 C771 1.400 . S
C772 C775 1.386 . S
H773 C789 0.930 . S
H774 C790 0.931 . S
C775 H763 0.929 . S
C775 C769 1.390 . S
C775 C772 1.386 . S
C776 C771 1.490 . S
C776 C778 1.395 . S
C776 C779 1.403 . S
H777 C783 0.930 . S
C778 H764 0.930 . S
C778 C776 1.395 . S
C778 C781 1.403 . S
C779 C776 1.403 . S
C779 C780 1.524 . S
C779 C783 1.400 . S
C780 H765 0.960 . S
C780 H766 0.960 . S
C780 H767 0.960 . S
C780 C779 1.524 . S
C781 C778 1.403 . S
C781 C782 1.392 . S
C781 C785 1.495 . S
C782 C781 1.392 . S
C782 C783 1.385 . S
C782 C784 1.478 . S
C783 H777 0.930 . S
C783 C779 1.400 . S
C783 C782 1.385 . S
C784 C782 1.478 . S
C784 C786 1.381 . S
C784 C790 1.383 . S
C785 C781 1.495 . S
C785 H791 0.959 . S
C785 H792 0.961 . S
C785 H793 0.960 . S
C786 C784 1.381 . S
C786 C787 1.394 . S
C786 H794 0.930 . S
C787 C786 1.394 . S
C787 C788 1.383 . S
C787 H795 0.929 . S
C788 C787 1.383 . S
C788 C789 1.377 . S
C789 H773 0.930 . S
C789 C788 1.377 . S
C789 C790 1.379 . S
C790 H774 0.931 . S
C790 C784 1.383 . S
C790 C789 1.379 . S
H791 C785 0.959 . S
H792 C785 0.961 . S
H793 C785 0.960 . S
H794 C786 0.930 . S
H795 C787 0.929 . S
H796 C804 0.929 . S
H797 C806 0.930 . S
H798 C808 0.930 . S
H799 C811 0.929 . S
H800 C814 0.930 . S
H801 C816 0.960 . S
H802 C816 0.960 . S
H803 C816 0.960 . S
C804 H796 0.929 . S
C804 C805 1.377 . S
C804 C806 1.384 . S
C805 C804 1.377 . S
C805 C811 1.390 . S
C806 H797 0.930 . S
C806 C804 1.384 . S
C806 C807 1.372 . S
C807 C806 1.372 . S
C807 C808 1.400 . S
C807 C812 1.490 . S
C808 H798 0.930 . S
C808 C807 1.400 . S
C808 C811 1.386 . S
H809 C825 0.930 . S
H810 C826 0.931 . S
C811 H799 0.929 . S
C811 C805 1.390 . S
C811 C808 1.386 . S
C812 C807 1.490 . S
C812 C814 1.395 . S
C812 C815 1.403 . S
H813 C819 0.930 . S
C814 H800 0.930 . S
C814 C812 1.395 . S
C814 C817 1.403 . S
C815 C812 1.403 . S
C815 C816 1.524 . S
C815 C819 1.400 . S
C816 H801 0.960 . S
C816 H802 0.960 . S
C816 H803 0.960 . S
C816 C815 1.524 . S
C817 C814 1.403 . S
C817 C818 1.392 . S
C817 C821 1.495 . S
C818 C817 1.392 . S
C818 C819 1.385 . S
C818 C820 1.478 . S
C819 H813 0.930 . S
C819 C815 1.400 . S
C819 C818 1.385 . S
C820 C818 1.478 . S
C820 C822 1.381 . S
C820 C826 1.383 . S
C821 C817 1.495 . S
C821 H827 0.959 . S
C821 H828 0.961 . S
C821 H829 0.960 . S
C822 C820 1.381 . S
C822 C823 1.394 . S
C822 H830 0.930 . S
C823 C822 1.394 . S
C823 C824 1.383 . S
C823 H831 0.929 . S
C824 C823 1.383 . S
C824 C825 1.377 . S
C825 H809 0.930 . S
C825 C824 1.377 . S
C825 C826 1.379 . S
C826 H810 0.931 . S
C826 C820 1.383 . S
C826 C825 1.379 . S
H827 C821 0.959 . S
H828 C821 0.961 . S
H829 C821 0.960 . S
H830 C822 0.930 . S
H831 C823 0.929 . S
H832 C840 0.929 . S
H833 C842 0.930 . S
H834 C844 0.930 . S
H835 C847 0.929 . S
H836 C850 0.930 . S
H837 C852 0.960 . S
H838 C852 0.960 . S
H839 C852 0.960 . S
C840 H832 0.929 . S
C840 C841 1.377 . S
C840 C842 1.384 . S
C841 C840 1.377 . S
C841 C847 1.390 . S
C842 H833 0.930 . S
C842 C840 1.384 . S
C842 C843 1.372 . S
C843 C842 1.372 . S
C843 C844 1.400 . S
C843 C848 1.490 . S
C844 H834 0.930 . S
C844 C843 1.400 . S
C844 C847 1.386 . S
H845 C861 0.930 . S
H846 C862 0.931 . S
C847 H835 0.929 . S
C847 C841 1.390 . S
C847 C844 1.386 . S
C848 C843 1.490 . S
C848 C850 1.395 . S
C848 C851 1.403 . S
H849 C855 0.930 . S
C850 H836 0.930 . S
C850 C848 1.395 . S
C850 C853 1.403 . S
C851 C848 1.403 . S
C851 C852 1.524 . S
C851 C855 1.400 . S
C852 H837 0.960 . S
C852 H838 0.960 . S
C852 H839 0.960 . S
C852 C851 1.524 . S
C853 C850 1.403 . S
C853 C854 1.392 . S
C853 C857 1.495 . S
C854 C853 1.392 . S
C854 C855 1.385 . S
C854 C856 1.478 . S
C855 H849 0.930 . S
C855 C851 1.400 . S
C855 C854 1.385 . S
C856 C854 1.478 . S
C856 C858 1.381 . S
C856 C862 1.383 . S
C857 C853 1.495 . S
C857 H863 0.959 . S
C857 H864 0.961 . S
C857 H865 0.960 . S
C858 C856 1.381 . S
C858 C859 1.394 . S
C858 H866 0.930 . S
C859 C858 1.394 . S
C859 C860 1.383 . S
C859 H867 0.929 . S
C860 C859 1.383 . S
C860 C861 1.377 . S
C861 H845 0.930 . S
C861 C860 1.377 . S
C861 C862 1.379 . S
C862 H846 0.931 . S
C862 C856 1.383 . S
C862 C861 1.379 . S
H863 C857 0.959 . S
H864 C857 0.961 . S
H865 C857 0.960 . S
H866 C858 0.930 . S
H867 C859 0.929 . S
H868 C876 0.929 . S
H869 C878 0.930 . S
H870 C880 0.930 . S
H871 C883 0.929 . S
H872 C886 0.930 . S
H873 C888 0.960 . S
H874 C888 0.960 . S
H875 C888 0.960 . S
C876 H868 0.929 . S
C876 C877 1.377 . S
C876 C878 1.384 . S
C877 C876 1.377 . S
C877 C883 1.390 . S
C878 H869 0.930 . S
C878 C876 1.384 . S
C878 C879 1.372 . S
C879 C878 1.372 . S
C879 C880 1.400 . S
C879 C884 1.490 . S
C880 H870 0.930 . S
C880 C879 1.400 . S
C880 C883 1.386 . S
H881 C897 0.930 . S
H882 C898 0.931 . S
C883 H871 0.929 . S
C883 C877 1.390 . S
C883 C880 1.386 . S
C884 C879 1.490 . S
C884 C886 1.395 . S
C884 C887 1.403 . S
H885 C891 0.930 . S
C886 H872 0.930 . S
C886 C884 1.395 . S
C886 C889 1.403 . S
C887 C884 1.403 . S
C887 C888 1.524 . S
C887 C891 1.400 . S
C888 H873 0.960 . S
C888 H874 0.960 . S
C888 H875 0.960 . S
C888 C887 1.524 . S
C889 C886 1.403 . S
C889 C890 1.392 . S
C889 C893 1.495 . S
C890 C889 1.392 . S
C890 C891 1.385 . S
C890 C892 1.478 . S
C891 H885 0.930 . S
C891 C887 1.400 . S
C891 C890 1.385 . S
C892 C890 1.478 . S
C892 C894 1.381 . S
C892 C898 1.383 . S
C893 C889 1.495 . S
C893 H899 0.959 . S
C893 H900 0.961 . S
C893 H901 0.960 . S
C894 C892 1.381 . S
C894 C895 1.394 . S
C894 H902 0.930 . S
C895 C894 1.394 . S
C895 C896 1.383 . S
C895 H903 0.929 . S
C896 C895 1.383 . S
C896 C897 1.377 . S
C897 H881 0.930 . S
C897 C896 1.377 . S
C897 C898 1.379 . S
C898 H882 0.931 . S
C898 C892 1.383 . S
C898 C897 1.379 . S
H899 C893 0.959 . S
H900 C893 0.961 . S
H901 C893 0.960 . S
H902 C894 0.930 . S
H903 C895 0.929 . S
H904 C912 0.929 . S
H905 C914 0.930 . S
H906 C916 0.930 . S
H907 C919 0.929 . S
H908 C922 0.930 . S
H909 C924 0.960 . S
H910 C924 0.960 . S
H911 C924 0.960 . S
C912 H904 0.929 . S
C912 C913 1.377 . S
C912 C914 1.384 . S
C913 C912 1.377 . S
C913 C919 1.390 . S
C914 H905 0.930 . S
C914 C912 1.384 . S
C914 C915 1.372 . S
C915 C914 1.372 . S
C915 C916 1.400 . S
C915 C920 1.490 . S
C916 H906 0.930 . S
C916 C915 1.400 . S
C916 C919 1.386 . S
H917 C933 0.930 . S
H918 C934 0.931 . S
C919 H907 0.929 . S
C919 C913 1.390 . S
C919 C916 1.386 . S
C920 C915 1.490 . S
C920 C922 1.395 . S
C920 C923 1.403 . S
H921 C927 0.930 . S
C922 H908 0.930 . S
C922 C920 1.395 . S
C922 C925 1.403 . S
C923 C920 1.403 . S
C923 C924 1.524 . S
C923 C927 1.400 . S
C924 H909 0.960 . S
C924 H910 0.960 . S
C924 H911 0.960 . S
C924 C923 1.524 . S
C925 C922 1.403 . S
C925 C926 1.392 . S
C925 C929 1.495 . S
C926 C925 1.392 . S
C926 C927 1.385 . S
C926 C928 1.478 . S
C927 H921 0.930 . S
C927 C923 1.400 . S
C927 C926 1.385 . S
C928 C926 1.478 . S
C928 C930 1.381 . S
C928 C934 1.383 . S
C929 C925 1.495 . S
C929 H935 0.959 . S
C929 H936 0.961 . S
C929 H937 0.960 . S
C930 C928 1.381 . S
C930 C931 1.394 . S
C930 H938 0.930 . S
C931 C930 1.394 . S
C931 C932 1.383 . S
C931 H939 0.929 . S
C932 C931 1.383 . S
C932 C933 1.377 . S
C933 H917 0.930 . S
C933 C932 1.377 . S
C933 C934 1.379 . S
C934 H918 0.931 . S
C934 C928 1.383 . S
C934 C933 1.379 . S
H935 C929 0.959 . S
H936 C929 0.961 . S
H937 C929 0.960 . S
H938 C930 0.930 . S
H939 C931 0.929 . S
H940 C948 0.929 . S
H941 C950 0.930 . S
H942 C952 0.930 . S
H943 C955 0.929 . S
H944 C958 0.930 . S
H945 C960 0.960 . S
H946 C960 0.960 . S
H947 C960 0.960 . S
C948 H940 0.929 . S
C948 C949 1.377 . S
C948 C950 1.384 . S
C949 C948 1.377 . S
C949 C955 1.390 . S
C950 H941 0.930 . S
C950 C948 1.384 . S
C950 C951 1.372 . S
C951 C950 1.372 . S
C951 C952 1.400 . S
C951 C956 1.490 . S
C952 H942 0.930 . S
C952 C951 1.400 . S
C952 C955 1.386 . S
H953 C969 0.930 . S
H954 C970 0.931 . S
C955 H943 0.929 . S
C955 C949 1.390 . S
C955 C952 1.386 . S
C956 C951 1.490 . S
C956 C958 1.395 . S
C956 C959 1.403 . S
H957 C963 0.930 . S
C958 H944 0.930 . S
C958 C956 1.395 . S
C958 C961 1.403 . S
C959 C956 1.403 . S
C959 C960 1.524 . S
C959 C963 1.400 . S
C960 H945 0.960 . S
C960 H946 0.960 . S
C960 H947 0.960 . S
C960 C959 1.524 . S
C961 C958 1.403 . S
C961 C962 1.392 . S
C961 C965 1.495 . S
C962 C961 1.392 . S
C962 C963 1.385 . S
C962 C964 1.478 . S
C963 H957 0.930 . S
C963 C959 1.400 . S
C963 C962 1.385 . S
C964 C962 1.478 . S
C964 C966 1.381 . S
C964 C970 1.383 . S
C965 C961 1.495 . S
C965 H971 0.959 . S
C965 H972 0.961 . S
C965 H973 0.960 . S
C966 C964 1.381 . S
C966 C967 1.394 . S
C966 H974 0.930 . S
C967 C966 1.394 . S
C967 C968 1.383 . S
C967 H975 0.929 . S
C968 C967 1.383 . S
C968 C969 1.377 . S
C969 H953 0.930 . S
C969 C968 1.377 . S
C969 C970 1.379 . S
C970 H954 0.931 . S
C970 C964 1.383 . S
C970 C969 1.379 . S
H971 C965 0.959 . S
H972 C965 0.961 . S
H973 C965 0.960 . S
H974 C966 0.930 . S
H975 C967 0.929 . S
H976 C984 0.929 . S
H977 C986 0.930 . S
H978 C988 0.930 . S
H979 C991 0.929 . S
H980 C994 0.930 . S
H981 C996 0.960 . S
H982 C996 0.960 . S
H983 C996 0.960 . S
C984 H976 0.929 . S
C984 C985 1.377 . S
C984 C986 1.384 . S
C985 C984 1.377 . S
C985 C991 1.390 . S
C986 H977 0.930 . S
C986 C984 1.384 . S
C986 C987 1.372 . S
C987 C986 1.372 . S
C987 C988 1.400 . S
C987 C992 1.490 . S
C988 H978 0.930 . S
C988 C987 1.400 . S
C988 C991 1.386 . S
H989 C1005 0.930 . S
H990 C1006 0.931 . S
C991 H979 0.929 . S
C991 C985 1.390 . S
C991 C988 1.386 . S
C992 C987 1.490 . S
C992 C994 1.395 . S
C992 C995 1.403 . S
H993 C999 0.930 . S
C994 H980 0.930 . S
C994 C992 1.395 . S
C994 C997 1.403 . S
C995 C992 1.403 . S
C995 C996 1.524 . S
C995 C999 1.400 . S
C996 H981 0.960 . S
C996 H982 0.960 . S
C996 H983 0.960 . S
C996 C995 1.524 . S
C997 C994 1.403 . S
C997 C998 1.392 . S
C997 C1001 1.495 . S
C998 C997 1.392 . S
C998 C999 1.385 . S
C998 C1000 1.478 . S
C999 H993 0.930 . S
C999 C995 1.400 . S
C999 C998 1.385 . S
C1000 C998 1.478 . S
C1000 C1002 1.381 . S
C1000 C1006 1.383 . S
C1001 C997 1.495 . S
C1001 H1007 0.959 . S
C1001 H1008 0.961 . S
C1001 H1009 0.960 . S
C1002 C1000 1.381 . S
C1002 C1003 1.394 . S
C1002 H1010 0.930 . S
C1003 C1002 1.394 . S
C1003 C1004 1.383 . S
C1003 H1011 0.929 . S
C1004 C1003 1.383 . S
C1004 C1005 1.377 . S
C1005 H989 0.930 . S
C1005 C1004 1.377 . S
C1005 C1006 1.379 . S
C1006 H990 0.931 . S
C1006 C1000 1.383 . S
C1006 C1005 1.379 . S
H1007 C1001 0.959 . S
H1008 C1001 0.961 . S
H1009 C1001 0.960 . S
H1010 C1002 0.930 . S
H1011 C1003 0.929 . S
H1012 C1020 0.929 . S
H1013 C1022 0.930 . S
H1014 C1024 0.930 . S
H1015 C1027 0.929 . S
H1016 C1030 0.930 . S
H1017 C1032 0.960 . S
H1018 C1032 0.960 . S
H1019 C1032 0.960 . S
C1020 H1012 0.929 . S
C1020 C1021 1.377 . S
C1020 C1022 1.384 . S
C1021 C1020 1.377 . S
C1021 C1027 1.390 . S
C1022 H1013 0.930 . S
C1022 C1020 1.384 . S
C1022 C1023 1.372 . S
C1023 C1022 1.372 . S
C1023 C1024 1.400 . S
C1023 C1028 1.490 . S
C1024 H1014 0.930 . S
C1024 C1023 1.400 . S
C1024 C1027 1.386 . S
H1025 C1041 0.930 . S
H1026 C1042 0.931 . S
C1027 H1015 0.929 . S
C1027 C1021 1.390 . S
C1027 C1024 1.386 . S
C1028 C1023 1.490 . S
C1028 C1030 1.395 . S
C1028 C1031 1.403 . S
H1029 C1035 0.930 . S
C1030 H1016 0.930 . S
C1030 C1028 1.395 . S
C1030 C1033 1.403 . S
C1031 C1028 1.403 . S
C1031 C1032 1.524 . S
C1031 C1035 1.400 . S
C1032 H1017 0.960 . S
C1032 H1018 0.960 . S
C1032 H1019 0.960 . S
C1032 C1031 1.524 . S
C1033 C1030 1.403 . S
C1033 C1034 1.392 . S
C1033 C1037 1.495 . S
C1034 C1033 1.392 . S
C1034 C1035 1.385 . S
C1034 C1036 1.478 . S
C1035 H1029 0.930 . S
C1035 C1031 1.400 . S
C1035 C1034 1.385 . S
C1036 C1034 1.478 . S
C1036 C1038 1.381 . S
C1036 C1042 1.383 . S
C1037 C1033 1.495 . S
C1037 H1043 0.959 . S
C1037 H1044 0.961 . S
C1037 H1045 0.960 . S
C1038 C1036 1.381 . S
C1038 C1039 1.394 . S
C1038 H1046 0.930 . S
C1039 C1038 1.394 . S
C1039 C1040 1.383 . S
C1039 H1047 0.929 . S
C1040 C1039 1.383 . S
C1040 C1041 1.377 . S
C1041 H1025 0.930 . S
C1041 C1040 1.377 . S
C1041 C1042 1.379 . S
C1042 H1026 0.931 . S
C1042 C1036 1.383 . S
C1042 C1041 1.379 . S
H1043 C1037 0.959 . S
H1044 C1037 0.961 . S
H1045 C1037 0.960 . S
H1046 C1038 0.930 . S
H1047 C1039 0.929 . S
H1048 C1056 0.929 . S
H1049 C1058 0.930 . S
H1050 C1060 0.930 . S
H1051 C1063 0.929 . S
H1052 C1066 0.930 . S
H1053 C1068 0.960 . S
H1054 C1068 0.960 . S
H1055 C1068 0.960 . S
C1056 H1048 0.929 . S
C1056 C1057 1.377 . S
C1056 C1058 1.384 . S
C1057 C1056 1.377 . S
C1057 C1063 1.390 . S
C1058 H1049 0.930 . S
C1058 C1056 1.384 . S
C1058 C1059 1.372 . S
C1059 C1058 1.372 . S
C1059 C1060 1.400 . S
C1059 C1064 1.490 . S
C1060 H1050 0.930 . S
C1060 C1059 1.400 . S
C1060 C1063 1.386 . S
H1061 C1077 0.930 . S
H1062 C1078 0.931 . S
C1063 H1051 0.929 . S
C1063 C1057 1.390 . S
C1063 C1060 1.386 . S
C1064 C1059 1.490 . S
C1064 C1066 1.395 . S
C1064 C1067 1.403 . S
H1065 C1071 0.930 . S
C1066 H1052 0.930 . S
C1066 C1064 1.395 . S
C1066 C1069 1.403 . S
C1067 C1064 1.403 . S
C1067 C1068 1.524 . S
C1067 C1071 1.400 . S
C1068 H1053 0.960 . S
C1068 H1054 0.960 . S
C1068 H1055 0.960 . S
C1068 C1067 1.524 . S
C1069 C1066 1.403 . S
C1069 C1070 1.392 . S
C1069 C1073 1.495 . S
C1070 C1069 1.392 . S
C1070 C1071 1.385 . S
C1070 C1072 1.478 . S
C1071 H1065 0.930 . S
C1071 C1067 1.400 . S
C1071 C1070 1.385 . S
C1072 C1070 1.478 . S
C1072 C1074 1.381 . S
C1072 C1078 1.383 . S
C1073 C1069 1.495 . S
C1073 H1079 0.959 . S
C1073 H1080 0.961 . S
C1073 H1081 0.960 . S
C1074 C1072 1.381 . S
C1074 C1075 1.394 . S
C1074 H1082 0.930 . S
C1075 C1074 1.394 . S
C1075 C1076 1.383 . S
C1075 H1083 0.927 . S
C1076 C1075 1.383 . S
C1076 C1077 1.377 . S
C1077 H1061 0.930 . S
C1077 C1076 1.377 . S
C1077 C1078 1.379 . S
C1078 H1062 0.931 . S
C1078 C1072 1.383 . S
C1078 C1077 1.379 . S
H1079 C1073 0.959 . S
H1080 C1073 0.961 . S
H1081 C1073 0.960 . S
H1082 C1074 0.930 . S
H1083 C1075 0.927 . S
H1084 C1092 0.929 . S
H1085 C1094 0.930 . S
H1086 C1096 0.930 . S
H1087 C1099 0.929 . S
H1088 C1102 0.930 . S
H1089 C1104 0.960 . S
H1090 C1104 0.960 . S
H1091 C1104 0.960 . S
C1092 H1084 0.929 . S
C1092 C1093 1.377 . S
C1092 C1094 1.384 . S
C1093 C1092 1.377 . S
C1093 C1099 1.390 . S
C1094 H1085 0.930 . S
C1094 C1092 1.384 . S
C1094 C1095 1.372 . S
C1095 C1094 1.372 . S
C1095 C1096 1.400 . S
C1095 C1100 1.490 . S
C1096 H1086 0.930 . S
C1096 C1095 1.400 . S
C1096 C1099 1.386 . S
H1097 C1113 0.930 . S
H1098 C1114 0.931 . S
C1099 H1087 0.929 . S
C1099 C1093 1.390 . S
C1099 C1096 1.386 . S
C1100 C1095 1.490 . S
C1100 C1102 1.395 . S
C1100 C1103 1.403 . S
H1101 C1107 0.930 . S
C1102 H1088 0.930 . S
C1102 C1100 1.395 . S
C1102 C1105 1.403 . S
C1103 C1100 1.403 . S
C1103 C1104 1.524 . S
C1103 C1107 1.400 . S
C1104 H1089 0.960 . S
C1104 H1090 0.960 . S
C1104 H1091 0.960 . S
C1104 C1103 1.524 . S
C1105 C1102 1.403 . S
C1105 C1106 1.392 . S
C1105 C1109 1.495 . S
C1106 C1105 1.392 . S
C1106 C1107 1.385 . S
C1106 C1108 1.478 . S
C1107 H1101 0.930 . S
C1107 C1103 1.400 . S
C1107 C1106 1.385 . S
C1108 C1106 1.478 . S
C1108 C1110 1.381 . S
C1108 C1114 1.383 . S
C1109 C1105 1.495 . S
C1109 H1115 0.959 . S
C1109 H1116 0.961 . S
C1109 H1117 0.960 . S
C1110 C1108 1.381 . S
C1110 C1111 1.394 . S
C1110 H1118 0.930 . S
C1111 C1110 1.394 . S
C1111 C1112 1.383 . S
C1111 H1119 0.929 . S
C1112 C1111 1.383 . S
C1112 C1113 1.377 . S
C1113 H1097 0.930 . S
C1113 C1112 1.377 . S
C1113 C1114 1.379 . S
C1114 H1098 0.931 . S
C1114 C1108 1.383 . S
C1114 C1113 1.379 . S
H1115 C1109 0.959 . S
H1116 C1109 0.961 . S
H1117 C1109 0.960 . S
H1118 C1110 0.930 . S
H1119 C1111 0.929 . S
H1120 C1128 0.929 . S
H1121 C1130 0.930 . S
H1122 C1132 0.930 . S
H1123 C1135 0.929 . S
H1124 C1138 0.930 . S
H1125 C1140 0.960 . S
H1126 C1140 0.960 . S
H1127 C1140 0.960 . S
C1128 H1120 0.929 . S
C1128 C1129 1.377 . S
C1128 C1130 1.384 . S
C1129 C1128 1.377 . S
C1129 C1135 1.390 . S
C1130 H1121 0.930 . S
C1130 C1128 1.384 . S
C1130 C1131 1.372 . S
C1131 C1130 1.372 . S
C1131 C1132 1.400 . S
C1131 C1136 1.490 . S
C1132 H1122 0.930 . S
C1132 C1131 1.400 . S
C1132 C1135 1.386 . S
H1133 C1149 0.930 . S
H1134 C1150 0.931 . S
C1135 H1123 0.929 . S
C1135 C1129 1.390 . S
C1135 C1132 1.386 . S
C1136 C1131 1.490 . S
C1136 C1138 1.395 . S
C1136 C1139 1.403 . S
H1137 C1143 0.930 . S
C1138 H1124 0.930 . S
C1138 C1136 1.395 . S
C1138 C1141 1.403 . S
C1139 C1136 1.403 . S
C1139 C1140 1.524 . S
C1139 C1143 1.400 . S
C1140 H1125 0.960 . S
C1140 H1126 0.960 . S
C1140 H1127 0.960 . S
C1140 C1139 1.524 . S
C1141 C1138 1.403 . S
C1141 C1142 1.392 . S
C1141 C1145 1.495 . S
C1142 C1141 1.392 . S
C1142 C1143 1.385 . S
C1142 C1144 1.478 . S
C1143 H1137 0.930 . S
C1143 C1139 1.400 . S
C1143 C1142 1.385 . S
C1144 C1142 1.478 . S
C1144 C1146 1.381 . S
C1144 C1150 1.383 . S
C1145 C1141 1.495 . S
C1145 H1151 0.959 . S
C1145 H1152 0.961 . S
C1145 H1153 0.960 . S
C1146 C1144 1.381 . S
C1146 C1147 1.394 . S
C1146 H1154 0.930 . S
C1147 C1146 1.394 . S
C1147 C1148 1.383 . S
C1147 H1155 0.929 . S
C1148 C1147 1.383 . S
C1148 C1149 1.377 . S
C1149 H1133 0.930 . S
C1149 C1148 1.377 . S
C1149 C1150 1.379 . S
C1150 H1134 0.931 . S
C1150 C1144 1.383 . S
C1150 C1149 1.379 . S
H1151 C1145 0.959 . S
H1152 C1145 0.961 . S
H1153 C1145 0.960 . S
H1154 C1146 0.930 . S
H1155 C1147 0.929 . S
H1156 C1164 0.929 . S
H1157 C1166 0.930 . S
H1158 C1168 0.930 . S
H1159 C1171 0.929 . S
H1160 C1174 0.930 . S
H1161 C1176 0.960 . S
H1162 C1176 0.960 . S
H1163 C1176 0.960 . S
C1164 H1156 0.929 . S
C1164 C1165 1.377 . S
C1164 C1166 1.384 . S
C1165 C1164 1.377 . S
C1165 C1171 1.390 . S
C1166 H1157 0.930 . S
C1166 C1164 1.384 . S
C1166 C1167 1.372 . S
C1167 C1166 1.372 . S
C1167 C1168 1.400 . S
C1167 C1172 1.490 . S
C1168 H1158 0.930 . S
C1168 C1167 1.400 . S
C1168 C1171 1.386 . S
H1169 C1185 0.930 . S
H1170 C1186 0.931 . S
C1171 H1159 0.929 . S
C1171 C1165 1.390 . S
C1171 C1168 1.386 . S
C1172 C1167 1.490 . S
C1172 C1174 1.395 . S
C1172 C1175 1.403 . S
H1173 C1179 0.930 . S
C1174 H1160 0.930 . S
C1174 C1172 1.395 . S
C1174 C1177 1.403 . S
C1175 C1172 1.403 . S
C1175 C1176 1.524 . S
C1175 C1179 1.400 . S
C1176 H1161 0.960 . S
C1176 H1162 0.960 . S
C1176 H1163 0.960 . S
C1176 C1175 1.524 . S
C1177 C1174 1.403 . S
C1177 C1178 1.392 . S
C1177 C1181 1.495 . S
C1178 C1177 1.392 . S
C1178 C1179 1.385 . S
C1178 C1180 1.478 . S
C1179 H1173 0.930 . S
C1179 C1175 1.400 . S
C1179 C1178 1.385 . S
C1180 C1178 1.478 . S
C1180 C1182 1.381 . S
C1180 C1186 1.383 . S
C1181 C1177 1.495 . S
C1181 H1187 0.959 . S
C1181 H1188 0.961 . S
C1181 H1189 0.960 . S
C1182 C1180 1.381 . S
C1182 C1183 1.394 . S
C1182 H1190 0.930 . S
C1183 C1182 1.394 . S
C1183 C1184 1.383 . S
C1183 H1191 0.929 . S
C1184 C1183 1.383 . S
C1184 C1185 1.377 . S
C1185 H1169 0.930 . S
C1185 C1184 1.377 . S
C1185 C1186 1.379 . S
C1186 H1170 0.931 . S
C1186 C1180 1.383 . S
C1186 C1185 1.379 . S
H1187 C1181 0.959 . S
H1188 C1181 0.961 . S
H1189 C1181 0.960 . S
H1190 C1182 0.930 . S
H1191 C1183 0.929 . S
H1192 C1200 0.929 . S
H1193 C1202 0.930 . S
H1194 C1204 0.930 . S
H1195 C1207 0.929 . S
H1196 C1210 0.930 . S
H1197 C1212 0.960 . S
H1198 C1212 0.960 . S
H1199 C1212 0.960 . S
C1200 H1192 0.929 . S
C1200 C1201 1.377 . S
C1200 C1202 1.384 . S
C1201 C1200 1.377 . S
C1201 C1207 1.390 . S
C1202 H1193 0.930 . S
C1202 C1200 1.384 . S
C1202 C1203 1.372 . S
C1203 C1202 1.372 . S
C1203 C1204 1.400 . S
C1203 C1208 1.490 . S
C1204 H1194 0.930 . S
C1204 C1203 1.400 . S
C1204 C1207 1.386 . S
H1205 C1221 0.930 . S
H1206 C1222 0.931 . S
C1207 H1195 0.929 . S
C1207 C1201 1.390 . S
C1207 C1204 1.386 . S
C1208 C1203 1.490 . S
C1208 C1210 1.395 . S
C1208 C1211 1.403 . S
H1209 C1215 0.930 . S
C1210 H1196 0.930 . S
C1210 C1208 1.395 . S
C1210 C1213 1.403 . S
C1211 C1208 1.403 . S
C1211 C1212 1.524 . S
C1211 C1215 1.400 . S
C1212 H1197 0.960 . S
C1212 H1198 0.960 . S
C1212 H1199 0.960 . S
C1212 C1211 1.524 . S
C1213 C1210 1.403 . S
C1213 C1214 1.392 . S
C1213 C1217 1.495 . S
C1214 C1213 1.392 . S
C1214 C1215 1.385 . S
C1214 C1216 1.478 . S
C1215 H1209 0.930 . S
C1215 C1211 1.400 . S
C1215 C1214 1.385 . S
C1216 C1214 1.478 . S
C1216 C1218 1.381 . S
C1216 C1222 1.383 . S
C1217 C1213 1.495 . S
C1217 H1223 0.959 . S
C1217 H1224 0.961 . S
C1217 H1225 0.960 . S
C1218 C1216 1.381 . S
C1218 C1219 1.394 . S
C1218 H1226 0.930 . S
C1219 C1218 1.394 . S
C1219 C1220 1.383 . S
C1219 H1227 0.929 . S
C1220 C1219 1.383 . S
C1220 C1221 1.377 . S
C1221 H1205 0.930 . S
C1221 C1220 1.377 . S
C1221 C1222 1.379 . S
C1222 H1206 0.931 . S
C1222 C1216 1.383 . S
C1222 C1221 1.379 . S
H1223 C1217 0.959 . S
H1224 C1217 0.961 . S
H1225 C1217 0.960 . S
H1226 C1218 0.930 . S
H1227 C1219 0.929 . S
H1228 C1236 0.929 . S
H1229 C1238 0.930 . S
H1230 C1240 0.930 . S
H1231 C1243 0.929 . S
H1232 C1246 0.930 . S
H1233 C1248 0.960 . S
H1234 C1248 0.960 . S
H1235 C1248 0.960 . S
C1236 H1228 0.929 . S
C1236 C1237 1.377 . S
C1236 C1238 1.384 . S
C1237 C1236 1.377 . S
C1237 C1243 1.390 . S
C1238 H1229 0.930 . S
C1238 C1236 1.384 . S
C1238 C1239 1.372 . S
C1239 C1238 1.372 . S
C1239 C1240 1.400 . S
C1239 C1244 1.490 . S
C1240 H1230 0.930 . S
C1240 C1239 1.400 . S
C1240 C1243 1.386 . S
H1241 C1257 0.930 . S
H1242 C1258 0.931 . S
C1243 H1231 0.929 . S
C1243 C1237 1.390 . S
C1243 C1240 1.386 . S
C1244 C1239 1.490 . S
C1244 C1246 1.395 . S
C1244 C1247 1.403 . S
H1245 C1251 0.930 . S
C1246 H1232 0.930 . S
C1246 C1244 1.395 . S
C1246 C1249 1.403 . S
C1247 C1244 1.403 . S
C1247 C1248 1.524 . S
C1247 C1251 1.400 . S
C1248 H1233 0.960 . S
C1248 H1234 0.960 . S
C1248 H1235 0.960 . S
C1248 C1247 1.524 . S
C1249 C1246 1.403 . S
C1249 C1250 1.392 . S
C1249 C1253 1.495 . S
C1250 C1249 1.392 . S
C1250 C1251 1.385 . S
C1250 C1252 1.478 . S
C1251 H1245 0.930 . S
C1251 C1247 1.400 . S
C1251 C1250 1.385 . S
C1252 C1250 1.478 . S
C1252 C1254 1.381 . S
C1252 C1258 1.383 . S
C1253 C1249 1.495 . S
C1253 H1259 0.959 . S
C1253 H1260 0.961 . S
C1253 H1261 0.960 . S
C1254 C1252 1.381 . S
C1254 C1255 1.394 . S
C1254 H1262 0.930 . S
C1255 C1254 1.394 . S
C1255 C1256 1.383 . S
C1255 H1263 0.929 . S
C1256 C1255 1.383 . S
C1256 C1257 1.377 . S
C1257 H1241 0.930 . S
C1257 C1256 1.377 . S
C1257 C1258 1.379 . S
C1258 H1242 0.931 . S
C1258 C1252 1.383 . S
C1258 C1257 1.379 . S
H1259 C1253 0.959 . S
H1260 C1253 0.961 . S
H1261 C1253 0.960 . S
H1262 C1254 0.930 . S
H1263 C1255 0.929 . S
H1264 C1272 0.929 . S
H1265 C1274 0.930 . S
H1266 C1276 0.930 . S
H1267 C1279 0.929 . S
H1268 C1282 0.930 . S
H1269 C1284 0.960 . S
H1270 C1284 0.960 . S
H1271 C1284 0.960 . S
C1272 H1264 0.929 . S
C1272 C1273 1.377 . S
C1272 C1274 1.384 . S
C1273 C1272 1.377 . S
C1273 C1279 1.390 . S
C1274 H1265 0.930 . S
C1274 C1272 1.384 . S
C1274 C1275 1.372 . S
C1275 C1274 1.372 . S
C1275 C1276 1.400 . S
C1275 C1280 1.490 . S
C1276 H1266 0.930 . S
C1276 C1275 1.400 . S
C1276 C1279 1.386 . S
H1277 C1293 0.930 . S
H1278 C1294 0.931 . S
C1279 H1267 0.929 . S
C1279 C1273 1.390 . S
C1279 C1276 1.386 . S
C1280 C1275 1.490 . S
C1280 C1282 1.395 . S
C1280 C1283 1.403 . S
H1281 C1287 0.930 . S
C1282 H1268 0.930 . S
C1282 C1280 1.395 . S
C1282 C1285 1.403 . S
C1283 C1280 1.403 . S
C1283 C1284 1.524 . S
C1283 C1287 1.400 . S
C1284 H1269 0.960 . S
C1284 H1270 0.960 . S
C1284 H1271 0.960 . S
C1284 C1283 1.524 . S
C1285 C1282 1.403 . S
C1285 C1286 1.392 . S
C1285 C1289 1.495 . S
C1286 C1285 1.392 . S
C1286 C1287 1.385 . S
C1286 C1288 1.478 . S
C1287 H1281 0.930 . S
C1287 C1283 1.400 . S
C1287 C1286 1.385 . S
C1288 C1286 1.478 . S
C1288 C1290 1.381 . S
C1288 C1294 1.383 . S
C1289 C1285 1.495 . S
C1289 H1295 0.959 . S
C1289 H1296 0.961 . S
C1289 H1297 0.960 . S
C1290 C1288 1.381 . S
C1290 C1291 1.394 . S
C1290 H1298 0.930 . S
C1291 C1290 1.394 . S
C1291 C1292 1.383 . S
C1291 H1299 0.929 . S
C1292 C1291 1.383 . S
C1292 C1293 1.377 . S
C1293 H1277 0.930 . S
C1293 C1292 1.377 . S
C1293 C1294 1.379 . S
C1294 H1278 0.931 . S
C1294 C1288 1.383 . S
C1294 C1293 1.379 . S
H1295 C1289 0.959 . S
H1296 C1289 0.961 . S
H1297 C1289 0.960 . S
H1298 C1290 0.930 . S
H1299 C1291 0.929 . S
H1300 C1308 0.929 . S
H1301 C1310 0.930 . S
H1302 C1312 0.930 . S
H1303 C1315 0.929 . S
H1304 C1318 0.930 . S
H1305 C1320 0.960 . S
H1306 C1320 0.960 . S
H1307 C1320 0.960 . S
C1308 H1300 0.929 . S
C1308 C1309 1.377 . S
C1308 C1310 1.384 . S
C1309 C1308 1.377 . S
C1309 C1315 1.390 . S
C1310 H1301 0.930 . S
C1310 C1308 1.384 . S
C1310 C1311 1.372 . S
C1311 C1310 1.372 . S
C1311 C1312 1.400 . S
C1311 C1316 1.490 . S
C1312 H1302 0.930 . S
C1312 C1311 1.400 . S
C1312 C1315 1.386 . S
H1313 C1329 0.930 . S
H1314 C1330 0.931 . S
C1315 H1303 0.929 . S
C1315 C1309 1.390 . S
C1315 C1312 1.386 . S
C1316 C1311 1.490 . S
C1316 C1318 1.395 . S
C1316 C1319 1.403 . S
H1317 C1323 0.930 . S
C1318 H1304 0.930 . S
C1318 C1316 1.395 . S
C1318 C1321 1.403 . S
C1319 C1316 1.403 . S
C1319 C1320 1.524 . S
C1319 C1323 1.400 . S
C1320 H1305 0.960 . S
C1320 H1306 0.960 . S
C1320 H1307 0.960 . S
C1320 C1319 1.524 . S
C1321 C1318 1.403 . S
C1321 C1322 1.392 . S
C1321 C1325 1.495 . S
C1322 C1321 1.392 . S
C1322 C1323 1.385 . S
C1322 C1324 1.478 . S
C1323 H1317 0.930 . S
C1323 C1319 1.400 . S
C1323 C1322 1.385 . S
C1324 C1322 1.478 . S
C1324 C1326 1.381 . S
C1324 C1330 1.383 . S
C1325 C1321 1.495 . S
C1325 H1331 0.959 . S
C1325 H1332 0.961 . S
C1325 H1333 0.960 . S
C1326 C1324 1.381 . S
C1326 C1327 1.394 . S
C1326 H1334 0.930 . S
C1327 C1326 1.394 . S
C1327 C1328 1.383 . S
C1327 H1335 0.929 . S
C1328 C1327 1.383 . S
C1328 C1329 1.377 . S
C1329 H1313 0.930 . S
C1329 C1328 1.377 . S
C1329 C1330 1.379 . S
C1330 H1314 0.931 . S
C1330 C1324 1.383 . S
C1330 C1329 1.379 . S
H1331 C1325 0.959 . S
H1332 C1325 0.961 . S
H1333 C1325 0.960 . S
H1334 C1326 0.930 . S
H1335 C1327 0.929 . S
C481 C1 0.854 . S
C500 C316 0.878 . S
C517 C40 1.216 . S
C536 C377 1.238 . S
C572 C415 2.475 . S
C553 C99 2.559 . S
C589 C118 2.269 . S
C608 C455 2.223 . S
C644 C375 1.238 . S
C625 C16 1.237 . S
C680 C343 2.141 . S
C661 C60 2.084 . S
C716 C452 1.682 . S
C697 C79 1.697 . S
C752 C412 1.771 . S
C733 C138 1.775 . S
C769 C21 0.975 . S
C788 C457 0.963 . S
C824 C372 2.408 . S
C805 C94 2.408 . S
C841 C133 2.114 . S
C860 C314 2.067 . S
C877 C55 1.488 . S
C896 C417 1.537 . S
C932 C337 0.881 . S
C913 C157 0.860 . S
C949 C196 1.211 . S
C968 C356 1.239 . S
C985 C255 2.552 . S
C1004 C394 2.484 . S
C1021 C289 2.267 . S
C1040 C434 2.219 . S
C1057 C172 1.240 . S
C1076 C354 1.221 . S
C1112 C332 2.143 . S
C1093 C216 2.071 . S
C1148 C463 1.694 . S
C1129 C235 1.694 . S
C1184 C423 1.758 . S
C1165 C294 1.774 . S
C1201 C177 0.976 . S
C1220 C436 0.990 . S
C1256 C383 2.412 . S
C1237 C250 2.413 . S
C1292 C335 2.067 . S
C1273 C274 2.116 . S
C1309 C211 1.489 . S
C1328 C396 1.512 . S
