# Generated by pormake.
# Topology pyr, (3,6)-cn, num edge types: 1
# Building blocks:
#     Node 0, Type 0, BuildingBlock: BETDAH_clean_linker_0, # of connection points: 3
#     Node 1, Type 0, BuildingBlock: BETDAH_clean_linker_0, # of connection points: 3
#     Node 2, Type 0, BuildingBlock: BETDAH_clean_linker_0, # of connection points: 3
#     Node 3, Type 0, BuildingBlock: BETDAH_clean_linker_0, # of connection points: 3
#     Node 4, Type 0, BuildingBlock: BETDAH_clean_linker_0, # of connection points: 3
#     Node 5, Type 0, BuildingBlock: BETDAH_clean_linker_0, # of connection points: 3
#     Node 6, Type 0, BuildingBlock: BETDAH_clean_linker_0, # of connection points: 3
#     Node 7, Type 0, BuildingBlock: BETDAH_clean_linker_0, # of connection points: 3
#     Node 8, Type 1, BuildingBlock: JUFBIX_clean_sbu_0, # of connection points: 6
#     Node 9, Type 1, BuildingBlock: JUFBIX_clean_sbu_0, # of connection points: 6
#     Node 10, Type 1, BuildingBlock: JUFBIX_clean_sbu_0, # of connection points: 6
#     Node 11, Type 1, BuildingBlock: JUFBIX_clean_sbu_0, # of connection points: 6
#     Edge 12, Type (0, 1), BuildingBlock: KIFKEQ_clean_linker_1, # of connection points: 2
#     Edge 13, Type (0, 1), BuildingBlock: KIFKEQ_clean_linker_1, # of connection points: 2
#     Edge 14, Type (0, 1), BuildingBlock: KIFKEQ_clean_linker_1, # of connection points: 2
#     Edge 15, Type (0, 1), BuildingBlock: KIFKEQ_clean_linker_1, # of connection points: 2
#     Edge 16, Type (0, 1), BuildingBlock: KIFKEQ_clean_linker_1, # of connection points: 2
#     Edge 17, Type (0, 1), BuildingBlock: KIFKEQ_clean_linker_1, # of connection points: 2
#     Edge 18, Type (0, 1), BuildingBlock: KIFKEQ_clean_linker_1, # of connection points: 2
#     Edge 19, Type (0, 1), BuildingBlock: KIFKEQ_clean_linker_1, # of connection points: 2
#     Edge 20, Type (0, 1), BuildingBlock: KIFKEQ_clean_linker_1, # of connection points: 2
#     Edge 21, Type (0, 1), BuildingBlock: KIFKEQ_clean_linker_1, # of connection points: 2
#     Edge 22, Type (0, 1), BuildingBlock: KIFKEQ_clean_linker_1, # of connection points: 2
#     Edge 23, Type (0, 1), BuildingBlock: KIFKEQ_clean_linker_1, # of connection points: 2
#     Edge 24, Type (0, 1), BuildingBlock: KIFKEQ_clean_linker_1, # of connection points: 2
#     Edge 25, Type (0, 1), BuildingBlock: KIFKEQ_clean_linker_1, # of connection points: 2
#     Edge 26, Type (0, 1), BuildingBlock: KIFKEQ_clean_linker_1, # of connection points: 2
#     Edge 27, Type (0, 1), BuildingBlock: KIFKEQ_clean_linker_1, # of connection points: 2
#     Edge 28, Type (0, 1), BuildingBlock: KIFKEQ_clean_linker_1, # of connection points: 2
#     Edge 29, Type (0, 1), BuildingBlock: KIFKEQ_clean_linker_1, # of connection points: 2
#     Edge 30, Type (0, 1), BuildingBlock: KIFKEQ_clean_linker_1, # of connection points: 2
#     Edge 31, Type (0, 1), BuildingBlock: KIFKEQ_clean_linker_1, # of connection points: 2
#     Edge 32, Type (0, 1), BuildingBlock: KIFKEQ_clean_linker_1, # of connection points: 2
#     Edge 33, Type (0, 1), BuildingBlock: KIFKEQ_clean_linker_1, # of connection points: 2
#     Edge 34, Type (0, 1), BuildingBlock: KIFKEQ_clean_linker_1, # of connection points: 2
#     Edge 35, Type (0, 1), BuildingBlock: KIFKEQ_clean_linker_1, # of connection points: 2
# Relax obj value: 0.124
# Max RMSD: 0.203
# Mean RMSD: 0.127
data_MOF--net-pry--node1-JUFBIX_clean_sbu_0--node2-BETDAH_clean_linker_0--edge1-KIFKEQ_clean_linker_1
_symmetry_space_group_name_H-M    P1
_symmetry_Int_Tables_number       1
_symmetry_cell_setting            triclinic
loop_
_symmetry_equiv_pos_as_xyz
'x, y, z'
_cell_length_a     37.024258
_cell_length_b     35.168627
_cell_length_c     38.415562
_cell_angle_alpha  82.72945
_cell_angle_beta   88.131714
_cell_angle_gamma 96.343221
loop_
_atom_site_label
_atom_site_type_symbol
_atom_site_fract_x
_atom_site_fract_y
_atom_site_fract_z
_atom_type_partial_charge
H0 H 0.24681 0.15081 0.24141 0.0
H1 H 0.27147 0.24673 0.16001 0.0
H2 H 0.18376 0.24778 0.23515 0.0
C3 C 0.24137 0.17886 0.229 0.0
C4 C 0.21282 0.19708 0.24287 0.0
C5 C 0.26269 0.19618 0.19889 0.0
C6 C 0.25477 0.23212 0.18248 0.0
C7 C 0.22591 0.25025 0.1947 0.0
C8 C 0.2049 0.23275 0.22489 0.0
N9 N 0.22115 0.28736 0.17704 0.0
C10 C 0.18953 0.30561 0.17593 0.0
H11 H 0.49049 0.85359 0.74527 0.0
H12 H 0.46029 0.96575 0.70588 0.0
H13 H 0.4629 0.87924 0.63741 0.0
C14 C 0.48234 0.87371 0.72403 0.0
C15 C 0.47689 0.86167 0.69083 0.0
C16 C 0.47672 0.91149 0.72985 0.0
C17 C 0.4658 0.93693 0.70192 0.0
C18 C 0.4611 0.9252 0.66879 0.0
C19 C 0.4668 0.8879 0.66326 0.0
N20 N 0.44948 0.95052 0.64104 0.0
C21 C 0.41313 0.95633 0.63972 0.0
H22 H 0.73609 0.35848 0.96115 0.0
H23 H 0.73802 0.47721 0.91582 0.0
H24 H 0.64339 0.39746 0.90808 0.0
C25 C 0.72325 0.38119 0.94631 0.0
C26 C 0.68749 0.37339 0.93553 0.0
C27 C 0.74198 0.41853 0.93891 0.0
C28 C 0.72452 0.44795 0.92077 0.0
C29 C 0.68957 0.4403 0.90905 0.0
C30 C 0.67097 0.40303 0.91637 0.0
N31 N 0.67291 0.47118 0.89168 0.0
C32 C 0.65744 0.4693 0.85949 0.0
H33 H 0.92941 0.71872 0.50798 0.0
H34 H 0.03563 0.68701 0.48352 0.0
H35 H 0.93979 0.61232 0.46657 0.0
C36 C 0.94652 0.69854 0.49891 0.0
C37 C 0.93009 0.66406 0.48852 0.0
C38 C 0.98463 0.70741 0.49721 0.0
C39 C 1.00624 0.68095 0.48503 0.0
C40 C 0.99018 0.64718 0.47337 0.0
C41 C 0.95214 0.63859 0.47543 0.0
N42 N 1.01271 0.62284 0.45852 0.0
C43 C 1.00499 0.60952 0.42676 0.0
H44 H 0.92877 0.8712 0.8478 0.0
H45 H 0.85272 0.88545 0.93157 0.0
H46 H 0.86736 0.96857 0.83895 0.0
C47 C 0.90868 0.88727 0.85846 0.0
C48 C 0.89975 0.92112 0.83848 0.0
C49 C 0.89224 0.87407 0.89226 0.0
C50 C 0.86577 0.89515 0.90586 0.0
C51 C 0.85656 0.92904 0.88615 0.0
C52 C 0.87397 0.94178 0.85312 0.0
N53 N 0.83117 0.95257 0.89844 0.0
C54 C 0.80517 0.94354 0.92625 0.0
H55 H 0.67916 0.13708 0.41636 0.0
H56 H 0.66012 0.16481 0.52077 0.0
H57 H 0.58588 0.19362 0.44033 0.0
C58 C 0.66288 0.14936 0.4351 0.0
C59 C 0.6312 0.16504 0.42423 0.0
C60 C 0.67368 0.14913 0.46978 0.0
C61 C 0.65237 0.16499 0.49378 0.0
C62 C 0.6212 0.18161 0.48313 0.0
C63 C 0.61041 0.18145 0.44837 0.0
N64 N 0.60063 0.19743 0.5082 0.0
C65 C 0.58949 0.23393 0.50158 0.0
H66 H 0.31952 0.75793 0.17124 0.0
H67 H 0.30184 0.63877 0.21565 0.0
H68 H 0.39147 0.71231 0.24803 0.0
C69 C 0.32702 0.73439 0.18958 0.0
C70 C 0.35806 0.73988 0.20946 0.0
C71 C 0.3066 0.69809 0.19163 0.0
C72 C 0.31735 0.66702 0.21382 0.0
C73 C 0.34737 0.67204 0.23456 0.0
C74 C 0.3678 0.70853 0.23244 0.0
N75 N 0.35668 0.63929 0.25635 0.0
C76 C 0.37661 0.64071 0.28622 0.0
H77 H 0.14091 0.38694 0.61196 0.0
H78 H 0.11359 0.48681 0.65664 0.0
H79 H 0.0288 0.40214 0.63139 0.0
C80 C 0.1207 0.40393 0.62114 0.0
C81 C 0.0837 0.3904 0.6203 0.0
C82 C 0.13186 0.43886 0.63384 0.0
C83 C 0.10533 0.46029 0.64596 0.0
C84 C 0.0681 0.44703 0.64508 0.0
C85 C 0.05744 0.41269 0.63131 0.0
N86 N 0.04104 0.46655 0.6598 0.0
C87 C 0.04649 0.48326 0.69036 0.0
Co88 Co 0.02334 0.0567 0.52587 0.0
C89 C 0.05157 0.98508 0.52591 0.0
Co90 Co 0.07721 0.05273 0.54803 0.0
C91 C 0.94816 0.07039 0.51444 0.0
C92 C 0.97043 0.03786 0.47719 0.0
N93 N 0.97862 0.05517 0.50574 0.0
N94 N 0.92131 0.06329 0.49224 0.0
C95 C 0.93536 0.04261 0.46895 0.0
H96 H 0.94606 0.08696 0.53616 0.0
H97 H 0.98891 0.02283 0.46307 0.0
C98 C 0.0481 0.1239 0.54893 0.0
N99 N 0.12282 0.05511 0.56673 0.0
C100 C 0.14027 0.02768 0.58481 0.0
C101 C 0.14677 0.08736 0.56326 0.0
N102 N 0.17385 0.04198 0.59309 0.0
C103 C 0.1779 0.07947 0.57957 0.0
C104 C 0.08121 0.0801 0.47627 0.0
O105 O 0.02091 0.10855 0.53437 0.0
O106 O 0.07412 0.10424 0.55673 0.0
O107 O 0.09987 0.07151 0.50271 0.0
O108 O 0.04669 0.07532 0.48026 0.0
O109 O 0.07949 1.00069 0.53932 0.0
H110 H 0.14239 0.11476 0.54881 0.0
H111 H 0.12882 0.99785 0.5914 0.0
O112 O 0.02573 1.00499 0.51803 0.0
O113 O 1.00056 0.03801 0.5715 0.0
O114 O 0.05432 0.03413 0.59341 0.0
C115 C 0.01975 0.02952 0.59776 0.0
H116 H 0.92131 0.03134 0.44752 0.0
H117 H 0.20233 0.09937 0.58004 0.0
Co118 Co 0.51795 0.04584 0.0515 0.0
C119 C 0.50541 0.98762 0.10927 0.0
Co120 Co 0.54849 0.05661 0.09849 0.0
C121 C 0.5016 0.02525 0.98244 0.0
C122 C 0.45356 0.0273 1.01424 0.0
N123 N 0.49016 0.03386 1.01398 0.0
N124 N 0.47368 0.0131 0.96322 0.0
C125 C 0.44338 0.01473 0.98317 0.0
H126 H 0.52998 0.02608 0.97442 0.0
H127 H 0.43535 0.02995 0.03617 0.0
C128 C 0.56025 0.11528 0.04089 0.0
N129 N 0.57667 0.06867 0.13558 0.0
C130 C 0.56682 0.07408 0.16866 0.0
C131 C 0.61311 0.07758 0.13304 0.0
N132 N 0.59581 0.08584 0.18676 0.0
C133 C 0.62491 0.08794 0.16432 0.0
C134 C 0.58572 0.01835 0.05074 0.0
O135 O 0.53855 0.0932 0.02533 0.0
O136 O 0.56763 0.10468 0.07249 0.0
O137 O 0.58768 0.0321 0.07977 0.0
O138 O 0.55686 0.02065 0.03398 0.0
O139 O 0.52876 0.00852 0.12428 0.0
H140 H 0.63004 0.07798 0.10949 0.0
H141 H 0.53894 0.07007 0.17904 0.0
O142 O 0.49756 0.99881 0.07792 0.0
O143 O 0.47931 0.07123 0.0697 0.0
O144 O 0.50907 0.08068 0.11676 0.0
C145 C 0.48064 0.08378 0.09936 0.0
H146 H 0.41575 1.00667 0.97624 0.0
H147 H 0.65267 0.0979 0.16957 0.0
Co148 Co 0.55624 0.57204 0.55643 0.0
C149 C 0.49679 0.58226 0.5137 0.0
Co150 Co 0.50307 0.54268 0.57871 0.0
C151 C 0.63378 0.59231 0.53687 0.0
C152 C 0.60074 0.63696 0.52033 0.0
N153 N 0.59891 0.60048 0.53668 0.0
N154 N 0.65717 0.62257 0.52162 0.0
C155 C 0.63636 0.65057 0.51112 0.0
H156 H 0.64195 0.56531 0.54903 0.0
H157 H 0.57764 0.65301 0.51606 0.0
C158 C 0.56197 0.53211 0.62155 0.0
N159 N 0.46046 0.51462 0.59864 0.0
C160 C 0.42615 0.52431 0.59964 0.0
C161 C 0.45808 0.47875 0.61641 0.0
N162 N 0.40264 0.49595 0.61769 0.0
C163 C 0.4227 0.46728 0.62821 0.0
C164 C 0.54268 0.49906 0.53845 0.0
O165 O 0.58078 0.55389 0.59701 0.0
O166 O 0.52813 0.5239 0.61822 0.0
O167 O 0.51326 0.50009 0.5561 0.0
O168 O 0.5668 0.52819 0.53501 0.0
O169 O 0.47843 0.56167 0.53917 0.0
H170 H 0.48068 0.4619 0.62044 0.0
H171 H 0.41867 0.55173 0.58772 0.0
O172 O 0.53098 0.58987 0.51586 0.0
O173 O 0.5453 0.61534 0.57848 0.0
O174 O 0.49315 0.58544 0.60121 0.0
C175 C 0.51645 0.61517 0.59742 0.0
H176 H 0.64624 0.67903 0.4979 0.0
H177 H 0.41238 0.43962 0.6428 0.0
Co178 Co 0.04022 0.58176 1.02413 0.0
C179 C 0.97122 0.54139 0.0286 0.0
Co180 Co 1.00964 0.58424 0.07397 0.0
C181 C 0.05897 0.55755 0.95697 0.0
C182 C 0.09156 0.60908 0.96613 0.0
N183 N 0.06558 0.58155 0.98145 0.0
N184 N 0.07937 0.5693 0.92692 0.0
C185 C 0.10014 0.60157 0.93279 0.0
H186 H 0.0387 0.53261 0.96065 0.0
H187 H 0.10222 0.63429 0.97761 0.0
C188 C 0.07895 0.62353 0.07032 0.0
N189 N 0.98427 0.5853 0.11604 0.0
C190 C 0.99726 0.58209 0.14857 0.0
C191 C 0.94889 0.59 0.12083 0.0
N192 N 0.97144 0.58469 0.17356 0.0
C193 C 0.94091 0.58959 0.15613 0.0
C194 C 0.05158 0.52202 0.07571 0.0
O195 O 0.08052 0.61162 0.04052 0.0
O196 O 0.04964 0.61567 0.08921 0.0
O197 O 0.03026 0.53881 0.0938 0.0
O198 O 0.05939 0.53582 0.04371 0.0
O199 O 0.96986 0.55256 0.05873 0.0
H200 H 0.93022 0.59389 0.09993 0.0
H201 H 0.02518 0.57778 0.15372 0.0
O202 O 0.99963 0.55151 1.00874 0.0
O203 O 0.02082 0.6277 1.00471 0.0
O204 O 0.98931 0.62969 0.05354 0.0
C205 C 0.99834 0.64393 1.0219 0.0
H206 H 0.11857 0.61987 0.91364 0.0
H207 H 0.91487 0.59359 0.16788 0.0
H208 H 0.14048 0.19871 0.26312 0.0
H209 H 0.23896 0.1554 0.30033 0.0
H210 H 0.10879 0.17167 0.31881 0.0
H211 H 0.20672 0.12586 0.35445 0.0
H212 H 0.15251 0.10931 0.46305 0.0
H213 H 0.18293 0.13805 0.40747 0.0
H214 H 0.08271 0.11614 0.35489 0.0
H215 H 0.05187 0.089 0.41119 0.0
C216 C 0.15547 0.18336 0.28299 0.0
C217 C 0.19252 0.17943 0.27672 0.0
C218 C 0.13703 0.16723 0.31494 0.0
C219 C 0.15494 0.14637 0.34162 0.0
C220 C 0.19186 0.14217 0.33513 0.0
C221 C 0.21035 0.15865 0.30348 0.0
C222 C 0.13692 0.11052 0.43963 0.0
C223 C 0.0997 0.09665 0.4417 0.0
C224 C 0.1545 0.12687 0.40749 0.0
C225 C 0.13561 0.12939 0.37614 0.0
C226 C 0.09828 0.11538 0.37827 0.0
C227 C 0.08054 0.09946 0.41062 0.0
H228 H 0.45481 0.87088 0.79415 0.0
H229 H 0.50742 0.98138 0.7453 0.0
H230 H 0.45692 0.89408 0.85134 0.0
H231 H 0.50796 1.00516 0.8021 0.0
H232 H 0.52956 0.02738 0.91389 0.0
H233 H 0.53381 1.00027 0.85881 0.0
H234 H 0.42651 0.93832 0.88138 0.0
H235 H 0.42299 0.96379 0.93703 0.0
C236 C 0.46716 0.89998 0.79564 0.0
C237 C 0.48073 0.92434 0.7651 0.0
C238 C 0.46793 0.91347 0.82837 0.0
C239 C 0.48226 0.95165 0.83132 0.0
C240 C 0.49694 0.97554 0.80091 0.0
C241 C 0.49625 0.96203 0.76824 0.0
C242 C 0.50703 0.00767 0.90733 0.0
C243 C 0.4759 0.99794 0.93006 0.0
C244 C 0.50933 0.99238 0.87553 0.0
C245 C 0.48053 0.96703 0.86563 0.0
C246 C 0.44945 0.95729 0.88835 0.0
C247 C 0.44719 0.97247 0.92013 0.0
H248 H 0.58869 0.4772 0.84225 0.0
H249 H 0.69595 0.46838 0.79918 0.0
H250 H 0.5668 0.48879 0.7829 0.0
H251 H 0.67419 0.47926 0.73952 0.0
H252 H 0.63028 0.55273 0.64364 0.0
H253 H 0.65407 0.53298 0.70093 0.0
H254 H 0.5543 0.45834 0.73077 0.0
H255 H 0.53031 0.47856 0.67413 0.0
C256 C 0.6073 0.47705 0.81991 0.0
C257 C 0.64374 0.47176 0.82482 0.0
C258 C 0.59487 0.48356 0.78598 0.0
C259 C 0.61879 0.48495 0.75645 0.0
C260 C 0.65522 0.47876 0.76168 0.0
C261 C 0.6676 0.47222 0.79568 0.0
C262 C 0.61363 0.53182 0.66233 0.0
C263 C 0.57829 0.51757 0.65451 0.0
C264 C 0.62729 0.52036 0.69508 0.0
C265 C 0.60589 0.49437 0.72053 0.0
C266 C 0.57117 0.47898 0.71203 0.0
C267 C 0.55751 0.49048 0.67947 0.0
H268 H 0.94644 0.62327 0.38976 0.0
H269 H 0.04863 0.57559 0.38581 0.0
H270 H 0.93757 0.6138 0.32843 0.0
H271 H 0.03975 0.56527 0.32462 0.0
H272 H 0.03354 0.6044 0.20589 0.0
H273 H 0.04052 0.60598 0.26844 0.0
H274 H 0.92641 0.56546 0.28867 0.0
H275 H 0.91941 0.56385 0.22596 0.0
C276 C 0.96662 0.61008 0.37577 0.0
C277 C 0.99806 0.59994 0.39209 0.0
C278 C 0.96156 0.60454 0.34078 0.0
C279 C 0.98802 0.58889 0.32156 0.0
C280 C 0.0191 0.57784 0.33852 0.0
C281 C 0.02409 0.58341 0.37352 0.0
C282 C 1.01003 0.59527 0.22365 0.0
C283 C 0.97587 0.5841 0.2108 0.0
C284 C 1.01404 0.59615 0.25958 0.0
C285 C 0.98401 0.58586 0.28359 0.0
C286 C 0.94998 0.57409 0.27083 0.0
C287 C 0.94596 0.57321 0.23487 0.0
H288 H 0.31222 0.15537 0.23546 0.0
H289 H 0.28394 0.19476 0.12986 0.0
H290 H 0.36383 0.12743 0.21196 0.0
H291 H 0.33643 0.16885 0.10651 0.0
H292 H 0.41341 0.08728 0.07214 0.0
H293 H 0.36066 0.11198 0.0967 0.0
H294 H 0.42286 0.14332 0.18409 0.0
H295 H 0.47537 0.11733 0.15998 0.0
C296 C 0.31683 0.15799 0.20724 0.0
C297 C 0.29371 0.17756 0.18469 0.0
C298 C 0.34687 0.1424 0.1937 0.0
C299 C 0.35474 0.14589 0.15719 0.0
C300 C 0.33129 0.16504 0.13471 0.0
C301 C 0.30127 0.18046 0.14821 0.0
C302 C 0.41594 0.09952 0.09656 0.0
C303 C 0.44883 0.10036 0.11394 0.0
C304 C 0.3856 0.11393 0.11065 0.0
C305 C 0.38719 0.12991 0.14249 0.0
C306 C 0.4202 0.1308 0.15984 0.0
C307 C 0.45053 0.11617 0.14581 0.0
H308 H 0.37103 0.94722 0.58516 0.0
H309 H 0.37067 0.97704 0.69059 0.0
H310 H 0.30778 0.96052 0.58042 0.0
H311 H 0.30705 0.98982 0.68641 0.0
H312 H 0.22317 0.06865 0.63649 0.0
H313 H 0.27853 0.04102 0.65302 0.0
H314 H 0.24409 0.94155 0.60167 0.0
H315 H 0.18876 0.97001 0.58447 0.0
C316 C 0.35704 0.95615 0.60744 0.0
C317 C 0.37529 0.96162 0.63804 0.0
C318 C 0.32081 0.96336 0.60494 0.0
C319 C 0.30238 0.97621 0.63306 0.0
C320 C 0.3206 0.98029 0.66421 0.0
C321 C 0.35686 0.97302 0.66665 0.0
C322 C 0.22718 0.04056 0.62933 0.0
C323 C 0.20205 0.02167 0.60885 0.0
C324 C 0.25873 0.02454 0.63903 0.0
C325 C 0.26589 0.98926 0.62832 0.0
C326 C 0.2395 0.96904 0.60988 0.0
C327 C 0.20771 0.98506 0.60036 0.0
H328 H 0.79985 0.46128 0.90202 0.0
H329 H 0.76739 0.39788 1.00397 0.0
H330 H 0.85716 0.48597 0.92457 0.0
H331 H 0.82559 0.42149 0.02641 0.0
H332 H 0.90453 0.51976 0.06215 0.0
H333 H 0.85183 0.48362 0.04063 0.0
H334 H 0.91472 0.47157 0.9467 0.0
H335 H 0.96718 0.50862 0.96779 0.0
C336 C 0.80529 0.45212 0.92916 0.0
C337 C 0.77898 0.42804 0.95135 0.0
C338 C 0.83831 0.46597 0.94202 0.0
C339 C 0.84588 0.45597 0.9774 0.0
C340 C 0.82034 0.4302 0.99916 0.0
C341 C 0.78721 0.41631 0.98623 0.0
C342 C 0.90719 0.50919 0.03701 0.0
C343 C 0.93993 0.51741 1.01653 0.0
C344 C 0.87705 0.48815 1.0248 0.0
C345 C 0.87901 0.47474 0.9919 0.0
C346 C 0.91214 0.48194 0.97194 0.0
C347 C 0.94224 0.50311 0.98408 0.0
H348 H 0.87996 0.7111 0.46495 0.0
H349 H 0.8896 0.59715 0.51779 0.0
H350 H 0.81401 0.6988 0.47248 0.0
H351 H 0.82335 0.585 0.5265 0.0
H352 H 0.69948 0.56683 0.50967 0.0
H353 H 0.76584 0.57473 0.49995 0.0
H354 H 0.76921 0.69384 0.51828 0.0
H355 H 0.70344 0.68601 0.52683 0.0
C356 C 0.86787 0.68343 0.47833 0.0
C357 C 0.88988 0.65522 0.49107 0.0
C358 C 0.83005 0.67638 0.48286 0.0
C359 C 0.81321 0.6411 0.50068 0.0
C360 C 0.83527 0.61239 0.51248 0.0
C361 C 0.87322 0.61934 0.50757 0.0
C362 C 0.71463 0.59452 0.51179 0.0
C363 C 0.69631 0.62593 0.51852 0.0
C364 C 0.7526 0.59912 0.50626 0.0
C365 C 0.77297 0.63515 0.50773 0.0
C366 C 0.7545 0.66602 0.5158 0.0
C367 C 0.71673 0.66152 0.52089 0.0
H368 H 0.14667 0.30451 0.12074 0.0
H369 H 0.17302 0.36602 0.20837 0.0
H370 H 0.1096 0.35465 0.0977 0.0
H371 H 0.13629 0.41665 0.18534 0.0
H372 H 0.04702 0.4897 0.14496 0.0
H373 H 0.07557 0.43432 0.17165 0.0
H374 H 0.12226 0.42105 0.07004 0.0
H375 H 0.09353 0.47599 0.04337 0.0
C376 C 0.14374 0.32839 0.13549 0.0
C377 C 0.16218 0.33123 0.16653 0.0
C378 C 0.12291 0.3574 0.1221 0.0
C379 C 0.12015 0.39005 0.13941 0.0
C380 C 0.13745 0.39186 0.17142 0.0
C381 C 0.15843 0.36285 0.18471 0.0
C382 C 0.06319 0.47482 0.12826 0.0
C383 C 0.06791 0.48743 0.09194 0.0
C384 C 0.07974 0.44314 0.14363 0.0
C385 C 0.10123 0.42299 0.12308 0.0
C386 C 0.10551 0.43537 0.0867 0.0
C387 C 0.08919 0.46715 0.07138 0.0
H388 H 0.7066 0.30219 0.92653 0.0
H389 H 0.62149 0.35879 0.97044 0.0
H390 H 0.67333 0.23903 0.94921 0.0
H391 H 0.5888 0.29585 0.99373 0.0
H392 H 0.58406 0.17844 0.07128 0.0
H393 H 0.61269 0.24092 0.0425 0.0
H394 H 0.60385 0.20006 0.94153 0.0
H395 H 0.57403 0.13747 0.97026 0.0
C396 C 0.68068 0.30103 0.94077 0.0
C397 C 0.6665 0.33521 0.94673 0.0
C398 C 0.66165 0.26506 0.95354 0.0
C399 C 0.62861 0.26281 0.97313 0.0
C400 C 0.61423 0.29696 0.97865 0.0
C401 C 0.63282 0.33284 0.96526 0.0
C402 C 0.58803 0.1828 0.04292 0.0
C403 C 0.57679 0.15315 1.02297 0.0
C404 C 0.60427 0.21855 0.02651 0.0
C405 C 0.61036 0.22512 0.9899 0.0
C406 C 0.5994 0.19551 0.96983 0.0
C407 C 0.58228 0.15991 0.98622 0.0
H408 H 0.96419 0.74613 0.55088 0.0
H409 H 0.04286 0.75481 0.46371 0.0
H410 H 0.985 0.81236 0.5596 0.0
H411 H 0.06448 0.82067 0.47359 0.0
H412 H 0.10289 0.93341 0.5292 0.0
H413 H 0.09191 0.86363 0.52538 0.0
H414 H 0.97798 0.87361 0.51191 0.0
H415 H 0.98863 0.94236 0.51483 0.0
C416 C 0.98618 0.76191 0.53384 0.0
C417 C 1.00134 0.74528 0.50616 0.0
C418 C 0.99827 0.79969 0.53906 0.0
C419 C 0.02616 0.82152 0.51712 0.0
C420 C 0.04312 0.80424 0.49101 0.0
C421 C 0.03071 0.7665 0.48544 0.0
C422 C 0.07562 0.92061 0.52519 0.0
C423 C 0.04669 0.94344 0.52223 0.0
C424 C 0.06938 0.88084 0.52304 0.0
C425 C 0.03403 0.8634 0.51879 0.0
C426 C 1.00537 0.8863 0.51566 0.0
C427 C 1.01163 0.92579 0.51709 0.0
H428 H 0.53464 0.82086 0.7051 0.0
H429 H 0.42864 0.81302 0.66125 0.0
H430 H 0.54417 0.75817 0.68689 0.0
H431 H 0.43816 0.75095 0.64277 0.0
H432 H 0.4559 0.62671 0.63566 0.0
H433 H 0.44596 0.68314 0.66421 0.0
H434 H 0.55361 0.73644 0.6281 0.0
H435 H 0.56374 0.68004 0.5998 0.0
C436 C 0.5132 0.80539 0.69213 0.0
C437 C 0.48106 0.82177 0.68431 0.0
C438 C 0.51873 0.76977 0.68146 0.0
C439 C 0.492 0.7498 0.66319 0.0
C440 C 0.45915 0.76545 0.657 0.0
C441 C 0.4538 0.80109 0.66734 0.0
C442 C 0.4775 0.65039 0.63393 0.0
C443 C 0.5105 0.64901 0.61524 0.0
C444 C 0.47179 0.6827 0.65027 0.0
C445 C 0.49903 0.71417 0.64844 0.0
C446 C 0.53229 0.71243 0.63038 0.0
C447 C 0.53794 0.68025 0.61387 0.0
H448 H 0.97031 0.91729 0.81411 0.0
H449 H 0.86931 0.95768 0.78078 0.0
H450 H 0.99849 0.94134 0.7563 0.0
H451 H 0.8982 0.98446 0.72419 0.0
H452 H 0.94849 1.0003 0.61345 0.0
H453 H 0.92008 0.9723 0.67032 0.0
H454 H 0.02243 0.99603 0.71892 0.0
H455 H 0.05107 0.02218 0.66164 0.0
C456 C 0.95397 0.93123 0.79457 0.0
C457 C 0.91734 0.93544 0.80262 0.0
C458 C 0.97042 0.94573 0.76135 0.0
C459 C 0.95094 0.9653 0.73512 0.0
C460 C 0.91425 0.96925 0.74317 0.0
C461 C 0.89771 0.95434 0.77615 0.0
C462 C 0.96492 0.99956 0.6363 0.0
C463 C 1.0021 0.01358 0.63285 0.0
C464 C 0.94854 0.98363 0.66915 0.0
C465 C 0.96869 0.98174 0.69976 0.0
C466 C 1.00592 0.99611 0.69618 0.0
C467 C 0.0224 0.01151 0.66323 0.0
H468 H 0.56584 0.13411 0.40286 0.0
H469 H 0.67202 0.18887 0.36393 0.0
H470 H 0.55325 0.11642 0.34426 0.0
H471 H 0.65949 0.17171 0.30564 0.0
H472 H 0.6507 0.08168 0.23096 0.0
H473 H 0.65508 0.1062 0.28711 0.0
H474 H 0.54654 0.13945 0.2789 0.0
H475 H 0.54225 0.11505 0.22187 0.0
C476 C 0.58596 0.14337 0.38151 0.0
C477 C 0.62005 0.16241 0.38787 0.0
C478 C 0.57883 0.13318 0.34806 0.0
C479 C 0.60573 0.14193 0.32063 0.0
C480 C 0.63859 0.16375 0.3265 0.0
C481 C 0.6457 0.17379 0.35975 0.0
C482 C 0.62779 0.09439 0.24091 0.0
C483 C 0.59637 0.09693 0.22164 0.0
C484 C 0.63032 0.10853 0.27309 0.0
C485 C 0.60145 0.12554 0.28704 0.0
C486 C 0.56927 0.12664 0.26867 0.0
C487 C 0.56677 0.11252 0.23615 0.0
H488 H 0.42836 0.69011 0.31085 0.0
H489 H 0.36345 0.5798 0.33538 0.0
H490 H 0.45724 0.6798 0.36753 0.0
H491 H 0.39236 0.5689 0.39135 0.0
H492 H 0.42417 0.57411 0.50219 0.0
H493 H 0.39473 0.59217 0.4478 0.0
H494 H 0.49913 0.6383 0.39727 0.0
H495 H 0.5286 0.62101 0.45204 0.0
C496 C 0.42041 0.66372 0.32848 0.0
C497 C 0.39387 0.63569 0.31924 0.0
C498 C 0.43692 0.6577 0.36073 0.0
C499 C 0.42693 0.62361 0.38406 0.0
C500 C 0.40021 0.59576 0.37438 0.0
C501 C 0.38384 0.60181 0.34229 0.0
C502 C 0.44086 0.58837 0.47958 0.0
C503 C 0.47878 0.59578 0.48135 0.0
C504 C 0.42399 0.59857 0.44834 0.0
C505 C 0.44463 0.61628 0.41806 0.0
C506 C 0.48242 0.62494 0.42017 0.0
C507 C 0.49933 0.61482 0.4515 0.0
H508 H 0.10617 0.47874 0.7279 0.0
H509 H 0.9998 0.51772 0.72763 0.0
H510 H 0.11502 0.49808 0.78637 0.0
H511 H 1.00858 0.53783 0.78584 0.0
H512 H 0.01956 0.52979 0.90386 0.0
H513 H 1.01254 0.50853 0.84634 0.0
H514 H 0.12359 0.55532 0.81624 0.0
H515 H 0.13104 0.57534 0.87432 0.0
C516 C 0.08492 0.49192 0.74036 0.0
C517 C 0.05245 0.49708 0.72363 0.0
C518 C 0.08994 0.50304 0.7737 0.0
C519 C 0.06244 0.51937 0.79084 0.0
C520 C 0.03005 0.52482 0.7736 0.0
C521 C 0.02511 0.5137 0.74025 0.0
C522 C 0.04271 0.53495 0.88527 0.0
C523 C 0.0759 0.55433 0.89376 0.0
C524 C 0.03851 0.52324 0.85207 0.0
C525 C 0.06739 0.53056 0.82657 0.0
C526 C 0.10085 0.54907 0.83532 0.0
C527 C 0.10503 0.56084 0.86852 0.0
H528 H 0.80418 0.98776 0.97846 0.0
H529 H 0.73718 0.90567 0.92719 0.0
H530 H 0.75066 1.00196 1.01111 0.0
H531 H 0.68336 0.91876 0.96052 0.0
H532 H 0.59241 0.9919 0.98689 0.0
H533 H 0.64527 0.96875 0.96078 0.0
H534 H 0.70339 0.98265 0.05491 0.0
H535 H 0.65076 1.00694 0.08058 0.0
C536 C 0.77804 0.9718 0.97511 0.0
C537 C 0.77481 0.94523 0.95077 0.0
C538 C 0.74722 0.97994 0.9938 0.0
C539 C 0.7123 0.96178 0.98847 0.0
C540 C 0.70954 0.93387 0.96503 0.0
C541 C 0.74043 0.92585 0.94627 0.0
C542 C 0.61636 0.98979 1.00217 0.0
C543 C 0.61723 1.00152 0.03586 0.0
C544 C 0.64674 0.97618 0.98724 0.0
C545 C 0.67895 0.97371 1.00557 0.0
C546 C 0.67944 0.9846 0.03964 0.0
C547 C 0.64908 0.99836 0.05453 0.0
H548 H 0.69657 0.08191 0.45434 0.0
H549 H 0.72764 0.18004 0.50852 0.0
H550 H 0.7561 0.05999 0.46365 0.0
H551 H 0.78736 0.15775 0.51813 0.0
H552 H 0.88271 0.08322 0.54748 0.0
H553 H 0.82098 0.10222 0.54704 0.0
H554 H 0.81705 0.0901 0.43677 0.0
H555 H 0.87832 0.07223 0.43682 0.0
C556 C 0.71605 0.09862 0.46849 0.0
C557 C 0.7077 0.13303 0.48017 0.0
C558 C 0.75007 0.08605 0.47386 0.0
C559 C 0.77647 0.10752 0.49113 0.0
C560 C 0.76743 0.14063 0.50482 0.0
C561 C 0.73329 0.15333 0.49933 0.0
C562 C 0.86878 0.08495 0.52311 0.0
C563 C 0.88543 0.07565 0.4923 0.0
C564 C 0.83344 0.09569 0.52292 0.0
C565 C 0.81408 0.09696 0.49202 0.0
C566 C 0.83098 0.0884 0.4612 0.0
C567 C 0.86618 0.07805 0.46129 0.0
H568 H 0.24988 0.74163 0.18479 0.0
H569 H 0.2904 0.64127 0.15069 0.0
H570 H 0.19476 0.72952 0.15229 0.0
H571 H 0.23549 0.62909 0.11844 0.0
H572 H 0.14773 0.6359 0.04011 0.0
H573 H 0.20356 0.65888 0.06669 0.0
H574 H 0.14116 0.67671 0.15894 0.0
H575 H 0.08514 0.65368 0.13247 0.0
C576 C 0.24713 0.71727 0.17004 0.0
C577 C 0.27426 0.69227 0.17034 0.0
C578 C 0.21557 0.71022 0.15166 0.0
C579 C 0.2109 0.67841 0.13283 0.0
C580 C 0.23851 0.65406 0.13242 0.0
C581 C 0.26977 0.66081 0.15111 0.0
C582 C 0.14579 0.64528 0.06584 0.0
C583 C 0.11199 0.64267 0.08429 0.0
C584 C 0.17781 0.65825 0.08109 0.0
C585 C 0.1767 0.66924 0.11498 0.0
C586 C 0.14279 0.66863 0.13269 0.0
C587 C 0.11074 0.65531 0.11756 0.0
H588 H 0.16798 0.51131 0.61441 0.0
H589 H 0.18475 0.39529 0.65698 0.0
H590 H 0.23371 0.5307 0.61373 0.0
H591 H 0.24993 0.41408 0.65525 0.0
H592 H 0.36235 0.46103 0.67488 0.0
H593 H 0.29627 0.45211 0.68232 0.0
H594 H 0.28886 0.51912 0.58099 0.0
H595 H 0.35533 0.52854 0.57395 0.0
C596 C 0.18567 0.49009 0.62387 0.0
C597 C 0.17127 0.45172 0.63548 0.0
C598 C 0.22327 0.50107 0.62319 0.0
C599 C 0.2471 0.47396 0.63441 0.0
C600 C 0.23243 0.43588 0.64684 0.0
C601 C 0.19504 0.42495 0.64744 0.0
C602 C 0.34659 0.47406 0.65432 0.0
C603 C 0.36393 0.49496 0.62361 0.0
C604 C 0.30874 0.46894 0.65854 0.0
C605 C 0.28723 0.48434 0.63199 0.0
C606 C 0.30461 0.50705 0.60204 0.0
C607 C 0.34265 0.51242 0.59794 0.0
H608 H 0.90582 0.86219 0.96274 0.0
H609 H 0.90513 0.80583 0.86925 0.0
H610 H 0.93034 0.80701 0.99511 0.0
H611 H 0.92938 0.75087 0.90142 0.0
H612 H 1.01267 0.68075 0.95498 0.0
H613 H 0.98545 0.73515 0.92552 0.0
H614 H 0.91923 0.73917 1.01934 0.0
H615 H 0.94714 0.68481 0.04921 0.0
C616 C 0.91036 0.83782 0.94919 0.0
C617 C 0.90381 0.83882 0.91319 0.0
C618 C 0.9245 0.80611 0.96778 0.0
C619 C 0.93245 0.77449 0.95088 0.0
C620 C 0.92459 0.77498 0.91522 0.0
C621 C 0.91054 0.80658 0.8967 0.0
C622 C 0.99238 0.6932 0.96949 0.0
C623 C 0.98216 0.67818 1.00456 0.0
C624 C 0.97648 0.72435 0.95242 0.0
C625 C 0.94975 0.74158 0.9698 0.0
C626 C 0.93986 0.72694 1.0051 0.0
C627 C 0.9558 0.69562 1.02223 0.0
H628 H 0.43265 0.7533 0.20436 0.0
H629 H 0.33606 0.81211 0.20169 0.0
H630 H 0.46986 0.81479 0.18533 0.0
H631 H 0.37322 0.87313 0.18181 0.0
H632 H 0.44271 0.94934 0.09102 0.0
H633 H 0.40847 0.89121 0.12175 0.0
H634 H 0.48838 0.88574 0.20102 0.0
H635 H 0.52292 0.94493 0.17028 0.0
C636 C 0.41942 0.77939 0.20058 0.0
C637 C 0.38128 0.77768 0.20399 0.0
C638 C 0.44077 0.81456 0.18961 0.0
C639 C 0.42431 0.84851 0.18164 0.0
C640 C 0.3865 0.84721 0.18726 0.0
C641 C 0.36525 0.81225 0.1985 0.0
C642 C 0.45315 0.93587 0.11498 0.0
C643 C 0.48561 0.95171 0.12818 0.0
C644 C 0.43332 0.90273 0.13272 0.0
C645 C 0.44561 0.88424 0.1639 0.0
C646 C 0.47833 0.89958 0.17703 0.0
C647 C 0.498 0.93336 0.1595 0.0
H648 H 0.0366 0.36865 0.57068 0.0
H649 H 0.10703 0.32418 0.64941 0.0
H650 H 0.02487 0.30414 0.5522 0.0
H651 H 0.09465 0.2601 0.63207 0.0
H652 H 0.10831 0.16782 0.56521 0.0
H653 H 0.11321 0.23215 0.58175 0.0
H654 H 0.99812 0.2359 0.56872 0.0
H655 H 0.99335 0.17092 0.55085 0.0
C656 C 0.04908 0.34492 0.58428 0.0
C657 C 0.07323 0.35131 0.61095 0.0
C658 C 0.04232 0.30808 0.57385 0.0
C659 C 0.05943 0.27717 0.59019 0.0
C660 C 0.0819 0.28347 0.6182 0.0
C661 C 0.08891 0.3201 0.62826 0.0
C662 C 0.08394 0.1822 0.56574 0.0
C663 C 0.05034 0.16404 0.5571 0.0
C664 C 0.08673 0.21912 0.57547 0.0
C665 C 0.05591 0.23888 0.57732 0.0
C666 C 0.02235 0.22137 0.56758 0.0
C667 C 0.0196 0.18421 0.55747 0.0
H668 H 0.53498 0.25716 0.53782 0.0
H669 H 0.62318 0.29734 0.46147 0.0
H670 H 0.52285 0.32348 0.5406 0.0
H671 H 0.6107 0.36423 0.46329 0.0
H672 H 0.60759 0.4752 0.51906 0.0
H673 H 0.61735 0.41144 0.50412 0.0
H674 H 0.50107 0.37876 0.50963 0.0
H675 H 0.49152 0.44168 0.52569 0.0
C676 C 0.55117 0.28037 0.52102 0.0
C677 C 0.57972 0.2726 0.49929 0.0
C678 C 0.54422 0.31835 0.52244 0.0
C679 C 0.56576 0.3493 0.50207 0.0
C680 C 0.59383 0.34114 0.47953 0.0
C681 C 0.60079 0.30299 0.47822 0.0
C682 C 0.58417 0.45453 0.51652 0.0
C683 C 0.54885 0.46318 0.52406 0.0
C684 C 0.58971 0.41804 0.50782 0.0
C685 C 0.55999 0.38973 0.50621 0.0
C686 C 0.52461 0.39949 0.51152 0.0
C687 C 0.51913 0.43565 0.52056 0.0
loop_
_geom_bond_atom_site_label_1
_geom_bond_atom_site_label_2
_geom_bond_distance
_geom_bond_site_symmetry_2
_ccdc_geom_bond_type
H0 C3 0.929 . S
H1 C6 0.929 . S
H2 C8 0.930 . S
C3 H0 0.929 . S
C3 C4 1.398 . S
C3 C5 1.396 . S
C4 C3 1.398 . S
C4 C8 1.407 . S
C5 C3 1.396 . S
C5 C6 1.394 . S
C6 H1 0.929 . S
C6 C5 1.394 . S
C6 C7 1.382 . S
C7 C6 1.382 . S
C7 C8 1.392 . S
C7 N9 1.420 . S
C8 H2 0.930 . S
C8 C4 1.407 . S
C8 C7 1.392 . S
N9 C7 1.420 . S
N9 C10 1.244 . S
C10 N9 1.244 . S
H11 C14 0.929 . S
H12 C17 0.929 . S
H13 C19 0.930 . S
C14 H11 0.929 . S
C14 C15 1.398 . S
C14 C16 1.396 . S
C15 C14 1.398 . S
C15 C19 1.407 . S
C16 C14 1.396 . S
C16 C17 1.394 . S
C17 H12 0.929 . S
C17 C16 1.394 . S
C17 C18 1.382 . S
C18 C17 1.382 . S
C18 C19 1.392 . S
C18 N20 1.420 . S
C19 H13 0.930 . S
C19 C15 1.407 . S
C19 C18 1.392 . S
N20 C18 1.420 . S
N20 C21 1.244 . S
C21 N20 1.244 . S
H22 C25 0.929 . S
H23 C28 0.929 . S
H24 C30 0.930 . S
C25 H22 0.929 . S
C25 C26 1.398 . S
C25 C27 1.396 . S
C26 C25 1.398 . S
C26 C30 1.407 . S
C27 C25 1.396 . S
C27 C28 1.394 . S
C28 H23 0.929 . S
C28 C27 1.394 . S
C28 C29 1.382 . S
C29 C28 1.382 . S
C29 C30 1.392 . S
C29 N31 1.420 . S
C30 H24 0.930 . S
C30 C26 1.407 . S
C30 C29 1.392 . S
N31 C29 1.420 . S
N31 C32 1.244 . S
C32 N31 1.244 . S
H33 C36 0.929 . S
H34 C39 0.929 . S
H35 C41 0.930 . S
C36 H33 0.929 . S
C36 C37 1.398 . S
C36 C38 1.396 . S
C37 C36 1.398 . S
C37 C41 1.407 . S
C38 C36 1.396 . S
C38 C39 1.394 . S
C39 H34 0.929 . S
C39 C38 1.394 . S
C39 C40 1.382 . S
C40 C39 1.382 . S
C40 C41 1.392 . S
C40 N42 1.420 . S
C41 H35 0.930 . S
C41 C37 1.407 . S
C41 C40 1.392 . S
N42 C40 1.420 . S
N42 C43 1.244 . S
C43 N42 1.244 . S
H44 C47 0.929 . S
H45 C50 0.929 . S
H46 C52 0.930 . S
C47 H44 0.929 . S
C47 C48 1.398 . S
C47 C49 1.396 . S
C48 C47 1.398 . S
C48 C52 1.407 . S
C49 C47 1.396 . S
C49 C50 1.394 . S
C50 H45 0.929 . S
C50 C49 1.394 . S
C50 C51 1.382 . S
C51 C50 1.382 . S
C51 C52 1.392 . S
C51 N53 1.420 . S
C52 H46 0.930 . S
C52 C48 1.407 . S
C52 C51 1.392 . S
N53 C51 1.420 . S
N53 C54 1.244 . S
C54 N53 1.244 . S
H55 C58 0.929 . S
H56 C61 0.929 . S
H57 C63 0.930 . S
C58 H55 0.929 . S
C58 C59 1.398 . S
C58 C60 1.396 . S
C59 C58 1.398 . S
C59 C63 1.407 . S
C60 C58 1.396 . S
C60 C61 1.394 . S
C61 H56 0.929 . S
C61 C60 1.394 . S
C61 C62 1.382 . S
C62 C61 1.382 . S
C62 C63 1.392 . S
C62 N64 1.420 . S
C63 H57 0.930 . S
C63 C59 1.407 . S
C63 C62 1.392 . S
N64 C62 1.420 . S
N64 C65 1.244 . S
C65 N64 1.244 . S
H66 C69 0.929 . S
H67 C72 0.929 . S
H68 C74 0.930 . S
C69 H66 0.929 . S
C69 C70 1.398 . S
C69 C71 1.396 . S
C70 C69 1.398 . S
C70 C74 1.407 . S
C71 C69 1.396 . S
C71 C72 1.394 . S
C72 H67 0.929 . S
C72 C71 1.394 . S
C72 C73 1.382 . S
C73 C72 1.382 . S
C73 C74 1.392 . S
C73 N75 1.420 . S
C74 H68 0.930 . S
C74 C70 1.407 . S
C74 C73 1.392 . S
N75 C73 1.420 . S
N75 C76 1.244 . S
C76 N75 1.244 . S
H77 C80 0.929 . S
H78 C83 0.929 . S
H79 C85 0.930 . S
C80 H77 0.929 . S
C80 C81 1.398 . S
C80 C82 1.396 . S
C81 C80 1.398 . S
C81 C85 1.407 . S
C82 C80 1.396 . S
C82 C83 1.394 . S
C83 H78 0.929 . S
C83 C82 1.394 . S
C83 C84 1.382 . S
C84 C83 1.382 . S
C84 C85 1.392 . S
C84 N86 1.420 . S
C85 H79 0.930 . S
C85 C81 1.407 . S
C85 C84 1.392 . S
N86 C84 1.420 . S
N86 C87 1.244 . S
C87 N86 1.244 . S
Co88 N93 2.057 . S
Co88 O105 2.021 . S
Co88 O108 2.062 . S
Co88 O112 2.117 1_545 S
Co88 O113 2.020 . S
C89 O109 1.259 1_655 S
C89 O112 1.258 . S
Co90 N99 2.057 . S
Co90 O106 2.117 . S
Co90 O107 2.020 . S
Co90 O109 2.021 1_545 S
Co90 O114 2.062 . S
C91 N93 1.316 . S
C91 N94 1.347 . S
C91 H96 0.931 . S
C92 N93 1.375 . S
C92 C95 1.350 . S
C92 H97 0.930 1_545 S
N93 Co88 2.057 . S
N93 C91 1.316 . S
N93 C92 1.375 . S
N94 C91 1.347 . S
N94 C95 1.373 . S
C95 C92 1.350 . S
C95 N94 1.373 . S
C95 H116 0.931 . S
H96 C91 0.931 . S
H97 C92 0.930 1_565 S
C98 O105 1.259 1_455 S
C98 O106 1.258 . S
N99 Co90 2.057 . S
N99 C100 1.316 1_545 S
N99 C101 1.375 . S
C100 N99 1.316 1_565 S
C100 N102 1.347 1_565 S
C100 H111 0.931 . S
C101 N99 1.375 . S
C101 C103 1.350 . S
C101 H110 0.930 . S
N102 C100 1.347 1_545 S
N102 C103 1.373 . S
C103 C101 1.350 . S
C103 N102 1.373 . S
C103 H117 0.931 . S
C104 O107 1.256 . S
C104 O108 1.255 1_455 S
O105 Co88 2.021 . S
O105 C98 1.259 1_655 S
O106 Co90 2.117 . S
O106 C98 1.258 . S
O107 Co90 2.020 . S
O107 C104 1.256 . S
O108 Co88 2.062 . S
O108 C104 1.255 1_655 S
O109 C89 1.259 1_455 S
O109 Co90 2.021 1_565 S
H110 C101 0.930 . S
H111 C100 0.931 . S
O112 Co88 2.117 1_565 S
O112 C89 1.258 . S
O113 Co88 2.020 . S
O113 C115 1.256 . S
O114 Co90 2.062 . S
O114 C115 1.255 1_455 S
C115 O113 1.256 . S
C115 O114 1.255 1_655 S
H116 C95 0.931 . S
H117 C103 0.931 . S
Co118 N123 2.057 1_554 S
Co118 O135 2.021 1_554 S
Co118 O138 2.062 . S
Co118 O142 2.117 1_545 S
Co118 O143 2.020 . S
C119 O139 1.259 . S
C119 O142 1.258 . S
Co120 N129 2.057 . S
Co120 O136 2.117 . S
Co120 O137 2.020 . S
Co120 O139 2.021 1_545 S
Co120 O144 2.062 . S
C121 N123 1.316 . S
C121 N124 1.347 1_545 S
C121 H126 0.931 . S
C122 N123 1.375 1_565 S
C122 C125 1.350 . S
C122 H127 0.930 . S
N123 Co118 2.057 1_556 S
N123 C121 1.316 . S
N123 C122 1.375 1_545 S
N124 C121 1.347 1_565 S
N124 C125 1.373 . S
C125 C122 1.350 . S
C125 N124 1.373 . S
C125 H146 0.931 . S
H126 C121 0.931 . S
H127 C122 0.930 . S
C128 O135 1.259 1_554 S
C128 O136 1.258 . S
N129 Co120 2.057 . S
N129 C130 1.316 . S
N129 C131 1.375 . S
C130 N129 1.316 . S
C130 N132 1.347 . S
C130 H141 0.931 . S
C131 N129 1.375 . S
C131 C133 1.350 . S
C131 H140 0.930 . S
N132 C130 1.347 . S
N132 C133 1.373 . S
C133 C131 1.350 . S
C133 N132 1.373 . S
C133 H147 0.931 . S
C134 O137 1.256 . S
C134 O138 1.255 . S
O135 Co118 2.021 1_556 S
O135 C128 1.259 1_556 S
O136 Co120 2.117 . S
O136 C128 1.258 . S
O137 Co120 2.020 . S
O137 C134 1.256 . S
O138 Co118 2.062 . S
O138 C134 1.255 . S
O139 C119 1.259 . S
O139 Co120 2.021 1_565 S
H140 C131 0.930 . S
H141 C130 0.931 . S
O142 Co118 2.117 1_565 S
O142 C119 1.258 . S
O143 Co118 2.020 . S
O143 C145 1.256 . S
O144 Co120 2.062 . S
O144 C145 1.255 . S
C145 O143 1.256 . S
C145 O144 1.255 . S
H146 C125 0.931 . S
H147 C133 0.931 . S
Co148 N153 2.057 . S
Co148 O165 2.021 . S
Co148 O168 2.062 . S
Co148 O172 2.117 . S
Co148 O173 2.020 . S
C149 O169 1.259 . S
C149 O172 1.258 . S
Co150 N159 2.057 . S
Co150 O166 2.117 . S
Co150 O167 2.020 . S
Co150 O169 2.021 . S
Co150 O174 2.062 . S
C151 N153 1.316 . S
C151 N154 1.347 . S
C151 H156 0.931 . S
C152 N153 1.375 . S
C152 C155 1.350 . S
C152 H157 0.930 . S
N153 Co148 2.057 . S
N153 C151 1.316 . S
N153 C152 1.375 . S
N154 C151 1.347 . S
N154 C155 1.373 . S
C155 C152 1.350 . S
C155 N154 1.373 . S
C155 H176 0.931 . S
H156 C151 0.931 . S
H157 C152 0.930 . S
C158 O165 1.259 . S
C158 O166 1.258 . S
N159 Co150 2.057 . S
N159 C160 1.316 . S
N159 C161 1.375 . S
C160 N159 1.316 . S
C160 N162 1.347 . S
C160 H171 0.931 . S
C161 N159 1.375 . S
C161 C163 1.350 . S
C161 H170 0.930 . S
N162 C160 1.347 . S
N162 C163 1.373 . S
C163 C161 1.350 . S
C163 N162 1.373 . S
C163 H177 0.931 . S
C164 O167 1.256 . S
C164 O168 1.255 . S
O165 Co148 2.021 . S
O165 C158 1.259 . S
O166 Co150 2.117 . S
O166 C158 1.258 . S
O167 Co150 2.020 . S
O167 C164 1.256 . S
O168 Co148 2.062 . S
O168 C164 1.255 . S
O169 C149 1.259 . S
O169 Co150 2.021 . S
H170 C161 0.930 . S
H171 C160 0.931 . S
O172 Co148 2.117 . S
O172 C149 1.258 . S
O173 Co148 2.020 . S
O173 C175 1.256 . S
O174 Co150 2.062 . S
O174 C175 1.255 . S
C175 O173 1.256 . S
C175 O174 1.255 . S
H176 C155 0.931 . S
H177 C163 0.931 . S
Co178 N183 2.057 . S
Co178 O195 2.021 1_556 S
Co178 O198 2.062 1_556 S
Co178 O202 2.117 1_455 S
Co178 O203 2.020 . S
C179 O199 1.259 . S
C179 O202 1.258 1_554 S
Co180 N189 2.057 . S
Co180 O196 2.117 . S
Co180 O197 2.020 . S
Co180 O199 2.021 1_455 S
Co180 O204 2.062 . S
C181 N183 1.316 . S
C181 N184 1.347 . S
C181 H186 0.931 . S
C182 N183 1.375 . S
C182 C185 1.350 . S
C182 H187 0.930 1_455 S
N183 Co178 2.057 . S
N183 C181 1.316 . S
N183 C182 1.375 . S
N184 C181 1.347 . S
N184 C185 1.373 . S
C185 C182 1.350 . S
C185 N184 1.373 . S
C185 H206 0.931 . S
H186 C181 0.931 . S
H187 C182 0.930 1_655 S
C188 O195 1.259 . S
C188 O196 1.258 . S
N189 Co180 2.057 . S
N189 C190 1.316 1_455 S
N189 C191 1.375 . S
C190 N189 1.316 1_655 S
C190 N192 1.347 . S
C190 H201 0.931 . S
C191 N189 1.375 . S
C191 C193 1.350 . S
C191 H200 0.930 . S
N192 C190 1.347 . S
N192 C193 1.373 1_655 S
C193 C191 1.350 . S
C193 N192 1.373 1_455 S
C193 H207 0.931 . S
C194 O197 1.256 . S
C194 O198 1.255 . S
O195 Co178 2.021 1_554 S
O195 C188 1.259 . S
O196 Co180 2.117 . S
O196 C188 1.258 . S
O197 Co180 2.020 . S
O197 C194 1.256 . S
O198 Co178 2.062 1_554 S
O198 C194 1.255 . S
O199 C179 1.259 . S
O199 Co180 2.021 1_655 S
H200 C191 0.930 . S
H201 C190 0.931 . S
O202 Co178 2.117 1_655 S
O202 C179 1.258 1_556 S
O203 Co178 2.020 . S
O203 C205 1.256 1_556 S
O204 Co180 2.062 . S
O204 C205 1.255 . S
C205 O203 1.256 1_554 S
C205 O204 1.255 . S
H206 C185 0.931 . S
H207 C193 0.931 . S
H208 C216 0.950 . S
H209 C221 0.950 . S
H210 C218 0.950 . S
H211 C220 0.950 . S
H212 C222 0.950 . S
H213 C224 0.950 . S
H214 C226 0.950 . S
H215 C227 0.950 . S
C216 H208 0.950 . S
C216 C217 1.386 . S
C216 C218 1.391 . S
C217 C216 1.386 . S
C217 C221 1.393 . S
C218 H210 0.950 . S
C218 C216 1.391 . S
C218 C219 1.400 . S
C219 C218 1.400 . S
C219 C220 1.398 . S
C219 C225 1.491 . S
C220 H211 0.950 . S
C220 C219 1.398 . S
C220 C221 1.391 . S
C221 H209 0.950 . S
C221 C217 1.393 . S
C221 C220 1.391 . S
C222 H212 0.950 . S
C222 C223 1.386 . S
C222 C224 1.391 . S
C223 C222 1.386 . S
C223 C227 1.393 . S
C224 H213 0.950 . S
C224 C222 1.391 . S
C224 C225 1.400 . S
C225 C219 1.491 . S
C225 C224 1.400 . S
C225 C226 1.398 . S
C226 H214 0.950 . S
C226 C225 1.398 . S
C226 C227 1.391 . S
C227 H215 0.950 . S
C227 C223 1.393 . S
C227 C226 1.391 . S
H228 C236 0.950 . S
H229 C241 0.950 . S
H230 C238 0.950 . S
H231 C240 0.950 . S
H232 C242 0.950 1_545 S
H233 C244 0.950 . S
H234 C246 0.950 . S
H235 C247 0.950 . S
C236 H228 0.950 . S
C236 C237 1.386 . S
C236 C238 1.391 . S
C237 C236 1.386 . S
C237 C241 1.393 . S
C238 H230 0.950 . S
C238 C236 1.391 . S
C238 C239 1.400 . S
C239 C238 1.400 . S
C239 C240 1.398 . S
C239 C245 1.491 . S
C240 H231 0.950 . S
C240 C239 1.398 . S
C240 C241 1.391 . S
C241 H229 0.950 . S
C241 C237 1.393 . S
C241 C240 1.391 . S
C242 H232 0.950 1_565 S
C242 C243 1.386 . S
C242 C244 1.391 . S
C243 C242 1.386 . S
C243 C247 1.393 . S
C244 H233 0.950 . S
C244 C242 1.391 . S
C244 C245 1.400 . S
C245 C239 1.491 . S
C245 C244 1.400 . S
C245 C246 1.398 . S
C246 H234 0.950 . S
C246 C245 1.398 . S
C246 C247 1.391 . S
C247 H235 0.950 . S
C247 C243 1.393 . S
C247 C246 1.391 . S
H248 C256 0.950 . S
H249 C261 0.950 . S
H250 C258 0.950 . S
H251 C260 0.950 . S
H252 C262 0.950 . S
H253 C264 0.950 . S
H254 C266 0.950 . S
H255 C267 0.950 . S
C256 H248 0.950 . S
C256 C257 1.386 . S
C256 C258 1.391 . S
C257 C256 1.386 . S
C257 C261 1.393 . S
C258 H250 0.950 . S
C258 C256 1.391 . S
C258 C259 1.400 . S
C259 C258 1.400 . S
C259 C260 1.398 . S
C259 C265 1.491 . S
C260 H251 0.950 . S
C260 C259 1.398 . S
C260 C261 1.391 . S
C261 H249 0.950 . S
C261 C257 1.393 . S
C261 C260 1.391 . S
C262 H252 0.950 . S
C262 C263 1.386 . S
C262 C264 1.391 . S
C263 C262 1.386 . S
C263 C267 1.393 . S
C264 H253 0.950 . S
C264 C262 1.391 . S
C264 C265 1.400 . S
C265 C259 1.491 . S
C265 C264 1.400 . S
C265 C266 1.398 . S
C266 H254 0.950 . S
C266 C265 1.398 . S
C266 C267 1.391 . S
C267 H255 0.950 . S
C267 C263 1.393 . S
C267 C266 1.391 . S
H268 C276 0.950 . S
H269 C281 0.950 1_455 S
H270 C278 0.950 . S
H271 C280 0.950 1_455 S
H272 C282 0.950 . S
H273 C284 0.950 1_455 S
H274 C286 0.950 . S
H275 C287 0.950 . S
C276 H268 0.950 . S
C276 C277 1.386 . S
C276 C278 1.391 . S
C277 C276 1.386 . S
C277 C281 1.393 . S
C278 H270 0.950 . S
C278 C276 1.391 . S
C278 C279 1.400 . S
C279 C278 1.400 . S
C279 C280 1.398 . S
C279 C285 1.491 . S
C280 H271 0.950 1_655 S
C280 C279 1.398 . S
C280 C281 1.391 . S
C281 H269 0.950 1_655 S
C281 C277 1.393 . S
C281 C280 1.391 . S
C282 H272 0.950 . S
C282 C283 1.386 1_455 S
C282 C284 1.391 1_455 S
C283 C282 1.386 1_655 S
C283 C287 1.393 . S
C284 H273 0.950 1_655 S
C284 C282 1.391 1_655 S
C284 C285 1.400 . S
C285 C279 1.491 . S
C285 C284 1.400 . S
C285 C286 1.398 . S
C286 H274 0.950 . S
C286 C285 1.398 . S
C286 C287 1.391 . S
C287 H275 0.950 . S
C287 C283 1.393 . S
C287 C286 1.391 . S
H288 C296 0.950 . S
H289 C301 0.950 . S
H290 C298 0.950 . S
H291 C300 0.950 . S
H292 C302 0.950 . S
H293 C304 0.950 . S
H294 C306 0.950 . S
H295 C307 0.950 . S
C296 H288 0.950 . S
C296 C297 1.386 . S
C296 C298 1.391 . S
C297 C296 1.386 . S
C297 C301 1.393 . S
C298 H290 0.950 . S
C298 C296 1.391 . S
C298 C299 1.400 . S
C299 C298 1.400 . S
C299 C300 1.398 . S
C299 C305 1.491 . S
C300 H291 0.950 . S
C300 C299 1.398 . S
C300 C301 1.391 . S
C301 H289 0.950 . S
C301 C297 1.393 . S
C301 C300 1.391 . S
C302 H292 0.950 . S
C302 C303 1.386 . S
C302 C304 1.391 . S
C303 C302 1.386 . S
C303 C307 1.393 . S
C304 H293 0.950 . S
C304 C302 1.391 . S
C304 C305 1.400 . S
C305 C299 1.491 . S
C305 C304 1.400 . S
C305 C306 1.398 . S
C306 H294 0.950 . S
C306 C305 1.398 . S
C306 C307 1.391 . S
C307 H295 0.950 . S
C307 C303 1.393 . S
C307 C306 1.391 . S
H308 C316 0.950 . S
H309 C321 0.950 . S
H310 C318 0.950 . S
H311 C320 0.950 . S
H312 C322 0.950 . S
H313 C324 0.950 . S
H314 C326 0.950 . S
H315 C327 0.950 . S
C316 H308 0.950 . S
C316 C317 1.386 . S
C316 C318 1.391 . S
C317 C316 1.386 . S
C317 C321 1.393 . S
C318 H310 0.950 . S
C318 C316 1.391 . S
C318 C319 1.400 . S
C319 C318 1.400 . S
C319 C320 1.398 . S
C319 C325 1.491 . S
C320 H311 0.950 . S
C320 C319 1.398 . S
C320 C321 1.391 . S
C321 H309 0.950 . S
C321 C317 1.393 . S
C321 C320 1.391 . S
C322 H312 0.950 . S
C322 C323 1.386 . S
C322 C324 1.391 . S
C323 C322 1.386 . S
C323 C327 1.393 . S
C324 H313 0.950 . S
C324 C322 1.391 . S
C324 C325 1.400 . S
C325 C319 1.491 . S
C325 C324 1.400 . S
C325 C326 1.398 . S
C326 H314 0.950 . S
C326 C325 1.398 . S
C326 C327 1.391 . S
C327 H315 0.950 . S
C327 C323 1.393 . S
C327 C326 1.391 . S
H328 C336 0.950 . S
H329 C341 0.950 . S
H330 C338 0.950 . S
H331 C340 0.950 1_554 S
H332 C342 0.950 . S
H333 C344 0.950 . S
H334 C346 0.950 . S
H335 C347 0.950 . S
C336 H328 0.950 . S
C336 C337 1.386 . S
C336 C338 1.391 . S
C337 C336 1.386 . S
C337 C341 1.393 . S
C338 H330 0.950 . S
C338 C336 1.391 . S
C338 C339 1.400 . S
C339 C338 1.400 . S
C339 C340 1.398 . S
C339 C345 1.491 . S
C340 H331 0.950 1_556 S
C340 C339 1.398 . S
C340 C341 1.391 . S
C341 H329 0.950 . S
C341 C337 1.393 . S
C341 C340 1.391 . S
C342 H332 0.950 . S
C342 C343 1.386 1_554 S
C342 C344 1.391 . S
C343 C342 1.386 1_556 S
C343 C347 1.393 . S
C344 H333 0.950 . S
C344 C342 1.391 . S
C344 C345 1.400 1_554 S
C345 C339 1.491 . S
C345 C344 1.400 1_556 S
C345 C346 1.398 . S
C346 H334 0.950 . S
C346 C345 1.398 . S
C346 C347 1.391 . S
C347 H335 0.950 . S
C347 C343 1.393 . S
C347 C346 1.391 . S
H348 C356 0.950 . S
H349 C361 0.950 . S
H350 C358 0.950 . S
H351 C360 0.950 . S
H352 C362 0.950 . S
H353 C364 0.950 . S
H354 C366 0.950 . S
H355 C367 0.950 . S
C356 H348 0.950 . S
C356 C357 1.386 . S
C356 C358 1.391 . S
C357 C356 1.386 . S
C357 C361 1.393 . S
C358 H350 0.950 . S
C358 C356 1.391 . S
C358 C359 1.400 . S
C359 C358 1.400 . S
C359 C360 1.398 . S
C359 C365 1.491 . S
C360 H351 0.950 . S
C360 C359 1.398 . S
C360 C361 1.391 . S
C361 H349 0.950 . S
C361 C357 1.393 . S
C361 C360 1.391 . S
C362 H352 0.950 . S
C362 C363 1.386 . S
C362 C364 1.391 . S
C363 C362 1.386 . S
C363 C367 1.393 . S
C364 H353 0.950 . S
C364 C362 1.391 . S
C364 C365 1.400 . S
C365 C359 1.491 . S
C365 C364 1.400 . S
C365 C366 1.398 . S
C366 H354 0.950 . S
C366 C365 1.398 . S
C366 C367 1.391 . S
C367 H355 0.950 . S
C367 C363 1.393 . S
C367 C366 1.391 . S
H368 C376 0.950 . S
H369 C381 0.950 . S
H370 C378 0.950 . S
H371 C380 0.950 . S
H372 C382 0.950 . S
H373 C384 0.950 . S
H374 C386 0.950 . S
H375 C387 0.950 . S
C376 H368 0.950 . S
C376 C377 1.386 . S
C376 C378 1.391 . S
C377 C376 1.386 . S
C377 C381 1.393 . S
C378 H370 0.950 . S
C378 C376 1.391 . S
C378 C379 1.400 . S
C379 C378 1.400 . S
C379 C380 1.398 . S
C379 C385 1.491 . S
C380 H371 0.950 . S
C380 C379 1.398 . S
C380 C381 1.391 . S
C381 H369 0.950 . S
C381 C377 1.393 . S
C381 C380 1.391 . S
C382 H372 0.950 . S
C382 C383 1.386 . S
C382 C384 1.391 . S
C383 C382 1.386 . S
C383 C387 1.393 . S
C384 H373 0.950 . S
C384 C382 1.391 . S
C384 C385 1.400 . S
C385 C379 1.491 . S
C385 C384 1.400 . S
C385 C386 1.398 . S
C386 H374 0.950 . S
C386 C385 1.398 . S
C386 C387 1.391 . S
C387 H375 0.950 . S
C387 C383 1.393 . S
C387 C386 1.391 . S
H388 C396 0.950 . S
H389 C401 0.950 . S
H390 C398 0.950 . S
H391 C400 0.950 . S
H392 C402 0.950 . S
H393 C404 0.948 1_554 S
H394 C406 0.950 . S
H395 C407 0.950 . S
C396 H388 0.950 . S
C396 C397 1.386 . S
C396 C398 1.391 . S
C397 C396 1.386 . S
C397 C401 1.393 . S
C398 H390 0.950 . S
C398 C396 1.391 . S
C398 C399 1.400 . S
C399 C398 1.400 . S
C399 C400 1.398 . S
C399 C405 1.491 . S
C400 H391 0.950 . S
C400 C399 1.398 . S
C400 C401 1.391 . S
C401 H389 0.950 . S
C401 C397 1.393 . S
C401 C400 1.391 . S
C402 H392 0.950 . S
C402 C403 1.386 . S
C402 C404 1.386 1_554 S
C403 C402 1.386 . S
C403 C407 1.393 1_554 S
C404 H393 0.948 1_556 S
C404 C402 1.386 1_556 S
C404 C405 1.409 . S
C405 C399 1.491 . S
C405 C404 1.409 . S
C405 C406 1.398 . S
C406 H394 0.950 . S
C406 C405 1.398 . S
C406 C407 1.391 . S
C407 H395 0.950 . S
C407 C403 1.393 1_556 S
C407 C406 1.391 . S
H408 C416 0.950 . S
H409 C421 0.950 . S
H410 C418 0.950 . S
H411 C420 0.950 . S
H412 C422 0.950 . S
H413 C424 0.950 . S
H414 C426 0.950 . S
H415 C427 0.950 . S
C416 H408 0.950 . S
C416 C417 1.386 . S
C416 C418 1.391 . S
C417 C416 1.386 . S
C417 C421 1.393 . S
C418 H410 0.950 . S
C418 C416 1.391 . S
C418 C419 1.400 . S
C419 C418 1.400 . S
C419 C420 1.398 . S
C419 C425 1.491 . S
C420 H411 0.950 . S
C420 C419 1.398 . S
C420 C421 1.391 . S
C421 H409 0.950 . S
C421 C417 1.393 . S
C421 C420 1.391 . S
C422 H412 0.950 . S
C422 C423 1.386 . S
C422 C424 1.391 . S
C423 C422 1.386 . S
C423 C427 1.393 . S
C424 H413 0.950 . S
C424 C422 1.391 . S
C424 C425 1.400 . S
C425 C419 1.491 . S
C425 C424 1.400 . S
C425 C426 1.398 . S
C426 H414 0.950 . S
C426 C425 1.398 . S
C426 C427 1.391 . S
C427 H415 0.950 . S
C427 C423 1.393 . S
C427 C426 1.391 . S
H428 C436 0.950 . S
H429 C441 0.950 . S
H430 C438 0.950 . S
H431 C440 0.950 . S
H432 C442 0.950 . S
H433 C444 0.950 . S
H434 C446 0.950 . S
H435 C447 0.950 . S
C436 H428 0.950 . S
C436 C437 1.386 . S
C436 C438 1.391 . S
C437 C436 1.386 . S
C437 C441 1.393 . S
C438 H430 0.950 . S
C438 C436 1.391 . S
C438 C439 1.400 . S
C439 C438 1.400 . S
C439 C440 1.398 . S
C439 C445 1.491 . S
C440 H431 0.950 . S
C440 C439 1.398 . S
C440 C441 1.391 . S
C441 H429 0.950 . S
C441 C437 1.393 . S
C441 C440 1.391 . S
C442 H432 0.950 . S
C442 C443 1.386 . S
C442 C444 1.391 . S
C443 C442 1.386 . S
C443 C447 1.393 . S
C444 H433 0.950 . S
C444 C442 1.391 . S
C444 C445 1.400 . S
C445 C439 1.491 . S
C445 C444 1.400 . S
C445 C446 1.398 . S
C446 H434 0.950 . S
C446 C445 1.398 . S
C446 C447 1.391 . S
C447 H435 0.950 . S
C447 C443 1.393 . S
C447 C446 1.391 . S
H448 C456 0.950 . S
H449 C461 0.950 . S
H450 C458 0.950 1_455 S
H451 C460 0.950 . S
H452 C462 0.950 . S
H453 C464 0.950 . S
H454 C466 0.950 1_455 S
H455 C467 0.950 . S
C456 H448 0.950 . S
C456 C457 1.386 . S
C456 C458 1.391 . S
C457 C456 1.386 . S
C457 C461 1.393 . S
C458 H450 0.950 1_655 S
C458 C456 1.391 . S
C458 C459 1.400 . S
C459 C458 1.400 . S
C459 C460 1.398 . S
C459 C465 1.491 . S
C460 H451 0.950 . S
C460 C459 1.398 . S
C460 C461 1.391 . S
C461 H449 0.950 . S
C461 C457 1.393 . S
C461 C460 1.391 . S
C462 H452 0.950 . S
C462 C463 1.381 1_565 S
C462 C464 1.391 . S
C463 C462 1.381 1_545 S
C463 C467 1.396 1_655 S
C464 H453 0.950 . S
C464 C462 1.391 . S
C464 C465 1.400 . S
C465 C459 1.491 . S
C465 C464 1.400 . S
C465 C466 1.398 1_565 S
C466 H454 0.950 1_655 S
C466 C465 1.398 1_545 S
C466 C467 1.391 1_655 S
C467 H455 0.950 . S
C467 C463 1.396 1_455 S
C467 C466 1.391 1_455 S
H468 C476 0.950 . S
H469 C481 0.950 . S
H470 C478 0.950 . S
H471 C480 0.950 . S
H472 C482 0.950 . S
H473 C484 0.950 . S
H474 C486 0.950 . S
H475 C487 0.950 . S
C476 H468 0.950 . S
C476 C477 1.386 . S
C476 C478 1.391 . S
C477 C476 1.386 . S
C477 C481 1.393 . S
C478 H470 0.950 . S
C478 C476 1.391 . S
C478 C479 1.400 . S
C479 C478 1.400 . S
C479 C480 1.398 . S
C479 C485 1.491 . S
C480 H471 0.950 . S
C480 C479 1.398 . S
C480 C481 1.391 . S
C481 H469 0.950 . S
C481 C477 1.393 . S
C481 C480 1.391 . S
C482 H472 0.950 . S
C482 C483 1.386 . S
C482 C484 1.391 . S
C483 C482 1.386 . S
C483 C487 1.393 . S
C484 H473 0.950 . S
C484 C482 1.391 . S
C484 C485 1.400 . S
C485 C479 1.491 . S
C485 C484 1.400 . S
C485 C486 1.398 . S
C486 H474 0.950 . S
C486 C485 1.398 . S
C486 C487 1.391 . S
C487 H475 0.950 . S
C487 C483 1.393 . S
C487 C486 1.391 . S
H488 C496 0.950 . S
H489 C501 0.950 . S
H490 C498 0.950 . S
H491 C500 0.950 . S
H492 C502 0.950 . S
H493 C504 0.950 . S
H494 C506 0.950 . S
H495 C507 0.950 . S
C496 H488 0.950 . S
C496 C497 1.386 . S
C496 C498 1.391 . S
C497 C496 1.386 . S
C497 C501 1.393 . S
C498 H490 0.950 . S
C498 C496 1.391 . S
C498 C499 1.400 . S
C499 C498 1.400 . S
C499 C500 1.398 . S
C499 C505 1.491 . S
C500 H491 0.950 . S
C500 C499 1.398 . S
C500 C501 1.391 . S
C501 H489 0.950 . S
C501 C497 1.393 . S
C501 C500 1.391 . S
C502 H492 0.950 . S
C502 C503 1.386 . S
C502 C504 1.391 . S
C503 C502 1.386 . S
C503 C507 1.393 . S
C504 H493 0.950 . S
C504 C502 1.391 . S
C504 C505 1.400 . S
C505 C499 1.491 . S
C505 C504 1.400 . S
C505 C506 1.398 . S
C506 H494 0.950 . S
C506 C505 1.398 . S
C506 C507 1.391 . S
C507 H495 0.950 . S
C507 C503 1.393 . S
C507 C506 1.391 . S
H508 C516 0.950 . S
H509 C521 0.950 . S
H510 C518 0.950 . S
H511 C520 0.950 . S
H512 C522 0.950 . S
H513 C524 0.950 . S
H514 C526 0.950 . S
H515 C527 0.950 . S
C516 H508 0.950 . S
C516 C517 1.386 . S
C516 C518 1.391 . S
C517 C516 1.386 . S
C517 C521 1.393 . S
C518 H510 0.950 . S
C518 C516 1.391 . S
C518 C519 1.400 . S
C519 C518 1.400 . S
C519 C520 1.398 . S
C519 C525 1.491 . S
C520 H511 0.950 . S
C520 C519 1.398 . S
C520 C521 1.391 . S
C521 H509 0.950 . S
C521 C517 1.393 . S
C521 C520 1.391 . S
C522 H512 0.950 . S
C522 C523 1.386 . S
C522 C524 1.391 . S
C523 C522 1.386 . S
C523 C527 1.393 . S
C524 H513 0.950 . S
C524 C522 1.391 . S
C524 C525 1.400 . S
C525 C519 1.491 . S
C525 C524 1.400 . S
C525 C526 1.398 . S
C526 H514 0.950 . S
C526 C525 1.398 . S
C526 C527 1.391 . S
C527 H515 0.950 . S
C527 C523 1.393 . S
C527 C526 1.391 . S
H528 C536 0.950 . S
H529 C541 0.950 . S
H530 C538 0.950 . S
H531 C540 0.950 . S
H532 C542 0.950 . S
H533 C544 0.950 . S
H534 C546 0.950 . S
H535 C547 0.950 . S
C536 H528 0.950 . S
C536 C537 1.386 1_545 S
C536 C538 1.391 . S
C537 C536 1.386 1_565 S
C537 C541 1.393 . S
C538 H530 0.950 . S
C538 C536 1.391 . S
C538 C539 1.400 1_545 S
C539 C538 1.400 1_565 S
C539 C540 1.398 . S
C539 C545 1.491 . S
C540 H531 0.950 . S
C540 C539 1.398 . S
C540 C541 1.391 . S
C541 H529 0.950 . S
C541 C537 1.393 . S
C541 C540 1.391 . S
C542 H532 0.950 . S
C542 C543 1.386 1_565 S
C542 C544 1.391 1_554 S
C543 C542 1.386 1_545 S
C543 C547 1.393 . S
C544 H533 0.950 . S
C544 C542 1.391 1_556 S
C544 C545 1.400 . S
C545 C539 1.491 . S
C545 C544 1.400 . S
C545 C546 1.398 1_566 S
C546 H534 0.950 . S
C546 C545 1.398 1_544 S
C546 C547 1.391 . S
C547 H535 0.950 . S
C547 C543 1.393 . S
C547 C546 1.391 . S
H548 C556 0.950 . S
H549 C561 0.950 . S
H550 C558 0.950 . S
H551 C560 0.950 . S
H552 C562 0.950 . S
H553 C564 0.950 . S
H554 C566 0.950 . S
H555 C567 0.950 . S
C556 H548 0.950 . S
C556 C557 1.386 . S
C556 C558 1.391 . S
C557 C556 1.386 . S
C557 C561 1.393 . S
C558 H550 0.950 . S
C558 C556 1.391 . S
C558 C559 1.400 . S
C559 C558 1.400 . S
C559 C560 1.398 . S
C559 C565 1.491 . S
C560 H551 0.950 . S
C560 C559 1.398 . S
C560 C561 1.391 . S
C561 H549 0.950 . S
C561 C557 1.393 . S
C561 C560 1.391 . S
C562 H552 0.950 . S
C562 C563 1.386 . S
C562 C564 1.391 . S
C563 C562 1.386 . S
C563 C567 1.393 . S
C564 H553 0.950 . S
C564 C562 1.391 . S
C564 C565 1.400 . S
C565 C559 1.491 . S
C565 C564 1.400 . S
C565 C566 1.398 . S
C566 H554 0.950 . S
C566 C565 1.398 . S
C566 C567 1.391 . S
C567 H555 0.950 . S
C567 C563 1.393 . S
C567 C566 1.391 . S
H568 C576 0.950 . S
H569 C581 0.950 . S
H570 C578 0.950 . S
H571 C580 0.950 . S
H572 C582 0.950 . S
H573 C584 0.950 . S
H574 C586 0.950 . S
H575 C587 0.950 . S
C576 H568 0.950 . S
C576 C577 1.386 . S
C576 C578 1.391 . S
C577 C576 1.386 . S
C577 C581 1.393 . S
C578 H570 0.950 . S
C578 C576 1.391 . S
C578 C579 1.400 . S
C579 C578 1.400 . S
C579 C580 1.398 . S
C579 C585 1.491 . S
C580 H571 0.950 . S
C580 C579 1.398 . S
C580 C581 1.391 . S
C581 H569 0.950 . S
C581 C577 1.393 . S
C581 C580 1.391 . S
C582 H572 0.950 . S
C582 C583 1.386 . S
C582 C584 1.391 . S
C583 C582 1.386 . S
C583 C587 1.393 . S
C584 H573 0.950 . S
C584 C582 1.391 . S
C584 C585 1.400 . S
C585 C579 1.491 . S
C585 C584 1.400 . S
C585 C586 1.398 . S
C586 H574 0.950 . S
C586 C585 1.398 . S
C586 C587 1.391 . S
C587 H575 0.950 . S
C587 C583 1.393 . S
C587 C586 1.391 . S
H588 C596 0.950 . S
H589 C601 0.950 . S
H590 C598 0.950 . S
H591 C600 0.950 . S
H592 C602 0.950 . S
H593 C604 0.950 . S
H594 C606 0.950 . S
H595 C607 0.950 . S
C596 H588 0.950 . S
C596 C597 1.386 . S
C596 C598 1.391 . S
C597 C596 1.386 . S
C597 C601 1.393 . S
C598 H590 0.950 . S
C598 C596 1.391 . S
C598 C599 1.400 . S
C599 C598 1.400 . S
C599 C600 1.398 . S
C599 C605 1.491 . S
C600 H591 0.950 . S
C600 C599 1.398 . S
C600 C601 1.391 . S
C601 H589 0.950 . S
C601 C597 1.393 . S
C601 C600 1.391 . S
C602 H592 0.950 . S
C602 C603 1.386 . S
C602 C604 1.391 . S
C603 C602 1.386 . S
C603 C607 1.393 . S
C604 H593 0.950 . S
C604 C602 1.391 . S
C604 C605 1.400 . S
C605 C599 1.491 . S
C605 C604 1.400 . S
C605 C606 1.398 . S
C606 H594 0.950 . S
C606 C605 1.398 . S
C606 C607 1.391 . S
C607 H595 0.950 . S
C607 C603 1.393 . S
C607 C606 1.391 . S
H608 C616 0.950 . S
H609 C621 0.950 . S
H610 C618 0.969 . S
H611 C620 0.950 . S
H612 C622 0.950 . S
H613 C624 0.950 . S
H614 C626 0.950 1_554 S
H615 C627 0.950 . S
C616 H608 0.950 . S
C616 C617 1.386 . S
C616 C618 1.391 . S
C617 C616 1.386 . S
C617 C621 1.393 . S
C618 H610 0.969 . S
C618 C616 1.391 . S
C618 C619 1.400 . S
C619 C618 1.400 . S
C619 C620 1.398 . S
C619 C625 1.491 . S
C620 H611 0.950 . S
C620 C619 1.398 . S
C620 C621 1.391 . S
C621 H609 0.950 . S
C621 C617 1.393 . S
C621 C620 1.391 . S
C622 H612 0.950 . S
C622 C623 1.386 . S
C622 C624 1.391 . S
C623 C622 1.386 . S
C623 C627 1.393 1_656 S
C624 H613 0.950 . S
C624 C622 1.391 . S
C624 C625 1.400 . S
C625 C619 1.491 . S
C625 C624 1.400 . S
C625 C626 1.398 . S
C626 H614 0.950 1_556 S
C626 C625 1.398 . S
C626 C627 1.391 1_656 S
C627 H615 0.950 . S
C627 C623 1.393 1_454 S
C627 C626 1.391 1_454 S
H628 C636 0.950 . S
H629 C641 0.950 . S
H630 C638 0.950 . S
H631 C640 0.950 . S
H632 C642 0.950 . S
H633 C644 0.950 . S
H634 C646 0.950 . S
H635 C647 0.950 . S
C636 H628 0.950 . S
C636 C637 1.386 . S
C636 C638 1.391 . S
C637 C636 1.386 . S
C637 C641 1.393 . S
C638 H630 0.950 . S
C638 C636 1.391 . S
C638 C639 1.400 . S
C639 C638 1.400 . S
C639 C640 1.398 . S
C639 C645 1.491 . S
C640 H631 0.950 . S
C640 C639 1.398 . S
C640 C641 1.391 . S
C641 H629 0.950 . S
C641 C637 1.393 . S
C641 C640 1.391 . S
C642 H632 0.950 . S
C642 C643 1.386 . S
C642 C644 1.391 . S
C643 C642 1.386 . S
C643 C647 1.393 . S
C644 H633 0.950 . S
C644 C642 1.391 . S
C644 C645 1.400 . S
C645 C639 1.491 . S
C645 C644 1.400 . S
C645 C646 1.398 . S
C646 H634 0.950 . S
C646 C645 1.398 . S
C646 C647 1.391 . S
C647 H635 0.950 . S
C647 C643 1.393 . S
C647 C646 1.391 . S
H648 C656 0.950 . S
H649 C661 0.950 . S
H650 C658 0.950 . S
H651 C660 0.950 . S
H652 C662 0.950 . S
H653 C664 0.950 . S
H654 C666 0.950 . S
H655 C667 0.950 1_655 S
C656 H648 0.950 . S
C656 C657 1.386 . S
C656 C658 1.391 . S
C657 C656 1.386 . S
C657 C661 1.393 . S
C658 H650 0.950 . S
C658 C656 1.391 . S
C658 C659 1.400 . S
C659 C658 1.400 . S
C659 C660 1.398 . S
C659 C665 1.491 . S
C660 H651 0.950 . S
C660 C659 1.398 . S
C660 C661 1.391 . S
C661 H649 0.950 . S
C661 C657 1.393 . S
C661 C660 1.391 . S
C662 H652 0.950 . S
C662 C663 1.386 . S
C662 C664 1.391 . S
C663 C662 1.386 . S
C663 C667 1.393 . S
C664 H653 0.950 . S
C664 C662 1.391 . S
C664 C665 1.400 . S
C665 C659 1.491 . S
C665 C664 1.400 . S
C665 C666 1.398 . S
C666 H654 0.950 . S
C666 C665 1.398 . S
C666 C667 1.391 . S
C667 H655 0.950 1_455 S
C667 C663 1.393 . S
C667 C666 1.391 . S
H668 C676 0.950 . S
H669 C681 0.950 . S
H670 C678 0.950 . S
H671 C680 0.950 . S
H672 C682 0.950 . S
H673 C684 0.950 . S
H674 C686 0.950 . S
H675 C687 0.950 . S
C676 H668 0.950 . S
C676 C677 1.386 . S
C676 C678 1.391 . S
C677 C676 1.386 . S
C677 C681 1.393 . S
C678 H670 0.950 . S
C678 C676 1.391 . S
C678 C679 1.400 . S
C679 C678 1.400 . S
C679 C680 1.398 . S
C679 C685 1.491 . S
C680 H671 0.950 . S
C680 C679 1.398 . S
C680 C681 1.391 . S
C681 H669 0.950 . S
C681 C677 1.393 . S
C681 C680 1.391 . S
C682 H672 0.950 . S
C682 C683 1.386 . S
C682 C684 1.391 . S
C683 C682 1.386 . S
C683 C687 1.393 . S
C684 H673 0.950 . S
C684 C682 1.391 . S
C684 C685 1.400 . S
C685 C679 1.491 . S
C685 C684 1.400 . S
C685 C686 1.398 . S
C686 H674 0.950 . S
C686 C685 1.398 . S
C686 C687 1.391 . S
C687 H675 0.950 . S
C687 C683 1.393 . S
C687 C686 1.391 . S
C217 C4 2.310 . S
C223 C104 2.317 . S
C237 C16 1.389 . S
C243 N124 1.381 . S
C263 C158 1.580 . S
C257 C32 1.568 . S
C277 C43 1.124 . S
C283 N192 1.085 . S
C303 C145 2.761 . S
C297 C5 2.748 . S
C323 N102 0.921 1_565 S
C317 C21 0.949 . S
C343 C179 1.813 1_556 S
C337 C27 1.802 . S
C363 N154 0.938 . S
C357 C37 0.930 . S
C377 C10 1.809 . S
C383 C194 1.823 . S
C403 C128 1.765 . S
C397 C26 1.750 . S
C417 C38 1.142 . S
C423 C89 1.149 . S
C437 C15 1.586 . S
C443 C175 1.597 . S
C463 C115 2.446 . S
C457 C48 2.439 . S
C477 C59 1.177 . S
C483 N132 1.186 . S
C497 C76 1.855 . S
C503 C149 1.868 . S
C517 C87 1.022 . S
C523 N184 1.002 . S
C537 C54 2.119 . S
C543 C134 2.138 . S
C563 N94 1.479 . S
C557 C60 1.492 . S
C583 C188 1.855 . S
C577 C71 1.830 . S
C603 N162 0.913 . S
C597 C82 0.930 . S
C617 C49 2.057 . S
C623 C205 2.067 1_656 S
C643 C119 1.404 . S
C637 C70 1.402 . S
C663 C98 1.485 . S
C657 C81 1.484 . S
C677 C65 1.409 . S
C683 C164 1.423 . S
