# Generated by pormake.
# Topology tsx, (6,3)-cn, num edge types: 1
# Building blocks:
#     Node 0, Type 0, BuildingBlock: FUNLAD_clean_sbu_0, # of connection points: 6
#     Node 1, Type 0, BuildingBlock: FUNLAD_clean_sbu_0, # of connection points: 6
#     Node 2, Type 1, BuildingBlock: ESEHIV_clean_linker_0, # of connection points: 3
#     Node 3, Type 1, BuildingBlock: ESEHIV_clean_linker_0, # of connection points: 3
#     Node 4, Type 1, BuildingBlock: ESEHIV_clean_linker_0, # of connection points: 3
#     Node 5, Type 1, BuildingBlock: ESEHIV_clean_linker_0, # of connection points: 3
#     Edge 6, Type (0, 1), BuildingBlock: CIFDUS_clean_linker_0, # of connection points: 2
#     Edge 7, Type (0, 1), BuildingBlock: CIFDUS_clean_linker_0, # of connection points: 2
#     Edge 8, Type (0, 1), BuildingBlock: CIFDUS_clean_linker_0, # of connection points: 2
#     Edge 9, Type (0, 1), BuildingBlock: CIFDUS_clean_linker_0, # of connection points: 2
#     Edge 10, Type (0, 1), BuildingBlock: CIFDUS_clean_linker_0, # of connection points: 2
#     Edge 11, Type (0, 1), BuildingBlock: CIFDUS_clean_linker_0, # of connection points: 2
#     Edge 12, Type (0, 1), BuildingBlock: CIFDUS_clean_linker_0, # of connection points: 2
#     Edge 13, Type (0, 1), BuildingBlock: CIFDUS_clean_linker_0, # of connection points: 2
#     Edge 14, Type (0, 1), BuildingBlock: CIFDUS_clean_linker_0, # of connection points: 2
#     Edge 15, Type (0, 1), BuildingBlock: CIFDUS_clean_linker_0, # of connection points: 2
#     Edge 16, Type (0, 1), BuildingBlock: CIFDUS_clean_linker_0, # of connection points: 2
#     Edge 17, Type (0, 1), BuildingBlock: CIFDUS_clean_linker_0, # of connection points: 2
# Relax obj value: 0.163
# Max RMSD: 0.153
# Mean RMSD: 0.073
data_MOF--net-tsx--node1-FUNLAD_clean_sbu_0--node2-ESEHIV_clean_linker_0--edge1-CIFDUS_clean_linker_0
_symmetry_space_group_name_H-M    P1
_symmetry_Int_Tables_number       1
_symmetry_cell_setting            triclinic
loop_
_symmetry_equiv_pos_as_xyz
'x, y, z'
_cell_length_a     14.908738
_cell_length_b     16.954949
_cell_length_c     36.458272
_cell_angle_alpha  89.886619
_cell_angle_beta   92.274804
_cell_angle_gamma 90.534784
loop_
_atom_site_label
_atom_site_type_symbol
_atom_site_fract_x
_atom_site_fract_y
_atom_site_fract_z
_atom_type_partial_charge
C0 C 0.95493 0.84773 -0.00671 0.0
N1 N 0.07291 0.97145 0.08158 0.0
C2 C 0.9907 0.96429 0.09628 0.0
C3 C 0.98299 0.95899 0.13417 0.0
C4 C 0.06038 0.96279 0.15713 0.0
C5 C 0.14423 0.97268 0.1416 0.0
C6 C 0.14912 0.97618 0.10338 0.0
Zn7 Zn 0.07878 0.97046 0.02561 0.0
C8 C 0.21821 0.86113 -0.00071 0.0
N9 N 0.08492 0.96502 0.90948 0.0
C10 C 1.00543 0.96313 0.88983 0.0
C11 C 0.1647 0.96877 0.8926 0.0
C12 C 0.16634 0.97169 0.85437 0.0
C13 C 0.08509 0.97228 0.8337 0.0
C14 C 1.00397 0.9675 0.8517 0.0
Zn15 Zn 0.08178 0.9661 0.96509 0.0
O16 O 0.97777 0.88316 0.02282 0.0
C17 C 0.94259 0.07574 -0.01044 0.0
O18 O 0.99122 0.86686 0.96358 0.0
H19 H 0.22704 0.97059 0.9088 0.0
H20 H 0.93085 0.96154 0.07857 0.0
H21 H 0.94285 0.95928 0.90375 0.0
O22 O 0.97723 0.06101 0.02128 0.0
O23 O 0.97246 0.04191 0.96171 0.0
H24 H 0.21379 0.98158 0.09113 0.0
O25 O 0.17162 0.06546 0.96718 0.0
O26 O 0.17948 0.05773 0.02736 0.0
O27 O 0.19099 0.89068 0.96892 0.0
O28 O 0.1803 0.88004 0.02867 0.0
C29 C 0.20481 0.0895 -0.00212 0.0
H30 H 0.91727 0.95188 0.14548 0.0
H31 H 0.20516 0.9757 0.15876 0.0
H32 H 0.23003 0.97556 0.84113 0.0
H33 H 0.94017 0.96709 0.83639 0.0
C34 C 0.36657 0.39836 0.48268 0.0
N35 N 0.50268 0.49445 0.57482 0.0
C36 C 0.43037 0.47425 0.59457 0.0
C37 C 0.44103 0.45762 0.6321 0.0
C38 C 0.52679 0.46283 0.6496 0.0
C39 C 0.59978 0.48449 0.62839 0.0
C40 C 0.58635 0.49922 0.59098 0.0
Zn41 Zn 0.4912 0.51415 0.51942 0.0
C42 C 0.6287 0.42021 0.48023 0.0
N43 N 0.47598 0.54937 0.40387 0.0
C44 C 0.39544 0.55788 0.38548 0.0
C45 C 0.55446 0.56009 0.3867 0.0
C46 C 0.55413 0.57933 0.34961 0.0
C47 C 0.4722 0.59005 0.32989 0.0
C48 C 0.39197 0.57911 0.34841 0.0
Zn49 Zn 0.48363 0.52846 0.4589 0.0
O50 O 0.39623 0.42403 0.51353 0.0
C51 C 0.34106 0.61651 0.49587 0.0
O52 O 0.39568 0.42747 0.45316 0.0
H53 H 0.61787 0.55443 0.40185 0.0
H54 H 0.36444 0.47026 0.58118 0.0
H55 H 0.33371 0.54949 0.39965 0.0
O56 O 0.38132 0.59549 0.52574 0.0
O57 O 0.37205 0.5969 0.46542 0.0
H58 H 0.64326 0.51436 0.57482 0.0
O59 O 0.56849 0.63047 0.46534 0.0
O60 O 0.58628 0.6073 0.52438 0.0
O61 O 0.59541 0.45711 0.4528 0.0
O62 O 0.59698 0.43035 0.51173 0.0
C63 C 0.60447 0.64816 0.49642 0.0
H64 H 0.38276 0.44015 0.64705 0.0
H65 H 0.66686 0.49112 0.64053 0.0
H66 H 0.61787 0.58483 0.33659 0.0
H67 H 0.3271 0.58755 0.33466 0.0
H68 H 0.90499 0.09996 0.36919 0.0
H69 H 0.06921 0.89386 0.38348 0.0
H70 H 0.91306 0.97426 0.47167 0.0
C71 C 0.93032 0.05204 0.38627 0.0
C72 C 0.90373 0.04539 0.42268 0.0
C73 C 0.9874 0.99586 0.3715 0.0
C74 C 0.02111 0.9348 0.39403 0.0
C75 C 0.99679 0.92902 0.43072 0.0
C76 C 0.93476 0.98181 0.44413 0.0
H77 H 0.93811 0.93434 0.61963 0.0
H78 H 0.05449 0.16614 0.61363 0.0
H79 H 0.95925 0.0501 0.51508 0.0
C80 C 0.95843 0.98458 0.60335 0.0
C81 C 0.94344 0.98361 0.56518 0.0
C82 C 0.99677 0.05079 0.62085 0.0
C83 C 0.02199 0.11608 0.60001 0.0
C84 C 1.01016 0.11521 0.56162 0.0
C85 C 0.96925 0.04946 0.54442 0.0
H86 H 0.48932 0.5873 0.87225 0.0
H87 H 0.63338 0.36836 0.87407 0.0
H88 H 0.6308 0.51378 0.97054 0.0
C89 C 0.53012 0.54377 0.88674 0.0
C90 C 0.55454 0.55662 0.9237 0.0
C91 C 0.55786 0.476 0.86844 0.0
C92 C 0.61149 0.42088 0.88789 0.0
C93 C 0.63807 0.43374 0.92496 0.0
C94 C 0.60973 0.50238 0.94246 0.0
H95 H 0.4117 0.44103 0.11617 0.0
H96 H 0.53073 0.67078 0.10391 0.0
H97 H 0.55966 0.49315 0.021 0.0
C98 C 0.4491 0.48318 0.10027 0.0
C99 C 0.48167 0.45958 0.06657 0.0
C100 C 0.46653 0.55905 0.11413 0.0
C101 C 0.51628 0.61222 0.09328 0.0
C102 C 0.55098 0.58932 0.05962 0.0
C103 C 0.53331 0.51245 0.04651 0.0
H104 H 0.3312 0.11701 0.05123 0.0
H105 H 0.22202 0.21139 0.94922 0.0
H106 H 0.31138 0.33233 0.95861 0.0
H107 H 0.40295 0.41801 0.00074 0.0
H108 H 0.50947 0.32178 0.10282 0.0
H109 H 0.44032 0.19408 0.0882 0.0
C110 C 0.32793 0.16366 0.0308 0.0
C111 C 0.26896 0.15627 0.0 0.0
C112 C 0.37884 0.23269 0.03649 0.0
C113 C 0.26661 0.21619 0.97332 0.0
C114 C 0.31739 0.28539 0.97875 0.0
C115 C 0.41303 0.36831 0.01916 0.0
C116 C 0.4597 0.37924 0.05306 0.0
C117 C 0.37136 0.29536 0.01089 0.0
C118 C 0.47256 0.31465 0.07681 0.0
C119 C 0.43279 0.24186 0.06855 0.0
H120 H 0.36812 0.87239 0.96147 0.0
H121 H 0.22931 0.71969 0.03536 0.0
H122 H 0.33102 0.61142 0.02154 0.0
H123 H 0.44168 0.5559 0.97988 0.0
H124 H 0.58207 0.71075 0.90754 0.0
H125 H 0.49711 0.82325 0.92906 0.0
C126 C 0.36166 0.81584 0.97518 0.0
C127 C 0.29104 0.80317 -0.00108 0.0
C128 C 0.4194 0.75435 0.96681 0.0
C129 C 0.28342 0.73038 0.01696 0.0
C130 C 0.34081 0.66844 0.00873 0.0
C131 C 0.45593 0.61484 0.97005 0.0
C132 C 0.51802 0.62563 0.94244 0.0
C133 C 0.40652 0.67897 0.9825 0.0
C134 C 0.53446 0.70164 0.92888 0.0
C135 C 0.48577 0.76566 0.94106 0.0
H136 H 0.78254 0.87486 0.00544 0.0
H137 H 0.96833 0.6888 0.98489 0.0
H138 H 0.85463 0.5896 0.00033 0.0
H139 H 0.70973 0.55833 0.02791 0.0
H140 H 0.52405 0.74612 0.04728 0.0
H141 H 0.62989 0.84235 0.02379 0.0
C142 C 0.79689 0.81239 0.00343 0.0
C143 C 0.88278 0.78847 -0.00589 0.0
C144 C 0.73173 0.75638 0.01259 0.0
C145 C 0.90189 0.7079 -0.00829 0.0
C146 C 0.83721 0.65148 0.00081 0.0
C147 C 0.69144 0.62 0.02603 0.0
C148 C 0.60954 0.64508 0.0398 0.0
C149 C 0.75286 0.67523 0.01246 0.0
C150 C 0.58742 0.72545 0.03759 0.0
C151 C 0.64773 0.78052 0.02403 0.0
H152 H 0.93749 0.23093 0.00799 0.0
H153 H 0.78312 0.0433 0.95596 0.0
H154 H 0.66999 0.13738 0.93391 0.0
H155 H 0.62345 0.27394 0.92391 0.0
H156 H 0.78279 0.46382 0.97175 0.0
H157 H 0.8845 0.36861 0.00131 0.0
C158 C 0.87767 0.21087 -0.00728 0.0
C159 C 0.86761 0.13064 0.98383 0.0
C160 C 0.81462 0.26588 0.97887 0.0
C161 C 0.79133 0.10496 0.96327 0.0
C162 C 0.72714 0.15871 0.95046 0.0
C163 C 0.68051 0.29451 0.94076 0.0
C164 C 0.6961 0.37588 0.94516 0.0
C165 C 0.73959 0.23953 0.95706 0.0
C166 C 0.76905 0.4015 0.96792 0.0
C167 C 0.82755 0.34705 0.98472 0.0
H168 H 0.77229 0.65236 0.5268 0.0
H169 H 0.56809 0.79861 0.47582 0.0
H170 H 0.65802 0.91705 0.49059 0.0
H171 H 0.78884 0.97886 0.52373 0.0
H172 H 0.99793 0.83159 0.57017 0.0
H173 H 0.91305 0.71328 0.55128 0.0
C174 C 0.74855 0.71025 0.51846 0.0
C175 C 0.66386 0.71751 0.50066 0.0
C176 C 0.80147 0.77753 0.5263 0.0
C177 C 0.63343 0.7922 0.48955 0.0
C178 C 0.68464 0.85973 0.49809 0.0
C179 C 0.81675 0.9208 0.52848 0.0
C180 C 0.89929 0.9136 0.54804 0.0
C181 C 0.76799 0.8532 0.51712 0.0
C182 C 0.93425 0.83821 0.55515 0.0
C183 C 0.88575 0.77072 0.54444 0.0
H184 H 0.62367 0.26535 0.49733 0.0
H185 H 0.7856 0.4441 0.44716 0.0
H186 H 0.88921 0.34343 0.42675 0.0
H187 H 0.92614 0.20389 0.41876 0.0
H188 H 0.75491 0.02401 0.46276 0.0
H189 H 0.66269 0.12505 0.49031 0.0
C190 C 0.68297 0.28197 0.4827 0.0
C191 C 0.69837 0.36157 0.47413 0.0
C192 C 0.73953 0.22343 0.46953 0.0
C193 C 0.77357 0.38294 0.4543 0.0
C194 C 0.83219 0.32546 0.44242 0.0
C195 C 0.86832 0.18697 0.43423 0.0
C196 C 0.84729 0.10671 0.43891 0.0
C197 C 0.81442 0.24542 0.449 0.0
C198 C 0.77308 0.08545 0.45944 0.0
C199 C 0.72013 0.1432 0.47494 0.0
H200 H 0.21207 0.41951 0.51487 0.0
H201 H 0.35473 0.25151 0.45132 0.0
H202 H 0.24333 0.14888 0.46531 0.0
H203 H 0.12219 0.10361 0.505 0.0
H204 H 0.98545 0.27256 0.5705 0.0
H205 H 0.07656 0.37924 0.54585 0.0
C206 C 0.21719 0.36078 0.50336 0.0
C207 C 0.29117 0.34213 0.48252 0.0
C208 C 0.15457 0.30256 0.51221 0.0
C209 C 0.29779 0.26661 0.46739 0.0
C210 C 0.23463 0.20809 0.47566 0.0
C211 C 0.11052 0.16407 0.5129 0.0
C212 C 0.0484 0.18033 0.53992 0.0
C213 C 0.16503 0.2247 0.49937 0.0
C214 C 0.03395 0.25881 0.55014 0.0
C215 C 0.08611 0.31962 0.53616 0.0
H216 H 0.29568 0.75893 0.52471 0.0
H217 H 0.19216 0.56103 0.46173 0.0
H218 H 0.06455 0.6385 0.43926 0.0
H219 H 1.00115 0.76961 0.42748 0.0
H220 H 0.1019 0.96832 0.4902 0.0
H221 H 0.2104 0.88416 0.52328 0.0
C222 C 0.24301 0.73221 0.50738 0.0
C223 C 0.25322 0.65508 0.4945 0.0
C224 C 0.17044 0.77789 0.49381 0.0
C225 C 0.18533 0.62078 0.47174 0.0
C226 C 0.11281 0.66515 0.45862 0.0
C227 C 0.04542 0.79366 0.44908 0.0
C228 C 0.0454 0.87478 0.45604 0.0
C229 C 0.10755 0.74494 0.4678 0.0
C230 C 0.10178 0.90582 0.48434 0.0
C231 C 0.16401 0.85779 0.5031 0.0
H232 H 0.08937 0.07545 0.20878 0.0
H233 H 0.01161 0.83195 0.19407 0.0
H234 H 0.98733 0.81908 0.2599 0.0
H235 H 0.98055 0.87933 0.32091 0.0
H236 H 0.0493 0.12517 0.33525 0.0
H237 H 0.08449 0.1355 0.27037 0.0
C238 C 0.0681 0.01958 0.22028 0.0
C239 C 0.05267 0.95453 0.19709 0.0
C240 C 0.05197 0.01342 0.25789 0.0
C241 C 0.02395 0.88249 0.21177 0.0
C242 C 1.00996 0.87527 0.24925 0.0
C243 C 1.00417 0.93486 0.30983 0.0
C244 C 0.01236 0.00138 0.33266 0.0
C245 C 0.02264 0.94059 0.27248 0.0
C246 C 0.04185 0.07337 0.31801 0.0
C247 C 0.0622 0.07921 0.28101 0.0
H248 H 1.00297 0.08437 0.79267 0.0
H249 H 0.16497 0.87626 0.78536 0.0
H250 H 0.15347 0.88307 0.71814 0.0
H251 H 0.09125 0.94542 0.66174 0.0
H252 H 0.93461 0.15673 0.66918 0.0
H253 H 0.95014 0.15219 0.73631 0.0
C254 C 0.03591 0.04087 0.77619 0.0
C255 C 0.08396 0.97953 0.79348 0.0
C256 C 0.02972 0.0458 0.73785 0.0
C257 C 0.12769 0.92389 0.77229 0.0
C258 C 0.12084 0.92766 0.73403 0.0
C259 C 0.06098 0.99044 0.67823 0.0
C260 C 0.01129 0.05089 0.661 0.0
C261 C 0.07112 0.98782 0.71657 0.0
C262 C 0.97314 0.10979 0.6822 0.0
C263 C 0.98177 0.10702 0.72042 0.0
H264 H 0.41293 0.49715 0.70425 0.0
H265 H 0.67167 0.39492 0.68585 0.0
H266 H 0.70241 0.38644 0.75182 0.0
H267 H 0.66103 0.41794 0.81459 0.0
H268 H 0.39729 0.5096 0.83294 0.0
H269 H 0.36318 0.5109 0.76705 0.0
C270 C 0.47527 0.47126 0.71447 0.0
C271 C 0.5405 0.44842 0.6898 0.0
C272 C 0.4921 0.46508 0.75253 0.0
C273 C 0.62114 0.41555 0.70399 0.0
C274 C 0.63867 0.40999 0.7418 0.0
C275 C 0.59529 0.43649 0.80433 0.0
C276 C 0.53273 0.46527 0.8288 0.0
C277 C 0.57543 0.43619 0.76634 0.0
C278 C 0.44796 0.48936 0.81477 0.0
C279 C 0.42806 0.48974 0.77705 0.0
H280 H 0.34949 0.54286 0.27641 0.0
H281 H 0.59282 0.68104 0.29305 0.0
H282 H 0.60776 0.69056 0.22701 0.0
H283 H 0.56308 0.64407 0.16552 0.0
H284 H 0.31219 0.51746 0.14832 0.0
H285 H 0.28803 0.52106 0.21402 0.0
C286 C 0.40447 0.57717 0.26585 0.0
C287 C 0.47156 0.6087 0.28997 0.0
C288 C 0.41183 0.58407 0.22776 0.0
C289 C 0.54212 0.653 0.27531 0.0
C290 C 0.55041 0.65923 0.23746 0.0
C291 C 0.50149 0.61956 0.17577 0.0
C292 C 0.44095 0.57845 0.15203 0.0
C293 C 0.48739 0.62252 0.2135 0.0
C294 C 0.36162 0.54706 0.16613 0.0
C295 C 0.34749 0.54931 0.2037 0.0
loop_
_geom_bond_atom_site_label_1
_geom_bond_atom_site_label_2
_geom_bond_distance
_geom_bond_site_symmetry_2
_ccdc_geom_bond_type
C0 O16 1.251 . S
C0 O18 1.254 1_554 S
N1 C2 1.333 1_445 S
N1 C6 1.307 . S
N1 Zn7 2.020 . S
C2 N1 1.333 1_665 S
C2 C3 1.379 . S
C2 H20 0.952 . S
C3 C2 1.379 . S
C3 C4 1.390 1_665 S
C3 H30 0.949 . S
C4 C3 1.390 1_445 S
C4 C5 1.357 . S
C5 C4 1.357 . S
C5 C6 1.370 . S
C5 H31 0.950 . S
C6 N1 1.307 . S
C6 C5 1.370 . S
C6 H24 0.948 . S
Zn7 N1 2.020 . S
Zn7 O16 2.039 1_445 S
Zn7 O22 2.034 1_455 S
Zn7 O26 2.025 . S
Zn7 O28 2.024 1_545 S
C8 O27 1.246 1_554 S
C8 O28 1.249 . S
N9 C10 1.307 1_445 S
N9 C11 1.333 . S
N9 Zn15 2.020 . S
C10 N9 1.307 1_665 S
C10 C14 1.370 . S
C10 H21 0.948 . S
C11 N9 1.333 . S
C11 C12 1.379 . S
C11 H19 0.952 . S
C12 C11 1.379 . S
C12 C13 1.390 . S
C12 H32 0.949 . S
C13 C12 1.390 . S
C13 C14 1.357 1_445 S
C14 C10 1.370 . S
C14 C13 1.357 1_665 S
C14 H33 0.950 . S
Zn15 N9 2.020 . S
Zn15 O18 2.025 1_445 S
Zn15 O23 2.024 1_455 S
Zn15 O25 2.039 . S
Zn15 O27 2.034 1_545 S
O16 C0 1.251 . S
O16 Zn7 2.039 1_665 S
C17 O22 1.246 . S
C17 O23 1.249 1_554 S
O18 C0 1.254 1_556 S
O18 Zn15 2.025 1_665 S
H19 C11 0.952 . S
H20 C2 0.952 . S
H21 C10 0.948 . S
O22 Zn7 2.034 1_655 S
O22 C17 1.246 . S
O23 Zn15 2.024 1_655 S
O23 C17 1.249 1_556 S
H24 C6 0.948 . S
O25 Zn15 2.039 . S
O25 C29 1.251 1_556 S
O26 Zn7 2.025 . S
O26 C29 1.254 . S
O27 C8 1.246 1_556 S
O27 Zn15 2.034 1_565 S
O28 Zn7 2.024 1_565 S
O28 C8 1.249 . S
C29 O25 1.251 1_554 S
C29 O26 1.254 . S
H30 C3 0.949 . S
H31 C5 0.950 . S
H32 C12 0.949 . S
H33 C14 0.950 . S
C34 O50 1.251 . S
C34 O52 1.254 . S
N35 C36 1.333 . S
N35 C40 1.307 . S
N35 Zn41 2.020 . S
C36 N35 1.333 . S
C36 C37 1.379 . S
C36 H54 0.952 . S
C37 C36 1.379 . S
C37 C38 1.390 . S
C37 H64 0.949 . S
C38 C37 1.390 . S
C38 C39 1.357 . S
C39 C38 1.357 . S
C39 C40 1.370 . S
C39 H65 0.950 . S
C40 N35 1.307 . S
C40 C39 1.370 . S
C40 H58 0.948 . S
Zn41 N35 2.020 . S
Zn41 O50 2.039 . S
Zn41 O56 2.034 . S
Zn41 O60 2.025 . S
Zn41 O62 2.024 . S
C42 O61 1.246 . S
C42 O62 1.249 . S
N43 C44 1.307 . S
N43 C45 1.333 . S
N43 Zn49 2.020 . S
C44 N43 1.307 . S
C44 C48 1.370 . S
C44 H55 0.948 . S
C45 N43 1.333 . S
C45 C46 1.379 . S
C45 H53 0.952 . S
C46 C45 1.379 . S
C46 C47 1.390 . S
C46 H66 0.949 . S
C47 C46 1.390 . S
C47 C48 1.357 . S
C48 C44 1.370 . S
C48 C47 1.357 . S
C48 H67 0.950 . S
Zn49 N43 2.020 . S
Zn49 O52 2.025 . S
Zn49 O57 2.024 . S
Zn49 O59 2.039 . S
Zn49 O61 2.034 . S
O50 C34 1.251 . S
O50 Zn41 2.039 . S
C51 O56 1.246 . S
C51 O57 1.249 . S
O52 C34 1.254 . S
O52 Zn49 2.025 . S
H53 C45 0.952 . S
H54 C36 0.952 . S
H55 C44 0.948 . S
O56 Zn41 2.034 . S
O56 C51 1.246 . S
O57 Zn49 2.024 . S
O57 C51 1.249 . S
H58 C40 0.948 . S
O59 Zn49 2.039 . S
O59 C63 1.251 . S
O60 Zn41 2.025 . S
O60 C63 1.254 . S
O61 C42 1.246 . S
O61 Zn49 2.034 . S
O62 Zn41 2.024 . S
O62 C42 1.249 . S
C63 O59 1.251 . S
C63 O60 1.254 . S
H64 C37 0.949 . S
H65 C39 0.950 . S
H66 C46 0.949 . S
H67 C48 0.950 . S
H68 C71 0.931 . S
H69 C74 0.928 . S
H70 C76 0.930 . S
C71 H68 0.931 . S
C71 C72 1.413 . S
C71 C73 1.358 1_545 S
C72 C71 1.413 . S
C72 C76 1.429 1_645 S
C73 C71 1.358 1_565 S
C73 C74 1.374 1_655 S
C74 H69 0.928 . S
C74 C73 1.374 1_455 S
C74 C75 1.404 . S
C75 C74 1.404 . S
C75 C76 1.391 . S
C76 H70 0.930 . S
C76 C72 1.429 1_465 S
C76 C75 1.391 . S
H77 C80 0.931 . S
H78 C83 0.928 . S
H79 C85 0.930 . S
C80 H77 0.931 . S
C80 C81 1.413 . S
C80 C82 1.360 1_665 S
C81 C80 1.413 . S
C81 C85 1.429 1_665 S
C82 C80 1.360 1_445 S
C82 C83 1.372 . S
C83 H78 0.928 . S
C83 C82 1.372 . S
C83 C84 1.404 . S
C84 C83 1.404 . S
C84 C85 1.391 . S
C85 H79 0.930 . S
C85 C81 1.429 1_445 S
C85 C84 1.391 . S
H86 C89 0.931 . S
H87 C92 0.928 . S
H88 C94 0.930 1_554 S
C89 H86 0.931 . S
C89 C90 1.413 . S
C89 C91 1.360 . S
C90 C89 1.413 . S
C90 C94 1.429 . S
C91 C89 1.360 . S
C91 C92 1.372 . S
C92 H87 0.928 . S
C92 C91 1.372 . S
C92 C93 1.404 . S
C93 C92 1.404 . S
C93 C94 1.391 . S
C94 H88 0.930 1_556 S
C94 C90 1.429 . S
C94 C93 1.391 . S
H95 C98 0.931 . S
H96 C101 0.928 . S
H97 C103 0.959 . S
C98 H95 0.931 . S
C98 C99 1.413 . S
C98 C100 1.360 . S
C99 C98 1.413 . S
C99 C103 1.429 . S
C100 C98 1.360 . S
C100 C101 1.372 . S
C101 H96 0.928 . S
C101 C100 1.372 . S
C101 C102 1.404 . S
C102 C101 1.404 . S
C102 C103 1.391 . S
C103 H97 0.959 . S
C103 C99 1.429 . S
C103 C102 1.391 . S
H104 C110 0.930 1_556 S
H105 C113 0.930 . S
H106 C114 0.930 . S
H107 C115 0.930 . S
H108 C118 0.930 . S
H109 C119 0.930 1_556 S
C110 H104 0.930 1_554 S
C110 C111 1.355 . S
C110 C112 1.415 . S
C111 C110 1.355 . S
C111 C113 1.419 . S
C112 C110 1.415 . S
C112 C117 1.425 . S
C112 C119 1.409 . S
C113 H105 0.930 . S
C113 C111 1.419 . S
C113 C114 1.362 . S
C114 H106 0.930 . S
C114 C113 1.362 . S
C114 C117 1.409 . S
C115 H107 0.930 . S
C115 C116 1.355 . S
C115 C117 1.415 . S
C116 C115 1.355 . S
C116 C118 1.419 . S
C117 C112 1.425 . S
C117 C114 1.409 . S
C117 C115 1.415 . S
C118 H108 0.930 . S
C118 C116 1.419 . S
C118 C119 1.362 . S
C119 H109 0.930 1_554 S
C119 C112 1.409 . S
C119 C118 1.362 . S
H120 C126 0.930 . S
H121 C129 0.930 . S
H122 C130 0.930 . S
H123 C131 0.930 . S
H124 C134 0.930 . S
H125 C135 0.930 . S
C126 H120 0.930 . S
C126 C127 1.355 1_556 S
C126 C128 1.415 . S
C127 C126 1.355 1_554 S
C127 C129 1.419 . S
C128 C126 1.415 . S
C128 C133 1.425 . S
C128 C135 1.409 . S
C129 H121 0.930 . S
C129 C127 1.419 . S
C129 C130 1.362 . S
C130 H122 0.930 . S
C130 C129 1.362 . S
C130 C133 1.409 1_554 S
C131 H123 0.930 . S
C131 C132 1.355 . S
C131 C133 1.415 . S
C132 C131 1.355 . S
C132 C134 1.419 . S
C133 C128 1.425 . S
C133 C130 1.409 1_556 S
C133 C131 1.415 . S
C134 H124 0.930 . S
C134 C132 1.419 . S
C134 C135 1.362 . S
C135 H125 0.930 . S
C135 C128 1.409 . S
C135 C134 1.362 . S
H136 C142 0.930 . S
H137 C145 0.930 . S
H138 C146 0.930 . S
H139 C147 0.930 . S
H140 C150 0.930 . S
H141 C151 0.930 . S
C142 H136 0.930 . S
C142 C143 1.355 . S
C142 C144 1.415 . S
C143 C142 1.355 . S
C143 C145 1.419 1_554 S
C144 C142 1.415 . S
C144 C149 1.425 . S
C144 C151 1.409 . S
C145 H137 0.930 . S
C145 C143 1.419 1_556 S
C145 C146 1.362 . S
C146 H138 0.930 . S
C146 C145 1.362 . S
C146 C149 1.409 1_556 S
C147 H139 0.930 . S
C147 C148 1.355 . S
C147 C149 1.415 . S
C148 C147 1.355 . S
C148 C150 1.419 . S
C149 C144 1.425 . S
C149 C146 1.409 1_554 S
C149 C147 1.415 . S
C150 H140 0.930 . S
C150 C148 1.419 . S
C150 C151 1.362 . S
C151 H141 0.930 . S
C151 C144 1.409 . S
C151 C150 1.362 . S
H152 C158 0.930 . S
H153 C161 0.930 . S
H154 C162 0.930 . S
H155 C163 0.930 . S
H156 C166 0.930 . S
H157 C167 0.930 . S
C158 H152 0.930 . S
C158 C159 1.355 1_556 S
C158 C160 1.415 . S
C159 C158 1.355 1_554 S
C159 C161 1.419 . S
C160 C158 1.415 . S
C160 C165 1.425 . S
C160 C167 1.409 . S
C161 H153 0.930 . S
C161 C159 1.419 . S
C161 C162 1.362 . S
C162 H154 0.930 . S
C162 C161 1.362 . S
C162 C165 1.409 1_554 S
C163 H155 0.930 . S
C163 C164 1.355 . S
C163 C165 1.415 . S
C164 C163 1.355 . S
C164 C166 1.419 . S
C165 C160 1.425 . S
C165 C162 1.409 1_556 S
C165 C163 1.415 . S
C166 H156 0.930 . S
C166 C164 1.419 . S
C166 C167 1.362 . S
C167 H157 0.930 . S
C167 C160 1.409 . S
C167 C166 1.362 . S
H168 C174 0.930 . S
H169 C177 0.930 . S
H170 C178 0.930 . S
H171 C179 0.930 . S
H172 C182 0.930 . S
H173 C183 0.930 . S
C174 H168 0.930 . S
C174 C175 1.355 . S
C174 C176 1.415 . S
C175 C174 1.355 . S
C175 C177 1.419 . S
C176 C174 1.415 . S
C176 C181 1.425 . S
C176 C183 1.409 . S
C177 H169 0.930 . S
C177 C175 1.419 . S
C177 C178 1.362 . S
C178 H170 0.930 . S
C178 C177 1.362 . S
C178 C181 1.409 . S
C179 H171 0.930 . S
C179 C180 1.355 . S
C179 C181 1.415 . S
C180 C179 1.355 . S
C180 C182 1.419 . S
C181 C176 1.425 . S
C181 C178 1.409 . S
C181 C179 1.415 . S
C182 H172 0.930 . S
C182 C180 1.419 . S
C182 C183 1.362 . S
C183 H173 0.930 . S
C183 C176 1.409 . S
C183 C182 1.362 . S
H184 C190 0.930 . S
H185 C193 0.930 . S
H186 C194 0.930 . S
H187 C195 0.930 . S
H188 C198 0.930 . S
H189 C199 0.930 . S
C190 H184 0.930 . S
C190 C191 1.355 . S
C190 C192 1.415 . S
C191 C190 1.355 . S
C191 C193 1.419 . S
C192 C190 1.415 . S
C192 C197 1.425 . S
C192 C199 1.409 . S
C193 H185 0.930 . S
C193 C191 1.419 . S
C193 C194 1.362 . S
C194 H186 0.930 . S
C194 C193 1.362 . S
C194 C197 1.409 . S
C195 H187 0.930 . S
C195 C196 1.355 . S
C195 C197 1.415 . S
C196 C195 1.355 . S
C196 C198 1.419 . S
C197 C192 1.425 . S
C197 C194 1.409 . S
C197 C195 1.415 . S
C198 H188 0.930 . S
C198 C196 1.419 . S
C198 C199 1.362 . S
C199 H189 0.930 . S
C199 C192 1.409 . S
C199 C198 1.362 . S
H200 C206 0.930 . S
H201 C209 0.930 . S
H202 C210 0.930 . S
H203 C211 0.930 . S
H204 C214 0.930 . S
H205 C215 0.930 . S
C206 H200 0.930 . S
C206 C207 1.355 . S
C206 C208 1.415 . S
C207 C206 1.355 . S
C207 C209 1.419 . S
C208 C206 1.415 . S
C208 C213 1.425 . S
C208 C215 1.409 . S
C209 H201 0.930 . S
C209 C207 1.419 . S
C209 C210 1.362 . S
C210 H202 0.930 . S
C210 C209 1.362 . S
C210 C213 1.409 . S
C211 H203 0.930 . S
C211 C212 1.355 . S
C211 C213 1.415 . S
C212 C211 1.355 . S
C212 C214 1.419 . S
C213 C208 1.425 . S
C213 C210 1.409 . S
C213 C211 1.415 . S
C214 H204 0.930 . S
C214 C212 1.419 . S
C214 C215 1.362 . S
C215 H205 0.930 . S
C215 C208 1.409 . S
C215 C214 1.362 . S
H216 C222 0.930 . S
H217 C225 0.930 . S
H218 C226 0.930 . S
H219 C227 0.930 . S
H220 C230 0.930 . S
H221 C231 0.930 . S
C222 H216 0.930 . S
C222 C223 1.355 . S
C222 C224 1.415 . S
C223 C222 1.355 . S
C223 C225 1.419 . S
C224 C222 1.415 . S
C224 C229 1.425 . S
C224 C231 1.409 . S
C225 H217 0.930 . S
C225 C223 1.419 . S
C225 C226 1.362 . S
C226 H218 0.930 . S
C226 C225 1.362 . S
C226 C229 1.409 . S
C227 H219 0.930 . S
C227 C228 1.355 . S
C227 C229 1.415 . S
C228 C227 1.355 . S
C228 C230 1.419 . S
C229 C224 1.425 . S
C229 C226 1.409 . S
C229 C227 1.415 . S
C230 H220 0.930 . S
C230 C228 1.419 . S
C230 C231 1.362 . S
C231 H221 0.930 . S
C231 C224 1.409 . S
C231 C230 1.362 . S
H232 C238 0.930 . S
H233 C241 0.930 . S
H234 C242 0.930 . S
H235 C243 0.930 . S
H236 C246 0.930 . S
H237 C247 0.930 . S
C238 H232 0.930 . S
C238 C239 1.355 1_545 S
C238 C240 1.415 . S
C239 C238 1.355 1_565 S
C239 C241 1.419 . S
C240 C238 1.415 . S
C240 C245 1.426 1_545 S
C240 C247 1.409 1_455 S
C241 H233 0.930 . S
C241 C239 1.419 . S
C241 C242 1.362 . S
C242 H234 0.930 . S
C242 C241 1.362 . S
C242 C245 1.410 . S
C243 H235 0.930 . S
C243 C244 1.355 1_565 S
C243 C245 1.414 1_655 S
C244 C243 1.355 1_545 S
C244 C246 1.419 . S
C245 C240 1.426 1_565 S
C245 C242 1.410 . S
C245 C243 1.414 1_455 S
C246 H236 0.930 . S
C246 C244 1.419 . S
C246 C247 1.363 . S
C247 H237 0.930 . S
C247 C240 1.409 1_655 S
C247 C246 1.363 . S
H248 C254 0.930 1_655 S
H249 C257 0.930 . S
H250 C258 0.930 . S
H251 C259 0.930 . S
H252 C262 0.930 1_655 S
H253 C263 0.931 . S
C254 H248 0.930 1_455 S
C254 C255 1.355 . S
C254 C256 1.415 . S
C255 C254 1.355 . S
C255 C257 1.419 1_545 S
C256 C254 1.415 . S
C256 C261 1.425 1_545 S
C256 C263 1.409 1_455 S
C257 H249 0.930 . S
C257 C255 1.419 1_565 S
C257 C258 1.362 . S
C258 H250 0.930 . S
C258 C257 1.362 . S
C258 C261 1.409 . S
C259 H251 0.930 . S
C259 C260 1.355 1_565 S
C259 C261 1.415 . S
C260 C259 1.355 1_545 S
C260 C262 1.419 . S
C261 C256 1.425 1_565 S
C261 C258 1.409 . S
C261 C259 1.415 . S
C262 H252 0.930 1_455 S
C262 C260 1.419 . S
C262 C263 1.362 1_455 S
C263 H253 0.931 . S
C263 C256 1.409 1_655 S
C263 C262 1.362 1_655 S
H264 C270 0.930 . S
H265 C273 0.930 . S
H266 C274 0.930 . S
H267 C275 0.930 . S
H268 C278 0.930 . S
H269 C279 0.930 . S
C270 H264 0.930 . S
C270 C271 1.355 . S
C270 C272 1.415 . S
C271 C270 1.355 . S
C271 C273 1.419 . S
C272 C270 1.415 . S
C272 C277 1.425 . S
C272 C279 1.409 . S
C273 H265 0.930 . S
C273 C271 1.419 . S
C273 C274 1.362 . S
C274 H266 0.930 . S
C274 C273 1.362 . S
C274 C277 1.409 . S
C275 H267 0.930 . S
C275 C276 1.355 . S
C275 C277 1.415 . S
C276 C275 1.355 . S
C276 C278 1.419 . S
C277 C272 1.425 . S
C277 C274 1.409 . S
C277 C275 1.415 . S
C278 H268 0.930 . S
C278 C276 1.419 . S
C278 C279 1.362 . S
C279 H269 0.930 . S
C279 C272 1.409 . S
C279 C278 1.362 . S
H280 C286 0.930 . S
H281 C289 0.930 . S
H282 C290 0.930 . S
H283 C291 0.930 . S
H284 C294 0.930 . S
H285 C295 0.930 . S
C286 H280 0.930 . S
C286 C287 1.355 . S
C286 C288 1.415 . S
C287 C286 1.355 . S
C287 C289 1.419 . S
C288 C286 1.415 . S
C288 C293 1.425 . S
C288 C295 1.409 . S
C289 H281 0.930 . S
C289 C287 1.419 . S
C289 C290 1.362 . S
C290 H282 0.930 . S
C290 C289 1.362 . S
C290 C293 1.409 . S
C291 H283 0.930 . S
C291 C292 1.355 . S
C291 C293 1.415 . S
C292 C291 1.355 . S
C292 C294 1.419 . S
C293 C288 1.425 . S
C293 C290 1.409 . S
C293 C291 1.415 . S
C294 H284 0.930 . S
C294 C292 1.419 . S
C294 C295 1.362 . S
C295 H285 0.930 . S
C295 C288 1.409 . S
C295 C294 1.362 . S
C116 C99 1.398 . S
C111 C29 1.386 . S
C127 C8 1.401 . S
C132 C90 1.383 . S
C143 C0 1.396 . S
C148 C102 1.371 . S
C159 C17 1.388 . S
C164 C93 1.363 . S
C175 C63 1.379 . S
C180 C81 1.404 . S
C191 C42 1.386 . S
C196 C72 1.403 . S
C212 C84 1.402 . S
C207 C34 1.383 . S
C228 C75 1.404 . S
C223 C51 1.374 . S
C239 C4 1.489 1_565 S
C244 C73 1.488 1_545 S
C255 C13 1.477 . S
C260 C82 1.485 . S
C276 C91 1.488 . S
C271 C38 1.481 . S
C287 C47 1.491 . S
C292 C100 1.485 . S
