# Generated by pormake.
# Topology zzz, (3,6)-cn, num edge types: 1
# Building blocks:
#     Node 0, Type 0, BuildingBlock: PAMTOO_clean_linker_0, # of connection points: 3
#     Node 1, Type 0, BuildingBlock: PAMTOO_clean_linker_0, # of connection points: 3
#     Node 2, Type 0, BuildingBlock: PAMTOO_clean_linker_0, # of connection points: 3
#     Node 3, Type 0, BuildingBlock: PAMTOO_clean_linker_0, # of connection points: 3
#     Node 4, Type 0, BuildingBlock: PAMTOO_clean_linker_0, # of connection points: 3
#     Node 5, Type 0, BuildingBlock: PAMTOO_clean_linker_0, # of connection points: 3
#     Node 6, Type 0, BuildingBlock: PAMTOO_clean_linker_0, # of connection points: 3
#     Node 7, Type 0, BuildingBlock: PAMTOO_clean_linker_0, # of connection points: 3
#     Node 8, Type 1, BuildingBlock: INOVEN_clean_sbu_0, # of connection points: 6
#     Node 9, Type 1, BuildingBlock: INOVEN_clean_sbu_0, # of connection points: 6
#     Node 10, Type 1, BuildingBlock: INOVEN_clean_sbu_0, # of connection points: 6
#     Node 11, Type 1, BuildingBlock: INOVEN_clean_sbu_0, # of connection points: 6
#     Edge 12, Type (0, 1), BuildingBlock: XUDNAN_clean_linker_2, # of connection points: 2
#     Edge 13, Type (0, 1), BuildingBlock: XUDNAN_clean_linker_2, # of connection points: 2
#     Edge 14, Type (0, 1), BuildingBlock: XUDNAN_clean_linker_2, # of connection points: 2
#     Edge 15, Type (0, 1), BuildingBlock: XUDNAN_clean_linker_2, # of connection points: 2
#     Edge 16, Type (0, 1), BuildingBlock: XUDNAN_clean_linker_2, # of connection points: 2
#     Edge 17, Type (0, 1), BuildingBlock: XUDNAN_clean_linker_2, # of connection points: 2
#     Edge 18, Type (0, 1), BuildingBlock: XUDNAN_clean_linker_2, # of connection points: 2
#     Edge 19, Type (0, 1), BuildingBlock: XUDNAN_clean_linker_2, # of connection points: 2
#     Edge 20, Type (0, 1), BuildingBlock: XUDNAN_clean_linker_2, # of connection points: 2
#     Edge 21, Type (0, 1), BuildingBlock: XUDNAN_clean_linker_2, # of connection points: 2
#     Edge 22, Type (0, 1), BuildingBlock: XUDNAN_clean_linker_2, # of connection points: 2
#     Edge 23, Type (0, 1), BuildingBlock: XUDNAN_clean_linker_2, # of connection points: 2
#     Edge 24, Type (0, 1), BuildingBlock: XUDNAN_clean_linker_2, # of connection points: 2
#     Edge 25, Type (0, 1), BuildingBlock: XUDNAN_clean_linker_2, # of connection points: 2
#     Edge 26, Type (0, 1), BuildingBlock: XUDNAN_clean_linker_2, # of connection points: 2
#     Edge 27, Type (0, 1), BuildingBlock: XUDNAN_clean_linker_2, # of connection points: 2
#     Edge 28, Type (0, 1), BuildingBlock: XUDNAN_clean_linker_2, # of connection points: 2
#     Edge 29, Type (0, 1), BuildingBlock: XUDNAN_clean_linker_2, # of connection points: 2
#     Edge 30, Type (0, 1), BuildingBlock: XUDNAN_clean_linker_2, # of connection points: 2
#     Edge 31, Type (0, 1), BuildingBlock: XUDNAN_clean_linker_2, # of connection points: 2
#     Edge 32, Type (0, 1), BuildingBlock: XUDNAN_clean_linker_2, # of connection points: 2
#     Edge 33, Type (0, 1), BuildingBlock: XUDNAN_clean_linker_2, # of connection points: 2
#     Edge 34, Type (0, 1), BuildingBlock: XUDNAN_clean_linker_2, # of connection points: 2
#     Edge 35, Type (0, 1), BuildingBlock: XUDNAN_clean_linker_2, # of connection points: 2
# Relax obj value: 0.260
# Max RMSD: 0.186
# Mean RMSD: 0.159
data_MOF--net-zzz--node1-INOVEN_clean_sbu_0--node2-PAMTOO_clean_linker_0--edge1-XUDNAN_clean_linker_2
_symmetry_space_group_name_H-M    P1
_symmetry_Int_Tables_number       1
_symmetry_cell_setting            triclinic
loop_
_symmetry_equiv_pos_as_xyz
'x, y, z'
_cell_length_a     52.252217
_cell_length_b     52.132772
_cell_length_c     13.36912
_cell_angle_alpha  89.959797
_cell_angle_beta   90.234739
_cell_angle_gamma 89.861101
loop_
_atom_site_label
_atom_site_type_symbol
_atom_site_fract_x
_atom_site_fract_y
_atom_site_fract_z
_atom_type_partial_charge
H0 H 0.80774 0.50045 0.46947 0.0
H1 H 0.73478 0.49132 0.3453 0.0
H2 H 0.75174 0.56014 0.5197 0.0
H3 H 0.69535 0.50316 0.37538 0.0
C4 C 0.69871 0.52186 0.33715 0.0
O5 O 0.71425 0.53663 0.40211 0.0
H6 H 0.70981 0.51854 0.26734 0.0
C7 C 0.78822 0.50762 0.46532 0.0
C8 C 0.78196 0.53084 0.51067 0.0
C9 C 0.77102 0.49425 0.40661 0.0
C10 C 0.74658 0.50327 0.39247 0.0
C11 C 0.7385 0.52742 0.42964 0.0
C12 C 0.75685 0.54153 0.48995 0.0
H13 H 0.98732 0.80706 0.40088 0.0
H14 H 0.9958 0.73099 0.28878 0.0
H15 H 0.01771 0.74768 0.59295 0.0
H16 H 0.0428 0.68835 0.45809 0.0
C17 C 0.02982 0.69705 0.4015 0.0
O18 O 1.00988 0.70956 0.45216 0.0
H19 H 0.04161 0.7113 0.36016 0.0
C20 C 0.99167 0.78704 0.41578 0.0
C21 C 1.00274 0.7804 0.50769 0.0
C22 C 0.99257 0.77018 0.33486 0.0
C23 C 0.99596 0.74408 0.35178 0.0
C24 C 1.00471 0.73534 0.44434 0.0
C25 C 1.00914 0.7538 0.52304 0.0
H26 H 0.72205 0.99257 0.43568 0.0
H27 H 0.79245 0.98714 0.2901 0.0
H28 H 0.78766 0.02908 0.57165 0.0
H29 H 0.81866 0.01968 0.26599 0.0
C30 C 0.83236 1.01161 0.32197 0.0
O31 O 0.8209 1.01568 0.41664 0.0
H32 H 0.83377 0.99052 0.31038 0.0
C33 C 0.74262 0.99547 0.4403 0.0
C34 C 0.75293 1.00913 0.52058 0.0
C35 C 0.75669 0.99111 0.35473 0.0
C36 C 0.78293 0.99348 0.3572 0.0
C37 C 0.79539 1.00821 0.43203 0.0
C38 C 0.77956 1.01682 0.51445 0.0
H39 H 0.5367 0.72874 0.38711 0.0
H40 H 0.53476 0.8062 0.28278 0.0
H41 H 0.51769 0.78962 0.59219 0.0
H42 H 0.48959 0.84784 0.45671 0.0
C43 C 0.50312 0.84082 0.39896 0.0
O44 O 0.52303 0.82756 0.44787 0.0
H45 H 0.49172 0.82748 0.35152 0.0
C46 C 0.53463 0.74898 0.40412 0.0
C47 C 0.52765 0.75617 0.50095 0.0
C48 C 0.53578 0.7667 0.32557 0.0
C49 C 0.53377 0.79275 0.34452 0.0
C50 C 0.52698 0.80157 0.43902 0.0
C51 C 0.52361 0.78315 0.51893 0.0
H52 H 0.23333 0.54139 0.03386 0.0
H53 H 0.3049 0.53157 0.18663 0.0
H54 H 0.28419 0.48044 0.94805 0.0
H55 H 0.34469 0.52551 0.05957 0.0
C56 C 0.34601 0.50473 0.07846 0.0
O57 O 0.32144 0.49396 0.08356 0.0
H58 H 0.35646 0.49545 0.01603 0.0
C59 C 0.25217 0.53257 0.03685 0.0
C60 C 0.25648 0.51104 0.9772 0.0
C61 C 0.26849 0.53844 0.11728 0.0
C62 C 0.29252 0.52702 0.12382 0.0
C63 C 0.29921 0.50688 0.06079 0.0
C64 C 0.28058 0.49793 0.9892 0.0
H65 H 0.02536 0.22483 0.11434 0.0
H66 H 0.02464 0.30105 0.23163 0.0
H67 H 0.03756 0.28882 0.91552 0.0
H68 H 0.99843 0.33304 0.10941 0.0
C69 C 1.01653 0.34287 0.0883 0.0
O70 O 0.03574 0.32462 0.0687 0.0
H71 H 1.01237 0.35341 0.01789 0.0
C72 C 0.02799 0.24523 0.1012 0.0
C73 C 0.03269 0.25382 1.00433 0.0
C74 C 0.0237 0.26215 0.18036 0.0
C75 C 0.02739 0.28829 0.16855 0.0
C76 C 0.03239 0.29848 0.07414 0.0
C77 C 0.03429 0.2812 0.98966 0.0
H78 H 0.30935 0.03398 0.116 0.0
H79 H 0.23268 0.03209 0.22611 0.0
H80 H 0.24656 0.02405 0.90953 0.0
H81 H 0.20651 0.99368 0.13114 0.0
C82 C 0.19436 1.00882 0.09608 0.0
O83 O 0.20976 0.02848 0.05686 0.0
H84 H 0.18419 0.99952 0.0327 0.0
C85 C 0.28895 0.03406 0.09994 0.0
C86 C 0.28077 0.03049 1.00131 0.0
C87 C 0.27186 0.03303 0.18005 0.0
C88 C 0.24563 0.03269 0.16302 0.0
C89 C 0.23594 0.02959 0.06662 0.0
C90 C 0.25368 0.02754 0.98442 0.0
H91 H 0.52428 0.30833 0.10362 0.0
H92 H 0.51582 0.2332 0.22652 0.0
H93 H 0.49468 0.24752 0.91787 0.0
H94 H 0.53435 0.19673 0.09384 0.0
C95 C 0.51423 0.19012 0.08509 0.0
O96 O 0.4978 0.21126 0.0696 0.0
H97 H 0.51373 0.17811 0.01656 0.0
C98 C 0.5189 0.28843 0.09239 0.0
C99 C 0.50869 0.28106 1.00034 0.0
C100 C 0.52169 0.2713 0.17216 0.0
C101 C 0.51424 0.24593 0.16269 0.0
C102 C 0.50535 0.23655 0.07133 0.0
C103 C 0.5025 0.25424 0.98816 0.0
Gd104 Gd 0.0423 1.01536 0.82907 0.0
Gd105 Gd 0.99964 0.01951 0.66542 0.0
C106 C 0.0183 0.96235 0.72476 0.0
C107 C 0.06432 1.00248 0.99244 0.0
C108 C 0.06234 0.97696 0.03918 0.0
C109 C 0.08215 0.95914 0.02466 0.0
C110 C 0.03907 0.96854 0.07991 0.0
C111 C 0.05462 0.92453 0.08078 0.0
C112 C 0.03532 0.94264 0.10105 0.0
C113 C 0.07827 0.93321 0.04423 0.0
C114 C 0.06548 0.02123 0.64532 0.0
C115 C 0.02222 0.07278 0.77405 0.0
C116 C 0.97761 0.02941 0.49841 0.0
C117 C 0.97931 0.05402 0.44653 0.0
C118 C 0.95695 0.06869 0.43455 0.0
C119 C 1.00331 0.06596 0.43921 0.0
C120 C 0.98255 0.10734 0.42977 0.0
C121 C 1.00489 0.09245 0.43113 0.0
C122 C 0.95856 0.09529 0.4265 0.0
C123 C 0.97616 1.01482 0.84857 0.0
O124 O 0.03144 0.97308 0.79946 0.0
O125 O 1.00567 0.97648 0.65864 0.0
O126 O 0.07623 1.00246 0.90662 0.0
O127 O 0.04355 1.01669 0.99131 0.0
O128 O 0.07743 0.02047 0.73019 0.0
O129 O 0.04168 0.02012 0.66461 0.0
O130 O 1.00863 0.06198 0.70021 0.0
O131 O 0.0361 0.05859 0.83684 0.0
O132 O 0.96579 0.03106 0.5841 0.0
O133 O 0.99873 1.01581 0.50377 0.0
O134 O 0.96462 1.01532 0.76274 0.0
O135 O 1.00012 1.01508 0.83092 0.0
H136 H 0.10024 0.96505 0.99285 0.0
H137 H 0.02331 0.98171 0.09143 0.0
H138 H 0.01708 0.93685 0.13173 0.0
H139 H 0.09354 0.91994 0.02648 0.0
H140 H 0.93827 0.0599 0.4417 0.0
H141 H 0.02092 0.05522 0.44897 0.0
H142 H 0.02361 0.10135 0.43072 0.0
H143 H 0.94108 0.10649 0.42468 0.0
Gd144 Gd 0.51859 0.03937 0.83541 0.0
Gd145 Gd 0.51553 0.99778 0.67373 0.0
C146 C 0.57225 0.01925 0.72577 0.0
C147 C 0.53087 0.06045 1.00176 0.0
C148 C 0.55662 0.06018 0.04748 0.0
C149 C 0.57501 0.0783 0.0171 0.0
C150 C 0.56459 0.03873 0.10302 0.0
C151 C 0.60881 0.04984 0.07191 0.0
C152 C 0.59053 0.03352 0.1145 0.0
C153 C 0.60105 0.07307 0.02884 0.0
C154 C 0.51075 0.06498 0.6589 0.0
C155 C 0.46181 0.01835 0.78244 0.0
C156 C 0.50469 0.97639 0.50572 0.0
C157 C 0.47924 0.97484 0.45792 0.0
C158 C 0.46334 0.95379 0.47847 0.0
C159 C 0.46885 0.99628 0.40859 0.0
C160 C 0.42634 0.97768 0.41924 0.0
C161 C 0.44267 0.99763 0.38902 0.0
C162 C 0.43709 0.95532 0.46051 0.0
C163 C 0.52073 0.97288 0.85488 0.0
O164 O 0.56097 0.03388 0.79423 0.0
O165 O 0.55872 1.00359 0.6682 0.0
O166 O 0.52899 0.07336 0.91834 0.0
O167 O 0.51893 0.0384 0.99757 0.0
O168 O 0.51162 0.0752 0.7469 0.0
O169 O 0.51272 0.04055 0.66922 0.0
O170 O 0.473 1.00413 0.712 0.0
O171 O 0.4755 0.03335 0.8423 0.0
O172 O 0.50699 0.96354 0.58916 0.0
O173 O 0.51496 0.99924 0.51151 0.0
O174 O 0.51998 0.96175 0.76843 0.0
O175 O 0.5199 0.99705 0.8389 0.0
H176 H 0.5694 0.09537 0.97616 0.0
H177 H 0.55091 0.02478 0.12985 0.0
H178 H 0.59632 1.01586 0.15107 0.0
H179 H 0.61497 0.08612 0.99734 0.0
H180 H 0.47085 0.93685 0.51548 0.0
H181 H 0.48061 1.01271 0.39044 0.0
H182 H 0.43516 1.01475 0.35346 0.0
H183 H 0.42515 0.93955 0.48454 0.0
Gd184 Gd 0.49357 0.52124 0.82512 0.0
Gd185 Gd 0.53728 0.51638 0.66528 0.0
C186 C 0.51812 0.57386 0.71881 0.0
C187 C 0.4702 0.53528 0.98247 0.0
C188 C 0.47438 0.56037 0.0284 0.0
C189 C 0.45355 0.57641 0.04907 0.0
C190 C 0.49903 0.57076 0.02623 0.0
C191 C 0.48211 0.61289 0.06821 0.0
C192 C 0.50276 0.59673 0.04272 0.0
C193 C 0.45745 0.60212 0.07361 0.0
C194 C 0.47131 0.51158 0.64312 0.0
C195 C 0.51419 0.4635 0.77449 0.0
C196 C 0.5599 0.50678 0.50043 0.0
C197 C 0.55682 0.48322 0.44244 0.0
C198 C 0.57795 0.46678 0.43418 0.0
C199 C 0.53207 0.47361 0.42528 0.0
C200 C 0.54929 0.4306 0.41482 0.0
C201 C 0.52836 0.44745 0.41137 0.0
C202 C 0.57421 0.44058 0.42173 0.0
C203 C 0.55892 0.52569 0.84949 0.0
O204 O 0.50417 0.56341 0.79136 0.0
O205 O 0.53129 0.55948 0.65552 0.0
O206 O 0.45978 0.53705 0.89368 0.0
O207 O 0.4895 0.51903 0.98633 0.0
O208 O 0.45913 0.51338 0.72668 0.0
O209 O 0.49508 0.51404 0.6621 0.0
O210 O 0.5276 0.4741 0.70011 0.0
O211 O 0.50092 0.47801 0.83813 0.0
O212 O 0.57067 0.50279 0.5877 0.0
O213 O 0.53994 0.52208 0.50497 0.0
O214 O 0.57176 0.52238 0.76796 0.0
O215 O 0.5354 0.52371 0.82715 0.0
H216 H 0.43417 0.56939 0.04156 0.0
H217 H 0.51529 0.55925 1.00372 0.0
H218 H 0.52186 0.60396 0.0306 0.0
H219 H 0.44089 0.61349 0.09314 0.0
H220 H 0.59715 0.47376 0.44842 0.0
H221 H 0.51536 0.48582 0.43161 0.0
H222 H 0.50901 0.44033 0.40302 0.0
H223 H 0.59075 0.42804 0.42485 0.0
Gd224 Gd 1.01108 0.49952 0.80914 0.0
Gd225 Gd 0.02531 0.5419 0.67581 0.0
C226 C 0.9641 0.531 0.70446 0.0
C227 C 0.99776 0.47494 0.96572 0.0
C228 C 0.9736 0.47582 0.01824 0.0
C229 C 0.96292 0.45267 0.04875 0.0
C230 C 0.95914 0.49861 0.02219 0.0
C231 C 0.92408 0.47505 0.09459 0.0
C232 C 0.93441 0.49828 0.06111 0.0
C233 C 0.93825 0.45223 0.08546 0.0
C234 C 0.02045 0.47614 0.62943 0.0
C235 C 0.07236 0.51106 0.78452 0.0
C236 C 0.03516 0.56554 0.51307 0.0
C237 C 0.05599 0.5608 0.44407 0.0
C238 C 0.07325 0.58079 0.42896 0.0
C239 C 0.06289 0.53547 0.4196 0.0
C240 C 0.10564 0.54988 0.38159 0.0
C241 C 0.08767 0.53005 0.38801 0.0
C242 C 0.09804 0.57533 0.40003 0.0
C243 C 0.01759 0.56543 0.85582 0.0
O244 O 0.97045 0.51258 0.76822 0.0
O245 O 0.9821 0.54455 0.65994 0.0
O246 O 0.99574 0.4654 0.87597 0.0
O247 O 1.01196 0.49555 0.97025 0.0
O248 O 1.01326 0.46461 0.70973 0.0
O249 O 0.02216 0.50016 0.64737 0.0
O250 O 0.06608 0.52786 0.71365 0.0
O251 O 0.05418 0.49869 0.83364 0.0
O252 O 0.04318 0.57341 0.60061 0.0
O253 O 0.01744 0.54787 0.51837 0.0
O254 O 0.02438 0.57667 0.77425 0.0
O255 O 1.0152 0.54136 0.83889 0.0
H256 H 0.97345 0.43482 0.04179 0.0
H257 H 0.96677 0.51647 0.99378 0.0
H258 H 0.92363 0.516 0.06632 0.0
H259 H 0.93024 0.43395 0.10773 0.0
H260 H 0.06841 0.60029 0.45002 0.0
H261 H 0.04988 0.51966 0.43222 0.0
H262 H 0.09303 0.51034 0.373 0.0
H263 H 0.11164 0.59097 0.39834 0.0
H264 H 0.15653 0.97968 0.18496 0.0
H265 H 0.18657 0.05705 0.1879 0.0
H266 H 0.1544 0.0691 0.31549 0.0
H267 H 0.08938 0.99654 0.21915 0.0
H268 H 0.08241 0.96979 0.30005 0.0
H269 H 0.10728 0.96704 0.20774 0.0
H270 H 0.14029 0.95467 0.3419 0.0
H271 H 0.1157 0.95658 0.43553 0.0
H272 H 0.14461 0.97507 0.44948 0.0
H273 H 0.11873 0.07243 0.44935 0.0
H274 H 0.08635 0.06599 0.58167 0.0
H275 H 0.07921 0.98631 0.49602 0.0
C276 C 0.15621 0.99927 0.21182 0.0
C277 C 0.17416 1.01745 0.17413 0.0
C278 C 0.17312 0.04273 0.21328 0.0
C279 C 0.15476 0.04975 0.28629 0.0
C280 C 0.13729 0.0314 0.32093 0.0
C281 C 0.13802 1.00656 0.28522 0.0
C282 C 0.11779 0.99017 0.33743 0.0
C283 C 0.09801 0.98031 0.26155 0.0
C284 C 0.13036 0.9678 0.3945 0.0
C285 C 0.10566 1.00947 0.40914 0.0
C286 C 0.11703 0.03325 0.39754 0.0
C287 C 0.10963 0.05393 0.45753 0.0
C288 C 0.09088 0.05017 0.53223 0.0
C289 C 0.07921 0.02596 0.54766 0.0
C290 C 0.08676 1.00538 0.48402 0.0
H291 H 0.53263 0.1413 0.13099 0.0
H292 H 0.48212 0.19978 0.24984 0.0
H293 H 0.47442 0.17263 0.39853 0.0
H294 H 0.49415 0.08525 0.23026 0.0
H295 H 0.52337 0.06708 0.24458 0.0
H296 H 0.52087 0.09206 0.15086 0.0
H297 H 0.56286 0.11057 0.23084 0.0
H298 H 0.56214 0.08729 0.33027 0.0
H299 H 0.56189 0.12106 0.35935 0.0
H300 H 0.47218 0.13906 0.53624 0.0
H301 H 0.47769 0.10417 0.65775 0.0
H302 H 0.53063 0.06585 0.45798 0.0
C303 C 0.51972 0.14831 0.18799 0.0
C304 C 0.50772 0.17287 0.17653 0.0
C305 C 0.49137 0.18122 0.25446 0.0
C306 C 0.48688 0.16578 0.33983 0.0
C307 C 0.49884 0.14174 0.34801 0.0
C308 C 0.515 0.13303 0.27425 0.0
C309 C 0.52542 0.10637 0.30212 0.0
C310 C 0.51539 0.0864 0.22766 0.0
C311 C 0.55483 0.10634 0.30591 0.0
C312 C 0.51374 0.10192 0.4056 0.0
C313 C 0.49793 0.12245 0.42865 0.0
C314 C 0.4845 0.12301 0.51831 0.0
C315 C 0.48769 0.10278 0.58709 0.0
C316 C 0.5043 0.08167 0.56872 0.0
C317 C 0.51729 0.08115 0.4748 0.0
H318 H 0.38051 0.53895 0.16603 0.0
H319 H 0.35005 0.46244 0.20499 0.0
H320 H 0.38062 0.45507 0.34467 0.0
H321 H 0.44638 0.5221 0.21538 0.0
H322 H 0.4533 0.55217 0.27687 0.0
H323 H 0.42783 0.55021 0.18584 0.0
H324 H 0.39682 0.56964 0.31381 0.0
H325 H 0.4219 0.57019 0.40652 0.0
H326 H 0.3925 0.55339 0.43166 0.0
H327 H 0.41669 0.45548 0.47783 0.0
H328 H 0.45051 0.46531 0.60211 0.0
H329 H 0.45791 0.54169 0.47909 0.0
C330 C 0.37982 0.52082 0.20548 0.0
C331 C 0.36218 0.50144 0.17499 0.0
C332 C 0.36275 0.47779 0.22732 0.0
C333 C 0.38029 0.47339 0.30664 0.0
C334 C 0.39758 0.49273 0.33356 0.0
C335 C 0.39718 0.51616 0.28544 0.0
C336 C 0.41813 0.53355 0.32766 0.0
C337 C 0.43773 0.53987 0.24671 0.0
C338 C 0.40664 0.55814 0.37263 0.0
C339 C 0.43015 0.51659 0.40778 0.0
C340 C 0.41825 0.49291 0.40899 0.0
C341 C 0.42608 0.47395 0.47645 0.0
C342 C 0.4457 0.47957 0.54607 0.0
C343 C 0.45777 0.50391 0.54857 0.0
C344 C 0.44994 0.52254 0.47705 0.0
H345 H 0.98431 0.36674 0.2255 0.0
H346 H 0.06349 0.3663 0.13156 0.0
H347 H 0.07263 0.40203 0.24924 0.0
H348 H 0.97899 0.43609 0.2527 0.0
H349 H 0.95808 0.4343 0.35915 0.0
H350 H 0.95798 0.40898 0.26739 0.0
H351 H 0.96753 0.37566 0.40695 0.0
H352 H 0.9674 0.40099 0.49837 0.0
H353 H 0.99488 0.38021 0.48767 0.0
H354 H 0.07246 0.44025 0.37819 0.0
H355 H 0.06417 0.47169 0.51428 0.0
H356 H 0.98567 0.44583 0.52942 0.0
C357 C 1.00373 0.37381 0.23086 0.0
C358 C 0.02335 0.3629 0.17013 0.0
C359 C 0.04822 0.3736 0.17811 0.0
C360 C 0.05351 0.39419 0.24455 0.0
C361 C 0.03372 0.40447 0.30289 0.0
C362 C 1.00931 0.39437 0.29701 0.0
C363 C 0.99133 0.40868 0.36764 0.0
C364 C 0.97034 0.42282 0.30816 0.0
C365 C 0.97961 0.39028 0.44474 0.0
C366 C 1.0095 0.42779 0.41713 0.0
C367 C 0.03375 0.42564 0.37693 0.0
C368 C 0.05348 0.44188 0.40967 0.0
C369 C 0.04856 0.46002 0.48661 0.0
C370 C 0.02415 0.46179 0.53211 0.0
C371 C 1.00445 0.44539 0.49556 0.0
H372 H 0.8446 0.02283 0.13544 0.0
H373 H 0.8811 1.01703 0.42531 0.0
H374 H 0.92385 0.01943 0.34119 0.0
H375 H 0.88618 0.97754 0.03305 0.0
H376 H 0.8835 0.99075 0.90887 0.0
H377 H 0.85742 0.99412 0.99532 0.0
H378 H 0.85833 0.04357 0.97367 0.0
H379 H 0.88411 0.0404 0.88582 0.0
H380 H 0.88785 0.06066 0.99414 0.0
H381 H 0.96478 0.02093 0.20394 0.0
H382 H 0.99271 1.01785 0.05251 0.0
H383 H 0.92491 1.01491 0.86608 0.0
C384 C 0.8614 0.02342 0.18316 0.0
C385 C 0.85891 0.02143 0.28858 0.0
C386 C 0.88199 0.02003 0.34529 0.0
C387 C 0.90648 0.02098 0.29722 0.0
C388 C 0.90778 0.022 0.1917 0.0
C389 C 0.88534 0.02275 0.13683 0.0
C390 C 0.89007 0.01945 0.02615 0.0
C391 C 0.87861 0.99397 0.98869 0.0
C392 C 0.87947 0.0424 0.96648 0.0
C393 C 0.91891 0.01848 0.02383 0.0
C394 C 0.92938 0.01991 0.11892 0.0
C395 C 0.95624 0.01951 0.13026 0.0
C396 C 0.97213 1.01762 0.04347 0.0
C397 C 0.96128 1.0158 0.94594 0.0
C398 C 0.93425 1.01614 0.93838 0.0
H399 H 0.51126 0.84355 0.19117 0.0
H400 H 0.51239 0.89097 0.45677 0.0
H401 H 0.51793 0.92966 0.35107 0.0
H402 H 0.55908 0.88153 0.04797 0.0
H403 H 0.54275 0.87649 0.93062 0.0
H404 H 0.54081 0.85267 0.02808 0.0
H405 H 0.49148 0.8552 0.02038 0.0
H406 H 0.49318 0.87928 0.92407 0.0
H407 H 0.47577 0.88571 0.03748 0.0
H408 H 0.52009 0.96469 0.20975 0.0
H409 H 0.52126 0.99049 0.05337 0.0
H410 H 0.51953 0.92038 0.88002 0.0
C411 C 0.51343 0.86198 0.22742 0.0
C412 C 0.51173 0.86388 0.33363 0.0
C413 C 0.51404 0.88869 0.37656 0.0
C414 C 0.517 0.91092 0.31652 0.0
C415 C 0.51794 0.90846 0.21222 0.0
C416 C 0.51658 0.88445 0.16825 0.0
C417 C 0.5175 0.88698 0.05445 0.0
C418 C 0.54146 0.87362 0.01283 0.0
C419 C 0.49302 0.87616 0.00629 0.0
C420 C 0.5191 0.91607 0.04084 0.0
C421 C 0.51938 0.92822 0.13261 0.0
C422 C 0.52017 0.95514 0.13789 0.0
C423 C 0.52083 0.96982 0.04817 0.0
C424 C 0.52072 0.95786 0.9529 0.0
C425 C 0.51986 0.93046 0.95077 0.0
H426 H 0.66764 0.4908 0.24093 0.0
H427 H 0.67132 0.57037 0.3312 0.0
H428 H 0.63119 0.57886 0.23312 0.0
H429 H 0.65284 0.50427 0.99406 0.0
H430 H 0.63387 0.47581 0.97586 0.0
H431 H 0.65912 0.47593 0.06754 0.0
H432 H 0.62703 0.4626 0.20523 0.0
H433 H 0.60166 0.46219 0.11364 0.0
H434 H 0.59856 0.48149 0.22476 0.0
H435 H 0.59078 0.57773 0.10813 0.0
H436 H 0.5609 0.5692 0.96674 0.0
H437 H 0.58844 0.49108 0.95097 0.0
C438 C 0.65956 0.50996 0.24348 0.0
C439 C 0.67222 0.52967 0.29762 0.0
C440 C 0.66169 0.55471 0.29371 0.0
C441 C 0.6389 0.55961 0.23743 0.0
C442 C 0.6273 0.53948 0.18331 0.0
C443 C 0.63776 0.51517 0.1859 0.0
C444 C 0.6247 0.49722 0.11246 0.0
C445 C 0.64375 0.48777 0.0328 0.0
C446 C 0.61224 0.47454 0.16733 0.0
C447 C 0.60472 0.51491 0.06724 0.0
C448 C 0.60603 0.53915 0.10966 0.0
C449 C 0.58969 0.55872 0.07598 0.0
C450 C 0.57243 0.55363 0.99615 0.0
C451 C 0.57154 0.5292 0.94967 0.0
C452 C 0.58792 0.5097 0.98689 0.0
H453 H 0.04422 0.68874 0.20374 0.0
H454 H 0.99782 0.65517 0.43674 0.0
H455 H 0.98963 0.61734 0.32795 0.0
H456 H 1.00672 0.66699 0.98945 0.0
H457 H 0.03463 0.66099 0.91409 0.0
H458 H 0.03548 0.68537 0.00939 0.0
H459 H 0.07521 0.66337 0.08821 0.0
H460 H 0.07417 0.63866 0.99425 0.0
H461 H 0.07342 0.63014 0.12486 0.0
H462 H 0.98884 0.5806 0.18854 0.0
H463 H 0.99289 0.55309 0.03678 0.0
H464 H 0.03899 0.61191 0.89743 0.0
C465 C 0.03179 0.67375 0.2313 0.0
C466 C 0.02111 0.67553 0.3289 0.0
C467 C 1.00572 0.65481 0.36201 0.0
C468 C 1.00115 0.63304 0.30055 0.0
C469 C 1.0122 0.63183 0.20518 0.0
C470 C 0.02706 0.65193 0.17084 0.0
C471 C 0.03738 0.64605 0.06695 0.0
C472 C 0.02798 0.66604 0.99047 0.0
C473 C 0.06678 0.64447 0.06871 0.0
C474 C 0.02571 0.61981 0.04666 0.0
C475 C 1.01153 0.61152 0.12738 0.0
C476 C 0.99978 0.58727 0.1251 0.0
C477 C 1.00223 0.57157 0.0384 0.0
C478 C 1.01607 0.58013 0.95365 0.0
C479 C 0.02801 0.60461 0.95975 0.0
H480 H 0.97833 0.24023 0.17969 0.0
H481 H 0.04226 0.25879 0.372 0.0
H482 H 0.02846 0.22546 0.49171 0.0
H483 H 0.93158 0.20771 0.35352 0.0
H484 H 0.92745 0.18229 0.26341 0.0
H485 H 0.9336 0.21455 0.22148 0.0
H486 H 0.97229 0.19798 0.11928 0.0
H487 H 0.96683 0.16592 0.162 0.0
H488 H 0.9975 0.18073 0.18265 0.0
H489 H 0.01905 0.18243 0.55123 0.0
H490 H 1.01334 0.13559 0.55224 0.0
H491 H 0.95778 0.14168 0.31263 0.0
C492 C 0.98824 0.23831 0.25076 0.0
C493 C 1.01098 0.25188 0.2686 0.0
C494 C 0.02448 0.24866 0.35903 0.0
C495 C 0.0168 0.22965 0.42662 0.0
C496 C 0.99615 0.21398 0.40016 0.0
C497 C 0.98205 0.21818 0.31365 0.0
C498 C 0.96707 0.19473 0.28268 0.0
C499 C 0.9382 0.20016 0.2803 0.0
C500 C 0.97648 0.18426 0.18082 0.0
C501 C 0.97435 0.17678 0.36616 0.0
C502 C 0.99119 0.18812 0.43311 0.0
C503 C 1.00498 0.17368 0.50248 0.0
C504 C 1.0017 0.1471 0.50241 0.0
C505 C 0.98438 0.13538 0.43507 0.0
C506 C 0.97016 0.15046 0.36799 0.0
H507 H 0.30286 0.05684 0.31371 0.0
H508 H 0.26614 0.98492 0.24241 0.0
H509 H 0.3002 0.9614 0.32981 0.0
H510 H 0.35878 0.04184 0.25779 0.0
H511 H 0.37729 0.05676 0.35575 0.0
H512 H 0.34617 0.06899 0.32529 0.0
H513 H 0.33055 0.06283 0.50725 0.0
H514 H 0.36222 0.05184 0.54051 0.0
H515 H 0.33476 0.03224 0.56819 0.0
H516 H 0.34386 0.94665 0.35963 0.0
H517 H 0.39046 0.94093 0.37384 0.0
H518 H 0.39847 0.02172 0.4466 0.0
C519 C 0.30101 0.03635 0.32484 0.0
C520 C 0.28201 0.02259 0.27344 0.0
C521 C 0.28033 0.99568 0.28422 0.0
C522 C 0.29979 0.98214 0.33274 0.0
C523 C 0.31997 0.99602 0.37372 0.0
C524 C 0.32013 0.02262 0.37498 0.0
C525 C 0.34572 0.03277 0.40989 0.0
C526 C 0.35766 0.05114 0.33251 0.0
C527 C 0.34315 0.04567 0.51262 0.0
C528 C 0.3606 1.00795 0.41755 0.0
C529 C 0.34538 0.98696 0.39726 0.0
C530 C 0.35576 0.96265 0.38168 0.0
C531 C 0.38231 0.95961 0.38939 0.0
C532 C 0.39818 0.98078 0.4127 0.0
C533 C 0.38696 1.0051 0.42869 0.0
H534 H 0.56688 0.29307 0.20377 0.0
H535 H 0.49497 0.27518 0.34497 0.0
H536 H 0.50044 0.31179 0.45947 0.0
H537 H 0.60083 0.33153 0.41088 0.0
H538 H 0.61046 0.3547 0.31821 0.0
H539 H 0.60805 0.32126 0.28529 0.0
H540 H 0.5776 0.33362 0.13935 0.0
H541 H 0.57887 0.36679 0.17335 0.0
H542 H 0.54843 0.35075 0.16644 0.0
H543 H 0.5051 0.35684 0.51101 0.0
H544 H 0.51152 0.40369 0.51167 0.0
H545 H 0.5773 0.39461 0.31805 0.0
C546 C 0.5535 0.29581 0.26459 0.0
C547 C 0.53077 0.28159 0.26737 0.0
C548 C 0.51276 0.28581 0.3439 0.0
C549 C 0.51563 0.30677 0.40825 0.0
C550 C 0.53647 0.32304 0.39354 0.0
C551 C 0.55535 0.31756 0.32398 0.0
C552 C 0.57125 0.34088 0.29989 0.0
C553 C 0.59932 0.33685 0.33051 0.0
C554 C 0.56887 0.34842 0.1883 0.0
C555 C 0.55829 0.36036 0.36523 0.0
C556 C 0.53841 0.34983 0.41931 0.0
C557 C 0.52119 0.36511 0.47193 0.0
C558 C 0.52474 0.39172 0.47049 0.0
C559 C 0.54525 0.40266 0.41623 0.0
C560 C 0.56212 0.38669 0.36344 0.0
H561 H 0.2387 0.58044 0.14548 0.0
H562 H 0.26766 0.51198 0.29081 0.0
H563 H 0.2288 0.50922 0.39144 0.0
H564 H 0.19561 0.60435 0.36196 0.0
H565 H 0.17158 0.61371 0.2719 0.0
H566 H 0.20503 0.61625 0.24094 0.0
H567 H 0.19668 0.58854 0.08266 0.0
H568 H 0.16362 0.58482 0.11485 0.0
H569 H 0.18339 0.55685 0.09696 0.0
H570 H 0.18257 0.50613 0.43594 0.0
H571 H 0.13553 0.51021 0.454 0.0
H572 H 0.13663 0.57755 0.26308 0.0
C573 C 0.23767 0.56623 0.20449 0.0
C574 C 0.25591 0.54647 0.21014 0.0
C575 C 0.25394 0.52756 0.28606 0.0
C576 C 0.23165 0.52553 0.34261 0.0
C577 C 0.21215 0.54306 0.32412 0.0
C578 C 0.21526 0.56362 0.25935 0.0
C579 C 0.19023 0.57705 0.23892 0.0
C580 C 0.19064 0.60447 0.28097 0.0
C581 C 0.18311 0.57677 0.12677 0.0
C582 C 0.17259 0.5602 0.29789 0.0
C583 C 0.18539 0.54081 0.34749 0.0
C584 C 0.17242 0.52182 0.40037 0.0
C585 C 0.14574 0.52395 0.40839 0.0
C586 C 0.13269 0.54457 0.3614 0.0
C587 C 0.14628 0.56214 0.30262 0.0
H588 H 0.9706 0.80356 0.20311 0.0
H589 H 0.04127 0.76455 0.2797 0.0
H590 H 0.06595 0.79893 0.20134 0.0
H591 H 0.99749 0.83351 0.95635 0.0
H592 H 0.97643 0.86055 0.97886 0.0
H593 H 0.96699 0.82883 0.01587 0.0
H594 H 0.95994 0.84852 0.1928 0.0
H595 H 0.9729 0.87901 0.15688 0.0
H596 H 0.98696 0.8615 0.25955 0.0
H597 H 0.08185 0.84227 0.17003 0.0
H598 H 0.08929 0.88813 0.14259 0.0
H599 H 1.00929 0.89788 0.05903 0.0
C600 C 0.99112 0.80137 0.19581 0.0
C601 C 1.00402 0.78134 0.24525 0.0
C602 C 0.03103 0.77939 0.23902 0.0
C603 C 0.04527 0.7991 0.1963 0.0
C604 C 0.0321 0.81987 0.15614 0.0
C605 C 1.00565 0.82068 0.15151 0.0
C606 C 0.9963 0.8461 0.11134 0.0
C607 C 0.98356 0.84206 0.00924 0.0
C608 C 0.97797 0.85955 0.1846 0.0
C609 C 0.02151 0.86021 0.1024 0.0
C610 C 0.04187 0.84467 0.12897 0.0
C611 C 0.0664 0.85435 0.14322 0.0
C612 C 0.07042 0.88051 0.12739 0.0
C613 C 0.05008 0.89672 0.09624 0.0
C614 C 0.02537 0.88618 0.08246 0.0
H615 H 0.74353 0.03808 0.29946 0.0
H616 H 0.73962 0.95872 0.20724 0.0
H617 H 0.70758 0.97038 0.07806 0.0
H618 H 0.68311 0.04535 0.31885 0.0
H619 H 0.67989 0.07823 0.27879 0.0
H620 H 0.7097 0.06718 0.32932 0.0
H621 H 0.73335 0.08151 0.16956 0.0
H622 H 0.70356 0.09314 0.11807 0.0
H623 H 0.72262 0.07049 0.04871 0.0
H624 H 0.66776 0.98577 0.01292 0.0
H625 H 0.62504 1.00491 0.99451 0.0
H626 H 0.65174 0.07448 0.13709 0.0
C627 C 0.7368 0.02356 0.24771 0.0
C628 C 0.74379 0.99764 0.26098 0.0
C629 C 0.73444 0.97865 0.19618 0.0
C630 C 0.71638 0.98523 0.1229 0.0
C631 C 0.70797 1.01071 0.11739 0.0
C632 C 0.71817 0.02976 0.17736 0.0
C633 C 0.70194 0.0539 0.17569 0.0
C634 C 0.69314 0.06155 0.28186 0.0
C635 C 0.71622 0.07606 0.12489 0.0
C636 C 0.67982 0.04472 0.11211 0.0
C637 C 0.6841 0.02005 0.07705 0.0
C638 C 0.66469 1.00557 0.03384 0.0
C639 C 0.64038 1.01638 0.02574 0.0
C640 C 0.63544 0.04109 0.06438 0.0
C641 C 0.6555 0.05583 0.10459 0.0
H642 H 0.5639 0.73276 0.22132 0.0
H643 H 0.49355 0.77643 0.21655 0.0
H644 H 0.47243 0.74228 0.12113 0.0
H645 H 0.5515 0.69182 0.97809 0.0
H646 H 0.5653 0.66461 0.04194 0.0
H647 H 0.57769 0.69638 0.06445 0.0
H648 H 0.53894 0.68316 0.29889 0.0
H649 H 0.57078 0.68881 0.25299 0.0
H650 H 0.5561 0.65819 0.23413 0.0
H651 H 0.45607 0.69934 0.07041 0.0
H652 H 0.44736 0.65348 0.04889 0.0
H653 H 0.52679 0.63675 0.12536 0.0
C654 C 0.5448 0.73592 0.19193 0.0
C655 C 0.53033 0.7569 0.22522 0.0
C656 C 0.50503 0.76052 0.18971 0.0
C657 C 0.49274 0.74099 0.13665 0.0
C658 C 0.50639 0.71856 0.11798 0.0
C659 C 0.53215 0.71619 0.14226 0.0
C660 C 0.54096 0.68866 0.13632 0.0
C661 C 0.55999 0.68516 0.05005 0.0
C662 C 0.55232 0.67915 0.23648 0.0
C663 C 0.51589 0.67582 0.11279 0.0
C664 C 0.49639 0.69327 0.09846 0.0
C665 C 0.47139 0.6855 0.07907 0.0
C666 C 0.46655 0.65918 0.06923 0.0
C667 C 0.48646 0.64086 0.08342 0.0
C668 C 0.5112 0.64969 0.10854 0.0
H669 H 0.77834 0.50003 0.21104 0.0
H670 H 0.78973 0.44764 0.45822 0.0
H671 H 0.83025 0.43333 0.385 0.0
H672 H 0.81874 0.46011 0.01115 0.0
H673 H 0.82913 0.49049 0.96201 0.0
H674 H 0.7972 0.48723 0.00965 0.0
H675 H 0.80717 0.52664 0.12061 0.0
H676 H 0.83985 0.52793 0.08039 0.0
H677 H 0.83269 0.52471 0.21161 0.0
H678 H 0.8734 0.44071 0.33965 0.0
H679 H 0.91504 0.45171 0.26911 0.0
H680 H 0.87778 0.49711 0.03784 0.0
C681 C 0.78833 0.48386 0.24418 0.0
C682 C 0.78148 0.47487 0.33986 0.0
C683 C 0.79486 0.45431 0.38421 0.0
C684 C 0.81811 0.44651 0.34396 0.0
C685 C 0.82669 0.45893 0.25825 0.0
C686 C 0.81177 0.47616 0.20512 0.0
C687 C 0.82713 0.48943 0.12413 0.0
C688 C 0.81747 0.48126 0.02054 0.0
C689 C 0.82667 0.5189 0.13506 0.0
C690 C 0.85345 0.47858 0.14648 0.0
C691 C 0.85251 0.46137 0.22519 0.0
C692 C 0.87437 0.4524 0.27293 0.0
C693 C 0.89788 0.45901 0.23318 0.0
C694 C 0.89933 0.47384 0.14501 0.0
C695 C 0.87697 0.48481 0.1031 0.0
H696 H 0.06435 0.21148 0.99716 0.0
H697 H 0.99935 0.24542 0.84525 0.0
H698 H 0.99037 0.2035 0.76406 0.0
H699 H 0.08364 0.16439 0.79884 0.0
H700 H 0.09152 0.14037 0.89107 0.0
H701 H 0.09495 0.17391 0.92087 0.0
H702 H 0.06577 0.1674 0.07488 0.0
H703 H 0.06162 0.13406 0.04392 0.0
H704 H 0.03405 0.1546 0.05748 0.0
H705 H 0.98498 0.15458 0.71883 0.0
H706 H 0.98713 0.10746 0.69707 0.0
H707 H 0.05493 0.10492 0.88459 0.0
C708 C 0.04897 0.21052 0.9428 0.0
C709 C 0.0331 0.23251 0.9259 0.0
C710 C 1.01246 0.2296 0.85747 0.0
C711 C 1.00693 0.2055 0.81226 0.0
C712 C 0.02211 0.18401 0.83567 0.0
C713 C 0.04306 0.18654 0.89818 0.0
C714 C 0.05532 0.16036 0.91823 0.0
C715 C 0.08301 0.15973 0.87997 0.0
C716 C 0.05412 0.15372 0.03026 0.0
C717 C 0.03823 0.14248 0.85721 0.0
C718 C 0.01905 0.15644 0.81042 0.0
C719 C 1.00033 0.14381 0.7538 0.0
C720 C 1.0017 0.11678 0.7419 0.0
C721 C 0.02141 0.10191 0.78746 0.0
C722 C 0.03972 0.11532 0.84706 0.0
H723 H 0.31922 0.06418 0.94738 0.0
H724 H 0.29366 0.98629 0.8998 0.0
H725 H 0.33627 0.97517 0.83075 0.0
H726 H 0.36327 0.06664 0.71943 0.0
H727 H 0.38604 0.08633 0.78528 0.0
H728 H 0.35238 0.08889 0.8131 0.0
H729 H 0.36239 0.07998 0.99935 0.0
H730 H 0.39593 0.07668 0.97233 0.0
H731 H 0.37912 0.051 0.03396 0.0
H732 H 0.38451 0.97161 0.78178 0.0
H733 H 0.43111 0.97621 0.75463 0.0
H734 H 0.42649 0.05601 0.84302 0.0
C735 C 0.32213 0.04509 0.91764 0.0
C736 C 0.3023 0.02638 0.92634 0.0
C737 C 0.30772 1.00133 0.89064 0.0
C738 C 0.33221 0.99475 0.85251 0.0
C739 C 0.35153 1.0134 0.84917 0.0
C740 C 0.34652 0.03826 0.87913 0.0
C741 C 0.37089 0.05443 0.87363 0.0
C742 C 0.36797 0.07532 0.79313 0.0
C743 C 0.37747 0.0662 0.97593 0.0
C744 C 0.39082 0.03456 0.84198 0.0
C745 C 0.37913 1.01114 0.82547 0.0
C746 C 0.39357 0.98998 0.79409 0.0
C747 C 0.42024 0.99279 0.77869 0.0
C748 C 0.43295 1.01642 0.79666 0.0
C749 C 0.41771 0.03755 0.82914 0.0
H750 H 0.48125 0.32555 0.02797 0.0
H751 H 0.53079 0.28893 0.81225 0.0
H752 H 0.53605 0.33085 0.72543 0.0
H753 H 0.45132 0.37465 0.86193 0.0
H754 H 0.45199 0.39854 0.95931 0.0
H755 H 0.44908 0.36508 0.99122 0.0
H756 H 0.48902 0.36889 0.10617 0.0
H757 H 0.49213 0.40224 0.07334 0.0
H758 H 0.51858 0.38056 0.05446 0.0
H759 H 0.5406 0.38 0.67715 0.0
H760 H 0.53997 0.42727 0.66101 0.0
H761 H 0.48864 0.43214 0.91424 0.0
C762 C 0.49234 0.326 0.95972 0.0
C763 C 0.50499 0.30322 0.92618 0.0
C764 C 0.52014 0.30541 0.8386 0.0
C765 C 0.52357 0.32948 0.78965 0.0
C766 C 0.51195 0.35169 0.8288 0.0
C767 C 0.49629 0.3499 0.91142 0.0
C768 C 0.48753 0.37656 0.94482 0.0
C769 C 0.45824 0.37884 0.93895 0.0
C770 C 0.49739 0.3824 0.05099 0.0
C771 C 0.50036 0.39393 0.86801 0.0
C772 C 0.51452 0.37927 0.8018 0.0
C773 C 0.52902 0.39131 0.72757 0.0
C774 C 0.52865 0.41849 0.71935 0.0
C775 C 0.51409 0.43416 0.78541 0.0
C776 C 0.49983 0.42125 0.86114 0.0
H777 H 0.22741 0.5309 0.81849 0.0
H778 H 0.22856 0.46996 0.03834 0.0
H779 H 0.18241 0.46259 0.00898 0.0
H780 H 0.16933 0.5574 0.87431 0.0
H781 H 0.15803 0.56355 0.74887 0.0
H782 H 0.19186 0.56188 0.77398 0.0
H783 H 0.1974 0.52624 0.64112 0.0
H784 H 0.16365 0.5287 0.614 0.0
H785 H 0.17745 0.49811 0.64691 0.0
H786 H 0.13429 0.46619 0.97389 0.0
H787 H 0.09021 0.476 0.9213 0.0
H788 H 0.11865 0.53348 0.71493 0.0
C789 C 0.2183 0.515 0.85624 0.0
C790 C 0.23237 0.50033 0.92852 0.0
C791 C 0.21897 0.4807 0.97973 0.0
C792 C 0.19244 0.47669 0.96457 0.0
C793 C 0.17908 0.49205 0.8959 0.0
C794 C 0.19174 0.51029 0.83998 0.0
C795 C 0.17259 0.52462 0.77273 0.0
C796 C 0.17298 0.55359 0.79381 0.0
C797 C 0.17814 0.51907 0.66211 0.0
C798 C 0.14704 0.51267 0.80341 0.0
C799 C 0.15138 0.49377 0.8742 0.0
C800 C 0.13092 0.4806 0.91703 0.0
C801 C 0.10566 0.48646 0.88635 0.0
C802 C 0.10026 0.50547 0.81263 0.0
C803 C 0.12164 0.5187 0.77069 0.0
H804 H 0.02939 0.82376 0.45641 0.0
H805 H 0.98865 0.79039 0.70569 0.0
H806 H 0.98959 0.83267 0.79114 0.0
H807 H 0.06902 0.87131 0.59353 0.0
H808 H 0.06467 0.89504 0.49678 0.0
H809 H 0.06445 0.86142 0.46549 0.0
H810 H 0.02063 0.86757 0.38157 0.0
H811 H 0.01964 0.90093 0.41559 0.0
H812 H 0.99406 0.87988 0.45293 0.0
H813 H 0.99671 0.88086 0.85205 0.0
H814 H 1.00158 0.92803 0.86655 0.0
H815 H 0.03161 0.93064 0.56549 0.0
C816 C 0.02159 0.82494 0.53124 0.0
C817 C 1.00952 0.80306 0.5749 0.0
C818 C 0.99885 0.80615 0.67145 0.0
C819 C 0.9993 0.83034 0.72075 0.0
C820 C 1.01065 0.85159 0.67377 0.0
C821 C 0.02143 0.84896 0.58029 0.0
C822 C 0.02957 0.875 0.53898 0.0
C823 C 0.05866 0.87573 0.52275 0.0
C824 C 1.01508 0.88122 0.44154 0.0
C825 C 0.02171 0.893 0.62331 0.0
C826 C 1.01147 0.87912 0.70184 0.0
C827 C 1.00427 0.89164 0.7901 0.0
C828 C 1.00724 0.9186 0.7979 0.0
C829 C 0.01672 0.93338 0.71704 0.0
C830 C 0.02398 0.92013 0.62851 0.0
H831 H 0.7209 0.97915 0.63377 0.0
H832 H 0.73542 0.05827 0.55531 0.0
H833 H 0.69135 0.06966 0.60754 0.0
H834 H 0.6603 0.9759 0.53147 0.0
H835 H 0.6466 0.9553 0.62549 0.0
H836 H 0.68048 0.95438 0.60216 0.0
H837 H 0.68892 0.96274 0.78664 0.0
H838 H 0.65537 0.96594 0.81613 0.0
H839 H 0.67737 0.9917 0.84337 0.0
H840 H 0.64302 0.07138 0.65155 0.0
H841 H 0.59719 0.06392 0.68719 0.0
H842 H 0.61222 0.98264 0.72105 0.0
C843 C 0.71534 0.99918 0.63303 0.0
C844 C 0.73249 0.01796 0.59355 0.0
C845 C 0.72356 0.04366 0.58914 0.0
C846 C 0.69814 0.05017 0.61673 0.0
C847 C 0.68138 0.03083 0.64858 0.0
C848 C 0.6898 1.00583 0.65748 0.0
C849 C 0.6676 0.98817 0.6857 0.0
C850 C 0.66351 0.96721 0.60644 0.0
C851 C 0.67254 0.97636 0.78917 0.0
C852 C 0.64505 1.00692 0.68848 0.0
C853 C 0.65357 0.03154 0.66867 0.0
C854 C 0.6364 0.05217 0.6677 0.0
C855 C 0.61023 0.04774 0.68813 0.0
C856 C 0.60071 0.02275 0.70699 0.0
C857 C 0.6186 1.00202 0.70651 0.0
H858 H 0.49638 0.71428 0.4744 0.0
H859 H 0.55161 0.74517 0.68379 0.0
H860 H 0.55365 0.70274 0.76927 0.0
H861 H 0.46404 0.66869 0.64805 0.0
H862 H 0.46042 0.64496 0.55111 0.0
H863 H 0.46049 0.67858 0.51947 0.0
H864 H 0.49777 0.67055 0.39508 0.0
H865 H 0.49748 0.63703 0.4272 0.0
H866 H 0.5266 0.65516 0.43994 0.0
H867 H 0.55198 0.65354 0.82281 0.0
H868 H 0.54656 0.60631 0.83713 0.0
H869 H 0.49501 0.60734 0.58316 0.0
C870 C 0.50825 0.71251 0.54066 0.0
C871 C 0.52337 0.73378 0.57312 0.0
C872 C 0.53918 0.72988 0.65849 0.0
C873 C 0.54071 0.70552 0.70675 0.0
C874 C 0.52644 0.68477 0.66916 0.0
C875 C 0.51032 0.68828 0.58812 0.0
C876 C 0.49826 0.66286 0.55646 0.0
C877 C 0.46907 0.66383 0.56954 0.0
C878 C 0.50546 0.65602 0.44824 0.0
C879 C 0.51037 0.64414 0.63045 0.0
C880 C 0.5263 0.6571 0.69625 0.0
C881 C 0.53945 0.64356 0.77135 0.0
C882 C 0.53624 0.61658 0.77914 0.0
C883 C 0.52031 0.60283 0.71167 0.0
C884 C 0.50731 0.61708 0.63624 0.0
H885 H 0.81135 0.50738 0.65427 0.0
H886 H 0.80599 0.57819 0.48621 0.0
H887 H 0.85146 0.58738 0.52811 0.0
H888 H 0.85868 0.52285 0.84396 0.0
H889 H 0.87578 0.49295 0.83001 0.0
H890 H 0.84201 0.4944 0.80284 0.0
H891 H 0.84876 0.47639 0.62818 0.0
H892 H 0.88268 0.47433 0.6514 0.0
H893 H 0.87081 0.49196 0.54478 0.0
H894 H 0.90035 0.58531 0.56992 0.0
H895 H 0.94497 0.57419 0.613 0.0
H896 H 0.91948 0.50208 0.7396 0.0
C897 C 0.81928 0.52554 0.63032 0.0
C898 C 0.80435 0.54238 0.56854 0.0
C899 C 0.81624 0.56531 0.53585 0.0
C900 C 0.84241 0.57037 0.5578 0.0
C901 C 0.85693 0.55213 0.61108 0.0
C902 C 0.84561 0.53011 0.64665 0.0
C903 C 0.86575 0.51165 0.68857 0.0
C904 C 0.86028 0.50513 0.79815 0.0
C905 C 0.86708 0.48714 0.62445 0.0
C906 C 0.89018 0.52727 0.67776 0.0
C907 C 0.88475 0.55041 0.63117 0.0
C908 C 0.90448 0.56737 0.60746 0.0
C909 C 0.93 0.56076 0.63229 0.0
C910 C 0.93624 0.53731 0.68131 0.0
C911 C 0.91571 0.52039 0.70409 0.0
loop_
_geom_bond_atom_site_label_1
_geom_bond_atom_site_label_2
_geom_bond_distance
_geom_bond_site_symmetry_2
_ccdc_geom_bond_type
H0 C7 0.929 . S
H1 C10 0.930 . S
H2 C12 0.929 . S
H3 C4 0.969 . S
C4 H3 0.969 . S
C4 O5 1.550 . S
C4 H6 0.973 . S
O5 C4 1.550 . S
O5 C11 1.412 . S
H6 C4 0.973 . S
C7 H0 0.929 . S
C7 C8 1.400 . S
C7 C9 1.364 . S
C8 C7 1.400 . S
C8 C12 1.377 . S
C9 C7 1.364 . S
C9 C10 1.374 . S
C10 H1 0.930 . S
C10 C9 1.374 . S
C10 C11 1.383 . S
C11 O5 1.412 . S
C11 C10 1.383 . S
C11 C12 1.394 . S
C12 H2 0.929 . S
C12 C8 1.377 . S
C12 C11 1.394 . S
H13 C20 0.930 . S
H14 C23 0.930 . S
H15 C25 0.931 . S
H16 C17 0.969 . S
C17 H16 0.969 . S
C17 O18 1.550 1_455 S
C17 H19 0.973 1_455 S
O18 C17 1.550 1_655 S
O18 C24 1.417 . S
H19 C17 0.973 1_655 S
C20 H13 0.930 . S
C20 C21 1.400 . S
C20 C22 1.364 . S
C21 C20 1.400 . S
C21 C25 1.377 . S
C22 C20 1.364 . S
C22 C23 1.376 . S
C23 H14 0.930 . S
C23 C22 1.376 . S
C23 C24 1.384 . S
C24 O18 1.417 . S
C24 C23 1.384 . S
C24 C25 1.394 . S
C25 H15 0.931 . S
C25 C21 1.377 . S
C25 C24 1.394 . S
H26 C33 0.929 . S
H27 C36 0.930 . S
H28 C38 0.929 . S
H29 C30 0.969 . S
C30 H29 0.969 . S
C30 O31 1.550 1_545 S
C30 H32 0.973 1_545 S
O31 C30 1.550 1_565 S
O31 C37 1.424 . S
H32 C30 0.973 1_565 S
C33 H26 0.929 . S
C33 C34 1.400 . S
C33 C35 1.364 . S
C34 C33 1.400 . S
C34 C38 1.377 . S
C35 C33 1.364 . S
C35 C36 1.374 . S
C36 H27 0.930 . S
C36 C35 1.374 . S
C36 C37 1.385 . S
C37 O31 1.424 . S
C37 C36 1.385 . S
C37 C38 1.396 . S
C38 H28 0.929 . S
C38 C34 1.377 . S
C38 C37 1.396 . S
H39 C46 0.929 . S
H40 C49 0.930 . S
H41 C51 0.929 . S
H42 C43 0.969 . S
C43 H42 0.969 . S
C43 O44 1.550 . S
C43 H45 0.973 . S
O44 C43 1.550 . S
O44 C50 1.412 . S
H45 C43 0.973 . S
C46 H39 0.929 . S
C46 C47 1.400 . S
C46 C48 1.364 . S
C47 C46 1.400 . S
C47 C51 1.377 . S
C48 C46 1.364 . S
C48 C49 1.374 . S
C49 H40 0.930 . S
C49 C48 1.374 . S
C49 C50 1.383 . S
C50 O44 1.412 . S
C50 C49 1.383 . S
C50 C51 1.394 . S
C51 H41 0.929 . S
C51 C47 1.377 . S
C51 C50 1.394 . S
H52 C59 0.929 1_556 S
H53 C62 0.930 . S
H54 C64 0.929 . S
H55 C56 0.969 . S
C56 H55 0.969 . S
C56 O57 1.550 . S
C56 H58 0.973 . S
O57 C56 1.550 . S
O57 C63 1.412 . S
H58 C56 0.973 . S
C59 H52 0.929 1_554 S
C59 C60 1.400 1_554 S
C59 C61 1.364 . S
C60 C59 1.400 1_556 S
C60 C64 1.377 . S
C61 C59 1.364 . S
C61 C62 1.374 . S
C62 H53 0.930 . S
C62 C61 1.374 . S
C62 C63 1.383 . S
C63 O57 1.412 . S
C63 C62 1.383 . S
C63 C64 1.394 1_554 S
C64 H54 0.929 . S
C64 C60 1.377 . S
C64 C63 1.394 1_556 S
H65 C72 0.929 1_556 S
H66 C75 0.930 . S
H67 C77 0.929 . S
H68 C69 0.969 . S
C69 H68 0.969 . S
C69 O70 1.550 1_455 S
C69 H71 0.973 1_455 S
O70 C69 1.550 1_655 S
O70 C76 1.412 1_655 S
H71 C69 0.973 1_655 S
C72 H65 0.929 1_554 S
C72 C73 1.400 1_554 S
C72 C74 1.364 . S
C73 C72 1.400 1_556 S
C73 C77 1.377 . S
C74 C72 1.364 . S
C74 C75 1.374 . S
C75 H66 0.930 . S
C75 C74 1.374 . S
C75 C76 1.383 . S
C76 O70 1.412 1_455 S
C76 C75 1.383 . S
C76 C77 1.394 1_554 S
C77 H67 0.929 . S
C77 C73 1.377 . S
C77 C76 1.394 1_556 S
H78 C85 0.929 1_556 S
H79 C88 0.933 . S
H80 C90 0.929 . S
H81 C82 0.969 . S
C82 H81 0.969 . S
C82 O83 1.550 1_545 S
C82 H84 0.973 1_545 S
O83 C82 1.550 1_565 S
O83 C89 1.412 1_565 S
H84 C82 0.973 1_565 S
C85 H78 0.929 1_554 S
C85 C86 1.400 1_554 S
C85 C87 1.364 . S
C86 C85 1.400 1_556 S
C86 C90 1.377 . S
C87 C85 1.364 . S
C87 C88 1.374 . S
C88 H79 0.933 . S
C88 C87 1.374 . S
C88 C89 1.383 . S
C89 O83 1.412 1_545 S
C89 C88 1.383 . S
C89 C90 1.394 1_554 S
C90 H80 0.929 . S
C90 C86 1.377 . S
C90 C89 1.394 1_556 S
H91 C98 0.929 1_556 S
H92 C101 0.930 . S
H93 C103 0.929 . S
H94 C95 0.969 . S
C95 H94 0.969 . S
C95 O96 1.550 . S
C95 H97 0.973 . S
O96 C95 1.550 . S
O96 C102 1.412 . S
H97 C95 0.973 . S
C98 H91 0.929 1_554 S
C98 C99 1.400 1_554 S
C98 C100 1.364 . S
C99 C98 1.400 1_556 S
C99 C103 1.377 . S
C100 C98 1.364 . S
C100 C101 1.374 . S
C101 H92 0.930 . S
C101 C100 1.374 . S
C101 C102 1.383 . S
C102 O96 1.412 . S
C102 C101 1.383 . S
C102 C103 1.394 1_554 S
C103 H93 0.929 . S
C103 C99 1.377 . S
C103 C102 1.394 1_556 S
Gd104 C107 2.818 . S
Gd104 O124 2.377 . S
Gd104 O126 2.448 . S
Gd104 O127 2.506 . S
Gd104 O128 2.435 . S
Gd104 O129 2.717 1_565 S
Gd104 O131 2.395 1_565 S
Gd104 O135 2.327 1_455 S
Gd105 C116 2.818 . S
Gd105 O125 2.395 1_545 S
Gd105 O129 2.327 1_655 S
Gd105 O130 2.377 . S
Gd105 O132 2.448 . S
Gd105 O133 2.506 . S
Gd105 O134 2.435 . S
Gd105 O135 2.717 1_545 S
C106 O124 1.240 1_655 S
C106 O125 1.240 . S
C107 Gd104 2.818 . S
C107 C108 1.510 1_556 S
C107 O126 1.249 . S
C107 O127 1.252 . S
C108 C107 1.510 1_554 S
C108 C109 1.404 . S
C108 C110 1.352 . S
C109 C108 1.404 . S
C109 C113 1.389 . S
C109 H136 0.926 1_554 S
C110 C108 1.352 . S
C110 C112 1.374 . S
C110 H137 0.931 1_455 S
C111 C112 1.359 . S
C111 C113 1.364 . S
C112 C110 1.374 . S
C112 C111 1.359 . S
C112 H138 0.931 1_455 S
C113 C109 1.389 . S
C113 C111 1.364 . S
C113 H139 0.931 . S
C114 O128 1.277 . S
C114 O129 1.247 1_565 S
C115 O130 1.240 1_455 S
C115 O131 1.240 . S
C116 Gd105 2.818 . S
C116 C117 1.510 . S
C116 O132 1.249 . S
C116 O133 1.252 . S
C117 C116 1.510 . S
C117 C118 1.404 . S
C117 C119 1.352 . S
C118 C117 1.404 . S
C118 C122 1.389 . S
C118 H140 0.930 . S
C119 C117 1.352 . S
C119 C121 1.374 . S
C119 H141 0.931 1_655 S
C120 C121 1.359 . S
C120 C122 1.364 . S
C121 C119 1.374 . S
C121 C120 1.359 . S
C121 H142 0.931 1_655 S
C122 C118 1.389 . S
C122 C120 1.364 . S
C122 H143 0.931 . S
C123 O134 1.256 . S
C123 O135 1.257 1_545 S
O124 Gd104 2.377 . S
O124 C106 1.240 1_455 S
O125 Gd105 2.395 1_565 S
O125 C106 1.240 . S
O126 Gd104 2.448 . S
O126 C107 1.249 . S
O127 Gd104 2.506 . S
O127 C107 1.252 . S
O128 Gd104 2.435 . S
O128 C114 1.277 . S
O129 Gd104 2.717 1_545 S
O129 Gd105 2.327 1_455 S
O129 C114 1.247 1_545 S
O130 Gd105 2.377 . S
O130 C115 1.240 1_655 S
O131 Gd104 2.395 1_545 S
O131 C115 1.240 . S
O132 Gd105 2.448 . S
O132 C116 1.249 . S
O133 Gd105 2.506 . S
O133 C116 1.252 . S
O134 Gd105 2.435 . S
O134 C123 1.256 . S
O135 Gd104 2.327 1_655 S
O135 Gd105 2.717 1_565 S
O135 C123 1.257 1_565 S
H136 C109 0.926 1_556 S
H137 C110 0.931 1_655 S
H138 C112 0.931 1_655 S
H139 C113 0.931 . S
H140 C118 0.930 . S
H141 C119 0.931 1_455 S
H142 C121 0.931 1_455 S
H143 C122 0.931 . S
Gd144 C147 2.818 . S
Gd144 O164 2.377 . S
Gd144 O166 2.448 . S
Gd144 O167 2.506 . S
Gd144 O168 2.435 . S
Gd144 O169 2.717 . S
Gd144 O171 2.395 . S
Gd144 O175 2.327 1_545 S
Gd145 C156 2.818 . S
Gd145 O165 2.395 . S
Gd145 O169 2.327 1_565 S
Gd145 O170 2.377 . S
Gd145 O172 2.448 . S
Gd145 O173 2.506 . S
Gd145 O174 2.435 . S
Gd145 O175 2.717 . S
C146 O164 1.240 1_565 S
C146 O165 1.240 . S
C147 Gd144 2.818 . S
C147 C148 1.510 1_556 S
C147 O166 1.249 . S
C147 O167 1.252 . S
C148 C147 1.510 1_554 S
C148 C149 1.404 . S
C148 C150 1.352 . S
C149 C148 1.404 . S
C149 C153 1.389 . S
C149 H176 0.927 1_554 S
C150 C148 1.352 . S
C150 C152 1.374 . S
C150 H177 0.931 1_545 S
C151 C152 1.359 . S
C151 C153 1.364 . S
C152 C150 1.374 . S
C152 C151 1.359 . S
C152 H178 0.931 1_545 S
C153 C149 1.389 . S
C153 C151 1.364 . S
C153 H179 0.931 . S
C154 O168 1.256 . S
C154 O169 1.257 . S
C155 O170 1.240 1_545 S
C155 O171 1.240 . S
C156 Gd145 2.818 . S
C156 C157 1.510 . S
C156 O172 1.249 . S
C156 O173 1.252 . S
C157 C156 1.510 . S
C157 C158 1.404 . S
C157 C159 1.352 . S
C158 C157 1.404 . S
C158 C162 1.389 . S
C158 H180 0.930 . S
C159 C157 1.352 . S
C159 C161 1.374 . S
C159 H181 0.931 1_565 S
C160 C161 1.359 . S
C160 C162 1.364 . S
C161 C159 1.374 . S
C161 C160 1.359 . S
C161 H182 0.931 1_565 S
C162 C158 1.389 . S
C162 C160 1.364 . S
C162 H183 0.931 . S
C163 O174 1.256 . S
C163 O175 1.257 . S
O164 Gd144 2.377 . S
O164 C146 1.240 1_545 S
O165 Gd145 2.395 . S
O165 C146 1.240 . S
O166 Gd144 2.448 . S
O166 C147 1.249 . S
O167 Gd144 2.506 . S
O167 C147 1.252 . S
O168 Gd144 2.435 . S
O168 C154 1.256 . S
O169 Gd144 2.717 . S
O169 Gd145 2.327 1_545 S
O169 C154 1.257 . S
O170 Gd145 2.377 . S
O170 C155 1.240 1_565 S
O171 Gd144 2.395 . S
O171 C155 1.240 . S
O172 Gd145 2.448 . S
O172 C156 1.249 . S
O173 Gd145 2.506 . S
O173 C156 1.252 . S
O174 Gd145 2.435 . S
O174 C163 1.256 . S
O175 Gd144 2.327 1_565 S
O175 Gd145 2.717 . S
O175 C163 1.257 . S
H176 C149 0.927 1_556 S
H177 C150 0.931 1_565 S
H178 C152 0.931 1_565 S
H179 C153 0.931 . S
H180 C158 0.930 . S
H181 C159 0.931 1_545 S
H182 C161 0.931 1_545 S
H183 C162 0.931 . S
Gd184 C187 2.818 . S
Gd184 O204 2.377 . S
Gd184 O206 2.448 . S
Gd184 O207 2.506 . S
Gd184 O208 2.435 . S
Gd184 O209 2.717 . S
Gd184 O211 2.395 . S
Gd184 O215 2.327 . S
Gd185 C196 2.818 . S
Gd185 O205 2.395 . S
Gd185 O209 2.327 . S
Gd185 O210 2.377 . S
Gd185 O212 2.448 . S
Gd185 O213 2.506 . S
Gd185 O214 2.435 . S
Gd185 O215 2.717 . S
C186 O204 1.240 . S
C186 O205 1.240 . S
C187 Gd184 2.818 . S
C187 C188 1.510 1_556 S
C187 O206 1.249 . S
C187 O207 1.252 . S
C188 C187 1.510 1_554 S
C188 C189 1.404 . S
C188 C190 1.352 . S
C189 C188 1.404 . S
C189 C193 1.389 . S
C189 H216 0.926 1_554 S
C190 C188 1.352 . S
C190 C192 1.374 . S
C190 H217 0.931 . S
C191 C192 1.359 . S
C191 C193 1.364 . S
C192 C190 1.374 . S
C192 C191 1.359 . S
C192 H218 0.931 . S
C193 C189 1.389 . S
C193 C191 1.364 . S
C193 H219 0.931 . S
C194 O208 1.256 . S
C194 O209 1.257 . S
C195 O210 1.240 . S
C195 O211 1.240 . S
C196 Gd185 2.818 . S
C196 C197 1.510 . S
C196 O212 1.249 . S
C196 O213 1.252 . S
C197 C196 1.510 . S
C197 C198 1.404 . S
C197 C199 1.352 . S
C198 C197 1.404 . S
C198 C202 1.389 . S
C198 H220 0.930 . S
C199 C197 1.352 . S
C199 C201 1.374 . S
C199 H221 0.931 . S
C200 C201 1.359 . S
C200 C202 1.364 . S
C201 C199 1.374 . S
C201 C200 1.359 . S
C201 H222 0.931 . S
C202 C198 1.389 . S
C202 C200 1.364 . S
C202 H223 0.931 . S
C203 O214 1.256 . S
C203 O215 1.257 . S
O204 Gd184 2.377 . S
O204 C186 1.240 . S
O205 Gd185 2.395 . S
O205 C186 1.240 . S
O206 Gd184 2.448 . S
O206 C187 1.249 . S
O207 Gd184 2.506 . S
O207 C187 1.252 . S
O208 Gd184 2.435 . S
O208 C194 1.256 . S
O209 Gd184 2.717 . S
O209 Gd185 2.327 . S
O209 C194 1.257 . S
O210 Gd185 2.377 . S
O210 C195 1.240 . S
O211 Gd184 2.395 . S
O211 C195 1.240 . S
O212 Gd185 2.448 . S
O212 C196 1.249 . S
O213 Gd185 2.506 . S
O213 C196 1.252 . S
O214 Gd185 2.435 . S
O214 C203 1.256 . S
O215 Gd184 2.327 . S
O215 Gd185 2.717 . S
O215 C203 1.257 . S
H216 C189 0.926 1_556 S
H217 C190 0.931 . S
H218 C192 0.931 . S
H219 C193 0.931 . S
H220 C198 0.930 . S
H221 C199 0.931 . S
H222 C201 0.931 . S
H223 C202 0.931 . S
Gd224 C227 2.818 . S
Gd224 O244 2.377 . S
Gd224 O246 2.448 . S
Gd224 O247 2.506 . S
Gd224 O248 2.435 . S
Gd224 O249 2.717 1_655 S
Gd224 O251 2.395 1_655 S
Gd224 O255 2.327 . S
Gd225 C236 2.818 . S
Gd225 O245 2.395 1_455 S
Gd225 O249 2.327 . S
Gd225 O250 2.377 . S
Gd225 O252 2.448 . S
Gd225 O253 2.506 . S
Gd225 O254 2.435 . S
Gd225 O255 2.717 1_455 S
C226 O244 1.240 . S
C226 O245 1.240 . S
C227 Gd224 2.818 . S
C227 C228 1.510 1_556 S
C227 O246 1.249 . S
C227 O247 1.252 . S
C228 C227 1.510 1_554 S
C228 C229 1.404 . S
C228 C230 1.352 . S
C229 C228 1.404 . S
C229 C233 1.389 . S
C229 H256 0.930 1_554 S
C230 C228 1.352 . S
C230 C232 1.374 . S
C230 H257 0.931 . S
C231 C232 1.359 . S
C231 C233 1.364 . S
C232 C230 1.374 . S
C232 C231 1.359 . S
C232 H258 0.931 . S
C233 C229 1.389 . S
C233 C231 1.364 . S
C233 H259 0.931 . S
C234 O248 1.265 . S
C234 O249 1.252 1_655 S
C235 O250 1.240 . S
C235 O251 1.240 . S
C236 Gd225 2.818 . S
C236 C237 1.510 . S
C236 O252 1.249 . S
C236 O253 1.252 . S
C237 C236 1.510 . S
C237 C238 1.404 . S
C237 C239 1.352 . S
C238 C237 1.404 . S
C238 C242 1.389 . S
C238 H260 0.930 . S
C239 C237 1.352 . S
C239 C241 1.374 . S
C239 H261 0.931 . S
C240 C241 1.359 . S
C240 C242 1.364 . S
C241 C239 1.374 . S
C241 C240 1.359 . S
C241 H262 0.931 . S
C242 C238 1.389 . S
C242 C240 1.364 . S
C242 H263 0.931 . S
C243 O254 1.256 . S
C243 O255 1.257 1_455 S
O244 Gd224 2.377 . S
O244 C226 1.240 . S
O245 Gd225 2.395 1_655 S
O245 C226 1.240 . S
O246 Gd224 2.448 . S
O246 C227 1.249 . S
O247 Gd224 2.506 . S
O247 C227 1.252 . S
O248 Gd224 2.435 . S
O248 C234 1.265 . S
O249 Gd224 2.717 1_455 S
O249 Gd225 2.327 . S
O249 C234 1.252 1_455 S
O250 Gd225 2.377 . S
O250 C235 1.240 . S
O251 Gd224 2.395 1_455 S
O251 C235 1.240 . S
O252 Gd225 2.448 . S
O252 C236 1.249 . S
O253 Gd225 2.506 . S
O253 C236 1.252 . S
O254 Gd225 2.435 . S
O254 C243 1.256 . S
O255 Gd224 2.327 . S
O255 Gd225 2.717 1_655 S
O255 C243 1.257 1_655 S
H256 C229 0.930 1_556 S
H257 C230 0.931 . S
H258 C232 0.931 . S
H259 C233 0.931 . S
H260 C238 0.930 . S
H261 C239 0.931 . S
H262 C241 0.931 . S
H263 C242 0.931 . S
H264 C276 0.930 . S
H265 C278 0.930 . S
H266 C279 0.930 . S
H267 C283 0.959 . S
H268 C283 0.959 . S
H269 C283 0.961 . S
H270 C284 0.960 . S
H271 C284 0.961 . S
H272 C284 0.959 . S
H273 C287 0.929 . S
H274 C288 0.931 . S
H275 C290 0.930 . S
C276 H264 0.930 . S
C276 C277 1.399 1_565 S
C276 C281 1.399 . S
C277 C276 1.399 1_545 S
C277 C278 1.376 . S
C278 H265 0.930 . S
C278 C277 1.376 . S
C278 C279 1.388 . S
C279 H266 0.930 . S
C279 C278 1.388 . S
C279 C280 1.390 . S
C280 C279 1.390 . S
C280 C281 1.394 1_545 S
C280 C286 1.465 . S
C281 C276 1.399 . S
C281 C280 1.394 1_565 S
C281 C282 1.516 . S
C282 C281 1.516 . S
C282 C283 1.502 . S
C282 C284 1.561 . S
C282 C285 1.526 . S
C283 H267 0.959 . S
C283 H268 0.959 . S
C283 H269 0.961 . S
C283 C282 1.502 . S
C284 H270 0.960 . S
C284 H271 0.961 . S
C284 H272 0.959 . S
C284 C282 1.561 . S
C285 C282 1.526 . S
C285 C286 1.396 1_565 S
C285 C290 1.390 . S
C286 C280 1.465 . S
C286 C285 1.396 1_545 S
C286 C287 1.399 . S
C287 H273 0.929 . S
C287 C286 1.399 . S
C287 C288 1.385 . S
C288 H274 0.931 . S
C288 C287 1.385 . S
C288 C289 1.389 . S
C289 C288 1.389 . S
C289 C290 1.387 1_545 S
C290 H275 0.930 . S
C290 C285 1.390 . S
C290 C289 1.387 1_565 S
H291 C303 0.930 . S
H292 C305 0.930 . S
H293 C306 0.930 . S
H294 C310 0.959 . S
H295 C310 0.959 . S
H296 C310 0.961 . S
H297 C311 0.960 . S
H298 C311 0.961 . S
H299 C311 0.959 . S
H300 C314 0.929 . S
H301 C315 0.931 . S
H302 C317 0.930 . S
C303 H291 0.930 . S
C303 C304 1.399 . S
C303 C308 1.399 . S
C304 C303 1.399 . S
C304 C305 1.376 . S
C305 H292 0.930 . S
C305 C304 1.376 . S
C305 C306 1.388 . S
C306 H293 0.930 . S
C306 C305 1.388 . S
C306 C307 1.390 . S
C307 C306 1.390 . S
C307 C308 1.394 . S
C307 C313 1.465 . S
C308 C303 1.399 . S
C308 C307 1.394 . S
C308 C309 1.516 . S
C309 C308 1.516 . S
C309 C310 1.502 . S
C309 C311 1.561 . S
C309 C312 1.526 . S
C310 H294 0.959 . S
C310 H295 0.959 . S
C310 H296 0.961 . S
C310 C309 1.502 . S
C311 H297 0.960 . S
C311 H298 0.961 . S
C311 H299 0.959 . S
C311 C309 1.561 . S
C312 C309 1.526 . S
C312 C313 1.396 . S
C312 C317 1.390 . S
C313 C307 1.465 . S
C313 C312 1.396 . S
C313 C314 1.399 . S
C314 H300 0.929 . S
C314 C313 1.399 . S
C314 C315 1.385 . S
C315 H301 0.931 . S
C315 C314 1.385 . S
C315 C316 1.389 . S
C316 C315 1.389 . S
C316 C317 1.387 . S
C317 H302 0.930 . S
C317 C312 1.390 . S
C317 C316 1.387 . S
H318 C330 0.930 . S
H319 C332 0.930 . S
H320 C333 0.930 . S
H321 C337 0.959 . S
H322 C337 0.959 . S
H323 C337 0.961 . S
H324 C338 0.960 . S
H325 C338 0.961 . S
H326 C338 0.959 . S
H327 C341 0.929 . S
H328 C342 0.931 . S
H329 C344 0.930 . S
C330 H318 0.930 . S
C330 C331 1.399 . S
C330 C335 1.399 . S
C331 C330 1.399 . S
C331 C332 1.376 . S
C332 H319 0.930 . S
C332 C331 1.376 . S
C332 C333 1.388 . S
C333 H320 0.930 . S
C333 C332 1.388 . S
C333 C334 1.390 . S
C334 C333 1.390 . S
C334 C335 1.394 . S
C334 C340 1.465 . S
C335 C330 1.399 . S
C335 C334 1.394 . S
C335 C336 1.516 . S
C336 C335 1.516 . S
C336 C337 1.502 . S
C336 C338 1.561 . S
C336 C339 1.526 . S
C337 H321 0.959 . S
C337 H322 0.959 . S
C337 H323 0.961 . S
C337 C336 1.502 . S
C338 H324 0.960 . S
C338 H325 0.961 . S
C338 H326 0.959 . S
C338 C336 1.561 . S
C339 C336 1.526 . S
C339 C340 1.396 . S
C339 C344 1.390 . S
C340 C334 1.465 . S
C340 C339 1.396 . S
C340 C341 1.399 . S
C341 H327 0.929 . S
C341 C340 1.399 . S
C341 C342 1.385 . S
C342 H328 0.931 . S
C342 C341 1.385 . S
C342 C343 1.389 . S
C343 C342 1.389 . S
C343 C344 1.387 . S
C344 H329 0.930 . S
C344 C339 1.390 . S
C344 C343 1.387 . S
H345 C357 0.930 . S
H346 C359 0.930 . S
H347 C360 0.930 . S
H348 C364 0.959 . S
H349 C364 0.959 . S
H350 C364 0.961 . S
H351 C365 0.960 . S
H352 C365 0.961 . S
H353 C365 0.959 . S
H354 C368 0.929 . S
H355 C369 0.931 . S
H356 C371 0.930 . S
C357 H345 0.930 . S
C357 C358 1.399 1_655 S
C357 C362 1.399 . S
C358 C357 1.399 1_455 S
C358 C359 1.376 . S
C359 H346 0.930 . S
C359 C358 1.376 . S
C359 C360 1.388 . S
C360 H347 0.930 . S
C360 C359 1.388 . S
C360 C361 1.390 . S
C361 C360 1.390 . S
C361 C362 1.394 1_455 S
C361 C367 1.465 . S
C362 C357 1.399 . S
C362 C361 1.394 1_655 S
C362 C363 1.516 . S
C363 C362 1.516 . S
C363 C364 1.502 . S
C363 C365 1.561 . S
C363 C366 1.526 . S
C364 H348 0.959 . S
C364 H349 0.959 . S
C364 H350 0.961 . S
C364 C363 1.502 . S
C365 H351 0.960 . S
C365 H352 0.961 . S
C365 H353 0.959 . S
C365 C363 1.561 . S
C366 C363 1.526 . S
C366 C367 1.396 1_655 S
C366 C371 1.390 . S
C367 C361 1.465 . S
C367 C366 1.396 1_455 S
C367 C368 1.399 . S
C368 H354 0.929 . S
C368 C367 1.399 . S
C368 C369 1.385 . S
C369 H355 0.931 . S
C369 C368 1.385 . S
C369 C370 1.389 . S
C370 C369 1.389 . S
C370 C371 1.387 1_455 S
C371 H356 0.930 . S
C371 C366 1.390 . S
C371 C370 1.387 1_655 S
H372 C384 0.930 . S
H373 C386 0.930 . S
H374 C387 0.930 . S
H375 C391 0.959 . S
H376 C391 0.959 1_556 S
H377 C391 0.961 . S
H378 C392 0.960 1_554 S
H379 C392 0.961 . S
H380 C392 0.959 1_554 S
H381 C395 0.929 . S
H382 C396 0.931 . S
H383 C398 0.930 . S
C384 H372 0.930 . S
C384 C385 1.399 . S
C384 C389 1.399 . S
C385 C384 1.399 . S
C385 C386 1.377 1_565 S
C386 H373 0.930 . S
C386 C385 1.377 1_545 S
C386 C387 1.388 . S
C387 H374 0.930 . S
C387 C386 1.388 . S
C387 C388 1.390 . S
C388 C387 1.390 . S
C388 C389 1.394 1_545 S
C388 C394 1.465 . S
C389 C384 1.399 . S
C389 C388 1.394 1_565 S
C389 C390 1.516 . S
C390 C389 1.516 . S
C390 C391 1.502 . S
C390 C392 1.561 1_564 S
C390 C393 1.526 . S
C391 H375 0.959 . S
C391 H376 0.959 1_554 S
C391 H377 0.961 . S
C391 C390 1.502 . S
C392 H378 0.960 1_556 S
C392 H379 0.961 . S
C392 H380 0.959 1_556 S
C392 C390 1.561 1_546 S
C393 C390 1.526 . S
C393 C394 1.396 1_565 S
C393 C398 1.390 1_554 S
C394 C388 1.465 . S
C394 C393 1.396 1_545 S
C394 C395 1.399 . S
C395 H381 0.929 . S
C395 C394 1.399 . S
C395 C396 1.385 . S
C396 H382 0.931 . S
C396 C395 1.385 . S
C396 C397 1.389 1_544 S
C397 C396 1.389 1_566 S
C397 C398 1.387 . S
C398 H383 0.930 . S
C398 C393 1.390 1_556 S
C398 C397 1.387 . S
H399 C411 0.930 . S
H400 C413 0.930 . S
H401 C414 0.930 . S
H402 C418 0.959 1_554 S
H403 C418 0.959 . S
H404 C418 0.961 1_554 S
H405 C419 0.960 . S
H406 C419 0.961 1_556 S
H407 C419 0.959 . S
H408 C422 0.929 . S
H409 C423 0.931 . S
H410 C425 0.930 . S
C411 H399 0.930 . S
C411 C412 1.399 . S
C411 C416 1.399 . S
C412 C411 1.399 . S
C412 C413 1.376 . S
C413 H400 0.930 . S
C413 C412 1.376 . S
C413 C414 1.388 . S
C414 H401 0.930 . S
C414 C413 1.388 . S
C414 C415 1.390 . S
C415 C414 1.390 . S
C415 C416 1.394 . S
C415 C421 1.465 . S
C416 C411 1.399 . S
C416 C415 1.394 . S
C416 C417 1.516 . S
C417 C416 1.516 . S
C417 C418 1.502 1_554 S
C417 C419 1.561 . S
C417 C420 1.526 . S
C418 H402 0.959 1_556 S
C418 H403 0.959 . S
C418 H404 0.961 1_556 S
C418 C417 1.502 1_556 S
C419 H405 0.960 . S
C419 H406 0.961 1_554 S
C419 H407 0.959 . S
C419 C417 1.561 . S
C420 C417 1.526 . S
C420 C421 1.396 . S
C420 C425 1.390 1_554 S
C421 C415 1.465 . S
C421 C420 1.396 . S
C421 C422 1.399 . S
C422 H408 0.929 . S
C422 C421 1.399 . S
C422 C423 1.385 . S
C423 H409 0.931 . S
C423 C422 1.385 . S
C423 C424 1.389 1_554 S
C424 C423 1.389 1_556 S
C424 C425 1.387 . S
C425 H410 0.930 . S
C425 C420 1.390 1_556 S
C425 C424 1.387 . S
H426 C438 0.930 . S
H427 C440 0.930 . S
H428 C441 0.930 . S
H429 C445 0.959 . S
H430 C445 0.959 1_556 S
H431 C445 0.961 . S
H432 C446 0.960 . S
H433 C446 0.961 . S
H434 C446 0.959 . S
H435 C449 0.929 . S
H436 C450 0.931 . S
H437 C452 0.930 . S
C438 H426 0.930 . S
C438 C439 1.399 . S
C438 C443 1.399 . S
C439 C438 1.399 . S
C439 C440 1.376 . S
C440 H427 0.930 . S
C440 C439 1.376 . S
C440 C441 1.388 . S
C441 H428 0.930 . S
C441 C440 1.388 . S
C441 C442 1.390 . S
C442 C441 1.390 . S
C442 C443 1.394 . S
C442 C448 1.465 . S
C443 C438 1.399 . S
C443 C442 1.394 . S
C443 C444 1.516 . S
C444 C443 1.516 . S
C444 C445 1.502 . S
C444 C446 1.561 . S
C444 C447 1.526 . S
C445 H429 0.959 . S
C445 H430 0.959 1_554 S
C445 H431 0.961 . S
C445 C444 1.502 . S
C446 H432 0.960 . S
C446 H433 0.961 . S
C446 H434 0.959 . S
C446 C444 1.561 . S
C447 C444 1.526 . S
C447 C448 1.396 . S
C447 C452 1.390 1_554 S
C448 C442 1.465 . S
C448 C447 1.396 . S
C448 C449 1.399 . S
C449 H435 0.929 . S
C449 C448 1.399 . S
C449 C450 1.385 1_554 S
C450 H436 0.931 . S
C450 C449 1.385 1_556 S
C450 C451 1.389 . S
C451 C450 1.389 . S
C451 C452 1.387 . S
C452 H437 0.930 . S
C452 C447 1.390 1_556 S
C452 C451 1.387 . S
H453 C465 0.930 . S
H454 C467 0.930 . S
H455 C468 0.930 . S
H456 C472 0.959 1_655 S
H457 C472 0.959 . S
H458 C472 0.961 1_554 S
H459 C473 0.960 . S
H460 C473 0.961 . S
H461 C473 0.959 . S
H462 C476 0.929 . S
H463 C477 0.930 1_556 S
H464 C479 0.930 . S
C465 H453 0.930 . S
C465 C466 1.399 1_455 S
C465 C470 1.399 . S
C466 C465 1.399 1_655 S
C466 C467 1.376 . S
C467 H454 0.930 . S
C467 C466 1.376 . S
C467 C468 1.388 . S
C468 H455 0.930 . S
C468 C467 1.388 . S
C468 C469 1.390 . S
C469 C468 1.390 . S
C469 C470 1.394 1_655 S
C469 C475 1.465 . S
C470 C465 1.399 . S
C470 C469 1.394 1_455 S
C470 C471 1.516 . S
C471 C470 1.516 . S
C471 C472 1.502 1_554 S
C471 C473 1.561 . S
C471 C474 1.526 . S
C472 H456 0.959 1_455 S
C472 H457 0.959 . S
C472 H458 0.961 1_556 S
C472 C471 1.502 1_556 S
C473 H459 0.960 . S
C473 H460 0.961 . S
C473 H461 0.959 . S
C473 C471 1.561 . S
C474 C471 1.526 . S
C474 C475 1.396 1_455 S
C474 C479 1.390 1_554 S
C475 C469 1.465 . S
C475 C474 1.396 1_655 S
C475 C476 1.399 . S
C476 H462 0.929 . S
C476 C475 1.399 . S
C476 C477 1.385 . S
C477 H463 0.930 1_554 S
C477 C476 1.385 . S
C477 C478 1.389 1_554 S
C478 C477 1.389 1_556 S
C478 C479 1.387 1_655 S
C479 H464 0.930 . S
C479 C474 1.390 1_556 S
C479 C478 1.387 1_455 S
H480 C492 0.930 . S
H481 C494 0.930 . S
H482 C495 0.930 . S
H483 C499 0.959 . S
H484 C499 0.959 . S
H485 C499 0.961 . S
H486 C500 0.960 . S
H487 C500 0.961 . S
H488 C500 0.959 . S
H489 C503 0.929 1_455 S
H490 C504 0.931 . S
H491 C506 0.930 . S
C492 H480 0.930 . S
C492 C493 1.399 1_655 S
C492 C497 1.399 . S
C493 C492 1.399 1_455 S
C493 C494 1.376 . S
C494 H481 0.930 . S
C494 C493 1.376 . S
C494 C495 1.388 . S
C495 H482 0.930 . S
C495 C494 1.388 . S
C495 C496 1.390 1_455 S
C496 C495 1.390 1_655 S
C496 C497 1.394 . S
C496 C502 1.465 . S
C497 C492 1.399 . S
C497 C496 1.394 . S
C497 C498 1.516 . S
C498 C497 1.516 . S
C498 C499 1.502 . S
C498 C500 1.561 . S
C498 C501 1.526 . S
C499 H483 0.959 . S
C499 H484 0.959 . S
C499 H485 0.961 . S
C499 C498 1.502 . S
C500 H486 0.960 . S
C500 H487 0.961 . S
C500 H488 0.959 . S
C500 C498 1.561 . S
C501 C498 1.526 . S
C501 C502 1.396 . S
C501 C506 1.390 . S
C502 C496 1.465 . S
C502 C501 1.396 . S
C502 C503 1.399 . S
C503 H489 0.929 1_655 S
C503 C502 1.399 . S
C503 C504 1.385 . S
C504 H490 0.931 . S
C504 C503 1.385 . S
C504 C505 1.389 . S
C505 C504 1.389 . S
C505 C506 1.387 . S
C506 H491 0.930 . S
C506 C501 1.390 . S
C506 C505 1.387 . S
H507 C519 0.930 . S
H508 C521 0.930 . S
H509 C522 0.930 . S
H510 C526 0.959 . S
H511 C526 0.959 . S
H512 C526 0.961 . S
H513 C527 0.960 . S
H514 C527 0.961 . S
H515 C527 0.959 . S
H516 C530 0.929 . S
H517 C531 0.931 . S
H518 C533 0.925 1_545 S
C519 H507 0.930 . S
C519 C520 1.416 . S
C519 C524 1.399 . S
C520 C519 1.416 . S
C520 C521 1.344 1_545 S
C521 H508 0.930 . S
C521 C520 1.344 1_565 S
C521 C522 1.388 . S
C522 H509 0.930 . S
C522 C521 1.388 . S
C522 C523 1.390 . S
C523 C522 1.390 . S
C523 C524 1.394 1_565 S
C523 C529 1.465 . S
C524 C519 1.399 . S
C524 C523 1.394 1_545 S
C524 C525 1.516 . S
C525 C524 1.516 . S
C525 C526 1.502 . S
C525 C527 1.561 . S
C525 C528 1.526 1_545 S
C526 H510 0.959 . S
C526 H511 0.959 . S
C526 H512 0.961 . S
C526 C525 1.502 . S
C527 H513 0.960 . S
C527 H514 0.961 . S
C527 H515 0.959 . S
C527 C525 1.561 . S
C528 C525 1.526 1_565 S
C528 C529 1.396 . S
C528 C533 1.390 . S
C529 C523 1.465 . S
C529 C528 1.396 . S
C529 C530 1.399 . S
C530 H516 0.929 . S
C530 C529 1.399 . S
C530 C531 1.385 . S
C531 H517 0.931 . S
C531 C530 1.385 . S
C531 C532 1.389 . S
C532 C531 1.389 . S
C532 C533 1.387 . S
C533 H518 0.925 1_565 S
C533 C528 1.390 . S
C533 C532 1.387 . S
H534 C546 0.930 . S
H535 C548 0.930 . S
H536 C549 0.930 . S
H537 C553 0.959 . S
H538 C553 0.959 . S
H539 C553 0.961 . S
H540 C554 0.960 . S
H541 C554 0.961 . S
H542 C554 0.959 . S
H543 C557 0.929 . S
H544 C558 0.931 . S
H545 C560 0.930 . S
C546 H534 0.930 . S
C546 C547 1.399 . S
C546 C551 1.399 . S
C547 C546 1.399 . S
C547 C548 1.376 . S
C548 H535 0.930 . S
C548 C547 1.376 . S
C548 C549 1.388 . S
C549 H536 0.930 . S
C549 C548 1.388 . S
C549 C550 1.390 . S
C550 C549 1.390 . S
C550 C551 1.394 . S
C550 C556 1.465 . S
C551 C546 1.399 . S
C551 C550 1.394 . S
C551 C552 1.516 . S
C552 C551 1.516 . S
C552 C553 1.502 . S
C552 C554 1.561 . S
C552 C555 1.526 . S
C553 H537 0.959 . S
C553 H538 0.959 . S
C553 H539 0.961 . S
C553 C552 1.502 . S
C554 H540 0.960 . S
C554 H541 0.961 . S
C554 H542 0.959 . S
C554 C552 1.561 . S
C555 C552 1.526 . S
C555 C556 1.396 . S
C555 C560 1.390 . S
C556 C550 1.465 . S
C556 C555 1.396 . S
C556 C557 1.399 . S
C557 H543 0.929 . S
C557 C556 1.399 . S
C557 C558 1.385 . S
C558 H544 0.931 . S
C558 C557 1.385 . S
C558 C559 1.389 . S
C559 C558 1.389 . S
C559 C560 1.387 . S
C560 H545 0.930 . S
C560 C555 1.390 . S
C560 C559 1.387 . S
H561 C573 0.930 . S
H562 C575 0.930 . S
H563 C576 0.930 . S
H564 C580 0.959 . S
H565 C580 0.959 . S
H566 C580 0.961 . S
H567 C581 0.960 . S
H568 C581 0.961 . S
H569 C581 0.959 . S
H570 C584 0.929 . S
H571 C585 0.931 . S
H572 C587 0.930 . S
C573 H561 0.930 . S
C573 C574 1.399 . S
C573 C578 1.399 . S
C574 C573 1.399 . S
C574 C575 1.376 . S
C575 H562 0.930 . S
C575 C574 1.376 . S
C575 C576 1.388 . S
C576 H563 0.930 . S
C576 C575 1.388 . S
C576 C577 1.390 . S
C577 C576 1.390 . S
C577 C578 1.394 . S
C577 C583 1.465 . S
C578 C573 1.399 . S
C578 C577 1.394 . S
C578 C579 1.516 . S
C579 C578 1.516 . S
C579 C580 1.502 . S
C579 C581 1.561 . S
C579 C582 1.526 . S
C580 H564 0.959 . S
C580 H565 0.959 . S
C580 H566 0.961 . S
C580 C579 1.502 . S
C581 H567 0.960 . S
C581 H568 0.961 . S
C581 H569 0.959 . S
C581 C579 1.561 . S
C582 C579 1.526 . S
C582 C583 1.396 . S
C582 C587 1.390 . S
C583 C577 1.465 . S
C583 C582 1.396 . S
C583 C584 1.399 . S
C584 H570 0.929 . S
C584 C583 1.399 . S
C584 C585 1.385 . S
C585 H571 0.931 . S
C585 C584 1.385 . S
C585 C586 1.389 . S
C586 C585 1.389 . S
C586 C587 1.387 . S
C587 H572 0.930 . S
C587 C582 1.390 . S
C587 C586 1.387 . S
H588 C600 0.930 . S
H589 C602 0.930 . S
H590 C603 0.930 . S
H591 C607 0.959 . S
H592 C607 0.959 . S
H593 C607 0.961 . S
H594 C608 0.960 . S
H595 C608 0.961 . S
H596 C608 0.959 . S
H597 C611 0.929 . S
H598 C612 0.931 . S
H599 C614 0.932 . S
C600 H588 0.930 . S
C600 C601 1.402 . S
C600 C605 1.399 . S
C601 C600 1.402 . S
C601 C602 1.370 1_655 S
C602 H589 0.930 . S
C602 C601 1.370 1_455 S
C602 C603 1.388 . S
C603 H590 0.930 . S
C603 C602 1.388 . S
C603 C604 1.390 . S
C604 C603 1.390 . S
C604 C605 1.394 1_455 S
C604 C610 1.465 . S
C605 C600 1.399 . S
C605 C604 1.394 1_655 S
C605 C606 1.516 . S
C606 C605 1.516 . S
C606 C607 1.502 . S
C606 C608 1.561 . S
C606 C609 1.526 1_655 S
C607 H591 0.959 . S
C607 H592 0.959 . S
C607 H593 0.961 . S
C607 C606 1.502 . S
C608 H594 0.960 . S
C608 H595 0.961 . S
C608 H596 0.959 . S
C608 C606 1.561 . S
C609 C606 1.526 1_455 S
C609 C610 1.396 . S
C609 C614 1.390 . S
C610 C604 1.465 . S
C610 C609 1.396 . S
C610 C611 1.399 . S
C611 H597 0.929 . S
C611 C610 1.399 . S
C611 C612 1.385 . S
C612 H598 0.931 . S
C612 C611 1.385 . S
C612 C613 1.389 . S
C613 C612 1.389 . S
C613 C614 1.387 . S
C614 H599 0.932 . S
C614 C609 1.390 . S
C614 C613 1.387 . S
H615 C627 0.930 . S
H616 C629 0.930 . S
H617 C630 0.930 . S
H618 C634 0.959 . S
H619 C634 0.959 . S
H620 C634 0.961 . S
H621 C635 0.960 . S
H622 C635 0.961 . S
H623 C635 0.959 . S
H624 C638 0.929 . S
H625 C639 0.931 1_565 S
H626 C641 0.930 . S
C627 H615 0.930 . S
C627 C628 1.399 1_545 S
C627 C632 1.399 . S
C628 C627 1.399 1_565 S
C628 C629 1.376 . S
C629 H616 0.930 . S
C629 C628 1.376 . S
C629 C630 1.388 . S
C630 H617 0.930 . S
C630 C629 1.388 . S
C630 C631 1.386 . S
C631 C630 1.386 . S
C631 C632 1.397 1_565 S
C631 C637 1.466 1_565 S
C632 C627 1.399 . S
C632 C631 1.397 1_545 S
C632 C633 1.516 . S
C633 C632 1.516 . S
C633 C634 1.502 . S
C633 C635 1.561 . S
C633 C636 1.526 . S
C634 H618 0.959 . S
C634 H619 0.959 . S
C634 H620 0.961 . S
C634 C633 1.502 . S
C635 H621 0.960 . S
C635 H622 0.961 . S
C635 H623 0.959 . S
C635 C633 1.561 . S
C636 C633 1.526 . S
C636 C637 1.396 . S
C636 C641 1.390 . S
C637 C631 1.466 1_545 S
C637 C636 1.396 . S
C637 C638 1.399 1_545 S
C638 H624 0.929 . S
C638 C637 1.399 1_565 S
C638 C639 1.385 1_565 S
C639 H625 0.931 1_545 S
C639 C638 1.385 1_545 S
C639 C640 1.389 . S
C640 C639 1.389 . S
C640 C641 1.387 . S
C641 H626 0.930 . S
C641 C636 1.390 . S
C641 C640 1.387 . S
H642 C654 0.930 . S
H643 C656 0.930 . S
H644 C657 0.930 . S
H645 C661 0.959 . S
H646 C661 0.959 . S
H647 C661 0.961 . S
H648 C662 0.960 . S
H649 C662 0.961 . S
H650 C662 0.959 . S
H651 C665 0.929 . S
H652 C666 0.931 . S
H653 C668 0.930 . S
C654 H642 0.930 . S
C654 C655 1.399 . S
C654 C659 1.399 . S
C655 C654 1.399 . S
C655 C656 1.376 . S
C656 H643 0.930 . S
C656 C655 1.376 . S
C656 C657 1.388 . S
C657 H644 0.930 . S
C657 C656 1.388 . S
C657 C658 1.390 . S
C658 C657 1.390 . S
C658 C659 1.394 . S
C658 C664 1.465 . S
C659 C654 1.399 . S
C659 C658 1.394 . S
C659 C660 1.516 . S
C660 C659 1.516 . S
C660 C661 1.502 . S
C660 C662 1.561 . S
C660 C663 1.526 . S
C661 H645 0.959 . S
C661 H646 0.959 . S
C661 H647 0.961 . S
C661 C660 1.502 . S
C662 H648 0.960 . S
C662 H649 0.961 . S
C662 H650 0.959 . S
C662 C660 1.561 . S
C663 C660 1.526 . S
C663 C664 1.396 . S
C663 C668 1.390 . S
C664 C658 1.465 . S
C664 C663 1.396 . S
C664 C665 1.399 . S
C665 H651 0.929 . S
C665 C664 1.399 . S
C665 C666 1.385 . S
C666 H652 0.931 . S
C666 C665 1.385 . S
C666 C667 1.389 . S
C667 C666 1.389 . S
C667 C668 1.387 . S
C668 H653 0.930 . S
C668 C663 1.390 . S
C668 C667 1.387 . S
H669 C681 0.930 . S
H670 C683 0.930 . S
H671 C684 0.930 . S
H672 C688 0.959 . S
H673 C688 0.959 1_556 S
H674 C688 0.961 . S
H675 C689 0.960 . S
H676 C689 0.961 . S
H677 C689 0.959 . S
H678 C692 0.929 . S
H679 C693 0.931 . S
H680 C695 0.930 . S
C681 H669 0.930 . S
C681 C682 1.399 . S
C681 C686 1.399 . S
C682 C681 1.399 . S
C682 C683 1.376 . S
C683 H670 0.930 . S
C683 C682 1.376 . S
C683 C684 1.388 . S
C684 H671 0.930 . S
C684 C683 1.388 . S
C684 C685 1.390 . S
C685 C684 1.390 . S
C685 C686 1.394 . S
C685 C691 1.465 . S
C686 C681 1.399 . S
C686 C685 1.394 . S
C686 C687 1.516 . S
C687 C686 1.516 . S
C687 C688 1.502 . S
C687 C689 1.561 . S
C687 C690 1.526 . S
C688 H672 0.959 . S
C688 H673 0.959 1_554 S
C688 H674 0.961 . S
C688 C687 1.502 . S
C689 H675 0.960 . S
C689 H676 0.961 . S
C689 H677 0.959 . S
C689 C687 1.561 . S
C690 C687 1.526 . S
C690 C691 1.396 . S
C690 C695 1.390 . S
C691 C685 1.465 . S
C691 C690 1.396 . S
C691 C692 1.399 . S
C692 H678 0.929 . S
C692 C691 1.399 . S
C692 C693 1.385 . S
C693 H679 0.931 . S
C693 C692 1.385 . S
C693 C694 1.389 . S
C694 C693 1.389 . S
C694 C695 1.387 . S
C695 H680 0.930 . S
C695 C690 1.390 . S
C695 C694 1.387 . S
H696 C708 0.930 . S
H697 C710 0.930 . S
H698 C711 0.930 . S
H699 C715 0.959 . S
H700 C715 0.959 . S
H701 C715 0.961 . S
H702 C716 0.960 . S
H703 C716 0.961 . S
H704 C716 0.959 1_655 S
H705 C719 0.929 . S
H706 C720 0.931 . S
H707 C722 0.930 . S
C708 H696 0.930 . S
C708 C709 1.399 . S
C708 C713 1.399 . S
C709 C708 1.399 . S
C709 C710 1.376 1_455 S
C710 H697 0.930 . S
C710 C709 1.376 1_655 S
C710 C711 1.388 . S
C711 H698 0.930 . S
C711 C710 1.388 . S
C711 C712 1.390 . S
C712 C711 1.390 . S
C712 C713 1.394 1_655 S
C712 C718 1.465 . S
C713 C708 1.399 . S
C713 C712 1.394 1_455 S
C713 C714 1.516 . S
C714 C713 1.516 . S
C714 C715 1.502 . S
C714 C716 1.561 1_556 S
C714 C717 1.526 . S
C715 H699 0.959 . S
C715 H700 0.959 . S
C715 H701 0.961 . S
C715 C714 1.502 . S
C716 H702 0.960 . S
C716 H703 0.961 . S
C716 H704 0.959 1_455 S
C716 C714 1.561 1_554 S
C717 C714 1.526 . S
C717 C718 1.396 1_455 S
C717 C722 1.390 . S
C718 C712 1.465 . S
C718 C717 1.396 1_655 S
C718 C719 1.399 . S
C719 H705 0.929 . S
C719 C718 1.399 . S
C719 C720 1.385 . S
C720 H706 0.931 . S
C720 C719 1.385 . S
C720 C721 1.389 1_655 S
C721 C720 1.389 1_455 S
C721 C722 1.387 . S
C722 H707 0.930 . S
C722 C717 1.390 . S
C722 C721 1.387 . S
H723 C735 0.930 . S
H724 C737 0.930 . S
H725 C738 0.930 . S
H726 C742 0.959 . S
H727 C742 0.959 . S
H728 C742 0.961 . S
H729 C743 0.960 . S
H730 C743 0.961 . S
H731 C743 0.959 1_554 S
H732 C746 0.929 . S
H733 C747 0.931 . S
H734 C749 0.930 . S
C735 H723 0.930 . S
C735 C736 1.431 . S
C735 C740 1.399 . S
C736 C735 1.431 . S
C736 C737 1.339 1_545 S
C737 H724 0.930 . S
C737 C736 1.339 1_565 S
C737 C738 1.388 . S
C738 H725 0.930 . S
C738 C737 1.388 . S
C738 C739 1.390 . S
C739 C738 1.390 . S
C739 C740 1.394 1_565 S
C739 C745 1.465 . S
C740 C735 1.399 . S
C740 C739 1.394 1_545 S
C740 C741 1.516 . S
C741 C740 1.516 . S
C741 C742 1.502 . S
C741 C743 1.561 . S
C741 C744 1.526 . S
C742 H726 0.959 . S
C742 H727 0.959 . S
C742 H728 0.961 . S
C742 C741 1.502 . S
C743 H729 0.960 . S
C743 H730 0.961 . S
C743 H731 0.959 1_556 S
C743 C741 1.561 . S
C744 C741 1.526 . S
C744 C745 1.396 1_545 S
C744 C749 1.390 . S
C745 C739 1.465 . S
C745 C744 1.396 1_565 S
C745 C746 1.399 . S
C746 H732 0.929 . S
C746 C745 1.399 . S
C746 C747 1.385 . S
C747 H733 0.931 . S
C747 C746 1.385 . S
C747 C748 1.389 1_565 S
C748 C747 1.389 1_545 S
C748 C749 1.387 . S
C749 H734 0.930 . S
C749 C744 1.390 . S
C749 C748 1.387 . S
H750 C762 0.930 . S
H751 C764 0.930 . S
H752 C765 0.930 . S
H753 C769 0.959 . S
H754 C769 0.959 1_554 S
H755 C769 0.961 1_554 S
H756 C770 0.960 . S
H757 C770 0.961 . S
H758 C770 0.959 . S
H759 C773 0.929 . S
H760 C774 0.931 . S
H761 C776 0.930 . S
C762 H750 0.930 . S
C762 C763 1.399 . S
C762 C767 1.399 . S
C763 C762 1.399 . S
C763 C764 1.376 . S
C764 H751 0.930 . S
C764 C763 1.376 . S
C764 C765 1.388 . S
C765 H752 0.930 . S
C765 C764 1.388 . S
C765 C766 1.390 . S
C766 C765 1.390 . S
C766 C767 1.394 . S
C766 C772 1.465 . S
C767 C762 1.399 . S
C767 C766 1.394 . S
C767 C768 1.516 . S
C768 C767 1.516 . S
C768 C769 1.502 . S
C768 C770 1.561 1_556 S
C768 C771 1.526 . S
C769 H753 0.959 . S
C769 H754 0.959 1_556 S
C769 H755 0.961 1_556 S
C769 C768 1.502 . S
C770 H756 0.960 . S
C770 H757 0.961 . S
C770 H758 0.959 . S
C770 C768 1.561 1_554 S
C771 C768 1.526 . S
C771 C772 1.396 . S
C771 C776 1.390 . S
C772 C766 1.465 . S
C772 C771 1.396 . S
C772 C773 1.399 . S
C773 H759 0.929 . S
C773 C772 1.399 . S
C773 C774 1.385 . S
C774 H760 0.931 . S
C774 C773 1.385 . S
C774 C775 1.389 . S
C775 C774 1.389 . S
C775 C776 1.387 . S
C776 H761 0.930 . S
C776 C771 1.390 . S
C776 C775 1.387 . S
H777 C789 0.930 . S
H778 C791 0.930 . S
H779 C792 0.930 . S
H780 C796 0.959 . S
H781 C796 0.959 . S
H782 C796 0.961 . S
H783 C797 0.960 . S
H784 C797 0.961 . S
H785 C797 0.959 . S
H786 C800 0.929 . S
H787 C801 0.931 . S
H788 C803 0.930 . S
C789 H777 0.930 . S
C789 C790 1.399 . S
C789 C794 1.399 . S
C790 C789 1.399 . S
C790 C791 1.376 . S
C791 H778 0.930 . S
C791 C790 1.376 . S
C791 C792 1.388 . S
C792 H779 0.930 . S
C792 C791 1.388 . S
C792 C793 1.390 . S
C793 C792 1.390 . S
C793 C794 1.394 . S
C793 C799 1.465 . S
C794 C789 1.399 . S
C794 C793 1.394 . S
C794 C795 1.516 . S
C795 C794 1.516 . S
C795 C796 1.502 . S
C795 C797 1.561 . S
C795 C798 1.526 . S
C796 H780 0.959 . S
C796 H781 0.959 . S
C796 H782 0.961 . S
C796 C795 1.502 . S
C797 H783 0.960 . S
C797 H784 0.961 . S
C797 H785 0.959 . S
C797 C795 1.561 . S
C798 C795 1.526 . S
C798 C799 1.396 . S
C798 C803 1.390 . S
C799 C793 1.465 . S
C799 C798 1.396 . S
C799 C800 1.399 . S
C800 H786 0.929 . S
C800 C799 1.399 . S
C800 C801 1.385 . S
C801 H787 0.931 . S
C801 C800 1.385 . S
C801 C802 1.389 . S
C802 C801 1.389 . S
C802 C803 1.387 . S
C803 H788 0.930 . S
C803 C798 1.390 . S
C803 C802 1.387 . S
H804 C816 0.930 . S
H805 C818 0.930 . S
H806 C819 0.930 . S
H807 C823 0.959 . S
H808 C823 0.959 . S
H809 C823 0.961 . S
H810 C824 0.960 . S
H811 C824 0.961 . S
H812 C824 0.959 . S
H813 C827 0.929 . S
H814 C828 0.931 . S
H815 C830 0.930 1_455 S
C816 H804 0.930 . S
C816 C817 1.399 1_455 S
C816 C821 1.399 1_455 S
C817 C816 1.399 1_655 S
C817 C818 1.376 . S
C818 H805 0.930 . S
C818 C817 1.376 . S
C818 C819 1.388 . S
C819 H806 0.930 . S
C819 C818 1.388 . S
C819 C820 1.390 . S
C820 C819 1.390 . S
C820 C821 1.394 . S
C820 C826 1.465 . S
C821 C816 1.399 1_655 S
C821 C820 1.394 . S
C821 C822 1.516 1_655 S
C822 C821 1.516 1_455 S
C822 C823 1.502 . S
C822 C824 1.561 1_455 S
C822 C825 1.526 1_455 S
C823 H807 0.959 . S
C823 H808 0.959 . S
C823 H809 0.961 . S
C823 C822 1.502 . S
C824 H810 0.960 . S
C824 H811 0.961 . S
C824 H812 0.959 . S
C824 C822 1.561 1_655 S
C825 C822 1.526 1_655 S
C825 C826 1.396 . S
C825 C830 1.390 . S
C826 C820 1.465 . S
C826 C825 1.396 . S
C826 C827 1.399 . S
C827 H813 0.929 . S
C827 C826 1.399 . S
C827 C828 1.385 . S
C828 H814 0.931 . S
C828 C827 1.385 . S
C828 C829 1.389 . S
C829 C828 1.389 . S
C829 C830 1.387 . S
C830 H815 0.930 1_655 S
C830 C825 1.390 . S
C830 C829 1.387 . S
H831 C843 0.930 . S
H832 C845 0.930 . S
H833 C846 0.930 . S
H834 C850 0.959 . S
H835 C850 0.959 . S
H836 C850 0.961 . S
H837 C851 0.960 . S
H838 C851 0.961 . S
H839 C851 0.959 . S
H840 C854 0.929 . S
H841 C855 0.931 . S
H842 C857 0.930 . S
C843 H831 0.930 . S
C843 C844 1.417 . S
C843 C848 1.399 . S
C844 C843 1.417 . S
C844 C845 1.356 1_565 S
C845 H832 0.930 . S
C845 C844 1.356 1_545 S
C845 C846 1.388 . S
C846 H833 0.930 . S
C846 C845 1.388 . S
C846 C847 1.390 . S
C847 C846 1.390 . S
C847 C848 1.394 1_545 S
C847 C853 1.465 . S
C848 C843 1.399 . S
C848 C847 1.394 1_565 S
C848 C849 1.516 . S
C849 C848 1.516 . S
C849 C850 1.502 . S
C849 C851 1.561 . S
C849 C852 1.526 . S
C850 H834 0.959 . S
C850 H835 0.959 . S
C850 H836 0.961 . S
C850 C849 1.502 . S
C851 H837 0.960 . S
C851 H838 0.961 . S
C851 H839 0.959 . S
C851 C849 1.561 . S
C852 C849 1.526 . S
C852 C853 1.396 1_565 S
C852 C857 1.390 . S
C853 C847 1.465 . S
C853 C852 1.396 1_545 S
C853 C854 1.399 . S
C854 H840 0.929 . S
C854 C853 1.399 . S
C854 C855 1.385 . S
C855 H841 0.931 . S
C855 C854 1.385 . S
C855 C856 1.389 1_545 S
C856 C855 1.389 1_565 S
C856 C857 1.387 . S
C857 H842 0.930 . S
C857 C852 1.390 . S
C857 C856 1.387 . S
H858 C870 0.930 . S
H859 C872 0.930 . S
H860 C873 0.930 . S
H861 C877 0.959 . S
H862 C877 0.959 . S
H863 C877 0.961 . S
H864 C878 0.960 . S
H865 C878 0.961 . S
H866 C878 0.959 . S
H867 C881 0.929 . S
H868 C882 0.931 . S
H869 C884 0.930 . S
C870 H858 0.930 . S
C870 C871 1.399 . S
C870 C875 1.399 . S
C871 C870 1.399 . S
C871 C872 1.376 . S
C872 H859 0.930 . S
C872 C871 1.376 . S
C872 C873 1.388 . S
C873 H860 0.930 . S
C873 C872 1.388 . S
C873 C874 1.390 . S
C874 C873 1.390 . S
C874 C875 1.394 . S
C874 C880 1.465 . S
C875 C870 1.399 . S
C875 C874 1.394 . S
C875 C876 1.516 . S
C876 C875 1.516 . S
C876 C877 1.502 . S
C876 C878 1.561 . S
C876 C879 1.526 . S
C877 H861 0.959 . S
C877 H862 0.959 . S
C877 H863 0.961 . S
C877 C876 1.502 . S
C878 H864 0.960 . S
C878 H865 0.961 . S
C878 H866 0.959 . S
C878 C876 1.561 . S
C879 C876 1.526 . S
C879 C880 1.396 . S
C879 C884 1.390 . S
C880 C874 1.465 . S
C880 C879 1.396 . S
C880 C881 1.399 . S
C881 H867 0.929 . S
C881 C880 1.399 . S
C881 C882 1.385 . S
C882 H868 0.931 . S
C882 C881 1.385 . S
C882 C883 1.389 . S
C883 C882 1.389 . S
C883 C884 1.387 . S
C884 H869 0.930 . S
C884 C879 1.390 . S
C884 C883 1.387 . S
H885 C897 0.930 . S
H886 C899 0.930 . S
H887 C900 0.930 . S
H888 C904 0.959 . S
H889 C904 0.959 . S
H890 C904 0.961 . S
H891 C905 0.960 . S
H892 C905 0.961 . S
H893 C905 0.959 . S
H894 C908 0.929 . S
H895 C909 0.931 . S
H896 C911 0.930 . S
C897 H885 0.930 . S
C897 C898 1.399 . S
C897 C902 1.399 . S
C898 C897 1.399 . S
C898 C899 1.376 . S
C899 H886 0.930 . S
C899 C898 1.376 . S
C899 C900 1.388 . S
C900 H887 0.930 . S
C900 C899 1.388 . S
C900 C901 1.390 . S
C901 C900 1.390 . S
C901 C902 1.394 . S
C901 C907 1.465 . S
C902 C897 1.399 . S
C902 C901 1.394 . S
C902 C903 1.516 . S
C903 C902 1.516 . S
C903 C904 1.502 . S
C903 C905 1.561 . S
C903 C906 1.526 . S
C904 H888 0.959 . S
C904 H889 0.959 . S
C904 H890 0.961 . S
C904 C903 1.502 . S
C905 H891 0.960 . S
C905 H892 0.961 . S
C905 H893 0.959 . S
C905 C903 1.561 . S
C906 C903 1.526 . S
C906 C907 1.396 . S
C906 C911 1.390 . S
C907 C901 1.465 . S
C907 C906 1.396 . S
C907 C908 1.399 . S
C908 H894 0.929 . S
C908 C907 1.399 . S
C908 C909 1.385 . S
C909 H895 0.931 . S
C909 C908 1.385 . S
C909 C910 1.389 . S
C910 C909 1.389 . S
C910 C911 1.387 . S
C911 H896 0.930 . S
C911 C906 1.390 . S
C911 C910 1.387 . S
C277 C82 1.621 . S
C289 C114 1.955 1_545 S
C316 C154 1.953 . S
C304 C95 1.618 . S
C343 C194 1.961 . S
C331 C56 1.619 . S
C370 C234 1.962 1_455 S
C358 C69 1.638 . S
C397 C123 1.953 1_565 S
C385 C30 1.715 1_565 S
C412 C43 1.718 . S
C424 C163 1.955 . S
C439 C4 1.730 . S
C451 C203 1.965 . S
C466 C17 1.736 1_655 S
C478 C243 1.962 1_655 S
C505 C120 0.475 . S
C493 C74 0.626 . S
C532 C160 0.636 . S
C520 C87 0.535 . S
C559 C200 0.456 . S
C547 C100 0.609 . S
C574 C61 0.599 . S
C586 C240 0.450 . S
C601 C22 0.460 . S
C613 C111 0.638 . S
C640 C151 0.447 . S
C628 C35 0.636 . S
C667 C191 0.636 . S
C655 C48 0.473 . S
C682 C9 0.486 . S
C694 C231 0.551 . S
C709 C73 2.029 . S
C721 C115 2.232 . S
C736 C86 1.993 . S
C748 C155 2.234 . S
C775 C195 2.239 . S
C763 C99 2.039 . S
C802 C235 2.263 . S
C790 C60 1.980 . S
C817 C21 2.042 . S
C829 C106 2.262 . S
C856 C146 2.235 . S
C844 C34 2.015 . S
C883 C186 2.261 . S
C871 C47 2.030 . S
C898 C8 1.963 . S
C910 C226 2.261 . S
