# Generated by pormake.
# Topology zzz, (3,6)-cn, num edge types: 1
# Building blocks:
#     Node 0, Type 0, BuildingBlock: ESEHIV_clean_linker_0, # of connection points: 3
#     Node 1, Type 0, BuildingBlock: ESEHIV_clean_linker_0, # of connection points: 3
#     Node 2, Type 0, BuildingBlock: ESEHIV_clean_linker_0, # of connection points: 3
#     Node 3, Type 0, BuildingBlock: ESEHIV_clean_linker_0, # of connection points: 3
#     Node 4, Type 0, BuildingBlock: ESEHIV_clean_linker_0, # of connection points: 3
#     Node 5, Type 0, BuildingBlock: ESEHIV_clean_linker_0, # of connection points: 3
#     Node 6, Type 0, BuildingBlock: ESEHIV_clean_linker_0, # of connection points: 3
#     Node 7, Type 0, BuildingBlock: ESEHIV_clean_linker_0, # of connection points: 3
#     Node 8, Type 1, BuildingBlock: HISSIN_clean_sbu_0, # of connection points: 6
#     Node 9, Type 1, BuildingBlock: HISSIN_clean_sbu_0, # of connection points: 6
#     Node 10, Type 1, BuildingBlock: HISSIN_clean_sbu_0, # of connection points: 6
#     Node 11, Type 1, BuildingBlock: HISSIN_clean_sbu_0, # of connection points: 6
#     Edge 12, Type (0, 1), BuildingBlock: UVAHIK_clean_linker_0, # of connection points: 2
#     Edge 13, Type (0, 1), BuildingBlock: UVAHIK_clean_linker_0, # of connection points: 2
#     Edge 14, Type (0, 1), BuildingBlock: UVAHIK_clean_linker_0, # of connection points: 2
#     Edge 15, Type (0, 1), BuildingBlock: UVAHIK_clean_linker_0, # of connection points: 2
#     Edge 16, Type (0, 1), BuildingBlock: UVAHIK_clean_linker_0, # of connection points: 2
#     Edge 17, Type (0, 1), BuildingBlock: UVAHIK_clean_linker_0, # of connection points: 2
#     Edge 18, Type (0, 1), BuildingBlock: UVAHIK_clean_linker_0, # of connection points: 2
#     Edge 19, Type (0, 1), BuildingBlock: UVAHIK_clean_linker_0, # of connection points: 2
#     Edge 20, Type (0, 1), BuildingBlock: UVAHIK_clean_linker_0, # of connection points: 2
#     Edge 21, Type (0, 1), BuildingBlock: UVAHIK_clean_linker_0, # of connection points: 2
#     Edge 22, Type (0, 1), BuildingBlock: UVAHIK_clean_linker_0, # of connection points: 2
#     Edge 23, Type (0, 1), BuildingBlock: UVAHIK_clean_linker_0, # of connection points: 2
#     Edge 24, Type (0, 1), BuildingBlock: UVAHIK_clean_linker_0, # of connection points: 2
#     Edge 25, Type (0, 1), BuildingBlock: UVAHIK_clean_linker_0, # of connection points: 2
#     Edge 26, Type (0, 1), BuildingBlock: UVAHIK_clean_linker_0, # of connection points: 2
#     Edge 27, Type (0, 1), BuildingBlock: UVAHIK_clean_linker_0, # of connection points: 2
#     Edge 28, Type (0, 1), BuildingBlock: UVAHIK_clean_linker_0, # of connection points: 2
#     Edge 29, Type (0, 1), BuildingBlock: UVAHIK_clean_linker_0, # of connection points: 2
#     Edge 30, Type (0, 1), BuildingBlock: UVAHIK_clean_linker_0, # of connection points: 2
#     Edge 31, Type (0, 1), BuildingBlock: UVAHIK_clean_linker_0, # of connection points: 2
#     Edge 32, Type (0, 1), BuildingBlock: UVAHIK_clean_linker_0, # of connection points: 2
#     Edge 33, Type (0, 1), BuildingBlock: UVAHIK_clean_linker_0, # of connection points: 2
#     Edge 34, Type (0, 1), BuildingBlock: UVAHIK_clean_linker_0, # of connection points: 2
#     Edge 35, Type (0, 1), BuildingBlock: UVAHIK_clean_linker_0, # of connection points: 2
# Relax obj value: 0.392
# Max RMSD: 0.223
# Mean RMSD: 0.191
data_MOF--net-zzz--node1-HISSIN_clean_sbu_0--node2-ESEHIV_clean_linker_0--edge1-UVAHIK_clean_linker_0
_symmetry_space_group_name_H-M    P1
_symmetry_Int_Tables_number       1
_symmetry_cell_setting            triclinic
loop_
_symmetry_equiv_pos_as_xyz
'x, y, z'
_cell_length_a     56.857776
_cell_length_b     57.200119
_cell_length_c     21.973663
_cell_angle_alpha  89.82885
_cell_angle_beta   92.233734
_cell_angle_gamma 91.691519
loop_
_atom_site_label
_atom_site_type_symbol
_atom_site_fract_x
_atom_site_fract_y
_atom_site_fract_z
_atom_type_partial_charge
H0 H 0.79248 0.57351 0.26632 0.0
H1 H 0.73301 0.56965 0.14036 0.0
H2 H 0.72885 0.5371 0.31684 0.0
C3 C 0.7741 0.56887 0.25645 0.0
C4 C 0.76153 0.55624 0.30012 0.0
C5 C 0.76423 0.57332 0.19832 0.0
C6 C 0.74085 0.56621 0.18517 0.0
C7 C 0.72799 0.55303 0.22707 0.0
C8 C 0.73838 0.54788 0.28489 0.0
H9 H 0.95737 0.78466 0.24729 0.0
H10 H 0.95095 0.72841 0.11901 0.0
H11 H 1.00098 0.72487 0.27165 0.0
C12 C 0.96208 0.7673 0.23321 0.0
C13 C 0.97958 0.75571 0.26705 0.0
C14 C 0.95192 0.75776 0.17953 0.0
C15 C 0.95873 0.73568 0.16089 0.0
C16 C 0.9763 0.7234 0.19337 0.0
C17 C 0.98715 0.73378 0.24648 0.0
H18 H 0.7302 0.93767 0.20858 0.0
H19 H 0.785 0.94068 0.07895 0.0
H20 H 0.78374 0.99244 0.21963 0.0
C21 C 0.74613 0.94566 0.19139 0.0
C22 C 0.75537 0.96609 0.21961 0.0
C23 C 0.75603 0.9366 0.13919 0.0
C24 C 0.77721 0.94687 0.11985 0.0
C25 C 0.78796 0.96636 0.14939 0.0
C26 C 0.77644 0.97665 0.19835 0.0
H27 H 0.46684 0.73864 0.22684 0.0
H28 H 0.52794 0.78498 0.23115 0.0
H29 H 0.47833 0.78657 0.07893 0.0
C30 C 0.47709 0.75256 0.2061 0.0
C31 C 0.46981 0.7614 0.1489 0.0
C32 C 0.4982 0.76048 0.23569 0.0
C33 C 0.51161 0.77868 0.209 0.0
C34 C 0.50378 0.78862 0.15333 0.0
C35 C 0.48325 0.77965 0.12343 0.0
H36 H 0.25155 0.45644 0.04733 0.0
H37 H 0.30898 0.45196 0.17912 0.0
H38 H 0.31827 0.48984 0.01132 0.0
C39 C 0.26999 0.45952 0.06023 0.0
C40 C 0.28406 0.47277 0.02125 0.0
C41 C 0.27857 0.4524 0.11772 0.0
C42 C 0.30219 0.45734 0.1346 0.0
C43 C 0.31674 0.47062 0.09654 0.0
C44 C 0.30748 0.47885 0.04001 0.0
H45 H 0.07538 0.22864 0.08227 0.0
H46 H 0.08249 0.27948 0.22486 0.0
H47 H 0.03416 0.29045 0.07114 0.0
C48 C 0.07119 0.2456 0.10027 0.0
C49 C 0.0543 0.2588 0.06894 0.0
C50 C 0.08122 0.25275 0.15644 0.0
C51 C 0.07494 0.27414 0.1808 0.0
C52 C 0.0583 0.28822 0.15029 0.0
C53 C 0.04741 0.28015 0.09454 0.0
H54 H 0.28487 0.07076 0.06661 0.0
H55 H 0.22537 0.06912 0.18113 0.0
H56 H 0.24016 0.00892 0.07291 0.0
C57 C 0.26896 0.0621 0.08204 0.0
C58 C 0.26339 0.03937 0.06118 0.0
C59 C 0.25589 0.07272 0.1266 0.0
C60 C 0.23575 0.06095 0.14714 0.0
C61 C 0.22997 0.03793 0.12904 0.0
C62 C 0.24411 0.02685 0.08635 0.0
H63 H 0.55563 0.2967 0.12492 0.0
H64 H 0.50027 0.24502 0.09113 0.0
H65 H 0.55854 0.22985 0.2142 0.0
C66 C 0.54852 0.27919 0.13213 0.0
C67 C 0.55985 0.26422 0.17394 0.0
C68 C 0.52747 0.27229 0.10064 0.0
C69 C 0.51705 0.25014 0.11291 0.0
C70 C 0.52827 0.23491 0.15473 0.0
C71 C 0.54997 0.24179 0.18271 0.0
Eu72 Eu 0.99521 0.02017 0.60389 0.0
Eu73 Eu 0.03237 1.00191 0.70804 0.0
C74 C 0.01974 0.05516 0.70313 0.0
C75 C 0.97643 0.0428 0.45272 0.0
C76 C 0.97158 0.06475 0.42738 0.0
C77 C 1.0063 0.03764 0.37827 0.0
C78 C 0.98505 0.07369 0.38028 0.0
C79 C 0.99294 0.02876 0.42549 0.0
C80 C 1.00355 0.06075 0.35821 0.0
C81 C 0.96954 0.03768 0.51528 0.0
O82 O 0.99767 0.00532 0.75448 0.0
O83 O 0.97088 0.00458 0.6738 0.0
C84 C 0.97581 1.00343 0.73275 0.0
O85 O 1.00387 0.98383 0.57408 0.0
O86 O 0.04518 1.00353 0.80302 0.0
O87 O 0.06034 0.9793 0.74156 0.0
O88 O 0.01478 0.96903 0.66726 0.0
C89 C 0.00843 0.96591 0.60958 0.0
O90 O 0.03108 0.02563 0.56236 0.0
O91 O 0.05536 0.00463 0.62674 0.0
O92 O 0.03776 0.0413 0.70521 0.0
O93 O 0.968 0.01569 0.53124 0.0
O94 O 0.98113 0.05038 0.55619 0.0
O95 O 0.9996 0.04783 0.67766 0.0
C96 C 0.04788 0.96467 0.83611 0.0
C97 C 0.04164 0.94308 0.80858 0.0
C98 C 0.02497 0.95327 0.92313 0.0
C99 C 0.02622 0.92742 0.83636 0.0
C100 C 0.04033 0.9691 0.89499 0.0
C101 C 0.01692 0.93276 0.89283 0.0
C102 C 0.05662 0.98423 0.79828 0.0
C103 C 0.05139 0.01578 0.57518 0.0
H104 H 0.95909 0.07593 0.4481 0.0
H105 H 0.02025 0.02724 0.36133 0.0
H106 H 0.98259 0.0916 0.36576 0.0
H107 H 0.99718 0.01182 0.44447 0.0
H108 H 0.04706 0.939 0.76321 0.0
H109 H 0.01863 0.9576 0.96743 0.0
H110 H 0.02039 0.9119 0.81135 0.0
H111 H 0.04486 0.98558 0.91728 0.0
Eu112 Eu 0.52855 0.02702 0.69846 0.0
Eu113 Eu 0.49864 0.99409 0.60122 0.0
C114 C 0.52362 0.97073 0.71917 0.0
C115 C 0.58171 0.0418 0.78692 0.0
C116 C 0.59601 0.03521 0.73942 0.0
C117 C 0.60536 0.01844 0.85679 0.0
C118 C 0.61347 0.01889 0.74948 0.0
C119 C 0.58753 0.03445 0.84638 0.0
C120 C 0.61738 0.00926 0.80772 0.0
C121 C 0.55769 0.04966 0.77206 0.0
O122 O 0.47207 0.01333 0.65574 0.0
O123 O 0.49352 0.02177 0.74306 0.0
C124 C 0.47309 0.01829 0.71413 0.0
O125 O 0.50877 0.05255 0.63784 0.0
O126 O 0.46643 0.9739 0.57588 0.0
O127 O 0.49128 0.98266 0.50727 0.0
O128 O 0.5084 0.02822 0.55645 0.0
C129 C 0.50636 0.04917 0.57887 0.0
O130 O 0.55341 0.018 0.62377 0.0
O131 O 0.53617 0.98444 0.58343 0.0
O132 O 0.50604 0.96913 0.67856 0.0
O133 O 0.55342 0.05635 0.71594 0.0
O134 O 0.54108 0.03556 0.79114 0.0
O135 O 0.53704 0.98981 0.72473 0.0
C136 C 0.45239 0.99297 0.48827 0.0
C137 C 0.45274 0.01613 0.50872 0.0
C138 C 0.42245 1.003 0.41153 0.0
C139 C 0.43886 0.03272 0.48036 0.0
C140 C 0.43708 0.98632 0.43949 0.0
C141 C 0.42336 0.02653 0.4315 0.0
C142 C 0.46938 0.97725 0.51789 0.0
C143 C 0.55439 0.99914 0.58971 0.0
H144 H 0.59221 0.0409 0.69322 0.0
H145 H 0.60861 0.01214 0.90277 0.0
H146 H 0.62244 0.0125 0.71056 0.0
H147 H 0.57689 0.03935 0.88388 0.0
H148 H 0.46437 0.02173 0.54601 0.0
H149 H 0.41049 0.99742 0.37453 0.0
H150 H 0.44091 0.05057 0.49625 0.0
H151 H 0.43653 0.96849 0.42297 0.0
Eu152 Eu 0.49519 0.52493 0.70638 0.0
Eu153 Eu 0.54279 0.51068 0.63645 0.0
C154 C 0.54595 0.52733 0.77397 0.0
C155 C 0.44034 0.55482 0.76159 0.0
C156 C 0.44653 0.57714 0.73978 0.0
C157 C 0.40461 0.57011 0.8007 0.0
C158 C 0.43231 0.59607 0.75076 0.0
C159 C 0.4189 0.55123 0.78993 0.0
C160 C 0.41169 0.59291 0.78367 0.0
C161 C 0.45714 0.53586 0.76144 0.0
O162 O 0.53425 0.47913 0.69461 0.0
O163 O 0.49522 0.48543 0.70997 0.0
C164 C 0.51354 0.47189 0.71306 0.0
O165 O 0.48622 0.52498 0.60562 0.0
O166 O 0.58001 0.50276 0.6423 0.0
O167 O 0.56191 0.50433 0.55401 0.0
O168 O 0.51151 0.49697 0.57836 0.0
C169 C 0.49254 0.50911 0.56699 0.0
O170 O 0.50983 0.55983 0.67357 0.0
O171 O 0.5355 0.54711 0.60299 0.0
O172 O 0.55446 0.53121 0.72017 0.0
O173 O 0.45688 0.52263 0.71317 0.0
O174 O 0.47846 0.54133 0.78175 0.0
O175 O 0.52397 0.52027 0.77898 0.0
C176 C 0.59342 0.47868 0.56568 0.0
C177 C 0.58507 0.45647 0.58314 0.0
C178 C 0.62485 0.4609 0.51234 0.0
C179 C 0.59647 0.43653 0.56488 0.0
C180 C 0.61346 0.48084 0.53077 0.0
C181 C 0.61636 0.43852 0.52878 0.0
C182 C 0.5815 0.49972 0.58389 0.0
C183 C 0.52365 0.56381 0.62766 0.0
H184 H 0.46302 0.58017 0.71751 0.0
H185 H 0.38867 0.56707 0.82534 0.0
H186 H 0.43841 0.61339 0.73747 0.0
H187 H 0.41381 0.53404 0.80662 0.0
H188 H 0.56959 0.45457 0.6102 0.0
H189 H 0.64018 0.46296 0.48482 0.0
H190 H 0.58922 0.41954 0.57732 0.0
H191 H 0.62017 0.49793 0.51733 0.0
Eu192 Eu 0.02789 0.52764 0.6219 0.0
Eu193 Eu 0.01238 0.48784 0.71877 0.0
C194 C 0.06706 0.50252 0.7075 0.0
C195 C 0.05566 0.54746 0.48282 0.0
C196 C 0.04982 0.52616 0.4534 0.0
C197 C 0.09319 0.54847 0.43378 0.0
C198 C 0.0659 0.5156 0.41688 0.0
C199 C 0.07709 0.55898 0.47086 0.0
C200 C 0.08816 0.52617 0.40864 0.0
C201 C 0.04198 0.55473 0.53469 0.0
O202 O 1.00348 0.5222 0.76237 0.0
O203 O 0.02736 0.54771 0.71044 0.0
C204 C 0.01439 0.5427 0.75732 0.0
O205 O 0.98908 0.53281 0.63286 0.0
O206 O 0.01269 0.47368 0.81106 0.0
O207 O 0.9921 0.45594 0.73955 0.0
O208 O 0.98026 0.495 0.65806 0.0
C209 C 0.97367 0.51544 0.63742 0.0
O210 O 0.02066 0.49392 0.56927 0.0
O211 O 0.02914 0.46759 0.64442 0.0
O212 O 0.05045 0.496 0.74426 0.0
O213 O 0.02054 0.54602 0.53642 0.0
O214 O 0.05316 0.55351 0.58755 0.0
O215 O 0.06184 0.51051 0.65263 0.0
C216 C 0.97383 0.46324 0.83232 0.0
C217 C 0.9525 0.46785 0.80049 0.0
C218 C 0.95865 0.4809 0.92267 0.0
C219 C 0.93505 0.48003 0.8285 0.0
C220 C 0.97615 0.46864 0.89463 0.0
C221 C 0.93855 0.48779 0.88878 0.0
C222 C 0.99516 0.4591 0.79819 0.0
C223 C 0.02626 0.47269 0.58632 0.0
H224 H 0.03349 0.51675 0.46195 0.0
H225 H 0.11001 0.5573 0.42722 0.0
H226 H 0.06144 0.49837 0.39884 0.0
H227 H 0.082 0.57535 0.4933 0.0
H228 H 0.95 0.46386 0.75247 0.0
H229 H 0.96176 0.48657 0.96935 0.0
H230 H 0.91941 0.48459 0.80185 0.0
H231 H 0.99242 0.46535 0.92011 0.0
C232 C 0.18711 0.03276 0.14962 0.0
C233 C 0.21042 0.02598 0.16156 0.0
C234 C 0.16959 0.02822 0.19186 0.0
C235 C 0.1637 0.01989 0.35815 0.0
H236 H 0.0982 0.00567 0.3143 0.0
C237 C 0.09297 0.00878 0.5427 0.0
C238 C 0.07003 0.01637 0.52863 0.0
C239 C 0.11 0.00832 0.4979 0.0
C240 C 0.11634 0.00998 0.32762 0.0
H241 H 0.23346 0.0088 0.22703 0.0
H242 H 0.20289 1.0004 0.3003 0.0
H243 H 0.12733 0.00651 0.23575 0.0
H244 H 0.0472 0.02891 0.45568 0.0
H245 H 0.07672 0.0286 0.37804 0.0
H246 H 0.15275 0.02398 0.44963 0.0
C247 C 0.19806 0.00924 0.25819 0.0
C248 C 0.13314 0.01034 0.28227 0.0
C249 C 0.21553 0.01361 0.21562 0.0
C250 C 0.06471 0.02336 0.46842 0.0
C251 C 0.08167 0.02287 0.4236 0.0
C252 C 0.14688 0.01971 0.40344 0.0
C253 C 0.17497 0.01712 0.24786 0.0
C254 C 0.1571 0.01539 0.2967 0.0
C255 C 0.10466 0.01533 0.43739 0.0
C256 C 0.12284 0.01488 0.38903 0.0
H257 H 0.18281 0.04302 0.1094 0.0
H258 H 0.15216 0.0348 0.18224 0.0
H259 H 0.18185 0.02428 0.37119 0.0
H260 H 0.09778 1.003 0.58836 0.0
H261 H 0.12726 1.00201 0.51068 0.0
C262 C 0.49679 0.21367 0.21122 0.0
C263 C 0.51702 0.21286 0.17668 0.0
C264 C 0.49063 0.19492 0.24939 0.0
C265 C 0.50532 0.13309 0.28975 0.0
H266 H 0.48821 0.15125 0.45167 0.0
C267 C 0.4942 0.06348 0.47534 0.0
C268 C 0.50239 0.0687 0.53513 0.0
C269 C 0.49189 0.081 0.43145 0.0
C270 C 0.49315 0.14585 0.40686 0.0
H271 H 0.54568 0.19128 0.1516 0.0
H272 H 0.5351 0.1587 0.21727 0.0
H273 H 0.49092 0.18072 0.37161 0.0
H274 H 0.5142 0.09676 0.59583 0.0
H275 H 0.51131 0.1275 0.51808 0.0
H276 H 0.509 0.09862 0.3253 0.0
C277 C 0.52372 0.17355 0.21514 0.0
C278 C 0.49431 0.16273 0.36047 0.0
C279 C 0.52981 0.19223 0.17714 0.0
C280 C 0.50776 0.09216 0.55027 0.0
C281 C 0.50596 0.10978 0.50562 0.0
C282 C 0.50439 0.11632 0.33608 0.0
C283 C 0.5046 0.17498 0.25371 0.0
C284 C 0.50073 0.15664 0.30138 0.0
C285 C 0.49841 0.10434 0.44516 0.0
C286 C 0.49846 0.12241 0.39556 0.0
H287 H 0.48682 0.2295 0.21243 0.0
H288 H 0.47552 0.19648 0.27744 0.0
H289 H 0.51004 0.12757 0.24485 0.0
H290 H 0.48981 0.04565 0.46183 0.0
H291 H 0.48529 0.07606 0.38629 0.0
C292 C 0.35735 0.45976 0.13038 0.0
C293 C 0.3407 0.47716 0.12089 0.0
C294 C 0.37734 0.46385 0.1686 0.0
C295 C 0.41136 0.51031 0.25878 0.0
H296 H 0.4264 0.4581 0.36491 0.0
C297 C 0.46089 0.52168 0.49216 0.0
C298 C 0.47804 0.50545 0.50966 0.0
C299 C 0.44682 0.5184 0.43903 0.0
C300 C 0.4227 0.47278 0.33517 0.0
H301 H 0.33208 0.51264 0.14252 0.0
H302 H 0.36671 0.51988 0.20982 0.0
H303 H 0.39766 0.45256 0.28088 0.0
H304 H 0.49386 0.47305 0.48431 0.0
H305 H 0.46896 0.46714 0.39166 0.0
H306 H 0.43582 0.53069 0.31506 0.0
C307 C 0.36485 0.5032 0.18674 0.0
C308 C 0.40621 0.46961 0.28658 0.0
C309 C 0.34498 0.49915 0.14788 0.0
C310 C 0.48083 0.48589 0.47227 0.0
C311 C 0.4665 0.48245 0.4193 0.0
C312 C 0.42769 0.51351 0.30776 0.0
C313 C 0.38093 0.48533 0.19935 0.0
C314 C 0.40005 0.48839 0.24796 0.0
C315 C 0.44929 0.49869 0.40206 0.0
C316 C 0.43335 0.49486 0.34706 0.0
H317 H 0.35423 0.44253 0.11079 0.0
H318 H 0.38951 0.44982 0.1758 0.0
H319 H 0.4075 0.52511 0.22965 0.0
H320 H 0.45825 0.53701 0.5196 0.0
H321 H 0.43358 0.5311 0.42766 0.0
C322 C 0.07109 0.32604 0.20009 0.0
C323 C 0.05259 0.31077 0.17986 0.0
C324 C 0.06709 0.34454 0.23955 0.0
C325 C 0.02137 0.38089 0.30642 0.0
H326 H 0.06818 0.38798 0.43879 0.0
C327 C 0.02288 0.45885 0.4772 0.0
C328 C 0.02857 0.45422 0.53898 0.0
C329 C 0.02488 0.44159 0.43255 0.0
C330 C 0.05482 0.3862 0.40248 0.0
H331 H 0.01506 0.30376 0.18307 0.0
H332 H 1.0079 0.33639 0.25195 0.0
H333 H 0.07279 0.35834 0.36124 0.0
H334 H 0.04079 0.42748 0.60171 0.0
H335 H 0.04428 0.39744 0.52404 0.0
H336 H 1.00331 0.40871 0.34836 0.0
C337 C 0.02559 0.33401 0.23701 0.0
C338 C 0.05761 0.36933 0.35737 0.0
C339 C 0.02963 0.31537 0.19723 0.0
C340 C 0.0363 0.43178 0.55473 0.0
C341 C 0.03842 0.41454 0.50999 0.0
C342 C 0.01865 0.39794 0.35145 0.0
C343 C 0.04443 0.34838 0.26032 0.0
C344 C 0.04101 0.36644 0.30845 0.0
C345 C 0.03273 0.41917 0.44817 0.0
C346 C 0.03536 0.40086 0.4002 0.0
H347 H 0.08897 0.32303 0.18734 0.0
H348 H 0.08196 0.35552 0.25506 0.0
H349 H 0.00824 0.37927 0.2695 0.0
H350 H 0.01678 0.47585 0.46309 0.0
H351 H 0.0206 0.44597 0.38551 0.0
C352 C 0.82887 0.95959 0.11719 0.0
C353 C 0.81065 0.97539 0.12442 0.0
C354 C 0.84727 0.96463 0.07823 0.0
C355 C 0.87996 0.01019 0.99448 0.0
H356 H 0.88936 0.96029 0.87939 0.0
C357 C 0.96085 0.00689 0.83889 0.0
C358 C 0.95644 1.00118 0.77702 0.0
C359 C 0.94289 0.00525 0.88092 0.0
C360 C 0.88693 0.97445 0.91093 0.0
H361 H 0.79842 0.00961 0.09867 0.0
H362 H 0.83131 0.01894 0.03195 0.0
H363 H 0.85951 0.95546 0.95596 0.0
H364 H 0.92938 0.98903 0.71151 0.0
H365 H 0.89815 0.9855 0.78536 0.0
H366 H 0.90784 0.02895 0.95004 0.0
C367 C 0.83108 1.00245 0.05634 0.0
C368 C 0.86991 0.97163 0.95522 0.0
C369 C 0.81236 0.99725 0.09507 0.0
C370 C 0.93348 0.9936 0.75861 0.0
C371 C 0.91558 0.99151 0.80103 0.0
C372 C 0.89736 0.01284 0.95083 0.0
C373 C 0.84825 0.98578 0.04557 0.0
C374 C 0.8662 0.9894 0.99779 0.0
C375 C 0.92001 0.99743 0.86276 0.0
C376 C 0.90109 0.99498 0.90841 0.0
H377 H 0.82802 0.94254 0.13879 0.0
H378 H 0.86036 0.95155 0.072 0.0
H379 H 0.87762 0.02422 0.0265 0.0
H380 H 0.97824 0.01287 0.85502 0.0
H381 H 0.94704 0.00972 0.92806 0.0
C382 C 0.53101 0.80336 0.07472 0.0
C383 C 0.51663 0.80809 0.1234 0.0
C384 C 0.53756 0.82119 0.03435 0.0
C385 C 0.53036 0.85581 0.93083 0.0
H386 H 0.54003 0.92111 0.97418 0.0
C387 C 0.51325 0.93062 0.75914 0.0
C388 C 0.52782 0.95092 0.76204 0.0
C389 C 0.51573 0.9129 0.80282 0.0
C390 C 0.53765 0.90293 0.96116 0.0
H391 H 0.49837 0.83508 0.16937 0.0
H392 H 0.50981 0.86632 0.09938 0.0
H393 H 0.53922 0.89141 0.05417 0.0
H394 H 0.55702 0.96802 0.81266 0.0
H395 H 0.56142 0.93702 0.88843 0.0
H396 H 0.52865 0.86728 0.83796 0.0
C397 C 0.51649 0.84902 0.09266 0.0
C398 C 0.53695 0.88589 1.00716 0.0
C399 C 0.50998 0.83117 0.13305 0.0
C400 C 0.5454 0.9527 0.80892 0.0
C401 C 0.54784 0.93497 0.85275 0.0
C402 C 0.53101 0.87282 0.88494 0.0
C403 C 0.52964 0.8441 0.04142 0.0
C404 C 0.53293 0.86211 0.99269 0.0
C405 C 0.53283 0.91495 0.85073 0.0
C406 C 0.53426 0.89666 0.89945 0.0
H407 H 0.53594 0.78558 0.06572 0.0
H408 H 0.54802 0.8168 0.99608 0.0
H409 H 0.52694 0.83776 0.91771 0.0
H410 H 0.49948 0.92861 0.72394 0.0
H411 H 0.50366 0.8979 0.80009 0.0
C412 C 0.68382 0.55315 0.21862 0.0
C413 C 0.70501 0.54282 0.20455 0.0
C414 C 0.6632 0.54846 0.18277 0.0
C415 C 0.63888 0.51125 0.05118 0.0
H416 H 0.60127 0.56548 0.0161 0.0
C417 C 0.58621 0.5262 0.82436 0.0
C418 C 0.56189 0.5292 0.82908 0.0
C419 C 0.60122 0.5264 0.87641 0.0
C420 C 0.6115 0.55014 0.02592 0.0
H421 H 0.72115 0.51883 0.14408 0.0
H422 H 0.68587 0.51094 0.08136 0.0
H423 H 0.63132 0.56717 0.09857 0.0
H424 H 0.53435 0.53528 0.89215 0.0
H425 H 0.56092 0.53666 0.98319 0.0
H426 H 0.61996 0.49495 0.97538 0.0
C427 C 0.6845 0.52217 0.12053 0.0
C428 C 0.62865 0.55097 0.07362 0.0
C429 C 0.70489 0.52665 0.15664 0.0
C430 C 0.553 0.53293 0.88704 0.0
C431 C 0.56816 0.53373 0.93906 0.0
C432 C 0.62213 0.51066 1.00272 0.0
C433 C 0.66348 0.53361 0.13154 0.0
C434 C 0.64298 0.53168 0.08631 0.0
C435 C 0.59236 0.53016 0.93424 0.0
C436 C 0.60854 0.5302 0.98903 0.0
H437 H 0.68357 0.566 0.25468 0.0
H438 H 0.64733 0.55726 0.1938 0.0
H439 H 0.64893 0.49576 0.06017 0.0
H440 H 0.59361 0.5231 0.78052 0.0
H441 H 0.61983 0.52372 0.87147 0.0
C442 C 0.96561 0.68467 0.14504 0.0
C443 C 0.9833 0.70055 0.16734 0.0
C444 C 0.9709 0.66642 0.1061 0.0
C445 C 0.01322 0.62669 0.05202 0.0
H446 H 0.98242 0.63404 0.89258 0.0
C447 C 1.00524 0.55382 0.86475 0.0
C448 C 0.01196 0.56055 0.80602 0.0
C449 C 1.00353 0.57048 0.91109 0.0
C450 C 0.99121 0.63176 0.93674 0.0
H451 H 0.02083 0.70829 0.16984 0.0
H452 H 0.03027 0.67547 0.10336 0.0
H453 H 0.9766 0.6628 0.97258 0.0
H454 H 0.02186 0.59029 0.75024 0.0
H455 H 0.018 0.61942 0.83052 0.0
H456 H 0.02713 0.5951 0.01661 0.0
C457 C 0.01219 0.67766 0.11552 0.0
C458 C 0.98783 0.64819 0.98258 0.0
C459 C 1.00682 0.69632 0.15398 0.0
C460 C 0.01668 0.58444 0.79482 0.0
C461 C 0.01443 0.60116 0.8408 0.0
C462 C 0.01616 0.60989 1.00646 0.0
C463 C 0.99412 0.66312 0.08934 0.0
C464 C 0.99877 0.64587 0.04072 0.0
C465 C 0.00796 0.59438 0.89961 0.0
C466 C 1.0052 0.61226 0.94821 0.0
H467 H 0.94733 0.68723 0.15485 0.0
H468 H 0.95666 0.65534 0.08725 0.0
H469 H 0.02178 0.62442 0.09646 0.0
H470 H 1.00156 0.53558 0.8752 0.0
H471 H 0.99831 0.56472 0.95572 0.0
C472 C 0.11043 0.22101 0.16432 0.0
C473 C 0.09466 0.2355 0.19295 0.0
C474 C 0.11472 0.19872 0.18746 0.0
C475 C 0.09826 0.15636 0.309 0.0
H476 H 0.07033 0.1209 0.17277 0.0
C477 C 0.01784 0.08844 0.27776 0.0
C478 C 0.02271 0.07295 0.32591 0.0
C479 C 0.03565 0.10335 0.25643 0.0
C480 C 0.07847 0.13039 0.21106 0.0
H481 H 0.0747 0.23999 0.27389 0.0
H482 H 0.08242 0.20146 0.31471 0.0
H483 H 0.09017 0.15839 0.15441 0.0
H484 H 0.04998 0.06069 0.38847 0.0
H485 H 0.0811 0.0861 0.35046 0.0
H486 H 0.08485 0.12916 0.36601 0.0
C487 C 0.09123 0.20694 0.27399 0.0
C488 C 0.09012 0.15174 0.20062 0.0
C489 C 0.0868 0.22915 0.25061 0.0
C490 C 0.04591 0.0718 0.35 0.0
C491 C 0.06366 0.08665 0.32888 0.0
C492 C 0.08676 0.1349 0.3194 0.0
C493 C 0.1035 0.19086 0.23985 0.0
C494 C 0.09899 0.16553 0.24977 0.0
C495 C 0.05853 0.10315 0.28341 0.0
C496 C 0.07569 0.12234 0.27075 0.0
H497 H 0.11714 0.22577 0.12035 0.0
H498 H 0.12468 0.18682 0.16098 0.0
H499 H 0.10501 0.16659 0.34762 0.0
H500 H 1.00007 0.0898 0.25874 0.0
H501 H 0.03111 0.11612 0.22177 0.0
C502 C 0.2813 0.10953 0.1327 0.0
C503 C 0.26654 0.09299 0.16114 0.0
C504 C 0.29915 0.12148 0.16671 0.0
C505 C 0.34597 0.11233 0.2257 0.0
H506 H 0.34799 0.10575 0.40102 0.0
C507 C 0.40282 0.04417 0.33927 0.0
C508 C 0.40878 0.04494 0.40185 0.0
C509 C 0.38957 0.06179 0.31182 0.0
C510 C 0.34835 0.10808 0.35221 0.0
H511 H 0.25563 0.08013 0.24916 0.0
H512 H 0.28592 0.10046 0.30715 0.0
H513 H 0.31491 0.12412 0.35084 0.0
H514 H 0.40511 0.06526 0.48445 0.0
H515 H 0.38413 0.0966 0.43596 0.0
H516 H 0.37962 0.09674 0.22702 0.0
C517 C 0.28457 0.10421 0.25888 0.0
C518 C 0.32906 0.11853 0.32322 0.0
C519 C 0.26687 0.09231 0.22508 0.0
C520 C 0.40146 0.0641 0.43585 0.0
C521 C 0.38893 0.08208 0.40805 0.0
C522 C 0.36566 0.10266 0.2548 0.0
C523 C 0.30245 0.11688 0.22938 0.0
C524 C 0.32644 0.11833 0.25933 0.0
C525 C 0.38239 0.08103 0.34582 0.0
C526 C 0.36601 0.09832 0.31783 0.0
H527 H 0.28077 0.11131 0.08358 0.0
H528 H 0.31189 0.13211 0.1428 0.0
H529 H 0.34516 0.11241 0.17642 0.0
H530 H 0.40838 0.03 0.31118 0.0
H531 H 0.38447 0.05982 0.26412 0.0
C532 C 0.58273 0.26536 0.27447 0.0
C533 C 0.58014 0.27302 0.21362 0.0
C534 C 0.59863 0.27666 0.3152 0.0
C535 C 0.64196 0.32761 0.33057 0.0
H536 H 0.60685 0.33821 0.47513 0.0
C537 C 0.62911 0.39709 0.5404 0.0
C538 C 0.62673 0.41722 0.50414 0.0
C539 C 0.63428 0.37576 0.51403 0.0
C540 C 0.61741 0.33513 0.43611 0.0
H541 H 0.59485 0.29677 0.14675 0.0
H542 H 0.62066 0.31793 0.21889 0.0
H543 H 0.59573 0.3058 0.40995 0.0
H544 H 0.63 0.43125 0.41294 0.0
H545 H 0.63872 0.3941 0.36693 0.0
H546 H 0.66225 0.35862 0.35516 0.0
C547 C 0.61083 0.30281 0.23505 0.0
C548 C 0.61103 0.31634 0.39834 0.0
C549 C 0.5955 0.29095 0.19368 0.0
C550 C 0.63178 0.41607 0.44215 0.0
C551 C 0.63691 0.39475 0.41578 0.0
C552 C 0.64818 0.34668 0.36823 0.0
C553 C 0.61168 0.29655 0.29708 0.0
C554 C 0.62251 0.31289 0.3436 0.0
C555 C 0.63706 0.37417 0.4509 0.0
C556 C 0.63527 0.35116 0.41999 0.0
H557 H 0.57141 0.2517 0.29246 0.0
H558 H 0.59943 0.27074 0.36206 0.0
H559 H 0.6516 0.32517 0.28966 0.0
H560 H 0.62583 0.39759 0.5886 0.0
H561 H 0.63466 0.36024 0.54236 0.0
C562 C 0.26207 0.45462 0.22099 0.0
C563 C 0.26154 0.44413 0.16316 0.0
C564 C 0.24224 0.45342 0.25637 0.0
C565 C 0.18041 0.45536 0.22226 0.0
H566 H 0.17656 0.46099 0.39727 0.0
C567 C 0.10123 0.49753 0.33106 0.0
C568 C 0.10675 0.51272 0.3801 0.0
C569 C 0.1183 0.48312 0.30863 0.0
C570 C 0.17738 0.45954 0.34827 0.0
H571 H 0.24126 0.42112 0.10142 0.0
H572 H 0.20638 0.41939 0.16299 0.0
H573 H 0.21064 0.44282 0.35484 0.0
H574 H 0.13466 0.52462 0.44389 0.0
H575 H 0.16462 0.50056 0.40272 0.0
H576 H 0.14813 0.47344 0.21508 0.0
C577 C 0.22201 0.42883 0.18035 0.0
C578 C 0.19676 0.44893 0.32413 0.0
C579 C 0.24194 0.42986 0.14516 0.0
C580 C 0.12985 0.51347 0.40537 0.0
C581 C 0.14694 0.49924 0.38263 0.0
C582 C 0.16117 0.46613 0.24632 0.0
C583 C 0.22153 0.44181 0.23441 0.0
C584 C 0.19883 0.44745 0.26082 0.0
C585 C 0.14133 0.48372 0.3344 0.0
C586 C 0.15984 0.4691 0.30952 0.0
H587 H 0.27681 0.46583 0.23628 0.0
H588 H 0.2424 0.46366 0.29779 0.0
H589 H 0.18167 0.45484 0.17322 0.0
H590 H 0.08365 0.49662 0.31025 0.0
H591 H 0.11335 0.47132 0.27155 0.0
C592 C 0.94215 0.77394 0.07647 0.0
C593 C 0.93731 0.77266 0.13856 0.0
C594 C 0.9343 0.7926 0.04115 0.0
C595 C 0.92895 0.85362 0.07289 0.0
H596 H 0.93309 0.85543 0.89734 0.0
C597 C 0.97865 0.92763 0.94604 0.0
C598 C 0.99771 0.91773 0.91726 0.0
C599 C 0.96001 0.91344 0.96606 0.0
C600 C 0.93137 0.8554 0.94628 0.0
H601 H 0.9172 0.78774 0.20974 0.0
H602 H 0.90367 0.82066 0.14796 0.0
H603 H 0.91509 0.82122 0.94571 0.0
H604 H 0.01214 0.88508 0.88789 0.0
H605 H 0.97949 0.8606 0.92131 0.0
H606 H 0.94671 0.88713 0.0735 0.0
C607 C 0.91396 0.80747 0.12698 0.0
C608 C 0.92113 0.83584 0.97401 0.0
C609 C 0.92178 0.78868 0.16239 0.0
C610 C 0.9976 0.89339 0.90871 0.0
C611 C 0.97884 0.87935 0.92757 0.0
C612 C 0.93887 0.87331 0.04505 0.0
C613 C 0.92153 0.81048 0.06724 0.0
C614 C 0.92174 0.83391 0.03787 0.0
C615 C 0.9599 0.88922 0.9564 0.0
C616 C 0.94179 0.87349 0.98203 0.0
H617 H 0.95408 0.76199 0.05646 0.0
H618 H 0.94063 0.79425 0.99545 0.0
H619 H 0.92967 0.85287 0.12216 0.0
H620 H 0.97792 0.94636 0.95234 0.0
H621 H 0.94569 0.92134 0.98886 0.0
C622 C 0.75371 0.90649 0.05455 0.0
C623 C 0.7424 0.91959 0.09865 0.0
C624 C 0.74115 0.89828 1.00251 0.0
C625 C 0.71504 0.92208 0.89648 0.0
H626 H 0.64911 0.90354 0.8788 0.0
C627 C 0.65193 0.98483 0.782 0.0
C628 C 0.63188 0.98817 0.81613 0.0
C629 C 0.66528 0.96484 0.7906 0.0
C630 C 0.66755 0.90884 0.88261 0.0
H631 H 0.70779 0.92947 0.12767 0.0
H632 H 0.68631 0.91392 0.04061 0.0
H633 H 0.67474 0.88302 0.95122 0.0
H634 H 0.60914 0.97199 0.8824 0.0
H635 H 0.63319 0.93866 0.90132 0.0
H636 H 0.70754 0.9501 0.83583 0.0
C637 C 0.70502 0.91083 0.04473 0.0
C638 C 0.68229 0.89669 0.92319 0.0
C639 C 0.7176 0.9199 0.09531 0.0
C640 C 0.62497 0.97056 0.85698 0.0
C641 C 0.6385 0.9509 0.86645 0.0
C642 C 0.7002 0.93463 0.85731 0.0
C643 C 0.71692 0.90197 0.99546 0.0
C644 C 0.70565 0.90461 0.93426 0.0
C645 C 0.65916 0.94791 0.83439 0.0
C646 C 0.67583 0.92946 0.85425 0.0
H647 H 0.77258 0.90447 0.05703 0.0
H648 H 0.75068 0.89119 0.96537 0.0
H649 H 0.73304 0.92852 0.90384 0.0
H650 H 0.65771 0.9979 0.74968 0.0
H651 H 0.68079 0.96305 0.76417 0.0
C652 C 0.4362 0.7628 0.06988 0.0
C653 C 0.44971 0.75007 0.11306 0.0
C654 C 0.42009 0.75128 0.02962 0.0
C655 C 0.38597 0.69714 0.99948 0.0
H656 H 0.41436 0.69574 0.84211 0.0
C657 C 0.39492 0.61356 0.871 0.0
C658 C 0.40021 0.6135 0.80911 0.0
C659 C 0.38952 0.63427 0.89979 0.0
C660 C 0.40543 0.69629 0.88467 0.0
H661 H 0.45553 0.71509 0.14893 0.0
H662 H 0.42664 0.6956 0.08168 0.0
H663 H 0.42567 0.7267 0.91356 0.0
H664 H 0.40135 0.63466 0.72725 0.0
H665 H 0.39141 0.67096 0.77738 0.0
H666 H 0.36634 0.66629 0.97185 0.0
C667 C 0.42873 0.71447 0.07886 0.0
C668 C 0.41203 0.7141 0.92574 0.0
C669 C 0.44529 0.72578 0.11775 0.0
C670 C 0.39776 0.63425 0.7753 0.0
C671 C 0.39212 0.65505 0.8041 0.0
C672 C 0.37894 0.67962 0.95791 0.0
C673 C 0.41657 0.72697 0.03328 0.0
C674 C 0.40345 0.71377 0.9847 0.0
C675 C 0.38911 0.65553 0.8674 0.0
C676 C 0.38989 0.678 0.90171 0.0
H677 H 0.43857 0.78157 0.06569 0.0
H678 H 0.41091 0.76122 0.99452 0.0
H679 H 0.37903 0.6967 0.04471 0.0
H680 H 0.39691 0.59799 0.89871 0.0
H681 H 0.38771 0.63377 0.94863 0.0
C682 C 0.79898 0.59649 0.16001 0.0
C683 C 0.7798 0.5808 0.14866 0.0
C684 C 0.81748 0.59785 0.11994 0.0
C685 C 0.85951 0.57404 0.07151 0.0
H686 H 0.85487 0.55696 0.90081 0.0
C687 C 0.91523 0.50312 0.97375 0.0
C688 C 0.92262 0.50504 0.91375 0.0
C689 C 0.9006 0.51979 0.99712 0.0
C690 C 0.85672 0.56213 0.94817 0.0
H691 H 0.76378 0.5564 0.08251 0.0
H692 H 0.79552 0.55895 0.0133 0.0
H693 H 0.8228 0.57742 0.9455 0.0
H694 H 0.92137 0.52641 0.83195 0.0
H695 H 0.89568 0.55542 0.8727 0.0
H696 H 0.89306 0.55804 0.07471 0.0
C697 C 0.79648 0.57027 0.0528 0.0
C698 C 0.83829 0.57376 0.97381 0.0
C699 C 0.77813 0.5688 0.09284 0.0
C700 C 0.91546 0.52417 0.87794 0.0
C701 C 0.90089 0.54087 0.90133 0.0
C702 C 0.87797 0.56252 0.04582 0.0
C703 C 0.817 0.58365 0.06778 0.0
C704 C 0.83894 0.57868 0.0365 0.0
C705 C 0.89319 0.53879 0.96107 0.0
C706 C 0.87621 0.55536 0.98471 0.0
H707 H 0.8005 0.60641 0.20196 0.0
H708 H 0.83288 0.6087 0.13201 0.0
H709 H 0.86061 0.57746 0.12 0.0
H710 H 0.92044 0.48853 1.00224 0.0
H711 H 0.89457 0.51742 0.04294 0.0
C712 C 0.02193 0.23634 0.01202 0.0
C713 C 0.04396 0.24811 0.01174 0.0
C714 C 0.01621 0.21833 0.96995 0.0
C715 C 0.03939 0.1864 0.8337 0.0
H716 H 1.00396 0.13409 0.90056 0.0
C717 C 0.04317 0.09023 0.74525 0.0
C718 C 0.02135 0.07852 0.73357 0.0
C719 C 0.04438 0.11218 0.77416 0.0
C720 C 0.01378 0.1486 0.88104 0.0
H721 H 0.0766 0.25116 0.96475 0.0
H722 H 0.06711 0.22003 0.89275 0.0
H723 H 1.00761 0.17077 0.95652 0.0
H724 H 0.98371 0.08074 0.7442 0.0
H725 H 0.98596 0.11854 0.79619 0.0
H726 H 0.04652 0.16344 0.75976 0.0
C727 C 0.05376 0.22465 0.92396 0.0
C728 C 0.01573 0.16987 0.91291 0.0
C729 C 0.05925 0.2428 0.96527 0.0
C730 C 1.00083 0.08926 0.75208 0.0
C731 C 1.00209 0.1109 0.78219 0.0
C732 C 0.03786 0.16495 0.80256 0.0
C733 C 0.03257 0.21133 0.92715 0.0
C734 C 0.02872 0.18919 0.89014 0.0
C735 C 0.02386 0.1227 0.79345 0.0
C736 C 0.02514 0.14572 0.82596 0.0
H737 H 0.00996 0.23967 0.04794 0.0
H738 H 0.99939 0.20917 0.97316 0.0
H739 H 0.04909 0.20076 0.81327 0.0
H740 H 0.05931 0.08251 0.73162 0.0
H741 H 0.06144 0.12074 0.78248 0.0
C742 C 0.28294 0.0416 0.96124 0.0
C743 C 0.27958 0.02953 0.01624 0.0
C744 C 0.30255 0.03765 0.92622 0.0
C745 C 0.36377 0.01522 0.94131 0.0
H746 H 0.36241 0.02632 0.76725 0.0
C747 C 0.45045 0.02697 0.80855 0.0
C748 C 0.45062 0.01939 0.74765 0.0
C749 C 0.42939 0.02696 0.84029 0.0
C750 C 0.36328 0.02285 0.81571 0.0
H751 H 0.29402 1.00318 0.07644 0.0
H752 H 0.32787 0.99545 0.01419 0.0
H753 H 0.32599 0.02592 0.82118 0.0
H754 H 0.42835 0.00557 0.67303 0.0
H755 H 0.39212 0.00496 0.72814 0.0
H756 H 0.40102 0.01146 0.93543 0.0
C757 C 0.31549 0.00837 0.99842 0.0
C758 C 0.34221 0.02296 0.84711 0.0
C759 C 0.29577 0.0124 0.03364 0.0
C760 C 0.42904 0.0118 0.71958 0.0
C761 C 0.40806 0.01157 0.75141 0.0
C762 C 0.38486 0.01493 0.90978 0.0
C763 C 0.3196 0.02144 0.94494 0.0
C764 C 0.34203 0.01942 0.91065 0.0
C765 C 0.40776 0.01914 0.81243 0.0
C766 C 0.38508 0.01895 0.84639 0.0
H767 H 0.27112 0.0553 0.94727 0.0
H768 H 0.30494 0.04841 0.88623 0.0
H769 H 0.36468 0.01269 0.99017 0.0
H770 H 0.46664 0.03296 0.83188 0.0
H771 H 0.4301 0.03334 0.88666 0.0
C772 C 0.51423 0.28366 0.99431 0.0
C773 C 0.51679 0.2891 0.05655 0.0
C774 C 0.50943 0.30129 0.95125 0.0
C775 C 0.49094 0.36346 0.93505 0.0
H776 H 0.52982 0.36382 0.794 0.0
C777 C 0.48918 0.44015 0.76257 0.0
C778 C 0.51105 0.44833 0.74183 0.0
C779 C 0.48724 0.41896 0.7945 0.0
C780 C 0.51887 0.36407 0.83321 0.0
H781 H 0.51497 0.31681 0.12287 0.0
H782 H 0.50654 0.34737 0.04857 0.0
H783 H 0.52987 0.33019 0.86245 0.0
H784 H 0.54793 0.44006 0.73719 0.0
H785 H 0.54462 0.40343 0.79341 0.0
H786 H 0.48075 0.39773 0.90755 0.0
C787 C 0.50809 0.32963 0.03241 0.0
C788 C 0.51864 0.34457 0.87211 0.0
C789 C 0.51298 0.31211 0.07517 0.0
C790 C 0.53078 0.43436 0.7523 0.0
C791 C 0.52884 0.41321 0.78438 0.0
C792 C 0.49119 0.38293 0.89624 0.0
C793 C 0.50695 0.32466 0.96966 0.0
C794 C 0.505 0.34416 0.92425 0.0
C795 C 0.50711 0.40535 0.8068 0.0
C796 C 0.50546 0.38372 0.84527 0.0
H797 H 0.5173 0.26611 0.97869 0.0
H798 H 0.50834 0.29672 0.90341 0.0
H799 H 0.47999 0.36371 0.97426 0.0
H800 H 0.47355 0.4503 0.75515 0.0
H801 H 0.47012 0.41335 0.80997 0.0
C802 C 0.26294 0.4656 0.92147 0.0
C803 C 0.27217 0.48173 0.96492 0.0
C804 C 0.24422 0.47148 0.88154 0.0
C805 C 0.20534 0.48898 0.79395 0.0
H806 H 0.1571 0.51899 0.88315 0.0
C807 C 0.11083 0.50652 0.69099 0.0
C808 C 0.09215 0.50136 0.72959 0.0
C809 C 0.13433 0.50618 0.71326 0.0
C810 C 0.17035 0.51059 0.85748 0.0
H811 H 0.27013 0.51713 0.99793 0.0
H812 H 0.23781 0.52775 0.92718 0.0
H813 H 0.19652 0.51589 0.92903 0.0
H814 H 0.08382 0.49158 0.822 0.0
H815 H 0.12447 0.49101 0.86038 0.0
H816 H 0.1787 0.483 0.72321 0.0
C817 C 0.24486 0.51042 0.92427 0.0
C818 C 0.19312 0.50909 0.88349 0.0
C819 C 0.26368 0.50453 0.96407 0.0
C820 C 0.09764 0.49569 0.79077 0.0
C821 C 0.12102 0.49554 0.81303 0.0
C822 C 0.18251 0.49062 0.76769 0.0
C823 C 0.23412 0.49361 0.88454 0.0
C824 C 0.21087 0.49788 0.85267 0.0
C825 C 0.13971 0.50092 0.77481 0.0
C826 C 0.16458 0.50099 0.79974 0.0
H827 H 0.26879 0.44774 0.92215 0.0
H828 H 0.23641 0.458 0.85204 0.0
H829 H 0.21855 0.48035 0.76868 0.0
H830 H 0.1073 0.51098 0.64364 0.0
H831 H 0.14828 0.51048 0.68259 0.0
C832 C 0.00984 0.78284 0.31714 0.0
C833 C 0.98962 0.76829 0.32184 0.0
C834 C 0.01429 0.80156 0.35789 0.0
C835 C 0.97999 0.84209 0.4457 0.0
H836 H 0.04018 0.86588 0.51194 0.0
C837 C 0.99456 0.93786 0.52674 0.0
C838 C 1.00666 0.94184 0.58304 0.0
C839 C 0.99332 0.91555 0.50031 0.0
C840 C 0.02321 0.85939 0.49406 0.0
H841 H 0.95892 0.76126 0.37475 0.0
H842 H 0.96683 0.79341 0.44633 0.0
H843 H 0.03774 0.82802 0.45907 0.0
H844 H 0.02719 0.92518 0.65527 0.0
H845 H 0.02538 0.88622 0.60834 0.0
H846 H 0.96552 0.87357 0.479 0.0
C847 C 0.97925 0.79053 0.41115 0.0
C848 C 0.02185 0.83775 0.46344 0.0
C849 C 0.97493 0.77181 0.37081 0.0
C850 C 0.0176 0.92279 0.61206 0.0
C851 C 0.01671 0.90048 0.58497 0.0
C852 C 0.98142 0.8638 0.47527 0.0
C853 C 0.99841 0.8063 0.40367 0.0
C854 C 1.00018 0.8288 0.43884 0.0
C855 C 1.00446 0.89655 0.52879 0.0
C856 C 1.00304 0.87284 0.49967 0.0
H857 H 0.02107 0.78103 0.27882 0.0
H858 H 0.02915 0.81337 0.35052 0.0
H859 H 0.96306 0.83599 0.42669 0.0
H860 H 0.98593 0.95203 0.50289 0.0
H861 H 0.9839 0.91326 0.45683 0.0
C862 C 0.72226 0.99118 0.24766 0.0
C863 C 0.74064 0.9766 0.26657 0.0
C864 C 0.70336 0.99507 0.28542 0.0
C865 C 0.68254 0.98949 0.44404 0.0
H866 H 0.62063 0.98355 0.36404 0.0
C867 C 0.59641 0.0102 0.5659 0.0
C868 C 0.57637 0.99544 0.5555 0.0
C869 C 0.61681 0.00768 0.53288 0.0
C870 C 0.63775 0.98512 0.38729 0.0
H871 H 0.75372 0.95497 0.34051 0.0
H872 H 0.72129 0.96244 0.40757 0.0
H873 H 0.65581 0.98129 0.30409 0.0
H874 H 0.56246 0.96631 0.50098 0.0
H875 H 0.598 0.9621 0.44262 0.0
H876 H 0.66445 0.99333 0.52727 0.0
C877 C 0.72148 0.97104 0.36362 0.0
C878 C 0.658 0.98412 0.35271 0.0
C879 C 0.74025 0.96693 0.32546 0.0
C880 C 0.57747 0.97798 0.51068 0.0
C881 C 0.59786 0.97566 0.47688 0.0
C882 C 0.66228 0.9908 0.47853 0.0
C883 C 0.70232 0.9845 0.34332 0.0
C884 C 0.68074 0.98627 0.38049 0.0
C885 C 0.61786 0.99052 0.48745 0.0
C886 C 0.63954 0.98859 0.45074 0.0
H887 H 0.72167 0.99829 0.20188 0.0
H888 H 0.68914 0.00577 0.26837 0.0
H889 H 0.69967 0.99128 0.46716 0.0
H890 H 0.59634 0.02403 0.59921 0.0
H891 H 0.63162 0.01968 0.54197 0.0
C892 C 0.52833 0.73657 0.29211 0.0
C893 C 0.5066 0.74766 0.29111 0.0
C894 C 0.53365 0.7197 0.33668 0.0
C895 C 0.51485 0.6937 0.48402 0.0
H896 H 0.53698 0.63632 0.41591 0.0
C897 C 0.50771 0.60405 0.60911 0.0
C898 C 0.52502 0.58752 0.59959 0.0
C899 C 0.50783 0.62537 0.57722 0.0
C900 C 0.53122 0.65227 0.43632 0.0
H901 H 0.4742 0.75107 0.33848 0.0
H902 H 0.48351 0.72195 0.41642 0.0
H903 H 0.5342 0.67102 0.35243 0.0
H904 H 0.55675 0.58109 0.55132 0.0
H905 H 0.55736 0.61825 0.49749 0.0
H906 H 0.51164 0.6748 0.56786 0.0
C907 C 0.49648 0.72613 0.38295 0.0
C908 C 0.52963 0.67226 0.39968 0.0
C909 C 0.49111 0.74282 0.33821 0.0
C910 C 0.54296 0.59325 0.55935 0.0
C911 C 0.54321 0.61458 0.52802 0.0
C912 C 0.51658 0.67369 0.52089 0.0
C913 C 0.51743 0.71371 0.38148 0.0
C914 C 0.52119 0.6932 0.42274 0.0
C915 C 0.52538 0.63077 0.53535 0.0
C916 C 0.52457 0.65259 0.4974 0.0
H917 H 0.54051 0.73976 0.2561 0.0
H918 H 0.55011 0.71072 0.33471 0.0
H919 H 0.50846 0.70957 0.50348 0.0
H920 H 0.49355 0.60019 0.63949 0.0
H921 H 0.49365 0.63721 0.58382 0.0
C922 C 0.779 0.52668 0.37245 0.0
C923 C 0.77463 0.55011 0.35774 0.0
C924 C 0.79708 0.52114 0.41509 0.0
C925 C 0.84141 0.54788 0.52923 0.0
H926 H 0.87993 0.49725 0.47831 0.0
C927 C 0.94041 0.54068 0.60021 0.0
C928 C 0.94875 0.51845 0.61581 0.0
C929 C 0.91726 0.54328 0.57725 0.0
C930 C 0.86925 0.51127 0.49369 0.0
H931 H 0.78451 0.58603 0.37942 0.0
H932 H 0.81586 0.57661 0.45262 0.0
H933 H 0.84206 0.50351 0.42615 0.0
H934 H 0.93895 0.48154 0.62028 0.0
H935 H 0.89877 0.48609 0.57939 0.0
H936 H 0.8693 0.55621 0.59497 0.0
C937 C 0.80543 0.56232 0.43231 0.0
C938 C 0.84737 0.51482 0.46395 0.0
C939 C 0.78737 0.56781 0.39013 0.0
C940 C 0.93321 0.49894 0.60866 0.0
C941 C 0.91017 0.50151 0.58495 0.0
C942 C 0.86344 0.54451 0.55842 0.0
C943 C 0.81124 0.53891 0.44376 0.0
C944 C 0.83323 0.53342 0.48055 0.0
C945 C 0.90193 0.5237 0.56858 0.0
C946 C 0.87779 0.52636 0.54047 0.0
H947 H 0.76965 0.51267 0.3478 0.0
H948 H 0.80058 0.50289 0.42359 0.0
H949 H 0.83095 0.56209 0.54445 0.0
H950 H 0.95183 0.5561 0.60521 0.0
H951 H 0.91157 0.5606 0.56466 0.0
loop_
_geom_bond_atom_site_label_1
_geom_bond_atom_site_label_2
_geom_bond_distance
_geom_bond_site_symmetry_2
_ccdc_geom_bond_type
H0 C3 0.931 . S
H1 C6 0.928 . S
H2 C8 0.930 . S
C3 H0 0.931 . S
C3 C4 1.413 . S
C3 C5 1.360 . S
C4 C3 1.413 . S
C4 C8 1.429 . S
C5 C3 1.360 . S
C5 C6 1.372 . S
C6 H1 0.928 . S
C6 C5 1.372 . S
C6 C7 1.404 . S
C7 C6 1.404 . S
C7 C8 1.391 . S
C8 H2 0.930 . S
C8 C4 1.429 . S
C8 C7 1.391 . S
H9 C12 0.931 . S
H10 C15 0.928 . S
H11 C17 0.930 . S
C12 H9 0.931 . S
C12 C13 1.413 . S
C12 C14 1.360 . S
C13 C12 1.413 . S
C13 C17 1.429 . S
C14 C12 1.360 . S
C14 C15 1.372 . S
C15 H10 0.928 . S
C15 C14 1.372 . S
C15 C16 1.404 . S
C16 C15 1.404 . S
C16 C17 1.391 . S
C17 H11 0.930 . S
C17 C13 1.429 . S
C17 C16 1.391 . S
H18 C21 0.931 . S
H19 C24 0.928 . S
H20 C26 0.930 . S
C21 H18 0.931 . S
C21 C22 1.413 . S
C21 C23 1.360 . S
C22 C21 1.413 . S
C22 C26 1.429 . S
C23 C21 1.360 . S
C23 C24 1.372 . S
C24 H19 0.928 . S
C24 C23 1.372 . S
C24 C25 1.404 . S
C25 C24 1.404 . S
C25 C26 1.391 . S
C26 H20 0.930 . S
C26 C22 1.429 . S
C26 C25 1.391 . S
H27 C30 0.931 . S
H28 C33 0.928 . S
H29 C35 0.930 . S
C30 H27 0.931 . S
C30 C31 1.413 . S
C30 C32 1.360 . S
C31 C30 1.413 . S
C31 C35 1.429 . S
C32 C30 1.360 . S
C32 C33 1.372 . S
C33 H28 0.928 . S
C33 C32 1.372 . S
C33 C34 1.404 . S
C34 C33 1.404 . S
C34 C35 1.391 . S
C35 H29 0.930 . S
C35 C31 1.429 . S
C35 C34 1.391 . S
H36 C39 0.931 . S
H37 C42 0.928 . S
H38 C44 0.930 . S
C39 H36 0.931 . S
C39 C40 1.413 . S
C39 C41 1.360 . S
C40 C39 1.413 . S
C40 C44 1.429 . S
C41 C39 1.360 . S
C41 C42 1.372 . S
C42 H37 0.928 . S
C42 C41 1.372 . S
C42 C43 1.404 . S
C43 C42 1.404 . S
C43 C44 1.391 . S
C44 H38 0.930 . S
C44 C40 1.429 . S
C44 C43 1.391 . S
H45 C48 0.931 . S
H46 C51 0.928 . S
H47 C53 0.930 . S
C48 H45 0.931 . S
C48 C49 1.413 1_554 S
C48 C50 1.360 . S
C49 C48 1.413 1_556 S
C49 C53 1.429 . S
C50 C48 1.360 . S
C50 C51 1.372 . S
C51 H46 0.928 . S
C51 C50 1.372 . S
C51 C52 1.404 . S
C52 C51 1.404 . S
C52 C53 1.391 1_554 S
C53 H47 0.930 . S
C53 C49 1.429 . S
C53 C52 1.391 1_556 S
H54 C57 0.931 1_556 S
H55 C60 0.928 . S
H56 C62 0.930 . S
C57 H54 0.931 1_554 S
C57 C58 1.413 1_554 S
C57 C59 1.360 . S
C58 C57 1.413 1_556 S
C58 C62 1.429 . S
C59 C57 1.360 . S
C59 C60 1.372 . S
C60 H55 0.928 . S
C60 C59 1.372 . S
C60 C61 1.404 . S
C61 C60 1.404 . S
C61 C62 1.391 1_554 S
C62 H56 0.930 . S
C62 C58 1.429 . S
C62 C61 1.391 1_556 S
H63 C66 0.931 . S
H64 C69 0.928 1_556 S
H65 C71 0.930 . S
C66 H63 0.931 . S
C66 C67 1.413 . S
C66 C68 1.360 . S
C67 C66 1.413 . S
C67 C71 1.429 . S
C68 C66 1.360 . S
C68 C69 1.372 . S
C69 H64 0.928 1_554 S
C69 C68 1.372 . S
C69 C70 1.404 . S
C70 C69 1.404 . S
C70 C71 1.391 . S
C71 H65 0.930 . S
C71 C67 1.429 . S
C71 C70 1.391 . S
Eu72 C81 2.828 . S
Eu72 O83 2.392 . S
Eu72 O85 2.418 1_545 S
Eu72 O90 2.373 1_655 S
Eu72 O93 2.488 . S
Eu72 O94 2.471 . S
Eu72 O95 2.349 1_655 S
Eu73 O82 2.373 1_455 S
Eu73 O86 2.488 . S
Eu73 O87 2.471 . S
Eu73 O88 2.349 . S
Eu73 O91 2.392 1_565 S
Eu73 O92 2.418 1_565 S
Eu73 C102 2.828 . S
C74 O92 1.244 . S
C74 O95 1.265 . S
C75 C76 1.379 1_655 S
C75 C79 1.373 . S
C75 C81 1.505 . S
C76 C75 1.379 1_455 S
C76 C78 1.369 . S
C76 H104 0.930 . S
C77 C79 1.383 . S
C77 C80 1.352 1_655 S
C77 H105 0.930 . S
C78 C76 1.369 . S
C78 C80 1.415 . S
C78 H106 0.930 . S
C79 C75 1.373 . S
C79 C77 1.383 . S
C79 H107 0.931 . S
C80 C77 1.352 1_455 S
C80 C78 1.415 . S
C81 Eu72 2.828 . S
C81 C75 1.505 . S
C81 O93 1.249 . S
C81 O94 1.244 . S
O82 Eu73 2.373 1_655 S
O82 C84 1.258 . S
O83 Eu72 2.392 . S
O83 C84 1.242 1_545 S
C84 O82 1.258 . S
C84 O83 1.242 1_565 S
O85 Eu72 2.418 1_565 S
O85 C89 1.244 . S
O86 Eu73 2.488 . S
O86 C102 1.249 . S
O87 Eu73 2.471 . S
O87 C102 1.244 . S
O88 Eu73 2.349 . S
O88 C89 1.265 1_455 S
C89 O85 1.244 . S
C89 O88 1.265 1_655 S
O90 Eu72 2.373 1_455 S
O90 C103 1.258 . S
O91 Eu73 2.392 1_545 S
O91 C103 1.242 . S
O92 Eu73 2.418 1_545 S
O92 C74 1.244 . S
O93 Eu72 2.488 . S
O93 C81 1.249 . S
O94 Eu72 2.471 . S
O94 C81 1.244 . S
O95 Eu72 2.349 1_455 S
O95 C74 1.265 . S
C96 C97 1.379 . S
C96 C100 1.373 . S
C96 C102 1.505 . S
C97 C96 1.379 . S
C97 C99 1.369 . S
C97 H108 0.930 1_455 S
C98 C100 1.383 . S
C98 C101 1.382 . S
C98 H109 0.930 . S
C99 C97 1.369 . S
C99 C101 1.392 . S
C99 H110 0.930 1_455 S
C100 C96 1.373 . S
C100 C98 1.383 . S
C100 H111 0.931 . S
C101 C98 1.382 . S
C101 C99 1.392 . S
C102 Eu73 2.828 . S
C102 O86 1.249 . S
C102 O87 1.244 . S
C102 C96 1.505 . S
C103 O90 1.258 . S
C103 O91 1.242 . S
H104 C76 0.930 . S
H105 C77 0.930 . S
H106 C78 0.930 . S
H107 C79 0.931 . S
H108 C97 0.930 1_655 S
H109 C98 0.930 . S
H110 C99 0.930 1_655 S
H111 C100 0.931 . S
Eu112 C121 2.828 . S
Eu112 O123 2.392 . S
Eu112 O125 2.418 . S
Eu112 O130 2.373 . S
Eu112 O133 2.488 . S
Eu112 O134 2.471 . S
Eu112 O135 2.349 1_545 S
Eu113 O122 2.373 1_565 S
Eu113 O126 2.488 . S
Eu113 O127 2.471 1_565 S
Eu113 O128 2.349 1_565 S
Eu113 O131 2.392 . S
Eu113 O132 2.418 . S
Eu113 C142 2.828 . S
C114 O132 1.244 . S
C114 O135 1.265 . S
C115 C116 1.379 1_545 S
C115 C119 1.373 . S
C115 C121 1.505 . S
C116 C115 1.379 1_565 S
C116 C118 1.369 . S
C116 H144 0.930 . S
C117 C119 1.383 . S
C117 C120 1.382 . S
C117 H145 0.930 . S
C118 C116 1.369 . S
C118 C120 1.392 1_565 S
C118 H146 0.930 . S
C119 C115 1.373 . S
C119 C117 1.383 . S
C119 H147 0.931 . S
C120 C117 1.382 . S
C120 C118 1.392 1_545 S
C121 Eu112 2.828 . S
C121 C115 1.505 . S
C121 O133 1.249 . S
C121 O134 1.244 . S
O122 Eu113 2.373 1_545 S
O122 C124 1.258 . S
O123 Eu112 2.392 . S
O123 C124 1.242 . S
C124 O122 1.258 . S
C124 O123 1.242 . S
O125 Eu112 2.418 . S
O125 C129 1.244 . S
O126 Eu113 2.488 . S
O126 C142 1.249 . S
O127 Eu113 2.471 1_545 S
O127 C142 1.244 1_545 S
O128 Eu113 2.349 1_545 S
O128 C129 1.265 . S
C129 O125 1.244 . S
C129 O128 1.265 . S
O130 Eu112 2.373 . S
O130 C143 1.258 1_545 S
O131 Eu113 2.392 . S
O131 C143 1.242 . S
O132 Eu113 2.418 . S
O132 C114 1.244 . S
O133 Eu112 2.488 . S
O133 C121 1.249 . S
O134 Eu112 2.471 . S
O134 C121 1.244 . S
O135 Eu112 2.349 1_565 S
O135 C114 1.265 . S
C136 C137 1.379 1_565 S
C136 C140 1.373 . S
C136 C142 1.505 . S
C137 C136 1.379 1_545 S
C137 C139 1.369 . S
C137 H148 0.930 . S
C138 C140 1.383 . S
C138 C141 1.382 . S
C138 H149 0.930 . S
C139 C137 1.369 . S
C139 C141 1.392 1_545 S
C139 H150 0.930 . S
C140 C136 1.373 . S
C140 C138 1.383 . S
C140 H151 0.931 . S
C141 C138 1.382 . S
C141 C139 1.392 1_565 S
C142 Eu113 2.828 . S
C142 O126 1.249 . S
C142 O127 1.244 1_565 S
C142 C136 1.505 . S
C143 O130 1.258 1_565 S
C143 O131 1.242 . S
H144 C116 0.930 . S
H145 C117 0.930 . S
H146 C118 0.930 . S
H147 C119 0.931 . S
H148 C137 0.930 . S
H149 C138 0.930 . S
H150 C139 0.930 . S
H151 C140 0.931 . S
Eu152 C161 2.828 . S
Eu152 O163 2.392 . S
Eu152 O165 2.418 . S
Eu152 O170 2.373 . S
Eu152 O173 2.488 . S
Eu152 O174 2.471 . S
Eu152 O175 2.349 . S
Eu153 O162 2.373 . S
Eu153 O166 2.488 . S
Eu153 O167 2.471 . S
Eu153 O168 2.349 . S
Eu153 O171 2.392 . S
Eu153 O172 2.418 . S
Eu153 C182 2.828 . S
C154 O172 1.244 . S
C154 O175 1.265 . S
C155 C156 1.379 . S
C155 C159 1.373 . S
C155 C161 1.505 . S
C156 C155 1.379 . S
C156 C158 1.369 . S
C156 H184 0.930 . S
C157 C159 1.383 . S
C157 C160 1.382 . S
C157 H185 0.930 . S
C158 C156 1.369 . S
C158 C160 1.392 . S
C158 H186 0.930 . S
C159 C155 1.373 . S
C159 C157 1.383 . S
C159 H187 0.931 . S
C160 C157 1.382 . S
C160 C158 1.392 . S
C161 Eu152 2.828 . S
C161 C155 1.505 . S
C161 O173 1.249 . S
C161 O174 1.244 . S
O162 Eu153 2.373 . S
O162 C164 1.258 . S
O163 Eu152 2.392 . S
O163 C164 1.242 . S
C164 O162 1.258 . S
C164 O163 1.242 . S
O165 Eu152 2.418 . S
O165 C169 1.244 . S
O166 Eu153 2.488 . S
O166 C182 1.249 . S
O167 Eu153 2.471 . S
O167 C182 1.244 . S
O168 Eu153 2.349 . S
O168 C169 1.265 . S
C169 O165 1.244 . S
C169 O168 1.265 . S
O170 Eu152 2.373 . S
O170 C183 1.258 . S
O171 Eu153 2.392 . S
O171 C183 1.242 . S
O172 Eu153 2.418 . S
O172 C154 1.244 . S
O173 Eu152 2.488 . S
O173 C161 1.249 . S
O174 Eu152 2.471 . S
O174 C161 1.244 . S
O175 Eu152 2.349 . S
O175 C154 1.265 . S
C176 C177 1.379 . S
C176 C180 1.373 . S
C176 C182 1.505 . S
C177 C176 1.379 . S
C177 C179 1.369 . S
C177 H188 0.930 . S
C178 C180 1.383 . S
C178 C181 1.382 . S
C178 H189 0.930 . S
C179 C177 1.369 . S
C179 C181 1.392 . S
C179 H190 0.930 . S
C180 C176 1.373 . S
C180 C178 1.383 . S
C180 H191 0.931 . S
C181 C178 1.382 . S
C181 C179 1.392 . S
C182 Eu153 2.828 . S
C182 O166 1.249 . S
C182 O167 1.244 . S
C182 C176 1.505 . S
C183 O170 1.258 . S
C183 O171 1.242 . S
H184 C156 0.930 . S
H185 C157 0.930 . S
H186 C158 0.930 . S
H187 C159 0.931 . S
H188 C177 0.930 . S
H189 C178 0.930 . S
H190 C179 0.930 . S
H191 C180 0.931 . S
Eu192 C201 2.828 . S
Eu192 O203 2.392 . S
Eu192 O205 2.418 1_455 S
Eu192 O210 2.373 . S
Eu192 O213 2.488 . S
Eu192 O214 2.471 . S
Eu192 O215 2.349 . S
Eu193 O202 2.373 . S
Eu193 O206 2.488 . S
Eu193 O207 2.471 . S
Eu193 O208 2.349 . S
Eu193 O211 2.392 1_655 S
Eu193 O212 2.418 1_655 S
Eu193 C222 2.828 . S
C194 O212 1.244 . S
C194 O215 1.265 . S
C195 C196 1.379 . S
C195 C199 1.373 . S
C195 C201 1.505 . S
C196 C195 1.379 . S
C196 C198 1.369 . S
C196 H224 0.930 . S
C197 C199 1.383 . S
C197 C200 1.382 . S
C197 H225 0.930 . S
C198 C196 1.369 . S
C198 C200 1.392 . S
C198 H226 0.930 . S
C199 C195 1.373 . S
C199 C197 1.383 . S
C199 H227 0.931 . S
C200 C197 1.382 . S
C200 C198 1.392 . S
C201 Eu192 2.828 . S
C201 C195 1.505 . S
C201 O213 1.249 . S
C201 O214 1.244 . S
O202 Eu193 2.373 . S
O202 C204 1.258 1_655 S
O203 Eu192 2.392 . S
O203 C204 1.242 . S
C204 O202 1.258 1_455 S
C204 O203 1.242 . S
O205 Eu192 2.418 1_655 S
O205 C209 1.244 . S
O206 Eu193 2.488 . S
O206 C222 1.249 . S
O207 Eu193 2.471 . S
O207 C222 1.244 . S
O208 Eu193 2.349 . S
O208 C209 1.265 . S
C209 O205 1.244 . S
C209 O208 1.265 . S
O210 Eu192 2.373 . S
O210 C223 1.258 . S
O211 Eu193 2.392 1_455 S
O211 C223 1.242 . S
O212 Eu193 2.418 1_455 S
O212 C194 1.244 . S
O213 Eu192 2.488 . S
O213 C201 1.249 . S
O214 Eu192 2.471 . S
O214 C201 1.244 . S
O215 Eu192 2.349 . S
O215 C194 1.265 . S
C216 C217 1.379 . S
C216 C220 1.373 . S
C216 C222 1.505 . S
C217 C216 1.379 . S
C217 C219 1.369 . S
C217 H228 0.930 . S
C218 C220 1.383 . S
C218 C221 1.382 . S
C218 H229 0.930 . S
C219 C217 1.369 . S
C219 C221 1.392 . S
C219 H230 0.930 . S
C220 C216 1.373 . S
C220 C218 1.383 . S
C220 H231 0.931 . S
C221 C218 1.382 . S
C221 C219 1.392 . S
C222 Eu193 2.828 . S
C222 O206 1.249 . S
C222 O207 1.244 . S
C222 C216 1.505 . S
C223 O210 1.258 . S
C223 O211 1.242 . S
H224 C196 0.930 . S
H225 C197 0.930 . S
H226 C198 0.930 . S
H227 C199 0.931 . S
H228 C217 0.930 . S
H229 C218 0.930 . S
H230 C219 0.930 . S
H231 C220 0.931 . S
C232 C233 1.349 . S
C232 C234 1.327 . S
C232 H257 0.950 . S
C233 C232 1.349 . S
C233 C249 1.349 . S
C234 C232 1.327 . S
C234 C253 1.429 . S
C234 H258 0.950 . S
C235 C252 1.574 . S
C235 C254 1.368 . S
C235 H259 0.949 . S
H236 C240 0.949 . S
C237 C238 1.349 . S
C237 C239 1.327 . S
C237 H260 0.952 1_545 S
C238 C237 1.349 . S
C238 C250 1.349 . S
C239 C237 1.327 . S
C239 C255 1.429 . S
C239 H261 0.950 . S
C240 H236 0.949 . S
C240 C248 1.574 . S
C240 C256 1.368 . S
H241 C249 0.950 . S
H242 C247 0.950 . S
H243 C248 0.949 . S
H244 C250 0.950 . S
H245 C251 0.950 . S
H246 C252 0.949 . S
C247 H242 0.950 . S
C247 C249 1.327 . S
C247 C253 1.429 . S
C248 C240 1.574 . S
C248 H243 0.949 . S
C248 C254 1.368 . S
C249 C233 1.349 . S
C249 H241 0.950 . S
C249 C247 1.327 . S
C250 C238 1.349 . S
C250 H244 0.950 . S
C250 C251 1.327 . S
C251 H245 0.950 . S
C251 C250 1.327 . S
C251 C255 1.429 . S
C252 C235 1.574 . S
C252 H246 0.949 . S
C252 C256 1.368 . S
C253 C234 1.429 . S
C253 C247 1.429 . S
C253 C254 1.523 . S
C254 C235 1.368 . S
C254 C248 1.368 . S
C254 C253 1.523 . S
C255 C239 1.429 . S
C255 C251 1.429 . S
C255 C256 1.523 . S
C256 C240 1.368 . S
C256 C252 1.368 . S
C256 C255 1.523 . S
H257 C232 0.950 . S
H258 C234 0.950 . S
H259 C235 0.949 . S
H260 C237 0.952 1_565 S
H261 C239 0.950 . S
C262 C263 1.349 . S
C262 C264 1.327 . S
C262 H287 0.950 . S
C263 C262 1.349 . S
C263 C279 1.349 . S
C264 C262 1.327 . S
C264 C283 1.429 . S
C264 H288 0.950 . S
C265 C282 1.574 . S
C265 C284 1.368 . S
C265 H289 0.949 . S
H266 C270 0.949 . S
C267 C268 1.349 . S
C267 C269 1.327 . S
C267 H290 0.950 . S
C268 C267 1.349 . S
C268 C280 1.349 . S
C269 C267 1.327 . S
C269 C285 1.429 . S
C269 H291 0.950 . S
C270 H266 0.949 . S
C270 C278 1.574 . S
C270 C286 1.368 . S
H271 C279 0.950 . S
H272 C277 0.950 . S
H273 C278 0.949 . S
H274 C280 0.950 . S
H275 C281 0.950 . S
H276 C282 0.949 . S
C277 H272 0.950 . S
C277 C279 1.327 . S
C277 C283 1.429 . S
C278 C270 1.574 . S
C278 H273 0.949 . S
C278 C284 1.368 . S
C279 C263 1.349 . S
C279 H271 0.950 . S
C279 C277 1.327 . S
C280 C268 1.349 . S
C280 H274 0.950 . S
C280 C281 1.327 . S
C281 H275 0.950 . S
C281 C280 1.327 . S
C281 C285 1.429 . S
C282 C265 1.574 . S
C282 H276 0.949 . S
C282 C286 1.368 . S
C283 C264 1.429 . S
C283 C277 1.429 . S
C283 C284 1.523 . S
C284 C265 1.368 . S
C284 C278 1.368 . S
C284 C283 1.523 . S
C285 C269 1.429 . S
C285 C281 1.429 . S
C285 C286 1.523 . S
C286 C270 1.368 . S
C286 C282 1.368 . S
C286 C285 1.523 . S
H287 C262 0.950 . S
H288 C264 0.950 . S
H289 C265 0.949 . S
H290 C267 0.950 . S
H291 C269 0.950 . S
C292 C293 1.349 . S
C292 C294 1.327 . S
C292 H317 0.950 . S
C293 C292 1.349 . S
C293 C309 1.349 . S
C294 C292 1.327 . S
C294 C313 1.429 . S
C294 H318 0.950 . S
C295 C312 1.574 . S
C295 C314 1.368 . S
C295 H319 0.949 . S
H296 C300 0.949 . S
C297 C298 1.349 . S
C297 C299 1.327 . S
C297 H320 0.950 . S
C298 C297 1.349 . S
C298 C310 1.349 . S
C299 C297 1.327 . S
C299 C315 1.429 . S
C299 H321 0.950 . S
C300 H296 0.949 . S
C300 C308 1.574 . S
C300 C316 1.368 . S
H301 C309 0.950 . S
H302 C307 0.950 . S
H303 C308 0.949 . S
H304 C310 0.950 . S
H305 C311 0.950 . S
H306 C312 0.949 . S
C307 H302 0.950 . S
C307 C309 1.327 . S
C307 C313 1.429 . S
C308 C300 1.574 . S
C308 H303 0.949 . S
C308 C314 1.368 . S
C309 C293 1.349 . S
C309 H301 0.950 . S
C309 C307 1.327 . S
C310 C298 1.349 . S
C310 H304 0.950 . S
C310 C311 1.327 . S
C311 H305 0.950 . S
C311 C310 1.327 . S
C311 C315 1.429 . S
C312 C295 1.574 . S
C312 H306 0.949 . S
C312 C316 1.368 . S
C313 C294 1.429 . S
C313 C307 1.429 . S
C313 C314 1.523 . S
C314 C295 1.368 . S
C314 C308 1.368 . S
C314 C313 1.523 . S
C315 C299 1.429 . S
C315 C311 1.429 . S
C315 C316 1.523 . S
C316 C300 1.368 . S
C316 C312 1.368 . S
C316 C315 1.523 . S
H317 C292 0.950 . S
H318 C294 0.950 . S
H319 C295 0.949 . S
H320 C297 0.950 . S
H321 C299 0.950 . S
C322 C323 1.349 . S
C322 C324 1.327 . S
C322 H347 0.950 . S
C323 C322 1.349 . S
C323 C339 1.349 . S
C324 C322 1.327 . S
C324 C343 1.429 . S
C324 H348 0.950 . S
C325 C342 1.574 . S
C325 C344 1.368 . S
C325 H349 0.949 . S
H326 C330 0.949 . S
C327 C328 1.349 . S
C327 C329 1.327 . S
C327 H350 0.950 . S
C328 C327 1.349 . S
C328 C340 1.349 . S
C329 C327 1.327 . S
C329 C345 1.429 . S
C329 H351 0.950 . S
C330 H326 0.949 . S
C330 C338 1.574 . S
C330 C346 1.368 . S
H331 C339 0.950 . S
H332 C337 0.950 . S
H333 C338 0.949 . S
H334 C340 0.950 . S
H335 C341 0.950 . S
H336 C342 0.949 . S
C337 H332 0.950 . S
C337 C339 1.327 . S
C337 C343 1.429 . S
C338 C330 1.574 . S
C338 H333 0.949 . S
C338 C344 1.368 . S
C339 C323 1.349 . S
C339 H331 0.950 . S
C339 C337 1.327 . S
C340 C328 1.349 . S
C340 H334 0.950 . S
C340 C341 1.327 . S
C341 H335 0.950 . S
C341 C340 1.327 . S
C341 C345 1.429 . S
C342 C325 1.574 . S
C342 H336 0.949 . S
C342 C346 1.368 . S
C343 C324 1.429 . S
C343 C337 1.429 . S
C343 C344 1.523 . S
C344 C325 1.368 . S
C344 C338 1.368 . S
C344 C343 1.523 . S
C345 C329 1.429 . S
C345 C341 1.429 . S
C345 C346 1.523 . S
C346 C330 1.368 . S
C346 C342 1.368 . S
C346 C345 1.523 . S
H347 C322 0.950 . S
H348 C324 0.950 . S
H349 C325 0.949 . S
H350 C327 0.950 . S
H351 C329 0.950 . S
C352 C353 1.349 . S
C352 C354 1.327 . S
C352 H377 0.950 . S
C353 C352 1.349 . S
C353 C369 1.349 . S
C354 C352 1.327 . S
C354 C373 1.429 . S
C354 H378 0.950 . S
C355 C372 1.574 1_554 S
C355 C374 1.368 . S
C355 H379 0.949 . S
H356 C360 0.949 . S
C357 C358 1.349 1_545 S
C357 C359 1.329 . S
C357 H380 0.950 . S
C358 C357 1.349 1_565 S
C358 C370 1.349 . S
C359 C357 1.329 . S
C359 C375 1.419 1_545 S
C359 H381 0.958 . S
C360 H356 0.949 . S
C360 C368 1.574 1_556 S
C360 C376 1.368 . S
H361 C369 0.950 . S
H362 C367 0.950 . S
H363 C368 0.949 . S
H364 C370 0.950 . S
H365 C371 0.950 . S
H366 C372 0.949 1_545 S
C367 H362 0.950 . S
C367 C369 1.327 . S
C367 C373 1.429 . S
C368 C360 1.574 1_554 S
C368 H363 0.949 . S
C368 C374 1.368 . S
C369 C353 1.349 . S
C369 H361 0.950 . S
C369 C367 1.327 . S
C370 C358 1.349 . S
C370 H364 0.950 . S
C370 C371 1.327 . S
C371 H365 0.950 . S
C371 C370 1.327 . S
C371 C375 1.429 . S
C372 C355 1.574 1_556 S
C372 H366 0.949 1_565 S
C372 C376 1.368 . S
C373 C354 1.429 . S
C373 C367 1.429 . S
C373 C374 1.523 . S
C374 C355 1.368 . S
C374 C368 1.368 . S
C374 C373 1.523 . S
C375 C359 1.419 1_565 S
C375 C371 1.429 . S
C375 C376 1.523 . S
C376 C360 1.368 . S
C376 C372 1.368 . S
C376 C375 1.523 . S
H377 C352 0.950 . S
H378 C354 0.950 . S
H379 C355 0.949 . S
H380 C357 0.950 . S
H381 C359 0.958 . S
C382 C383 1.349 . S
C382 C384 1.327 . S
C382 H407 0.950 . S
C383 C382 1.349 . S
C383 C399 1.349 . S
C384 C382 1.327 . S
C384 C403 1.429 . S
C384 H408 0.950 . S
C385 C402 1.574 . S
C385 C404 1.368 1_556 S
C385 H409 0.949 . S
H386 C390 0.949 . S
C387 C388 1.349 . S
C387 C389 1.327 . S
C387 H410 0.950 . S
C388 C387 1.349 . S
C388 C400 1.349 . S
C389 C387 1.327 . S
C389 C405 1.429 . S
C389 H411 0.950 . S
C390 H386 0.949 . S
C390 C398 1.574 1_556 S
C390 C406 1.368 . S
H391 C399 0.950 . S
H392 C397 0.950 . S
H393 C398 0.949 . S
H394 C400 0.950 . S
H395 C401 0.950 . S
H396 C402 0.949 . S
C397 H392 0.950 . S
C397 C399 1.327 . S
C397 C403 1.429 . S
C398 C390 1.574 1_554 S
C398 H393 0.949 . S
C398 C404 1.368 . S
C399 C383 1.349 . S
C399 H391 0.950 . S
C399 C397 1.327 . S
C400 C388 1.349 . S
C400 H394 0.950 . S
C400 C401 1.327 . S
C401 H395 0.950 . S
C401 C400 1.327 . S
C401 C405 1.429 . S
C402 C385 1.574 . S
C402 H396 0.949 . S
C402 C406 1.368 . S
C403 C384 1.429 . S
C403 C397 1.429 . S
C403 C404 1.523 . S
C404 C385 1.368 1_554 S
C404 C398 1.368 . S
C404 C403 1.523 . S
C405 C389 1.429 . S
C405 C401 1.429 . S
C405 C406 1.523 . S
C406 C390 1.368 . S
C406 C402 1.368 . S
C406 C405 1.523 . S
H407 C382 0.950 . S
H408 C384 0.950 . S
H409 C385 0.949 . S
H410 C387 0.950 . S
H411 C389 0.950 . S
C412 C413 1.349 . S
C412 C414 1.327 . S
C412 H437 0.950 . S
C413 C412 1.349 . S
C413 C429 1.349 . S
C414 C412 1.327 . S
C414 C433 1.429 . S
C414 H438 0.950 . S
C415 C432 1.574 . S
C415 C434 1.368 1_556 S
C415 H439 0.949 . S
H416 C420 0.949 . S
C417 C418 1.349 . S
C417 C419 1.327 . S
C417 H440 0.950 . S
C418 C417 1.349 . S
C418 C430 1.349 . S
C419 C417 1.327 . S
C419 C435 1.429 . S
C419 H441 0.950 . S
C420 H416 0.949 . S
C420 C428 1.574 . S
C420 C436 1.368 . S
H421 C429 0.950 . S
H422 C427 0.950 . S
H423 C428 0.949 1_554 S
H424 C430 0.950 . S
H425 C431 0.950 . S
H426 C432 0.949 . S
C427 H422 0.950 . S
C427 C429 1.327 . S
C427 C433 1.429 . S
C428 C420 1.574 . S
C428 H423 0.949 1_556 S
C428 C434 1.368 1_556 S
C429 C413 1.349 . S
C429 H421 0.950 . S
C429 C427 1.327 . S
C430 C418 1.349 . S
C430 H424 0.950 . S
C430 C431 1.327 . S
C431 H425 0.950 . S
C431 C430 1.327 . S
C431 C435 1.429 . S
C432 C415 1.574 . S
C432 H426 0.949 . S
C432 C436 1.368 . S
C433 C414 1.429 . S
C433 C427 1.429 . S
C433 C434 1.523 . S
C434 C415 1.368 1_554 S
C434 C428 1.368 1_554 S
C434 C433 1.523 . S
C435 C419 1.429 . S
C435 C431 1.429 . S
C435 C436 1.523 . S
C436 C420 1.368 . S
C436 C432 1.368 . S
C436 C435 1.523 . S
H437 C412 0.950 . S
H438 C414 0.950 . S
H439 C415 0.949 . S
H440 C417 0.950 . S
H441 C419 0.950 . S
C442 C443 1.349 . S
C442 C444 1.327 . S
C442 H467 0.950 . S
C443 C442 1.349 . S
C443 C459 1.349 . S
C444 C442 1.327 . S
C444 C463 1.429 . S
C444 H468 0.950 . S
C445 C462 1.574 1_554 S
C445 C464 1.368 . S
C445 H469 0.949 1_655 S
H446 C450 0.949 . S
C447 C448 1.349 1_455 S
C447 C449 1.327 . S
C447 H470 0.950 . S
C448 C447 1.349 1_655 S
C448 C460 1.349 . S
C449 C447 1.327 . S
C449 C465 1.429 1_455 S
C449 H471 0.950 . S
C450 H446 0.949 . S
C450 C458 1.574 . S
C450 C466 1.368 . S
H451 C459 0.950 . S
H452 C457 0.950 . S
H453 C458 0.949 . S
H454 C460 0.950 . S
H455 C461 0.950 . S
H456 C462 0.949 1_455 S
C457 H452 0.950 . S
C457 C459 1.327 . S
C457 C463 1.429 . S
C458 C450 1.574 . S
C458 H453 0.949 . S
C458 C464 1.368 1_556 S
C459 C443 1.349 . S
C459 H451 0.950 . S
C459 C457 1.327 . S
C460 C448 1.349 . S
C460 H454 0.950 . S
C460 C461 1.327 . S
C461 H455 0.950 . S
C461 C460 1.327 . S
C461 C465 1.429 . S
C462 C445 1.574 1_556 S
C462 H456 0.949 1_655 S
C462 C466 1.368 . S
C463 C444 1.429 . S
C463 C457 1.429 . S
C463 C464 1.523 . S
C464 C445 1.368 . S
C464 C458 1.368 1_554 S
C464 C463 1.523 . S
C465 C449 1.429 1_655 S
C465 C461 1.429 . S
C465 C466 1.523 . S
C466 C450 1.368 . S
C466 C462 1.368 . S
C466 C465 1.523 . S
H467 C442 0.950 . S
H468 C444 0.950 . S
H469 C445 0.949 1_455 S
H470 C447 0.950 . S
H471 C449 0.950 . S
C472 C473 1.349 . S
C472 C474 1.327 . S
C472 H497 0.950 . S
C473 C472 1.349 . S
C473 C489 1.349 . S
C474 C472 1.327 . S
C474 C493 1.429 . S
C474 H498 0.950 . S
C475 C492 1.574 . S
C475 C494 1.368 . S
C475 H499 0.949 . S
H476 C480 0.949 . S
C477 C478 1.368 . S
C477 C479 1.327 . S
C477 H500 0.950 . S
C478 C477 1.368 . S
C478 C490 1.317 1_655 S
C479 C477 1.327 . S
C479 C495 1.429 1_655 S
C479 H501 0.950 . S
C480 H476 0.949 . S
C480 C488 1.574 . S
C480 C496 1.368 . S
H481 C489 0.950 . S
H482 C487 0.950 . S
H483 C488 0.949 . S
H484 C490 0.950 . S
H485 C491 0.950 . S
H486 C492 0.949 1_655 S
C487 H482 0.950 . S
C487 C489 1.327 . S
C487 C493 1.429 . S
C488 C480 1.574 . S
C488 H483 0.949 . S
C488 C494 1.368 . S
C489 C473 1.349 . S
C489 H481 0.950 . S
C489 C487 1.327 . S
C490 C478 1.317 1_455 S
C490 H484 0.950 . S
C490 C491 1.327 . S
C491 H485 0.950 . S
C491 C490 1.327 . S
C491 C495 1.429 . S
C492 C475 1.574 . S
C492 H486 0.949 1_455 S
C492 C496 1.368 . S
C493 C474 1.429 . S
C493 C487 1.429 . S
C493 C494 1.523 . S
C494 C475 1.368 . S
C494 C488 1.368 . S
C494 C493 1.523 . S
C495 C479 1.429 1_455 S
C495 C491 1.429 . S
C495 C496 1.523 . S
C496 C480 1.368 . S
C496 C492 1.368 . S
C496 C495 1.523 . S
H497 C472 0.950 . S
H498 C474 0.950 . S
H499 C475 0.949 . S
H500 C477 0.950 . S
H501 C479 0.950 . S
C502 C503 1.349 . S
C502 C504 1.327 . S
C502 H527 0.950 . S
C503 C502 1.349 . S
C503 C519 1.349 . S
C504 C502 1.327 . S
C504 C523 1.429 . S
C504 H528 0.950 . S
C505 C522 1.574 . S
C505 C524 1.368 . S
C505 H529 0.949 . S
H506 C510 0.949 . S
C507 C508 1.349 . S
C507 C509 1.327 . S
C507 H530 0.950 . S
C508 C507 1.349 . S
C508 C520 1.349 1_565 S
C509 C507 1.327 . S
C509 C525 1.429 1_565 S
C509 H531 0.950 . S
C510 H506 0.949 . S
C510 C518 1.574 . S
C510 C526 1.368 . S
H511 C519 0.950 . S
H512 C517 0.950 . S
H513 C518 0.949 . S
H514 C520 0.950 . S
H515 C521 0.950 . S
H516 C522 0.949 1_565 S
C517 H512 0.950 . S
C517 C519 1.327 . S
C517 C523 1.429 . S
C518 C510 1.574 . S
C518 H513 0.949 . S
C518 C524 1.368 . S
C519 C503 1.349 . S
C519 H511 0.950 . S
C519 C517 1.327 . S
C520 C508 1.349 1_545 S
C520 H514 0.950 . S
C520 C521 1.327 . S
C521 H515 0.950 . S
C521 C520 1.327 . S
C521 C525 1.429 . S
C522 C505 1.574 . S
C522 H516 0.949 1_545 S
C522 C526 1.368 . S
C523 C504 1.429 . S
C523 C517 1.429 . S
C523 C524 1.523 . S
C524 C505 1.368 . S
C524 C518 1.368 . S
C524 C523 1.523 . S
C525 C509 1.429 1_545 S
C525 C521 1.429 . S
C525 C526 1.523 . S
C526 C510 1.368 . S
C526 C522 1.368 . S
C526 C525 1.523 . S
H527 C502 0.950 . S
H528 C504 0.950 . S
H529 C505 0.949 . S
H530 C507 0.950 . S
H531 C509 0.950 . S
C532 C533 1.349 . S
C532 C534 1.327 . S
C532 H557 0.950 . S
C533 C532 1.349 . S
C533 C549 1.349 . S
C534 C532 1.327 . S
C534 C553 1.429 . S
C534 H558 0.950 . S
C535 C552 1.574 . S
C535 C554 1.368 . S
C535 H559 0.949 . S
H536 C540 0.949 . S
C537 C538 1.349 . S
C537 C539 1.327 . S
C537 H560 0.950 . S
C538 C537 1.349 . S
C538 C550 1.349 . S
C539 C537 1.327 . S
C539 C555 1.429 . S
C539 H561 0.950 . S
C540 H536 0.949 . S
C540 C548 1.574 . S
C540 C556 1.368 . S
H541 C549 0.950 . S
H542 C547 0.950 . S
H543 C548 0.949 . S
H544 C550 0.950 . S
H545 C551 0.950 . S
H546 C552 0.949 . S
C547 H542 0.950 . S
C547 C549 1.327 . S
C547 C553 1.429 . S
C548 C540 1.574 . S
C548 H543 0.949 . S
C548 C554 1.368 . S
C549 C533 1.349 . S
C549 H541 0.950 . S
C549 C547 1.327 . S
C550 C538 1.349 . S
C550 H544 0.950 . S
C550 C551 1.327 . S
C551 H545 0.950 . S
C551 C550 1.327 . S
C551 C555 1.429 . S
C552 C535 1.574 . S
C552 H546 0.949 . S
C552 C556 1.368 . S
C553 C534 1.429 . S
C553 C547 1.429 . S
C553 C554 1.523 . S
C554 C535 1.368 . S
C554 C548 1.368 . S
C554 C553 1.523 . S
C555 C539 1.429 . S
C555 C551 1.429 . S
C555 C556 1.523 . S
C556 C540 1.368 . S
C556 C552 1.368 . S
C556 C555 1.523 . S
H557 C532 0.950 . S
H558 C534 0.950 . S
H559 C535 0.949 . S
H560 C537 0.950 . S
H561 C539 0.950 . S
C562 C563 1.349 . S
C562 C564 1.327 . S
C562 H587 0.950 . S
C563 C562 1.349 . S
C563 C579 1.349 . S
C564 C562 1.327 . S
C564 C583 1.429 . S
C564 H588 0.950 . S
C565 C582 1.574 . S
C565 C584 1.368 . S
C565 H589 0.949 . S
H566 C570 0.949 . S
C567 C568 1.349 . S
C567 C569 1.327 . S
C567 H590 0.950 . S
C568 C567 1.349 . S
C568 C580 1.349 . S
C569 C567 1.327 . S
C569 C585 1.429 . S
C569 H591 0.950 . S
C570 H566 0.949 . S
C570 C578 1.574 . S
C570 C586 1.368 . S
H571 C579 0.950 . S
H572 C577 0.950 . S
H573 C578 0.949 . S
H574 C580 0.950 . S
H575 C581 0.950 . S
H576 C582 0.949 . S
C577 H572 0.950 . S
C577 C579 1.327 . S
C577 C583 1.429 . S
C578 C570 1.574 . S
C578 H573 0.949 . S
C578 C584 1.368 . S
C579 C563 1.349 . S
C579 H571 0.950 . S
C579 C577 1.327 . S
C580 C568 1.349 . S
C580 H574 0.950 . S
C580 C581 1.327 . S
C581 H575 0.950 . S
C581 C580 1.327 . S
C581 C585 1.429 . S
C582 C565 1.574 . S
C582 H576 0.949 . S
C582 C586 1.368 . S
C583 C564 1.429 . S
C583 C577 1.429 . S
C583 C584 1.523 . S
C584 C565 1.368 . S
C584 C578 1.368 . S
C584 C583 1.523 . S
C585 C569 1.429 . S
C585 C581 1.429 . S
C585 C586 1.523 . S
C586 C570 1.368 . S
C586 C582 1.368 . S
C586 C585 1.523 . S
H587 C562 0.950 . S
H588 C564 0.950 . S
H589 C565 0.949 . S
H590 C567 0.950 . S
H591 C569 0.950 . S
C592 C593 1.349 . S
C592 C594 1.327 . S
C592 H617 0.950 . S
C593 C592 1.349 . S
C593 C609 1.349 . S
C594 C592 1.327 . S
C594 C613 1.429 . S
C594 H618 0.950 . S
C595 C612 1.574 . S
C595 C614 1.368 . S
C595 H619 0.949 . S
H596 C600 0.949 1_556 S
C597 C598 1.342 1_554 S
C597 C599 1.331 . S
C597 H620 0.953 . S
C598 C597 1.342 1_556 S
C598 C610 1.349 . S
C599 C597 1.331 . S
C599 C615 1.429 . S
C599 H621 0.950 . S
C600 H596 0.949 1_554 S
C600 C608 1.574 . S
C600 C616 1.368 . S
H601 C609 0.950 . S
H602 C607 0.950 . S
H603 C608 0.949 . S
H604 C610 0.950 . S
H605 C611 0.950 . S
H606 C612 0.949 . S
C607 H602 0.950 . S
C607 C609 1.327 . S
C607 C613 1.429 . S
C608 C600 1.574 . S
C608 H603 0.949 . S
C608 C614 1.368 . S
C609 C593 1.349 . S
C609 H601 0.950 . S
C609 C607 1.327 . S
C610 C598 1.349 . S
C610 H604 0.950 . S
C610 C611 1.327 . S
C611 H605 0.950 . S
C611 C610 1.327 . S
C611 C615 1.429 1_556 S
C612 C595 1.574 . S
C612 H606 0.949 . S
C612 C616 1.368 . S
C613 C594 1.429 . S
C613 C607 1.429 . S
C613 C614 1.523 . S
C614 C595 1.368 . S
C614 C608 1.368 . S
C614 C613 1.523 . S
C615 C599 1.429 . S
C615 C611 1.429 1_554 S
C615 C616 1.523 1_455 S
C616 C600 1.368 . S
C616 C612 1.368 . S
C616 C615 1.523 1_655 S
H617 C592 0.950 . S
H618 C594 0.950 . S
H619 C595 0.949 . S
H620 C597 0.953 . S
H621 C599 0.950 . S
C622 C623 1.349 . S
C622 C624 1.327 . S
C622 H647 0.950 . S
C623 C622 1.349 . S
C623 C639 1.349 . S
C624 C622 1.327 . S
C624 C643 1.429 . S
C624 H648 0.950 . S
C625 C642 1.574 1_565 S
C625 C644 1.368 . S
C625 H649 0.949 1_565 S
H626 C630 0.949 . S
C627 C628 1.349 . S
C627 C629 1.327 . S
C627 H650 0.950 . S
C628 C627 1.349 . S
C628 C640 1.349 1_545 S
C629 C627 1.327 . S
C629 C645 1.429 1_545 S
C629 H651 0.950 . S
C630 H626 0.949 . S
C630 C638 1.574 . S
C630 C646 1.373 . S
H631 C639 0.950 . S
H632 C637 0.950 . S
H633 C638 0.949 . S
H634 C640 0.950 . S
H635 C641 0.950 . S
H636 C642 0.949 1_556 S
C637 H632 0.950 . S
C637 C639 1.327 . S
C637 C643 1.429 . S
C638 C630 1.574 . S
C638 H633 0.949 . S
C638 C644 1.368 . S
C639 C623 1.349 . S
C639 H631 0.950 . S
C639 C637 1.327 . S
C640 C628 1.349 1_565 S
C640 H634 0.950 . S
C640 C641 1.327 . S
C641 H635 0.950 . S
C641 C640 1.327 . S
C641 C645 1.429 . S
C642 C625 1.574 1_545 S
C642 H636 0.949 1_554 S
C642 C646 1.371 1_545 S
C643 C624 1.429 . S
C643 C637 1.429 . S
C643 C644 1.523 . S
C644 C625 1.368 . S
C644 C638 1.368 . S
C644 C643 1.523 . S
C645 C629 1.429 1_565 S
C645 C641 1.429 . S
C645 C646 1.514 1_556 S
C646 C630 1.373 . S
C646 C642 1.371 1_565 S
C646 C645 1.514 1_554 S
H647 C622 0.950 . S
H648 C624 0.950 . S
H649 C625 0.949 1_545 S
H650 C627 0.950 . S
H651 C629 0.950 . S
C652 C653 1.349 . S
C652 C654 1.327 . S
C652 H677 0.950 . S
C653 C652 1.349 . S
C653 C669 1.349 . S
C654 C652 1.327 . S
C654 C673 1.429 . S
C654 H678 0.950 . S
C655 C672 1.574 . S
C655 C674 1.368 . S
C655 H679 0.949 . S
H656 C660 0.949 . S
C657 C658 1.349 . S
C657 C659 1.327 . S
C657 H680 0.950 . S
C658 C657 1.349 . S
C658 C670 1.349 . S
C659 C657 1.327 . S
C659 C675 1.429 . S
C659 H681 0.950 . S
C660 H656 0.949 . S
C660 C668 1.574 . S
C660 C676 1.368 . S
H661 C669 0.950 . S
H662 C667 0.950 . S
H663 C668 0.949 . S
H664 C670 0.950 . S
H665 C671 0.950 . S
H666 C672 0.949 . S
C667 H662 0.950 . S
C667 C669 1.327 . S
C667 C673 1.429 . S
C668 C660 1.574 . S
C668 H663 0.949 . S
C668 C674 1.368 1_556 S
C669 C653 1.349 . S
C669 H661 0.950 . S
C669 C667 1.327 . S
C670 C658 1.349 . S
C670 H664 0.950 . S
C670 C671 1.327 . S
C671 H665 0.950 . S
C671 C670 1.327 . S
C671 C675 1.429 . S
C672 C655 1.574 . S
C672 H666 0.949 . S
C672 C676 1.368 1_554 S
C673 C654 1.429 . S
C673 C667 1.429 . S
C673 C674 1.523 . S
C674 C655 1.368 . S
C674 C668 1.368 1_554 S
C674 C673 1.523 . S
C675 C659 1.429 . S
C675 C671 1.429 . S
C675 C676 1.523 . S
C676 C660 1.368 . S
C676 C672 1.368 1_556 S
C676 C675 1.523 . S
H677 C652 0.950 . S
H678 C654 0.950 . S
H679 C655 0.949 . S
H680 C657 0.950 . S
H681 C659 0.950 . S
C682 C683 1.349 . S
C682 C684 1.327 . S
C682 H707 0.950 . S
C683 C682 1.349 . S
C683 C699 1.349 . S
C684 C682 1.327 . S
C684 C703 1.429 . S
C684 H708 0.950 . S
C685 C702 1.574 . S
C685 C704 1.368 . S
C685 H709 0.949 . S
H686 C690 0.949 . S
C687 C688 1.349 . S
C687 C689 1.327 . S
C687 H710 0.950 . S
C688 C687 1.349 . S
C688 C700 1.349 . S
C689 C687 1.327 . S
C689 C705 1.429 . S
C689 H711 0.950 . S
C690 H686 0.949 . S
C690 C698 1.574 . S
C690 C706 1.368 . S
H691 C699 0.950 . S
H692 C697 0.950 . S
H693 C698 0.949 . S
H694 C700 0.950 . S
H695 C701 0.950 . S
H696 C702 0.949 . S
C697 H692 0.950 . S
C697 C699 1.327 . S
C697 C703 1.429 . S
C698 C690 1.574 . S
C698 H693 0.949 . S
C698 C704 1.368 . S
C699 C683 1.349 . S
C699 H691 0.950 . S
C699 C697 1.327 . S
C700 C688 1.349 . S
C700 H694 0.950 . S
C700 C701 1.327 . S
C701 H695 0.950 . S
C701 C700 1.327 . S
C701 C705 1.429 . S
C702 C685 1.574 . S
C702 H696 0.949 . S
C702 C706 1.368 . S
C703 C684 1.429 . S
C703 C697 1.429 . S
C703 C704 1.523 . S
C704 C685 1.368 . S
C704 C698 1.368 . S
C704 C703 1.523 . S
C705 C689 1.429 . S
C705 C701 1.429 . S
C705 C706 1.523 1_556 S
C706 C690 1.368 . S
C706 C702 1.368 . S
C706 C705 1.523 1_554 S
H707 C682 0.950 . S
H708 C684 0.950 . S
H709 C685 0.949 . S
H710 C687 0.950 . S
H711 C689 0.950 . S
C712 C713 1.349 . S
C712 C714 1.327 . S
C712 H737 0.937 1_556 S
C713 C712 1.349 . S
C713 C729 1.349 . S
C714 C712 1.327 . S
C714 C733 1.429 . S
C714 H738 0.950 . S
C715 C732 1.574 . S
C715 C734 1.368 . S
C715 H739 0.949 . S
H716 C720 0.949 . S
C717 C718 1.349 . S
C717 C719 1.327 . S
C717 H740 0.950 . S
C718 C717 1.349 . S
C718 C730 1.349 . S
C719 C717 1.327 . S
C719 C735 1.429 . S
C719 H741 0.950 . S
C720 H716 0.949 . S
C720 C728 1.574 . S
C720 C736 1.368 . S
H721 C729 0.950 . S
H722 C727 0.950 . S
H723 C728 0.949 . S
H724 C730 0.950 . S
H725 C731 0.950 . S
H726 C732 0.949 . S
C727 H722 0.950 . S
C727 C729 1.327 . S
C727 C733 1.429 . S
C728 C720 1.574 . S
C728 H723 0.949 . S
C728 C734 1.368 . S
C729 C713 1.349 . S
C729 H721 0.950 . S
C729 C727 1.327 . S
C730 C718 1.349 . S
C730 H724 0.950 . S
C730 C731 1.327 . S
C731 H725 0.950 . S
C731 C730 1.327 . S
C731 C735 1.429 . S
C732 C715 1.574 . S
C732 H726 0.949 . S
C732 C736 1.368 . S
C733 C714 1.429 . S
C733 C727 1.429 . S
C733 C734 1.523 . S
C734 C715 1.368 . S
C734 C728 1.368 . S
C734 C733 1.523 . S
C735 C719 1.429 . S
C735 C731 1.429 . S
C735 C736 1.523 . S
C736 C720 1.368 . S
C736 C732 1.368 . S
C736 C735 1.523 . S
H737 C712 0.937 1_554 S
H738 C714 0.950 . S
H739 C715 0.949 . S
H740 C717 0.950 . S
H741 C719 0.950 . S
C742 C743 1.349 . S
C742 C744 1.327 . S
C742 H767 0.950 . S
C743 C742 1.349 . S
C743 C759 1.349 . S
C744 C742 1.327 . S
C744 C763 1.429 . S
C744 H768 0.950 . S
C745 C762 1.574 . S
C745 C764 1.368 . S
C745 H769 0.949 . S
H746 C750 0.949 . S
C747 C748 1.349 . S
C747 C749 1.327 . S
C747 H770 0.950 . S
C748 C747 1.349 . S
C748 C760 1.349 . S
C749 C747 1.327 . S
C749 C765 1.429 . S
C749 H771 0.950 . S
C750 H746 0.949 . S
C750 C758 1.574 . S
C750 C766 1.368 . S
H751 C759 0.950 . S
H752 C757 0.950 . S
H753 C758 0.949 . S
H754 C760 0.950 . S
H755 C761 0.950 . S
H756 C762 0.949 . S
C757 H752 0.950 . S
C757 C759 1.327 . S
C757 C763 1.429 . S
C758 C750 1.574 . S
C758 H753 0.949 . S
C758 C764 1.368 . S
C759 C743 1.349 . S
C759 H751 0.950 . S
C759 C757 1.327 . S
C760 C748 1.349 . S
C760 H754 0.950 . S
C760 C761 1.327 . S
C761 H755 0.950 . S
C761 C760 1.327 . S
C761 C765 1.429 . S
C762 C745 1.574 . S
C762 H756 0.949 . S
C762 C766 1.368 . S
C763 C744 1.429 . S
C763 C757 1.429 . S
C763 C764 1.523 . S
C764 C745 1.368 . S
C764 C758 1.368 . S
C764 C763 1.523 . S
C765 C749 1.429 . S
C765 C761 1.429 . S
C765 C766 1.523 . S
C766 C750 1.368 . S
C766 C762 1.368 . S
C766 C765 1.523 . S
H767 C742 0.950 . S
H768 C744 0.950 . S
H769 C745 0.949 . S
H770 C747 0.950 . S
H771 C749 0.950 . S
C772 C773 1.349 . S
C772 C774 1.327 . S
C772 H797 0.950 1_556 S
C773 C772 1.349 . S
C773 C789 1.349 . S
C774 C772 1.327 . S
C774 C793 1.429 . S
C774 H798 0.950 . S
C775 C792 1.574 . S
C775 C794 1.368 . S
C775 H799 0.949 . S
H776 C780 0.949 . S
C777 C778 1.349 . S
C777 C779 1.327 . S
C777 H800 0.950 . S
C778 C777 1.349 . S
C778 C790 1.349 . S
C779 C777 1.327 . S
C779 C795 1.429 . S
C779 H801 0.950 . S
C780 H776 0.949 . S
C780 C788 1.574 . S
C780 C796 1.368 . S
H781 C789 0.950 . S
H782 C787 0.950 . S
H783 C788 0.949 . S
H784 C790 0.950 . S
H785 C791 0.950 . S
H786 C792 0.949 . S
C787 H782 0.950 . S
C787 C789 1.327 . S
C787 C793 1.429 . S
C788 C780 1.574 . S
C788 H783 0.949 . S
C788 C794 1.368 . S
C789 C773 1.349 . S
C789 H781 0.950 . S
C789 C787 1.327 . S
C790 C778 1.349 . S
C790 H784 0.950 . S
C790 C791 1.327 . S
C791 H785 0.950 . S
C791 C790 1.327 . S
C791 C795 1.429 . S
C792 C775 1.574 . S
C792 H786 0.949 . S
C792 C796 1.368 . S
C793 C774 1.429 . S
C793 C787 1.429 . S
C793 C794 1.523 . S
C794 C775 1.368 . S
C794 C788 1.368 . S
C794 C793 1.523 . S
C795 C779 1.429 . S
C795 C791 1.429 . S
C795 C796 1.523 . S
C796 C780 1.368 . S
C796 C792 1.368 . S
C796 C795 1.523 . S
H797 C772 0.950 1_554 S
H798 C774 0.950 . S
H799 C775 0.949 . S
H800 C777 0.950 . S
H801 C779 0.950 . S
C802 C803 1.349 1_554 S
C802 C804 1.327 1_554 S
C802 H827 0.950 . S
C803 C802 1.349 1_556 S
C803 C819 1.349 . S
C804 C802 1.327 1_556 S
C804 C823 1.429 . S
C804 H828 0.950 1_556 S
C805 C822 1.574 . S
C805 C824 1.368 . S
C805 H829 0.949 . S
H806 C810 0.949 . S
C807 C808 1.349 . S
C807 C809 1.327 . S
C807 H830 0.950 . S
C808 C807 1.349 . S
C808 C820 1.349 . S
C809 C807 1.327 . S
C809 C825 1.429 . S
C809 H831 0.950 . S
C810 H806 0.949 . S
C810 C818 1.574 . S
C810 C826 1.368 . S
H811 C819 0.950 . S
H812 C817 0.950 . S
H813 C818 0.949 . S
H814 C820 0.950 . S
H815 C821 0.950 . S
H816 C822 0.949 . S
C817 H812 0.950 . S
C817 C819 1.327 . S
C817 C823 1.429 . S
C818 C810 1.574 . S
C818 H813 0.949 . S
C818 C824 1.368 . S
C819 C803 1.349 . S
C819 H811 0.950 . S
C819 C817 1.327 . S
C820 C808 1.349 . S
C820 H814 0.950 . S
C820 C821 1.327 . S
C821 H815 0.950 . S
C821 C820 1.327 . S
C821 C825 1.429 . S
C822 C805 1.574 . S
C822 H816 0.949 . S
C822 C826 1.368 . S
C823 C804 1.429 . S
C823 C817 1.429 . S
C823 C824 1.523 . S
C824 C805 1.368 . S
C824 C818 1.368 . S
C824 C823 1.523 . S
C825 C809 1.429 . S
C825 C821 1.429 . S
C825 C826 1.523 . S
C826 C810 1.368 . S
C826 C822 1.368 . S
C826 C825 1.523 . S
H827 C802 0.950 . S
H828 C804 0.950 1_554 S
H829 C805 0.949 . S
H830 C807 0.950 . S
H831 C809 0.950 . S
C832 C833 1.349 . S
C832 C834 1.327 . S
C832 H857 0.950 . S
C833 C832 1.349 . S
C833 C849 1.349 . S
C834 C832 1.327 . S
C834 C853 1.429 . S
C834 H858 0.950 . S
C835 C852 1.574 . S
C835 C854 1.368 . S
C835 H859 0.949 . S
H836 C840 0.949 . S
C837 C838 1.349 . S
C837 C839 1.327 . S
C837 H860 0.950 . S
C838 C837 1.349 . S
C838 C850 1.349 . S
C839 C837 1.327 . S
C839 C855 1.429 . S
C839 H861 0.950 . S
C840 H836 0.949 . S
C840 C848 1.574 . S
C840 C856 1.368 . S
H841 C849 0.950 . S
H842 C847 0.950 . S
H843 C848 0.949 . S
H844 C850 0.950 1_455 S
H845 C851 0.950 . S
H846 C852 0.949 . S
C847 H842 0.950 . S
C847 C849 1.327 . S
C847 C853 1.429 . S
C848 C840 1.574 . S
C848 H843 0.949 . S
C848 C854 1.368 . S
C849 C833 1.349 . S
C849 H841 0.950 . S
C849 C847 1.327 . S
C850 C838 1.349 . S
C850 H844 0.950 1_655 S
C850 C851 1.327 . S
C851 H845 0.950 . S
C851 C850 1.327 . S
C851 C855 1.429 . S
C852 C835 1.574 . S
C852 H846 0.949 . S
C852 C856 1.368 . S
C853 C834 1.429 . S
C853 C847 1.429 . S
C853 C854 1.523 . S
C854 C835 1.368 . S
C854 C848 1.368 . S
C854 C853 1.523 . S
C855 C839 1.429 . S
C855 C851 1.429 . S
C855 C856 1.523 . S
C856 C840 1.368 . S
C856 C852 1.368 . S
C856 C855 1.523 . S
H857 C832 0.950 . S
H858 C834 0.950 . S
H859 C835 0.949 . S
H860 C837 0.950 . S
H861 C839 0.950 . S
C862 C863 1.349 . S
C862 C864 1.327 . S
C862 H887 0.950 . S
C863 C862 1.349 . S
C863 C879 1.349 . S
C864 C862 1.327 . S
C864 C883 1.429 . S
C864 H888 0.950 . S
C865 C882 1.574 . S
C865 C884 1.368 . S
C865 H889 0.949 . S
H866 C870 0.949 . S
C867 C868 1.349 . S
C867 C869 1.327 . S
C867 H890 0.950 . S
C868 C867 1.349 . S
C868 C880 1.349 . S
C869 C867 1.327 . S
C869 C885 1.429 . S
C869 H891 0.950 . S
C870 H866 0.949 . S
C870 C878 1.574 . S
C870 C886 1.368 . S
H871 C879 0.950 . S
H872 C877 0.950 . S
H873 C878 0.949 . S
H874 C880 0.950 . S
H875 C881 0.950 . S
H876 C882 0.949 . S
C877 H872 0.950 . S
C877 C879 1.327 . S
C877 C883 1.429 . S
C878 C870 1.574 . S
C878 H873 0.949 . S
C878 C884 1.368 . S
C879 C863 1.349 . S
C879 H871 0.950 . S
C879 C877 1.327 . S
C880 C868 1.349 . S
C880 H874 0.950 . S
C880 C881 1.327 . S
C881 H875 0.950 . S
C881 C880 1.327 . S
C881 C885 1.429 . S
C882 C865 1.574 . S
C882 H876 0.949 . S
C882 C886 1.368 . S
C883 C864 1.429 . S
C883 C877 1.429 . S
C883 C884 1.523 . S
C884 C865 1.368 . S
C884 C878 1.368 . S
C884 C883 1.523 . S
C885 C869 1.429 . S
C885 C881 1.429 . S
C885 C886 1.523 . S
C886 C870 1.368 . S
C886 C882 1.368 . S
C886 C885 1.523 . S
H887 C862 0.950 . S
H888 C864 0.950 . S
H889 C865 0.949 . S
H890 C867 0.950 . S
H891 C869 0.950 . S
C892 C893 1.349 . S
C892 C894 1.327 . S
C892 H917 0.950 . S
C893 C892 1.349 . S
C893 C909 1.349 . S
C894 C892 1.327 . S
C894 C913 1.429 . S
C894 H918 0.950 . S
C895 C912 1.574 . S
C895 C914 1.368 . S
C895 H919 0.949 . S
H896 C900 0.949 . S
C897 C898 1.349 . S
C897 C899 1.327 . S
C897 H920 0.950 . S
C898 C897 1.349 . S
C898 C910 1.349 . S
C899 C897 1.327 . S
C899 C915 1.429 . S
C899 H921 0.950 . S
C900 H896 0.949 . S
C900 C908 1.574 . S
C900 C916 1.368 . S
H901 C909 0.950 . S
H902 C907 0.950 . S
H903 C908 0.949 . S
H904 C910 0.950 . S
H905 C911 0.950 . S
H906 C912 0.949 . S
C907 H902 0.950 . S
C907 C909 1.327 . S
C907 C913 1.429 . S
C908 C900 1.574 . S
C908 H903 0.949 . S
C908 C914 1.368 . S
C909 C893 1.349 . S
C909 H901 0.950 . S
C909 C907 1.327 . S
C910 C898 1.349 . S
C910 H904 0.950 . S
C910 C911 1.327 . S
C911 H905 0.950 . S
C911 C910 1.327 . S
C911 C915 1.429 . S
C912 C895 1.574 . S
C912 H906 0.949 . S
C912 C916 1.368 . S
C913 C894 1.429 . S
C913 C907 1.429 . S
C913 C914 1.523 . S
C914 C895 1.368 . S
C914 C908 1.368 . S
C914 C913 1.523 . S
C915 C899 1.429 . S
C915 C911 1.429 . S
C915 C916 1.523 . S
C916 C900 1.368 . S
C916 C912 1.368 . S
C916 C915 1.523 . S
H917 C892 0.950 . S
H918 C894 0.950 . S
H919 C895 0.949 . S
H920 C897 0.950 . S
H921 C899 0.950 . S
C922 C923 1.349 . S
C922 C924 1.327 . S
C922 H947 0.950 . S
C923 C922 1.349 . S
C923 C939 1.349 . S
C924 C922 1.327 . S
C924 C943 1.429 . S
C924 H948 0.950 . S
C925 C942 1.574 . S
C925 C944 1.368 . S
C925 H949 0.949 . S
H926 C930 0.949 . S
C927 C928 1.349 . S
C927 C929 1.327 . S
C927 H950 0.950 . S
C928 C927 1.349 . S
C928 C940 1.349 . S
C929 C927 1.327 . S
C929 C945 1.429 . S
C929 H951 0.950 . S
C930 H926 0.949 . S
C930 C938 1.574 . S
C930 C946 1.368 . S
H931 C939 0.950 . S
H932 C937 0.950 . S
H933 C938 0.949 . S
H934 C940 0.950 . S
H935 C941 0.950 . S
H936 C942 0.949 . S
C937 H932 0.950 . S
C937 C939 1.327 . S
C937 C943 1.429 . S
C938 C930 1.574 . S
C938 H933 0.949 . S
C938 C944 1.368 . S
C939 C923 1.349 . S
C939 H931 0.950 . S
C939 C937 1.327 . S
C940 C928 1.349 . S
C940 H934 0.950 . S
C940 C941 1.327 . S
C941 H935 0.950 . S
C941 C940 1.327 . S
C941 C945 1.429 . S
C942 C925 1.574 . S
C942 H936 0.949 . S
C942 C946 1.368 . S
C943 C924 1.429 . S
C943 C937 1.429 . S
C943 C944 1.523 . S
C944 C925 1.368 . S
C944 C938 1.368 . S
C944 C943 1.523 . S
C945 C929 1.429 . S
C945 C941 1.429 . S
C945 C946 1.523 . S
C946 C930 1.368 . S
C946 C942 1.368 . S
C946 C945 1.523 . S
H947 C922 0.950 . S
H948 C924 0.950 . S
H949 C925 0.949 . S
H950 C927 0.950 . S
H951 C929 0.950 . S
C233 C61 2.069 . S
C238 C103 2.203 . S
C268 C129 1.619 . S
C263 C70 1.524 . S
C298 C169 1.747 . S
C293 C43 1.657 . S
C328 C223 2.259 . S
C323 C52 2.145 . S
C358 C84 2.203 . S
C353 C25 2.073 . S
C383 C34 1.526 . S
C388 C114 1.619 . S
C413 C7 1.660 . S
C418 C154 1.747 . S
C443 C16 2.148 . S
C448 C204 2.259 1_655 S
C478 C80 0.182 1_655 S
C473 C50 0.287 . S
C508 C141 0.484 . S
C503 C59 0.471 . S
C538 C181 0.373 . S
C533 C67 0.306 . S
C563 C41 0.348 . S
C568 C200 0.242 . S
C593 C14 0.254 . S
C598 C101 0.204 . S
C628 C120 0.483 . S
C623 C23 0.462 . S
C658 C160 0.373 . S
C653 C31 0.307 . S
C683 C5 0.319 . S
C688 C221 0.243 . S
C713 C49 1.654 . S
C718 C74 1.821 . S
C743 C58 2.305 . S
C748 C124 2.491 . S
C778 C164 2.280 . S
C773 C68 2.112 1_556 S
C808 C194 1.621 . S
C803 C40 1.488 1_556 S
C833 C13 1.656 . S
C838 C89 1.821 . S
C868 C143 2.491 . S
C863 C22 2.307 . S
C898 C183 2.280 . S
C893 C32 2.117 . S
C923 C4 1.489 . S
C928 C209 1.621 . S
