# Generated by pormake.
# Topology rtl, (3,6)-cn, num edge types: 1
# Building blocks:
#     Node 0, Type 0, BuildingBlock: MIDCAF_clean_linker_0, # of connection points: 3
#     Node 1, Type 0, BuildingBlock: MIDCAF_clean_linker_0, # of connection points: 3
#     Node 2, Type 0, BuildingBlock: MIDCAF_clean_linker_0, # of connection points: 3
#     Node 3, Type 0, BuildingBlock: MIDCAF_clean_linker_0, # of connection points: 3
#     Node 4, Type 1, BuildingBlock: FUNLAD_clean_sbu_0, # of connection points: 6
#     Node 5, Type 1, BuildingBlock: FUNLAD_clean_sbu_0, # of connection points: 6
#     Edge 6, Type (0, 1), BuildingBlock: EZIPEK_clean_linker_0, # of connection points: 2
#     Edge 7, Type (0, 1), BuildingBlock: EZIPEK_clean_linker_0, # of connection points: 2
#     Edge 8, Type (0, 1), BuildingBlock: EZIPEK_clean_linker_0, # of connection points: 2
#     Edge 9, Type (0, 1), BuildingBlock: EZIPEK_clean_linker_0, # of connection points: 2
#     Edge 10, Type (0, 1), BuildingBlock: EZIPEK_clean_linker_0, # of connection points: 2
#     Edge 11, Type (0, 1), BuildingBlock: EZIPEK_clean_linker_0, # of connection points: 2
#     Edge 12, Type (0, 1), BuildingBlock: EZIPEK_clean_linker_0, # of connection points: 2
#     Edge 13, Type (0, 1), BuildingBlock: EZIPEK_clean_linker_0, # of connection points: 2
#     Edge 14, Type (0, 1), BuildingBlock: EZIPEK_clean_linker_0, # of connection points: 2
#     Edge 15, Type (0, 1), BuildingBlock: EZIPEK_clean_linker_0, # of connection points: 2
#     Edge 16, Type (0, 1), BuildingBlock: EZIPEK_clean_linker_0, # of connection points: 2
#     Edge 17, Type (0, 1), BuildingBlock: EZIPEK_clean_linker_0, # of connection points: 2
# Relax obj value: 0.026
# Max RMSD: 0.107
# Mean RMSD: 0.089
data_MOF--net-rtl--node1-FUNLAD_clean_sbu_0--node2-MIDCAF_clean_linker_0--edge1-EZIPEK_clean_linker_0
_symmetry_space_group_name_H-M    P1
_symmetry_Int_Tables_number       1
_symmetry_cell_setting            triclinic
loop_
_symmetry_equiv_pos_as_xyz
'x, y, z'
_cell_length_a     39.309926
_cell_length_b     31.492306
_cell_length_c     21.938909
_cell_angle_alpha  89.611786
_cell_angle_beta   90.9189
_cell_angle_gamma 90.455128
loop_
_atom_site_label
_atom_site_type_symbol
_atom_site_fract_x
_atom_site_fract_y
_atom_site_fract_z
_atom_type_partial_charge
C0 C 0.04521 0.83902 0.16782 0.0
C1 C 0.06475 0.839 0.22173 0.0
C2 C 0.09507 0.81582 0.22486 0.0
C3 C 0.10663 0.79466 0.17333 0.0
H4 H 0.16115 0.68303 0.09534 0.0
H5 H 0.21255 0.63939 0.09949 0.0
H6 H 0.24461 0.69328 0.92838 0.0
H7 H 0.19301 0.73598 0.92287 0.0
H8 H 0.10352 0.75504 0.83817 0.0
H9 H 0.08271 0.79124 0.74514 0.0
H10 H 0.06575 0.90487 0.84868 0.0
H11 H 0.08503 0.86865 0.94148 0.0
H12 H 0.04176 0.82022 0.07465 0.0
H13 H 0.02173 0.85676 0.16482 0.0
H14 H 0.11045 0.81567 0.26628 0.0
H15 H 0.13086 0.77857 0.176 0.0
N16 N 0.12861 0.75302 0.06099 0.0
N17 N 0.13216 0.759 0.95431 0.0
N18 N 0.09206 0.79859 0.00696 0.0
C19 C 0.14333 0.74154 0.00786 0.0
C20 C 0.10647 0.78755 0.95377 0.0
C21 C 0.10272 0.78137 0.06065 0.0
C22 C 0.17306 0.71302 0.00885 0.0
C23 C 0.179 0.68529 0.05835 0.0
C24 C 0.20828 0.66034 0.0608 0.0
C25 C 0.23242 0.66345 0.01448 0.0
C26 C 0.22626 0.69052 0.96457 0.0
C27 C 0.19672 0.71481 0.96148 0.0
C28 C 0.09562 0.809 0.89689 0.0
C29 C 0.0954 0.78775 0.84078 0.0
C30 C 0.08356 0.80831 0.78784 0.0
C31 C 0.07279 0.8507 0.79022 0.0
C32 C 0.07389 0.87215 0.84601 0.0
C33 C 0.08481 0.85137 0.89893 0.0
C34 C 0.08814 0.79693 0.11798 0.0
C35 C 0.05681 0.81825 0.11636 0.0
C36 C 0.5438 0.67489 0.34178 0.0
C37 C 0.56411 0.67632 0.28997 0.0
C38 C 0.59352 0.70181 0.28973 0.0
C39 C 0.60343 0.72407 0.34213 0.0
H40 H 0.65883 0.83451 0.42315 0.0
H41 H 0.7126 0.87443 0.42192 0.0
H42 H 0.7403 0.82141 0.59735 0.0
H43 H 0.68628 0.78244 0.5999 0.0
H44 H 0.59878 0.76732 0.67724 0.0
H45 H 0.57777 0.73244 0.7702 0.0
H46 H 0.54922 0.62203 0.66535 0.0
H47 H 0.56882 0.65689 0.57273 0.0
H48 H 0.53806 0.69395 0.43412 0.0
H49 H 0.52098 0.65537 0.34245 0.0
H50 H 0.60943 0.70308 0.2499 0.0
H51 H 0.62699 0.74211 0.34168 0.0
N52 N 0.62381 0.76569 0.45581 0.0
N53 N 0.62453 0.76254 0.56294 0.0
N54 N 0.58452 0.72272 0.50693 0.0
C55 C 0.63752 0.77823 0.51018 0.0
C56 C 0.59788 0.73486 0.56143 0.0
C57 C 0.59712 0.73805 0.45396 0.0
C58 C 0.66839 0.80528 0.51156 0.0
C59 C 0.6762 0.83177 0.46178 0.0
C60 C 0.70683 0.85457 0.46098 0.0
C61 C 0.73042 0.85052 0.50932 0.0
C62 C 0.72237 0.82487 0.55965 0.0
C63 C 0.69147 0.80276 0.56106 0.0
C64 C 0.58531 0.71486 0.61783 0.0
C65 C 0.58791 0.73568 0.67421 0.0
C66 C 0.57596 0.71588 0.72714 0.0
C67 C 0.5622 0.67462 0.72446 0.0
C68 C 0.55979 0.65386 0.66825 0.0
C69 C 0.57092 0.6739 0.61539 0.0
C70 C 0.58414 0.72073 0.39548 0.0
C71 C 0.55371 0.69689 0.39409 0.0
C72 C 0.93155 0.14619 0.83789 0.0
C73 C 0.93244 0.16775 0.78183 0.0
C74 C 0.92146 0.21006 0.77822 0.0
C75 C 0.9095 0.23038 0.83018 0.0
H76 H 0.81159 0.28174 0.90499 0.0
H77 H 0.75953 0.3236 0.90748 0.0
H78 H 0.79119 0.37667 0.08013 0.0
H79 H 0.84302 0.3339 0.07899 0.0
H80 H 0.87218 0.23853 0.16281 0.0
H81 H 0.89131 0.20069 0.2552 0.0
H82 H 0.97954 0.1566 0.16099 0.0
H83 H 0.96082 0.1939 0.06876 0.0
H84 H 0.92035 0.14931 0.93262 0.0
H85 H 0.93988 0.11354 0.84151 0.0
H86 H 0.92215 0.22721 0.73528 0.0
H87 H 0.90114 0.26301 0.8266 0.0
N88 N 0.87257 0.25878 0.9408 0.0
N89 N 0.8752 0.26369 0.04774 0.0
N90 N 0.91201 0.21839 -0.00311 0.0
C91 C 0.86103 0.27582 0.99339 0.0
C92 C 0.90093 0.23513 0.04964 0.0
C93 C 0.89815 0.23006 0.94247 0.0
C94 C 0.83132 0.30435 0.992 0.0
C95 C 0.80771 0.30265 0.94322 0.0
C96 C 0.77792 0.32645 0.94457 0.0
C97 C 0.7715 0.35296 0.99413 0.0
C98 C 0.79569 0.35618 0.04167 0.0
C99 C 0.82519 0.33171 0.04095 0.0
C100 C 0.91477 0.21877 0.10824 0.0
C101 C 0.89603 0.22156 0.16216 0.0
C102 C 0.90685 0.19998 0.21489 0.0
C103 C 0.93667 0.17581 0.21441 0.0
C104 C 0.95643 0.1751 0.16192 0.0
C105 C 0.94558 0.19633 0.10928 0.0
C106 C 0.90937 0.20897 0.88658 0.0
C107 C 0.92049 0.16672 0.88986 0.0
C108 C 0.46183 0.33358 0.67589 0.0
C109 C 0.43825 0.34277 0.72116 0.0
C110 C 0.40478 0.32738 0.71551 0.0
C111 C 0.3947 0.30423 0.66414 0.0
H112 H 0.31456 0.23835 0.58665 0.0
H113 H 0.26041 0.19986 0.5819 0.0
H114 H 0.28862 0.14427 0.41108 0.0
H115 H 0.34271 0.18369 0.41449 0.0
H116 H 0.38437 0.26793 0.33542 0.0
H117 H 0.40495 0.3062 0.24555 0.0
H118 H 0.49067 0.35362 0.35009 0.0
H119 H 0.47061 0.31566 0.44011 0.0
H120 H 0.47004 0.30568 0.58877 0.0
H121 H 0.4878 0.34515 0.67974 0.0
H122 H 0.38628 0.33429 0.75008 0.0
H123 H 0.36844 0.29382 0.66003 0.0
N124 N 0.37726 0.25368 0.55696 0.0
N125 N 0.38145 0.24878 0.45061 0.0
N126 N 0.42228 0.28728 0.50683 0.0
C127 C 0.36505 0.23867 0.50291 0.0
C128 C 0.41015 0.27316 0.45228 0.0
C129 C 0.40607 0.27763 0.55928 0.0
C130 C 0.33289 0.21407 0.50086 0.0
C131 C 0.30937 0.21783 0.54812 0.0
C132 C 0.27839 0.19598 0.54547 0.0
C133 C 0.27059 0.16939 0.49612 0.0
C134 C 0.29423 0.16484 0.44938 0.0
C135 C 0.32502 0.18737 0.4514 0.0
C136 C 0.42556 0.2892 0.39531 0.0
C137 C 0.40803 0.28565 0.33908 0.0
C138 C 0.41969 0.30747 0.28766 0.0
C139 C 0.44909 0.33283 0.2917 0.0
C140 C 0.46787 0.3342 0.34644 0.0
C141 C 0.45625 0.31254 0.39781 0.0
C142 C 0.41781 0.29686 0.61716 0.0
C143 C 0.45162 0.31112 0.62402 0.0
C144 C 0.02127 0.95156 0.41148 0.0
N145 N 0.07393 0.05094 0.4976 0.0
C146 C 0.10165 0.02551 0.49362 0.0
C147 C 0.13426 0.04322 0.4918 0.0
C148 C 0.1383 0.08738 0.49539 0.0
C149 C 0.10942 0.11292 0.50007 0.0
C150 C 0.07723 0.09394 0.50058 0.0
Zn151 Zn 0.02667 0.02383 0.49849 0.0
C152 C 0.97969 0.06319 0.40891 0.0
N153 N 0.92855 0.96511 0.49992 0.0
C154 C 0.92515 0.92224 0.50581 0.0
C155 C 0.90084 0.99067 0.49521 0.0
C156 C 0.86812 0.97324 0.4957 0.0
C157 C 0.86398 0.92924 0.50238 0.0
C158 C 0.89286 0.90356 0.5077 0.0
Zn159 Zn 0.97587 0.99209 0.49881 0.0
O160 O 0.04172 0.97935 0.43274 0.0
C161 C 0.023 0.95301 0.58877 0.0
O162 O 0.99093 0.94962 0.43037 0.0
H163 H 0.90408 0.02469 0.49113 0.0
H164 H 0.0985 0.99141 0.49174 0.0
H165 H 0.94749 0.9025 0.50915 0.0
O166 O 0.04255 0.98223 0.5693 0.0
O167 O 0.99318 0.94907 0.56632 0.0
H168 H 0.05486 0.11357 0.50328 0.0
O169 O 0.96136 0.03473 0.56757 0.0
O170 O 0.01069 0.06785 0.56387 0.0
O171 O 0.9595 0.03564 0.43097 0.0
O172 O 0.01029 0.06526 0.42815 0.0
C173 C 0.98117 0.06419 0.58602 0.0
H174 H 0.15613 0.02274 0.48815 0.0
H175 H 0.11181 0.14715 0.50284 0.0
H176 H 0.84625 0.99383 0.49145 0.0
H177 H 0.8904 0.86944 0.5128 0.0
C178 C 0.47938 0.45259 0.91895 0.0
N179 N 0.57537 0.46892 0.00138 0.0
C180 C 0.579 0.42617 0.99597 0.0
C181 C 0.61133 0.40837 0.99391 0.0
C182 C 0.64013 0.43476 -0.00147 0.0
C183 C 0.63581 0.4787 0.00419 0.0
C184 C 0.60297 0.49527 0.00496 0.0
Zn185 Zn 0.52752 0.49341 0.00601 0.0
C186 C 0.51794 0.56646 0.92116 0.0
N187 N 0.42773 0.54545 0.0158 0.0
C188 C 0.40032 0.51897 0.02047 0.0
C189 C 0.42393 0.58835 0.01337 0.0
C190 C 0.39158 0.60615 0.01448 0.0
C191 C 0.36296 0.57956 0.0192 0.0
C192 C 0.3675 0.5355 0.02288 0.0
Zn193 Zn 0.47557 0.52082 0.01116 0.0
O194 O 0.50975 0.45034 0.93909 0.0
C195 C 0.48562 0.44789 0.09657 0.0
O196 O 0.45926 0.47999 0.94005 0.0
H197 H 0.44602 0.60888 0.01026 0.0
H198 H 0.55678 0.40576 0.99374 0.0
H199 H 0.40389 0.48496 0.02205 0.0
O200 O 0.51555 0.44945 0.07572 0.0
O201 O 0.46327 0.47365 0.07658 0.0
H202 H 0.59954 0.52916 0.00897 0.0
O203 O 0.49235 0.56148 0.08144 0.0
O204 O 0.54432 0.53709 0.07288 0.0
O205 O 0.48916 0.56765 0.94644 0.0
O206 O 0.53899 0.53775 0.93657 0.0
C207 C 0.5235 0.56206 0.09758 0.0
H208 H 0.61391 0.3743 0.98972 0.0
H209 H 0.65761 0.49983 0.008 0.0
H210 H 0.38885 0.64032 0.01183 0.0
H211 H 0.34585 0.51421 0.02676 0.0
C212 C 0.21278 0.15729 0.44818 0.0
C213 C 0.2374 0.14661 0.49367 0.0
C214 C 0.19621 0.09936 0.5428 0.0
C215 C 0.17275 0.10697 0.49417 0.0
N216 N 0.16165 0.13563 0.39353 0.0
N217 N 0.25519 0.10039 0.57619 0.0
C218 C 0.18192 0.1337 0.44467 0.0
C219 C 0.22991 0.11544 0.53859 0.0
N220 N 0.21815 0.19109 0.41002 0.0
N221 N 0.18598 0.07836 0.59416 0.0
H222 H 0.28038 0.11082 0.57363 0.0
H223 H 0.25185 0.07466 0.60564 0.0
H224 H 0.16125 0.06693 0.59979 0.0
H225 H 0.20108 0.07588 0.63346 0.0
H226 H 0.19947 0.20295 0.38046 0.0
H227 H 0.24012 0.20985 0.41182 0.0
H228 H 0.16885 0.15128 0.35372 0.0
H229 H 0.13914 0.11813 0.38868 0.0
C230 C 0.28923 0.64912 0.06483 0.0
C231 C 0.26475 0.63935 0.01863 0.0
C232 C 0.30503 0.59112 0.97136 0.0
C233 C 0.32837 0.59822 0.02038 0.0
N234 N 0.33925 0.62594 0.12115 0.0
N235 N 0.24636 0.59381 0.93628 0.0
C236 C 0.31938 0.62475 0.06947 0.0
C237 C 0.27173 0.60805 0.97444 0.0
N238 N 0.28458 0.68296 0.10242 0.0
N239 N 0.31508 0.57 0.92057 0.0
H240 H 0.22148 0.60498 0.93797 0.0
H241 H 0.24918 0.56807 0.90726 0.0
H242 H 0.33949 0.55788 0.91575 0.0
H243 H 0.30022 0.56794 0.88094 0.0
H244 H 0.30335 0.69414 0.13244 0.0
H245 H 0.2633 0.70246 0.09968 0.0
H246 H 0.3321 0.64149 0.16065 0.0
H247 H 0.36122 0.60786 0.12669 0.0
C248 C 0.78778 0.85933 0.46163 0.0
C249 C 0.76421 0.87178 0.50637 0.0
C250 C 0.80719 0.91905 0.55194 0.0
C251 C 0.82939 0.90997 0.5034 0.0
N252 N 0.83778 0.87872 0.40461 0.0
N253 N 0.749 0.91996 0.58638 0.0
C254 C 0.8188 0.88223 0.45597 0.0
C255 C 0.77318 0.9036 0.54931 0.0
N256 N 0.78129 0.82455 0.42622 0.0
N257 N 0.8189 0.94095 0.6017 0.0
H258 H 0.72363 0.90998 0.58497 0.0
H259 H 0.75337 0.94618 0.6142 0.0
H260 H 0.8439 0.95198 0.60612 0.0
H261 H 0.80478 0.94461 0.64107 0.0
H262 H 0.79922 0.81159 0.39742 0.0
H263 H 0.75928 0.80607 0.42994 0.0
H264 H 0.82943 0.86225 0.36608 0.0
H265 H 0.86033 0.89571 0.39807 0.0
C266 C 0.73069 0.40769 0.95328 0.0
C267 C 0.73867 0.37587 -0.00279 0.0
C268 C 0.68463 0.38864 0.04766 0.0
C269 C 0.67469 0.416 -0.00096 0.0
N270 N 0.68616 0.44629 0.89996 0.0
N271 N 0.72034 0.33022 0.07963 0.0
C272 C 0.69718 0.42425 0.95029 0.0
C273 C 0.71489 0.36477 0.04279 0.0
N274 N 0.75532 0.42285 0.91545 0.0
N275 N 0.66564 0.38629 0.09925 0.0
H276 H 0.74171 0.311 0.07658 0.0
H277 H 0.70208 0.31819 0.10915 0.0
H278 H 0.64365 0.40403 0.10514 0.0
H279 H 0.67357 0.37009 0.13847 0.0
H280 H 0.75182 0.44898 0.88672 0.0
H281 H 0.78031 0.41195 0.91704 0.0
H282 H 0.70034 0.4493 0.86044 0.0
H283 H 0.6616 0.4583 0.89541 0.0
C284 C 0.0399 0.85009 0.32536 0.0
C285 C 0.05506 0.86718 0.27229 0.0
C286 C 0.0454 0.93937 0.30844 0.0
C287 C 0.03272 0.92237 0.36371 0.0
N288 N 0.02385 0.86196 0.43009 0.0
N289 N 0.07885 0.92736 0.21866 0.0
C290 C 0.03155 0.87779 0.37372 0.0
C291 C 0.05982 0.91165 0.26547 0.0
N292 N 0.03266 0.80763 0.32883 0.0
N293 N 0.04229 0.98176 0.29564 0.0
H294 H 0.09002 0.90805 0.18625 0.0
H295 H 0.08623 0.95911 0.21523 0.0
H296 H 0.03135 0.00323 0.32535 0.0
H297 H 0.04758 0.99501 0.25318 0.0
H298 H 0.0182 0.79404 0.36333 0.0
H299 H 0.03892 0.78635 0.29462 0.0
H300 H 0.02605 0.83 0.44184 0.0
H301 H 0.0182 0.88124 0.46699 0.0
C302 C 0.57294 0.63996 0.82679 0.0
C303 C 0.54982 0.6525 0.77988 0.0
C304 C 0.50488 0.60939 0.826 0.0
C305 C 0.5275 0.59876 0.8749 0.0
N306 N 0.57916 0.61577 0.93112 0.0
N307 N 0.49167 0.65931 0.74479 0.0
C308 C 0.56037 0.61772 0.87822 0.0
C309 C 0.51504 0.64056 0.78286 0.0
N310 N 0.60706 0.64729 0.82116 0.0
N311 N 0.47466 0.5882 0.81812 0.0
H312 H 0.49824 0.68287 0.71334 0.0
H313 H 0.46553 0.65473 0.74894 0.0
H314 H 0.46626 0.56407 0.84696 0.0
H315 H 0.45931 0.59172 0.77928 0.0
H316 H 0.62515 0.63462 0.85123 0.0
H317 H 0.61758 0.66269 0.78364 0.0
H318 H 0.60203 0.63227 0.93736 0.0
H319 H 0.57002 0.6019 0.97102 0.0
C320 C 0.96132 0.1646 0.31974 0.0
C321 C 0.94572 0.14765 0.26643 0.0
C322 C 0.95426 0.07537 0.3051 0.0
C323 C 0.96765 0.09231 0.3603 0.0
N324 N 0.97763 0.15276 0.42548 0.0
N325 N 0.92064 0.08792 0.21347 0.0
C326 C 0.96946 0.1369 0.3692 0.0
C327 C 0.94012 0.10329 0.26071 0.0
N328 N 0.96923 0.20689 0.32239 0.0
N329 N 0.95651 0.03283 0.29369 0.0
H330 H 0.90972 0.10741 0.18 0.0
H331 H 0.91268 0.05636 0.21057 0.0
H332 H 0.96716 0.01117 0.32449 0.0
H333 H 0.95071 0.01951 0.25142 0.0
H334 H 0.98405 0.22026 0.35716 0.0
H335 H 0.96312 0.22822 0.28737 0.0
H336 H 0.97593 0.18481 0.4363 0.0
H337 H 0.9831 0.13348 0.46318 0.0
C338 C 0.44956 0.35477 0.83297 0.0
C339 C 0.4481 0.37098 0.77246 0.0
C340 C 0.46958 0.43981 0.80802 0.0
C341 C 0.46803 0.42475 0.86886 0.0
N342 N 0.45046 0.37112 0.94083 0.0
N343 N 0.44933 0.43147 0.7041 0.0
C344 C 0.45618 0.38313 0.88188 0.0
C345 C 0.456 0.41428 0.7604 0.0
N346 N 0.44584 0.31218 0.84348 0.0
N347 N 0.48481 0.47799 0.79553 0.0
H348 H 0.43855 0.41412 0.66826 0.0
H349 H 0.45136 0.46384 0.69467 0.0
H350 H 0.49526 0.49743 0.82937 0.0
H351 H 0.4898 0.48858 0.75146 0.0
H352 H 0.45013 0.29806 0.88595 0.0
H353 H 0.44139 0.29034 0.80867 0.0
H354 H 0.43881 0.34251 0.95281 0.0
H355 H 0.45446 0.39157 0.9775 0.0
C356 C 0.563 0.6039 0.24441 0.0
C357 C 0.55594 0.64785 0.23831 0.0
C358 C 0.5321 0.63604 0.13603 0.0
C359 C 0.53543 0.5916 0.14531 0.0
N360 N 0.54923 0.53249 0.21166 0.0
N361 N 0.53058 0.7058 0.18201 0.0
C362 C 0.54976 0.57526 0.20027 0.0
C363 C 0.53968 0.66403 0.18502 0.0
N364 N 0.58293 0.58967 0.29184 0.0
N365 N 0.52287 0.65153 0.07981 0.0
H366 H 0.53633 0.72738 0.21663 0.0
H367 H 0.51524 0.7184 0.14734 0.0
H368 H 0.5176 0.63201 0.04255 0.0
H369 H 0.5234 0.68369 0.06853 0.0
H370 H 0.59194 0.55872 0.29507 0.0
H371 H 0.59308 0.60973 0.32525 0.0
H372 H 0.55571 0.5192 0.25382 0.0
H373 H 0.53942 0.51032 0.18083 0.0
C374 C 0.98003 0.13138 0.72931 0.0
C375 C 0.9459 0.14564 0.72783 0.0
C376 C 0.93782 0.11402 0.62699 0.0
C377 C 0.96984 0.09379 0.63352 0.0
N378 N 0.0188 0.07711 0.69731 0.0
N379 N 0.89033 0.14493 0.679 0.0
C380 C 0.99044 0.10099 0.68622 0.0
C381 C 0.92421 0.13565 0.67753 0.0
N382 N 0.00265 0.14728 0.77143 0.0
N383 N 0.92091 0.1138 0.57207 0.0
H384 H 0.8791 0.16004 0.71562 0.0
H385 H 0.87286 0.13417 0.64628 0.0
H386 H 0.9307 0.09979 0.5332 0.0
H387 H 0.89901 0.13144 0.56346 0.0
H388 H 0.0286 0.14086 0.77081 0.0
H389 H 0.99607 0.17039 0.80292 0.0
H390 H 0.03261 0.07837 0.73821 0.0
H391 H 0.02654 0.05281 0.66879 0.0
C392 C 0.47594 0.34594 0.18998 0.0
C393 C 0.45834 0.36165 0.24087 0.0
C394 C 0.46296 0.43409 0.20069 0.0
C395 C 0.47722 0.418 0.14658 0.0
N396 N 0.49357 0.35789 0.08592 0.0
N397 N 0.42964 0.41923 0.29015 0.0
C398 C 0.48287 0.3737 0.14019 0.0
C399 C 0.45022 0.40532 0.24486 0.0
N400 N 0.48673 0.30478 0.18997 0.0
N401 N 0.46322 0.47683 0.21152 0.0
H402 H 0.41984 0.39922 0.32376 0.0
H403 H 0.41979 0.44983 0.2912 0.0
H404 H 0.47357 0.4991 0.18157 0.0
H405 H 0.45649 0.4899 0.25307 0.0
H406 H 0.503 0.29269 0.15749 0.0
H407 H 0.48151 0.28342 0.22523 0.0
H408 H 0.49428 0.32559 0.0763 0.0
H409 H 0.49928 0.37698 0.04846 0.0
C410 C 0.02512 0.88744 0.73489 0.0
C411 C 0.05919 0.87291 0.73517 0.0
C412 C 0.06676 0.90376 0.63353 0.0
C413 C 0.03482 0.92414 0.63808 0.0
N414 N 0.98646 0.94182 0.69968 0.0
N415 N 0.11448 0.87307 0.68852 0.0
C416 C 0.0146 0.91759 0.69038 0.0
C417 C 0.08062 0.88248 0.6854 0.0
N418 N 0.00266 0.87194 0.77659 0.0
N419 N 0.08334 0.90343 0.57925 0.0
H420 H 0.12588 0.85824 0.72615 0.0
H421 H 0.13179 0.88349 0.6561 0.0
H422 H 0.07334 0.9171 0.53948 0.0
H423 H 0.10515 0.88564 0.57216 0.0
H424 H 0.97673 0.87857 0.77471 0.0
H425 H 0.00927 0.84894 0.80903 0.0
H426 H 0.97295 0.941 0.74016 0.0
H427 H 0.97871 0.96605 0.67012 0.0
loop_
_geom_bond_atom_site_label_1
_geom_bond_atom_site_label_2
_geom_bond_distance
_geom_bond_site_symmetry_2
_ccdc_geom_bond_type
C0 C1 1.384 . S
C0 H13 0.947 . S
C0 C35 1.382 . S
C1 C0 1.384 . S
C1 C2 1.378 . S
C2 C1 1.378 . S
C2 C3 1.378 . S
C2 H14 0.952 . S
C3 C2 1.378 . S
C3 H15 0.950 . S
C3 C34 1.383 . S
H4 C23 0.947 . S
H5 C24 0.946 . S
H6 C26 0.953 . S
H7 C27 0.945 . S
H8 C29 0.952 . S
H9 C30 0.949 . S
H10 C32 0.950 . S
H11 C33 0.948 . S
H12 C35 0.951 . S
H13 C0 0.947 . S
H14 C2 0.952 . S
H15 C3 0.950 . S
N16 C19 1.382 . S
N16 C21 1.363 . S
N17 C19 1.371 1_556 S
N17 C20 1.372 . S
N18 C20 1.361 1_554 S
N18 C21 1.377 . S
C19 N16 1.382 . S
C19 N17 1.371 1_554 S
C19 C22 1.480 . S
C20 N17 1.372 . S
C20 N18 1.361 1_556 S
C20 C28 1.457 . S
C21 N16 1.363 . S
C21 N18 1.377 . S
C21 C34 1.479 . S
C22 C19 1.480 . S
C22 C23 1.383 . S
C22 C27 1.385 1_554 S
C23 H4 0.947 . S
C23 C22 1.383 . S
C23 C24 1.388 . S
C24 H5 0.946 . S
C24 C23 1.388 . S
C24 C25 1.384 . S
C25 C24 1.384 . S
C25 C26 1.377 1_554 S
C26 H6 0.953 . S
C26 C25 1.377 1_556 S
C26 C27 1.369 . S
C27 H7 0.945 . S
C27 C22 1.385 1_556 S
C27 C26 1.369 . S
C28 C20 1.457 . S
C28 C29 1.372 . S
C28 C33 1.364 . S
C29 H8 0.952 . S
C29 C28 1.372 . S
C29 C30 1.389 . S
C30 H9 0.949 . S
C30 C29 1.389 . S
C30 C31 1.387 . S
C31 C30 1.387 . S
C31 C32 1.372 . S
C32 H10 0.950 . S
C32 C31 1.372 . S
C32 C33 1.379 . S
C33 H11 0.948 . S
C33 C28 1.364 . S
C33 C32 1.379 . S
C34 C3 1.383 . S
C34 C21 1.479 . S
C34 C35 1.398 . S
C35 C0 1.382 . S
C35 H12 0.951 . S
C35 C34 1.398 . S
C36 C37 1.384 . S
C36 H49 0.947 . S
C36 C71 1.382 . S
C37 C36 1.384 . S
C37 C38 1.378 . S
C38 C37 1.378 . S
C38 C39 1.378 . S
C38 H50 0.952 . S
C39 C38 1.378 . S
C39 H51 0.950 . S
C39 C70 1.383 . S
H40 C59 0.947 . S
H41 C60 0.946 . S
H42 C62 0.953 . S
H43 C63 0.945 . S
H44 C65 0.952 . S
H45 C66 0.949 . S
H46 C68 0.950 . S
H47 C69 0.948 . S
H48 C71 0.951 . S
H49 C36 0.947 . S
H50 C38 0.952 . S
H51 C39 0.950 . S
N52 C55 1.382 . S
N52 C57 1.363 . S
N53 C55 1.371 . S
N53 C56 1.372 . S
N54 C56 1.361 . S
N54 C57 1.377 . S
C55 N52 1.382 . S
C55 N53 1.371 . S
C55 C58 1.480 . S
C56 N53 1.372 . S
C56 N54 1.361 . S
C56 C64 1.457 . S
C57 N52 1.363 . S
C57 N54 1.377 . S
C57 C70 1.479 . S
C58 C55 1.480 . S
C58 C59 1.383 . S
C58 C63 1.385 . S
C59 H40 0.947 . S
C59 C58 1.383 . S
C59 C60 1.388 . S
C60 H41 0.946 . S
C60 C59 1.388 . S
C60 C61 1.384 . S
C61 C60 1.384 . S
C61 C62 1.377 . S
C62 H42 0.953 . S
C62 C61 1.377 . S
C62 C63 1.369 . S
C63 H43 0.945 . S
C63 C58 1.385 . S
C63 C62 1.369 . S
C64 C56 1.457 . S
C64 C65 1.372 . S
C64 C69 1.364 . S
C65 H44 0.952 . S
C65 C64 1.372 . S
C65 C66 1.389 . S
C66 H45 0.949 . S
C66 C65 1.389 . S
C66 C67 1.387 . S
C67 C66 1.387 . S
C67 C68 1.372 . S
C68 H46 0.950 . S
C68 C67 1.372 . S
C68 C69 1.379 . S
C69 H47 0.948 . S
C69 C64 1.364 . S
C69 C68 1.379 . S
C70 C39 1.383 . S
C70 C57 1.479 . S
C70 C71 1.398 . S
C71 C36 1.382 . S
C71 H48 0.951 . S
C71 C70 1.398 . S
C72 C73 1.384 . S
C72 H85 0.947 . S
C72 C107 1.382 . S
C73 C72 1.384 . S
C73 C74 1.378 . S
C74 C73 1.378 . S
C74 C75 1.378 . S
C74 H86 0.952 . S
C75 C74 1.378 . S
C75 H87 0.950 . S
C75 C106 1.383 . S
H76 C95 0.947 . S
H77 C96 0.946 . S
H78 C98 0.953 . S
H79 C99 0.945 . S
H80 C101 0.952 . S
H81 C102 0.949 . S
H82 C104 0.950 . S
H83 C105 0.948 . S
H84 C107 0.951 . S
H85 C72 0.947 . S
H86 C74 0.952 . S
H87 C75 0.950 . S
N88 C91 1.382 1_556 S
N88 C93 1.363 . S
N89 C91 1.371 . S
N89 C92 1.372 . S
N90 C92 1.361 . S
N90 C93 1.377 1_554 S
C91 N88 1.382 1_554 S
C91 N89 1.371 . S
C91 C94 1.480 . S
C92 N89 1.372 . S
C92 N90 1.361 . S
C92 C100 1.457 . S
C93 N88 1.363 . S
C93 N90 1.377 1_556 S
C93 C106 1.479 . S
C94 C91 1.480 . S
C94 C95 1.383 1_554 S
C94 C99 1.385 . S
C95 H76 0.947 . S
C95 C94 1.383 1_556 S
C95 C96 1.388 . S
C96 H77 0.946 . S
C96 C95 1.388 . S
C96 C97 1.384 1_556 S
C97 C96 1.384 1_554 S
C97 C98 1.377 . S
C98 H78 0.953 . S
C98 C97 1.377 . S
C98 C99 1.369 . S
C99 H79 0.945 . S
C99 C94 1.385 . S
C99 C98 1.369 . S
C100 C92 1.457 . S
C100 C101 1.372 . S
C100 C105 1.364 . S
C101 H80 0.952 . S
C101 C100 1.372 . S
C101 C102 1.389 . S
C102 H81 0.949 . S
C102 C101 1.389 . S
C102 C103 1.387 . S
C103 C102 1.387 . S
C103 C104 1.372 . S
C104 H82 0.950 . S
C104 C103 1.372 . S
C104 C105 1.379 . S
C105 H83 0.948 . S
C105 C100 1.364 . S
C105 C104 1.379 . S
C106 C75 1.383 . S
C106 C93 1.479 . S
C106 C107 1.398 . S
C107 C72 1.382 . S
C107 H84 0.951 . S
C107 C106 1.398 . S
C108 C109 1.384 . S
C108 H121 0.947 . S
C108 C143 1.382 . S
C109 C108 1.384 . S
C109 C110 1.378 . S
C110 C109 1.378 . S
C110 C111 1.378 . S
C110 H122 0.952 . S
C111 C110 1.378 . S
C111 H123 0.950 . S
C111 C142 1.383 . S
H112 C131 0.947 . S
H113 C132 0.946 . S
H114 C134 0.953 . S
H115 C135 0.945 . S
H116 C137 0.952 . S
H117 C138 0.949 . S
H118 C140 0.950 . S
H119 C141 0.948 . S
H120 C143 0.951 . S
H121 C108 0.947 . S
H122 C110 0.952 . S
H123 C111 0.950 . S
N124 C127 1.382 . S
N124 C129 1.363 . S
N125 C127 1.371 . S
N125 C128 1.372 . S
N126 C128 1.361 . S
N126 C129 1.377 . S
C127 N124 1.382 . S
C127 N125 1.371 . S
C127 C130 1.480 . S
C128 N125 1.372 . S
C128 N126 1.361 . S
C128 C136 1.457 . S
C129 N124 1.363 . S
C129 N126 1.377 . S
C129 C142 1.479 . S
C130 C127 1.480 . S
C130 C131 1.383 . S
C130 C135 1.385 . S
C131 H112 0.947 . S
C131 C130 1.383 . S
C131 C132 1.388 . S
C132 H113 0.946 . S
C132 C131 1.388 . S
C132 C133 1.384 . S
C133 C132 1.384 . S
C133 C134 1.377 . S
C134 H114 0.953 . S
C134 C133 1.377 . S
C134 C135 1.369 . S
C135 H115 0.945 . S
C135 C130 1.385 . S
C135 C134 1.369 . S
C136 C128 1.457 . S
C136 C137 1.372 . S
C136 C141 1.364 . S
C137 H116 0.952 . S
C137 C136 1.372 . S
C137 C138 1.389 . S
C138 H117 0.949 . S
C138 C137 1.389 . S
C138 C139 1.387 . S
C139 C138 1.387 . S
C139 C140 1.372 . S
C140 H118 0.950 . S
C140 C139 1.372 . S
C140 C141 1.379 . S
C141 H119 0.948 . S
C141 C136 1.364 . S
C141 C140 1.379 . S
C142 C111 1.383 . S
C142 C129 1.479 . S
C142 C143 1.398 . S
C143 C108 1.382 . S
C143 H120 0.951 . S
C143 C142 1.398 . S
C144 O160 1.251 . S
C144 O162 1.254 1_455 S
N145 C146 1.333 . S
N145 C150 1.307 . S
N145 Zn151 2.020 . S
C146 N145 1.333 . S
C146 C147 1.379 . S
C146 H164 0.952 . S
C147 C146 1.379 . S
C147 C148 1.390 . S
C147 H174 0.949 . S
C148 C147 1.390 . S
C148 C149 1.357 . S
C149 C148 1.357 . S
C149 C150 1.370 . S
C149 H175 0.950 . S
C150 N145 1.307 . S
C150 C149 1.370 . S
C150 H168 0.948 . S
Zn151 N145 2.020 . S
Zn151 O160 2.039 1_545 S
Zn151 O166 2.034 1_545 S
Zn151 O170 2.025 . S
Zn151 O172 2.024 . S
C152 O171 1.246 . S
C152 O172 1.249 1_655 S
N153 C154 1.307 . S
N153 C155 1.333 . S
N153 Zn159 2.020 . S
C154 N153 1.307 . S
C154 C158 1.370 . S
C154 H165 0.948 . S
C155 N153 1.333 . S
C155 C156 1.379 . S
C155 H163 0.952 1_565 S
C156 C155 1.379 . S
C156 C157 1.390 . S
C156 H176 0.949 . S
C157 C156 1.390 . S
C157 C158 1.357 . S
C158 C154 1.370 . S
C158 C157 1.357 . S
C158 H177 0.950 . S
Zn159 N153 2.020 . S
Zn159 O162 2.025 . S
Zn159 O167 2.024 . S
Zn159 O169 2.039 1_565 S
Zn159 O171 2.034 1_565 S
O160 C144 1.251 . S
O160 Zn151 2.039 1_565 S
C161 O166 1.246 . S
C161 O167 1.249 1_455 S
O162 C144 1.254 1_655 S
O162 Zn159 2.025 . S
H163 C155 0.952 1_545 S
H164 C146 0.952 . S
H165 C154 0.948 . S
O166 Zn151 2.034 1_565 S
O166 C161 1.246 . S
O167 Zn159 2.024 . S
O167 C161 1.249 1_655 S
H168 C150 0.948 . S
O169 Zn159 2.039 1_545 S
O169 C173 1.251 . S
O170 Zn151 2.025 . S
O170 C173 1.254 1_455 S
O171 C152 1.246 . S
O171 Zn159 2.034 1_545 S
O172 Zn151 2.024 . S
O172 C152 1.249 1_455 S
C173 O169 1.251 . S
C173 O170 1.254 1_655 S
H174 C147 0.949 . S
H175 C149 0.950 . S
H176 C156 0.949 . S
H177 C158 0.950 . S
C178 O194 1.251 . S
C178 O196 1.254 . S
N179 C180 1.333 1_554 S
N179 C184 1.307 . S
N179 Zn185 2.020 . S
C180 N179 1.333 1_556 S
C180 C181 1.379 . S
C180 H198 0.952 . S
C181 C180 1.379 . S
C181 C182 1.390 1_556 S
C181 H208 0.949 . S
C182 C181 1.390 1_554 S
C182 C183 1.357 . S
C183 C182 1.357 . S
C183 C184 1.370 . S
C183 H209 0.950 . S
C184 N179 1.307 . S
C184 C183 1.370 . S
C184 H202 0.948 . S
Zn185 N179 2.020 . S
Zn185 O194 2.039 1_554 S
Zn185 O200 2.034 . S
Zn185 O204 2.025 . S
Zn185 O206 2.024 1_554 S
C186 O205 1.246 . S
C186 O206 1.249 . S
N187 C188 1.307 1_554 S
N187 C189 1.333 . S
N187 Zn193 2.020 . S
C188 N187 1.307 1_556 S
C188 C192 1.370 . S
C188 H199 0.948 . S
C189 N187 1.333 . S
C189 C190 1.379 . S
C189 H197 0.952 . S
C190 C189 1.379 . S
C190 C191 1.390 . S
C190 H210 0.949 . S
C191 C190 1.390 . S
C191 C192 1.357 1_554 S
C192 C188 1.370 . S
C192 C191 1.357 1_556 S
C192 H211 0.950 . S
Zn193 N187 2.020 . S
Zn193 O196 2.025 1_554 S
Zn193 O201 2.024 . S
Zn193 O203 2.039 . S
Zn193 O205 2.034 1_554 S
O194 C178 1.251 . S
O194 Zn185 2.039 1_556 S
C195 O200 1.246 . S
C195 O201 1.249 . S
O196 C178 1.254 . S
O196 Zn193 2.025 1_556 S
H197 C189 0.952 . S
H198 C180 0.952 . S
H199 C188 0.948 . S
O200 Zn185 2.034 . S
O200 C195 1.246 . S
O201 Zn193 2.024 . S
O201 C195 1.249 . S
H202 C184 0.948 . S
O203 Zn193 2.039 . S
O203 C207 1.251 . S
O204 Zn185 2.025 . S
O204 C207 1.254 . S
O205 C186 1.246 . S
O205 Zn193 2.034 1_556 S
O206 Zn185 2.024 1_556 S
O206 C186 1.249 . S
C207 O203 1.251 . S
C207 O204 1.254 . S
H208 C181 0.949 . S
H209 C183 0.950 . S
H210 C190 0.949 . S
H211 C192 0.950 . S
C212 C213 1.363 . S
C212 C218 1.379 . S
C212 N220 1.356 . S
C213 C212 1.363 . S
C213 C219 1.363 . S
C214 C215 1.363 . S
C214 C219 1.379 . S
C214 N221 1.356 . S
C215 C214 1.363 . S
C215 C218 1.363 . S
N216 C218 1.356 . S
N216 H228 0.984 . S
N216 H229 0.985 . S
N217 C219 1.356 . S
N217 H222 0.984 . S
N217 H223 0.985 . S
C218 C212 1.379 . S
C218 C215 1.363 . S
C218 N216 1.356 . S
C219 C213 1.363 . S
C219 C214 1.379 . S
C219 N217 1.356 . S
N220 C212 1.356 . S
N220 H226 0.984 . S
N220 H227 0.984 . S
N221 C214 1.356 . S
N221 H224 0.984 . S
N221 H225 0.985 . S
H222 N217 0.984 . S
H223 N217 0.985 . S
H224 N221 0.984 . S
H225 N221 0.985 . S
H226 N220 0.984 . S
H227 N220 0.984 . S
H228 N216 0.984 . S
H229 N216 0.985 . S
C230 C231 1.363 . S
C230 C236 1.379 . S
C230 N238 1.356 . S
C231 C230 1.363 . S
C231 C237 1.363 1_554 S
C232 C233 1.363 1_556 S
C232 C237 1.379 . S
C232 N239 1.356 . S
C233 C232 1.363 1_554 S
C233 C236 1.363 . S
N234 C236 1.356 . S
N234 H246 0.984 . S
N234 H247 0.985 . S
N235 C237 1.356 . S
N235 H240 0.984 . S
N235 H241 0.985 . S
C236 C230 1.379 . S
C236 C233 1.363 . S
C236 N234 1.356 . S
C237 C231 1.363 1_556 S
C237 C232 1.379 . S
C237 N235 1.356 . S
N238 C230 1.356 . S
N238 H244 0.984 . S
N238 H245 0.984 . S
N239 C232 1.356 . S
N239 H242 0.984 . S
N239 H243 0.985 . S
H240 N235 0.984 . S
H241 N235 0.985 . S
H242 N239 0.984 . S
H243 N239 0.985 . S
H244 N238 0.984 . S
H245 N238 0.984 . S
H246 N234 0.984 . S
H247 N234 0.985 . S
C248 C249 1.363 . S
C248 C254 1.379 . S
C248 N256 1.356 . S
C249 C248 1.363 . S
C249 C255 1.363 . S
C250 C251 1.363 . S
C250 C255 1.379 . S
C250 N257 1.356 . S
C251 C250 1.363 . S
C251 C254 1.363 . S
N252 C254 1.356 . S
N252 H264 0.984 . S
N252 H265 0.985 . S
N253 C255 1.356 . S
N253 H258 0.984 . S
N253 H259 0.985 . S
C254 C248 1.379 . S
C254 C251 1.363 . S
C254 N252 1.356 . S
C255 C249 1.363 . S
C255 C250 1.379 . S
C255 N253 1.356 . S
N256 C248 1.356 . S
N256 H262 0.984 . S
N256 H263 0.984 . S
N257 C250 1.356 . S
N257 H260 0.984 . S
N257 H261 0.985 . S
H258 N253 0.984 . S
H259 N253 0.985 . S
H260 N257 0.984 . S
H261 N257 0.985 . S
H262 N256 0.984 . S
H263 N256 0.984 . S
H264 N252 0.984 . S
H265 N252 0.985 . S
C266 C267 1.363 1_556 S
C266 C272 1.379 . S
C266 N274 1.356 . S
C267 C266 1.363 1_554 S
C267 C273 1.363 . S
C268 C269 1.363 . S
C268 C273 1.379 . S
C268 N275 1.356 . S
C269 C268 1.363 . S
C269 C272 1.363 1_554 S
N270 C272 1.356 . S
N270 H282 0.984 . S
N270 H283 0.985 . S
N271 C273 1.356 . S
N271 H276 0.984 . S
N271 H277 0.985 . S
C272 C266 1.379 . S
C272 C269 1.363 1_556 S
C272 N270 1.356 . S
C273 C267 1.363 . S
C273 C268 1.379 . S
C273 N271 1.356 . S
N274 C266 1.356 . S
N274 H280 0.984 . S
N274 H281 0.984 . S
N275 C268 1.356 . S
N275 H278 0.984 . S
N275 H279 0.985 . S
H276 N271 0.984 . S
H277 N271 0.985 . S
H278 N275 0.984 . S
H279 N275 0.985 . S
H280 N274 0.984 . S
H281 N274 0.984 . S
H282 N270 0.984 . S
H283 N270 0.985 . S
C284 C285 1.363 . S
C284 C290 1.379 . S
C284 N292 1.357 . S
C285 C284 1.363 . S
C285 C291 1.363 . S
C286 C287 1.363 . S
C286 C291 1.379 . S
C286 N293 1.356 . S
C287 C286 1.363 . S
C287 C290 1.363 . S
N288 C290 1.356 1_655 S
N288 H300 0.984 . S
N288 H301 0.985 . S
N289 C291 1.356 . S
N289 H294 0.984 . S
N289 H295 0.985 . S
C290 C284 1.379 . S
C290 C287 1.363 . S
C290 N288 1.356 1_455 S
C291 C285 1.363 . S
C291 C286 1.379 . S
C291 N289 1.356 . S
N292 C284 1.357 . S
N292 H298 0.983 1_455 S
N292 H299 0.985 . S
N293 C286 1.356 . S
N293 H296 0.984 . S
N293 H297 0.985 . S
H294 N289 0.984 . S
H295 N289 0.985 . S
H296 N293 0.984 . S
H297 N293 0.985 . S
H298 N292 0.983 1_655 S
H299 N292 0.985 . S
H300 N288 0.984 . S
H301 N288 0.985 . S
C302 C303 1.363 . S
C302 C308 1.379 . S
C302 N310 1.356 . S
C303 C302 1.363 . S
C303 C309 1.363 . S
C304 C305 1.363 . S
C304 C309 1.379 . S
C304 N311 1.356 . S
C305 C304 1.363 . S
C305 C308 1.363 . S
N306 C308 1.356 . S
N306 H318 0.984 . S
N306 H319 0.985 . S
N307 C309 1.356 . S
N307 H312 0.984 . S
N307 H313 0.985 . S
C308 C302 1.379 . S
C308 C305 1.363 . S
C308 N306 1.356 . S
C309 C303 1.363 . S
C309 C304 1.379 . S
C309 N307 1.356 . S
N310 C302 1.356 . S
N310 H316 0.984 . S
N310 H317 0.984 . S
N311 C304 1.356 . S
N311 H314 0.984 . S
N311 H315 0.985 . S
H312 N307 0.984 . S
H313 N307 0.985 . S
H314 N311 0.984 . S
H315 N311 0.985 . S
H316 N310 0.984 . S
H317 N310 0.984 . S
H318 N306 0.984 . S
H319 N306 0.985 . S
C320 C321 1.363 . S
C320 C326 1.379 . S
C320 N328 1.356 . S
C321 C320 1.363 . S
C321 C327 1.363 . S
C322 C323 1.363 . S
C322 C327 1.379 . S
C322 N329 1.356 . S
C323 C322 1.363 . S
C323 C326 1.363 . S
N324 C326 1.356 . S
N324 H336 0.984 1_655 S
N324 H337 0.985 . S
N325 C327 1.356 . S
N325 H330 0.984 . S
N325 H331 0.985 . S
C326 C320 1.379 . S
C326 C323 1.363 . S
C326 N324 1.356 . S
C327 C321 1.363 . S
C327 C322 1.379 . S
C327 N325 1.356 . S
N328 C320 1.356 . S
N328 H334 0.982 1_655 S
N328 H335 0.984 . S
N329 C322 1.356 . S
N329 H332 0.984 . S
N329 H333 0.985 . S
H330 N325 0.984 . S
H331 N325 0.985 . S
H332 N329 0.984 . S
H333 N329 0.985 . S
H334 N328 0.982 1_455 S
H335 N328 0.984 . S
H336 N324 0.984 1_455 S
H337 N324 0.985 . S
C338 C339 1.363 . S
C338 C344 1.379 . S
C338 N346 1.356 . S
C339 C338 1.363 . S
C339 C345 1.363 . S
C340 C341 1.363 . S
C340 C345 1.379 . S
C340 N347 1.356 . S
C341 C340 1.363 . S
C341 C344 1.363 . S
N342 C344 1.356 . S
N342 H354 0.984 . S
N342 H355 0.985 . S
N343 C345 1.356 . S
N343 H348 0.984 . S
N343 H349 0.985 . S
C344 C338 1.379 . S
C344 C341 1.363 . S
C344 N342 1.356 . S
C345 C339 1.363 . S
C345 C340 1.379 . S
C345 N343 1.356 . S
N346 C338 1.356 . S
N346 H352 0.984 . S
N346 H353 0.984 . S
N347 C340 1.356 . S
N347 H350 0.984 . S
N347 H351 0.985 . S
H348 N343 0.984 . S
H349 N343 0.985 . S
H350 N347 0.984 . S
H351 N347 0.985 . S
H352 N346 0.984 . S
H353 N346 0.984 . S
H354 N342 0.984 . S
H355 N342 0.985 . S
C356 C357 1.363 . S
C356 C362 1.379 . S
C356 N364 1.356 . S
C357 C356 1.363 . S
C357 C363 1.363 . S
C358 C359 1.363 . S
C358 C363 1.379 . S
C358 N365 1.356 . S
C359 C358 1.363 . S
C359 C362 1.363 . S
N360 C362 1.356 . S
N360 H372 0.984 . S
N360 H373 0.985 . S
N361 C363 1.356 . S
N361 H366 0.984 . S
N361 H367 0.985 . S
C362 C356 1.379 . S
C362 C359 1.363 . S
C362 N360 1.356 . S
C363 C357 1.363 . S
C363 C358 1.379 . S
C363 N361 1.356 . S
N364 C356 1.356 . S
N364 H370 0.984 . S
N364 H371 0.984 . S
N365 C358 1.356 . S
N365 H368 0.984 . S
N365 H369 0.985 . S
H366 N361 0.984 . S
H367 N361 0.985 . S
H368 N365 0.984 . S
H369 N365 0.985 . S
H370 N364 0.984 . S
H371 N364 0.984 . S
H372 N360 0.984 . S
H373 N360 0.985 . S
C374 C375 1.363 . S
C374 C380 1.379 . S
C374 N382 1.356 1_655 S
C375 C374 1.363 . S
C375 C381 1.363 . S
C376 C377 1.363 . S
C376 C381 1.379 . S
C376 N383 1.356 . S
C377 C376 1.363 . S
C377 C380 1.363 . S
N378 C380 1.356 1_455 S
N378 H390 0.984 . S
N378 H391 0.985 . S
N379 C381 1.356 . S
N379 H384 0.984 . S
N379 H385 0.985 . S
C380 C374 1.379 . S
C380 C377 1.363 . S
C380 N378 1.356 1_655 S
C381 C375 1.363 . S
C381 C376 1.379 . S
C381 N379 1.356 . S
N382 C374 1.356 1_455 S
N382 H388 0.984 . S
N382 H389 0.984 . S
N383 C376 1.356 . S
N383 H386 0.984 . S
N383 H387 0.985 . S
H384 N379 0.984 . S
H385 N379 0.985 . S
H386 N383 0.984 . S
H387 N383 0.985 . S
H388 N382 0.984 . S
H389 N382 0.984 . S
H390 N378 0.984 . S
H391 N378 0.985 . S
C392 C393 1.363 . S
C392 C398 1.379 . S
C392 N400 1.356 . S
C393 C392 1.363 . S
C393 C399 1.363 . S
C394 C395 1.363 . S
C394 C399 1.379 . S
C394 N401 1.356 . S
C395 C394 1.363 . S
C395 C398 1.363 . S
N396 C398 1.356 . S
N396 H408 0.984 . S
N396 H409 0.985 . S
N397 C399 1.356 . S
N397 H402 0.984 . S
N397 H403 0.985 . S
C398 C392 1.379 . S
C398 C395 1.363 . S
C398 N396 1.356 . S
C399 C393 1.363 . S
C399 C394 1.379 . S
C399 N397 1.356 . S
N400 C392 1.356 . S
N400 H406 0.984 . S
N400 H407 0.984 . S
N401 C394 1.356 . S
N401 H404 0.984 . S
N401 H405 0.985 . S
H402 N397 0.984 . S
H403 N397 0.985 . S
H404 N401 0.984 . S
H405 N401 0.985 . S
H406 N400 0.984 . S
H407 N400 0.984 . S
H408 N396 0.984 . S
H409 N396 0.985 . S
C410 C411 1.363 . S
C410 C416 1.379 . S
C410 N418 1.356 1_455 S
C411 C410 1.363 . S
C411 C417 1.363 . S
C412 C413 1.363 . S
C412 C417 1.379 . S
C412 N419 1.356 . S
C413 C412 1.363 . S
C413 C416 1.363 . S
N414 C416 1.356 1_655 S
N414 H426 0.984 . S
N414 H427 0.985 . S
N415 C417 1.356 . S
N415 H420 0.984 . S
N415 H421 0.985 . S
C416 C410 1.379 . S
C416 C413 1.363 . S
C416 N414 1.356 1_455 S
C417 C411 1.363 . S
C417 C412 1.379 . S
C417 N415 1.356 . S
N418 C410 1.356 1_655 S
N418 H424 0.984 . S
N418 H425 0.984 1_655 S
N419 C412 1.356 . S
N419 H422 0.984 . S
N419 H423 0.985 . S
H420 N415 0.984 . S
H421 N415 0.985 . S
H422 N419 0.984 . S
H423 N419 0.985 . S
H424 N418 0.984 . S
H425 N418 0.984 1_455 S
H426 N414 0.984 . S
H427 N414 0.985 . S
C215 C148 1.677 . S
C213 C133 1.660 . S
C231 C25 1.547 . S
C233 C191 1.593 . S
C249 C61 1.600 . S
C251 C157 1.677 . S
C267 C97 1.596 . S
C269 C182 1.593 . S
C287 C144 1.683 . S
C285 C1 1.616 . S
C305 C186 1.785 . S
C303 C67 1.675 . S
C321 C103 1.650 . S
C323 C152 1.665 . S
C339 C109 1.741 . S
C341 C178 1.779 . S
C359 C207 1.779 . S
C357 C37 1.685 . S
C377 C173 1.683 . S
C375 C73 1.662 . S
C395 C195 1.785 . S
C393 C139 1.748 . S
C411 C31 1.592 . S
C413 C161 1.665 . S
