# Generated by pormake.
# Topology apo, (3,6)-cn, num edge types: 1
# Building blocks:
#     Node 0, Type 0, BuildingBlock: VETTIZ_charged_linker_0, # of connection points: 3
#     Node 1, Type 0, BuildingBlock: VETTIZ_charged_linker_0, # of connection points: 3
#     Node 2, Type 0, BuildingBlock: VETTIZ_charged_linker_0, # of connection points: 3
#     Node 3, Type 0, BuildingBlock: VETTIZ_charged_linker_0, # of connection points: 3
#     Node 4, Type 0, BuildingBlock: VETTIZ_charged_linker_0, # of connection points: 3
#     Node 5, Type 0, BuildingBlock: VETTIZ_charged_linker_0, # of connection points: 3
#     Node 6, Type 0, BuildingBlock: VETTIZ_charged_linker_0, # of connection points: 3
#     Node 7, Type 0, BuildingBlock: VETTIZ_charged_linker_0, # of connection points: 3
#     Node 8, Type 1, BuildingBlock: KUMJIN_clean_sbu_1, # of connection points: 6
#     Node 9, Type 1, BuildingBlock: KUMJIN_clean_sbu_1, # of connection points: 6
#     Node 10, Type 1, BuildingBlock: KUMJIN_clean_sbu_1, # of connection points: 6
#     Node 11, Type 1, BuildingBlock: KUMJIN_clean_sbu_1, # of connection points: 6
#     Edge 12, Type (0, 1), BuildingBlock: AJUNOK_clean_linker_0, # of connection points: 2
#     Edge 13, Type (0, 1), BuildingBlock: AJUNOK_clean_linker_0, # of connection points: 2
#     Edge 14, Type (0, 1), BuildingBlock: AJUNOK_clean_linker_0, # of connection points: 2
#     Edge 15, Type (0, 1), BuildingBlock: AJUNOK_clean_linker_0, # of connection points: 2
#     Edge 16, Type (0, 1), BuildingBlock: AJUNOK_clean_linker_0, # of connection points: 2
#     Edge 17, Type (0, 1), BuildingBlock: AJUNOK_clean_linker_0, # of connection points: 2
#     Edge 18, Type (0, 1), BuildingBlock: AJUNOK_clean_linker_0, # of connection points: 2
#     Edge 19, Type (0, 1), BuildingBlock: AJUNOK_clean_linker_0, # of connection points: 2
#     Edge 20, Type (0, 1), BuildingBlock: AJUNOK_clean_linker_0, # of connection points: 2
#     Edge 21, Type (0, 1), BuildingBlock: AJUNOK_clean_linker_0, # of connection points: 2
#     Edge 22, Type (0, 1), BuildingBlock: AJUNOK_clean_linker_0, # of connection points: 2
#     Edge 23, Type (0, 1), BuildingBlock: AJUNOK_clean_linker_0, # of connection points: 2
#     Edge 24, Type (0, 1), BuildingBlock: AJUNOK_clean_linker_0, # of connection points: 2
#     Edge 25, Type (0, 1), BuildingBlock: AJUNOK_clean_linker_0, # of connection points: 2
#     Edge 26, Type (0, 1), BuildingBlock: AJUNOK_clean_linker_0, # of connection points: 2
#     Edge 27, Type (0, 1), BuildingBlock: AJUNOK_clean_linker_0, # of connection points: 2
#     Edge 28, Type (0, 1), BuildingBlock: AJUNOK_clean_linker_0, # of connection points: 2
#     Edge 29, Type (0, 1), BuildingBlock: AJUNOK_clean_linker_0, # of connection points: 2
#     Edge 30, Type (0, 1), BuildingBlock: AJUNOK_clean_linker_0, # of connection points: 2
#     Edge 31, Type (0, 1), BuildingBlock: AJUNOK_clean_linker_0, # of connection points: 2
#     Edge 32, Type (0, 1), BuildingBlock: AJUNOK_clean_linker_0, # of connection points: 2
#     Edge 33, Type (0, 1), BuildingBlock: AJUNOK_clean_linker_0, # of connection points: 2
#     Edge 34, Type (0, 1), BuildingBlock: AJUNOK_clean_linker_0, # of connection points: 2
#     Edge 35, Type (0, 1), BuildingBlock: AJUNOK_clean_linker_0, # of connection points: 2
# Relax obj value: 0.009
# Max RMSD: 0.110
# Mean RMSD: 0.086
data_MOF--net-apo--node1-KUMJIN_clean_sbu_1--node2-VETTIZ_charged_linker_0--edge1-AJUNOK_clean_linker_0
_symmetry_space_group_name_H-M    P1
_symmetry_Int_Tables_number       1
_symmetry_cell_setting            triclinic
loop_
_symmetry_equiv_pos_as_xyz
'x, y, z'
_cell_length_a     22.921062
_cell_length_b     40.55967
_cell_length_c     51.289787
_cell_angle_alpha  90.000356
_cell_angle_beta   89.834029
_cell_angle_gamma 90.273029
loop_
_atom_site_label
_atom_site_type_symbol
_atom_site_fract_x
_atom_site_fract_y
_atom_site_fract_z
_atom_type_partial_charge
C0 C 0.30975 0.36311 0.50348 0.0
C1 C 0.34479 0.3864 0.51658 0.0
C2 C 0.36394 0.41476 0.50324 0.0
C3 C 0.31564 0.39624 0.46404 0.0
C4 C 0.29612 0.36842 0.47706 0.0
C5 C 0.2614 0.34598 0.45934 0.0
H6 H 0.16704 0.31228 0.3363 0.0
C7 C 0.29522 0.39452 0.43687 0.0
C8 C 0.26333 0.36514 0.43377 0.0
H9 H 0.1407 0.253 0.40518 0.0
H10 H 0.18907 0.29476 0.43161 0.0
H11 H 0.12993 0.37855 0.36184 0.0
H12 H 0.29942 0.33647 0.34902 0.0
H13 H 0.30143 0.37803 0.33904 0.0
H14 H 0.25192 0.34989 0.32337 0.0
H15 H 0.16633 0.3821 0.33098 0.0
H16 H 0.17722 0.41207 0.35661 0.0
C17 C 0.19862 0.34309 0.47025 0.0
C18 C 0.29383 0.31272 0.45733 0.0
C19 C 0.35304 0.48579 0.37416 0.0
C20 C 0.34144 0.49127 0.34769 0.0
C21 C 0.30513 0.46918 0.33408 0.0
C22 C 0.28216 0.4412 0.34654 0.0
C23 C 0.29545 0.43545 0.37292 0.0
C24 C 0.3294 0.45793 0.38635 0.0
C25 C 0.3378 0.44838 0.41436 0.0
C26 C 0.30364 0.41626 0.41551 0.0
C27 C 0.27963 0.40861 0.39117 0.0
C28 C 0.30988 0.4755 0.43164 0.0
C29 C 0.40403 0.443 0.41886 0.0
C30 C 0.17185 0.30841 0.3571 0.0
C31 C 0.15087 0.27952 0.36881 0.0
C32 C 0.15689 0.27525 0.39591 0.0
C33 C 0.18514 0.29938 0.41109 0.0
C34 C 0.20726 0.328 0.39896 0.0
C35 C 0.19932 0.3323 0.37244 0.0
C36 C 0.22328 0.36455 0.36279 0.0
C37 C 0.24845 0.37867 0.38769 0.0
C38 C 0.23967 0.35711 0.40888 0.0
C39 C 0.17192 0.38548 0.35232 0.0
C40 C 0.27139 0.35712 0.34235 0.0
H41 H 0.36578 0.44193 0.46825 0.0
H42 H 0.29435 0.34115 0.51341 0.0
H43 H 0.34165 0.31687 0.45528 0.0
H44 H 0.28111 0.29815 0.44011 0.0
H45 H 0.28647 0.29755 0.47508 0.0
H46 H 0.18368 0.36719 0.47813 0.0
H47 H 0.19629 0.32476 0.48632 0.0
H48 H 0.16641 0.33641 0.45518 0.0
H49 H 0.38042 0.5027 0.38505 0.0
H50 H 0.2959 0.47314 0.31361 0.0
H51 H 0.25574 0.42488 0.33505 0.0
H52 H 0.27179 0.48692 0.42179 0.0
H53 H 0.34163 0.49552 0.43598 0.0
H54 H 0.29196 0.46578 0.45015 0.0
H55 H 0.42533 0.43282 0.40109 0.0
H56 H 0.41326 0.42473 0.43424 0.0
H57 H 0.42643 0.46655 0.42369 0.0
H58 H 0.39011 0.43321 0.51314 0.0
C59 C 0.34953 0.41983 0.47717 0.0
C60 C 0.32051 0.19822 0.85679 0.0
C61 C 0.34386 0.22596 0.86927 0.0
C62 C 0.34011 0.22843 0.89662 0.0
C63 C 0.28793 0.17608 0.89844 0.0
C64 C 0.29344 0.17361 0.87163 0.0
C65 C 0.26775 0.14232 0.86107 0.0
H66 H 0.12203 0.99941 0.88046 0.0
C67 C 0.25609 0.14633 0.90775 0.0
C68 C 0.24503 0.12641 0.88582 0.0
H69 H 0.18709 0.0394 0.80798 0.0
H70 H 0.22771 0.08633 0.83081 0.0
H71 H 0.23656 0.01835 0.91609 0.0
H72 H 0.07201 0.06454 0.90101 0.0
H73 H 0.08865 0.07436 0.93341 0.0
H74 H 0.07893 0.03172 0.92419 0.0
H75 H 0.16837 0.00316 0.92862 0.0
H76 H 0.21068 0.03359 0.94602 0.0
C77 C 0.31763 0.12205 0.84842 0.0
C78 C 0.2176 0.15159 0.84223 0.0
C79 C 0.19422 0.1338 1.0033 0.0
C80 C 0.16117 0.10938 0.0163 0.0
C81 C 0.14212 0.08153 1.00226 0.0
C82 C 0.15491 0.078 0.97578 0.0
C83 C 0.18693 0.10267 0.96286 0.0
C84 C 0.20631 0.13 0.97651 0.0
C85 C 0.23919 0.15373 0.95904 0.0
C86 C 0.23535 0.13626 0.93277 0.0
C87 C 0.20481 0.10628 0.93533 0.0
C88 C 0.30281 0.15622 0.96884 0.0
C89 C 0.20636 0.18694 0.95897 0.0
C90 C 0.14591 0.01815 0.86973 0.0
C91 C 0.1523 0.0159 0.84259 0.0
C92 C 0.18238 0.04081 0.82898 0.0
C93 C 0.20564 0.068 0.84229 0.0
C94 C 0.19815 0.0704 0.86947 0.0
C95 C 0.16893 0.04565 0.88274 0.0
C96 C 0.16341 0.05294 0.9114 0.0
C97 C 0.19483 0.08595 0.9132 0.0
C98 C 0.21494 0.09599 0.88862 0.0
C99 C 0.19597 0.02559 0.92653 0.0
C100 C 0.09752 0.05586 0.9181 0.0
H101 H 0.30989 0.20689 0.93205 0.0
H102 H 0.32345 0.19569 0.83578 0.0
H103 H 0.19355 0.17354 0.84949 0.0
H104 H 0.18405 0.13211 0.84047 0.0
H105 H 0.23472 0.15762 0.82251 0.0
H106 H 0.35988 0.12655 0.85848 0.0
H107 H 0.32366 0.12871 0.82758 0.0
H108 H 0.31065 0.09514 0.85001 0.0
H109 H 0.20923 0.15554 0.01359 0.0
H110 H 0.11727 0.06226 1.01191 0.0
H111 H 0.13892 0.05618 0.96636 0.0
H112 H 0.31848 0.13182 0.97574 0.0
H113 H 0.30641 0.17382 0.98536 0.0
H114 H 0.33375 0.16361 0.95335 0.0
H115 H 0.15854 0.18274 0.95712 0.0
H116 H 0.21858 0.20292 0.94245 0.0
H117 H 0.21409 0.20068 0.97739 0.0
H118 H 0.3581 0.24976 0.9065 0.0
C119 C 0.31203 0.20363 0.91131 0.0
C120 C 0.81205 0.15946 0.52696 0.0
C121 C 0.83966 0.13732 0.50982 0.0
C122 C 0.85809 0.10656 0.51954 0.0
C123 C 0.82066 0.12028 0.56255 0.0
C124 C 0.80311 0.15054 0.55306 0.0
C125 C 0.77348 0.17113 0.57357 0.0
H126 H 0.6623 0.18265 0.69584 0.0
C127 C 0.80171 0.11796 0.59014 0.0
C128 C 0.77349 0.14764 0.59659 0.0
H129 H 0.67317 0.25965 0.63774 0.0
H130 H 0.71912 0.22179 0.60761 0.0
H131 H 0.62684 0.12546 0.6608 0.0
H132 H 0.79547 0.15841 0.68619 0.0
H133 H 0.79377 0.11538 0.68963 0.0
H134 H 0.74193 0.13994 0.70728 0.0
H135 H 0.65554 0.1137 0.6919 0.0
H136 H 0.66883 0.08949 0.6629 0.0
C137 C 0.71083 0.17888 0.56428 0.0
C138 C 0.81172 0.20207 0.57868 0.0
C139 C 0.85192 0.01778 0.64604 0.0
C140 C 0.83593 0.00899 0.67172 0.0
C141 C 0.79395 0.02807 0.6849 0.0
C142 C 0.77154 0.05664 0.67373 0.0
C143 C 0.79091 0.06644 0.64896 0.0
C144 C 0.82821 0.04646 0.63494 0.0
C145 C 0.83894 0.05981 0.60783 0.0
C146 C 0.80577 0.09227 0.60895 0.0
C147 C 0.77872 0.09605 0.63333 0.0
C148 C 0.81183 0.0354 0.58796 0.0
C149 C 0.90522 0.06546 0.60416 0.0
C150 C 0.67551 0.19167 0.67685 0.0
C151 C 0.66481 0.2244 0.6694 0.0
C152 C 0.68091 0.23456 0.64403 0.0
C153 C 0.7079 0.2126 0.6266 0.0
C154 C 0.7193 0.18011 0.63462 0.0
C155 C 0.70344 0.17033 0.65947 0.0
C156 C 0.72143 0.13564 0.66537 0.0
C157 C 0.75066 0.12601 0.63992 0.0
C158 C 0.7488 0.15192 0.62183 0.0
C159 C 0.66559 0.11487 0.67072 0.0
C160 C 0.76517 0.13706 0.68839 0.0
H161 H 0.86409 0.07429 0.55208 0.0
H162 H 0.79618 0.18299 0.52004 0.0
H163 H 0.85878 0.19671 0.57548 0.0
H164 H 0.80914 0.21066 0.59909 0.0
H165 H 0.79973 0.2226 0.56543 0.0
H166 H 0.69009 0.15652 0.55574 0.0
H167 H 0.71123 0.19841 0.5491 0.0
H168 H 0.68169 0.18668 0.58025 0.0
H169 H 0.88355 0.00348 0.63524 0.0
H170 H 0.77944 0.0213 0.70431 0.0
H171 H 0.74096 0.0704 0.68515 0.0
H172 H 0.77451 0.02155 0.59664 0.0
H173 H 0.84436 0.01702 0.58127 0.0
H174 H 0.7931 0.04802 0.57083 0.0
H175 H 0.92382 0.07828 0.62144 0.0
H176 H 0.91559 0.08118 0.5872 0.0
H177 H 0.92838 0.04164 0.60183 0.0
H178 H 0.87953 0.0891 0.50676 0.0
C179 C 0.84896 0.09798 0.5458 0.0
C180 C 0.83311 0.31221 0.17496 0.0
C181 C 0.84304 0.27942 0.16745 0.0
C182 C 0.82662 0.26943 0.14211 0.0
C183 C 0.78808 0.32396 0.1332 0.0
C184 C 0.80454 0.33358 0.15795 0.0
C185 C 0.78487 0.36778 0.16451 0.0
H186 H 0.61523 0.49775 0.13747 0.0
C187 C 0.7568 0.35191 0.12106 0.0
C188 C 0.75395 0.37732 0.13956 0.0
H189 H 0.71902 0.47925 0.20627 0.0
H190 H 0.75965 0.43117 0.18621 0.0
H191 H 0.72627 0.48109 0.09801 0.0
H192 H 0.57753 0.4237 0.12313 0.0
H193 H 0.58589 0.42017 0.08898 0.0
H194 H 0.57175 0.45991 0.10312 0.0
H195 H 0.6552 0.48719 0.08434 0.0
H196 H 0.70448 0.45648 0.07161 0.0
C197 C 0.83984 0.3894 0.16928 0.0
C198 C 0.7424 0.36525 0.18811 0.0
C199 C 0.69431 0.34637 0.02619 0.0
C200 C 0.66526 0.36851 1.0096 0.0
C201 C 0.64352 0.39813 0.0202 0.0
C202 C 0.65226 0.40601 0.04659 0.0
C203 C 0.68285 0.384 0.06268 0.0
C204 C 0.7026 0.35453 0.05247 0.0
C205 C 0.73304 0.33374 0.07254 0.0
C206 C 0.73153 0.35644 0.09604 0.0
C207 C 0.70158 0.38577 0.09026 0.0
C208 C 0.79616 0.32731 0.06313 0.0
C209 C 0.69642 0.30199 0.07702 0.0
C210 C 0.64737 0.48359 0.14802 0.0
C211 C 0.66284 0.49191 0.17382 0.0
C212 C 0.7051 0.47288 0.18673 0.0
C213 C 0.72883 0.44495 0.175 0.0
C214 C 0.71044 0.43578 0.14996 0.0
C215 C 0.67231 0.45561 0.13638 0.0
C216 C 0.66185 0.44283 0.10911 0.0
C217 C 0.6964 0.41084 0.10954 0.0
C218 C 0.72394 0.40686 0.13371 0.0
C219 C 0.68778 0.46814 0.08959 0.0
C220 C 0.59575 0.4364 0.10567 0.0
H221 H 0.7877 0.28249 0.10598 0.0
H222 H 0.84658 0.32116 0.19391 0.0
H223 H 0.71666 0.34193 0.18743 0.0
H224 H 0.70913 0.3848 0.18846 0.0
H225 H 0.76652 0.36557 0.20685 0.0
H226 H 0.87721 0.38099 0.15713 0.0
H227 H 0.85371 0.38833 0.18999 0.0
H228 H 0.83346 0.41544 0.16359 0.0
H229 H 0.71145 0.32337 0.01875 0.0
H230 H 0.61955 0.4152 1.00809 0.0
H231 H 0.63481 0.42892 0.05349 0.0
H232 H 0.81649 0.35051 0.05582 0.0
H233 H 0.79675 0.30905 0.04698 0.0
H234 H 0.82492 0.31834 0.07877 0.0
H235 H 0.64936 0.30624 0.073 0.0
H236 H 0.69757 0.29353 0.09751 0.0
H237 H 0.71115 0.2817 0.06407 0.0
H238 H 0.8338 0.24431 0.13575 0.0
C239 C 0.79946 0.29155 0.12492 0.0
C240 C 0.67039 0.52768 0.67659 0.0
C241 C 0.63725 0.50134 0.6667 0.0
C242 C 0.62526 0.50025 0.63976 0.0
C243 C 0.67586 0.5525 0.63352 0.0
C244 C 0.68855 0.55295 0.65986 0.0
C245 C 0.72048 0.58365 0.66794 0.0
H246 H 0.84147 0.73092 0.63705 0.0
C247 C 0.69965 0.58327 0.62188 0.0
C248 C 0.7258 0.6015 0.64207 0.0
H249 H 0.82389 0.68603 0.71299 0.0
H250 H 0.77733 0.63834 0.69387 0.0
H251 H 0.87741 0.6654 0.60581 0.0
H252 H 0.71174 0.71215 0.61844 0.0
H253 H 0.71381 0.69949 0.58572 0.0
H254 H 0.76679 0.729 0.59727 0.0
H255 H 0.85637 0.70184 0.58846 0.0
H256 H 0.83808 0.66112 0.57668 0.0
C257 C 0.78084 0.5734 0.67869 0.0
C258 C 0.68155 0.60265 0.68764 0.0
C259 C 0.67542 0.60762 0.52478 0.0
C260 C 0.69503 0.63378 0.50885 0.0
C261 C 0.72795 0.65942 0.52029 0.0
C262 C 0.74075 0.65932 0.54693 0.0
C263 C 0.7207 0.63325 0.56259 0.0
C264 C 0.68911 0.60776 0.55151 0.0
C265 C 0.6732 0.58166 0.57129 0.0
C266 C 0.69986 0.59599 0.596 0.0
C267 C 0.72722 0.62638 0.59072 0.0
C268 C 0.70287 0.54904 0.56312 0.0
C269 C 0.60588 0.57955 0.57307 0.0
C270 C 0.82781 0.71058 0.64936 0.0
C271 C 0.83636 0.71181 0.67644 0.0
C272 C 0.81759 0.68531 0.69206 0.0
C273 C 0.79053 0.65774 0.6809 0.0
C274 C 0.78143 0.65682 0.65381 0.0
C275 C 0.79979 0.68297 0.63851 0.0
C276 C 0.78428 0.67809 0.61026 0.0
C277 C 0.7536 0.64475 0.61119 0.0
C278 C 0.7525 0.63241 0.63672 0.0
C279 C 0.84171 0.67675 0.59426 0.0
C280 C 0.74228 0.70614 0.60223 0.0
H281 H 0.63306 0.5238 0.60287 0.0
H282 H 0.68106 0.52898 0.69713 0.0
H283 H 0.63442 0.59736 0.68445 0.0
H284 H 0.68528 0.62971 0.68554 0.0
H285 H 0.69182 0.59569 0.70806 0.0
H286 H 0.79974 0.55311 0.66681 0.0
H287 H 0.77716 0.56449 0.69912 0.0
H288 H 0.81352 0.59345 0.67788 0.0
H289 H 0.6496 0.58766 0.51675 0.0
H290 H 0.74456 0.67956 0.5085 0.0
H291 H 0.76599 0.6796 0.55427 0.0
H292 H 0.7471 0.55387 0.55493 0.0
H293 H 0.677 0.53605 0.54795 0.0
H294 H 0.71004 0.53217 0.57966 0.0
H295 H 0.58636 0.60459 0.57224 0.0
H296 H 0.59032 0.56882 0.5916 0.0
H297 H 0.5877 0.56495 0.55664 0.0
H298 H 0.59962 0.48018 0.63174 0.0
C299 C 0.64438 0.52569 0.62311 0.0
C300 C 0.68853 0.8059 0.1756 0.0
C301 C 0.66956 0.77614 0.16455 0.0
C302 C 0.68036 0.77009 0.13791 0.0
C303 C 0.7287 0.8233 0.13386 0.0
C304 C 0.71828 0.82884 0.16007 0.0
C305 C 0.74374 0.8609 0.16933 0.0
H306 H 0.89181 0.00187 0.14445 0.0
C307 C 0.76145 0.85211 0.1235 0.0
C308 C 0.77068 0.874 0.14433 0.0
H309 H 0.82619 0.96617 0.21828 0.0
H310 H 0.78724 0.91761 0.19732 0.0
H311 H 0.943 0.93365 0.12597 0.0
H312 H 0.77773 0.97895 0.10927 0.0
H313 H 0.80511 0.96232 0.08006 0.0
H314 H 0.84562 0.99429 0.09651 0.0
H315 H 0.93661 0.96738 0.10353 0.0
H316 H 0.92691 0.92516 0.0932 0.0
C317 C 0.79052 0.85323 0.19029 0.0
C318 C 0.6929 0.88286 0.17897 0.0
C319 C 0.81047 0.86032 0.02661 0.0
C320 C 0.8391 0.88459 1.01158 0.0
C321 C 0.86284 0.91238 0.0243 0.0
C322 C 0.85731 0.91632 0.05134 0.0
C323 C 0.8275 0.8923 0.06602 0.0
C324 C 0.80542 0.86459 0.05372 0.0
C325 C 0.77559 0.84152 0.07264 0.0
C326 C 0.78219 0.86036 0.09812 0.0
C327 C 0.81248 0.89018 0.09407 0.0
C328 C 0.80961 0.80863 0.07296 0.0
C329 C 0.71088 0.83801 0.06452 0.0
C330 C 0.8684 0.98362 0.15588 0.0
C331 C 0.86139 0.98768 0.18293 0.0
C332 C 0.83179 0.96336 0.19741 0.0
C333 C 0.80938 0.9352 0.18518 0.0
C334 C 0.8172 0.93109 0.15817 0.0
C335 C 0.84636 0.95502 0.14395 0.0
C336 C 0.85214 0.94573 0.11561 0.0
C337 C 0.82183 0.91226 0.11524 0.0
C338 C 0.80115 0.90407 0.14019 0.0
C339 C 0.91795 0.943 0.10897 0.0
C340 C 0.81888 0.97165 0.0993 0.0
H341 H 0.71646 0.78768 0.10229 0.0
H342 H 0.68142 0.81091 0.19612 0.0
H343 H 0.65437 0.88029 0.16596 0.0
H344 H 0.70359 0.90941 0.17879 0.0
H345 H 0.67895 0.87573 0.19896 0.0
H346 H 0.80985 0.82838 0.18737 0.0
H347 H 0.77152 0.8538 0.21024 0.0
H348 H 0.82828 0.87029 0.1894 0.0
H349 H 0.79166 0.83873 0.0174 0.0
H350 H 0.88386 0.9318 1.01317 0.0
H351 H 0.8756 0.93828 0.0597 0.0
H352 H 0.85714 0.81298 0.07002 0.0
H353 H 0.79447 0.79189 0.0572 0.0
H354 H 0.80639 0.79568 0.09186 0.0
H355 H 0.69278 0.86236 0.05882 0.0
H356 H 0.68254 0.82903 0.08044 0.0
H357 H 0.70626 0.82114 0.04758 0.0
H358 H 0.66576 0.74726 0.12906 0.0
C359 C 0.70965 0.79358 0.12247 0.0
C360 C 0.16711 0.96882 0.35283 0.0
C361 C 0.1357 0.9953 0.3633 0.0
C362 C 0.11892 0.99398 0.38984 0.0
C363 C 0.16467 0.94033 0.39449 0.0
C364 C 0.18011 0.94169 0.36845 0.0
C365 C 0.20887 0.91081 0.35914 0.0
H366 H 0.32897 0.7633 0.38384 0.0
C367 C 0.18475 0.90816 0.4049 0.0
C368 C 0.21032 0.89089 0.38408 0.0
H369 H 0.30585 0.81233 0.3096 0.0
H370 H 0.2573 0.85689 0.33079 0.0
H371 H 0.35649 0.8282 0.41895 0.0
H372 H 0.1967 0.77627 0.40225 0.0
H373 H 0.19228 0.78937 0.43478 0.0
H374 H 0.24872 0.76086 0.42523 0.0
H375 H 0.34065 0.78766 0.43122 0.0
H376 H 0.31684 0.82408 0.44823 0.0
C377 C 0.27099 0.92002 0.34943 0.0
C378 C 0.16892 0.89469 0.3382 0.0
C379 C 0.15836 0.87851 0.50111 0.0
C380 C 0.17386 0.85048 0.51574 0.0
C381 C 0.20389 0.82467 0.50318 0.0
C382 C 0.21784 0.82639 0.47663 0.0
C383 C 0.2016 0.85422 0.46218 0.0
C384 C 0.17257 0.87982 0.47439 0.0
C385 C 0.15855 0.90728 0.45559 0.0
C386 C 0.18364 0.89379 0.43025 0.0
C387 C 0.20883 0.86261 0.4343 0.0
C388 C 0.19099 0.93873 0.46468 0.0
C389 C 0.09146 0.91099 0.45429 0.0
C390 C 0.31257 0.78337 0.3721 0.0
C391 C 0.32217 0.78428 0.34489 0.0
C392 C 0.30045 0.81119 0.33057 0.0
C393 C 0.27156 0.83706 0.34293 0.0
C394 C 0.26308 0.83612 0.37002 0.0
C395 C 0.28223 0.80933 0.38415 0.0
C396 C 0.26579 0.81209 0.4126 0.0
C397 C 0.23469 0.84524 0.41309 0.0
C398 C 0.23435 0.85921 0.38812 0.0
C399 C 0.32265 0.81285 0.4288 0.0
C400 C 0.22402 0.78313 0.41933 0.0
H401 H 0.11952 0.9671 0.42549 0.0
H402 H 0.18074 0.96883 0.33258 0.0
H403 H 0.12283 0.9029 0.34009 0.0
H404 H 0.16645 0.86752 0.34015 0.0
H405 H 0.18366 0.90106 0.31816 0.0
H406 H 0.29165 0.93836 0.36268 0.0
H407 H 0.26949 0.93106 0.32962 0.0
H408 H 0.3012 0.89893 0.34907 0.0
H409 H 0.13487 0.89864 0.51013 0.0
H410 H 0.21703 0.80304 0.51404 0.0
H411 H 0.24074 0.80588 0.46837 0.0
H412 H 0.23638 0.93277 0.47062 0.0
H413 H 0.16864 0.95002 0.48171 0.0
H414 H 0.19528 0.95745 0.4492 0.0
H415 H 0.06955 0.8865 0.45551 0.0
H416 H 0.07656 0.92169 0.43569 0.0
H417 H 0.07501 0.92631 0.47066 0.0
H418 H 0.09312 0.01352 0.39834 0.0
C419 C 0.13367 0.96677 0.40553 0.0
C420 C 0.17101 0.69683 0.85101 0.0
C421 C 0.15227 0.72726 0.86107 0.0
C422 C 0.15922 0.73337 0.88801 0.0
C423 C 0.20608 0.6803 0.89365 0.0
C424 C 0.19676 0.67373 0.86757 0.0
C425 C 0.21522 0.63954 0.86005 0.0
H426 H 0.38102 0.50731 0.88444 0.0
C427 C 0.23614 0.65152 0.9051 0.0
C428 C 0.24114 0.62749 0.88555 0.0
H429 H 0.2659 0.52405 0.81907 0.0
H430 H 0.2294 0.57298 0.8395 0.0
H431 H 0.41833 0.5823 0.898 0.0
H432 H 0.27572 0.52212 0.92573 0.0
H433 H 0.2982 0.54684 0.95194 0.0
H434 H 0.34836 0.5174 0.93806 0.0
H435 H 0.42804 0.54643 0.91804 0.0
H436 H 0.41335 0.58613 0.93219 0.0
C437 C 0.26169 0.64239 0.83819 0.0
C438 C 0.15997 0.61958 0.85216 0.0
C439 C 0.31177 0.6567 0.99813 0.0
C440 C 0.34678 0.63552 1.013 0.0
C441 C 0.36725 0.6061 1.00168 0.0
C442 C 0.3524 0.59766 0.976 0.0
C443 C 0.31717 0.61904 0.96137 0.0
C444 C 0.29773 0.64809 0.97244 0.0
C445 C 0.26248 0.66837 0.95371 0.0
C446 C 0.26232 0.64624 0.92984 0.0
C447 C 0.29452 0.61737 0.93443 0.0
C448 C 0.29584 0.7011 0.94883 0.0
C449 C 0.20041 0.67273 0.96517 0.0
C450 C 0.34779 0.52148 0.87458 0.0
C451 C 0.32918 0.51292 0.84927 0.0
C452 C 0.28392 0.53123 0.83773 0.0
C453 C 0.26217 0.55952 0.84973 0.0
C454 C 0.2845 0.56929 0.87393 0.0
C455 C 0.32405 0.54948 0.88669 0.0
C456 C 0.33649 0.5619 0.91384 0.0
C457 C 0.30009 0.59323 0.9145 0.0
C458 C 0.27142 0.59778 0.89067 0.0
C459 C 0.40255 0.56949 0.91587 0.0
C460 C 0.31406 0.53579 0.93357 0.0
H461 H 0.19059 0.71639 0.92451 0.0
H462 H 0.16575 0.69095 0.83056 0.0
H463 H 0.11892 0.63192 0.85832 0.0
H464 H 0.15832 0.59507 0.86176 0.0
H465 H 0.15758 0.61618 0.8307 0.0
H466 H 0.2966 0.66011 0.8439 0.0
H467 H 0.24181 0.65135 0.8198 0.0
H468 H 0.2835 0.61887 0.83388 0.0
H469 H 0.2965 0.67982 1.00617 0.0
H470 H 0.39451 0.58953 1.01281 0.0
H471 H 0.36926 0.57494 0.96846 0.0
H472 H 0.34364 0.69669 0.94748 0.0
H473 H 0.28835 0.71883 0.965 0.0
H474 H 0.28429 0.71304 0.93027 0.0
H475 H 0.18614 0.65012 0.97575 0.0
H476 H 0.16701 0.67653 0.94999 0.0
H477 H 0.19901 0.6936 0.97917 0.0
H478 H 0.14285 0.75582 0.8967 0.0
C479 C 0.18638 0.71021 0.90426 0.0
Eu480 Eu 0.0783 0.14156 0.2423 0.0
C481 C 0.83402 0.09335 0.27002 0.0
N482 N 0.84925 0.12574 0.26857 0.0
C483 C 0.76581 0.13686 0.24201 0.0
C484 C 0.78474 0.08123 0.25664 0.0
C485 C 0.81561 0.14764 0.25525 0.0
C486 C 0.75055 0.10346 0.24252 0.0
C487 C 0.85369 0.03858 0.28661 0.0
C488 C 0.86873 0.07225 0.28451 0.0
C489 C 0.80572 0.02617 0.27265 0.0
C490 C 0.77135 0.04744 0.25769 0.0
Eu491 Eu 0.93623 0.14155 0.28984 0.0
N492 N 0.91557 0.08487 0.29745 0.0
C493 C 0.88616 0.01862 0.30336 0.0
C494 C 0.94266 0.06638 0.31602 0.0
C495 C 0.92982 0.0328 0.31866 0.0
H496 H 0.82773 0.17331 0.25463 0.0
H497 H 0.95289 0.01805 0.33284 0.0
H498 H 0.17031 0.08221 0.26128 0.0
H499 H 0.10994 0.27496 0.23582 0.0
H500 H 0.97325 0.07749 0.32933 0.0
H501 H 0.87602 0.99264 0.30555 0.0
H502 H 0.0545 0.22291 0.23342 0.0
H503 H 0.73955 0.15424 0.23123 0.0
H504 H 0.79409 1.00028 0.27373 0.0
H505 H 0.73407 0.03759 0.24729 0.0
H506 H 0.27294 0.0774 0.27545 0.0
H507 H 0.71232 0.09512 0.232 0.0
H508 H 0.21404 0.2744 0.24837 0.0
N509 N 0.1748 0.1342 0.25647 0.0
C510 C 0.20834 0.16189 0.25757 0.0
C511 C 0.25525 0.1013 0.27054 0.0
C512 C 0.26722 0.16024 0.26531 0.0
C513 C 0.1971 0.10412 0.26273 0.0
C514 C 0.29051 0.12945 0.2718 0.0
N515 N 0.12565 0.19318 0.24535 0.0
C516 C 0.09949 0.2223 0.23927 0.0
C517 C 0.2168 0.22136 0.25302 0.0
C518 C 0.18334 0.19215 0.25153 0.0
C519 C 0.18984 0.25142 0.2474 0.0
C520 C 0.131 0.25186 0.24042 0.0
H521 H 0.33556 0.12717 0.27785 0.0
H522 H 0.34613 0.18845 0.2724 0.0
H523 H 0.30204 0.2419 0.26165 0.0
O524 O 0.0731 0.15266 0.20072 0.0
O525 O 0.08899 0.16865 0.28092 0.0
O526 O 0.99623 0.186 0.29017 0.0
O527 O 0.13552 0.1169 0.21428 0.0
O528 O 0.99764 0.16895 0.22837 0.0
O529 O 0.94195 0.18636 0.26364 0.0
O530 O 0.92362 0.1422 0.33244 0.0
O531 O 0.93079 0.12091 0.2485 0.0
O532 O 0.01977 0.09671 0.24379 0.0
O533 O 0.865 0.16987 0.30717 0.0
O534 O 0.02232 0.12117 0.30503 0.0
O535 O 0.06501 0.09756 0.26886 0.0
C536 C 0.05233 0.18609 0.295 0.0
C537 C 0.09593 0.10924 0.17218 0.0
C538 C 0.09581 0.09751 0.12541 0.0
C539 C 0.06141 0.06931 0.13033 0.0
C540 C 0.06201 0.08091 0.17658 0.0
C541 C 0.0447 0.06114 0.15572 0.0
C542 C 0.11278 0.11751 0.14657 0.0
C543 C 0.95717 0.18787 0.23884 0.0
C544 C 0.11204 0.13091 0.19403 0.0
C545 C 0.30078 0.18926 0.26655 0.0
C546 C 0.27567 0.21971 0.2604 0.0
C547 C 0.96386 0.09763 0.23885 0.0
C548 C 0.84603 0.17362 0.35386 0.0
C549 C 0.82963 0.17554 0.40098 0.0
C550 C 0.78785 0.20027 0.39722 0.0
C551 C 0.80371 0.19823 0.35063 0.0
C552 C 0.85849 0.16204 0.3792 0.0
C553 C 0.77484 0.21138 0.37219 0.0
C554 C 0.05826 0.09986 0.29428 0.0
C555 C 0.87899 0.16179 0.33087 0.0
H556 H 0.04792 0.05335 0.1145 0.0
H557 H 0.04886 0.07414 0.19612 0.0
H558 H 0.01831 0.03937 0.15926 0.0
H559 H 0.13817 0.13971 0.14313 0.0
H560 H 0.76497 0.21085 0.41371 0.0
H561 H 0.79346 0.20773 0.33145 0.0
H562 H 0.89117 0.14317 0.38206 0.0
H563 H 0.74251 0.23044 0.36951 0.0
Eu564 Eu 0.42106 0.36011 0.74163 0.0
C565 C 0.66156 0.41337 0.77036 0.0
N566 N 0.64821 0.38072 0.76903 0.0
C567 C 0.73287 0.37094 0.74266 0.0
C568 C 0.71039 0.42629 0.75699 0.0
C569 C 0.68372 0.3593 0.75605 0.0
C570 C 0.74594 0.40463 0.74289 0.0
C571 C 0.63958 0.46765 0.78736 0.0
C572 C 0.62581 0.43383 0.78497 0.0
C573 C 0.68701 0.48087 0.77338 0.0
C574 C 0.72227 0.46025 0.75819 0.0
Eu575 Eu 0.5611 0.36351 0.78989 0.0
N576 N 0.57957 0.42042 0.79796 0.0
C577 C 0.60633 0.48698 0.80435 0.0
C578 C 0.55174 0.43837 0.81674 0.0
C579 C 0.56316 0.47208 0.81959 0.0
H580 H 0.67314 0.33338 0.75557 0.0
H581 H 0.53936 0.48637 0.83388 0.0
H582 H 0.32651 0.41894 0.75909 0.0
H583 H 0.39556 0.22592 0.73996 0.0
H584 H 0.52133 0.42679 0.82997 0.0
H585 H 0.61541 0.51305 0.8067 0.0
H586 H 0.44859 0.27846 0.73545 0.0
H587 H 0.76041 0.35398 0.73203 0.0
H588 H 0.69758 0.50689 0.77465 0.0
H589 H 0.75921 0.47071 0.74782 0.0
H590 H 0.22381 0.42304 0.77355 0.0
H591 H 0.78387 0.41361 0.73237 0.0
H592 H 0.29151 0.22571 0.75284 0.0
N593 N 0.32439 0.36675 0.756 0.0
C594 C 0.29207 0.33867 0.75801 0.0
C595 C 0.24253 0.39917 0.76933 0.0
C596 C 0.23317 0.33988 0.76594 0.0
C597 C 0.30076 0.39678 0.76141 0.0
C598 C 0.20854 0.37061 0.77158 0.0
N599 N 0.3762 0.30793 0.74651 0.0
C600 C 0.40364 0.27885 0.74144 0.0
C601 C 0.28636 0.2789 0.75556 0.0
C602 C 0.31848 0.30847 0.75288 0.0
C603 C 0.31466 0.24895 0.75094 0.0
C604 C 0.37347 0.24896 0.74379 0.0
H605 H 0.16343 0.37256 0.77773 0.0
H606 H 0.15562 0.31094 0.7743 0.0
H607 H 0.20214 0.25763 0.76523 0.0
O608 O 0.42361 0.34676 0.70042 0.0
O609 O 0.40853 0.33713 0.7818 0.0
O610 O 0.50057 0.31933 0.79086 0.0
O611 O 0.36368 0.3842 0.71359 0.0
O612 O 0.50195 0.33233 0.72871 0.0
O613 O 0.55846 0.31777 0.76442 0.0
O614 O 0.57226 0.36224 0.8327 0.0
O615 O 0.57062 0.38116 0.74781 0.0
O616 O 0.48156 0.40438 0.74082 0.0
O617 O 0.63247 0.33584 0.80726 0.0
O618 O 0.47431 0.38612 0.80323 0.0
O619 O 0.435 0.40626 0.76523 0.0
C620 C 0.44472 0.31996 0.79619 0.0
C621 C 0.40405 0.39003 0.67147 0.0
C622 C 0.40947 0.39933 0.62458 0.0
C623 C 0.44355 0.42769 0.62912 0.0
C624 C 0.43777 0.41852 0.67562 0.0
C625 C 0.45753 0.43718 0.65451 0.0
C626 C 0.38957 0.38063 0.64593 0.0
C627 C 0.54365 0.31488 0.73966 0.0
C628 C 0.38616 0.36918 0.69353 0.0
C629 C 0.20096 0.31047 0.76828 0.0
C630 C 0.22746 0.2801 0.7631 0.0
C631 C 0.53755 0.40265 0.73597 0.0
C632 C 0.65052 0.33082 0.85372 0.0
C633 C 0.66958 0.32927 0.90062 0.0
C634 C 0.70931 0.30352 0.8965 0.0
C635 C 0.6909 0.30524 0.85016 0.0
C636 C 0.64019 0.34298 0.8791 0.0
C637 C 0.72002 0.29173 0.87142 0.0
C638 C 0.44034 0.40696 0.79072 0.0
C639 C 0.61756 0.34316 0.831 0.0
H640 H 0.45871 0.44278 0.61301 0.0
H641 H 0.44883 0.42632 0.69515 0.0
H642 H 0.48366 0.45908 0.65784 0.0
H643 H 0.3637 0.35857 0.64266 0.0
H644 H 0.73257 0.29272 0.91273 0.0
H645 H 0.69943 0.29525 0.83094 0.0
H646 H 0.60892 0.36256 0.88218 0.0
H647 H 0.75083 0.27193 0.86847 0.0
Eu648 Eu 0.06023 0.85915 0.7385 0.0
C649 C 0.79635 0.83462 0.77319 0.0
N650 N 0.82579 0.86341 0.76944 0.0
C651 C 0.74358 0.88653 0.74743 0.0
C652 C 0.73899 0.83062 0.76377 0.0
C653 C 0.80046 0.88932 0.75695 0.0
C654 C 0.71269 0.85706 0.75084 0.0
C655 C 0.79564 0.77805 0.78873 0.0
C656 C 0.82475 0.8085 0.78536 0.0
C657 C 0.73843 0.77408 0.77947 0.0
C658 C 0.7102 0.80027 0.76706 0.0
Eu659 Eu 0.91997 0.86622 0.78729 0.0
N660 N 0.88068 0.81277 0.79373 0.0
C661 C 0.8247 0.75252 0.80154 0.0
C662 C 0.90746 0.78868 0.80779 0.0
C663 C 0.88056 0.75802 0.8114 0.0
H664 H 0.82376 0.91236 0.75476 0.0
H665 H 0.9025 0.73886 0.82225 0.0
H666 H 0.15746 0.8132 0.7704 0.0
H667 H 0.0734 0.98861 0.70786 0.0
H668 H 0.9485 0.79317 0.81717 0.0
H669 H 0.80384 0.72878 0.80451 0.0
H670 H 0.03281 0.93254 0.70861 0.0
H671 H 0.72353 0.90713 0.73754 0.0
H672 H 0.71556 0.75083 0.78186 0.0
H673 H 0.66616 0.79673 0.75992 0.0
H674 H 0.25294 0.82028 0.79207 0.0
H675 H 0.6687 0.85493 0.74333 0.0
H676 H 0.16599 1.00079 0.73062 0.0
N677 N 0.1525 0.8632 0.75839 0.0
C678 C 0.17927 0.89318 0.75733 0.0
C679 C 0.23263 0.84098 0.78243 0.0
C680 C 0.23363 0.89835 0.76949 0.0
C681 C 0.17847 0.83709 0.77032 0.0
C682 C 0.26024 0.87177 0.78212 0.0
N683 N 0.09738 0.91361 0.73416 0.0
C684 C 0.07115 0.93771 0.71989 0.0
C685 C 0.17664 0.95075 0.74447 0.0
C686 C 0.1507 0.91915 0.7451 0.0
C687 C 0.14756 0.97616 0.73151 0.0
C688 C 0.09507 0.96945 0.71882 0.0
H689 H 0.30198 0.87477 0.79171 0.0
H690 H 0.30078 0.93437 0.77842 0.0
H691 H 0.25105 0.98018 0.75646 0.0
O692 O 0.06998 0.85983 0.69544 0.0
O693 O 0.07078 0.88501 0.77773 0.0
O694 O 0.98209 0.90946 0.78402 0.0
O695 O 0.123 0.82717 0.71943 0.0
O696 O 0.97828 0.88347 0.72235 0.0
O697 O 0.93569 0.90755 0.75853 0.0
O698 O 0.91322 0.86659 0.83052 0.0
O699 O 0.90559 0.83876 0.74885 0.0
O700 O 0.99587 0.81697 0.74135 0.0
O701 O 0.85867 0.89864 0.80669 0.0
O702 O 0.00247 0.84185 0.80266 0.0
O703 O 0.04393 0.81683 0.76651 0.0
C704 C 0.0387 0.90876 0.78739 0.0
C705 C 0.14071 0.82399 0.67284 0.0
C706 C 0.15947 0.82211 0.62582 0.0
C707 C 0.19769 0.79564 0.62984 0.0
C708 C 0.17943 0.79752 0.67615 0.0
C709 C 0.20767 0.78356 0.65481 0.0
C710 C 0.13107 0.83649 0.64747 0.0
C711 C 0.94238 0.90485 0.73312 0.0
C712 C 0.11064 0.83749 0.69612 0.0
C713 C 0.25915 0.92989 0.76908 0.0
C714 C 0.23073 0.956 0.75663 0.0
C715 C 0.94009 0.81852 0.73608 0.0
C716 C 0.84345 0.90298 0.85331 0.0
C717 C 0.82283 0.904 0.90021 0.0
C718 C 0.78326 0.92981 0.89607 0.0
C719 C 0.80369 0.92894 0.84991 0.0
C720 C 0.85341 0.8907 0.8787 0.0
C721 C 0.77402 0.94222 0.87114 0.0
C722 C 0.0376 0.82007 0.7919 0.0
C723 C 0.87231 0.88883 0.82998 0.0
H724 H 0.22017 0.78435 0.61353 0.0
H725 H 0.18778 0.78735 0.6953 0.0
H726 H 0.2373 0.76317 0.65763 0.0
H727 H 0.1013 0.85681 0.64451 0.0
H728 H 0.75977 0.94066 0.91228 0.0
H729 H 0.79517 0.93901 0.83074 0.0
H730 H 0.88371 0.87063 0.88168 0.0
H731 H 0.74357 0.9622 0.86824 0.0
Eu732 Eu 0.43117 0.6417 0.23574 0.0
C733 C 0.69396 0.66317 0.26766 0.0
N734 N 0.66368 0.63438 0.26981 0.0
C735 C 0.74485 0.60438 0.25259 0.0
C736 C 0.75125 0.6636 0.2576 0.0
C737 C 0.68807 0.60516 0.26259 0.0
C738 C 0.77656 0.63372 0.25004 0.0
C739 C 0.69713 0.72268 0.27281 0.0
C740 C 0.66697 0.69244 0.27504 0.0
C741 C 0.75417 0.72319 0.26272 0.0
C742 C 0.78112 0.69375 0.25514 0.0
Eu743 Eu 0.56752 0.63828 0.28569 0.0
N744 N 0.61107 0.69129 0.28418 0.0
C745 C 0.66915 0.75152 0.28092 0.0
C746 C 0.5849 0.71906 0.2934 0.0
C747 C 0.61308 0.74963 0.29155 0.0
H748 H 0.66385 0.58241 0.26476 0.0
H749 H 0.59175 0.77167 0.29857 0.0
H750 H 0.33991 0.7015 0.25501 0.0
H751 H 0.39794 0.50834 0.22966 0.0
H752 H 0.54292 0.71781 0.30268 0.0
H753 H 0.69085 0.77525 0.27953 0.0
H754 H 0.45341 0.56029 0.22609 0.0
H755 H 0.7641 0.58117 0.24683 0.0
H756 H 0.77789 0.74623 0.26076 0.0
H757 H 0.82511 0.69458 0.24736 0.0
H758 H 0.23828 0.70652 0.27068 0.0
H759 H 0.82047 0.63303 0.24219 0.0
H760 H 0.29462 0.50921 0.24368 0.0
N761 N 0.33512 0.64946 0.25065 0.0
C762 C 0.30138 0.62184 0.25211 0.0
C763 C 0.25554 0.68257 0.26558 0.0
C764 C 0.24297 0.62363 0.26067 0.0
C765 C 0.31318 0.67963 0.25695 0.0
C766 C 0.22026 0.65448 0.26745 0.0
N767 N 0.38337 0.5902 0.23909 0.0
C768 C 0.40891 0.561 0.23271 0.0
C769 C 0.29237 0.56231 0.24797 0.0
C770 C 0.32591 0.59144 0.24587 0.0
C771 C 0.31887 0.53214 0.24223 0.0
C772 C 0.3773 0.53152 0.23445 0.0
H773 H 0.17562 0.65686 0.27417 0.0
H774 H 0.16439 0.59559 0.26903 0.0
H775 H 0.20758 0.54199 0.25793 0.0
O776 O 0.42868 0.6273 0.19482 0.0
O777 O 0.41625 0.61713 0.27541 0.0
O778 O 0.50584 0.59526 0.28304 0.0
O779 O 0.37779 0.66892 0.20783 0.0
O780 O 0.51329 0.61507 0.22242 0.0
O781 O 0.55487 0.59364 0.25975 0.0
O782 O 0.55981 0.64402 0.32792 0.0
O783 O 0.58237 0.66138 0.24573 0.0
O784 O 0.49445 0.68479 0.23547 0.0
O785 O 0.62564 0.61182 0.31217 0.0
O786 O 0.48512 0.66527 0.29843 0.0
O787 O 0.44635 0.68679 0.2606 0.0
C788 C 0.4502 0.59695 0.28839 0.0
C789 C 0.41464 0.66987 0.16467 0.0
C790 C 0.41715 0.67533 0.11731 0.0
C791 C 0.45773 0.70122 0.11981 0.0
C792 C 0.45453 0.69602 0.16681 0.0
C793 C 0.47605 0.71158 0.14446 0.0
C794 C 0.39588 0.65965 0.13991 0.0
C795 C 0.549 0.59461 0.23419 0.0
C796 C 0.39522 0.65162 0.18789 0.0
C797 C 0.20936 0.59467 0.26251 0.0
C798 C 0.23396 0.56413 0.25617 0.0
C799 C 0.55112 0.68249 0.23243 0.0
C800 C 0.64688 0.63938 0.35173 0.0
C801 C 0.67942 0.64774 0.39654 0.0
C802 C 0.72312 0.66924 0.3874 0.0
C803 C 0.69127 0.66065 0.34303 0.0
C804 C 0.64135 0.63269 0.37857 0.0
C805 C 0.72917 0.67546 0.36078 0.0
C806 C 0.45023 0.68566 0.28612 0.0
C807 C 0.60457 0.6255 0.33312 0.0
H808 H 0.47483 0.71361 0.10268 0.0
H809 H 0.46925 0.70415 0.18574 0.0
H810 H 0.50717 0.73161 0.14625 0.0
H811 H 0.36578 0.63906 0.13821 0.0
H812 H 0.75285 0.68106 0.40091 0.0
H813 H 0.69645 0.66601 0.32255 0.0
H814 H 0.60695 0.61644 0.3855 0.0
H815 H 0.76313 0.69196 0.3539 0.0
C816 C 0.09919 0.01609 0.3203 0.0
C817 C 0.11832 0.02298 0.34587 0.0
C818 C 0.08291 0.0413 0.30321 0.0
C819 C 0.08362 0.07436 0.31123 0.0
H820 H 0.0955 0.99089 0.3135 0.0
H821 H 0.06704 0.03472 0.28402 0.0
S822 S 0.13389 0.10632 0.37504 0.0
N823 N 0.1411 0.06593 0.37745 0.0
N824 N 0.10733 0.11319 0.34565 0.0
C825 C 0.10332 0.08184 0.33645 0.0
C826 C 0.12119 0.0562 0.35373 0.0
C827 C 0.37172 0.45578 0.84624 0.0
C828 C 0.35787 0.486 0.83429 0.0
C829 C 0.3981 0.43021 0.83204 0.0
C830 C 0.41128 0.43385 0.80536 0.0
H831 H 0.36148 0.45169 0.86661 0.0
H832 H 0.40792 0.40735 0.84199 0.0
S833 S 0.38636 0.50866 0.76522 0.0
N834 N 0.36268 0.51866 0.79453 0.0
N835 N 0.40905 0.47028 0.7677 0.0
C836 C 0.39763 0.46394 0.79324 0.0
C837 C 0.37189 0.49008 0.80773 0.0
C838 C 0.62014 0.4423 0.67991 0.0
C839 C 0.61269 0.4762 0.68478 0.0
C840 C 0.59713 0.41843 0.69702 0.0
C841 C 0.56483 0.42776 0.71912 0.0
H842 H 0.64425 0.43422 0.6629 0.0
H843 H 0.60345 0.39256 0.69264 0.0
S844 S 0.53482 0.51292 0.74116 0.0
N845 N 0.57203 0.51762 0.71381 0.0
N846 N 0.52854 0.47275 0.74558 0.0
C847 C 0.55753 0.46139 0.7243 0.0
C848 C 0.58154 0.48563 0.70722 0.0
C849 C 0.93141 0.01128 0.215 0.0
C850 C 0.88722 0.01631 0.19651 0.0
C851 C 0.95634 0.03786 0.22844 0.0
C852 C 0.93704 0.07026 0.22422 0.0
H853 H 0.94699 0.98661 0.21896 0.0
H854 H 0.99034 0.03296 0.24254 0.0
S855 S 0.8222 0.09634 0.17801 0.0
N856 N 0.82516 0.05587 0.17459 0.0
N857 N 0.87148 0.10597 0.20023 0.0
C858 C 0.89262 0.07559 0.20592 0.0
C859 C 0.86788 0.04855 0.19193 0.0
C860 C 0.88283 0.98729 0.71195 0.0
C861 C 0.86505 0.98179 0.68605 0.0
C862 C 0.90728 0.96217 0.72689 0.0
C863 C 0.91611 0.93057 0.71649 0.0
H864 H 0.87775 0.01132 0.72086 0.0
H865 H 0.91986 0.96777 0.74673 0.0
S866 S 0.87756 0.90299 0.64978 0.0
N867 N 0.85759 0.94207 0.65067 0.0
N868 N 0.90565 0.8949 0.6787 0.0
C869 C 0.89982 0.92471 0.69048 0.0
C870 C 0.87396 0.95031 0.67526 0.0
C871 C 0.61493 0.51316 0.21422 0.0
C872 C 0.63313 0.5188 0.18832 0.0
C873 C 0.58839 0.53793 0.22895 0.0
C874 C 0.57804 0.56919 0.21826 0.0
H875 H 0.62089 0.48925 0.2232 0.0
H876 H 0.57503 0.53233 0.24875 0.0
S877 S 0.6187 0.59728 0.15178 0.0
N878 N 0.64064 0.55857 0.15295 0.0
N879 N 0.58864 0.6049 0.18044 0.0
C880 C 0.59546 0.57525 0.19237 0.0
C881 C 0.62339 0.55011 0.17743 0.0
C882 C 0.33592 0.5435 0.32203 0.0
C883 C 0.36971 0.51902 0.33394 0.0
C884 C 0.3624 0.56951 0.30837 0.0
C885 C 0.42345 0.57122 0.30525 0.0
H886 H 0.28876 0.5426 0.32342 0.0
H887 H 0.33457 0.58813 0.3 0.0
S888 S 0.53097 0.5137 0.33446 0.0
N889 N 0.46681 0.4988 0.34335 0.0
N890 N 0.51695 0.54692 0.31704 0.0
C891 C 0.45765 0.5472 0.31784 0.0
C892 C 0.43064 0.52119 0.33221 0.0
C893 C 0.14877 0.95746 0.82727 0.0
C894 C 0.12371 0.98894 0.82818 0.0
C895 C 0.12126 0.93163 0.81378 0.0
C896 C 0.06754 0.93645 0.80109 0.0
H897 H 0.18981 0.95283 0.837 0.0
H898 H 0.14184 0.90766 0.8136 0.0
S899 S 0.98547 0.01503 0.79752 0.0
N900 N 0.04365 0.02402 0.8151 0.0
N901 N 0.99137 0.97562 0.78996 0.0
C902 C 0.04244 0.96804 0.80188 0.0
C903 C 0.07075 0.99429 0.81536 0.0
C904 C 0.08666 0.10739 0.05191 0.0
C905 C 0.14517 0.11211 0.04434 0.0
C906 C 0.07094 0.10424 0.07821 0.0
C907 C 0.11307 0.10559 0.09809 0.0
H908 H 0.05291 0.10505 0.03727 0.0
H909 H 0.0255 0.0998 0.08298 0.0
S910 S 0.27201 0.11912 0.08868 0.0
N911 N 0.24513 0.11951 0.05883 0.0
N912 N 0.21573 0.1134 0.1084 0.0
C913 C 0.17143 0.11188 0.09089 0.0
C914 C 0.18744 0.11519 0.064 0.0
C915 C 0.31915 0.38259 0.56397 0.0
C916 C 0.36176 0.38237 0.54421 0.0
C917 C 0.33502 0.38629 0.59027 0.0
C918 C 0.39392 0.39 0.5975 0.0
H919 H 0.27328 0.38191 0.55895 0.0
H920 H 0.30088 0.38812 0.60484 0.0
S921 S 0.52203 0.38554 0.55339 0.0
N922 N 0.4652 0.38214 0.53383 0.0
N923 N 0.495 0.38902 0.58315 0.0
C924 C 0.4369 0.38742 0.57805 0.0
C925 C 0.4208 0.38361 0.55142 0.0
C926 C 0.64341 0.32838 0.97362 0.0
C927 C 0.65905 0.36057 0.98132 0.0
C928 C 0.64416 0.31895 0.94733 0.0
C929 C 0.65999 0.34138 0.92761 0.0
H930 H 0.63183 0.31004 0.98812 0.0
H931 H 0.63378 0.29361 0.94242 0.0
S932 S 0.70298 0.42873 0.93695 0.0
N933 N 0.68977 0.41509 0.96674 0.0
N934 N 0.68984 0.39735 0.91727 0.0
C935 C 0.6732 0.37397 0.93478 0.0
C936 C 0.67301 0.38357 0.96163 0.0
C937 C 0.82778 0.12323 0.46233 0.0
C938 C 0.84601 0.14575 0.48165 0.0
C939 C 0.82586 0.13233 0.43589 0.0
C940 C 0.84198 0.16425 0.42789 0.0
H941 H 0.81218 0.09895 0.46782 0.0
H942 H 0.80889 0.11487 0.4218 0.0
S943 S 0.90132 0.23063 0.46992 0.0
N944 N 0.88722 0.20003 0.49027 0.0
N945 N 0.8823 0.2172 0.44074 0.0
C946 C 0.86343 0.18629 0.44671 0.0
C947 C 0.86578 0.17703 0.47353 0.0
C948 C 0.78588 0.87836 0.96933 0.0
C949 C 0.83896 0.88305 0.98254 0.0
C950 C 0.78201 0.88291 0.94228 0.0
C951 C 0.83114 0.892 0.92733 0.0
H952 H 0.74623 0.87314 0.98014 0.0
H953 H 0.73958 0.88088 0.93314 0.0
S954 S 0.98182 0.90288 0.95196 0.0
N955 N 0.94301 0.89384 0.97823 0.0
N956 N 0.93549 0.90252 0.92734 0.0
C957 C 0.88526 0.89441 0.93996 0.0
C958 C 0.8892 0.89 0.96759 0.0
C959 C 0.66643 0.66511 0.46877 0.0
C960 C 0.68255 0.63497 0.48032 0.0
C961 C 0.66275 0.66856 0.44165 0.0
C962 C 0.67406 0.64189 0.42497 0.0
H963 H 0.65831 0.68658 0.48079 0.0
H964 H 0.65265 0.69256 0.4336 0.0
S965 S 0.71457 0.55728 0.44486 0.0
N966 N 0.70785 0.57755 0.47264 0.0
N967 N 0.69912 0.58401 0.4216 0.0
C968 C 0.68707 0.61118 0.4361 0.0
C969 C 0.69161 0.6077 0.46379 0.0
C970 C 0.42269 0.64593 0.04702 0.0
C971 C 0.36346 0.64459 0.03998 0.0
C972 C 0.43967 0.6559 0.07208 0.0
C973 C 0.39799 0.66437 0.09109 0.0
H974 H 0.45617 0.63985 0.03289 0.0
H975 H 0.48576 0.65687 0.07666 0.0
S976 S 0.23737 0.66394 0.08267 0.0
N977 N 0.26308 0.65188 0.05412 0.0
N978 N 0.29499 0.67042 0.10128 0.0
C979 C 0.33862 0.6626 0.08443 0.0
C980 C 0.32137 0.65282 0.05884 0.0
C981 C 0.1347 0.81752 0.55318 0.0
C982 C 0.15938 0.8472 0.544 0.0
C983 C 0.13043 0.81081 0.57992 0.0
C984 C 0.15032 0.83355 0.59862 0.0
H985 H 0.12099 0.79865 0.53953 0.0
H986 H 0.11429 0.78685 0.58602 0.0
S987 S 0.21358 0.91604 0.58509 0.0
N988 N 0.20013 0.90056 0.5559 0.0
N989 N 0.19166 0.88787 0.6063 0.0
C990 C 0.17131 0.86423 0.58987 0.0
C991 C 0.17588 0.87109 0.56252 0.0
C992 C 0.16066 0.23656 0.33458 0.0
C993 C 0.12494 0.25366 0.35217 0.0
C994 C 0.13689 0.21417 0.31673 0.0
C995 C 0.0762 0.20881 0.31514 0.0
H996 H 0.2074 0.24076 0.3345 0.0
H997 H 0.16658 0.20134 0.30394 0.0
S998 S 0.96447 0.24632 0.35852 0.0
N999 N 0.02681 0.26264 0.36836 0.0
N1000 N 0.98129 0.22127 0.33428 0.0
C1001 C 0.04014 0.22529 0.33324 0.0
C1002 C 0.06471 0.2476 0.35183 0.0
C1003 C 0.33508 0.27082 0.83648 0.0
C1004 C 0.37049 0.2523 0.8532 0.0
C1005 C 0.35941 0.29339 0.81883 0.0
C1006 C 0.42032 0.29753 0.81652 0.0
H1007 H 0.28814 0.26751 0.83684 0.0
H1008 H 0.32995 0.30723 0.80667 0.0
S1009 S 0.53163 0.25604 0.85749 0.0
N1010 N 0.46878 0.2407 0.86782 0.0
N1011 N 0.51523 0.28239 0.8341 0.0
C1012 C 0.45613 0.2797 0.83381 0.0
C1013 C 0.43105 0.2572 0.85221 0.0
C1014 C 0.59032 0.26777 0.67896 0.0
C1015 C 0.63571 0.24755 0.68782 0.0
C1016 C 0.56087 0.28905 0.69593 0.0
C1017 C 0.57521 0.29104 0.72263 0.0
H1018 H 0.57675 0.26686 0.65876 0.0
H1019 H 0.52643 0.30406 0.68784 0.0
S1020 S 0.69213 0.24366 0.75559 0.0
N1021 N 0.6954 0.23165 0.72488 0.0
N1022 N 0.63827 0.27045 0.75707 0.0
C1023 C 0.6205 0.27078 0.73181 0.0
C1024 C 0.65111 0.24938 0.71438 0.0
C1025 C 0.91439 0.23447 0.17741 0.0
C1026 C 0.87037 0.25588 0.18603 0.0
C1027 C 0.94213 0.21285 0.19464 0.0
C1028 C 0.92744 0.21182 0.22137 0.0
H1029 H 0.92824 0.23469 0.1572 0.0
H1030 H 0.97558 0.19689 0.18678 0.0
S1031 S 0.81345 0.26237 0.25376 0.0
N1032 N 0.8111 0.27362 0.22287 0.0
N1033 N 0.86569 0.23465 0.25558 0.0
C1034 C 0.88355 0.23329 0.2303 0.0
C1035 C 0.85445 0.25484 0.2126 0.0
C1036 C 0.82842 0.76178 0.70428 0.0
C1037 C 0.86302 0.74095 0.68892 0.0
C1038 C 0.85337 0.78779 0.71839 0.0
C1039 C 0.9141 0.79319 0.71854 0.0
H1040 H 0.78174 0.75769 0.70561 0.0
H1041 H 0.82469 0.80322 0.72959 0.0
S1042 S 0.02266 0.74724 0.67882 0.0
N1043 N 0.95981 0.7289 0.67242 0.0
N1044 N 0.00749 0.77708 0.69964 0.0
C1045 C 0.94883 0.77321 0.70223 0.0
C1046 C 0.9231 0.74718 0.68734 0.0
C1047 C 0.5881 0.76028 0.1946 0.0
C1048 C 0.63918 0.75151 0.18108 0.0
C1049 C 0.55963 0.73775 0.21109 0.0
C1050 C 0.58165 0.7058 0.21486 0.0
H1051 H 0.56997 0.78473 0.19234 0.0
H1052 H 0.5204 0.74553 0.22114 0.0
S1053 S 0.71536 0.67127 0.18463 0.0
N1054 N 0.71142 0.70913 0.17293 0.0
N1055 N 0.65818 0.66675 0.20398 0.0
C1056 C 0.6331 0.69689 0.20165 0.0
C1057 C 0.6617 0.71972 0.18468 0.0
C1058 C 0.39547 0.76736 0.31115 0.0
C1059 C 0.35578 0.75821 0.331 0.0
C1060 C 0.42527 0.74371 0.29647 0.0
C1061 C 0.41805 0.71003 0.30163 0.0
H1062 H 0.40363 0.79312 0.30683 0.0
H1063 H 0.45493 0.75183 0.28125 0.0
S1064 S 0.31838 0.67236 0.35022 0.0
N1065 N 0.30906 0.71247 0.35386 0.0
N1066 N 0.3682 0.66814 0.32715 0.0
C1067 C 0.37943 0.70028 0.32146 0.0
C1068 C 0.34769 0.72433 0.33601 0.0
C1069 C 0.08567 0.74082 0.82375 0.0
C1070 C 0.12395 0.75175 0.8435 0.0
C1071 C 0.05915 0.76303 0.80662 0.0
C1072 C 0.06821 0.79706 0.80917 0.0
H1073 H 0.07541 0.71488 0.82162 0.0
H1074 H 0.02996 0.7536 0.79177 0.0
S1075 S 0.16695 0.83889 0.85568 0.0
N1076 N 0.17301 0.79932 0.86276 0.0
N1077 N 0.11909 0.84102 0.83176 0.0
C1078 C 0.10604 0.80855 0.82858 0.0
C1079 C 0.13478 0.78593 0.8455 0.0
loop_
_geom_bond_atom_site_label_1
_geom_bond_atom_site_label_2
_geom_bond_distance
_geom_bond_site_symmetry_2
_ccdc_geom_bond_type
C0 C1 1.391 . S
C0 C4 1.391 . S
C0 H42 0.948 . S
C1 C0 1.391 . S
C1 C2 1.391 . S
C2 C1 1.391 . S
C2 H58 0.947 . S
C2 C59 1.392 . S
C3 C4 1.391 . S
C3 C7 1.397 . S
C3 C59 1.419 . S
C4 C0 1.391 . S
C4 C3 1.391 . S
C4 C5 1.399 . S
C5 C4 1.399 . S
C5 C8 1.396 . S
C5 C17 1.453 . S
C5 C18 1.684 . S
H6 C30 0.948 . S
C7 C3 1.397 . S
C7 C8 1.394 . S
C7 C26 1.723 . S
C8 C5 1.396 . S
C8 C7 1.394 . S
C8 C38 1.723 . S
H9 C32 0.947 . S
H10 C33 0.948 . S
H11 C39 0.982 . S
H12 C40 0.979 . S
H13 C40 0.980 . S
H14 C40 0.983 . S
H15 C39 0.979 . S
H16 C39 0.977 . S
C17 C5 1.453 . S
C17 H46 0.982 . S
C17 H47 0.979 . S
C17 H48 0.977 . S
C18 C5 1.684 . S
C18 H43 0.979 . S
C18 H44 0.980 . S
C18 H45 0.983 . S
C19 C20 1.391 . S
C19 C24 1.391 . S
C19 H49 0.948 . S
C20 C19 1.391 . S
C20 C21 1.391 . S
C21 C20 1.391 . S
C21 C22 1.392 . S
C21 H50 0.947 . S
C22 C21 1.392 . S
C22 C23 1.419 . S
C22 H51 0.948 . S
C23 C22 1.419 . S
C23 C24 1.391 . S
C23 C27 1.397 . S
C24 C19 1.391 . S
C24 C23 1.391 . S
C24 C25 1.399 . S
C25 C24 1.399 . S
C25 C26 1.396 . S
C25 C28 1.453 . S
C25 C29 1.684 . S
C26 C7 1.723 . S
C26 C25 1.396 . S
C26 C27 1.394 . S
C27 C23 1.397 . S
C27 C26 1.394 . S
C27 C37 1.723 . S
C28 C25 1.453 . S
C28 H52 0.982 . S
C28 H53 0.979 . S
C28 H54 0.977 . S
C29 C25 1.684 . S
C29 H55 0.979 . S
C29 H56 0.980 . S
C29 H57 0.983 . S
C30 H6 0.948 . S
C30 C31 1.391 . S
C30 C35 1.391 . S
C31 C30 1.391 . S
C31 C32 1.391 . S
C32 H9 0.947 . S
C32 C31 1.391 . S
C32 C33 1.392 . S
C33 H10 0.948 . S
C33 C32 1.392 . S
C33 C34 1.419 . S
C34 C33 1.419 . S
C34 C35 1.391 . S
C34 C38 1.397 . S
C35 C30 1.391 . S
C35 C34 1.391 . S
C35 C36 1.399 . S
C36 C35 1.399 . S
C36 C37 1.396 . S
C36 C39 1.453 . S
C36 C40 1.684 . S
C37 C27 1.723 . S
C37 C36 1.396 . S
C37 C38 1.394 . S
C38 C8 1.723 . S
C38 C34 1.397 . S
C38 C37 1.394 . S
C39 H11 0.982 . S
C39 H15 0.979 . S
C39 H16 0.977 . S
C39 C36 1.453 . S
C40 H12 0.979 . S
C40 H13 0.980 . S
C40 H14 0.983 . S
C40 C36 1.684 . S
H41 C59 0.948 . S
H42 C0 0.948 . S
H43 C18 0.979 . S
H44 C18 0.980 . S
H45 C18 0.983 . S
H46 C17 0.982 . S
H47 C17 0.979 . S
H48 C17 0.977 . S
H49 C19 0.948 . S
H50 C21 0.947 . S
H51 C22 0.948 . S
H52 C28 0.982 . S
H53 C28 0.979 . S
H54 C28 0.977 . S
H55 C29 0.979 . S
H56 C29 0.980 . S
H57 C29 0.983 . S
H58 C2 0.947 . S
C59 C2 1.392 . S
C59 C3 1.419 . S
C59 H41 0.948 . S
C60 C61 1.391 . S
C60 C64 1.391 . S
C60 H102 0.948 . S
C61 C60 1.391 . S
C61 C62 1.391 . S
C62 C61 1.391 . S
C62 H118 0.947 . S
C62 C119 1.392 . S
C63 C64 1.391 . S
C63 C67 1.397 . S
C63 C119 1.419 . S
C64 C60 1.391 . S
C64 C63 1.391 . S
C64 C65 1.399 . S
C65 C64 1.399 . S
C65 C68 1.396 . S
C65 C77 1.453 . S
C65 C78 1.684 . S
H66 C90 0.948 1_565 S
C67 C63 1.397 . S
C67 C68 1.394 . S
C67 C86 1.723 . S
C68 C65 1.396 . S
C68 C67 1.394 . S
C68 C98 1.723 . S
H69 C92 0.947 . S
H70 C93 0.948 . S
H71 C99 0.982 . S
H72 C100 0.979 . S
H73 C100 0.980 . S
H74 C100 0.983 . S
H75 C99 0.979 . S
H76 C99 0.977 . S
C77 C65 1.453 . S
C77 H106 0.982 . S
C77 H107 0.979 . S
C77 H108 0.977 . S
C78 C65 1.684 . S
C78 H103 0.979 . S
C78 H104 0.980 . S
C78 H105 0.983 . S
C79 C80 1.391 1_556 S
C79 C84 1.391 . S
C79 H109 0.948 . S
C80 C79 1.391 1_554 S
C80 C81 1.391 1_554 S
C81 C80 1.391 1_556 S
C81 C82 1.392 . S
C81 H110 0.947 1_556 S
C82 C81 1.392 . S
C82 C83 1.419 . S
C82 H111 0.948 . S
C83 C82 1.419 . S
C83 C84 1.391 . S
C83 C87 1.397 . S
C84 C79 1.391 . S
C84 C83 1.391 . S
C84 C85 1.399 . S
C85 C84 1.399 . S
C85 C86 1.396 . S
C85 C88 1.453 . S
C85 C89 1.684 . S
C86 C67 1.723 . S
C86 C85 1.396 . S
C86 C87 1.394 . S
C87 C83 1.397 . S
C87 C86 1.394 . S
C87 C97 1.723 . S
C88 C85 1.453 . S
C88 H112 0.982 . S
C88 H113 0.979 . S
C88 H114 0.977 . S
C89 C85 1.684 . S
C89 H115 0.979 . S
C89 H116 0.980 . S
C89 H117 0.983 . S
C90 H66 0.948 1_545 S
C90 C91 1.391 . S
C90 C95 1.391 . S
C91 C90 1.391 . S
C91 C92 1.391 . S
C92 H69 0.947 . S
C92 C91 1.391 . S
C92 C93 1.392 . S
C93 H70 0.948 . S
C93 C92 1.392 . S
C93 C94 1.419 . S
C94 C93 1.419 . S
C94 C95 1.391 . S
C94 C98 1.397 . S
C95 C90 1.391 . S
C95 C94 1.391 . S
C95 C96 1.399 . S
C96 C95 1.399 . S
C96 C97 1.396 . S
C96 C99 1.453 . S
C96 C100 1.684 . S
C97 C87 1.723 . S
C97 C96 1.396 . S
C97 C98 1.394 . S
C98 C68 1.723 . S
C98 C94 1.397 . S
C98 C97 1.394 . S
C99 H71 0.982 . S
C99 H75 0.979 . S
C99 H76 0.977 . S
C99 C96 1.453 . S
C100 H72 0.979 . S
C100 H73 0.980 . S
C100 H74 0.983 . S
C100 C96 1.684 . S
H101 C119 0.948 . S
H102 C60 0.948 . S
H103 C78 0.979 . S
H104 C78 0.980 . S
H105 C78 0.983 . S
H106 C77 0.982 . S
H107 C77 0.979 . S
H108 C77 0.977 . S
H109 C79 0.948 . S
H110 C81 0.947 1_554 S
H111 C82 0.948 . S
H112 C88 0.982 . S
H113 C88 0.979 . S
H114 C88 0.977 . S
H115 C89 0.979 . S
H116 C89 0.980 . S
H117 C89 0.983 . S
H118 C62 0.947 . S
C119 C62 1.392 . S
C119 C63 1.419 . S
C119 H101 0.948 . S
C120 C121 1.391 . S
C120 C124 1.391 . S
C120 H162 0.948 . S
C121 C120 1.391 . S
C121 C122 1.391 . S
C122 C121 1.391 . S
C122 H178 0.947 . S
C122 C179 1.392 . S
C123 C124 1.391 . S
C123 C127 1.397 . S
C123 C179 1.419 . S
C124 C120 1.391 . S
C124 C123 1.391 . S
C124 C125 1.399 . S
C125 C124 1.399 . S
C125 C128 1.396 . S
C125 C137 1.453 . S
C125 C138 1.684 . S
H126 C150 0.948 . S
C127 C123 1.397 . S
C127 C128 1.394 . S
C127 C146 1.723 . S
C128 C125 1.396 . S
C128 C127 1.394 . S
C128 C158 1.723 . S
H129 C152 0.947 . S
H130 C153 0.948 . S
H131 C159 0.982 . S
H132 C160 0.979 . S
H133 C160 0.980 . S
H134 C160 0.983 . S
H135 C159 0.979 . S
H136 C159 0.977 . S
C137 C125 1.453 . S
C137 H166 0.982 . S
C137 H167 0.979 . S
C137 H168 0.977 . S
C138 C125 1.684 . S
C138 H163 0.979 . S
C138 H164 0.980 . S
C138 H165 0.983 . S
C139 C140 1.391 . S
C139 C144 1.391 . S
C139 H169 0.948 1_545 S
C140 C139 1.391 . S
C140 C141 1.391 . S
C141 C140 1.391 . S
C141 C142 1.392 . S
C141 H170 0.947 . S
C142 C141 1.392 . S
C142 C143 1.419 . S
C142 H171 0.948 . S
C143 C142 1.419 . S
C143 C144 1.391 . S
C143 C147 1.397 . S
C144 C139 1.391 . S
C144 C143 1.391 . S
C144 C145 1.399 . S
C145 C144 1.399 . S
C145 C146 1.396 . S
C145 C148 1.453 . S
C145 C149 1.684 . S
C146 C127 1.723 . S
C146 C145 1.396 . S
C146 C147 1.394 . S
C147 C143 1.397 . S
C147 C146 1.394 . S
C147 C157 1.723 . S
C148 C145 1.453 . S
C148 H172 0.982 . S
C148 H173 0.979 . S
C148 H174 0.977 . S
C149 C145 1.684 . S
C149 H175 0.979 . S
C149 H176 0.980 . S
C149 H177 0.983 . S
C150 H126 0.948 . S
C150 C151 1.391 . S
C150 C155 1.391 . S
C151 C150 1.391 . S
C151 C152 1.391 . S
C152 H129 0.947 . S
C152 C151 1.391 . S
C152 C153 1.392 . S
C153 H130 0.948 . S
C153 C152 1.392 . S
C153 C154 1.419 . S
C154 C153 1.419 . S
C154 C155 1.391 . S
C154 C158 1.397 . S
C155 C150 1.391 . S
C155 C154 1.391 . S
C155 C156 1.399 . S
C156 C155 1.399 . S
C156 C157 1.396 . S
C156 C159 1.453 . S
C156 C160 1.684 . S
C157 C147 1.723 . S
C157 C156 1.396 . S
C157 C158 1.394 . S
C158 C128 1.723 . S
C158 C154 1.397 . S
C158 C157 1.394 . S
C159 H131 0.982 . S
C159 H135 0.979 . S
C159 H136 0.977 . S
C159 C156 1.453 . S
C160 H132 0.979 . S
C160 H133 0.980 . S
C160 H134 0.983 . S
C160 C156 1.684 . S
H161 C179 0.948 . S
H162 C120 0.948 . S
H163 C138 0.979 . S
H164 C138 0.980 . S
H165 C138 0.983 . S
H166 C137 0.982 . S
H167 C137 0.979 . S
H168 C137 0.977 . S
H169 C139 0.948 1_565 S
H170 C141 0.947 . S
H171 C142 0.948 . S
H172 C148 0.982 . S
H173 C148 0.979 . S
H174 C148 0.977 . S
H175 C149 0.979 . S
H176 C149 0.980 . S
H177 C149 0.983 . S
H178 C122 0.947 . S
C179 C122 1.392 . S
C179 C123 1.419 . S
C179 H161 0.948 . S
C180 C181 1.391 . S
C180 C184 1.391 . S
C180 H222 0.948 . S
C181 C180 1.391 . S
C181 C182 1.391 . S
C182 C181 1.391 . S
C182 H238 0.947 . S
C182 C239 1.392 . S
C183 C184 1.391 . S
C183 C187 1.397 . S
C183 C239 1.419 . S
C184 C180 1.391 . S
C184 C183 1.391 . S
C184 C185 1.399 . S
C185 C184 1.399 . S
C185 C188 1.396 . S
C185 C197 1.453 . S
C185 C198 1.684 . S
H186 C210 0.948 . S
C187 C183 1.397 . S
C187 C188 1.394 . S
C187 C206 1.723 . S
C188 C185 1.396 . S
C188 C187 1.394 . S
C188 C218 1.723 . S
H189 C212 0.947 . S
H190 C213 0.948 . S
H191 C219 0.982 . S
H192 C220 0.979 . S
H193 C220 0.980 . S
H194 C220 0.983 . S
H195 C219 0.979 . S
H196 C219 0.977 . S
C197 C185 1.453 . S
C197 H226 0.982 . S
C197 H227 0.979 . S
C197 H228 0.977 . S
C198 C185 1.684 . S
C198 H223 0.979 . S
C198 H224 0.980 . S
C198 H225 0.983 . S
C199 C200 1.379 1_554 S
C199 C204 1.391 . S
C199 H229 0.948 . S
C200 C199 1.379 1_556 S
C200 C201 1.381 1_556 S
C201 C200 1.381 1_554 S
C201 C202 1.392 . S
C201 H230 0.947 . S
C202 C201 1.392 . S
C202 C203 1.419 . S
C202 H231 0.948 . S
C203 C202 1.419 . S
C203 C204 1.391 . S
C203 C207 1.397 . S
C204 C199 1.391 . S
C204 C203 1.391 . S
C204 C205 1.399 . S
C205 C204 1.399 . S
C205 C206 1.396 . S
C205 C208 1.453 . S
C205 C209 1.684 . S
C206 C187 1.723 . S
C206 C205 1.396 . S
C206 C207 1.394 . S
C207 C203 1.397 . S
C207 C206 1.394 . S
C207 C217 1.723 . S
C208 C205 1.453 . S
C208 H232 0.982 . S
C208 H233 0.979 . S
C208 H234 0.977 . S
C209 C205 1.684 . S
C209 H235 0.979 . S
C209 H236 0.980 . S
C209 H237 0.983 . S
C210 H186 0.948 . S
C210 C211 1.391 . S
C210 C215 1.391 . S
C211 C210 1.391 . S
C211 C212 1.391 . S
C212 H189 0.947 . S
C212 C211 1.391 . S
C212 C213 1.392 . S
C213 H190 0.948 . S
C213 C212 1.392 . S
C213 C214 1.419 . S
C214 C213 1.419 . S
C214 C215 1.391 . S
C214 C218 1.397 . S
C215 C210 1.391 . S
C215 C214 1.391 . S
C215 C216 1.399 . S
C216 C215 1.399 . S
C216 C217 1.396 . S
C216 C219 1.453 . S
C216 C220 1.684 . S
C217 C207 1.723 . S
C217 C216 1.396 . S
C217 C218 1.394 . S
C218 C188 1.723 . S
C218 C214 1.397 . S
C218 C217 1.394 . S
C219 H191 0.982 . S
C219 H195 0.979 . S
C219 H196 0.977 . S
C219 C216 1.453 . S
C220 H192 0.979 . S
C220 H193 0.980 . S
C220 H194 0.983 . S
C220 C216 1.684 . S
H221 C239 0.948 . S
H222 C180 0.948 . S
H223 C198 0.979 . S
H224 C198 0.980 . S
H225 C198 0.983 . S
H226 C197 0.982 . S
H227 C197 0.979 . S
H228 C197 0.977 . S
H229 C199 0.948 . S
H230 C201 0.947 . S
H231 C202 0.948 . S
H232 C208 0.982 . S
H233 C208 0.979 . S
H234 C208 0.977 . S
H235 C209 0.979 . S
H236 C209 0.980 . S
H237 C209 0.983 . S
H238 C182 0.947 . S
C239 C182 1.392 . S
C239 C183 1.419 . S
C239 H221 0.948 . S
C240 C241 1.391 . S
C240 C244 1.391 . S
C240 H282 0.948 . S
C241 C240 1.391 . S
C241 C242 1.391 . S
C242 C241 1.391 . S
C242 H298 0.947 . S
C242 C299 1.392 . S
C243 C244 1.391 . S
C243 C247 1.397 . S
C243 C299 1.419 . S
C244 C240 1.391 . S
C244 C243 1.391 . S
C244 C245 1.399 . S
C245 C244 1.399 . S
C245 C248 1.396 . S
C245 C257 1.453 . S
C245 C258 1.684 . S
H246 C270 0.948 . S
C247 C243 1.397 . S
C247 C248 1.394 . S
C247 C266 1.723 . S
C248 C245 1.396 . S
C248 C247 1.394 . S
C248 C278 1.723 . S
H249 C272 0.947 . S
H250 C273 0.948 . S
H251 C279 0.982 . S
H252 C280 0.979 . S
H253 C280 0.980 . S
H254 C280 0.983 . S
H255 C279 0.979 . S
H256 C279 0.977 . S
C257 C245 1.453 . S
C257 H286 0.982 . S
C257 H287 0.979 . S
C257 H288 0.977 . S
C258 C245 1.684 . S
C258 H283 0.979 . S
C258 H284 0.980 . S
C258 H285 0.983 . S
C259 C260 1.391 . S
C259 C264 1.391 . S
C259 H289 0.948 . S
C260 C259 1.391 . S
C260 C261 1.391 . S
C261 C260 1.391 . S
C261 C262 1.392 . S
C261 H290 0.947 . S
C262 C261 1.392 . S
C262 C263 1.419 . S
C262 H291 0.948 . S
C263 C262 1.419 . S
C263 C264 1.391 . S
C263 C267 1.397 . S
C264 C259 1.391 . S
C264 C263 1.391 . S
C264 C265 1.399 . S
C265 C264 1.399 . S
C265 C266 1.396 . S
C265 C268 1.453 . S
C265 C269 1.684 . S
C266 C247 1.723 . S
C266 C265 1.396 . S
C266 C267 1.394 . S
C267 C263 1.397 . S
C267 C266 1.394 . S
C267 C277 1.723 . S
C268 C265 1.453 . S
C268 H292 0.982 . S
C268 H293 0.979 . S
C268 H294 0.977 . S
C269 C265 1.684 . S
C269 H295 0.979 . S
C269 H296 0.980 . S
C269 H297 0.983 . S
C270 H246 0.948 . S
C270 C271 1.391 . S
C270 C275 1.391 . S
C271 C270 1.391 . S
C271 C272 1.391 . S
C272 H249 0.947 . S
C272 C271 1.391 . S
C272 C273 1.392 . S
C273 H250 0.948 . S
C273 C272 1.392 . S
C273 C274 1.419 . S
C274 C273 1.419 . S
C274 C275 1.391 . S
C274 C278 1.397 . S
C275 C270 1.391 . S
C275 C274 1.391 . S
C275 C276 1.399 . S
C276 C275 1.399 . S
C276 C277 1.396 . S
C276 C279 1.453 . S
C276 C280 1.684 . S
C277 C267 1.723 . S
C277 C276 1.396 . S
C277 C278 1.394 . S
C278 C248 1.723 . S
C278 C274 1.397 . S
C278 C277 1.394 . S
C279 H251 0.982 . S
C279 H255 0.979 . S
C279 H256 0.977 . S
C279 C276 1.453 . S
C280 H252 0.979 . S
C280 H253 0.980 . S
C280 H254 0.983 . S
C280 C276 1.684 . S
H281 C299 0.948 . S
H282 C240 0.948 . S
H283 C258 0.979 . S
H284 C258 0.980 . S
H285 C258 0.983 . S
H286 C257 0.982 . S
H287 C257 0.979 . S
H288 C257 0.977 . S
H289 C259 0.948 . S
H290 C261 0.947 . S
H291 C262 0.948 . S
H292 C268 0.982 . S
H293 C268 0.979 . S
H294 C268 0.977 . S
H295 C269 0.979 . S
H296 C269 0.980 . S
H297 C269 0.983 . S
H298 C242 0.947 . S
C299 C242 1.392 . S
C299 C243 1.419 . S
C299 H281 0.948 . S
C300 C301 1.391 . S
C300 C304 1.391 . S
C300 H342 0.948 . S
C301 C300 1.391 . S
C301 C302 1.391 . S
C302 C301 1.391 . S
C302 H358 0.947 . S
C302 C359 1.392 . S
C303 C304 1.391 . S
C303 C307 1.397 . S
C303 C359 1.419 . S
C304 C300 1.391 . S
C304 C303 1.391 . S
C304 C305 1.399 . S
C305 C304 1.399 . S
C305 C308 1.396 . S
C305 C317 1.453 . S
C305 C318 1.684 . S
H306 C330 0.948 1_545 S
C307 C303 1.397 . S
C307 C308 1.394 . S
C307 C326 1.723 . S
C308 C305 1.396 . S
C308 C307 1.394 . S
C308 C338 1.723 . S
H309 C332 0.947 . S
H310 C333 0.948 . S
H311 C339 0.982 . S
H312 C340 0.979 . S
H313 C340 0.980 . S
H314 C340 1.002 . S
H315 C339 0.979 . S
H316 C339 0.977 . S
C317 C305 1.453 . S
C317 H346 0.982 . S
C317 H347 0.979 . S
C317 H348 0.977 . S
C318 C305 1.684 . S
C318 H343 0.979 . S
C318 H344 0.980 . S
C318 H345 0.983 . S
C319 C320 1.391 1_554 S
C319 C324 1.391 . S
C319 H349 0.948 . S
C320 C319 1.391 1_556 S
C320 C321 1.391 1_556 S
C321 C320 1.391 1_554 S
C321 C322 1.392 . S
C321 H350 0.947 1_554 S
C322 C321 1.392 . S
C322 C323 1.419 . S
C322 H351 0.948 . S
C323 C322 1.419 . S
C323 C324 1.391 . S
C323 C327 1.397 . S
C324 C319 1.391 . S
C324 C323 1.391 . S
C324 C325 1.399 . S
C325 C324 1.399 . S
C325 C326 1.396 . S
C325 C328 1.453 . S
C325 C329 1.684 . S
C326 C307 1.723 . S
C326 C325 1.396 . S
C326 C327 1.394 . S
C327 C323 1.397 . S
C327 C326 1.394 . S
C327 C337 1.723 . S
C328 C325 1.453 . S
C328 H352 0.982 . S
C328 H353 0.979 . S
C328 H354 0.977 . S
C329 C325 1.684 . S
C329 H355 0.979 . S
C329 H356 0.980 . S
C329 H357 0.983 . S
C330 H306 0.948 1_565 S
C330 C331 1.391 . S
C330 C335 1.391 . S
C331 C330 1.391 . S
C331 C332 1.391 . S
C332 H309 0.947 . S
C332 C331 1.391 . S
C332 C333 1.392 . S
C333 H310 0.948 . S
C333 C332 1.392 . S
C333 C334 1.419 . S
C334 C333 1.419 . S
C334 C335 1.391 . S
C334 C338 1.397 . S
C335 C330 1.391 . S
C335 C334 1.391 . S
C335 C336 1.399 . S
C336 C335 1.399 . S
C336 C337 1.396 . S
C336 C339 1.453 . S
C336 C340 1.684 . S
C337 C327 1.723 . S
C337 C336 1.396 . S
C337 C338 1.394 . S
C338 C308 1.723 . S
C338 C334 1.397 . S
C338 C337 1.394 . S
C339 H311 0.982 . S
C339 H315 0.979 . S
C339 H316 0.977 . S
C339 C336 1.453 . S
C340 H312 0.979 . S
C340 H313 0.980 . S
C340 H314 1.002 . S
C340 C336 1.684 . S
H341 C359 0.948 . S
H342 C300 0.948 . S
H343 C318 0.979 . S
H344 C318 0.980 . S
H345 C318 0.983 . S
H346 C317 0.982 . S
H347 C317 0.979 . S
H348 C317 0.977 . S
H349 C319 0.948 . S
H350 C321 0.947 1_556 S
H351 C322 0.948 . S
H352 C328 0.982 . S
H353 C328 0.979 . S
H354 C328 0.977 . S
H355 C329 0.979 . S
H356 C329 0.980 . S
H357 C329 0.983 . S
H358 C302 0.947 . S
C359 C302 1.392 . S
C359 C303 1.419 . S
C359 H341 0.948 . S
C360 C361 1.391 . S
C360 C364 1.391 . S
C360 H402 0.948 . S
C361 C360 1.391 . S
C361 C362 1.391 . S
C362 C361 1.391 . S
C362 H418 0.947 1_565 S
C362 C419 1.392 . S
C363 C364 1.391 . S
C363 C367 1.397 . S
C363 C419 1.419 . S
C364 C360 1.391 . S
C364 C363 1.391 . S
C364 C365 1.399 . S
C365 C364 1.399 . S
C365 C368 1.396 . S
C365 C377 1.453 . S
C365 C378 1.684 . S
H366 C390 0.948 . S
C367 C363 1.397 . S
C367 C368 1.394 . S
C367 C386 1.723 . S
C368 C365 1.396 . S
C368 C367 1.394 . S
C368 C398 1.723 . S
H369 C392 0.947 . S
H370 C393 0.948 . S
H371 C399 0.982 . S
H372 C400 0.979 . S
H373 C400 0.980 . S
H374 C400 0.983 . S
H375 C399 0.979 . S
H376 C399 0.977 . S
C377 C365 1.453 . S
C377 H406 0.982 . S
C377 H407 0.979 . S
C377 H408 0.977 . S
C378 C365 1.684 . S
C378 H403 0.979 . S
C378 H404 0.980 . S
C378 H405 0.983 . S
C379 C380 1.391 . S
C379 C384 1.391 . S
C379 H409 0.948 . S
C380 C379 1.391 . S
C380 C381 1.391 . S
C381 C380 1.391 . S
C381 C382 1.392 . S
C381 H410 0.947 . S
C382 C381 1.392 . S
C382 C383 1.419 . S
C382 H411 0.948 . S
C383 C382 1.419 . S
C383 C384 1.391 . S
C383 C387 1.397 . S
C384 C379 1.391 . S
C384 C383 1.391 . S
C384 C385 1.399 . S
C385 C384 1.399 . S
C385 C386 1.396 . S
C385 C388 1.453 . S
C385 C389 1.684 . S
C386 C367 1.723 . S
C386 C385 1.396 . S
C386 C387 1.394 . S
C387 C383 1.397 . S
C387 C386 1.394 . S
C387 C397 1.723 . S
C388 C385 1.453 . S
C388 H412 0.982 . S
C388 H413 0.979 . S
C388 H414 0.977 . S
C389 C385 1.684 . S
C389 H415 0.979 . S
C389 H416 0.980 . S
C389 H417 0.983 . S
C390 H366 0.948 . S
C390 C391 1.391 . S
C390 C395 1.391 . S
C391 C390 1.391 . S
C391 C392 1.391 . S
C392 H369 0.947 . S
C392 C391 1.391 . S
C392 C393 1.392 . S
C393 H370 0.948 . S
C393 C392 1.392 . S
C393 C394 1.419 . S
C394 C393 1.419 . S
C394 C395 1.391 . S
C394 C398 1.397 . S
C395 C390 1.391 . S
C395 C394 1.391 . S
C395 C396 1.399 . S
C396 C395 1.399 . S
C396 C397 1.396 . S
C396 C399 1.453 . S
C396 C400 1.684 . S
C397 C387 1.723 . S
C397 C396 1.396 . S
C397 C398 1.394 . S
C398 C368 1.723 . S
C398 C394 1.397 . S
C398 C397 1.394 . S
C399 H371 0.982 . S
C399 H375 0.979 . S
C399 H376 0.977 . S
C399 C396 1.453 . S
C400 H372 0.979 . S
C400 H373 0.980 . S
C400 H374 0.983 . S
C400 C396 1.684 . S
H401 C419 0.948 . S
H402 C360 0.948 . S
H403 C378 0.979 . S
H404 C378 0.980 . S
H405 C378 0.983 . S
H406 C377 0.982 . S
H407 C377 0.979 . S
H408 C377 0.977 . S
H409 C379 0.948 . S
H410 C381 0.947 . S
H411 C382 0.948 . S
H412 C388 0.982 . S
H413 C388 0.979 . S
H414 C388 0.977 . S
H415 C389 0.979 . S
H416 C389 0.980 . S
H417 C389 0.983 . S
H418 C362 0.947 1_545 S
C419 C362 1.392 . S
C419 C363 1.419 . S
C419 H401 0.948 . S
C420 C421 1.391 . S
C420 C424 1.391 . S
C420 H462 0.948 . S
C421 C420 1.391 . S
C421 C422 1.391 . S
C422 C421 1.391 . S
C422 H478 0.947 . S
C422 C479 1.392 . S
C423 C424 1.391 . S
C423 C427 1.397 . S
C423 C479 1.419 . S
C424 C420 1.391 . S
C424 C423 1.391 . S
C424 C425 1.399 . S
C425 C424 1.399 . S
C425 C428 1.396 . S
C425 C437 1.453 . S
C425 C438 1.684 . S
H426 C450 0.948 . S
C427 C423 1.397 . S
C427 C428 1.394 . S
C427 C446 1.723 . S
C428 C425 1.396 . S
C428 C427 1.394 . S
C428 C458 1.723 . S
H429 C452 0.947 . S
H430 C453 0.948 . S
H431 C459 0.982 . S
H432 C460 0.979 . S
H433 C460 0.980 . S
H434 C460 0.983 . S
H435 C459 0.979 . S
H436 C459 0.977 . S
C437 C425 1.453 . S
C437 H466 0.982 . S
C437 H467 0.979 . S
C437 H468 0.977 . S
C438 C425 1.684 . S
C438 H463 0.979 . S
C438 H464 0.980 . S
C438 H465 0.983 . S
C439 C440 1.391 1_556 S
C439 C444 1.391 . S
C439 H469 0.948 . S
C440 C439 1.391 1_554 S
C440 C441 1.391 1_554 S
C441 C440 1.391 1_556 S
C441 C442 1.392 . S
C441 H470 0.968 . S
C442 C441 1.392 . S
C442 C443 1.419 . S
C442 H471 0.948 . S
C443 C442 1.419 . S
C443 C444 1.391 . S
C443 C447 1.397 . S
C444 C439 1.391 . S
C444 C443 1.391 . S
C444 C445 1.399 . S
C445 C444 1.399 . S
C445 C446 1.396 . S
C445 C448 1.453 . S
C445 C449 1.684 . S
C446 C427 1.723 . S
C446 C445 1.396 . S
C446 C447 1.394 . S
C447 C443 1.397 . S
C447 C446 1.394 . S
C447 C457 1.723 . S
C448 C445 1.453 . S
C448 H472 0.982 . S
C448 H473 0.979 . S
C448 H474 0.977 . S
C449 C445 1.684 . S
C449 H475 0.979 . S
C449 H476 0.980 . S
C449 H477 0.983 . S
C450 H426 0.948 . S
C450 C451 1.391 . S
C450 C455 1.391 . S
C451 C450 1.391 . S
C451 C452 1.391 . S
C452 H429 0.947 . S
C452 C451 1.391 . S
C452 C453 1.392 . S
C453 H430 0.948 . S
C453 C452 1.392 . S
C453 C454 1.419 . S
C454 C453 1.419 . S
C454 C455 1.391 . S
C454 C458 1.397 . S
C455 C450 1.391 . S
C455 C454 1.391 . S
C455 C456 1.399 . S
C456 C455 1.399 . S
C456 C457 1.396 . S
C456 C459 1.453 . S
C456 C460 1.684 . S
C457 C447 1.723 . S
C457 C456 1.396 . S
C457 C458 1.394 . S
C458 C428 1.723 . S
C458 C454 1.397 . S
C458 C457 1.394 . S
C459 H431 0.982 . S
C459 H435 0.979 . S
C459 H436 0.977 . S
C459 C456 1.453 . S
C460 H432 0.979 . S
C460 H433 0.980 . S
C460 H434 0.983 . S
C460 C456 1.684 . S
H461 C479 0.948 . S
H462 C420 0.948 . S
H463 C438 0.979 . S
H464 C438 0.980 . S
H465 C438 0.983 . S
H466 C437 0.982 . S
H467 C437 0.979 . S
H468 C437 0.977 . S
H469 C439 0.948 . S
H470 C441 0.968 . S
H471 C442 0.948 . S
H472 C448 0.982 . S
H473 C448 0.979 . S
H474 C448 0.977 . S
H475 C449 0.979 . S
H476 C449 0.980 . S
H477 C449 0.983 . S
H478 C422 0.947 . S
C479 C422 1.392 . S
C479 C423 1.419 . S
C479 H461 0.948 . S
Eu480 N509 2.600 . S
Eu480 N515 2.562 . S
Eu480 O524 2.462 . S
Eu480 O525 2.373 . S
Eu480 O527 2.432 . S
Eu480 O528 2.296 . S
Eu480 O532 2.335 . S
Eu480 O535 2.372 . S
Eu480 C544 2.787 . S
C481 N482 1.365 . S
C481 C484 1.405 . S
C481 C488 1.448 . S
N482 C481 1.365 . S
N482 C485 1.319 . S
N482 Eu491 2.600 . S
C483 C485 1.397 . S
C483 C486 1.367 . S
C483 H503 0.931 . S
C484 C481 1.405 . S
C484 C486 1.403 . S
C484 C490 1.439 . S
C485 N482 1.319 . S
C485 C483 1.397 . S
C485 H496 0.930 . S
C486 C483 1.367 . S
C486 C484 1.403 . S
C486 H507 0.929 . S
C487 C488 1.430 . S
C487 C489 1.387 . S
C487 C493 1.404 . S
C488 C481 1.448 . S
C488 C487 1.430 . S
C488 N492 1.351 . S
C489 C487 1.387 . S
C489 C490 1.374 . S
C489 H504 0.931 . S
C490 C484 1.439 . S
C490 C489 1.374 . S
C490 H505 0.931 . S
Eu491 N482 2.600 . S
Eu491 N492 2.562 . S
Eu491 O526 2.328 1_655 S
Eu491 O529 2.372 . S
Eu491 O530 2.462 . S
Eu491 O531 2.373 . S
Eu491 O533 2.432 . S
Eu491 O534 2.291 1_655 S
Eu491 C555 2.787 . S
N492 C488 1.351 . S
N492 Eu491 2.562 . S
N492 C494 1.325 . S
C493 C487 1.404 . S
C493 C495 1.366 . S
C493 H501 0.930 . S
C494 N492 1.325 . S
C494 C495 1.416 . S
C494 H500 0.929 . S
C495 C493 1.366 . S
C495 C494 1.416 . S
C495 H497 0.930 . S
H496 C485 0.930 . S
H497 C495 0.930 . S
H498 C513 0.930 . S
H499 C520 0.930 . S
H500 C494 0.929 . S
H501 C493 0.930 . S
H502 C516 0.929 . S
H503 C483 0.931 . S
H504 C489 0.931 . S
H505 C490 0.931 . S
H506 C511 0.931 . S
H507 C486 0.929 . S
H508 C519 0.930 . S
N509 Eu480 2.600 . S
N509 C510 1.365 . S
N509 C513 1.319 . S
C510 N509 1.365 . S
C510 C512 1.405 . S
C510 C518 1.448 . S
C511 H506 0.931 . S
C511 C513 1.397 . S
C511 C514 1.367 . S
C512 C510 1.405 . S
C512 C514 1.403 . S
C512 C545 1.439 . S
C513 H498 0.930 . S
C513 N509 1.319 . S
C513 C511 1.397 . S
C514 C511 1.367 . S
C514 C512 1.403 . S
C514 H521 0.929 . S
N515 Eu480 2.562 . S
N515 C516 1.325 . S
N515 C518 1.351 . S
C516 H502 0.929 . S
C516 N515 1.325 . S
C516 C520 1.416 . S
C517 C518 1.430 . S
C517 C519 1.404 . S
C517 C546 1.387 . S
C518 C510 1.448 . S
C518 N515 1.351 . S
C518 C517 1.430 . S
C519 H508 0.930 . S
C519 C517 1.404 . S
C519 C520 1.366 . S
C520 H499 0.930 . S
C520 C516 1.416 . S
C520 C519 1.366 . S
H521 C514 0.929 . S
H522 C545 0.931 . S
H523 C546 0.931 . S
O524 Eu480 2.462 . S
O524 C544 1.252 . S
O525 Eu480 2.373 . S
O525 C536 1.249 . S
O526 Eu491 2.328 1_455 S
O526 C536 1.272 . S
O527 Eu480 2.432 . S
O527 C544 1.268 . S
O528 Eu480 2.296 . S
O528 C543 1.249 1_455 S
O529 Eu491 2.372 . S
O529 C543 1.257 . S
O530 Eu491 2.462 . S
O530 C555 1.252 . S
O531 Eu491 2.373 . S
O531 C547 1.249 . S
O532 Eu480 2.335 . S
O532 C547 1.264 1_455 S
O533 Eu491 2.432 . S
O533 C555 1.268 . S
O534 Eu491 2.291 1_455 S
O534 C554 1.255 . S
O535 Eu480 2.372 . S
O535 C554 1.257 . S
C536 O525 1.249 . S
C536 O526 1.272 . S
C537 C540 1.382 . S
C537 C542 1.390 . S
C537 C544 1.506 . S
C538 C539 1.398 . S
C538 C542 1.392 . S
C539 C538 1.398 . S
C539 C541 1.372 . S
C539 H556 0.931 . S
C540 C537 1.382 . S
C540 C541 1.390 . S
C540 H557 0.931 . S
C541 C539 1.372 . S
C541 C540 1.390 . S
C541 H558 0.929 . S
C542 C537 1.390 . S
C542 C538 1.392 . S
C542 H559 0.930 . S
C543 O528 1.249 1_655 S
C543 O529 1.257 . S
C544 Eu480 2.787 . S
C544 O524 1.252 . S
C544 O527 1.268 . S
C544 C537 1.506 . S
C545 C512 1.439 . S
C545 H522 0.931 . S
C545 C546 1.374 . S
C546 C517 1.387 . S
C546 H523 0.931 . S
C546 C545 1.374 . S
C547 O531 1.249 . S
C547 O532 1.264 1_655 S
C548 C551 1.382 . S
C548 C552 1.390 . S
C548 C555 1.506 . S
C549 C550 1.398 . S
C549 C552 1.392 . S
C550 C549 1.398 . S
C550 C553 1.372 . S
C550 H560 0.931 . S
C551 C548 1.382 . S
C551 C553 1.390 . S
C551 H561 0.931 . S
C552 C548 1.390 . S
C552 C549 1.392 . S
C552 H562 0.930 . S
C553 C550 1.372 . S
C553 C551 1.390 . S
C553 H563 0.929 . S
C554 O534 1.255 . S
C554 O535 1.257 . S
C555 Eu491 2.787 . S
C555 O530 1.252 . S
C555 O533 1.268 . S
C555 C548 1.506 . S
H556 C539 0.931 . S
H557 C540 0.931 . S
H558 C541 0.929 . S
H559 C542 0.930 . S
H560 C550 0.931 . S
H561 C551 0.931 . S
H562 C552 0.930 . S
H563 C553 0.929 . S
Eu564 N593 2.600 . S
Eu564 N599 2.562 . S
Eu564 O608 2.462 . S
Eu564 O609 2.373 . S
Eu564 O611 2.432 . S
Eu564 O612 2.291 . S
Eu564 O616 2.335 . S
Eu564 O619 2.372 . S
Eu564 C628 2.787 . S
C565 N566 1.365 . S
C565 C568 1.405 . S
C565 C572 1.448 . S
N566 C565 1.365 . S
N566 C569 1.319 . S
N566 Eu575 2.600 . S
C567 C569 1.397 . S
C567 C570 1.367 . S
C567 H587 0.931 . S
C568 C565 1.405 . S
C568 C570 1.403 . S
C568 C574 1.439 . S
C569 N566 1.319 . S
C569 C567 1.397 . S
C569 H580 0.930 . S
C570 C567 1.367 . S
C570 C568 1.403 . S
C570 H591 0.929 . S
C571 C572 1.430 . S
C571 C573 1.387 . S
C571 C577 1.404 . S
C572 C565 1.448 . S
C572 C571 1.430 . S
C572 N576 1.351 . S
C573 C571 1.387 . S
C573 C574 1.374 . S
C573 H588 0.931 . S
C574 C568 1.439 . S
C574 C573 1.374 . S
C574 H589 0.931 . S
Eu575 N566 2.600 . S
Eu575 N576 2.562 . S
Eu575 O610 2.335 . S
Eu575 O613 2.372 . S
Eu575 O614 2.462 . S
Eu575 O615 2.373 . S
Eu575 O617 2.432 . S
Eu575 O618 2.291 . S
Eu575 C639 2.787 . S
N576 C572 1.351 . S
N576 Eu575 2.562 . S
N576 C578 1.325 . S
C577 C571 1.404 . S
C577 C579 1.366 . S
C577 H585 0.930 . S
C578 N576 1.325 . S
C578 C579 1.416 . S
C578 H584 0.929 . S
C579 C577 1.366 . S
C579 C578 1.416 . S
C579 H581 0.930 . S
H580 C569 0.930 . S
H581 C579 0.930 . S
H582 C597 0.930 . S
H583 C604 0.930 . S
H584 C578 0.929 . S
H585 C577 0.930 . S
H586 C600 0.929 . S
H587 C567 0.931 . S
H588 C573 0.931 . S
H589 C574 0.931 . S
H590 C595 0.931 . S
H591 C570 0.929 . S
H592 C603 0.930 . S
N593 Eu564 2.600 . S
N593 C594 1.365 . S
N593 C597 1.319 . S
C594 N593 1.365 . S
C594 C596 1.405 . S
C594 C602 1.448 . S
C595 H590 0.931 . S
C595 C597 1.397 . S
C595 C598 1.367 . S
C596 C594 1.405 . S
C596 C598 1.403 . S
C596 C629 1.439 . S
C597 H582 0.930 . S
C597 N593 1.319 . S
C597 C595 1.397 . S
C598 C595 1.367 . S
C598 C596 1.403 . S
C598 H605 0.929 . S
N599 Eu564 2.562 . S
N599 C600 1.325 . S
N599 C602 1.351 . S
C600 H586 0.929 . S
C600 N599 1.325 . S
C600 C604 1.416 . S
C601 C602 1.430 . S
C601 C603 1.404 . S
C601 C630 1.387 . S
C602 C594 1.448 . S
C602 N599 1.351 . S
C602 C601 1.430 . S
C603 H592 0.930 . S
C603 C601 1.404 . S
C603 C604 1.366 . S
C604 H583 0.930 . S
C604 C600 1.416 . S
C604 C603 1.366 . S
H605 C598 0.929 . S
H606 C629 0.931 . S
H607 C630 0.931 . S
O608 Eu564 2.462 . S
O608 C628 1.252 . S
O609 Eu564 2.373 . S
O609 C620 1.249 . S
O610 Eu575 2.335 . S
O610 C620 1.264 . S
O611 Eu564 2.432 . S
O611 C628 1.268 . S
O612 Eu564 2.291 . S
O612 C627 1.255 . S
O613 Eu575 2.372 . S
O613 C627 1.257 . S
O614 Eu575 2.462 . S
O614 C639 1.252 . S
O615 Eu575 2.373 . S
O615 C631 1.249 . S
O616 Eu564 2.335 . S
O616 C631 1.264 . S
O617 Eu575 2.432 . S
O617 C639 1.268 . S
O618 Eu575 2.291 . S
O618 C638 1.255 . S
O619 Eu564 2.372 . S
O619 C638 1.257 . S
C620 O609 1.249 . S
C620 O610 1.264 . S
C621 C624 1.382 . S
C621 C626 1.390 . S
C621 C628 1.506 . S
C622 C623 1.398 . S
C622 C626 1.392 . S
C623 C622 1.398 . S
C623 C625 1.372 . S
C623 H640 0.931 . S
C624 C621 1.382 . S
C624 C625 1.390 . S
C624 H641 0.931 . S
C625 C623 1.372 . S
C625 C624 1.390 . S
C625 H642 0.929 . S
C626 C621 1.390 . S
C626 C622 1.392 . S
C626 H643 0.930 . S
C627 O612 1.255 . S
C627 O613 1.257 . S
C628 Eu564 2.787 . S
C628 O608 1.252 . S
C628 O611 1.268 . S
C628 C621 1.506 . S
C629 C596 1.439 . S
C629 H606 0.931 . S
C629 C630 1.374 . S
C630 C601 1.387 . S
C630 H607 0.931 . S
C630 C629 1.374 . S
C631 O615 1.249 . S
C631 O616 1.264 . S
C632 C635 1.382 . S
C632 C636 1.390 . S
C632 C639 1.506 . S
C633 C634 1.398 . S
C633 C636 1.392 . S
C634 C633 1.398 . S
C634 C637 1.372 . S
C634 H644 0.931 . S
C635 C632 1.382 . S
C635 C637 1.390 . S
C635 H645 0.931 . S
C636 C632 1.390 . S
C636 C633 1.392 . S
C636 H646 0.930 . S
C637 C634 1.372 . S
C637 C635 1.390 . S
C637 H647 0.929 . S
C638 O618 1.255 . S
C638 O619 1.257 . S
C639 Eu575 2.787 . S
C639 O614 1.252 . S
C639 O617 1.268 . S
C639 C632 1.506 . S
H640 C623 0.931 . S
H641 C624 0.931 . S
H642 C625 0.929 . S
H643 C626 0.930 . S
H644 C634 0.931 . S
H645 C635 0.931 . S
H646 C636 0.930 . S
H647 C637 0.929 . S
Eu648 N677 2.600 . S
Eu648 N683 2.562 . S
Eu648 O692 2.462 . S
Eu648 O693 2.373 . S
Eu648 O695 2.432 . S
Eu648 O696 2.291 . S
Eu648 O700 2.335 . S
Eu648 O703 2.372 . S
Eu648 C712 2.787 . S
C649 N650 1.365 . S
C649 C652 1.405 . S
C649 C656 1.448 . S
N650 C649 1.365 . S
N650 C653 1.319 . S
N650 Eu659 2.600 . S
C651 C653 1.397 . S
C651 C654 1.367 . S
C651 H671 0.931 . S
C652 C649 1.405 . S
C652 C654 1.403 . S
C652 C658 1.439 . S
C653 N650 1.319 . S
C653 C651 1.397 . S
C653 H664 0.930 . S
C654 C651 1.367 . S
C654 C652 1.403 . S
C654 H675 0.929 . S
C655 C656 1.430 . S
C655 C657 1.387 . S
C655 C661 1.404 . S
C656 C649 1.448 . S
C656 C655 1.430 . S
C656 N660 1.351 . S
C657 C655 1.387 . S
C657 C658 1.374 . S
C657 H672 0.931 . S
C658 C652 1.439 . S
C658 C657 1.374 . S
C658 H673 0.931 . S
Eu659 N650 2.600 . S
Eu659 N660 2.562 . S
Eu659 O694 2.335 1_655 S
Eu659 O697 2.372 . S
Eu659 O698 2.462 . S
Eu659 O699 2.373 . S
Eu659 O701 2.432 . S
Eu659 O702 2.291 1_655 S
Eu659 C723 2.787 . S
N660 C656 1.351 . S
N660 Eu659 2.562 . S
N660 C662 1.325 . S
C661 C655 1.404 . S
C661 C663 1.366 . S
C661 H669 0.930 . S
C662 N660 1.325 . S
C662 C663 1.416 . S
C662 H668 0.929 . S
C663 C661 1.366 . S
C663 C662 1.416 . S
C663 H665 0.930 . S
H664 C653 0.930 . S
H665 C663 0.930 . S
H666 C681 0.930 . S
H667 C688 0.930 . S
H668 C662 0.929 . S
H669 C661 0.930 . S
H670 C684 0.929 . S
H671 C651 0.931 . S
H672 C657 0.931 . S
H673 C658 0.931 . S
H674 C679 0.931 . S
H675 C654 0.929 . S
H676 C687 0.930 . S
N677 Eu648 2.600 . S
N677 C678 1.365 . S
N677 C681 1.319 . S
C678 N677 1.365 . S
C678 C680 1.405 . S
C678 C686 1.448 . S
C679 H674 0.931 . S
C679 C681 1.397 . S
C679 C682 1.367 . S
C680 C678 1.405 . S
C680 C682 1.403 . S
C680 C713 1.439 . S
C681 H666 0.930 . S
C681 N677 1.319 . S
C681 C679 1.397 . S
C682 C679 1.367 . S
C682 C680 1.403 . S
C682 H689 0.929 . S
N683 Eu648 2.562 . S
N683 C684 1.325 . S
N683 C686 1.351 . S
C684 H670 0.929 . S
C684 N683 1.325 . S
C684 C688 1.416 . S
C685 C686 1.430 . S
C685 C687 1.404 . S
C685 C714 1.387 . S
C686 C678 1.448 . S
C686 N683 1.351 . S
C686 C685 1.430 . S
C687 H676 0.930 . S
C687 C685 1.404 . S
C687 C688 1.366 . S
C688 H667 0.930 . S
C688 C684 1.416 . S
C688 C687 1.366 . S
H689 C682 0.929 . S
H690 C713 0.931 . S
H691 C714 0.931 . S
O692 Eu648 2.462 . S
O692 C712 1.252 . S
O693 Eu648 2.373 . S
O693 C704 1.249 . S
O694 Eu659 2.335 1_455 S
O694 C704 1.264 . S
O695 Eu648 2.432 . S
O695 C712 1.268 . S
O696 Eu648 2.291 . S
O696 C711 1.255 1_455 S
O697 Eu659 2.372 . S
O697 C711 1.257 . S
O698 Eu659 2.462 . S
O698 C723 1.252 . S
O699 Eu659 2.373 . S
O699 C715 1.249 . S
O700 Eu648 2.335 . S
O700 C715 1.264 1_455 S
O701 Eu659 2.432 . S
O701 C723 1.268 . S
O702 Eu659 2.291 1_455 S
O702 C722 1.255 . S
O703 Eu648 2.372 . S
O703 C722 1.257 . S
C704 O693 1.249 . S
C704 O694 1.264 . S
C705 C708 1.382 . S
C705 C710 1.390 . S
C705 C712 1.506 . S
C706 C707 1.398 . S
C706 C710 1.392 . S
C707 C706 1.398 . S
C707 C709 1.372 . S
C707 H724 0.931 . S
C708 C705 1.382 . S
C708 C709 1.390 . S
C708 H725 0.931 . S
C709 C707 1.372 . S
C709 C708 1.390 . S
C709 H726 0.929 . S
C710 C705 1.390 . S
C710 C706 1.392 . S
C710 H727 0.930 . S
C711 O696 1.255 1_655 S
C711 O697 1.257 . S
C712 Eu648 2.787 . S
C712 O692 1.252 . S
C712 O695 1.268 . S
C712 C705 1.506 . S
C713 C680 1.439 . S
C713 H690 0.931 . S
C713 C714 1.374 . S
C714 C685 1.387 . S
C714 H691 0.931 . S
C714 C713 1.374 . S
C715 O699 1.249 . S
C715 O700 1.264 1_655 S
C716 C719 1.382 . S
C716 C720 1.390 . S
C716 C723 1.506 . S
C717 C718 1.398 . S
C717 C720 1.392 . S
C718 C717 1.398 . S
C718 C721 1.372 . S
C718 H728 0.931 . S
C719 C716 1.382 . S
C719 C721 1.390 . S
C719 H729 0.931 . S
C720 C716 1.390 . S
C720 C717 1.392 . S
C720 H730 0.930 . S
C721 C718 1.372 . S
C721 C719 1.390 . S
C721 H731 0.929 . S
C722 O702 1.255 . S
C722 O703 1.257 . S
C723 Eu659 2.787 . S
C723 O698 1.252 . S
C723 O701 1.268 . S
C723 C716 1.506 . S
H724 C707 0.931 . S
H725 C708 0.931 . S
H726 C709 0.929 . S
H727 C710 0.930 . S
H728 C718 0.931 . S
H729 C719 0.931 . S
H730 C720 0.930 . S
H731 C721 0.929 . S
Eu732 N761 2.600 . S
Eu732 N767 2.562 . S
Eu732 O776 2.462 . S
Eu732 O777 2.373 . S
Eu732 O779 2.432 . S
Eu732 O780 2.291 . S
Eu732 O784 2.335 . S
Eu732 O787 2.372 . S
Eu732 C796 2.787 . S
C733 N734 1.365 . S
C733 C736 1.405 . S
C733 C740 1.448 . S
N734 C733 1.365 . S
N734 C737 1.319 . S
N734 Eu743 2.600 . S
C735 C737 1.397 . S
C735 C738 1.367 . S
C735 H755 0.931 . S
C736 C733 1.405 . S
C736 C738 1.403 . S
C736 C742 1.439 . S
C737 N734 1.319 . S
C737 C735 1.397 . S
C737 H748 0.930 . S
C738 C735 1.367 . S
C738 C736 1.403 . S
C738 H759 0.929 . S
C739 C740 1.430 . S
C739 C741 1.387 . S
C739 C745 1.404 . S
C740 C733 1.448 . S
C740 C739 1.430 . S
C740 N744 1.351 . S
C741 C739 1.387 . S
C741 C742 1.374 . S
C741 H756 0.931 . S
C742 C736 1.439 . S
C742 C741 1.374 . S
C742 H757 0.931 . S
Eu743 N734 2.600 . S
Eu743 N744 2.562 . S
Eu743 O778 2.335 . S
Eu743 O781 2.372 . S
Eu743 O782 2.462 . S
Eu743 O783 2.373 . S
Eu743 O785 2.432 . S
Eu743 O786 2.291 . S
Eu743 C807 2.787 . S
N744 C740 1.351 . S
N744 Eu743 2.562 . S
N744 C746 1.325 . S
C745 C739 1.404 . S
C745 C747 1.366 . S
C745 H753 0.930 . S
C746 N744 1.325 . S
C746 C747 1.416 . S
C746 H752 0.929 . S
C747 C745 1.366 . S
C747 C746 1.416 . S
C747 H749 0.930 . S
H748 C737 0.930 . S
H749 C747 0.930 . S
H750 C765 0.930 . S
H751 C772 0.930 . S
H752 C746 0.929 . S
H753 C745 0.930 . S
H754 C768 0.929 . S
H755 C735 0.931 . S
H756 C741 0.931 . S
H757 C742 0.931 . S
H758 C763 0.931 . S
H759 C738 0.929 . S
H760 C771 0.930 . S
N761 Eu732 2.600 . S
N761 C762 1.365 . S
N761 C765 1.319 . S
C762 N761 1.365 . S
C762 C764 1.405 . S
C762 C770 1.448 . S
C763 H758 0.931 . S
C763 C765 1.397 . S
C763 C766 1.367 . S
C764 C762 1.405 . S
C764 C766 1.403 . S
C764 C797 1.439 . S
C765 H750 0.930 . S
C765 N761 1.319 . S
C765 C763 1.397 . S
C766 C763 1.367 . S
C766 C764 1.403 . S
C766 H773 0.929 . S
N767 Eu732 2.562 . S
N767 C768 1.325 . S
N767 C770 1.351 . S
C768 H754 0.929 . S
C768 N767 1.325 . S
C768 C772 1.416 . S
C769 C770 1.430 . S
C769 C771 1.404 . S
C769 C798 1.387 . S
C770 C762 1.448 . S
C770 N767 1.351 . S
C770 C769 1.430 . S
C771 H760 0.930 . S
C771 C769 1.404 . S
C771 C772 1.366 . S
C772 H751 0.930 . S
C772 C768 1.416 . S
C772 C771 1.366 . S
H773 C766 0.929 . S
H774 C797 0.931 . S
H775 C798 0.931 . S
O776 Eu732 2.462 . S
O776 C796 1.252 . S
O777 Eu732 2.373 . S
O777 C788 1.249 . S
O778 Eu743 2.335 . S
O778 C788 1.264 . S
O779 Eu732 2.432 . S
O779 C796 1.268 . S
O780 Eu732 2.291 . S
O780 C795 1.255 . S
O781 Eu743 2.372 . S
O781 C795 1.257 . S
O782 Eu743 2.462 . S
O782 C807 1.252 . S
O783 Eu743 2.373 . S
O783 C799 1.249 . S
O784 Eu732 2.335 . S
O784 C799 1.264 . S
O785 Eu743 2.432 . S
O785 C807 1.268 . S
O786 Eu743 2.291 . S
O786 C806 1.255 . S
O787 Eu732 2.372 . S
O787 C806 1.257 . S
C788 O777 1.249 . S
C788 O778 1.264 . S
C789 C792 1.382 . S
C789 C794 1.390 . S
C789 C796 1.506 . S
C790 C791 1.398 . S
C790 C794 1.392 . S
C791 C790 1.398 . S
C791 C793 1.372 . S
C791 H808 0.931 . S
C792 C789 1.382 . S
C792 C793 1.390 . S
C792 H809 0.931 . S
C793 C791 1.372 . S
C793 C792 1.390 . S
C793 H810 0.929 . S
C794 C789 1.390 . S
C794 C790 1.392 . S
C794 H811 0.930 . S
C795 O780 1.255 . S
C795 O781 1.257 . S
C796 Eu732 2.787 . S
C796 O776 1.252 . S
C796 O779 1.268 . S
C796 C789 1.506 . S
C797 C764 1.439 . S
C797 H774 0.931 . S
C797 C798 1.374 . S
C798 C769 1.387 . S
C798 H775 0.931 . S
C798 C797 1.374 . S
C799 O783 1.249 . S
C799 O784 1.264 . S
C800 C803 1.382 . S
C800 C804 1.390 . S
C800 C807 1.506 . S
C801 C802 1.398 . S
C801 C804 1.392 . S
C802 C801 1.398 . S
C802 C805 1.372 . S
C802 H812 0.931 . S
C803 C800 1.382 . S
C803 C805 1.390 . S
C803 H813 0.931 . S
C804 C800 1.390 . S
C804 C801 1.392 . S
C804 H814 0.930 . S
C805 C802 1.372 . S
C805 C803 1.390 . S
C805 H815 0.929 . S
C806 O786 1.255 . S
C806 O787 1.257 . S
C807 Eu743 2.787 . S
C807 O782 1.252 . S
C807 O785 1.268 . S
C807 C800 1.506 . S
H808 C791 0.931 . S
H809 C792 0.931 . S
H810 C793 0.929 . S
H811 C794 0.930 . S
H812 C802 0.931 . S
H813 C803 0.931 . S
H814 C804 0.930 . S
H815 C805 0.929 . S
C816 C817 1.369 . S
C816 C818 1.419 . S
C816 H820 0.930 1_545 S
C817 C816 1.369 . S
C817 C826 1.429 . S
C818 C816 1.419 . S
C818 C819 1.363 . S
C818 H821 0.929 . S
C819 C818 1.363 . S
C819 C825 1.428 . S
H820 C816 0.930 1_565 S
H821 C818 0.929 . S
S822 N823 1.613 . S
S822 N824 1.610 . S
N823 S822 1.613 . S
N823 C826 1.350 . S
N824 S822 1.610 . S
N824 C825 1.351 . S
C825 C819 1.428 . S
C825 N824 1.351 . S
C825 C826 1.434 . S
C826 C817 1.429 . S
C826 N823 1.350 . S
C826 C825 1.434 . S
C827 C828 1.369 . S
C827 C829 1.419 . S
C827 H831 0.930 . S
C828 C827 1.369 . S
C828 C837 1.429 . S
C829 C827 1.419 . S
C829 C830 1.363 . S
C829 H832 0.929 . S
C830 C829 1.363 . S
C830 C836 1.428 . S
H831 C827 0.930 . S
H832 C829 0.929 . S
S833 N834 1.613 . S
S833 N835 1.610 . S
N834 S833 1.613 . S
N834 C837 1.350 . S
N835 S833 1.610 . S
N835 C836 1.351 . S
C836 C830 1.428 . S
C836 N835 1.351 . S
C836 C837 1.434 . S
C837 C828 1.429 . S
C837 N834 1.350 . S
C837 C836 1.434 . S
C838 C839 1.369 . S
C838 C840 1.419 . S
C838 H842 0.930 . S
C839 C838 1.369 . S
C839 C848 1.429 . S
C840 C838 1.419 . S
C840 C841 1.363 . S
C840 H843 0.929 . S
C841 C840 1.363 . S
C841 C847 1.428 . S
H842 C838 0.930 . S
H843 C840 0.929 . S
S844 N845 1.613 . S
S844 N846 1.610 . S
N845 S844 1.613 . S
N845 C848 1.350 . S
N846 S844 1.610 . S
N846 C847 1.351 . S
C847 C841 1.428 . S
C847 N846 1.351 . S
C847 C848 1.434 . S
C848 C839 1.429 . S
C848 N845 1.350 . S
C848 C847 1.434 . S
C849 C850 1.369 . S
C849 C851 1.419 . S
C849 H853 0.930 1_545 S
C850 C849 1.369 . S
C850 C859 1.429 . S
C851 C849 1.419 . S
C851 C852 1.363 . S
C851 H854 0.929 . S
C852 C851 1.363 . S
C852 C858 1.428 . S
H853 C849 0.930 1_565 S
H854 C851 0.929 . S
S855 N856 1.613 . S
S855 N857 1.610 . S
N856 S855 1.613 . S
N856 C859 1.350 . S
N857 S855 1.610 . S
N857 C858 1.351 . S
C858 C852 1.428 . S
C858 N857 1.351 . S
C858 C859 1.434 . S
C859 C850 1.429 . S
C859 N856 1.350 . S
C859 C858 1.434 . S
C860 C861 1.369 . S
C860 C862 1.419 . S
C860 H864 0.930 1_565 S
C861 C860 1.369 . S
C861 C870 1.429 . S
C862 C860 1.419 . S
C862 C863 1.363 . S
C862 H865 0.929 . S
C863 C862 1.363 . S
C863 C869 1.428 . S
H864 C860 0.930 1_545 S
H865 C862 0.929 . S
S866 N867 1.613 . S
S866 N868 1.610 . S
N867 S866 1.613 . S
N867 C870 1.350 . S
N868 S866 1.610 . S
N868 C869 1.351 . S
C869 C863 1.428 . S
C869 N868 1.351 . S
C869 C870 1.434 . S
C870 C861 1.429 . S
C870 N867 1.350 . S
C870 C869 1.434 . S
C871 C872 1.369 . S
C871 C873 1.419 . S
C871 H875 0.930 . S
C872 C871 1.369 . S
C872 C881 1.429 . S
C873 C871 1.419 . S
C873 C874 1.363 . S
C873 H876 0.929 . S
C874 C873 1.363 . S
C874 C880 1.428 . S
H875 C871 0.930 . S
H876 C873 0.929 . S
S877 N878 1.613 . S
S877 N879 1.610 . S
N878 S877 1.613 . S
N878 C881 1.350 . S
N879 S877 1.610 . S
N879 C880 1.351 . S
C880 C874 1.428 . S
C880 N879 1.351 . S
C880 C881 1.434 . S
C881 C872 1.429 . S
C881 N878 1.350 . S
C881 C880 1.434 . S
C882 C883 1.369 . S
C882 C884 1.419 . S
C882 H886 0.930 . S
C883 C882 1.369 . S
C883 C892 1.429 . S
C884 C882 1.419 . S
C884 C885 1.363 . S
C884 H887 0.929 . S
C885 C884 1.363 . S
C885 C891 1.428 . S
H886 C882 0.930 . S
H887 C884 0.929 . S
S888 N889 1.613 . S
S888 N890 1.610 . S
N889 S888 1.613 . S
N889 C892 1.350 . S
N890 S888 1.610 . S
N890 C891 1.351 . S
C891 C885 1.428 . S
C891 N890 1.351 . S
C891 C892 1.434 . S
C892 C883 1.429 . S
C892 N889 1.350 . S
C892 C891 1.434 . S
C893 C894 1.369 . S
C893 C895 1.419 . S
C893 H897 0.930 . S
C894 C893 1.369 . S
C894 C903 1.429 . S
C895 C893 1.419 . S
C895 C896 1.363 . S
C895 H898 0.929 . S
C896 C895 1.363 . S
C896 C902 1.428 . S
H897 C893 0.930 . S
H898 C895 0.929 . S
S899 N900 1.613 . S
S899 N901 1.610 1_545 S
N900 S899 1.613 . S
N900 C903 1.350 1_545 S
N901 S899 1.610 1_565 S
N901 C902 1.351 . S
C902 C896 1.428 . S
C902 N901 1.351 . S
C902 C903 1.434 . S
C903 C894 1.429 . S
C903 N900 1.350 1_565 S
C903 C902 1.434 . S
C904 C905 1.369 . S
C904 C906 1.419 . S
C904 H908 0.930 . S
C905 C904 1.369 . S
C905 C914 1.429 . S
C906 C904 1.419 . S
C906 C907 1.363 . S
C906 H909 0.929 . S
C907 C906 1.363 . S
C907 C913 1.428 . S
H908 C904 0.930 . S
H909 C906 0.929 . S
S910 N911 1.613 . S
S910 N912 1.610 . S
N911 S910 1.613 . S
N911 C914 1.350 . S
N912 S910 1.610 . S
N912 C913 1.351 . S
C913 C907 1.428 . S
C913 N912 1.351 . S
C913 C914 1.434 . S
C914 C905 1.429 . S
C914 N911 1.350 . S
C914 C913 1.434 . S
C915 C916 1.369 . S
C915 C917 1.419 . S
C915 H919 0.930 . S
C916 C915 1.369 . S
C916 C925 1.429 . S
C917 C915 1.419 . S
C917 C918 1.363 . S
C917 H920 0.929 . S
C918 C917 1.363 . S
C918 C924 1.428 . S
H919 C915 0.930 . S
H920 C917 0.929 . S
S921 N922 1.613 . S
S921 N923 1.610 . S
N922 S921 1.613 . S
N922 C925 1.350 . S
N923 S921 1.610 . S
N923 C924 1.351 . S
C924 C918 1.428 . S
C924 N923 1.351 . S
C924 C925 1.434 . S
C925 C916 1.429 . S
C925 N922 1.350 . S
C925 C924 1.434 . S
C926 C927 1.369 . S
C926 C928 1.419 . S
C926 H930 0.930 . S
C927 C926 1.369 . S
C927 C936 1.429 . S
C928 C926 1.419 . S
C928 C929 1.363 . S
C928 H931 0.929 . S
C929 C928 1.363 . S
C929 C935 1.428 . S
H930 C926 0.930 . S
H931 C928 0.929 . S
S932 N933 1.613 . S
S932 N934 1.610 . S
N933 S932 1.613 . S
N933 C936 1.350 . S
N934 S932 1.610 . S
N934 C935 1.351 . S
C935 C929 1.428 . S
C935 N934 1.351 . S
C935 C936 1.434 . S
C936 C927 1.429 . S
C936 N933 1.350 . S
C936 C935 1.434 . S
C937 C938 1.369 . S
C937 C939 1.419 . S
C937 H941 0.930 . S
C938 C937 1.369 . S
C938 C947 1.429 . S
C939 C937 1.419 . S
C939 C940 1.363 . S
C939 H942 0.929 . S
C940 C939 1.363 . S
C940 C946 1.428 . S
H941 C937 0.930 . S
H942 C939 0.929 . S
S943 N944 1.613 . S
S943 N945 1.610 . S
N944 S943 1.613 . S
N944 C947 1.350 . S
N945 S943 1.610 . S
N945 C946 1.351 . S
C946 C940 1.428 . S
C946 N945 1.351 . S
C946 C947 1.434 . S
C947 C938 1.429 . S
C947 N944 1.350 . S
C947 C946 1.434 . S
C948 C949 1.369 . S
C948 C950 1.419 . S
C948 H952 0.930 . S
C949 C948 1.369 . S
C949 C958 1.429 . S
C950 C948 1.419 . S
C950 C951 1.363 . S
C950 H953 0.929 . S
C951 C950 1.363 . S
C951 C957 1.428 . S
H952 C948 0.930 . S
H953 C950 0.929 . S
S954 N955 1.613 . S
S954 N956 1.610 . S
N955 S954 1.613 . S
N955 C958 1.350 . S
N956 S954 1.610 . S
N956 C957 1.351 . S
C957 C951 1.428 . S
C957 N956 1.351 . S
C957 C958 1.434 . S
C958 C949 1.429 . S
C958 N955 1.350 . S
C958 C957 1.434 . S
C959 C960 1.369 . S
C959 C961 1.419 . S
C959 H963 0.930 . S
C960 C959 1.369 . S
C960 C969 1.429 . S
C961 C959 1.419 . S
C961 C962 1.363 . S
C961 H964 0.929 . S
C962 C961 1.363 . S
C962 C968 1.428 . S
H963 C959 0.930 . S
H964 C961 0.929 . S
S965 N966 1.613 . S
S965 N967 1.610 . S
N966 S965 1.613 . S
N966 C969 1.350 . S
N967 S965 1.610 . S
N967 C968 1.351 . S
C968 C962 1.428 . S
C968 N967 1.351 . S
C968 C969 1.434 . S
C969 C960 1.429 . S
C969 N966 1.350 . S
C969 C968 1.434 . S
C970 C971 1.369 . S
C970 C972 1.419 . S
C970 H974 0.930 . S
C971 C970 1.369 . S
C971 C980 1.429 . S
C972 C970 1.419 . S
C972 C973 1.363 . S
C972 H975 0.929 . S
C973 C972 1.363 . S
C973 C979 1.428 . S
H974 C970 0.930 . S
H975 C972 0.929 . S
S976 N977 1.613 . S
S976 N978 1.610 . S
N977 S976 1.613 . S
N977 C980 1.350 . S
N978 S976 1.610 . S
N978 C979 1.351 . S
C979 C973 1.428 . S
C979 N978 1.351 . S
C979 C980 1.434 . S
C980 C971 1.429 . S
C980 N977 1.350 . S
C980 C979 1.434 . S
C981 C982 1.369 . S
C981 C983 1.419 . S
C981 H985 0.930 . S
C982 C981 1.369 . S
C982 C991 1.429 . S
C983 C981 1.419 . S
C983 C984 1.363 . S
C983 H986 0.929 . S
C984 C983 1.363 . S
C984 C990 1.428 . S
H985 C981 0.930 . S
H986 C983 0.929 . S
S987 N988 1.613 . S
S987 N989 1.610 . S
N988 S987 1.613 . S
N988 C991 1.350 . S
N989 S987 1.610 . S
N989 C990 1.351 . S
C990 C984 1.428 . S
C990 N989 1.351 . S
C990 C991 1.434 . S
C991 C982 1.429 . S
C991 N988 1.350 . S
C991 C990 1.434 . S
C992 C993 1.369 . S
C992 C994 1.419 . S
C992 H996 0.930 . S
C993 C992 1.369 . S
C993 C1002 1.429 . S
C994 C992 1.419 . S
C994 C995 1.363 . S
C994 H997 0.929 . S
C995 C994 1.363 . S
C995 C1001 1.428 . S
H996 C992 0.930 . S
H997 C994 0.929 . S
S998 N999 1.613 1_655 S
S998 N1000 1.610 . S
N999 S998 1.613 1_455 S
N999 C1002 1.350 . S
N1000 S998 1.610 . S
N1000 C1001 1.351 1_655 S
C1001 C995 1.428 . S
C1001 N1000 1.351 1_455 S
C1001 C1002 1.434 . S
C1002 C993 1.429 . S
C1002 N999 1.350 . S
C1002 C1001 1.434 . S
C1003 C1004 1.369 . S
C1003 C1005 1.419 . S
C1003 H1007 0.930 . S
C1004 C1003 1.369 . S
C1004 C1013 1.429 . S
C1005 C1003 1.419 . S
C1005 C1006 1.363 . S
C1005 H1008 0.929 . S
C1006 C1005 1.363 . S
C1006 C1012 1.428 . S
H1007 C1003 0.930 . S
H1008 C1005 0.929 . S
S1009 N1010 1.613 . S
S1009 N1011 1.610 . S
N1010 S1009 1.613 . S
N1010 C1013 1.350 . S
N1011 S1009 1.610 . S
N1011 C1012 1.351 . S
C1012 C1006 1.428 . S
C1012 N1011 1.351 . S
C1012 C1013 1.434 . S
C1013 C1004 1.429 . S
C1013 N1010 1.350 . S
C1013 C1012 1.434 . S
C1014 C1015 1.369 . S
C1014 C1016 1.419 . S
C1014 H1018 0.930 . S
C1015 C1014 1.369 . S
C1015 C1024 1.429 . S
C1016 C1014 1.419 . S
C1016 C1017 1.363 . S
C1016 H1019 0.929 . S
C1017 C1016 1.363 . S
C1017 C1023 1.428 . S
H1018 C1014 0.930 . S
H1019 C1016 0.929 . S
S1020 N1021 1.613 . S
S1020 N1022 1.610 . S
N1021 S1020 1.613 . S
N1021 C1024 1.350 . S
N1022 S1020 1.610 . S
N1022 C1023 1.351 . S
C1023 C1017 1.428 . S
C1023 N1022 1.351 . S
C1023 C1024 1.434 . S
C1024 C1015 1.429 . S
C1024 N1021 1.350 . S
C1024 C1023 1.434 . S
C1025 C1026 1.369 . S
C1025 C1027 1.419 . S
C1025 H1029 0.930 . S
C1026 C1025 1.369 . S
C1026 C1035 1.429 . S
C1027 C1025 1.419 . S
C1027 C1028 1.363 . S
C1027 H1030 0.929 . S
C1028 C1027 1.363 . S
C1028 C1034 1.428 . S
H1029 C1025 0.930 . S
H1030 C1027 0.929 . S
S1031 N1032 1.613 . S
S1031 N1033 1.610 . S
N1032 S1031 1.613 . S
N1032 C1035 1.350 . S
N1033 S1031 1.610 . S
N1033 C1034 1.351 . S
C1034 C1028 1.428 . S
C1034 N1033 1.351 . S
C1034 C1035 1.434 . S
C1035 C1026 1.429 . S
C1035 N1032 1.350 . S
C1035 C1034 1.434 . S
C1036 C1037 1.369 . S
C1036 C1038 1.419 . S
C1036 H1040 0.930 . S
C1037 C1036 1.369 . S
C1037 C1046 1.429 . S
C1038 C1036 1.419 . S
C1038 C1039 1.363 . S
C1038 H1041 0.929 . S
C1039 C1038 1.363 . S
C1039 C1045 1.428 . S
H1040 C1036 0.930 . S
H1041 C1038 0.929 . S
S1042 N1043 1.613 . S
S1042 N1044 1.610 . S
N1043 S1042 1.613 . S
N1043 C1046 1.350 . S
N1044 S1042 1.610 . S
N1044 C1045 1.351 . S
C1045 C1039 1.428 . S
C1045 N1044 1.351 . S
C1045 C1046 1.434 . S
C1046 C1037 1.429 . S
C1046 N1043 1.350 . S
C1046 C1045 1.434 . S
C1047 C1048 1.369 . S
C1047 C1049 1.419 . S
C1047 H1051 0.930 . S
C1048 C1047 1.369 . S
C1048 C1057 1.429 . S
C1049 C1047 1.419 . S
C1049 C1050 1.363 . S
C1049 H1052 0.929 . S
C1050 C1049 1.363 . S
C1050 C1056 1.428 . S
H1051 C1047 0.930 . S
H1052 C1049 0.929 . S
S1053 N1054 1.613 . S
S1053 N1055 1.610 . S
N1054 S1053 1.613 . S
N1054 C1057 1.350 . S
N1055 S1053 1.610 . S
N1055 C1056 1.351 . S
C1056 C1050 1.428 . S
C1056 N1055 1.351 . S
C1056 C1057 1.434 . S
C1057 C1048 1.429 . S
C1057 N1054 1.350 . S
C1057 C1056 1.434 . S
C1058 C1059 1.369 . S
C1058 C1060 1.419 . S
C1058 H1062 0.930 . S
C1059 C1058 1.369 . S
C1059 C1068 1.429 . S
C1060 C1058 1.419 . S
C1060 C1061 1.363 . S
C1060 H1063 0.929 . S
C1061 C1060 1.363 . S
C1061 C1067 1.428 . S
H1062 C1058 0.930 . S
H1063 C1060 0.929 . S
S1064 N1065 1.613 . S
S1064 N1066 1.610 . S
N1065 S1064 1.613 . S
N1065 C1068 1.350 . S
N1066 S1064 1.610 . S
N1066 C1067 1.351 . S
C1067 C1061 1.428 . S
C1067 N1066 1.351 . S
C1067 C1068 1.434 . S
C1068 C1059 1.429 . S
C1068 N1065 1.350 . S
C1068 C1067 1.434 . S
C1069 C1070 1.369 . S
C1069 C1071 1.419 . S
C1069 H1073 0.930 . S
C1070 C1069 1.369 . S
C1070 C1079 1.429 . S
C1071 C1069 1.419 . S
C1071 C1072 1.363 . S
C1071 H1074 0.929 . S
C1072 C1071 1.363 . S
C1072 C1078 1.428 . S
H1073 C1069 0.930 . S
H1074 C1071 0.929 . S
S1075 N1076 1.613 . S
S1075 N1077 1.610 . S
N1076 S1075 1.613 . S
N1076 C1079 1.350 . S
N1077 S1075 1.610 . S
N1077 C1078 1.351 . S
C1078 C1072 1.428 . S
C1078 N1077 1.351 . S
C1078 C1079 1.434 . S
C1079 C1070 1.429 . S
C1079 N1076 1.350 . S
C1079 C1078 1.434 . S
C817 C361 1.446 1_545 S
C819 C554 1.468 . S
C830 C638 1.465 . S
C828 C451 1.460 . S
C841 C631 1.474 . S
C839 C241 1.446 . S
C850 C331 1.459 1_545 S
C852 C547 1.471 . S
C863 C711 1.468 . S
C861 C140 1.443 1_565 S
C874 C795 1.466 . S
C872 C211 1.440 . S
C883 C20 1.433 . S
C885 C788 1.471 . S
C894 C91 1.425 1_565 S
C896 C704 1.474 . S
C907 C538 1.317 . S
C905 C80 1.478 . S
C918 C622 1.330 . S
C916 C1 1.474 . S
C929 C633 1.401 . S
C927 C200 1.520 . S
C940 C549 1.402 . S
C938 C121 1.495 . S
C951 C717 1.322 . S
C949 C320 1.505 . S
C960 C260 1.491 . S
C962 C801 1.317 . S
C973 C790 1.398 . S
C971 C440 1.524 . S
C982 C380 1.504 . S
C984 C706 1.407 . S
C995 C536 1.576 . S
C993 C31 1.554 . S
C1006 C620 1.576 . S
C1004 C61 1.552 . S
C1015 C151 1.545 . S
C1017 C627 1.564 . S
C1028 C543 1.564 . S
C1026 C181 1.548 . S
C1039 C715 1.576 . S
C1037 C271 1.506 . S
C1048 C301 1.584 . S
C1050 C799 1.577 . S
C1059 C391 1.498 . S
C1061 C806 1.566 . S
C1070 C421 1.573 . S
C1072 C722 1.567 . S
