# Generated by pormake.
# Topology ssa, (4,4)-cn, num edge types: 1
# Building blocks:
#     Node 0, Type 0, BuildingBlock: IZENUY_clean_linker_0, # of connection points: 4
#     Node 1, Type 0, BuildingBlock: IZENUY_clean_linker_0, # of connection points: 4
#     Node 2, Type 0, BuildingBlock: IZENUY_clean_linker_0, # of connection points: 4
#     Node 3, Type 0, BuildingBlock: IZENUY_clean_linker_0, # of connection points: 4
#     Node 4, Type 0, BuildingBlock: IZENUY_clean_linker_0, # of connection points: 4
#     Node 5, Type 0, BuildingBlock: IZENUY_clean_linker_0, # of connection points: 4
#     Node 6, Type 1, BuildingBlock: ESEHIV_clean_sbu_0, # of connection points: 4
#     Node 7, Type 1, BuildingBlock: ESEHIV_clean_sbu_0, # of connection points: 4
#     Node 8, Type 1, BuildingBlock: ESEHIV_clean_sbu_0, # of connection points: 4
#     Node 9, Type 1, BuildingBlock: ESEHIV_clean_sbu_0, # of connection points: 4
#     Node 10, Type 1, BuildingBlock: ESEHIV_clean_sbu_0, # of connection points: 4
#     Node 11, Type 1, BuildingBlock: ESEHIV_clean_sbu_0, # of connection points: 4
#     Edge 12, Type (0, 1), BuildingBlock: EZIPEK_clean_linker_0, # of connection points: 2
#     Edge 13, Type (0, 1), BuildingBlock: EZIPEK_clean_linker_0, # of connection points: 2
#     Edge 14, Type (0, 1), BuildingBlock: EZIPEK_clean_linker_0, # of connection points: 2
#     Edge 15, Type (0, 1), BuildingBlock: EZIPEK_clean_linker_0, # of connection points: 2
#     Edge 16, Type (0, 1), BuildingBlock: EZIPEK_clean_linker_0, # of connection points: 2
#     Edge 17, Type (0, 1), BuildingBlock: EZIPEK_clean_linker_0, # of connection points: 2
#     Edge 18, Type (0, 1), BuildingBlock: EZIPEK_clean_linker_0, # of connection points: 2
#     Edge 19, Type (0, 1), BuildingBlock: EZIPEK_clean_linker_0, # of connection points: 2
#     Edge 20, Type (0, 1), BuildingBlock: EZIPEK_clean_linker_0, # of connection points: 2
#     Edge 21, Type (0, 1), BuildingBlock: EZIPEK_clean_linker_0, # of connection points: 2
#     Edge 22, Type (0, 1), BuildingBlock: EZIPEK_clean_linker_0, # of connection points: 2
#     Edge 23, Type (0, 1), BuildingBlock: EZIPEK_clean_linker_0, # of connection points: 2
#     Edge 24, Type (0, 1), BuildingBlock: EZIPEK_clean_linker_0, # of connection points: 2
#     Edge 25, Type (0, 1), BuildingBlock: EZIPEK_clean_linker_0, # of connection points: 2
#     Edge 26, Type (0, 1), BuildingBlock: EZIPEK_clean_linker_0, # of connection points: 2
#     Edge 27, Type (0, 1), BuildingBlock: EZIPEK_clean_linker_0, # of connection points: 2
#     Edge 28, Type (0, 1), BuildingBlock: EZIPEK_clean_linker_0, # of connection points: 2
#     Edge 29, Type (0, 1), BuildingBlock: EZIPEK_clean_linker_0, # of connection points: 2
#     Edge 30, Type (0, 1), BuildingBlock: EZIPEK_clean_linker_0, # of connection points: 2
#     Edge 31, Type (0, 1), BuildingBlock: EZIPEK_clean_linker_0, # of connection points: 2
#     Edge 32, Type (0, 1), BuildingBlock: EZIPEK_clean_linker_0, # of connection points: 2
#     Edge 33, Type (0, 1), BuildingBlock: EZIPEK_clean_linker_0, # of connection points: 2
#     Edge 34, Type (0, 1), BuildingBlock: EZIPEK_clean_linker_0, # of connection points: 2
#     Edge 35, Type (0, 1), BuildingBlock: EZIPEK_clean_linker_0, # of connection points: 2
# Relax obj value: 0.015
# Max RMSD: 0.094
# Mean RMSD: 0.063
data_MOF--net-ssa--node1-ESEHIV_clean_sbu_0--node2-IZENUY_clean_linker_0--edge1-EZIPEK_clean_linker_0
_symmetry_space_group_name_H-M    P1
_symmetry_Int_Tables_number       1
_symmetry_cell_setting            triclinic
loop_
_symmetry_equiv_pos_as_xyz
'x, y, z'
_cell_length_a     39.523406
_cell_length_b     39.624018
_cell_length_c     30.021114
_cell_angle_alpha  90.083529
_cell_angle_beta   90.440785
_cell_angle_gamma 120.18338
loop_
_atom_site_label
_atom_site_type_symbol
_atom_site_fract_x
_atom_site_fract_y
_atom_site_fract_z
_atom_type_partial_charge
H0 H 0.9437 0.42322 1.01955 0.0
H1 H 0.95665 0.53745 1.00206 0.0
H2 H 0.85817 0.43584 0.94452 0.0
H3 H 0.04383 0.55623 0.08583 0.0
H4 H 0.03953 0.44545 0.09802 0.0
H5 H 0.13283 0.54899 0.16038 0.0
N6 N 0.98778 0.49945 0.04461 0.0
N7 N 1.00195 0.48025 0.06167 0.0
C8 C 0.93252 0.44169 1.00804 0.0
C9 C 0.89898 0.42561 0.98074 0.0
C10 C 0.95297 0.4821 1.01755 0.0
C11 C 0.93973 0.50607 0.99767 0.0
C12 C 0.90521 0.48932 0.97101 0.0
C13 C 0.88419 0.44891 0.96564 0.0
C14 C 0.05557 0.53859 0.09856 0.0
C15 C 0.08993 0.5566 0.1243 0.0
C16 C 0.03677 0.49839 0.08882 0.0
C17 C 0.05328 0.47629 0.10581 0.0
C18 C 0.08811 0.4944 0.13206 0.0
C19 C 0.10589 0.53457 0.14098 0.0
H20 H 0.54987 0.05324 0.57503 0.0
H21 H 0.43497 0.03668 0.60043 0.0
H22 H 0.53626 0.12742 0.66854 0.0
H23 H 0.42536 0.97744 0.48761 0.0
H24 H 0.52026 0.95312 0.49542 0.0
H25 H 0.42891 0.89611 0.39638 0.0
N26 N 0.47327 1.01028 0.55111 0.0
N27 N 0.4917 0.99609 0.5325 0.0
C28 C 0.53081 0.06083 0.59273 0.0
C29 C 0.54717 0.09223 0.62295 0.0
C30 C 0.49018 0.04033 0.58433 0.0
C31 C 0.46618 0.05179 0.60707 0.0
C32 C 0.48277 0.08323 0.63782 0.0
C33 C 0.52318 0.10295 0.64539 0.0
C34 C 0.43969 0.9618 0.47637 0.0
C35 C 0.42356 0.9361 0.44031 0.0
C36 C 0.47448 0.96815 0.49698 0.0
C37 C 0.49309 0.94803 0.48036 0.0
C38 C 0.47654 0.9215 0.44398 0.0
C39 C 0.44171 0.9159 0.42452 0.0
H40 H 0.50293 0.45509 0.96948 0.0
H41 H 0.60419 0.57058 0.98197 0.0
H42 H 0.60874 0.48514 0.89845 0.0
H43 H 0.57583 0.62409 0.07771 0.0
H44 H 0.46793 0.51823 0.04408 0.0
H45 H 0.46673 0.6019 0.13354 0.0
N46 N 0.52978 0.52552 1.00879 0.0
N47 N 0.54562 0.55829 0.02775 0.0
C48 C 0.53286 0.47613 0.96101 0.0
C49 C 0.55366 0.46521 0.93154 0.0
C50 C 0.55094 0.51431 0.97962 0.0
C51 C 0.58977 0.54122 0.96834 0.0
C52 C 0.61033 0.53077 0.93911 0.0
C53 C 0.59239 0.49298 0.9209 0.0
C54 C 0.54434 0.60599 0.08007 0.0
C55 C 0.52332 0.61767 0.10818 0.0
C56 C 0.52443 0.57016 0.05593 0.0
C57 C 0.4837 0.54629 0.0608 0.0
C58 C 0.46333 0.55799 0.08869 0.0
C59 C 0.48293 0.59373 0.11118 0.0
H60 H 0.09739 0.5237 0.51917 0.0
H61 H 0.08953 0.62698 0.49274 0.0
H62 H 0.17656 0.60971 0.42833 0.0
H63 H 1.00535 0.56379 0.58744 0.0
H64 H 1.0057 0.45516 0.59426 0.0
H65 H 0.91863 0.46889 0.66451 0.0
N66 N 0.05704 0.55971 0.54026 0.0
N67 N 0.04253 0.52666 0.55798 0.0
C68 C 0.10813 0.55186 0.50354 0.0
C69 C 0.13905 0.56493 0.47374 0.0
C70 C 0.09001 0.57411 0.51128 0.0
C71 C 0.10391 0.61009 0.48828 0.0
C72 C 0.13558 0.62316 0.45813 0.0
C73 C 0.15307 0.60057 0.45224 0.0
C74 C 0.99308 0.53417 0.59946 0.0
C75 C 0.96061 0.51893 0.6275 0.0
C76 C 1.00965 0.51147 0.58706 0.0
C77 C 0.99315 0.47292 0.60365 0.0
C78 C 0.95987 0.45699 0.63148 0.0
C79 C 0.94403 0.48052 0.64316 0.0
H80 H 0.54549 0.06069 0.99741 0.0
H81 H 0.64375 0.04401 0.97207 0.0
H82 H 0.6337 0.13421 0.90435 0.0
H83 H 0.5918 0.9833 0.08372 0.0
H84 H 0.47253 0.95909 0.0726 0.0
H85 H 0.50415 0.89996 0.17045 0.0
N86 N 0.57846 0.01743 1.02074 0.0
N87 N 0.54529 1.00282 0.03826 0.0
C88 C 0.57241 0.06845 0.9802 0.0
C89 C 0.58756 0.09953 0.95004 0.0
C90 C 0.59235 0.04792 0.9884 0.0
C91 C 0.62792 0.05928 0.96573 0.0
C92 C 0.64299 0.09052 0.93505 0.0
C93 C 0.62241 0.11017 0.92775 0.0
C94 C 0.56145 0.96743 0.09383 0.0
C95 C 0.5508 0.94085 0.12876 0.0
C96 C 0.53354 0.97421 0.07279 0.0
C97 C 0.49423 0.9537 0.08795 0.0
C98 C 0.48321 0.92639 0.1233 0.0
C99 C 0.51195 0.92037 0.14312 0.0
H100 H 0.43126 0.44658 0.46552 0.0
H101 H 0.53822 0.55723 0.48236 0.0
H102 H 0.44524 0.54995 0.40095 0.0
H103 H 0.59648 0.53893 0.58187 0.0
H104 H 0.51191 0.42432 0.53126 0.0
H105 H 0.59888 0.43739 0.62695 0.0
N106 N 0.50264 0.48144 0.5056 0.0
N107 N 0.53419 0.50107 0.52686 0.0
C108 C 0.44893 0.47739 0.45817 0.0
C109 C 0.43351 0.49546 0.43028 0.0
C110 C 0.48694 0.49954 0.47743 0.0
C111 C 0.50915 0.53965 0.46814 0.0
C112 C 0.49423 0.55756 0.44052 0.0
C113 C 0.45672 0.53556 0.42173 0.0
C114 C 0.58447 0.50761 0.58129 0.0
C115 C 0.6023 0.4909 0.60739 0.0
C116 C 0.55126 0.48367 0.5539 0.0
C117 C 0.53641 0.44302 0.55282 0.0
C118 C 0.55334 0.42646 0.57966 0.0
C119 C 0.58579 0.4505 0.60652 0.0
Cu120 Cu 0.25198 0.47199 0.27579 0.0
N121 N 0.28304 0.50117 0.22941 0.0
N122 N 0.32661 0.51792 0.17571 0.0
C123 C 0.30198 0.4892 0.20271 0.0
C124 C 0.32215 0.54882 0.18461 0.0
C125 C 0.29482 0.53824 0.21781 0.0
O126 O 0.28072 0.44772 0.30258 0.0
C127 C 0.18913 0.44085 0.21041 0.0
O128 O 0.21115 0.43245 0.18555 0.0
H129 H 0.29997 0.46099 0.20533 0.0
H130 H 0.28539 0.55666 0.23349 0.0
N131 N 0.25366 0.50512 0.31983 0.0
N132 N 0.23132 0.52551 0.37486 0.0
C133 C 0.22447 0.4953 0.34854 0.0
C134 C 0.28064 0.54247 0.32916 0.0
C135 C 0.26662 0.55534 0.36317 0.0
C136 C 0.28088 0.44121 0.34433 0.0
O137 O 0.24986 0.43351 0.36769 0.0
H138 H 0.1977 0.46724 0.34846 0.0
H139 H 0.30798 0.55936 0.31182 0.0
O140 O 0.19769 0.44807 0.25188 0.0
H141 H 0.33887 0.57738 0.16971 0.0
H142 H 0.28042 0.58453 0.37715 0.0
Cu143 Cu 0.79788 0.2445 0.75538 0.0
N144 N 0.76294 0.22572 0.7072 0.0
N145 N 0.70917 0.19214 0.6656 0.0
C146 C 0.72365 0.20898 0.70563 0.0
C147 C 0.7401 0.19861 0.64095 0.0
C148 C 0.7732 0.21922 0.66678 0.0
O149 O 0.7862 0.19899 0.79377 0.0
C150 C 0.85213 0.30983 0.70927 0.0
O151 O 0.82035 0.31248 0.70705 0.0
H152 H 0.70573 0.20704 0.73361 0.0
H153 H 0.80257 0.22658 0.65785 0.0
N154 N 0.79122 0.27661 0.79468 0.0
N155 N 0.80772 0.31427 0.85497 0.0
C156 C 0.81323 0.28856 0.83181 0.0
C157 C 0.77043 0.29504 0.79426 0.0
C158 C 0.78093 0.31881 0.83174 0.0
C159 C 0.75343 0.18508 0.81427 0.0
O160 O 0.73171 0.20099 0.80741 0.0
H161 H 0.83499 0.28057 0.8401 0.0
H162 H 0.75073 0.29286 0.76774 0.0
O163 O 0.8502 0.28021 0.72929 0.0
H164 H 0.73849 0.18714 0.60776 0.0
H165 H 0.77151 0.33942 0.83989 0.0
Cu166 Cu 0.5606 0.78723 0.30682 0.0
N167 N 0.60079 0.83152 0.28115 0.0
N168 N 0.62346 0.88268 0.23643 0.0
C169 C 0.59203 0.84943 0.24926 0.0
C170 C 0.65385 0.88615 0.26082 0.0
C171 C 0.6396 0.85407 0.28875 0.0
O172 O 0.52621 0.80497 0.3333 0.0
C173 C 0.56522 0.74101 0.23943 0.0
O174 O 0.60206 0.76146 0.25206 0.0
H175 H 0.56258 0.83895 0.23683 0.0
H176 H 0.65604 0.84833 0.31351 0.0
N177 N 0.57673 0.76607 0.35161 0.0
N178 N 0.5733 0.71875 0.39439 0.0
C179 C 0.55729 0.72768 0.36015 0.0
C180 C 0.60616 0.78219 0.38181 0.0
C181 C 0.60408 0.75273 0.40853 0.0
C182 C 0.54229 0.83364 0.36099 0.0
O183 O 0.57944 0.84832 0.37125 0.0
H184 H 0.53154 0.7066 0.34178 0.0
H185 H 0.62724 0.81302 0.38457 0.0
O186 O 0.54001 0.74742 0.25858 0.0
H187 H 0.68352 0.91053 0.25956 0.0
H188 H 0.62325 0.75591 0.43614 0.0
Cu189 Cu 0.80114 0.57175 0.78196 0.0
N190 N 0.84018 0.59594 0.73992 0.0
N191 N 0.88466 0.59844 0.69306 0.0
C192 C 0.86171 0.58 0.72782 0.0
C193 C 0.87775 0.62753 0.68255 0.0
C194 C 0.84994 0.62588 0.7118 0.0
O195 O 0.82076 0.54439 0.81969 0.0
C196 C 0.74455 0.53708 0.70887 0.0
O197 O 0.77362 0.54013 0.68492 0.0
H198 H 0.85908 0.55393 0.74274 0.0
H199 H 0.83651 0.64386 0.71122 0.0
N200 N 0.79559 0.60605 0.81892 0.0
N201 N 0.76143 0.61736 0.86923 0.0
C202 C 0.75993 0.59582 0.83404 0.0
C203 C 0.821 0.63581 0.84521 0.0
C204 C 0.79973 0.64313 0.87645 0.0
C205 C 0.8153 0.53744 0.86135 0.0
O206 O 0.78729 0.54039 0.88089 0.0
H207 H 0.73342 0.57019 0.8225 0.0
H208 H 0.85246 0.64867 0.84444 0.0
O209 O 0.74982 0.54384 0.75074 0.0
H210 H 0.89056 0.64725 0.6548 0.0
H211 H 0.81142 0.66315 0.90443 0.0
Cu212 Cu 0.26299 0.78815 0.25622 0.0
N213 N 0.22508 0.76623 0.21154 0.0
N214 N 0.17929 0.71841 0.16982 0.0
C215 C 0.20612 0.72783 0.20233 0.0
C216 C 0.18134 0.75207 0.15749 0.0
C217 C 0.2099 0.78182 0.18349 0.0
O218 O 0.24448 0.74934 0.30507 0.0
C219 C 0.32799 0.83577 0.20269 0.0
O220 O 0.30511 0.84985 0.19268 0.0
H221 H 0.21164 0.70704 0.21949 0.0
H222 H 0.21873 0.81242 0.18219 0.0
N223 N 0.26677 0.83206 0.28263 0.0
N224 N 0.2943 0.88189 0.32998 0.0
C225 C 0.29373 0.84992 0.31461 0.0
C226 C 0.24899 0.8533 0.27758 0.0
C227 C 0.26626 0.8846 0.30717 0.0
C228 C 0.21148 0.74102 0.32213 0.0
O229 O 0.19272 0.75789 0.30598 0.0
H230 H 0.3133 0.83994 0.32593 0.0
H231 H 0.22568 0.84689 0.254 0.0
O232 O 0.31551 0.80696 0.2298 0.0
H233 H 0.16333 0.75477 0.132 0.0
H234 H 0.25938 0.90765 0.31111 0.0
Cu235 Cu 0.51232 0.25855 0.7916 0.0
N236 N 0.54132 0.28302 0.74073 0.0
N237 N 0.54742 0.30797 0.67251 0.0
C238 C 0.53484 0.30674 0.71455 0.0
C239 C 0.56252 0.28414 0.67228 0.0
C240 C 0.55975 0.26973 0.71455 0.0
O241 O 0.49949 0.29508 0.82283 0.0
C242 C 0.48007 0.18499 0.75301 0.0
O243 O 0.51611 0.19345 0.76067 0.0
H244 H 0.51819 0.32016 0.72502 0.0
H245 H 0.56831 0.24889 0.72434 0.0
N246 N 0.54172 0.24621 0.83042 0.0
N247 N 0.55717 0.21023 0.87389 0.0
C248 C 0.52795 0.21499 0.85753 0.0
C249 C 0.58087 0.26212 0.83065 0.0
C250 C 0.59049 0.24 0.85755 0.0
C251 C 0.52802 0.3267 0.83904 0.0
O252 O 0.56381 0.33323 0.83429 0.0
H253 H 0.49713 0.19453 0.86237 0.0
H254 H 0.60078 0.28669 0.81056 0.0
O255 O 0.46929 0.20883 0.76656 0.0
H256 H 0.57344 0.27655 0.64325 0.0
H257 H 0.61948 0.2442 0.86296 0.0
C258 C 0.14463 0.48231 0.1271 0.0
C259 C 0.10911 0.47356 0.14793 0.0
C260 C 0.12253 0.43723 0.2058 0.0
C261 C 0.16068 0.45089 0.18838 0.0
N262 N 0.21066 0.49521 0.13743 0.0
N263 N 0.06564 0.44561 0.20996 0.0
C264 C 0.17232 0.47547 0.15007 0.0
C265 C 0.09832 0.4516 0.188 0.0
N266 N 0.15219 0.49769 0.08521 0.0
N267 N 0.1089 0.40971 0.23852 0.0
H268 H 0.0468 0.45456 0.19721 0.0
H269 H 0.05861 0.43403 0.2419 0.0
H270 H 0.12536 0.3981 0.25164 0.0
H271 H 0.08015 0.39582 0.24969 0.0
H272 H 0.17574 0.50106 0.0664 0.0
H273 H 0.13266 0.50322 0.06754 0.0
H274 H 0.22125 0.5165 0.1128 0.0
H275 H 0.23298 0.49421 0.15481 0.0
C276 C 0.61103 0.15316 0.61003 0.0
C277 C 0.58999 0.11593 0.63034 0.0
C278 C 0.64913 0.12784 0.67053 0.0
C279 C 0.66886 0.16642 0.65388 0.0
N280 N 0.66897 0.21777 0.61166 0.0
N281 N 0.58708 0.06885 0.68331 0.0
C282 C 0.64992 0.17957 0.62448 0.0
C283 C 0.60855 0.1034 0.66141 0.0
N284 N 0.59389 0.16288 0.57656 0.0
N285 N 0.66966 0.11438 0.69397 0.0
H286 H 0.55747 0.04972 0.67662 0.0
H287 H 0.59787 0.06026 0.71005 0.0
H288 H 0.6995 0.1317 0.70091 0.0
H289 H 0.65806 0.08537 0.70333 0.0
H290 H 0.60874 0.18807 0.55759 0.0
H291 H 0.56539 0.14412 0.56522 0.0
H292 H 0.65573 0.2306 0.59384 0.0
H293 H 0.6976 0.23752 0.62181 0.0
C294 C 0.54988 0.64696 0.18385 0.0
C295 C 0.54178 0.65238 0.13906 0.0
C296 C 0.54531 0.7143 0.16086 0.0
C297 C 0.55419 0.70922 0.20549 0.0
N298 N 0.5701 0.67348 0.25853 0.0
N299 N 0.53691 0.693 0.08318 0.0
C300 C 0.55816 0.67642 0.21655 0.0
C301 C 0.54115 0.68676 0.12712 0.0
N302 N 0.54771 0.61257 0.19555 0.0
N303 N 0.54058 0.74536 0.15093 0.0
H304 H 0.53416 0.67343 0.05816 0.0
H305 H 0.53902 0.7185 0.07088 0.0
H306 H 0.5445 0.76646 0.17444 0.0
H307 H 0.53069 0.74934 0.12028 0.0
H308 H 0.54772 0.60407 0.22833 0.0
H309 H 0.54387 0.59131 0.1723 0.0
H310 H 0.57856 0.65339 0.26737 0.0
H311 H 0.57352 0.69255 0.28437 0.0
C312 C 0.91062 0.53965 0.61726 0.0
C313 C 0.94376 0.54353 0.64059 0.0
C314 C 0.94357 0.59292 0.68969 0.0
C315 C 0.90774 0.58526 0.67018 0.0
N316 N 0.85524 0.55027 0.61768 0.0
N317 N 0.99149 0.57232 0.69999 0.0
C318 C 0.89099 0.55871 0.6341 0.0
C319 C 0.9605 0.57014 0.67683 0.0
N320 N 0.8982 0.51801 0.57887 0.0
N321 N 0.96098 0.62202 0.7208 0.0
H322 H 1.00492 0.55641 0.69114 0.0
H323 H 1.00256 0.58805 0.72949 0.0
H324 H 0.94857 0.63869 0.73059 0.0
H325 H 0.98875 0.63174 0.73419 0.0
H326 H 0.87666 0.51712 0.55791 0.0
H327 H 0.91156 0.50315 0.56605 0.0
H328 H 0.83896 0.52779 0.59508 0.0
H329 H 0.84076 0.5646 0.62866 0.0
C330 C 0.43509 0.91371 0.18519 0.0
C331 C 0.44229 0.90423 0.14183 0.0
C332 C 0.3747 0.84802 0.13927 0.0
C333 C 0.36858 0.85592 0.18381 0.0
N334 N 0.39458 0.89313 0.25143 0.0
N335 N 0.42085 0.85895 0.08017 0.0
C336 C 0.39937 0.88783 0.20742 0.0
C337 C 0.41253 0.87047 0.11953 0.0
N338 N 0.46208 0.94826 0.20457 0.0
N339 N 0.34402 0.81943 0.11545 0.0
H340 H 0.44771 0.87495 0.06429 0.0
H341 H 0.40223 0.8323 0.06473 0.0
H342 H 0.31668 0.80116 0.12943 0.0
H343 H 0.34492 0.81521 0.08134 0.0
H344 H 0.45731 0.95907 0.23401 0.0
H345 H 0.48819 0.968 0.18911 0.0
H346 H 0.41697 0.91322 0.2721 0.0
H347 H 0.36881 0.87503 0.26844 0.0
C348 C 0.56812 0.37373 0.57342 0.0
C349 C 0.5393 0.38404 0.58104 0.0
C350 C 0.50659 0.32825 0.63047 0.0
C351 C 0.54233 0.32817 0.63533 0.0
N352 N 0.6098 0.35522 0.61198 0.0
N353 N 0.4774 0.36777 0.61356 0.0
C354 C 0.57361 0.35101 0.60587 0.0
C355 C 0.50666 0.35954 0.60754 0.0
N356 N 0.59314 0.3901 0.53872 0.0
N357 N 0.47298 0.29866 0.64782 0.0
H358 H 0.47604 0.38975 0.59608 0.0
H359 H 0.45545 0.35364 0.63707 0.0
H360 H 0.47216 0.27458 0.66287 0.0
H361 H 0.44564 0.29603 0.64271 0.0
H362 H 0.61388 0.38234 0.53027 0.0
H363 H 0.58998 0.4085 0.51628 0.0
H364 H 0.63396 0.37434 0.59319 0.0
H365 H 0.61715 0.34363 0.63889 0.0
C366 C 0.51085 0.90916 0.38044 0.0
C367 C 0.49514 0.89973 0.42416 0.0
C368 C 0.5082 0.84494 0.42549 0.0
C369 C 0.52124 0.85274 0.38066 0.0
N370 N 0.52982 0.88874 0.31318 0.0
N371 N 0.47314 0.85482 0.48562 0.0
C372 C 0.52087 0.88376 0.35746 0.0
C373 C 0.49234 0.86659 0.446 0.0
N374 N 0.51747 0.94329 0.36146 0.0
N375 N 0.51167 0.81721 0.44882 0.0
H376 H 0.46172 0.8701 0.50193 0.0
H377 H 0.46604 0.82849 0.5008 0.0
H378 H 0.52104 0.79942 0.43428 0.0
H379 H 0.50738 0.8133 0.48302 0.0
H380 H 0.5324 0.95406 0.33172 0.0
H381 H 0.51113 0.9628 0.37751 0.0
H382 H 0.52634 0.9081 0.29292 0.0
H383 H 0.53769 0.87104 0.29562 0.0
C384 C 0.65892 0.58727 0.89341 0.0
C385 C 0.65127 0.55973 0.92765 0.0
C386 C 0.72089 0.58059 0.93302 0.0
C387 C 0.72823 0.60659 0.8972 0.0
N388 N 0.70791 0.64208 0.85067 0.0
N389 N 0.67504 0.53693 0.98791 0.0
C390 C 0.69826 0.61259 0.88032 0.0
C391 C 0.6824 0.55875 0.95019 0.0
N392 N 0.62849 0.58774 0.87203 0.0
N393 N 0.7502 0.57489 0.94844 0.0
H394 H 0.647 0.52012 1.00088 0.0
H395 H 0.69689 0.53785 1.00834 0.0
H396 H 0.77903 0.59175 0.93806 0.0
H397 H 0.74582 0.55258 0.97009 0.0
H398 H 0.6317 0.60431 0.84385 0.0
H399 H 0.59935 0.56985 0.88114 0.0
H400 H 0.68839 0.65039 0.83879 0.0
H401 H 0.73683 0.66043 0.84089 0.0
C402 C 0.13354 0.65166 0.38437 0.0
C403 C 0.14989 0.65786 0.42792 0.0
C404 C 0.20627 0.72018 0.40296 0.0
C405 C 0.19215 0.71141 0.3583 0.0
N406 N 0.14425 0.66668 0.30556 0.0
N407 N 0.20275 0.6969 0.47872 0.0
C408 C 0.15608 0.6767 0.34888 0.0
C409 C 0.18642 0.69206 0.43725 0.0
N410 N 0.09636 0.62142 0.37695 0.0
N411 N 0.23798 0.75586 0.41284 0.0
H412 H 0.18793 0.67811 0.50499 0.0
H413 H 0.23136 0.7183 0.48656 0.0
H414 H 0.2536 0.7767 0.3886 0.0
H415 H 0.24724 0.7659 0.44521 0.0
H416 H 0.081 0.61718 0.3472 0.0
H417 H 0.07939 0.60248 0.40213 0.0
H418 H 0.12062 0.63991 0.29574 0.0
H419 H 0.16025 0.68384 0.27879 0.0
C420 C 0.58039 0.15817 0.96174 0.0
C421 C 0.56758 0.12184 0.94012 0.0
C422 C 0.53975 0.14071 0.87887 0.0
C423 C 0.55437 0.17799 0.89913 0.0
N424 N 0.57883 0.21874 0.96411 0.0
N425 N 0.52524 0.07375 0.88652 0.0
C426 C 0.57129 0.18538 0.94229 0.0
C427 C 0.5435 0.11143 0.9017 0.0
N428 N 0.6029 0.1672 0.99948 0.0
N429 N 0.52524 0.13427 0.83644 0.0
H430 H 0.52812 0.05199 0.9026 0.0
H431 H 0.50445 0.06332 0.86091 0.0
H432 H 0.52257 0.15513 0.81853 0.0
H433 H 0.51843 0.10942 0.81782 0.0
H434 H 0.61706 0.1948 1.01418 0.0
H435 H 0.60848 0.14703 1.01529 0.0
H436 H 0.58854 0.22496 0.99703 0.0
H437 H 0.57206 0.23875 0.95007 0.0
C438 C 0.38182 0.45211 0.37244 0.0
C439 C 0.39207 0.47464 0.41237 0.0
C440 C 0.33108 0.47676 0.40632 0.0
C441 C 0.31887 0.45154 0.36823 0.0
N442 N 0.33038 0.40955 0.32026 0.0
N443 N 0.37159 0.49969 0.473 0.0
C444 C 0.34365 0.43754 0.35281 0.0
C445 C 0.36488 0.48377 0.4312 0.0
N446 N 0.40901 0.44574 0.35237 0.0
N447 N 0.31262 0.49701 0.4169 0.0
H448 H 0.39611 0.50536 0.49207 0.0
H449 H 0.35093 0.50339 0.49035 0.0
H450 H 0.29 0.49594 0.39797 0.0
H451 H 0.32303 0.51878 0.44128 0.0
H452 H 0.40523 0.43366 0.32062 0.0
H453 H 0.4365 0.45486 0.36649 0.0
H454 H 0.34538 0.39547 0.31048 0.0
H455 H 0.3026 0.3978 0.30585 0.0
C456 C 0.84456 0.35764 0.96877 0.0
C457 C 0.88293 0.38741 0.958 0.0
C458 C 0.87186 0.36741 0.88003 0.0
C459 C 0.83304 0.33849 0.89019 0.0
N460 N 0.78485 0.29941 0.94436 0.0
N461 N 0.93726 0.41161 0.90786 0.0
C462 C 0.82021 0.33127 0.93484 0.0
C463 C 0.89808 0.38863 0.91516 0.0
N464 N 0.83106 0.3564 1.01078 0.0
N465 N 0.88284 0.37628 0.83664 0.0
H466 H 0.95698 0.42751 0.93337 0.0
H467 H 0.95049 0.4116 0.87798 0.0
H468 H 0.86384 0.36211 0.80993 0.0
H469 H 0.90945 0.40009 0.82717 0.0
H470 H 0.80205 0.33834 1.02 0.0
H471 H 0.84936 0.37474 0.03612 0.0
H472 H 0.77494 0.29059 0.97664 0.0
H473 H 0.76653 0.28027 0.91959 0.0
C474 C 0.88787 0.504 0.89585 0.0
C475 C 0.89187 0.51177 0.94244 0.0
C476 C 0.85495 0.54597 0.93238 0.0
C477 C 0.84303 0.52976 0.88859 0.0
N478 N 0.84459 0.4868 0.83211 0.0
N479 N 0.87573 0.53801 1.00596 0.0
C480 C 0.85892 0.50737 0.87094 0.0
C481 C 0.87463 0.5324 0.961 0.0
N482 N 0.91109 0.49221 0.87571 0.0
N483 N 0.84959 0.57583 0.946 0.0
H484 H 0.8904 0.52916 0.02776 0.0
H485 H 0.85982 0.54905 1.02157 0.0
H486 H 0.83933 0.58955 0.92475 0.0
H487 H 0.86033 0.59038 0.9763 0.0
H488 H 0.91156 0.48892 0.8413 0.0
H489 H 0.93278 0.48988 0.89317 0.0
H490 H 0.85298 0.46738 0.82026 0.0
H491 H 0.821 0.48522 0.81457 0.0
C492 C 0.39236 0.95033 0.37603 0.0
C493 C 0.38814 0.93123 0.41724 0.0
C494 C 0.31711 0.89447 0.40676 0.0
C495 C 0.32233 0.9075 0.3623 0.0
N496 N 0.36316 0.94878 0.30405 0.0
N497 N 0.34705 0.88718 0.47425 0.0
C498 C 0.35937 0.9367 0.34722 0.0
C499 C 0.3505 0.90454 0.43391 0.0
N500 N 0.42802 0.98093 0.36443 0.0
N501 N 0.27993 0.8708 0.42159 0.0
H502 H 0.37099 0.89438 0.4951 0.0
H503 H 0.32088 0.86463 0.48653 0.0
H504 H 0.25557 0.86303 0.40113 0.0
H505 H 0.27303 0.86139 0.45433 0.0
H506 H 0.43251 0.99807 0.33641 0.0
H507 H 0.45272 0.99123 0.38496 0.0
H508 H 0.38992 0.96631 0.28871 0.0
H509 H 0.339 0.93974 0.28293 0.0
C510 C 0.52199 0.41809 0.86687 0.0
C511 C 0.53635 0.42485 0.91149 0.0
C512 C 0.53088 0.35996 0.91159 0.0
C513 C 0.52257 0.35604 0.86514 0.0
N514 N 0.50968 0.38087 0.79805 0.0
N515 N 0.55483 0.4025 0.97676 0.0
C516 C 0.51726 0.38467 0.84281 0.0
C517 C 0.54025 0.3955 0.9342 0.0
N518 N 0.51299 0.44385 0.8476 0.0
N519 N 0.52961 0.32936 0.93403 0.0
H520 H 0.56058 0.4274 0.99476 0.0
H521 H 0.56308 0.38477 0.99355 0.0
H522 H 0.52264 0.30312 0.91825 0.0
H523 H 0.5319 0.32847 0.96851 0.0
H524 H 0.49929 0.43938 0.81666 0.0
H525 H 0.51639 0.46847 0.86438 0.0
H526 H 0.51031 0.4027 0.77825 0.0
H527 H 0.50423 0.35601 0.7802 0.0
C528 C 0.18979 0.54556 0.47637 0.0
C529 C 0.1541 0.53978 0.45843 0.0
C530 C 0.16745 0.52066 0.3869 0.0
C531 C 0.2038 0.52723 0.40412 0.0
N532 N 0.24505 0.53547 0.46731 0.0
N533 N 0.10266 0.50899 0.40375 0.0
C534 C 0.21343 0.53612 0.44979 0.0
C535 C 0.14054 0.52206 0.41631 0.0
N536 N 0.20178 0.56199 0.51765 0.0
N537 N 0.16017 0.51687 0.34205 0.0
H538 H 0.08272 0.51055 0.42502 0.0
H539 H 0.09028 0.49319 0.3745 0.0
H540 H 0.18064 0.51941 0.31869 0.0
H541 H 0.1355 0.51561 0.32761 0.0
H542 H 0.22958 0.57123 0.53074 0.0
H543 H 0.18387 0.56753 0.53815 0.0
H544 H 0.252 0.53884 0.50116 0.0
H545 H 0.26241 0.52821 0.4482 0.0
C546 C 0.71469 0.13818 0.92502 0.0
C547 C 0.68023 0.10455 0.90941 0.0
C548 C 0.70882 0.11552 0.83445 0.0
C549 C 0.73872 0.15315 0.84798 0.0
N550 N 0.77377 0.19914 0.90651 0.0
N551 N 0.64567 0.05831 0.85069 0.0
C552 C 0.74332 0.1636 0.89377 0.0
C553 C 0.67819 0.0918 0.86469 0.0
N554 N 0.71912 0.14617 0.96964 0.0
N555 N 0.70943 0.10335 0.79206 0.0
H556 H 0.6238 0.03995 0.87268 0.0
H557 H 0.63977 0.04915 0.81762 0.0
H558 H 0.73189 0.1207 0.77013 0.0
H559 H 0.69005 0.0755 0.77992 0.0
H560 H 0.74429 0.16884 0.98422 0.0
H561 H 0.6983 0.12783 0.99262 0.0
H562 H 0.77696 0.21126 0.9381 0.0
H563 H 0.79579 0.21696 0.88439 0.0
C564 C 0.54723 0.61426 0.39897 0.0
C565 C 0.51781 0.6001 0.43205 0.0
C566 C 0.52909 0.66614 0.44444 0.0
C567 C 0.55864 0.68021 0.41181 0.0
N568 N 0.60125 0.67069 0.36379 0.0
N569 N 0.48544 0.61267 0.49219 0.0
C570 C 0.5695 0.65509 0.39106 0.0
C571 C 0.51024 0.62615 0.45673 0.0
N572 N 0.55264 0.58852 0.37393 0.0
N573 N 0.51812 0.69092 0.46216 0.0
H574 H 0.47076 0.58343 0.50172 0.0
H575 H 0.48155 0.63073 0.51419 0.0
H576 H 0.53246 0.72062 0.45464 0.0
H577 H 0.49378 0.68192 0.48231 0.0
H578 H 0.57058 0.59651 0.34615 0.0
H579 H 0.53714 0.55845 0.37917 0.0
H580 H 0.61324 0.65483 0.35036 0.0
H581 H 0.6175 0.70055 0.35728 0.0
C582 C 0.45138 0.08767 0.70823 0.0
C583 C 0.45993 0.09785 0.66275 0.0
C584 C 0.45873 0.15844 0.67611 0.0
C585 C 0.45672 0.15122 0.72254 0.0
N586 N 0.43872 0.10523 0.78171 0.0
N587 N 0.45969 0.13578 0.60076 0.0
C588 C 0.44812 0.11404 0.73797 0.0
C589 C 0.45887 0.13068 0.64578 0.0
N590 N 0.44926 0.05412 0.72314 0.0
N591 N 0.46378 0.19333 0.66174 0.0
H592 H 0.46001 0.11565 0.57856 0.0
H593 H 0.45713 0.15789 0.58535 0.0
H594 H 0.46211 0.21292 0.68356 0.0
H595 H 0.46999 0.2031 0.62907 0.0
H596 H 0.44707 0.04632 0.75651 0.0
H597 H 0.45029 0.03408 0.70137 0.0
H598 H 0.43048 0.07824 0.79578 0.0
H599 H 0.43666 0.12484 0.80327 0.0
C600 C 0.41599 0.5142 0.14292 0.0
C601 C 0.42224 0.53161 0.10061 0.0
C602 C 0.35803 0.52613 0.10307 0.0
C603 C 0.35666 0.51813 0.14917 0.0
N604 N 0.38735 0.50934 0.2148 0.0
N605 N 0.39903 0.55186 0.03779 0.0
C606 C 0.3859 0.51241 0.16958 0.0
C607 C 0.3927 0.53606 0.07937 0.0
N608 N 0.44063 0.50204 0.15844 0.0
N609 N 0.3263 0.52448 0.08255 0.0
H610 H 0.42378 0.55783 1.0195 0.0
H611 H 0.38066 0.5601 1.02229 0.0
H612 H 0.30054 0.51684 0.09964 0.0
H613 H 0.32433 0.52736 0.0483 0.0
H614 H 0.43588 0.48654 0.18795 0.0
H615 H 0.46347 0.50406 0.13921 0.0
H616 H 0.41029 0.50878 0.23142 0.0
H617 H 0.36816 0.51174 0.23636 0.0
C618 C 0.94464 0.40802 0.69378 0.0
C619 C 0.94013 0.41552 0.64835 0.0
C620 C 0.88531 0.34789 0.64026 0.0
C621 C 0.88797 0.34126 0.68644 0.0
N622 N 0.92592 0.36094 0.75415 0.0
N623 N 0.91209 0.39042 0.57595 0.0
C624 C 0.91979 0.37 0.7121 0.0
C625 C 0.91255 0.38454 0.62077 0.0
N626 N 0.97168 0.4379 0.71983 0.0
N627 N 0.85541 0.31937 0.61548 0.0
H628 H 0.93054 0.41713 0.56092 0.0
H629 H 0.8955 0.36841 0.55301 0.0
H630 H 0.83703 0.29146 0.62788 0.0
H631 H 0.84795 0.3233 0.58339 0.0
H632 H 0.97363 0.43634 0.75427 0.0
H633 H 0.99153 0.46522 0.70693 0.0
H634 H 0.95027 0.37904 0.77374 0.0
H635 H 0.90801 0.33363 0.76823 0.0
C636 C 0.59286 0.91007 0.13384 0.0
C637 C 0.58069 0.93524 0.15218 0.0
C638 C 0.61177 0.93691 0.22348 0.0
C639 C 0.62111 0.90939 0.20627 0.0
N640 N 0.63061 0.87743 0.14424 0.0
N641 N 0.58762 0.98138 0.20895 0.0
C642 C 0.61552 0.89917 0.16069 0.0
C643 C 0.59351 0.95184 0.19521 0.0
N644 N 0.5806 0.89473 0.09206 0.0
N645 N 0.61763 0.94617 0.26776 0.0
H646 H 0.5741 0.99267 0.18877 0.0
H647 H 0.5989 0.99684 0.23859 0.0
H648 H 0.63187 0.93621 0.28873 0.0
H649 H 0.60709 0.96217 0.28407 0.0
H650 H 0.58504 0.87314 0.0784 0.0
H651 H 0.56424 0.90241 0.07142 0.0
H652 H 0.63003 0.87051 0.11069 0.0
H653 H 0.64671 0.869 0.1644 0.0
C654 C 0.63609 0.50251 0.68187 0.0
C655 C 0.63842 0.51318 0.63629 0.0
C656 C 0.71013 0.5494 0.64437 0.0
C657 C 0.70761 0.53079 0.6859 0.0
N658 N 0.66575 0.48521 0.74178 0.0
N659 N 0.67937 0.54448 0.57276 0.0
C660 C 0.66992 0.5066 0.70445 0.0
C661 C 0.67593 0.53637 0.61722 0.0
N662 N 0.60108 0.48745 0.70316 0.0
N663 N 0.74481 0.58068 0.63147 0.0
H664 H 0.65539 0.5359 0.5516 0.0
H665 H 0.70616 0.5573 0.55643 0.0
H666 H 0.76974 0.59332 0.65178 0.0
H667 H 0.74733 0.59711 0.6033 0.0
H668 H 0.59801 0.482 0.73727 0.0
H669 H 0.57607 0.4844 0.68729 0.0
H670 H 0.63857 0.4643 0.75396 0.0
H671 H 0.68909 0.4851 0.75794 0.0
C672 C 0.14237 0.62473 0.10571 0.0
C673 C 0.1103 0.59932 0.1328 0.0
C674 C 0.11887 0.65509 0.17724 0.0
C675 C 0.15345 0.67955 0.15353 0.0
N676 N 0.20008 0.68889 0.09733 0.0
N677 N 0.06883 0.58902 0.19587 0.0
C678 C 0.16553 0.66475 0.11799 0.0
C679 C 0.09847 0.61419 0.16879 0.0
N680 N 0.15031 0.61057 0.06808 0.0
N681 N 0.10579 0.67137 0.20777 0.0
H682 H 0.0528 0.55896 0.19015 0.0
H683 H 0.06155 0.59741 0.22549 0.0
H684 H 0.12081 0.70125 0.21478 0.0
H685 H 0.07899 0.65608 0.22376 0.0
H686 H 0.17086 0.62813 0.0446 0.0
H687 H 0.13425 0.58127 0.0585 0.0
H688 H 0.21319 0.67936 0.0745 0.0
H689 H 0.21685 0.71858 0.105 0.0
loop_
_geom_bond_atom_site_label_1
_geom_bond_atom_site_label_2
_geom_bond_distance
_geom_bond_site_symmetry_2
_ccdc_geom_bond_type
H0 C8 0.940 . S
H1 C11 0.940 . S
H2 C13 0.940 . S
H3 C14 0.940 . S
H4 C17 0.940 . S
H5 C19 0.940 . S
N6 N7 1.190 1_655 S
N6 C10 1.477 1_554 S
N7 N6 1.190 1_455 S
N7 C16 1.477 . S
C8 H0 0.940 . S
C8 C9 1.390 . S
C8 C10 1.322 . S
C9 C8 1.390 . S
C9 C13 1.370 . S
C10 N6 1.477 1_556 S
C10 C8 1.322 . S
C10 C11 1.447 . S
C11 H1 0.940 . S
C11 C10 1.447 . S
C11 C12 1.373 . S
C12 C11 1.373 . S
C12 C13 1.417 . S
C13 H2 0.940 . S
C13 C9 1.370 . S
C13 C12 1.417 . S
C14 H3 0.940 . S
C14 C15 1.390 . S
C14 C16 1.322 . S
C15 C14 1.390 . S
C15 C19 1.370 . S
C16 N7 1.477 . S
C16 C14 1.322 . S
C16 C17 1.447 . S
C17 H4 0.940 . S
C17 C16 1.447 . S
C17 C18 1.373 . S
C18 C17 1.373 . S
C18 C19 1.417 . S
C19 H5 0.940 . S
C19 C15 1.370 . S
C19 C18 1.417 . S
H20 C28 0.940 . S
H21 C31 0.940 . S
H22 C33 0.940 . S
H23 C34 0.940 . S
H24 C37 0.940 . S
H25 C39 0.940 . S
N26 N27 1.190 . S
N26 C30 1.477 . S
N27 N26 1.190 . S
N27 C36 1.477 1_545 S
C28 H20 0.940 . S
C28 C29 1.390 . S
C28 C30 1.322 . S
C29 C28 1.390 . S
C29 C33 1.370 . S
C30 N26 1.477 . S
C30 C28 1.322 . S
C30 C31 1.447 . S
C31 H21 0.940 . S
C31 C30 1.447 . S
C31 C32 1.373 . S
C32 C31 1.373 . S
C32 C33 1.417 . S
C33 H22 0.940 . S
C33 C29 1.370 . S
C33 C32 1.417 . S
C34 H23 0.940 . S
C34 C35 1.390 . S
C34 C36 1.322 . S
C35 C34 1.390 . S
C35 C39 1.370 . S
C36 N27 1.477 1_565 S
C36 C34 1.322 . S
C36 C37 1.447 . S
C37 H24 0.940 . S
C37 C36 1.447 . S
C37 C38 1.373 . S
C38 C37 1.373 . S
C38 C39 1.417 . S
C39 H25 0.940 . S
C39 C35 1.370 . S
C39 C38 1.417 . S
H40 C48 0.940 . S
H41 C51 0.940 . S
H42 C53 0.940 . S
H43 C54 0.940 . S
H44 C57 0.940 . S
H45 C59 0.940 . S
N46 N47 1.187 1_556 S
N46 C50 1.477 . S
N47 N46 1.187 1_554 S
N47 C56 1.482 . S
C48 H40 0.940 . S
C48 C49 1.390 . S
C48 C50 1.322 . S
C49 C48 1.390 . S
C49 C53 1.370 . S
C50 N46 1.477 . S
C50 C48 1.322 . S
C50 C51 1.447 . S
C51 H41 0.940 . S
C51 C50 1.447 . S
C51 C52 1.373 . S
C52 C51 1.373 . S
C52 C53 1.417 . S
C53 H42 0.940 . S
C53 C49 1.370 . S
C53 C52 1.417 . S
C54 H43 0.940 . S
C54 C55 1.390 . S
C54 C56 1.322 . S
C55 C54 1.390 . S
C55 C59 1.370 . S
C56 N47 1.482 . S
C56 C54 1.322 . S
C56 C57 1.447 . S
C57 H44 0.940 . S
C57 C56 1.447 . S
C57 C58 1.373 . S
C58 C57 1.373 . S
C58 C59 1.417 . S
C59 H45 0.940 . S
C59 C55 1.370 . S
C59 C58 1.417 . S
H60 C68 0.940 . S
H61 C71 0.940 . S
H62 C73 0.940 . S
H63 C74 0.940 . S
H64 C77 0.940 . S
H65 C79 0.940 . S
N66 N67 1.189 . S
N66 C70 1.470 1_655 S
N67 N66 1.189 . S
N67 C76 1.477 . S
C68 H60 0.940 . S
C68 C69 1.390 . S
C68 C70 1.322 . S
C69 C68 1.390 . S
C69 C73 1.370 . S
C70 N66 1.470 1_455 S
C70 C68 1.322 . S
C70 C71 1.447 . S
C71 H61 0.940 . S
C71 C70 1.447 . S
C71 C72 1.373 . S
C72 C71 1.373 . S
C72 C73 1.417 . S
C73 H62 0.940 . S
C73 C69 1.370 . S
C73 C72 1.417 . S
C74 H63 0.940 . S
C74 C75 1.390 . S
C74 C76 1.322 . S
C75 C74 1.390 . S
C75 C79 1.370 . S
C76 N67 1.477 . S
C76 C74 1.322 . S
C76 C77 1.447 . S
C77 H64 0.940 . S
C77 C76 1.447 . S
C77 C78 1.373 . S
C78 C77 1.373 . S
C78 C79 1.417 . S
C79 H65 0.940 . S
C79 C75 1.370 . S
C79 C78 1.417 . S
H80 C88 0.940 . S
H81 C91 0.940 . S
H82 C93 0.940 . S
H83 C94 0.940 . S
H84 C97 0.940 . S
H85 C99 0.940 . S
N86 N87 1.190 . S
N86 C90 1.477 1_554 S
N87 N86 1.190 . S
N87 C96 1.477 1_545 S
C88 H80 0.940 . S
C88 C89 1.390 . S
C88 C90 1.322 . S
C89 C88 1.390 . S
C89 C93 1.370 . S
C90 N86 1.477 1_556 S
C90 C88 1.322 . S
C90 C91 1.447 . S
C91 H81 0.940 . S
C91 C90 1.447 . S
C91 C92 1.373 . S
C92 C91 1.373 . S
C92 C93 1.417 . S
C93 H82 0.940 . S
C93 C89 1.370 . S
C93 C92 1.417 . S
C94 H83 0.940 . S
C94 C95 1.390 . S
C94 C96 1.322 . S
C95 C94 1.390 . S
C95 C99 1.370 . S
C96 N87 1.477 1_565 S
C96 C94 1.322 . S
C96 C97 1.447 . S
C97 H84 0.940 . S
C97 C96 1.447 . S
C97 C98 1.373 . S
C98 C97 1.373 . S
C98 C99 1.417 . S
C99 H85 0.940 . S
C99 C95 1.370 . S
C99 C98 1.417 . S
H100 C108 0.940 . S
H101 C111 0.940 . S
H102 C113 0.940 . S
H103 C114 0.940 . S
H104 C117 0.940 . S
H105 C119 0.940 . S
N106 N107 1.190 . S
N106 C110 1.477 . S
N107 N106 1.190 . S
N107 C116 1.477 . S
C108 H100 0.940 . S
C108 C109 1.390 . S
C108 C110 1.322 . S
C109 C108 1.390 . S
C109 C113 1.370 . S
C110 N106 1.477 . S
C110 C108 1.322 . S
C110 C111 1.447 . S
C111 H101 0.940 . S
C111 C110 1.447 . S
C111 C112 1.373 . S
C112 C111 1.373 . S
C112 C113 1.417 . S
C113 H102 0.940 . S
C113 C109 1.370 . S
C113 C112 1.417 . S
C114 H103 0.940 . S
C114 C115 1.390 . S
C114 C116 1.322 . S
C115 C114 1.390 . S
C115 C119 1.370 . S
C116 N107 1.477 . S
C116 C114 1.322 . S
C116 C117 1.447 . S
C117 H104 0.940 . S
C117 C116 1.447 . S
C117 C118 1.373 . S
C118 C117 1.373 . S
C118 C119 1.417 . S
C119 H105 0.940 . S
C119 C115 1.370 . S
C119 C118 1.417 . S
Cu120 N121 1.999 . S
Cu120 O126 1.974 . S
Cu120 N131 1.985 . S
Cu120 O140 1.959 . S
N121 Cu120 1.999 . S
N121 C123 1.263 . S
N121 C125 1.389 . S
N122 C123 1.358 . S
N122 C124 1.400 . S
C123 N121 1.263 . S
C123 N122 1.358 . S
C123 H129 0.930 . S
C124 N122 1.400 . S
C124 C125 1.351 . S
C124 H141 0.930 . S
C125 N121 1.389 . S
C125 C124 1.351 . S
C125 H130 0.930 . S
O126 Cu120 1.974 . S
O126 C136 1.282 . S
C127 O128 1.261 . S
C127 O140 1.251 . S
O128 C127 1.261 . S
H129 C123 0.930 . S
H130 C125 0.930 . S
N131 Cu120 1.985 . S
N131 C133 1.335 . S
N131 C134 1.390 . S
N132 C133 1.345 . S
N132 C135 1.336 . S
C133 N131 1.335 . S
C133 N132 1.345 . S
C133 H138 0.930 . S
C134 N131 1.390 . S
C134 C135 1.346 . S
C134 H139 0.930 . S
C135 N132 1.336 . S
C135 C134 1.346 . S
C135 H142 0.929 . S
C136 O126 1.282 . S
C136 O137 1.216 . S
O137 C136 1.216 . S
H138 C133 0.930 . S
H139 C134 0.930 . S
O140 Cu120 1.959 . S
O140 C127 1.251 . S
H141 C124 0.930 . S
H142 C135 0.929 . S
Cu143 N144 1.999 . S
Cu143 O149 1.974 . S
Cu143 N154 1.985 . S
Cu143 O163 1.959 . S
N144 Cu143 1.999 . S
N144 C146 1.263 . S
N144 C148 1.389 . S
N145 C146 1.358 . S
N145 C147 1.400 . S
C146 N144 1.263 . S
C146 N145 1.358 . S
C146 H152 0.930 . S
C147 N145 1.400 . S
C147 C148 1.351 . S
C147 H164 0.930 . S
C148 N144 1.389 . S
C148 C147 1.351 . S
C148 H153 0.930 . S
O149 Cu143 1.974 . S
O149 C159 1.282 . S
C150 O151 1.261 . S
C150 O163 1.251 . S
O151 C150 1.261 . S
H152 C146 0.930 . S
H153 C148 0.930 . S
N154 Cu143 1.985 . S
N154 C156 1.335 . S
N154 C157 1.390 . S
N155 C156 1.345 . S
N155 C158 1.336 . S
C156 N154 1.335 . S
C156 N155 1.345 . S
C156 H161 0.930 . S
C157 N154 1.390 . S
C157 C158 1.346 . S
C157 H162 0.930 . S
C158 N155 1.336 . S
C158 C157 1.346 . S
C158 H165 0.929 . S
C159 O149 1.282 . S
C159 O160 1.216 . S
O160 C159 1.216 . S
H161 C156 0.930 . S
H162 C157 0.930 . S
O163 Cu143 1.959 . S
O163 C150 1.251 . S
H164 C147 0.930 . S
H165 C158 0.929 . S
Cu166 N167 1.999 . S
Cu166 O172 1.974 . S
Cu166 N177 1.985 . S
Cu166 O186 1.959 . S
N167 Cu166 1.999 . S
N167 C169 1.263 . S
N167 C171 1.389 . S
N168 C169 1.358 . S
N168 C170 1.400 . S
C169 N167 1.263 . S
C169 N168 1.358 . S
C169 H175 0.930 . S
C170 N168 1.400 . S
C170 C171 1.351 . S
C170 H187 0.930 . S
C171 N167 1.389 . S
C171 C170 1.351 . S
C171 H176 0.930 . S
O172 Cu166 1.974 . S
O172 C182 1.282 . S
C173 O174 1.261 . S
C173 O186 1.251 . S
O174 C173 1.261 . S
H175 C169 0.930 . S
H176 C171 0.930 . S
N177 Cu166 1.985 . S
N177 C179 1.335 . S
N177 C180 1.390 . S
N178 C179 1.345 . S
N178 C181 1.336 . S
C179 N177 1.335 . S
C179 N178 1.345 . S
C179 H184 0.930 . S
C180 N177 1.390 . S
C180 C181 1.346 . S
C180 H185 0.930 . S
C181 N178 1.336 . S
C181 C180 1.346 . S
C181 H188 0.929 . S
C182 O172 1.282 . S
C182 O183 1.216 . S
O183 C182 1.216 . S
H184 C179 0.930 . S
H185 C180 0.930 . S
O186 Cu166 1.959 . S
O186 C173 1.251 . S
H187 C170 0.930 . S
H188 C181 0.929 . S
Cu189 N190 1.999 . S
Cu189 O195 1.974 . S
Cu189 N200 1.985 . S
Cu189 O209 1.959 . S
N190 Cu189 1.999 . S
N190 C192 1.263 . S
N190 C194 1.389 . S
N191 C192 1.358 . S
N191 C193 1.400 . S
C192 N190 1.263 . S
C192 N191 1.358 . S
C192 H198 0.930 . S
C193 N191 1.400 . S
C193 C194 1.351 . S
C193 H210 0.930 . S
C194 N190 1.389 . S
C194 C193 1.351 . S
C194 H199 0.930 . S
O195 Cu189 1.974 . S
O195 C205 1.282 . S
C196 O197 1.261 . S
C196 O209 1.251 . S
O197 C196 1.261 . S
H198 C192 0.930 . S
H199 C194 0.930 . S
N200 Cu189 1.985 . S
N200 C202 1.335 . S
N200 C203 1.390 . S
N201 C202 1.345 . S
N201 C204 1.336 . S
C202 N200 1.335 . S
C202 N201 1.345 . S
C202 H207 0.930 . S
C203 N200 1.390 . S
C203 C204 1.346 . S
C203 H208 0.930 . S
C204 N201 1.336 . S
C204 C203 1.346 . S
C204 H211 0.929 . S
C205 O195 1.282 . S
C205 O206 1.216 . S
O206 C205 1.216 . S
H207 C202 0.930 . S
H208 C203 0.930 . S
O209 Cu189 1.959 . S
O209 C196 1.251 . S
H210 C193 0.930 . S
H211 C204 0.929 . S
Cu212 N213 1.999 . S
Cu212 O218 1.974 . S
Cu212 N223 1.985 . S
Cu212 O232 1.959 . S
N213 Cu212 1.999 . S
N213 C215 1.263 . S
N213 C217 1.389 . S
N214 C215 1.358 . S
N214 C216 1.400 . S
C215 N213 1.263 . S
C215 N214 1.358 . S
C215 H221 0.930 . S
C216 N214 1.400 . S
C216 C217 1.351 . S
C216 H233 0.930 . S
C217 N213 1.389 . S
C217 C216 1.351 . S
C217 H222 0.930 . S
O218 Cu212 1.974 . S
O218 C228 1.282 . S
C219 O220 1.261 . S
C219 O232 1.251 . S
O220 C219 1.261 . S
H221 C215 0.930 . S
H222 C217 0.930 . S
N223 Cu212 1.985 . S
N223 C225 1.335 . S
N223 C226 1.390 . S
N224 C225 1.345 . S
N224 C227 1.336 . S
C225 N223 1.335 . S
C225 N224 1.345 . S
C225 H230 0.930 . S
C226 N223 1.390 . S
C226 C227 1.346 . S
C226 H231 0.930 . S
C227 N224 1.336 . S
C227 C226 1.346 . S
C227 H234 0.929 . S
C228 O218 1.282 . S
C228 O229 1.216 . S
O229 C228 1.216 . S
H230 C225 0.930 . S
H231 C226 0.930 . S
O232 Cu212 1.959 . S
O232 C219 1.251 . S
H233 C216 0.930 . S
H234 C227 0.929 . S
Cu235 N236 1.999 . S
Cu235 O241 1.974 . S
Cu235 N246 1.985 . S
Cu235 O255 1.959 . S
N236 Cu235 1.999 . S
N236 C238 1.263 . S
N236 C240 1.389 . S
N237 C238 1.358 . S
N237 C239 1.400 . S
C238 N236 1.263 . S
C238 N237 1.358 . S
C238 H244 0.930 . S
C239 N237 1.400 . S
C239 C240 1.351 . S
C239 H256 0.930 . S
C240 N236 1.389 . S
C240 C239 1.351 . S
C240 H245 0.930 . S
O241 Cu235 1.974 . S
O241 C251 1.282 . S
C242 O243 1.261 . S
C242 O255 1.251 . S
O243 C242 1.261 . S
H244 C238 0.930 . S
H245 C240 0.930 . S
N246 Cu235 1.985 . S
N246 C248 1.335 . S
N246 C249 1.390 . S
N247 C248 1.345 . S
N247 C250 1.336 . S
C248 N246 1.335 . S
C248 N247 1.345 . S
C248 H253 0.930 . S
C249 N246 1.390 . S
C249 C250 1.346 . S
C249 H254 0.930 . S
C250 N247 1.336 . S
C250 C249 1.346 . S
C250 H257 0.929 . S
C251 O241 1.282 . S
C251 O252 1.216 . S
O252 C251 1.216 . S
H253 C248 0.930 . S
H254 C249 0.930 . S
O255 Cu235 1.959 . S
O255 C242 1.251 . S
H256 C239 0.930 . S
H257 C250 0.929 . S
C258 C259 1.363 . S
C258 C264 1.379 . S
C258 N266 1.356 . S
C259 C258 1.363 . S
C259 C265 1.363 . S
C260 C261 1.363 . S
C260 C265 1.379 . S
C260 N267 1.356 . S
C261 C260 1.363 . S
C261 C264 1.363 . S
N262 C264 1.356 . S
N262 H274 0.984 . S
N262 H275 0.985 . S
N263 C265 1.356 . S
N263 H268 0.984 . S
N263 H269 0.985 . S
C264 C258 1.379 . S
C264 C261 1.363 . S
C264 N262 1.356 . S
C265 C259 1.363 . S
C265 C260 1.379 . S
C265 N263 1.356 . S
N266 C258 1.356 . S
N266 H272 0.984 . S
N266 H273 0.984 . S
N267 C260 1.356 . S
N267 H270 0.984 . S
N267 H271 0.985 . S
H268 N263 0.984 . S
H269 N263 0.985 . S
H270 N267 0.984 . S
H271 N267 0.985 . S
H272 N266 0.984 . S
H273 N266 0.984 . S
H274 N262 0.984 . S
H275 N262 0.985 . S
C276 C277 1.363 . S
C276 C282 1.379 . S
C276 N284 1.356 . S
C277 C276 1.363 . S
C277 C283 1.363 . S
C278 C279 1.363 . S
C278 C283 1.379 . S
C278 N285 1.356 . S
C279 C278 1.363 . S
C279 C282 1.363 . S
N280 C282 1.356 . S
N280 H292 0.984 . S
N280 H293 0.985 . S
N281 C283 1.356 . S
N281 H286 0.984 . S
N281 H287 0.985 . S
C282 C276 1.379 . S
C282 C279 1.363 . S
C282 N280 1.356 . S
C283 C277 1.363 . S
C283 C278 1.379 . S
C283 N281 1.356 . S
N284 C276 1.356 . S
N284 H290 0.984 . S
N284 H291 0.984 . S
N285 C278 1.356 . S
N285 H288 0.984 . S
N285 H289 0.985 . S
H286 N281 0.984 . S
H287 N281 0.985 . S
H288 N285 0.984 . S
H289 N285 0.985 . S
H290 N284 0.984 . S
H291 N284 0.984 . S
H292 N280 0.984 . S
H293 N280 0.985 . S
C294 C295 1.363 . S
C294 C300 1.379 . S
C294 N302 1.356 . S
C295 C294 1.363 . S
C295 C301 1.363 . S
C296 C297 1.363 . S
C296 C301 1.379 . S
C296 N303 1.356 . S
C297 C296 1.363 . S
C297 C300 1.363 . S
N298 C300 1.356 . S
N298 H310 0.984 . S
N298 H311 0.985 . S
N299 C301 1.356 . S
N299 H304 0.984 . S
N299 H305 0.985 . S
C300 C294 1.379 . S
C300 C297 1.363 . S
C300 N298 1.356 . S
C301 C295 1.363 . S
C301 C296 1.379 . S
C301 N299 1.356 . S
N302 C294 1.356 . S
N302 H308 0.984 . S
N302 H309 0.984 . S
N303 C296 1.356 . S
N303 H306 0.984 . S
N303 H307 0.985 . S
H304 N299 0.984 . S
H305 N299 0.985 . S
H306 N303 0.984 . S
H307 N303 0.985 . S
H308 N302 0.984 . S
H309 N302 0.984 . S
H310 N298 0.984 . S
H311 N298 0.985 . S
C312 C313 1.363 . S
C312 C318 1.379 . S
C312 N320 1.356 . S
C313 C312 1.363 . S
C313 C319 1.363 . S
C314 C315 1.363 . S
C314 C319 1.379 . S
C314 N321 1.356 . S
C315 C314 1.363 . S
C315 C318 1.363 . S
N316 C318 1.356 . S
N316 H328 0.984 . S
N316 H329 0.985 . S
N317 C319 1.356 . S
N317 H322 0.984 . S
N317 H323 0.985 . S
C318 C312 1.379 . S
C318 C315 1.363 . S
C318 N316 1.356 . S
C319 C313 1.363 . S
C319 C314 1.379 . S
C319 N317 1.356 . S
N320 C312 1.356 . S
N320 H326 0.984 . S
N320 H327 0.984 . S
N321 C314 1.356 . S
N321 H324 0.984 . S
N321 H325 0.985 . S
H322 N317 0.984 . S
H323 N317 0.985 . S
H324 N321 0.984 . S
H325 N321 0.985 . S
H326 N320 0.984 . S
H327 N320 0.984 . S
H328 N316 0.984 . S
H329 N316 0.985 . S
C330 C331 1.363 . S
C330 C336 1.379 . S
C330 N338 1.356 . S
C331 C330 1.363 . S
C331 C337 1.363 . S
C332 C333 1.363 . S
C332 C337 1.379 . S
C332 N339 1.356 . S
C333 C332 1.363 . S
C333 C336 1.363 . S
N334 C336 1.356 . S
N334 H346 0.984 . S
N334 H347 0.985 . S
N335 C337 1.356 . S
N335 H340 0.984 . S
N335 H341 0.985 . S
C336 C330 1.379 . S
C336 C333 1.363 . S
C336 N334 1.356 . S
C337 C331 1.363 . S
C337 C332 1.379 . S
C337 N335 1.356 . S
N338 C330 1.356 . S
N338 H344 0.984 . S
N338 H345 0.984 . S
N339 C332 1.356 . S
N339 H342 0.984 . S
N339 H343 0.985 . S
H340 N335 0.984 . S
H341 N335 0.985 . S
H342 N339 0.984 . S
H343 N339 0.985 . S
H344 N338 0.984 . S
H345 N338 0.984 . S
H346 N334 0.984 . S
H347 N334 0.985 . S
C348 C349 1.363 . S
C348 C354 1.379 . S
C348 N356 1.356 . S
C349 C348 1.363 . S
C349 C355 1.363 . S
C350 C351 1.363 . S
C350 C355 1.379 . S
C350 N357 1.356 . S
C351 C350 1.363 . S
C351 C354 1.363 . S
N352 C354 1.356 . S
N352 H364 0.984 . S
N352 H365 0.985 . S
N353 C355 1.356 . S
N353 H358 0.984 . S
N353 H359 0.985 . S
C354 C348 1.379 . S
C354 C351 1.363 . S
C354 N352 1.356 . S
C355 C349 1.363 . S
C355 C350 1.379 . S
C355 N353 1.356 . S
N356 C348 1.356 . S
N356 H362 0.984 . S
N356 H363 0.984 . S
N357 C350 1.356 . S
N357 H360 0.984 . S
N357 H361 0.985 . S
H358 N353 0.984 . S
H359 N353 0.985 . S
H360 N357 0.984 . S
H361 N357 0.985 . S
H362 N356 0.984 . S
H363 N356 0.984 . S
H364 N352 0.984 . S
H365 N352 0.985 . S
C366 C367 1.363 . S
C366 C372 1.379 . S
C366 N374 1.356 . S
C367 C366 1.363 . S
C367 C373 1.363 . S
C368 C369 1.363 . S
C368 C373 1.379 . S
C368 N375 1.356 . S
C369 C368 1.363 . S
C369 C372 1.363 . S
N370 C372 1.356 . S
N370 H382 0.984 . S
N370 H383 0.985 . S
N371 C373 1.356 . S
N371 H376 0.984 . S
N371 H377 0.985 . S
C372 C366 1.379 . S
C372 C369 1.363 . S
C372 N370 1.356 . S
C373 C367 1.363 . S
C373 C368 1.379 . S
C373 N371 1.356 . S
N374 C366 1.356 . S
N374 H380 0.984 . S
N374 H381 0.984 . S
N375 C368 1.356 . S
N375 H378 0.984 . S
N375 H379 0.985 . S
H376 N371 0.984 . S
H377 N371 0.985 . S
H378 N375 0.984 . S
H379 N375 0.985 . S
H380 N374 0.984 . S
H381 N374 0.984 . S
H382 N370 0.984 . S
H383 N370 0.985 . S
C384 C385 1.363 . S
C384 C390 1.379 . S
C384 N392 1.356 . S
C385 C384 1.363 . S
C385 C391 1.363 . S
C386 C387 1.363 . S
C386 C391 1.379 . S
C386 N393 1.356 . S
C387 C386 1.363 . S
C387 C390 1.363 . S
N388 C390 1.356 . S
N388 H400 0.984 . S
N388 H401 0.985 . S
N389 C391 1.356 . S
N389 H394 0.984 . S
N389 H395 0.985 . S
C390 C384 1.379 . S
C390 C387 1.363 . S
C390 N388 1.356 . S
C391 C385 1.363 . S
C391 C386 1.379 . S
C391 N389 1.356 . S
N392 C384 1.356 . S
N392 H398 0.984 . S
N392 H399 0.984 . S
N393 C386 1.356 . S
N393 H396 0.984 . S
N393 H397 0.985 . S
H394 N389 0.984 . S
H395 N389 0.985 . S
H396 N393 0.984 . S
H397 N393 0.985 . S
H398 N392 0.984 . S
H399 N392 0.984 . S
H400 N388 0.984 . S
H401 N388 0.985 . S
C402 C403 1.363 . S
C402 C408 1.379 . S
C402 N410 1.356 . S
C403 C402 1.363 . S
C403 C409 1.363 . S
C404 C405 1.363 . S
C404 C409 1.379 . S
C404 N411 1.356 . S
C405 C404 1.363 . S
C405 C408 1.363 . S
N406 C408 1.356 . S
N406 H418 0.984 . S
N406 H419 0.985 . S
N407 C409 1.356 . S
N407 H412 0.984 . S
N407 H413 0.985 . S
C408 C402 1.379 . S
C408 C405 1.363 . S
C408 N406 1.356 . S
C409 C403 1.363 . S
C409 C404 1.379 . S
C409 N407 1.356 . S
N410 C402 1.356 . S
N410 H416 0.984 . S
N410 H417 0.984 . S
N411 C404 1.356 . S
N411 H414 0.984 . S
N411 H415 0.985 . S
H412 N407 0.984 . S
H413 N407 0.985 . S
H414 N411 0.984 . S
H415 N411 0.985 . S
H416 N410 0.984 . S
H417 N410 0.984 . S
H418 N406 0.984 . S
H419 N406 0.985 . S
C420 C421 1.363 . S
C420 C426 1.379 . S
C420 N428 1.356 . S
C421 C420 1.363 . S
C421 C427 1.363 . S
C422 C423 1.363 . S
C422 C427 1.379 . S
C422 N429 1.356 . S
C423 C422 1.363 . S
C423 C426 1.363 . S
N424 C426 1.356 . S
N424 H436 0.984 . S
N424 H437 0.985 . S
N425 C427 1.356 . S
N425 H430 0.984 . S
N425 H431 0.985 . S
C426 C420 1.379 . S
C426 C423 1.363 . S
C426 N424 1.356 . S
C427 C421 1.363 . S
C427 C422 1.379 . S
C427 N425 1.356 . S
N428 C420 1.356 . S
N428 H434 0.984 . S
N428 H435 0.984 . S
N429 C422 1.356 . S
N429 H432 0.984 . S
N429 H433 0.985 . S
H430 N425 0.984 . S
H431 N425 0.985 . S
H432 N429 0.984 . S
H433 N429 0.985 . S
H434 N428 0.984 . S
H435 N428 0.984 . S
H436 N424 0.984 . S
H437 N424 0.985 . S
C438 C439 1.363 . S
C438 C444 1.379 . S
C438 N446 1.356 . S
C439 C438 1.363 . S
C439 C445 1.363 . S
C440 C441 1.363 . S
C440 C445 1.379 . S
C440 N447 1.356 . S
C441 C440 1.363 . S
C441 C444 1.363 . S
N442 C444 1.356 . S
N442 H454 0.984 . S
N442 H455 0.985 . S
N443 C445 1.356 . S
N443 H448 0.984 . S
N443 H449 0.985 . S
C444 C438 1.379 . S
C444 C441 1.363 . S
C444 N442 1.356 . S
C445 C439 1.363 . S
C445 C440 1.379 . S
C445 N443 1.356 . S
N446 C438 1.356 . S
N446 H452 0.984 . S
N446 H453 0.984 . S
N447 C440 1.356 . S
N447 H450 0.984 . S
N447 H451 0.985 . S
H448 N443 0.984 . S
H449 N443 0.985 . S
H450 N447 0.984 . S
H451 N447 0.985 . S
H452 N446 0.984 . S
H453 N446 0.984 . S
H454 N442 0.984 . S
H455 N442 0.985 . S
C456 C457 1.363 . S
C456 C462 1.379 . S
C456 N464 1.356 . S
C457 C456 1.363 . S
C457 C463 1.363 . S
C458 C459 1.363 . S
C458 C463 1.379 . S
C458 N465 1.356 . S
C459 C458 1.363 . S
C459 C462 1.363 . S
N460 C462 1.356 . S
N460 H472 0.984 . S
N460 H473 0.985 . S
N461 C463 1.356 . S
N461 H466 0.984 . S
N461 H467 0.985 . S
C462 C456 1.379 . S
C462 C459 1.363 . S
C462 N460 1.356 . S
C463 C457 1.363 . S
C463 C458 1.379 . S
C463 N461 1.356 . S
N464 C456 1.356 . S
N464 H470 0.984 . S
N464 H471 0.984 . S
N465 C458 1.356 . S
N465 H468 0.984 . S
N465 H469 0.985 . S
H466 N461 0.984 . S
H467 N461 0.985 . S
H468 N465 0.984 . S
H469 N465 0.985 . S
H470 N464 0.984 . S
H471 N464 0.984 . S
H472 N460 0.984 . S
H473 N460 0.985 . S
C474 C475 1.363 . S
C474 C480 1.379 . S
C474 N482 1.356 . S
C475 C474 1.363 . S
C475 C481 1.363 . S
C476 C477 1.363 . S
C476 C481 1.379 . S
C476 N483 1.356 . S
C477 C476 1.363 . S
C477 C480 1.363 . S
N478 C480 1.356 . S
N478 H490 0.984 . S
N478 H491 0.985 . S
N479 C481 1.356 . S
N479 H484 0.984 . S
N479 H485 0.985 . S
C480 C474 1.379 . S
C480 C477 1.363 . S
C480 N478 1.356 . S
C481 C475 1.363 . S
C481 C476 1.379 . S
C481 N479 1.356 . S
N482 C474 1.356 . S
N482 H488 0.984 . S
N482 H489 0.984 . S
N483 C476 1.356 . S
N483 H486 0.984 . S
N483 H487 0.985 . S
H484 N479 0.984 . S
H485 N479 0.985 . S
H486 N483 0.984 . S
H487 N483 0.985 . S
H488 N482 0.984 . S
H489 N482 0.984 . S
H490 N478 0.984 . S
H491 N478 0.985 . S
C492 C493 1.363 . S
C492 C498 1.379 . S
C492 N500 1.356 . S
C493 C492 1.363 . S
C493 C499 1.363 . S
C494 C495 1.363 . S
C494 C499 1.379 . S
C494 N501 1.356 . S
C495 C494 1.363 . S
C495 C498 1.363 . S
N496 C498 1.356 . S
N496 H508 0.984 . S
N496 H509 0.985 . S
N497 C499 1.356 . S
N497 H502 0.984 . S
N497 H503 0.985 . S
C498 C492 1.379 . S
C498 C495 1.363 . S
C498 N496 1.356 . S
C499 C493 1.363 . S
C499 C494 1.379 . S
C499 N497 1.356 . S
N500 C492 1.356 . S
N500 H506 0.984 . S
N500 H507 0.984 . S
N501 C494 1.356 . S
N501 H504 0.984 . S
N501 H505 0.985 . S
H502 N497 0.984 . S
H503 N497 0.985 . S
H504 N501 0.984 . S
H505 N501 0.985 . S
H506 N500 0.984 . S
H507 N500 0.984 . S
H508 N496 0.984 . S
H509 N496 0.985 . S
C510 C511 1.363 . S
C510 C516 1.379 . S
C510 N518 1.356 . S
C511 C510 1.363 . S
C511 C517 1.363 . S
C512 C513 1.363 . S
C512 C517 1.379 . S
C512 N519 1.356 . S
C513 C512 1.363 . S
C513 C516 1.363 . S
N514 C516 1.356 . S
N514 H526 0.984 . S
N514 H527 0.985 . S
N515 C517 1.356 . S
N515 H520 0.984 . S
N515 H521 0.985 . S
C516 C510 1.379 . S
C516 C513 1.363 . S
C516 N514 1.356 . S
C517 C511 1.363 . S
C517 C512 1.379 . S
C517 N515 1.356 . S
N518 C510 1.356 . S
N518 H524 0.984 . S
N518 H525 0.984 . S
N519 C512 1.356 . S
N519 H522 0.984 . S
N519 H523 0.985 . S
H520 N515 0.984 . S
H521 N515 0.985 . S
H522 N519 0.984 . S
H523 N519 0.985 . S
H524 N518 0.984 . S
H525 N518 0.984 . S
H526 N514 0.984 . S
H527 N514 0.985 . S
C528 C529 1.363 . S
C528 C534 1.379 . S
C528 N536 1.356 . S
C529 C528 1.363 . S
C529 C535 1.363 . S
C530 C531 1.363 . S
C530 C535 1.379 . S
C530 N537 1.356 . S
C531 C530 1.363 . S
C531 C534 1.363 . S
N532 C534 1.356 . S
N532 H544 0.984 . S
N532 H545 0.985 . S
N533 C535 1.356 . S
N533 H538 0.984 . S
N533 H539 0.985 . S
C534 C528 1.379 . S
C534 C531 1.363 . S
C534 N532 1.356 . S
C535 C529 1.363 . S
C535 C530 1.379 . S
C535 N533 1.356 . S
N536 C528 1.356 . S
N536 H542 0.984 . S
N536 H543 0.984 . S
N537 C530 1.356 . S
N537 H540 0.984 . S
N537 H541 0.985 . S
H538 N533 0.984 . S
H539 N533 0.985 . S
H540 N537 0.984 . S
H541 N537 0.985 . S
H542 N536 0.984 . S
H543 N536 0.984 . S
H544 N532 0.984 . S
H545 N532 0.985 . S
C546 C547 1.363 . S
C546 C552 1.379 . S
C546 N554 1.356 . S
C547 C546 1.363 . S
C547 C553 1.363 . S
C548 C549 1.363 . S
C548 C553 1.379 . S
C548 N555 1.356 . S
C549 C548 1.363 . S
C549 C552 1.363 . S
N550 C552 1.356 . S
N550 H562 0.984 . S
N550 H563 0.985 . S
N551 C553 1.356 . S
N551 H556 0.984 . S
N551 H557 0.985 . S
C552 C546 1.379 . S
C552 C549 1.363 . S
C552 N550 1.356 . S
C553 C547 1.363 . S
C553 C548 1.379 . S
C553 N551 1.356 . S
N554 C546 1.356 . S
N554 H560 0.984 . S
N554 H561 0.984 . S
N555 C548 1.356 . S
N555 H558 0.984 . S
N555 H559 0.985 . S
H556 N551 0.984 . S
H557 N551 0.985 . S
H558 N555 0.984 . S
H559 N555 0.985 . S
H560 N554 0.984 . S
H561 N554 0.984 . S
H562 N550 0.984 . S
H563 N550 0.985 . S
C564 C565 1.363 . S
C564 C570 1.379 . S
C564 N572 1.356 . S
C565 C564 1.363 . S
C565 C571 1.363 . S
C566 C567 1.363 . S
C566 C571 1.379 . S
C566 N573 1.356 . S
C567 C566 1.363 . S
C567 C570 1.363 . S
N568 C570 1.356 . S
N568 H580 0.984 . S
N568 H581 0.985 . S
N569 C571 1.356 . S
N569 H574 0.984 . S
N569 H575 0.985 . S
C570 C564 1.379 . S
C570 C567 1.363 . S
C570 N568 1.356 . S
C571 C565 1.363 . S
C571 C566 1.379 . S
C571 N569 1.356 . S
N572 C564 1.356 . S
N572 H578 0.984 . S
N572 H579 0.984 . S
N573 C566 1.356 . S
N573 H576 0.984 . S
N573 H577 0.985 . S
H574 N569 0.984 . S
H575 N569 0.985 . S
H576 N573 0.984 . S
H577 N573 0.985 . S
H578 N572 0.984 . S
H579 N572 0.984 . S
H580 N568 0.984 . S
H581 N568 0.985 . S
C582 C583 1.363 . S
C582 C588 1.379 . S
C582 N590 1.356 . S
C583 C582 1.363 . S
C583 C589 1.363 . S
C584 C585 1.363 . S
C584 C589 1.379 . S
C584 N591 1.356 . S
C585 C584 1.363 . S
C585 C588 1.363 . S
N586 C588 1.356 . S
N586 H598 0.984 . S
N586 H599 0.985 . S
N587 C589 1.356 . S
N587 H592 0.984 . S
N587 H593 0.985 . S
C588 C582 1.379 . S
C588 C585 1.363 . S
C588 N586 1.356 . S
C589 C583 1.363 . S
C589 C584 1.379 . S
C589 N587 1.356 . S
N590 C582 1.356 . S
N590 H596 0.984 . S
N590 H597 0.984 . S
N591 C584 1.356 . S
N591 H594 0.984 . S
N591 H595 0.985 . S
H592 N587 0.984 . S
H593 N587 0.985 . S
H594 N591 0.984 . S
H595 N591 0.985 . S
H596 N590 0.984 . S
H597 N590 0.984 . S
H598 N586 0.984 . S
H599 N586 0.985 . S
C600 C601 1.363 . S
C600 C606 1.379 . S
C600 N608 1.356 . S
C601 C600 1.363 . S
C601 C607 1.363 . S
C602 C603 1.363 . S
C602 C607 1.379 . S
C602 N609 1.356 . S
C603 C602 1.363 . S
C603 C606 1.363 . S
N604 C606 1.356 . S
N604 H616 0.984 . S
N604 H617 0.985 . S
N605 C607 1.356 . S
N605 H610 0.984 . S
N605 H611 0.985 . S
C606 C600 1.379 . S
C606 C603 1.363 . S
C606 N604 1.356 . S
C607 C601 1.363 . S
C607 C602 1.379 . S
C607 N605 1.356 . S
N608 C600 1.356 . S
N608 H614 0.984 . S
N608 H615 0.984 . S
N609 C602 1.356 . S
N609 H612 0.984 . S
N609 H613 0.985 . S
H610 N605 0.984 . S
H611 N605 0.985 . S
H612 N609 0.984 . S
H613 N609 0.985 . S
H614 N608 0.984 . S
H615 N608 0.984 . S
H616 N604 0.984 . S
H617 N604 0.985 . S
C618 C619 1.363 . S
C618 C624 1.379 . S
C618 N626 1.356 . S
C619 C618 1.363 . S
C619 C625 1.363 . S
C620 C621 1.363 . S
C620 C625 1.379 . S
C620 N627 1.356 . S
C621 C620 1.363 . S
C621 C624 1.363 . S
N622 C624 1.356 . S
N622 H634 0.984 . S
N622 H635 0.985 . S
N623 C625 1.356 . S
N623 H628 0.984 . S
N623 H629 0.985 . S
C624 C618 1.379 . S
C624 C621 1.363 . S
C624 N622 1.356 . S
C625 C619 1.363 . S
C625 C620 1.379 . S
C625 N623 1.356 . S
N626 C618 1.356 . S
N626 H632 0.984 . S
N626 H633 0.984 . S
N627 C620 1.356 . S
N627 H630 0.984 . S
N627 H631 0.985 . S
H628 N623 0.984 . S
H629 N623 0.985 . S
H630 N627 0.984 . S
H631 N627 0.985 . S
H632 N626 0.984 . S
H633 N626 0.984 . S
H634 N622 0.984 . S
H635 N622 0.985 . S
C636 C637 1.363 . S
C636 C642 1.379 . S
C636 N644 1.356 . S
C637 C636 1.363 . S
C637 C643 1.363 . S
C638 C639 1.363 . S
C638 C643 1.379 . S
C638 N645 1.356 . S
C639 C638 1.363 . S
C639 C642 1.363 . S
N640 C642 1.356 . S
N640 H652 0.984 . S
N640 H653 0.985 . S
N641 C643 1.356 . S
N641 H646 0.984 . S
N641 H647 0.985 . S
C642 C636 1.379 . S
C642 C639 1.363 . S
C642 N640 1.356 . S
C643 C637 1.363 . S
C643 C638 1.379 . S
C643 N641 1.356 . S
N644 C636 1.356 . S
N644 H650 0.984 . S
N644 H651 0.984 . S
N645 C638 1.356 . S
N645 H648 0.984 . S
N645 H649 0.985 . S
H646 N641 0.984 . S
H647 N641 0.985 . S
H648 N645 0.984 . S
H649 N645 0.985 . S
H650 N644 0.984 . S
H651 N644 0.984 . S
H652 N640 0.984 . S
H653 N640 0.985 . S
C654 C655 1.363 . S
C654 C660 1.379 . S
C654 N662 1.356 . S
C655 C654 1.363 . S
C655 C661 1.363 . S
C656 C657 1.363 . S
C656 C661 1.379 . S
C656 N663 1.356 . S
C657 C656 1.363 . S
C657 C660 1.363 . S
N658 C660 1.356 . S
N658 H670 0.984 . S
N658 H671 0.985 . S
N659 C661 1.356 . S
N659 H664 0.984 . S
N659 H665 0.985 . S
C660 C654 1.379 . S
C660 C657 1.363 . S
C660 N658 1.356 . S
C661 C655 1.363 . S
C661 C656 1.379 . S
C661 N659 1.356 . S
N662 C654 1.356 . S
N662 H668 0.984 . S
N662 H669 0.984 . S
N663 C656 1.356 . S
N663 H666 0.984 . S
N663 H667 0.985 . S
H664 N659 0.984 . S
H665 N659 0.985 . S
H666 N663 0.984 . S
H667 N663 0.985 . S
H668 N662 0.984 . S
H669 N662 0.984 . S
H670 N658 0.984 . S
H671 N658 0.985 . S
C672 C673 1.363 . S
C672 C678 1.379 . S
C672 N680 1.356 . S
C673 C672 1.363 . S
C673 C679 1.363 . S
C674 C675 1.363 . S
C674 C679 1.379 . S
C674 N681 1.356 . S
C675 C674 1.363 . S
C675 C678 1.363 . S
N676 C678 1.356 . S
N676 H688 0.984 . S
N676 H689 0.985 . S
N677 C679 1.356 . S
N677 H682 0.984 . S
N677 H683 0.985 . S
C678 C672 1.379 . S
C678 C675 1.363 . S
C678 N676 1.356 . S
C679 C673 1.363 . S
C679 C674 1.379 . S
C679 N677 1.356 . S
N680 C672 1.356 . S
N680 H686 0.984 . S
N680 H687 0.984 . S
N681 C674 1.356 . S
N681 H684 0.984 . S
N681 H685 0.985 . S
H682 N677 0.984 . S
H683 N677 0.985 . S
H684 N681 0.984 . S
H685 N681 0.985 . S
H686 N680 0.984 . S
H687 N680 0.984 . S
H688 N676 0.984 . S
H689 N676 0.985 . S
C259 C18 1.773 . S
C261 C127 1.823 . S
C277 C29 1.144 . S
C279 N145 1.186 . S
C297 C173 1.872 . S
C295 C55 1.771 . S
C315 N191 1.208 . S
C313 C75 1.163 . S
C333 C219 1.837 . S
C331 C98 1.785 . S
C351 N237 1.172 . S
C349 C118 1.162 . S
C367 C38 1.767 . S
C369 C182 1.818 . S
C385 C52 1.163 . S
C387 N201 1.160 . S
C405 C228 1.832 . S
C403 C72 1.780 . S
C423 N247 1.198 . S
C421 C89 1.160 . S
C439 C109 1.763 . S
C441 C136 1.867 . S
C459 N155 1.176 . S
C457 C9 1.141 . S
C477 C205 1.796 . S
C475 C12 1.717 . S
C493 C35 1.090 . S
C495 N224 1.158 . S
C513 C251 1.844 . S
C511 C49 1.705 . S
C529 C69 1.106 . S
C531 N132 1.176 . S
C547 C92 1.732 . S
C549 C159 1.814 . S
C565 C112 1.116 . S
C567 N178 1.140 . S
C583 C32 1.728 . S
C585 C242 1.812 . S
C603 N122 1.140 . S
C601 C58 1.118 . S
C619 C78 1.741 . S
C621 C150 1.827 . S
C637 C95 1.106 . S
C639 N168 1.172 . S
C655 C115 1.711 . S
C657 C196 1.858 . S
C673 C15 1.091 . S
C675 N214 1.157 . S
