# Generated by pormake.
# Topology rtl, (3,6)-cn, num edge types: 1
# Building blocks:
#     Node 0, Type 0, BuildingBlock: BETDAH_clean_linker_0, # of connection points: 3
#     Node 1, Type 0, BuildingBlock: BETDAH_clean_linker_0, # of connection points: 3
#     Node 2, Type 0, BuildingBlock: BETDAH_clean_linker_0, # of connection points: 3
#     Node 3, Type 0, BuildingBlock: BETDAH_clean_linker_0, # of connection points: 3
#     Node 4, Type 1, BuildingBlock: VOLQOD_clean_sbu_1, # of connection points: 6
#     Node 5, Type 1, BuildingBlock: VOLQOD_clean_sbu_1, # of connection points: 6
#     Edge 6, Type (0, 1), BuildingBlock: FUNLAD_clean_linker_0, # of connection points: 2
#     Edge 7, Type (0, 1), BuildingBlock: FUNLAD_clean_linker_0, # of connection points: 2
#     Edge 8, Type (0, 1), BuildingBlock: FUNLAD_clean_linker_0, # of connection points: 2
#     Edge 9, Type (0, 1), BuildingBlock: FUNLAD_clean_linker_0, # of connection points: 2
#     Edge 10, Type (0, 1), BuildingBlock: FUNLAD_clean_linker_0, # of connection points: 2
#     Edge 11, Type (0, 1), BuildingBlock: FUNLAD_clean_linker_0, # of connection points: 2
#     Edge 12, Type (0, 1), BuildingBlock: FUNLAD_clean_linker_0, # of connection points: 2
#     Edge 13, Type (0, 1), BuildingBlock: FUNLAD_clean_linker_0, # of connection points: 2
#     Edge 14, Type (0, 1), BuildingBlock: FUNLAD_clean_linker_0, # of connection points: 2
#     Edge 15, Type (0, 1), BuildingBlock: FUNLAD_clean_linker_0, # of connection points: 2
#     Edge 16, Type (0, 1), BuildingBlock: FUNLAD_clean_linker_0, # of connection points: 2
#     Edge 17, Type (0, 1), BuildingBlock: FUNLAD_clean_linker_0, # of connection points: 2
# Relax obj value: 0.041
# Max RMSD: 0.143
# Mean RMSD: 0.095
data_MOF--net-rtl--node1-VOLQOD_clean_sbu_1--node2-BETDAH_clean_linker_0--edge1-FUNLAD_clean_linker_0
_symmetry_space_group_name_H-M    P1
_symmetry_Int_Tables_number       1
_symmetry_cell_setting            triclinic
loop_
_symmetry_equiv_pos_as_xyz
'x, y, z'
_cell_length_a     43.626641
_cell_length_b     43.654369
_cell_length_c     25.421454
_cell_angle_alpha  90.782627
_cell_angle_beta   91.694439
_cell_angle_gamma 90.157155
loop_
_atom_site_label
_atom_site_type_symbol
_atom_site_fract_x
_atom_site_fract_y
_atom_site_fract_z
_atom_type_partial_charge
H0 H 0.14581 0.8349 0.9729 0.0
H1 H 0.15833 0.75209 0.06093 0.0
H2 H 0.17755 0.75285 0.89639 0.0
C3 C 0.1527 0.81109 0.9748 0.0
C4 C 0.16201 0.79597 0.92889 0.0
C5 C 0.1511 0.79558 0.02269 0.0
C6 C 0.15986 0.76468 0.02465 0.0
C7 C 0.16971 0.74951 0.97934 0.0
C8 C 0.17054 0.76501 0.93147 0.0
N9 N 0.17697 0.71805 0.98139 0.0
C10 C 0.20707 0.70856 0.98865 0.0
H11 H 0.66839 0.65279 0.56309 0.0
H12 H 0.69904 0.73351 0.48413 0.0
H13 H 0.68981 0.73465 0.65211 0.0
C14 C 0.67708 0.67609 0.56452 0.0
C15 C 0.67932 0.6915 0.61315 0.0
C16 C 0.68382 0.69099 0.51757 0.0
C17 C 0.69386 0.72166 0.51999 0.0
C18 C 0.69611 0.73733 0.56875 0.0
C19 C 0.6883 0.72233 0.6148 0.0
N20 N 0.70491 0.76855 0.57273 0.0
C21 C 0.72616 0.78197 0.54059 0.0
H22 H 0.87572 0.16914 0.00991 0.0
H23 H 0.79449 0.21394 0.06402 0.0
H24 H 0.80441 0.1952 0.89909 0.0
C25 C 0.85376 0.17984 0.00145 0.0
C26 C 0.84252 0.18113 0.94927 0.0
C27 C 0.83651 0.19138 0.0431 0.0
C28 C 0.80801 0.20522 0.03207 0.0
C29 C 0.79675 0.20697 0.97976 0.0
C30 C 0.81383 0.19455 0.939 0.0
N31 N 0.76784 0.21991 0.96658 0.0
C32 C 0.75353 0.24224 -0.00359 0.0
H33 H 0.34465 0.36688 0.53065 0.0
H34 H 0.26518 0.34359 0.61748 0.0
H35 H 0.26792 0.32135 0.45247 0.0
C36 C 0.32232 0.35601 0.53201 0.0
C37 C 0.30844 0.3439 0.48563 0.0
C38 C 0.30712 0.35578 0.57979 0.0
C39 C 0.27735 0.34376 0.58091 0.0
C40 C 0.26344 0.33082 0.53553 0.0
C41 C 0.27899 0.33082 0.4878 0.0
N42 N 0.23341 0.31882 0.53881 0.0
C43 C 0.22402 0.29184 0.51367 0.0
O44 O 0.93913 0.98333 0.48222 0.0
Zn45 Zn 0.96966 0.01798 0.48846 0.0
O46 O 0.01167 0.00291 0.48393 0.0
Zn47 Zn 0.03552 0.01469 0.54769 0.0
Zn48 Zn 0.01094 0.95826 0.4768 0.0
Zn49 Zn 0.03043 0.02062 0.42239 0.0
O50 O 0.06928 0.04442 0.53084 0.0
O51 O 0.06626 0.04757 0.44377 0.0
O52 O 0.96353 0.03893 0.55803 0.0
O53 O 0.00855 0.03555 0.60058 0.0
O54 O 0.05459 0.97769 0.58251 0.0
O55 O 0.03488 0.93858 0.536 0.0
O56 O 0.03068 0.94467 0.41009 0.0
O57 O 0.95918 0.04806 0.43122 0.0
O58 O 0.04503 0.98784 0.37263 0.0
O59 O 0.00064 0.04757 0.38278 0.0
C60 C 0.94157 0.95436 0.47767 0.0
C61 C 0.07881 0.05518 0.4879 0.0
C62 C 0.05164 0.94897 0.57408 0.0
C63 C 0.98059 0.04396 0.59875 0.0
C64 C 0.04337 0.9587 0.37291 0.0
C65 C 0.97364 0.05702 0.39144 0.0
O66 O 0.96773 0.94158 0.47558 0.0
O67 O 0.57469 0.47259 0.05967 0.0
Zn68 Zn 0.5515 0.51266 0.0547 0.0
O69 O 0.50714 0.50626 0.05695 0.0
Zn70 Zn 0.48776 0.52486 -0.00474 0.0
Zn71 Zn 0.49833 0.46244 0.0554 0.0
Zn72 Zn 0.49093 0.52478 0.12129 0.0
O73 O 0.45558 0.55479 0.0161 0.0
O74 O 0.45702 0.55506 0.10344 0.0
O75 O 0.56332 0.53485 0.9893 0.0
O76 O 0.51838 0.54712 0.95238 0.0
O77 O 0.46694 0.49332 0.94826 0.0
O78 O 0.47508 0.44945 0.98927 0.0
O79 O 0.473 0.45058 0.11647 0.0
O80 O 0.56562 0.54001 0.11465 0.0
O81 O 0.47212 0.4925 0.16695 0.0
O82 O 0.52451 0.5474 0.16291 0.0
C83 C 0.56565 0.44486 0.06195 0.0
C84 C 0.44565 0.56448 0.05981 0.0
C85 C 0.46383 0.46438 0.95067 0.0
C86 C 0.54754 0.54836 0.95366 0.0
C87 C 0.46536 0.46439 0.15848 0.0
C88 C 0.55283 0.55183 0.1544 0.0
O89 O 0.53723 0.4381 0.0605 0.0
C90 C 0.22555 0.23569 0.51456 0.0
C91 C 0.21262 0.26265 0.49477 0.0
C92 C 0.21187 0.20736 0.50261 0.0
C93 C 0.18481 0.20572 0.47105 0.0
C94 C 0.17301 0.23275 0.44899 0.0
C95 C 0.1867 0.26108 0.4611 0.0
C96 C 0.16758 0.1766 0.46211 0.0
C97 C 0.16779 0.15378 0.49737 0.0
C98 C 0.14687 0.12687 0.4931 0.0
C99 C 0.13861 0.11214 0.53937 0.0
C100 C 0.11715 0.0883 0.53765 0.0
C101 C 0.10366 0.07844 0.48942 0.0
H102 H 0.1411 0.12607 0.40786 0.0
C103 C 0.11307 0.09218 0.4428 0.0
C104 C 0.13449 0.11608 0.44457 0.0
H105 H 0.10347 0.08492 0.40487 0.0
H106 H 0.24568 0.23661 0.54058 0.0
H107 H 0.22226 0.18695 0.51883 0.0
H108 H 0.15239 0.23212 0.42417 0.0
H109 H 0.17641 0.28179 0.44567 0.0
H110 H 0.15175 0.17552 0.42837 0.0
H111 H 0.18146 0.15629 0.53358 0.0
H112 H 0.14805 0.11974 0.57726 0.0
H113 H 0.11064 0.0781 0.5743 0.0
C114 C 0.24869 0.68965 0.04684 0.0
C115 C 0.23796 0.69775 -0.00349 0.0
C116 C 0.27819 0.67767 0.05414 0.0
C117 C 0.2973 0.67344 0.01086 0.0
C118 C 0.28657 0.68256 0.96079 0.0
C119 C 0.25708 0.6945 0.95361 0.0
C120 C 0.3282 0.6592 0.01562 0.0
C121 C 0.3372 0.64078 0.05534 0.0
C122 C 0.36655 0.62347 0.05604 0.0
C123 C 0.37868 0.61284 0.10422 0.0
C124 C 0.40491 0.59443 0.1059 0.0
C125 C 0.41938 0.58598 0.05922 0.0
H126 H 0.37236 0.62212 0.97126 0.0
C127 C 0.40748 0.59701 0.0111 0.0
C128 C 0.38137 0.61539 0.00944 0.0
H129 H 0.4179 0.59086 0.97428 0.0
H130 H 0.23417 0.69233 0.08045 0.0
H131 H 0.28578 0.67193 0.09363 0.0
H132 H 0.30079 0.6798 0.92682 0.0
H133 H 0.24908 0.70079 0.91447 0.0
H134 H 0.34346 0.66295 0.98337 0.0
H135 H 0.32231 0.63721 0.08812 0.0
H136 H 0.36759 0.61845 0.14068 0.0
H137 H 0.41338 0.58625 0.14363 0.0
C138 C 0.7462 0.82885 0.50171 0.0
C139 C 0.75011 0.79801 0.51457 0.0
C140 C 0.77099 0.846 0.48449 0.0
C141 C 0.80017 0.83253 0.48056 0.0
C142 C 0.80338 0.80109 0.49052 0.0
C143 C 0.77856 0.78399 0.50781 0.0
C144 C 0.82794 0.8507 0.46863 0.0
C145 C 0.83099 0.8806 0.48188 0.0
C146 C 0.8597 0.89869 0.47679 0.0
C147 C 0.8579 0.93078 0.47966 0.0
C148 C 0.88437 0.94882 0.47903 0.0
C149 C 0.91342 0.93519 0.47588 0.0
H150 H 0.89145 0.8604 0.47212 0.0
C151 C 0.91528 0.90307 0.47237 0.0
C152 C 0.88877 0.885 0.47296 0.0
H153 H 0.93729 0.89179 0.47013 0.0
H154 H 0.72427 0.83996 0.50667 0.0
H155 H 0.76726 0.86984 0.47523 0.0
H156 H 0.82548 0.79006 0.48727 0.0
H157 H 0.78191 0.76015 0.51783 0.0
H158 H 0.84698 0.83839 0.45193 0.0
H159 H 0.81185 0.89253 0.49912 0.0
H160 H 0.8359 0.94199 0.483 0.0
H161 H 0.88201 0.97348 0.48178 0.0
C162 C 0.70579 0.26267 0.03121 0.0
C163 C 0.73658 0.267 0.01935 0.0
C164 C 0.68762 0.2877 0.04483 0.0
C165 C 0.70012 0.31756 0.04689 0.0
C166 C 0.73138 0.32145 0.0367 0.0
C167 C 0.74949 0.29635 0.02304 0.0
C168 C 0.68081 0.34533 0.05388 0.0
C169 C 0.65262 0.34484 0.07422 0.0
C170 C 0.63131 0.3714 0.07321 0.0
C171 C 0.59976 0.36553 0.07565 0.0
C172 C 0.57857 0.38935 0.07213 0.0
C173 C 0.58843 0.4198 0.06658 0.0
H174 H 0.66545 0.40766 0.06859 0.0
C175 C 0.62008 0.42587 0.06561 0.0
C176 C 0.64133 0.40196 0.06897 0.0
H177 H 0.62848 0.4491 0.06199 0.0
H178 H 0.69539 0.24013 0.02758 0.0
H179 H 0.66356 0.28352 0.05078 0.0
H180 H 0.7416 0.34411 0.03757 0.0
H181 H 0.77322 0.30007 0.01326 0.0
H182 H 0.68983 0.36661 0.03904 0.0
H183 H 0.64372 0.32361 0.08943 0.0
H184 H 0.59135 0.34229 0.07925 0.0
H185 H 0.5544 0.38379 0.0735 0.0
C186 C 0.11352 0.83097 0.06428 0.0
C187 C 0.139 0.81151 0.06965 0.0
C188 C 0.1026 0.84696 0.10767 0.0
C189 C 0.11693 0.84389 0.15755 0.0
C190 C 0.1417 0.82363 0.16341 0.0
C191 C 0.15277 0.80769 0.11982 0.0
C192 C 0.10595 0.86099 0.20412 0.0
C193 C 0.09302 0.88889 0.20029 0.0
C194 C 0.08119 0.90625 0.2459 0.0
C195 C 0.07925 0.93828 0.24315 0.0
C196 C 0.06726 0.95537 0.28452 0.0
C197 C 0.0565 0.94071 0.3293 0.0
H198 H 0.07068 0.86682 0.29355 0.0
C199 C 0.05823 0.90859 0.33188 0.0
C200 C 0.07043 0.89153 0.29065 0.0
H201 H 0.05004 0.89654 0.3657 0.0
H202 H 0.10178 0.83368 0.0265 0.0
H203 H 0.08265 0.86138 0.10204 0.0
H204 H 0.15288 0.82059 0.2016 0.0
H205 H 0.17245 0.79287 0.12521 0.0
H206 H 0.10997 0.85093 0.24253 0.0
H207 H 0.092 0.90014 0.16241 0.0
H208 H 0.08711 0.95014 0.20887 0.0
H209 H 0.06615 0.98005 0.28112 0.0
C210 C 0.6503 0.68898 0.69657 0.0
C211 C 0.67068 0.67544 0.66147 0.0
C212 C 0.63956 0.67241 0.73894 0.0
C213 C 0.64907 0.642 0.74693 0.0
C214 C 0.67073 0.62914 0.71354 0.0
C215 C 0.68126 0.64559 0.67096 0.0
C216 C 0.6363 0.62283 0.78878 0.0
C217 C 0.60719 0.62577 0.80425 0.0
C218 C 0.59281 0.60508 0.84233 0.0
C219 C 0.56076 0.60221 0.84097 0.0
C220 C 0.54614 0.58334 0.87637 0.0
C221 C 0.56326 0.56707 0.9144 0.0
H222 H 0.63472 0.59104 0.88366 0.0
C223 C 0.59539 0.56995 0.91588 0.0
C224 C 0.61003 0.58881 0.88034 0.0
H225 H 0.60927 0.55798 0.945 0.0
H226 H 0.64182 0.71197 0.69018 0.0
H227 H 0.62361 0.68337 0.76499 0.0
H228 H 0.67872 0.60591 0.71929 0.0
H229 H 0.69732 0.63479 0.64485 0.0
H230 H 0.65032 0.60407 0.8033 0.0
H231 H 0.59246 0.64271 0.78551 0.0
H232 H 0.54692 0.61459 0.81228 0.0
H233 H 0.52135 0.5818 0.8742 0.0
C234 C 0.87827 0.19314 0.11248 0.0
C235 C 0.8477 0.18638 0.09784 0.0
C236 C 0.89083 0.1828 0.16013 0.0
C237 C 0.87316 0.16495 0.19368 0.0
C238 C 0.84188 0.16049 0.18102 0.0
C239 C 0.82923 0.17107 0.13345 0.0
C240 C 0.88698 0.14896 0.23992 0.0
C241 C 0.91652 0.1398 0.24153 0.0
C242 C 0.93061 0.11962 0.28234 0.0
C243 C 0.95971 0.10735 0.27297 0.0
C244 C 0.97368 0.08724 0.30844 0.0
C245 C 0.95889 0.07884 0.35443 0.0
H246 H 0.89396 0.12107 0.33876 0.0
C247 C 0.93001 0.09151 0.36454 0.0
C248 C 0.91604 0.11177 0.32905 0.0
H249 H 0.91812 0.08578 0.39991 0.0
H250 H 0.8928 0.20543 0.08606 0.0
H251 H 0.91462 0.18808 0.16966 0.0
H252 H 0.8276 0.14724 0.20651 0.0
H253 H 0.80558 0.16555 0.12304 0.0
H254 H 0.87154 0.14186 0.27009 0.0
H255 H 0.93091 0.14537 0.20886 0.0
H256 H 0.97164 0.113 0.23758 0.0
H257 H 0.99599 0.07808 0.29941 0.0
C258 C 0.35337 0.36148 0.63959 0.0
C259 C 0.32252 0.3685 0.62804 0.0
C260 C 0.36863 0.37467 0.68328 0.0
C261 C 0.35327 0.39511 0.71661 0.0
C262 C 0.32236 0.40194 0.70529 0.0
C263 C 0.30703 0.38859 0.66164 0.0
C264 C 0.36939 0.41116 0.76125 0.0
C265 C 0.39439 0.39978 0.78633 0.0
C266 C 0.41159 0.41681 0.8286 0.0
C267 C 0.42821 0.40038 0.8669 0.0
C268 C 0.44517 0.41576 0.90663 0.0
C269 C 0.44621 0.44796 0.90833 0.0
H270 H 0.4012 0.46244 0.80006 0.0
C271 C 0.42999 0.46439 0.86938 0.0
C272 C 0.41287 0.44901 0.82994 0.0
H273 H 0.43043 0.4892 0.86932 0.0
H274 H 0.36584 0.34595 0.61445 0.0
H275 H 0.39267 0.36947 0.6897 0.0
H276 H 0.3101 0.41785 0.73002 0.0
H277 H 0.28334 0.39467 0.65332 0.0
H278 H 0.35986 0.43281 0.77445 0.0
H279 H 0.40213 0.37678 0.77689 0.0
H280 H 0.42791 0.37556 0.86631 0.0
H281 H 0.45753 0.40239 0.93584 0.0
C282 C 0.66026 0.68936 0.42626 0.0
C283 C 0.67719 0.67485 0.46665 0.0
C284 C 0.64803 0.6723 0.38354 0.0
C285 C 0.65253 0.64041 0.38064 0.0
C286 C 0.67113 0.62637 0.41914 0.0
C287 C 0.68362 0.64343 0.46136 0.0
C288 C 0.63534 0.62068 0.34203 0.0
C289 C 0.62594 0.62996 0.29405 0.0
C290 C 0.60701 0.60988 0.25866 0.0
C291 C 0.61347 0.60787 0.20508 0.0
C292 C 0.59608 0.58863 0.17138 0.0
C293 C 0.57128 0.57183 0.19043 0.0
H294 H 0.57638 0.59478 0.31887 0.0
C295 C 0.56428 0.57452 0.24383 0.0
C296 C 0.58219 0.59314 0.27779 0.0
H297 H 0.54524 0.56191 0.25947 0.0
H298 H 0.65463 0.71345 0.42946 0.0
H299 H 0.63341 0.68379 0.35493 0.0
H300 H 0.67507 0.60187 0.41764 0.0
H301 H 0.69701 0.63168 0.49141 0.0
H302 H 0.63032 0.59735 0.35364 0.0
H303 H 0.63324 0.65202 0.27952 0.0
H304 H 0.63232 0.62078 0.18948 0.0
H305 H 0.60177 0.58724 0.13022 0.0
C306 C 0.87495 0.13919 0.91182 0.0
C307 C 0.86019 0.16757 0.9057 0.0
C308 C 0.89061 0.12587 0.87021 0.0
C309 C 0.89195 0.14074 0.82156 0.0
C310 C 0.87729 0.16911 0.81556 0.0
C311 C 0.86172 0.18247 0.8572 0.0
C312 C 0.90661 0.12653 0.7753 0.0
C313 C 0.92882 0.10521 0.77893 0.0
C314 C 0.94195 0.09013 0.73203 0.0
C315 C 0.97197 0.07866 0.73526 0.0
C316 C 0.98471 0.06385 0.69196 0.0
C317 C 0.96747 0.05985 0.64472 0.0
H318 H 0.90105 0.09341 0.68147 0.0
C319 C 0.93726 0.07098 0.64183 0.0
C320 C 0.92462 0.08587 0.68495 0.0
H321 H 0.92321 0.0681 0.60626 0.0
H322 H 0.87365 0.1268 0.94831 0.0
H323 H 0.90072 0.10352 0.87595 0.0
H324 H 0.8778 0.18097 0.77842 0.0
H325 H 0.85086 0.2045 0.85137 0.0
H326 H 0.89923 0.13462 0.73676 0.0
H327 H 0.93851 0.09923 0.81725 0.0
H328 H 0.98567 0.08132 0.77129 0.0
H329 H 0.00798 0.0554 0.69567 0.0
C330 C 0.35627 0.3438 0.43349 0.0
C331 C 0.32428 0.34739 0.4351 0.0
C332 C 0.37227 0.35328 0.38987 0.0
C333 C 0.35656 0.36627 0.34667 0.0
C334 C 0.3244 0.36723 0.34605 0.0
C335 C 0.30835 0.35808 0.3901 0.0
C336 C 0.37346 0.38053 0.30357 0.0
C337 C 0.39873 0.39767 0.31374 0.0
C338 C 0.41509 0.41459 0.27288 0.0
C339 C 0.43037 0.44195 0.2871 0.0
C340 C 0.44641 0.45836 0.24988 0.0
C341 C 0.44805 0.44733 0.19788 0.0
H342 H 0.40568 0.38217 0.20892 0.0
C343 C 0.43307 0.4197 0.18381 0.0
C344 C 0.41662 0.40355 0.22086 0.0
H345 H 0.43392 0.41056 0.14405 0.0
H346 H 0.36912 0.33484 0.46697 0.0
H347 H 0.39702 0.35127 0.3906 0.0
H348 H 0.31181 0.3768 0.3128 0.0
H349 H 0.28373 0.36116 0.39008 0.0
H350 H 0.36333 0.37945 0.26402 0.0
H351 H 0.4066 0.40123 0.35436 0.0
H352 H 0.42971 0.4508 0.32708 0.0
H353 H 0.45784 0.47946 0.26204 0.0
C354 C 0.14519 0.79872 0.83397 0.0
C355 C 0.1602 0.81227 0.87808 0.0
C356 C 0.1386 0.81597 0.7891 0.0
C357 C 0.14685 0.84717 0.78767 0.0
C358 C 0.16395 0.85992 0.83019 0.0
C359 C 0.17042 0.84273 0.87505 0.0
C360 C 0.13669 0.8676 0.74426 0.0
C361 C 0.1107 0.86278 0.7153 0.0
C362 C 0.0976 0.88531 0.6776 0.0
C363 C 0.0772 0.87482 0.63758 0.0
C364 C 0.06263 0.89542 0.60358 0.0
C365 C 0.06783 0.92712 0.60926 0.0
H366 H 0.1178 0.92618 0.71446 0.0
C367 C 0.08833 0.93766 0.64926 0.0
C368 C 0.10304 0.91702 0.68311 0.0
H369 H 0.09279 0.96193 0.6549 0.0
H370 H 0.13712 0.77526 0.8351 0.0
H371 H 0.12647 0.80493 0.75628 0.0
H372 H 0.17105 0.88372 0.82982 0.0
H373 H 0.18251 0.8536 0.90818 0.0
H374 H 0.14977 0.88848 0.7391 0.0
H375 H 0.09758 0.84192 0.72036 0.0
H376 H 0.07232 0.85057 0.6328 0.0
H377 H 0.04694 0.88645 0.57331 0.0
loop_
_geom_bond_atom_site_label_1
_geom_bond_atom_site_label_2
_geom_bond_distance
_geom_bond_site_symmetry_2
_ccdc_geom_bond_type
H0 C3 0.929 . S
H1 C6 0.929 . S
H2 C8 0.930 . S
C3 H0 0.929 . S
C3 C4 1.398 1_554 S
C3 C5 1.396 . S
C4 C3 1.398 1_556 S
C4 C8 1.407 . S
C5 C3 1.396 . S
C5 C6 1.394 . S
C6 H1 0.929 . S
C6 C5 1.394 . S
C6 C7 1.382 . S
C7 C6 1.382 . S
C7 C8 1.392 1_554 S
C7 N9 1.422 . S
C8 H2 0.930 . S
C8 C4 1.407 . S
C8 C7 1.392 1_556 S
N9 C7 1.422 . S
N9 C10 1.250 . S
C10 N9 1.250 . S
H11 C14 0.929 . S
H12 C17 0.929 . S
H13 C19 0.930 . S
C14 H11 0.929 . S
C14 C15 1.398 . S
C14 C16 1.396 . S
C15 C14 1.398 . S
C15 C19 1.407 . S
C16 C14 1.396 . S
C16 C17 1.394 . S
C17 H12 0.929 . S
C17 C16 1.394 . S
C17 C18 1.382 . S
C18 C17 1.382 . S
C18 C19 1.392 . S
C18 N20 1.420 . S
C19 H13 0.930 . S
C19 C15 1.407 . S
C19 C18 1.392 . S
N20 C18 1.420 . S
N20 C21 1.244 . S
C21 N20 1.244 . S
H22 C25 0.929 . S
H23 C28 0.929 . S
H24 C30 0.930 . S
C25 H22 0.929 . S
C25 C26 1.398 1_554 S
C25 C27 1.396 . S
C26 C25 1.398 1_556 S
C26 C30 1.407 . S
C27 C25 1.396 . S
C27 C28 1.394 . S
C28 H23 0.929 . S
C28 C27 1.394 . S
C28 C29 1.382 . S
C29 C28 1.382 . S
C29 C30 1.392 1_554 S
C29 N31 1.421 1_554 S
C30 H24 0.930 . S
C30 C26 1.407 . S
C30 C29 1.392 1_556 S
N31 C29 1.421 1_556 S
N31 C32 1.246 1_556 S
C32 N31 1.246 1_554 S
H33 C36 0.929 . S
H34 C39 0.929 . S
H35 C41 0.930 . S
C36 H33 0.929 . S
C36 C37 1.398 . S
C36 C38 1.396 . S
C37 C36 1.398 . S
C37 C41 1.407 . S
C38 C36 1.396 . S
C38 C39 1.394 . S
C39 H34 0.929 . S
C39 C38 1.394 . S
C39 C40 1.382 . S
C40 C39 1.382 . S
C40 C41 1.392 . S
C40 N42 1.420 . S
C41 H35 0.930 . S
C41 C37 1.407 . S
C41 C40 1.392 . S
N42 C40 1.420 . S
N42 C43 1.244 . S
C43 N42 1.244 . S
O44 Zn45 1.953 1_565 S
O44 C60 1.225 . S
Zn45 O44 1.953 1_545 S
Zn45 O46 1.949 1_655 S
Zn45 O52 1.919 . S
Zn45 O57 1.924 . S
O46 Zn45 1.949 1_455 S
O46 Zn47 1.923 . S
O46 Zn48 1.950 1_545 S
O46 Zn49 1.945 . S
Zn47 O46 1.923 . S
Zn47 O50 1.933 . S
Zn47 O53 1.965 . S
Zn47 O54 1.965 1_545 S
Zn48 O46 1.950 1_565 S
Zn48 O55 1.938 . S
Zn48 O56 1.906 . S
Zn48 O66 1.953 1_455 S
Zn49 O46 1.945 . S
Zn49 O51 1.932 . S
Zn49 O58 1.956 1_545 S
Zn49 O59 1.910 1_455 S
O50 Zn47 1.933 . S
O50 C61 1.226 . S
O51 Zn49 1.932 . S
O51 C61 1.307 . S
O52 Zn45 1.919 . S
O52 C63 1.253 . S
O53 Zn47 1.965 . S
O53 C63 1.249 1_455 S
O54 Zn47 1.965 1_565 S
O54 C62 1.303 . S
O55 Zn48 1.938 . S
O55 C62 1.247 . S
O56 Zn48 1.906 . S
O56 C64 1.304 . S
O57 Zn45 1.924 . S
O57 C65 1.311 . S
O58 Zn49 1.956 1_565 S
O58 C64 1.301 . S
O59 Zn49 1.910 1_655 S
O59 C65 1.231 . S
C60 O44 1.225 . S
C60 O66 1.298 . S
C61 O50 1.226 . S
C61 O51 1.307 . S
C62 O54 1.303 . S
C62 O55 1.247 . S
C63 O52 1.253 . S
C63 O53 1.249 1_655 S
C64 O56 1.304 . S
C64 O58 1.301 . S
C65 O57 1.311 . S
C65 O59 1.231 . S
O66 Zn48 1.953 1_655 S
O66 C60 1.298 . S
O67 Zn68 1.953 . S
O67 C83 1.225 . S
Zn68 O67 1.953 . S
Zn68 O69 1.949 . S
Zn68 O75 1.919 1_554 S
Zn68 O80 1.924 . S
O69 Zn68 1.949 . S
O69 Zn70 1.923 1_554 S
O69 Zn71 1.950 . S
O69 Zn72 1.945 . S
Zn70 O69 1.923 1_556 S
Zn70 O73 1.933 . S
Zn70 O76 1.941 . S
Zn70 O77 1.965 . S
Zn71 O69 1.950 . S
Zn71 O78 1.938 1_554 S
Zn71 O79 1.906 . S
Zn71 O89 1.953 . S
Zn72 O69 1.945 . S
Zn72 O74 1.932 . S
Zn72 O81 1.977 . S
Zn72 O82 1.910 . S
O73 Zn70 1.933 . S
O73 C84 1.226 1_556 S
O74 Zn72 1.932 . S
O74 C84 1.307 . S
O75 Zn68 1.919 1_556 S
O75 C86 1.253 . S
O76 Zn70 1.941 . S
O76 C86 1.283 . S
O77 Zn70 1.965 . S
O77 C85 1.303 . S
O78 Zn71 1.938 1_556 S
O78 C85 1.247 . S
O79 Zn71 1.906 . S
O79 C87 1.304 . S
O80 Zn68 1.924 . S
O80 C88 1.311 . S
O81 Zn72 1.977 . S
O81 C87 1.272 . S
O82 Zn72 1.910 . S
O82 C88 1.231 . S
C83 O67 1.225 . S
C83 O89 1.298 . S
C84 O73 1.226 1_554 S
C84 O74 1.307 . S
C85 O77 1.303 . S
C85 O78 1.247 . S
C86 O75 1.253 . S
C86 O76 1.283 . S
C87 O79 1.304 . S
C87 O81 1.272 . S
C88 O80 1.311 . S
C88 O82 1.231 . S
O89 Zn71 1.953 . S
O89 C83 1.298 . S
C90 C91 1.386 . S
C90 C92 1.383 . S
C90 H106 0.951 . S
C91 C90 1.386 . S
C91 C95 1.383 . S
C92 C90 1.383 . S
C92 C93 1.402 . S
C92 H107 0.951 . S
C93 C92 1.402 . S
C93 C94 1.375 . S
C93 C96 1.481 . S
C94 C93 1.375 . S
C94 C95 1.367 . S
C94 H108 0.951 . S
C95 C91 1.383 . S
C95 C94 1.367 . S
C95 H109 0.950 . S
C96 C93 1.481 . S
C96 C97 1.297 . S
C96 H110 0.950 . S
C97 C96 1.297 . S
C97 C98 1.479 . S
C97 H111 0.950 . S
C98 C97 1.479 . S
C98 C99 1.375 . S
C98 C104 1.404 . S
C99 C98 1.375 . S
C99 C100 1.369 . S
C99 H112 0.950 . S
C100 C99 1.369 . S
C100 C101 1.392 . S
C100 H113 0.951 . S
C101 C100 1.392 . S
C101 C103 1.384 . S
H102 C104 0.949 . S
C103 C101 1.384 . S
C103 C104 1.385 . S
C103 H105 0.950 . S
C104 C98 1.404 . S
C104 H102 0.949 . S
C104 C103 1.385 . S
H105 C103 0.950 . S
H106 C90 0.951 . S
H107 C92 0.951 . S
H108 C94 0.951 . S
H109 C95 0.950 . S
H110 C96 0.950 . S
H111 C97 0.950 . S
H112 C99 0.950 . S
H113 C100 0.951 . S
C114 C115 1.386 . S
C114 C116 1.383 . S
C114 H130 0.951 . S
C115 C114 1.386 . S
C115 C119 1.383 1_554 S
C116 C114 1.383 . S
C116 C117 1.402 . S
C116 H131 0.951 . S
C117 C116 1.402 . S
C117 C118 1.375 1_554 S
C117 C120 1.481 . S
C118 C117 1.375 1_556 S
C118 C119 1.367 . S
C118 H132 0.951 . S
C119 C115 1.383 1_556 S
C119 C118 1.367 . S
C119 H133 0.950 . S
C120 C117 1.481 . S
C120 C121 1.297 . S
C120 H134 0.950 1_554 S
C121 C120 1.297 . S
C121 C122 1.479 . S
C121 H135 0.950 . S
C122 C121 1.479 . S
C122 C123 1.375 . S
C122 C128 1.404 1_554 S
C123 C122 1.375 . S
C123 C124 1.369 . S
C123 H136 0.950 . S
C124 C123 1.369 . S
C124 C125 1.392 . S
C124 H137 0.951 . S
C125 C124 1.392 . S
C125 C127 1.384 1_554 S
H126 C128 0.949 . S
C127 C125 1.384 1_556 S
C127 C128 1.385 . S
C127 H129 0.950 . S
C128 C122 1.404 1_556 S
C128 H126 0.949 . S
C128 C127 1.385 . S
H129 C127 0.950 . S
H130 C114 0.951 . S
H131 C116 0.951 . S
H132 C118 0.951 . S
H133 C119 0.950 . S
H134 C120 0.950 1_556 S
H135 C121 0.950 . S
H136 C123 0.950 . S
H137 C124 0.951 . S
C138 C139 1.386 . S
C138 C140 1.383 . S
C138 H154 0.951 . S
C139 C138 1.386 . S
C139 C143 1.383 . S
C140 C138 1.383 . S
C140 C141 1.402 . S
C140 H155 0.951 . S
C141 C140 1.402 . S
C141 C142 1.375 . S
C141 C144 1.481 . S
C142 C141 1.375 . S
C142 C143 1.367 . S
C142 H156 0.951 . S
C143 C139 1.383 . S
C143 C142 1.367 . S
C143 H157 0.950 . S
C144 C141 1.481 . S
C144 C145 1.297 . S
C144 H158 0.950 . S
C145 C144 1.297 . S
C145 C146 1.479 . S
C145 H159 0.950 . S
C146 C145 1.479 . S
C146 C147 1.375 . S
C146 C152 1.404 . S
C147 C146 1.375 . S
C147 C148 1.369 . S
C147 H160 0.950 . S
C148 C147 1.369 . S
C148 C149 1.392 . S
C148 H161 0.951 . S
C149 C148 1.392 . S
C149 C151 1.384 . S
H150 C152 0.949 . S
C151 C149 1.384 . S
C151 C152 1.385 . S
C151 H153 0.950 . S
C152 C146 1.404 . S
C152 H150 0.949 . S
C152 C151 1.385 . S
H153 C151 0.950 . S
H154 C138 0.951 . S
H155 C140 0.951 . S
H156 C142 0.951 . S
H157 C143 0.950 . S
H158 C144 0.950 . S
H159 C145 0.950 . S
H160 C147 0.950 . S
H161 C148 0.951 . S
C162 C163 1.386 . S
C162 C164 1.383 . S
C162 H178 0.951 . S
C163 C162 1.386 . S
C163 C167 1.383 . S
C164 C162 1.383 . S
C164 C165 1.402 . S
C164 H179 0.951 . S
C165 C164 1.402 . S
C165 C166 1.375 . S
C165 C168 1.481 . S
C166 C165 1.375 . S
C166 C167 1.367 . S
C166 H180 0.951 1_554 S
C167 C163 1.383 . S
C167 C166 1.367 . S
C167 H181 0.950 1_554 S
C168 C165 1.481 . S
C168 C169 1.297 . S
C168 H182 0.950 . S
C169 C168 1.297 . S
C169 C170 1.479 . S
C169 H183 0.950 . S
C170 C169 1.479 . S
C170 C171 1.375 . S
C170 C176 1.404 . S
C171 C170 1.375 . S
C171 C172 1.369 . S
C171 H184 0.950 . S
C172 C171 1.369 . S
C172 C173 1.392 . S
C172 H185 0.951 . S
C173 C172 1.392 . S
C173 C175 1.384 . S
H174 C176 0.949 . S
C175 C173 1.384 . S
C175 C176 1.385 . S
C175 H177 0.950 . S
C176 C170 1.404 . S
C176 H174 0.949 . S
C176 C175 1.385 . S
H177 C175 0.950 . S
H178 C162 0.951 . S
H179 C164 0.951 . S
H180 C166 0.951 1_556 S
H181 C167 0.950 1_556 S
H182 C168 0.950 . S
H183 C169 0.950 . S
H184 C171 0.950 . S
H185 C172 0.951 . S
C186 C187 1.386 . S
C186 C188 1.383 . S
C186 H202 0.951 . S
C187 C186 1.386 . S
C187 C191 1.383 . S
C188 C186 1.383 . S
C188 C189 1.402 . S
C188 H203 0.951 . S
C189 C188 1.402 . S
C189 C190 1.375 . S
C189 C192 1.481 . S
C190 C189 1.375 . S
C190 C191 1.367 . S
C190 H204 0.951 . S
C191 C187 1.383 . S
C191 C190 1.367 . S
C191 H205 0.950 . S
C192 C189 1.481 . S
C192 C193 1.297 . S
C192 H206 0.950 . S
C193 C192 1.297 . S
C193 C194 1.479 . S
C193 H207 0.950 . S
C194 C193 1.479 . S
C194 C195 1.375 . S
C194 C200 1.404 . S
C195 C194 1.375 . S
C195 C196 1.369 . S
C195 H208 0.950 . S
C196 C195 1.369 . S
C196 C197 1.392 . S
C196 H209 0.951 . S
C197 C196 1.392 . S
C197 C199 1.384 . S
H198 C200 0.949 . S
C199 C197 1.384 . S
C199 C200 1.385 . S
C199 H201 0.950 . S
C200 C194 1.404 . S
C200 H198 0.949 . S
C200 C199 1.385 . S
H201 C199 0.950 . S
H202 C186 0.951 . S
H203 C188 0.951 . S
H204 C190 0.951 . S
H205 C191 0.950 . S
H206 C192 0.950 . S
H207 C193 0.950 . S
H208 C195 0.950 . S
H209 C196 0.951 . S
C210 C211 1.386 . S
C210 C212 1.383 . S
C210 H226 0.951 . S
C211 C210 1.386 . S
C211 C215 1.383 . S
C212 C210 1.383 . S
C212 C213 1.402 . S
C212 H227 0.951 . S
C213 C212 1.402 . S
C213 C214 1.375 . S
C213 C216 1.481 . S
C214 C213 1.375 . S
C214 C215 1.367 . S
C214 H228 0.951 . S
C215 C211 1.383 . S
C215 C214 1.367 . S
C215 H229 0.950 . S
C216 C213 1.481 . S
C216 C217 1.297 . S
C216 H230 0.950 . S
C217 C216 1.297 . S
C217 C218 1.479 . S
C217 H231 0.950 . S
C218 C217 1.479 . S
C218 C219 1.375 . S
C218 C224 1.404 . S
C219 C218 1.375 . S
C219 C220 1.369 . S
C219 H232 0.950 . S
C220 C219 1.369 . S
C220 C221 1.392 . S
C220 H233 0.951 . S
C221 C220 1.392 . S
C221 C223 1.384 . S
H222 C224 0.949 . S
C223 C221 1.384 . S
C223 C224 1.385 . S
C223 H225 0.950 . S
C224 C218 1.404 . S
C224 H222 0.949 . S
C224 C223 1.385 . S
H225 C223 0.950 . S
H226 C210 0.951 . S
H227 C212 0.951 . S
H228 C214 0.951 . S
H229 C215 0.950 . S
H230 C216 0.950 . S
H231 C217 0.950 . S
H232 C219 0.950 . S
H233 C220 0.951 . S
C234 C235 1.386 . S
C234 C236 1.383 . S
C234 H250 0.951 . S
C235 C234 1.386 . S
C235 C239 1.383 . S
C236 C234 1.383 . S
C236 C237 1.402 . S
C236 H251 0.951 . S
C237 C236 1.402 . S
C237 C238 1.375 . S
C237 C240 1.481 . S
C238 C237 1.375 . S
C238 C239 1.367 . S
C238 H252 0.951 . S
C239 C235 1.383 . S
C239 C238 1.367 . S
C239 H253 0.950 . S
C240 C237 1.481 . S
C240 C241 1.297 . S
C240 H254 0.950 . S
C241 C240 1.297 . S
C241 C242 1.479 . S
C241 H255 0.950 . S
C242 C241 1.479 . S
C242 C243 1.375 . S
C242 C248 1.404 . S
C243 C242 1.375 . S
C243 C244 1.369 . S
C243 H256 0.950 . S
C244 C243 1.369 . S
C244 C245 1.392 . S
C244 H257 0.951 . S
C245 C244 1.392 . S
C245 C247 1.384 . S
H246 C248 0.949 . S
C247 C245 1.384 . S
C247 C248 1.385 . S
C247 H249 0.950 . S
C248 C242 1.404 . S
C248 H246 0.949 . S
C248 C247 1.385 . S
H249 C247 0.950 . S
H250 C234 0.951 . S
H251 C236 0.951 . S
H252 C238 0.951 . S
H253 C239 0.950 . S
H254 C240 0.950 . S
H255 C241 0.950 . S
H256 C243 0.950 . S
H257 C244 0.951 . S
C258 C259 1.386 . S
C258 C260 1.383 . S
C258 H274 0.951 . S
C259 C258 1.386 . S
C259 C263 1.383 . S
C260 C258 1.383 . S
C260 C261 1.402 . S
C260 H275 0.951 . S
C261 C260 1.402 . S
C261 C262 1.375 . S
C261 C264 1.481 . S
C262 C261 1.375 . S
C262 C263 1.367 . S
C262 H276 0.951 . S
C263 C259 1.383 . S
C263 C262 1.367 . S
C263 H277 0.950 . S
C264 C261 1.481 . S
C264 C265 1.297 . S
C264 H278 0.950 . S
C265 C264 1.297 . S
C265 C266 1.479 . S
C265 H279 0.950 . S
C266 C265 1.479 . S
C266 C267 1.375 . S
C266 C272 1.404 . S
C267 C266 1.375 . S
C267 C268 1.369 . S
C267 H280 0.950 . S
C268 C267 1.369 . S
C268 C269 1.392 . S
C268 H281 0.951 . S
C269 C268 1.392 . S
C269 C271 1.384 . S
H270 C272 0.949 . S
C271 C269 1.384 . S
C271 C272 1.385 . S
C271 H273 0.950 . S
C272 C266 1.404 . S
C272 H270 0.949 . S
C272 C271 1.385 . S
H273 C271 0.950 . S
H274 C258 0.951 . S
H275 C260 0.951 . S
H276 C262 0.951 . S
H277 C263 0.950 . S
H278 C264 0.950 . S
H279 C265 0.950 . S
H280 C267 0.950 . S
H281 C268 0.951 . S
C282 C283 1.386 . S
C282 C284 1.383 . S
C282 H298 0.951 . S
C283 C282 1.386 . S
C283 C287 1.383 . S
C284 C282 1.383 . S
C284 C285 1.402 . S
C284 H299 0.951 . S
C285 C284 1.402 . S
C285 C286 1.375 . S
C285 C288 1.481 . S
C286 C285 1.375 . S
C286 C287 1.367 . S
C286 H300 0.951 . S
C287 C283 1.383 . S
C287 C286 1.367 . S
C287 H301 0.950 . S
C288 C285 1.481 . S
C288 C289 1.297 . S
C288 H302 0.950 . S
C289 C288 1.297 . S
C289 C290 1.479 . S
C289 H303 0.950 . S
C290 C289 1.479 . S
C290 C291 1.375 . S
C290 C296 1.404 . S
C291 C290 1.375 . S
C291 C292 1.369 . S
C291 H304 0.950 . S
C292 C291 1.369 . S
C292 C293 1.392 . S
C292 H305 0.951 . S
C293 C292 1.392 . S
C293 C295 1.384 . S
H294 C296 0.949 . S
C295 C293 1.384 . S
C295 C296 1.385 . S
C295 H297 0.950 . S
C296 C290 1.404 . S
C296 H294 0.949 . S
C296 C295 1.385 . S
H297 C295 0.950 . S
H298 C282 0.951 . S
H299 C284 0.951 . S
H300 C286 0.951 . S
H301 C287 0.950 . S
H302 C288 0.950 . S
H303 C289 0.950 . S
H304 C291 0.950 . S
H305 C292 0.951 . S
C306 C307 1.386 . S
C306 C308 1.383 . S
C306 H322 0.951 . S
C307 C306 1.386 . S
C307 C311 1.383 . S
C308 C306 1.383 . S
C308 C309 1.402 . S
C308 H323 0.951 . S
C309 C308 1.402 . S
C309 C310 1.375 . S
C309 C312 1.481 . S
C310 C309 1.375 . S
C310 C311 1.367 . S
C310 H324 0.951 . S
C311 C307 1.383 . S
C311 C310 1.367 . S
C311 H325 0.950 . S
C312 C309 1.481 . S
C312 C313 1.297 . S
C312 H326 0.950 . S
C313 C312 1.297 . S
C313 C314 1.479 . S
C313 H327 0.950 . S
C314 C313 1.479 . S
C314 C315 1.375 . S
C314 C320 1.404 . S
C315 C314 1.375 . S
C315 C316 1.369 . S
C315 H328 0.950 . S
C316 C315 1.369 . S
C316 C317 1.392 . S
C316 H329 0.951 . S
C317 C316 1.392 . S
C317 C319 1.384 . S
H318 C320 0.949 . S
C319 C317 1.384 . S
C319 C320 1.385 . S
C319 H321 0.950 . S
C320 C314 1.404 . S
C320 H318 0.949 . S
C320 C319 1.385 . S
H321 C319 0.950 . S
H322 C306 0.951 . S
H323 C308 0.951 . S
H324 C310 0.951 . S
H325 C311 0.950 . S
H326 C312 0.950 . S
H327 C313 0.950 . S
H328 C315 0.950 . S
H329 C316 0.951 . S
C330 C331 1.386 . S
C330 C332 1.383 . S
C330 H346 0.951 . S
C331 C330 1.386 . S
C331 C335 1.383 . S
C332 C330 1.383 . S
C332 C333 1.402 . S
C332 H347 0.951 . S
C333 C332 1.402 . S
C333 C334 1.375 . S
C333 C336 1.481 . S
C334 C333 1.375 . S
C334 C335 1.367 . S
C334 H348 0.951 . S
C335 C331 1.383 . S
C335 C334 1.367 . S
C335 H349 0.950 . S
C336 C333 1.481 . S
C336 C337 1.297 . S
C336 H350 0.950 . S
C337 C336 1.297 . S
C337 C338 1.479 . S
C337 H351 0.950 . S
C338 C337 1.479 . S
C338 C339 1.375 . S
C338 C344 1.404 . S
C339 C338 1.375 . S
C339 C340 1.369 . S
C339 H352 0.950 . S
C340 C339 1.369 . S
C340 C341 1.392 . S
C340 H353 0.951 . S
C341 C340 1.392 . S
C341 C343 1.384 . S
H342 C344 0.949 . S
C343 C341 1.384 . S
C343 C344 1.385 . S
C343 H345 0.950 . S
C344 C338 1.404 . S
C344 H342 0.949 . S
C344 C343 1.385 . S
H345 C343 0.950 . S
H346 C330 0.951 . S
H347 C332 0.951 . S
H348 C334 0.951 . S
H349 C335 0.950 . S
H350 C336 0.950 . S
H351 C337 0.950 . S
H352 C339 0.950 . S
H353 C340 0.951 . S
C354 C355 1.386 . S
C354 C356 1.383 . S
C354 H370 0.951 . S
C355 C354 1.386 . S
C355 C359 1.383 . S
C356 C354 1.383 . S
C356 C357 1.402 . S
C356 H371 0.951 . S
C357 C356 1.402 . S
C357 C358 1.375 . S
C357 C360 1.481 . S
C358 C357 1.375 . S
C358 C359 1.367 . S
C358 H372 0.951 . S
C359 C355 1.383 . S
C359 C358 1.367 . S
C359 H373 0.950 . S
C360 C357 1.481 . S
C360 C361 1.297 . S
C360 H374 0.950 . S
C361 C360 1.297 . S
C361 C362 1.479 . S
C361 H375 0.950 . S
C362 C361 1.479 . S
C362 C363 1.375 . S
C362 C368 1.404 . S
C363 C362 1.375 . S
C363 C364 1.369 . S
C363 H376 0.950 . S
C364 C363 1.369 . S
C364 C365 1.392 . S
C364 H377 0.951 . S
C365 C364 1.392 . S
C365 C367 1.384 . S
H366 C368 0.949 . S
C367 C365 1.384 . S
C367 C368 1.385 . S
C367 H369 0.950 . S
C368 C362 1.404 . S
C368 H366 0.949 . S
C368 C367 1.385 . S
H369 C367 0.950 . S
H370 C354 0.951 . S
H371 C356 0.951 . S
H372 C358 0.951 . S
H373 C359 0.950 . S
H374 C360 0.950 . S
H375 C361 0.950 . S
H376 C363 0.950 . S
H377 C364 0.951 . S
C101 C61 1.479 . S
C91 C43 1.484 . S
C115 C10 1.485 . S
C125 C84 1.468 . S
C139 C21 1.513 . S
C149 C60 1.505 . S
C163 C32 1.516 . S
C173 C83 1.508 . S
C197 C64 1.436 . S
C187 C5 1.504 . S
C221 C86 1.447 . S
C211 C15 1.541 . S
C235 C27 1.523 . S
C245 C65 1.425 . S
C259 C38 1.501 . S
C269 C85 1.511 . S
C293 C88 1.428 . S
C283 C16 1.405 . S
C317 C63 1.375 . S
C307 C26 1.469 . S
C341 C87 1.362 . S
C331 C37 1.429 . S
C355 C4 1.443 . S
C365 C62 1.414 . S
