# Generated by pormake.
# Topology zzz, (3,6)-cn, num edge types: 1
# Building blocks:
#     Node 0, Type 0, BuildingBlock: BETDIP_clean_linker_0, # of connection points: 3
#     Node 1, Type 0, BuildingBlock: BETDIP_clean_linker_0, # of connection points: 3
#     Node 2, Type 0, BuildingBlock: BETDIP_clean_linker_0, # of connection points: 3
#     Node 3, Type 0, BuildingBlock: BETDIP_clean_linker_0, # of connection points: 3
#     Node 4, Type 0, BuildingBlock: BETDIP_clean_linker_0, # of connection points: 3
#     Node 5, Type 0, BuildingBlock: BETDIP_clean_linker_0, # of connection points: 3
#     Node 6, Type 0, BuildingBlock: BETDIP_clean_linker_0, # of connection points: 3
#     Node 7, Type 0, BuildingBlock: BETDIP_clean_linker_0, # of connection points: 3
#     Node 8, Type 1, BuildingBlock: KUMBOL_clean_sbu_1, # of connection points: 6
#     Node 9, Type 1, BuildingBlock: KUMBOL_clean_sbu_1, # of connection points: 6
#     Node 10, Type 1, BuildingBlock: KUMBOL_clean_sbu_1, # of connection points: 6
#     Node 11, Type 1, BuildingBlock: KUMBOL_clean_sbu_1, # of connection points: 6
#     Edge 12, Type (0, 1), BuildingBlock: MIFKUJ_clean_linker_0, # of connection points: 2
#     Edge 13, Type (0, 1), BuildingBlock: MIFKUJ_clean_linker_0, # of connection points: 2
#     Edge 14, Type (0, 1), BuildingBlock: MIFKUJ_clean_linker_0, # of connection points: 2
#     Edge 15, Type (0, 1), BuildingBlock: MIFKUJ_clean_linker_0, # of connection points: 2
#     Edge 16, Type (0, 1), BuildingBlock: MIFKUJ_clean_linker_0, # of connection points: 2
#     Edge 17, Type (0, 1), BuildingBlock: MIFKUJ_clean_linker_0, # of connection points: 2
#     Edge 18, Type (0, 1), BuildingBlock: MIFKUJ_clean_linker_0, # of connection points: 2
#     Edge 19, Type (0, 1), BuildingBlock: MIFKUJ_clean_linker_0, # of connection points: 2
#     Edge 20, Type (0, 1), BuildingBlock: MIFKUJ_clean_linker_0, # of connection points: 2
#     Edge 21, Type (0, 1), BuildingBlock: MIFKUJ_clean_linker_0, # of connection points: 2
#     Edge 22, Type (0, 1), BuildingBlock: MIFKUJ_clean_linker_0, # of connection points: 2
#     Edge 23, Type (0, 1), BuildingBlock: MIFKUJ_clean_linker_0, # of connection points: 2
#     Edge 24, Type (0, 1), BuildingBlock: MIFKUJ_clean_linker_0, # of connection points: 2
#     Edge 25, Type (0, 1), BuildingBlock: MIFKUJ_clean_linker_0, # of connection points: 2
#     Edge 26, Type (0, 1), BuildingBlock: MIFKUJ_clean_linker_0, # of connection points: 2
#     Edge 27, Type (0, 1), BuildingBlock: MIFKUJ_clean_linker_0, # of connection points: 2
#     Edge 28, Type (0, 1), BuildingBlock: MIFKUJ_clean_linker_0, # of connection points: 2
#     Edge 29, Type (0, 1), BuildingBlock: MIFKUJ_clean_linker_0, # of connection points: 2
#     Edge 30, Type (0, 1), BuildingBlock: MIFKUJ_clean_linker_0, # of connection points: 2
#     Edge 31, Type (0, 1), BuildingBlock: MIFKUJ_clean_linker_0, # of connection points: 2
#     Edge 32, Type (0, 1), BuildingBlock: MIFKUJ_clean_linker_0, # of connection points: 2
#     Edge 33, Type (0, 1), BuildingBlock: MIFKUJ_clean_linker_0, # of connection points: 2
#     Edge 34, Type (0, 1), BuildingBlock: MIFKUJ_clean_linker_0, # of connection points: 2
#     Edge 35, Type (0, 1), BuildingBlock: MIFKUJ_clean_linker_0, # of connection points: 2
# Relax obj value: 0.148
# Max RMSD: 0.091
# Mean RMSD: 0.077
data_MOF--net-zzz--node1-KUMBOL_clean_sbu_1--node2-BETDIP_clean_linker_0--edge1-MIFKUJ_clean_linker_0
_symmetry_space_group_name_H-M    P1
_symmetry_Int_Tables_number       1
_symmetry_cell_setting            triclinic
loop_
_symmetry_equiv_pos_as_xyz
'x, y, z'
_cell_length_a     65.049579
_cell_length_b     64.985101
_cell_length_c     20.353132
_cell_angle_alpha  89.664567
_cell_angle_beta   89.746829
_cell_angle_gamma 90.599307
loop_
_atom_site_label
_atom_site_type_symbol
_atom_site_fract_x
_atom_site_fract_y
_atom_site_fract_z
_atom_type_partial_charge
H0 H 0.75365 0.5368 0.35745 0.0
H1 H 0.74608 0.56 0.15991 0.0
H2 H 0.80355 0.56794 0.25601 0.0
H3 H 0.71097 0.57135 0.24055 0.0
C4 C 0.71003 0.5551 0.22834 0.0
C5 C 0.75957 0.54539 0.31564 0.0
C6 C 0.78034 0.55312 0.31608 0.0
C7 C 0.74651 0.54928 0.26013 0.0
C8 C 0.75494 0.55907 0.20484 0.0
C9 C 0.77541 0.56518 0.20378 0.0
C10 C 0.78743 0.56351 0.25988 0.0
N11 N 0.72564 0.54199 0.25522 0.0
H12 H 1.00731 0.75462 0.36406 0.0
H13 H 0.97843 0.75176 0.17358 0.0
H14 H 0.97572 0.80707 0.28527 0.0
H15 H 0.96949 0.71839 0.21852 0.0
C16 C 0.98576 0.71489 0.22203 0.0
C17 C 0.99786 0.76148 0.32635 0.0
C18 C 0.9911 0.78223 0.33303 0.0
C19 C 0.99209 0.74974 0.26986 0.0
C20 C 0.98117 0.75959 0.21964 0.0
C21 C 0.97557 0.78014 0.22483 0.0
C22 C 0.97954 0.79086 0.28258 0.0
N23 N 0.99836 0.7288 0.25964 0.0
H24 H 0.7871 1.01563 0.3494 0.0
H25 H 0.79349 0.98353 0.16556 0.0
H26 H 0.73531 0.98405 0.26567 0.0
H27 H 0.82804 0.977 0.23829 0.0
C28 C 0.8293 0.99311 0.22393 0.0
C29 C 0.78064 1.00599 0.31136 0.0
C30 C 0.75981 0.99914 0.31597 0.0
C31 C 0.79309 0.99982 0.25717 0.0
C32 C 0.78429 0.98765 0.2079 0.0
C33 C 0.76343 0.98234 0.20946 0.0
C34 C 0.75163 0.98761 0.26446 0.0
N35 N 0.81391 1.00679 0.24829 0.0
H36 H 0.52969 0.79343 0.35353 0.0
H37 H 0.56589 0.79931 0.17598 0.0
H38 H 0.56554 0.74276 0.28447 0.0
H39 H 0.57013 0.83286 0.22061 0.0
C40 C 0.55359 0.83507 0.21883 0.0
C41 C 0.54086 0.78731 0.31945 0.0
C42 C 0.54812 0.76681 0.32782 0.0
C43 C 0.54818 0.79971 0.2658 0.0
C44 C 0.56148 0.79079 0.2198 0.0
C45 C 0.5671 0.77017 0.22475 0.0
C46 C 0.56154 0.7589 0.28087 0.0
N47 N 0.54091 0.82022 0.2532 0.0
H48 H 0.28957 0.50632 0.91923 0.0
H49 H 0.29573 0.4878 0.12288 0.0
H50 H 0.2374 0.48323 0.02997 0.0
H51 H 0.31336 0.52327 0.11011 0.0
C52 C 0.32447 0.5143 0.08263 0.0
C53 C 0.28302 0.49991 0.96393 0.0
C54 C 0.26171 0.49398 0.96603 0.0
C55 C 0.29558 0.49773 0.02151 0.0
C56 C 0.28666 0.48946 0.07867 0.0
C57 C 0.26596 0.48417 0.08101 0.0
C58 C 0.25378 0.48638 0.02549 0.0
N59 N 0.3168 0.50415 0.02476 0.0
H60 H 0.04359 0.29635 0.9172 0.0
H61 H 0.05158 0.30327 0.12729 0.0
H62 H 0.05046 0.24342 0.0444 0.0
H63 H 1.01419 0.32388 0.07453 0.0
C64 C 0.0282 0.33287 0.06676 0.0
C65 C 0.04572 0.28962 0.96542 0.0
C66 C 0.04794 0.26776 0.97252 0.0
C67 C 0.04621 0.30256 0.02271 0.0
C68 C 0.05016 0.29369 0.08405 0.0
C69 C 0.05244 0.27267 0.09013 0.0
C70 C 0.04996 0.25994 0.03623 0.0
N71 N 0.04277 0.32432 0.02148 0.0
H72 H 0.25014 0.05375 0.9109 0.0
H73 H 0.24164 0.05484 0.12195 0.0
H74 H 0.30217 0.05335 0.04215 0.0
H75 H 0.21747 0.02294 0.0629 0.0
C76 C 0.21012 0.0377 0.05481 0.0
C77 C 0.2565 0.05378 0.95995 0.0
C78 C 0.27835 0.05435 0.96892 0.0
C79 C 0.24304 0.0532 0.01621 0.0
C80 C 0.25155 0.05427 0.07904 0.0
C81 C 0.27262 0.05504 0.08734 0.0
C82 C 0.28573 0.05397 0.03336 0.0
N83 N 0.22107 0.05175 0.01216 0.0
H84 H 0.4912 0.25444 0.91844 0.0
H85 H 0.48707 0.24908 0.13039 0.0
H86 H 0.48124 0.30782 0.03974 0.0
H87 H 0.51923 0.22611 0.08741 0.0
C88 C 0.50575 0.21747 0.07165 0.0
C89 C 0.48878 0.26136 0.96605 0.0
C90 C 0.48545 0.28311 0.97083 0.0
C91 C 0.48921 0.24878 0.0245 0.0
C92 C 0.48636 0.25811 0.08551 0.0
C93 C 0.48311 0.27906 0.08973 0.0
C94 C 0.48263 0.29129 0.03358 0.0
N95 N 0.49246 0.22695 0.02415 0.0
C96 C 0.07221 0.0428 0.79182 0.0
C97 C 0.05531 0.05385 0.89198 0.0
C98 C 0.05464 0.04358 0.831 0.0
C99 C 0.07371 0.06315 0.91287 0.0
C100 C 0.0907 0.05216 0.81283 0.0
C101 C 0.09135 0.06226 0.87352 0.0
N102 N 0.07124 0.03294 0.7332 0.0
C103 C 0.08824 0.03157 0.69411 0.0
C104 C 0.10811 0.05098 0.77244 0.0
C105 C 0.10686 0.0406 0.71282 0.0
Gd106 Gd 1.00082 0.03437 0.58249 0.0
Gd107 Gd 0.04022 1.01569 0.71117 0.0
N108 N 0.03694 0.03452 0.80943 0.0
C109 C 0.03752 0.05438 0.93061 0.0
C110 C 0.02007 0.03381 0.84957 0.0
C111 C 0.01987 0.04415 0.9095 0.0
H112 H 1.00706 0.02447 0.83825 0.0
H113 H 1.00627 0.04366 0.94034 0.0
H114 H 0.0333 0.01985 0.45965 0.0
H115 H 0.0878 0.02256 0.65039 0.0
H116 H 0.03236 0.99892 0.36084 0.0
H117 H 0.03741 0.06215 0.97757 0.0
H118 H 0.07447 0.07099 0.95964 0.0
H119 H 0.95345 0.03083 0.64795 0.0
H120 H 0.12262 0.05783 0.78713 0.0
H121 H 0.12033 0.03919 0.68183 0.0
H122 H 0.96261 0.97516 0.34929 0.0
H123 H 0.10545 0.06943 0.89052 0.0
H124 H 0.91627 0.99404 0.52137 0.0
H125 H 0.92007 1.01488 0.62191 0.0
N126 N 0.96896 0.01797 0.56624 0.0
C127 C 0.96722 1.00668 0.51049 0.0
C128 C 0.95232 0.0209 0.60608 0.0
C129 C 0.93115 1.00057 0.53362 0.0
C130 C 0.93324 1.01221 0.5906 0.0
C131 C 0.9482 0.99772 0.49264 0.0
H132 H 0.93218 0.97962 0.41947 0.0
N133 N 1.00256 1.01324 0.48871 0.0
C134 C 0.98445 1.00422 0.47072 0.0
C135 C 1.00051 0.99049 0.37313 0.0
C136 C 0.98297 0.99266 0.41234 0.0
C137 C 0.01944 1.01173 0.44905 0.0
C138 C 0.01881 1.00009 0.3916 0.0
O139 O 0.03996 0.05059 0.69742 0.0
O140 O 1.00693 0.05716 0.66475 0.0
O141 O 1.005 0.05745 0.50708 0.0
O142 O 0.97514 0.05414 0.55758 0.0
O143 O 1.00605 1.00831 0.73046 0.0
O144 O 0.98932 0.03588 0.68671 0.0
O145 O 1.00129 0.99964 0.60102 0.0
O146 O 0.0352 0.99431 0.62393 0.0
O147 O 0.03607 0.99148 0.78337 0.0
O148 O 0.06614 0.99746 0.74088 0.0
O149 O 0.03471 0.04167 0.55952 0.0
O150 O 0.05322 1.01573 0.60764 0.0
C151 C 0.02467 0.06344 0.68874 0.0
C152 C 0.98985 0.02038 0.72808 0.0
C153 C 0.97827 0.08071 0.47455 0.0
C154 C 0.98547 0.11279 0.41851 0.0
C155 C 0.95017 0.10217 0.43864 0.0
C156 C 0.9571 0.0843 0.46956 0.0
C157 C 0.96432 0.11655 0.4137 0.0
C158 C 0.99231 0.09479 0.44804 0.0
C159 C 0.98615 0.06382 0.51382 0.0
C160 C 0.96404 0.98387 0.3943 0.0
C161 C 0.9467 0.98642 0.43426 0.0
H162 H 0.99999 0.98173 0.32801 0.0
C163 C 0.01734 0.98751 0.60238 0.0
C164 C 0.05153 0.0305 0.56345 0.0
C165 C 0.05799 0.96336 0.77006 0.0
C166 C 0.04865 0.92879 0.8043 0.0
C167 C 0.07552 0.93424 0.72271 0.0
C168 C 0.07266 0.95542 0.72641 0.0
C169 C 0.06354 0.92092 0.76139 0.0
C170 C 0.04622 0.95002 0.809 0.0
C171 C 0.05506 0.98543 0.77801 0.0
H172 H 0.93386 0.10506 0.43519 0.0
H173 H 0.94601 0.07357 0.49062 0.0
H174 H 0.95884 0.13056 0.39098 0.0
H175 H 1.0087 0.09236 0.45372 0.0
H176 H 0.08715 0.92823 0.69017 0.0
H177 H 0.08209 0.96549 0.69593 0.0
H178 H 0.06586 0.90451 0.75805 0.0
H179 H 0.03541 0.95629 0.84415 0.0
C180 C 0.51821 0.96082 0.55323 0.0
C181 C 0.48978 0.94309 0.6077 0.0
C182 C 0.50005 0.96153 0.58959 0.0
C183 C 0.4978 0.9241 0.5882 0.0
C184 C 0.52629 0.94173 0.53372 0.0
C185 C 0.51595 0.92342 0.55112 0.0
N186 N 0.52804 0.97873 0.53722 0.0
C187 C 0.54597 0.97866 0.50204 0.0
C188 C 0.54458 0.94157 0.49726 0.0
C189 C 0.55445 0.96012 0.48149 0.0
Gd190 Gd 0.52925 0.04137 0.71892 0.0
Gd191 Gd 0.51194 1.00896 0.57087 0.0
N192 N 0.49255 0.98017 0.60771 0.0
C193 C 0.47167 0.94422 0.64469 0.0
C194 C 0.47442 0.98126 0.64161 0.0
C195 C 0.46393 0.9634 0.66148 0.0
H196 H 0.46757 0.99567 0.65293 0.0
H197 H 0.44971 0.96446 0.68904 0.0
H198 H 0.57831 0.04964 0.66307 0.0
H199 H 0.55344 0.99293 0.48782 0.0
H200 H 0.599 0.07822 0.61951 0.0
H201 H 0.46341 0.93041 0.65977 0.0
H202 H 0.49004 0.90982 0.60143 0.0
H203 H 0.48952 0.06249 0.79739 0.0
H204 H 0.5512 0.92723 0.48103 0.0
H205 H 0.56851 0.96014 0.45308 0.0
H206 H 0.55865 0.13766 0.66491 0.0
H207 H 0.5219 0.90864 0.5363 0.0
H208 H 0.495 0.12786 0.7804 0.0
H209 H 0.4759 0.097 0.81956 0.0
N210 N 0.51546 0.07352 0.74398 0.0
C211 C 0.52642 0.09023 0.7231 0.0
C212 C 0.49758 0.07577 0.77836 0.0
C213 C 0.50086 0.11269 0.76974 0.0
C214 C 0.49001 0.09533 0.79178 0.0
C215 C 0.51933 0.1103 0.73514 0.0
H216 H 0.52573 0.14284 0.72189 0.0
N217 N 0.5518 0.06768 0.68177 0.0
C218 C 0.545 0.08724 0.69062 0.0
C219 C 0.5762 0.10095 0.64155 0.0
C220 C 0.55695 0.10437 0.67005 0.0
C221 C 0.57144 0.06452 0.66037 0.0
C222 C 0.58363 0.08095 0.63791 0.0
O223 O 0.52469 0.99096 0.65864 0.0
O224 O 0.51298 1.01127 0.74035 0.0
O225 O 0.55228 0.02931 0.7838 0.0
O226 O 0.52974 0.05054 0.82139 0.0
O227 O 0.48583 0.0266 0.62221 0.0
O228 O 0.49599 0.03142 0.72948 0.0
O229 O 0.51538 0.05935 0.63211 0.0
O230 O 0.52755 0.03947 0.55063 0.0
O231 O 0.48738 0.01995 0.51029 0.0
O232 O 0.51147 1.00136 0.46734 0.0
O233 O 0.55427 0.02189 0.66807 0.0
O234 O 0.54413 0.02156 0.56085 0.0
C235 C 0.52014 0.99357 0.72101 0.0
C236 C 0.48159 0.03115 0.68417 0.0
C237 C 0.56286 0.05084 0.86932 0.0
C238 C 0.59708 0.0491 0.91471 0.0
C239 C 0.57722 0.08011 0.92763 0.0
C240 C 0.56099 0.07102 0.89303 0.0
C241 C 0.59534 0.06922 0.93822 0.0
C242 C 0.58088 0.03996 0.88101 0.0
C243 C 0.54639 0.04039 0.83346 0.0
C244 C 0.54968 0.12436 0.68054 0.0
C245 C 0.53095 0.12731 0.71314 0.0
H246 H 0.58582 0.1137 0.62506 0.0
C247 C 0.5198 0.05692 0.56958 0.0
C248 C 0.55849 0.01939 0.6051 0.0
C249 C 0.4794 1.00217 0.4128 0.0
C250 C 0.44689 1.00645 0.35817 0.0
C251 C 0.47087 0.98106 0.31859 0.0
C252 C 0.48462 0.98661 0.36818 0.0
C253 C 0.4521 0.99114 0.31295 0.0
C254 C 0.46041 1.01174 0.40796 0.0
C255 C 0.49444 1.0111 0.45753 0.0
H256 H 0.57575 0.09559 0.94621 0.0
H257 H 0.5471 0.07971 0.88503 0.0
H258 H 0.60786 0.07634 0.96501 0.0
H259 H 0.58242 0.0243 0.86343 0.0
H260 H 0.47496 0.96927 0.28369 0.0
H261 H 0.49945 0.97923 0.37033 0.0
H262 H 0.44169 0.98705 0.27362 0.0
H263 H 0.45648 0.02422 0.44082 0.0
C264 C 0.46702 0.50849 0.77168 0.0
C265 C 0.4796 0.49966 0.88048 0.0
C266 C 0.4826 0.50891 0.81817 0.0
C267 C 0.46086 0.48974 0.89504 0.0
C268 C 0.44799 0.49897 0.78699 0.0
C269 C 0.4451 0.48939 0.84844 0.0
N270 N 0.47011 0.51821 0.71293 0.0
C271 C 0.45425 0.52011 0.66949 0.0
C272 C 0.43215 0.49987 0.74087 0.0
C273 C 0.43523 0.51069 0.68224 0.0
Gd274 Gd 0.5424 0.51319 0.57691 0.0
Gd275 Gd 0.50237 0.53453 0.69952 0.0
N276 N 0.50066 0.51843 0.80268 0.0
C277 C 0.4955 0.50076 0.9265 0.0
C278 C 0.51575 0.52049 0.84864 0.0
C279 C 0.5136 0.51138 0.91062 0.0
H280 H 0.52931 0.52947 0.83845 0.0
H281 H 0.52577 0.51284 0.94644 0.0
H282 H 0.51491 0.50832 0.43474 0.0
H283 H 0.45576 0.5295 0.62592 0.0
H284 H 0.51365 0.5249 0.32673 0.0
H285 H 0.4938 0.49382 0.97478 0.0
H286 H 0.45831 0.48251 0.94253 0.0
H287 H 0.58584 0.52921 0.64527 0.0
H288 H 0.41729 0.49282 0.75093 0.0
H289 H 0.42281 0.51216 0.64736 0.0
H290 H 0.57262 0.56939 0.32278 0.0
H291 H 0.4306 0.48197 0.86085 0.0
H292 H 0.6168 0.56945 0.50997 0.0
H293 H 0.61549 0.55151 0.61746 0.0
N294 N 0.56959 0.5361 0.55782 0.0
C295 C 0.57029 0.54508 0.49739 0.0
C296 C 0.58576 0.53779 0.59994 0.0
C297 C 0.60346 0.56013 0.52287 0.0
C298 C 0.60275 0.55013 0.58372 0.0
C299 C 0.58727 0.55743 0.47848 0.0
H300 H 0.60132 0.57471 0.39881 0.0
N301 N 0.53927 0.52742 0.47061 0.0
C302 C 0.55447 0.54104 0.45322 0.0
C303 C 0.5398 0.54458 0.3448 0.0
C304 C 0.55517 0.54983 0.38965 0.0
C305 C 0.52537 0.52091 0.42479 0.0
C306 C 0.525 0.52985 0.3622 0.0
O307 O 0.51245 0.50129 0.71798 0.0
O308 O 0.51909 0.48955 0.61427 0.0
O309 O 0.55729 0.49588 0.50032 0.0
O310 O 0.56534 0.49049 0.60184 0.0
O311 O 0.53604 0.54086 0.72523 0.0
O312 O 0.55235 0.51268 0.68386 0.0
O313 O 0.54221 0.54771 0.59938 0.0
O314 O 0.50797 0.55238 0.60498 0.0
O315 O 0.50968 0.56308 0.74887 0.0
O316 O 0.47746 0.55375 0.7332 0.0
O317 O 0.50902 0.50577 0.54773 0.0
O318 O 0.4905 0.53201 0.5946 0.0
C319 C 0.51424 0.48596 0.67619 0.0
C320 C 0.5515 0.52789 0.72614 0.0
C321 C 0.56397 0.46186 0.5326 0.0
C322 C 0.54568 0.43328 0.48327 0.0
C323 C 0.57093 0.42693 0.56801 0.0
C324 C 0.5748 0.44803 0.57242 0.0
C325 C 0.5563 0.41957 0.52393 0.0
C326 C 0.54954 0.45434 0.48735 0.0
C327 C 0.56683 0.48404 0.5416 0.0
C328 C 0.57177 0.56265 0.37149 0.0
C329 C 0.58798 0.566 0.41517 0.0
H330 H 0.5398 0.55106 0.29562 0.0
C331 C 0.52626 0.55949 0.58949 0.0
C332 C 0.4923 0.51714 0.55136 0.0
C333 C 0.48334 0.58598 0.78882 0.0
C334 C 0.49173 0.61798 0.84268 0.0
C335 C 0.4562 0.60957 0.81811 0.0
C336 C 0.4624 0.59103 0.7905 0.0
C337 C 0.47083 0.62313 0.84375 0.0
C338 C 0.49789 0.59936 0.81578 0.0
C339 C 0.49025 0.56732 0.75644 0.0
H340 H 0.57917 0.41629 0.5991 0.0
H341 H 0.58595 0.45359 0.60766 0.0
H342 H 0.55333 0.40321 0.52123 0.0
H343 H 0.54093 0.46474 0.45628 0.0
H344 H 0.44008 0.61353 0.81904 0.0
H345 H 0.4509 0.58083 0.76975 0.0
H346 H 0.46586 0.63756 0.86463 0.0
H347 H 0.51411 0.59565 0.81426 0.0
C348 C 0.03573 0.47031 0.7885 0.0
C349 C 0.04094 0.48239 0.89989 0.0
C350 C 0.03291 0.48526 0.83618 0.0
C351 C 0.05275 0.46496 0.91376 0.0
C352 C 0.04692 0.45239 0.80317 0.0
C353 C 0.05573 0.45001 0.86554 0.0
N354 N 0.02694 0.47292 0.72858 0.0
C355 C 0.02757 0.45762 0.68301 0.0
C356 C 0.04856 0.43716 0.75517 0.0
C357 C 0.03862 0.43968 0.69514 0.0
Gd358 Gd 0.03203 0.54311 0.58423 0.0
Gd359 Gd 1.00957 0.50398 0.71228 0.0
N360 N 0.02119 0.50186 0.82176 0.0
C361 C 0.03618 0.49668 0.94866 0.0
C362 C 0.01493 0.51469 0.87096 0.0
C363 C 0.02277 0.51267 0.93441 0.0
H364 H 1.00382 0.52659 0.86168 0.0
H365 H 0.01821 0.52327 0.97247 0.0
H366 H 0.03082 0.51413 0.44856 0.0
H367 H 0.01919 0.45884 0.63789 0.0
H368 H 0.01704 0.5157 0.3365 0.0
H369 H 0.04205 0.495 0.99811 0.0
H370 H 0.05916 0.46261 0.96225 0.0
H371 H 0.03035 0.59171 0.64283 0.0
H372 H 0.05698 0.42317 0.76463 0.0
H373 H 0.03922 0.42771 0.65846 0.0
H374 H 0.99029 0.58395 0.31891 0.0
H375 H 0.06447 0.4364 0.87749 0.0
H376 H 1.0001 0.62928 0.50076 0.0
H377 H 0.01673 0.62532 0.60903 0.0
N378 N 0.01991 0.57615 0.55708 0.0
C379 C 1.01164 0.57822 0.49624 0.0
C380 C 0.02233 0.59297 0.59659 0.0
C381 C 1.0056 0.61432 0.51602 0.0
C382 C 0.01494 0.61215 0.57717 0.0
C383 C 1.00416 0.59735 0.47422 0.0
H384 H 0.99026 0.61371 0.39293 0.0
N385 N 0.02018 0.54363 0.47552 0.0
C386 C 1.01182 0.5615 0.45422 0.0
C387 C 1.00575 0.54654 0.34742 0.0
C388 C 1.00431 0.56341 0.38954 0.0
C389 C 0.02276 0.52761 0.43337 0.0
C390 C 0.01523 0.52862 0.36927 0.0
O391 O 0.04428 0.50294 0.69732 0.0
O392 O 0.04984 0.53705 0.67805 0.0
O393 O 0.06099 0.53571 0.53838 0.0
O394 O 0.05535 0.5668 0.57221 0.0
O395 O 0.01825 0.53508 0.75569 0.0
O396 O 0.01549 0.55818 0.67052 0.0
O397 O 1.00011 0.53148 0.55629 0.0
O398 O 0.98784 0.52622 0.66033 0.0
O399 O 0.98311 0.50753 0.77212 0.0
O400 O 0.98773 0.47786 0.72314 0.0
O401 O 0.03772 0.50892 0.56757 0.0
O402 O 1.00846 0.49319 0.606 0.0
C403 C 0.0568 0.51896 0.6961 0.0
C404 C 0.01541 0.55391 0.7338 0.0
C405 C 0.07695 0.56273 0.4799 0.0
C406 C 0.10329 0.55852 0.39717 0.0
C407 C 0.08243 0.58919 0.39689 0.0
C408 C 0.07164 0.58175 0.45186 0.0
C409 C 0.09841 0.57771 0.36985 0.0
C410 C 0.09257 0.55119 0.45199 0.0
C411 C 0.06753 0.55473 0.54012 0.0
C412 C 0.99616 0.58221 0.36836 0.0
C413 C 0.99612 0.59915 0.41054 0.0
H414 H 1.00014 0.54739 0.29743 0.0
C415 C 0.98452 0.52889 0.59702 0.0
C416 C 0.02406 0.49386 0.56451 0.0
C417 C 0.95733 0.48205 0.7938 0.0
C418 C 0.92749 0.49113 0.85877 0.0
C419 C 0.93292 0.4556 0.82766 0.0
C420 C 0.95096 0.46138 0.79433 0.0
C421 C 0.92121 0.47041 0.86014 0.0
C422 C 0.94549 0.49675 0.82589 0.0
C423 C 0.97657 0.48881 0.76288 0.0
H424 H 0.07855 0.60395 0.37567 0.0
H425 H 0.05948 0.59095 0.47273 0.0
H426 H 0.10684 0.58367 0.32774 0.0
H427 H 0.09686 0.53663 0.47431 0.0
H428 H 0.92799 0.43965 0.82827 0.0
H429 H 0.95999 0.44977 0.76988 0.0
H430 H 0.90713 0.46579 0.88501 0.0
H431 H 0.9503 0.5128 0.8259 0.0
H432 H 0.17446 0.06133 0.04875 0.0
H433 H 0.14772 0.06398 0.13477 0.0
H434 H 0.18623 0.0302 0.26845 0.0
H435 H 0.21222 0.02698 0.18268 0.0
H436 H 0.15133 1.01302 0.27044 0.0
H437 H 0.17214 0.08439 0.28309 0.0
H438 H 0.17813 0.11993 0.24372 0.0
H439 H 0.11464 0.12448 0.18912 0.0
H440 H 0.10834 0.08887 0.22729 0.0
H441 H 0.08871 1.0103 0.55137 0.0
H442 H 0.11651 0.01697 0.47505 0.0
H443 H 0.0787 0.06036 0.37061 0.0
H444 H 0.05251 0.057 0.45641 0.0
H445 H 0.11235 0.07321 0.34851 0.0
H446 H 0.09195 1.00078 0.33013 0.0
H447 H 0.08607 0.96553 0.37275 0.0
H448 H 0.14885 0.96286 0.4365 0.0
H449 H 0.15502 0.99811 0.3948 0.0
C450 C 0.17735 0.05493 0.09702 0.0
C451 C 0.1955 0.04387 0.10859 0.0
C452 C 0.16201 0.05642 0.14649 0.0
C453 C 0.16463 0.04714 0.20894 0.0
C454 C 0.18341 0.03729 0.22107 0.0
C455 C 0.19843 0.03555 0.17182 0.0
C456 C 0.14757 0.04571 0.25995 0.0
C457 C 0.14299 0.02632 0.28773 0.0
C458 C 0.1359 0.06272 0.28194 0.0
C459 C 0.13986 0.08387 0.25717 0.0
C460 C 0.15953 0.09288 0.26188 0.0
C461 C 0.16296 0.11306 0.23998 0.0
C462 C 0.1468 0.12443 0.21369 0.0
C463 C 0.12716 0.11564 0.20928 0.0
C464 C 0.12366 0.09546 0.23102 0.0
C465 C 0.08656 0.02208 0.51447 0.0
C466 C 0.06839 0.03367 0.51273 0.0
C467 C 0.10237 0.02525 0.46807 0.0
C468 C 0.09986 0.03851 0.41356 0.0
C469 C 0.08151 0.04993 0.41119 0.0
C470 C 0.06628 0.04787 0.46049 0.0
C471 C 0.1161 0.04042 0.35948 0.0
C472 C 0.12051 0.05986 0.33091 0.0
C473 C 0.12758 0.02339 0.33605 0.0
C474 C 0.12389 1.00207 0.35964 0.0
C475 C 0.10447 0.99264 0.35322 0.0
C476 C 0.10109 0.97269 0.3773 0.0
C477 C 0.11707 0.96198 0.40737 0.0
C478 C 0.13649 0.97116 0.4132 0.0
C479 C 0.13994 0.9911 0.38926 0.0
H480 H 0.1144 0.94655 0.4261 0.0
H481 H 0.14948 0.14007 0.19693 0.0
H482 H 0.47613 0.21185 0.16789 0.0
H483 H 0.47476 0.18424 0.25136 0.0
H484 H 0.52449 0.15352 0.15318 0.0
H485 H 0.52596 0.18115 0.07067 0.0
H486 H 0.49612 0.12531 0.20011 0.0
H487 H 0.53205 0.18543 0.28783 0.0
H488 H 0.53443 0.22179 0.32138 0.0
H489 H 0.4838 0.21267 0.4549 0.0
H490 H 0.48093 0.17634 0.42136 0.0
H491 H 0.53493 0.05909 0.44392 0.0
H492 H 0.52948 0.08533 0.36025 0.0
H493 H 0.49124 0.11898 0.49498 0.0
H494 H 0.49776 0.0931 0.5807 0.0
H495 H 0.50981 0.14574 0.43027 0.0
H496 H 0.4726 0.08791 0.35441 0.0
H497 H 0.46611 0.05171 0.32472 0.0
H498 H 0.51209 0.05604 0.1731 0.0
H499 H 0.51908 0.09222 0.20253 0.0
C500 C 0.48626 0.19883 0.16282 0.0
C501 C 0.50079 0.19846 0.11124 0.0
C502 C 0.4857 0.18313 0.21131 0.0
C503 C 0.4997 0.16667 0.20969 0.0
C504 C 0.51347 0.16586 0.15621 0.0
C505 C 0.51421 0.18164 0.10847 0.0
C506 C 0.50098 0.15092 0.26481 0.0
C507 C 0.49927 0.12981 0.25032 0.0
C508 C 0.50428 0.15648 0.33137 0.0
C509 C 0.50612 0.17827 0.35152 0.0
C510 C 0.52132 0.19124 0.32394 0.0
C511 C 0.52277 0.21183 0.34301 0.0
C512 C 0.50923 0.21956 0.39008 0.0
C513 C 0.49424 0.20669 0.41833 0.0
C514 C 0.4927 0.1861 0.39931 0.0
C515 C 0.52538 0.07208 0.45616 0.0
C516 C 0.5167 0.07375 0.51949 0.0
C517 C 0.52203 0.08712 0.40751 0.0
C518 C 0.50933 0.10415 0.41941 0.0
C519 C 0.50097 0.10608 0.48331 0.0
C520 C 0.50468 0.09118 0.53265 0.0
C521 C 0.5052 0.11996 0.36576 0.0
C522 C 0.50645 0.14109 0.38034 0.0
C523 C 0.50077 0.11441 0.29965 0.0
C524 C 0.4965 0.09273 0.28111 0.0
C525 C 0.48142 0.08111 0.31499 0.0
C526 C 0.47765 0.06059 0.2982 0.0
C527 C 0.48872 0.05155 0.2472 0.0
C528 C 0.50355 0.06305 0.21268 0.0
C529 C 0.50741 0.08358 0.22935 0.0
H530 H 0.48579 0.03565 0.23436 0.0
H531 H 0.51038 0.2355 0.40477 0.0
H532 H 0.32399 0.50019 0.2079 0.0
H533 H 0.35272 0.49679 0.28391 0.0
H534 H 0.39516 0.51217 0.12755 0.0
H535 H 0.36613 0.51473 0.05017 0.0
H536 H 0.41322 0.48509 0.21293 0.0
H537 H 0.37706 0.54935 0.24024 0.0
H538 H 0.34569 0.56972 0.25699 0.0
H539 H 0.33439 0.53858 0.44052 0.0
H540 H 0.36558 0.51788 0.42447 0.0
H541 H 0.48579 0.5393 0.43851 0.0
H542 H 0.45821 0.53498 0.35721 0.0
H543 H 0.43141 0.4864 0.47534 0.0
H544 H 0.4599 0.48969 0.55427 0.0
H545 H 0.40627 0.52941 0.40949 0.0
H546 H 0.43918 0.46314 0.38061 0.0
H547 H 0.46997 0.44169 0.36749 0.0
H548 H 0.48636 0.47499 0.19175 0.0
H549 H 0.4559 0.49701 0.20496 0.0
C550 C 0.33949 0.50225 0.18905 0.0
C551 C 0.34266 0.50756 0.12255 0.0
C552 C 0.356 0.50056 0.23302 0.0
C553 C 0.37635 0.50483 0.21277 0.0
C554 C 0.37973 0.50892 0.14525 0.0
C555 C 0.36309 0.51027 0.10066 0.0
C556 C 0.39352 0.50645 0.26297 0.0
C557 C 0.41163 0.49494 0.25544 0.0
C558 C 0.39177 0.51896 0.31993 0.0
C559 C 0.37357 0.53202 0.331 0.0
C560 C 0.36787 0.54687 0.28416 0.0
C561 C 0.35012 0.55845 0.29348 0.0
C562 C 0.33804 0.55543 0.34974 0.0
C563 C 0.34376 0.54091 0.39699 0.0
C564 C 0.3615 0.52928 0.38788 0.0
C565 C 0.47433 0.52732 0.44626 0.0
C566 C 0.47549 0.51437 0.50179 0.0
C567 C 0.45841 0.52499 0.39998 0.0
C568 C 0.44276 0.51011 0.4091 0.0
C569 C 0.44344 0.4977 0.46606 0.0
C570 C 0.45976 0.49958 0.51126 0.0
C571 C 0.42565 0.5079 0.35962 0.0
C572 C 0.40771 0.51951 0.36702 0.0
C573 C 0.42742 0.49527 0.30335 0.0
C574 C 0.44551 0.48193 0.29443 0.0
C575 C 0.44952 0.46608 0.33973 0.0
C576 C 0.46687 0.45378 0.3322 0.0
C577 C 0.48017 0.45704 0.279 0.0
C578 C 0.47609 0.47255 0.2331 0.0
C579 C 0.4588 0.48495 0.24061 0.0
H580 H 0.49359 0.44749 0.27321 0.0
H581 H 0.32425 0.56434 0.35674 0.0
H582 H 1.00577 0.34016 0.17482 0.0
H583 H 1.00929 0.36697 0.25679 0.0
H584 H 0.06333 0.39047 0.15751 0.0
H585 H 0.06013 0.36273 0.07481 0.0
H586 H 0.06646 0.39316 0.29851 0.0
H587 H 0.01821 0.41531 0.13534 0.0
H588 H 0.98865 0.41005 0.0616 0.0
H589 H 0.94949 0.39781 0.22802 0.0
H590 H 0.97888 0.40283 0.30269 0.0
H591 H 0.05741 0.48675 0.48373 0.0
H592 H 0.06133 0.46071 0.39868 0.0
H593 H 1.00144 0.43583 0.4474 0.0
H594 H 0.99699 0.46265 0.53006 0.0
H595 H 1.00402 0.43563 0.32405 0.0
H596 H 0.05173 0.41247 0.4879 0.0
H597 H 0.08114 0.41596 0.56322 0.0
H598 H 0.12128 0.42891 0.39971 0.0
H599 H 0.09203 0.42577 0.32347 0.0
C600 C 0.01854 0.35091 0.17014 0.0
C601 C 0.03244 0.34933 0.11719 0.0
C602 C 0.02053 0.36637 0.21743 0.0
C603 C 0.03629 0.38127 0.21336 0.0
C604 C 0.05088 0.37935 0.16202 0.0
C605 C 0.049 0.36352 0.11441 0.0
C606 C 0.03625 0.39917 0.26087 0.0
C607 C 0.05296 0.4027 0.30324 0.0
C608 C 0.01857 0.41154 0.26891 0.0
C609 C 1.00072 0.4094 0.22447 0.0
C610 C 1.00328 0.41151 0.15614 0.0
C611 C 0.98657 0.40855 0.1142 0.0
C612 C 0.9672 0.40359 0.14011 0.0
C613 C 0.96449 0.40169 0.20804 0.0
C614 C 0.98115 0.40464 0.2502 0.0
C615 C 0.04501 0.47575 0.47652 0.0
C616 C 0.02682 0.47703 0.51429 0.0
C617 C 0.04739 0.4606 0.42787 0.0
C618 C 0.03188 0.44575 0.41626 0.0
C619 C 1.01376 0.44691 0.45451 0.0
C620 C 1.01125 0.46229 0.50242 0.0
C621 C 0.03406 0.42954 0.3632 0.0
C622 C 0.01766 0.4263 0.31947 0.0
C623 C 0.05203 0.41746 0.35443 0.0
C624 C 0.06967 0.41905 0.40005 0.0
C625 C 0.06681 0.41616 0.46805 0.0
C626 C 0.08345 0.41807 0.5109 0.0
C627 C 0.10306 0.42268 0.48627 0.0
C628 C 0.10608 0.42534 0.41871 0.0
C629 C 0.08948 0.42348 0.37565 0.0
H630 H 0.11593 0.42417 0.51952 0.0
H631 H 0.9543 0.40122 0.10754 0.0
H632 H 0.86347 0.97154 0.19858 0.0
H633 H 0.88977 0.97733 0.11436 0.0
H634 H 0.85867 0.03212 0.0505 0.0
H635 H 0.83214 0.02638 0.13621 0.0
H636 H 0.87128 1.00727 0.94427 0.0
H637 H 0.90264 0.03665 0.13453 0.0
H638 H 0.91429 0.03786 0.24956 0.0
H639 H 0.95323 0.98599 0.216 0.0
H640 H 0.94157 0.98427 0.10091 0.0
H641 H 0.95692 0.04577 0.75211 0.0
H642 H 0.92905 0.04119 0.83198 0.0
H643 H 0.95609 0.98466 0.89904 0.0
H644 H 0.98353 0.98854 0.81661 0.0
H645 H 0.94519 1.01127 1.00252 0.0
H646 H 0.91462 0.98172 0.81347 0.0
H647 H 0.90326 0.97974 0.69836 0.0
H648 H 0.86294 0.03072 0.72892 0.0
H649 H 0.87441 0.03333 0.84398 0.0
C650 C 0.86234 0.98503 0.1673 0.0
C651 C 0.84585 0.99866 0.17513 0.0
C652 C 0.87743 0.98831 0.11886 0.0
C653 C 0.87649 1.00528 0.07591 0.0
C654 C 0.8599 0.01895 0.08303 0.0
C655 C 0.84482 1.01578 0.13252 0.0
C656 C 0.89288 1.00836 0.024 0.0
C657 C 0.8874 1.00857 0.95716 0.0
C658 C 0.91409 1.00933 0.04005 0.0
C659 C 0.92108 1.01022 0.10926 0.0
C660 C 0.91355 0.02538 0.15183 0.0
C661 C 0.92018 0.02618 0.21701 0.0
C662 C 0.93445 1.01197 0.24013 0.0
C663 C 0.94215 0.99696 0.19804 0.0
C664 C 0.93555 0.99608 0.13281 0.0
C665 C 0.95676 0.03205 0.78252 0.0
C666 C 0.97244 0.01732 0.77642 0.0
C667 C 0.9408 0.02954 0.82877 0.0
C668 C 0.94026 1.01251 0.87168 0.0
C669 C 0.95601 0.99791 0.86653 0.0
C670 C 0.97173 1.00014 0.8191 0.0
C671 C 0.9236 1.01031 0.92289 0.0
C672 C 0.92906 1.01015 0.9896 0.0
C673 C 0.90242 1.00929 0.9066 0.0
C674 C 0.89559 1.0079 0.83724 0.0
C675 C 0.90352 0.99269 0.79551 0.0
C676 C 0.89701 0.99141 0.73029 0.0
C677 C 0.88242 1.00512 0.70631 0.0
C678 C 0.87429 0.02014 0.74754 0.0
C679 C 0.88079 0.02153 0.81277 0.0
H680 H 0.87739 1.0041 0.6558 0.0
H681 H 0.93959 1.01263 0.2906 0.0
H682 H 0.56917 0.83778 0.09596 0.0
H683 H 0.56228 0.86324 0.01057 0.0
H684 H 0.51664 0.89101 0.13532 0.0
H685 H 0.52268 0.86434 0.21951 0.0
H686 H 0.50379 0.89536 0.01986 0.0
H687 H 0.57081 0.91052 0.10677 0.0
H688 H 0.60672 0.90378 0.13818 0.0
H689 H 0.62143 0.8888 0.93835 0.0
H690 H 0.58557 0.89523 0.90588 0.0
H691 H 0.50668 0.99203 0.849 0.0
H692 H 0.51132 0.96469 0.93051 0.0
H693 H 0.54427 0.92892 0.78781 0.0
H694 H 0.53945 0.95622 0.70533 0.0
H695 H 0.56363 0.92955 0.91189 0.0
H696 H 0.49658 0.9156 0.82582 0.0
H697 H 0.46131 0.92486 0.79434 0.0
H698 H 0.44738 0.93984 0.99477 0.0
H699 H 0.48274 0.93105 0.02726 0.0
C700 C 0.55736 0.84909 0.10473 0.0
C701 C 0.54641 0.84892 0.16453 0.0
C702 C 0.55365 0.86398 0.05607 0.0
C703 C 0.53946 0.87987 0.06648 0.0
C704 C 0.52785 0.87922 0.12546 0.0
C705 C 0.5312 0.86386 0.17374 0.0
C706 C 0.53689 0.89698 0.01612 0.0
C707 C 0.51698 0.90295 0.99732 0.0
C708 C 0.5539 0.90701 0.98458 0.0
C709 C 0.57545 0.90311 1.0041 0.0
C710 C 0.58167 0.90565 0.06965 0.0
C711 C 0.60202 0.90191 0.0876 0.0
C712 C 0.6163 0.89575 0.04034 0.0
C713 C 0.61033 0.8935 0.97493 0.0
C714 C 0.59 0.8972 0.95672 0.0
C715 C 0.51485 0.97833 0.83456 0.0
C716 C 0.52261 0.97642 0.77009 0.0
C717 C 0.51749 0.96263 0.88149 0.0
C718 C 0.52808 0.94454 0.86573 0.0
C719 C 0.53604 0.94265 0.80157 0.0
C720 C 0.53318 0.95828 0.75421 0.0
C721 C 0.53069 0.92767 0.91613 0.0
C722 C 0.55055 0.92186 0.93482 0.0
C723 C 0.51371 0.91797 0.94793 0.0
C724 C 0.49233 0.92281 0.92889 0.0
C725 C 0.48603 0.92099 0.86312 0.0
C726 C 0.46603 0.92616 0.84508 0.0
C727 C 0.45211 0.93295 0.89252 0.0
C728 C 0.45818 0.93458 0.9581 0.0
C729 C 0.47819 0.9295 0.97636 0.0
H730 H 0.43661 0.93689 0.87851 0.0
H731 H 0.63198 0.89268 0.05442 0.0
H732 H 0.67458 0.57493 0.20562 0.0
H733 H 0.64868 0.56897 0.12124 0.0
H734 H 0.68245 0.51663 0.05203 0.0
H735 H 0.70861 0.52255 0.13804 0.0
H736 H 0.66892 0.54185 0.94769 0.0
H737 H 0.63774 0.51009 0.13754 0.0
H738 H 0.62502 0.50778 0.25168 0.0
H739 H 0.58393 0.55783 0.21535 0.0
H740 H 0.59674 0.56076 0.10161 0.0
H741 H 0.58599 0.50404 0.74485 0.0
H742 H 0.61323 0.50802 0.82674 0.0
H743 H 0.58282 0.56114 0.90503 0.0
H744 H 0.55589 0.55772 0.82181 0.0
H745 H 0.59493 0.53441 1.00393 0.0
H746 H 0.62513 0.56784 0.82037 0.0
H747 H 0.63691 0.57249 0.70603 0.0
H748 H 0.67897 0.5225 0.72918 0.0
H749 H 0.66716 0.5173 0.84353 0.0
C750 C 0.67639 0.56188 0.17327 0.0
C751 C 0.69356 0.54901 0.17991 0.0
C752 C 0.66149 0.55851 0.12461 0.0
C753 C 0.66324 0.54221 0.07984 0.0
C754 C 0.6805 0.52928 0.08584 0.0
C755 C 0.69539 0.53251 0.13563 0.0
C756 C 0.64709 0.53911 0.02712 0.0
C757 C 0.65281 0.53977 0.96023 0.0
C758 C 0.62579 0.53726 0.04235 0.0
C759 C 0.61836 0.53577 0.11121 0.0
C760 C 0.62617 0.52077 0.15416 0.0
C761 C 0.61893 0.51933 0.21882 0.0
C762 C 0.60374 0.53271 0.24095 0.0
C763 C 0.59576 0.54754 0.19841 0.0
C764 C 0.60301 0.5491 0.13383 0.0
C765 C 0.58508 0.51669 0.77908 0.0
C766 C 0.56846 0.53047 0.77623 0.0
C767 C 0.60079 0.51896 0.82613 0.0
C768 C 0.60029 0.5349 0.87273 0.0
C769 C 0.58371 0.54865 0.87017 0.0
C770 C 0.56822 0.54665 0.82224 0.0
C771 C 0.61676 0.53696 0.9247 0.0
C772 C 0.61108 0.53625 0.99139 0.0
C773 C 0.638 0.53908 0.90921 0.0
C774 C 0.64504 0.54197 0.8403 0.0
C775 C 0.6367 0.55765 0.80089 0.0
C776 C 0.64342 0.56043 0.7361 0.0
C777 C 0.65861 0.54773 0.71023 0.0
C778 C 0.66715 0.53227 0.74922 0.0
C779 C 0.66045 0.5294 0.81405 0.0
H780 H 0.6638 0.54991 0.66006 0.0
H781 H 0.5981 0.53152 0.29095 0.0
H782 H 1.01165 0.68147 0.23464 0.0
H783 H 0.01756 0.6544 0.153 0.0
H784 H 0.98267 0.68878 0.01059 0.0
H785 H 0.97574 0.71488 0.09341 0.0
H786 H 0.97147 0.65304 0.99537 0.0
H787 H 0.03978 0.68096 0.01167 0.0
H788 H 0.07158 0.69186 0.06775 0.0
H789 H 0.08036 0.63016 0.13812 0.0
H790 H 0.04843 0.61896 0.08323 0.0
H791 H 0.99781 0.59206 0.71652 0.0
H792 H 0.99489 0.62003 0.79592 0.0
H793 H 0.02466 0.58261 0.94225 0.0
H794 H 0.02903 0.55536 0.86153 0.0
H795 H 0.03835 0.61945 0.95525 0.0
H796 H 0.96889 0.59235 0.93258 0.0
H797 H 0.9378 0.58296 0.86983 0.0
H798 H 0.93234 0.64544 0.80293 0.0
H799 H 0.96349 0.65515 0.86457 0.0
C800 C 1.00571 0.68342 0.18541 0.0
C801 C 0.99354 0.70054 0.17029 0.0
C802 C 1.00905 0.66787 0.13832 0.0
C803 C 1.0008 0.6693 0.07419 0.0
C804 C 0.98921 0.68688 0.05907 0.0
C805 C 0.98546 0.70205 0.10643 0.0
C806 C 1.00339 0.65242 0.02352 0.0
C807 C 0.98625 0.646 0.98633 0.0
C808 C 0.02241 0.64254 0.01128 0.0
C809 C 0.04163 0.64919 0.04396 0.0
C810 C 0.04843 0.66976 0.03947 0.0
C811 C 0.06647 0.67598 0.07101 0.0
C812 C 0.07795 0.66172 0.10663 0.0
C813 C 0.07143 0.64119 0.11063 0.0
C814 C 0.05337 0.6349 0.0793 0.0
C815 C 1.00393 0.58982 0.76538 0.0
C816 C 1.01338 0.57113 0.78245 0.0
C817 C 1.00198 0.60582 0.8114 0.0
C818 C 1.00905 0.60351 0.87648 0.0
C819 C 0.01882 0.58497 0.89305 0.0
C820 C 0.02104 0.56913 0.84681 0.0
C821 C 1.00651 0.62028 0.92717 0.0
C822 C 0.02362 0.62658 0.96445 0.0
C823 C 0.98753 0.63026 0.93877 0.0
C824 C 0.96858 0.62444 0.90285 0.0
C825 C 0.96108 0.60406 0.90431 0.0
C826 C 0.94346 0.59868 0.86892 0.0
C827 C 0.93315 0.6136 0.83237 0.0
C828 C 0.94036 0.63392 0.83125 0.0
C829 C 0.95797 0.63936 0.86645 0.0
H830 H 0.91954 0.60948 0.80499 0.0
H831 H 0.09192 0.66657 0.13102 0.0
H832 H 0.02762 0.26838 0.19572 0.0
H833 H 0.02958 0.23903 0.27124 0.0
H834 H 0.08915 0.2238 0.19246 0.0
H835 H 0.0876 0.2536 0.11888 0.0
H836 H 0.04363 0.19781 0.17362 0.0
H837 H 0.09993 0.21961 0.31538 0.0
H838 H 0.11626 0.24818 0.37579 0.0
H839 H 0.0619 0.25435 0.49436 0.0
H840 H 0.0452 0.22592 0.43395 0.0
H841 H 0.01832 0.10626 0.33923 0.0
H842 H 0.04366 0.13192 0.3016 0.0
H843 H 1.01268 0.1785 0.4143 0.0
H844 H 0.98751 0.15286 0.45259 0.0
H845 H 0.05511 0.18429 0.41096 0.0
H846 H 0.99706 0.17015 0.26888 0.0
H847 H 0.97451 0.1478 0.20265 0.0
H848 H 0.02556 0.13242 0.07848 0.0
H849 H 0.04856 0.15432 0.1452 0.0
C850 C 0.0417 0.25964 0.19816 0.0
C851 C 0.05749 0.26298 0.15241 0.0
C852 C 0.04272 0.24282 0.2404 0.0
C853 C 0.05945 0.22946 0.23623 0.0
C854 C 0.0763 0.23421 0.19613 0.0
C855 C 0.07546 0.25124 0.15488 0.0
C856 C 0.05712 0.20883 0.26343 0.0
C857 C 0.04685 0.19431 0.22477 0.0
C858 C 0.06091 0.205 0.33013 0.0
C859 C 0.07145 0.2206 0.37071 0.0
C860 C 0.09156 0.22698 0.35473 0.0
C861 C 0.10084 0.24318 0.38875 0.0
C862 C 0.09015 0.25304 0.43902 0.0
C863 C 0.0702 0.24662 0.45564 0.0
C864 C 0.06085 0.23042 0.42171 0.0
C865 C 0.01715 0.12196 0.35633 0.0
C866 C 1.00076 0.12797 0.39681 0.0
C867 C 0.03169 0.13642 0.33566 0.0
C868 C 0.02984 0.15692 0.3553 0.0
C869 C 1.01428 0.16263 0.39917 0.0
C870 C 0.99971 0.1482 0.41965 0.0
C871 C 0.04142 0.17313 0.32131 0.0
C872 C 0.05308 0.187 0.35876 0.0
C873 C 0.03844 0.17661 0.25333 0.0
C874 C 0.02462 0.16352 0.21286 0.0
C875 C 1.00354 0.16179 0.22799 0.0
C876 C 0.99067 0.14923 0.19031 0.0
C877 C 0.99862 0.1386 0.1366 0.0
C878 C 0.01945 0.14057 0.12034 0.0
C879 C 0.03243 0.15302 0.15817 0.0
H880 H 0.98863 0.1289 0.10741 0.0
H881 H 0.0973 0.26569 0.465 0.0
H882 H 0.29904 0.08443 0.12719 0.0
H883 H 0.32342 0.08051 0.21659 0.0
H884 H 0.29106 0.02589 0.28299 0.0
H885 H 0.26685 0.0294 0.19168 0.0
H886 H 0.32681 0.06992 0.35866 0.0
H887 H 0.31447 0.99795 0.24376 0.0
H888 H 0.30504 0.97955 0.14217 0.0
H889 H 0.34329 0.02083 0.02884 0.0
H890 H 0.35258 0.03967 0.12968 0.0
H891 H 0.41759 1.01058 0.45188 0.0
H892 H 0.3841 0.02709 0.4391 0.0
H893 H 0.401 0.04566 0.24193 0.0
H894 H 0.43426 0.02882 0.25413 0.0
H895 H 0.36966 0.01704 0.25108 0.0
H896 H 0.39017 0.08107 0.34044 0.0
H897 H 0.40301 0.10712 0.41797 0.0
H898 H 0.35482 0.091 0.55429 0.0
H899 H 0.34191 0.06455 0.47803 0.0
C900 C 0.29661 0.07216 0.16279 0.0
C901 C 0.2816 0.0569 0.15253 0.0
C902 C 0.31036 0.07005 0.214 0.0
C903 C 0.30906 0.05272 0.25496 0.0
C904 C 0.29218 0.03923 0.25099 0.0
C905 C 0.27844 0.04124 0.19918 0.0
C906 C 0.32797 0.04604 0.28609 0.0
C907 C 0.33608 0.05788 0.33724 0.0
C908 C 0.34022 0.03123 0.25447 0.0
C909 C 0.33378 0.02046 0.19385 0.0
C910 C 0.32057 1.00327 0.197 0.0
C911 C 0.31531 0.99274 0.13961 0.0
C912 C 0.32346 0.9991 0.07904 0.0
C913 C 0.33686 1.01602 0.07568 0.0
C914 C 0.34204 0.02667 0.13285 0.0
C915 C 0.41413 0.01848 0.40627 0.0
C916 C 0.42779 0.01784 0.35273 0.0
C917 C 0.39529 0.02816 0.39957 0.0
C918 C 0.39027 0.03739 0.33962 0.0
C919 C 0.40479 0.03849 0.28848 0.0
C920 C 0.42347 0.0286 0.29485 0.0
C921 C 0.36874 0.04095 0.32408 0.0
C922 C 0.36024 0.02846 0.27532 0.0
C923 C 0.35663 0.05577 0.35606 0.0
C924 C 0.36533 0.07051 0.40406 0.0
C925 C 0.38259 0.08273 0.38757 0.0
C926 C 0.3898 0.09768 0.43112 0.0
C927 C 0.3798 0.10065 0.49117 0.0
C928 C 0.36262 0.08862 0.50791 0.0
C929 C 0.35537 0.07362 0.46458 0.0
H930 H 0.38531 0.11234 0.52459 0.0
H931 H 0.31947 0.99085 0.03476 0.0
H932 H 0.45189 0.29376 0.16457 0.0
H933 H 0.45583 0.32217 0.2427 0.0
H934 H 0.5219 0.31862 0.22042 0.0
H935 H 0.51783 0.28925 0.149 0.0
H936 H 0.5161 0.33107 0.32888 0.0
H937 H 0.48801 0.34991 0.11913 0.0
H938 H 0.46243 0.34837 0.03013 0.0
H939 H 0.41588 0.37032 0.1618 0.0
H940 H 0.44117 0.37176 0.25181 0.0
H941 H 0.55029 0.43147 0.35142 0.0
H942 H 0.53027 0.40934 0.27781 0.0
H943 H 0.48804 0.39525 0.43607 0.0
H944 H 0.50819 0.41707 0.50993 0.0
H945 H 0.47813 0.39372 0.26207 0.0
H946 H 0.51792 0.36068 0.47132 0.0
H947 H 0.55052 0.36121 0.53341 0.0
H948 H 0.58451 0.36923 0.35346 0.0
H949 H 0.55211 0.36851 0.29065 0.0
C950 C 0.46715 0.2984 0.18017 0.0
C951 C 0.48462 0.2895 0.15229 0.0
C952 C 0.46942 0.31483 0.22328 0.0
C953 C 0.48911 0.32296 0.23551 0.0
C954 C 0.50652 0.31267 0.21196 0.0
C955 C 0.50426 0.29581 0.17147 0.0
C956 C 0.492 0.34305 0.26736 0.0
C957 C 0.50764 0.34463 0.31399 0.0
C958 C 0.48144 0.361 0.24684 0.0
C959 C 0.4664 0.36074 0.19234 0.0
C960 C 0.4723 0.35437 0.1291 0.0
C961 C 0.45786 0.35349 0.0785 0.0
C962 C 0.43753 0.35918 0.09035 0.0
C963 C 0.43163 0.36588 0.15273 0.0
C964 C 0.446 0.36675 0.20355 0.0
C965 C 0.53618 0.42437 0.36929 0.0
C966 C 0.53079 0.4254 0.43594 0.0
C967 C 0.52465 0.41204 0.32719 0.0
C968 C 0.50777 0.40083 0.35195 0.0
C969 C 0.5009 0.40407 0.41633 0.0
C970 C 0.51252 0.41621 0.45855 0.0
C971 C 0.50238 0.38126 0.32128 0.0
C972 C 0.48626 0.37991 0.2763 0.0
C973 C 0.51355 0.36361 0.3385 0.0
C974 C 0.53274 0.36476 0.37676 0.0
C975 C 0.53238 0.36261 0.44531 0.0
C976 C 0.5508 0.36284 0.48047 0.0
C977 C 0.56957 0.36532 0.44743 0.0
C978 C 0.56998 0.36742 0.37907 0.0
C979 C 0.55162 0.36706 0.34371 0.0
H980 H 0.58379 0.36559 0.4748 0.0
H981 H 0.42635 0.35844 0.05118 0.0
H982 H 0.26654 0.50961 0.18388 0.0
H983 H 0.23916 0.51216 0.26404 0.0
H984 H 0.21383 0.45404 0.19919 0.0
H985 H 0.24098 0.45203 0.11577 0.0
H986 H 0.18835 0.48462 0.17983 0.0
H987 H 0.22867 0.46261 0.36328 0.0
H988 H 0.26124 0.46256 0.42468 0.0
H989 H 0.25486 0.52701 0.46432 0.0
H990 H 0.22249 0.52757 0.40203 0.0
H991 H 0.10131 0.51876 0.35905 0.0
H992 H 0.13018 0.49683 0.32836 0.0
H993 H 0.17196 0.54829 0.35221 0.0
H994 H 0.1431 0.57024 0.38328 0.0
H995 H 0.18645 0.51187 0.40693 0.0
H996 H 0.157 0.53789 0.20839 0.0
H997 H 0.12949 0.54471 0.1286 0.0
H998 H 0.11995 0.47978 0.10312 0.0
H999 H 0.14715 0.47255 0.18407 0.0
C1000 C 0.25585 0.4968 0.18934 0.0
C1001 C 0.25567 0.48066 0.14409 0.0
C1002 C 0.24017 0.49822 0.23532 0.0
C1003 C 0.22455 0.48317 0.23784 0.0
C1004 C 0.22586 0.4657 0.19804 0.0
C1005 C 0.24137 0.46448 0.15096 0.0
C1006 C 0.20507 0.48818 0.27056 0.0
C1007 C 0.18766 0.48976 0.23042 0.0
C1008 C 0.20461 0.49579 0.33544 0.0
C1009 C 0.22304 0.49508 0.37826 0.0
C1010 C 0.23413 0.47674 0.38548 0.0
C1011 C 0.25262 0.47665 0.42018 0.0
C1012 C 0.26009 0.49476 0.4485 0.0
C1013 C 0.24901 0.51297 0.44259 0.0
C1014 C 0.23054 0.51317 0.40776 0.0
C1015 C 0.11668 0.52534 0.357 0.0
C1016 C 0.12017 0.54616 0.37188 0.0
C1017 C 0.13305 0.51284 0.34023 0.0
C1018 C 0.15302 0.52106 0.3384 0.0
C1019 C 0.15656 0.54179 0.35387 0.0
C1020 C 0.14015 0.55434 0.37026 0.0
C1021 C 0.17012 0.50848 0.31572 0.0
C1022 C 0.18691 0.50566 0.35758 0.0
C1023 C 0.17036 0.50039 0.25153 0.0
C1024 C 0.15385 0.50467 0.20327 0.0
C1025 C 0.14884 0.52505 0.18654 0.0
C1026 C 0.13334 0.529 0.14096 0.0
C1027 C 0.12291 0.51269 0.11104 0.0
C1028 C 0.12799 0.4924 0.12658 0.0
C1029 C 0.14342 0.48836 0.1724 0.0
H1030 H 0.11095 0.51578 0.0756 0.0
H1031 H 0.27449 0.49469 0.47493 0.0
H1032 H 0.99755 0.77959 0.1126 0.0
H1033 H 1.00195 0.80909 0.04014 0.0
H1034 H 0.95088 0.83911 0.13376 0.0
H1035 H 0.946 0.80921 0.20649 0.0
H1036 H 0.96034 0.843 0.97807 0.0
H1037 H 0.99196 0.86391 0.20205 0.0
H1038 H 1.01396 0.85734 0.29867 0.0
H1039 H 0.05819 0.82742 0.17621 0.0
H1040 H 0.03703 0.8347 0.07854 0.0
H1041 H 1.00794 0.93252 0.83557 0.0
H1042 H 0.98802 0.91114 0.9121 0.0
H1043 H 0.04083 0.87241 0.94122 0.0
H1044 H 0.06128 0.89468 0.86975 0.0
H1045 H 0.02359 0.87932 0.05181 0.0
H1046 H 0.99989 0.86168 0.83275 0.0
H1047 H 0.98366 0.86841 0.72557 0.0
H1048 H 0.92785 0.8859 0.823 0.0
H1049 H 0.94393 0.87968 0.93078 0.0
C1050 C 0.9864 0.79184 0.11525 0.0
C1051 C 0.97155 0.79232 0.1655 0.0
C1052 C 0.98919 0.80881 0.0746 0.0
C1053 C 0.97706 0.8262 0.08363 0.0
C1054 C 0.96044 0.82572 0.12735 0.0
C1055 C 0.95756 0.80864 0.16807 0.0
C1056 C 0.98353 0.84539 0.05256 0.0
C1057 C 0.97384 0.8514 0.99463 0.0
C1058 C 1.00134 0.85579 0.07426 0.0
C1059 C 1.0128 0.84951 0.1335 0.0
C1060 C 1.00622 0.85564 0.19606 0.0
C1061 C 0.01858 0.85191 0.25085 0.0
C1062 C 0.03725 0.84168 0.2437 0.0
C1063 C 0.04367 0.83521 0.18172 0.0
C1064 C 0.03159 0.83925 0.12664 0.0
C1065 C 0.01535 0.91958 0.85901 0.0
C1066 C 0.03614 0.91513 0.84653 0.0
C1067 C 1.0039 0.90733 0.90212 0.0
C1068 C 1.01294 0.89017 0.9315 0.0
C1069 C 0.03362 0.88567 0.91886 0.0
C1070 C 0.04519 0.89816 0.87717 0.0
C1071 C 1.00105 0.87645 0.9749 0.0
C1072 C 1.00962 0.87157 0.03585 0.0
C1073 C 0.98267 0.86662 0.95447 0.0
C1074 C 0.9732 0.87057 0.8897 0.0
C1075 C 0.98424 0.8672 0.83127 0.0
C1076 C 0.97506 0.87089 0.77044 0.0
C1077 C 0.95477 0.87767 0.76747 0.0
C1078 C 0.9436 0.88075 0.82535 0.0
C1079 C 0.95274 0.87718 0.88629 0.0
H1080 H 0.94766 0.88046 0.72032 0.0
H1081 H 0.04689 0.83897 0.28594 0.0
H1082 H 0.73027 0.95607 0.19942 0.0
H1083 H 0.70419 0.95999 0.11645 0.0
H1084 H 0.74691 0.99467 0.99491 0.0
H1085 H 0.77196 0.99359 0.08216 0.0
H1086 H 0.71713 0.01732 0.02464 0.0
H1087 H 0.71906 0.94706 0.9466 0.0
H1088 H 0.72078 0.90977 0.96879 0.0
H1089 H 0.66314 0.91196 0.07186 0.0
H1090 H 0.66104 0.94919 0.05035 0.0
H1091 H 0.63304 0.0532 0.84911 0.0
H1092 H 0.66414 0.0327 0.86505 0.0
H1093 H 0.63315 0.99755 0.01746 0.0
H1094 H 0.60189 0.01755 0.99954 0.0
H1095 H 0.65907 0.97362 0.94868 0.0
H1096 H 0.66009 0.039 0.05801 0.0
H1097 H 0.65673 0.07673 0.06216 0.0
H1098 H 0.70719 0.08374 0.92683 0.0
H1099 H 0.71059 0.04598 0.92101 0.0
C1100 C 0.73431 0.96414 0.15438 0.0
C1101 C 0.75277 0.97545 0.14915 0.0
C1102 C 0.71943 0.966 0.10597 0.0
C1103 C 0.72347 0.97786 0.04938 0.0
C1104 C 0.74338 0.9857 0.03865 0.0
C1105 C 0.75787 0.9848 0.08861 0.0
C1106 C 0.7062 0.9861 0.0107 0.0
C1107 C 0.70486 1.00762 1.00568 0.0
C1108 C 0.6896 0.97362 0.98935 0.0
C1109 C 0.68986 0.9509 0.99645 0.0
C1110 C 0.70664 0.93953 0.97334 0.0
C1111 C 0.70769 0.9184 0.98593 0.0
C1112 C 0.692 0.90846 0.02131 0.0
C1113 C 0.67514 0.9196 0.04374 0.0
C1114 C 0.67397 0.94071 0.0311 0.0
C1115 C 0.63304 0.04105 0.8858 0.0
C1116 C 0.61567 0.03721 0.92491 0.0
C1117 C 0.65056 0.02924 0.89427 0.0
C1118 C 0.6509 1.01385 0.94292 0.0
C1119 C 0.63311 1.00935 0.97962 0.0
C1120 C 0.61549 0.02094 0.97034 0.0
C1121 C 0.67045 1.00453 0.96225 0.0
C1122 C 0.67196 0.98304 0.9646 0.0
C1123 C 0.68702 0.01698 0.98342 0.0
C1124 C 0.68544 0.03969 0.98845 0.0
C1125 C 0.6704 0.04859 0.02891 0.0
C1126 C 0.66848 0.06997 0.03153 0.0
C1127 C 0.68169 0.08263 0.99462 0.0
C1128 C 0.69693 0.07392 0.95527 0.0
C1129 C 0.69887 0.05253 0.95227 0.0
H1130 H 0.68017 0.09918 0.99662 0.0
H1131 H 0.69294 0.89214 0.03159 0.0
H1132 H 0.55237 0.77589 0.10103 0.0
H1133 H 0.54819 0.7487 0.02193 0.0
H1134 H 0.58797 0.70971 0.13584 0.0
H1135 H 0.59375 0.73771 0.21333 0.0
H1136 H 0.58878 0.69803 0.01472 0.0
H1137 H 0.53389 0.70621 0.16974 0.0
H1138 H 0.50559 0.72084 0.23462 0.0
H1139 H 0.47776 0.74393 0.05869 0.0
H1140 H 0.50533 0.72839 0.99224 0.0
H1141 H 0.52119 0.61002 0.93354 0.0
H1142 H 0.54449 0.63525 0.98431 0.0
H1143 H 0.52087 0.68259 0.85646 0.0
H1144 H 0.49742 0.65761 0.80664 0.0
H1145 H 0.51357 0.68674 0.99349 0.0
H1146 H 0.56954 0.66891 0.84303 0.0
H1147 H 0.5951 0.64547 0.79537 0.0
H1148 H 0.62012 0.63428 0.98706 0.0
H1149 H 0.5945 0.6574 0.03595 0.0
C1150 C 0.56136 0.76211 0.10763 0.0
C1151 C 0.5728 0.75865 0.1651 0.0
C1152 C 0.55854 0.74636 0.06283 0.0
C1153 C 0.56681 0.72696 0.07552 0.0
C1154 C 0.58099 0.7245 0.12649 0.0
C1155 C 0.58429 0.7405 0.17059 0.0
C1156 C 0.55867 0.70898 0.04058 0.0
C1157 C 0.57235 0.69545 0.01024 0.0
C1158 C 0.53724 0.70534 0.03653 0.0
C1159 C 0.52191 0.71658 0.07625 0.0
C1160 C 0.52195 0.71475 0.14503 0.0
C1161 C 0.50598 0.72311 0.18207 0.0
C1162 C 0.49016 0.73378 0.1511 0.0
C1163 C 0.49013 0.73586 0.08274 0.0
C1164 C 0.50583 0.72714 0.0453 0.0
C1165 C 0.52136 0.62576 0.91567 0.0
C1166 C 0.5073 0.63224 0.86779 0.0
C1167 C 0.53477 0.63999 0.94395 0.0
C1168 C 0.53431 0.66059 0.92359 0.0
C1169 C 0.52138 0.66664 0.87223 0.0
C1170 C 0.50787 0.65254 0.84462 0.0
C1171 C 0.54362 0.67661 0.96414 0.0
C1172 C 0.53003 0.68949 0.99711 0.0
C1173 C 0.56502 0.67898 0.97265 0.0
C1174 C 0.57999 0.66471 0.94315 0.0
C1175 C 0.58032 0.66124 0.87509 0.0
C1176 C 0.59486 0.64806 0.84784 0.0
C1177 C 0.60919 0.63835 0.88817 0.0
C1178 C 0.609 0.64178 0.95587 0.0
C1179 C 0.59448 0.65492 0.98334 0.0
H1180 H 0.62048 0.62821 0.86694 0.0
H1181 H 0.4778 0.7402 0.17999 0.0
H1182 H 0.79434 0.5334 0.15282 0.0
H1183 H 0.82086 0.53442 0.06876 0.0
H1184 H 0.80772 0.59835 0.02952 0.0
H1185 H 0.78171 0.59768 0.11861 0.0
H1186 H 0.81966 0.55025 0.92778 0.0
H1187 H 0.84102 0.61093 0.05985 0.0
H1188 H 0.84029 0.62834 0.16729 0.0
H1189 H 0.86922 0.57629 0.25725 0.0
H1190 H 0.86918 0.55835 0.15047 0.0
H1191 H 0.91553 0.5267 0.8013 0.0
H1192 H 0.89293 0.55269 0.8478 0.0
H1193 H 0.88938 0.51859 0.02945 0.0
H1194 H 0.91251 0.49251 0.98403 0.0
H1195 H 0.88655 0.56574 0.03424 0.0
H1196 H 0.85933 0.50331 0.94618 0.0
H1197 H 0.85627 0.47564 0.86478 0.0
H1198 H 0.8332 0.5187 0.72306 0.0
H1199 H 0.83668 0.54678 0.80347 0.0
C1200 C 0.79674 0.54751 0.12495 0.0
C1201 C 0.78637 0.56552 0.14151 0.0
C1202 C 0.81183 0.5481 0.07726 0.0
C1203 C 0.81636 0.56658 0.04441 0.0
C1204 C 0.80458 0.58416 0.05597 0.0
C1205 C 0.7897 0.58373 0.10573 0.0
C1206 C 0.835 0.56699 1.00429 0.0
C1207 C 0.83444 0.55459 0.94842 0.0
C1208 C 0.85401 0.57179 0.03449 0.0
C1209 C 0.85492 0.58317 0.09755 0.0
C1210 C 0.84702 0.60313 0.10268 0.0
C1211 C 0.8467 0.61309 0.16342 0.0
C1212 C 0.85465 0.6034 0.21914 0.0
C1213 C 0.863 0.58376 0.21415 0.0
C1214 C 0.8631 0.57369 0.15366 0.0
C1215 C 0.91024 0.52493 0.85161 0.0
C1216 C 0.91512 0.50737 0.88879 0.0
C1217 C 0.89749 0.53979 0.87781 0.0
C1218 C 0.88931 0.53716 0.9408 0.0
C1219 C 0.89567 0.52071 0.98045 0.0
C1220 C 0.9084 0.50568 0.95417 0.0
C1221 C 0.87093 0.54864 0.95889 0.0
C1222 C 0.87196 0.56281 0.01022 0.0
C1223 C 0.85199 0.54438 0.92762 0.0
C1224 C 0.84947 0.52742 0.87955 0.0
C1225 C 0.85427 0.50705 0.89702 0.0
C1226 C 0.85226 0.49122 0.85127 0.0
C1227 C 0.84489 0.49546 0.78834 0.0
C1228 C 0.83921 0.51548 0.7715 0.0
C1229 C 0.84126 0.53137 0.81712 0.0
H1230 H 0.84334 0.48319 0.75292 0.0
H1231 H 0.8544 0.61113 0.2661 0.0
H1232 H 0.07627 0.23779 0.96223 0.0
H1233 H 0.07128 0.20461 0.91624 0.0
H1234 H 0.02021 0.22723 0.80266 0.0
H1235 H 0.02198 0.25959 0.86476 0.0
H1236 H 1.00988 0.19364 0.81897 0.0
H1237 H 0.08291 0.20718 0.75291 0.0
H1238 H 0.11913 0.21584 0.77781 0.0
H1239 H 0.12092 0.16688 0.92027 0.0
H1240 H 0.08481 0.15796 0.8962 0.0
H1241 H 1.00394 0.09781 0.64538 0.0
H1242 H 1.00903 0.1337 0.67752 0.0
H1243 H 0.05512 0.11487 0.81686 0.0
H1244 H 0.05204 0.07996 0.77773 0.0
H1245 H 0.06796 0.1468 0.77773 0.0
H1246 H 0.99756 0.13275 0.84945 0.0
H1247 H 0.96155 0.12199 0.83067 0.0
H1248 H 0.9552 0.16958 0.68502 0.0
H1249 H 0.99119 0.1805 0.70273 0.0
C1250 C 0.06396 0.23595 0.92693 0.0
C1251 C 0.04932 0.25166 0.91887 0.0
C1252 C 0.06148 0.21661 0.89816 0.0
C1253 C 0.04593 0.2126 0.8519 0.0
C1254 C 0.03243 0.22916 0.83806 0.0
C1255 C 0.03375 0.24817 0.87226 0.0
C1256 C 0.04294 0.19107 0.82229 0.0
C1257 C 0.02284 0.1838 0.80888 0.0
C1258 C 0.05931 0.17696 0.8106 0.0
C1259 C 0.08119 0.182 0.82286 0.0
C1260 C 0.09109 0.19826 0.78931 0.0
C1261 C 0.11158 0.20321 0.80337 0.0
C1262 C 0.1223 0.19194 0.85063 0.0
C1263 C 0.11262 0.17558 0.88362 0.0
C1264 C 0.09219 0.17052 0.86961 0.0
C1265 C 0.01515 0.10134 0.68297 0.0
C1266 C 0.02719 0.08553 0.71005 0.0
C1267 C 0.01789 0.12204 0.70228 0.0
C1268 C 0.03203 0.12755 0.75197 0.0
C1269 C 0.044 0.11162 0.77876 0.0
C1270 C 0.04197 0.09122 0.75704 0.0
C1271 C 0.03508 0.14965 0.77502 0.0
C1272 C 0.05513 0.15691 0.7872 0.0
C1273 C 0.01874 0.16356 0.78626 0.0
C1274 C 0.99702 0.15735 0.77718 0.0
C1275 C 0.98845 0.14089 0.81348 0.0
C1276 C 0.96807 0.13477 0.80297 0.0
C1277 C 0.95611 0.14508 0.75663 0.0
C1278 C 0.96447 0.16161 0.72091 0.0
C1279 C 0.98483 0.1678 0.73126 0.0
H1280 H 0.94035 0.14028 0.74843 0.0
H1281 H 0.13812 0.19588 0.86166 0.0
H1282 H 0.30995 0.08163 0.96549 0.0
H1283 H 0.34288 0.07711 0.9156 0.0
H1284 H 0.31806 0.02849 0.79477 0.0
H1285 H 0.28559 0.03022 0.85711 0.0
H1286 H 0.35161 0.01695 0.81215 0.0
H1287 H 0.33913 0.08894 0.74808 0.0
H1288 H 0.33047 0.12523 0.76945 0.0
H1289 H 0.37938 0.12944 0.90995 0.0
H1290 H 0.3883 0.09325 0.88941 0.0
H1291 H 0.44615 0.03088 0.60868 0.0
H1292 H 0.41037 0.03517 0.64552 0.0
H1293 H 0.43103 0.04245 0.8447 0.0
H1294 H 0.46637 0.03659 0.80965 0.0
H1295 H 0.40029 0.07517 0.77641 0.0
H1296 H 0.41213 1.00467 0.84307 0.0
H1297 H 0.42304 0.96915 0.82118 0.0
H1298 H 0.3764 0.9632 0.67359 0.0
H1299 H 0.36559 0.99895 0.69352 0.0
C1300 C 0.31124 0.07011 0.92744 0.0
C1301 C 0.29481 0.05622 0.91625 0.0
C1302 C 0.33039 0.06781 0.89703 0.0
C1303 C 0.33364 0.05301 0.84792 0.0
C1304 C 0.31657 0.04016 0.83215 0.0
C1305 C 0.29759 0.04146 0.86667 0.0
C1306 C 0.35498 0.05006 0.81745 0.0
C1307 C 0.36179 0.02996 0.80306 0.0
C1308 C 0.3694 0.06656 0.80652 0.0
C1309 C 0.36429 0.08842 0.81734 0.0
C1310 C 0.34802 0.09765 0.78342 0.0
C1311 C 0.34308 0.11819 0.79543 0.0
C1312 C 0.35435 0.12962 0.84108 0.0
C1313 C 0.37068 0.12059 0.87454 0.0
C1314 C 0.37573 0.10011 0.86254 0.0
C1315 C 0.44314 0.03336 0.66039 0.0
C1316 C 0.45953 0.03394 0.70561 0.0
C1317 C 0.42259 0.0358 0.68141 0.0
C1318 C 0.4179 0.0393 0.74798 0.0
C1319 C 0.43416 0.03994 0.79306 0.0
C1320 C 0.45455 0.03686 0.77251 0.0
C1321 C 0.39614 0.0425 0.77093 0.0
C1322 C 0.38956 0.06248 0.78419 0.0
C1323 C 0.38202 0.02606 0.78048 0.0
C1324 C 0.38826 1.00454 0.76909 0.0
C1325 C 0.40438 0.99587 0.80538 0.0
C1326 C 0.41051 0.97568 0.79345 0.0
C1327 C 0.40046 0.96393 0.7459 0.0
C1328 C 0.38421 0.97234 0.71029 0.0
C1329 C 0.37809 0.99257 0.72184 0.0
H1330 H 0.40522 0.94829 0.73677 0.0
H1331 H 0.35043 0.14548 0.85049 0.0
H1332 H 0.51463 0.29038 0.87136 0.0
H1333 H 0.51885 0.3222 0.80682 0.0
H1334 H 0.46304 0.34552 0.89346 0.0
H1335 H 0.4573 0.31291 0.94758 0.0
H1336 H 0.46371 0.36512 0.80215 0.0
H1337 H 0.52269 0.35625 0.93896 0.0
H1338 H 0.55365 0.33958 0.98321 0.0
H1339 H 0.58193 0.34198 0.79218 0.0
H1340 H 0.55103 0.35845 0.74671 0.0
H1341 H 0.4958 0.47171 0.79061 0.0
H1342 H 0.4904 0.43636 0.82825 0.0
H1343 H 0.52112 0.41425 0.65499 0.0
H1344 H 0.52591 0.44983 0.61598 0.0
H1345 H 0.53383 0.39488 0.78102 0.0
H1346 H 0.47023 0.41148 0.66312 0.0
H1347 H 0.43991 0.43342 0.64703 0.0
H1348 H 0.42095 0.42209 0.84646 0.0
H1349 H 0.45131 0.40035 0.86402 0.0
C1350 C 0.50278 0.30192 0.87381 0.0
C1351 C 0.48565 0.29885 0.91544 0.0
C1352 C 0.50555 0.32069 0.83857 0.0
C1353 C 0.49194 0.33745 0.84677 0.0
C1354 C 0.47414 0.33354 0.88483 0.0
C1355 C 0.47081 0.31456 0.91656 0.0
C1356 C 0.49598 0.35903 0.81807 0.0
C1357 C 0.47918 0.37138 0.79915 0.0
C1358 C 0.51597 0.3682 0.81229 0.0
C1359 C 0.53448 0.35827 0.83931 0.0
C1360 C 0.53548 0.35309 0.90638 0.0
C1361 C 0.55301 0.3437 0.93166 0.0
C1362 C 0.56971 0.33964 0.89047 0.0
C1363 C 0.56896 0.34506 0.82397 0.0
C1364 C 0.55145 0.35441 0.79841 0.0
C1365 C 0.50129 0.4595 0.76003 0.0
C1366 C 0.51112 0.464 0.69967 0.0
C1367 C 0.49822 0.43908 0.78186 0.0
C1368 C 0.50523 0.42236 0.74464 0.0
C1369 C 0.51547 0.42673 0.68492 0.0
C1370 C 0.51814 0.44719 0.66243 0.0
C1371 C 0.50166 0.40044 0.76774 0.0
C1372 C 0.51851 0.38822 0.78503 0.0
C1373 C 0.4817 0.39191 0.77658 0.0
C1374 C 0.46308 0.40436 0.7649 0.0
C1375 C 0.45962 0.41372 0.70356 0.0
C1376 C 0.44243 0.42613 0.69421 0.0
C1377 C 0.42853 0.42917 0.74571 0.0
C1378 C 0.43173 0.41973 0.80661 0.0
C1379 C 0.4489 0.40734 0.81625 0.0
H1380 H 0.41527 0.43883 0.73841 0.0
H1381 H 0.58327 0.33236 0.91012 0.0
H1382 H 0.23612 0.46408 0.92142 0.0
H1383 H 0.2027 0.4686 0.87371 0.0
H1384 H 0.2171 0.53253 0.83495 0.0
H1385 H 0.24983 0.52849 0.89357 0.0
H1386 H 0.18188 0.53345 0.86841 0.0
H1387 H 0.20829 0.48383 0.70865 0.0
H1388 H 0.2239 0.45099 0.67529 0.0
H1389 H 0.17643 0.41739 0.77828 0.0
H1390 H 0.16063 0.44998 0.81238 0.0
H1391 H 0.08857 0.54737 0.68833 0.0
H1392 H 0.12432 0.54356 0.72285 0.0
H1393 H 0.11069 0.482 0.79169 0.0
H1394 H 0.07528 0.48545 0.75426 0.0
H1395 H 0.14541 0.48056 0.73751 0.0
H1396 H 0.11928 0.52743 0.89833 0.0
H1397 H 0.10243 0.55889 0.93792 0.0
H1398 H 0.14797 0.59615 0.83883 0.0
H1399 H 0.16496 0.56491 0.79819 0.0
C1400 C 0.23254 0.47905 0.90098 0.0
C1401 C 0.24606 0.49585 0.91144 0.0
C1402 C 0.21313 0.48163 0.87244 0.0
C1403 C 0.20682 0.50084 0.84772 0.0
C1404 C 0.22109 0.51741 0.85313 0.0
C1405 C 0.24025 0.51504 0.88532 0.0
C1406 C 0.18501 0.50392 0.82172 0.0
C1407 C 0.1743 0.52196 0.83837 0.0
C1408 C 0.17398 0.48883 0.78472 0.0
C1409 C 0.18338 0.46932 0.76324 0.0
C1410 C 0.20123 0.46943 0.72417 0.0
C1411 C 0.2101 0.45086 0.70516 0.0
C1412 C 0.20118 0.43213 0.72474 0.0
C1413 C 0.18332 0.4319 0.76311 0.0
C1414 C 0.17438 0.4504 0.78211 0.0
C1415 C 0.09312 0.53302 0.71107 0.0
C1416 C 0.07872 0.5168 0.71883 0.0
C1417 C 0.11369 0.53089 0.73143 0.0
C1418 C 0.12055 0.5126 0.76154 0.0
C1419 C 0.10614 0.49636 0.76899 0.0
C1420 C 0.08567 0.49839 0.74777 0.0
C1421 C 0.14268 0.51007 0.78359 0.0
C1422 C 0.15329 0.49213 0.76658 0.0
C1423 C 0.1535 0.52511 0.82062 0.0
C1424 C 0.14327 0.54387 0.84479 0.0
C1425 C 0.1256 0.54234 0.88467 0.0
C1426 C 0.11605 0.56013 0.90736 0.0
C1427 C 0.12409 0.57951 0.89077 0.0
C1428 C 0.14174 0.58114 0.85158 0.0
C1429 C 0.15135 0.5634 0.82878 0.0
H1430 H 0.11668 0.59326 0.9084 0.0
H1431 H 0.2081 0.41778 0.71012 0.0
H1432 H 0.9674 0.79788 0.4317 0.0
H1433 H 0.97207 0.83158 0.48283 0.0
H1434 H 0.03215 0.8368 0.39357 0.0
H1435 H 0.02762 0.80288 0.34443 0.0
H1436 H 0.03566 0.85685 0.48816 0.0
H1437 H 0.98053 0.85977 0.33393 0.0
H1438 H 0.94723 0.85081 0.28429 0.0
H1439 H 0.91611 0.8691 0.46076 0.0
H1440 H 0.94938 0.87785 0.51182 0.0
H1441 H 0.0451 0.96578 0.52886 0.0
H1442 H 0.04135 0.93145 0.48308 0.0
H1443 H 0.98175 0.92511 0.57549 0.0
H1444 H 0.98459 0.96063 0.61415 0.0
H1445 H 0.97788 0.90567 0.4762 0.0
H1446 H 0.0411 0.88928 0.62869 0.0
H1447 H 0.07768 0.89316 0.65964 0.0
H1448 H 0.09443 0.90282 0.45794 0.0
H1449 H 0.05837 0.89686 0.42499 0.0
C1450 C 0.98204 0.8058 0.42573 0.0
C1451 C 0.99737 0.79723 0.38528 0.0
C1452 C 0.98446 0.82554 0.45325 0.0
C1453 C 1.00209 0.83771 0.43976 0.0
C1454 C 0.01813 0.82831 0.40423 0.0
C1455 C 0.01576 0.80852 0.37705 0.0
C1456 C 1.00392 0.8601 0.46123 0.0
C1457 C 0.0229 0.8674 0.48466 0.0
C1458 C 0.98758 0.87452 0.45745 0.0
C1459 C 0.96753 0.86921 0.42699 0.0
C1460 C 0.96665 0.86173 0.36235 0.0
C1461 C 0.94775 0.8567 0.33392 0.0
C1462 C 0.92955 0.85932 0.36943 0.0
C1463 C 0.93023 0.86702 0.43337 0.0
C1464 C 0.94912 0.87201 0.46208 0.0
C1465 C 0.03124 0.95699 0.53974 0.0
C1466 C 0.01533 0.96596 0.57633 0.0
C1467 C 0.02922 0.9369 0.51451 0.0
C1468 C 1.01168 0.92448 0.52797 0.0
C1469 C 0.99564 0.93374 0.56406 0.0
C1470 C 0.9973 0.95419 0.58681 0.0
C1471 C 1.00963 0.90229 0.5039 0.0
C1472 C 0.99053 0.89501 0.47997 0.0
C1473 C 0.02605 0.88798 0.50437 0.0
C1474 C 0.04707 0.89343 0.52478 0.0
C1475 C 0.05257 0.89255 0.5912 0.0
C1476 C 0.07318 0.89493 0.60902 0.0
C1477 C 0.08819 0.89902 0.56128 0.0
C1478 C 0.08276 0.89999 0.49506 0.0
C1479 C 0.06233 0.89675 0.47665 0.0
H1480 H 0.10409 0.90108 0.57554 0.0
H1481 H 0.91492 0.85544 0.34735 0.0
H1482 H 0.74029 0.03566 0.33949 0.0
H1483 H 0.70726 0.03946 0.39693 0.0
H1484 H 0.71042 0.9765 0.46349 0.0
H1485 H 0.74336 0.9728 0.40633 0.0
H1486 H 0.67404 0.98283 0.40889 0.0
H1487 H 0.71321 0.01734 0.57373 0.0
H1488 H 0.73797 0.04262 0.61796 0.0
H1489 H 0.7014 0.09211 0.54326 0.0
H1490 H 0.67651 0.06708 0.49802 0.0
H1491 H 0.58777 0.99152 0.64391 0.0
H1492 H 0.62305 0.98788 0.60035 0.0
H1493 H 0.61354 0.03958 0.47099 0.0
H1494 H 0.57811 0.04256 0.51184 0.0
H1495 H 0.65294 0.03842 0.55998 0.0
H1496 H 0.61401 1.00332 0.39381 0.0
H1497 H 0.58996 0.97773 0.34766 0.0
H1498 H 0.62655 0.92873 0.4253 0.0
H1499 H 0.6507 0.95408 0.47282 0.0
C1500 C 0.73449 0.023 0.36931 0.0
C1501 C 0.74493 1.00413 0.36997 0.0
C1502 C 0.71535 0.02506 0.40148 0.0
C1503 C 0.70605 1.00825 0.43486 0.0
C1504 C 0.71703 0.98975 0.43831 0.0
C1505 C 0.73616 0.98775 0.40663 0.0
C1506 C 0.68446 1.00947 0.46228 0.0
C1507 C 0.6696 0.99483 0.4428 0.0
C1508 C 0.67819 0.0253 0.50544 0.0
C1509 C 0.69314 0.04037 0.53201 0.0
C1510 C 0.71055 0.03362 0.56629 0.0
C1511 C 0.72458 0.0479 0.59165 0.0
C1512 C 0.72129 0.06896 0.58328 0.0
C1513 C 0.70394 0.07579 0.54964 0.0
C1514 C 0.68985 0.06157 0.52421 0.0
C1515 C 0.59327 1.0021 0.60629 0.0
C1516 C 0.58021 0.01741 0.58169 0.0
C1517 C 0.61339 0.99996 0.58116 0.0
C1518 C 0.62105 1.01346 0.53223 0.0
C1519 C 0.60807 0.02894 0.50849 0.0
C1520 C 0.5878 0.03063 0.53193 0.0
C1521 C 0.64269 1.01178 0.50671 0.0
C1522 C 0.65749 0.02636 0.52646 0.0
C1523 C 0.64889 0.99586 0.46393 0.0
C1524 C 0.63395 0.98061 0.43795 0.0
C1525 C 0.61674 0.9871 0.4021 0.0
C1526 C 0.60318 0.97264 0.37523 0.0
C1527 C 0.6067 0.95162 0.38368 0.0
C1528 C 0.62381 0.94502 0.41898 0.0
C1529 C 0.63744 0.95943 0.44587 0.0
H1530 H 0.59617 0.94045 0.36283 0.0
H1531 H 0.73217 0.08 0.60298 0.0
H1532 H 0.5144 0.74255 0.31714 0.0
H1533 H 0.51092 0.70775 0.36161 0.0
H1534 H 0.56142 0.71978 0.49323 0.0
H1535 H 0.56638 0.75365 0.44157 0.0
H1536 H 0.56728 0.68482 0.45437 0.0
H1537 H 0.50282 0.71235 0.53632 0.0
H1538 H 0.47005 0.73054 0.521 0.0
H1539 H 0.45085 0.68539 0.38007 0.0
H1540 H 0.48356 0.66704 0.39428 0.0
H1541 H 0.55636 0.58779 0.62046 0.0
H1542 H 0.55876 0.62397 0.58785 0.0
H1543 H 0.50528 0.61607 0.46502 0.0
H1544 H 0.50168 0.58058 0.50416 0.0
H1545 H 0.50102 0.64979 0.50415 0.0
H1546 H 0.56557 0.62496 0.40876 0.0
H1547 H 0.59979 0.60903 0.4087 0.0
H1548 H 0.61877 0.64792 0.56725 0.0
H1549 H 0.58504 0.665 0.56567 0.0
C1550 C 0.52423 0.73797 0.35721 0.0
C1551 C 0.54025 0.75122 0.37673 0.0
C1552 C 0.52225 0.7179 0.38319 0.0
C1553 C 0.53554 0.71067 0.4328 0.0
C1554 C 0.55078 0.72453 0.45543 0.0
C1555 C 0.55329 0.7443 0.42718 0.0
C1556 C 0.53443 0.68855 0.45812 0.0
C1557 C 0.55272 0.67738 0.4662 0.0
C1558 C 0.51563 0.67801 0.472 0.0
C1559 C 0.49559 0.68838 0.46632 0.0
C1560 C 0.49155 0.70628 0.50231 0.0
C1561 C 0.47302 0.71663 0.4937 0.0
C1562 C 0.45838 0.70913 0.44957 0.0
C1563 C 0.46218 0.69117 0.4143 0.0
C1564 C 0.48067 0.68075 0.42277 0.0
C1565 C 0.54516 0.59382 0.58635 0.0
C1566 C 0.52881 0.58122 0.56507 0.0
C1567 C 0.5467 0.61464 0.56653 0.0
C1568 C 0.53259 0.62333 0.52175 0.0
C1569 C 0.51648 0.61036 0.49966 0.0
C1570 C 0.51444 0.58984 0.52176 0.0
C1571 C 0.53389 0.64583 0.49974 0.0
C1572 C 0.51562 0.65715 0.49246 0.0
C1573 C 0.55271 0.65643 0.48593 0.0
C1574 C 0.57276 0.646 0.48771 0.0
C1575 C 0.57702 0.63001 0.44382 0.0
C1576 C 0.59631 0.62078 0.44409 0.0
C1577 C 0.61127 0.62704 0.489 0.0
C1578 C 0.60712 0.64294 0.53284 0.0
C1579 C 0.58801 0.65257 0.5318 0.0
H1580 H 0.62615 0.61973 0.4893 0.0
H1581 H 0.44409 0.71723 0.44272 0.0
H1582 H 0.8068 0.58119 0.37031 0.0
H1583 H 0.84021 0.57448 0.41966 0.0
H1584 H 0.82487 0.51003 0.43315 0.0
H1585 H 0.79207 0.51637 0.37647 0.0
H1586 H 0.85073 0.5526 0.54406 0.0
H1587 H 0.84911 0.49874 0.36343 0.0
H1588 H 0.84512 0.48919 0.24739 0.0
H1589 H 0.89131 0.53375 0.19254 0.0
H1590 H 0.89353 0.54543 0.30718 0.0
H1591 H 0.94835 0.51978 0.66281 0.0
H1592 H 0.91303 0.52189 0.62317 0.0
H1593 H 0.93528 0.54442 0.43595 0.0
H1594 H 0.97071 0.54144 0.47463 0.0
H1595 H 0.90569 0.52146 0.40917 0.0
H1596 H 0.91153 0.57485 0.56429 0.0
H1597 H 0.91816 0.59204 0.66994 0.0
H1598 H 0.86982 0.5566 0.76062 0.0
H1599 H 0.86349 0.53837 0.65678 0.0
C1600 C 0.81037 0.5655 0.38408 0.0
C1601 C 0.79658 0.54931 0.36796 0.0
C1602 C 0.82973 0.56167 0.41184 0.0
C1603 C 0.83593 0.54154 0.42658 0.0
C1604 C 0.82128 0.52555 0.41807 0.0
C1605 C 0.80206 0.52929 0.38777 0.0
C1606 C 0.85742 0.53782 0.45246 0.0
C1607 C 0.86261 0.54531 0.51505 0.0
C1608 C 0.87356 0.52957 0.41351 0.0
C1609 C 0.87063 0.52369 0.34384 0.0
C1610 C 0.85742 0.50741 0.32635 0.0
C1611 C 0.85553 0.50158 0.2606 0.0
C1612 C 0.86753 0.51126 0.21221 0.0
C1613 C 0.88146 0.52676 0.22959 0.0
C1614 C 0.88277 0.53322 0.29479 0.0
C1615 C 0.94581 0.52523 0.61314 0.0
C1616 C 0.96268 0.53055 0.57236 0.0
C1617 C 0.9254 0.52657 0.5904 0.0
C1618 C 0.92097 0.53368 0.52639 0.0
C1619 C 0.93787 0.53886 0.48545 0.0
C1620 C 0.95832 0.53725 0.50789 0.0
C1621 C 0.89894 0.53558 0.50202 0.0
C1622 C 0.89375 0.52823 0.4392 0.0
C1623 C 0.88298 0.54468 0.53965 0.0
C1624 C 0.88722 0.55504 0.60287 0.0
C1625 C 0.90254 0.57043 0.60711 0.0
C1626 C 0.90627 0.58031 0.66676 0.0
C1627 C 0.89449 0.57523 0.72211 0.0
C1628 C 0.87903 0.56025 0.71796 0.0
C1629 C 0.87544 0.55008 0.65886 0.0
H1630 H 0.8972 0.58295 0.76821 0.0
H1631 H 0.86632 0.5065 0.16149 0.0
loop_
_geom_bond_atom_site_label_1
_geom_bond_atom_site_label_2
_geom_bond_distance
_geom_bond_site_symmetry_2
_ccdc_geom_bond_type
H0 C5 0.930 . S
H1 C8 0.930 . S
H2 C10 0.930 . S
H3 C4 1.016 . S
C4 H3 1.016 . S
C4 N11 1.286 . S
C5 H0 0.930 . S
C5 C6 1.397 . S
C5 C7 1.361 . S
C6 C5 1.397 . S
C6 C10 1.390 . S
C7 C5 1.361 . S
C7 C8 1.393 . S
C7 N11 1.413 . S
C8 H1 0.930 . S
C8 C7 1.393 . S
C8 C9 1.399 . S
C9 C8 1.399 . S
C9 C10 1.381 . S
C10 H2 0.930 . S
C10 C6 1.390 . S
C10 C9 1.381 . S
N11 C4 1.286 . S
N11 C7 1.413 . S
H12 C17 0.930 . S
H13 C20 0.930 . S
H14 C22 0.930 . S
H15 C16 1.016 . S
C16 H15 1.016 . S
C16 N23 1.286 . S
C17 H12 0.930 . S
C17 C18 1.397 . S
C17 C19 1.361 . S
C18 C17 1.397 . S
C18 C22 1.390 . S
C19 C17 1.361 . S
C19 C20 1.393 . S
C19 N23 1.413 . S
C20 H13 0.930 . S
C20 C19 1.393 . S
C20 C21 1.399 . S
C21 C20 1.399 . S
C21 C22 1.381 . S
C22 H14 0.930 . S
C22 C18 1.390 . S
C22 C21 1.381 . S
N23 C16 1.286 . S
N23 C19 1.413 . S
H24 C29 0.930 . S
H25 C32 0.930 . S
H26 C34 0.930 . S
H27 C28 1.016 . S
C28 H27 1.016 . S
C28 N35 1.286 . S
C29 H24 0.930 . S
C29 C30 1.397 . S
C29 C31 1.361 . S
C30 C29 1.397 . S
C30 C34 1.390 . S
C31 C29 1.361 . S
C31 C32 1.393 . S
C31 N35 1.413 . S
C32 H25 0.930 . S
C32 C31 1.393 . S
C32 C33 1.399 . S
C33 C32 1.399 . S
C33 C34 1.381 . S
C34 H26 0.930 . S
C34 C30 1.390 . S
C34 C33 1.381 . S
N35 C28 1.286 . S
N35 C31 1.413 . S
H36 C41 0.930 . S
H37 C44 0.930 . S
H38 C46 0.930 . S
H39 C40 1.016 . S
C40 H39 1.016 . S
C40 N47 1.286 . S
C41 H36 0.930 . S
C41 C42 1.397 . S
C41 C43 1.361 . S
C42 C41 1.397 . S
C42 C46 1.390 . S
C43 C41 1.361 . S
C43 C44 1.393 . S
C43 N47 1.413 . S
C44 H37 0.930 . S
C44 C43 1.393 . S
C44 C45 1.399 . S
C45 C44 1.399 . S
C45 C46 1.381 . S
C46 H38 0.930 . S
C46 C42 1.390 . S
C46 C45 1.381 . S
N47 C40 1.286 . S
N47 C43 1.413 . S
H48 C53 0.930 . S
H49 C56 0.930 . S
H50 C58 0.930 . S
H51 C52 1.016 . S
C52 H51 1.016 . S
C52 N59 1.286 . S
C53 H48 0.930 . S
C53 C54 1.397 . S
C53 C55 1.361 1_556 S
C54 C53 1.397 . S
C54 C58 1.390 1_556 S
C55 C53 1.361 1_554 S
C55 C56 1.393 . S
C55 N59 1.413 . S
C56 H49 0.930 . S
C56 C55 1.393 . S
C56 C57 1.399 . S
C57 C56 1.399 . S
C57 C58 1.381 . S
C58 H50 0.930 . S
C58 C54 1.390 1_554 S
C58 C57 1.381 . S
N59 C52 1.286 . S
N59 C55 1.413 . S
H60 C65 0.930 . S
H61 C68 0.930 . S
H62 C70 0.930 . S
H63 C64 1.016 . S
C64 H63 1.016 . S
C64 N71 1.286 . S
C65 H60 0.930 . S
C65 C66 1.397 . S
C65 C67 1.361 1_556 S
C66 C65 1.397 . S
C66 C70 1.390 1_556 S
C67 C65 1.361 1_554 S
C67 C68 1.393 . S
C67 N71 1.413 . S
C68 H61 0.930 . S
C68 C67 1.393 . S
C68 C69 1.399 . S
C69 C68 1.399 . S
C69 C70 1.381 . S
C70 H62 0.930 . S
C70 C66 1.390 1_554 S
C70 C69 1.381 . S
N71 C64 1.286 . S
N71 C67 1.413 . S
H72 C77 0.930 . S
H73 C80 0.930 . S
H74 C82 0.930 . S
H75 C76 1.016 . S
C76 H75 1.016 . S
C76 N83 1.286 . S
C77 H72 0.930 . S
C77 C78 1.397 . S
C77 C79 1.361 1_556 S
C78 C77 1.397 . S
C78 C82 1.390 1_556 S
C79 C77 1.361 1_554 S
C79 C80 1.393 . S
C79 N83 1.413 . S
C80 H73 0.930 . S
C80 C79 1.393 . S
C80 C81 1.399 . S
C81 C80 1.399 . S
C81 C82 1.381 . S
C82 H74 0.930 . S
C82 C78 1.390 1_554 S
C82 C81 1.381 . S
N83 C76 1.286 . S
N83 C79 1.413 . S
H84 C89 0.930 . S
H85 C92 0.930 . S
H86 C94 0.930 . S
H87 C88 1.016 . S
C88 H87 1.016 . S
C88 N95 1.286 . S
C89 H84 0.930 . S
C89 C90 1.397 . S
C89 C91 1.361 1_556 S
C90 C89 1.397 . S
C90 C94 1.390 1_556 S
C91 C89 1.361 1_554 S
C91 C92 1.393 . S
C91 N95 1.413 . S
C92 H85 0.930 . S
C92 C91 1.393 . S
C92 C93 1.399 . S
C93 C92 1.399 . S
C93 C94 1.381 . S
C94 H86 0.930 . S
C94 C90 1.390 1_554 S
C94 C93 1.381 . S
N95 C88 1.286 . S
N95 C91 1.413 . S
C96 C98 1.422 . S
C96 C100 1.415 . S
C96 N102 1.369 . S
C97 C98 1.421 . S
C97 C99 1.417 . S
C97 C109 1.422 . S
C98 C96 1.422 . S
C98 C97 1.421 . S
C98 N108 1.359 . S
C99 C97 1.417 . S
C99 C101 1.329 . S
C99 H118 0.930 . S
C100 C96 1.415 . S
C100 C101 1.437 . S
C100 C104 1.413 . S
C101 C99 1.329 . S
C101 C100 1.437 . S
C101 H123 0.929 . S
N102 C96 1.369 . S
N102 C103 1.338 . S
N102 Gd107 2.622 1_545 S
C103 N102 1.338 . S
C103 C105 1.378 . S
C103 H115 0.929 1_545 S
C104 C100 1.413 . S
C104 C105 1.348 . S
C104 H120 0.931 . S
C105 C103 1.378 . S
C105 C104 1.348 . S
C105 H121 0.930 . S
Gd106 N126 2.622 . S
Gd106 N133 2.570 . S
Gd106 O140 2.353 1_655 S
Gd106 O141 2.468 1_655 S
Gd106 O142 2.427 . S
Gd106 O144 2.388 . S
Gd106 O145 2.386 1_545 S
Gd106 O149 2.307 1_655 S
Gd106 C159 2.805 . S
Gd107 N102 2.622 1_565 S
Gd107 N108 2.570 1_565 S
Gd107 O139 2.386 1_565 S
Gd107 O143 2.307 1_465 S
Gd107 O146 2.353 . S
Gd107 O147 2.468 . S
Gd107 O148 2.427 . S
Gd107 O150 2.388 . S
Gd107 C171 2.805 . S
N108 C98 1.359 . S
N108 Gd107 2.570 1_545 S
N108 C110 1.343 . S
C109 C97 1.422 . S
C109 C111 1.321 . S
C109 H117 0.931 . S
C110 N108 1.343 . S
C110 C111 1.390 . S
C110 H112 0.931 1_455 S
C111 C109 1.321 . S
C111 C110 1.390 . S
C111 H113 0.930 1_455 S
H112 C110 0.931 1_655 S
H113 C111 0.930 1_655 S
H114 C137 0.931 . S
H115 C103 0.929 1_565 S
H116 C138 0.935 . S
H117 C109 0.931 . S
H118 C99 0.930 . S
H119 C128 0.929 . S
H120 C104 0.931 . S
H121 C105 0.930 . S
H122 C160 0.930 . S
H123 C101 0.929 . S
H124 C129 0.939 . S
H125 C130 0.930 . S
N126 Gd106 2.622 . S
N126 C127 1.369 . S
N126 C128 1.338 . S
C127 N126 1.369 . S
C127 C131 1.415 1_545 S
C127 C134 1.422 . S
C128 H119 0.929 . S
C128 N126 1.338 . S
C128 C130 1.378 . S
C129 H124 0.939 . S
C129 C130 1.338 1_565 S
C129 C131 1.415 . S
C130 H125 0.930 . S
C130 C128 1.378 . S
C130 C129 1.338 1_545 S
C131 C127 1.415 1_565 S
C131 C129 1.415 . S
C131 C161 1.437 . S
H132 C161 0.929 . S
N133 Gd106 2.570 . S
N133 C134 1.359 . S
N133 C137 1.343 1_655 S
C134 C127 1.422 . S
C134 N133 1.359 . S
C134 C136 1.421 1_545 S
C135 C136 1.422 . S
C135 C138 1.338 1_655 S
C135 H162 0.931 . S
C136 C134 1.421 1_565 S
C136 C135 1.422 . S
C136 C160 1.417 . S
C137 H114 0.931 . S
C137 N133 1.343 1_455 S
C137 C138 1.370 1_545 S
C138 H116 0.935 . S
C138 C135 1.338 1_455 S
C138 C137 1.370 1_565 S
O139 Gd107 2.386 1_545 S
O139 C151 1.265 . S
O140 Gd106 2.353 1_455 S
O140 C151 1.242 . S
O141 Gd106 2.468 1_455 S
O141 C159 1.263 1_455 S
O142 Gd106 2.427 . S
O142 C159 1.252 . S
O143 Gd107 2.307 1_645 S
O143 C152 1.261 . S
O144 Gd106 2.388 . S
O144 C152 1.252 . S
O145 Gd106 2.386 1_565 S
O145 C163 1.265 . S
O146 Gd107 2.353 . S
O146 C163 1.242 1_455 S
O147 Gd107 2.468 . S
O147 C171 1.263 . S
O148 Gd107 2.427 . S
O148 C171 1.252 . S
O149 Gd106 2.307 1_455 S
O149 C164 1.261 . S
O150 Gd107 2.388 . S
O150 C164 1.252 1_565 S
C151 O139 1.265 . S
C151 O140 1.242 . S
C152 O143 1.261 . S
C152 O144 1.252 . S
C153 C156 1.394 . S
C153 C158 1.347 1_655 S
C153 C159 1.500 . S
C154 C157 1.383 . S
C154 C158 1.393 1_655 S
C155 C156 1.396 . S
C155 C157 1.365 . S
C155 H172 0.929 . S
C156 C153 1.394 . S
C156 C155 1.396 . S
C156 H173 0.930 . S
C157 C154 1.383 . S
C157 C155 1.365 . S
C157 H174 0.931 . S
C158 C153 1.347 1_455 S
C158 C154 1.393 1_455 S
C158 H175 0.957 . S
C159 Gd106 2.805 . S
C159 O141 1.263 1_655 S
C159 O142 1.252 . S
C159 C153 1.500 . S
C160 H122 0.930 . S
C160 C136 1.417 . S
C160 C161 1.329 . S
C161 C131 1.437 . S
C161 H132 0.929 . S
C161 C160 1.329 . S
H162 C135 0.931 . S
C163 O145 1.265 . S
C163 O146 1.242 1_655 S
C164 O149 1.261 . S
C164 O150 1.252 1_545 S
C165 C168 1.394 . S
C165 C170 1.370 . S
C165 C171 1.500 . S
C166 C169 1.383 . S
C166 C170 1.395 . S
C167 C168 1.396 . S
C167 C169 1.365 . S
C167 H176 0.929 . S
C168 C165 1.394 . S
C168 C167 1.396 . S
C168 H177 0.930 . S
C169 C166 1.383 . S
C169 C167 1.365 . S
C169 H178 0.931 . S
C170 C165 1.370 . S
C170 C166 1.395 . S
C170 H179 0.881 1_455 S
C171 Gd107 2.805 . S
C171 O147 1.263 . S
C171 O148 1.252 . S
C171 C165 1.500 . S
H172 C155 0.929 . S
H173 C156 0.930 . S
H174 C157 0.931 . S
H175 C158 0.957 . S
H176 C167 0.929 . S
H177 C168 0.930 . S
H178 C169 0.931 . S
H179 C170 0.881 1_655 S
C180 C182 1.422 . S
C180 C184 1.415 . S
C180 N186 1.369 . S
C181 C182 1.421 . S
C181 C183 1.417 . S
C181 C193 1.422 . S
C182 C180 1.422 . S
C182 C181 1.421 . S
C182 N192 1.359 . S
C183 C181 1.417 . S
C183 C185 1.329 . S
C183 H202 0.930 . S
C184 C180 1.415 . S
C184 C185 1.437 . S
C184 C188 1.413 . S
C185 C183 1.329 . S
C185 C184 1.437 . S
C185 H207 0.929 . S
N186 C180 1.369 . S
N186 C187 1.338 . S
N186 Gd191 2.622 . S
C187 N186 1.338 . S
C187 C189 1.378 . S
C187 H199 0.929 . S
C188 C184 1.413 . S
C188 C189 1.348 . S
C188 H204 0.931 . S
C189 C187 1.378 . S
C189 C188 1.348 . S
C189 H205 0.930 . S
Gd190 N210 2.622 . S
Gd190 N217 2.570 . S
Gd190 O224 2.353 1_545 S
Gd190 O225 2.468 . S
Gd190 O226 2.427 . S
Gd190 O228 2.388 . S
Gd190 O229 2.386 . S
Gd190 O233 2.307 . S
Gd190 C243 2.805 . S
Gd191 N186 2.622 . S
Gd191 N192 2.570 . S
Gd191 O223 2.386 . S
Gd191 O227 2.307 1_565 S
Gd191 O230 2.353 1_565 S
Gd191 O231 2.474 . S
Gd191 O232 2.427 . S
Gd191 O234 2.388 . S
Gd191 C255 2.805 . S
N192 C182 1.359 . S
N192 Gd191 2.570 . S
N192 C194 1.343 . S
C193 C181 1.422 . S
C193 C195 1.321 . S
C193 H201 0.931 . S
C194 N192 1.343 . S
C194 C195 1.390 . S
C194 H196 0.931 . S
C195 C193 1.321 . S
C195 C194 1.390 . S
C195 H197 0.930 . S
H196 C194 0.931 . S
H197 C195 0.930 . S
H198 C221 0.931 . S
H199 C187 0.929 . S
H200 C222 0.930 . S
H201 C193 0.931 . S
H202 C183 0.930 . S
H203 C212 0.929 . S
H204 C188 0.931 . S
H205 C189 0.930 . S
H206 C244 0.930 . S
H207 C185 0.929 . S
H208 C213 0.931 . S
H209 C214 0.930 . S
N210 Gd190 2.622 . S
N210 C211 1.369 . S
N210 C212 1.338 . S
C211 N210 1.369 . S
C211 C215 1.415 . S
C211 C218 1.422 . S
C212 H203 0.929 . S
C212 N210 1.338 . S
C212 C214 1.378 . S
C213 H208 0.931 . S
C213 C214 1.348 . S
C213 C215 1.413 . S
C214 H209 0.930 . S
C214 C212 1.378 . S
C214 C213 1.348 . S
C215 C211 1.415 . S
C215 C213 1.413 . S
C215 C245 1.437 . S
H216 C245 0.929 . S
N217 Gd190 2.570 . S
N217 C218 1.359 . S
N217 C221 1.343 . S
C218 C211 1.422 . S
C218 N217 1.359 . S
C218 C220 1.421 . S
C219 C220 1.422 . S
C219 C222 1.321 . S
C219 H246 0.931 . S
C220 C218 1.421 . S
C220 C219 1.422 . S
C220 C244 1.417 . S
C221 H198 0.931 . S
C221 N217 1.343 . S
C221 C222 1.390 . S
C222 H200 0.930 . S
C222 C219 1.321 . S
C222 C221 1.390 . S
O223 Gd191 2.386 . S
O223 C235 1.265 . S
O224 Gd190 2.353 1_565 S
O224 C235 1.242 . S
O225 Gd190 2.468 . S
O225 C243 1.263 . S
O226 Gd190 2.427 . S
O226 C243 1.252 . S
O227 Gd191 2.307 1_545 S
O227 C236 1.261 . S
O228 Gd190 2.388 . S
O228 C236 1.252 . S
O229 Gd190 2.386 . S
O229 C247 1.265 . S
O230 Gd191 2.353 1_545 S
O230 C247 1.242 . S
O231 Gd191 2.474 . S
O231 C255 1.267 . S
O232 Gd191 2.427 . S
O232 C255 1.252 . S
O233 Gd190 2.307 . S
O233 C248 1.261 . S
O234 Gd191 2.388 . S
O234 C248 1.252 1_565 S
C235 O223 1.265 . S
C235 O224 1.242 . S
C236 O227 1.261 . S
C236 O228 1.252 . S
C237 C240 1.394 . S
C237 C242 1.370 . S
C237 C243 1.500 . S
C238 C241 1.383 . S
C238 C242 1.395 . S
C239 C240 1.396 . S
C239 C241 1.365 . S
C239 H256 0.929 1_556 S
C240 C237 1.394 . S
C240 C239 1.396 . S
C240 H257 0.930 . S
C241 C238 1.383 . S
C241 C239 1.365 . S
C241 H258 0.931 . S
C242 C237 1.370 . S
C242 C238 1.395 . S
C242 H259 0.930 . S
C243 Gd190 2.805 . S
C243 O225 1.263 . S
C243 O226 1.252 . S
C243 C237 1.500 . S
C244 H206 0.930 . S
C244 C220 1.417 . S
C244 C245 1.329 . S
C245 C215 1.437 . S
C245 H216 0.929 . S
C245 C244 1.329 . S
H246 C219 0.931 . S
C247 O229 1.265 . S
C247 O230 1.242 . S
C248 O233 1.261 . S
C248 O234 1.252 1_545 S
C249 C252 1.396 . S
C249 C254 1.367 1_565 S
C249 C255 1.501 . S
C250 C253 1.383 . S
C250 C254 1.395 . S
C251 C252 1.396 . S
C251 C253 1.365 1_565 S
C251 H260 0.929 . S
C252 C249 1.396 . S
C252 C251 1.396 . S
C252 H261 0.930 . S
C253 C250 1.383 . S
C253 C251 1.365 1_545 S
C253 H262 0.931 . S
C254 C249 1.367 1_545 S
C254 C250 1.395 . S
C254 H263 0.930 . S
C255 Gd191 2.805 . S
C255 O231 1.267 . S
C255 O232 1.252 . S
C255 C249 1.501 . S
H256 C239 0.929 1_554 S
H257 C240 0.930 . S
H258 C241 0.931 . S
H259 C242 0.930 . S
H260 C251 0.929 . S
H261 C252 0.930 . S
H262 C253 0.931 . S
H263 C254 0.930 . S
C264 C266 1.422 . S
C264 C268 1.415 . S
C264 N270 1.369 . S
C265 C266 1.421 . S
C265 C267 1.417 . S
C265 C277 1.422 . S
C266 C264 1.422 . S
C266 C265 1.421 . S
C266 N276 1.359 . S
C267 C265 1.417 . S
C267 C269 1.329 . S
C267 H286 0.930 . S
C268 C264 1.415 . S
C268 C269 1.437 . S
C268 C272 1.413 . S
C269 C267 1.329 . S
C269 C268 1.437 . S
C269 H291 0.929 . S
N270 C264 1.369 . S
N270 C271 1.338 . S
N270 Gd275 2.622 . S
C271 N270 1.338 . S
C271 C273 1.378 . S
C271 H283 0.929 . S
C272 C268 1.413 . S
C272 C273 1.348 . S
C272 H288 0.931 . S
C273 C271 1.378 . S
C273 C272 1.348 . S
C273 H289 0.930 . S
Gd274 N294 2.622 . S
Gd274 N301 2.570 . S
Gd274 O308 2.353 . S
Gd274 O309 2.468 . S
Gd274 O310 2.427 . S
Gd274 O312 2.388 . S
Gd274 O313 2.386 . S
Gd274 O317 2.307 . S
Gd274 C327 2.805 . S
Gd275 N270 2.622 . S
Gd275 N276 2.570 . S
Gd275 O307 2.386 . S
Gd275 O311 2.307 . S
Gd275 O314 2.353 . S
Gd275 O315 2.468 . S
Gd275 O316 2.427 . S
Gd275 O318 2.388 . S
Gd275 C339 2.805 . S
N276 C266 1.359 . S
N276 Gd275 2.570 . S
N276 C278 1.343 . S
C277 C265 1.422 . S
C277 C279 1.321 . S
C277 H285 0.931 . S
C278 N276 1.343 . S
C278 C279 1.390 . S
C278 H280 0.931 . S
C279 C277 1.321 . S
C279 C278 1.390 . S
C279 H281 0.930 . S
H280 C278 0.931 . S
H281 C279 0.930 . S
H282 C305 0.931 . S
H283 C271 0.929 . S
H284 C306 0.930 . S
H285 C277 0.931 . S
H286 C267 0.930 . S
H287 C296 0.929 . S
H288 C272 0.931 . S
H289 C273 0.930 . S
H290 C328 0.930 . S
H291 C269 0.929 . S
H292 C297 0.931 . S
H293 C298 0.930 . S
N294 Gd274 2.622 . S
N294 C295 1.369 . S
N294 C296 1.338 . S
C295 N294 1.369 . S
C295 C299 1.415 . S
C295 C302 1.422 . S
C296 H287 0.929 . S
C296 N294 1.338 . S
C296 C298 1.378 . S
C297 H292 0.931 . S
C297 C298 1.348 . S
C297 C299 1.413 . S
C298 H293 0.930 . S
C298 C296 1.378 . S
C298 C297 1.348 . S
C299 C295 1.415 . S
C299 C297 1.413 . S
C299 C329 1.437 . S
H300 C329 0.929 . S
N301 Gd274 2.570 . S
N301 C302 1.359 . S
N301 C305 1.343 . S
C302 C295 1.422 . S
C302 N301 1.359 . S
C302 C304 1.421 . S
C303 C304 1.422 . S
C303 C306 1.321 . S
C303 H330 0.931 . S
C304 C302 1.421 . S
C304 C303 1.422 . S
C304 C328 1.417 . S
C305 H282 0.931 . S
C305 N301 1.343 . S
C305 C306 1.390 . S
C306 H284 0.930 . S
C306 C303 1.321 . S
C306 C305 1.390 . S
O307 Gd275 2.386 . S
O307 C319 1.265 . S
O308 Gd274 2.353 . S
O308 C319 1.242 . S
O309 Gd274 2.468 . S
O309 C327 1.263 . S
O310 Gd274 2.427 . S
O310 C327 1.252 . S
O311 Gd275 2.307 . S
O311 C320 1.261 . S
O312 Gd274 2.388 . S
O312 C320 1.252 . S
O313 Gd274 2.386 . S
O313 C331 1.265 . S
O314 Gd275 2.353 . S
O314 C331 1.242 . S
O315 Gd275 2.468 . S
O315 C339 1.263 . S
O316 Gd275 2.427 . S
O316 C339 1.252 . S
O317 Gd274 2.307 . S
O317 C332 1.261 . S
O318 Gd275 2.388 . S
O318 C332 1.252 . S
C319 O307 1.265 . S
C319 O308 1.242 . S
C320 O311 1.261 . S
C320 O312 1.252 . S
C321 C324 1.394 . S
C321 C326 1.370 . S
C321 C327 1.500 . S
C322 C325 1.383 . S
C322 C326 1.395 . S
C323 C324 1.396 . S
C323 C325 1.365 . S
C323 H340 0.929 . S
C324 C321 1.394 . S
C324 C323 1.396 . S
C324 H341 0.930 . S
C325 C322 1.383 . S
C325 C323 1.365 . S
C325 H342 0.931 . S
C326 C321 1.370 . S
C326 C322 1.395 . S
C326 H343 0.930 . S
C327 Gd274 2.805 . S
C327 O309 1.263 . S
C327 O310 1.252 . S
C327 C321 1.500 . S
C328 H290 0.930 . S
C328 C304 1.417 . S
C328 C329 1.329 . S
C329 C299 1.437 . S
C329 H300 0.929 . S
C329 C328 1.329 . S
H330 C303 0.931 . S
C331 O313 1.265 . S
C331 O314 1.242 . S
C332 O317 1.261 . S
C332 O318 1.252 . S
C333 C336 1.394 . S
C333 C338 1.370 . S
C333 C339 1.500 . S
C334 C337 1.383 . S
C334 C338 1.395 . S
C335 C336 1.396 . S
C335 C337 1.365 . S
C335 H344 0.929 . S
C336 C333 1.394 . S
C336 C335 1.396 . S
C336 H345 0.930 . S
C337 C334 1.383 . S
C337 C335 1.365 . S
C337 H346 0.931 . S
C338 C333 1.370 . S
C338 C334 1.395 . S
C338 H347 0.930 . S
C339 Gd275 2.805 . S
C339 O315 1.263 . S
C339 O316 1.252 . S
C339 C333 1.500 . S
H340 C323 0.929 . S
H341 C324 0.930 . S
H342 C325 0.931 . S
H343 C326 0.930 . S
H344 C335 0.929 . S
H345 C336 0.930 . S
H346 C337 0.931 . S
H347 C338 0.930 . S
C348 C350 1.422 . S
C348 C352 1.415 . S
C348 N354 1.353 1_455 S
C349 C350 1.421 . S
C349 C351 1.417 . S
C349 C361 1.422 . S
C350 C348 1.422 . S
C350 C349 1.421 . S
C350 N360 1.359 . S
C351 C349 1.417 . S
C351 C353 1.329 . S
C351 H370 0.930 . S
C352 C348 1.415 . S
C352 C353 1.437 . S
C352 C356 1.413 . S
C353 C351 1.329 . S
C353 C352 1.437 . S
C353 H375 0.929 . S
N354 C348 1.353 1_655 S
N354 C355 1.342 . S
N354 Gd359 2.630 . S
C355 N354 1.342 . S
C355 C357 1.378 1_655 S
C355 H367 0.929 . S
C356 C352 1.413 . S
C356 C357 1.348 . S
C356 H372 0.931 . S
C357 C355 1.378 1_455 S
C357 C356 1.348 . S
C357 H373 0.930 . S
Gd358 N378 2.622 . S
Gd358 N385 2.570 . S
Gd358 O392 2.353 . S
Gd358 O393 2.468 . S
Gd358 O394 2.427 . S
Gd358 O396 2.388 . S
Gd358 O397 2.386 1_455 S
Gd358 O401 2.307 . S
Gd358 C411 2.805 . S
Gd359 N354 2.630 . S
Gd359 N360 2.570 1_655 S
Gd359 O391 2.386 1_655 S
Gd359 O395 2.294 1_655 S
Gd359 O398 2.353 . S
Gd359 O399 2.468 . S
Gd359 O400 2.427 . S
Gd359 O402 2.388 . S
Gd359 C423 2.805 . S
N360 C350 1.359 . S
N360 Gd359 2.570 1_455 S
N360 C362 1.343 . S
C361 C349 1.422 . S
C361 C363 1.321 . S
C361 H369 0.931 . S
C362 N360 1.343 . S
C362 C363 1.390 . S
C362 H364 0.939 . S
C363 C361 1.321 . S
C363 C362 1.390 . S
C363 H365 0.930 . S
H364 C362 0.939 . S
H365 C363 0.930 . S
H366 C389 0.931 . S
H367 C355 0.929 . S
H368 C390 0.930 . S
H369 C361 0.931 . S
H370 C351 0.930 . S
H371 C380 0.929 . S
H372 C356 0.931 . S
H373 C357 0.930 . S
H374 C412 0.930 . S
H375 C353 0.929 . S
H376 C381 0.931 . S
H377 C382 0.930 . S
N378 Gd358 2.622 . S
N378 C379 1.369 . S
N378 C380 1.338 . S
C379 N378 1.369 . S
C379 C383 1.415 1_455 S
C379 C386 1.422 . S
C380 H371 0.929 . S
C380 N378 1.338 . S
C380 C382 1.378 . S
C381 H376 0.931 . S
C381 C382 1.348 1_655 S
C381 C383 1.413 . S
C382 H377 0.930 . S
C382 C380 1.378 . S
C382 C381 1.348 1_455 S
C383 C379 1.415 1_655 S
C383 C381 1.413 . S
C383 C413 1.437 . S
H384 C413 0.929 . S
N385 Gd358 2.570 . S
N385 C386 1.359 . S
N385 C389 1.343 . S
C386 C379 1.422 . S
C386 N385 1.359 . S
C386 C388 1.421 1_455 S
C387 C388 1.422 . S
C387 C390 1.321 . S
C387 H414 0.931 . S
C388 C386 1.421 1_655 S
C388 C387 1.422 . S
C388 C412 1.417 . S
C389 H366 0.931 . S
C389 N385 1.343 . S
C389 C390 1.390 1_455 S
C390 H368 0.930 . S
C390 C387 1.321 . S
C390 C389 1.390 1_655 S
O391 Gd359 2.386 1_455 S
O391 C403 1.265 . S
O392 Gd358 2.353 . S
O392 C403 1.242 . S
O393 Gd358 2.468 . S
O393 C411 1.263 . S
O394 Gd358 2.427 . S
O394 C411 1.252 . S
O395 Gd359 2.294 1_455 S
O395 C404 1.273 . S
O396 Gd358 2.388 . S
O396 C404 1.252 . S
O397 Gd358 2.386 1_655 S
O397 C415 1.265 . S
O398 Gd359 2.353 . S
O398 C415 1.242 . S
O399 Gd359 2.468 . S
O399 C423 1.263 . S
O400 Gd359 2.427 . S
O400 C423 1.252 . S
O401 Gd358 2.307 . S
O401 C416 1.261 . S
O402 Gd359 2.388 . S
O402 C416 1.252 1_655 S
C403 O391 1.265 . S
C403 O392 1.242 . S
C404 O395 1.273 . S
C404 O396 1.252 . S
C405 C408 1.394 . S
C405 C410 1.370 . S
C405 C411 1.500 . S
C406 C409 1.383 . S
C406 C410 1.395 . S
C407 C408 1.396 . S
C407 C409 1.365 . S
C407 H424 0.929 . S
C408 C405 1.394 . S
C408 C407 1.396 . S
C408 H425 0.930 . S
C409 C406 1.383 . S
C409 C407 1.365 . S
C409 H426 0.931 . S
C410 C405 1.370 . S
C410 C406 1.395 . S
C410 H427 0.930 . S
C411 Gd358 2.805 . S
C411 O393 1.263 . S
C411 O394 1.252 . S
C411 C405 1.500 . S
C412 H374 0.930 . S
C412 C388 1.417 . S
C412 C413 1.329 . S
C413 C383 1.437 . S
C413 H384 0.929 . S
C413 C412 1.329 . S
H414 C387 0.931 . S
C415 O397 1.265 . S
C415 O398 1.242 . S
C416 O401 1.261 . S
C416 O402 1.252 1_455 S
C417 C420 1.394 . S
C417 C422 1.370 . S
C417 C423 1.500 . S
C418 C421 1.383 . S
C418 C422 1.395 . S
C419 C420 1.396 . S
C419 C421 1.365 . S
C419 H428 0.929 . S
C420 C417 1.394 . S
C420 C419 1.396 . S
C420 H429 0.930 . S
C421 C418 1.383 . S
C421 C419 1.365 . S
C421 H430 0.931 . S
C422 C417 1.370 . S
C422 C418 1.395 . S
C422 H431 0.930 . S
C423 Gd359 2.805 . S
C423 O399 1.263 . S
C423 O400 1.252 . S
C423 C417 1.500 . S
H424 C407 0.929 . S
H425 C408 0.930 . S
H426 C409 0.931 . S
H427 C410 0.930 . S
H428 C419 0.929 . S
H429 C420 0.930 . S
H430 C421 0.931 . S
H431 C422 0.930 . S
H432 C450 0.951 . S
H433 C452 0.951 . S
H434 C454 0.950 . S
H435 C455 0.950 . S
H436 C457 0.950 . S
H437 C460 0.950 . S
H438 C461 0.950 . S
H439 C463 0.950 . S
H440 C464 0.950 . S
H441 C465 0.951 . S
H442 C467 0.951 . S
H443 C469 0.950 . S
H444 C470 0.950 . S
H445 C472 0.950 . S
H446 C475 0.950 . S
H447 C476 0.950 . S
H448 C478 0.950 . S
H449 C479 0.950 . S
C450 H432 0.951 . S
C450 C451 1.366 . S
C450 C452 1.388 . S
C451 C450 1.366 . S
C451 C455 1.385 . S
C452 H433 0.951 . S
C452 C450 1.388 . S
C452 C453 1.366 . S
C453 C452 1.366 . S
C453 C454 1.414 . S
C453 C456 1.499 . S
C454 H434 0.950 . S
C454 C453 1.414 . S
C454 C455 1.374 . S
C455 H435 0.950 . S
C455 C451 1.385 . S
C455 C454 1.374 . S
C456 C453 1.499 . S
C456 C457 1.373 . S
C456 C458 1.389 . S
C457 H436 0.950 . S
C457 C456 1.373 . S
C457 C473 1.377 . S
C458 C456 1.389 . S
C458 C459 1.524 . S
C458 C472 1.377 . S
C459 C458 1.524 . S
C459 C460 1.397 . S
C459 C464 1.363 . S
C460 H437 0.950 . S
C460 C459 1.397 . S
C460 C461 1.334 . S
C461 H438 0.950 . S
C461 C460 1.334 . S
C461 C462 1.287 . S
C462 C461 1.287 . S
C462 C463 1.524 . S
C462 H481 0.913 . S
C463 H439 0.950 . S
C463 C462 1.524 . S
C463 C464 1.415 . S
C464 H440 0.950 . S
C464 C459 1.363 . S
C464 C463 1.415 . S
C465 H441 0.951 . S
C465 C466 1.366 . S
C465 C467 1.388 . S
C466 C465 1.366 . S
C466 C470 1.385 . S
C467 H442 0.951 . S
C467 C465 1.388 . S
C467 C468 1.366 . S
C468 C467 1.366 . S
C468 C469 1.414 . S
C468 C471 1.499 . S
C469 H443 0.950 . S
C469 C468 1.414 . S
C469 C470 1.374 . S
C470 H444 0.950 . S
C470 C466 1.385 . S
C470 C469 1.374 . S
C471 C468 1.499 . S
C471 C472 1.373 . S
C471 C473 1.389 . S
C472 H445 0.950 . S
C472 C458 1.377 . S
C472 C471 1.373 . S
C473 C457 1.377 . S
C473 C471 1.389 . S
C473 C474 1.524 1_545 S
C474 C473 1.524 1_565 S
C474 C475 1.397 . S
C474 C479 1.363 . S
C475 H446 0.950 . S
C475 C474 1.397 . S
C475 C476 1.334 . S
C476 H447 0.950 . S
C476 C475 1.334 . S
C476 C477 1.287 . S
C477 C476 1.287 . S
C477 C478 1.524 . S
C477 H480 0.999 . S
C478 H448 0.950 . S
C478 C477 1.524 . S
C478 C479 1.415 . S
C479 H449 0.950 . S
C479 C474 1.363 . S
C479 C478 1.415 . S
H480 C477 0.999 . S
H481 C462 0.913 . S
H482 C500 0.951 . S
H483 C502 0.951 . S
H484 C504 0.950 . S
H485 C505 0.950 . S
H486 C507 0.950 . S
H487 C510 0.950 . S
H488 C511 0.950 . S
H489 C513 0.950 . S
H490 C514 0.950 . S
H491 C515 0.951 . S
H492 C517 0.951 . S
H493 C519 0.950 . S
H494 C520 0.950 . S
H495 C522 0.950 . S
H496 C525 0.950 . S
H497 C526 0.950 . S
H498 C528 0.950 . S
H499 C529 0.950 . S
C500 H482 0.951 . S
C500 C501 1.366 . S
C500 C502 1.388 . S
C501 C500 1.366 . S
C501 C505 1.385 . S
C502 H483 0.951 . S
C502 C500 1.388 . S
C502 C503 1.366 . S
C503 C502 1.366 . S
C503 C504 1.414 . S
C503 C506 1.499 . S
C504 H484 0.950 . S
C504 C503 1.414 . S
C504 C505 1.374 . S
C505 H485 0.950 . S
C505 C501 1.385 . S
C505 C504 1.374 . S
C506 C503 1.499 . S
C506 C507 1.373 . S
C506 C508 1.389 . S
C507 H486 0.950 . S
C507 C506 1.373 . S
C507 C523 1.377 . S
C508 C506 1.389 . S
C508 C509 1.524 . S
C508 C522 1.377 . S
C509 C508 1.524 . S
C509 C510 1.397 . S
C509 C514 1.363 . S
C510 H487 0.950 . S
C510 C509 1.397 . S
C510 C511 1.334 . S
C511 H488 0.950 . S
C511 C510 1.334 . S
C511 C512 1.287 . S
C512 C511 1.287 . S
C512 C513 1.524 . S
C512 H531 0.913 . S
C513 H489 0.950 . S
C513 C512 1.524 . S
C513 C514 1.415 . S
C514 H490 0.950 . S
C514 C509 1.363 . S
C514 C513 1.415 . S
C515 H491 0.951 . S
C515 C516 1.366 . S
C515 C517 1.388 . S
C516 C515 1.366 . S
C516 C520 1.385 . S
C517 H492 0.951 . S
C517 C515 1.388 . S
C517 C518 1.366 . S
C518 C517 1.366 . S
C518 C519 1.414 . S
C518 C521 1.499 . S
C519 H493 0.950 . S
C519 C518 1.414 . S
C519 C520 1.374 . S
C520 H494 0.950 . S
C520 C516 1.385 . S
C520 C519 1.374 . S
C521 C518 1.499 . S
C521 C522 1.373 . S
C521 C523 1.389 . S
C522 H495 0.950 . S
C522 C508 1.377 . S
C522 C521 1.373 . S
C523 C507 1.377 . S
C523 C521 1.389 . S
C523 C524 1.524 . S
C524 C523 1.524 . S
C524 C525 1.397 . S
C524 C529 1.363 . S
C525 H496 0.950 . S
C525 C524 1.397 . S
C525 C526 1.334 . S
C526 H497 0.950 . S
C526 C525 1.334 . S
C526 C527 1.287 . S
C527 C526 1.287 . S
C527 C528 1.524 . S
C527 H530 0.999 . S
C528 H498 0.950 . S
C528 C527 1.524 . S
C528 C529 1.415 . S
C529 H499 0.950 . S
C529 C524 1.363 . S
C529 C528 1.415 . S
H530 C527 0.999 . S
H531 C512 0.913 . S
H532 C550 0.951 . S
H533 C552 0.951 . S
H534 C554 0.950 . S
H535 C555 0.950 . S
H536 C557 0.950 . S
H537 C560 0.950 . S
H538 C561 0.950 . S
H539 C563 0.950 . S
H540 C564 0.950 . S
H541 C565 0.951 . S
H542 C567 0.951 . S
H543 C569 0.950 . S
H544 C570 0.950 . S
H545 C572 0.950 . S
H546 C575 0.950 . S
H547 C576 0.950 . S
H548 C578 0.950 . S
H549 C579 0.950 . S
C550 H532 0.951 . S
C550 C551 1.366 . S
C550 C552 1.388 . S
C551 C550 1.366 . S
C551 C555 1.385 . S
C552 H533 0.951 . S
C552 C550 1.388 . S
C552 C553 1.366 . S
C553 C552 1.366 . S
C553 C554 1.414 . S
C553 C556 1.499 . S
C554 H534 0.950 . S
C554 C553 1.414 . S
C554 C555 1.374 . S
C555 H535 0.950 . S
C555 C551 1.385 . S
C555 C554 1.374 . S
C556 C553 1.499 . S
C556 C557 1.373 . S
C556 C558 1.389 . S
C557 H536 0.950 . S
C557 C556 1.373 . S
C557 C573 1.377 . S
C558 C556 1.389 . S
C558 C559 1.524 . S
C558 C572 1.377 . S
C559 C558 1.524 . S
C559 C560 1.397 . S
C559 C564 1.363 . S
C560 H537 0.950 . S
C560 C559 1.397 . S
C560 C561 1.334 . S
C561 H538 0.950 . S
C561 C560 1.334 . S
C561 C562 1.287 . S
C562 C561 1.287 . S
C562 C563 1.524 . S
C562 H581 0.913 . S
C563 H539 0.950 . S
C563 C562 1.524 . S
C563 C564 1.415 . S
C564 H540 0.950 . S
C564 C559 1.363 . S
C564 C563 1.415 . S
C565 H541 0.951 . S
C565 C566 1.366 . S
C565 C567 1.388 . S
C566 C565 1.366 . S
C566 C570 1.385 . S
C567 H542 0.951 . S
C567 C565 1.388 . S
C567 C568 1.366 . S
C568 C567 1.366 . S
C568 C569 1.414 . S
C568 C571 1.499 . S
C569 H543 0.950 . S
C569 C568 1.414 . S
C569 C570 1.374 . S
C570 H544 0.950 . S
C570 C566 1.385 . S
C570 C569 1.374 . S
C571 C568 1.499 . S
C571 C572 1.373 . S
C571 C573 1.389 . S
C572 H545 0.950 . S
C572 C558 1.377 . S
C572 C571 1.373 . S
C573 C557 1.377 . S
C573 C571 1.389 . S
C573 C574 1.524 . S
C574 C573 1.524 . S
C574 C575 1.397 . S
C574 C579 1.363 . S
C575 H546 0.950 . S
C575 C574 1.397 . S
C575 C576 1.334 . S
C576 H547 0.950 . S
C576 C575 1.334 . S
C576 C577 1.287 . S
C577 C576 1.287 . S
C577 C578 1.524 . S
C577 H580 0.999 . S
C578 H548 0.950 . S
C578 C577 1.524 . S
C578 C579 1.415 . S
C579 H549 0.950 . S
C579 C574 1.363 . S
C579 C578 1.415 . S
H580 C577 0.999 . S
H581 C562 0.913 . S
H582 C600 0.951 . S
H583 C602 0.951 . S
H584 C604 0.950 . S
H585 C605 0.950 . S
H586 C607 0.950 . S
H587 C610 0.950 1_455 S
H588 C611 0.950 . S
H589 C613 0.950 . S
H590 C614 0.950 . S
H591 C615 0.951 . S
H592 C617 0.951 . S
H593 C619 0.950 1_655 S
H594 C620 0.940 1_655 S
H595 C622 0.950 1_655 S
H596 C625 0.950 . S
H597 C626 0.950 . S
H598 C628 0.950 . S
H599 C629 0.950 . S
C600 H582 0.951 . S
C600 C601 1.366 . S
C600 C602 1.388 . S
C601 C600 1.366 . S
C601 C605 1.385 . S
C602 H583 0.951 . S
C602 C600 1.388 . S
C602 C603 1.366 . S
C603 C602 1.366 . S
C603 C604 1.414 . S
C603 C606 1.499 . S
C604 H584 0.950 . S
C604 C603 1.414 . S
C604 C605 1.374 . S
C605 H585 0.950 . S
C605 C601 1.385 . S
C605 C604 1.374 . S
C606 C603 1.499 . S
C606 C607 1.373 . S
C606 C608 1.389 . S
C607 H586 0.950 . S
C607 C606 1.373 . S
C607 C623 1.377 . S
C608 C606 1.389 . S
C608 C609 1.524 1_455 S
C608 C622 1.377 . S
C609 C608 1.524 1_655 S
C609 C610 1.397 . S
C609 C614 1.363 . S
C610 H587 0.950 1_655 S
C610 C609 1.397 . S
C610 C611 1.334 . S
C611 H588 0.950 . S
C611 C610 1.334 . S
C611 C612 1.287 . S
C612 C611 1.287 . S
C612 C613 1.524 . S
C612 H631 0.913 . S
C613 H589 0.950 . S
C613 C612 1.524 . S
C613 C614 1.415 . S
C614 H590 0.950 . S
C614 C609 1.363 . S
C614 C613 1.415 . S
C615 H591 0.951 . S
C615 C616 1.366 . S
C615 C617 1.388 . S
C616 C615 1.366 . S
C616 C620 1.393 . S
C617 H592 0.951 . S
C617 C615 1.388 . S
C617 C618 1.366 . S
C618 C617 1.366 . S
C618 C619 1.414 . S
C618 C621 1.499 . S
C619 H593 0.950 1_455 S
C619 C618 1.414 . S
C619 C620 1.376 . S
C620 H594 0.940 1_455 S
C620 C616 1.393 . S
C620 C619 1.376 . S
C621 C618 1.499 . S
C621 C622 1.373 . S
C621 C623 1.389 . S
C622 H595 0.950 1_455 S
C622 C608 1.377 . S
C622 C621 1.373 . S
C623 C607 1.377 . S
C623 C621 1.389 . S
C623 C624 1.524 . S
C624 C623 1.524 . S
C624 C625 1.397 . S
C624 C629 1.363 . S
C625 H596 0.950 . S
C625 C624 1.397 . S
C625 C626 1.334 . S
C626 H597 0.950 . S
C626 C625 1.334 . S
C626 C627 1.287 . S
C627 C626 1.287 . S
C627 C628 1.524 . S
C627 H630 0.999 . S
C628 H598 0.950 . S
C628 C627 1.524 . S
C628 C629 1.415 . S
C629 H599 0.950 . S
C629 C624 1.363 . S
C629 C628 1.415 . S
H630 C627 0.999 . S
H631 C612 0.913 . S
H632 C650 0.951 . S
H633 C652 0.951 . S
H634 C654 0.950 1_545 S
H635 C655 0.949 1_545 S
H636 C657 0.950 . S
H637 C660 0.950 . S
H638 C661 0.950 . S
H639 C663 0.950 . S
H640 C664 0.950 . S
H641 C665 0.951 . S
H642 C667 0.951 . S
H643 C669 0.950 . S
H644 C670 0.950 . S
H645 C672 0.950 . S
H646 C675 0.950 . S
H647 C676 0.950 . S
H648 C678 0.950 1_545 S
H649 C679 0.958 . S
C650 H632 0.951 . S
C650 C651 1.366 . S
C650 C652 1.388 . S
C651 C650 1.366 . S
C651 C655 1.385 . S
C652 H633 0.951 . S
C652 C650 1.388 . S
C652 C653 1.366 . S
C653 C652 1.366 . S
C653 C654 1.414 . S
C653 C656 1.499 . S
C654 H634 0.950 1_565 S
C654 C653 1.414 . S
C654 C655 1.374 . S
C655 H635 0.949 1_565 S
C655 C651 1.385 . S
C655 C654 1.374 . S
C656 C653 1.499 . S
C656 C657 1.373 1_554 S
C656 C658 1.389 . S
C657 H636 0.950 . S
C657 C656 1.373 1_556 S
C657 C673 1.377 . S
C658 C656 1.389 . S
C658 C659 1.524 . S
C658 C672 1.377 1_554 S
C659 C658 1.524 . S
C659 C660 1.397 1_565 S
C659 C664 1.363 . S
C660 H637 0.950 . S
C660 C659 1.397 1_545 S
C660 C661 1.334 . S
C661 H638 0.950 . S
C661 C660 1.334 . S
C661 C662 1.287 1_545 S
C662 C661 1.287 1_565 S
C662 C663 1.524 . S
C662 H681 0.913 . S
C663 H639 0.950 . S
C663 C662 1.524 . S
C663 C664 1.415 . S
C664 H640 0.950 . S
C664 C659 1.363 . S
C664 C663 1.415 . S
C665 H641 0.951 . S
C665 C666 1.367 . S
C665 C667 1.388 . S
C666 C665 1.367 . S
C666 C670 1.383 1_545 S
C667 H642 0.951 . S
C667 C665 1.388 . S
C667 C668 1.366 1_545 S
C668 C667 1.366 1_565 S
C668 C669 1.414 . S
C668 C671 1.499 . S
C669 H643 0.950 . S
C669 C668 1.414 . S
C669 C670 1.374 . S
C670 H644 0.950 . S
C670 C666 1.383 1_565 S
C670 C669 1.374 . S
C671 C668 1.499 . S
C671 C672 1.373 . S
C671 C673 1.389 . S
C672 H645 0.950 . S
C672 C658 1.377 1_556 S
C672 C671 1.373 . S
C673 C657 1.377 . S
C673 C671 1.389 . S
C673 C674 1.524 . S
C674 C673 1.524 . S
C674 C675 1.397 . S
C674 C679 1.356 1_565 S
C675 H646 0.950 . S
C675 C674 1.397 . S
C675 C676 1.334 . S
C676 H647 0.950 . S
C676 C675 1.334 . S
C676 C677 1.287 . S
C677 C676 1.287 . S
C677 C678 1.524 . S
C677 H680 0.999 . S
C678 H648 0.950 1_565 S
C678 C677 1.524 . S
C678 C679 1.414 1_565 S
C679 H649 0.958 . S
C679 C674 1.356 1_545 S
C679 C678 1.414 1_545 S
H680 C677 0.999 . S
H681 C662 0.913 . S
H682 C700 0.951 . S
H683 C702 0.951 . S
H684 C704 0.950 . S
H685 C705 0.950 . S
H686 C707 0.950 1_554 S
H687 C710 0.950 . S
H688 C711 0.950 . S
H689 C713 0.950 . S
H690 C714 0.950 . S
H691 C715 0.951 . S
H692 C717 0.951 . S
H693 C719 0.950 . S
H694 C720 0.950 . S
H695 C722 0.950 . S
H696 C725 0.950 . S
H697 C726 0.950 . S
H698 C728 0.950 . S
H699 C729 0.950 1_554 S
C700 H682 0.951 . S
C700 C701 1.366 . S
C700 C702 1.388 . S
C701 C700 1.366 . S
C701 C705 1.385 . S
C702 H683 0.951 . S
C702 C700 1.388 . S
C702 C703 1.366 . S
C703 C702 1.366 . S
C703 C704 1.414 . S
C703 C706 1.499 . S
C704 H684 0.950 . S
C704 C703 1.414 . S
C704 C705 1.374 . S
C705 H685 0.950 . S
C705 C701 1.385 . S
C705 C704 1.374 . S
C706 C703 1.499 . S
C706 C707 1.373 1_554 S
C706 C708 1.389 1_554 S
C707 H686 0.950 1_556 S
C707 C706 1.373 1_556 S
C707 C723 1.377 . S
C708 C706 1.389 1_556 S
C708 C709 1.524 . S
C708 C722 1.377 . S
C709 C708 1.524 . S
C709 C710 1.397 1_556 S
C709 C714 1.363 . S
C710 H687 0.950 . S
C710 C709 1.397 1_554 S
C710 C711 1.334 . S
C711 H688 0.950 . S
C711 C710 1.334 . S
C711 C712 1.287 . S
C712 C711 1.287 . S
C712 C713 1.524 1_554 S
C712 H731 0.913 . S
C713 H689 0.950 . S
C713 C712 1.524 1_556 S
C713 C714 1.415 . S
C714 H690 0.950 . S
C714 C709 1.363 . S
C714 C713 1.415 . S
C715 H691 0.951 . S
C715 C716 1.366 . S
C715 C717 1.388 . S
C716 C715 1.366 . S
C716 C720 1.385 . S
C717 H692 0.951 . S
C717 C715 1.388 . S
C717 C718 1.366 . S
C718 C717 1.366 . S
C718 C719 1.414 . S
C718 C721 1.499 . S
C719 H693 0.950 . S
C719 C718 1.414 . S
C719 C720 1.374 . S
C720 H694 0.950 . S
C720 C716 1.385 . S
C720 C719 1.374 . S
C721 C718 1.499 . S
C721 C722 1.373 . S
C721 C723 1.389 . S
C722 H695 0.950 . S
C722 C708 1.377 . S
C722 C721 1.373 . S
C723 C707 1.377 . S
C723 C721 1.389 . S
C723 C724 1.524 . S
C724 C723 1.524 . S
C724 C725 1.397 . S
C724 C729 1.363 . S
C725 H696 0.950 . S
C725 C724 1.397 . S
C725 C726 1.334 . S
C726 H697 0.950 . S
C726 C725 1.334 . S
C726 C727 1.287 . S
C727 C726 1.287 . S
C727 C728 1.524 . S
C727 H730 0.999 . S
C728 H698 0.950 . S
C728 C727 1.524 . S
C728 C729 1.415 . S
C729 H699 0.950 1_556 S
C729 C724 1.363 . S
C729 C728 1.415 . S
H730 C727 0.999 . S
H731 C712 0.913 . S
H732 C750 0.951 . S
H733 C752 0.951 . S
H734 C754 0.950 . S
H735 C755 0.950 . S
H736 C757 0.950 . S
H737 C760 0.950 . S
H738 C761 0.950 . S
H739 C763 0.950 . S
H740 C764 0.950 . S
H741 C765 0.951 . S
H742 C767 0.951 . S
H743 C769 0.950 . S
H744 C770 0.950 . S
H745 C772 0.950 . S
H746 C775 0.950 . S
H747 C776 0.950 . S
H748 C778 0.950 . S
H749 C779 0.950 . S
C750 H732 0.951 . S
C750 C751 1.366 . S
C750 C752 1.388 . S
C751 C750 1.366 . S
C751 C755 1.385 . S
C752 H733 0.951 . S
C752 C750 1.388 . S
C752 C753 1.366 . S
C753 C752 1.366 . S
C753 C754 1.414 . S
C753 C756 1.499 . S
C754 H734 0.950 . S
C754 C753 1.414 . S
C754 C755 1.374 . S
C755 H735 0.950 . S
C755 C751 1.385 . S
C755 C754 1.374 . S
C756 C753 1.499 . S
C756 C757 1.373 1_554 S
C756 C758 1.389 . S
C757 H736 0.950 . S
C757 C756 1.373 1_556 S
C757 C773 1.377 . S
C758 C756 1.389 . S
C758 C759 1.524 . S
C758 C772 1.377 1_554 S
C759 C758 1.524 . S
C759 C760 1.397 . S
C759 C764 1.363 . S
C760 H737 0.950 . S
C760 C759 1.397 . S
C760 C761 1.334 . S
C761 H738 0.950 . S
C761 C760 1.334 . S
C761 C762 1.287 . S
C762 C761 1.287 . S
C762 C763 1.524 . S
C762 H781 0.913 . S
C763 H739 0.950 . S
C763 C762 1.524 . S
C763 C764 1.415 . S
C764 H740 0.950 . S
C764 C759 1.363 . S
C764 C763 1.415 . S
C765 H741 0.951 . S
C765 C766 1.366 . S
C765 C767 1.388 . S
C766 C765 1.366 . S
C766 C770 1.385 . S
C767 H742 0.951 . S
C767 C765 1.388 . S
C767 C768 1.366 . S
C768 C767 1.366 . S
C768 C769 1.414 . S
C768 C771 1.499 . S
C769 H743 0.950 . S
C769 C768 1.414 . S
C769 C770 1.374 . S
C770 H744 0.950 . S
C770 C766 1.385 . S
C770 C769 1.374 . S
C771 C768 1.499 . S
C771 C772 1.373 . S
C771 C773 1.389 . S
C772 H745 0.950 . S
C772 C758 1.377 1_556 S
C772 C771 1.373 . S
C773 C757 1.377 . S
C773 C771 1.389 . S
C773 C774 1.524 . S
C774 C773 1.524 . S
C774 C775 1.397 . S
C774 C779 1.363 . S
C775 H746 0.950 . S
C775 C774 1.397 . S
C775 C776 1.334 . S
C776 H747 0.950 . S
C776 C775 1.334 . S
C776 C777 1.287 . S
C777 C776 1.287 . S
C777 C778 1.524 . S
C777 H780 0.999 . S
C778 H748 0.950 . S
C778 C777 1.524 . S
C778 C779 1.415 . S
C779 H749 0.950 . S
C779 C774 1.363 . S
C779 C778 1.415 . S
H780 C777 0.999 . S
H781 C762 0.913 . S
H782 C800 0.951 . S
H783 C802 0.951 . S
H784 C804 0.950 1_556 S
H785 C805 0.950 . S
H786 C807 0.950 . S
H787 C810 0.950 . S
H788 C811 0.950 . S
H789 C813 0.950 . S
H790 C814 0.950 . S
H791 C815 0.951 . S
H792 C817 0.951 . S
H793 C819 0.954 . S
H794 C820 0.950 . S
H795 C822 0.950 . S
H796 C825 0.950 . S
H797 C826 0.950 . S
H798 C828 0.950 . S
H799 C829 0.950 . S
C800 H782 0.951 . S
C800 C801 1.366 . S
C800 C802 1.388 . S
C801 C800 1.366 . S
C801 C805 1.385 . S
C802 H783 0.951 . S
C802 C800 1.388 . S
C802 C803 1.366 . S
C803 C802 1.366 . S
C803 C804 1.414 . S
C803 C806 1.492 1_554 S
C804 H784 0.950 1_554 S
C804 C803 1.414 . S
C804 C805 1.374 . S
C805 H785 0.950 . S
C805 C801 1.385 . S
C805 C804 1.374 . S
C806 C803 1.492 1_556 S
C806 C807 1.379 . S
C806 C808 1.390 1_655 S
C807 H786 0.950 . S
C807 C806 1.379 . S
C807 C823 1.377 . S
C808 C806 1.390 1_455 S
C808 C809 1.524 1_556 S
C808 C822 1.377 . S
C809 C808 1.524 1_554 S
C809 C810 1.397 . S
C809 C814 1.363 . S
C810 H787 0.950 . S
C810 C809 1.397 . S
C810 C811 1.334 . S
C811 H788 0.950 . S
C811 C810 1.334 . S
C811 C812 1.287 . S
C812 C811 1.287 . S
C812 C813 1.524 . S
C812 H831 0.913 . S
C813 H789 0.950 . S
C813 C812 1.524 . S
C813 C814 1.415 . S
C814 H790 0.950 . S
C814 C809 1.363 . S
C814 C813 1.415 . S
C815 H791 0.951 . S
C815 C816 1.366 . S
C815 C817 1.388 . S
C816 C815 1.366 . S
C816 C820 1.385 1_655 S
C817 H792 0.951 . S
C817 C815 1.388 . S
C817 C818 1.366 . S
C818 C817 1.366 . S
C818 C819 1.408 1_655 S
C818 C821 1.499 . S
C819 H793 0.954 . S
C819 C818 1.408 1_455 S
C819 C820 1.376 . S
C820 H794 0.950 . S
C820 C816 1.385 1_455 S
C820 C819 1.376 . S
C821 C818 1.499 . S
C821 C822 1.373 1_655 S
C821 C823 1.389 . S
C822 H795 0.950 . S
C822 C808 1.377 . S
C822 C821 1.373 1_455 S
C823 C807 1.377 . S
C823 C821 1.389 . S
C823 C824 1.524 . S
C824 C823 1.524 . S
C824 C825 1.397 . S
C824 C829 1.363 . S
C825 H796 0.950 . S
C825 C824 1.397 . S
C825 C826 1.334 . S
C826 H797 0.950 . S
C826 C825 1.334 . S
C826 C827 1.287 . S
C827 C826 1.287 . S
C827 C828 1.524 . S
C827 H830 0.999 . S
C828 H798 0.950 . S
C828 C827 1.524 . S
C828 C829 1.415 . S
C829 H799 0.950 . S
C829 C824 1.363 . S
C829 C828 1.415 . S
H830 C827 0.999 . S
H831 C812 0.913 . S
H832 C850 0.951 . S
H833 C852 0.951 . S
H834 C854 0.950 . S
H835 C855 0.950 . S
H836 C857 0.950 . S
H837 C860 0.950 . S
H838 C861 0.950 . S
H839 C863 0.950 . S
H840 C864 0.950 . S
H841 C865 0.951 . S
H842 C867 0.951 . S
H843 C869 0.950 1_655 S
H844 C870 0.948 1_655 S
H845 C872 0.950 . S
H846 C875 0.950 . S
H847 C876 0.950 . S
H848 C878 0.950 1_455 S
H849 C879 0.950 . S
C850 H832 0.951 . S
C850 C851 1.366 . S
C850 C852 1.388 . S
C851 C850 1.366 . S
C851 C855 1.385 . S
C852 H833 0.951 . S
C852 C850 1.388 . S
C852 C853 1.366 . S
C853 C852 1.366 . S
C853 C854 1.414 . S
C853 C856 1.499 . S
C854 H834 0.950 . S
C854 C853 1.414 . S
C854 C855 1.374 . S
C855 H835 0.950 . S
C855 C851 1.385 . S
C855 C854 1.374 . S
C856 C853 1.499 . S
C856 C857 1.373 . S
C856 C858 1.389 . S
C857 H836 0.950 . S
C857 C856 1.373 . S
C857 C873 1.377 . S
C858 C856 1.389 . S
C858 C859 1.524 . S
C858 C872 1.377 . S
C859 C858 1.524 . S
C859 C860 1.397 . S
C859 C864 1.363 . S
C860 H837 0.950 . S
C860 C859 1.397 . S
C860 C861 1.334 . S
C861 H838 0.950 . S
C861 C860 1.334 . S
C861 C862 1.287 . S
C862 C861 1.287 . S
C862 C863 1.524 . S
C862 H881 0.913 . S
C863 H839 0.950 . S
C863 C862 1.524 . S
C863 C864 1.415 . S
C864 H840 0.950 . S
C864 C859 1.363 . S
C864 C863 1.415 . S
C865 H841 0.951 . S
C865 C866 1.366 . S
C865 C867 1.388 . S
C866 C865 1.366 . S
C866 C870 1.386 . S
C867 H842 0.951 . S
C867 C865 1.388 . S
C867 C868 1.366 . S
C868 C867 1.366 . S
C868 C869 1.414 . S
C868 C871 1.499 . S
C869 H843 0.950 1_455 S
C869 C868 1.414 . S
C869 C870 1.374 . S
C870 H844 0.948 1_455 S
C870 C866 1.386 . S
C870 C869 1.374 . S
C871 C868 1.499 . S
C871 C872 1.373 . S
C871 C873 1.389 . S
C872 H845 0.950 . S
C872 C858 1.377 . S
C872 C871 1.373 . S
C873 C857 1.377 . S
C873 C871 1.389 . S
C873 C874 1.524 . S
C874 C873 1.524 . S
C874 C875 1.397 1_455 S
C874 C879 1.363 . S
C875 H846 0.950 . S
C875 C874 1.397 1_655 S
C875 C876 1.334 . S
C876 H847 0.950 . S
C876 C875 1.334 . S
C876 C877 1.287 . S
C877 C876 1.287 . S
C877 C878 1.524 . S
C877 H880 0.999 . S
C878 H848 0.950 1_655 S
C878 C877 1.524 . S
C878 C879 1.415 1_655 S
C879 H849 0.950 . S
C879 C874 1.363 . S
C879 C878 1.415 1_455 S
H880 C877 0.999 . S
H881 C862 0.913 . S
H882 C900 0.951 . S
H883 C902 0.951 . S
H884 C904 0.950 . S
H885 C905 0.950 . S
H886 C907 0.950 . S
H887 C910 0.950 . S
H888 C911 0.950 . S
H889 C913 0.950 . S
H890 C914 0.950 1_545 S
H891 C915 0.951 . S
H892 C917 0.951 . S
H893 C919 0.950 . S
H894 C920 0.950 . S
H895 C922 0.950 . S
H896 C925 0.950 . S
H897 C926 0.950 . S
H898 C928 0.950 . S
H899 C929 0.950 . S
C900 H882 0.951 . S
C900 C901 1.366 . S
C900 C902 1.388 . S
C901 C900 1.366 . S
C901 C905 1.385 . S
C902 H883 0.951 . S
C902 C900 1.388 . S
C902 C903 1.366 . S
C903 C902 1.366 . S
C903 C904 1.414 . S
C903 C906 1.499 . S
C904 H884 0.950 . S
C904 C903 1.414 . S
C904 C905 1.374 . S
C905 H885 0.950 . S
C905 C901 1.385 . S
C905 C904 1.374 . S
C906 C903 1.499 . S
C906 C907 1.373 . S
C906 C908 1.389 . S
C907 H886 0.950 . S
C907 C906 1.373 . S
C907 C923 1.377 . S
C908 C906 1.389 . S
C908 C909 1.507 1_545 S
C908 C922 1.377 . S
C909 C908 1.507 1_565 S
C909 C910 1.410 . S
C909 C914 1.369 . S
C910 H887 0.950 . S
C910 C909 1.410 . S
C910 C911 1.334 . S
C911 H888 0.950 . S
C911 C910 1.334 . S
C911 C912 1.287 . S
C912 C911 1.287 . S
C912 C913 1.524 . S
C912 H931 0.913 . S
C913 H889 0.950 . S
C913 C912 1.524 . S
C913 C914 1.415 . S
C914 H890 0.950 1_565 S
C914 C909 1.369 . S
C914 C913 1.415 . S
C915 H891 0.951 . S
C915 C916 1.366 . S
C915 C917 1.388 . S
C916 C915 1.366 . S
C916 C920 1.385 . S
C917 H892 0.951 . S
C917 C915 1.388 . S
C917 C918 1.366 . S
C918 C917 1.366 . S
C918 C919 1.414 . S
C918 C921 1.499 . S
C919 H893 0.950 . S
C919 C918 1.414 . S
C919 C920 1.374 . S
C920 H894 0.950 . S
C920 C916 1.385 . S
C920 C919 1.374 . S
C921 C918 1.499 . S
C921 C922 1.373 . S
C921 C923 1.389 . S
C922 H895 0.950 . S
C922 C908 1.377 . S
C922 C921 1.373 . S
C923 C907 1.377 . S
C923 C921 1.389 . S
C923 C924 1.524 . S
C924 C923 1.524 . S
C924 C925 1.397 . S
C924 C929 1.363 . S
C925 H896 0.950 . S
C925 C924 1.397 . S
C925 C926 1.334 . S
C926 H897 0.950 . S
C926 C925 1.334 . S
C926 C927 1.287 . S
C927 C926 1.287 . S
C927 C928 1.524 . S
C927 H930 0.999 . S
C928 H898 0.950 . S
C928 C927 1.524 . S
C928 C929 1.415 . S
C929 H899 0.950 . S
C929 C924 1.363 . S
C929 C928 1.415 . S
H930 C927 0.999 . S
H931 C912 0.913 . S
H932 C950 0.951 . S
H933 C952 0.951 . S
H934 C954 0.950 . S
H935 C955 0.950 . S
H936 C957 0.950 . S
H937 C960 0.950 . S
H938 C961 0.950 . S
H939 C963 0.950 . S
H940 C964 0.950 . S
H941 C965 0.951 . S
H942 C967 0.951 . S
H943 C969 0.950 . S
H944 C970 0.950 . S
H945 C972 0.950 . S
H946 C975 0.950 . S
H947 C976 0.950 . S
H948 C978 0.950 . S
H949 C979 0.950 . S
C950 H932 0.951 . S
C950 C951 1.366 . S
C950 C952 1.388 . S
C951 C950 1.366 . S
C951 C955 1.385 . S
C952 H933 0.951 . S
C952 C950 1.388 . S
C952 C953 1.366 . S
C953 C952 1.366 . S
C953 C954 1.414 . S
C953 C956 1.499 . S
C954 H934 0.950 . S
C954 C953 1.414 . S
C954 C955 1.374 . S
C955 H935 0.950 . S
C955 C951 1.385 . S
C955 C954 1.374 . S
C956 C953 1.499 . S
C956 C957 1.373 . S
C956 C958 1.389 . S
C957 H936 0.950 . S
C957 C956 1.373 . S
C957 C973 1.377 . S
C958 C956 1.389 . S
C958 C959 1.524 . S
C958 C972 1.377 . S
C959 C958 1.524 . S
C959 C960 1.397 . S
C959 C964 1.363 . S
C960 H937 0.950 . S
C960 C959 1.397 . S
C960 C961 1.334 . S
C961 H938 0.950 . S
C961 C960 1.334 . S
C961 C962 1.287 . S
C962 C961 1.287 . S
C962 C963 1.524 . S
C962 H981 0.913 . S
C963 H939 0.950 . S
C963 C962 1.524 . S
C963 C964 1.415 . S
C964 H940 0.950 . S
C964 C959 1.363 . S
C964 C963 1.415 . S
C965 H941 0.951 . S
C965 C966 1.366 . S
C965 C967 1.388 . S
C966 C965 1.366 . S
C966 C970 1.385 . S
C967 H942 0.951 . S
C967 C965 1.388 . S
C967 C968 1.366 . S
C968 C967 1.366 . S
C968 C969 1.414 . S
C968 C971 1.499 . S
C969 H943 0.950 . S
C969 C968 1.414 . S
C969 C970 1.374 . S
C970 H944 0.950 . S
C970 C966 1.385 . S
C970 C969 1.374 . S
C971 C968 1.499 . S
C971 C972 1.373 . S
C971 C973 1.389 . S
C972 H945 0.950 . S
C972 C958 1.377 . S
C972 C971 1.373 . S
C973 C957 1.377 . S
C973 C971 1.389 . S
C973 C974 1.524 . S
C974 C973 1.524 . S
C974 C975 1.397 . S
C974 C979 1.363 . S
C975 H946 0.950 . S
C975 C974 1.397 . S
C975 C976 1.334 . S
C976 H947 0.950 . S
C976 C975 1.334 . S
C976 C977 1.287 . S
C977 C976 1.287 . S
C977 C978 1.524 . S
C977 H980 0.999 . S
C978 H948 0.950 . S
C978 C977 1.524 . S
C978 C979 1.415 . S
C979 H949 0.950 . S
C979 C974 1.363 . S
C979 C978 1.415 . S
H980 C977 0.999 . S
H981 C962 0.913 . S
H982 C1000 0.951 . S
H983 C1002 0.951 . S
H984 C1004 0.950 . S
H985 C1005 0.950 . S
H986 C1007 0.950 . S
H987 C1010 0.950 . S
H988 C1011 0.950 . S
H989 C1013 0.950 . S
H990 C1014 0.950 . S
H991 C1015 0.951 . S
H992 C1017 0.951 . S
H993 C1019 0.950 . S
H994 C1020 0.950 . S
H995 C1022 0.950 . S
H996 C1025 0.950 . S
H997 C1026 0.950 . S
H998 C1028 0.950 . S
H999 C1029 0.950 . S
C1000 H982 0.951 . S
C1000 C1001 1.366 . S
C1000 C1002 1.388 . S
C1001 C1000 1.366 . S
C1001 C1005 1.385 . S
C1002 H983 0.951 . S
C1002 C1000 1.388 . S
C1002 C1003 1.366 . S
C1003 C1002 1.366 . S
C1003 C1004 1.414 . S
C1003 C1006 1.499 . S
C1004 H984 0.950 . S
C1004 C1003 1.414 . S
C1004 C1005 1.374 . S
C1005 H985 0.950 . S
C1005 C1001 1.385 . S
C1005 C1004 1.374 . S
C1006 C1003 1.499 . S
C1006 C1007 1.373 . S
C1006 C1008 1.389 . S
C1007 H986 0.950 . S
C1007 C1006 1.373 . S
C1007 C1023 1.377 . S
C1008 C1006 1.389 . S
C1008 C1009 1.524 . S
C1008 C1022 1.377 . S
C1009 C1008 1.524 . S
C1009 C1010 1.397 . S
C1009 C1014 1.363 . S
C1010 H987 0.950 . S
C1010 C1009 1.397 . S
C1010 C1011 1.334 . S
C1011 H988 0.950 . S
C1011 C1010 1.334 . S
C1011 C1012 1.287 . S
C1012 C1011 1.287 . S
C1012 C1013 1.524 . S
C1012 H1031 0.913 . S
C1013 H989 0.950 . S
C1013 C1012 1.524 . S
C1013 C1014 1.415 . S
C1014 H990 0.950 . S
C1014 C1009 1.363 . S
C1014 C1013 1.415 . S
C1015 H991 0.951 . S
C1015 C1016 1.366 . S
C1015 C1017 1.388 . S
C1016 C1015 1.366 . S
C1016 C1020 1.385 . S
C1017 H992 0.951 . S
C1017 C1015 1.388 . S
C1017 C1018 1.366 . S
C1018 C1017 1.366 . S
C1018 C1019 1.414 . S
C1018 C1021 1.499 . S
C1019 H993 0.950 . S
C1019 C1018 1.414 . S
C1019 C1020 1.374 . S
C1020 H994 0.950 . S
C1020 C1016 1.385 . S
C1020 C1019 1.374 . S
C1021 C1018 1.499 . S
C1021 C1022 1.373 . S
C1021 C1023 1.389 . S
C1022 H995 0.950 . S
C1022 C1008 1.377 . S
C1022 C1021 1.373 . S
C1023 C1007 1.377 . S
C1023 C1021 1.389 . S
C1023 C1024 1.524 . S
C1024 C1023 1.524 . S
C1024 C1025 1.397 . S
C1024 C1029 1.363 . S
C1025 H996 0.950 . S
C1025 C1024 1.397 . S
C1025 C1026 1.334 . S
C1026 H997 0.950 . S
C1026 C1025 1.334 . S
C1026 C1027 1.287 . S
C1027 C1026 1.287 . S
C1027 C1028 1.524 . S
C1027 H1030 0.999 . S
C1028 H998 0.950 . S
C1028 C1027 1.524 . S
C1028 C1029 1.415 . S
C1029 H999 0.950 . S
C1029 C1024 1.363 . S
C1029 C1028 1.415 . S
H1030 C1027 0.999 . S
H1031 C1012 0.913 . S
H1032 C1050 0.951 1_455 S
H1033 C1052 0.951 1_455 S
H1034 C1054 0.950 . S
H1035 C1055 0.950 . S
H1036 C1057 0.950 . S
H1037 C1060 0.950 1_655 S
H1038 C1061 0.950 . S
H1039 C1063 0.950 . S
H1040 C1064 0.950 . S
H1041 C1065 0.951 . S
H1042 C1067 0.951 . S
H1043 C1069 0.950 . S
H1044 C1070 0.950 . S
H1045 C1072 0.950 . S
H1046 C1075 0.950 . S
H1047 C1076 0.950 . S
H1048 C1078 0.950 . S
H1049 C1079 0.950 . S
C1050 H1032 0.951 1_655 S
C1050 C1051 1.366 . S
C1050 C1052 1.388 . S
C1051 C1050 1.366 . S
C1051 C1055 1.385 . S
C1052 H1033 0.951 1_655 S
C1052 C1050 1.388 . S
C1052 C1053 1.366 . S
C1053 C1052 1.366 . S
C1053 C1054 1.414 . S
C1053 C1056 1.499 . S
C1054 H1034 0.950 . S
C1054 C1053 1.414 . S
C1054 C1055 1.374 . S
C1055 H1035 0.950 . S
C1055 C1051 1.385 . S
C1055 C1054 1.374 . S
C1056 C1053 1.499 . S
C1056 C1057 1.373 . S
C1056 C1058 1.389 1_655 S
C1057 H1036 0.950 . S
C1057 C1056 1.373 . S
C1057 C1073 1.377 1_554 S
C1058 C1056 1.389 1_455 S
C1058 C1059 1.524 . S
C1058 C1072 1.377 . S
C1059 C1058 1.524 . S
C1059 C1060 1.397 . S
C1059 C1064 1.363 . S
C1060 H1037 0.950 1_455 S
C1060 C1059 1.397 . S
C1060 C1061 1.334 . S
C1061 H1038 0.950 . S
C1061 C1060 1.334 . S
C1061 C1062 1.287 . S
C1062 C1061 1.287 . S
C1062 C1063 1.524 . S
C1062 H1081 0.913 . S
C1063 H1039 0.950 . S
C1063 C1062 1.524 . S
C1063 C1064 1.415 . S
C1064 H1040 0.950 . S
C1064 C1059 1.363 . S
C1064 C1063 1.415 . S
C1065 H1041 0.951 . S
C1065 C1066 1.366 1_655 S
C1065 C1067 1.388 . S
C1066 C1065 1.366 1_455 S
C1066 C1070 1.385 . S
C1067 H1042 0.951 . S
C1067 C1065 1.388 . S
C1067 C1068 1.366 . S
C1068 C1067 1.366 . S
C1068 C1069 1.414 1_655 S
C1068 C1071 1.499 . S
C1069 H1043 0.950 . S
C1069 C1068 1.414 1_455 S
C1069 C1070 1.374 . S
C1070 H1044 0.950 . S
C1070 C1066 1.385 . S
C1070 C1069 1.374 . S
C1071 C1068 1.499 . S
C1071 C1072 1.373 1_656 S
C1071 C1073 1.389 . S
C1072 H1045 0.950 . S
C1072 C1058 1.377 . S
C1072 C1071 1.373 1_454 S
C1073 C1057 1.377 1_556 S
C1073 C1071 1.389 . S
C1073 C1074 1.524 . S
C1074 C1073 1.524 . S
C1074 C1075 1.397 . S
C1074 C1079 1.363 . S
C1075 H1046 0.950 . S
C1075 C1074 1.397 . S
C1075 C1076 1.334 . S
C1076 H1047 0.950 . S
C1076 C1075 1.334 . S
C1076 C1077 1.287 . S
C1077 C1076 1.287 . S
C1077 C1078 1.524 . S
C1077 H1080 0.999 . S
C1078 H1048 0.950 . S
C1078 C1077 1.524 . S
C1078 C1079 1.415 . S
C1079 H1049 0.950 . S
C1079 C1074 1.363 . S
C1079 C1078 1.415 . S
H1080 C1077 0.999 . S
H1081 C1062 0.913 . S
H1082 C1100 0.951 . S
H1083 C1102 0.951 . S
H1084 C1104 0.950 . S
H1085 C1105 0.950 . S
H1086 C1107 0.950 . S
H1087 C1110 0.950 . S
H1088 C1111 0.950 . S
H1089 C1113 0.950 . S
H1090 C1114 0.950 . S
H1091 C1115 0.951 . S
H1092 C1117 0.951 . S
H1093 C1119 0.950 1_554 S
H1094 C1120 0.950 . S
H1095 C1122 0.950 . S
H1096 C1125 0.950 . S
H1097 C1126 0.950 . S
H1098 C1128 0.950 . S
H1099 C1129 0.950 . S
C1100 H1082 0.951 . S
C1100 C1101 1.366 . S
C1100 C1102 1.388 . S
C1101 C1100 1.366 . S
C1101 C1105 1.385 . S
C1102 H1083 0.951 . S
C1102 C1100 1.388 . S
C1102 C1103 1.366 . S
C1103 C1102 1.366 . S
C1103 C1104 1.414 . S
C1103 C1106 1.499 . S
C1104 H1084 0.950 . S
C1104 C1103 1.414 . S
C1104 C1105 1.374 . S
C1105 H1085 0.950 . S
C1105 C1101 1.385 . S
C1105 C1104 1.374 . S
C1106 C1103 1.499 . S
C1106 C1107 1.373 1_565 S
C1106 C1108 1.389 . S
C1107 H1086 0.950 . S
C1107 C1106 1.373 1_545 S
C1107 C1123 1.377 . S
C1108 C1106 1.389 . S
C1108 C1109 1.524 . S
C1108 C1122 1.377 . S
C1109 C1108 1.524 . S
C1109 C1110 1.397 . S
C1109 C1114 1.363 . S
C1110 H1087 0.950 . S
C1110 C1109 1.397 . S
C1110 C1111 1.334 . S
C1111 H1088 0.950 . S
C1111 C1110 1.334 . S
C1111 C1112 1.287 . S
C1112 C1111 1.287 . S
C1112 C1113 1.524 . S
C1112 H1131 0.913 . S
C1113 H1089 0.950 . S
C1113 C1112 1.524 . S
C1113 C1114 1.415 . S
C1114 H1090 0.950 . S
C1114 C1109 1.363 . S
C1114 C1113 1.415 . S
C1115 H1091 0.951 . S
C1115 C1116 1.366 . S
C1115 C1117 1.388 . S
C1116 C1115 1.366 . S
C1116 C1120 1.385 1_545 S
C1117 H1092 0.951 . S
C1117 C1115 1.388 . S
C1117 C1118 1.364 1_545 S
C1118 C1117 1.364 1_565 S
C1118 C1119 1.415 . S
C1118 C1121 1.499 . S
C1119 H1093 0.950 1_556 S
C1119 C1118 1.415 . S
C1119 C1120 1.374 . S
C1120 H1094 0.950 . S
C1120 C1116 1.385 1_565 S
C1120 C1119 1.374 . S
C1121 C1118 1.499 . S
C1121 C1122 1.373 1_556 S
C1121 C1123 1.389 1_566 S
C1122 H1095 0.950 . S
C1122 C1108 1.377 . S
C1122 C1121 1.373 1_554 S
C1123 C1107 1.377 . S
C1123 C1121 1.389 1_544 S
C1123 C1124 1.524 1_554 S
C1124 C1123 1.524 1_556 S
C1124 C1125 1.397 1_556 S
C1124 C1129 1.363 . S
C1125 H1096 0.950 . S
C1125 C1124 1.397 1_554 S
C1125 C1126 1.334 . S
C1126 H1097 0.950 . S
C1126 C1125 1.334 . S
C1126 C1127 1.287 1_554 S
C1127 C1126 1.287 1_556 S
C1127 C1128 1.524 . S
C1127 H1130 0.999 . S
C1128 H1098 0.950 . S
C1128 C1127 1.524 . S
C1128 C1129 1.415 . S
C1129 H1099 0.950 . S
C1129 C1124 1.363 . S
C1129 C1128 1.415 . S
H1130 C1127 0.999 . S
H1131 C1112 0.913 . S
H1132 C1150 0.951 . S
H1133 C1152 0.951 . S
H1134 C1154 0.950 . S
H1135 C1155 0.950 . S
H1136 C1157 0.950 . S
H1137 C1160 0.950 . S
H1138 C1161 0.950 . S
H1139 C1163 0.950 . S
H1140 C1164 0.950 1_556 S
H1141 C1165 0.951 . S
H1142 C1167 0.946 1_554 S
H1143 C1169 0.950 . S
H1144 C1170 0.950 . S
H1145 C1172 0.950 1_556 S
H1146 C1175 0.950 . S
H1147 C1176 0.950 . S
H1148 C1178 0.950 1_554 S
H1149 C1179 0.950 . S
C1150 H1132 0.951 . S
C1150 C1151 1.366 . S
C1150 C1152 1.388 . S
C1151 C1150 1.366 . S
C1151 C1155 1.385 . S
C1152 H1133 0.951 . S
C1152 C1150 1.388 . S
C1152 C1153 1.366 . S
C1153 C1152 1.366 . S
C1153 C1154 1.414 . S
C1153 C1156 1.499 . S
C1154 H1134 0.950 . S
C1154 C1153 1.414 . S
C1154 C1155 1.374 . S
C1155 H1135 0.950 . S
C1155 C1151 1.385 . S
C1155 C1154 1.374 . S
C1156 C1153 1.499 . S
C1156 C1157 1.373 . S
C1156 C1158 1.389 . S
C1157 H1136 0.950 . S
C1157 C1156 1.373 . S
C1157 C1173 1.377 . S
C1158 C1156 1.389 . S
C1158 C1159 1.524 . S
C1158 C1172 1.377 . S
C1159 C1158 1.524 . S
C1159 C1160 1.397 . S
C1159 C1164 1.363 . S
C1160 H1137 0.950 . S
C1160 C1159 1.397 . S
C1160 C1161 1.334 . S
C1161 H1138 0.950 . S
C1161 C1160 1.334 . S
C1161 C1162 1.287 . S
C1162 C1161 1.287 . S
C1162 C1163 1.524 . S
C1162 H1181 0.913 . S
C1163 H1139 0.950 . S
C1163 C1162 1.524 . S
C1163 C1164 1.415 . S
C1164 H1140 0.950 1_554 S
C1164 C1159 1.363 . S
C1164 C1163 1.415 . S
C1165 H1141 0.951 . S
C1165 C1166 1.366 . S
C1165 C1167 1.388 . S
C1166 C1165 1.366 . S
C1166 C1170 1.385 . S
C1167 H1142 0.946 1_556 S
C1167 C1165 1.388 . S
C1167 C1168 1.366 . S
C1168 C1167 1.366 . S
C1168 C1169 1.414 . S
C1168 C1171 1.499 . S
C1169 H1143 0.950 . S
C1169 C1168 1.414 . S
C1169 C1170 1.374 . S
C1170 H1144 0.950 . S
C1170 C1166 1.385 . S
C1170 C1169 1.374 . S
C1171 C1168 1.499 . S
C1171 C1172 1.373 1_556 S
C1171 C1173 1.389 1_556 S
C1172 H1145 0.950 1_554 S
C1172 C1158 1.377 . S
C1172 C1171 1.373 1_554 S
C1173 C1157 1.377 . S
C1173 C1171 1.389 1_554 S
C1173 C1174 1.524 1_554 S
C1174 C1173 1.524 1_556 S
C1174 C1175 1.397 . S
C1174 C1179 1.363 1_556 S
C1175 H1146 0.950 . S
C1175 C1174 1.397 . S
C1175 C1176 1.334 . S
C1176 H1147 0.950 . S
C1176 C1175 1.334 . S
C1176 C1177 1.287 . S
C1177 C1176 1.287 . S
C1177 C1178 1.524 . S
C1177 H1180 0.999 . S
C1178 H1148 0.950 1_556 S
C1178 C1177 1.524 . S
C1178 C1179 1.415 1_556 S
C1179 H1149 0.950 . S
C1179 C1174 1.363 1_554 S
C1179 C1178 1.415 1_554 S
H1180 C1177 0.999 . S
H1181 C1162 0.913 . S
H1182 C1200 0.951 . S
H1183 C1202 0.951 . S
H1184 C1204 0.950 . S
H1185 C1205 0.950 . S
H1186 C1207 0.950 1_556 S
H1187 C1210 0.950 . S
H1188 C1211 0.950 . S
H1189 C1213 0.950 . S
H1190 C1214 0.950 . S
H1191 C1215 0.951 . S
H1192 C1217 0.951 . S
H1193 C1219 0.950 1_554 S
H1194 C1220 0.950 . S
H1195 C1222 0.950 . S
H1196 C1225 0.950 . S
H1197 C1226 0.950 . S
H1198 C1228 0.950 . S
H1199 C1229 0.950 . S
C1200 H1182 0.951 . S
C1200 C1201 1.366 . S
C1200 C1202 1.388 . S
C1201 C1200 1.366 . S
C1201 C1205 1.385 . S
C1202 H1183 0.951 . S
C1202 C1200 1.388 . S
C1202 C1203 1.366 . S
C1203 C1202 1.366 . S
C1203 C1204 1.414 . S
C1203 C1206 1.499 . S
C1204 H1184 0.950 . S
C1204 C1203 1.414 . S
C1204 C1205 1.374 . S
C1205 H1185 0.950 . S
C1205 C1201 1.385 . S
C1205 C1204 1.374 . S
C1206 C1203 1.499 . S
C1206 C1207 1.373 . S
C1206 C1208 1.389 . S
C1207 H1186 0.950 1_554 S
C1207 C1206 1.373 . S
C1207 C1223 1.377 1_554 S
C1208 C1206 1.389 . S
C1208 C1209 1.524 . S
C1208 C1222 1.377 . S
C1209 C1208 1.524 . S
C1209 C1210 1.397 . S
C1209 C1214 1.363 . S
C1210 H1187 0.950 . S
C1210 C1209 1.397 . S
C1210 C1211 1.334 . S
C1211 H1188 0.950 . S
C1211 C1210 1.334 . S
C1211 C1212 1.287 . S
C1212 C1211 1.287 . S
C1212 C1213 1.524 . S
C1212 H1231 0.913 . S
C1213 H1189 0.950 . S
C1213 C1212 1.524 . S
C1213 C1214 1.415 . S
C1214 H1190 0.950 . S
C1214 C1209 1.363 . S
C1214 C1213 1.415 . S
C1215 H1191 0.951 . S
C1215 C1216 1.366 . S
C1215 C1217 1.388 . S
C1216 C1215 1.366 . S
C1216 C1220 1.385 . S
C1217 H1192 0.951 . S
C1217 C1215 1.388 . S
C1217 C1218 1.366 . S
C1218 C1217 1.366 . S
C1218 C1219 1.414 . S
C1218 C1221 1.499 . S
C1219 H1193 0.950 1_556 S
C1219 C1218 1.414 . S
C1219 C1220 1.374 . S
C1220 H1194 0.950 . S
C1220 C1216 1.385 . S
C1220 C1219 1.374 . S
C1221 C1218 1.499 . S
C1221 C1222 1.373 1_556 S
C1221 C1223 1.389 . S
C1222 H1195 0.950 . S
C1222 C1208 1.377 . S
C1222 C1221 1.373 1_554 S
C1223 C1207 1.377 1_556 S
C1223 C1221 1.389 . S
C1223 C1224 1.524 . S
C1224 C1223 1.524 . S
C1224 C1225 1.397 . S
C1224 C1229 1.363 . S
C1225 H1196 0.950 . S
C1225 C1224 1.397 . S
C1225 C1226 1.334 . S
C1226 H1197 0.950 . S
C1226 C1225 1.334 . S
C1226 C1227 1.287 . S
C1227 C1226 1.287 . S
C1227 C1228 1.524 . S
C1227 H1230 0.999 . S
C1228 H1198 0.950 . S
C1228 C1227 1.524 . S
C1228 C1229 1.415 . S
C1229 H1199 0.950 . S
C1229 C1224 1.363 . S
C1229 C1228 1.415 . S
H1230 C1227 0.999 . S
H1231 C1212 0.913 . S
H1232 C1250 0.951 . S
H1233 C1252 0.951 . S
H1234 C1254 0.950 . S
H1235 C1255 0.950 . S
H1236 C1257 0.950 . S
H1237 C1260 0.950 . S
H1238 C1261 0.950 . S
H1239 C1263 0.950 . S
H1240 C1264 0.950 . S
H1241 C1265 0.951 . S
H1242 C1267 0.951 . S
H1243 C1269 0.950 . S
H1244 C1270 0.950 . S
H1245 C1272 0.950 . S
H1246 C1275 0.950 . S
H1247 C1276 0.950 . S
H1248 C1278 0.950 . S
H1249 C1279 0.950 . S
C1250 H1232 0.951 . S
C1250 C1251 1.366 . S
C1250 C1252 1.388 . S
C1251 C1250 1.366 . S
C1251 C1255 1.385 . S
C1252 H1233 0.951 . S
C1252 C1250 1.388 . S
C1252 C1253 1.366 . S
C1253 C1252 1.366 . S
C1253 C1254 1.414 . S
C1253 C1256 1.499 . S
C1254 H1234 0.950 . S
C1254 C1253 1.414 . S
C1254 C1255 1.374 . S
C1255 H1235 0.950 . S
C1255 C1251 1.385 . S
C1255 C1254 1.374 . S
C1256 C1253 1.499 . S
C1256 C1257 1.373 . S
C1256 C1258 1.389 . S
C1257 H1236 0.950 . S
C1257 C1256 1.373 . S
C1257 C1273 1.377 . S
C1258 C1256 1.389 . S
C1258 C1259 1.524 . S
C1258 C1272 1.377 . S
C1259 C1258 1.524 . S
C1259 C1260 1.397 . S
C1259 C1264 1.363 . S
C1260 H1237 0.950 . S
C1260 C1259 1.397 . S
C1260 C1261 1.334 . S
C1261 H1238 0.950 . S
C1261 C1260 1.334 . S
C1261 C1262 1.287 . S
C1262 C1261 1.287 . S
C1262 C1263 1.524 . S
C1262 H1281 0.913 . S
C1263 H1239 0.950 . S
C1263 C1262 1.524 . S
C1263 C1264 1.415 . S
C1264 H1240 0.950 . S
C1264 C1259 1.363 . S
C1264 C1263 1.415 . S
C1265 H1241 0.951 . S
C1265 C1266 1.366 . S
C1265 C1267 1.388 . S
C1266 C1265 1.366 . S
C1266 C1270 1.385 . S
C1267 H1242 0.951 . S
C1267 C1265 1.388 . S
C1267 C1268 1.366 . S
C1268 C1267 1.366 . S
C1268 C1269 1.414 . S
C1268 C1271 1.499 . S
C1269 H1243 0.950 . S
C1269 C1268 1.414 . S
C1269 C1270 1.374 . S
C1270 H1244 0.950 . S
C1270 C1266 1.385 . S
C1270 C1269 1.374 . S
C1271 C1268 1.499 . S
C1271 C1272 1.373 . S
C1271 C1273 1.389 . S
C1272 H1245 0.950 . S
C1272 C1258 1.377 . S
C1272 C1271 1.373 . S
C1273 C1257 1.377 . S
C1273 C1271 1.389 . S
C1273 C1274 1.524 1_455 S
C1274 C1273 1.524 1_655 S
C1274 C1275 1.397 . S
C1274 C1279 1.363 . S
C1275 H1246 0.950 . S
C1275 C1274 1.397 . S
C1275 C1276 1.334 . S
C1276 H1247 0.950 . S
C1276 C1275 1.334 . S
C1276 C1277 1.287 . S
C1277 C1276 1.287 . S
C1277 C1278 1.524 . S
C1277 H1280 0.999 . S
C1278 H1248 0.950 . S
C1278 C1277 1.524 . S
C1278 C1279 1.415 . S
C1279 H1249 0.950 . S
C1279 C1274 1.363 . S
C1279 C1278 1.415 . S
H1280 C1277 0.999 . S
H1281 C1262 0.913 . S
H1282 C1300 0.951 . S
H1283 C1302 0.951 . S
H1284 C1304 0.950 . S
H1285 C1305 0.950 . S
H1286 C1307 0.950 . S
H1287 C1310 0.950 . S
H1288 C1311 0.950 . S
H1289 C1313 0.950 . S
H1290 C1314 0.950 . S
H1291 C1315 0.951 . S
H1292 C1317 0.951 . S
H1293 C1319 0.950 . S
H1294 C1320 0.950 . S
H1295 C1322 0.950 . S
H1296 C1325 0.950 . S
H1297 C1326 0.950 . S
H1298 C1328 0.950 . S
H1299 C1329 0.950 . S
C1300 H1282 0.951 . S
C1300 C1301 1.366 . S
C1300 C1302 1.388 . S
C1301 C1300 1.366 . S
C1301 C1305 1.385 . S
C1302 H1283 0.951 . S
C1302 C1300 1.388 . S
C1302 C1303 1.366 . S
C1303 C1302 1.366 . S
C1303 C1304 1.414 . S
C1303 C1306 1.499 . S
C1304 H1284 0.950 . S
C1304 C1303 1.414 . S
C1304 C1305 1.374 . S
C1305 H1285 0.950 . S
C1305 C1301 1.385 . S
C1305 C1304 1.374 . S
C1306 C1303 1.499 . S
C1306 C1307 1.373 . S
C1306 C1308 1.389 . S
C1307 H1286 0.950 . S
C1307 C1306 1.373 . S
C1307 C1323 1.377 . S
C1308 C1306 1.389 . S
C1308 C1309 1.524 . S
C1308 C1322 1.377 . S
C1309 C1308 1.524 . S
C1309 C1310 1.397 . S
C1309 C1314 1.363 . S
C1310 H1287 0.950 . S
C1310 C1309 1.397 . S
C1310 C1311 1.334 . S
C1311 H1288 0.950 . S
C1311 C1310 1.334 . S
C1311 C1312 1.287 . S
C1312 C1311 1.287 . S
C1312 C1313 1.524 . S
C1312 H1331 0.913 . S
C1313 H1289 0.950 . S
C1313 C1312 1.524 . S
C1313 C1314 1.415 . S
C1314 H1290 0.950 . S
C1314 C1309 1.363 . S
C1314 C1313 1.415 . S
C1315 H1291 0.951 . S
C1315 C1316 1.366 . S
C1315 C1317 1.388 . S
C1316 C1315 1.366 . S
C1316 C1320 1.385 . S
C1317 H1292 0.951 . S
C1317 C1315 1.388 . S
C1317 C1318 1.366 . S
C1318 C1317 1.366 . S
C1318 C1319 1.414 . S
C1318 C1321 1.499 . S
C1319 H1293 0.950 . S
C1319 C1318 1.414 . S
C1319 C1320 1.374 . S
C1320 H1294 0.950 . S
C1320 C1316 1.385 . S
C1320 C1319 1.374 . S
C1321 C1318 1.499 . S
C1321 C1322 1.373 . S
C1321 C1323 1.389 . S
C1322 H1295 0.950 . S
C1322 C1308 1.377 . S
C1322 C1321 1.373 . S
C1323 C1307 1.377 . S
C1323 C1321 1.389 . S
C1323 C1324 1.524 1_545 S
C1324 C1323 1.524 1_565 S
C1324 C1325 1.397 . S
C1324 C1329 1.363 . S
C1325 H1296 0.950 . S
C1325 C1324 1.397 . S
C1325 C1326 1.334 . S
C1326 H1297 0.950 . S
C1326 C1325 1.334 . S
C1326 C1327 1.287 . S
C1327 C1326 1.287 . S
C1327 C1328 1.524 . S
C1327 H1330 0.999 . S
C1328 H1298 0.950 . S
C1328 C1327 1.524 . S
C1328 C1329 1.415 . S
C1329 H1299 0.950 . S
C1329 C1324 1.363 . S
C1329 C1328 1.415 . S
H1330 C1327 0.999 . S
H1331 C1312 0.913 . S
H1332 C1350 0.951 . S
H1333 C1352 0.951 . S
H1334 C1354 0.950 . S
H1335 C1355 0.950 . S
H1336 C1357 0.950 . S
H1337 C1360 0.950 . S
H1338 C1361 0.950 . S
H1339 C1363 0.950 . S
H1340 C1364 0.950 . S
H1341 C1365 0.951 . S
H1342 C1367 0.951 . S
H1343 C1369 0.950 . S
H1344 C1370 0.950 . S
H1345 C1372 0.950 . S
H1346 C1375 0.950 . S
H1347 C1376 0.950 . S
H1348 C1378 0.950 . S
H1349 C1379 0.950 . S
C1350 H1332 0.951 . S
C1350 C1351 1.366 . S
C1350 C1352 1.388 . S
C1351 C1350 1.366 . S
C1351 C1355 1.385 . S
C1352 H1333 0.951 . S
C1352 C1350 1.388 . S
C1352 C1353 1.366 . S
C1353 C1352 1.366 . S
C1353 C1354 1.414 . S
C1353 C1356 1.499 . S
C1354 H1334 0.950 . S
C1354 C1353 1.414 . S
C1354 C1355 1.374 . S
C1355 H1335 0.950 . S
C1355 C1351 1.385 . S
C1355 C1354 1.374 . S
C1356 C1353 1.499 . S
C1356 C1357 1.373 . S
C1356 C1358 1.389 . S
C1357 H1336 0.950 . S
C1357 C1356 1.373 . S
C1357 C1373 1.377 . S
C1358 C1356 1.389 . S
C1358 C1359 1.524 . S
C1358 C1372 1.377 . S
C1359 C1358 1.524 . S
C1359 C1360 1.397 . S
C1359 C1364 1.363 . S
C1360 H1337 0.950 . S
C1360 C1359 1.397 . S
C1360 C1361 1.334 . S
C1361 H1338 0.950 . S
C1361 C1360 1.334 . S
C1361 C1362 1.287 . S
C1362 C1361 1.287 . S
C1362 C1363 1.524 . S
C1362 H1381 0.913 . S
C1363 H1339 0.950 . S
C1363 C1362 1.524 . S
C1363 C1364 1.415 . S
C1364 H1340 0.950 . S
C1364 C1359 1.363 . S
C1364 C1363 1.415 . S
C1365 H1341 0.951 . S
C1365 C1366 1.366 . S
C1365 C1367 1.388 . S
C1366 C1365 1.366 . S
C1366 C1370 1.385 . S
C1367 H1342 0.951 . S
C1367 C1365 1.388 . S
C1367 C1368 1.366 . S
C1368 C1367 1.366 . S
C1368 C1369 1.414 . S
C1368 C1371 1.499 . S
C1369 H1343 0.950 . S
C1369 C1368 1.414 . S
C1369 C1370 1.374 . S
C1370 H1344 0.950 . S
C1370 C1366 1.385 . S
C1370 C1369 1.374 . S
C1371 C1368 1.499 . S
C1371 C1372 1.373 . S
C1371 C1373 1.389 . S
C1372 H1345 0.950 . S
C1372 C1358 1.377 . S
C1372 C1371 1.373 . S
C1373 C1357 1.377 . S
C1373 C1371 1.389 . S
C1373 C1374 1.524 . S
C1374 C1373 1.524 . S
C1374 C1375 1.397 . S
C1374 C1379 1.363 . S
C1375 H1346 0.950 . S
C1375 C1374 1.397 . S
C1375 C1376 1.334 . S
C1376 H1347 0.950 . S
C1376 C1375 1.334 . S
C1376 C1377 1.287 . S
C1377 C1376 1.287 . S
C1377 C1378 1.524 . S
C1377 H1380 0.999 . S
C1378 H1348 0.950 . S
C1378 C1377 1.524 . S
C1378 C1379 1.415 . S
C1379 H1349 0.950 . S
C1379 C1374 1.363 . S
C1379 C1378 1.415 . S
H1380 C1377 0.999 . S
H1381 C1362 0.913 . S
H1382 C1400 0.951 . S
H1383 C1402 0.951 . S
H1384 C1404 0.950 . S
H1385 C1405 0.950 . S
H1386 C1407 0.950 . S
H1387 C1410 0.950 . S
H1388 C1411 0.950 . S
H1389 C1413 0.950 . S
H1390 C1414 0.950 . S
H1391 C1415 0.951 . S
H1392 C1417 0.951 . S
H1393 C1419 0.950 . S
H1394 C1420 0.950 . S
H1395 C1422 0.950 . S
H1396 C1425 0.950 . S
H1397 C1426 0.950 . S
H1398 C1428 0.950 . S
H1399 C1429 0.950 . S
C1400 H1382 0.951 . S
C1400 C1401 1.366 . S
C1400 C1402 1.388 . S
C1401 C1400 1.366 . S
C1401 C1405 1.385 . S
C1402 H1383 0.951 . S
C1402 C1400 1.388 . S
C1402 C1403 1.366 . S
C1403 C1402 1.366 . S
C1403 C1404 1.414 . S
C1403 C1406 1.499 . S
C1404 H1384 0.950 . S
C1404 C1403 1.414 . S
C1404 C1405 1.374 . S
C1405 H1385 0.950 . S
C1405 C1401 1.385 . S
C1405 C1404 1.374 . S
C1406 C1403 1.499 . S
C1406 C1407 1.373 . S
C1406 C1408 1.389 . S
C1407 H1386 0.950 . S
C1407 C1406 1.373 . S
C1407 C1423 1.377 . S
C1408 C1406 1.389 . S
C1408 C1409 1.524 . S
C1408 C1422 1.377 . S
C1409 C1408 1.524 . S
C1409 C1410 1.397 . S
C1409 C1414 1.363 . S
C1410 H1387 0.950 . S
C1410 C1409 1.397 . S
C1410 C1411 1.334 . S
C1411 H1388 0.950 . S
C1411 C1410 1.334 . S
C1411 C1412 1.287 . S
C1412 C1411 1.287 . S
C1412 C1413 1.524 . S
C1412 H1431 0.913 . S
C1413 H1389 0.950 . S
C1413 C1412 1.524 . S
C1413 C1414 1.415 . S
C1414 H1390 0.950 . S
C1414 C1409 1.363 . S
C1414 C1413 1.415 . S
C1415 H1391 0.951 . S
C1415 C1416 1.366 . S
C1415 C1417 1.388 . S
C1416 C1415 1.366 . S
C1416 C1420 1.385 . S
C1417 H1392 0.951 . S
C1417 C1415 1.388 . S
C1417 C1418 1.366 . S
C1418 C1417 1.366 . S
C1418 C1419 1.414 . S
C1418 C1421 1.499 . S
C1419 H1393 0.950 . S
C1419 C1418 1.414 . S
C1419 C1420 1.374 . S
C1420 H1394 0.950 . S
C1420 C1416 1.385 . S
C1420 C1419 1.374 . S
C1421 C1418 1.499 . S
C1421 C1422 1.373 . S
C1421 C1423 1.389 . S
C1422 H1395 0.950 . S
C1422 C1408 1.377 . S
C1422 C1421 1.373 . S
C1423 C1407 1.377 . S
C1423 C1421 1.389 . S
C1423 C1424 1.524 . S
C1424 C1423 1.524 . S
C1424 C1425 1.397 . S
C1424 C1429 1.363 . S
C1425 H1396 0.950 . S
C1425 C1424 1.397 . S
C1425 C1426 1.334 . S
C1426 H1397 0.950 . S
C1426 C1425 1.334 . S
C1426 C1427 1.287 . S
C1427 C1426 1.287 . S
C1427 C1428 1.524 . S
C1427 H1430 0.999 . S
C1428 H1398 0.950 . S
C1428 C1427 1.524 . S
C1428 C1429 1.415 . S
C1429 H1399 0.950 . S
C1429 C1424 1.363 . S
C1429 C1428 1.415 . S
H1430 C1427 0.999 . S
H1431 C1412 0.913 . S
H1432 C1450 0.951 . S
H1433 C1452 0.951 . S
H1434 C1454 0.950 1_455 S
H1435 C1455 0.950 . S
H1436 C1457 0.950 . S
H1437 C1460 0.950 . S
H1438 C1461 0.950 . S
H1439 C1463 0.950 . S
H1440 C1464 0.950 . S
H1441 C1465 0.951 . S
H1442 C1467 0.951 . S
H1443 C1469 0.950 . S
H1444 C1470 0.950 . S
H1445 C1472 0.950 . S
H1446 C1475 0.950 . S
H1447 C1476 0.950 . S
H1448 C1478 0.950 . S
H1449 C1479 0.950 . S
C1450 H1432 0.951 . S
C1450 C1451 1.366 . S
C1450 C1452 1.388 . S
C1451 C1450 1.366 . S
C1451 C1455 1.385 . S
C1452 H1433 0.951 . S
C1452 C1450 1.388 . S
C1452 C1453 1.366 . S
C1453 C1452 1.366 . S
C1453 C1454 1.414 . S
C1453 C1456 1.499 . S
C1454 H1434 0.950 1_655 S
C1454 C1453 1.414 . S
C1454 C1455 1.374 . S
C1455 H1435 0.950 . S
C1455 C1451 1.385 . S
C1455 C1454 1.374 . S
C1456 C1453 1.499 . S
C1456 C1457 1.373 1_655 S
C1456 C1458 1.389 . S
C1457 H1436 0.950 . S
C1457 C1456 1.373 1_455 S
C1457 C1473 1.377 . S
C1458 C1456 1.389 . S
C1458 C1459 1.524 . S
C1458 C1472 1.377 . S
C1459 C1458 1.524 . S
C1459 C1460 1.397 . S
C1459 C1464 1.363 . S
C1460 H1437 0.950 . S
C1460 C1459 1.397 . S
C1460 C1461 1.334 . S
C1461 H1438 0.950 . S
C1461 C1460 1.334 . S
C1461 C1462 1.287 . S
C1462 C1461 1.287 . S
C1462 C1463 1.524 . S
C1462 H1481 0.913 . S
C1463 H1439 0.950 . S
C1463 C1462 1.524 . S
C1463 C1464 1.415 . S
C1464 H1440 0.950 . S
C1464 C1459 1.363 . S
C1464 C1463 1.415 . S
C1465 H1441 0.951 . S
C1465 C1466 1.366 1_455 S
C1465 C1467 1.388 . S
C1466 C1465 1.366 1_655 S
C1466 C1470 1.385 . S
C1467 H1442 0.951 . S
C1467 C1465 1.388 . S
C1467 C1468 1.366 1_455 S
C1468 C1467 1.366 1_655 S
C1468 C1469 1.414 . S
C1468 C1471 1.499 . S
C1469 H1443 0.950 . S
C1469 C1468 1.414 . S
C1469 C1470 1.374 . S
C1470 H1444 0.950 . S
C1470 C1466 1.385 . S
C1470 C1469 1.374 . S
C1471 C1468 1.499 . S
C1471 C1472 1.373 . S
C1471 C1473 1.389 1_655 S
C1472 H1445 0.950 . S
C1472 C1458 1.377 . S
C1472 C1471 1.373 . S
C1473 C1457 1.377 . S
C1473 C1471 1.389 1_455 S
C1473 C1474 1.524 . S
C1474 C1473 1.524 . S
C1474 C1475 1.397 . S
C1474 C1479 1.363 . S
C1475 H1446 0.950 . S
C1475 C1474 1.397 . S
C1475 C1476 1.334 . S
C1476 H1447 0.950 . S
C1476 C1475 1.334 . S
C1476 C1477 1.287 . S
C1477 C1476 1.287 . S
C1477 C1478 1.524 . S
C1477 H1480 0.999 . S
C1478 H1448 0.950 . S
C1478 C1477 1.524 . S
C1478 C1479 1.415 . S
C1479 H1449 0.950 . S
C1479 C1474 1.363 . S
C1479 C1478 1.415 . S
H1480 C1477 0.999 . S
H1481 C1462 0.913 . S
H1482 C1500 0.951 1_545 S
H1483 C1502 0.951 1_545 S
H1484 C1504 0.950 . S
H1485 C1505 0.950 . S
H1486 C1507 0.950 . S
H1487 C1510 0.950 1_565 S
H1488 C1511 0.950 . S
H1489 C1513 0.950 . S
H1490 C1514 0.950 . S
H1491 C1515 0.951 . S
H1492 C1517 0.951 . S
H1493 C1519 0.950 . S
H1494 C1520 0.950 . S
H1495 C1522 0.950 . S
H1496 C1525 0.950 . S
H1497 C1526 0.950 . S
H1498 C1528 0.950 . S
H1499 C1529 0.950 . S
C1500 H1482 0.951 1_565 S
C1500 C1501 1.366 . S
C1500 C1502 1.388 . S
C1501 C1500 1.366 . S
C1501 C1505 1.385 . S
C1502 H1483 0.951 1_565 S
C1502 C1500 1.388 . S
C1502 C1503 1.366 . S
C1503 C1502 1.366 . S
C1503 C1504 1.414 . S
C1503 C1506 1.499 . S
C1504 H1484 0.950 . S
C1504 C1503 1.414 . S
C1504 C1505 1.374 . S
C1505 H1485 0.950 . S
C1505 C1501 1.385 . S
C1505 C1504 1.374 . S
C1506 C1503 1.499 . S
C1506 C1507 1.373 . S
C1506 C1508 1.374 1_565 S
C1507 H1486 0.950 . S
C1507 C1506 1.373 . S
C1507 C1523 1.377 . S
C1508 C1506 1.374 1_545 S
C1508 C1509 1.538 . S
C1508 C1522 1.379 . S
C1509 C1508 1.538 . S
C1509 C1510 1.397 . S
C1509 C1514 1.363 . S
C1510 H1487 0.950 1_545 S
C1510 C1509 1.397 . S
C1510 C1511 1.334 . S
C1511 H1488 0.950 . S
C1511 C1510 1.334 . S
C1511 C1512 1.287 . S
C1512 C1511 1.287 . S
C1512 C1513 1.524 . S
C1512 H1531 0.913 . S
C1513 H1489 0.950 . S
C1513 C1512 1.524 . S
C1513 C1514 1.415 . S
C1514 H1490 0.950 . S
C1514 C1509 1.363 . S
C1514 C1513 1.415 . S
C1515 H1491 0.951 . S
C1515 C1516 1.366 . S
C1515 C1517 1.388 . S
C1516 C1515 1.366 . S
C1516 C1520 1.385 1_565 S
C1517 H1492 0.951 . S
C1517 C1515 1.388 . S
C1517 C1518 1.366 . S
C1518 C1517 1.366 . S
C1518 C1519 1.414 1_565 S
C1518 C1521 1.499 . S
C1519 H1493 0.950 . S
C1519 C1518 1.414 1_545 S
C1519 C1520 1.374 . S
C1520 H1494 0.950 . S
C1520 C1516 1.385 1_545 S
C1520 C1519 1.374 . S
C1521 C1518 1.499 . S
C1521 C1522 1.373 1_565 S
C1521 C1523 1.389 . S
C1522 H1495 0.950 . S
C1522 C1508 1.379 . S
C1522 C1521 1.373 1_545 S
C1523 C1507 1.377 . S
C1523 C1521 1.389 . S
C1523 C1524 1.524 . S
C1524 C1523 1.524 . S
C1524 C1525 1.397 . S
C1524 C1529 1.363 . S
C1525 H1496 0.950 . S
C1525 C1524 1.397 . S
C1525 C1526 1.334 . S
C1526 H1497 0.950 . S
C1526 C1525 1.334 . S
C1526 C1527 1.287 . S
C1527 C1526 1.287 . S
C1527 C1528 1.524 . S
C1527 H1530 0.999 . S
C1528 H1498 0.950 . S
C1528 C1527 1.524 . S
C1528 C1529 1.415 . S
C1529 H1499 0.950 . S
C1529 C1524 1.363 . S
C1529 C1528 1.415 . S
H1530 C1527 0.999 . S
H1531 C1512 0.913 . S
H1532 C1550 0.951 . S
H1533 C1552 0.951 . S
H1534 C1554 0.950 . S
H1535 C1555 0.950 . S
H1536 C1557 0.950 . S
H1537 C1560 0.950 . S
H1538 C1561 0.950 . S
H1539 C1563 0.950 . S
H1540 C1564 0.950 . S
H1541 C1565 0.951 . S
H1542 C1567 0.951 . S
H1543 C1569 0.950 . S
H1544 C1570 0.950 . S
H1545 C1572 0.950 . S
H1546 C1575 0.950 . S
H1547 C1576 0.950 . S
H1548 C1578 0.950 . S
H1549 C1579 0.950 . S
C1550 H1532 0.951 . S
C1550 C1551 1.366 . S
C1550 C1552 1.388 . S
C1551 C1550 1.366 . S
C1551 C1555 1.385 . S
C1552 H1533 0.951 . S
C1552 C1550 1.388 . S
C1552 C1553 1.366 . S
C1553 C1552 1.366 . S
C1553 C1554 1.414 . S
C1553 C1556 1.499 . S
C1554 H1534 0.950 . S
C1554 C1553 1.414 . S
C1554 C1555 1.374 . S
C1555 H1535 0.950 . S
C1555 C1551 1.385 . S
C1555 C1554 1.374 . S
C1556 C1553 1.499 . S
C1556 C1557 1.373 . S
C1556 C1558 1.389 . S
C1557 H1536 0.950 . S
C1557 C1556 1.373 . S
C1557 C1573 1.377 . S
C1558 C1556 1.389 . S
C1558 C1559 1.524 . S
C1558 C1572 1.377 . S
C1559 C1558 1.524 . S
C1559 C1560 1.397 . S
C1559 C1564 1.363 . S
C1560 H1537 0.950 . S
C1560 C1559 1.397 . S
C1560 C1561 1.334 . S
C1561 H1538 0.950 . S
C1561 C1560 1.334 . S
C1561 C1562 1.287 . S
C1562 C1561 1.287 . S
C1562 C1563 1.524 . S
C1562 H1581 0.913 . S
C1563 H1539 0.950 . S
C1563 C1562 1.524 . S
C1563 C1564 1.415 . S
C1564 H1540 0.950 . S
C1564 C1559 1.363 . S
C1564 C1563 1.415 . S
C1565 H1541 0.951 . S
C1565 C1566 1.366 . S
C1565 C1567 1.388 . S
C1566 C1565 1.366 . S
C1566 C1570 1.385 . S
C1567 H1542 0.951 . S
C1567 C1565 1.388 . S
C1567 C1568 1.366 . S
C1568 C1567 1.366 . S
C1568 C1569 1.414 . S
C1568 C1571 1.499 . S
C1569 H1543 0.950 . S
C1569 C1568 1.414 . S
C1569 C1570 1.374 . S
C1570 H1544 0.950 . S
C1570 C1566 1.385 . S
C1570 C1569 1.374 . S
C1571 C1568 1.499 . S
C1571 C1572 1.373 . S
C1571 C1573 1.389 . S
C1572 H1545 0.950 . S
C1572 C1558 1.377 . S
C1572 C1571 1.373 . S
C1573 C1557 1.377 . S
C1573 C1571 1.389 . S
C1573 C1574 1.524 . S
C1574 C1573 1.524 . S
C1574 C1575 1.397 . S
C1574 C1579 1.363 . S
C1575 H1546 0.950 . S
C1575 C1574 1.397 . S
C1575 C1576 1.334 . S
C1576 H1547 0.950 . S
C1576 C1575 1.334 . S
C1576 C1577 1.287 . S
C1577 C1576 1.287 . S
C1577 C1578 1.524 . S
C1577 H1580 0.999 . S
C1578 H1548 0.950 . S
C1578 C1577 1.524 . S
C1578 C1579 1.415 . S
C1579 H1549 0.950 . S
C1579 C1574 1.363 . S
C1579 C1578 1.415 . S
H1580 C1577 0.999 . S
H1581 C1562 0.913 . S
H1582 C1600 0.951 . S
H1583 C1602 0.951 . S
H1584 C1604 0.950 . S
H1585 C1605 0.950 . S
H1586 C1607 0.950 . S
H1587 C1610 0.950 . S
H1588 C1611 0.950 . S
H1589 C1613 0.950 . S
H1590 C1614 0.950 . S
H1591 C1615 0.951 . S
H1592 C1617 0.951 . S
H1593 C1619 0.950 . S
H1594 C1620 0.950 . S
H1595 C1622 0.950 . S
H1596 C1625 0.950 . S
H1597 C1626 0.950 . S
H1598 C1628 0.950 . S
H1599 C1629 0.950 . S
C1600 H1582 0.951 . S
C1600 C1601 1.366 . S
C1600 C1602 1.388 . S
C1601 C1600 1.366 . S
C1601 C1605 1.385 . S
C1602 H1583 0.951 . S
C1602 C1600 1.388 . S
C1602 C1603 1.366 . S
C1603 C1602 1.366 . S
C1603 C1604 1.414 . S
C1603 C1606 1.499 . S
C1604 H1584 0.950 . S
C1604 C1603 1.414 . S
C1604 C1605 1.374 . S
C1605 H1585 0.950 . S
C1605 C1601 1.385 . S
C1605 C1604 1.374 . S
C1606 C1603 1.499 . S
C1606 C1607 1.373 . S
C1606 C1608 1.389 . S
C1607 H1586 0.950 . S
C1607 C1606 1.373 . S
C1607 C1623 1.377 . S
C1608 C1606 1.389 . S
C1608 C1609 1.524 . S
C1608 C1622 1.377 . S
C1609 C1608 1.524 . S
C1609 C1610 1.397 . S
C1609 C1614 1.363 . S
C1610 H1587 0.950 . S
C1610 C1609 1.397 . S
C1610 C1611 1.334 . S
C1611 H1588 0.950 . S
C1611 C1610 1.334 . S
C1611 C1612 1.287 . S
C1612 C1611 1.287 . S
C1612 C1613 1.524 . S
C1612 H1631 0.913 . S
C1613 H1589 0.950 . S
C1613 C1612 1.524 . S
C1613 C1614 1.415 . S
C1614 H1590 0.950 . S
C1614 C1609 1.363 . S
C1614 C1613 1.415 . S
C1615 H1591 0.951 . S
C1615 C1616 1.366 . S
C1615 C1617 1.388 . S
C1616 C1615 1.366 . S
C1616 C1620 1.385 . S
C1617 H1592 0.951 . S
C1617 C1615 1.388 . S
C1617 C1618 1.366 . S
C1618 C1617 1.366 . S
C1618 C1619 1.414 . S
C1618 C1621 1.499 . S
C1619 H1593 0.950 . S
C1619 C1618 1.414 . S
C1619 C1620 1.374 . S
C1620 H1594 0.950 . S
C1620 C1616 1.385 . S
C1620 C1619 1.374 . S
C1621 C1618 1.499 . S
C1621 C1622 1.373 . S
C1621 C1623 1.389 . S
C1622 H1595 0.950 . S
C1622 C1608 1.377 . S
C1622 C1621 1.373 . S
C1623 C1607 1.377 . S
C1623 C1621 1.389 . S
C1623 C1624 1.524 . S
C1624 C1623 1.524 . S
C1624 C1625 1.397 . S
C1624 C1629 1.363 . S
C1625 H1596 0.950 . S
C1625 C1624 1.397 . S
C1625 C1626 1.334 . S
C1626 H1597 0.950 . S
C1626 C1625 1.334 . S
C1626 C1627 1.287 . S
C1627 C1626 1.287 . S
C1627 C1628 1.524 . S
C1627 H1630 0.999 . S
C1628 H1598 0.950 . S
C1628 C1627 1.524 . S
C1628 C1629 1.415 . S
C1629 H1599 0.950 . S
C1629 C1624 1.363 . S
C1629 C1628 1.415 . S
H1630 C1627 0.999 . S
H1631 C1612 0.913 . S
C451 C76 1.832 . S
C466 C164 1.940 . S
C516 C247 1.963 . S
C501 C88 1.840 . S
C566 C332 1.928 . S
C551 C52 1.819 . S
C616 C416 1.916 . S
C601 C64 1.809 . S
C666 C152 1.941 . S
C651 C28 1.840 . S
C701 C40 1.847 . S
C716 C235 1.962 . S
C751 C4 1.825 . S
C766 C320 1.927 . S
C801 C16 1.817 . S
C816 C404 1.917 1_655 S
C866 C154 0.551 1_455 S
C851 C69 0.461 . S
C916 C250 0.545 . S
C901 C81 0.432 . S
C966 C322 0.551 . S
C951 C93 0.465 . S
C1001 C57 0.442 . S
C1016 C406 0.540 . S
C1051 C21 0.471 . S
C1066 C166 0.550 . S
C1116 C238 0.546 . S
C1101 C33 0.441 . S
C1166 C334 0.548 . S
C1151 C45 0.475 . S
C1201 C9 0.453 . S
C1216 C418 0.542 . S
C1251 C66 1.865 . S
C1266 C151 2.011 . S
C1301 C78 1.859 . S
C1316 C236 2.004 . S
C1366 C319 2.033 . S
C1351 C90 1.885 . S
C1416 C403 2.039 . S
C1401 C54 1.891 . S
C1451 C18 1.856 . S
C1466 C163 2.012 . S
C1516 C248 2.004 1_565 S
C1501 C30 1.848 . S
C1566 C331 2.033 . S
C1551 C42 1.874 . S
C1601 C6 1.882 . S
C1616 C415 2.038 . S
