# Generated by pormake.
# Topology apo, (3,6)-cn, num edge types: 1
# Building blocks:
#     Node 0, Type 0, BuildingBlock: PAMTOO_clean_linker_0, # of connection points: 3
#     Node 1, Type 0, BuildingBlock: PAMTOO_clean_linker_0, # of connection points: 3
#     Node 2, Type 0, BuildingBlock: PAMTOO_clean_linker_0, # of connection points: 3
#     Node 3, Type 0, BuildingBlock: PAMTOO_clean_linker_0, # of connection points: 3
#     Node 4, Type 0, BuildingBlock: PAMTOO_clean_linker_0, # of connection points: 3
#     Node 5, Type 0, BuildingBlock: PAMTOO_clean_linker_0, # of connection points: 3
#     Node 6, Type 0, BuildingBlock: PAMTOO_clean_linker_0, # of connection points: 3
#     Node 7, Type 0, BuildingBlock: PAMTOO_clean_linker_0, # of connection points: 3
#     Node 8, Type 1, BuildingBlock: KUMBUR_clean_sbu_1, # of connection points: 6
#     Node 9, Type 1, BuildingBlock: KUMBUR_clean_sbu_1, # of connection points: 6
#     Node 10, Type 1, BuildingBlock: KUMBUR_clean_sbu_1, # of connection points: 6
#     Node 11, Type 1, BuildingBlock: KUMBUR_clean_sbu_1, # of connection points: 6
#     Edge 12, Type (0, 1), BuildingBlock: MIFKUJ_clean_linker_0, # of connection points: 2
#     Edge 13, Type (0, 1), BuildingBlock: MIFKUJ_clean_linker_0, # of connection points: 2
#     Edge 14, Type (0, 1), BuildingBlock: MIFKUJ_clean_linker_0, # of connection points: 2
#     Edge 15, Type (0, 1), BuildingBlock: MIFKUJ_clean_linker_0, # of connection points: 2
#     Edge 16, Type (0, 1), BuildingBlock: MIFKUJ_clean_linker_0, # of connection points: 2
#     Edge 17, Type (0, 1), BuildingBlock: MIFKUJ_clean_linker_0, # of connection points: 2
#     Edge 18, Type (0, 1), BuildingBlock: MIFKUJ_clean_linker_0, # of connection points: 2
#     Edge 19, Type (0, 1), BuildingBlock: MIFKUJ_clean_linker_0, # of connection points: 2
#     Edge 20, Type (0, 1), BuildingBlock: MIFKUJ_clean_linker_0, # of connection points: 2
#     Edge 21, Type (0, 1), BuildingBlock: MIFKUJ_clean_linker_0, # of connection points: 2
#     Edge 22, Type (0, 1), BuildingBlock: MIFKUJ_clean_linker_0, # of connection points: 2
#     Edge 23, Type (0, 1), BuildingBlock: MIFKUJ_clean_linker_0, # of connection points: 2
#     Edge 24, Type (0, 1), BuildingBlock: MIFKUJ_clean_linker_0, # of connection points: 2
#     Edge 25, Type (0, 1), BuildingBlock: MIFKUJ_clean_linker_0, # of connection points: 2
#     Edge 26, Type (0, 1), BuildingBlock: MIFKUJ_clean_linker_0, # of connection points: 2
#     Edge 27, Type (0, 1), BuildingBlock: MIFKUJ_clean_linker_0, # of connection points: 2
#     Edge 28, Type (0, 1), BuildingBlock: MIFKUJ_clean_linker_0, # of connection points: 2
#     Edge 29, Type (0, 1), BuildingBlock: MIFKUJ_clean_linker_0, # of connection points: 2
#     Edge 30, Type (0, 1), BuildingBlock: MIFKUJ_clean_linker_0, # of connection points: 2
#     Edge 31, Type (0, 1), BuildingBlock: MIFKUJ_clean_linker_0, # of connection points: 2
#     Edge 32, Type (0, 1), BuildingBlock: MIFKUJ_clean_linker_0, # of connection points: 2
#     Edge 33, Type (0, 1), BuildingBlock: MIFKUJ_clean_linker_0, # of connection points: 2
#     Edge 34, Type (0, 1), BuildingBlock: MIFKUJ_clean_linker_0, # of connection points: 2
#     Edge 35, Type (0, 1), BuildingBlock: MIFKUJ_clean_linker_0, # of connection points: 2
# Relax obj value: 0.041
# Max RMSD: 0.211
# Mean RMSD: 0.154
data_MOF--net-apo--node1-KUMBUR_clean_sbu_1--node2-PAMTOO_clean_linker_0--edge1-MIFKUJ_clean_linker_0
_symmetry_space_group_name_H-M    P1
_symmetry_Int_Tables_number       1
_symmetry_cell_setting            triclinic
loop_
_symmetry_equiv_pos_as_xyz
'x, y, z'
_cell_length_a     35.373879
_cell_length_b     55.704851
_cell_length_c     64.001091
_cell_angle_alpha  89.992334
_cell_angle_beta   90.256086
_cell_angle_gamma 90.219806
loop_
_atom_site_label
_atom_site_type_symbol
_atom_site_fract_x
_atom_site_fract_y
_atom_site_fract_z
_atom_type_partial_charge
H0 H 0.35681 0.4154 0.4296 0.0
H1 H 0.2984 0.38128 0.37844 0.0
H2 H 0.28458 0.35413 0.44053 0.0
H3 H 0.28643 0.31531 0.41067 0.0
C4 C 0.28073 0.32559 0.39611 0.0
O5 O 0.26683 0.34798 0.40123 0.0
H6 H 0.30782 0.32764 0.38745 0.0
C7 C 0.33779 0.40159 0.42389 0.0
C8 C 0.32202 0.38495 0.438 0.0
C9 C 0.32913 0.40076 0.40242 0.0
C10 C 0.30499 0.38256 0.39496 0.0
C11 C 0.28954 0.36564 0.40869 0.0
C12 C 0.29759 0.36704 0.43013 0.0
H13 H 0.15932 0.09382 0.9262 0.0
H14 H 0.22278 0.15924 0.93527 0.0
H15 H 0.21874 0.12626 0.87478 0.0
H16 H 0.29386 0.14402 0.89047 0.0
C17 C 0.28406 0.16131 0.89726 0.0
O18 O 0.24513 0.16244 0.89649 0.0
H19 H 0.29376 0.16199 0.91381 0.0
C20 C 0.17716 0.10802 0.9201 0.0
C21 C 0.18739 0.10766 0.89889 0.0
C22 C 0.18977 0.12644 0.9335 0.0
C23 C 0.21252 0.1449 0.92528 0.0
C24 C 0.2231 0.14466 0.90421 0.0
C25 C 0.21065 0.12608 0.89109 0.0
H26 H 0.85145 0.10047 0.59475 0.0
H27 H 0.78765 0.1307 0.64572 0.0
H28 H 0.78873 0.16578 0.58626 0.0
H29 H 0.79554 0.19944 0.62068 0.0
C30 C 0.78279 0.18856 0.63344 0.0
O31 O 0.76578 0.16838 0.62503 0.0
H32 H 0.80608 0.18328 0.64425 0.0
C33 C 0.83283 0.11407 0.60098 0.0
C34 C 0.82091 0.13286 0.58784 0.0
C35 C 0.82096 0.11277 0.62197 0.0
C36 C 0.79755 0.13111 0.62974 0.0
C37 C 0.7865 0.15026 0.61696 0.0
C38 C 0.79754 0.15088 0.59599 0.0
H39 H 0.66918 0.40789 0.08993 0.0
H40 H 0.74351 0.34698 0.08449 0.0
H41 H 0.7314 0.38181 0.14339 0.0
H42 H 0.80594 0.36687 0.13405 0.0
C43 C 0.80023 0.34947 0.12607 0.0
O44 O 0.76178 0.34595 0.12393 0.0
H45 H 0.81341 0.35017 0.11032 0.0
C46 C 0.68939 0.39561 0.09677 0.0
C47 C 0.69852 0.39761 0.11821 0.0
C48 C 0.70537 0.37746 0.08423 0.0
C49 C 0.73029 0.36096 0.09364 0.0
C50 C 0.73892 0.36243 0.11494 0.0
C51 C 0.72334 0.38071 0.12708 0.0
H52 H 0.66219 0.58789 0.59065 0.0
H53 H 0.72521 0.65339 0.58141 0.0
H54 H 0.71916 0.62189 0.64246 0.0
H55 H 0.70455 0.67448 0.63823 0.0
C56 C 0.72805 0.67897 0.62738 0.0
O57 O 0.7451 0.65806 0.62068 0.0
H58 H 0.71614 0.68861 0.61364 0.0
C59 C 0.67932 0.60244 0.59683 0.0
C60 C 0.68906 0.60254 0.61817 0.0
C61 C 0.6924 0.62056 0.5833 0.0
C62 C 0.71535 0.63903 0.59145 0.0
C63 C 0.72459 0.63958 0.61277 0.0
C64 C 0.71189 0.62122 0.626 0.0
H65 H 0.85699 0.91112 0.0944 0.0
H66 H 0.79603 0.87951 0.14563 0.0
H67 H 0.79202 0.84618 0.08532 0.0
H68 H 0.72124 0.8412 0.10698 0.0
C69 C 0.73091 0.84384 0.12337 0.0
O70 O 0.76992 0.84308 0.12417 0.0
H71 H 0.72103 0.86175 0.12878 0.0
C72 C 0.83869 0.8971 0.10041 0.0
C73 C 0.82573 0.87874 0.087 0.0
C74 C 0.82801 0.89766 0.12156 0.0
C75 C 0.80433 0.87948 0.12935 0.0
C76 C 0.79182 0.86087 0.11632 0.0
C77 C 0.80253 0.86049 0.09526 0.0
H78 H 0.16031 0.90788 0.4271 0.0
H79 H 0.21991 0.84096 0.43317 0.0
H80 H 0.22185 0.87886 0.37492 0.0
H81 H 0.20441 0.82572 0.37478 0.0
C82 C 0.2274 0.82013 0.38568 0.0
O83 O 0.24388 0.84027 0.39451 0.0
H84 H 0.21485 0.8088 0.39817 0.0
C85 C 0.17803 0.89407 0.4204 0.0
C86 C 0.18986 0.89609 0.3995 0.0
C87 C 0.18877 0.87435 0.43277 0.0
C88 C 0.21163 0.85643 0.42399 0.0
C89 C 0.22289 0.85795 0.40306 0.0
C90 C 0.21225 0.87776 0.39094 0.0
H91 H 0.34973 0.6019 0.9293 0.0
H92 H 0.28954 0.63143 0.87644 0.0
H93 H 0.2938 0.67015 0.9342 0.0
H94 H 0.2197 0.67115 0.91417 0.0
C95 C 0.22816 0.6693 0.89752 0.0
O96 O 0.26704 0.66979 0.89604 0.0
H97 H 0.21701 0.65178 0.89174 0.0
C98 C 0.33285 0.61598 0.92227 0.0
C99 C 0.32347 0.63626 0.93424 0.0
C100 C 0.3211 0.61399 0.90126 0.0
C101 C 0.29874 0.63234 0.89259 0.0
C102 C 0.28873 0.65237 0.90453 0.0
C103 C 0.30153 0.65447 0.92517 0.0
Tb104 Tb 0.05448 0.12784 0.23999 0.0
C105 C 0.89587 0.09953 0.27124 0.0
N106 N 0.9115 0.12186 0.27118 0.0
C107 C 0.85378 0.13829 0.25769 0.0
C108 C 0.85861 0.09564 0.26406 0.0
C109 C 0.89092 0.14123 0.26484 0.0
C110 C 0.83757 0.1154 0.25722 0.0
C111 C 0.90327 0.05681 0.27723 0.0
C112 C 0.91809 0.08035 0.27761 0.0
C113 C 0.86619 0.05283 0.27005 0.0
C114 C 0.8439 0.0722 0.2635 0.0
Tb115 Tb 0.97203 0.12446 0.2834 0.0
N116 N 0.95427 0.0848 0.28397 0.0
C117 C 0.92607 0.03799 0.28424 0.0
C118 C 0.9751 0.06675 0.29265 0.0
C119 C 0.96193 0.04305 0.2923 0.0
H120 H 0.90277 0.15901 0.2657 0.0
H121 H 0.97907 0.02877 0.29873 0.0
H122 H 0.11334 0.08199 0.24687 0.0
H123 H 0.07677 0.22386 0.23849 0.0
H124 H 0.00101 0.07047 0.30077 0.0
H125 H 0.91582 0.01964 0.28415 0.0
H126 H 0.03986 0.18655 0.23474 0.0
H127 H 0.83762 0.15371 0.25262 0.0
H128 H 0.85444 0.03485 0.26955 0.0
H129 H 0.8154 0.06883 0.25793 0.0
H130 H 0.18059 0.07646 0.25602 0.0
H131 H 0.80886 0.11316 0.25156 0.0
H132 H 0.14473 0.22199 0.24768 0.0
N133 N 0.11648 0.12015 0.24735 0.0
C134 C 0.13918 0.13977 0.24935 0.0
C135 C 0.16923 0.09437 0.25432 0.0
C136 C 0.17786 0.13745 0.25426 0.0
C137 C 0.13101 0.09758 0.24942 0.0
C138 C 0.19274 0.11439 0.25685 0.0
N139 N 0.08559 0.16374 0.24276 0.0
C140 C 0.06911 0.18545 0.23912 0.0
C141 C 0.14575 0.18315 0.24881 0.0
C142 C 0.12338 0.16231 0.24664 0.0
C143 C 0.12857 0.20553 0.24609 0.0
C144 C 0.09016 0.20666 0.24102 0.0
H145 H 0.22233 0.11184 0.26065 0.0
H146 H 0.23009 0.15677 0.26034 0.0
H147 H 0.20195 0.19677 0.2556 0.0
O148 O 0.0412 0.13832 0.20922 0.0
O149 O 0.06572 0.14556 0.27001 0.0
O150 O 0.009 0.15619 0.2856 0.0
O151 O 0.08748 0.11452 0.21534 0.0
O152 O 1.00051 0.14638 0.23456 0.0
O153 O 0.97329 0.15823 0.26585 0.0
O154 O 0.97262 0.11563 0.31541 0.0
O155 O 0.96214 0.11043 0.2514 0.0
O156 O 0.01937 0.09551 0.2408 0.0
O157 O 0.93345 0.14146 0.3035 0.0
O158 O 0.02838 0.10959 0.2906 0.0
O159 O 0.05078 0.0955 0.25909 0.0
C160 C 0.04582 0.15848 0.28314 0.0
C161 C 0.05633 0.11024 0.18302 0.0
C162 C 0.05914 0.1019 0.14551 0.0
C163 C 0.0373 0.08104 0.14889 0.0
C164 C 0.03452 0.08952 0.18589 0.0
C165 C 0.02491 0.07504 0.16891 0.0
C166 C 0.06832 0.11652 0.16285 0.0
C167 C 0.98011 0.16137 0.24576 0.0
C168 C 0.06754 0.12512 0.201 0.0
C169 C 0.20032 0.15817 0.2565 0.0
C170 C 0.1843 0.18096 0.25378 0.0
C171 C 0.98224 0.09458 0.24105 0.0
C172 C 0.95476 0.14661 0.33822 0.0
C173 C 0.95031 0.15501 0.37561 0.0
C174 C 0.97264 0.17565 0.3727 0.0
C175 C 0.97686 0.16733 0.33574 0.0
C176 C 0.94125 0.14055 0.3582 0.0
C177 C 0.9858 0.18175 0.35288 0.0
C178 C 0.05075 0.09553 0.27963 0.0
C179 C 0.9465 0.13101 0.32016 0.0
H180 H 0.03033 0.069 0.13616 0.0
H181 H 0.02537 0.08448 0.2013 0.0
H182 H 0.00825 0.05894 0.17131 0.0
H183 H 0.08471 0.13281 0.16074 0.0
H184 H 0.97948 0.18725 0.38578 0.0
H185 H 0.98703 0.17234 0.32052 0.0
H186 H 0.92427 0.12448 0.36025 0.0
H187 H 0.00292 0.19772 0.35078 0.0
Tb188 Tb 0.4615 0.37945 0.74354 0.0
C189 C 0.61577 0.4149 0.7797 0.0
N190 N 0.60267 0.39238 0.77603 0.0
C191 C 0.66178 0.38175 0.76037 0.0
C192 C 0.65209 0.42208 0.77315 0.0
C193 C 0.62544 0.37556 0.76708 0.0
C194 C 0.67505 0.40519 0.76321 0.0
C195 C 0.60552 0.45396 0.79506 0.0
C196 C 0.59272 0.43058 0.79037 0.0
C197 C 0.64099 0.46166 0.78778 0.0
C198 C 0.66428 0.44572 0.77687 0.0
Tb199 Tb 0.54337 0.38383 0.78787 0.0
N200 N 0.55892 0.4223 0.79743 0.0
C201 C 0.58311 0.46847 0.80773 0.0
C202 C 0.53878 0.43565 0.81136 0.0
C203 C 0.54998 0.45907 0.8163 0.0
H204 H 0.61577 0.35733 0.76521 0.0
H205 H 0.53359 0.46955 0.82719 0.0
H206 H 0.39824 0.41975 0.76185 0.0
H207 H 0.4424 0.28633 0.72371 0.0
H208 H 0.51487 0.42802 0.81936 0.0
H209 H 0.59225 0.48643 0.81184 0.0
H210 H 0.47423 0.32605 0.72299 0.0
H211 H 0.67959 0.3684 0.75314 0.0
H212 H 0.65112 0.47966 0.79104 0.0
H213 H 0.6919 0.45171 0.77174 0.0
H214 H 0.33953 0.41843 0.78204 0.0
H215 H 0.70317 0.40995 0.75796 0.0
H216 H 0.3838 0.28083 0.74424 0.0
N217 N 0.40453 0.38164 0.76062 0.0
C218 C 0.38615 0.36029 0.76297 0.0
C219 C 0.35277 0.40187 0.77717 0.0
C220 C 0.35141 0.35875 0.77362 0.0
C221 C 0.38687 0.40248 0.7662 0.0
C222 C 0.33537 0.37986 0.78132 0.0
N223 N 0.43443 0.34233 0.74327 0.0
C224 C 0.44867 0.32368 0.73196 0.0
C225 C 0.38212 0.31785 0.75453 0.0
C226 C 0.40108 0.34009 0.75353 0.0
C227 C 0.39753 0.29824 0.74388 0.0
C228 C 0.43067 0.30126 0.73231 0.0
H229 H 0.30871 0.37948 0.78959 0.0
H230 H 0.30669 0.33483 0.78388 0.0
H231 H 0.33367 0.29898 0.76719 0.0
O232 O 0.4719 0.37865 0.71106 0.0
O233 O 0.47286 0.35047 0.76588 0.0
O234 O 0.48641 0.3713 0.7954 0.0
O235 O 0.4173 0.38775 0.72286 0.0
O236 O 0.51577 0.36288 0.73549 0.0
O237 O 0.54568 0.35247 0.76689 0.0
O238 O 0.56327 0.38593 0.81888 0.0
O239 O 0.55547 0.39798 0.75625 0.0
O240 O 0.49762 0.41125 0.74439 0.0
O241 O 0.56299 0.35233 0.80245 0.0
O242 O 0.48818 0.40074 0.79387 0.0
O243 O 0.46398 0.41304 0.76197 0.0
C244 C 0.47113 0.35269 0.78618 0.0
C245 C 0.43465 0.40534 0.69098 0.0
C246 C 0.42307 0.41806 0.65487 0.0
C247 C 0.42205 0.44206 0.66187 0.0
C248 C 0.43337 0.42933 0.69751 0.0
C249 C 0.42752 0.44759 0.68296 0.0
C250 C 0.43 0.39981 0.6697 0.0
C251 C 0.54057 0.35029 0.74644 0.0
C252 C 0.43803 0.38578 0.7063 0.0
C253 C 0.33317 0.3364 0.77553 0.0
C254 C 0.34844 0.316 0.76596 0.0
C255 C 0.53475 0.41172 0.74397 0.0
C256 C 0.60882 0.35758 0.82955 0.0
C257 C 0.64681 0.35465 0.8615 0.0
C258 C 0.67612 0.34431 0.84984 0.0
C259 C 0.63847 0.34723 0.8182 0.0
C260 C 0.61332 0.36145 0.85116 0.0
C261 C 0.67199 0.34079 0.82832 0.0
C262 C 0.46929 0.41619 0.78226 0.0
C263 C 0.57224 0.3634 0.81965 0.0
H264 H 0.41599 0.45664 0.6512 0.0
H265 H 0.43616 0.43387 0.7139 0.0
H266 H 0.42634 0.46608 0.68811 0.0
H267 H 0.43136 0.3812 0.66485 0.0
H268 H 0.7023 0.33905 0.85736 0.0
H269 H 0.63561 0.34383 0.80163 0.0
H270 H 0.59027 0.3691 0.86004 0.0
H271 H 0.69474 0.33281 0.81949 0.0
Tb272 Tb 0.03945 0.88029 0.73623 0.0
C273 C 0.88333 0.85153 0.76733 0.0
N274 N 0.898 0.87413 0.76719 0.0
C275 C 0.84023 0.88945 0.75284 0.0
C276 C 0.84649 0.84696 0.7598 0.0
C277 C 0.87705 0.89309 0.76026 0.0
C278 C 0.82489 0.86629 0.75257 0.0
C279 C 0.8925 0.80899 0.77352 0.0
C280 C 0.9063 0.83277 0.77393 0.0
C281 C 0.85581 0.80433 0.76601 0.0
C282 C 0.83286 0.82326 0.7592 0.0
Tb283 Tb 0.95769 0.87785 0.7802 0.0
N284 N 0.94212 0.83785 0.7806 0.0
C285 C 0.91583 0.79061 0.7809 0.0
C286 C 0.96352 0.82021 0.78951 0.0
C287 C 0.95122 0.79632 0.78927 0.0
H288 H 0.8885 0.91108 0.76069 0.0
H289 H 0.96871 0.78239 0.796 0.0
H290 H 0.09473 0.83256 0.7402 0.0
H291 H 0.06989 0.97531 0.73377 0.0
H292 H 0.98928 0.82434 0.79768 0.0
H293 H 0.90631 0.7721 0.78085 0.0
H294 H 0.02938 0.93927 0.73117 0.0
H295 H 0.82368 0.90451 0.74738 0.0
H296 H 0.84487 0.78615 0.76546 0.0
H297 H 0.80471 0.81936 0.75335 0.0
H298 H 0.16221 0.82441 0.7468 0.0
H299 H 0.79647 0.86352 0.74663 0.0
H300 H 0.13818 0.97109 0.74149 0.0
N301 N 0.10107 0.87043 0.74214 0.0
C302 C 0.12552 0.8892 0.74383 0.0
C303 C 0.15224 0.84273 0.74633 0.0
C304 C 0.16441 0.88546 0.7473 0.0
C305 C 0.1139 0.84736 0.74293 0.0
C306 C 0.1776 0.86185 0.74868 0.0
N307 N 0.07372 0.91501 0.73852 0.0
C308 C 0.05889 0.93723 0.73489 0.0
C309 C 0.13585 0.93227 0.74301 0.0
C310 C 0.11153 0.91226 0.74162 0.0
C311 C 0.12047 0.95522 0.74047 0.0
C312 C 0.08189 0.95768 0.73619 0.0
H313 H 0.20736 0.85822 0.75111 0.0
H314 H 0.21879 0.90286 0.75173 0.0
H315 H 0.19374 0.94386 0.74808 0.0
O316 O 0.02416 0.89117 0.70588 0.0
O317 O 0.05132 0.90031 0.76528 0.0
O318 O 0.99543 0.90888 0.78308 0.0
O319 O 0.07033 0.86693 0.7107 0.0
O320 O 0.98693 0.90054 0.73137 0.0
O321 O 0.95952 0.91179 0.76294 0.0
O322 O 0.95615 0.86939 0.81232 0.0
O323 O 0.94764 0.86606 0.74777 0.0
O324 O 0.00277 0.84851 0.7373 0.0
O325 O 0.91784 0.89505 0.79929 0.0
O326 O 0.01422 0.86378 0.78762 0.0
O327 O 0.03514 0.84872 0.75628 0.0
C328 C 0.03159 0.91246 0.77912 0.0
C329 C 0.03752 0.86387 0.67878 0.0
C330 C 0.04224 0.85452 0.64161 0.0
C331 C 0.01364 0.83714 0.64399 0.0
C332 C 0.00925 0.84642 0.68082 0.0
C333 C 0.99755 0.83302 0.66355 0.0
C334 C 0.05423 0.86778 0.65919 0.0
C335 C 0.96665 0.91528 0.74291 0.0
C336 C 0.04985 0.87806 0.69694 0.0
C337 C 0.18882 0.90535 0.74897 0.0
C338 C 0.17456 0.9287 0.74686 0.0
C339 C 0.96565 0.84934 0.7374 0.0
C340 C 0.93647 0.9008 0.83439 0.0
C341 C 0.93225 0.90836 0.87199 0.0
C342 C 0.94776 0.93136 0.86869 0.0
C343 C 0.95205 0.92374 0.83159 0.0
C344 C 0.92669 0.89313 0.85462 0.0
C345 C 0.9578 0.93888 0.84866 0.0
C346 C 0.03718 0.85008 0.77675 0.0
C347 C 0.92982 0.8849 0.81632 0.0
H348 H 0.00419 0.82647 0.63081 0.0
H349 H 0.99641 0.8432 0.69576 0.0
H350 H 0.97614 0.81931 0.66539 0.0
H351 H 0.07613 0.88132 0.65757 0.0
H352 H 0.95148 0.94374 0.88157 0.0
H353 H 0.95921 0.93001 0.81615 0.0
H354 H 0.91493 0.87531 0.85679 0.0
H355 H 0.96968 0.95661 0.84634 0.0
Tb356 Tb 0.46991 0.62531 0.23676 0.0
C357 C 0.61704 0.66319 0.26961 0.0
N358 N 0.60816 0.63967 0.26698 0.0
C359 C 0.66659 0.63322 0.24905 0.0
C360 C 0.65031 0.67302 0.26112 0.0
C361 C 0.63298 0.62437 0.25764 0.0
C362 C 0.67506 0.65772 0.25054 0.0
C363 C 0.6011 0.70163 0.28471 0.0
C364 C 0.59264 0.67723 0.28109 0.0
C365 C 0.63324 0.71194 0.27541 0.0
C366 C 0.65784 0.69764 0.26365 0.0
Tb367 Tb 0.55222 0.62706 0.28084 0.0
N368 N 0.56205 0.6665 0.28989 0.0
C369 C 0.57792 0.71459 0.29827 0.0
C370 C 0.54201 0.6784 0.30485 0.0
C371 C 0.54885 0.70271 0.3088 0.0
H372 H 0.62638 0.60545 0.25644 0.0
H373 H 0.53217 0.71205 0.32032 0.0
H374 H 0.41183 0.6712 0.24673 0.0
H375 H 0.43045 0.53441 0.21796 0.0
H376 H 0.52114 0.66916 0.31413 0.0
H377 H 0.58342 0.73337 0.30153 0.0
H378 H 0.4707 0.57099 0.21679 0.0
H379 H 0.68586 0.62119 0.24123 0.0
H380 H 0.63994 0.73074 0.27775 0.0
H381 H 0.68298 0.70567 0.25696 0.0
H382 H 0.35063 0.67696 0.26438 0.0
H383 H 0.70097 0.66456 0.24377 0.0
H384 H 0.37173 0.53423 0.23885 0.0
N385 N 0.4112 0.6332 0.25021 0.0
C386 C 0.38928 0.61372 0.25423 0.0
C387 C 0.36145 0.65903 0.26198 0.0
C388 C 0.35331 0.61601 0.26338 0.0
C389 C 0.39651 0.65572 0.25237 0.0
C390 C 0.34012 0.63905 0.268 0.0
N391 N 0.43484 0.59089 0.23687 0.0
C392 C 0.44485 0.57098 0.22575 0.0
C393 C 0.37776 0.57137 0.24834 0.0
C394 C 0.40122 0.59176 0.2469 0.0
C395 C 0.38908 0.55028 0.23828 0.0
C396 C 0.42228 0.55029 0.22647 0.0
H397 H 0.31267 0.64164 0.27508 0.0
H398 H 0.3034 0.59673 0.27371 0.0
H399 H 0.32483 0.55755 0.26046 0.0
O400 O 0.48814 0.62525 0.20548 0.0
O401 O 0.4778 0.5947 0.2581 0.0
O402 O 0.49691 0.61199 0.28889 0.0
O403 O 0.43112 0.63433 0.21305 0.0
O404 O 0.52173 0.60524 0.22949 0.0
O405 O 0.55406 0.59529 0.26038 0.0
O406 O 0.57785 0.63033 0.31055 0.0
O407 O 0.56067 0.63936 0.2484 0.0
O408 O 0.50503 0.65737 0.23981 0.0
O409 O 0.57812 0.59681 0.2943 0.0
O410 O 0.49611 0.64136 0.28899 0.0
O411 O 0.47347 0.6566 0.25784 0.0
C412 C 0.4793 0.59488 0.27859 0.0
C413 C 0.4572 0.65274 0.18338 0.0
C414 C 0.44689 0.66756 0.14781 0.0
C415 C 0.45592 0.69088 0.15485 0.0
C416 C 0.4664 0.67602 0.18998 0.0
C417 C 0.46594 0.69496 0.17571 0.0
C418 C 0.44802 0.64852 0.16234 0.0
C419 C 0.54616 0.59215 0.2403 0.0
C420 C 0.45591 0.63269 0.19826 0.0
C421 C 0.33091 0.59541 0.26643 0.0
C422 C 0.34308 0.5731 0.25886 0.0
C423 C 0.54202 0.65684 0.23935 0.0
C424 C 0.57208 0.59555 0.33122 0.0
C425 C 0.57261 0.5923 0.36944 0.0
C426 C 0.54521 0.574 0.36796 0.0
C427 C 0.54483 0.57715 0.33029 0.0
C428 C 0.58608 0.60296 0.35088 0.0
C429 C 0.53144 0.5666 0.34858 0.0
C430 C 0.47493 0.65661 0.27842 0.0
C431 C 0.58509 0.6076 0.31192 0.0
H432 H 0.45475 0.7061 0.14436 0.0
H433 H 0.47349 0.67957 0.20617 0.0
H434 H 0.47288 0.71295 0.1809 0.0
H435 H 0.44179 0.63033 0.15739 0.0
H436 H 0.53465 0.56513 0.38184 0.0
H437 H 0.53369 0.57097 0.31546 0.0
H438 H 0.60685 0.61729 0.3517 0.0
H439 H 0.51018 0.55265 0.3478 0.0
H440 H 0.16735 0.897 0.3584 0.0
H441 H 0.14816 0.93183 0.33771 0.0
H442 H 0.16709 0.97786 0.39094 0.0
H443 H 0.18689 0.94322 0.41165 0.0
H444 H 0.09972 0.98709 0.37191 0.0
H445 H 0.22915 0.9774 0.35115 0.0
H446 H 0.2842 0.95522 0.33782 0.0
H447 H 0.22548 0.94172 0.28012 0.0
H448 H 0.16984 0.96354 0.29323 0.0
H449 H 0.07849 0.0973 0.31939 0.0
H450 H 0.1071 0.06451 0.33933 0.0
H451 H 0.09753 0.01815 0.28552 0.0
H452 H 0.07001 0.05109 0.26538 0.0
H453 H 0.16145 0.00945 0.30518 0.0
H454 H 0.03149 0.0175 0.32586 0.0
H455 H 0.97567 0.03929 0.33884 0.0
H456 H 0.03406 0.05505 0.39617 0.0
H457 H 0.09037 0.03358 0.38348 0.0
C458 C 0.16792 0.91456 0.36565 0.0
C459 C 0.17868 0.91728 0.38671 0.0
C460 C 0.15683 0.93446 0.3538 0.0
C461 C 0.15642 0.95748 0.36274 0.0
C462 C 0.16708 0.96025 0.38374 0.0
C463 C 0.17825 0.9404 0.39558 0.0
C464 C 0.14424 0.97863 0.35032 0.0
C465 C 0.11355 0.99219 0.35747 0.0
C466 C 0.1617 0.98492 0.33122 0.0
C467 C 0.1952 0.97191 0.32326 0.0
C468 C 0.22786 0.96954 0.33569 0.0
C469 C 0.2592 0.95706 0.32816 0.0
C470 C 0.25831 0.94702 0.30816 0.0
C471 C 0.22611 0.94949 0.29562 0.0
C472 C 0.19468 0.96192 0.30309 0.0
C473 C 0.08301 0.08019 0.31176 0.0
C474 C 0.07204 0.07671 0.29087 0.0
C475 C 0.09914 0.06143 0.32318 0.0
C476 C 0.10373 0.03868 0.31407 0.0
C477 C 0.09422 0.0355 0.29292 0.0
C478 C 0.07859 0.05436 0.2814 0.0
C479 C 0.11689 0.01794 0.32676 0.0
C480 C 0.14767 1.00441 0.31965 0.0
C481 C 0.09933 0.01155 0.34584 0.0
C482 C 0.06526 0.02412 0.35364 0.0
C483 C 0.03248 0.02573 0.34119 0.0
C484 C 1.00077 0.03801 0.34849 0.0
C485 C 0.00139 0.04862 0.36827 0.0
C486 C 0.03365 0.04686 0.38084 0.0
C487 C 0.06545 0.03461 0.37361 0.0
H488 H 0.97682 0.05815 0.37387 0.0
H489 H 0.28259 0.93736 0.30236 0.0
H490 H 0.27979 0.58898 0.87187 0.0
H491 H 0.3013 0.55619 0.84945 0.0
H492 H 0.41103 0.55895 0.87905 0.0
H493 H 0.39034 0.59228 0.9008 0.0
H494 H 0.41878 0.5561 0.83844 0.0
H495 H 0.34459 0.51468 0.89038 0.0
H496 H 0.28697 0.50584 0.91057 0.0
H497 H 0.22736 0.48857 0.85391 0.0
H498 H 0.28454 0.49761 0.83336 0.0
H499 H 0.44281 0.41844 0.82207 0.0
H500 H 0.41596 0.45299 0.84005 0.0
H501 H 0.42651 0.4952 0.7838 0.0
H502 H 0.45457 0.46065 0.7659 0.0
H503 H 0.35466 0.4769 0.83499 0.0
H504 H 0.43607 0.54972 0.7928 0.0
H505 H 0.4992 0.56112 0.77963 0.0
H506 H 0.55133 0.51553 0.82539 0.0
H507 H 0.48852 0.50328 0.83832 0.0
C508 C 0.30858 0.5827 0.87352 0.0
C509 C 0.3333 0.59328 0.88821 0.0
C510 C 0.32072 0.56379 0.86081 0.0
C511 C 0.35772 0.55496 0.86264 0.0
C512 C 0.38234 0.56543 0.87734 0.0
C513 C 0.37032 0.58435 0.88995 0.0
C514 C 0.3714 0.53513 0.84911 0.0
C515 C 0.40454 0.53883 0.83759 0.0
C516 C 0.35304 0.51254 0.84799 0.0
C517 C 0.31869 0.50709 0.86032 0.0
C518 C 0.3191 0.50919 0.88222 0.0
C519 C 0.28654 0.5041 0.89373 0.0
C520 C 0.25349 0.49672 0.88353 0.0
C521 C 0.25296 0.49434 0.86179 0.0
C522 C 0.28543 0.49943 0.8502 0.0
C523 C 0.43958 0.43513 0.81357 0.0
C524 C 0.45113 0.43692 0.79265 0.0
C525 C 0.42408 0.45487 0.82383 0.0
C526 C 0.41953 0.4769 0.81343 0.0
C527 C 0.43035 0.47861 0.79235 0.0
C528 C 0.44599 0.45878 0.78205 0.0
C529 C 0.4027 0.49767 0.82471 0.0
C530 C 0.36864 0.49425 0.83562 0.0
C531 C 0.42057 0.52041 0.82565 0.0
C532 C 0.45778 0.5252 0.81616 0.0
C533 C 0.46107 0.54174 0.7997 0.0
C534 C 0.49675 0.54835 0.7923 0.0
C535 C 0.52928 0.53869 0.8014 0.0
C536 C 0.52615 0.52243 0.81793 0.0
C537 C 0.49054 0.51552 0.82521 0.0
H538 H 0.5569 0.54397 0.79578 0.0
H539 H 0.22831 0.49279 0.89246 0.0
H540 H 0.72931 0.57655 0.64693 0.0
H541 H 0.70625 0.5438 0.66922 0.0
H542 H 0.59428 0.55227 0.64342 0.0
H543 H 0.61714 0.58493 0.6211 0.0
H544 H 0.59561 0.54749 0.68746 0.0
H545 H 0.64659 0.50852 0.62613 0.0
H546 H 0.6965 0.49931 0.60061 0.0
H547 H 0.76716 0.47203 0.64984 0.0
H548 H 0.71783 0.48141 0.67571 0.0
H549 H 0.50069 0.44494 0.719 0.0
H550 H 0.53003 0.47525 0.6972 0.0
H551 H 0.6404 0.45073 0.71647 0.0
H552 H 0.61074 0.41813 0.73618 0.0
H553 H 0.6445 0.46476 0.67829 0.0
H554 H 0.5926 0.50075 0.7397 0.0
H555 H 0.54058 0.50627 0.76472 0.0
H556 H 0.47309 0.53924 0.71681 0.0
H557 H 0.5243 0.53329 0.69133 0.0
C558 C 0.69973 0.57152 0.64614 0.0
C559 C 0.67505 0.58322 0.63221 0.0
C560 C 0.68665 0.55277 0.6588 0.0
C561 C 0.64859 0.54554 0.65789 0.0
C562 C 0.62374 0.55756 0.64435 0.0
C563 C 0.63688 0.57609 0.63152 0.0
C564 C 0.63465 0.52514 0.67071 0.0
C565 C 0.60616 0.52938 0.68541 0.0
C566 C 0.64914 0.50163 0.66843 0.0
C567 C 0.67872 0.49593 0.65288 0.0
C568 C 0.67291 0.50076 0.63154 0.0
C569 C 0.70106 0.49547 0.617 0.0
C570 C 0.73503 0.48517 0.62361 0.0
C571 C 0.74087 0.48006 0.64475 0.0
C572 C 0.71282 0.48535 0.65935 0.0
C573 C 0.53118 0.44564 0.71841 0.0
C574 C 0.55332 0.42954 0.73008 0.0
C575 C 0.54803 0.46329 0.70609 0.0
C576 C 0.5875 0.46612 0.70591 0.0
C577 C 0.60985 0.44935 0.7167 0.0
C578 C 0.59288 0.43099 0.72838 0.0
C579 C 0.60499 0.48697 0.69493 0.0
C580 C 0.63425 0.48289 0.68062 0.0
C581 C 0.59157 0.51073 0.69779 0.0
C582 C 0.56224 0.51644 0.71356 0.0
C583 C 0.56673 0.50929 0.73452 0.0
C584 C 0.53731 0.51239 0.74876 0.0
C585 C 0.50351 0.52304 0.74233 0.0
C586 C 0.49928 0.53095 0.72174 0.0
C587 C 0.5285 0.52772 0.70739 0.0
H588 H 0.48049 0.52507 0.75325 0.0
H589 H 0.75679 0.48108 0.61233 0.0
H590 H 0.90047 0.91369 0.12684 0.0
H591 H 0.92276 0.94647 0.14939 0.0
H592 H 0.80852 0.95895 0.16981 0.0
H593 H 0.78612 0.92593 0.14747 0.0
H594 H 0.85072 1.00132 0.1564 0.0
H595 H 0.86189 0.93332 0.20255 0.0
H596 H 0.88296 0.89267 0.21229 0.0
H597 H 0.99876 0.91419 0.20464 0.0
H598 H 0.97836 0.95489 0.19455 0.0
H599 H 0.90773 0.09054 0.22905 0.0
H600 H 0.8766 0.05616 0.21274 0.0
H601 H 0.98416 0.01992 0.20903 0.0
H602 H 0.01374 0.05246 0.2284 0.0
H603 H 0.9393 0.98835 0.21554 0.0
H604 H 0.93111 0.05432 0.16579 0.0
H605 H 0.91207 0.09434 0.15303 0.0
H606 H 0.79548 0.07686 0.16398 0.0
H607 H 0.81385 0.0369 0.17704 0.0
C608 C 0.88015 0.92343 0.13616 0.0
C609 C 0.84158 0.91728 0.13543 0.0
C610 C 0.89291 0.94205 0.14908 0.0
C611 C 0.86728 0.95505 0.16131 0.0
C612 C 0.82872 0.94909 0.16051 0.0
C613 C 0.81602 0.93019 0.14785 0.0
C614 C 0.8808 0.97517 0.17462 0.0
C615 C 0.86979 0.99858 0.16951 0.0
C616 C 0.90626 0.97151 0.19137 0.0
C617 C 0.91857 0.9471 0.19762 0.0
C618 C 0.89183 0.92934 0.20278 0.0
C619 C 0.90366 0.90629 0.2084 0.0
C620 C 0.94217 0.90083 0.20904 0.0
C621 C 0.96894 0.91843 0.20412 0.0
C622 C 0.95726 0.9415 0.19847 0.0
C623 C 0.92442 0.0749 0.22538 0.0
C624 C 0.96314 0.07422 0.23029 0.0
C625 C 0.90678 0.05541 0.21546 0.0
C626 C 0.928 0.03544 0.20892 0.0
C627 C 0.96679 0.03489 0.21381 0.0
C628 C 0.98391 0.05376 0.2247 0.0
C629 C 0.9104 0.01508 0.19701 0.0
C630 C 0.9204 0.99141 0.20243 0.0
C631 C 0.88467 0.01858 0.18018 0.0
C632 C 0.87387 0.04272 0.17254 0.0
C633 C 0.90145 0.05909 0.1656 0.0
C634 C 0.89077 0.08176 0.1583 0.0
C635 C 0.85258 0.08811 0.15771 0.0
C636 C 0.82503 0.0719 0.16446 0.0
C637 C 0.83555 0.04926 0.1718 0.0
H638 H 0.84419 0.10553 0.15192 0.0
H639 H 0.95127 0.88298 0.21338 0.0
H640 H 0.83658 0.11364 0.66423 0.0
H641 H 0.85601 0.0805 0.68651 0.0
H642 H 0.85585 0.03307 0.63322 0.0
H643 H 0.83296 0.06555 0.61116 0.0
H644 H 0.83021 0.0095 0.66373 0.0
H645 H 0.93953 0.05947 0.65574 0.0
H646 H 0.97708 0.09684 0.65681 0.0
H647 H 0.95928 0.1022 0.72297 0.0
H648 H 0.9212 0.06499 0.72224 0.0
H649 H 0.95673 0.92122 0.70095 0.0
H650 H 0.92844 0.95513 0.68278 0.0
H651 H 0.90695 0.9898 0.74176 0.0
H652 H 0.93557 0.95572 0.76027 0.0
H653 H 0.94078 0.01995 0.71088 0.0
H654 H 0.83481 0.96539 0.71692 0.0
H655 H 0.80459 0.92561 0.7134 0.0
H656 H 0.82435 0.92671 0.64727 0.0
H657 H 0.85498 0.96643 0.65041 0.0
C658 C 0.8399 0.0961 0.65722 0.0
C659 C 0.83326 0.0925 0.63572 0.0
C660 C 0.85169 0.07717 0.67001 0.0
C661 C 0.85829 0.05429 0.66155 0.0
C662 C 0.85122 0.05054 0.64018 0.0
C663 C 0.83862 0.06932 0.62747 0.0
C664 C 0.87276 0.03431 0.67485 0.0
C665 C 0.85458 0.01183 0.67388 0.0
C666 C 0.90432 0.03721 0.6884 0.0
C667 C 0.92715 0.0596 0.68889 0.0
C668 C 0.94338 0.06872 0.67049 0.0
C669 C 0.96479 0.08985 0.67104 0.0
C670 C 0.97046 0.10193 0.68994 0.0
C671 C 0.9548 0.09285 0.70834 0.0
C672 C 0.93332 0.07174 0.70787 0.0
C673 C 0.946 0.93599 0.71016 0.0
C674 C 0.94836 0.93572 0.73211 0.0
C675 C 0.92966 0.95533 0.6997 0.0
C676 C 0.9153 0.97486 0.71093 0.0
C677 C 0.91777 0.97482 0.73283 0.0
C678 C 0.93393 0.95531 0.74337 0.0
C679 C 0.89834 0.99539 0.69956 0.0
C680 C 0.91612 0.01787 0.70088 0.0
C681 C 0.86709 0.99233 0.68594 0.0
C682 C 0.84735 0.96885 0.68392 0.0
C683 C 0.83279 0.95713 0.70163 0.0
C684 C 0.8156 0.93459 0.69971 0.0
C685 C 0.81265 0.92361 0.68014 0.0
C686 C 0.82665 0.93524 0.66242 0.0
C687 C 0.84383 0.9578 0.66426 0.0
H688 H 0.79948 0.90611 0.67869 0.0
H689 H 0.98706 0.11828 0.69033 0.0
H690 H 0.68271 0.44417 0.10662 0.0
H691 H 0.65815 0.47646 0.12825 0.0
H692 H 0.65675 0.42907 0.18158 0.0
H693 H 0.67809 0.39615 0.15968 0.0
H694 H 0.59828 0.45404 0.18345 0.0
H695 H 0.7273 0.47448 0.17317 0.0
H696 H 0.78595 0.4826 0.15369 0.0
H697 H 0.73267 0.54182 0.12248 0.0
H698 H 0.67349 0.53385 0.14156 0.0
H699 H 0.579 0.55163 0.25666 0.0
H700 H 0.60708 0.5181 0.23734 0.0
H701 H 0.58404 0.55445 0.1792 0.0
H702 H 0.55581 0.58778 0.19825 0.0
H703 H 0.65761 0.53482 0.18188 0.0
H704 H 0.52721 0.51187 0.19611 0.0
H705 H 0.47307 0.50178 0.21863 0.0
H706 H 0.53651 0.44464 0.24669 0.0
H707 H 0.59141 0.45485 0.22495 0.0
C708 C 0.67656 0.4404 0.12285 0.0
C709 C 0.68275 0.4174 0.13131 0.0
C710 C 0.66311 0.4591 0.13535 0.0
C711 C 0.65641 0.45549 0.15676 0.0
C712 C 0.66194 0.43248 0.16517 0.0
C713 C 0.67466 0.41366 0.15261 0.0
C714 C 0.64306 0.47553 0.17031 0.0
C715 C 0.61175 0.47157 0.18332 0.0
C716 C 0.66033 0.49854 0.17019 0.0
C717 C 0.69584 0.50341 0.15865 0.0
C718 C 0.72799 0.48912 0.16203 0.0
C719 C 0.76135 0.49371 0.15108 0.0
C720 C 0.76301 0.51267 0.13681 0.0
C721 C 0.73133 0.52711 0.13351 0.0
C722 C 0.69788 0.52258 0.1444 0.0
C723 C 0.58018 0.55254 0.23977 0.0
C724 C 0.56504 0.57234 0.22899 0.0
C725 C 0.59608 0.53334 0.22876 0.0
C726 C 0.59744 0.53374 0.20682 0.0
C727 C 0.58325 0.55376 0.19611 0.0
C728 C 0.56697 0.57276 0.20704 0.0
C729 C 0.61291 0.51323 0.19481 0.0
C730 C 0.64452 0.51717 0.18207 0.0
C731 C 0.59665 0.49 0.19568 0.0
C732 C 0.56368 0.48437 0.20909 0.0
C733 C 0.52986 0.49744 0.20735 0.0
C734 C 0.499 0.49171 0.22001 0.0
C735 C 0.50141 0.47279 0.23427 0.0
C736 C 0.5347 0.4595 0.23586 0.0
C737 C 0.56574 0.46527 0.2234 0.0
H738 H 0.47741 0.46834 0.24398 0.0
H739 H 0.78886 0.5162 0.12836 0.0
H740 H 0.40126 0.41881 0.40143 0.0
H741 H 0.42558 0.45136 0.37963 0.0
H742 H 0.31741 0.45664 0.34862 0.0
H743 H 0.2925 0.42459 0.37086 0.0
H744 H 0.4348 0.4567 0.33871 0.0
H745 H 0.30083 0.51571 0.337 0.0
H746 H 0.2449 0.52383 0.35877 0.0
H747 H 0.30693 0.50345 0.41376 0.0
H748 H 0.36333 0.49553 0.39237 0.0
H749 H 0.46396 0.54948 0.26472 0.0
H750 H 0.4358 0.51631 0.28417 0.0
H751 H 0.43136 0.56087 0.33927 0.0
H752 H 0.45693 0.59463 0.31936 0.0
H753 H 0.37051 0.53567 0.3375 0.0
H754 H 0.50227 0.51823 0.32798 0.0
H755 H 0.56083 0.51047 0.30845 0.0
H756 H 0.50988 0.44796 0.28075 0.0
H757 H 0.45052 0.45615 0.29921 0.0
C758 C 0.38257 0.42697 0.39004 0.0
C759 C 0.34481 0.41924 0.38803 0.0
C760 C 0.39661 0.44545 0.37747 0.0
C761 C 0.37321 0.45666 0.36266 0.0
C762 C 0.33585 0.44849 0.36014 0.0
C763 C 0.32175 0.43 0.37273 0.0
C764 C 0.38783 0.47717 0.35017 0.0
C765 C 0.42071 0.47396 0.33835 0.0
C766 C 0.36974 0.49979 0.34998 0.0
C767 C 0.33614 0.50478 0.36304 0.0
C768 C 0.30254 0.51304 0.35375 0.0
C769 C 0.27077 0.5176 0.36602 0.0
C770 C 0.27232 0.51408 0.38762 0.0
C771 C 0.30571 0.50608 0.39701 0.0
C772 C 0.33758 0.50153 0.38482 0.0
C773 C 0.45603 0.5524 0.2808 0.0
C774 C 0.46221 0.57477 0.2904 0.0
C775 C 0.44052 0.53327 0.29204 0.0
C776 C 0.43196 0.53589 0.31334 0.0
C777 C 0.43768 0.55835 0.32288 0.0
C778 C 0.45256 0.5776 0.31152 0.0
C779 C 0.41755 0.51525 0.32581 0.0
C780 C 0.3846 0.5184 0.33767 0.0
C781 C 0.43601 0.49267 0.32627 0.0
C782 C 0.47168 0.48806 0.3148 0.0
C783 C 0.50335 0.50311 0.31744 0.0
C784 C 0.53671 0.49866 0.30649 0.0
C785 C 0.53903 0.47887 0.29316 0.0
C786 C 0.508 0.4635 0.2908 0.0
C787 C 0.47441 0.46811 0.30145 0.0
H788 H 0.56491 0.47535 0.28476 0.0
H789 H 0.24768 0.5176 0.39709 0.0
H790 H 0.22779 0.08166 0.87036 0.0
H791 H 0.20547 0.04798 0.84892 0.0
H792 H 0.09371 0.0557 0.87477 0.0
H793 H 0.11598 0.0891 0.89634 0.0
H794 H 0.11266 0.01034 0.87472 0.0
H795 H 0.11655 0.07436 0.82442 0.0
H796 H 0.14573 0.10736 0.80441 0.0
H797 H 0.22699 0.05843 0.779 0.0
H798 H 0.19859 0.02518 0.7991 0.0
H799 H 0.9998 0.95227 0.7965 0.0
H800 H 0.03116 0.98388 0.81665 0.0
H801 H 0.13915 0.95096 0.80517 0.0
H802 H 0.10758 0.918 0.78652 0.0
H803 H 0.12741 0.00658 0.79773 0.0
H804 H 0.11817 0.94176 0.84689 0.0
H805 H 0.08588 0.90961 0.86638 0.0
H806 H 0.01221 0.96145 0.89431 0.0
H807 H 0.04287 0.99381 0.87421 0.0
C808 C 0.19838 0.07631 0.87128 0.0
C809 C 0.17366 0.08799 0.88507 0.0
C810 C 0.18564 0.05706 0.85903 0.0
C811 C 0.14781 0.04935 0.86012 0.0
C812 C 0.12306 0.0612 0.87373 0.0
C813 C 0.13582 0.08029 0.88606 0.0
C814 C 0.13396 0.02863 0.84751 0.0
C815 C 0.11563 0.00968 0.85787 0.0
C816 C 0.13861 0.0274 0.82555 0.0
C817 C 0.15573 0.04735 0.81346 0.0
C818 C 0.14085 0.07068 0.81471 0.0
C819 C 0.1572 0.08942 0.80333 0.0
C820 C 0.18827 0.08501 0.7905 0.0
C821 C 0.20297 0.06183 0.78898 0.0
C822 C 0.18675 0.04303 0.80036 0.0
C823 C 0.03005 0.9513 0.79878 0.0
C824 C 0.05101 0.93224 0.79038 0.0
C825 C 0.048 0.96962 0.80998 0.0
C826 C 0.08737 0.96961 0.81247 0.0
C827 C 0.10869 0.9512 0.80341 0.0
C828 C 0.0906 0.93246 0.7927 0.0
C829 C 0.10581 0.98869 0.82499 0.0
C830 C 0.12485 0.00727 0.81461 0.0
C831 C 0.1015 0.98972 0.84691 0.0
C832 C 0.08246 0.9702 0.85874 0.0
C833 C 0.09456 0.94628 0.85683 0.0
C834 C 0.07656 0.92799 0.86801 0.0
C835 C 0.04682 0.93345 0.88146 0.0
C836 C 0.03503 0.95721 0.88375 0.0
C837 C 0.05262 0.97552 0.8724 0.0
H838 H 0.03307 0.91928 0.89017 0.0
H839 H 0.20089 0.09954 0.78169 0.0
H840 H 0.18788 0.08782 0.95989 0.0
H841 H 0.16712 0.08667 0.99617 0.0
H842 H 0.14877 0.16318 0.99483 0.0
H843 H 0.16815 0.16431 0.95816 0.0
H844 H 0.19213 0.10583 0.03106 0.0
H845 H 0.07288 0.17636 0.02584 0.0
H846 H 0.02863 0.19299 0.99971 0.0
H847 H 0.03431 0.12756 0.96441 0.0
H848 H 0.07815 0.11045 0.99046 0.0
H849 H 0.12673 0.12296 0.13423 0.0
H850 H 0.14981 0.1312 0.09912 0.0
H851 H 0.04744 0.10116 0.07297 0.0
H852 H 0.02279 0.09474 0.10796 0.0
H853 H 0.06595 0.13694 0.05067 0.0
H854 H 0.13498 0.06905 0.07752 0.0
H855 H 0.17576 0.04746 0.10255 0.0
H856 H 0.26467 0.09885 0.0926 0.0
H857 H 0.22422 0.12091 0.06769 0.0
C858 C 0.17913 0.1044 0.96723 0.0
C859 C 0.17925 0.12612 0.95601 0.0
C860 C 0.16764 0.10375 0.98807 0.0
C861 C 0.15599 0.12478 0.99821 0.0
C862 C 0.15714 0.14665 0.98727 0.0
C863 C 0.16855 0.14731 0.96635 0.0
C864 C 0.14185 0.12355 0.02004 0.0
C865 C 0.16462 0.11275 0.03537 0.0
C866 C 0.10572 0.13222 0.02565 0.0
C867 C 0.07915 0.14227 1.00997 0.0
C868 C 0.0646 0.16552 0.01252 0.0
C869 C 0.0396 0.17502 0.99773 0.0
C870 C 0.02879 0.16137 0.98037 0.0
C871 C 0.04283 0.13816 0.97781 0.0
C872 C 0.06779 0.12856 0.99257 0.0
C873 C 0.10866 0.11856 0.12107 0.0
C874 C 0.07291 0.10792 0.12409 0.0
C875 C 0.12223 0.12298 0.10092 0.0
C876 C 0.10081 0.11631 0.08329 0.0
C877 C 0.06471 0.10635 0.08625 0.0
C878 C 0.05083 0.10236 0.10636 0.0
C879 C 0.11613 0.11906 0.06175 0.0
C880 C 0.09364 0.13022 0.04646 0.0
C881 C 0.15207 0.11005 0.05603 0.0
C882 C 0.17645 0.09675 0.07092 0.0
C883 C 0.16315 0.07582 0.08078 0.0
C884 C 0.18621 0.06349 0.09493 0.0
C885 C 0.22274 0.07182 0.09921 0.0
C886 C 0.23634 0.09245 0.0893 0.0
C887 C 0.21338 0.10486 0.07515 0.0
H888 H 0.24055 0.06225 0.11017 0.0
H889 H 0.00944 0.16877 0.96892 0.0
H890 H 0.33398 0.42538 0.4619 0.0
H891 H 0.35329 0.42763 0.49847 0.0
H892 H 0.34812 0.35056 0.50317 0.0
H893 H 0.33108 0.34784 0.46613 0.0
H894 H 0.30922 0.38233 0.53701 0.0
H895 H 0.42748 0.36655 0.50165 0.0
H896 H 0.47534 0.37412 0.47452 0.0
H897 H 0.49047 0.44612 0.49708 0.0
H898 H 0.44223 0.43909 0.52416 0.0
H899 H 0.38756 0.37799 0.63851 0.0
H900 H 0.37326 0.36922 0.60211 0.0
H901 H 0.42321 0.43675 0.58378 0.0
H902 H 0.44103 0.44459 0.61989 0.0
H903 H 0.4399 0.4068 0.55612 0.0
H904 H 0.32249 0.42602 0.58923 0.0
H905 H 0.2717 0.42252 0.61534 0.0
H906 H 0.25102 0.34965 0.59647 0.0
H907 H 0.30203 0.35263 0.57041 0.0
C908 C 0.3375 0.4088 0.47048 0.0
C909 C 0.33134 0.38638 0.46079 0.0
C910 C 0.34819 0.41018 0.49149 0.0
C911 C 0.35226 0.38927 0.50342 0.0
C912 C 0.34503 0.3669 0.49416 0.0
C913 C 0.33503 0.36544 0.47299 0.0
C914 C 0.36462 0.39096 0.52552 0.0
C915 C 0.33792 0.38726 0.54131 0.0
C916 C 0.40171 0.39819 0.53093 0.0
C917 C 0.43097 0.40236 0.51479 0.0
C918 C 0.44075 0.38407 0.5007 0.0
C919 C 0.468 0.38825 0.48536 0.0
C920 C 0.48586 0.41061 0.48404 0.0
C921 C 0.47658 0.42882 0.49811 0.0
C922 C 0.44931 0.42474 0.51347 0.0
C923 C 0.39641 0.39079 0.62678 0.0
C924 C 0.41532 0.41217 0.63242 0.0
C925 C 0.3875 0.38591 0.60588 0.0
C926 C 0.39614 0.40259 0.59011 0.0
C927 C 0.41585 0.42362 0.59559 0.0
C928 C 0.42559 0.42825 0.61641 0.0
C929 C 0.3844 0.39835 0.56797 0.0
C930 C 0.4112 0.40165 0.55205 0.0
C931 C 0.34706 0.3913 0.56242 0.0
C932 C 0.31634 0.38947 0.57804 0.0
C933 C 0.30728 0.4092 0.59075 0.0
C934 C 0.27843 0.40731 0.60553 0.0
C935 C 0.25822 0.38585 0.6076 0.0
C936 C 0.26674 0.36625 0.59487 0.0
C937 C 0.2956 0.36803 0.58009 0.0
H938 H 0.23589 0.38443 0.61905 0.0
H939 H 0.50695 0.41381 0.47215 0.0
H940 H 0.69295 0.41428 0.05624 0.0
H941 H 0.67995 0.41129 0.01877 0.0
H942 H 0.68622 0.33419 0.02253 0.0
H943 H 0.69734 0.3368 0.06013 0.0
H944 H 0.73138 0.35579 0.99013 0.0
H945 H 0.60391 0.35714 0.01707 0.0
H946 H 0.55144 0.37414 0.03746 0.0
H947 H 0.55591 0.43867 1.00083 0.0
H948 H 0.60882 0.42218 0.98041 0.0
H949 H 0.6698 0.32131 0.88998 0.0
H950 H 0.67745 0.3262 0.9277 0.0
H951 H 0.64167 0.39998 0.92266 0.0
H952 H 0.63256 0.39477 0.8849 0.0
H953 H 0.61239 0.38213 0.95596 0.0
H954 H 0.73759 0.38306 0.92895 0.0
H955 H 0.79217 0.36886 0.90863 0.0
H956 H 0.79575 0.30426 0.9452 0.0
H957 H 0.74082 0.31793 0.96556 0.0
C958 C 0.69085 0.39662 0.04926 0.0
C959 C 0.69638 0.37578 0.06139 0.0
C960 C 0.68366 0.39499 0.02777 0.0
C961 C 0.68218 0.37252 0.01788 0.0
C962 C 0.68749 0.35171 0.02985 0.0
C963 C 0.69412 0.35329 0.05137 0.0
C964 C 0.67608 0.37066 0.99494 0.0
C965 C 0.7052 0.36126 0.98265 0.0
C966 C 0.64249 0.37865 0.98515 0.0
C967 C 0.6106 0.38853 0.99737 0.0
C968 C 0.59394 0.37505 0.01349 0.0
C969 C 0.56407 0.38457 0.02503 0.0
C970 C 0.55042 0.4075 0.02049 0.0
C971 C 0.56655 0.42092 1.00436 0.0
C972 C 0.59646 0.41149 0.99279 0.0
C973 C 0.66367 0.33859 0.89693 0.0
C974 C 0.65093 0.35772 0.88448 0.0
C975 C 0.66818 0.34142 0.9185 0.0
C976 C 0.66101 0.36365 0.92809 0.0
C977 C 0.64756 0.38268 0.9157 0.0
C978 C 0.6424 0.37971 0.89413 0.0
C979 C 0.66761 0.36694 0.95098 0.0
C980 C 0.63867 0.37668 0.96332 0.0
C981 C 0.70174 0.3597 0.96081 0.0
C982 C 0.73487 0.35143 0.94866 0.0
C983 C 0.74985 0.36575 0.93257 0.0
C984 C 0.78087 0.3578 0.92105 0.0
C985 C 0.79736 0.33564 0.92559 0.0
C986 C 0.78292 0.32141 0.94169 0.0
C987 C 0.75186 0.32926 0.95323 0.0
H988 H 0.82138 0.32953 0.91666 0.0
H989 H 0.52729 0.41483 0.02943 0.0
H990 H 0.89256 0.12764 0.57274 0.0
H991 H 0.91322 0.12962 0.53627 0.0
H992 H 0.79828 0.14204 0.51648 0.0
H993 H 0.77744 0.14022 0.553 0.0
H994 H 0.83877 0.10679 0.49205 0.0
H995 H 0.85278 0.18776 0.51777 0.0
H996 H 0.87535 0.21873 0.54241 0.0
H997 H 0.99032 0.19891 0.53014 0.0
H998 H 0.96839 0.16757 0.50564 0.0
H999 H 0.87779 0.14549 0.38783 0.0
H1000 H 0.85474 0.13979 0.42357 0.0
H1001 H 0.9692 0.1449 0.44689 0.0
H1002 H 0.99194 0.15142 0.41133 0.0
H1003 H 0.92743 0.17101 0.46984 0.0
H1004 H 0.91643 0.09042 0.44477 0.0
H1005 H 0.89641 0.05799 0.4209 0.0
H1006 H 0.77995 0.07458 0.43257 0.0
H1007 H 0.79928 0.10735 0.45629 0.0
C1008 C 0.87168 0.13066 0.5606 0.0
C1009 C 0.8334 0.13383 0.5657 0.0
C1010 C 0.88352 0.13186 0.5398 0.0
C1011 C 0.85728 0.13603 0.52369 0.0
C1012 C 0.81895 0.13878 0.52869 0.0
C1013 C 0.80715 0.13791 0.54953 0.0
C1014 C 0.8701 0.13809 0.5017 0.0
C1015 C 0.85778 0.12098 0.48706 0.0
C1016 C 0.89569 0.15622 0.4954 0.0
C1017 C 0.90892 0.17516 0.51003 0.0
C1018 C 0.88286 0.18987 0.52046 0.0
C1019 C 0.89554 0.20751 0.53438 0.0
C1020 C 0.93424 0.21074 0.53788 0.0
C1021 C 0.96035 0.19637 0.52743 0.0
C1022 C 0.94781 0.17867 0.51352 0.0
C1023 C 0.89798 0.14505 0.4006 0.0
C1024 C 0.93661 0.14895 0.39686 0.0
C1025 C 0.88484 0.14174 0.42103 0.0
C1026 C 0.91022 0.14173 0.43804 0.0
C1027 C 0.94896 0.14496 0.43414 0.0
C1028 C 0.96198 0.14864 0.4138 0.0
C1029 C 0.89645 0.13954 0.45997 0.0
C1030 C 0.90849 0.15671 0.47468 0.0
C1031 C 0.87105 0.12123 0.46636 0.0
C1032 C 0.85932 0.1015 0.45214 0.0
C1033 C 0.88655 0.08728 0.44212 0.0
C1034 C 0.87533 0.06881 0.42864 0.0
C1035 C 0.83693 0.06427 0.42518 0.0
C1036 C 0.80968 0.07814 0.43524 0.0
C1037 C 0.82076 0.09665 0.44872 0.0
H1038 H 0.8283 0.04996 0.41473 0.0
H1039 H 0.94401 0.22442 0.54866 0.0
H1040 H 0.82934 0.91747 0.06065 0.0
H1041 H 0.84612 0.91803 0.02373 0.0
H1042 H 0.86033 0.84117 0.02472 0.0
H1043 H 0.84497 0.84057 0.06199 0.0
H1044 H 0.9159 0.86135 1.00332 0.0
H1045 H 0.78164 0.86654 1.00257 0.0
H1046 H 0.71902 0.8822 0.01227 0.0
H1047 H 0.74834 0.95115 0.98694 0.0
H1048 H 0.81135 0.936 0.97734 0.0
H1049 H 0.86872 0.88365 0.88422 0.0
H1050 H 0.84948 0.87334 0.91984 0.0
H1051 H 0.9511 0.90637 0.94403 0.0
H1052 H 0.97091 0.91613 0.90857 0.0
H1053 H 0.83315 0.90202 0.9516 0.0
H1054 H 0.97926 0.87852 0.98837 0.0
H1055 H 0.03904 0.8594 0.97789 0.0
H1056 H 0.98073 0.82041 0.9296 0.0
H1057 H 0.92053 0.83902 0.93997 0.0
C1058 C 0.83643 0.90068 0.05313 0.0
C1059 C 0.83581 0.87897 0.06437 0.0
C1060 C 0.84561 0.901 0.0319 0.0
C1061 C 0.85401 0.8796 0.02132 0.0
C1062 C 0.8538 0.85791 0.03251 0.0
C1063 C 0.84469 0.85757 0.05379 0.0
C1064 C 0.86334 0.88002 0.99864 0.0
C1065 C 0.89776 0.87018 0.99201 0.0
C1066 C 0.83927 0.891 0.98371 0.0
C1067 C 0.80134 0.90017 0.98938 0.0
C1068 C 0.77483 0.88509 0.9992 0.0
C1069 C 0.73925 0.89387 1.00466 0.0
C1070 C 0.72974 0.91767 1.00026 0.0
C1071 C 0.75576 0.93272 0.99035 0.0
C1072 C 0.7914 0.92404 0.98487 0.0
C1073 C 0.8873 0.88832 0.89709 0.0
C1074 C 0.9214 0.90073 0.89349 0.0
C1075 C 0.87611 0.88259 0.91747 0.0
C1076 C 0.89892 0.88892 0.93465 0.0
C1077 C 0.93321 0.90099 0.93106 0.0
C1078 C 0.94436 0.90676 0.91074 0.0
C1079 C 0.88625 0.88401 0.9564 0.0
C1080 C 0.8512 0.89303 0.96287 0.0
C1081 C 0.90937 0.87183 0.97106 0.0
C1082 C 0.94543 0.86035 0.96485 0.0
C1083 C 0.97916 0.86579 0.97558 0.0
C1084 C 0.01313 0.85505 0.96965 0.0
C1085 C 0.0137 0.83876 0.95305 0.0
C1086 C 0.98028 0.83311 0.9424 0.0
C1087 C 0.94623 0.84377 0.94828 0.0
H1088 H 0.04002 0.83047 0.94848 0.0
H1089 H 0.70217 0.92443 1.00451 0.0
H1090 H 0.73777 0.62841 0.5493 0.0
H1091 H 0.72014 0.62623 0.51229 0.0
H1092 H 0.60501 0.61004 0.52948 0.0
H1093 H 0.62265 0.61181 0.5664 0.0
H1094 H 0.62589 0.58098 0.50008 0.0
H1095 H 0.63398 0.66631 0.51009 0.0
H1096 H 0.66436 0.7045 0.52025 0.0
H1097 H 0.75164 0.69303 0.47496 0.0
H1098 H 0.72204 0.65459 0.46472 0.0
H1099 H 0.53153 0.59917 0.40499 0.0
H1100 H 0.55509 0.60648 0.44032 0.0
H1101 H 0.66913 0.61024 0.41705 0.0
H1102 H 0.64575 0.60249 0.38148 0.0
H1103 H 0.65284 0.64515 0.4484 0.0
H1104 H 0.64214 0.56 0.43795 0.0
H1105 H 0.60961 0.52257 0.42764 0.0
H1106 H 0.52485 0.53472 0.47424 0.0
H1107 H 0.55656 0.57244 0.48461 0.0
C1108 C 0.70863 0.62462 0.54516 0.0
C1109 C 0.68162 0.62021 0.56078 0.0
C1110 C 0.69855 0.62341 0.52399 0.0
C1111 C 0.66112 0.61816 0.51801 0.0
C1112 C 0.63409 0.61402 0.53363 0.0
C1113 C 0.64421 0.615 0.55475 0.0
C1114 C 0.65014 0.61613 0.49555 0.0
C1115 C 0.63143 0.59519 0.4889 0.0
C1116 C 0.65821 0.63433 0.48069 0.0
C1117 C 0.67601 0.65745 0.4868 0.0
C1118 C 0.65982 0.67184 0.50241 0.0
C1119 C 0.67687 0.69355 0.50817 0.0
C1120 C 0.70997 0.70116 0.4983 0.0
C1121 C 0.72604 0.6871 0.48262 0.0
C1122 C 0.70912 0.66535 0.47682 0.0
C1123 C 0.56165 0.60156 0.40732 0.0
C1124 C 0.58682 0.59982 0.39042 0.0
C1125 C 0.57505 0.60585 0.42754 0.0
C1126 C 0.61391 0.60852 0.43137 0.0
C1127 C 0.63902 0.60816 0.41443 0.0
C1128 C 0.62561 0.60378 0.39412 0.0
C1129 C 0.62811 0.61024 0.45322 0.0
C1130 C 0.64749 0.631 0.45967 0.0
C1131 C 0.62046 0.59197 0.46799 0.0
C1132 C 0.60156 0.56915 0.46193 0.0
C1133 C 0.61641 0.55478 0.4459 0.0
C1134 C 0.59814 0.5335 0.44006 0.0
C1135 C 0.56514 0.5263 0.45025 0.0
C1136 C 0.5504 0.54034 0.46634 0.0
C1137 C 0.56852 0.56166 0.47222 0.0
H1138 H 0.55104 0.50982 0.4457 0.0
H1139 H 0.72313 0.71797 0.50278 0.0
H1140 H 0.36116 0.67396 0.95191 0.0
H1141 H 0.38351 0.67775 0.98813 0.0
H1142 H 0.33779 0.60776 1.00221 0.0
H1143 H 0.316 0.60369 0.96586 0.0
H1144 H 0.31885 0.64709 0.03146 0.0
H1145 H 0.42511 0.60937 0.99796 0.0
H1146 H 0.47416 0.60569 0.97092 0.0
H1147 H 0.52026 0.67415 0.98871 0.0
H1148 H 0.47107 0.67842 0.01566 0.0
H1149 H 0.39519 0.63478 0.13256 0.0
H1150 H 0.37665 0.6278 0.09646 0.0
H1151 H 0.45138 0.68461 0.07642 0.0
H1152 H 0.47279 0.69025 0.11234 0.0
H1153 H 0.45524 0.65116 0.04961 0.0
H1154 H 0.35067 0.69095 0.08161 0.0
H1155 H 0.30085 0.69754 0.1078 0.0
H1156 H 0.25039 0.62962 0.09212 0.0
H1157 H 0.30022 0.62248 0.06601 0.0
C1158 C 0.35589 0.65941 0.96276 0.0
C1159 C 0.3369 0.63853 0.95614 0.0
C1160 C 0.36876 0.66155 0.98337 0.0
C1161 C 0.36235 0.64301 0.99778 0.0
C1162 C 0.34301 0.62225 0.99129 0.0
C1163 C 0.33075 0.6199 0.97056 0.0
C1164 C 0.37561 0.64543 0.01969 0.0
C1165 C 0.34864 0.64765 0.03554 0.0
C1166 C 0.41446 0.64692 0.0248 0.0
C1167 C 0.44416 0.64433 1.00868 0.0
C1168 C 0.44548 0.62375 0.99598 0.0
C1169 C 0.47336 0.62153 0.98069 0.0
C1170 C 0.50025 0.6397 0.97806 0.0
C1171 C 0.49938 0.66011 0.99075 0.0
C1172 C 0.47152 0.66242 1.00604 0.0
C1173 C 0.40839 0.64553 0.12052 0.0
C1174 C 0.43551 0.66321 0.12559 0.0
C1175 C 0.39716 0.64177 0.0998 0.0
C1176 C 0.41181 0.65606 0.08364 0.0
C1177 C 0.43934 0.67344 0.08856 0.0
C1178 C 0.45121 0.67687 0.10924 0.0
C1179 C 0.39845 0.65293 0.06166 0.0
C1180 C 0.42538 0.6506 0.0457 0.0
C1181 C 0.35947 0.6518 0.05638 0.0
C1182 C 0.32938 0.65608 0.072 0.0
C1183 C 0.32909 0.67735 0.08385 0.0
C1184 C 0.30083 0.68119 0.09867 0.0
C1185 C 0.27253 0.66398 0.10166 0.0
C1186 C 0.27236 0.64292 0.08981 0.0
C1187 C 0.30058 0.63897 0.07498 0.0
H1188 H 0.25068 0.66699 0.11315 0.0
H1189 H 0.52182 0.63795 0.96622 0.0
H1190 H 0.23036 0.86329 0.46762 0.0
H1191 H 0.20853 0.86112 0.50384 0.0
H1192 H 0.09538 0.87849 0.48354 0.0
H1193 H 0.1173 0.8812 0.44745 0.0
H1194 H 0.11122 0.903 0.51696 0.0
H1195 H 0.12331 0.8201 0.49755 0.0
H1196 H 0.15592 0.78418 0.48429 0.0
H1197 H 0.23784 0.7897 0.53379 0.0
H1198 H 0.20598 0.82587 0.54718 0.0
H1199 H 0.00605 0.86104 0.60434 0.0
H1200 H 0.03442 0.86601 0.56975 0.0
H1201 H 0.14572 0.86164 0.59722 0.0
H1202 H 0.11741 0.8568 0.63196 0.0
H1203 H 0.13457 0.83168 0.56155 0.0
H1204 H 0.11817 0.91376 0.58191 0.0
H1205 H 0.08296 0.94874 0.595 0.0
H1206 H 0.00582 0.94345 0.5432 0.0
H1207 H 0.04025 0.90819 0.52996 0.0
C1208 C 0.2008 0.86648 0.47091 0.0
C1209 C 0.17554 0.87241 0.45471 0.0
C1210 C 0.18831 0.86522 0.49161 0.0
C1211 C 0.15016 0.86939 0.49646 0.0
C1212 C 0.12495 0.87528 0.48025 0.0
C1213 C 0.1375 0.87682 0.45962 0.0
C1214 C 0.1364 0.86786 0.51839 0.0
C1215 C 0.11601 0.88727 0.52659 0.0
C1216 C 0.14334 0.8476 0.53123 0.0
C1217 C 0.1625 0.82584 0.52323 0.0
C1218 C 0.14845 0.81377 0.50551 0.0
C1219 C 0.16676 0.79334 0.49799 0.0
C1220 C 0.19899 0.7847 0.50816 0.0
C1221 C 0.21291 0.79644 0.52591 0.0
C1222 C 0.19472 0.81689 0.53348 0.0
C1223 C 0.03656 0.8612 0.60299 0.0
C1224 C 0.05955 0.85854 0.62081 0.0
C1225 C 0.05272 0.86414 0.58327 0.0
C1226 C 0.09216 0.86427 0.58095 0.0
C1227 C 0.11523 0.86162 0.5987 0.0
C1228 C 0.09906 0.85901 0.61851 0.0
C1229 C 0.1091 0.86666 0.55988 0.0
C1230 C 0.13005 0.84743 0.55189 0.0
C1231 C 0.10232 0.88695 0.54715 0.0
C1232 C 0.08159 0.90819 0.55505 0.0
C1233 C 0.0935 0.91992 0.57341 0.0
C1234 C 0.07372 0.93983 0.58084 0.0
C1235 C 0.04212 0.94828 0.56997 0.0
C1236 C 0.03028 0.93687 0.55162 0.0
C1237 C 0.04994 0.91693 0.54413 0.0
H1238 H 0.02685 0.9637 0.57574 0.0
H1239 H 0.21313 0.76889 0.50231 0.0
H1240 H 0.29562 0.29525 0.36369 0.0
H1241 H 0.25157 0.26981 0.34415 0.0
H1242 H 0.15871 0.298 0.37998 0.0
H1243 H 0.20313 0.32299 0.40006 0.0
H1244 H 0.15182 0.25158 0.37708 0.0
H1245 H 0.17371 0.31382 0.32756 0.0
H1246 H 0.21076 0.34172 0.30577 0.0
H1247 H 0.26107 0.28215 0.27382 0.0
H1248 H 0.22474 0.25387 0.29563 0.0
H1249 H 0.01844 0.2003 0.30019 0.0
H1250 H 0.05409 0.2307 0.31999 0.0
H1251 H 0.15656 0.19055 0.31082 0.0
H1252 H 0.12089 0.15922 0.2927 0.0
H1253 H 0.15237 0.24589 0.29971 0.0
H1254 H 0.13503 0.18441 0.35267 0.0
H1255 H 0.09792 0.15703 0.3749 0.0
H1256 H 0.03728 0.21694 0.40013 0.0
H1257 H 0.07344 0.24465 0.37762 0.0
C1258 C 0.26573 0.2963 0.36716 0.0
C1259 C 0.25268 0.31161 0.38299 0.0
C1260 C 0.24051 0.2818 0.35594 0.0
C1261 C 0.20159 0.28233 0.36022 0.0
C1262 C 0.18851 0.29744 0.37621 0.0
C1263 C 0.21384 0.31184 0.38757 0.0
C1264 C 0.17502 0.26622 0.34867 0.0
C1265 C 0.15147 0.25075 0.36015 0.0
C1266 C 0.17477 0.26476 0.32654 0.0
C1267 C 0.19671 0.28172 0.31337 0.0
C1268 C 0.1929 0.30666 0.31601 0.0
C1269 C 0.21374 0.32255 0.30363 0.0
C1270 C 0.23832 0.31371 0.28845 0.0
C1271 C 0.24204 0.28897 0.28559 0.0
C1272 C 0.2213 0.273 0.29795 0.0
C1273 C 0.04832 0.19758 0.30296 0.0
C1274 C 0.06663 0.17709 0.29518 0.0
C1275 C 0.06871 0.21512 0.314 0.0
C1276 C 0.10786 0.21276 0.31688 0.0
C1277 C 0.12633 0.19264 0.30877 0.0
C1278 C 0.10586 0.17482 0.29832 0.0
C1279 C 0.12991 0.23131 0.32819 0.0
C1280 C 0.1525 0.24715 0.31663 0.0
C1281 C 0.1291 0.23324 0.35018 0.0
C1282 C 0.10651 0.21656 0.36321 0.0
C1283 C 0.11332 0.19171 0.36267 0.0
C1284 C 0.09259 0.17614 0.37539 0.0
C1285 C 0.0653 0.18525 0.38892 0.0
C1286 C 0.05847 0.20993 0.38965 0.0
C1287 C 0.079 0.22556 0.37687 0.0
H1288 H 0.04949 0.17318 0.39887 0.0
H1289 H 0.25442 0.32604 0.27888 0.0
H1290 H 0.29066 0.20804 0.90999 0.0
H1291 H 0.32072 0.24167 0.89152 0.0
H1292 H 0.34458 0.19501 0.83945 0.0
H1293 H 0.31476 0.16141 0.85795 0.0
H1294 H 0.40624 0.22069 0.85084 0.0
H1295 H 0.27542 0.237 0.83635 0.0
H1296 H 0.2086 0.24429 0.84504 0.0
H1297 H 0.24058 0.30637 0.88085 0.0
H1298 H 0.30768 0.29925 0.8726 0.0
H1299 H 0.46253 0.30569 0.77582 0.0
H1300 H 0.42862 0.2746 0.79502 0.0
H1301 H 0.40538 0.32516 0.84435 0.0
H1302 H 0.438 0.35679 0.82457 0.0
H1303 H 0.34379 0.2984 0.83562 0.0
H1304 H 0.47435 0.28265 0.84986 0.0
H1305 H 0.54116 0.27585 0.84086 0.0
H1306 H 0.50994 0.21295 0.80595 0.0
H1307 H 0.44284 0.21958 0.81448 0.0
C1308 C 0.30223 0.20509 0.89456 0.0
C1309 C 0.30093 0.18215 0.88547 0.0
C1310 C 0.31922 0.22428 0.88399 0.0
C1311 C 0.33487 0.22088 0.86407 0.0
C1312 C 0.33286 0.19803 0.85483 0.0
C1313 C 0.31581 0.17888 0.86537 0.0
C1314 C 0.35459 0.24085 0.85314 0.0
C1315 C 0.39242 0.23757 0.84729 0.0
C1316 C 0.33694 0.26315 0.84906 0.0
C1317 C 0.29662 0.26743 0.85405 0.0
C1318 C 0.26824 0.25208 0.84624 0.0
C1319 C 0.23031 0.2562 0.85105 0.0
C1320 C 0.22036 0.27573 0.86354 0.0
C1321 C 0.24833 0.29122 0.8712 0.0
C1322 C 0.28631 0.28716 0.86645 0.0
C1323 C 0.44991 0.31025 0.79067 0.0
C1324 C 0.45259 0.33369 0.79862 0.0
C1325 C 0.43084 0.29239 0.80174 0.0
C1326 C 0.4148 0.29743 0.82127 0.0
C1327 C 0.41757 0.32085 0.82933 0.0
C1328 C 0.43648 0.33883 0.81812 0.0
C1329 C 0.39533 0.27815 0.83321 0.0
C1330 C 0.35763 0.28155 0.83927 0.0
C1331 C 0.41312 0.25596 0.83758 0.0
C1332 C 0.45352 0.25172 0.83269 0.0
C1333 C 0.4817 0.26744 0.84016 0.0
C1334 C 0.51963 0.26362 0.83515 0.0
C1335 C 0.52978 0.244 0.82281 0.0
C1336 C 0.50203 0.22814 0.8155 0.0
C1337 C 0.46405 0.23191 0.82044 0.0
H1338 H 0.55916 0.24108 0.81894 0.0
H1339 H 0.19097 0.2789 0.86724 0.0
H1340 H 0.76658 0.18787 0.67529 0.0
H1341 H 0.7231 0.21389 0.69449 0.0
H1342 H 0.69052 0.24818 0.63671 0.0
H1343 H 0.7346 0.22239 0.61758 0.0
H1344 H 0.70508 0.28094 0.66596 0.0
H1345 H 0.63137 0.20867 0.66219 0.0
H1346 H 0.61826 0.16545 0.66649 0.0
H1347 H 0.63585 0.17166 0.73269 0.0
H1348 H 0.64959 0.21488 0.72876 0.0
H1349 H 0.54793 0.34509 0.70415 0.0
H1350 H 0.58677 0.31621 0.68538 0.0
H1351 H 0.62381 0.28567 0.74387 0.0
H1352 H 0.58455 0.31434 0.76288 0.0
H1353 H 0.60681 0.25097 0.71462 0.0
H1354 H 0.68045 0.32339 0.7182 0.0
H1355 H 0.69214 0.36677 0.71379 0.0
H1356 H 0.6738 0.36023 0.64769 0.0
H1357 H 0.66144 0.31686 0.65172 0.0
C1358 C 0.74996 0.2009 0.66674 0.0
C1359 C 0.75423 0.20342 0.64504 0.0
C1360 C 0.725 0.21568 0.67767 0.0
C1361 C 0.70339 0.23298 0.66705 0.0
C1362 C 0.707 0.23506 0.64526 0.0
C1363 C 0.73203 0.22032 0.63434 0.0
C1364 C 0.67808 0.24948 0.67872 0.0
C1365 C 0.68323 0.27435 0.67636 0.0
C1366 C 0.65018 0.24095 0.69273 0.0
C1367 C 0.64188 0.21497 0.69515 0.0
C1368 C 0.63275 0.20078 0.67765 0.0
C1369 C 0.62515 0.17629 0.68002 0.0
C1370 C 0.62632 0.1658 0.69984 0.0
C1371 C 0.635 0.1798 0.71734 0.0
C1372 C 0.64267 0.2043 0.71505 0.0
C1373 C 0.56415 0.33218 0.71309 0.0
C1374 C 0.56333 0.33221 0.73507 0.0
C1375 C 0.58647 0.31573 0.7023 0.0
C1376 C 0.60857 0.29898 0.71322 0.0
C1377 C 0.60708 0.2985 0.73513 0.0
C1378 C 0.58476 0.31499 0.74596 0.0
C1379 C 0.63376 0.28232 0.70173 0.0
C1380 C 0.62865 0.25749 0.70419 0.0
C1381 C 0.66169 0.29086 0.68778 0.0
C1382 C 0.66969 0.31689 0.68529 0.0
C1383 C 0.67865 0.33122 0.70274 0.0
C1384 C 0.68542 0.35581 0.70031 0.0
C1385 C 0.6836 0.36626 0.68049 0.0
C1386 C 0.67515 0.35212 0.66304 0.0
C1387 C 0.6683 0.32753 0.66538 0.0
H1388 H 0.68882 0.3853 0.67865 0.0
H1389 H 0.62041 0.14684 0.70165 0.0
H1390 H 0.78657 0.33897 0.16708 0.0
H1391 H 0.81475 0.30713 0.18856 0.0
H1392 H 0.88029 0.28378 0.13565 0.0
H1393 H 0.85149 0.3152 0.11412 0.0
H1394 H 0.85215 0.24627 0.15549 0.0
H1395 H 0.91919 0.31797 0.17582 0.0
H1396 H 0.92528 0.35948 0.18883 0.0
H1397 H 0.87199 0.33909 0.24635 0.0
H1398 H 0.86514 0.2975 0.23355 0.0
H1399 H 0.98636 0.17323 0.20445 0.0
H1400 H 0.95567 0.20566 0.18572 0.0
H1401 H 0.89975 0.22762 0.24231 0.0
H1402 H 0.93321 0.19634 0.2617 0.0
H1403 H 0.91895 0.26539 0.22178 0.0
H1404 H 0.8557 0.19197 0.20109 0.0
H1405 H 0.85474 0.15043 0.18767 0.0
H1406 H 0.90368 0.17431 0.12998 0.0
H1407 H 0.90545 0.2159 0.14314 0.0
C1408 C 0.80692 0.32693 0.16011 0.0
C1409 C 0.81703 0.32955 0.13903 0.0
C1410 C 0.82315 0.30886 0.17237 0.0
C1411 C 0.85008 0.29323 0.16382 0.0
C1412 C 0.85966 0.29562 0.14263 0.0
C1413 C 0.8433 0.3136 0.13035 0.0
C1414 C 0.86838 0.27437 0.17684 0.0
C1415 C 0.86699 0.25049 0.16991 0.0
C1416 C 0.88708 0.27973 0.19591 0.0
C1417 C 0.89128 0.3047 0.20364 0.0
C1418 C 0.90851 0.32239 0.19118 0.0
C1419 C 0.91214 0.34592 0.19852 0.0
C1420 C 0.89893 0.35194 0.21838 0.0
C1421 C 0.88215 0.33441 0.23096 0.0
C1422 C 0.87841 0.31085 0.22367 0.0
C1423 C 0.96762 0.18491 0.21304 0.0
C1424 C 0.96148 0.18159 0.23457 0.0
C1425 C 0.94975 0.20342 0.20219 0.0
C1426 C 0.92412 0.21861 0.21235 0.0
C1427 C 0.91886 0.21591 0.23399 0.0
C1428 C 0.9377 0.19778 0.24503 0.0
C1429 C 0.90301 0.23725 0.20036 0.0
C1430 C 0.90377 0.26109 0.20749 0.0
C1431 C 0.88381 0.23187 0.18141 0.0
C1432 C 0.88092 0.20703 0.17316 0.0
C1433 C 0.86624 0.18836 0.18554 0.0
C1434 C 0.86562 0.1648 0.178 0.0
C1435 C 0.87927 0.15976 0.15802 0.0
C1436 C 0.89317 0.17826 0.14546 0.0
C1437 C 0.89394 0.20182 0.15294 0.0
H1438 H 0.87922 0.14154 0.15225 0.0
H1439 H 0.90177 0.37016 0.22404 0.0
H1440 H 0.80668 0.67554 0.63247 0.0
H1441 H 0.84863 0.70392 0.65045 0.0
H1442 H 0.75309 0.74865 0.6651 0.0
H1443 H 0.711 0.72037 0.64708 0.0
H1444 H 0.81214 0.77493 0.65046 0.0
H1445 H 0.79279 0.71289 0.70211 0.0
H1446 H 0.79342 0.67132 0.71536 0.0
H1447 H 0.91301 0.66734 0.70476 0.0
H1448 H 0.91299 0.7088 0.69119 0.0
H1449 H 0.89339 0.85388 0.72316 0.0
H1450 H 0.85472 0.82406 0.70539 0.0
H1451 H 0.95015 0.77601 0.70329 0.0
H1452 H 0.98761 0.80489 0.7236 0.0
H1453 H 0.89309 0.75067 0.71027 0.0
H1454 H 0.91353 0.81056 0.6569 0.0
H1455 H 0.91557 0.85229 0.64385 0.0
H1456 H 0.79688 0.85969 0.65603 0.0
H1457 H 0.79449 0.81813 0.66942 0.0
C1458 C 0.79451 0.69132 0.63961 0.0
C1459 C 0.75533 0.69561 0.63857 0.0
C1460 C 0.81857 0.70753 0.64992 0.0
C1461 C 0.80398 0.72833 0.65931 0.0
C1462 C 0.76501 0.73274 0.65802 0.0
C1463 C 0.74099 0.71654 0.6478 0.0
C1464 C 0.82916 0.74567 0.67034 0.0
C1465 C 0.82963 0.76966 0.66364 0.0
C1466 C 0.85277 0.73873 0.68719 0.0
C1467 C 0.85281 0.71385 0.69543 0.0
C1468 C 0.81916 0.70308 0.70245 0.0
C1469 C 0.81942 0.67955 0.71005 0.0
C1470 C 0.85322 0.66667 0.71084 0.0
C1471 C 0.88685 0.67732 0.7041 0.0
C1472 C 0.88673 0.70084 0.69647 0.0
C1473 C 0.90592 0.83675 0.71937 0.0
C1474 C 0.94334 0.83159 0.72518 0.0
C1475 C 0.884 0.81985 0.70866 0.0
C1476 C 0.89959 0.79787 0.70233 0.0
C1477 C 0.93728 0.7928 0.70788 0.0
C1478 C 0.95882 0.80939 0.71937 0.0
C1479 C 0.87631 0.78006 0.69038 0.0
C1480 C 0.87601 0.75596 0.69694 0.0
C1481 C 0.85319 0.78682 0.6732 0.0
C1482 C 0.85404 0.81143 0.66438 0.0
C1483 C 0.88804 0.82122 0.65691 0.0
C1484 C 0.88921 0.84479 0.64943 0.0
C1485 C 0.85638 0.85867 0.64918 0.0
C1486 C 0.82228 0.84893 0.65625 0.0
C1487 C 0.821 0.82535 0.66374 0.0
H1488 H 0.85733 0.87696 0.64347 0.0
H1489 H 0.85336 0.64845 0.71673 0.0
H1490 H 0.67125 0.84705 0.1504 0.0
H1491 H 0.64123 0.81495 0.17054 0.0
H1492 H 0.72149 0.76416 0.14606 0.0
H1493 H 0.75092 0.79624 0.1254 0.0
H1494 H 0.65336 0.74534 0.14513 0.0
H1495 H 0.72712 0.78583 0.19718 0.0
H1496 H 0.7506 0.82031 0.21769 0.0
H1497 H 0.63834 0.83377 0.23996 0.0
H1498 H 0.61407 0.79957 0.21935 0.0
H1499 H 0.60817 0.65256 0.218 0.0
H1500 H 0.64237 0.68413 0.19911 0.0
H1501 H 0.55586 0.73505 0.21552 0.0
H1502 H 0.52186 0.70357 0.23463 0.0
H1503 H 0.62924 0.75293 0.22116 0.0
H1504 H 0.55602 0.71203 0.16827 0.0
H1505 H 0.53426 0.67653 0.1485 0.0
H1506 H 0.64782 0.66301 0.12849 0.0
H1507 H 0.67047 0.69817 0.14844 0.0
C1508 C 0.68273 0.82909 0.14951 0.0
C1509 C 0.714 0.82424 0.13675 0.0
C1510 C 0.66562 0.81075 0.16107 0.0
C1511 C 0.6795 0.78716 0.16018 0.0
C1512 C 0.71042 0.78222 0.14716 0.0
C1513 C 0.7274 0.80056 0.13549 0.0
C1514 C 0.66109 0.76759 0.17239 0.0
C1515 C 0.64863 0.74689 0.16181 0.0
C1516 C 0.65421 0.76969 0.19412 0.0
C1517 C 0.66872 0.79027 0.20655 0.0
C1518 C 0.70738 0.79626 0.20632 0.0
C1519 C 0.72085 0.81574 0.21799 0.0
C1520 C 0.69597 0.82926 0.23008 0.0
C1521 C 0.65758 0.8233 0.23057 0.0
C1522 C 0.64396 0.80386 0.21891 0.0
C1523 C 0.59666 0.67054 0.21767 0.0
C1524 C 0.56253 0.67571 0.22781 0.0
C1525 C 0.61606 0.6885 0.2068 0.0
C1526 C 0.60154 0.71191 0.20582 0.0
C1527 C 0.56757 0.71712 0.2161 0.0
C1528 C 0.54807 0.69912 0.22686 0.0
C1529 C 0.62147 0.73091 0.19385 0.0
C1530 C 0.63415 0.75145 0.20448 0.0
C1531 C 0.62874 0.7286 0.17222 0.0
C1532 C 0.61502 0.70762 0.16002 0.0
C1533 C 0.57642 0.7014 0.15979 0.0
C1534 C 0.5639 0.68135 0.14854 0.0
C1535 C 0.58962 0.66752 0.13729 0.0
C1536 C 0.62792 0.67373 0.13723 0.0
C1537 C 0.64063 0.69372 0.1485 0.0
H1538 H 0.57985 0.65202 0.12858 0.0
H1539 H 0.70645 0.84433 0.2391 0.0
H1540 H 0.2172 0.79482 0.34952 0.0
H1541 H 0.26184 0.7682 0.33189 0.0
H1542 H 0.34632 0.78433 0.37866 0.0
H1543 H 0.30159 0.8109 0.39645 0.0
H1544 H 0.37553 0.78437 0.3381 0.0
H1545 H 0.29989 0.73347 0.38208 0.0
H1546 H 0.24044 0.71671 0.39593 0.0
H1547 H 0.21033 0.6911 0.33477 0.0
H1548 H 0.26938 0.70803 0.3205 0.0
H1549 H 0.44722 0.65285 0.31797 0.0
H1550 H 0.40945 0.68224 0.33704 0.0
H1551 H 0.41362 0.73001 0.284 0.0
H1552 H 0.45282 0.70111 0.26527 0.0
H1553 H 0.34203 0.69837 0.32935 0.0
H1554 H 0.4041 0.78637 0.29807 0.0
H1555 H 0.46475 0.80347 0.28615 0.0
H1556 H 0.52519 0.75466 0.32584 0.0
H1557 H 0.46487 0.73687 0.33769 0.0
C1558 C 0.24548 0.79294 0.35586 0.0
C1559 C 0.25622 0.80536 0.37407 0.0
C1560 C 0.27087 0.77765 0.34585 0.0
C1561 C 0.30739 0.77427 0.35397 0.0
C1562 C 0.31836 0.78682 0.37205 0.0
C1563 C 0.29285 0.80201 0.38217 0.0
C1564 C 0.33367 0.75707 0.34395 0.0
C1565 C 0.36826 0.76556 0.33619 0.0
C1566 C 0.32434 0.73248 0.34163 0.0
C1567 C 0.28888 0.72222 0.35019 0.0
C1568 C 0.28044 0.72444 0.37155 0.0
C1569 C 0.24685 0.71488 0.37948 0.0
C1570 C 0.22158 0.7029 0.36623 0.0
C1571 C 0.2299 0.70041 0.34502 0.0
C1572 C 0.26345 0.70997 0.337 0.0
C1573 C 0.44044 0.66976 0.31049 0.0
C1574 C 0.45271 0.67463 0.29008 0.0
C1575 C 0.41872 0.6865 0.32136 0.0
C1576 C 0.40885 0.70848 0.31207 0.0
C1577 C 0.42135 0.71342 0.2917 0.0
C1578 C 0.44336 0.69675 0.28089 0.0
C1579 C 0.38403 0.72563 0.32336 0.0
C1580 C 0.34949 0.71715 0.33128 0.0
C1581 C 0.3936 0.75017 0.32598 0.0
C1582 C 0.43003 0.76022 0.31864 0.0
C1583 C 0.43036 0.77922 0.30419 0.0
C1584 C 0.46465 0.78894 0.29737 0.0
C1585 C 0.4988 0.77999 0.30511 0.0
C1586 C 0.4987 0.7613 0.31966 0.0
C1587 C 0.46449 0.75131 0.32636 0.0
H1588 H 0.52532 0.78761 0.29991 0.0
H1589 H 0.19559 0.69551 0.3724 0.0
H1590 H 0.21222 0.71513 0.91017 0.0
H1591 H 0.18377 0.74764 0.88961 0.0
H1592 H 0.1793 0.70124 0.83566 0.0
H1593 H 0.20821 0.66885 0.85617 0.0
H1594 H 0.20315 0.74584 0.82537 0.0
H1595 H 0.10057 0.71173 0.86526 0.0
H1596 H 0.06805 0.69891 0.89742 0.0
H1597 H 0.07273 0.77108 0.92089 0.0
H1598 H 0.10579 0.78426 0.88899 0.0
H1599 H 0.06423 0.80641 0.76417 0.0
H1600 H 0.10263 0.77829 0.78443 0.0
H1601 H 0.10318 0.8275 0.83646 0.0
H1602 H 0.06548 0.85595 0.81607 0.0
H1603 H 0.08321 0.78306 0.84849 0.0
H1604 H 0.18669 0.81763 0.81137 0.0
H1605 H 0.22424 0.83183 0.78144 0.0
H1606 H 0.21954 0.76147 0.75412 0.0
H1607 H 0.18244 0.74675 0.78412 0.0
C1608 C 0.20505 0.71195 0.89393 0.0
C1609 C 0.21152 0.68942 0.88481 0.0
C1610 C 0.18876 0.73045 0.88222 0.0
C1611 C 0.17874 0.72673 0.86119 0.0
C1612 C 0.18653 0.70446 0.85189 0.0
C1613 C 0.20285 0.68597 0.86359 0.0
C1614 C 0.15985 0.74593 0.84892 0.0
C1615 C 0.17666 0.75375 0.83028 0.0
C1616 C 0.12594 0.75684 0.85567 0.0
C1617 C 0.10601 0.74892 0.87484 0.0
C1618 C 0.09495 0.72482 0.87736 0.0
C1619 C 0.07637 0.7175 0.89552 0.0
C1620 C 0.06843 0.73416 0.91121 0.0
C1621 C 0.07896 0.75819 0.90874 0.0
C1622 C 0.0976 0.7656 0.89062 0.0
C1623 C 0.07347 0.81155 0.77969 0.0
C1624 C 0.06237 0.83357 0.78839 0.0
C1625 C 0.09528 0.79541 0.7913 0.0
C1626 C 0.10611 0.80088 0.81191 0.0
C1627 C 0.09525 0.82293 0.82057 0.0
C1628 C 0.07368 0.83915 0.80892 0.0
C1629 C 0.12639 0.78287 0.82486 0.0
C1630 C 0.10976 0.7752 0.8436 0.0
C1631 C 0.16063 0.77228 0.81833 0.0
C1632 C 0.18151 0.78117 0.79986 0.0
C1633 C 0.19339 0.80525 0.79888 0.0
C1634 C 0.2148 0.81334 0.78198 0.0
C1635 C 0.22416 0.79759 0.76583 0.0
C1636 C 0.21226 0.77366 0.76662 0.0
C1637 C 0.19121 0.76539 0.78363 0.0
H1638 H 0.2406 0.80394 0.75271 0.0
H1639 H 0.05404 0.72845 0.92526 0.0
loop_
_geom_bond_atom_site_label_1
_geom_bond_atom_site_label_2
_geom_bond_distance
_geom_bond_site_symmetry_2
_ccdc_geom_bond_type
H0 C7 0.929 . S
H1 C10 0.930 . S
H2 C12 0.929 . S
H3 C4 0.969 . S
C4 H3 0.969 . S
C4 O5 1.550 . S
C4 H6 0.973 . S
O5 C4 1.550 . S
O5 C11 1.412 . S
H6 C4 0.973 . S
C7 H0 0.929 . S
C7 C8 1.400 . S
C7 C9 1.364 . S
C8 C7 1.400 . S
C8 C12 1.377 . S
C9 C7 1.364 . S
C9 C10 1.374 . S
C10 H1 0.930 . S
C10 C9 1.374 . S
C10 C11 1.383 . S
C11 O5 1.412 . S
C11 C10 1.383 . S
C11 C12 1.394 . S
C12 H2 0.929 . S
C12 C8 1.377 . S
C12 C11 1.394 . S
H13 C20 0.929 . S
H14 C23 0.930 . S
H15 C25 0.929 . S
H16 C17 0.969 . S
C17 H16 0.969 . S
C17 O18 1.550 . S
C17 H19 0.973 . S
O18 C17 1.550 . S
O18 C24 1.412 . S
H19 C17 0.973 . S
C20 H13 0.929 . S
C20 C21 1.400 . S
C20 C22 1.364 . S
C21 C20 1.400 . S
C21 C25 1.377 . S
C22 C20 1.364 . S
C22 C23 1.374 . S
C23 H14 0.930 . S
C23 C22 1.374 . S
C23 C24 1.383 . S
C24 O18 1.412 . S
C24 C23 1.383 . S
C24 C25 1.394 . S
C25 H15 0.929 . S
C25 C21 1.377 . S
C25 C24 1.394 . S
H26 C33 0.929 . S
H27 C36 0.930 . S
H28 C38 0.929 . S
H29 C30 0.969 . S
C30 H29 0.969 . S
C30 O31 1.550 . S
C30 H32 0.973 . S
O31 C30 1.550 . S
O31 C37 1.412 . S
H32 C30 0.973 . S
C33 H26 0.929 . S
C33 C34 1.400 . S
C33 C35 1.364 . S
C34 C33 1.400 . S
C34 C38 1.377 . S
C35 C33 1.364 . S
C35 C36 1.374 . S
C36 H27 0.930 . S
C36 C35 1.374 . S
C36 C37 1.383 . S
C37 O31 1.412 . S
C37 C36 1.383 . S
C37 C38 1.394 . S
C38 H28 0.929 . S
C38 C34 1.377 . S
C38 C37 1.394 . S
H39 C46 0.929 . S
H40 C49 0.930 . S
H41 C51 0.929 . S
H42 C43 0.969 . S
C43 H42 0.969 . S
C43 O44 1.550 . S
C43 H45 0.973 . S
O44 C43 1.550 . S
O44 C50 1.412 . S
H45 C43 0.973 . S
C46 H39 0.929 . S
C46 C47 1.400 . S
C46 C48 1.364 . S
C47 C46 1.400 . S
C47 C51 1.377 . S
C48 C46 1.364 . S
C48 C49 1.374 . S
C49 H40 0.930 . S
C49 C48 1.374 . S
C49 C50 1.383 . S
C50 O44 1.412 . S
C50 C49 1.383 . S
C50 C51 1.394 . S
C51 H41 0.929 . S
C51 C47 1.377 . S
C51 C50 1.394 . S
H52 C59 0.929 . S
H53 C62 0.930 . S
H54 C64 0.929 . S
H55 C56 0.969 . S
C56 H55 0.969 . S
C56 O57 1.550 . S
C56 H58 0.973 . S
O57 C56 1.550 . S
O57 C63 1.412 . S
H58 C56 0.973 . S
C59 H52 0.929 . S
C59 C60 1.400 . S
C59 C61 1.364 . S
C60 C59 1.400 . S
C60 C64 1.377 . S
C61 C59 1.364 . S
C61 C62 1.374 . S
C62 H53 0.930 . S
C62 C61 1.374 . S
C62 C63 1.383 . S
C63 O57 1.412 . S
C63 C62 1.383 . S
C63 C64 1.394 . S
C64 H54 0.929 . S
C64 C60 1.377 . S
C64 C63 1.394 . S
H65 C72 0.929 . S
H66 C75 0.930 . S
H67 C77 0.929 . S
H68 C69 0.969 . S
C69 H68 0.969 . S
C69 O70 1.550 . S
C69 H71 0.973 . S
O70 C69 1.550 . S
O70 C76 1.412 . S
H71 C69 0.973 . S
C72 H65 0.929 . S
C72 C73 1.400 . S
C72 C74 1.364 . S
C73 C72 1.400 . S
C73 C77 1.377 . S
C74 C72 1.364 . S
C74 C75 1.374 . S
C75 H66 0.930 . S
C75 C74 1.374 . S
C75 C76 1.383 . S
C76 O70 1.412 . S
C76 C75 1.383 . S
C76 C77 1.394 . S
C77 H67 0.929 . S
C77 C73 1.377 . S
C77 C76 1.394 . S
H78 C85 0.929 . S
H79 C88 0.930 . S
H80 C90 0.929 . S
H81 C82 0.969 . S
C82 H81 0.969 . S
C82 O83 1.550 . S
C82 H84 0.973 . S
O83 C82 1.550 . S
O83 C89 1.412 . S
H84 C82 0.973 . S
C85 H78 0.929 . S
C85 C86 1.400 . S
C85 C87 1.364 . S
C86 C85 1.400 . S
C86 C90 1.377 . S
C87 C85 1.364 . S
C87 C88 1.374 . S
C88 H79 0.930 . S
C88 C87 1.374 . S
C88 C89 1.383 . S
C89 O83 1.412 . S
C89 C88 1.383 . S
C89 C90 1.394 . S
C90 H80 0.929 . S
C90 C86 1.377 . S
C90 C89 1.394 . S
H91 C98 0.929 . S
H92 C101 0.930 . S
H93 C103 0.929 . S
H94 C95 0.969 . S
C95 H94 0.969 . S
C95 O96 1.550 . S
C95 H97 0.973 . S
O96 C95 1.550 . S
O96 C102 1.412 . S
H97 C95 0.973 . S
C98 H91 0.929 . S
C98 C99 1.400 . S
C98 C100 1.364 . S
C99 C98 1.400 . S
C99 C103 1.377 . S
C100 C98 1.364 . S
C100 C101 1.374 . S
C101 H92 0.930 . S
C101 C100 1.374 . S
C101 C102 1.383 . S
C102 O96 1.412 . S
C102 C101 1.383 . S
C102 C103 1.394 . S
C103 H93 0.929 . S
C103 C99 1.377 . S
C103 C102 1.394 . S
Tb104 N133 2.617 . S
Tb104 N139 2.572 . S
Tb104 O148 2.465 . S
Tb104 O149 2.387 . S
Tb104 O151 2.428 . S
Tb104 O152 2.308 . S
Tb104 O156 2.349 . S
Tb104 O159 2.393 . S
Tb104 C168 2.802 . S
C105 N106 1.379 . S
C105 C108 1.416 . S
C105 C112 1.424 . S
N106 C105 1.379 . S
N106 C109 1.334 . S
N106 Tb115 2.617 . S
C107 C109 1.390 . S
C107 C110 1.339 . S
C107 H127 0.930 . S
C108 C105 1.416 . S
C108 C110 1.416 . S
C108 C114 1.448 . S
C109 N106 1.334 . S
C109 C107 1.390 . S
C109 H120 0.930 . S
C110 C107 1.339 . S
C110 C108 1.416 . S
C110 H131 0.930 . S
C111 C112 1.413 . S
C111 C113 1.427 . S
C111 C117 1.416 . S
C112 C105 1.424 . S
C112 C111 1.413 . S
C112 N116 1.361 . S
C113 C111 1.427 . S
C113 C114 1.328 . S
C113 H128 0.929 . S
C114 C108 1.448 . S
C114 C113 1.328 . S
C114 H129 0.930 . S
Tb115 N106 2.617 . S
Tb115 N116 2.572 . S
Tb115 O150 2.349 1_655 S
Tb115 O153 2.393 . S
Tb115 O154 2.465 . S
Tb115 O155 2.387 . S
Tb115 O157 2.428 . S
Tb115 O158 2.308 1_655 S
Tb115 C179 2.802 . S
N116 C112 1.361 . S
N116 Tb115 2.572 . S
N116 C118 1.340 . S
C117 C111 1.416 . S
C117 C119 1.332 . S
C117 H125 0.931 . S
C118 N116 1.340 . S
C118 C119 1.407 . S
C118 H124 0.930 . S
C119 C117 1.332 . S
C119 C118 1.407 . S
C119 H121 0.929 . S
H120 C109 0.930 . S
H121 C119 0.929 . S
H122 C137 0.930 . S
H123 C144 0.929 . S
H124 C118 0.930 . S
H125 C117 0.931 . S
H126 C140 0.930 . S
H127 C107 0.930 . S
H128 C113 0.929 . S
H129 C114 0.930 . S
H130 C135 0.930 . S
H131 C110 0.930 . S
H132 C143 0.931 . S
N133 Tb104 2.617 . S
N133 C134 1.379 . S
N133 C137 1.334 . S
C134 N133 1.379 . S
C134 C136 1.416 . S
C134 C142 1.424 . S
C135 H130 0.930 . S
C135 C137 1.390 . S
C135 C138 1.339 . S
C136 C134 1.416 . S
C136 C138 1.416 . S
C136 C169 1.448 . S
C137 H122 0.930 . S
C137 N133 1.334 . S
C137 C135 1.390 . S
C138 C135 1.339 . S
C138 C136 1.416 . S
C138 H145 0.930 . S
N139 Tb104 2.572 . S
N139 C140 1.340 . S
N139 C142 1.361 . S
C140 H126 0.930 . S
C140 N139 1.340 . S
C140 C144 1.407 . S
C141 C142 1.413 . S
C141 C143 1.416 . S
C141 C170 1.427 . S
C142 C134 1.424 . S
C142 N139 1.361 . S
C142 C141 1.413 . S
C143 H132 0.931 . S
C143 C141 1.416 . S
C143 C144 1.332 . S
C144 H123 0.929 . S
C144 C140 1.407 . S
C144 C143 1.332 . S
H145 C138 0.930 . S
H146 C169 0.930 . S
H147 C170 0.929 . S
O148 Tb104 2.465 . S
O148 C168 1.264 . S
O149 Tb104 2.387 . S
O149 C160 1.264 . S
O150 Tb115 2.349 1_455 S
O150 C160 1.243 . S
O151 Tb104 2.428 . S
O151 C168 1.256 . S
O152 Tb104 2.308 . S
O152 C167 1.266 1_455 S
O153 Tb115 2.393 . S
O153 C167 1.248 . S
O154 Tb115 2.465 . S
O154 C179 1.264 . S
O155 Tb115 2.387 . S
O155 C171 1.264 . S
O156 Tb104 2.349 . S
O156 C171 1.243 1_455 S
O157 Tb115 2.428 . S
O157 C179 1.256 . S
O158 Tb115 2.308 1_455 S
O158 C178 1.266 . S
O159 Tb104 2.393 . S
O159 C178 1.248 . S
C160 O149 1.264 . S
C160 O150 1.243 . S
C161 C164 1.399 . S
C161 C166 1.383 . S
C161 C168 1.496 . S
C162 C163 1.399 . S
C162 C166 1.389 . S
C163 C162 1.399 . S
C163 C165 1.380 . S
C163 H180 0.929 . S
C164 C161 1.399 . S
C164 C165 1.392 . S
C164 H181 0.929 . S
C165 C163 1.380 . S
C165 C164 1.392 . S
C165 H182 0.929 . S
C166 C161 1.383 . S
C166 C162 1.389 . S
C166 H183 0.931 . S
C167 O152 1.266 1_655 S
C167 O153 1.248 . S
C168 Tb104 2.802 . S
C168 O148 1.264 . S
C168 O151 1.256 . S
C168 C161 1.496 . S
C169 C136 1.448 . S
C169 H146 0.930 . S
C169 C170 1.328 . S
C170 C141 1.427 . S
C170 H147 0.929 . S
C170 C169 1.328 . S
C171 O155 1.264 . S
C171 O156 1.243 1_655 S
C172 C175 1.399 . S
C172 C176 1.383 . S
C172 C179 1.496 . S
C173 C174 1.399 . S
C173 C176 1.389 . S
C174 C173 1.399 . S
C174 C177 1.380 . S
C174 H184 0.929 . S
C175 C172 1.399 . S
C175 C177 1.392 . S
C175 H185 0.929 . S
C176 C172 1.383 . S
C176 C173 1.389 . S
C176 H186 0.931 . S
C177 C174 1.380 . S
C177 C175 1.392 . S
C177 H187 0.929 . S
C178 O158 1.266 . S
C178 O159 1.248 . S
C179 Tb115 2.802 . S
C179 O154 1.264 . S
C179 O157 1.256 . S
C179 C172 1.496 . S
H180 C163 0.929 . S
H181 C164 0.929 . S
H182 C165 0.929 . S
H183 C166 0.931 . S
H184 C174 0.929 . S
H185 C175 0.929 . S
H186 C176 0.931 . S
H187 C177 0.929 . S
Tb188 N217 2.617 . S
Tb188 N223 2.572 . S
Tb188 O232 2.465 . S
Tb188 O233 2.387 . S
Tb188 O235 2.428 . S
Tb188 O236 2.308 . S
Tb188 O240 2.349 . S
Tb188 O243 2.393 . S
Tb188 C252 2.802 . S
C189 N190 1.379 . S
C189 C192 1.416 . S
C189 C196 1.424 . S
N190 C189 1.379 . S
N190 C193 1.334 . S
N190 Tb199 2.617 . S
C191 C193 1.390 . S
C191 C194 1.339 . S
C191 H211 0.930 . S
C192 C189 1.416 . S
C192 C194 1.416 . S
C192 C198 1.448 . S
C193 N190 1.334 . S
C193 C191 1.390 . S
C193 H204 0.930 . S
C194 C191 1.339 . S
C194 C192 1.416 . S
C194 H215 0.930 . S
C195 C196 1.413 . S
C195 C197 1.427 . S
C195 C201 1.416 . S
C196 C189 1.424 . S
C196 C195 1.413 . S
C196 N200 1.361 . S
C197 C195 1.427 . S
C197 C198 1.328 . S
C197 H212 0.929 . S
C198 C192 1.448 . S
C198 C197 1.328 . S
C198 H213 0.930 . S
Tb199 N190 2.617 . S
Tb199 N200 2.572 . S
Tb199 O234 2.349 . S
Tb199 O237 2.393 . S
Tb199 O238 2.465 . S
Tb199 O239 2.387 . S
Tb199 O241 2.428 . S
Tb199 O242 2.308 . S
Tb199 C263 2.802 . S
N200 C196 1.361 . S
N200 Tb199 2.572 . S
N200 C202 1.340 . S
C201 C195 1.416 . S
C201 C203 1.332 . S
C201 H209 0.931 . S
C202 N200 1.340 . S
C202 C203 1.407 . S
C202 H208 0.930 . S
C203 C201 1.332 . S
C203 C202 1.407 . S
C203 H205 0.929 . S
H204 C193 0.930 . S
H205 C203 0.929 . S
H206 C221 0.930 . S
H207 C228 0.929 . S
H208 C202 0.930 . S
H209 C201 0.931 . S
H210 C224 0.930 . S
H211 C191 0.930 . S
H212 C197 0.929 . S
H213 C198 0.930 . S
H214 C219 0.930 . S
H215 C194 0.930 . S
H216 C227 0.931 . S
N217 Tb188 2.617 . S
N217 C218 1.379 . S
N217 C221 1.334 . S
C218 N217 1.379 . S
C218 C220 1.416 . S
C218 C226 1.424 . S
C219 H214 0.930 . S
C219 C221 1.390 . S
C219 C222 1.339 . S
C220 C218 1.416 . S
C220 C222 1.416 . S
C220 C253 1.448 . S
C221 H206 0.930 . S
C221 N217 1.334 . S
C221 C219 1.390 . S
C222 C219 1.339 . S
C222 C220 1.416 . S
C222 H229 0.930 . S
N223 Tb188 2.572 . S
N223 C224 1.340 . S
N223 C226 1.361 . S
C224 H210 0.930 . S
C224 N223 1.340 . S
C224 C228 1.407 . S
C225 C226 1.413 . S
C225 C227 1.416 . S
C225 C254 1.427 . S
C226 C218 1.424 . S
C226 N223 1.361 . S
C226 C225 1.413 . S
C227 H216 0.931 . S
C227 C225 1.416 . S
C227 C228 1.332 . S
C228 H207 0.929 . S
C228 C224 1.407 . S
C228 C227 1.332 . S
H229 C222 0.930 . S
H230 C253 0.930 . S
H231 C254 0.929 . S
O232 Tb188 2.465 . S
O232 C252 1.264 . S
O233 Tb188 2.387 . S
O233 C244 1.264 . S
O234 Tb199 2.349 . S
O234 C244 1.243 . S
O235 Tb188 2.428 . S
O235 C252 1.256 . S
O236 Tb188 2.308 . S
O236 C251 1.266 . S
O237 Tb199 2.393 . S
O237 C251 1.248 . S
O238 Tb199 2.465 . S
O238 C263 1.264 . S
O239 Tb199 2.387 . S
O239 C255 1.264 . S
O240 Tb188 2.349 . S
O240 C255 1.243 . S
O241 Tb199 2.428 . S
O241 C263 1.256 . S
O242 Tb199 2.308 . S
O242 C262 1.266 . S
O243 Tb188 2.393 . S
O243 C262 1.248 . S
C244 O233 1.264 . S
C244 O234 1.243 . S
C245 C248 1.399 . S
C245 C250 1.383 . S
C245 C252 1.496 . S
C246 C247 1.399 . S
C246 C250 1.389 . S
C247 C246 1.399 . S
C247 C249 1.380 . S
C247 H264 0.929 . S
C248 C245 1.399 . S
C248 C249 1.392 . S
C248 H265 0.929 . S
C249 C247 1.380 . S
C249 C248 1.392 . S
C249 H266 0.929 . S
C250 C245 1.383 . S
C250 C246 1.389 . S
C250 H267 0.931 . S
C251 O236 1.266 . S
C251 O237 1.248 . S
C252 Tb188 2.802 . S
C252 O232 1.264 . S
C252 O235 1.256 . S
C252 C245 1.496 . S
C253 C220 1.448 . S
C253 H230 0.930 . S
C253 C254 1.328 . S
C254 C225 1.427 . S
C254 H231 0.929 . S
C254 C253 1.328 . S
C255 O239 1.264 . S
C255 O240 1.243 . S
C256 C259 1.399 . S
C256 C260 1.383 . S
C256 C263 1.496 . S
C257 C258 1.399 . S
C257 C260 1.389 . S
C258 C257 1.399 . S
C258 C261 1.380 . S
C258 H268 0.929 . S
C259 C256 1.399 . S
C259 C261 1.392 . S
C259 H269 0.929 . S
C260 C256 1.383 . S
C260 C257 1.389 . S
C260 H270 0.931 . S
C261 C258 1.380 . S
C261 C259 1.392 . S
C261 H271 0.929 . S
C262 O242 1.266 . S
C262 O243 1.248 . S
C263 Tb199 2.802 . S
C263 O238 1.264 . S
C263 O241 1.256 . S
C263 C256 1.496 . S
H264 C247 0.929 . S
H265 C248 0.929 . S
H266 C249 0.929 . S
H267 C250 0.931 . S
H268 C258 0.929 . S
H269 C259 0.929 . S
H270 C260 0.931 . S
H271 C261 0.929 . S
Tb272 N301 2.617 . S
Tb272 N307 2.572 . S
Tb272 O316 2.465 . S
Tb272 O317 2.387 . S
Tb272 O319 2.428 . S
Tb272 O320 2.308 . S
Tb272 O324 2.349 . S
Tb272 O327 2.393 . S
Tb272 C336 2.802 . S
C273 N274 1.379 . S
C273 C276 1.416 . S
C273 C280 1.424 . S
N274 C273 1.379 . S
N274 C277 1.334 . S
N274 Tb283 2.617 . S
C275 C277 1.390 . S
C275 C278 1.339 . S
C275 H295 0.930 . S
C276 C273 1.416 . S
C276 C278 1.416 . S
C276 C282 1.448 . S
C277 N274 1.334 . S
C277 C275 1.390 . S
C277 H288 0.930 . S
C278 C275 1.339 . S
C278 C276 1.416 . S
C278 H299 0.930 . S
C279 C280 1.413 . S
C279 C281 1.427 . S
C279 C285 1.416 . S
C280 C273 1.424 . S
C280 C279 1.413 . S
C280 N284 1.361 . S
C281 C279 1.427 . S
C281 C282 1.328 . S
C281 H296 0.929 . S
C282 C276 1.448 . S
C282 C281 1.328 . S
C282 H297 0.930 . S
Tb283 N274 2.617 . S
Tb283 N284 2.572 . S
Tb283 O318 2.349 1_655 S
Tb283 O321 2.393 . S
Tb283 O322 2.465 . S
Tb283 O323 2.387 . S
Tb283 O325 2.428 . S
Tb283 O326 2.308 1_655 S
Tb283 C347 2.802 . S
N284 C280 1.361 . S
N284 Tb283 2.572 . S
N284 C286 1.340 . S
C285 C279 1.416 . S
C285 C287 1.332 . S
C285 H293 0.931 . S
C286 N284 1.340 . S
C286 C287 1.407 . S
C286 H292 0.930 . S
C287 C285 1.332 . S
C287 C286 1.407 . S
C287 H289 0.929 . S
H288 C277 0.930 . S
H289 C287 0.929 . S
H290 C305 0.930 . S
H291 C312 0.929 . S
H292 C286 0.930 . S
H293 C285 0.931 . S
H294 C308 0.930 . S
H295 C275 0.930 . S
H296 C281 0.929 . S
H297 C282 0.930 . S
H298 C303 0.930 . S
H299 C278 0.930 . S
H300 C311 0.931 . S
N301 Tb272 2.617 . S
N301 C302 1.379 . S
N301 C305 1.334 . S
C302 N301 1.379 . S
C302 C304 1.416 . S
C302 C310 1.424 . S
C303 H298 0.930 . S
C303 C305 1.390 . S
C303 C306 1.339 . S
C304 C302 1.416 . S
C304 C306 1.416 . S
C304 C337 1.448 . S
C305 H290 0.930 . S
C305 N301 1.334 . S
C305 C303 1.390 . S
C306 C303 1.339 . S
C306 C304 1.416 . S
C306 H313 0.930 . S
N307 Tb272 2.572 . S
N307 C308 1.340 . S
N307 C310 1.361 . S
C308 H294 0.930 . S
C308 N307 1.340 . S
C308 C312 1.407 . S
C309 C310 1.413 . S
C309 C311 1.416 . S
C309 C338 1.427 . S
C310 C302 1.424 . S
C310 N307 1.361 . S
C310 C309 1.413 . S
C311 H300 0.931 . S
C311 C309 1.416 . S
C311 C312 1.332 . S
C312 H291 0.929 . S
C312 C308 1.407 . S
C312 C311 1.332 . S
H313 C306 0.930 . S
H314 C337 0.930 . S
H315 C338 0.929 . S
O316 Tb272 2.465 . S
O316 C336 1.264 . S
O317 Tb272 2.387 . S
O317 C328 1.264 . S
O318 Tb283 2.349 1_455 S
O318 C328 1.243 . S
O319 Tb272 2.428 . S
O319 C336 1.256 . S
O320 Tb272 2.308 . S
O320 C335 1.266 1_455 S
O321 Tb283 2.393 . S
O321 C335 1.248 . S
O322 Tb283 2.465 . S
O322 C347 1.264 . S
O323 Tb283 2.387 . S
O323 C339 1.264 . S
O324 Tb272 2.349 . S
O324 C339 1.243 1_455 S
O325 Tb283 2.428 . S
O325 C347 1.256 . S
O326 Tb283 2.308 1_455 S
O326 C346 1.266 . S
O327 Tb272 2.393 . S
O327 C346 1.248 . S
C328 O317 1.264 . S
C328 O318 1.243 . S
C329 C332 1.399 . S
C329 C334 1.383 . S
C329 C336 1.496 . S
C330 C331 1.399 . S
C330 C334 1.389 . S
C331 C330 1.399 . S
C331 C333 1.380 . S
C331 H348 0.929 . S
C332 C329 1.399 . S
C332 C333 1.392 . S
C332 H349 0.929 . S
C333 C331 1.380 . S
C333 C332 1.392 . S
C333 H350 0.929 . S
C334 C329 1.383 . S
C334 C330 1.389 . S
C334 H351 0.931 . S
C335 O320 1.266 1_655 S
C335 O321 1.248 . S
C336 Tb272 2.802 . S
C336 O316 1.264 . S
C336 O319 1.256 . S
C336 C329 1.496 . S
C337 C304 1.448 . S
C337 H314 0.930 . S
C337 C338 1.328 . S
C338 C309 1.427 . S
C338 H315 0.929 . S
C338 C337 1.328 . S
C339 O323 1.264 . S
C339 O324 1.243 1_655 S
C340 C343 1.399 . S
C340 C344 1.383 . S
C340 C347 1.496 . S
C341 C342 1.399 . S
C341 C344 1.389 . S
C342 C341 1.399 . S
C342 C345 1.380 . S
C342 H352 0.929 . S
C343 C340 1.399 . S
C343 C345 1.392 . S
C343 H353 0.929 . S
C344 C340 1.383 . S
C344 C341 1.389 . S
C344 H354 0.931 . S
C345 C342 1.380 . S
C345 C343 1.392 . S
C345 H355 0.929 . S
C346 O326 1.266 . S
C346 O327 1.248 . S
C347 Tb283 2.802 . S
C347 O322 1.264 . S
C347 O325 1.256 . S
C347 C340 1.496 . S
H348 C331 0.929 . S
H349 C332 0.929 . S
H350 C333 0.929 . S
H351 C334 0.931 . S
H352 C342 0.929 . S
H353 C343 0.929 . S
H354 C344 0.931 . S
H355 C345 0.929 . S
Tb356 N385 2.617 . S
Tb356 N391 2.572 . S
Tb356 O400 2.465 . S
Tb356 O401 2.387 . S
Tb356 O403 2.428 . S
Tb356 O404 2.308 . S
Tb356 O408 2.349 . S
Tb356 O411 2.393 . S
Tb356 C420 2.802 . S
C357 N358 1.379 . S
C357 C360 1.416 . S
C357 C364 1.424 . S
N358 C357 1.379 . S
N358 C361 1.334 . S
N358 Tb367 2.617 . S
C359 C361 1.390 . S
C359 C362 1.339 . S
C359 H379 0.930 . S
C360 C357 1.416 . S
C360 C362 1.416 . S
C360 C366 1.448 . S
C361 N358 1.334 . S
C361 C359 1.390 . S
C361 H372 0.930 . S
C362 C359 1.339 . S
C362 C360 1.416 . S
C362 H383 0.930 . S
C363 C364 1.413 . S
C363 C365 1.427 . S
C363 C369 1.416 . S
C364 C357 1.424 . S
C364 C363 1.413 . S
C364 N368 1.361 . S
C365 C363 1.427 . S
C365 C366 1.328 . S
C365 H380 0.929 . S
C366 C360 1.448 . S
C366 C365 1.328 . S
C366 H381 0.930 . S
Tb367 N358 2.617 . S
Tb367 N368 2.572 . S
Tb367 O402 2.349 . S
Tb367 O405 2.393 . S
Tb367 O406 2.465 . S
Tb367 O407 2.387 . S
Tb367 O409 2.428 . S
Tb367 O410 2.308 . S
Tb367 C431 2.802 . S
N368 C364 1.361 . S
N368 Tb367 2.572 . S
N368 C370 1.340 . S
C369 C363 1.416 . S
C369 C371 1.332 . S
C369 H377 0.931 . S
C370 N368 1.340 . S
C370 C371 1.407 . S
C370 H376 0.930 . S
C371 C369 1.332 . S
C371 C370 1.407 . S
C371 H373 0.929 . S
H372 C361 0.930 . S
H373 C371 0.929 . S
H374 C389 0.930 . S
H375 C396 0.929 . S
H376 C370 0.930 . S
H377 C369 0.931 . S
H378 C392 0.930 . S
H379 C359 0.930 . S
H380 C365 0.929 . S
H381 C366 0.930 . S
H382 C387 0.930 . S
H383 C362 0.930 . S
H384 C395 0.931 . S
N385 Tb356 2.617 . S
N385 C386 1.379 . S
N385 C389 1.334 . S
C386 N385 1.379 . S
C386 C388 1.416 . S
C386 C394 1.424 . S
C387 H382 0.930 . S
C387 C389 1.390 . S
C387 C390 1.339 . S
C388 C386 1.416 . S
C388 C390 1.416 . S
C388 C421 1.448 . S
C389 H374 0.930 . S
C389 N385 1.334 . S
C389 C387 1.390 . S
C390 C387 1.339 . S
C390 C388 1.416 . S
C390 H397 0.930 . S
N391 Tb356 2.572 . S
N391 C392 1.340 . S
N391 C394 1.361 . S
C392 H378 0.930 . S
C392 N391 1.340 . S
C392 C396 1.407 . S
C393 C394 1.413 . S
C393 C395 1.416 . S
C393 C422 1.427 . S
C394 C386 1.424 . S
C394 N391 1.361 . S
C394 C393 1.413 . S
C395 H384 0.931 . S
C395 C393 1.416 . S
C395 C396 1.332 . S
C396 H375 0.929 . S
C396 C392 1.407 . S
C396 C395 1.332 . S
H397 C390 0.930 . S
H398 C421 0.930 . S
H399 C422 0.929 . S
O400 Tb356 2.465 . S
O400 C420 1.264 . S
O401 Tb356 2.387 . S
O401 C412 1.264 . S
O402 Tb367 2.349 . S
O402 C412 1.243 . S
O403 Tb356 2.428 . S
O403 C420 1.256 . S
O404 Tb356 2.308 . S
O404 C419 1.266 . S
O405 Tb367 2.393 . S
O405 C419 1.248 . S
O406 Tb367 2.465 . S
O406 C431 1.264 . S
O407 Tb367 2.387 . S
O407 C423 1.264 . S
O408 Tb356 2.349 . S
O408 C423 1.243 . S
O409 Tb367 2.428 . S
O409 C431 1.256 . S
O410 Tb367 2.308 . S
O410 C430 1.266 . S
O411 Tb356 2.393 . S
O411 C430 1.248 . S
C412 O401 1.264 . S
C412 O402 1.243 . S
C413 C416 1.399 . S
C413 C418 1.383 . S
C413 C420 1.496 . S
C414 C415 1.399 . S
C414 C418 1.389 . S
C415 C414 1.399 . S
C415 C417 1.380 . S
C415 H432 0.929 . S
C416 C413 1.399 . S
C416 C417 1.392 . S
C416 H433 0.929 . S
C417 C415 1.380 . S
C417 C416 1.392 . S
C417 H434 0.929 . S
C418 C413 1.383 . S
C418 C414 1.389 . S
C418 H435 0.931 . S
C419 O404 1.266 . S
C419 O405 1.248 . S
C420 Tb356 2.802 . S
C420 O400 1.264 . S
C420 O403 1.256 . S
C420 C413 1.496 . S
C421 C388 1.448 . S
C421 H398 0.930 . S
C421 C422 1.328 . S
C422 C393 1.427 . S
C422 H399 0.929 . S
C422 C421 1.328 . S
C423 O407 1.264 . S
C423 O408 1.243 . S
C424 C427 1.399 . S
C424 C428 1.383 . S
C424 C431 1.496 . S
C425 C426 1.399 . S
C425 C428 1.389 . S
C426 C425 1.399 . S
C426 C429 1.380 . S
C426 H436 0.929 . S
C427 C424 1.399 . S
C427 C429 1.392 . S
C427 H437 0.929 . S
C428 C424 1.383 . S
C428 C425 1.389 . S
C428 H438 0.931 . S
C429 C426 1.380 . S
C429 C427 1.392 . S
C429 H439 0.929 . S
C430 O410 1.266 . S
C430 O411 1.248 . S
C431 Tb367 2.802 . S
C431 O406 1.264 . S
C431 O409 1.256 . S
C431 C424 1.496 . S
H432 C415 0.929 . S
H433 C416 0.929 . S
H434 C417 0.929 . S
H435 C418 0.931 . S
H436 C426 0.929 . S
H437 C427 0.929 . S
H438 C428 0.931 . S
H439 C429 0.929 . S
H440 C458 0.951 . S
H441 C460 0.951 . S
H442 C462 0.950 . S
H443 C463 0.950 . S
H444 C465 0.950 . S
H445 C468 0.950 . S
H446 C469 0.950 . S
H447 C471 0.950 . S
H448 C472 0.950 . S
H449 C473 0.951 . S
H450 C475 0.951 . S
H451 C477 0.950 1_565 S
H452 C478 0.950 . S
H453 C480 0.950 . S
H454 C483 0.950 . S
H455 C484 0.950 . S
H456 C486 0.950 . S
H457 C487 0.950 . S
C458 H440 0.951 . S
C458 C459 1.366 . S
C458 C460 1.388 . S
C459 C458 1.366 . S
C459 C463 1.385 . S
C460 H441 0.951 . S
C460 C458 1.388 . S
C460 C461 1.366 . S
C461 C460 1.366 . S
C461 C462 1.414 . S
C461 C464 1.499 . S
C462 H442 0.950 . S
C462 C461 1.414 . S
C462 C463 1.374 . S
C463 H443 0.950 . S
C463 C459 1.385 . S
C463 C462 1.374 . S
C464 C461 1.499 . S
C464 C465 1.373 . S
C464 C466 1.389 . S
C465 H444 0.950 . S
C465 C464 1.373 . S
C465 C481 1.377 1_565 S
C466 C464 1.389 . S
C466 C467 1.524 . S
C466 C480 1.377 . S
C467 C466 1.524 . S
C467 C468 1.397 . S
C467 C472 1.363 . S
C468 H445 0.950 . S
C468 C467 1.397 . S
C468 C469 1.334 . S
C469 H446 0.950 . S
C469 C468 1.334 . S
C469 C470 1.287 . S
C470 C469 1.287 . S
C470 C471 1.524 . S
C470 H489 0.913 . S
C471 H447 0.950 . S
C471 C470 1.524 . S
C471 C472 1.415 . S
C472 H448 0.950 . S
C472 C467 1.363 . S
C472 C471 1.415 . S
C473 H449 0.951 . S
C473 C474 1.366 . S
C473 C475 1.388 . S
C474 C473 1.366 . S
C474 C478 1.385 . S
C475 H450 0.951 . S
C475 C473 1.388 . S
C475 C476 1.366 . S
C476 C475 1.366 . S
C476 C477 1.414 . S
C476 C479 1.502 . S
C477 H451 0.950 1_545 S
C477 C476 1.414 . S
C477 C478 1.374 . S
C478 H452 0.950 . S
C478 C474 1.385 . S
C478 C477 1.374 . S
C479 C476 1.502 . S
C479 C480 1.369 1_545 S
C479 C481 1.390 . S
C480 H453 0.950 . S
C480 C466 1.377 . S
C480 C479 1.369 1_565 S
C481 C465 1.377 1_545 S
C481 C479 1.390 . S
C481 C482 1.524 . S
C482 C481 1.524 . S
C482 C483 1.397 . S
C482 C487 1.363 . S
C483 H454 0.950 . S
C483 C482 1.397 . S
C483 C484 1.334 . S
C484 H455 0.950 . S
C484 C483 1.334 . S
C484 C485 1.287 . S
C485 C484 1.287 . S
C485 C486 1.524 . S
C485 H488 0.999 . S
C486 H456 0.950 . S
C486 C485 1.524 . S
C486 C487 1.415 . S
C487 H457 0.950 . S
C487 C482 1.363 . S
C487 C486 1.415 . S
H488 C485 0.999 . S
H489 C470 0.913 . S
H490 C508 0.951 . S
H491 C510 0.951 . S
H492 C512 0.950 . S
H493 C513 0.950 . S
H494 C515 0.950 . S
H495 C518 0.950 . S
H496 C519 0.950 . S
H497 C521 0.950 . S
H498 C522 0.950 . S
H499 C523 0.951 . S
H500 C525 0.951 . S
H501 C527 0.950 . S
H502 C528 0.950 . S
H503 C530 0.950 . S
H504 C533 0.950 . S
H505 C534 0.950 . S
H506 C536 0.950 . S
H507 C537 0.950 . S
C508 H490 0.951 . S
C508 C509 1.366 . S
C508 C510 1.388 . S
C509 C508 1.366 . S
C509 C513 1.385 . S
C510 H491 0.951 . S
C510 C508 1.388 . S
C510 C511 1.366 . S
C511 C510 1.366 . S
C511 C512 1.414 . S
C511 C514 1.499 . S
C512 H492 0.950 . S
C512 C511 1.414 . S
C512 C513 1.374 . S
C513 H493 0.950 . S
C513 C509 1.385 . S
C513 C512 1.374 . S
C514 C511 1.499 . S
C514 C515 1.373 . S
C514 C516 1.389 . S
C515 H494 0.950 . S
C515 C514 1.373 . S
C515 C531 1.377 . S
C516 C514 1.389 . S
C516 C517 1.524 . S
C516 C530 1.377 . S
C517 C516 1.524 . S
C517 C518 1.397 . S
C517 C522 1.363 . S
C518 H495 0.950 . S
C518 C517 1.397 . S
C518 C519 1.334 . S
C519 H496 0.950 . S
C519 C518 1.334 . S
C519 C520 1.287 . S
C520 C519 1.287 . S
C520 C521 1.524 . S
C520 H539 0.913 . S
C521 H497 0.950 . S
C521 C520 1.524 . S
C521 C522 1.415 . S
C522 H498 0.950 . S
C522 C517 1.363 . S
C522 C521 1.415 . S
C523 H499 0.951 . S
C523 C524 1.366 . S
C523 C525 1.388 . S
C524 C523 1.366 . S
C524 C528 1.385 . S
C525 H500 0.951 . S
C525 C523 1.388 . S
C525 C526 1.366 . S
C526 C525 1.366 . S
C526 C527 1.414 . S
C526 C529 1.499 . S
C527 H501 0.950 . S
C527 C526 1.414 . S
C527 C528 1.374 . S
C528 H502 0.950 . S
C528 C524 1.385 . S
C528 C527 1.374 . S
C529 C526 1.499 . S
C529 C530 1.373 . S
C529 C531 1.389 . S
C530 H503 0.950 . S
C530 C516 1.377 . S
C530 C529 1.373 . S
C531 C515 1.377 . S
C531 C529 1.389 . S
C531 C532 1.524 . S
C532 C531 1.524 . S
C532 C533 1.397 . S
C532 C537 1.363 . S
C533 H504 0.950 . S
C533 C532 1.397 . S
C533 C534 1.334 . S
C534 H505 0.950 . S
C534 C533 1.334 . S
C534 C535 1.287 . S
C535 C534 1.287 . S
C535 C536 1.524 . S
C535 H538 0.999 . S
C536 H506 0.950 . S
C536 C535 1.524 . S
C536 C537 1.415 . S
C537 H507 0.950 . S
C537 C532 1.363 . S
C537 C536 1.415 . S
H538 C535 0.999 . S
H539 C520 0.913 . S
H540 C558 0.951 . S
H541 C560 0.951 . S
H542 C562 0.950 . S
H543 C563 0.950 . S
H544 C565 0.950 . S
H545 C568 0.950 . S
H546 C569 0.950 . S
H547 C571 0.950 . S
H548 C572 0.950 . S
H549 C573 0.951 . S
H550 C575 0.951 . S
H551 C577 0.950 . S
H552 C578 0.950 . S
H553 C580 0.950 . S
H554 C583 0.950 . S
H555 C584 0.950 . S
H556 C586 0.950 . S
H557 C587 0.950 . S
C558 H540 0.951 . S
C558 C559 1.366 . S
C558 C560 1.388 . S
C559 C558 1.366 . S
C559 C563 1.385 . S
C560 H541 0.951 . S
C560 C558 1.388 . S
C560 C561 1.366 . S
C561 C560 1.366 . S
C561 C562 1.414 . S
C561 C564 1.499 . S
C562 H542 0.950 . S
C562 C561 1.414 . S
C562 C563 1.374 . S
C563 H543 0.950 . S
C563 C559 1.385 . S
C563 C562 1.374 . S
C564 C561 1.499 . S
C564 C565 1.373 . S
C564 C566 1.389 . S
C565 H544 0.950 . S
C565 C564 1.373 . S
C565 C581 1.377 . S
C566 C564 1.389 . S
C566 C567 1.524 . S
C566 C580 1.377 . S
C567 C566 1.524 . S
C567 C568 1.397 . S
C567 C572 1.363 . S
C568 H545 0.950 . S
C568 C567 1.397 . S
C568 C569 1.334 . S
C569 H546 0.950 . S
C569 C568 1.334 . S
C569 C570 1.287 . S
C570 C569 1.287 . S
C570 C571 1.524 . S
C570 H589 0.913 . S
C571 H547 0.950 . S
C571 C570 1.524 . S
C571 C572 1.415 . S
C572 H548 0.950 . S
C572 C567 1.363 . S
C572 C571 1.415 . S
C573 H549 0.951 . S
C573 C574 1.366 . S
C573 C575 1.388 . S
C574 C573 1.366 . S
C574 C578 1.385 . S
C575 H550 0.951 . S
C575 C573 1.388 . S
C575 C576 1.366 . S
C576 C575 1.366 . S
C576 C577 1.414 . S
C576 C579 1.499 . S
C577 H551 0.950 . S
C577 C576 1.414 . S
C577 C578 1.374 . S
C578 H552 0.950 . S
C578 C574 1.385 . S
C578 C577 1.374 . S
C579 C576 1.499 . S
C579 C580 1.373 . S
C579 C581 1.389 . S
C580 H553 0.950 . S
C580 C566 1.377 . S
C580 C579 1.373 . S
C581 C565 1.377 . S
C581 C579 1.389 . S
C581 C582 1.524 . S
C582 C581 1.524 . S
C582 C583 1.397 . S
C582 C587 1.363 . S
C583 H554 0.950 . S
C583 C582 1.397 . S
C583 C584 1.334 . S
C584 H555 0.950 . S
C584 C583 1.334 . S
C584 C585 1.287 . S
C585 C584 1.287 . S
C585 C586 1.524 . S
C585 H588 0.999 . S
C586 H556 0.950 . S
C586 C585 1.524 . S
C586 C587 1.415 . S
C587 H557 0.950 . S
C587 C582 1.363 . S
C587 C586 1.415 . S
H588 C585 0.999 . S
H589 C570 0.913 . S
H590 C608 0.951 . S
H591 C610 0.951 . S
H592 C612 0.950 . S
H593 C613 0.950 . S
H594 C615 0.950 . S
H595 C618 0.950 . S
H596 C619 0.950 . S
H597 C621 0.950 . S
H598 C622 0.950 . S
H599 C623 0.951 . S
H600 C625 0.951 . S
H601 C627 0.950 . S
H602 C628 0.921 1_455 S
H603 C630 0.950 . S
H604 C633 0.950 . S
H605 C634 0.950 . S
H606 C636 0.950 . S
H607 C637 0.950 . S
C608 H590 0.951 . S
C608 C609 1.366 . S
C608 C610 1.388 . S
C609 C608 1.366 . S
C609 C613 1.385 . S
C610 H591 0.951 . S
C610 C608 1.388 . S
C610 C611 1.366 . S
C611 C610 1.366 . S
C611 C612 1.414 . S
C611 C614 1.499 . S
C612 H592 0.950 . S
C612 C611 1.414 . S
C612 C613 1.374 . S
C613 H593 0.950 . S
C613 C609 1.385 . S
C613 C612 1.374 . S
C614 C611 1.499 . S
C614 C615 1.373 . S
C614 C616 1.389 . S
C615 H594 0.950 . S
C615 C614 1.373 . S
C615 C631 1.377 1_565 S
C616 C614 1.389 . S
C616 C617 1.524 . S
C616 C630 1.377 . S
C617 C616 1.524 . S
C617 C618 1.397 . S
C617 C622 1.363 . S
C618 H595 0.950 . S
C618 C617 1.397 . S
C618 C619 1.334 . S
C619 H596 0.950 . S
C619 C618 1.334 . S
C619 C620 1.287 . S
C620 C619 1.287 . S
C620 C621 1.524 . S
C620 H639 0.913 . S
C621 H597 0.950 . S
C621 C620 1.524 . S
C621 C622 1.415 . S
C622 H598 0.950 . S
C622 C617 1.363 . S
C622 C621 1.415 . S
C623 H599 0.951 . S
C623 C624 1.366 . S
C623 C625 1.388 . S
C624 C623 1.366 . S
C624 C628 1.385 . S
C625 H600 0.951 . S
C625 C623 1.388 . S
C625 C626 1.366 . S
C626 C625 1.366 . S
C626 C627 1.414 . S
C626 C629 1.499 1_545 S
C627 H601 0.950 . S
C627 C626 1.414 . S
C627 C628 1.374 . S
C628 H602 0.921 1_655 S
C628 C624 1.385 . S
C628 C627 1.374 . S
C629 C626 1.499 1_565 S
C629 C630 1.373 . S
C629 C631 1.389 1_565 S
C630 H603 0.950 . S
C630 C616 1.377 . S
C630 C629 1.373 . S
C631 C615 1.377 1_545 S
C631 C629 1.389 1_545 S
C631 C632 1.524 . S
C632 C631 1.524 . S
C632 C633 1.397 . S
C632 C637 1.363 . S
C633 H604 0.950 . S
C633 C632 1.397 . S
C633 C634 1.334 . S
C634 H605 0.950 . S
C634 C633 1.334 . S
C634 C635 1.287 . S
C635 C634 1.287 . S
C635 C636 1.524 . S
C635 H638 0.999 . S
C636 H606 0.950 . S
C636 C635 1.524 . S
C636 C637 1.415 . S
C637 H607 0.950 . S
C637 C632 1.363 . S
C637 C636 1.415 . S
H638 C635 0.999 . S
H639 C620 0.913 . S
H640 C658 0.951 . S
H641 C660 0.951 . S
H642 C662 0.950 . S
H643 C663 0.950 . S
H644 C665 0.950 . S
H645 C668 0.950 . S
H646 C669 0.950 . S
H647 C671 0.950 . S
H648 C672 0.950 . S
H649 C673 0.951 . S
H650 C675 0.951 . S
H651 C677 0.988 . S
H652 C678 0.950 . S
H653 C680 0.950 . S
H654 C683 0.950 . S
H655 C684 0.950 . S
H656 C686 0.950 . S
H657 C687 0.950 . S
C658 H640 0.951 . S
C658 C659 1.366 . S
C658 C660 1.388 . S
C659 C658 1.366 . S
C659 C663 1.385 . S
C660 H641 0.951 . S
C660 C658 1.388 . S
C660 C661 1.366 . S
C661 C660 1.366 . S
C661 C662 1.414 . S
C661 C664 1.499 . S
C662 H642 0.950 . S
C662 C661 1.414 . S
C662 C663 1.374 . S
C663 H643 0.950 . S
C663 C659 1.385 . S
C663 C662 1.374 . S
C664 C661 1.499 . S
C664 C665 1.373 . S
C664 C666 1.389 . S
C665 H644 0.950 . S
C665 C664 1.373 . S
C665 C681 1.377 1_545 S
C666 C664 1.389 . S
C666 C667 1.524 . S
C666 C680 1.377 . S
C667 C666 1.524 . S
C667 C668 1.397 . S
C667 C672 1.363 . S
C668 H645 0.950 . S
C668 C667 1.397 . S
C668 C669 1.334 . S
C669 H646 0.950 . S
C669 C668 1.334 . S
C669 C670 1.287 . S
C670 C669 1.287 . S
C670 C671 1.524 . S
C670 H689 0.913 . S
C671 H647 0.950 . S
C671 C670 1.524 . S
C671 C672 1.415 . S
C672 H648 0.950 . S
C672 C667 1.363 . S
C672 C671 1.415 . S
C673 H649 0.951 . S
C673 C674 1.366 . S
C673 C675 1.388 . S
C674 C673 1.366 . S
C674 C678 1.385 . S
C675 H650 0.951 . S
C675 C673 1.388 . S
C675 C676 1.366 . S
C676 C675 1.366 . S
C676 C677 1.414 . S
C676 C679 1.499 1_565 S
C677 H651 0.988 . S
C677 C676 1.414 . S
C677 C678 1.374 . S
C678 H652 0.950 . S
C678 C674 1.385 . S
C678 C677 1.374 . S
C679 C676 1.499 1_545 S
C679 C680 1.373 . S
C679 C681 1.389 1_545 S
C680 H653 0.950 . S
C680 C666 1.377 . S
C680 C679 1.373 . S
C681 C665 1.377 1_565 S
C681 C679 1.389 1_565 S
C681 C682 1.524 . S
C682 C681 1.524 . S
C682 C683 1.397 . S
C682 C687 1.363 . S
C683 H654 0.950 . S
C683 C682 1.397 . S
C683 C684 1.334 . S
C684 H655 0.950 . S
C684 C683 1.334 . S
C684 C685 1.287 . S
C685 C684 1.287 . S
C685 C686 1.524 . S
C685 H688 0.999 . S
C686 H656 0.950 . S
C686 C685 1.524 . S
C686 C687 1.415 . S
C687 H657 0.950 . S
C687 C682 1.363 . S
C687 C686 1.415 . S
H688 C685 0.999 . S
H689 C670 0.913 . S
H690 C708 0.951 . S
H691 C710 0.951 . S
H692 C712 0.950 . S
H693 C713 0.950 . S
H694 C715 0.950 . S
H695 C718 0.950 . S
H696 C719 0.950 . S
H697 C721 0.950 . S
H698 C722 0.950 . S
H699 C723 0.951 . S
H700 C725 0.951 . S
H701 C727 0.950 . S
H702 C728 0.950 . S
H703 C730 0.950 . S
H704 C733 0.950 . S
H705 C734 0.950 . S
H706 C736 0.950 . S
H707 C737 0.950 . S
C708 H690 0.951 . S
C708 C709 1.366 . S
C708 C710 1.388 . S
C709 C708 1.366 . S
C709 C713 1.385 . S
C710 H691 0.951 . S
C710 C708 1.388 . S
C710 C711 1.366 . S
C711 C710 1.366 . S
C711 C712 1.414 . S
C711 C714 1.499 . S
C712 H692 0.950 . S
C712 C711 1.414 . S
C712 C713 1.374 . S
C713 H693 0.950 . S
C713 C709 1.385 . S
C713 C712 1.374 . S
C714 C711 1.499 . S
C714 C715 1.373 . S
C714 C716 1.389 . S
C715 H694 0.950 . S
C715 C714 1.373 . S
C715 C731 1.377 . S
C716 C714 1.389 . S
C716 C717 1.524 . S
C716 C730 1.377 . S
C717 C716 1.524 . S
C717 C718 1.397 . S
C717 C722 1.363 . S
C718 H695 0.950 . S
C718 C717 1.397 . S
C718 C719 1.334 . S
C719 H696 0.950 . S
C719 C718 1.334 . S
C719 C720 1.287 . S
C720 C719 1.287 . S
C720 C721 1.524 . S
C720 H739 0.913 . S
C721 H697 0.950 . S
C721 C720 1.524 . S
C721 C722 1.415 . S
C722 H698 0.950 . S
C722 C717 1.363 . S
C722 C721 1.415 . S
C723 H699 0.951 . S
C723 C724 1.366 . S
C723 C725 1.388 . S
C724 C723 1.366 . S
C724 C728 1.385 . S
C725 H700 0.951 . S
C725 C723 1.388 . S
C725 C726 1.366 . S
C726 C725 1.366 . S
C726 C727 1.414 . S
C726 C729 1.499 . S
C727 H701 0.950 . S
C727 C726 1.414 . S
C727 C728 1.374 . S
C728 H702 0.950 . S
C728 C724 1.385 . S
C728 C727 1.374 . S
C729 C726 1.499 . S
C729 C730 1.373 . S
C729 C731 1.389 . S
C730 H703 0.950 . S
C730 C716 1.377 . S
C730 C729 1.373 . S
C731 C715 1.377 . S
C731 C729 1.389 . S
C731 C732 1.524 . S
C732 C731 1.524 . S
C732 C733 1.397 . S
C732 C737 1.363 . S
C733 H704 0.950 . S
C733 C732 1.397 . S
C733 C734 1.334 . S
C734 H705 0.950 . S
C734 C733 1.334 . S
C734 C735 1.287 . S
C735 C734 1.287 . S
C735 C736 1.524 . S
C735 H738 0.999 . S
C736 H706 0.950 . S
C736 C735 1.524 . S
C736 C737 1.415 . S
C737 H707 0.950 . S
C737 C732 1.363 . S
C737 C736 1.415 . S
H738 C735 0.999 . S
H739 C720 0.913 . S
H740 C758 0.951 . S
H741 C760 0.951 . S
H742 C762 0.950 . S
H743 C763 0.950 . S
H744 C765 0.950 . S
H745 C768 0.950 . S
H746 C769 0.950 . S
H747 C771 0.950 . S
H748 C772 0.950 . S
H749 C773 0.951 . S
H750 C775 0.951 . S
H751 C777 0.950 . S
H752 C778 0.950 . S
H753 C780 0.950 . S
H754 C783 0.950 . S
H755 C784 0.950 . S
H756 C786 0.950 . S
H757 C787 0.950 . S
C758 H740 0.951 . S
C758 C759 1.366 . S
C758 C760 1.388 . S
C759 C758 1.366 . S
C759 C763 1.385 . S
C760 H741 0.951 . S
C760 C758 1.388 . S
C760 C761 1.366 . S
C761 C760 1.366 . S
C761 C762 1.414 . S
C761 C764 1.499 . S
C762 H742 0.950 . S
C762 C761 1.414 . S
C762 C763 1.374 . S
C763 H743 0.950 . S
C763 C759 1.385 . S
C763 C762 1.374 . S
C764 C761 1.499 . S
C764 C765 1.373 . S
C764 C766 1.389 . S
C765 H744 0.950 . S
C765 C764 1.373 . S
C765 C781 1.377 . S
C766 C764 1.389 . S
C766 C767 1.524 . S
C766 C780 1.377 . S
C767 C766 1.524 . S
C767 C768 1.397 . S
C767 C772 1.363 . S
C768 H745 0.950 . S
C768 C767 1.397 . S
C768 C769 1.334 . S
C769 H746 0.950 . S
C769 C768 1.334 . S
C769 C770 1.287 . S
C770 C769 1.287 . S
C770 C771 1.524 . S
C770 H789 0.913 . S
C771 H747 0.950 . S
C771 C770 1.524 . S
C771 C772 1.415 . S
C772 H748 0.950 . S
C772 C767 1.363 . S
C772 C771 1.415 . S
C773 H749 0.951 . S
C773 C774 1.366 . S
C773 C775 1.388 . S
C774 C773 1.366 . S
C774 C778 1.385 . S
C775 H750 0.951 . S
C775 C773 1.388 . S
C775 C776 1.366 . S
C776 C775 1.366 . S
C776 C777 1.414 . S
C776 C779 1.499 . S
C777 H751 0.950 . S
C777 C776 1.414 . S
C777 C778 1.374 . S
C778 H752 0.950 . S
C778 C774 1.385 . S
C778 C777 1.374 . S
C779 C776 1.499 . S
C779 C780 1.373 . S
C779 C781 1.389 . S
C780 H753 0.950 . S
C780 C766 1.377 . S
C780 C779 1.373 . S
C781 C765 1.377 . S
C781 C779 1.389 . S
C781 C782 1.524 . S
C782 C781 1.524 . S
C782 C783 1.397 . S
C782 C787 1.363 . S
C783 H754 0.950 . S
C783 C782 1.397 . S
C783 C784 1.334 . S
C784 H755 0.950 . S
C784 C783 1.334 . S
C784 C785 1.287 . S
C785 C784 1.287 . S
C785 C786 1.524 . S
C785 H788 0.999 . S
C786 H756 0.950 . S
C786 C785 1.524 . S
C786 C787 1.415 . S
C787 H757 0.950 . S
C787 C782 1.363 . S
C787 C786 1.415 . S
H788 C785 0.999 . S
H789 C770 0.913 . S
H790 C808 0.951 . S
H791 C810 0.951 . S
H792 C812 0.950 . S
H793 C813 0.950 . S
H794 C815 0.950 . S
H795 C818 0.950 . S
H796 C819 0.950 . S
H797 C821 0.950 . S
H798 C822 0.950 . S
H799 C823 0.951 . S
H800 C825 0.951 . S
H801 C827 0.950 . S
H802 C828 0.950 . S
H803 C830 0.950 . S
H804 C833 0.950 . S
H805 C834 0.950 . S
H806 C836 0.950 1_655 S
H807 C837 0.950 . S
C808 H790 0.951 . S
C808 C809 1.366 . S
C808 C810 1.388 . S
C809 C808 1.366 . S
C809 C813 1.385 . S
C810 H791 0.951 . S
C810 C808 1.388 . S
C810 C811 1.366 . S
C811 C810 1.366 . S
C811 C812 1.414 . S
C811 C814 1.499 . S
C812 H792 0.950 . S
C812 C811 1.414 . S
C812 C813 1.374 . S
C813 H793 0.950 . S
C813 C809 1.385 . S
C813 C812 1.374 . S
C814 C811 1.499 . S
C814 C815 1.373 . S
C814 C816 1.389 . S
C815 H794 0.950 . S
C815 C814 1.373 . S
C815 C831 1.377 . S
C816 C814 1.389 . S
C816 C817 1.524 . S
C816 C830 1.377 . S
C817 C816 1.524 . S
C817 C818 1.397 . S
C817 C822 1.363 . S
C818 H795 0.950 . S
C818 C817 1.397 . S
C818 C819 1.334 . S
C819 H796 0.950 . S
C819 C818 1.334 . S
C819 C820 1.287 . S
C820 C819 1.287 . S
C820 C821 1.524 . S
C820 H839 0.913 . S
C821 H797 0.950 . S
C821 C820 1.524 . S
C821 C822 1.415 . S
C822 H798 0.950 . S
C822 C817 1.363 . S
C822 C821 1.415 . S
C823 H799 0.951 . S
C823 C824 1.366 . S
C823 C825 1.388 . S
C824 C823 1.366 . S
C824 C828 1.385 . S
C825 H800 0.951 . S
C825 C823 1.388 . S
C825 C826 1.366 . S
C826 C825 1.366 . S
C826 C827 1.414 . S
C826 C829 1.499 . S
C827 H801 0.950 . S
C827 C826 1.414 . S
C827 C828 1.374 . S
C828 H802 0.950 . S
C828 C824 1.385 . S
C828 C827 1.374 . S
C829 C826 1.499 . S
C829 C830 1.373 1_565 S
C829 C831 1.389 1_565 S
C830 H803 0.950 . S
C830 C816 1.377 . S
C830 C829 1.373 1_545 S
C831 C815 1.377 . S
C831 C829 1.389 1_545 S
C831 C832 1.524 1_545 S
C832 C831 1.524 1_565 S
C832 C833 1.397 . S
C832 C837 1.363 1_565 S
C833 H804 0.950 . S
C833 C832 1.397 . S
C833 C834 1.334 . S
C834 H805 0.950 . S
C834 C833 1.334 . S
C834 C835 1.287 . S
C835 C834 1.287 . S
C835 C836 1.524 . S
C835 H838 0.999 . S
C836 H806 0.950 1_455 S
C836 C835 1.524 . S
C836 C837 1.415 1_565 S
C837 H807 0.950 . S
C837 C832 1.363 1_545 S
C837 C836 1.415 1_545 S
H838 C835 0.999 . S
H839 C820 0.913 . S
H840 C858 0.951 . S
H841 C860 0.951 . S
H842 C862 0.950 . S
H843 C863 0.950 . S
H844 C865 0.950 . S
H845 C868 0.950 . S
H846 C869 0.950 . S
H847 C871 0.950 . S
H848 C872 0.950 1_554 S
H849 C873 0.951 . S
H850 C875 0.951 . S
H851 C877 0.950 . S
H852 C878 0.950 . S
H853 C880 0.950 . S
H854 C883 0.950 . S
H855 C884 0.950 . S
H856 C886 0.950 . S
H857 C887 0.950 . S
C858 H840 0.951 . S
C858 C859 1.366 . S
C858 C860 1.388 . S
C859 C858 1.366 . S
C859 C863 1.385 . S
C860 H841 0.951 . S
C860 C858 1.388 . S
C860 C861 1.366 . S
C861 C860 1.366 . S
C861 C862 1.414 . S
C861 C864 1.499 1_556 S
C862 H842 0.950 . S
C862 C861 1.414 . S
C862 C863 1.374 . S
C863 H843 0.950 . S
C863 C859 1.385 . S
C863 C862 1.374 . S
C864 C861 1.499 1_554 S
C864 C865 1.373 . S
C864 C866 1.389 . S
C865 H844 0.950 . S
C865 C864 1.373 . S
C865 C881 1.377 . S
C866 C864 1.389 . S
C866 C867 1.524 1_554 S
C866 C880 1.377 . S
C867 C866 1.524 1_556 S
C867 C868 1.397 . S
C867 C872 1.363 . S
C868 H845 0.950 . S
C868 C867 1.397 . S
C868 C869 1.334 . S
C869 H846 0.950 . S
C869 C868 1.334 . S
C869 C870 1.287 . S
C870 C869 1.287 . S
C870 C871 1.524 . S
C870 H889 0.913 . S
C871 H847 0.950 . S
C871 C870 1.524 . S
C871 C872 1.415 . S
C872 H848 0.950 1_556 S
C872 C867 1.363 . S
C872 C871 1.415 . S
C873 H849 0.951 . S
C873 C874 1.366 . S
C873 C875 1.388 . S
C874 C873 1.366 . S
C874 C878 1.385 . S
C875 H850 0.951 . S
C875 C873 1.388 . S
C875 C876 1.366 . S
C876 C875 1.366 . S
C876 C877 1.414 . S
C876 C879 1.499 . S
C877 H851 0.950 . S
C877 C876 1.414 . S
C877 C878 1.374 . S
C878 H852 0.950 . S
C878 C874 1.385 . S
C878 C877 1.374 . S
C879 C876 1.499 . S
C879 C880 1.373 . S
C879 C881 1.389 . S
C880 H853 0.950 . S
C880 C866 1.377 . S
C880 C879 1.373 . S
C881 C865 1.377 . S
C881 C879 1.389 . S
C881 C882 1.524 . S
C882 C881 1.524 . S
C882 C883 1.397 . S
C882 C887 1.363 . S
C883 H854 0.950 . S
C883 C882 1.397 . S
C883 C884 1.334 . S
C884 H855 0.950 . S
C884 C883 1.334 . S
C884 C885 1.287 . S
C885 C884 1.287 . S
C885 C886 1.524 . S
C885 H888 0.999 . S
C886 H856 0.950 . S
C886 C885 1.524 . S
C886 C887 1.415 . S
C887 H857 0.950 . S
C887 C882 1.363 . S
C887 C886 1.415 . S
H888 C885 0.999 . S
H889 C870 0.913 . S
H890 C908 0.951 . S
H891 C910 0.951 . S
H892 C912 0.950 . S
H893 C913 0.950 . S
H894 C915 0.950 . S
H895 C918 0.950 . S
H896 C919 0.950 . S
H897 C921 0.950 . S
H898 C922 0.950 . S
H899 C923 0.951 . S
H900 C925 0.951 . S
H901 C927 0.950 . S
H902 C928 0.950 . S
H903 C930 0.950 . S
H904 C933 0.950 . S
H905 C934 0.950 . S
H906 C936 0.950 . S
H907 C937 0.950 . S
C908 H890 0.951 . S
C908 C909 1.366 . S
C908 C910 1.388 . S
C909 C908 1.366 . S
C909 C913 1.385 . S
C910 H891 0.951 . S
C910 C908 1.388 . S
C910 C911 1.366 . S
C911 C910 1.366 . S
C911 C912 1.414 . S
C911 C914 1.499 . S
C912 H892 0.950 . S
C912 C911 1.414 . S
C912 C913 1.374 . S
C913 H893 0.950 . S
C913 C909 1.385 . S
C913 C912 1.374 . S
C914 C911 1.499 . S
C914 C915 1.373 . S
C914 C916 1.389 . S
C915 H894 0.950 . S
C915 C914 1.373 . S
C915 C931 1.377 . S
C916 C914 1.389 . S
C916 C917 1.524 . S
C916 C930 1.377 . S
C917 C916 1.524 . S
C917 C918 1.397 . S
C917 C922 1.363 . S
C918 H895 0.950 . S
C918 C917 1.397 . S
C918 C919 1.334 . S
C919 H896 0.950 . S
C919 C918 1.334 . S
C919 C920 1.287 . S
C920 C919 1.287 . S
C920 C921 1.524 . S
C920 H939 0.913 . S
C921 H897 0.950 . S
C921 C920 1.524 . S
C921 C922 1.415 . S
C922 H898 0.950 . S
C922 C917 1.363 . S
C922 C921 1.415 . S
C923 H899 0.951 . S
C923 C924 1.366 . S
C923 C925 1.388 . S
C924 C923 1.366 . S
C924 C928 1.385 . S
C925 H900 0.951 . S
C925 C923 1.388 . S
C925 C926 1.366 . S
C926 C925 1.366 . S
C926 C927 1.414 . S
C926 C929 1.499 . S
C927 H901 0.950 . S
C927 C926 1.414 . S
C927 C928 1.374 . S
C928 H902 0.950 . S
C928 C924 1.385 . S
C928 C927 1.374 . S
C929 C926 1.499 . S
C929 C930 1.373 . S
C929 C931 1.389 . S
C930 H903 0.950 . S
C930 C916 1.377 . S
C930 C929 1.373 . S
C931 C915 1.377 . S
C931 C929 1.389 . S
C931 C932 1.524 . S
C932 C931 1.524 . S
C932 C933 1.397 . S
C932 C937 1.363 . S
C933 H904 0.950 . S
C933 C932 1.397 . S
C933 C934 1.334 . S
C934 H905 0.950 . S
C934 C933 1.334 . S
C934 C935 1.287 . S
C935 C934 1.287 . S
C935 C936 1.524 . S
C935 H938 0.999 . S
C936 H906 0.950 . S
C936 C935 1.524 . S
C936 C937 1.415 . S
C937 H907 0.950 . S
C937 C932 1.363 . S
C937 C936 1.415 . S
H938 C935 0.999 . S
H939 C920 0.913 . S
H940 C958 0.951 . S
H941 C960 0.951 . S
H942 C962 0.950 . S
H943 C963 0.950 . S
H944 C965 0.950 . S
H945 C968 0.950 . S
H946 C969 0.950 . S
H947 C971 0.950 . S
H948 C972 0.950 1_556 S
H949 C973 0.951 . S
H950 C975 0.951 . S
H951 C977 0.950 . S
H952 C978 0.950 . S
H953 C980 0.950 . S
H954 C983 0.950 . S
H955 C984 0.950 . S
H956 C986 0.950 . S
H957 C987 0.950 . S
C958 H940 0.951 . S
C958 C959 1.366 . S
C958 C960 1.388 . S
C959 C958 1.366 . S
C959 C963 1.385 . S
C960 H941 0.951 . S
C960 C958 1.388 . S
C960 C961 1.366 . S
C961 C960 1.366 . S
C961 C962 1.414 . S
C961 C964 1.499 1_554 S
C962 H942 0.950 . S
C962 C961 1.414 . S
C962 C963 1.374 . S
C963 H943 0.950 . S
C963 C959 1.385 . S
C963 C962 1.374 . S
C964 C961 1.499 1_556 S
C964 C965 1.373 . S
C964 C966 1.389 . S
C965 H944 0.950 . S
C965 C964 1.373 . S
C965 C981 1.377 . S
C966 C964 1.389 . S
C966 C967 1.524 1_556 S
C966 C980 1.377 . S
C967 C966 1.524 1_554 S
C967 C968 1.397 . S
C967 C972 1.363 . S
C968 H945 0.950 . S
C968 C967 1.397 . S
C968 C969 1.334 . S
C969 H946 0.950 . S
C969 C968 1.334 . S
C969 C970 1.287 . S
C970 C969 1.287 . S
C970 C971 1.524 . S
C970 H989 0.913 . S
C971 H947 0.950 . S
C971 C970 1.524 . S
C971 C972 1.415 . S
C972 H948 0.950 1_554 S
C972 C967 1.363 . S
C972 C971 1.415 . S
C973 H949 0.951 . S
C973 C974 1.366 . S
C973 C975 1.388 . S
C974 C973 1.366 . S
C974 C978 1.385 . S
C975 H950 0.951 . S
C975 C973 1.388 . S
C975 C976 1.366 . S
C976 C975 1.366 . S
C976 C977 1.414 . S
C976 C979 1.499 . S
C977 H951 0.950 . S
C977 C976 1.414 . S
C977 C978 1.374 . S
C978 H952 0.950 . S
C978 C974 1.385 . S
C978 C977 1.374 . S
C979 C976 1.499 . S
C979 C980 1.373 . S
C979 C981 1.389 . S
C980 H953 0.950 . S
C980 C966 1.377 . S
C980 C979 1.373 . S
C981 C965 1.377 . S
C981 C979 1.389 . S
C981 C982 1.524 . S
C982 C981 1.524 . S
C982 C983 1.397 . S
C982 C987 1.363 . S
C983 H954 0.950 . S
C983 C982 1.397 . S
C983 C984 1.334 . S
C984 H955 0.950 . S
C984 C983 1.334 . S
C984 C985 1.287 . S
C985 C984 1.287 . S
C985 C986 1.524 . S
C985 H988 0.999 . S
C986 H956 0.950 . S
C986 C985 1.524 . S
C986 C987 1.415 . S
C987 H957 0.950 . S
C987 C982 1.363 . S
C987 C986 1.415 . S
H988 C985 0.999 . S
H989 C970 0.913 . S
H990 C1008 0.951 . S
H991 C1010 0.951 . S
H992 C1012 0.950 . S
H993 C1013 0.950 . S
H994 C1015 0.950 . S
H995 C1018 0.950 . S
H996 C1019 0.950 . S
H997 C1021 0.950 . S
H998 C1022 0.950 . S
H999 C1023 0.951 . S
H1000 C1025 0.951 . S
H1001 C1027 0.950 . S
H1002 C1028 0.950 . S
H1003 C1030 0.950 . S
H1004 C1033 0.950 . S
H1005 C1034 0.950 . S
H1006 C1036 0.950 . S
H1007 C1037 0.950 . S
C1008 H990 0.951 . S
C1008 C1009 1.366 . S
C1008 C1010 1.388 . S
C1009 C1008 1.366 . S
C1009 C1013 1.385 . S
C1010 H991 0.951 . S
C1010 C1008 1.388 . S
C1010 C1011 1.366 . S
C1011 C1010 1.366 . S
C1011 C1012 1.414 . S
C1011 C1014 1.499 . S
C1012 H992 0.950 . S
C1012 C1011 1.414 . S
C1012 C1013 1.374 . S
C1013 H993 0.950 . S
C1013 C1009 1.385 . S
C1013 C1012 1.374 . S
C1014 C1011 1.499 . S
C1014 C1015 1.373 . S
C1014 C1016 1.389 . S
C1015 H994 0.950 . S
C1015 C1014 1.373 . S
C1015 C1031 1.377 . S
C1016 C1014 1.389 . S
C1016 C1017 1.524 . S
C1016 C1030 1.377 . S
C1017 C1016 1.524 . S
C1017 C1018 1.397 . S
C1017 C1022 1.363 . S
C1018 H995 0.950 . S
C1018 C1017 1.397 . S
C1018 C1019 1.334 . S
C1019 H996 0.950 . S
C1019 C1018 1.334 . S
C1019 C1020 1.287 . S
C1020 C1019 1.287 . S
C1020 C1021 1.524 . S
C1020 H1039 0.913 . S
C1021 H997 0.950 . S
C1021 C1020 1.524 . S
C1021 C1022 1.415 . S
C1022 H998 0.950 . S
C1022 C1017 1.363 . S
C1022 C1021 1.415 . S
C1023 H999 0.951 . S
C1023 C1024 1.366 . S
C1023 C1025 1.388 . S
C1024 C1023 1.366 . S
C1024 C1028 1.385 . S
C1025 H1000 0.951 . S
C1025 C1023 1.388 . S
C1025 C1026 1.366 . S
C1026 C1025 1.366 . S
C1026 C1027 1.414 . S
C1026 C1029 1.499 . S
C1027 H1001 0.950 . S
C1027 C1026 1.414 . S
C1027 C1028 1.374 . S
C1028 H1002 0.950 . S
C1028 C1024 1.385 . S
C1028 C1027 1.374 . S
C1029 C1026 1.499 . S
C1029 C1030 1.373 . S
C1029 C1031 1.389 . S
C1030 H1003 0.950 . S
C1030 C1016 1.377 . S
C1030 C1029 1.373 . S
C1031 C1015 1.377 . S
C1031 C1029 1.389 . S
C1031 C1032 1.524 . S
C1032 C1031 1.524 . S
C1032 C1033 1.397 . S
C1032 C1037 1.363 . S
C1033 H1004 0.950 . S
C1033 C1032 1.397 . S
C1033 C1034 1.334 . S
C1034 H1005 0.950 . S
C1034 C1033 1.334 . S
C1034 C1035 1.287 . S
C1035 C1034 1.287 . S
C1035 C1036 1.524 . S
C1035 H1038 0.999 . S
C1036 H1006 0.950 . S
C1036 C1035 1.524 . S
C1036 C1037 1.415 . S
C1037 H1007 0.950 . S
C1037 C1032 1.363 . S
C1037 C1036 1.415 . S
H1038 C1035 0.999 . S
H1039 C1020 0.913 . S
H1040 C1058 0.951 . S
H1041 C1060 0.951 . S
H1042 C1062 0.914 1_556 S
H1043 C1063 0.950 . S
H1044 C1065 0.950 . S
H1045 C1068 0.950 . S
H1046 C1069 0.950 . S
H1047 C1071 0.950 . S
H1048 C1072 0.950 . S
H1049 C1073 0.951 . S
H1050 C1075 0.951 . S
H1051 C1077 0.950 . S
H1052 C1078 0.950 . S
H1053 C1080 0.950 . S
H1054 C1083 0.950 . S
H1055 C1084 0.950 1_455 S
H1056 C1086 0.950 . S
H1057 C1087 0.950 . S
C1058 H1040 0.951 . S
C1058 C1059 1.366 . S
C1058 C1060 1.388 . S
C1059 C1058 1.366 . S
C1059 C1063 1.385 . S
C1060 H1041 0.951 . S
C1060 C1058 1.388 . S
C1060 C1061 1.366 . S
C1061 C1060 1.366 . S
C1061 C1062 1.414 . S
C1061 C1064 1.499 1_554 S
C1062 H1042 0.914 1_554 S
C1062 C1061 1.414 . S
C1062 C1063 1.374 . S
C1063 H1043 0.950 . S
C1063 C1059 1.385 . S
C1063 C1062 1.374 . S
C1064 C1061 1.499 1_556 S
C1064 C1065 1.373 . S
C1064 C1066 1.389 . S
C1065 H1044 0.950 . S
C1065 C1064 1.373 . S
C1065 C1081 1.377 . S
C1066 C1064 1.389 . S
C1066 C1067 1.524 . S
C1066 C1080 1.377 . S
C1067 C1066 1.524 . S
C1067 C1068 1.397 . S
C1067 C1072 1.363 . S
C1068 H1045 0.950 . S
C1068 C1067 1.397 . S
C1068 C1069 1.334 . S
C1069 H1046 0.950 . S
C1069 C1068 1.334 . S
C1069 C1070 1.287 . S
C1070 C1069 1.287 . S
C1070 C1071 1.524 . S
C1070 H1089 0.913 . S
C1071 H1047 0.950 . S
C1071 C1070 1.524 . S
C1071 C1072 1.415 . S
C1072 H1048 0.950 . S
C1072 C1067 1.363 . S
C1072 C1071 1.415 . S
C1073 H1049 0.951 . S
C1073 C1074 1.366 . S
C1073 C1075 1.388 . S
C1074 C1073 1.366 . S
C1074 C1078 1.385 . S
C1075 H1050 0.951 . S
C1075 C1073 1.388 . S
C1075 C1076 1.366 . S
C1076 C1075 1.366 . S
C1076 C1077 1.414 . S
C1076 C1079 1.499 . S
C1077 H1051 0.950 . S
C1077 C1076 1.414 . S
C1077 C1078 1.374 . S
C1078 H1052 0.950 . S
C1078 C1074 1.385 . S
C1078 C1077 1.374 . S
C1079 C1076 1.499 . S
C1079 C1080 1.373 . S
C1079 C1081 1.389 . S
C1080 H1053 0.950 . S
C1080 C1066 1.377 . S
C1080 C1079 1.373 . S
C1081 C1065 1.377 . S
C1081 C1079 1.389 . S
C1081 C1082 1.524 . S
C1082 C1081 1.524 . S
C1082 C1083 1.397 . S
C1082 C1087 1.363 . S
C1083 H1054 0.950 . S
C1083 C1082 1.397 . S
C1083 C1084 1.334 . S
C1084 H1055 0.950 1_655 S
C1084 C1083 1.334 . S
C1084 C1085 1.287 . S
C1085 C1084 1.287 . S
C1085 C1086 1.524 . S
C1085 H1088 0.999 . S
C1086 H1056 0.950 . S
C1086 C1085 1.524 . S
C1086 C1087 1.415 . S
C1087 H1057 0.950 . S
C1087 C1082 1.363 . S
C1087 C1086 1.415 . S
H1088 C1085 0.999 . S
H1089 C1070 0.913 . S
H1090 C1108 0.951 . S
H1091 C1110 0.951 . S
H1092 C1112 0.950 . S
H1093 C1113 0.950 . S
H1094 C1115 0.950 . S
H1095 C1118 0.950 . S
H1096 C1119 0.950 . S
H1097 C1121 0.950 . S
H1098 C1122 0.950 . S
H1099 C1123 0.951 . S
H1100 C1125 0.951 . S
H1101 C1127 0.950 . S
H1102 C1128 0.950 . S
H1103 C1130 0.950 . S
H1104 C1133 0.950 . S
H1105 C1134 0.950 . S
H1106 C1136 0.950 . S
H1107 C1137 0.950 . S
C1108 H1090 0.951 . S
C1108 C1109 1.366 . S
C1108 C1110 1.388 . S
C1109 C1108 1.366 . S
C1109 C1113 1.385 . S
C1110 H1091 0.951 . S
C1110 C1108 1.388 . S
C1110 C1111 1.366 . S
C1111 C1110 1.366 . S
C1111 C1112 1.414 . S
C1111 C1114 1.499 . S
C1112 H1092 0.950 . S
C1112 C1111 1.414 . S
C1112 C1113 1.374 . S
C1113 H1093 0.950 . S
C1113 C1109 1.385 . S
C1113 C1112 1.374 . S
C1114 C1111 1.499 . S
C1114 C1115 1.373 . S
C1114 C1116 1.389 . S
C1115 H1094 0.950 . S
C1115 C1114 1.373 . S
C1115 C1131 1.377 . S
C1116 C1114 1.389 . S
C1116 C1117 1.524 . S
C1116 C1130 1.377 . S
C1117 C1116 1.524 . S
C1117 C1118 1.397 . S
C1117 C1122 1.363 . S
C1118 H1095 0.950 . S
C1118 C1117 1.397 . S
C1118 C1119 1.334 . S
C1119 H1096 0.950 . S
C1119 C1118 1.334 . S
C1119 C1120 1.287 . S
C1120 C1119 1.287 . S
C1120 C1121 1.524 . S
C1120 H1139 0.913 . S
C1121 H1097 0.950 . S
C1121 C1120 1.524 . S
C1121 C1122 1.415 . S
C1122 H1098 0.950 . S
C1122 C1117 1.363 . S
C1122 C1121 1.415 . S
C1123 H1099 0.951 . S
C1123 C1124 1.366 . S
C1123 C1125 1.388 . S
C1124 C1123 1.366 . S
C1124 C1128 1.385 . S
C1125 H1100 0.951 . S
C1125 C1123 1.388 . S
C1125 C1126 1.366 . S
C1126 C1125 1.366 . S
C1126 C1127 1.414 . S
C1126 C1129 1.499 . S
C1127 H1101 0.950 . S
C1127 C1126 1.414 . S
C1127 C1128 1.374 . S
C1128 H1102 0.950 . S
C1128 C1124 1.385 . S
C1128 C1127 1.374 . S
C1129 C1126 1.499 . S
C1129 C1130 1.373 . S
C1129 C1131 1.389 . S
C1130 H1103 0.950 . S
C1130 C1116 1.377 . S
C1130 C1129 1.373 . S
C1131 C1115 1.377 . S
C1131 C1129 1.389 . S
C1131 C1132 1.524 . S
C1132 C1131 1.524 . S
C1132 C1133 1.397 . S
C1132 C1137 1.363 . S
C1133 H1104 0.950 . S
C1133 C1132 1.397 . S
C1133 C1134 1.334 . S
C1134 H1105 0.950 . S
C1134 C1133 1.334 . S
C1134 C1135 1.287 . S
C1135 C1134 1.287 . S
C1135 C1136 1.524 . S
C1135 H1138 0.999 . S
C1136 H1106 0.950 . S
C1136 C1135 1.524 . S
C1136 C1137 1.415 . S
C1137 H1107 0.950 . S
C1137 C1132 1.363 . S
C1137 C1136 1.415 . S
H1138 C1135 0.999 . S
H1139 C1120 0.913 . S
H1140 C1158 0.951 . S
H1141 C1160 0.951 . S
H1142 C1162 0.950 . S
H1143 C1163 0.950 . S
H1144 C1165 0.950 . S
H1145 C1168 0.950 . S
H1146 C1169 0.950 . S
H1147 C1171 0.950 . S
H1148 C1172 0.950 . S
H1149 C1173 0.951 . S
H1150 C1175 0.951 . S
H1151 C1177 0.950 . S
H1152 C1178 0.950 . S
H1153 C1180 0.950 . S
H1154 C1183 0.950 . S
H1155 C1184 0.950 . S
H1156 C1186 0.950 . S
H1157 C1187 0.950 . S
C1158 H1140 0.951 . S
C1158 C1159 1.366 . S
C1158 C1160 1.388 . S
C1159 C1158 1.366 . S
C1159 C1163 1.385 . S
C1160 H1141 0.951 . S
C1160 C1158 1.388 . S
C1160 C1161 1.366 . S
C1161 C1160 1.366 . S
C1161 C1162 1.414 . S
C1161 C1164 1.499 1_556 S
C1162 H1142 0.950 . S
C1162 C1161 1.414 . S
C1162 C1163 1.374 . S
C1163 H1143 0.950 . S
C1163 C1159 1.385 . S
C1163 C1162 1.374 . S
C1164 C1161 1.499 1_554 S
C1164 C1165 1.373 . S
C1164 C1166 1.389 . S
C1165 H1144 0.950 . S
C1165 C1164 1.373 . S
C1165 C1181 1.377 . S
C1166 C1164 1.389 . S
C1166 C1167 1.524 . S
C1166 C1180 1.377 . S
C1167 C1166 1.524 . S
C1167 C1168 1.397 1_554 S
C1167 C1172 1.363 . S
C1168 H1145 0.950 . S
C1168 C1167 1.397 1_556 S
C1168 C1169 1.334 . S
C1169 H1146 0.950 . S
C1169 C1168 1.334 . S
C1169 C1170 1.287 . S
C1170 C1169 1.287 . S
C1170 C1171 1.524 . S
C1170 H1189 0.913 . S
C1171 H1147 0.950 . S
C1171 C1170 1.524 . S
C1171 C1172 1.415 1_556 S
C1172 H1148 0.950 . S
C1172 C1167 1.363 . S
C1172 C1171 1.415 1_554 S
C1173 H1149 0.951 . S
C1173 C1174 1.366 . S
C1173 C1175 1.388 . S
C1174 C1173 1.366 . S
C1174 C1178 1.385 . S
C1175 H1150 0.951 . S
C1175 C1173 1.388 . S
C1175 C1176 1.366 . S
C1176 C1175 1.366 . S
C1176 C1177 1.414 . S
C1176 C1179 1.499 . S
C1177 H1151 0.950 . S
C1177 C1176 1.414 . S
C1177 C1178 1.374 . S
C1178 H1152 0.950 . S
C1178 C1174 1.385 . S
C1178 C1177 1.374 . S
C1179 C1176 1.499 . S
C1179 C1180 1.373 . S
C1179 C1181 1.389 . S
C1180 H1153 0.950 . S
C1180 C1166 1.377 . S
C1180 C1179 1.373 . S
C1181 C1165 1.377 . S
C1181 C1179 1.389 . S
C1181 C1182 1.524 . S
C1182 C1181 1.524 . S
C1182 C1183 1.397 . S
C1182 C1187 1.363 . S
C1183 H1154 0.950 . S
C1183 C1182 1.397 . S
C1183 C1184 1.334 . S
C1184 H1155 0.950 . S
C1184 C1183 1.334 . S
C1184 C1185 1.287 . S
C1185 C1184 1.287 . S
C1185 C1186 1.524 . S
C1185 H1188 0.999 . S
C1186 H1156 0.950 . S
C1186 C1185 1.524 . S
C1186 C1187 1.415 . S
C1187 H1157 0.950 . S
C1187 C1182 1.363 . S
C1187 C1186 1.415 . S
H1188 C1185 0.999 . S
H1189 C1170 0.913 . S
H1190 C1208 0.951 . S
H1191 C1210 0.951 . S
H1192 C1212 0.950 . S
H1193 C1213 0.950 . S
H1194 C1215 0.950 . S
H1195 C1218 0.950 . S
H1196 C1219 0.950 . S
H1197 C1221 0.950 . S
H1198 C1222 0.950 . S
H1199 C1223 0.951 . S
H1200 C1225 0.951 . S
H1201 C1227 0.950 . S
H1202 C1228 0.950 . S
H1203 C1230 0.950 . S
H1204 C1233 0.950 . S
H1205 C1234 0.950 . S
H1206 C1236 0.950 . S
H1207 C1237 0.950 . S
C1208 H1190 0.951 . S
C1208 C1209 1.366 . S
C1208 C1210 1.388 . S
C1209 C1208 1.366 . S
C1209 C1213 1.385 . S
C1210 H1191 0.951 . S
C1210 C1208 1.388 . S
C1210 C1211 1.366 . S
C1211 C1210 1.366 . S
C1211 C1212 1.414 . S
C1211 C1214 1.499 . S
C1212 H1192 0.950 . S
C1212 C1211 1.414 . S
C1212 C1213 1.374 . S
C1213 H1193 0.950 . S
C1213 C1209 1.385 . S
C1213 C1212 1.374 . S
C1214 C1211 1.499 . S
C1214 C1215 1.373 . S
C1214 C1216 1.389 . S
C1215 H1194 0.950 . S
C1215 C1214 1.373 . S
C1215 C1231 1.377 . S
C1216 C1214 1.389 . S
C1216 C1217 1.524 . S
C1216 C1230 1.377 . S
C1217 C1216 1.524 . S
C1217 C1218 1.397 . S
C1217 C1222 1.363 . S
C1218 H1195 0.950 . S
C1218 C1217 1.397 . S
C1218 C1219 1.334 . S
C1219 H1196 0.950 . S
C1219 C1218 1.334 . S
C1219 C1220 1.287 . S
C1220 C1219 1.287 . S
C1220 C1221 1.524 . S
C1220 H1239 0.913 . S
C1221 H1197 0.950 . S
C1221 C1220 1.524 . S
C1221 C1222 1.415 . S
C1222 H1198 0.950 . S
C1222 C1217 1.363 . S
C1222 C1221 1.415 . S
C1223 H1199 0.951 . S
C1223 C1224 1.366 . S
C1223 C1225 1.388 . S
C1224 C1223 1.366 . S
C1224 C1228 1.385 . S
C1225 H1200 0.951 . S
C1225 C1223 1.388 . S
C1225 C1226 1.366 . S
C1226 C1225 1.366 . S
C1226 C1227 1.414 . S
C1226 C1229 1.499 . S
C1227 H1201 0.950 . S
C1227 C1226 1.414 . S
C1227 C1228 1.374 . S
C1228 H1202 0.950 . S
C1228 C1224 1.385 . S
C1228 C1227 1.374 . S
C1229 C1226 1.499 . S
C1229 C1230 1.373 . S
C1229 C1231 1.389 . S
C1230 H1203 0.950 . S
C1230 C1216 1.377 . S
C1230 C1229 1.373 . S
C1231 C1215 1.377 . S
C1231 C1229 1.389 . S
C1231 C1232 1.524 . S
C1232 C1231 1.524 . S
C1232 C1233 1.397 . S
C1232 C1237 1.363 . S
C1233 H1204 0.950 . S
C1233 C1232 1.397 . S
C1233 C1234 1.334 . S
C1234 H1205 0.950 . S
C1234 C1233 1.334 . S
C1234 C1235 1.287 . S
C1235 C1234 1.287 . S
C1235 C1236 1.524 . S
C1235 H1238 0.999 . S
C1236 H1206 0.950 . S
C1236 C1235 1.524 . S
C1236 C1237 1.415 . S
C1237 H1207 0.950 . S
C1237 C1232 1.363 . S
C1237 C1236 1.415 . S
H1238 C1235 0.999 . S
H1239 C1220 0.913 . S
H1240 C1258 0.951 . S
H1241 C1260 0.951 . S
H1242 C1262 0.950 . S
H1243 C1263 0.950 . S
H1244 C1265 0.950 . S
H1245 C1268 0.950 . S
H1246 C1269 0.950 . S
H1247 C1271 0.950 . S
H1248 C1272 0.950 . S
H1249 C1273 0.951 . S
H1250 C1275 0.951 . S
H1251 C1277 0.950 . S
H1252 C1278 0.950 . S
H1253 C1280 0.950 . S
H1254 C1283 0.950 . S
H1255 C1284 0.950 . S
H1256 C1286 0.950 1_655 S
H1257 C1287 0.950 . S
C1258 H1240 0.951 . S
C1258 C1259 1.366 . S
C1258 C1260 1.388 . S
C1259 C1258 1.366 . S
C1259 C1263 1.385 . S
C1260 H1241 0.951 . S
C1260 C1258 1.388 . S
C1260 C1261 1.366 . S
C1261 C1260 1.366 . S
C1261 C1262 1.414 . S
C1261 C1264 1.499 . S
C1262 H1242 0.950 . S
C1262 C1261 1.414 . S
C1262 C1263 1.374 . S
C1263 H1243 0.950 . S
C1263 C1259 1.385 . S
C1263 C1262 1.374 . S
C1264 C1261 1.499 . S
C1264 C1265 1.373 . S
C1264 C1266 1.389 . S
C1265 H1244 0.950 . S
C1265 C1264 1.373 . S
C1265 C1281 1.377 . S
C1266 C1264 1.389 . S
C1266 C1267 1.524 . S
C1266 C1280 1.377 . S
C1267 C1266 1.524 . S
C1267 C1268 1.397 . S
C1267 C1272 1.363 . S
C1268 H1245 0.950 . S
C1268 C1267 1.397 . S
C1268 C1269 1.334 . S
C1269 H1246 0.950 . S
C1269 C1268 1.334 . S
C1269 C1270 1.287 . S
C1270 C1269 1.287 . S
C1270 C1271 1.524 . S
C1270 H1289 0.913 . S
C1271 H1247 0.950 . S
C1271 C1270 1.524 . S
C1271 C1272 1.415 . S
C1272 H1248 0.950 . S
C1272 C1267 1.363 . S
C1272 C1271 1.415 . S
C1273 H1249 0.951 . S
C1273 C1274 1.366 . S
C1273 C1275 1.388 . S
C1274 C1273 1.366 . S
C1274 C1278 1.385 . S
C1275 H1250 0.951 . S
C1275 C1273 1.388 . S
C1275 C1276 1.366 . S
C1276 C1275 1.366 . S
C1276 C1277 1.414 . S
C1276 C1279 1.499 . S
C1277 H1251 0.950 . S
C1277 C1276 1.414 . S
C1277 C1278 1.374 . S
C1278 H1252 0.950 . S
C1278 C1274 1.385 . S
C1278 C1277 1.374 . S
C1279 C1276 1.499 . S
C1279 C1280 1.373 . S
C1279 C1281 1.389 . S
C1280 H1253 0.950 . S
C1280 C1266 1.377 . S
C1280 C1279 1.373 . S
C1281 C1265 1.377 . S
C1281 C1279 1.389 . S
C1281 C1282 1.524 . S
C1282 C1281 1.524 . S
C1282 C1283 1.397 . S
C1282 C1287 1.363 . S
C1283 H1254 0.950 . S
C1283 C1282 1.397 . S
C1283 C1284 1.334 . S
C1284 H1255 0.950 . S
C1284 C1283 1.334 . S
C1284 C1285 1.287 . S
C1285 C1284 1.287 . S
C1285 C1286 1.524 . S
C1285 H1288 0.999 1_455 S
C1286 H1256 0.950 1_455 S
C1286 C1285 1.524 . S
C1286 C1287 1.415 . S
C1287 H1257 0.950 . S
C1287 C1282 1.363 . S
C1287 C1286 1.415 . S
H1288 C1285 0.999 1_655 S
H1289 C1270 0.913 . S
H1290 C1308 0.951 . S
H1291 C1310 0.951 . S
H1292 C1312 0.950 . S
H1293 C1313 0.950 . S
H1294 C1315 0.950 . S
H1295 C1318 0.950 . S
H1296 C1319 0.950 . S
H1297 C1321 0.950 . S
H1298 C1322 0.950 . S
H1299 C1323 0.951 . S
H1300 C1325 0.951 . S
H1301 C1327 0.950 . S
H1302 C1328 0.950 . S
H1303 C1330 0.950 . S
H1304 C1333 0.950 . S
H1305 C1334 0.950 . S
H1306 C1336 0.950 . S
H1307 C1337 0.950 . S
C1308 H1290 0.951 . S
C1308 C1309 1.366 . S
C1308 C1310 1.388 . S
C1309 C1308 1.366 . S
C1309 C1313 1.385 . S
C1310 H1291 0.951 . S
C1310 C1308 1.388 . S
C1310 C1311 1.366 . S
C1311 C1310 1.366 . S
C1311 C1312 1.414 . S
C1311 C1314 1.499 . S
C1312 H1292 0.950 . S
C1312 C1311 1.414 . S
C1312 C1313 1.374 . S
C1313 H1293 0.950 . S
C1313 C1309 1.385 . S
C1313 C1312 1.374 . S
C1314 C1311 1.499 . S
C1314 C1315 1.373 . S
C1314 C1316 1.389 . S
C1315 H1294 0.950 . S
C1315 C1314 1.373 . S
C1315 C1331 1.377 . S
C1316 C1314 1.389 . S
C1316 C1317 1.524 . S
C1316 C1330 1.377 . S
C1317 C1316 1.524 . S
C1317 C1318 1.397 . S
C1317 C1322 1.363 . S
C1318 H1295 0.950 . S
C1318 C1317 1.397 . S
C1318 C1319 1.334 . S
C1319 H1296 0.950 . S
C1319 C1318 1.334 . S
C1319 C1320 1.287 . S
C1320 C1319 1.287 . S
C1320 C1321 1.524 . S
C1320 H1339 0.913 . S
C1321 H1297 0.950 . S
C1321 C1320 1.524 . S
C1321 C1322 1.415 . S
C1322 H1298 0.950 . S
C1322 C1317 1.363 . S
C1322 C1321 1.415 . S
C1323 H1299 0.951 . S
C1323 C1324 1.366 . S
C1323 C1325 1.388 . S
C1324 C1323 1.366 . S
C1324 C1328 1.385 . S
C1325 H1300 0.951 . S
C1325 C1323 1.388 . S
C1325 C1326 1.366 . S
C1326 C1325 1.366 . S
C1326 C1327 1.414 . S
C1326 C1329 1.499 . S
C1327 H1301 0.950 . S
C1327 C1326 1.414 . S
C1327 C1328 1.374 . S
C1328 H1302 0.950 . S
C1328 C1324 1.385 . S
C1328 C1327 1.374 . S
C1329 C1326 1.499 . S
C1329 C1330 1.373 . S
C1329 C1331 1.389 . S
C1330 H1303 0.950 . S
C1330 C1316 1.377 . S
C1330 C1329 1.373 . S
C1331 C1315 1.377 . S
C1331 C1329 1.389 . S
C1331 C1332 1.524 . S
C1332 C1331 1.524 . S
C1332 C1333 1.397 . S
C1332 C1337 1.363 . S
C1333 H1304 0.950 . S
C1333 C1332 1.397 . S
C1333 C1334 1.334 . S
C1334 H1305 0.950 . S
C1334 C1333 1.334 . S
C1334 C1335 1.287 . S
C1335 C1334 1.287 . S
C1335 C1336 1.524 . S
C1335 H1338 0.999 . S
C1336 H1306 0.950 . S
C1336 C1335 1.524 . S
C1336 C1337 1.415 . S
C1337 H1307 0.950 . S
C1337 C1332 1.363 . S
C1337 C1336 1.415 . S
H1338 C1335 0.999 . S
H1339 C1320 0.913 . S
H1340 C1358 0.951 . S
H1341 C1360 0.951 . S
H1342 C1362 0.950 . S
H1343 C1363 0.950 . S
H1344 C1365 0.950 . S
H1345 C1368 0.950 . S
H1346 C1369 0.950 . S
H1347 C1371 0.950 . S
H1348 C1372 0.950 . S
H1349 C1373 0.951 . S
H1350 C1375 0.951 . S
H1351 C1377 0.950 . S
H1352 C1378 0.950 . S
H1353 C1380 0.950 . S
H1354 C1383 0.950 . S
H1355 C1384 0.950 . S
H1356 C1386 0.950 . S
H1357 C1387 0.950 . S
C1358 H1340 0.951 . S
C1358 C1359 1.366 . S
C1358 C1360 1.388 . S
C1359 C1358 1.366 . S
C1359 C1363 1.385 . S
C1360 H1341 0.951 . S
C1360 C1358 1.388 . S
C1360 C1361 1.366 . S
C1361 C1360 1.366 . S
C1361 C1362 1.414 . S
C1361 C1364 1.499 . S
C1362 H1342 0.950 . S
C1362 C1361 1.414 . S
C1362 C1363 1.374 . S
C1363 H1343 0.950 . S
C1363 C1359 1.385 . S
C1363 C1362 1.374 . S
C1364 C1361 1.499 . S
C1364 C1365 1.373 . S
C1364 C1366 1.389 . S
C1365 H1344 0.950 . S
C1365 C1364 1.373 . S
C1365 C1381 1.377 . S
C1366 C1364 1.389 . S
C1366 C1367 1.524 . S
C1366 C1380 1.377 . S
C1367 C1366 1.524 . S
C1367 C1368 1.397 . S
C1367 C1372 1.363 . S
C1368 H1345 0.950 . S
C1368 C1367 1.397 . S
C1368 C1369 1.334 . S
C1369 H1346 0.950 . S
C1369 C1368 1.334 . S
C1369 C1370 1.287 . S
C1370 C1369 1.287 . S
C1370 C1371 1.524 . S
C1370 H1389 0.913 . S
C1371 H1347 0.950 . S
C1371 C1370 1.524 . S
C1371 C1372 1.415 . S
C1372 H1348 0.950 . S
C1372 C1367 1.363 . S
C1372 C1371 1.415 . S
C1373 H1349 0.951 . S
C1373 C1374 1.366 . S
C1373 C1375 1.388 . S
C1374 C1373 1.366 . S
C1374 C1378 1.385 . S
C1375 H1350 0.951 . S
C1375 C1373 1.388 . S
C1375 C1376 1.366 . S
C1376 C1375 1.366 . S
C1376 C1377 1.414 . S
C1376 C1379 1.499 . S
C1377 H1351 0.950 . S
C1377 C1376 1.414 . S
C1377 C1378 1.374 . S
C1378 H1352 0.950 . S
C1378 C1374 1.385 . S
C1378 C1377 1.374 . S
C1379 C1376 1.499 . S
C1379 C1380 1.373 . S
C1379 C1381 1.389 . S
C1380 H1353 0.950 . S
C1380 C1366 1.377 . S
C1380 C1379 1.373 . S
C1381 C1365 1.377 . S
C1381 C1379 1.389 . S
C1381 C1382 1.524 . S
C1382 C1381 1.524 . S
C1382 C1383 1.397 . S
C1382 C1387 1.363 . S
C1383 H1354 0.950 . S
C1383 C1382 1.397 . S
C1383 C1384 1.334 . S
C1384 H1355 0.950 . S
C1384 C1383 1.334 . S
C1384 C1385 1.287 . S
C1385 C1384 1.287 . S
C1385 C1386 1.524 . S
C1385 H1388 0.999 . S
C1386 H1356 0.950 . S
C1386 C1385 1.524 . S
C1386 C1387 1.415 . S
C1387 H1357 0.950 . S
C1387 C1382 1.363 . S
C1387 C1386 1.415 . S
H1388 C1385 0.999 . S
H1389 C1370 0.913 . S
H1390 C1408 0.951 . S
H1391 C1410 0.951 . S
H1392 C1412 0.950 . S
H1393 C1413 0.950 . S
H1394 C1415 0.950 . S
H1395 C1418 0.950 . S
H1396 C1419 0.950 . S
H1397 C1421 0.950 . S
H1398 C1422 0.950 . S
H1399 C1423 0.951 . S
H1400 C1425 0.951 . S
H1401 C1427 0.950 . S
H1402 C1428 0.950 . S
H1403 C1430 0.950 . S
H1404 C1433 0.950 . S
H1405 C1434 0.950 . S
H1406 C1436 0.950 . S
H1407 C1437 0.950 . S
C1408 H1390 0.951 . S
C1408 C1409 1.366 . S
C1408 C1410 1.388 . S
C1409 C1408 1.366 . S
C1409 C1413 1.385 . S
C1410 H1391 0.951 . S
C1410 C1408 1.388 . S
C1410 C1411 1.366 . S
C1411 C1410 1.366 . S
C1411 C1412 1.414 . S
C1411 C1414 1.499 . S
C1412 H1392 0.950 . S
C1412 C1411 1.414 . S
C1412 C1413 1.374 . S
C1413 H1393 0.950 . S
C1413 C1409 1.385 . S
C1413 C1412 1.374 . S
C1414 C1411 1.499 . S
C1414 C1415 1.373 . S
C1414 C1416 1.389 . S
C1415 H1394 0.950 . S
C1415 C1414 1.373 . S
C1415 C1431 1.377 . S
C1416 C1414 1.389 . S
C1416 C1417 1.524 . S
C1416 C1430 1.377 . S
C1417 C1416 1.524 . S
C1417 C1418 1.397 . S
C1417 C1422 1.363 . S
C1418 H1395 0.950 . S
C1418 C1417 1.397 . S
C1418 C1419 1.334 . S
C1419 H1396 0.950 . S
C1419 C1418 1.334 . S
C1419 C1420 1.287 . S
C1420 C1419 1.287 . S
C1420 C1421 1.524 . S
C1420 H1439 0.913 . S
C1421 H1397 0.950 . S
C1421 C1420 1.524 . S
C1421 C1422 1.415 . S
C1422 H1398 0.950 . S
C1422 C1417 1.363 . S
C1422 C1421 1.415 . S
C1423 H1399 0.951 . S
C1423 C1424 1.366 . S
C1423 C1425 1.388 . S
C1424 C1423 1.366 . S
C1424 C1428 1.385 . S
C1425 H1400 0.951 . S
C1425 C1423 1.388 . S
C1425 C1426 1.366 . S
C1426 C1425 1.366 . S
C1426 C1427 1.414 . S
C1426 C1429 1.499 . S
C1427 H1401 0.950 . S
C1427 C1426 1.414 . S
C1427 C1428 1.374 . S
C1428 H1402 0.950 . S
C1428 C1424 1.385 . S
C1428 C1427 1.374 . S
C1429 C1426 1.499 . S
C1429 C1430 1.373 . S
C1429 C1431 1.389 . S
C1430 H1403 0.950 . S
C1430 C1416 1.377 . S
C1430 C1429 1.373 . S
C1431 C1415 1.377 . S
C1431 C1429 1.389 . S
C1431 C1432 1.524 . S
C1432 C1431 1.524 . S
C1432 C1433 1.397 . S
C1432 C1437 1.363 . S
C1433 H1404 0.950 . S
C1433 C1432 1.397 . S
C1433 C1434 1.334 . S
C1434 H1405 0.950 . S
C1434 C1433 1.334 . S
C1434 C1435 1.287 . S
C1435 C1434 1.287 . S
C1435 C1436 1.524 . S
C1435 H1438 0.999 . S
C1436 H1406 0.950 . S
C1436 C1435 1.524 . S
C1436 C1437 1.415 . S
C1437 H1407 0.950 . S
C1437 C1432 1.363 . S
C1437 C1436 1.415 . S
H1438 C1435 0.999 . S
H1439 C1420 0.913 . S
H1440 C1458 0.951 . S
H1441 C1460 0.951 . S
H1442 C1462 0.950 . S
H1443 C1463 0.950 . S
H1444 C1465 0.950 . S
H1445 C1468 0.950 . S
H1446 C1469 0.950 . S
H1447 C1471 0.950 . S
H1448 C1472 0.950 . S
H1449 C1473 0.951 . S
H1450 C1475 0.951 . S
H1451 C1477 0.950 . S
H1452 C1478 0.950 1_455 S
H1453 C1480 0.950 . S
H1454 C1483 0.950 . S
H1455 C1484 0.950 . S
H1456 C1486 0.950 . S
H1457 C1487 0.950 . S
C1458 H1440 0.951 . S
C1458 C1459 1.366 . S
C1458 C1460 1.388 . S
C1459 C1458 1.366 . S
C1459 C1463 1.385 . S
C1460 H1441 0.951 . S
C1460 C1458 1.388 . S
C1460 C1461 1.366 . S
C1461 C1460 1.366 . S
C1461 C1462 1.414 . S
C1461 C1464 1.499 . S
C1462 H1442 0.950 . S
C1462 C1461 1.414 . S
C1462 C1463 1.374 . S
C1463 H1443 0.950 . S
C1463 C1459 1.385 . S
C1463 C1462 1.374 . S
C1464 C1461 1.499 . S
C1464 C1465 1.373 . S
C1464 C1466 1.389 . S
C1465 H1444 0.950 . S
C1465 C1464 1.373 . S
C1465 C1481 1.377 . S
C1466 C1464 1.389 . S
C1466 C1467 1.524 . S
C1466 C1480 1.377 . S
C1467 C1466 1.524 . S
C1467 C1468 1.397 . S
C1467 C1472 1.363 . S
C1468 H1445 0.950 . S
C1468 C1467 1.397 . S
C1468 C1469 1.334 . S
C1469 H1446 0.950 . S
C1469 C1468 1.334 . S
C1469 C1470 1.287 . S
C1470 C1469 1.287 . S
C1470 C1471 1.524 . S
C1470 H1489 0.913 . S
C1471 H1447 0.950 . S
C1471 C1470 1.524 . S
C1471 C1472 1.415 . S
C1472 H1448 0.950 . S
C1472 C1467 1.363 . S
C1472 C1471 1.415 . S
C1473 H1449 0.951 . S
C1473 C1474 1.366 . S
C1473 C1475 1.388 . S
C1474 C1473 1.366 . S
C1474 C1478 1.385 . S
C1475 H1450 0.951 . S
C1475 C1473 1.388 . S
C1475 C1476 1.366 . S
C1476 C1475 1.366 . S
C1476 C1477 1.414 . S
C1476 C1479 1.499 . S
C1477 H1451 0.950 . S
C1477 C1476 1.414 . S
C1477 C1478 1.374 . S
C1478 H1452 0.950 1_655 S
C1478 C1474 1.385 . S
C1478 C1477 1.374 . S
C1479 C1476 1.499 . S
C1479 C1480 1.373 . S
C1479 C1481 1.389 . S
C1480 H1453 0.950 . S
C1480 C1466 1.377 . S
C1480 C1479 1.373 . S
C1481 C1465 1.377 . S
C1481 C1479 1.389 . S
C1481 C1482 1.524 . S
C1482 C1481 1.524 . S
C1482 C1483 1.397 . S
C1482 C1487 1.363 . S
C1483 H1454 0.950 . S
C1483 C1482 1.397 . S
C1483 C1484 1.334 . S
C1484 H1455 0.950 . S
C1484 C1483 1.334 . S
C1484 C1485 1.287 . S
C1485 C1484 1.287 . S
C1485 C1486 1.524 . S
C1485 H1488 0.999 . S
C1486 H1456 0.950 . S
C1486 C1485 1.524 . S
C1486 C1487 1.415 . S
C1487 H1457 0.950 . S
C1487 C1482 1.363 . S
C1487 C1486 1.415 . S
H1488 C1485 0.999 . S
H1489 C1470 0.913 . S
H1490 C1508 0.951 . S
H1491 C1510 0.951 . S
H1492 C1512 0.950 . S
H1493 C1513 0.950 . S
H1494 C1515 0.950 . S
H1495 C1518 0.950 . S
H1496 C1519 0.950 . S
H1497 C1521 0.950 . S
H1498 C1522 0.950 . S
H1499 C1523 0.951 . S
H1500 C1525 0.951 . S
H1501 C1527 0.950 . S
H1502 C1528 0.950 . S
H1503 C1530 0.950 . S
H1504 C1533 0.950 . S
H1505 C1534 0.950 . S
H1506 C1536 0.950 . S
H1507 C1537 0.950 . S
C1508 H1490 0.951 . S
C1508 C1509 1.366 . S
C1508 C1510 1.388 . S
C1509 C1508 1.366 . S
C1509 C1513 1.385 . S
C1510 H1491 0.951 . S
C1510 C1508 1.388 . S
C1510 C1511 1.366 . S
C1511 C1510 1.366 . S
C1511 C1512 1.414 . S
C1511 C1514 1.499 . S
C1512 H1492 0.950 . S
C1512 C1511 1.414 . S
C1512 C1513 1.374 . S
C1513 H1493 0.950 . S
C1513 C1509 1.385 . S
C1513 C1512 1.374 . S
C1514 C1511 1.499 . S
C1514 C1515 1.373 . S
C1514 C1516 1.389 . S
C1515 H1494 0.950 . S
C1515 C1514 1.373 . S
C1515 C1531 1.377 . S
C1516 C1514 1.389 . S
C1516 C1517 1.524 . S
C1516 C1530 1.377 . S
C1517 C1516 1.524 . S
C1517 C1518 1.397 . S
C1517 C1522 1.363 . S
C1518 H1495 0.950 . S
C1518 C1517 1.397 . S
C1518 C1519 1.334 . S
C1519 H1496 0.950 . S
C1519 C1518 1.334 . S
C1519 C1520 1.287 . S
C1520 C1519 1.287 . S
C1520 C1521 1.524 . S
C1520 H1539 0.913 . S
C1521 H1497 0.950 . S
C1521 C1520 1.524 . S
C1521 C1522 1.415 . S
C1522 H1498 0.950 . S
C1522 C1517 1.363 . S
C1522 C1521 1.415 . S
C1523 H1499 0.951 . S
C1523 C1524 1.366 . S
C1523 C1525 1.388 . S
C1524 C1523 1.366 . S
C1524 C1528 1.385 . S
C1525 H1500 0.951 . S
C1525 C1523 1.388 . S
C1525 C1526 1.366 . S
C1526 C1525 1.366 . S
C1526 C1527 1.414 . S
C1526 C1529 1.499 . S
C1527 H1501 0.950 . S
C1527 C1526 1.414 . S
C1527 C1528 1.374 . S
C1528 H1502 0.950 . S
C1528 C1524 1.385 . S
C1528 C1527 1.374 . S
C1529 C1526 1.499 . S
C1529 C1530 1.373 . S
C1529 C1531 1.389 . S
C1530 H1503 0.950 . S
C1530 C1516 1.377 . S
C1530 C1529 1.373 . S
C1531 C1515 1.377 . S
C1531 C1529 1.389 . S
C1531 C1532 1.524 . S
C1532 C1531 1.524 . S
C1532 C1533 1.397 . S
C1532 C1537 1.363 . S
C1533 H1504 0.950 . S
C1533 C1532 1.397 . S
C1533 C1534 1.334 . S
C1534 H1505 0.950 . S
C1534 C1533 1.334 . S
C1534 C1535 1.287 . S
C1535 C1534 1.287 . S
C1535 C1536 1.524 . S
C1535 H1538 0.999 . S
C1536 H1506 0.950 . S
C1536 C1535 1.524 . S
C1536 C1537 1.415 . S
C1537 H1507 0.950 . S
C1537 C1532 1.363 . S
C1537 C1536 1.415 . S
H1538 C1535 0.999 . S
H1539 C1520 0.913 . S
H1540 C1558 0.951 . S
H1541 C1560 0.951 . S
H1542 C1562 0.950 . S
H1543 C1563 0.950 . S
H1544 C1565 0.950 . S
H1545 C1568 0.950 . S
H1546 C1569 0.950 . S
H1547 C1571 0.950 . S
H1548 C1572 0.950 . S
H1549 C1573 0.951 . S
H1550 C1575 0.951 . S
H1551 C1577 0.950 . S
H1552 C1578 0.950 . S
H1553 C1580 0.950 . S
H1554 C1583 0.950 . S
H1555 C1584 0.950 . S
H1556 C1586 0.950 . S
H1557 C1587 0.950 . S
C1558 H1540 0.951 . S
C1558 C1559 1.366 . S
C1558 C1560 1.388 . S
C1559 C1558 1.366 . S
C1559 C1563 1.385 . S
C1560 H1541 0.951 . S
C1560 C1558 1.388 . S
C1560 C1561 1.366 . S
C1561 C1560 1.366 . S
C1561 C1562 1.414 . S
C1561 C1564 1.499 . S
C1562 H1542 0.950 . S
C1562 C1561 1.414 . S
C1562 C1563 1.374 . S
C1563 H1543 0.950 . S
C1563 C1559 1.385 . S
C1563 C1562 1.374 . S
C1564 C1561 1.499 . S
C1564 C1565 1.373 . S
C1564 C1566 1.389 . S
C1565 H1544 0.950 . S
C1565 C1564 1.373 . S
C1565 C1581 1.377 . S
C1566 C1564 1.389 . S
C1566 C1567 1.524 . S
C1566 C1580 1.377 . S
C1567 C1566 1.524 . S
C1567 C1568 1.397 . S
C1567 C1572 1.363 . S
C1568 H1545 0.950 . S
C1568 C1567 1.397 . S
C1568 C1569 1.334 . S
C1569 H1546 0.950 . S
C1569 C1568 1.334 . S
C1569 C1570 1.287 . S
C1570 C1569 1.287 . S
C1570 C1571 1.524 . S
C1570 H1589 0.913 . S
C1571 H1547 0.950 . S
C1571 C1570 1.524 . S
C1571 C1572 1.415 . S
C1572 H1548 0.950 . S
C1572 C1567 1.363 . S
C1572 C1571 1.415 . S
C1573 H1549 0.951 . S
C1573 C1574 1.366 . S
C1573 C1575 1.388 . S
C1574 C1573 1.366 . S
C1574 C1578 1.385 . S
C1575 H1550 0.951 . S
C1575 C1573 1.388 . S
C1575 C1576 1.366 . S
C1576 C1575 1.366 . S
C1576 C1577 1.414 . S
C1576 C1579 1.499 . S
C1577 H1551 0.950 . S
C1577 C1576 1.414 . S
C1577 C1578 1.374 . S
C1578 H1552 0.950 . S
C1578 C1574 1.385 . S
C1578 C1577 1.374 . S
C1579 C1576 1.499 . S
C1579 C1580 1.373 . S
C1579 C1581 1.389 . S
C1580 H1553 0.950 . S
C1580 C1566 1.377 . S
C1580 C1579 1.373 . S
C1581 C1565 1.377 . S
C1581 C1579 1.389 . S
C1581 C1582 1.524 . S
C1582 C1581 1.524 . S
C1582 C1583 1.397 . S
C1582 C1587 1.363 . S
C1583 H1554 0.950 . S
C1583 C1582 1.397 . S
C1583 C1584 1.334 . S
C1584 H1555 0.950 . S
C1584 C1583 1.334 . S
C1584 C1585 1.287 . S
C1585 C1584 1.287 . S
C1585 C1586 1.524 . S
C1585 H1588 0.999 . S
C1586 H1556 0.950 . S
C1586 C1585 1.524 . S
C1586 C1587 1.415 . S
C1587 H1557 0.950 . S
C1587 C1582 1.363 . S
C1587 C1586 1.415 . S
H1588 C1585 0.999 . S
H1589 C1570 0.913 . S
H1590 C1608 0.951 . S
H1591 C1610 0.951 . S
H1592 C1612 0.950 . S
H1593 C1613 0.950 . S
H1594 C1615 0.950 . S
H1595 C1618 0.950 . S
H1596 C1619 0.950 . S
H1597 C1621 0.950 . S
H1598 C1622 0.950 . S
H1599 C1623 0.951 . S
H1600 C1625 0.951 . S
H1601 C1627 0.950 . S
H1602 C1628 0.950 . S
H1603 C1630 0.950 . S
H1604 C1633 0.950 . S
H1605 C1634 0.950 . S
H1606 C1636 0.950 . S
H1607 C1637 0.950 . S
C1608 H1590 0.951 . S
C1608 C1609 1.366 . S
C1608 C1610 1.388 . S
C1609 C1608 1.366 . S
C1609 C1613 1.385 . S
C1610 H1591 0.951 . S
C1610 C1608 1.388 . S
C1610 C1611 1.366 . S
C1611 C1610 1.366 . S
C1611 C1612 1.414 . S
C1611 C1614 1.499 . S
C1612 H1592 0.950 . S
C1612 C1611 1.414 . S
C1612 C1613 1.374 . S
C1613 H1593 0.950 . S
C1613 C1609 1.385 . S
C1613 C1612 1.374 . S
C1614 C1611 1.499 . S
C1614 C1615 1.373 . S
C1614 C1616 1.389 . S
C1615 H1594 0.950 . S
C1615 C1614 1.373 . S
C1615 C1631 1.377 . S
C1616 C1614 1.389 . S
C1616 C1617 1.524 . S
C1616 C1630 1.377 . S
C1617 C1616 1.524 . S
C1617 C1618 1.397 . S
C1617 C1622 1.363 . S
C1618 H1595 0.950 . S
C1618 C1617 1.397 . S
C1618 C1619 1.334 . S
C1619 H1596 0.950 . S
C1619 C1618 1.334 . S
C1619 C1620 1.287 . S
C1620 C1619 1.287 . S
C1620 C1621 1.524 . S
C1620 H1639 0.913 . S
C1621 H1597 0.950 . S
C1621 C1620 1.524 . S
C1621 C1622 1.415 . S
C1622 H1598 0.950 . S
C1622 C1617 1.363 . S
C1622 C1621 1.415 . S
C1623 H1599 0.951 . S
C1623 C1624 1.366 . S
C1623 C1625 1.388 . S
C1624 C1623 1.366 . S
C1624 C1628 1.385 . S
C1625 H1600 0.951 . S
C1625 C1623 1.388 . S
C1625 C1626 1.366 . S
C1626 C1625 1.366 . S
C1626 C1627 1.414 . S
C1626 C1629 1.499 . S
C1627 H1601 0.950 . S
C1627 C1626 1.414 . S
C1627 C1628 1.374 . S
C1628 H1602 0.950 . S
C1628 C1624 1.385 . S
C1628 C1627 1.374 . S
C1629 C1626 1.499 . S
C1629 C1630 1.373 . S
C1629 C1631 1.389 . S
C1630 H1603 0.950 . S
C1630 C1616 1.377 . S
C1630 C1629 1.373 . S
C1631 C1615 1.377 . S
C1631 C1629 1.389 . S
C1631 C1632 1.524 . S
C1632 C1631 1.524 . S
C1632 C1633 1.397 . S
C1632 C1637 1.363 . S
C1633 H1604 0.950 . S
C1633 C1632 1.397 . S
C1633 C1634 1.334 . S
C1634 H1605 0.950 . S
C1634 C1633 1.334 . S
C1634 C1635 1.287 . S
C1635 C1634 1.287 . S
C1635 C1636 1.524 . S
C1635 H1638 0.999 . S
C1636 H1606 0.950 . S
C1636 C1635 1.524 . S
C1636 C1637 1.415 . S
C1637 H1607 0.950 . S
C1637 C1632 1.363 . S
C1637 C1636 1.415 . S
H1638 C1635 0.999 . S
H1639 C1620 0.913 . S
C459 C86 1.639 . S
C474 C178 1.620 . S
C524 C262 1.699 . S
C509 C100 1.722 . S
C574 C255 1.629 . S
C559 C60 1.630 . S
C609 C74 1.711 . S
C624 C171 1.714 . S
C674 C335 1.699 . S
C659 C35 1.720 . S
C724 C419 1.620 . S
C709 C47 1.641 . S
C759 C9 1.710 . S
C774 C412 1.714 . S
C809 C21 1.633 . S
C824 C328 1.630 . S
C874 C162 1.449 . S
C859 C22 1.600 . S
C924 C246 1.454 . S
C909 C8 1.614 . S
C974 C257 1.417 . S
C959 C48 1.611 . S
C1024 C173 1.423 . S
C1009 C34 1.625 . S
C1074 C341 1.452 . S
C1059 C73 1.616 . S
C1109 C61 1.598 . S
C1124 C425 1.449 . S
C1174 C414 1.425 . S
C1159 C99 1.628 . S
C1209 C87 1.609 . S
C1224 C330 1.415 . S
C1274 C160 1.640 . S
C1259 C4 1.552 . S
C1324 C244 1.511 . S
C1309 C17 1.493 . S
C1359 C30 1.550 . S
C1374 C251 1.609 . S
C1424 C167 1.478 . S
C1409 C43 1.483 . S
C1474 C339 1.512 . S
C1459 C56 1.467 . S
C1509 C69 1.579 . S
C1524 C423 1.640 . S
C1559 C82 1.462 . S
C1574 C430 1.478 . S
C1609 C95 1.573 . S
C1624 C346 1.610 . S
