# Generated by pormake.
# Topology pth, (4,4)-cn, num edge types: 1
# Building blocks:
#     Node 0, Type 0, BuildingBlock: UXUYUI_clean_sbu_0, # of connection points: 4
#     Node 1, Type 0, BuildingBlock: UXUYUI_clean_sbu_0, # of connection points: 4
#     Node 2, Type 0, BuildingBlock: UXUYUI_clean_sbu_0, # of connection points: 4
#     Node 3, Type 1, BuildingBlock: MUDLON_clean_linker_0, # of connection points: 4
#     Node 4, Type 1, BuildingBlock: MUDLON_clean_linker_0, # of connection points: 4
#     Node 5, Type 1, BuildingBlock: MUDLON_clean_linker_0, # of connection points: 4
#     Edge 6, Type (0, 1), BuildingBlock: KIFKEQ_clean_linker_1, # of connection points: 2
#     Edge 7, Type (0, 1), BuildingBlock: KIFKEQ_clean_linker_1, # of connection points: 2
#     Edge 8, Type (0, 1), BuildingBlock: KIFKEQ_clean_linker_1, # of connection points: 2
#     Edge 9, Type (0, 1), BuildingBlock: KIFKEQ_clean_linker_1, # of connection points: 2
#     Edge 10, Type (0, 1), BuildingBlock: KIFKEQ_clean_linker_1, # of connection points: 2
#     Edge 11, Type (0, 1), BuildingBlock: KIFKEQ_clean_linker_1, # of connection points: 2
#     Edge 12, Type (0, 1), BuildingBlock: KIFKEQ_clean_linker_1, # of connection points: 2
#     Edge 13, Type (0, 1), BuildingBlock: KIFKEQ_clean_linker_1, # of connection points: 2
#     Edge 14, Type (0, 1), BuildingBlock: KIFKEQ_clean_linker_1, # of connection points: 2
#     Edge 15, Type (0, 1), BuildingBlock: KIFKEQ_clean_linker_1, # of connection points: 2
#     Edge 16, Type (0, 1), BuildingBlock: KIFKEQ_clean_linker_1, # of connection points: 2
#     Edge 17, Type (0, 1), BuildingBlock: KIFKEQ_clean_linker_1, # of connection points: 2
# Relax obj value: 0.088
# Max RMSD: 0.213
# Mean RMSD: 0.143
data_MOF--net-pth--node1-UXUYUI_clean_sbu_0--node2-MUDLON_clean_linker_0--edge1-KIFKEQ_clean_linker_1
_symmetry_space_group_name_H-M    P1
_symmetry_Int_Tables_number       1
_symmetry_cell_setting            triclinic
loop_
_symmetry_equiv_pos_as_xyz
'x, y, z'
_cell_length_a     39.839102
_cell_length_b     39.839752
_cell_length_c     80.23912
_cell_angle_alpha  89.936964
_cell_angle_beta   90.064751
_cell_angle_gamma 120.01897
loop_
_atom_site_label
_atom_site_type_symbol
_atom_site_fract_x
_atom_site_fract_y
_atom_site_fract_z
_atom_type_partial_charge
Li0 Li 0.02804 0.02137 0.02767 0.0
Li1 Li 0.9853 0.01744 0.04901 0.0
Li2 Li 0.00216 0.96789 0.0483 0.0
Li3 Li 0.95792 0.97147 0.02688 0.0
C4 C 0.07435 0.03098 0.05529 0.0
N5 N 0.14834 0.04434 0.06136 0.0
C6 C 0.09787 0.05844 0.06714 0.0
C7 C 0.08845 0.01027 0.04655 0.0
C8 C 0.1352 0.06479 0.07002 0.0
C9 C 0.12593 0.01744 0.0498 0.0
C10 C 0.99519 0.06685 0.02226 0.0
C11 C 0.99221 0.11725 0.0068 0.0
N12 N 0.0221 0.14444 0.01604 0.0
C13 C 0.0259 0.0953 0.0316 0.0
C14 C 0.9782 0.07787 0.00975 0.0
C15 C 0.03907 0.13436 0.02827 0.0
C16 C 0.06275 0.04929 0.99671 0.0
N17 N 0.0697 0.05461 0.01336 0.0
C18 C 0.13198 0.11016 0.00846 0.0
C19 C 0.10342 0.0844 0.01938 0.0
C20 C 0.12535 0.10568 0.99121 0.0
C21 C 0.0903 0.07468 0.98534 0.0
H22 H 0.03537 0.02574 0.9923 0.0
H23 H 0.1078 0.08904 0.03263 0.0
C24 C 0.99276 0.05744 0.07879 0.0
N25 N 0.97448 0.04806 0.0638 0.0
C26 C 0.98662 0.08069 0.08992 0.0
C27 C 0.94301 0.08425 0.06992 0.0
C28 C 0.94976 0.06064 0.05923 0.0
C29 C 0.96168 0.09464 0.08548 0.0
H30 H 0.01226 0.04696 0.08204 0.0
H31 H 0.93543 0.05245 0.04725 0.0
C32 C 0.00633 0.93918 0.01353 0.0
N33 N 0.01048 0.88595 0.99286 0.0
C34 C 0.97411 0.90218 0.01152 0.0
C35 C 0.0406 0.94918 0.00496 0.0
C36 C 0.9768 0.87566 0.00104 0.0
C37 C 0.04215 0.92184 0.99459 0.0
C38 C 0.92705 0.96009 0.06373 0.0
C39 C 0.93743 0.95826 0.08021 0.0
C40 C 0.89425 0.96317 0.06043 0.0
C41 C 0.9149 0.9599 0.09317 0.0
C42 C 0.87248 0.96472 0.07373 0.0
N43 N 0.88318 0.96311 0.08969 0.0
C44 C 0.03096 0.94486 0.07562 0.0
C45 C 0.99665 0.89555 0.05563 0.0
C46 C 0.03695 0.91941 0.08545 0.0
N47 N 0.01141 0.9327 0.06094 0.0
C48 C 0.00167 0.869 0.06514 0.0
C49 C 0.02205 0.88086 0.08027 0.0
H50 H 0.04133 0.97416 0.07986 0.0
H51 H 0.98039 0.88629 0.04417 0.0
C52 C 0.91867 0.9499 0.99618 0.0
N53 N 0.91551 0.94125 0.01269 0.0
C54 C 0.88872 0.92638 0.98526 0.0
C55 C 0.85273 0.88597 0.00862 0.0
C56 C 0.88337 0.91025 0.01908 0.0
C57 C 0.85532 0.89368 0.99143 0.0
H58 H 0.94475 0.97472 0.99149 0.0
H59 H 0.88198 0.90384 0.03224 0.0
O60 O 0.03778 0.02469 0.0524 0.0
O61 O 0.9819 0.02836 0.02513 0.0
O62 O 0.00414 0.96587 0.0235 0.0
O63 O 0.94937 0.95966 0.05091 0.0
H64 H 0.08739 0.07474 0.074 0.0
H65 H 0.07072 0.98878 0.03743 0.0
H66 H 0.15373 0.08599 0.07914 0.0
H67 H 0.13718 0.0016 0.04313 0.0
H68 H 0.97934 0.12619 0.99716 0.0
H69 H 0.03949 0.08741 0.04131 0.0
H70 H 0.95448 0.05617 0.00238 0.0
H71 H 0.06281 0.15666 0.03539 0.0
H72 H 0.15837 0.13412 0.01345 0.0
H73 H 0.08419 0.07026 0.97212 0.0
H74 H 0.0019 0.08838 0.10172 0.0
H75 H 0.92329 0.0941 0.06612 0.0
H76 H 0.94738 0.8939 0.01809 0.0
H77 H 0.06577 0.97777 0.00628 0.0
H78 H 0.95212 0.84689 -0.00059 0.0
H79 H 0.06851 0.92917 0.9879 0.0
H80 H 0.96286 0.95605 0.08295 0.0
H81 H 0.88604 0.9649 0.04773 0.0
H82 H 0.9227 0.95877 0.10599 0.0
H83 H 0.84716 0.96737 0.07138 0.0
H84 H 0.05213 0.92951 0.0972 0.0
H85 H 0.98973 0.83953 0.06072 0.0
H86 H 0.89175 0.93362 0.97213 0.0
H87 H 0.82783 0.86078 0.01387 0.0
Li88 Li 0.98887 0.96331 0.35966 0.0
Li89 Li 0.02905 0.00798 0.38137 0.0
Li90 Li 0.96021 0.98859 0.37897 0.0
Li91 Li 0.00787 0.03221 0.35877 0.0
C92 C 0.97216 0.91804 0.38665 0.0
N93 N 0.95137 0.84112 0.39053 0.0
C94 C 0.99973 0.90817 0.39165 0.0
C95 C 0.93394 0.88883 0.3838 0.0
C96 C 0.98867 0.8691 0.3935 0.0
C97 C 0.92402 0.8501 0.38577 0.0
C98 C 0.06386 0.02871 0.34425 0.0
C99 C 0.11413 0.0877 0.33182 0.0
N100 N 0.10622 0.06978 0.31674 0.0
C101 C 0.05626 0.01086 0.32863 0.0
C102 C 0.09308 0.06742 0.34589 0.0
C103 C 0.07801 0.03211 0.31488 0.0
C104 C 0.95681 0.90459 0.33437 0.0
N105 N 0.98318 0.92073 0.34688 0.0
C106 C 0.01099 0.88158 0.34003 0.0
C107 C 0.00992 0.90982 0.34985 0.0
C108 C 0.98503 0.86513 0.32664 0.0
C109 C 0.9572 0.87653 0.32403 0.0
H110 H 0.93655 0.91459 0.332 0.0
H111 H 0.03128 0.92402 0.35955 0.0
C112 C 0.0594 0.0024 0.41219 0.0
N113 N 0.0694 0.01755 0.3966 0.0
C114 C 0.08781 0.0056 0.42331 0.0
C115 C 0.13639 0.04111 0.40231 0.0
C116 C 0.10697 0.03686 0.39153 0.0
C117 C 0.12683 0.02479 0.41833 0.0
H118 H 0.0292 0.98701 0.41582 0.0
H119 H 0.11402 0.04817 0.379 0.0
C120 C 0.91956 0.97724 0.35067 0.0
N121 N 0.84429 0.95971 0.34439 0.0
C122 C 0.91181 0.00645 0.34588 0.0
C123 C 0.88908 0.93907 0.35208 0.0
C124 C 0.87355 0.99701 0.34281 0.0
C125 C 0.85121 0.93081 0.34891 0.0
C126 C 0.02305 0.06142 0.39671 0.0
C127 C 0.00407 0.04994 0.41207 0.0
C128 C 0.06113 0.09242 0.39601 0.0
C129 C 0.02357 0.06967 0.4265 0.0
C130 C 0.07965 0.11134 0.41073 0.0
N131 N 0.06065 0.09968 0.42554 0.0
C132 C 0.89784 0.95354 0.4027 0.0
C133 C 0.90559 0.00851 0.38794 0.0
C134 C 0.86841 0.95299 0.41243 0.0
N135 N 0.91585 0.98127 0.39083 0.0
C136 C 0.87603 0.00865 0.39711 0.0
C137 C 0.85758 0.98126 0.40986 0.0
H138 H 0.90735 0.93289 0.40508 0.0
H139 H 0.92129 0.03098 0.37881 0.0
C140 C 0.00911 0.06742 0.32818 0.0
N141 N 0.01845 0.07455 0.34458 0.0
C142 C 0.01143 0.09671 0.31785 0.0
C143 C 0.03419 0.14045 0.34138 0.0
C144 C 0.03127 0.11025 0.35127 0.0
C145 C 0.02338 0.13366 0.3245 0.0
H146 H 0.99828 0.0385 0.3233 0.0
H147 H 0.03796 0.11495 0.3644 0.0
O148 O 0.98251 0.95611 0.38461 0.0
O149 O 0.04237 0.00865 0.35781 0.0
O150 O 0.9568 0.98595 0.35386 0.0
O151 O 0.00485 0.04182 0.3825 0.0
H152 H 0.02949 0.93039 0.39387 0.0
H153 H 0.91217 0.89598 0.38009 0.0
H154 H 0.00977 0.86103 0.39725 0.0
H155 H 0.89457 0.82719 0.38354 0.0
H156 H 0.13664 0.11775 0.33289 0.0
H157 H 0.03364 0.98102 0.32709 0.0
H158 H 0.09899 0.08187 0.35783 0.0
H159 H 0.07237 0.0187 0.30271 0.0
H160 H 0.03257 0.87339 0.34272 0.0
H161 H 0.93704 0.86518 0.31371 0.0
H162 H 0.07933 0.99294 0.43562 0.0
H163 H 0.16611 0.0558 0.39796 0.0
H164 H 0.935 0.03618 0.34477 0.0
H165 H 0.89459 0.91607 0.35559 0.0
H166 H 0.86711 0.01937 0.33921 0.0
H167 H 0.82733 0.90141 0.35002 0.0
H168 H 0.97473 0.02584 0.41287 0.0
H169 H 0.07643 0.10134 0.38427 0.0
H170 H 0.00928 0.06102 0.43848 0.0
H171 H 0.1092 0.1352 0.41039 0.0
H172 H 0.85553 0.9317 0.42228 0.0
H173 H 0.86838 0.03063 0.39444 0.0
H174 H 0.00219 0.08991 0.305 0.0
H175 H 0.044 0.16856 0.34699 0.0
Li176 Li 0.01897 0.97667 0.69266 0.0
Li177 Li 0.02478 0.02429 0.71371 0.0
Li178 Li 0.9744 0.95506 0.71488 0.0
Li179 Li 0.97049 0.99627 0.69277 0.0
C180 C 0.03524 0.95813 0.72947 0.0
N181 N 0.04057 0.91637 0.75587 0.0
C182 C 0.05143 0.97652 0.74459 0.0
C183 C 0.02233 0.9186 0.7277 0.0
C184 C 0.05375 0.9549 0.75781 0.0
C185 C 0.02508 0.89795 0.74121 0.0
C186 C 0.03548 0.06632 0.68432 0.0
C187 C 0.02674 0.12155 0.68795 0.0
N188 N 0.05254 0.14023 0.67546 0.0
C189 C 0.06186 0.08603 0.6715 0.0
C190 C 0.01771 0.08416 0.6926 0.0
C191 C 0.07012 0.1234 0.66722 0.0
C192 C 0.05598 0.98042 0.6625 0.0
N193 N 0.05033 0.96613 0.67826 0.0
C194 C 0.09604 0.94478 0.67404 0.0
C195 C 0.0693 0.94812 0.68411 0.0
C196 C 0.10337 0.9603 0.65785 0.0
C197 C 0.08236 0.97764 0.65199 0.0
H198 H 0.04088 0.99512 0.6583 0.0
H199 H 0.06464 0.93747 0.69676 0.0
C200 C 0.05332 0.07092 0.74266 0.0
N201 N 0.05995 0.0688 0.7262 0.0
C202 C 0.08106 0.10114 0.75242 0.0
C203 C 0.12086 0.12763 0.72787 0.0
C204 C 0.09283 0.09641 0.71871 0.0
C205 C 0.11577 0.1299 0.7451 0.0
H206 H 0.02721 0.04815 0.74837 0.0
H207 H 0.09787 0.09375 0.70568 0.0
C208 C 0.96064 0.92012 0.67808 0.0
N209 N 0.96157 0.87595 0.65174 0.0
C210 C 0.95686 0.9299 0.66173 0.0
C211 C 0.96448 0.88762 0.68104 0.0
C212 C 0.95749 0.90727 0.64858 0.0
C213 C 0.965 0.86573 0.66756 0.0
C214 C 0.94155 0.00393 0.72668 0.0
C215 C 0.90466 0.97139 0.72846 0.0
C216 C 0.95019 0.03853 0.73464 0.0
C217 C 0.87704 0.974 0.73822 0.0
C218 C 0.92176 0.04 0.74427 0.0
N219 N 0.88609 0.00796 0.74586 0.0
C220 C 0.94599 0.92102 0.74661 0.0
C221 C 0.91411 0.88061 0.72341 0.0
C222 C 0.91996 0.89268 0.75756 0.0
N223 N 0.9425 0.91452 0.72989 0.0
C224 C 0.88719 0.85171 0.73387 0.0
C225 C 0.88969 0.85779 0.75116 0.0
H226 H 0.96826 0.94867 0.75138 0.0
H227 H 0.91154 0.87655 0.71006 0.0
C228 C 0.949 0.02199 0.66396 0.0
N229 N 0.93675 0.0063 0.67936 0.0
C230 C 0.92424 0.0272 0.65331 0.0
C231 C 0.87482 0.00057 0.67461 0.0
C232 C 0.90047 0.99565 0.6848 0.0
C233 C 0.88648 0.01613 0.65856 0.0
H234 H 0.97771 0.02955 0.65975 0.0
H235 H 0.89097 0.98242 0.69687 0.0
O236 O 0.03235 0.97876 0.71643 0.0
O237 O 0.02712 0.02966 0.68858 0.0
O238 O 0.96111 0.94255 0.69109 0.0
O239 O 0.96939 0.0019 0.71746 0.0
H240 H 0.06221 0.00715 0.74613 0.0
H241 H 0.00986 0.90389 0.7161 0.0
H242 H 0.06606 0.96876 0.7696 0.0
H243 H 0.01485 0.86728 0.74005 0.0
H244 H 0.0132 0.1357 0.69425 0.0
H245 H 0.07582 0.07257 0.66496 0.0
H246 H 0.99712 0.06934 0.70248 0.0
H247 H 0.09051 0.13901 0.65734 0.0
H248 H 0.11139 0.93093 0.67899 0.0
H249 H 0.08751 0.99054 0.6397 0.0
H250 H 0.07588 0.10093 0.76567 0.0
H251 H 0.14657 0.14931 0.7215 0.0
H252 H 0.95388 0.95491 0.65919 0.0
H253 H 0.96716 0.87943 0.6936 0.0
H254 H 0.95485 0.91467 0.63586 0.0
H255 H 0.96817 0.84063 0.66967 0.0
H256 H 0.89721 0.94454 0.7222 0.0
H257 H 0.97853 0.06406 0.73336 0.0
H258 H 0.84837 0.94905 0.73967 0.0
H259 H 0.92807 0.0666 0.7505 0.0
H260 H 0.92247 0.89864 0.7708 0.0
H261 H 0.86428 0.82514 0.72849 0.0
H262 H 0.93448 0.03953 0.64106 0.0
H263 H 0.84575 0.9911 0.67904 0.0
H264 H 0.97266 0.62606 0.21377 0.0
N265 N 0.04355 0.63616 0.20484 0.0
H266 H 0.96038 0.66162 0.23554 0.0
H267 H 0.09378 0.68505 0.22694 0.0
H268 H 0.08172 0.72056 0.24884 0.0
H269 H 0.10413 0.69657 0.19091 0.0
H270 H 0.10397 0.73531 0.16722 0.0
H271 H 0.98141 0.61916 0.18471 0.0
H272 H 0.98082 0.65801 0.16118 0.0
H273 H 0.00225 0.58267 0.22963 0.0
H274 H 0.04585 0.593 0.17936 0.0
H275 H 0.97663 0.51351 0.22868 0.0
H276 H 0.01959 0.52328 0.17853 0.0
H277 H 0.89714 0.28866 0.22415 0.0
H278 H 0.91441 0.26023 0.24727 0.0
H279 H 0.03241 0.35553 0.24515 0.0
H280 H 0.01511 0.38309 0.22181 0.0
H281 H 0.00862 0.34811 0.19489 0.0
H282 H 0.01076 0.30866 0.17235 0.0
H283 H 0.88948 0.26606 0.16217 0.0
H284 H 0.88801 0.3072 0.18453 0.0
H285 H 0.90584 0.38435 0.2162 0.0
H286 H 0.92671 0.45358 0.21519 0.0
H287 H 0.03389 0.47668 0.19187 0.0
N288 N 0.94436 0.34988 0.20598 0.0
H289 H 0.01289 0.40807 0.19274 0.0
C290 C 0.03429 0.65299 0.21878 0.0
C291 C 0.99651 0.64637 0.22147 0.0
C292 C 0.98949 0.66651 0.23397 0.0
C293 C 0.02015 0.694 0.2438 0.0
C294 C 0.05763 0.69983 0.24133 0.0
C295 C 0.06454 0.67944 0.22895 0.0
C296 C 0.04295 0.65515 0.18958 0.0
C297 C 0.0773 0.6877 0.18427 0.0
C298 C 0.07706 0.7099 0.17084 0.0
C299 C 0.04231 0.69987 0.16244 0.0
C300 C 0.00808 0.66631 0.16734 0.0
C301 C 0.00832 0.64421 0.18085 0.0
C302 C 0.02446 0.59398 0.20414 0.0
C303 C 0.00532 0.57046 0.2181 0.0
C304 C 0.99065 0.53045 0.21765 0.0
C305 C 0.99557 0.51279 0.20346 0.0
C306 C 0.01519 0.53599 0.18965 0.0
C307 C 0.02978 0.57598 0.19006 0.0
C308 C 0.95456 0.33792 0.22124 0.0
C309 C 0.92651 0.30376 0.22894 0.0
C310 C 0.93647 0.28765 0.24217 0.0
C311 C 0.97489 0.30551 0.24802 0.0
C312 C 0.00269 0.34076 0.24078 0.0
C313 C 0.9927 0.35679 0.2275 0.0
C314 C 0.94802 0.33085 0.19137 0.0
C315 C 0.98267 0.33118 0.18759 0.0
C316 C 0.98375 0.30811 0.17479 0.0
C317 C 0.95016 0.28376 0.1656 0.0
C318 C 0.91596 0.28468 0.16892 0.0
C319 C 0.915 0.30807 0.18169 0.0
C320 C 0.95742 0.39071 0.20449 0.0
C321 C 0.93369 0.40442 0.21076 0.0
C322 C 0.94574 0.44392 0.21025 0.0
C323 C 0.98192 0.4706 0.20341 0.0
C324 C 0.00558 0.45682 0.19698 0.0
C325 C 0.99356 0.41734 0.19753 0.0
H326 H 0.72196 0.11121 0.54744 0.0
N327 N 0.65423 0.0598 0.53448 0.0
H328 H 0.75564 0.10228 0.57107 0.0
H329 H 0.62522 0.99603 0.5547 0.0
H330 H 0.65876 0.98662 0.57836 0.0
H331 H 0.63144 0.98482 0.52592 0.0
H332 H 0.65491 0.96396 0.50218 0.0
H333 H 0.69984 0.10367 0.51005 0.0
H334 H 0.7242 0.08339 0.48646 0.0
H335 H 0.63017 0.09067 0.5578 0.0
H336 H 0.58937 0.01581 0.51461 0.0
H337 H 0.56724 0.08619 0.56027 0.0
H338 H 0.52745 0.01291 0.51665 0.0
H339 H 0.38261 0.09822 0.55906 0.0
H340 H 0.33644 0.07635 0.58217 0.0
H341 H 0.32069 0.96126 0.57766 0.0
H342 H 0.36672 0.98336 0.55456 0.0
H343 H 0.34657 0.98636 0.5266 0.0
H344 H 0.30392 0.9782 0.50322 0.0
H345 H 0.36398 0.1023 0.49605 0.0
H346 H 0.40667 0.11022 0.51956 0.0
H347 H 0.47181 0.11238 0.54692 0.0
H348 H 0.53227 0.11083 0.5461 0.0
H349 H 0.46837 0.99 0.53182 0.0
N350 N 0.40114 0.05555 0.54014 0.0
H351 H 0.40838 0.99256 0.53194 0.0
C352 C 0.6714 0.05433 0.5493 0.0
C353 C 0.7079 0.08417 0.55431 0.0
C354 C 0.72694 0.07904 0.56782 0.0
C355 C 0.70985 0.04371 0.57655 0.0
C356 C 0.67279 0.014 0.57175 0.0
C357 C 0.65361 0.01931 0.55827 0.0
C358 C 0.664 0.04594 0.5197 0.0
C359 C 0.65139 0.0064 0.51726 0.0
C360 C 0.66494 0.99455 0.5037 0.0
C361 C 0.69154 0.02198 0.49241 0.0
C362 C 0.70324 0.06136 0.49471 0.0
C363 C 0.68954 0.07311 0.50821 0.0
C364 C 0.61509 0.05312 0.53629 0.0
C365 C 0.60766 0.07284 0.54898 0.0
C366 C 0.57171 0.07067 0.55024 0.0
C367 C 0.54225 0.04941 0.53857 0.0
C368 C 0.54923 0.02909 0.52601 0.0
C369 C 0.58514 0.0309 0.52484 0.0
C370 C 0.37808 0.0426 0.55507 0.0
C371 C 0.36973 0.0685 0.56331 0.0
C372 C 0.34345 0.05594 0.57652 0.0
C373 C 0.32481 0.01701 0.5817 0.0
C374 C 0.33428 0.99132 0.57382 0.0
C375 C 0.36078 0.00401 0.56064 0.0
C376 C 0.37974 0.0491 0.52488 0.0
C377 C 0.35113 0.01179 0.51985 0.0
C378 C 0.32657 0.00715 0.50652 0.0
C379 C 0.33039 0.03964 0.49792 0.0
C380 C 0.3605 0.0767 0.50237 0.0
C381 C 0.38484 0.08131 0.51578 0.0
C382 C 0.43572 0.05273 0.53961 0.0
C383 C 0.47101 0.08562 0.54362 0.0
C384 C 0.50543 0.0845 0.54329 0.0
C385 C 0.50525 0.05013 0.53906 0.0
C386 C 0.46967 0.01703 0.53501 0.0
C387 C 0.4352 0.01833 0.53522 0.0
H388 H 0.60327 0.70965 0.87762 0.0
N389 N 0.59183 0.64043 0.86908 0.0
H390 H 0.64076 0.74944 0.90128 0.0
H391 H 0.61668 0.61523 0.89602 0.0
H392 H 0.653 0.6542 0.91974 0.0
H393 H 0.66253 0.64415 0.86987 0.0
H394 H 0.71298 0.67289 0.84865 0.0
H395 H 0.58613 0.66484 0.83893 0.0
H396 H 0.63665 0.6934 0.81746 0.0
H397 H 0.51541 0.60871 0.86771 0.0
H398 H 0.60586 0.57966 0.87092 0.0
H399 H 0.4666 0.53984 0.86725 0.0
H400 H 0.55763 0.51113 0.87162 0.0
H401 H 0.32589 0.35166 0.87618 0.0
H402 H 0.28202 0.31431 0.89879 0.0
H403 H 0.36653 0.28575 0.91726 0.0
H404 H 0.41036 0.32302 0.89438 0.0
H405 H 0.37803 0.28936 0.85495 0.0
H406 H 0.33521 0.25772 0.83136 0.0
H407 H 0.3227 0.35861 0.82427 0.0
H408 H 0.36372 0.38888 0.84856 0.0
H409 H 0.3864 0.41509 0.88245 0.0
H410 H 0.43471 0.48352 0.88307 0.0
H411 H 0.51359 0.45977 0.85534 0.0
N412 N 0.39527 0.35631 0.86891 0.0
H413 H 0.46575 0.39073 0.85581 0.0
C414 C 0.60705 0.6595 0.88487 0.0
C415 C 0.61326 0.69711 0.88701 0.0
C416 C 0.63465 0.71976 0.90056 0.0
C417 C 0.65029 0.70514 0.9123 0.0
C418 C 0.64196 0.66657 0.91074 0.0
C419 C 0.62072 0.64401 0.89716 0.0
C420 C 0.62053 0.65275 0.85604 0.0
C421 C 0.65634 0.65438 0.85844 0.0
C422 C 0.68527 0.67094 0.84632 0.0
C423 C 0.67881 0.68562 0.83149 0.0
C424 C 0.64233 0.68211 0.82874 0.0
C425 C 0.61354 0.66594 0.84096 0.0
C426 C 0.56415 0.59946 0.8695 0.0
C427 C 0.52463 0.5874 0.86857 0.0
C428 C 0.49681 0.54798 0.86844 0.0
C429 C 0.50797 0.51961 0.86946 0.0
C430 C 0.54778 0.53191 0.87051 0.0
C431 C 0.57556 0.57132 0.87033 0.0
C432 C 0.37137 0.33975 0.88351 0.0
C433 C 0.33526 0.33782 0.88518 0.0
C434 C 0.31014 0.31636 0.89808 0.0
C435 C 0.32073 0.29681 0.90965 0.0
C436 C 0.35771 0.30066 0.90855 0.0
C437 C 0.38271 0.32185 0.89552 0.0
C438 C 0.37441 0.34146 0.85346 0.0
C439 C 0.36647 0.30479 0.84811 0.0
C440 C 0.34208 0.28688 0.83454 0.0
C441 C 0.32535 0.30554 0.8258 0.0
C442 C 0.33449 0.34304 0.83082 0.0
C443 C 0.35846 0.3607 0.84461 0.0
C444 C 0.42272 0.39742 0.86932 0.0
C445 C 0.41418 0.42434 0.87669 0.0
C446 C 0.44186 0.46382 0.87685 0.0
C447 C 0.47836 0.47748 0.86932 0.0
C448 C 0.48632 0.45047 0.86164 0.0
C449 C 0.4589 0.41097 0.86176 0.0
H450 H 0.96139 0.16129 0.07767 0.0
H451 H 0.94932 0.08664 0.11904 0.0
H452 H 0.95663 0.20637 0.09678 0.0
H453 H 0.94396 0.13128 0.13813 0.0
H454 H 0.98552 0.24057 0.16885 0.0
H455 H 0.98627 0.19469 0.14921 0.0
H456 H 0.91391 0.21545 0.11549 0.0
H457 H 0.91471 0.26305 0.13493 0.0
C458 C 0.9571 0.15425 0.09083 0.0
C459 C 0.95602 0.12061 0.0969 0.0
C460 C 0.95432 0.18003 0.10177 0.0
C461 C 0.95025 0.17261 0.119 0.0
C462 C 0.94794 0.13831 0.12497 0.0
C463 C 0.95093 0.11268 0.11405 0.0
C464 C 0.97022 0.23585 0.15715 0.0
C465 C 0.95033 0.25578 0.15341 0.0
C466 C 0.97013 0.20902 0.14599 0.0
C467 C 0.94994 0.20116 0.13082 0.0
C468 C 0.93 0.22105 0.12703 0.0
C469 C 0.93015 0.24805 0.13822 0.0
H470 H 0.79133 0.92198 0.42409 0.0
H471 H 0.85995 0.04701 0.42132 0.0
H472 H 0.74636 0.92771 0.44308 0.0
H473 H 0.81453 0.05239 0.43965 0.0
H474 H 0.70834 0.04977 0.46044 0.0
H475 H 0.7447 0.03669 0.43953 0.0
H476 H 0.75022 0.95408 0.47261 0.0
H477 H 0.71464 0.96772 0.49374 0.0
C478 C 0.79685 0.95061 0.42746 0.0
C479 C 0.82918 0.98401 0.42102 0.0
C480 C 0.771 0.95384 0.43827 0.0
C481 C 0.77675 0.99048 0.44267 0.0
C482 C 0.80888 0.02375 0.43618 0.0
C483 C 0.83486 0.02059 0.4256 0.0
C484 C 0.71721 0.02876 0.46327 0.0
C485 C 0.70898 0.01019 0.47886 0.0
C486 C 0.7379 0.02118 0.45126 0.0
C487 C 0.75054 0.99463 0.45452 0.0
C488 C 0.74056 0.97447 0.46973 0.0
C489 C 0.7201 0.98227 0.48181 0.0
H490 H 0.81148 0.82229 0.7472 0.0
H491 H 0.89975 0.82884 0.78046 0.0
H492 H 0.76137 0.77813 0.7663 0.0
H493 H 0.84962 0.78341 0.79943 0.0
H494 H 0.75254 0.74245 0.83827 0.0
H495 H 0.80391 0.7814 0.81858 0.0
H496 H 0.72882 0.71531 0.77779 0.0
H497 H 0.67697 0.67732 0.79761 0.0
C498 C 0.82009 0.81363 0.75848 0.0
C499 C 0.85946 0.82897 0.76237 0.0
C500 C 0.79136 0.78816 0.76943 0.0
C501 C 0.80131 0.77707 0.78446 0.0
C502 C 0.84082 0.7918 0.78813 0.0
C503 C 0.86958 0.81769 0.77726 0.0
C504 C 0.74724 0.73597 0.8251 0.0
C505 C 0.71079 0.70692 0.81945 0.0
C506 C 0.77674 0.75821 0.81378 0.0
C507 C 0.77063 0.75165 0.79653 0.0
C508 C 0.73439 0.72174 0.79094 0.0
C509 C 0.70471 0.69981 0.80228 0.0
H510 H 0.96709 0.80666 0.08823 0.0
H511 H 0.08727 0.89217 0.09646 0.0
H512 H 0.97342 0.76223 0.10715 0.0
H513 H 0.09395 0.84754 0.11514 0.0
H514 H 0.07691 0.77861 0.16314 0.0
H515 H 0.07329 0.82121 0.14239 0.0
H516 H 0.002 0.72217 0.11121 0.0
H517 H 0.00517 0.6794 0.13223 0.0
C518 C 0.99504 0.81569 0.09388 0.0
C519 C 0.02663 0.85296 0.09093 0.0
C520 C 0.99872 0.7902 0.1047 0.0
C521 C 0.03416 0.80133 0.11275 0.0
C522 C 0.06603 0.83827 0.10942 0.0
C523 C 0.06226 0.86384 0.09869 0.0
C524 C 0.06091 0.76597 0.15175 0.0
C525 C 0.04141 0.72566 0.14929 0.0
C526 C 0.05887 0.79041 0.13982 0.0
C527 C 0.03743 0.77518 0.12508 0.0
C528 C 0.01832 0.73484 0.12252 0.0
C529 C 0.02019 0.71033 0.13453 0.0
H530 H 0.12451 0.96567 0.43633 0.0
H531 H 0.19774 0.08738 0.42543 0.0
H532 H 0.17441 0.96769 0.45457 0.0
H533 H 0.24743 0.08989 0.44406 0.0
H534 H 0.34291 0.07434 0.46728 0.0
H535 H 0.29428 0.0698 0.44742 0.0
H536 H 0.20338 0.9919 0.48084 0.0
H537 H 0.25191 0.99574 0.50036 0.0
C538 C 0.15118 0.99298 0.43801 0.0
C539 C 0.15719 0.02642 0.42955 0.0
C540 C 0.17979 0.99419 0.44847 0.0
C541 C 0.21498 0.02899 0.45086 0.0
C542 C 0.22099 0.06244 0.44232 0.0
C543 C 0.19248 0.0611 0.43171 0.0
C544 C 0.3125 0.05611 0.47028 0.0
C545 C 0.3012 0.03524 0.48531 0.0
C546 C 0.28461 0.05365 0.45897 0.0
C547 C 0.24482 0.03054 0.46252 0.0
C548 C 0.23367 0.0094 0.47751 0.0
C549 C 0.26151 0.0116 0.48873 0.0
H550 H 0.10917 0.16534 0.77342 0.0
H551 H 0.19457 0.16413 0.74056 0.0
H552 H 0.16062 0.20997 0.79175 0.0
H553 H 0.24589 0.21168 0.75793 0.0
H554 H 0.32589 0.25485 0.80278 0.0
H555 H 0.27583 0.21532 0.78293 0.0
H556 H 0.21159 0.27212 0.79676 0.0
H557 H 0.26001 0.30908 0.81778 0.0
C558 C 0.13885 0.17478 0.76997 0.0
C559 C 0.14736 0.16053 0.7555 0.0
C560 C 0.16856 0.20109 0.78038 0.0
C561 C 0.20769 0.21449 0.77646 0.0
C562 C 0.21621 0.2015 0.76162 0.0
C563 C 0.18653 0.17462 0.75141 0.0
C564 C 0.30093 0.2587 0.80175 0.0
C565 C 0.29696 0.28492 0.81213 0.0
C566 C 0.27237 0.23641 0.79008 0.0
C567 C 0.23931 0.24024 0.78817 0.0
C568 C 0.23615 0.2677 0.79805 0.0
C569 C 0.26442 0.28951 0.80995 0.0
H570 H 0.87416 0.99701 0.62559 0.0
H571 H 0.83639 0.04236 0.66576 0.0
H572 H 0.82898 0.00226 0.60672 0.0
H573 H 0.79049 0.04685 0.64691 0.0
H574 H 0.75192 0.0934 0.60171 0.0
H575 H 0.79309 0.08568 0.62212 0.0
H576 H 0.75814 0.9721 0.60228 0.0
H577 H 0.71764 0.98017 0.58164 0.0
C578 C 0.85628 0.00822 0.63037 0.0
C579 C 0.85896 0.01946 0.64714 0.0
C580 C 0.83007 0.01077 0.61962 0.0
C581 C 0.80607 0.02481 0.62535 0.0
C582 C 0.80876 0.03612 0.64212 0.0
C583 C 0.83482 0.0333 0.65292 0.0
C584 C 0.75295 0.06674 0.60176 0.0
C585 C 0.7317 0.03747 0.59002 0.0
C586 C 0.77626 0.06219 0.61353 0.0
C587 C 0.77902 0.02839 0.61373 0.0
C588 C 0.75694 0.99867 0.60229 0.0
C589 C 0.73343 0.00311 0.5906 0.0
H590 H 0.86346 0.8685 0.96087 0.0
H591 H 0.77664 0.85779 0.99608 0.0
H592 H 0.81268 0.82301 0.94232 0.0
H593 H 0.72573 0.81104 0.97773 0.0
H594 H 0.64624 0.76041 0.93128 0.0
H595 H 0.69521 0.80661 0.9505 0.0
H596 H 0.7657 0.75406 0.94171 0.0
H597 H 0.71773 0.70907 0.92212 0.0
C598 C 0.83351 0.85663 0.96461 0.0
C599 C 0.82412 0.86682 0.97995 0.0
C600 C 0.80441 0.83014 0.95407 0.0
C601 C 0.76517 0.81315 0.95862 0.0
C602 C 0.75567 0.82377 0.97384 0.0
C603 C 0.78485 0.85026 0.98441 0.0
C604 C 0.67221 0.75878 0.93347 0.0
C605 C 0.67804 0.73104 0.92516 0.0
C606 C 0.7001 0.78502 0.94457 0.0
C607 C 0.73447 0.78418 0.94753 0.0
C608 C 0.73982 0.75586 0.93951 0.0
C609 C 0.712 0.72967 0.92846 0.0
H610 H 0.92714 0.80095 0.3107 0.0
H611 H 0.05177 0.86885 0.31571 0.0
H612 H 0.93444 0.75925 0.29051 0.0
H613 H 0.05885 0.82595 0.29653 0.0
H614 H 0.06292 0.77208 0.24784 0.0
H615 H 0.05292 0.81226 0.26771 0.0
H616 H 0.95272 0.71039 0.28741 0.0
H617 H 0.96234 0.67025 0.26707 0.0
C618 C 0.95605 0.8069 0.30758 0.0
C619 C 0.98883 0.8383 0.31489 0.0
C620 C 0.96022 0.78269 0.29616 0.0
C621 C 0.99725 0.78929 0.29182 0.0
C622 C 0.0299 0.82032 0.29934 0.0
C623 C 0.02577 0.84462 0.3106 0.0
C624 C 0.03892 0.75825 0.25649 0.0
C625 C 0.01363 0.71802 0.25602 0.0
C626 C 0.03319 0.78125 0.26792 0.0
C627 C 0.00223 0.76457 0.27931 0.0
C628 C 0.97662 0.72427 0.27872 0.0
C629 C 0.98218 0.70125 0.26713 0.0
H630 H 0.10249 0.94652 0.62438 0.0
H631 H 0.17555 0.97689 0.66803 0.0
H632 H 0.15671 0.95573 0.60704 0.0
H633 H 0.22936 0.98483 0.65077 0.0
H634 H 0.32482 0.05208 0.61097 0.0
H635 H 0.27076 0.03309 0.63011 0.0
H636 H 0.20049 0.9309 0.60048 0.0
H637 H 0.25425 0.95055 0.58105 0.0
C638 C 0.12999 0.9547 0.63029 0.0
C639 C 0.13477 0.96121 0.64756 0.0
C640 C 0.16095 0.95957 0.62038 0.0
C641 C 0.19739 0.97118 0.62753 0.0
C642 C 0.20176 0.97628 0.64488 0.0
C643 C 0.17078 0.9713 0.65479 0.0
C644 C 0.2979 0.02545 0.60861 0.0
C645 C 0.29372 0.00296 0.59445 0.0
C646 C 0.26704 0.01435 0.61966 0.0
C647 C 0.23127 0.98055 0.61677 0.0
C648 C 0.22756 0.9573 0.60294 0.0
C649 C 0.25849 0.96834 0.59192 0.0
H650 H 0.20346 0.13357 0.99061 0.0
H651 H 0.11229 0.14227 0.96548 0.0
H652 H 0.25089 0.18034 0.97115 0.0
H653 H 0.15959 0.19004 0.9464 0.0
H654 H 0.24588 0.24156 0.90399 0.0
H655 H 0.19925 0.19564 0.92374 0.0
H656 H 0.28438 0.24641 0.96313 0.0
H657 H 0.33151 0.29154 0.94306 0.0
C658 C 0.19369 0.1458 0.98099 0.0
C659 C 0.15422 0.13413 0.97945 0.0
C660 C 0.22085 0.17278 0.96989 0.0
C661 C 0.20916 0.18903 0.95714 0.0
C662 C 0.16962 0.17759 0.9558 0.0
C663 C 0.14247 0.15028 0.96676 0.0
C664 C 0.25447 0.2431 0.91691 0.0
C665 C 0.29221 0.27023 0.92203 0.0
C666 C 0.22771 0.21683 0.92827 0.0
C667 C 0.23787 0.21731 0.9451 0.0
C668 C 0.27566 0.24474 0.95023 0.0
C669 C 0.30263 0.27076 0.93878 0.0
H670 H 0.99952 0.18437 0.334 0.0
H671 H 0.04311 0.15111 0.29159 0.0
H672 H 0.9925 0.23072 0.31673 0.0
H673 H 0.03419 0.19606 0.27412 0.0
H674 H 0.04062 0.29994 0.24881 0.0
H675 H 0.05684 0.26332 0.26831 0.0
H676 H 0.94994 0.22792 0.29488 0.0
H677 H 0.93468 0.2661 0.27588 0.0
C678 C 0.00806 0.18724 0.32104 0.0
C679 C 0.02184 0.16392 0.31419 0.0
C680 C 0.00351 0.21347 0.31108 0.0
C681 C 0.01249 0.21695 0.294 0.0
C682 C 0.02732 0.19443 0.28725 0.0
C683 C 0.03199 0.16828 0.29723 0.0
C684 C 0.021 0.2851 0.25904 0.0
C685 C 0.98627 0.28591 0.26075 0.0
C686 C 0.03006 0.26365 0.27009 0.0
C687 C 0.00458 0.24241 0.28309 0.0
C688 C 0.97044 0.2442 0.28511 0.0
C689 C 0.96143 0.26574 0.27409 0.0
loop_
_geom_bond_atom_site_label_1
_geom_bond_atom_site_label_2
_geom_bond_distance
_geom_bond_site_symmetry_2
_ccdc_geom_bond_type
Li0 N17 1.990 . S
Li0 O60 1.956 . S
Li0 O61 1.970 1_455 S
Li0 O62 1.961 1_545 S
Li1 N25 1.990 . S
Li1 O60 1.970 1_655 S
Li1 O61 1.956 . S
Li1 O63 1.961 1_545 S
Li2 N47 1.990 . S
Li2 O60 1.961 1_565 S
Li2 O62 1.956 . S
Li2 O63 1.970 1_455 S
Li3 N53 1.990 . S
Li3 O61 1.961 1_565 S
Li3 O62 1.970 1_655 S
Li3 O63 1.956 . S
C4 C6 1.348 . S
C4 C7 1.356 . S
C4 O60 1.325 . S
N5 C8 1.314 . S
N5 C9 1.279 . S
C6 C4 1.348 . S
C6 C8 1.353 . S
C6 H64 0.929 . S
C7 C4 1.356 . S
C7 C9 1.358 . S
C7 H65 0.930 . S
C8 N5 1.314 . S
C8 C6 1.353 . S
C8 H66 0.930 . S
C9 N5 1.279 . S
C9 C7 1.358 . S
C9 H67 0.930 . S
C10 C13 1.348 1_655 S
C10 C14 1.356 . S
C10 O61 1.325 . S
C11 N12 1.279 1_554 S
C11 C14 1.358 . S
C11 H68 0.930 . S
N12 C11 1.279 1_556 S
N12 C15 1.322 . S
C13 C10 1.348 1_455 S
C13 C15 1.328 1_454 S
C13 H69 0.929 . S
C14 C10 1.356 . S
C14 C11 1.358 . S
C14 H70 0.930 . S
C15 N12 1.322 . S
C15 C13 1.328 1_656 S
C15 H71 0.952 1_655 S
C16 N17 1.314 1_556 S
C16 C21 1.353 . S
C16 H22 0.930 . S
N17 Li0 1.990 . S
N17 C16 1.314 1_554 S
N17 C19 1.279 . S
C18 C19 1.358 . S
C18 C20 1.356 1_554 S
C18 H72 0.930 . S
C19 N17 1.279 . S
C19 C18 1.358 . S
C19 H23 0.930 . S
C20 C18 1.356 1_556 S
C20 C21 1.348 . S
C21 C16 1.353 . S
C21 C20 1.348 . S
C21 H73 0.929 . S
H22 C16 0.930 . S
H23 C19 0.930 . S
C24 N25 1.314 . S
C24 C26 1.353 . S
C24 H30 0.930 . S
N25 Li1 1.990 . S
N25 C24 1.314 . S
N25 C28 1.279 . S
C26 C24 1.353 . S
C26 C29 1.348 . S
C26 H74 0.929 . S
C27 C28 1.358 . S
C27 C29 1.356 . S
C27 H75 0.930 . S
C28 N25 1.279 . S
C28 C27 1.358 . S
C28 H31 0.930 . S
C29 C26 1.348 . S
C29 C27 1.356 . S
H30 C24 0.930 . S
H31 C28 0.930 . S
C32 C34 1.348 1_455 S
C32 C35 1.356 . S
C32 O62 1.325 . S
N33 C36 1.322 . S
N33 C37 1.279 1_556 S
C34 C32 1.348 1_655 S
C34 C36 1.328 1_654 S
C34 H76 0.929 . S
C35 C32 1.356 . S
C35 C37 1.358 . S
C35 H77 0.930 . S
C36 N33 1.322 . S
C36 C34 1.328 1_456 S
C36 H78 0.952 1_455 S
C37 N33 1.279 1_554 S
C37 C35 1.358 . S
C37 H79 0.930 . S
C38 C39 1.348 . S
C38 C40 1.356 . S
C38 O63 1.325 . S
C39 C38 1.348 . S
C39 C41 1.353 . S
C39 H80 0.929 . S
C40 C38 1.356 . S
C40 C42 1.358 . S
C40 H81 0.930 . S
C41 C39 1.353 . S
C41 N43 1.314 . S
C41 H82 0.930 . S
C42 C40 1.358 . S
C42 N43 1.279 . S
C42 H83 0.930 . S
N43 C41 1.314 . S
N43 C42 1.279 . S
C44 C46 1.353 . S
C44 N47 1.314 . S
C44 H50 0.930 . S
C45 N47 1.279 . S
C45 C48 1.358 . S
C45 H51 0.930 . S
C46 C44 1.353 . S
C46 C49 1.348 . S
C46 H84 0.929 . S
N47 Li2 1.990 . S
N47 C44 1.314 . S
N47 C45 1.279 . S
C48 C45 1.358 . S
C48 C49 1.356 . S
C48 H85 0.930 . S
C49 C46 1.348 . S
C49 C48 1.356 . S
H50 C44 0.930 . S
H51 C45 0.930 . S
C52 N53 1.314 1_556 S
C52 C54 1.353 . S
C52 H58 0.930 . S
N53 Li3 1.990 . S
N53 C52 1.314 1_554 S
N53 C56 1.279 . S
C54 C52 1.353 . S
C54 C57 1.348 . S
C54 H86 0.929 . S
C55 C56 1.358 . S
C55 C57 1.356 1_554 S
C55 H87 0.930 . S
C56 N53 1.279 . S
C56 C55 1.358 . S
C56 H59 0.930 . S
C57 C54 1.348 . S
C57 C55 1.356 1_556 S
H58 C52 0.930 . S
H59 C56 0.930 . S
O60 Li0 1.956 . S
O60 Li1 1.970 1_455 S
O60 Li2 1.961 1_545 S
O60 C4 1.325 . S
O61 Li0 1.970 1_655 S
O61 Li1 1.956 . S
O61 Li3 1.961 1_545 S
O61 C10 1.325 . S
O62 Li0 1.961 1_565 S
O62 Li2 1.956 . S
O62 Li3 1.970 1_455 S
O62 C32 1.325 . S
O63 Li1 1.961 1_565 S
O63 Li2 1.970 1_655 S
O63 Li3 1.956 . S
O63 C38 1.325 . S
H64 C6 0.929 . S
H65 C7 0.930 . S
H66 C8 0.930 . S
H67 C9 0.930 . S
H68 C11 0.930 . S
H69 C13 0.929 . S
H70 C14 0.930 . S
H71 C15 0.952 1_455 S
H72 C18 0.930 . S
H73 C21 0.929 . S
H74 C26 0.929 . S
H75 C27 0.930 . S
H76 C34 0.929 . S
H77 C35 0.930 . S
H78 C36 0.952 1_655 S
H79 C37 0.930 . S
H80 C39 0.929 . S
H81 C40 0.930 . S
H82 C41 0.930 . S
H83 C42 0.930 . S
H84 C46 0.929 . S
H85 C48 0.930 . S
H86 C54 0.929 . S
H87 C55 0.930 . S
Li88 N105 1.990 . S
Li88 O148 1.956 . S
Li88 O149 1.970 1_665 S
Li88 O150 1.961 . S
Li89 N113 1.990 . S
Li89 O148 1.970 1_445 S
Li89 O149 1.956 . S
Li89 O151 1.961 . S
Li90 N135 1.990 . S
Li90 O148 1.961 . S
Li90 O150 1.956 . S
Li90 O151 1.970 1_665 S
Li91 N141 1.990 . S
Li91 O149 1.961 . S
Li91 O150 1.970 1_445 S
Li91 O151 1.956 . S
C92 C94 1.348 1_655 S
C92 C95 1.356 . S
C92 O148 1.325 . S
N93 C96 1.314 . S
N93 C97 1.279 . S
C94 C92 1.348 1_455 S
C94 C96 1.353 1_455 S
C94 H152 0.929 . S
C95 C92 1.356 . S
C95 C97 1.358 . S
C95 H153 0.930 . S
C96 N93 1.314 . S
C96 C94 1.353 1_655 S
C96 H154 0.930 1_655 S
C97 N93 1.279 . S
C97 C95 1.358 . S
C97 H155 0.930 . S
C98 C101 1.348 1_545 S
C98 C102 1.356 . S
C98 O149 1.325 . S
C99 N100 1.279 . S
C99 C102 1.358 . S
C99 H156 0.930 . S
N100 C99 1.279 . S
N100 C103 1.314 . S
C101 C98 1.348 1_565 S
C101 C103 1.353 1_565 S
C101 H157 0.929 . S
C102 C98 1.356 . S
C102 C99 1.358 . S
C102 H158 0.930 . S
C103 N100 1.314 . S
C103 C101 1.353 1_545 S
C103 H159 0.930 1_545 S
C104 N105 1.314 . S
C104 C109 1.353 . S
C104 H110 0.930 . S
N105 Li88 1.990 . S
N105 C104 1.314 . S
N105 C107 1.279 . S
C106 C107 1.358 . S
C106 C108 1.356 . S
C106 H160 0.930 . S
C107 N105 1.279 . S
C107 C106 1.358 . S
C107 H111 0.930 . S
C108 C106 1.356 . S
C108 C109 1.348 . S
C109 C104 1.353 . S
C109 C108 1.348 . S
C109 H161 0.929 . S
H110 C104 0.930 . S
H111 C107 0.930 . S
C112 N113 1.314 . S
C112 C114 1.353 . S
C112 H118 0.930 . S
N113 Li89 1.990 . S
N113 C112 1.314 . S
N113 C116 1.279 . S
C114 C112 1.353 . S
C114 C117 1.348 . S
C114 H162 0.929 . S
C115 C116 1.358 . S
C115 C117 1.356 . S
C115 H163 0.930 . S
C116 N113 1.279 . S
C116 C115 1.358 . S
C116 H119 0.930 . S
C117 C114 1.348 . S
C117 C115 1.356 . S
H118 C112 0.930 . S
H119 C116 0.930 . S
C120 C122 1.348 1_565 S
C120 C123 1.356 . S
C120 O150 1.325 . S
N121 C124 1.314 . S
N121 C125 1.279 . S
C122 C120 1.348 1_545 S
C122 C124 1.353 1_545 S
C122 H164 0.929 . S
C123 C120 1.356 . S
C123 C125 1.358 . S
C123 H165 0.930 . S
C124 N121 1.314 . S
C124 C122 1.353 1_565 S
C124 H166 0.930 1_565 S
C125 N121 1.279 . S
C125 C123 1.358 . S
C125 H167 0.930 . S
C126 C127 1.348 1_455 S
C126 C128 1.356 . S
C126 O151 1.325 . S
C127 C126 1.348 1_655 S
C127 C129 1.353 1_655 S
C127 H168 0.929 . S
C128 C126 1.356 . S
C128 C130 1.358 . S
C128 H169 0.930 . S
C129 C127 1.353 1_455 S
C129 N131 1.314 . S
C129 H170 0.930 1_455 S
C130 C128 1.358 . S
C130 N131 1.279 . S
C130 H171 0.930 . S
N131 C129 1.314 . S
N131 C130 1.279 . S
C132 C134 1.353 . S
C132 N135 1.314 . S
C132 H138 0.930 . S
C133 N135 1.279 . S
C133 C136 1.358 . S
C133 H139 0.930 . S
C134 C132 1.353 . S
C134 C137 1.348 . S
C134 H172 0.929 . S
N135 Li90 1.990 . S
N135 C132 1.314 . S
N135 C133 1.279 . S
C136 C133 1.358 . S
C136 C137 1.356 . S
C136 H173 0.930 . S
C137 C134 1.348 . S
C137 C136 1.356 . S
H138 C132 0.930 . S
H139 C133 0.930 . S
C140 N141 1.314 . S
C140 C142 1.353 . S
C140 H146 0.930 . S
N141 Li91 1.990 . S
N141 C140 1.314 . S
N141 C144 1.279 . S
C142 C140 1.353 . S
C142 C145 1.348 . S
C142 H174 0.929 . S
C143 C144 1.358 . S
C143 C145 1.356 . S
C143 H175 0.930 . S
C144 N141 1.279 . S
C144 C143 1.358 . S
C144 H147 0.930 . S
C145 C142 1.348 . S
C145 C143 1.356 . S
H146 C140 0.930 . S
H147 C144 0.930 . S
O148 Li88 1.956 . S
O148 Li89 1.970 1_665 S
O148 Li90 1.961 . S
O148 C92 1.325 . S
O149 Li88 1.970 1_445 S
O149 Li89 1.956 . S
O149 Li91 1.961 . S
O149 C98 1.325 . S
O150 Li88 1.961 . S
O150 Li90 1.956 . S
O150 Li91 1.970 1_665 S
O150 C120 1.325 . S
O151 Li89 1.961 . S
O151 Li90 1.970 1_445 S
O151 Li91 1.956 . S
O151 C126 1.325 . S
H152 C94 0.929 . S
H153 C95 0.930 . S
H154 C96 0.930 1_455 S
H155 C97 0.930 . S
H156 C99 0.930 . S
H157 C101 0.929 . S
H158 C102 0.930 . S
H159 C103 0.930 1_565 S
H160 C106 0.930 . S
H161 C109 0.929 . S
H162 C114 0.929 . S
H163 C115 0.930 . S
H164 C122 0.929 . S
H165 C123 0.930 . S
H166 C124 0.930 1_545 S
H167 C125 0.930 . S
H168 C127 0.929 . S
H169 C128 0.930 . S
H170 C129 0.930 1_655 S
H171 C130 0.930 . S
H172 C134 0.929 . S
H173 C136 0.930 . S
H174 C142 0.929 . S
H175 C143 0.930 . S
Li176 N193 1.990 . S
Li176 O236 1.956 . S
Li176 O237 1.970 1_565 S
Li176 O238 1.961 1_455 S
Li177 N201 1.990 . S
Li177 O236 1.970 1_545 S
Li177 O237 1.956 . S
Li177 O239 1.961 1_455 S
Li178 N223 1.990 . S
Li178 O236 1.961 1_655 S
Li178 O238 1.956 . S
Li178 O239 1.970 1_565 S
Li179 N229 1.990 . S
Li179 O237 1.961 1_655 S
Li179 O238 1.970 1_545 S
Li179 O239 1.956 . S
C180 C182 1.348 1_565 S
C180 C183 1.356 . S
C180 O236 1.325 . S
N181 C184 1.314 . S
N181 C185 1.279 . S
C182 C180 1.348 1_545 S
C182 C184 1.353 1_545 S
C182 H240 0.929 . S
C183 C180 1.356 . S
C183 C185 1.358 . S
C183 H241 0.930 . S
C184 N181 1.314 . S
C184 C182 1.353 1_565 S
C184 H242 0.930 1_565 S
C185 N181 1.279 . S
C185 C183 1.358 . S
C185 H243 0.930 . S
C186 C189 1.348 . S
C186 C190 1.356 . S
C186 O237 1.325 . S
C187 N188 1.279 . S
C187 C190 1.358 . S
C187 H244 0.930 . S
N188 C187 1.279 . S
N188 C191 1.314 . S
C189 C186 1.348 . S
C189 C191 1.353 . S
C189 H245 0.929 . S
C190 C186 1.356 . S
C190 C187 1.358 . S
C190 H246 0.930 . S
C191 N188 1.314 . S
C191 C189 1.353 . S
C191 H247 0.930 . S
C192 N193 1.314 . S
C192 C197 1.353 . S
C192 H198 0.930 . S
N193 Li176 1.990 . S
N193 C192 1.314 . S
N193 C195 1.279 . S
C194 C195 1.358 . S
C194 C196 1.356 . S
C194 H248 0.930 . S
C195 N193 1.279 . S
C195 C194 1.358 . S
C195 H199 0.930 . S
C196 C194 1.356 . S
C196 C197 1.348 . S
C197 C192 1.353 . S
C197 C196 1.348 . S
C197 H249 0.929 . S
H198 C192 0.930 . S
H199 C195 0.930 . S
C200 N201 1.314 . S
C200 C202 1.353 . S
C200 H206 0.930 . S
N201 Li177 1.990 . S
N201 C200 1.314 . S
N201 C204 1.279 . S
C202 C200 1.353 . S
C202 C205 1.348 . S
C202 H250 0.929 . S
C203 C204 1.358 . S
C203 C205 1.356 . S
C203 H251 0.930 . S
C204 N201 1.279 . S
C204 C203 1.358 . S
C204 H207 0.930 . S
C205 C202 1.348 . S
C205 C203 1.356 . S
H206 C200 0.930 . S
H207 C204 0.930 . S
C208 C210 1.348 . S
C208 C211 1.356 . S
C208 O238 1.325 . S
N209 C212 1.314 . S
N209 C213 1.279 . S
C210 C208 1.348 . S
C210 C212 1.353 . S
C210 H252 0.929 . S
C211 C208 1.356 . S
C211 C213 1.358 . S
C211 H253 0.930 . S
C212 N209 1.314 . S
C212 C210 1.353 . S
C212 H254 0.930 . S
C213 N209 1.279 . S
C213 C211 1.358 . S
C213 H255 0.930 . S
C214 C215 1.348 1_545 S
C214 C216 1.356 . S
C214 O239 1.325 . S
C215 C214 1.348 1_565 S
C215 C217 1.353 1_565 S
C215 H256 0.929 . S
C216 C214 1.356 . S
C216 C218 1.358 . S
C216 H257 0.930 . S
C217 C215 1.353 1_545 S
C217 N219 1.314 . S
C217 H258 0.930 1_545 S
C218 C216 1.358 . S
C218 N219 1.279 . S
C218 H259 0.930 . S
N219 C217 1.314 . S
N219 C218 1.279 . S
C220 C222 1.353 . S
C220 N223 1.314 . S
C220 H226 0.930 . S
C221 N223 1.279 . S
C221 C224 1.358 . S
C221 H227 0.930 . S
C222 C220 1.353 . S
C222 C225 1.348 . S
C222 H260 0.929 . S
N223 Li178 1.990 . S
N223 C220 1.314 . S
N223 C221 1.279 . S
C224 C221 1.358 . S
C224 C225 1.356 . S
C224 H261 0.930 . S
C225 C222 1.348 . S
C225 C224 1.356 . S
H226 C220 0.930 . S
H227 C221 0.930 . S
C228 N229 1.314 . S
C228 C230 1.353 . S
C228 H234 0.930 . S
N229 Li179 1.990 . S
N229 C228 1.314 . S
N229 C232 1.279 . S
C230 C228 1.353 . S
C230 C233 1.348 . S
C230 H262 0.929 . S
C231 C232 1.358 . S
C231 C233 1.356 . S
C231 H263 0.930 . S
C232 N229 1.279 . S
C232 C231 1.358 . S
C232 H235 0.930 . S
C233 C230 1.348 . S
C233 C231 1.356 . S
H234 C228 0.930 . S
H235 C232 0.930 . S
O236 Li176 1.956 . S
O236 Li177 1.970 1_565 S
O236 Li178 1.961 1_455 S
O236 C180 1.325 . S
O237 Li176 1.970 1_545 S
O237 Li177 1.956 . S
O237 Li179 1.961 1_455 S
O237 C186 1.325 . S
O238 Li176 1.961 1_655 S
O238 Li178 1.956 . S
O238 Li179 1.970 1_565 S
O238 C208 1.325 . S
O239 Li177 1.961 1_655 S
O239 Li178 1.970 1_545 S
O239 Li179 1.956 . S
O239 C214 1.325 . S
H240 C182 0.929 . S
H241 C183 0.930 . S
H242 C184 0.930 1_545 S
H243 C185 0.930 . S
H244 C187 0.930 . S
H245 C189 0.929 . S
H246 C190 0.930 . S
H247 C191 0.930 . S
H248 C194 0.930 . S
H249 C197 0.929 . S
H250 C202 0.929 . S
H251 C203 0.930 . S
H252 C210 0.929 . S
H253 C211 0.930 . S
H254 C212 0.930 . S
H255 C213 0.930 . S
H256 C215 0.929 . S
H257 C216 0.930 . S
H258 C217 0.930 1_565 S
H259 C218 0.930 . S
H260 C222 0.929 . S
H261 C224 0.930 . S
H262 C230 0.929 . S
H263 C231 0.930 . S
H264 C291 0.929 . S
N265 C290 1.433 . S
N265 C296 1.435 . S
N265 C302 1.423 . S
H266 C292 0.930 . S
H267 C295 0.931 . S
H268 C294 0.929 . S
H269 C297 0.930 . S
H270 C298 0.932 . S
H271 C301 0.929 . S
H272 C300 0.931 . S
H273 C303 0.929 . S
H274 C307 0.932 1_455 S
H275 C304 0.931 . S
H276 C306 0.929 1_455 S
H277 C309 0.929 . S
H278 C310 0.930 . S
H279 C312 0.929 . S
H280 C313 0.931 . S
H281 C315 0.930 . S
H282 C316 0.932 . S
H283 C318 0.931 . S
H284 C319 0.929 . S
H285 C321 0.929 . S
H286 C322 0.931 . S
H287 C324 0.929 1_455 S
N288 C308 1.433 . S
N288 C314 1.435 . S
N288 C320 1.423 . S
H289 C325 0.932 1_455 S
C290 N265 1.433 . S
C290 C291 1.363 . S
C290 C295 1.370 1_655 S
C291 H264 0.929 . S
C291 C290 1.363 . S
C291 C292 1.385 . S
C292 H266 0.930 . S
C292 C291 1.385 . S
C292 C293 1.357 . S
C293 C292 1.357 . S
C293 C294 1.406 1_655 S
C294 H268 0.929 . S
C294 C293 1.406 1_455 S
C294 C295 1.391 . S
C295 H267 0.931 . S
C295 C290 1.370 1_455 S
C295 C294 1.391 . S
C296 N265 1.435 . S
C296 C297 1.358 1_655 S
C296 C301 1.371 . S
C297 H269 0.930 . S
C297 C296 1.358 1_455 S
C297 C298 1.405 . S
C298 H270 0.932 . S
C298 C297 1.405 . S
C298 C299 1.383 1_455 S
C299 C298 1.383 1_655 S
C299 C300 1.393 . S
C300 H272 0.931 . S
C300 C299 1.393 . S
C300 C301 1.382 . S
C301 H271 0.929 . S
C301 C296 1.371 . S
C301 C300 1.382 . S
C302 N265 1.423 . S
C302 C303 1.362 . S
C302 C307 1.388 . S
C303 H273 0.929 . S
C303 C302 1.362 . S
C303 C304 1.376 . S
C304 H275 0.931 . S
C304 C303 1.376 . S
C304 C305 1.396 . S
C305 C304 1.396 . S
C305 C306 1.348 . S
C305 C323 1.472 . S
C306 H276 0.929 1_655 S
C306 C305 1.348 . S
C306 C307 1.443 . S
C307 H274 0.932 1_655 S
C307 C302 1.388 . S
C307 C306 1.443 . S
C308 N288 1.433 . S
C308 C309 1.363 . S
C308 C313 1.370 1_655 S
C309 H277 0.929 . S
C309 C308 1.363 . S
C309 C310 1.385 . S
C310 H278 0.930 . S
C310 C309 1.385 . S
C310 C311 1.357 . S
C311 C310 1.357 . S
C311 C312 1.406 1_655 S
C312 H279 0.929 . S
C312 C311 1.406 1_455 S
C312 C313 1.391 . S
C313 H280 0.931 . S
C313 C308 1.370 1_455 S
C313 C312 1.391 . S
C314 N288 1.435 . S
C314 C315 1.358 1_655 S
C314 C319 1.371 . S
C315 H281 0.930 . S
C315 C314 1.358 1_455 S
C315 C316 1.405 . S
C316 H282 0.932 . S
C316 C315 1.405 . S
C316 C317 1.383 1_455 S
C317 C316 1.383 1_655 S
C317 C318 1.393 . S
C318 H283 0.931 . S
C318 C317 1.393 . S
C318 C319 1.382 . S
C319 H284 0.929 . S
C319 C314 1.371 . S
C319 C318 1.382 . S
C320 N288 1.423 . S
C320 C321 1.362 . S
C320 C325 1.388 . S
C321 H285 0.929 . S
C321 C320 1.362 . S
C321 C322 1.376 . S
C322 H286 0.931 . S
C322 C321 1.376 . S
C322 C323 1.396 . S
C323 C305 1.472 . S
C323 C322 1.396 . S
C323 C324 1.348 . S
C324 H287 0.929 1_655 S
C324 C323 1.348 . S
C324 C325 1.443 . S
C325 H289 0.932 1_655 S
C325 C320 1.388 . S
C325 C324 1.443 . S
H326 C353 0.929 . S
N327 C352 1.433 . S
N327 C358 1.435 . S
N327 C364 1.423 . S
H328 C354 0.930 . S
H329 C357 0.931 . S
H330 C356 0.929 . S
H331 C359 0.930 . S
H332 C360 0.932 . S
H333 C363 0.929 . S
H334 C362 0.931 . S
H335 C365 0.929 . S
H336 C369 0.932 1_565 S
H337 C366 0.931 . S
H338 C368 0.929 1_565 S
H339 C371 0.929 . S
H340 C372 0.930 . S
H341 C374 0.929 . S
H342 C375 0.931 . S
H343 C377 0.930 . S
H344 C378 0.932 . S
H345 C380 0.931 . S
H346 C381 0.929 . S
H347 C383 0.929 . S
H348 C384 0.931 . S
H349 C386 0.929 1_565 S
N350 C370 1.433 . S
N350 C376 1.435 . S
N350 C382 1.423 . S
H351 C387 0.932 1_565 S
C352 N327 1.433 . S
C352 C353 1.363 . S
C352 C357 1.370 1_545 S
C353 H326 0.929 . S
C353 C352 1.363 . S
C353 C354 1.385 . S
C354 H328 0.930 . S
C354 C353 1.385 . S
C354 C355 1.357 . S
C355 C354 1.357 . S
C355 C356 1.406 1_545 S
C356 H330 0.929 . S
C356 C355 1.406 1_565 S
C356 C357 1.391 . S
C357 H329 0.931 . S
C357 C352 1.370 1_565 S
C357 C356 1.391 . S
C358 N327 1.435 . S
C358 C359 1.358 1_545 S
C358 C363 1.371 . S
C359 H331 0.930 . S
C359 C358 1.358 1_565 S
C359 C360 1.405 . S
C360 H332 0.932 . S
C360 C359 1.405 . S
C360 C361 1.383 1_565 S
C361 C360 1.383 1_545 S
C361 C362 1.393 . S
C362 H334 0.931 . S
C362 C361 1.393 . S
C362 C363 1.382 . S
C363 H333 0.929 . S
C363 C358 1.371 . S
C363 C362 1.382 . S
C364 N327 1.423 . S
C364 C365 1.362 . S
C364 C369 1.388 . S
C365 H335 0.929 . S
C365 C364 1.362 . S
C365 C366 1.376 . S
C366 H337 0.931 . S
C366 C365 1.376 . S
C366 C367 1.396 . S
C367 C366 1.396 . S
C367 C368 1.348 . S
C367 C385 1.472 . S
C368 H338 0.929 1_545 S
C368 C367 1.348 . S
C368 C369 1.443 . S
C369 H336 0.932 1_545 S
C369 C364 1.388 . S
C369 C368 1.443 . S
C370 N350 1.433 . S
C370 C371 1.363 . S
C370 C375 1.370 1_545 S
C371 H339 0.929 . S
C371 C370 1.363 . S
C371 C372 1.385 . S
C372 H340 0.930 . S
C372 C371 1.385 . S
C372 C373 1.357 . S
C373 C372 1.357 . S
C373 C374 1.406 1_545 S
C374 H341 0.929 . S
C374 C373 1.406 1_565 S
C374 C375 1.391 . S
C375 H342 0.931 . S
C375 C370 1.370 1_565 S
C375 C374 1.391 . S
C376 N350 1.435 . S
C376 C377 1.358 1_545 S
C376 C381 1.371 . S
C377 H343 0.930 . S
C377 C376 1.358 1_565 S
C377 C378 1.405 . S
C378 H344 0.932 . S
C378 C377 1.405 . S
C378 C379 1.383 1_565 S
C379 C378 1.383 1_545 S
C379 C380 1.393 . S
C380 H345 0.931 . S
C380 C379 1.393 . S
C380 C381 1.382 . S
C381 H346 0.929 . S
C381 C376 1.371 . S
C381 C380 1.382 . S
C382 N350 1.423 . S
C382 C383 1.362 . S
C382 C387 1.388 . S
C383 H347 0.929 . S
C383 C382 1.362 . S
C383 C384 1.376 . S
C384 H348 0.931 . S
C384 C383 1.376 . S
C384 C385 1.396 . S
C385 C367 1.472 . S
C385 C384 1.396 . S
C385 C386 1.348 . S
C386 H349 0.929 1_545 S
C386 C385 1.348 . S
C386 C387 1.443 . S
C387 H351 0.932 1_545 S
C387 C382 1.388 . S
C387 C386 1.443 . S
H388 C415 0.929 . S
N389 C414 1.433 . S
N389 C420 1.435 . S
N389 C426 1.423 . S
H390 C416 0.930 . S
H391 C419 0.931 . S
H392 C418 0.929 . S
H393 C421 0.930 . S
H394 C422 0.932 . S
H395 C425 0.929 . S
H396 C424 0.931 . S
H397 C427 0.929 . S
H398 C431 0.932 . S
H399 C428 0.931 . S
H400 C430 0.929 . S
H401 C433 0.929 . S
H402 C434 0.930 . S
H403 C436 0.929 . S
H404 C437 0.931 . S
H405 C439 0.930 . S
H406 C440 0.932 . S
H407 C442 0.931 . S
H408 C443 0.929 . S
H409 C445 0.929 . S
H410 C446 0.931 . S
H411 C448 0.929 . S
N412 C432 1.433 . S
N412 C438 1.435 . S
N412 C444 1.423 . S
H413 C449 0.932 . S
C414 N389 1.433 . S
C414 C415 1.363 . S
C414 C419 1.370 . S
C415 H388 0.929 . S
C415 C414 1.363 . S
C415 C416 1.385 . S
C416 H390 0.930 . S
C416 C415 1.385 . S
C416 C417 1.357 . S
C417 C416 1.357 . S
C417 C418 1.406 . S
C418 H392 0.929 . S
C418 C417 1.406 . S
C418 C419 1.391 . S
C419 H391 0.931 . S
C419 C414 1.370 . S
C419 C418 1.391 . S
C420 N389 1.435 . S
C420 C421 1.358 . S
C420 C425 1.371 . S
C421 H393 0.930 . S
C421 C420 1.358 . S
C421 C422 1.405 . S
C422 H394 0.932 . S
C422 C421 1.405 . S
C422 C423 1.383 . S
C423 C422 1.383 . S
C423 C424 1.393 . S
C424 H396 0.931 . S
C424 C423 1.393 . S
C424 C425 1.382 . S
C425 H395 0.929 . S
C425 C420 1.371 . S
C425 C424 1.382 . S
C426 N389 1.423 . S
C426 C427 1.362 . S
C426 C431 1.388 . S
C427 H397 0.929 . S
C427 C426 1.362 . S
C427 C428 1.376 . S
C428 H399 0.931 . S
C428 C427 1.376 . S
C428 C429 1.396 . S
C429 C428 1.396 . S
C429 C430 1.348 . S
C429 C447 1.472 . S
C430 H400 0.929 . S
C430 C429 1.348 . S
C430 C431 1.443 . S
C431 H398 0.932 . S
C431 C426 1.388 . S
C431 C430 1.443 . S
C432 N412 1.433 . S
C432 C433 1.363 . S
C432 C437 1.370 . S
C433 H401 0.929 . S
C433 C432 1.363 . S
C433 C434 1.385 . S
C434 H402 0.930 . S
C434 C433 1.385 . S
C434 C435 1.357 . S
C435 C434 1.357 . S
C435 C436 1.406 . S
C436 H403 0.929 . S
C436 C435 1.406 . S
C436 C437 1.391 . S
C437 H404 0.931 . S
C437 C432 1.370 . S
C437 C436 1.391 . S
C438 N412 1.435 . S
C438 C439 1.358 . S
C438 C443 1.371 . S
C439 H405 0.930 . S
C439 C438 1.358 . S
C439 C440 1.405 . S
C440 H406 0.932 . S
C440 C439 1.405 . S
C440 C441 1.383 . S
C441 C440 1.383 . S
C441 C442 1.393 . S
C442 H407 0.931 . S
C442 C441 1.393 . S
C442 C443 1.382 . S
C443 H408 0.929 . S
C443 C438 1.371 . S
C443 C442 1.382 . S
C444 N412 1.423 . S
C444 C445 1.362 . S
C444 C449 1.388 . S
C445 H409 0.929 . S
C445 C444 1.362 . S
C445 C446 1.376 . S
C446 H410 0.931 . S
C446 C445 1.376 . S
C446 C447 1.396 . S
C447 C429 1.472 . S
C447 C446 1.396 . S
C447 C448 1.348 . S
C448 H411 0.929 . S
C448 C447 1.348 . S
C448 C449 1.443 . S
C449 H413 0.932 . S
C449 C444 1.388 . S
C449 C448 1.443 . S
H450 C458 0.950 . S
H451 C463 0.950 . S
H452 C460 0.950 . S
H453 C462 0.950 . S
H454 C464 0.950 . S
H455 C466 0.950 . S
H456 C468 0.950 1_455 S
H457 C469 0.950 . S
C458 H450 0.950 . S
C458 C459 1.386 . S
C458 C460 1.391 . S
C459 C458 1.386 . S
C459 C463 1.393 . S
C460 H452 0.950 . S
C460 C458 1.391 . S
C460 C461 1.400 . S
C461 C460 1.400 . S
C461 C462 1.398 . S
C461 C467 1.491 . S
C462 H453 0.950 . S
C462 C461 1.398 . S
C462 C463 1.391 . S
C463 H451 0.950 . S
C463 C459 1.393 . S
C463 C462 1.391 . S
C464 H454 0.950 . S
C464 C465 1.386 . S
C464 C466 1.391 . S
C465 C464 1.386 . S
C465 C469 1.393 1_655 S
C466 H455 0.950 . S
C466 C464 1.391 . S
C466 C467 1.400 . S
C467 C461 1.491 . S
C467 C466 1.400 . S
C467 C468 1.398 . S
C468 H456 0.950 1_655 S
C468 C467 1.398 . S
C468 C469 1.391 1_655 S
C469 H457 0.950 . S
C469 C465 1.393 1_455 S
C469 C468 1.391 1_455 S
H470 C478 0.950 . S
H471 C483 0.950 . S
H472 C480 0.950 . S
H473 C482 0.950 1_545 S
H474 C484 0.950 . S
H475 C486 0.950 . S
H476 C488 0.950 . S
H477 C489 0.950 . S
C478 H470 0.950 . S
C478 C479 1.386 . S
C478 C480 1.391 . S
C479 C478 1.386 . S
C479 C483 1.393 . S
C480 H472 0.950 . S
C480 C478 1.391 . S
C480 C481 1.400 . S
C481 C480 1.400 . S
C481 C482 1.398 . S
C481 C487 1.491 . S
C482 H473 0.950 1_565 S
C482 C481 1.398 . S
C482 C483 1.391 . S
C483 H471 0.950 . S
C483 C479 1.393 . S
C483 C482 1.391 . S
C484 H474 0.950 . S
C484 C485 1.386 1_545 S
C484 C486 1.391 . S
C485 C484 1.386 1_565 S
C485 C489 1.393 . S
C486 H475 0.950 . S
C486 C484 1.391 . S
C486 C487 1.400 1_545 S
C487 C481 1.491 . S
C487 C486 1.400 1_565 S
C487 C488 1.398 . S
C488 H476 0.950 . S
C488 C487 1.398 . S
C488 C489 1.391 . S
C489 H477 0.950 . S
C489 C485 1.393 . S
C489 C488 1.391 . S
H490 C498 0.950 . S
H491 C503 0.950 . S
H492 C500 0.950 . S
H493 C502 0.950 . S
H494 C504 0.950 . S
H495 C506 0.950 . S
H496 C508 0.950 . S
H497 C509 0.950 . S
C498 H490 0.950 . S
C498 C499 1.386 . S
C498 C500 1.391 . S
C499 C498 1.386 . S
C499 C503 1.393 . S
C500 H492 0.950 . S
C500 C498 1.391 . S
C500 C501 1.400 . S
C501 C500 1.400 . S
C501 C502 1.398 . S
C501 C507 1.491 . S
C502 H493 0.950 . S
C502 C501 1.398 . S
C502 C503 1.391 . S
C503 H491 0.950 . S
C503 C499 1.393 . S
C503 C502 1.391 . S
C504 H494 0.950 . S
C504 C505 1.386 . S
C504 C506 1.391 . S
C505 C504 1.386 . S
C505 C509 1.393 . S
C506 H495 0.950 . S
C506 C504 1.391 . S
C506 C507 1.400 . S
C507 C501 1.491 . S
C507 C506 1.400 . S
C507 C508 1.398 . S
C508 H496 0.950 . S
C508 C507 1.398 . S
C508 C509 1.391 . S
C509 H497 0.950 . S
C509 C505 1.393 . S
C509 C508 1.391 . S
H510 C518 0.950 . S
H511 C523 0.950 . S
H512 C520 0.950 . S
H513 C522 0.950 . S
H514 C524 0.950 . S
H515 C526 0.950 . S
H516 C528 0.950 1_655 S
H517 C529 0.950 . S
C518 H510 0.950 . S
C518 C519 1.386 . S
C518 C520 1.391 . S
C519 C518 1.386 . S
C519 C523 1.393 . S
C520 H512 0.950 . S
C520 C518 1.391 . S
C520 C521 1.400 . S
C521 C520 1.400 . S
C521 C522 1.398 . S
C521 C527 1.491 . S
C522 H513 0.950 . S
C522 C521 1.398 . S
C522 C523 1.391 . S
C523 H511 0.950 . S
C523 C519 1.393 . S
C523 C522 1.391 . S
C524 H514 0.950 . S
C524 C525 1.386 . S
C524 C526 1.391 . S
C525 C524 1.386 . S
C525 C529 1.393 1_455 S
C526 H515 0.950 . S
C526 C524 1.391 . S
C526 C527 1.400 . S
C527 C521 1.491 . S
C527 C526 1.400 . S
C527 C528 1.398 . S
C528 H516 0.950 1_455 S
C528 C527 1.398 . S
C528 C529 1.391 1_455 S
C529 H517 0.950 . S
C529 C525 1.393 1_655 S
C529 C528 1.391 1_655 S
H530 C538 0.950 . S
H531 C543 0.950 . S
H532 C540 0.950 . S
H533 C542 0.950 . S
H534 C544 0.950 . S
H535 C546 0.950 . S
H536 C548 0.950 . S
H537 C549 0.950 1_565 S
C538 H530 0.950 . S
C538 C539 1.386 . S
C538 C540 1.391 . S
C539 C538 1.386 . S
C539 C543 1.393 . S
C540 H532 0.950 . S
C540 C538 1.391 . S
C540 C541 1.400 . S
C541 C540 1.400 . S
C541 C542 1.398 . S
C541 C547 1.491 . S
C542 H533 0.950 . S
C542 C541 1.398 . S
C542 C543 1.391 . S
C543 H531 0.950 . S
C543 C539 1.393 . S
C543 C542 1.391 . S
C544 H534 0.950 . S
C544 C545 1.386 . S
C544 C546 1.391 . S
C545 C544 1.386 . S
C545 C549 1.393 . S
C546 H535 0.950 . S
C546 C544 1.391 . S
C546 C547 1.400 . S
C547 C541 1.491 . S
C547 C546 1.400 . S
C547 C548 1.398 . S
C548 H536 0.950 . S
C548 C547 1.398 . S
C548 C549 1.391 . S
C549 H537 0.950 1_545 S
C549 C545 1.393 . S
C549 C548 1.391 . S
H550 C558 0.950 . S
H551 C563 0.950 . S
H552 C560 0.950 . S
H553 C562 0.950 . S
H554 C564 0.950 . S
H555 C566 0.950 . S
H556 C568 0.950 . S
H557 C569 0.950 . S
C558 H550 0.950 . S
C558 C559 1.386 . S
C558 C560 1.391 . S
C559 C558 1.386 . S
C559 C563 1.393 . S
C560 H552 0.950 . S
C560 C558 1.391 . S
C560 C561 1.400 . S
C561 C560 1.400 . S
C561 C562 1.398 . S
C561 C567 1.491 . S
C562 H553 0.950 . S
C562 C561 1.398 . S
C562 C563 1.391 . S
C563 H551 0.950 . S
C563 C559 1.393 . S
C563 C562 1.391 . S
C564 H554 0.950 . S
C564 C565 1.386 . S
C564 C566 1.391 . S
C565 C564 1.386 . S
C565 C569 1.393 . S
C566 H555 0.950 . S
C566 C564 1.391 . S
C566 C567 1.400 . S
C567 C561 1.491 . S
C567 C566 1.400 . S
C567 C568 1.398 . S
C568 H556 0.950 . S
C568 C567 1.398 . S
C568 C569 1.391 . S
C569 H557 0.950 . S
C569 C565 1.393 . S
C569 C568 1.391 . S
H570 C578 0.950 1_565 S
H571 C583 0.950 . S
H572 C580 0.950 . S
H573 C582 0.950 . S
H574 C584 0.950 . S
H575 C586 0.950 . S
H576 C588 0.950 . S
H577 C589 0.950 . S
C578 H570 0.950 1_545 S
C578 C579 1.386 . S
C578 C580 1.391 1_545 S
C579 C578 1.386 . S
C579 C583 1.393 . S
C580 H572 0.950 . S
C580 C578 1.391 1_565 S
C580 C581 1.400 1_565 S
C581 C580 1.400 1_545 S
C581 C582 1.398 . S
C581 C587 1.491 . S
C582 H573 0.950 . S
C582 C581 1.398 . S
C582 C583 1.391 . S
C583 H571 0.950 . S
C583 C579 1.393 . S
C583 C582 1.391 . S
C584 H574 0.950 . S
C584 C585 1.386 . S
C584 C586 1.391 . S
C585 C584 1.386 . S
C585 C589 1.393 1_545 S
C586 H575 0.950 . S
C586 C584 1.391 . S
C586 C587 1.400 . S
C587 C581 1.491 . S
C587 C586 1.400 . S
C587 C588 1.398 1_545 S
C588 H576 0.950 . S
C588 C587 1.398 1_565 S
C588 C589 1.391 . S
C589 H577 0.950 . S
C589 C585 1.393 1_565 S
C589 C588 1.391 . S
H590 C598 0.950 . S
H591 C603 0.950 . S
H592 C600 0.950 . S
H593 C602 0.950 . S
H594 C604 0.950 . S
H595 C606 0.950 . S
H596 C608 0.950 . S
H597 C609 0.950 . S
C598 H590 0.950 . S
C598 C599 1.386 . S
C598 C600 1.391 . S
C599 C598 1.386 . S
C599 C603 1.393 . S
C600 H592 0.950 . S
C600 C598 1.391 . S
C600 C601 1.400 . S
C601 C600 1.400 . S
C601 C602 1.398 . S
C601 C607 1.491 . S
C602 H593 0.950 . S
C602 C601 1.398 . S
C602 C603 1.391 . S
C603 H591 0.950 . S
C603 C599 1.393 . S
C603 C602 1.391 . S
C604 H594 0.950 . S
C604 C605 1.386 . S
C604 C606 1.391 . S
C605 C604 1.386 . S
C605 C609 1.393 . S
C606 H595 0.950 . S
C606 C604 1.391 . S
C606 C607 1.400 . S
C607 C601 1.491 . S
C607 C606 1.400 . S
C607 C608 1.398 . S
C608 H596 0.950 . S
C608 C607 1.398 . S
C608 C609 1.391 . S
C609 H597 0.950 . S
C609 C605 1.393 . S
C609 C608 1.391 . S
H610 C618 0.950 . S
H611 C623 0.950 1_455 S
H612 C620 0.950 . S
H613 C622 0.950 1_455 S
H614 C624 0.950 . S
H615 C626 0.950 . S
H616 C628 0.950 . S
H617 C629 0.950 . S
C618 H610 0.950 . S
C618 C619 1.386 . S
C618 C620 1.391 . S
C619 C618 1.386 . S
C619 C623 1.393 . S
C620 H612 0.950 . S
C620 C618 1.391 . S
C620 C621 1.400 . S
C621 C620 1.400 . S
C621 C622 1.398 . S
C621 C627 1.491 . S
C622 H613 0.950 1_655 S
C622 C621 1.398 . S
C622 C623 1.391 . S
C623 H611 0.950 1_655 S
C623 C619 1.393 . S
C623 C622 1.391 . S
C624 H614 0.950 . S
C624 C625 1.386 1_455 S
C624 C626 1.391 . S
C625 C624 1.386 1_655 S
C625 C629 1.393 . S
C626 H615 0.950 . S
C626 C624 1.391 . S
C626 C627 1.400 1_455 S
C627 C621 1.491 . S
C627 C626 1.400 1_655 S
C627 C628 1.398 . S
C628 H616 0.950 . S
C628 C627 1.398 . S
C628 C629 1.391 . S
C629 H617 0.950 . S
C629 C625 1.393 . S
C629 C628 1.391 . S
H630 C638 0.950 . S
H631 C643 0.950 . S
H632 C640 0.950 . S
H633 C642 0.950 . S
H634 C644 0.950 . S
H635 C646 0.950 1_545 S
H636 C648 0.950 . S
H637 C649 0.950 . S
C638 H630 0.950 . S
C638 C639 1.386 . S
C638 C640 1.391 . S
C639 C638 1.386 . S
C639 C643 1.393 . S
C640 H632 0.950 . S
C640 C638 1.391 . S
C640 C641 1.400 . S
C641 C640 1.400 . S
C641 C642 1.398 . S
C641 C647 1.491 . S
C642 H633 0.950 . S
C642 C641 1.398 . S
C642 C643 1.391 . S
C643 H631 0.950 . S
C643 C639 1.393 . S
C643 C642 1.391 . S
C644 H634 0.950 . S
C644 C645 1.386 1_545 S
C644 C646 1.391 1_545 S
C645 C644 1.386 1_565 S
C645 C649 1.393 . S
C646 H635 0.950 1_565 S
C646 C644 1.391 1_565 S
C646 C647 1.400 . S
C647 C641 1.491 . S
C647 C646 1.400 . S
C647 C648 1.398 . S
C648 H636 0.950 . S
C648 C647 1.398 . S
C648 C649 1.391 . S
C649 H637 0.950 . S
C649 C645 1.393 . S
C649 C648 1.391 . S
H650 C658 0.950 . S
H651 C663 0.950 . S
H652 C660 0.950 . S
H653 C662 0.950 . S
H654 C664 0.950 . S
H655 C666 0.950 . S
H656 C668 0.950 . S
H657 C669 0.950 . S
C658 H650 0.950 . S
C658 C659 1.386 . S
C658 C660 1.391 . S
C659 C658 1.386 . S
C659 C663 1.393 . S
C660 H652 0.950 . S
C660 C658 1.391 . S
C660 C661 1.400 . S
C661 C660 1.400 . S
C661 C662 1.398 . S
C661 C667 1.491 . S
C662 H653 0.950 . S
C662 C661 1.398 . S
C662 C663 1.391 . S
C663 H651 0.950 . S
C663 C659 1.393 . S
C663 C662 1.391 . S
C664 H654 0.950 . S
C664 C665 1.386 . S
C664 C666 1.391 . S
C665 C664 1.386 . S
C665 C669 1.393 . S
C666 H655 0.950 . S
C666 C664 1.391 . S
C666 C667 1.400 . S
C667 C661 1.491 . S
C667 C666 1.400 . S
C667 C668 1.398 . S
C668 H656 0.950 . S
C668 C667 1.398 . S
C668 C669 1.391 . S
C669 H657 0.950 . S
C669 C665 1.393 . S
C669 C668 1.391 . S
H670 C678 0.950 . S
H671 C683 0.950 . S
H672 C680 0.950 1_655 S
H673 C682 0.950 . S
H674 C684 0.950 . S
H675 C686 0.950 . S
H676 C688 0.950 . S
H677 C689 0.950 . S
C678 H670 0.950 . S
C678 C679 1.386 . S
C678 C680 1.391 . S
C679 C678 1.386 . S
C679 C683 1.393 . S
C680 H672 0.950 1_455 S
C680 C678 1.391 . S
C680 C681 1.400 . S
C681 C680 1.400 . S
C681 C682 1.398 . S
C681 C687 1.491 . S
C682 H673 0.950 . S
C682 C681 1.398 . S
C682 C683 1.391 . S
C683 H671 0.950 . S
C683 C679 1.393 . S
C683 C682 1.391 . S
C684 H674 0.950 . S
C684 C685 1.386 . S
C684 C686 1.391 . S
C685 C684 1.386 . S
C685 C689 1.393 1_455 S
C686 H675 0.950 . S
C686 C684 1.391 . S
C686 C687 1.400 . S
C687 C681 1.491 . S
C687 C686 1.400 . S
C687 C688 1.398 1_455 S
C688 H676 0.950 . S
C688 C687 1.398 1_655 S
C688 C689 1.391 . S
C689 H677 0.950 . S
C689 C685 1.393 1_655 S
C689 C688 1.391 . S
C465 C317 1.317 . S
C459 C29 1.318 . S
C479 C137 1.302 . S
C485 C361 1.325 1_565 S
C499 C225 1.321 . S
C505 C423 1.324 . S
C519 C49 1.321 . S
C525 C299 1.325 1_455 S
C545 C379 1.302 . S
C539 C117 1.299 . S
C559 C205 1.308 . S
C565 C441 1.314 . S
C585 C355 1.540 . S
C579 C233 1.657 . S
C599 C57 1.652 . S
C605 C417 1.542 . S
C625 C293 1.560 . S
C619 C108 1.657 . S
C645 C373 1.586 1_565 S
C639 C196 1.648 . S
C665 C435 1.588 . S
C659 C20 1.662 . S
C679 C145 1.664 . S
C685 C311 1.572 1_455 S
