# Generated by pormake.
# Topology nom, (4,4)-cn, num edge types: 1
# Building blocks:
#     Node 0, Type 0, BuildingBlock: KUFVIS_clean_linker_0, # of connection points: 4
#     Node 1, Type 0, BuildingBlock: KUFVIS_clean_linker_0, # of connection points: 4
#     Node 2, Type 0, BuildingBlock: KUFVIS_clean_linker_0, # of connection points: 4
#     Node 3, Type 0, BuildingBlock: KUFVIS_clean_linker_0, # of connection points: 4
#     Node 4, Type 0, BuildingBlock: KUFVIS_clean_linker_0, # of connection points: 4
#     Node 5, Type 0, BuildingBlock: KUFVIS_clean_linker_0, # of connection points: 4
#     Node 6, Type 1, BuildingBlock: KUFVIS_clean_sbu_0, # of connection points: 4
#     Node 7, Type 1, BuildingBlock: KUFVIS_clean_sbu_0, # of connection points: 4
#     Node 8, Type 1, BuildingBlock: KUFVIS_clean_sbu_0, # of connection points: 4
#     Node 9, Type 1, BuildingBlock: KUFVIS_clean_sbu_0, # of connection points: 4
#     Node 10, Type 1, BuildingBlock: KUFVIS_clean_sbu_0, # of connection points: 4
#     Node 11, Type 1, BuildingBlock: KUFVIS_clean_sbu_0, # of connection points: 4
#     Edge 12, Type (0, 1), BuildingBlock: KIFKEQ_clean_linker_1, # of connection points: 2
#     Edge 13, Type (0, 1), BuildingBlock: KIFKEQ_clean_linker_1, # of connection points: 2
#     Edge 14, Type (0, 1), BuildingBlock: KIFKEQ_clean_linker_1, # of connection points: 2
#     Edge 15, Type (0, 1), BuildingBlock: KIFKEQ_clean_linker_1, # of connection points: 2
#     Edge 16, Type (0, 1), BuildingBlock: KIFKEQ_clean_linker_1, # of connection points: 2
#     Edge 17, Type (0, 1), BuildingBlock: KIFKEQ_clean_linker_1, # of connection points: 2
#     Edge 18, Type (0, 1), BuildingBlock: KIFKEQ_clean_linker_1, # of connection points: 2
#     Edge 19, Type (0, 1), BuildingBlock: KIFKEQ_clean_linker_1, # of connection points: 2
#     Edge 20, Type (0, 1), BuildingBlock: KIFKEQ_clean_linker_1, # of connection points: 2
#     Edge 21, Type (0, 1), BuildingBlock: KIFKEQ_clean_linker_1, # of connection points: 2
#     Edge 22, Type (0, 1), BuildingBlock: KIFKEQ_clean_linker_1, # of connection points: 2
#     Edge 23, Type (0, 1), BuildingBlock: KIFKEQ_clean_linker_1, # of connection points: 2
#     Edge 24, Type (0, 1), BuildingBlock: KIFKEQ_clean_linker_1, # of connection points: 2
#     Edge 25, Type (0, 1), BuildingBlock: KIFKEQ_clean_linker_1, # of connection points: 2
#     Edge 26, Type (0, 1), BuildingBlock: KIFKEQ_clean_linker_1, # of connection points: 2
#     Edge 27, Type (0, 1), BuildingBlock: KIFKEQ_clean_linker_1, # of connection points: 2
#     Edge 28, Type (0, 1), BuildingBlock: KIFKEQ_clean_linker_1, # of connection points: 2
#     Edge 29, Type (0, 1), BuildingBlock: KIFKEQ_clean_linker_1, # of connection points: 2
#     Edge 30, Type (0, 1), BuildingBlock: KIFKEQ_clean_linker_1, # of connection points: 2
#     Edge 31, Type (0, 1), BuildingBlock: KIFKEQ_clean_linker_1, # of connection points: 2
#     Edge 32, Type (0, 1), BuildingBlock: KIFKEQ_clean_linker_1, # of connection points: 2
#     Edge 33, Type (0, 1), BuildingBlock: KIFKEQ_clean_linker_1, # of connection points: 2
#     Edge 34, Type (0, 1), BuildingBlock: KIFKEQ_clean_linker_1, # of connection points: 2
#     Edge 35, Type (0, 1), BuildingBlock: KIFKEQ_clean_linker_1, # of connection points: 2
# Relax obj value: 0.004
# Max RMSD: 0.052
# Mean RMSD: 0.039
data_MOF--net-nom--node1-KUFVIS_clean_sbu_0--node2-KUFVIS_clean_linker_0--edge1-KIFKEQ_clean_linker_1
_symmetry_space_group_name_H-M    P1
_symmetry_Int_Tables_number       1
_symmetry_cell_setting            triclinic
loop_
_symmetry_equiv_pos_as_xyz
'x, y, z'
_cell_length_a     45.184179
_cell_length_b     45.668659
_cell_length_c     47.997991
_cell_angle_alpha  90.175288
_cell_angle_beta   90.392606
_cell_angle_gamma 120.06977
loop_
_atom_site_label
_atom_site_type_symbol
_atom_site_fract_x
_atom_site_fract_y
_atom_site_fract_z
_atom_type_partial_charge
H0 H 0.15023 0.63239 0.3439 0.0
H1 H 0.0846 0.60545 0.27202 0.0
H2 H 0.04373 0.56173 0.35269 0.0
H3 H 0.99673 0.56134 0.3354 0.0
H4 H 0.933 0.50383 0.26635 0.0
H5 H 0.04143 0.55527 0.25745 0.0
C6 C 0.12487 0.61879 0.33454 0.0
C7 C 0.09719 0.59785 0.35124 0.0
C8 C 0.12068 0.62126 0.30593 0.0
C9 C 0.08771 0.6027 0.29406 0.0
C10 C 0.0591 0.58131 0.31074 0.0
C11 C 0.06452 0.57885 0.33945 0.0
C12 C 1.02394 0.56075 0.2983 0.0
C13 C 0.99431 0.55185 0.31432 0.0
C14 C 0.9613 0.53142 0.30292 0.0
C15 C 0.95815 0.52003 0.27542 0.0
C16 C 0.98685 0.52934 0.25906 0.0
C17 C 1.01962 0.54936 0.27037 0.0
H18 H 0.56523 0.14587 0.50632 0.0
H19 H 0.51715 0.07585 0.43909 0.0
H20 H 0.51604 0.04035 0.52337 0.0
H21 H 0.47538 0.99191 0.50928 0.0
H22 H 0.46188 0.92343 0.44307 0.0
H23 H 0.51309 0.029 0.4261 0.0
C24 C 0.55042 0.11992 0.49887 0.0
C25 C 0.5397 0.0935 0.51773 0.0
C26 C 0.54303 0.11352 0.47054 0.0
C27 C 0.52343 0.07991 0.46103 0.0
C28 C 0.5133 0.05232 0.47967 0.0
C29 C 0.5218 0.05995 0.50828 0.0
C30 C 0.49658 1.01617 0.46928 0.0
C31 C 0.47943 0.98827 0.48769 0.0
C32 C 0.46807 0.955 0.47846 0.0
C33 C 0.47139 0.94914 0.45045 0.0
C34 C 0.48662 0.97576 0.43171 0.0
C35 C 0.49963 1.00907 0.44102 0.0
H36 H 0.57519 0.45813 0.62005 0.0
H37 H 0.52589 0.48238 0.68431 0.0
H38 H 0.53008 0.51821 0.59975 0.0
H39 H 0.4864 0.52352 0.61219 0.0
H40 H 0.46867 0.57711 0.67701 0.0
H41 H 0.52615 0.52864 0.69582 0.0
C42 C 0.56103 0.47038 0.62654 0.0
C43 C 0.55226 0.4872 0.60691 0.0
C44 C 0.55222 0.46928 0.65441 0.0
C45 C 0.53334 0.48455 0.66273 0.0
C46 C 0.52511 0.503 0.64336 0.0
C47 C 0.53475 0.50379 0.61521 0.0
C48 C 0.50854 0.52294 0.65265 0.0
C49 C 0.4904 0.53216 0.63361 0.0
C50 C 0.4774 0.55303 0.6421 0.0
C51 C 0.48057 0.56286 0.67003 0.0
C52 C 0.49745 0.55353 0.68939 0.0
C53 C 0.51184 0.53413 0.68065 0.0
H54 H 0.1529 0.58559 0.77653 0.0
H55 H 0.08197 0.53657 0.84232 0.0
H56 H 0.04601 0.54077 0.75911 0.0
H57 H 0.99896 0.49516 0.77193 0.0
H58 H 0.92803 0.47195 0.83816 0.0
H59 H 0.0347 0.53449 0.8555 0.0
C60 C 0.12674 0.57261 0.78385 0.0
C61 C 0.10007 0.56389 0.76481 0.0
C62 C 0.12042 0.56372 0.81187 0.0
C63 C 0.0864 0.54456 0.82084 0.0
C64 C 0.05864 0.53603 0.80221 0.0
C65 C 0.06615 0.54603 0.77402 0.0
C66 C 1.02222 0.51761 0.8122 0.0
C67 C 0.9945 0.49839 0.79353 0.0
C68 C 0.96049 0.48315 0.80266 0.0
C69 C 0.95417 0.48534 0.83077 0.0
C70 C 0.98078 0.5032 0.84981 0.0
C71 C 1.01466 0.51966 0.84052 0.0
H72 H 0.50726 0.92239 0.00517 0.0
H73 H 0.55379 0.99286 0.93896 0.0
H74 H 0.53649 0.02604 0.01908 0.0
H75 H 0.58196 0.07507 0.00693 0.0
H76 H 0.60151 0.14196 0.93825 0.0
H77 H 0.54841 0.03545 0.92325 0.0
C78 C 0.51827 0.94805 -0.00255 0.0
C79 C 0.52095 0.97356 0.01515 0.0
C80 C 0.5297 0.95484 0.97006 0.0
C81 C 0.54426 0.98802 0.96004 0.0
C82 C 0.5473 1.01461 0.97748 0.0
C83 C 0.53542 1.00678 0.00523 0.0
C84 C 0.56242 0.05015 0.96676 0.0
C85 C 0.57892 0.0785 0.98502 0.0
C86 C 0.59212 0.11168 0.97501 0.0
C87 C 0.58986 0.1165 0.9465 0.0
C88 C 0.57488 0.08919 0.92801 0.0
C89 C 0.56074 0.05615 0.93803 0.0
H90 H 0.50835 0.6083 0.11259 0.0
H91 H 0.55749 0.58824 0.18041 0.0
H92 H 0.55424 0.54814 0.09739 0.0
H93 H 0.59768 0.54416 0.11083 0.0
H94 H 0.61648 0.49349 0.1771 0.0
H95 H 0.56168 0.54517 0.19442 0.0
C96 C 0.52218 0.59631 0.1206 0.0
C97 C 0.53159 0.57886 0.10225 0.0
C98 C 0.53053 0.59893 0.14889 0.0
C99 C 0.55003 0.58472 0.15868 0.0
C100 C 0.55906 0.56579 0.1405 0.0
C101 C 0.54926 0.5631 0.11208 0.0
C102 C 0.57694 0.5475 0.15104 0.0
C103 C 0.59441 0.53707 0.13252 0.0
C104 C 0.60728 0.51645 0.14175 0.0
C105 C 0.60524 0.50829 0.16988 0.0
C106 C 0.58965 0.51936 0.18891 0.0
C107 C 0.57516 0.53851 0.17949 0.0
Mn108 Mn 0.65841 0.4077 0.40372 0.0
Mn109 Mn 0.70177 0.49053 0.42239 0.0
C110 C 0.63612 0.42815 0.43679 0.0
C111 C 0.64619 0.35173 0.40799 0.0
C112 C 0.66005 0.46449 0.36912 0.0
O113 O 0.70654 0.42413 0.3885 0.0
O114 O 0.73344 0.4773 0.40587 0.0
C115 C 0.74425 0.48603 0.46757 0.0
N116 N 0.7217 0.49556 0.45857 0.0
C117 C 0.72314 0.52064 0.50306 0.0
C118 C 0.74673 0.51149 0.51272 0.0
C119 C 0.75713 0.49388 0.49496 0.0
C120 C 0.71093 0.51181 0.47567 0.0
H121 H 0.75227 0.47249 0.45397 0.0
C122 C 0.73351 0.45274 0.39304 0.0
O123 O 0.63975 0.36271 0.38516 0.0
O124 O 0.66117 0.37368 0.42798 0.0
N125 N 0.6749 0.50747 0.43904 0.0
C126 C 0.6509 0.51317 0.4269 0.0
C127 C 0.63706 0.52969 0.44217 0.0
C128 C 0.64858 0.54085 0.46951 0.0
C129 C 0.67379 0.53531 0.48135 0.0
C130 C 0.68644 0.51849 0.46521 0.0
H131 H 0.6423 0.50513 0.40576 0.0
O132 O 0.61644 0.39991 0.42379 0.0
O133 O 0.66844 0.44312 0.43082 0.0
O134 O 0.64895 0.43323 0.37353 0.0
O135 O 0.68138 0.48815 0.38517 0.0
C136 C 0.68677 0.5457 0.50857 0.0
C137 C 0.71111 0.53802 0.51955 0.0
H138 H 0.75682 0.51763 0.53379 0.0
H139 H 0.77512 0.4865 0.50232 0.0
H140 H 0.61771 0.53398 0.43284 0.0
H141 H 0.63784 0.55357 0.48122 0.0
H142 H 0.67777 0.55913 0.52142 0.0
H143 H 0.72032 0.54548 0.54074 0.0
Mn144 Mn 0.28403 0.66271 0.55118 0.0
Mn145 Mn 0.23952 0.57895 0.53532 0.0
C146 C 0.23906 0.64214 0.51973 0.0
C147 C 0.32878 0.71817 0.5451 0.0
C148 C 0.22697 0.60847 0.58717 0.0
O149 O 0.31596 0.64619 0.56514 0.0
O150 O 0.2834 0.59095 0.55416 0.0
C151 C 0.28759 0.57957 0.49336 0.0
N152 N 0.2554 0.57198 0.5005 0.0
C153 C 0.23321 0.54722 0.45541 0.0
C154 C 0.26608 0.55457 0.44763 0.0
C155 C 0.29341 0.57096 0.46665 0.0
C156 C 0.22901 0.55661 0.48224 0.0
H157 H 0.30867 0.59208 0.50792 0.0
C158 C 0.31065 0.61597 0.56429 0.0
O159 O 0.31282 0.70816 0.56856 0.0
O160 O 0.31981 0.69552 0.52548 0.0
N161 N 0.19646 0.56274 0.51668 0.0
C162 C 0.16649 0.55817 0.52719 0.0
C163 C 0.13673 0.5426 0.51059 0.0
C164 C 0.1379 0.53123 0.48361 0.0
C165 C 0.16884 0.53548 0.47349 0.0
C166 C 0.19769 0.55126 0.49096 0.0
H167 H 0.16534 0.56651 0.54802 0.0
O168 O 0.24939 0.6708 0.53244 0.0
O169 O 0.25584 0.62645 0.52512 0.0
O170 O 0.25054 0.63886 0.58289 0.0
O171 O 0.22077 0.58378 0.57098 0.0
C172 C 0.17228 0.525 0.44666 0.0
C173 C 0.20449 0.53111 0.43754 0.0
H174 H 0.27065 0.5479 0.42707 0.0
H175 H 0.31888 0.57684 0.46077 0.0
H176 H 0.11292 0.53929 0.51859 0.0
H177 H 0.11493 0.51937 0.47083 0.0
H178 H 0.15038 0.51249 0.43276 0.0
H179 H 0.20689 0.52336 0.41672 0.0
Mn180 Mn 0.65575 0.27877 0.71963 0.0
Mn181 Mn 0.69795 0.238 0.70088 0.0
C182 C 0.63164 0.23481 0.68775 0.0
C183 C 0.6426 0.32194 0.71518 0.0
C184 C 0.65761 0.22289 0.75395 0.0
O185 O 0.70452 0.3117 0.73242 0.0
O186 O 0.72918 0.28126 0.72036 0.0
C187 C 0.74318 0.2881 0.65937 0.0
N188 N 0.71978 0.25563 0.66603 0.0
C189 C 0.72333 0.23572 0.62041 0.0
C190 C 0.74763 0.26891 0.6131 0.0
C191 C 0.75744 0.29524 0.63263 0.0
C192 C 0.70975 0.23021 0.64727 0.0
H193 H 0.75098 0.3084 0.67433 0.0
C194 C 0.73043 0.30765 0.73084 0.0
O195 O 0.63796 0.30575 0.73838 0.0
O196 O 0.65585 0.31375 0.69478 0.0
N197 N 0.67211 0.19585 0.6814 0.0
C198 C 0.64763 0.16541 0.69142 0.0
C199 C 0.63458 0.13652 0.67427 0.0
C200 C 0.64736 0.13906 0.64725 0.0
C201 C 0.67303 0.17051 0.63759 0.0
C202 C 0.68487 0.19846 0.65555 0.0
H203 H 0.63792 0.16323 0.71224 0.0
O204 O 0.61264 0.24348 0.70159 0.0
O205 O 0.66448 0.2525 0.69239 0.0
O206 O 0.64966 0.24587 0.75097 0.0
O207 O 0.67551 0.21753 0.73641 0.0
C208 C 0.68718 0.17529 0.61078 0.0
C209 C 0.71204 0.20791 0.60209 0.0
H210 H 0.75881 0.27449 0.59254 0.0
H211 H 0.77608 0.32094 0.62712 0.0
H212 H 0.6148 0.11233 0.6819 0.0
H213 H 0.63719 0.11673 0.63408 0.0
H214 H 0.67888 0.15408 0.59656 0.0
H215 H 0.72231 0.21133 0.58127 0.0
Mn216 Mn 0.42197 0.65973 0.90414 0.0
Mn217 Mn 0.37848 0.57602 0.91905 0.0
C218 C 0.44466 0.63742 0.93504 0.0
C219 C 0.4358 0.71585 0.91072 0.0
C220 C 0.42084 0.60401 0.86739 0.0
O221 O 0.37369 0.64535 0.89043 0.0
O222 O 0.34815 0.58991 0.90052 0.0
C223 C 0.33265 0.57925 0.96125 0.0
N224 N 0.35598 0.57011 0.95387 0.0
C225 C 0.3514 0.54409 -0.00167 0.0
C226 C 0.32718 0.55304 0.00637 0.0
C227 C 0.31792 0.57087 0.98779 0.0
C228 C 0.36549 0.55346 0.97173 0.0
H229 H 0.32529 0.59277 0.94699 0.0
C230 C 0.34754 0.61567 0.89086 0.0
O231 O 0.44049 0.70515 0.88703 0.0
O232 O 0.42176 0.6936 0.93034 0.0
N233 N 0.40356 0.55795 0.93731 0.0
C234 C 0.42779 0.5518 0.92658 0.0
C235 C 0.44023 0.53462 0.94272 0.0
C236 C 0.42706 0.5232 0.96943 0.0
C237 C 0.40153 0.52909 0.97976 0.0
C238 C 0.39031 0.54657 0.96281 0.0
H239 H 0.43765 0.56006 0.9059 0.0
O240 O 0.46432 0.66579 0.92259 0.0
O241 O 0.41202 0.62309 0.9297 0.0
O242 O 0.42928 0.63473 0.87199 0.0
O243 O 0.40152 0.57968 0.88339 0.0
C244 C 0.38688 0.51843 0.00626 0.0
C245 C 0.36212 0.52625 0.01566 0.0
H246 H 0.31562 0.54645 0.02677 0.0
H247 H 0.29933 0.57796 -0.00613 0.0
H248 H 0.45982 0.53003 0.93455 0.0
H249 H 0.43675 0.50999 0.98183 0.0
H250 H 0.39471 0.50447 0.0197 0.0
H251 H 0.35145 0.51838 0.03626 0.0
Mn252 Mn 0.7955 0.41337 0.06267 0.0
Mn253 Mn 0.83864 0.37181 0.07584 0.0
C254 C 0.84127 0.43608 0.09333 0.0
C255 C 0.75126 0.42471 0.0705 0.0
C256 C 0.85093 0.415 0.02496 0.0
O257 O 0.76259 0.36575 0.04803 0.0
O258 O 0.79382 0.34114 0.05787 0.0
C259 C 0.79141 0.32538 0.11841 0.0
N260 N 0.82358 0.34912 0.11069 0.0
C261 C 0.84688 0.34582 0.15501 0.0
C262 C 0.81405 0.32118 0.16337 0.0
C263 C 0.78618 0.31104 0.14503 0.0
C264 C 0.85048 0.35941 0.12831 0.0
H265 H 0.76991 0.31744 0.10437 0.0
C266 C 0.76678 0.34011 0.04839 0.0
O267 O 0.76685 0.43116 0.0468 0.0
O268 O 0.76057 0.41053 0.0894 0.0
N269 N 0.8825 0.39736 0.09355 0.0
C270 C 0.91245 0.42175 0.08245 0.0
C271 C 0.94276 0.43491 0.09828 0.0
C272 C 0.94213 0.42236 0.12508 0.0
C273 C 0.91119 0.39665 0.13578 0.0
C274 C 0.88178 0.38457 0.11907 0.0
H275 H 0.91319 0.43124 0.06174 0.0
O276 O 0.83106 0.45516 0.08178 0.0
O277 O 0.82378 0.40388 0.08743 0.0
O278 O 0.82819 0.42288 0.03033 0.0
O279 O 0.85656 0.39534 0.04013 0.0
C280 C 0.90831 0.38271 0.16244 0.0
C281 C 0.87614 0.35754 0.17215 0.0
H282 H 0.80993 0.30998 0.18386 0.0
H283 H 0.76074 0.29213 0.15137 0.0
H284 H 0.96658 0.45463 0.08982 0.0
H285 H 0.96553 0.43268 0.13728 0.0
H286 H 0.93065 0.39136 0.17576 0.0
H287 H 0.87419 0.34736 0.19285 0.0
Mn288 Mn 0.41747 0.79191 0.2302 0.0
Mn289 Mn 0.50232 0.83705 0.24486 0.0
C290 C 0.4389 0.83768 0.26038 0.0
C291 C 0.36162 0.74825 0.23827 0.0
C292 C 0.47111 0.84664 0.19234 0.0
O293 O 0.43409 0.75975 0.21762 0.0
O294 O 0.49015 0.79281 0.2277 0.0
C295 C 0.50346 0.79207 0.28869 0.0
N296 N 0.51041 0.82336 0.28036 0.0
C297 C 0.53605 0.84779 0.32477 0.0
C298 C 0.52935 0.81588 0.33378 0.0
C299 C 0.51284 0.78788 0.3157 0.0
C300 C 0.52587 0.85037 0.29771 0.0
H301 H 0.49089 0.77049 0.27485 0.0
C302 C 0.46476 0.76525 0.2185 0.0
O303 O 0.37091 0.76227 0.21402 0.0
O304 O 0.3853 0.75825 0.25737 0.0
N305 N 0.51843 0.88043 0.26192 0.0
C306 C 0.52222 0.9093 0.2503 0.0
C307 C 0.53775 0.93953 0.26587 0.0
C308 C 0.54985 0.93993 0.29298 0.0
C309 C 0.54634 0.91008 0.30427 0.0
C310 C 0.53051 0.88069 0.28782 0.0
H311 H 0.5133 0.90925 0.22936 0.0
O312 O 0.40977 0.82717 0.2478 0.0
O313 O 0.45459 0.82092 0.25534 0.0
O314 O 0.44056 0.82335 0.19723 0.0
O315 O 0.49638 0.85362 0.20851 0.0
C316 C 0.55774 0.90829 0.33126 0.0
C317 C 0.5523 0.87711 0.34161 0.0
H318 H 0.53664 0.81256 0.35457 0.0
H319 H 0.50747 0.76314 0.32253 0.0
H320 H 0.54048 0.96249 0.25697 0.0
H321 H 0.56173 0.96326 0.30496 0.0
H322 H 0.57038 0.93068 0.34436 0.0
H323 H 0.56068 0.87596 0.36257 0.0
H324 H 0.14149 0.60287 0.25867 0.0
H325 H 0.17089 0.68593 0.31624 0.0
H326 H 0.1994 0.63207 0.23907 0.0
H327 H 0.22842 0.71458 0.29714 0.0
H328 H 0.33385 0.72541 0.28936 0.0
H329 H 0.27345 0.69526 0.30142 0.0
H330 H 0.24576 0.68948 0.21454 0.0
H331 H 0.30656 0.72017 0.2023 0.0
C332 C 0.15996 0.62777 0.26652 0.0
C333 C 0.15182 0.642 0.28915 0.0
C334 C 0.19311 0.64432 0.25548 0.0
C335 C 0.21855 0.67516 0.26709 0.0
C336 C 0.20953 0.69048 0.28822 0.0
C337 C 0.17654 0.6742 0.299 0.0
C338 C 0.31499 0.71734 0.27273 0.0
C339 C 0.32506 0.72538 0.24488 0.0
C340 C 0.28038 0.7003 0.27967 0.0
C341 C 0.25497 0.69053 0.25894 0.0
C342 C 0.26485 0.69683 0.23092 0.0
C343 C 0.29962 0.71436 0.22396 0.0
H344 H 0.61018 0.15435 0.4607 0.0
H345 H 0.51085 0.14 0.4397 0.0
H346 H 0.63746 0.21099 0.44079 0.0
H347 H 0.5381 0.19705 0.41975 0.0
H348 H 0.60241 0.29853 0.37464 0.0
H349 H 0.5782 0.23808 0.38367 0.0
H350 H 0.6382 0.2622 0.45946 0.0
H351 H 0.66224 0.32241 0.45053 0.0
C352 C 0.59428 0.16304 0.45096 0.0
C353 C 0.55848 0.14291 0.4516 0.0
C354 C 0.60984 0.19556 0.43985 0.0
C355 C 0.58994 0.20873 0.42914 0.0
C356 C 0.55413 0.18757 0.42778 0.0
C357 C 0.53849 0.15489 0.43904 0.0
C358 C 0.61077 0.2909 0.39304 0.0
C359 C 0.63427 0.31529 0.41189 0.0
C360 C 0.59673 0.25628 0.39826 0.0
C361 C 0.60629 0.24533 0.42223 0.0
C362 C 0.6306 0.26977 0.4406 0.0
C363 C 0.6443 0.30432 0.43556 0.0
H364 H 0.42562 0.51504 0.60472 0.0
H365 H 0.48759 0.61663 0.63679 0.0
H366 H 0.38792 0.53182 0.58185 0.0
H367 H 0.44914 0.63294 0.61572 0.0
H368 H 0.38019 0.65889 0.56612 0.0
H369 H 0.42411 0.64469 0.57824 0.0
H370 H 0.34518 0.54248 0.59707 0.0
H371 H 0.30182 0.55634 0.58374 0.0
C372 C 0.43156 0.5411 0.60639 0.0
C373 C 0.4592 0.56436 0.62289 0.0
C374 C 0.40965 0.55066 0.59372 0.0
C375 C 0.4148 0.58358 0.59751 0.0
C376 C 0.44413 0.60743 0.61218 0.0
C377 C 0.46614 0.59799 0.62449 0.0
C378 C 0.37236 0.63349 0.57303 0.0
C379 C 0.33755 0.6088 0.57408 0.0
C380 C 0.39751 0.62524 0.57992 0.0
C381 C 0.38839 0.59224 0.58844 0.0
C382 C 0.35345 0.56785 0.58986 0.0
C383 C 0.32845 0.57594 0.58258 0.0
H384 H 0.94884 0.43226 0.76579 0.0
H385 H 0.90401 0.4893 0.79815 0.0
H386 H 0.89395 0.39199 0.74424 0.0
H387 H 0.84901 0.44841 0.77845 0.0
H388 H 0.75336 0.37566 0.7317 0.0
H389 H 0.81122 0.42146 0.74198 0.0
H390 H 0.84207 0.34788 0.76049 0.0
H391 H 0.78489 0.3025 0.74878 0.0
C392 C 0.92745 0.43657 0.76775 0.0
C393 C 0.93053 0.4636 0.78393 0.0
C394 C 0.89579 0.4132 0.75586 0.0
C395 C 0.86659 0.4163 0.76016 0.0
C396 C 0.87064 0.44498 0.77449 0.0
C397 C 0.90224 0.46843 0.786 0.0
C398 C 0.77253 0.36938 0.73815 0.0
C399 C 0.7645 0.33549 0.73964 0.0
C400 C 0.80579 0.39563 0.744 0.0
C401 C 0.83167 0.38858 0.75196 0.0
C402 C 0.8233 0.35453 0.75373 0.0
C403 C 0.79028 0.32839 0.74742 0.0
H404 H 0.49021 0.92871 0.92316 0.0
H405 H 0.55663 0.91462 0.9796 0.0
H406 H 0.46794 0.87092 0.90501 0.0
H407 H 0.53434 0.85714 0.96182 0.0
H408 H 0.44424 0.74756 0.96073 0.0
H409 H 0.47166 0.80824 0.96978 0.0
H410 H 0.48475 0.82768 0.88151 0.0
H411 H 0.45761 0.76666 0.87231 0.0
C412 C 0.50104 0.91377 0.93079 0.0
C413 C 0.52506 0.92595 0.95274 0.0
C414 C 0.48812 0.88067 0.92063 0.0
C415 C 0.49892 0.85943 0.93252 0.0
C416 C 0.52517 0.87282 0.95267 0.0
C417 C 0.5382 0.90578 0.9626 0.0
C418 C 0.45263 0.76466 0.94321 0.0
C419 C 0.44886 0.75231 0.91583 0.0
C420 C 0.46859 0.79942 0.9484 0.0
C421 C 0.48075 0.82261 0.92633 0.0
C422 C 0.47573 0.81031 0.89886 0.0
C423 C 0.4602 0.77545 0.89366 0.0
H424 H 0.66381 0.5501 0.1088 0.0
H425 H 0.58548 0.45024 0.13308 0.0
H426 H 0.69584 0.52576 0.08715 0.0
H427 H 0.61701 0.42588 0.11141 0.0
H428 H 0.70954 0.40858 0.11553 0.0
H429 H 0.67113 0.42968 0.12715 0.0
H430 H 0.69733 0.48644 0.05064 0.0
H431 H 0.73594 0.46527 0.03895 0.0
C432 C 0.65296 0.52289 0.10864 0.0
C433 C 0.62239 0.50201 0.12269 0.0
C434 C 0.67126 0.50894 0.09636 0.0
C435 C 0.65922 0.47394 0.09806 0.0
C436 C 0.62729 0.45297 0.11026 0.0
C437 C 0.60912 0.46685 0.12244 0.0
C438 C 0.70684 0.42524 0.10103 0.0
C439 C 0.72578 0.43523 0.07634 0.0
C440 C 0.68469 0.43722 0.1076 0.0
C441 C 0.68113 0.45969 0.08976 0.0
C442 C 0.69967 0.46931 0.06485 0.0
C443 C 0.7216 0.45701 0.05811 0.0
H444 H 0.41023 0.92997 0.51024 0.0
H445 H 0.49241 0.91258 0.48775 0.0
H446 H 0.37938 0.87331 0.53088 0.0
H447 H 0.46195 0.85635 0.50826 0.0
H448 H 0.37184 0.74561 0.50103 0.0
H449 H 0.40903 0.80542 0.49074 0.0
H450 H 0.37897 0.83265 0.56734 0.0
H451 H 0.34174 0.77262 0.57776 0.0
C452 C 0.42216 0.91449 0.51061 0.0
C453 C 0.45354 0.92547 0.49734 0.0
C454 C 0.40451 0.88204 0.52228 0.0
C455 C 0.41799 0.86014 0.5207 0.0
C456 C 0.45061 0.87233 0.50932 0.0
C457 C 0.46817 0.90461 0.49781 0.0
C458 C 0.37349 0.76431 0.51587 0.0
C459 C 0.35387 0.75434 0.5402 0.0
C460 C 0.3949 0.79861 0.51004 0.0
C461 C 0.39697 0.8238 0.52827 0.0
C462 C 0.37778 0.81385 0.55285 0.0
C463 C 0.35665 0.77947 0.55886 0.0
H464 H 0.61795 0.49218 0.6689 0.0
H465 H 0.51572 0.40943 0.68208 0.0
H466 H 0.64159 0.45895 0.68868 0.0
H467 H 0.53934 0.37587 0.70206 0.0
H468 H 0.59941 0.33213 0.74827 0.0
H469 H 0.57771 0.37103 0.74025 0.0
H470 H 0.63878 0.40733 0.66605 0.0
H471 H 0.6601 0.36836 0.67381 0.0
C472 C 0.60059 0.46728 0.67706 0.0
C473 C 0.56508 0.45333 0.67415 0.0
C474 C 0.61408 0.44815 0.68808 0.0
C475 C 0.59232 0.41465 0.69647 0.0
C476 C 0.55672 0.40168 0.69582 0.0
C477 C 0.54316 0.42087 0.68458 0.0
C478 C 0.60845 0.34869 0.73041 0.0
C479 C 0.63148 0.34721 0.71164 0.0
C480 C 0.5959 0.37081 0.72579 0.0
C481 C 0.60667 0.39232 0.70263 0.0
C482 C 0.63035 0.39138 0.6843 0.0
C483 C 0.64244 0.36893 0.68865 0.0
H484 H 0.17762 0.62569 0.81604 0.0
H485 H 0.13105 0.52495 0.84987 0.0
H486 H 0.23185 0.63946 0.83747 0.0
H487 H 0.18505 0.53932 0.87305 0.0
H488 H 0.29365 0.55691 0.87171 0.0
H489 H 0.23732 0.54604 0.8579 0.0
H490 H 0.26796 0.65038 0.87583 0.0
H491 H 0.32517 0.66153 0.88851 0.0
C492 C 0.17883 0.60673 0.82872 0.0
C493 C 0.15028 0.57399 0.83078 0.0
C494 C 0.20995 0.61473 0.84126 0.0
C495 C 0.21324 0.59033 0.85659 0.0
C496 C 0.18378 0.55847 0.86071 0.0
C497 C 0.15263 0.55033 0.84783 0.0
C498 C 0.28843 0.57761 0.87261 0.0
C499 C 0.31397 0.61016 0.88103 0.0
C500 C 0.25587 0.57125 0.86504 0.0
C501 C 0.24769 0.59716 0.86603 0.0
C502 C 0.27331 0.62982 0.8745 0.0
C503 C 0.30618 0.6363 0.88172 0.0
H504 H 0.58622 0.16826 0.97571 0.0
H505 H 0.64127 0.12447 0.01467 0.0
H506 H 0.62651 0.22315 -0.00444 0.0
H507 H 0.68059 0.17909 0.03613 0.0
H508 H 0.77187 0.28589 0.03156 0.0
H509 H 0.72626 0.2297 0.01901 0.0
H510 H 0.65181 0.26115 0.03303 0.0
H511 H 0.69801 0.31817 0.04462 0.0
C512 C 0.60649 0.17023 0.98917 0.0
C513 C 0.61098 0.14217 -0.00686 0.0
C514 C 0.62951 0.20174 0.00077 0.0
C515 C 0.65741 0.20592 0.01698 0.0
C516 C 0.66002 0.17709 0.02305 0.0
C517 C 0.63713 0.14556 0.01116 0.0
C518 C 0.74578 0.28092 0.03187 0.0
C519 C 0.73863 0.30662 0.03896 0.0
C520 C 0.71948 0.24845 0.02502 0.0
C521 C 0.68512 0.2405 0.02537 0.0
C522 C 0.67793 0.2663 0.03231 0.0
C523 C 0.70441 0.29906 0.03889 0.0
H524 H 0.46615 0.58885 0.15199 0.0
H525 H 0.56769 0.65053 0.18624 0.0
H526 H 0.44895 0.62714 0.17125 0.0
H527 H 0.55002 0.68825 0.20716 0.0
H528 H 0.52537 0.77338 0.20067 0.0
H529 H 0.53967 0.73019 0.18957 0.0
H530 H 0.43598 0.65259 0.20772 0.0
H531 H 0.42135 0.69632 0.21775 0.0
C532 C 0.48454 0.6102 0.16441 0.0
C533 C 0.51846 0.61708 0.16718 0.0
C534 C 0.47459 0.63213 0.17565 0.0
C535 C 0.49822 0.66138 0.19032 0.0
C536 C 0.53136 0.66654 0.19527 0.0
C537 C 0.54142 0.64465 0.18372 0.0
C538 C 0.50551 0.74709 0.20219 0.0
C539 C 0.47212 0.73832 0.20993 0.0
C540 C 0.51387 0.7222 0.19618 0.0
C541 C 0.48921 0.68768 0.19808 0.0
C542 C 0.45567 0.67886 0.20576 0.0
C543 C 0.44717 0.7039 0.21144 0.0
H544 H 0.90297 0.52932 0.28449 0.0
H545 H 0.94736 0.51075 0.35758 0.0
H546 H 0.84813 0.50546 0.30772 0.0
H547 H 0.89222 0.48799 0.38135 0.0
H548 H 0.796 0.49363 0.41649 0.0
H549 H 0.85196 0.51114 0.39675 0.0
H550 H 0.80338 0.44539 0.32594 0.0
H551 H 0.74698 0.42721 0.346 0.0
C552 C 0.90106 0.52013 0.30556 0.0
C553 C 0.92951 0.52141 0.31898 0.0
C554 C 0.86955 0.50638 0.3188 0.0
C555 C 0.86574 0.49419 0.34607 0.0
C556 C 0.89446 0.49696 0.36018 0.0
C557 C 0.92605 0.51028 0.34669 0.0
C558 C 0.79719 0.48237 0.39695 0.0
C559 C 0.76704 0.45914 0.38269 0.0
C560 C 0.82929 0.49235 0.38574 0.0
C561 C 0.83198 0.47983 0.35976 0.0
C562 C 0.80194 0.45558 0.34596 0.0
C563 C 0.76973 0.44503 0.35748 0.0
H564 H 0.11179 0.55257 0.37391 0.0
H565 H 0.10165 0.63926 0.39352 0.0
H566 H 0.14203 0.55969 0.41807 0.0
H567 H 0.13184 0.64649 0.43784 0.0
H568 H 0.17733 0.63859 0.52229 0.0
H569 H 0.13457 0.62188 0.48469 0.0
H570 H 0.20152 0.60765 0.42948 0.0
H571 H 0.24398 0.62449 0.46694 0.0
C572 C 0.11474 0.57218 0.38834 0.0
C573 C 0.10419 0.59514 0.38074 0.0
C574 C 0.13236 0.57652 0.41338 0.0
C575 C 0.13964 0.60388 0.43116 0.0
C576 C 0.12641 0.62508 0.4246 0.0
C577 C 0.10901 0.62089 0.39939 0.0
C578 C 0.18257 0.63161 0.50209 0.0
C579 C 0.21314 0.63145 0.49757 0.0
C580 C 0.15824 0.6221 0.48069 0.0
C581 C 0.16443 0.61273 0.45441 0.0
C582 C 0.19563 0.61377 0.44976 0.0
C583 C 0.2199 0.62336 0.4711 0.0
H584 H 0.6024 0.11648 0.53991 0.0
H585 H 0.50009 0.09297 0.5603 0.0
H586 H 0.62351 0.14733 0.58376 0.0
H587 H 0.52122 0.12416 0.60446 0.0
H588 H 0.57478 0.17234 0.68924 0.0
H589 H 0.55028 0.13103 0.65083 0.0
H590 H 0.62917 0.20224 0.59636 0.0
H591 H 0.65341 0.24297 0.63466 0.0
C592 C 0.58433 0.1169 0.5544 0.0
C593 C 0.54972 0.1023 0.54709 0.0
C594 C 0.59641 0.13484 0.57933 0.0
C595 C 0.57415 0.13863 0.59732 0.0
C596 C 0.53895 0.12158 0.59103 0.0
C597 C 0.52681 0.10361 0.56593 0.0
C598 C 0.58676 0.17885 0.66899 0.0
C599 C 0.61663 0.21007 0.66494 0.0
C600 C 0.57278 0.15537 0.6471 0.0
C601 C 0.58828 0.16311 0.6208 0.0
C602 C 0.61727 0.19511 0.6166 0.0
C603 C 0.63116 0.21843 0.63844 0.0
H604 H 0.51427 0.61539 0.7102 0.0
H605 H 0.48013 0.51262 0.73497 0.0
H606 H 0.49943 0.62742 0.75552 0.0
H607 H 0.46693 0.52507 0.78133 0.0
H608 H 0.39663 0.54414 0.83902 0.0
H609 H 0.42242 0.53265 0.79911 0.0
H610 H 0.50754 0.63525 0.80338 0.0
H611 H 0.48079 0.64707 0.84219 0.0
C612 C 0.50456 0.59566 0.72577 0.0
C613 C 0.49776 0.56293 0.71897 0.0
C614 C 0.49622 0.60259 0.7519 0.0
C615 C 0.48134 0.57703 0.77204 0.0
C616 C 0.47751 0.54509 0.76606 0.0
C617 C 0.4856 0.53808 0.7397 0.0
C618 C 0.42079 0.5642 0.83132 0.0
C619 C 0.43631 0.59667 0.84333 0.0
C620 C 0.43587 0.55753 0.80867 0.0
C621 C 0.46712 0.58305 0.79789 0.0
C622 C 0.48314 0.61518 0.81067 0.0
C623 C 0.46777 0.62199 0.83292 0.0
H624 H 1.0051 0.48418 0.89435 0.0
H625 H 0.93505 0.51853 0.87171 0.0
H626 H 0.97842 0.46757 0.94016 0.0
H627 H 0.90726 0.50056 0.9164 0.0
H628 H 0.86673 0.47542 0.00205 0.0
H629 H 0.90603 0.50483 0.9644 0.0
H630 H 0.9262 0.42208 0.95632 0.0
H631 H 0.88816 0.39355 -0.00481 0.0
C632 C 0.98467 0.48907 0.89953 0.0
C633 C 0.97189 0.50234 0.87953 0.0
C634 C 0.96894 0.47901 0.92553 0.0
C635 C 0.94012 0.48197 0.93185 0.0
C636 C 0.92942 0.49798 0.91255 0.0
C637 C 0.94528 0.50823 0.8868 0.0
C638 C 0.87947 0.46344 -0.00783 0.0
C639 C 0.87388 0.43186 0.00125 0.0
C640 C 0.90211 0.48036 0.97057 0.0
C641 C 0.91925 0.46584 0.95706 0.0
C642 C 0.91398 0.4344 0.96646 0.0
C643 C 0.89179 0.41775 0.98849 0.0
H644 H 0.55792 1.00066 0.06303 0.0
H645 H 0.45891 0.92425 0.03237 0.0
H646 H 0.54449 0.97402 0.10893 0.0
H647 H 0.44595 0.89669 0.07731 0.0
H648 H 0.42428 0.85601 0.16351 0.0
H649 H 0.43433 0.89384 0.12469 0.0
H650 H 0.54168 0.92428 0.12659 0.0
H651 H 0.53178 0.88761 0.16634 0.0
C652 C 0.5329 0.9788 0.06641 0.0
C653 C 0.50952 0.96431 0.04423 0.0
C654 C 0.52539 0.96313 0.0925 0.0
C655 C 0.49444 0.93267 0.09674 0.0
C656 C 0.46996 0.9201 0.07507 0.0
C657 C 0.47737 0.93586 0.0492 0.0
C658 C 0.45002 0.8707 0.15558 0.0
C659 C 0.47716 0.86842 0.16778 0.0
C660 C 0.45582 0.8925 0.13332 0.0
C661 C 0.48883 0.91221 0.12235 0.0
C662 C 0.51602 0.91008 0.13475 0.0
C663 C 0.51029 0.88865 0.15732 0.0
H664 H 0.56961 0.45745 0.21045 0.0
H665 H 0.61093 0.56213 0.23398 0.0
H666 H 0.58341 0.4452 0.25621 0.0
H667 H 0.62342 0.54968 0.28079 0.0
H668 H 0.68859 0.52448 0.34086 0.0
H669 H 0.66515 0.53812 0.30022 0.0
H670 H 0.57438 0.43923 0.30401 0.0
H671 H 0.5986 0.42516 0.34353 0.0
C672 C 0.58074 0.47764 0.22584 0.0
C673 C 0.58962 0.5108 0.21863 0.0
C674 C 0.58851 0.47062 0.25221 0.0
C675 C 0.60501 0.49655 0.27222 0.0
C676 C 0.6114 0.52927 0.26569 0.0
C677 C 0.60377 0.53634 0.23908 0.0
C678 C 0.66365 0.50572 0.33293 0.0
C679 C 0.64579 0.47351 0.34499 0.0
C680 C 0.64998 0.51365 0.30983 0.0
C681 C 0.61788 0.48971 0.29864 0.0
C682 C 0.59948 0.45803 0.31158 0.0
C683 C 0.6134 0.44993 0.33426 0.0
H684 H 0.52606 0.952 0.4114 0.0
H685 H 0.45043 0.97851 0.38738 0.0
H686 H 0.51771 0.92242 0.36725 0.0
H687 H 0.44145 0.94838 0.34303 0.0
H688 H 0.45439 0.82963 0.31297 0.0
H689 H 0.47099 0.86951 0.35169 0.0
H690 H 0.46169 0.94059 0.29821 0.0
H691 H 0.4441 0.89974 0.25951 0.0
C692 C 0.50854 0.95244 0.39609 0.0
C693 C 0.48899 0.96751 0.40248 0.0
C694 C 0.50346 0.93523 0.37094 0.0
C695 C 0.47852 0.93253 0.35178 0.0
C696 C 0.46096 0.95009 0.35726 0.0
C697 C 0.46615 0.96745 0.38253 0.0
C698 C 0.4563 0.85396 0.30952 0.0
C699 C 0.44922 0.86231 0.28325 0.0
C700 C 0.46592 0.87688 0.3316 0.0
C701 C 0.46849 0.90863 0.32787 0.0
C702 C 0.46014 0.91645 0.30169 0.0
C703 C 0.4502 0.89324 0.27959 0.0
H704 H 0.51222 0.4546 0.56176 0.0
H705 H 0.6169 0.51854 0.58823 0.0
H706 H 0.53172 0.4416 0.5184 0.0
H707 H 0.63655 0.50592 0.54537 0.0
H708 H 0.65924 0.44004 0.48984 0.0
H709 H 0.63778 0.45816 0.52873 0.0
H710 H 0.56074 0.45802 0.47462 0.0
H711 H 0.58178 0.43844 0.43593 0.0
C712 C 0.53939 0.46695 0.55766 0.0
C713 C 0.56316 0.48771 0.57801 0.0
C714 C 0.55063 0.4594 0.53297 0.0
C715 C 0.5858 0.47241 0.52845 0.0
C716 C 0.60937 0.49519 0.54812 0.0
C717 C 0.59818 0.50275 0.5726 0.0
C718 C 0.63785 0.44412 0.48635 0.0
C719 C 0.62277 0.43904 0.45992 0.0
C720 C 0.6256 0.45465 0.50853 0.0
C721 C 0.59799 0.46039 0.5047 0.0
C722 C 0.58206 0.45395 0.47831 0.0
C723 C 0.59412 0.44291 0.45617 0.0
H724 H 0.07505 0.52192 0.71933 0.0
H725 H 0.14627 0.62492 0.74381 0.0
H726 H 0.1008 0.53288 0.67308 0.0
H727 H 0.17321 0.6355 0.69868 0.0
H728 H 0.21217 0.65294 0.61241 0.0
H729 H 0.1737 0.64258 0.651 0.0
H730 H 0.15212 0.5391 0.65506 0.0
H731 H 0.18925 0.54915 0.6153 0.0
C732 C 0.0956 0.54713 0.71454 0.0
C733 C 0.10894 0.57249 0.73515 0.0
C734 C 0.11079 0.55329 0.68824 0.0
C735 C 0.13965 0.58487 0.68222 0.0
C736 C 0.15099 0.61093 0.70227 0.0
C737 C 0.13566 0.60486 0.7283 0.0
C738 C 0.19923 0.62798 0.62159 0.0
C739 C 0.20417 0.602 0.61113 0.0
C740 C 0.1771 0.622 0.64374 0.0
C741 C 0.15986 0.59005 0.65643 0.0
C742 C 0.16442 0.56388 0.64561 0.0
C743 C 0.18608 0.56972 0.62303 0.0
H744 H 0.61854 0.08587 0.89179 0.0
H745 H 0.53979 0.11241 0.89816 0.0
H746 H 0.63666 0.11559 0.84757 0.0
H747 H 0.55647 0.14079 0.85318 0.0
H748 H 0.62813 0.23135 0.80056 0.0
H749 H 0.60312 0.19281 0.83933 0.0
H750 H 0.6283 0.12279 0.80015 0.0
H751 H 0.65481 0.16215 0.76196 0.0
C752 C 0.6041 0.09674 0.88293 0.0
C753 C 0.57766 0.09672 0.89803 0.0
C754 C 0.61452 0.11393 0.85765 0.0
C755 C 0.59848 0.13123 0.84698 0.0
C756 C 0.57002 0.12857 0.86111 0.0
C757 C 0.55998 0.11181 0.88658 0.0
C758 C 0.62845 0.20779 0.80023 0.0
C759 C 0.64358 0.19995 0.77813 0.0
C760 C 0.61367 0.1854 0.82234 0.0
C761 C 0.61321 0.15435 0.82278 0.0
C762 C 0.62839 0.14653 0.80067 0.0
C763 C 0.64358 0.16915 0.77871 0.0
H764 H 0.46876 0.54071 0.07979 0.0
H765 H 0.57209 0.61637 0.05985 0.0
H766 H 0.44852 0.55211 0.03626 0.0
H767 H 0.5519 0.62821 0.01612 0.0
H768 H 0.5005 0.62968 0.93263 0.0
H769 H 0.52329 0.60955 0.96989 0.0
H770 H 0.44436 0.60193 0.02486 0.0
H771 H 0.42169 0.62148 0.98761 0.0
C772 C 0.48722 0.55876 0.06541 0.0
C773 C 0.52189 0.57748 0.0728 0.0
C774 C 0.47565 0.56561 0.04067 0.0
C775 C 0.49849 0.59143 0.02299 0.0
C776 C 0.53369 0.60809 0.02927 0.0
C777 C 0.54531 0.60121 0.05414 0.0
C778 C 0.48813 0.62347 0.95273 0.0
C779 C 0.45869 0.62576 0.95718 0.0
C780 C 0.50112 0.61205 0.97398 0.0
C781 C 0.48512 0.60338 8e-05 0.0
C782 C 0.4566 0.60733 0.00472 0.0
C783 C 0.44363 0.61856 0.9835 0.0
H784 H 0.99066 0.56714 0.21458 0.0
H785 H 0.96645 0.4668 0.23873 0.0
H786 H 0.9594 0.54467 0.17073 0.0
H787 H 0.9358 0.44421 0.19479 0.0
H788 H 0.83684 0.41379 0.14594 0.0
H789 H 0.88057 0.43753 0.18245 0.0
H790 H 0.94907 0.51523 0.12593 0.0
H791 H 0.90457 0.49149 0.08953 0.0
C792 C 0.98018 0.54054 0.20973 0.0
C793 C 0.98097 0.51861 0.22971 0.0
C794 C 0.96209 0.52759 0.18475 0.0
C795 C 0.94452 0.49252 0.17957 0.0
C796 C 0.94854 0.47121 0.19841 0.0
C797 C 0.96648 0.48414 0.22335 0.0
C798 C 0.86144 0.43566 0.14133 0.0
C799 C 0.86803 0.45022 0.11487 0.0
C800 C 0.88654 0.44921 0.16212 0.0
C801 C 0.91865 0.47779 0.15686 0.0
C802 C 0.92473 0.49305 0.13052 0.0
C803 C 0.89941 0.47953 0.10975 0.0
loop_
_geom_bond_atom_site_label_1
_geom_bond_atom_site_label_2
_geom_bond_distance
_geom_bond_site_symmetry_2
_ccdc_geom_bond_type
H0 C6 0.930 . S
H1 C9 0.931 . S
H2 C11 0.931 . S
H3 C13 0.930 . S
H4 C15 0.930 . S
H5 C17 0.931 . S
C6 H0 0.930 . S
C6 C7 1.380 . S
C6 C8 1.394 . S
C7 C6 1.380 . S
C7 C11 1.382 . S
C8 C6 1.394 . S
C8 C9 1.400 . S
C9 H1 0.931 . S
C9 C8 1.400 . S
C9 C10 1.375 . S
C10 C9 1.375 . S
C10 C11 1.415 . S
C10 C12 1.501 1_455 S
C11 H2 0.931 . S
C11 C7 1.382 . S
C11 C10 1.415 . S
C12 C10 1.501 1_655 S
C12 C13 1.384 . S
C12 C17 1.408 . S
C13 H3 0.930 . S
C13 C12 1.384 . S
C13 C14 1.389 . S
C14 C13 1.389 . S
C14 C15 1.405 . S
C15 H4 0.930 . S
C15 C14 1.405 . S
C15 C16 1.364 . S
C16 C15 1.364 . S
C16 C17 1.400 . S
C17 H5 0.931 . S
C17 C12 1.408 . S
C17 C16 1.400 . S
H18 C24 0.930 . S
H19 C27 0.931 . S
H20 C29 0.931 . S
H21 C31 0.930 . S
H22 C33 0.930 . S
H23 C35 0.931 1_545 S
C24 H18 0.930 . S
C24 C25 1.380 . S
C24 C26 1.394 . S
C25 C24 1.380 . S
C25 C29 1.382 . S
C26 C24 1.394 . S
C26 C27 1.400 . S
C27 H19 0.931 . S
C27 C26 1.400 . S
C27 C28 1.375 . S
C28 C27 1.375 . S
C28 C29 1.415 . S
C28 C30 1.501 1_545 S
C29 H20 0.931 . S
C29 C25 1.382 . S
C29 C28 1.415 . S
C30 C28 1.501 1_565 S
C30 C31 1.384 . S
C30 C35 1.408 . S
C31 H21 0.930 . S
C31 C30 1.384 . S
C31 C32 1.389 . S
C32 C31 1.389 . S
C32 C33 1.405 . S
C33 H22 0.930 . S
C33 C32 1.405 . S
C33 C34 1.364 . S
C34 C33 1.364 . S
C34 C35 1.400 . S
C35 H23 0.931 1_565 S
C35 C30 1.408 . S
C35 C34 1.400 . S
H36 C42 0.930 . S
H37 C45 0.931 . S
H38 C47 0.931 . S
H39 C49 0.930 . S
H40 C51 0.930 . S
H41 C53 0.931 . S
C42 H36 0.930 . S
C42 C43 1.380 . S
C42 C44 1.394 . S
C43 C42 1.380 . S
C43 C47 1.382 . S
C44 C42 1.394 . S
C44 C45 1.400 . S
C45 H37 0.931 . S
C45 C44 1.400 . S
C45 C46 1.375 . S
C46 C45 1.375 . S
C46 C47 1.415 . S
C46 C48 1.501 . S
C47 H38 0.931 . S
C47 C43 1.382 . S
C47 C46 1.415 . S
C48 C46 1.501 . S
C48 C49 1.384 . S
C48 C53 1.408 . S
C49 H39 0.930 . S
C49 C48 1.384 . S
C49 C50 1.389 . S
C50 C49 1.389 . S
C50 C51 1.405 . S
C51 H40 0.930 . S
C51 C50 1.405 . S
C51 C52 1.364 . S
C52 C51 1.364 . S
C52 C53 1.400 . S
C53 H41 0.931 . S
C53 C48 1.408 . S
C53 C52 1.400 . S
H54 C60 0.930 . S
H55 C63 0.931 . S
H56 C65 0.931 . S
H57 C67 0.930 . S
H58 C69 0.930 . S
H59 C71 0.948 . S
C60 H54 0.930 . S
C60 C61 1.380 . S
C60 C62 1.394 . S
C61 C60 1.380 . S
C61 C65 1.382 . S
C62 C60 1.394 . S
C62 C63 1.400 . S
C63 H55 0.931 . S
C63 C62 1.400 . S
C63 C64 1.375 . S
C64 C63 1.375 . S
C64 C65 1.415 . S
C64 C66 1.501 1_455 S
C65 H56 0.931 . S
C65 C61 1.382 . S
C65 C64 1.415 . S
C66 C64 1.501 1_655 S
C66 C67 1.384 . S
C66 C71 1.408 . S
C67 H57 0.930 . S
C67 C66 1.384 . S
C67 C68 1.389 . S
C68 C67 1.389 . S
C68 C69 1.405 . S
C69 H58 0.930 . S
C69 C68 1.405 . S
C69 C70 1.364 . S
C70 C69 1.364 . S
C70 C71 1.400 . S
C71 H59 0.948 . S
C71 C66 1.408 . S
C71 C70 1.400 . S
H72 C78 0.930 . S
H73 C81 0.931 . S
H74 C83 0.931 1_545 S
H75 C85 0.930 . S
H76 C87 0.930 . S
H77 C89 0.931 . S
C78 H72 0.930 . S
C78 C79 1.380 . S
C78 C80 1.394 1_554 S
C79 C78 1.380 . S
C79 C83 1.382 . S
C80 C78 1.394 1_556 S
C80 C81 1.400 . S
C81 H73 0.931 . S
C81 C80 1.400 . S
C81 C82 1.375 . S
C82 C81 1.375 . S
C82 C83 1.415 1_556 S
C82 C84 1.501 1_565 S
C83 H74 0.931 1_565 S
C83 C79 1.382 . S
C83 C82 1.415 1_554 S
C84 C82 1.501 1_545 S
C84 C85 1.384 1_556 S
C84 C89 1.408 . S
C85 H75 0.930 . S
C85 C84 1.384 1_554 S
C85 C86 1.389 1_554 S
C86 C85 1.389 1_556 S
C86 C87 1.405 . S
C87 H76 0.930 . S
C87 C86 1.405 . S
C87 C88 1.364 . S
C88 C87 1.364 . S
C88 C89 1.400 . S
C89 H77 0.931 . S
C89 C84 1.408 . S
C89 C88 1.400 . S
H90 C96 0.930 . S
H91 C99 0.931 . S
H92 C101 0.931 . S
H93 C103 0.930 . S
H94 C105 0.930 . S
H95 C107 0.931 . S
C96 H90 0.930 . S
C96 C97 1.380 . S
C96 C98 1.394 . S
C97 C96 1.380 . S
C97 C101 1.382 . S
C98 C96 1.394 . S
C98 C99 1.400 . S
C99 H91 0.931 . S
C99 C98 1.400 . S
C99 C100 1.375 . S
C100 C99 1.375 . S
C100 C101 1.415 . S
C100 C102 1.501 . S
C101 H92 0.931 . S
C101 C97 1.382 . S
C101 C100 1.415 . S
C102 C100 1.501 . S
C102 C103 1.384 . S
C102 C107 1.408 . S
C103 H93 0.930 . S
C103 C102 1.384 . S
C103 C104 1.389 . S
C104 C103 1.389 . S
C104 C105 1.405 . S
C105 H94 0.930 . S
C105 C104 1.405 . S
C105 C106 1.364 . S
C106 C105 1.364 . S
C106 C107 1.400 . S
C107 H95 0.931 . S
C107 C102 1.408 . S
C107 C106 1.400 . S
Mn108 O113 2.095 . S
Mn108 O123 2.162 . S
Mn108 O124 2.297 . S
Mn108 O132 2.385 . S
Mn108 O133 2.209 . S
Mn108 O134 2.094 . S
Mn109 O114 2.121 . S
Mn109 N116 2.257 . S
Mn109 N125 2.282 . S
Mn109 O133 2.215 . S
Mn109 O135 2.117 . S
C110 O132 1.234 . S
C110 O133 1.283 . S
C111 O123 1.281 . S
C111 O124 1.236 . S
C112 O134 1.240 . S
C112 O135 1.264 . S
O113 Mn108 2.095 . S
O113 C122 1.250 . S
O114 Mn109 2.121 . S
O114 C122 1.258 . S
C115 N116 1.326 . S
C115 C119 1.460 . S
C115 H121 0.929 . S
N116 Mn109 2.257 . S
N116 C115 1.326 . S
N116 C120 1.362 . S
C117 C118 1.258 . S
C117 C120 1.431 . S
C117 C137 1.449 . S
C118 C117 1.258 . S
C118 C119 1.477 . S
C118 H138 0.931 . S
C119 C115 1.460 . S
C119 C118 1.477 . S
C119 H139 0.930 . S
C120 N116 1.362 . S
C120 C117 1.431 . S
C120 C130 1.476 . S
H121 C115 0.929 . S
C122 O113 1.250 . S
C122 O114 1.258 . S
O123 Mn108 2.162 . S
O123 C111 1.281 . S
O124 Mn108 2.297 . S
O124 C111 1.236 . S
N125 Mn109 2.282 . S
N125 C126 1.328 . S
N125 C130 1.318 . S
C126 N125 1.328 . S
C126 C127 1.457 . S
C126 H131 0.929 . S
C127 C126 1.457 . S
C127 C128 1.291 . S
C127 H140 0.931 . S
C128 C127 1.291 . S
C128 C129 1.373 . S
C128 H141 0.929 . S
C129 C128 1.373 . S
C129 C130 1.396 . S
C129 C136 1.403 . S
C130 C120 1.476 . S
C130 N125 1.318 . S
C130 C129 1.396 . S
H131 C126 0.929 . S
O132 Mn108 2.385 . S
O132 C110 1.234 . S
O133 Mn108 2.209 . S
O133 Mn109 2.215 . S
O133 C110 1.283 . S
O134 Mn108 2.094 . S
O134 C112 1.240 . S
O135 Mn109 2.117 . S
O135 C112 1.264 . S
C136 C129 1.403 . S
C136 C137 1.399 . S
C136 H142 0.929 . S
C137 C117 1.449 . S
C137 C136 1.399 . S
C137 H143 0.930 . S
H138 C118 0.931 . S
H139 C119 0.930 . S
H140 C127 0.931 . S
H141 C128 0.929 . S
H142 C136 0.929 . S
H143 C137 0.930 . S
Mn144 O149 2.095 . S
Mn144 O159 2.162 . S
Mn144 O160 2.297 . S
Mn144 O168 2.385 . S
Mn144 O169 2.209 . S
Mn144 O170 2.094 . S
Mn145 O150 2.121 . S
Mn145 N152 2.257 . S
Mn145 N161 2.282 . S
Mn145 O169 2.215 . S
Mn145 O171 2.117 . S
C146 O168 1.234 . S
C146 O169 1.283 . S
C147 O159 1.281 . S
C147 O160 1.236 . S
C148 O170 1.240 . S
C148 O171 1.264 . S
O149 Mn144 2.095 . S
O149 C158 1.250 . S
O150 Mn145 2.121 . S
O150 C158 1.258 . S
C151 N152 1.326 . S
C151 C155 1.460 . S
C151 H157 0.929 . S
N152 Mn145 2.257 . S
N152 C151 1.326 . S
N152 C156 1.362 . S
C153 C154 1.258 . S
C153 C156 1.431 . S
C153 C173 1.449 . S
C154 C153 1.258 . S
C154 C155 1.477 . S
C154 H174 0.931 . S
C155 C151 1.460 . S
C155 C154 1.477 . S
C155 H175 0.930 . S
C156 N152 1.362 . S
C156 C153 1.431 . S
C156 C166 1.476 . S
H157 C151 0.929 . S
C158 O149 1.250 . S
C158 O150 1.258 . S
O159 Mn144 2.162 . S
O159 C147 1.281 . S
O160 Mn144 2.297 . S
O160 C147 1.236 . S
N161 Mn145 2.282 . S
N161 C162 1.328 . S
N161 C166 1.318 . S
C162 N161 1.328 . S
C162 C163 1.457 . S
C162 H167 0.929 . S
C163 C162 1.457 . S
C163 C164 1.291 . S
C163 H176 0.931 . S
C164 C163 1.291 . S
C164 C165 1.373 . S
C164 H177 0.929 . S
C165 C164 1.373 . S
C165 C166 1.396 . S
C165 C172 1.403 . S
C166 C156 1.476 . S
C166 N161 1.318 . S
C166 C165 1.396 . S
H167 C162 0.929 . S
O168 Mn144 2.385 . S
O168 C146 1.234 . S
O169 Mn144 2.209 . S
O169 Mn145 2.215 . S
O169 C146 1.283 . S
O170 Mn144 2.094 . S
O170 C148 1.240 . S
O171 Mn145 2.117 . S
O171 C148 1.264 . S
C172 C165 1.403 . S
C172 C173 1.399 . S
C172 H178 0.929 . S
C173 C153 1.449 . S
C173 C172 1.399 . S
C173 H179 0.930 . S
H174 C154 0.931 . S
H175 C155 0.930 . S
H176 C163 0.931 . S
H177 C164 0.929 . S
H178 C172 0.929 . S
H179 C173 0.930 . S
Mn180 O185 2.095 . S
Mn180 O195 2.162 . S
Mn180 O196 2.297 . S
Mn180 O204 2.385 . S
Mn180 O205 2.209 . S
Mn180 O206 2.094 . S
Mn181 O186 2.121 . S
Mn181 N188 2.257 . S
Mn181 N197 2.282 . S
Mn181 O205 2.215 . S
Mn181 O207 2.117 . S
C182 O204 1.234 . S
C182 O205 1.283 . S
C183 O195 1.281 . S
C183 O196 1.236 . S
C184 O206 1.240 . S
C184 O207 1.264 . S
O185 Mn180 2.095 . S
O185 C194 1.250 . S
O186 Mn181 2.121 . S
O186 C194 1.258 . S
C187 N188 1.326 . S
C187 C191 1.460 . S
C187 H193 0.929 . S
N188 Mn181 2.257 . S
N188 C187 1.326 . S
N188 C192 1.362 . S
C189 C190 1.258 . S
C189 C192 1.431 . S
C189 C209 1.449 . S
C190 C189 1.258 . S
C190 C191 1.477 . S
C190 H210 0.931 . S
C191 C187 1.460 . S
C191 C190 1.477 . S
C191 H211 0.930 . S
C192 N188 1.362 . S
C192 C189 1.431 . S
C192 C202 1.476 . S
H193 C187 0.929 . S
C194 O185 1.250 . S
C194 O186 1.258 . S
O195 Mn180 2.162 . S
O195 C183 1.281 . S
O196 Mn180 2.297 . S
O196 C183 1.236 . S
N197 Mn181 2.282 . S
N197 C198 1.328 . S
N197 C202 1.318 . S
C198 N197 1.328 . S
C198 C199 1.457 . S
C198 H203 0.929 . S
C199 C198 1.457 . S
C199 C200 1.291 . S
C199 H212 0.931 . S
C200 C199 1.291 . S
C200 C201 1.373 . S
C200 H213 0.929 . S
C201 C200 1.373 . S
C201 C202 1.396 . S
C201 C208 1.403 . S
C202 C192 1.476 . S
C202 N197 1.318 . S
C202 C201 1.396 . S
H203 C198 0.929 . S
O204 Mn180 2.385 . S
O204 C182 1.234 . S
O205 Mn180 2.209 . S
O205 Mn181 2.215 . S
O205 C182 1.283 . S
O206 Mn180 2.094 . S
O206 C184 1.240 . S
O207 Mn181 2.117 . S
O207 C184 1.264 . S
C208 C201 1.403 . S
C208 C209 1.399 . S
C208 H214 0.929 . S
C209 C189 1.449 . S
C209 C208 1.399 . S
C209 H215 0.930 . S
H210 C190 0.931 . S
H211 C191 0.930 . S
H212 C199 0.931 . S
H213 C200 0.929 . S
H214 C208 0.929 . S
H215 C209 0.930 . S
Mn216 O221 2.095 . S
Mn216 O231 2.162 . S
Mn216 O232 2.297 . S
Mn216 O240 2.385 . S
Mn216 O241 2.209 . S
Mn216 O242 2.094 . S
Mn217 O222 2.121 . S
Mn217 N224 2.257 . S
Mn217 N233 2.282 . S
Mn217 O241 2.215 . S
Mn217 O243 2.117 . S
C218 O240 1.234 . S
C218 O241 1.283 . S
C219 O231 1.281 . S
C219 O232 1.236 . S
C220 O242 1.240 . S
C220 O243 1.264 . S
O221 Mn216 2.095 . S
O221 C230 1.250 . S
O222 Mn217 2.121 . S
O222 C230 1.258 . S
C223 N224 1.326 . S
C223 C227 1.460 . S
C223 H229 0.929 . S
N224 Mn217 2.257 . S
N224 C223 1.326 . S
N224 C228 1.362 . S
C225 C226 1.258 . S
C225 C228 1.431 . S
C225 C245 1.449 . S
C226 C225 1.258 . S
C226 C227 1.477 . S
C226 H246 0.931 1_556 S
C227 C223 1.460 . S
C227 C226 1.477 . S
C227 H247 0.930 . S
C228 N224 1.362 . S
C228 C225 1.431 . S
C228 C238 1.476 . S
H229 C223 0.929 . S
C230 O221 1.250 . S
C230 O222 1.258 . S
O231 Mn216 2.162 . S
O231 C219 1.281 . S
O232 Mn216 2.297 . S
O232 C219 1.236 . S
N233 Mn217 2.282 . S
N233 C234 1.328 . S
N233 C238 1.318 . S
C234 N233 1.328 . S
C234 C235 1.457 . S
C234 H239 0.929 . S
C235 C234 1.457 . S
C235 C236 1.291 . S
C235 H248 0.931 . S
C236 C235 1.291 . S
C236 C237 1.373 . S
C236 H249 0.929 . S
C237 C236 1.373 . S
C237 C238 1.396 . S
C237 C244 1.403 . S
C238 C228 1.476 . S
C238 N233 1.318 . S
C238 C237 1.396 . S
H239 C234 0.929 . S
O240 Mn216 2.385 . S
O240 C218 1.234 . S
O241 Mn216 2.209 . S
O241 Mn217 2.215 . S
O241 C218 1.283 . S
O242 Mn216 2.094 . S
O242 C220 1.240 . S
O243 Mn217 2.117 . S
O243 C220 1.264 . S
C244 C237 1.403 . S
C244 C245 1.399 . S
C244 H250 0.929 . S
C245 C225 1.449 . S
C245 C244 1.399 . S
C245 H251 0.930 1_556 S
H246 C226 0.931 1_554 S
H247 C227 0.930 . S
H248 C235 0.931 . S
H249 C236 0.929 . S
H250 C244 0.929 . S
H251 C245 0.930 1_554 S
Mn252 O257 2.095 . S
Mn252 O267 2.162 . S
Mn252 O268 2.297 . S
Mn252 O276 2.385 . S
Mn252 O277 2.209 . S
Mn252 O278 2.094 . S
Mn253 O258 2.121 . S
Mn253 N260 2.257 . S
Mn253 N269 2.282 . S
Mn253 O277 2.215 . S
Mn253 O279 2.117 . S
C254 O276 1.234 . S
C254 O277 1.283 . S
C255 O267 1.281 . S
C255 O268 1.236 . S
C256 O278 1.240 . S
C256 O279 1.264 . S
O257 Mn252 2.095 . S
O257 C266 1.250 . S
O258 Mn253 2.121 . S
O258 C266 1.258 . S
C259 N260 1.326 . S
C259 C263 1.460 . S
C259 H265 0.929 . S
N260 Mn253 2.257 . S
N260 C259 1.326 . S
N260 C264 1.362 . S
C261 C262 1.258 . S
C261 C264 1.431 . S
C261 C281 1.449 . S
C262 C261 1.258 . S
C262 C263 1.477 . S
C262 H282 0.931 . S
C263 C259 1.460 . S
C263 C262 1.477 . S
C263 H283 0.930 . S
C264 N260 1.362 . S
C264 C261 1.431 . S
C264 C274 1.476 . S
H265 C259 0.929 . S
C266 O257 1.250 . S
C266 O258 1.258 . S
O267 Mn252 2.162 . S
O267 C255 1.281 . S
O268 Mn252 2.297 . S
O268 C255 1.236 . S
N269 Mn253 2.282 . S
N269 C270 1.328 . S
N269 C274 1.318 . S
C270 N269 1.328 . S
C270 C271 1.457 . S
C270 H275 0.929 . S
C271 C270 1.457 . S
C271 C272 1.291 . S
C271 H284 0.931 . S
C272 C271 1.291 . S
C272 C273 1.373 . S
C272 H285 0.929 . S
C273 C272 1.373 . S
C273 C274 1.396 . S
C273 C280 1.403 . S
C274 C264 1.476 . S
C274 N269 1.318 . S
C274 C273 1.396 . S
H275 C270 0.929 . S
O276 Mn252 2.385 . S
O276 C254 1.234 . S
O277 Mn252 2.209 . S
O277 Mn253 2.215 . S
O277 C254 1.283 . S
O278 Mn252 2.094 . S
O278 C256 1.240 . S
O279 Mn253 2.117 . S
O279 C256 1.264 . S
C280 C273 1.403 . S
C280 C281 1.399 . S
C280 H286 0.929 . S
C281 C261 1.449 . S
C281 C280 1.399 . S
C281 H287 0.930 . S
H282 C262 0.931 . S
H283 C263 0.930 . S
H284 C271 0.931 . S
H285 C272 0.929 . S
H286 C280 0.929 . S
H287 C281 0.930 . S
Mn288 O293 2.095 . S
Mn288 O303 2.162 . S
Mn288 O304 2.297 . S
Mn288 O312 2.385 . S
Mn288 O313 2.209 . S
Mn288 O314 2.094 . S
Mn289 O294 2.121 . S
Mn289 N296 2.257 . S
Mn289 N305 2.282 . S
Mn289 O313 2.215 . S
Mn289 O315 2.117 . S
C290 O312 1.234 . S
C290 O313 1.283 . S
C291 O303 1.281 . S
C291 O304 1.236 . S
C292 O314 1.240 . S
C292 O315 1.264 . S
O293 Mn288 2.095 . S
O293 C302 1.250 . S
O294 Mn289 2.121 . S
O294 C302 1.258 . S
C295 N296 1.326 . S
C295 C299 1.460 . S
C295 H301 0.929 . S
N296 Mn289 2.257 . S
N296 C295 1.326 . S
N296 C300 1.362 . S
C297 C298 1.258 . S
C297 C300 1.431 . S
C297 C317 1.449 . S
C298 C297 1.258 . S
C298 C299 1.477 . S
C298 H318 0.931 . S
C299 C295 1.460 . S
C299 C298 1.477 . S
C299 H319 0.930 . S
C300 N296 1.362 . S
C300 C297 1.431 . S
C300 C310 1.476 . S
H301 C295 0.929 . S
C302 O293 1.250 . S
C302 O294 1.258 . S
O303 Mn288 2.162 . S
O303 C291 1.281 . S
O304 Mn288 2.297 . S
O304 C291 1.236 . S
N305 Mn289 2.282 . S
N305 C306 1.328 . S
N305 C310 1.318 . S
C306 N305 1.328 . S
C306 C307 1.457 . S
C306 H311 0.929 . S
C307 C306 1.457 . S
C307 C308 1.291 . S
C307 H320 0.931 . S
C308 C307 1.291 . S
C308 C309 1.373 . S
C308 H321 0.929 . S
C309 C308 1.373 . S
C309 C310 1.396 . S
C309 C316 1.403 . S
C310 C300 1.476 . S
C310 N305 1.318 . S
C310 C309 1.396 . S
H311 C306 0.929 . S
O312 Mn288 2.385 . S
O312 C290 1.234 . S
O313 Mn288 2.209 . S
O313 Mn289 2.215 . S
O313 C290 1.283 . S
O314 Mn288 2.094 . S
O314 C292 1.240 . S
O315 Mn289 2.117 . S
O315 C292 1.264 . S
C316 C309 1.403 . S
C316 C317 1.399 . S
C316 H322 0.929 . S
C317 C297 1.449 . S
C317 C316 1.399 . S
C317 H323 0.930 . S
H318 C298 0.931 . S
H319 C299 0.930 . S
H320 C307 0.931 . S
H321 C308 0.929 . S
H322 C316 0.929 . S
H323 C317 0.930 . S
H324 C332 0.950 . S
H325 C337 0.950 . S
H326 C334 0.950 . S
H327 C336 0.950 . S
H328 C338 0.950 . S
H329 C340 0.950 . S
H330 C342 0.950 . S
H331 C343 0.950 . S
C332 H324 0.950 . S
C332 C333 1.386 . S
C332 C334 1.391 . S
C333 C332 1.386 . S
C333 C337 1.393 . S
C334 H326 0.950 . S
C334 C332 1.391 . S
C334 C335 1.400 . S
C335 C334 1.400 . S
C335 C336 1.398 . S
C335 C341 1.491 . S
C336 H327 0.950 . S
C336 C335 1.398 . S
C336 C337 1.391 . S
C337 H325 0.950 . S
C337 C333 1.393 . S
C337 C336 1.391 . S
C338 H328 0.950 . S
C338 C339 1.386 . S
C338 C340 1.391 . S
C339 C338 1.386 . S
C339 C343 1.393 . S
C340 H329 0.950 . S
C340 C338 1.391 . S
C340 C341 1.400 . S
C341 C335 1.491 . S
C341 C340 1.400 . S
C341 C342 1.398 . S
C342 H330 0.950 . S
C342 C341 1.398 . S
C342 C343 1.391 . S
C343 H331 0.950 . S
C343 C339 1.393 . S
C343 C342 1.391 . S
H344 C352 0.950 . S
H345 C357 0.950 . S
H346 C354 0.950 . S
H347 C356 0.950 . S
H348 C358 0.950 . S
H349 C360 0.950 . S
H350 C362 0.950 . S
H351 C363 0.950 . S
C352 H344 0.950 . S
C352 C353 1.386 . S
C352 C354 1.391 . S
C353 C352 1.386 . S
C353 C357 1.393 . S
C354 H346 0.950 . S
C354 C352 1.391 . S
C354 C355 1.400 . S
C355 C354 1.400 . S
C355 C356 1.398 . S
C355 C361 1.491 . S
C356 H347 0.950 . S
C356 C355 1.398 . S
C356 C357 1.391 . S
C357 H345 0.950 . S
C357 C353 1.393 . S
C357 C356 1.391 . S
C358 H348 0.950 . S
C358 C359 1.386 . S
C358 C360 1.391 . S
C359 C358 1.386 . S
C359 C363 1.393 . S
C360 H349 0.950 . S
C360 C358 1.391 . S
C360 C361 1.400 . S
C361 C355 1.491 . S
C361 C360 1.400 . S
C361 C362 1.398 . S
C362 H350 0.950 . S
C362 C361 1.398 . S
C362 C363 1.391 . S
C363 H351 0.950 . S
C363 C359 1.393 . S
C363 C362 1.391 . S
H364 C372 0.950 . S
H365 C377 0.950 . S
H366 C374 0.950 . S
H367 C376 0.950 . S
H368 C378 0.950 . S
H369 C380 0.950 . S
H370 C382 0.950 . S
H371 C383 0.950 . S
C372 H364 0.950 . S
C372 C373 1.386 . S
C372 C374 1.391 . S
C373 C372 1.386 . S
C373 C377 1.393 . S
C374 H366 0.950 . S
C374 C372 1.391 . S
C374 C375 1.400 . S
C375 C374 1.400 . S
C375 C376 1.398 . S
C375 C381 1.491 . S
C376 H367 0.950 . S
C376 C375 1.398 . S
C376 C377 1.391 . S
C377 H365 0.950 . S
C377 C373 1.393 . S
C377 C376 1.391 . S
C378 H368 0.950 . S
C378 C379 1.386 . S
C378 C380 1.391 . S
C379 C378 1.386 . S
C379 C383 1.393 . S
C380 H369 0.950 . S
C380 C378 1.391 . S
C380 C381 1.400 . S
C381 C375 1.491 . S
C381 C380 1.400 . S
C381 C382 1.398 . S
C382 H370 0.950 . S
C382 C381 1.398 . S
C382 C383 1.391 . S
C383 H371 0.950 . S
C383 C379 1.393 . S
C383 C382 1.391 . S
H384 C392 0.950 . S
H385 C397 0.950 . S
H386 C394 0.950 . S
H387 C396 0.950 . S
H388 C398 0.950 . S
H389 C400 0.950 . S
H390 C402 0.950 . S
H391 C403 0.950 . S
C392 H384 0.950 . S
C392 C393 1.386 . S
C392 C394 1.391 . S
C393 C392 1.386 . S
C393 C397 1.393 . S
C394 H386 0.950 . S
C394 C392 1.391 . S
C394 C395 1.400 . S
C395 C394 1.400 . S
C395 C396 1.398 . S
C395 C401 1.491 . S
C396 H387 0.950 . S
C396 C395 1.398 . S
C396 C397 1.391 . S
C397 H385 0.950 . S
C397 C393 1.393 . S
C397 C396 1.391 . S
C398 H388 0.950 . S
C398 C399 1.386 . S
C398 C400 1.391 . S
C399 C398 1.386 . S
C399 C403 1.393 . S
C400 H389 0.950 . S
C400 C398 1.391 . S
C400 C401 1.400 . S
C401 C395 1.491 . S
C401 C400 1.400 . S
C401 C402 1.398 . S
C402 H390 0.950 . S
C402 C401 1.398 . S
C402 C403 1.391 . S
C403 H391 0.950 . S
C403 C399 1.393 . S
C403 C402 1.391 . S
H404 C412 0.950 . S
H405 C417 0.950 . S
H406 C414 0.950 . S
H407 C416 0.950 . S
H408 C418 0.950 . S
H409 C420 0.950 . S
H410 C422 0.950 . S
H411 C423 0.950 . S
C412 H404 0.950 . S
C412 C413 1.386 . S
C412 C414 1.391 . S
C413 C412 1.386 . S
C413 C417 1.393 . S
C414 H406 0.950 . S
C414 C412 1.391 . S
C414 C415 1.400 . S
C415 C414 1.400 . S
C415 C416 1.398 . S
C415 C421 1.491 . S
C416 H407 0.950 . S
C416 C415 1.398 . S
C416 C417 1.391 . S
C417 H405 0.950 . S
C417 C413 1.393 . S
C417 C416 1.391 . S
C418 H408 0.950 . S
C418 C419 1.386 . S
C418 C420 1.391 . S
C419 C418 1.386 . S
C419 C423 1.393 . S
C420 H409 0.950 . S
C420 C418 1.391 . S
C420 C421 1.400 . S
C421 C415 1.491 . S
C421 C420 1.400 . S
C421 C422 1.398 . S
C422 H410 0.950 . S
C422 C421 1.398 . S
C422 C423 1.391 . S
C423 H411 0.950 . S
C423 C419 1.393 . S
C423 C422 1.391 . S
H424 C432 0.950 . S
H425 C437 0.950 . S
H426 C434 0.950 . S
H427 C436 0.950 . S
H428 C438 0.950 . S
H429 C440 0.950 . S
H430 C442 0.950 . S
H431 C443 0.950 . S
C432 H424 0.950 . S
C432 C433 1.386 . S
C432 C434 1.391 . S
C433 C432 1.386 . S
C433 C437 1.393 . S
C434 H426 0.950 . S
C434 C432 1.391 . S
C434 C435 1.400 . S
C435 C434 1.400 . S
C435 C436 1.398 . S
C435 C441 1.491 . S
C436 H427 0.950 . S
C436 C435 1.398 . S
C436 C437 1.391 . S
C437 H425 0.950 . S
C437 C433 1.393 . S
C437 C436 1.391 . S
C438 H428 0.950 . S
C438 C439 1.386 . S
C438 C440 1.391 . S
C439 C438 1.386 . S
C439 C443 1.393 . S
C440 H429 0.950 . S
C440 C438 1.391 . S
C440 C441 1.400 . S
C441 C435 1.491 . S
C441 C440 1.400 . S
C441 C442 1.398 . S
C442 H430 0.950 . S
C442 C441 1.398 . S
C442 C443 1.391 . S
C443 H431 0.950 . S
C443 C439 1.393 . S
C443 C442 1.391 . S
H444 C452 0.950 . S
H445 C457 0.950 . S
H446 C454 0.950 . S
H447 C456 0.950 . S
H448 C458 0.950 . S
H449 C460 0.950 . S
H450 C462 0.950 . S
H451 C463 0.950 . S
C452 H444 0.950 . S
C452 C453 1.386 . S
C452 C454 1.391 . S
C453 C452 1.386 . S
C453 C457 1.393 . S
C454 H446 0.950 . S
C454 C452 1.391 . S
C454 C455 1.400 . S
C455 C454 1.400 . S
C455 C456 1.398 . S
C455 C461 1.491 . S
C456 H447 0.950 . S
C456 C455 1.398 . S
C456 C457 1.391 . S
C457 H445 0.950 . S
C457 C453 1.393 . S
C457 C456 1.391 . S
C458 H448 0.950 . S
C458 C459 1.386 . S
C458 C460 1.391 . S
C459 C458 1.386 . S
C459 C463 1.393 . S
C460 H449 0.950 . S
C460 C458 1.391 . S
C460 C461 1.400 . S
C461 C455 1.491 . S
C461 C460 1.400 . S
C461 C462 1.398 . S
C462 H450 0.950 . S
C462 C461 1.398 . S
C462 C463 1.391 . S
C463 H451 0.950 . S
C463 C459 1.393 . S
C463 C462 1.391 . S
H464 C472 0.950 . S
H465 C477 0.950 . S
H466 C474 0.950 . S
H467 C476 0.950 . S
H468 C478 0.950 . S
H469 C480 0.950 . S
H470 C482 0.950 . S
H471 C483 0.950 . S
C472 H464 0.950 . S
C472 C473 1.386 . S
C472 C474 1.391 . S
C473 C472 1.386 . S
C473 C477 1.393 . S
C474 H466 0.950 . S
C474 C472 1.391 . S
C474 C475 1.400 . S
C475 C474 1.400 . S
C475 C476 1.398 . S
C475 C481 1.491 . S
C476 H467 0.950 . S
C476 C475 1.398 . S
C476 C477 1.391 . S
C477 H465 0.950 . S
C477 C473 1.393 . S
C477 C476 1.391 . S
C478 H468 0.950 . S
C478 C479 1.386 . S
C478 C480 1.391 . S
C479 C478 1.386 . S
C479 C483 1.393 . S
C480 H469 0.950 . S
C480 C478 1.391 . S
C480 C481 1.400 . S
C481 C475 1.491 . S
C481 C480 1.400 . S
C481 C482 1.398 . S
C482 H470 0.950 . S
C482 C481 1.398 . S
C482 C483 1.391 . S
C483 H471 0.950 . S
C483 C479 1.393 . S
C483 C482 1.391 . S
H484 C492 0.950 . S
H485 C497 0.950 . S
H486 C494 0.950 . S
H487 C496 0.950 . S
H488 C498 0.950 . S
H489 C500 0.950 . S
H490 C502 0.950 . S
H491 C503 0.950 . S
C492 H484 0.950 . S
C492 C493 1.386 . S
C492 C494 1.391 . S
C493 C492 1.386 . S
C493 C497 1.393 . S
C494 H486 0.950 . S
C494 C492 1.391 . S
C494 C495 1.400 . S
C495 C494 1.400 . S
C495 C496 1.398 . S
C495 C501 1.491 . S
C496 H487 0.950 . S
C496 C495 1.398 . S
C496 C497 1.391 . S
C497 H485 0.950 . S
C497 C493 1.393 . S
C497 C496 1.391 . S
C498 H488 0.950 . S
C498 C499 1.386 . S
C498 C500 1.391 . S
C499 C498 1.386 . S
C499 C503 1.393 . S
C500 H489 0.950 . S
C500 C498 1.391 . S
C500 C501 1.400 . S
C501 C495 1.491 . S
C501 C500 1.400 . S
C501 C502 1.398 . S
C502 H490 0.950 . S
C502 C501 1.398 . S
C502 C503 1.391 . S
C503 H491 0.950 . S
C503 C499 1.393 . S
C503 C502 1.391 . S
H504 C512 0.950 . S
H505 C517 0.950 1_556 S
H506 C514 0.950 . S
H507 C516 0.950 . S
H508 C518 0.950 . S
H509 C520 0.950 . S
H510 C522 0.950 . S
H511 C523 0.950 . S
C512 H504 0.950 . S
C512 C513 1.386 . S
C512 C514 1.391 . S
C513 C512 1.386 . S
C513 C517 1.393 . S
C514 H506 0.950 . S
C514 C512 1.391 . S
C514 C515 1.400 . S
C515 C514 1.400 . S
C515 C516 1.398 . S
C515 C521 1.491 . S
C516 H507 0.950 . S
C516 C515 1.398 . S
C516 C517 1.391 . S
C517 H505 0.950 1_554 S
C517 C513 1.393 . S
C517 C516 1.391 . S
C518 H508 0.950 . S
C518 C519 1.386 . S
C518 C520 1.391 . S
C519 C518 1.386 . S
C519 C523 1.393 . S
C520 H509 0.950 . S
C520 C518 1.391 . S
C520 C521 1.400 . S
C521 C515 1.491 . S
C521 C520 1.400 . S
C521 C522 1.398 . S
C522 H510 0.950 . S
C522 C521 1.398 . S
C522 C523 1.391 . S
C523 H511 0.950 . S
C523 C519 1.393 . S
C523 C522 1.391 . S
H524 C532 0.950 . S
H525 C537 0.950 . S
H526 C534 0.950 . S
H527 C536 0.950 . S
H528 C538 0.950 . S
H529 C540 0.950 . S
H530 C542 0.950 . S
H531 C543 0.950 . S
C532 H524 0.950 . S
C532 C533 1.386 . S
C532 C534 1.391 . S
C533 C532 1.386 . S
C533 C537 1.393 . S
C534 H526 0.950 . S
C534 C532 1.391 . S
C534 C535 1.400 . S
C535 C534 1.400 . S
C535 C536 1.398 . S
C535 C541 1.491 . S
C536 H527 0.950 . S
C536 C535 1.398 . S
C536 C537 1.391 . S
C537 H525 0.950 . S
C537 C533 1.393 . S
C537 C536 1.391 . S
C538 H528 0.950 . S
C538 C539 1.386 . S
C538 C540 1.391 . S
C539 C538 1.386 . S
C539 C543 1.393 . S
C540 H529 0.950 . S
C540 C538 1.391 . S
C540 C541 1.400 . S
C541 C535 1.491 . S
C541 C540 1.400 . S
C541 C542 1.398 . S
C542 H530 0.950 . S
C542 C541 1.398 . S
C542 C543 1.391 . S
C543 H531 0.950 . S
C543 C539 1.393 . S
C543 C542 1.391 . S
H544 C552 0.950 . S
H545 C557 0.950 . S
H546 C554 0.950 . S
H547 C556 0.950 . S
H548 C558 0.950 . S
H549 C560 0.950 . S
H550 C562 0.950 . S
H551 C563 0.950 . S
C552 H544 0.950 . S
C552 C553 1.386 . S
C552 C554 1.391 . S
C553 C552 1.386 . S
C553 C557 1.393 . S
C554 H546 0.950 . S
C554 C552 1.391 . S
C554 C555 1.400 . S
C555 C554 1.400 . S
C555 C556 1.398 . S
C555 C561 1.491 . S
C556 H547 0.950 . S
C556 C555 1.398 . S
C556 C557 1.391 . S
C557 H545 0.950 . S
C557 C553 1.393 . S
C557 C556 1.391 . S
C558 H548 0.950 . S
C558 C559 1.386 . S
C558 C560 1.391 . S
C559 C558 1.386 . S
C559 C563 1.393 . S
C560 H549 0.950 . S
C560 C558 1.391 . S
C560 C561 1.400 . S
C561 C555 1.491 . S
C561 C560 1.400 . S
C561 C562 1.398 . S
C562 H550 0.950 . S
C562 C561 1.398 . S
C562 C563 1.391 . S
C563 H551 0.950 . S
C563 C559 1.393 . S
C563 C562 1.391 . S
H564 C572 0.950 . S
H565 C577 0.950 . S
H566 C574 0.950 . S
H567 C576 0.950 . S
H568 C578 0.950 . S
H569 C580 0.950 . S
H570 C582 0.950 . S
H571 C583 0.950 . S
C572 H564 0.950 . S
C572 C573 1.386 . S
C572 C574 1.391 . S
C573 C572 1.386 . S
C573 C577 1.393 . S
C574 H566 0.950 . S
C574 C572 1.391 . S
C574 C575 1.400 . S
C575 C574 1.400 . S
C575 C576 1.398 . S
C575 C581 1.491 . S
C576 H567 0.950 . S
C576 C575 1.398 . S
C576 C577 1.391 . S
C577 H565 0.950 . S
C577 C573 1.393 . S
C577 C576 1.391 . S
C578 H568 0.950 . S
C578 C579 1.386 . S
C578 C580 1.391 . S
C579 C578 1.386 . S
C579 C583 1.393 . S
C580 H569 0.950 . S
C580 C578 1.391 . S
C580 C581 1.400 . S
C581 C575 1.491 . S
C581 C580 1.400 . S
C581 C582 1.398 . S
C582 H570 0.950 . S
C582 C581 1.398 . S
C582 C583 1.391 . S
C583 H571 0.950 . S
C583 C579 1.393 . S
C583 C582 1.391 . S
H584 C592 0.950 . S
H585 C597 0.950 . S
H586 C594 0.950 . S
H587 C596 0.950 . S
H588 C598 0.950 . S
H589 C600 0.950 . S
H590 C602 0.950 . S
H591 C603 0.950 . S
C592 H584 0.950 . S
C592 C593 1.386 . S
C592 C594 1.391 . S
C593 C592 1.386 . S
C593 C597 1.393 . S
C594 H586 0.950 . S
C594 C592 1.391 . S
C594 C595 1.400 . S
C595 C594 1.400 . S
C595 C596 1.398 . S
C595 C601 1.491 . S
C596 H587 0.950 . S
C596 C595 1.398 . S
C596 C597 1.391 . S
C597 H585 0.950 . S
C597 C593 1.393 . S
C597 C596 1.391 . S
C598 H588 0.950 . S
C598 C599 1.386 . S
C598 C600 1.391 . S
C599 C598 1.386 . S
C599 C603 1.393 . S
C600 H589 0.950 . S
C600 C598 1.391 . S
C600 C601 1.400 . S
C601 C595 1.491 . S
C601 C600 1.400 . S
C601 C602 1.398 . S
C602 H590 0.950 . S
C602 C601 1.398 . S
C602 C603 1.391 . S
C603 H591 0.950 . S
C603 C599 1.393 . S
C603 C602 1.391 . S
H604 C612 0.950 . S
H605 C617 0.950 . S
H606 C614 0.950 . S
H607 C616 0.950 . S
H608 C618 0.950 . S
H609 C620 0.950 . S
H610 C622 0.950 . S
H611 C623 0.950 . S
C612 H604 0.950 . S
C612 C613 1.386 . S
C612 C614 1.391 . S
C613 C612 1.386 . S
C613 C617 1.393 . S
C614 H606 0.950 . S
C614 C612 1.391 . S
C614 C615 1.400 . S
C615 C614 1.400 . S
C615 C616 1.398 . S
C615 C621 1.491 . S
C616 H607 0.950 . S
C616 C615 1.398 . S
C616 C617 1.391 . S
C617 H605 0.950 . S
C617 C613 1.393 . S
C617 C616 1.391 . S
C618 H608 0.950 . S
C618 C619 1.386 . S
C618 C620 1.391 . S
C619 C618 1.386 . S
C619 C623 1.393 . S
C620 H609 0.950 . S
C620 C618 1.391 . S
C620 C621 1.400 . S
C621 C615 1.491 . S
C621 C620 1.400 . S
C621 C622 1.398 . S
C622 H610 0.950 . S
C622 C621 1.398 . S
C622 C623 1.391 . S
C623 H611 0.950 . S
C623 C619 1.393 . S
C623 C622 1.391 . S
H624 C632 0.950 . S
H625 C637 0.950 . S
H626 C634 0.950 . S
H627 C636 0.950 . S
H628 C638 0.950 . S
H629 C640 0.950 . S
H630 C642 0.950 . S
H631 C643 0.950 . S
C632 H624 0.950 . S
C632 C633 1.386 . S
C632 C634 1.391 . S
C633 C632 1.386 . S
C633 C637 1.393 . S
C634 H626 0.950 . S
C634 C632 1.391 . S
C634 C635 1.400 . S
C635 C634 1.400 . S
C635 C636 1.398 . S
C635 C641 1.491 . S
C636 H627 0.950 . S
C636 C635 1.398 . S
C636 C637 1.391 . S
C637 H625 0.950 . S
C637 C633 1.393 . S
C637 C636 1.391 . S
C638 H628 0.950 . S
C638 C639 1.388 . S
C638 C640 1.391 1_554 S
C639 C638 1.388 . S
C639 C643 1.371 1_554 S
C640 H629 0.950 . S
C640 C638 1.391 1_556 S
C640 C641 1.400 . S
C641 C635 1.491 . S
C641 C640 1.400 . S
C641 C642 1.398 . S
C642 H630 0.950 . S
C642 C641 1.398 . S
C642 C643 1.391 . S
C643 H631 0.950 . S
C643 C639 1.371 1_556 S
C643 C642 1.391 . S
H644 C652 0.950 . S
H645 C657 0.950 . S
H646 C654 0.950 . S
H647 C656 0.950 . S
H648 C658 0.950 . S
H649 C660 0.950 . S
H650 C662 0.950 . S
H651 C663 0.950 . S
C652 H644 0.950 . S
C652 C653 1.386 . S
C652 C654 1.391 . S
C653 C652 1.386 . S
C653 C657 1.393 . S
C654 H646 0.950 . S
C654 C652 1.391 . S
C654 C655 1.400 . S
C655 C654 1.400 . S
C655 C656 1.398 . S
C655 C661 1.491 . S
C656 H647 0.950 . S
C656 C655 1.398 . S
C656 C657 1.391 . S
C657 H645 0.950 . S
C657 C653 1.393 . S
C657 C656 1.391 . S
C658 H648 0.950 . S
C658 C659 1.386 . S
C658 C660 1.391 . S
C659 C658 1.386 . S
C659 C663 1.393 . S
C660 H649 0.950 . S
C660 C658 1.391 . S
C660 C661 1.400 . S
C661 C655 1.491 . S
C661 C660 1.400 . S
C661 C662 1.398 . S
C662 H650 0.950 . S
C662 C661 1.398 . S
C662 C663 1.391 . S
C663 H651 0.950 . S
C663 C659 1.393 . S
C663 C662 1.391 . S
H664 C672 0.950 . S
H665 C677 0.950 . S
H666 C674 0.950 . S
H667 C676 0.950 . S
H668 C678 0.950 . S
H669 C680 0.950 . S
H670 C682 0.950 . S
H671 C683 0.950 . S
C672 H664 0.950 . S
C672 C673 1.386 . S
C672 C674 1.391 . S
C673 C672 1.386 . S
C673 C677 1.393 . S
C674 H666 0.950 . S
C674 C672 1.391 . S
C674 C675 1.400 . S
C675 C674 1.400 . S
C675 C676 1.398 . S
C675 C681 1.491 . S
C676 H667 0.950 . S
C676 C675 1.398 . S
C676 C677 1.391 . S
C677 H665 0.950 . S
C677 C673 1.393 . S
C677 C676 1.391 . S
C678 H668 0.950 . S
C678 C679 1.386 . S
C678 C680 1.391 . S
C679 C678 1.386 . S
C679 C683 1.393 . S
C680 H669 0.950 . S
C680 C678 1.391 . S
C680 C681 1.400 . S
C681 C675 1.491 . S
C681 C680 1.400 . S
C681 C682 1.398 . S
C682 H670 0.950 . S
C682 C681 1.398 . S
C682 C683 1.391 . S
C683 H671 0.950 . S
C683 C679 1.393 . S
C683 C682 1.391 . S
H684 C692 0.950 . S
H685 C697 0.950 . S
H686 C694 0.950 . S
H687 C696 0.950 . S
H688 C698 0.950 . S
H689 C700 0.950 . S
H690 C702 0.950 . S
H691 C703 0.950 . S
C692 H684 0.950 . S
C692 C693 1.386 . S
C692 C694 1.391 . S
C693 C692 1.386 . S
C693 C697 1.393 . S
C694 H686 0.950 . S
C694 C692 1.391 . S
C694 C695 1.400 . S
C695 C694 1.400 . S
C695 C696 1.398 . S
C695 C701 1.491 . S
C696 H687 0.950 . S
C696 C695 1.398 . S
C696 C697 1.391 . S
C697 H685 0.950 . S
C697 C693 1.393 . S
C697 C696 1.391 . S
C698 H688 0.950 . S
C698 C699 1.386 . S
C698 C700 1.391 . S
C699 C698 1.386 . S
C699 C703 1.393 . S
C700 H689 0.950 . S
C700 C698 1.391 . S
C700 C701 1.400 . S
C701 C695 1.491 . S
C701 C700 1.400 . S
C701 C702 1.398 . S
C702 H690 0.950 . S
C702 C701 1.398 . S
C702 C703 1.391 . S
C703 H691 0.950 . S
C703 C699 1.393 . S
C703 C702 1.391 . S
H704 C712 0.950 . S
H705 C717 0.950 . S
H706 C714 0.950 . S
H707 C716 0.950 . S
H708 C718 0.950 . S
H709 C720 0.950 . S
H710 C722 0.950 . S
H711 C723 0.950 . S
C712 H704 0.950 . S
C712 C713 1.386 . S
C712 C714 1.391 . S
C713 C712 1.386 . S
C713 C717 1.393 . S
C714 H706 0.950 . S
C714 C712 1.391 . S
C714 C715 1.400 . S
C715 C714 1.400 . S
C715 C716 1.398 . S
C715 C721 1.491 . S
C716 H707 0.950 . S
C716 C715 1.398 . S
C716 C717 1.391 . S
C717 H705 0.950 . S
C717 C713 1.393 . S
C717 C716 1.391 . S
C718 H708 0.950 . S
C718 C719 1.386 . S
C718 C720 1.391 . S
C719 C718 1.386 . S
C719 C723 1.393 . S
C720 H709 0.950 . S
C720 C718 1.391 . S
C720 C721 1.400 . S
C721 C715 1.491 . S
C721 C720 1.400 . S
C721 C722 1.398 . S
C722 H710 0.950 . S
C722 C721 1.398 . S
C722 C723 1.391 . S
C723 H711 0.950 . S
C723 C719 1.393 . S
C723 C722 1.391 . S
H724 C732 0.950 . S
H725 C737 0.950 . S
H726 C734 0.950 . S
H727 C736 0.950 . S
H728 C738 0.950 . S
H729 C740 0.950 . S
H730 C742 0.950 . S
H731 C743 0.950 . S
C732 H724 0.950 . S
C732 C733 1.386 . S
C732 C734 1.391 . S
C733 C732 1.386 . S
C733 C737 1.393 . S
C734 H726 0.950 . S
C734 C732 1.391 . S
C734 C735 1.400 . S
C735 C734 1.400 . S
C735 C736 1.398 . S
C735 C741 1.491 . S
C736 H727 0.950 . S
C736 C735 1.398 . S
C736 C737 1.391 . S
C737 H725 0.950 . S
C737 C733 1.393 . S
C737 C736 1.391 . S
C738 H728 0.950 . S
C738 C739 1.386 . S
C738 C740 1.391 . S
C739 C738 1.386 . S
C739 C743 1.393 . S
C740 H729 0.950 . S
C740 C738 1.391 . S
C740 C741 1.400 . S
C741 C735 1.491 . S
C741 C740 1.400 . S
C741 C742 1.398 . S
C742 H730 0.950 . S
C742 C741 1.398 . S
C742 C743 1.391 . S
C743 H731 0.950 . S
C743 C739 1.393 . S
C743 C742 1.391 . S
H744 C752 0.950 . S
H745 C757 0.950 . S
H746 C754 0.950 . S
H747 C756 0.950 . S
H748 C758 0.950 . S
H749 C760 0.950 . S
H750 C762 0.950 . S
H751 C763 0.950 . S
C752 H744 0.950 . S
C752 C753 1.386 . S
C752 C754 1.391 . S
C753 C752 1.386 . S
C753 C757 1.393 . S
C754 H746 0.950 . S
C754 C752 1.391 . S
C754 C755 1.400 . S
C755 C754 1.400 . S
C755 C756 1.398 . S
C755 C761 1.491 . S
C756 H747 0.950 . S
C756 C755 1.398 . S
C756 C757 1.391 . S
C757 H745 0.950 . S
C757 C753 1.393 . S
C757 C756 1.391 . S
C758 H748 0.950 . S
C758 C759 1.386 . S
C758 C760 1.391 . S
C759 C758 1.386 . S
C759 C763 1.393 . S
C760 H749 0.950 . S
C760 C758 1.391 . S
C760 C761 1.400 . S
C761 C755 1.491 . S
C761 C760 1.400 . S
C761 C762 1.398 . S
C762 H750 0.950 . S
C762 C761 1.398 . S
C762 C763 1.391 . S
C763 H751 0.950 . S
C763 C759 1.393 . S
C763 C762 1.391 . S
H764 C772 0.950 . S
H765 C777 0.950 . S
H766 C774 0.950 . S
H767 C776 0.950 . S
H768 C778 0.950 . S
H769 C780 0.950 . S
H770 C782 0.950 . S
H771 C783 0.950 . S
C772 H764 0.950 . S
C772 C773 1.386 . S
C772 C774 1.391 . S
C773 C772 1.386 . S
C773 C777 1.393 . S
C774 H766 0.950 . S
C774 C772 1.391 . S
C774 C775 1.400 . S
C775 C774 1.400 . S
C775 C776 1.398 . S
C775 C781 1.491 . S
C776 H767 0.950 . S
C776 C775 1.398 . S
C776 C777 1.391 . S
C777 H765 0.950 . S
C777 C773 1.393 . S
C777 C776 1.391 . S
C778 H768 0.950 . S
C778 C779 1.386 . S
C778 C780 1.391 . S
C779 C778 1.386 . S
C779 C783 1.393 . S
C780 H769 0.950 . S
C780 C778 1.391 . S
C780 C781 1.400 1_556 S
C781 C775 1.491 . S
C781 C780 1.400 1_554 S
C781 C782 1.398 . S
C782 H770 0.950 . S
C782 C781 1.398 . S
C782 C783 1.391 1_554 S
C783 H771 0.950 . S
C783 C779 1.393 . S
C783 C782 1.391 1_556 S
H784 C792 0.950 . S
H785 C797 0.950 . S
H786 C794 0.950 . S
H787 C796 0.950 . S
H788 C798 0.950 . S
H789 C800 0.950 . S
H790 C802 0.950 . S
H791 C803 0.950 . S
C792 H784 0.950 . S
C792 C793 1.386 . S
C792 C794 1.391 . S
C793 C792 1.386 . S
C793 C797 1.393 . S
C794 H786 0.950 . S
C794 C792 1.391 . S
C794 C795 1.400 . S
C795 C794 1.400 . S
C795 C796 1.398 . S
C795 C801 1.491 . S
C796 H787 0.950 . S
C796 C795 1.398 . S
C796 C797 1.391 . S
C797 H785 0.950 . S
C797 C793 1.393 . S
C797 C796 1.391 . S
C798 H788 0.950 . S
C798 C799 1.386 . S
C798 C800 1.391 . S
C799 C798 1.386 . S
C799 C803 1.393 . S
C800 H789 0.950 . S
C800 C798 1.391 . S
C800 C801 1.400 . S
C801 C795 1.491 . S
C801 C800 1.400 . S
C801 C802 1.398 . S
C802 H790 0.950 . S
C802 C801 1.398 . S
C802 C803 1.391 . S
C803 H791 0.950 . S
C803 C799 1.393 . S
C803 C802 1.391 . S
C339 C291 1.575 . S
C333 C8 1.527 . S
C353 C26 1.568 . S
C359 C111 1.609 . S
C373 C50 1.530 . S
C379 C158 1.546 . S
C393 C68 1.489 . S
C399 C194 1.490 . S
C419 C219 1.559 . S
C413 C80 1.519 . S
C433 C104 1.511 . S
C439 C255 1.573 . S
C453 C32 1.542 . S
C459 C147 1.606 . S
C473 C44 1.524 . S
C479 C183 1.559 . S
C493 C62 1.488 . S
C499 C230 1.491 . S
C519 C266 1.524 . S
C513 C86 1.519 1_554 S
C539 C302 1.528 . S
C533 C98 1.532 . S
C559 C122 1.530 . S
C553 C14 1.537 . S
C573 C7 1.450 . S
C579 C146 1.495 . S
C593 C25 1.464 . S
C599 C182 1.508 . S
C619 C220 1.504 . S
C613 C52 1.456 . S
C633 C70 1.474 . S
C639 C256 1.539 . S
C659 C292 1.489 . S
C653 C79 1.441 . S
C679 C112 1.468 . S
C673 C106 1.413 . S
C699 C290 1.486 . S
C693 C34 1.450 . S
C713 C43 1.468 . S
C719 C110 1.497 . S
C739 C148 1.500 . S
C733 C61 1.465 . S
C753 C88 1.465 . S
C759 C184 1.502 . S
C773 C97 1.489 . S
C779 C218 1.536 . S
C793 C16 1.491 . S
C799 C254 1.518 . S
