# Generated by pormake.
# Topology pts, (4,4)-cn, num edge types: 1
# Building blocks:
#     Node 0, Type 0, BuildingBlock: MIFKUJ_clean_linker_1, # of connection points: 4
#     Node 1, Type 0, BuildingBlock: MIFKUJ_clean_linker_1, # of connection points: 4
#     Node 2, Type 1, BuildingBlock: AZAVOO_clean_sbu_0, # of connection points: 4
#     Node 3, Type 1, BuildingBlock: AZAVOO_clean_sbu_0, # of connection points: 4
#     Edge 4, Type (0, 1), BuildingBlock: UVAHIK_clean_linker_0, # of connection points: 2
#     Edge 5, Type (0, 1), BuildingBlock: UVAHIK_clean_linker_0, # of connection points: 2
#     Edge 6, Type (0, 1), BuildingBlock: UVAHIK_clean_linker_0, # of connection points: 2
#     Edge 7, Type (0, 1), BuildingBlock: UVAHIK_clean_linker_0, # of connection points: 2
#     Edge 8, Type (0, 1), BuildingBlock: UVAHIK_clean_linker_0, # of connection points: 2
#     Edge 9, Type (0, 1), BuildingBlock: UVAHIK_clean_linker_0, # of connection points: 2
#     Edge 10, Type (0, 1), BuildingBlock: UVAHIK_clean_linker_0, # of connection points: 2
#     Edge 11, Type (0, 1), BuildingBlock: UVAHIK_clean_linker_0, # of connection points: 2
# Relax obj value: 0.003
# Max RMSD: 0.044
# Mean RMSD: 0.032
data_MOF--net-pts--node1-AZAVOO_clean_sbu_0--node2-MIFKUJ_clean_linker_1--edge1-UVAHIK_clean_linker_0
_symmetry_space_group_name_H-M    P1
_symmetry_Int_Tables_number       1
_symmetry_cell_setting            triclinic
loop_
_symmetry_equiv_pos_as_xyz
'x, y, z'
_cell_length_a     36.920569
_cell_length_b     37.88507
_cell_length_c     51.982885
_cell_angle_alpha  90.021469
_cell_angle_beta   95.893614
_cell_angle_gamma 90.080922
loop_
_atom_site_label
_atom_site_type_symbol
_atom_site_fract_x
_atom_site_fract_y
_atom_site_fract_z
_atom_type_partial_charge
H0 H 0.62354 0.98066 0.01172 0.0
H1 H 0.68216 0.97565 0.03806 0.0
H2 H 0.65628 0.06768 0.08163 0.0
H3 H 0.59805 0.07312 0.0549 0.0
H4 H 0.54203 0.03201 0.05007 0.0
H5 H 0.58072 0.98386 0.95063 0.0
H6 H 0.63171 0.98508 0.92416 0.0
H7 H 0.67407 0.07815 0.96494 0.0
H8 H 0.62292 0.0768 0.99138 0.0
H9 H 0.47434 0.07523 0.94962 0.0
H10 H 0.41575 0.07277 0.92318 0.0
H11 H 0.38544 0.98163 0.96614 0.0
H12 H 0.44428 0.98415 0.99253 0.0
H13 H 0.5281 0.02958 0.95421 0.0
H14 H 0.44837 0.08068 0.01051 0.0
H15 H 0.39644 0.08522 0.03607 0.0
H16 H 0.43681 -0.00404 0.08198 0.0
H17 H 0.48814 0.99086 0.05601 0.0
C18 C 0.60644 0.02747 0.03115 0.0
C19 C 0.63073 0.00017 0.02661 0.0
C20 C 0.66421 -0.00271 0.04169 0.0
C21 C 0.67374 0.02127 0.06189 0.0
C22 C 0.6495 0.04865 0.06633 0.0
C23 C 0.61623 0.05176 0.05108 0.0
C24 C 0.57025 0.02996 0.01582 0.0
C25 C 0.53898 0.03151 0.0291 0.0
C26 C 0.56626 0.02982 0.98845 0.0
C27 C 0.59804 0.03013 0.97307 0.0
C28 C 0.60098 0.00453 0.95388 0.0
C29 C 0.63011 0.00531 0.93873 0.0
C30 C 0.65689 0.03178 0.9424 0.0
C31 C 0.65414 0.05717 0.96185 0.0
C32 C 0.62489 0.05645 0.97695 0.0
C33 C 0.46369 0.02999 0.97313 0.0
C34 C 0.4551 0.0547 0.95335 0.0
C35 C 0.42162 0.05323 0.93823 0.0
C36 C 0.396 0.02693 0.94252 0.0
C37 C 0.40443 0.00244 0.96256 0.0
C38 C 0.43806 0.00383 0.97763 0.0
C39 C 0.4999 0.03107 0.98847 0.0
C40 C 0.53115 0.03012 0.97519 0.0
C41 C 0.50385 0.03234 0.01583 0.0
C42 C 0.47204 0.03516 0.03112 0.0
C43 C 0.44577 0.06171 0.02581 0.0
C44 C 0.41614 0.06436 0.04044 0.0
C45 C 0.41263 0.04095 0.061 0.0
C46 C 0.43902 0.01456 0.06639 0.0
C47 C 0.46835 0.01163 0.05156 0.0
H48 H 0.09948 0.44519 0.46642 0.0
H49 H 0.10253 0.39322 0.43883 0.0
H50 H 0.98909 0.37136 0.44657 0.0
H51 H 0.98691 0.42242 0.47495 0.0
H52 H 0.0521 0.50246 0.45559 0.0
H53 H 0.0828 0.42088 0.52583 0.0
H54 H 0.07894 0.36942 0.55354 0.0
H55 H 0.96607 0.39379 0.56121 0.0
H56 H 0.97087 0.4462 0.53433 0.0
H57 H 0.97668 0.55687 0.5404 0.0
H58 H 0.97611 0.60764 0.56937 0.0
H59 H 0.08415 0.63625 0.55164 0.0
H60 H 0.08445 0.58555 0.52258 0.0
H61 H 0.02035 0.50219 0.54598 0.0
H62 H 0.99116 0.58734 0.48001 0.0
H63 H 0.99355 0.63874 0.45181 0.0
H64 H 0.09987 0.60636 0.43294 0.0
H65 H 0.09778 0.55563 0.46175 0.0
C66 C 0.04307 0.4374 0.47283 0.0
C67 C 0.07547 0.42884 0.46237 0.0
C68 C 0.07703 0.39931 0.44642 0.0
C69 C 0.046 0.3781 0.4403 0.0
C70 C 0.01371 0.38663 0.45117 0.0
C71 C 0.01234 0.41589 0.46737 0.0
C72 C 0.04051 0.4703 0.48783 0.0
C73 C 0.04581 0.50252 0.47553 0.0
C74 C 0.03074 0.47023 0.51336 0.0
C75 C 0.02708 0.43717 0.52797 0.0
C76 C 0.05713 0.41483 0.53325 0.0
C77 C 0.05478 0.38531 0.54906 0.0
C78 C 0.02215 0.37733 0.55972 0.0
C79 C 0.9918 0.3994 0.55378 0.0
C80 C 0.99436 0.4292 0.53823 0.0
C81 C 0.03051 0.56752 0.52922 0.0
C82 C 0.0001 0.57428 0.54258 0.0
C83 C -0.0001 0.60316 0.55924 0.0
C84 C 0.0302 0.6258 0.56295 0.0
C85 C 0.06024 0.61953 0.54899 0.0
C86 C 0.06042 0.59059 0.53234 0.0
C87 C 0.03222 0.53472 0.51385 0.0
C88 C 0.02665 0.50239 0.52604 0.0
C89 C 0.04148 0.5348 0.48811 0.0
C90 C 0.04441 0.56777 0.47313 0.0
C91 C 0.01531 0.59173 0.47023 0.0
C92 C 0.01651 0.62084 0.45385 0.0
C93 C 0.04679 0.62647 0.44 0.0
C94 C 0.0763 0.60295 0.4435 0.0
C95 C 0.07506 0.57384 0.45985 0.0
Mg96 Mg 0.07913 -0.00554 0.26452 0.0
O97 O 0.0228 0.99148 0.24066 0.0
O98 O 0.98247 0.98163 0.26917 0.0
Mg99 Mg 0.01147 0.97696 0.30987 0.0
C100 C 0.99008 0.98685 0.24605 0.0
C101 C 0.13957 0.02439 0.23659 0.0
O102 O 0.15306 0.02075 0.26084 0.0
O103 O 0.06548 0.04946 0.2791 0.0
O104 O 0.0267 0.03537 0.30782 0.0
O105 O 0.08647 0.93578 0.26162 0.0
O106 O 0.06103 0.96238 0.2929 0.0
C107 C 0.04501 0.05818 0.29646 0.0
C108 C 0.07028 0.93343 0.2825 0.0
O109 O 0.10624 0.01676 0.23053 0.0
Mg110 Mg 0.99289 0.99296 0.73675 0.0
O111 O 0.04836 -0.0064 0.76181 0.0
O112 O 0.09054 0.98532 0.73444 0.0
Mg113 Mg 0.06361 0.97778 0.69338 0.0
C114 C 0.08162 0.99072 0.75721 0.0
C115 C 0.92854 0.01239 0.7643 0.0
O116 O 0.91577 0.0009 0.74127 0.0
O117 O 0.00425 0.04832 0.72154 0.0
O118 O 0.04496 0.03528 0.69398 0.0
O119 O 0.98848 0.93411 0.74051 0.0
O120 O 0.01402 0.96115 0.70945 0.0
C121 C 0.02498 0.05751 0.70444 0.0
C122 C 0.00571 0.93204 0.72009 0.0
O123 O 0.96287 0.01416 0.76971 0.0
C124 C 0.38857 0.04334 0.10427 0.0
C125 C 0.38198 0.04441 0.07719 0.0
C126 C 0.35986 0.04624 0.11965 0.0
C127 C 0.26229 0.03062 0.11947 0.0
H128 H 0.27259 0.08927 0.18094 0.0
C129 C 0.15099 0.03528 0.19031 0.0
C130 C 0.16391 0.03389 0.2167 0.0
C131 C 0.17506 0.04144 0.17162 0.0
C132 C 0.26933 0.07257 0.16395 0.0
H133 H 0.34017 0.04928 0.04493 0.0
H134 H 0.28971 0.05398 0.07194 0.0
H135 H 0.3198 0.09018 0.15143 0.0
H136 H 0.21207 0.03882 0.24414 0.0
H137 H 0.25378 0.04882 0.21181 0.0
H138 H 0.21254 0.01192 0.13244 0.0
C139 C 0.31718 0.05102 0.08119 0.0
C140 C 0.29636 0.07318 0.14702 0.0
C141 C 0.34603 0.04856 0.06578 0.0
C142 C 0.20113 0.03976 0.224 0.0
C143 C 0.2251 0.04578 0.2054 0.0
C144 C 0.23535 0.02976 0.13654 0.0
C145 C 0.32384 0.04994 0.1083 0.0
C146 C 0.29346 0.05173 0.12487 0.0
C147 C 0.21251 0.04633 0.17895 0.0
C148 C 0.2389 0.0502 0.15928 0.0
H149 H 0.41603 0.04047 0.11359 0.0
H150 H 0.36578 0.04495 0.14047 0.0
H151 H 0.25946 0.01363 0.10262 0.0
H152 H 0.12244 0.03096 0.18405 0.0
H153 H 0.16436 0.04212 0.15144 0.0
C154 C 5e-05 0.34868 0.59902 0.0
C155 C 0.02028 0.34671 0.5775 0.0
C156 C -0.00037 0.32039 0.61628 0.0
C157 C 0.05439 0.24572 0.64098 0.0
H158 H 0.9643 0.20226 0.65717 0.0
C159 C 0.05038 0.1046 0.67797 0.0
C160 C 0.02559 0.09463 0.69546 0.0
C161 C 0.04989 0.13853 0.66771 0.0
C162 C 0.9897 0.21454 0.65335 0.0
H163 H 0.05483 0.31268 0.55692 0.0
H164 H 0.05502 0.26402 0.58751 0.0
H165 H 0.96231 0.25583 0.63075 0.0
H166 H 0.98144 0.11309 0.71646 0.0
H167 H 0.9809 0.17299 0.69861 0.0
H168 H 0.08195 0.20477 0.66336 0.0
C169 C 0.03968 0.2876 0.591 0.0
C170 C 0.98852 0.24507 0.63812 0.0
C171 C 0.03966 0.31557 0.57355 0.0
C172 C 0.00088 0.1199 0.70301 0.0
C173 C 0.00042 0.15412 0.69267 0.0
C174 C 0.0556 0.21559 0.65642 0.0
C175 C 0.01989 0.28984 0.61259 0.0
C176 C 0.02085 0.26023 0.63118 0.0
C177 C 0.02478 0.16368 0.67473 0.0
C178 C 0.02329 0.19891 0.66207 0.0
H179 H 0.98523 0.37238 0.60295 0.0
H180 H 0.98426 0.32273 0.63286 0.0
H181 H 0.07971 0.25737 0.63629 0.0
H182 H 0.06987 0.08598 0.67167 0.0
H183 H 0.06858 0.14462 0.65358 0.0
C184 C 0.74119 0.0102 0.06873 0.0
C185 C 0.70811 0.01687 0.07903 0.0
C186 C 0.77335 0.00551 0.08513 0.0
C187 C 0.80584 0.97845 0.15112 0.0
H188 H 0.89399 0.03015 0.14098 0.0
C189 C 0.92342 0.98863 0.23151 0.0
C190 C 0.95953 0.98828 0.22516 0.0
C191 C 0.8943 0.99035 0.21225 0.0
C192 C 0.86982 0.01504 0.14385 0.0
H193 H 0.68267 0.02349 0.11449 0.0
H194 H 0.73866 0.0151 0.14306 0.0
H195 H 0.84017 0.0364 0.10971 0.0
H196 H 0.99322 0.9894 0.19335 0.0
H197 H 0.94208 0.99173 0.15951 0.0
H198 H 0.83512 0.95684 0.18503 0.0
C199 C 0.73977 0.01358 0.12235 0.0
C200 C 0.83899 0.01872 0.12598 0.0
C201 C 0.7078 0.0187 0.106 0.0
C202 C 0.96576 0.98967 0.19893 0.0
C203 C 0.93645 0.99118 0.17954 0.0
C204 C 0.83665 0.9745 0.1688 0.0
C205 C 0.77285 0.00684 0.11211 0.0
C206 C 0.8065 0.00099 0.12975 0.0
C207 C 0.90034 0.99145 0.186 0.0
C208 C 0.8688 -0.00668 0.16573 0.0
H209 H 0.74221 0.00885 0.048 0.0
H210 H 0.79847 0.00023 0.07675 0.0
H211 H 0.78137 0.96393 0.15423 0.0
H212 H 0.91748 0.98797 0.25148 0.0
H213 H 0.86697 0.99136 0.21803 0.0
C214 C 0.01772 0.64996 0.6061 0.0
C215 C 0.03091 0.65512 0.58194 0.0
C216 C 0.0185 0.67742 0.62407 0.0
C217 C 0.06221 0.76341 0.64084 0.0
H218 H 0.97617 0.78033 0.67601 0.0
C219 C 0.03165 0.89684 0.68578 0.0
C220 C 0.01494 0.89773 0.70887 0.0
C221 C 0.03756 0.86485 0.67367 0.0
C222 C 0.00068 0.77558 0.66675 0.0
H223 H 0.05506 0.69323 0.55767 0.0
H224 H 0.05629 0.74125 0.589 0.0
H225 H 0.97835 0.72905 0.64787 0.0
H226 H 0.9921 0.86556 0.73771 0.0
H227 H 0.00243 0.80935 0.71639 0.0
H228 H 0.08417 0.81042 0.65925 0.0
C229 C 0.04588 0.71577 0.5942 0.0
C230 C 0.00191 0.74624 0.65057 0.0
C231 C 0.0451 0.6883 0.57622 0.0
C232 C 0.00506 0.86574 0.71994 0.0
C233 C 0.01082 0.83361 0.70769 0.0
C234 C 0.06098 0.79273 0.65701 0.0
C235 C 0.03252 0.71066 0.61831 0.0
C236 C 0.03241 0.74021 0.63706 0.0
C237 C 0.02673 0.83291 0.68424 0.0
C238 C 0.02992 0.79951 0.66974 0.0
H239 H 0.00724 0.6245 0.61128 0.0
H240 H 0.00845 0.67252 0.6426 0.0
H241 H 0.08639 0.75908 0.63111 0.0
H242 H 0.03914 0.92091 0.67647 0.0
H243 H 0.04929 0.86531 0.6554 0.0
C244 C 0.32809 0.01781 0.93581 0.0
C245 C 0.3612 0.02449 0.92552 0.0
C246 C 0.29545 0.01583 0.91957 0.0
C247 C 0.25516 0.04129 0.85384 0.0
H248 H 0.18392 0.96844 0.86359 0.0
C249 C 0.14737 -0.00086 0.77279 0.0
C250 C 0.1112 -0.00498 0.77855 0.0
C251 C 0.17548 0.0043 0.79246 0.0
C252 C 0.20335 0.98921 0.86087 0.0
H253 H 0.38614 0.03315 0.89007 0.0
H254 H 0.32959 0.02939 0.86183 0.0
H255 H 0.23786 0.9745 0.89485 0.0
H256 H 0.07642 0.99255 0.80971 0.0
H257 H 0.12607 0.00118 0.8443 0.0
H258 H 0.22128 0.05532 0.81951 0.0
C259 C 0.32853 0.02662 0.88247 0.0
C260 C 0.23422 0.99273 0.87875 0.0
C261 C 0.36101 0.02872 0.89867 0.0
C262 C 0.10395 -0.00429 0.80461 0.0
C263 C 0.13232 0.00052 0.8244 0.0
C264 C 0.22454 0.03762 0.83595 0.0
C265 C 0.29528 0.02038 0.8927 0.0
C266 C 0.26086 0.01837 0.87514 0.0
C267 C 0.16831 0.00523 0.81844 0.0
C268 C 0.19869 0.01112 0.83898 0.0
H269 H 0.32734 0.0147 0.95646 0.0
H270 H 0.2703 0.01127 0.9281 0.0
H271 H 0.27461 0.06192 0.85081 0.0
H272 H 0.15408 -0.00122 0.75299 0.0
H273 H 0.20302 0.00733 0.7873 0.0
C274 C 0.02696 0.31691 0.42588 0.0
C275 C 0.0469 0.34781 0.42213 0.0
C276 C 0.02644 0.2891 0.40825 0.0
C277 C 0.07765 0.24697 0.36086 0.0
H278 H 0.98453 0.20495 0.33658 0.0
C279 C 0.06679 0.12133 0.29672 0.0
C280 C 0.04303 0.09548 0.3048 0.0
C281 C 0.0664 0.15571 0.30668 0.0
C282 C 0.01078 0.21628 0.34324 0.0
H283 H 0.08216 0.37337 0.39675 0.0
H284 H 0.08218 0.32404 0.36648 0.0
H285 H 0.98644 0.25773 0.36351 0.0
H286 H -0.00065 0.08596 0.32896 0.0
H287 H -0.00084 0.14499 0.34642 0.0
H288 H 0.10214 0.20454 0.34167 0.0
C289 C 0.06683 0.3217 0.38307 0.0
C290 C 0.01182 0.2465 0.35861 0.0
C291 C 0.06696 0.34981 0.40053 0.0
C292 C 0.01815 0.10506 0.32231 0.0
C293 C 0.01778 0.13917 0.33219 0.0
C294 C 0.07666 0.2164 0.34569 0.0
C295 C 0.04622 0.29129 0.38664 0.0
C296 C 0.04526 0.26162 0.36808 0.0
C297 C 0.04213 0.16486 0.32478 0.0
C298 C 0.04321 0.20016 0.33731 0.0
H299 H 0.01186 0.31404 0.44255 0.0
H300 H 0.01084 0.26562 0.41167 0.0
H301 H 0.10379 0.25816 0.36798 0.0
H302 H 0.08625 0.11483 0.28322 0.0
H303 H 0.0853 0.17501 0.30042 0.0
C304 C 0.67965 0.02771 0.89869 0.0
C305 C 0.68691 0.03342 0.92544 0.0
C306 C 0.70759 0.02938 0.88257 0.0
C307 C 0.80685 0.02179 0.88239 0.0
H308 H 0.78803 0.06635 0.81521 0.0
C309 C 0.91577 0.02914 0.80941 0.0
C310 C 0.90308 0.02059 0.78372 0.0
C311 C 0.89116 0.03465 0.82783 0.0
C312 C 0.79369 0.05364 0.83385 0.0
H313 H 0.72937 0.04513 0.95625 0.0
H314 H 0.77832 0.04828 0.92795 0.0
H315 H 0.74172 0.06806 0.84534 0.0
H316 H 0.85456 0.01174 0.75721 0.0
H317 H 0.81203 0.02098 0.78914 0.0
H318 H 0.85858 0.00671 0.87061 0.0
C319 C 0.75092 0.04237 0.91953 0.0
C320 C 0.76712 0.05461 0.85111 0.0
C321 C 0.72286 0.04086 0.93569 0.0
C322 C 0.86534 0.01836 0.77678 0.0
C323 C 0.84086 0.0239 0.7951 0.0
C324 C 0.83346 0.02074 0.86506 0.0
C325 C 0.74355 0.03676 0.89276 0.0
C326 C 0.7731 0.03813 0.87539 0.0
C327 C 0.8534 0.0319 0.82088 0.0
C328 C 0.82688 0.03607 0.84038 0.0
H329 H 0.65221 0.02231 0.89012 0.0
H330 H 0.70106 0.02447 0.86208 0.0
H331 H 0.81218 0.00864 0.90088 0.0
H332 H 0.94469 0.03105 0.81537 0.0
H333 H 0.90168 0.04106 0.8475 0.0
C334 C 0.07881 0.67594 0.41948 0.0
C335 C 0.04707 0.65596 0.42124 0.0
C336 C 0.07918 0.70327 0.40147 0.0
C337 C 0.01823 0.76429 0.3629 0.0
H338 H 0.10353 0.78142 0.3269 0.0
C339 C 0.04737 0.898 0.31792 0.0
C340 C 0.06281 0.89902 0.29432 0.0
C341 C 0.04245 0.86599 0.33028 0.0
C342 C 0.0793 0.7767 0.3365 0.0
H343 H 0.99104 0.6485 0.40507 0.0
H344 H 0.99164 0.69631 0.37373 0.0
H345 H 0.10132 0.72945 0.35445 0.0
H346 H 0.08479 0.86706 0.265 0.0
H347 H 0.07622 0.81079 0.28679 0.0
H348 H 0.99628 0.81159 0.34509 0.0
C349 C 0.0161 0.69115 0.38651 0.0
C350 C 0.07822 0.74719 0.35254 0.0
C351 C 0.01573 0.66384 0.40453 0.0
C352 C 0.07275 0.86714 0.28314 0.0
C353 C 0.068 0.83497 0.29565 0.0
C354 C 0.01933 0.79378 0.34691 0.0
C355 C 0.04781 0.7112 0.3848 0.0
C356 C 0.04793 0.741 0.36626 0.0
C357 C 0.05304 0.83415 0.31946 0.0
C358 C 0.05015 0.80067 0.33392 0.0
H359 H 0.10326 0.67079 0.43228 0.0
H360 H 0.10385 0.71864 0.40096 0.0
H361 H 0.99458 0.76041 0.3733 0.0
H362 H 0.03996 0.922 0.32734 0.0
H363 H 0.03151 0.86636 0.34883 0.0
loop_
_geom_bond_atom_site_label_1
_geom_bond_atom_site_label_2
_geom_bond_distance
_geom_bond_site_symmetry_2
_ccdc_geom_bond_type
H0 C19 0.949 . S
H1 C20 0.950 . S
H2 C22 0.950 . S
H3 C23 0.950 . S
H4 C25 0.950 1_565 S
H5 C28 0.950 . S
H6 C29 0.950 . S
H7 C31 0.951 . S
H8 C32 0.949 . S
H9 C34 0.949 . S
H10 C35 0.950 . S
H11 C37 0.950 . S
H12 C38 0.950 . S
H13 C40 0.950 . S
H14 C43 0.950 . S
H15 C44 0.950 . S
H16 C46 0.951 . S
H17 C47 0.949 . S
C18 C19 1.376 1_545 S
C18 C23 1.386 . S
C18 C24 1.483 . S
C19 H0 0.949 . S
C19 C18 1.376 1_565 S
C19 C20 1.397 . S
C20 H1 0.950 . S
C20 C19 1.397 . S
C20 C21 1.391 1_565 S
C21 C20 1.391 1_545 S
C21 C22 1.405 . S
C22 H2 0.950 . S
C22 C21 1.405 . S
C22 C23 1.367 . S
C23 H3 0.950 . S
C23 C18 1.386 . S
C23 C22 1.367 . S
C24 C18 1.483 . S
C24 C25 1.382 . S
C24 C26 1.403 1_554 S
C25 H4 0.950 1_545 S
C25 C24 1.382 . S
C25 C41 1.411 . S
C26 C24 1.403 1_556 S
C26 C27 1.489 . S
C26 C40 1.411 . S
C27 C26 1.489 . S
C27 C28 1.383 1_545 S
C27 C32 1.382 . S
C28 H5 0.950 . S
C28 C27 1.383 1_565 S
C28 C29 1.395 . S
C29 H6 0.950 . S
C29 C28 1.395 . S
C29 C30 1.288 1_565 S
C30 C29 1.288 1_545 S
C30 C31 1.392 . S
C31 H7 0.951 . S
C31 C30 1.392 . S
C31 C32 1.392 . S
C32 H8 0.949 . S
C32 C27 1.382 . S
C32 C31 1.392 . S
C33 C34 1.376 . S
C33 C38 1.386 1_545 S
C33 C39 1.483 . S
C34 H9 0.949 . S
C34 C33 1.376 . S
C34 C35 1.397 . S
C35 H10 0.950 . S
C35 C34 1.397 . S
C35 C36 1.391 . S
C36 C35 1.391 . S
C36 C37 1.405 1_545 S
C37 H11 0.950 . S
C37 C36 1.405 1_565 S
C37 C38 1.367 . S
C38 H12 0.950 . S
C38 C33 1.386 1_565 S
C38 C37 1.367 . S
C39 C33 1.483 . S
C39 C40 1.382 . S
C39 C41 1.403 1_556 S
C40 H13 0.950 . S
C40 C26 1.411 . S
C40 C39 1.382 . S
C41 C25 1.411 . S
C41 C39 1.403 1_554 S
C41 C42 1.489 . S
C42 C41 1.489 . S
C42 C43 1.383 . S
C42 C47 1.382 1_545 S
C43 H14 0.950 . S
C43 C42 1.383 . S
C43 C44 1.395 . S
C44 H15 0.950 . S
C44 C43 1.395 . S
C44 C45 1.288 . S
C45 C44 1.288 . S
C45 C46 1.392 1_545 S
C46 H16 0.951 . S
C46 C45 1.392 1_565 S
C46 C47 1.392 . S
C47 H17 0.949 . S
C47 C42 1.382 1_565 S
C47 C46 1.392 . S
H48 C67 0.949 . S
H49 C68 0.950 . S
H50 C70 0.950 1_655 S
H51 C71 0.950 1_655 S
H52 C73 0.950 . S
H53 C76 0.950 . S
H54 C77 0.950 . S
H55 C79 0.951 1_655 S
H56 C80 0.949 1_655 S
H57 C82 0.949 1_655 S
H58 C83 0.952 . S
H59 C85 0.950 . S
H60 C86 0.950 . S
H61 C88 0.950 . S
H62 C91 0.950 1_655 S
H63 C92 0.950 . S
H64 C94 0.951 . S
H65 C95 0.949 . S
C66 C67 1.376 . S
C66 C71 1.386 . S
C66 C72 1.483 . S
C67 H48 0.949 . S
C67 C66 1.376 . S
C67 C68 1.397 . S
C68 H49 0.950 . S
C68 C67 1.397 . S
C68 C69 1.391 . S
C69 C68 1.391 . S
C69 C70 1.405 . S
C70 H50 0.950 1_455 S
C70 C69 1.405 . S
C70 C71 1.367 . S
C71 H51 0.950 1_455 S
C71 C66 1.386 . S
C71 C70 1.367 . S
C72 C66 1.483 . S
C72 C73 1.382 . S
C72 C74 1.403 . S
C73 H52 0.950 . S
C73 C72 1.382 . S
C73 C89 1.411 . S
C74 C72 1.403 . S
C74 C75 1.489 . S
C74 C88 1.411 . S
C75 C74 1.489 . S
C75 C76 1.383 . S
C75 C80 1.382 . S
C76 H53 0.950 . S
C76 C75 1.383 . S
C76 C77 1.395 . S
C77 H54 0.950 . S
C77 C76 1.395 . S
C77 C78 1.288 . S
C78 C77 1.288 . S
C78 C79 1.392 . S
C79 H55 0.951 1_455 S
C79 C78 1.392 . S
C79 C80 1.392 . S
C80 H56 0.949 1_455 S
C80 C75 1.382 . S
C80 C79 1.392 . S
C81 C82 1.376 . S
C81 C86 1.386 . S
C81 C87 1.483 . S
C82 H57 0.949 1_455 S
C82 C81 1.376 . S
C82 C83 1.397 1_455 S
C83 H58 0.952 . S
C83 C82 1.397 1_655 S
C83 C84 1.389 1_655 S
C84 C83 1.389 1_455 S
C84 C85 1.405 . S
C85 H59 0.950 . S
C85 C84 1.405 . S
C85 C86 1.367 . S
C86 H60 0.950 . S
C86 C81 1.386 . S
C86 C85 1.367 . S
C87 C81 1.483 . S
C87 C88 1.382 . S
C87 C89 1.403 . S
C88 H61 0.950 . S
C88 C74 1.411 . S
C88 C87 1.382 . S
C89 C73 1.411 . S
C89 C87 1.403 . S
C89 C90 1.489 . S
C90 C89 1.489 . S
C90 C91 1.383 . S
C90 C95 1.382 . S
C91 H62 0.950 1_455 S
C91 C90 1.383 . S
C91 C92 1.395 . S
C92 H63 0.950 . S
C92 C91 1.395 . S
C92 C93 1.288 . S
C93 C92 1.288 . S
C93 C94 1.392 . S
C94 H64 0.951 . S
C94 C93 1.392 . S
C94 C95 1.392 . S
C95 H65 0.949 . S
C95 C90 1.382 . S
C95 C94 1.392 . S
Mg96 O97 2.028 . S
Mg96 O103 1.986 . S
Mg96 O105 2.114 1_545 S
Mg96 O106 2.251 1_545 S
Mg96 O109 2.010 . S
O97 Mg96 2.028 . S
O97 C100 1.250 . S
O98 Mg99 2.028 . S
O98 C100 1.248 1_655 S
Mg99 O98 2.028 . S
Mg99 O104 2.032 1_655 S
Mg99 O106 2.079 1_645 S
C100 O97 1.250 . S
C100 O98 1.248 1_455 S
C101 O102 1.264 . S
C101 O109 1.249 . S
O102 C101 1.264 . S
O103 Mg96 1.986 . S
O103 C107 1.246 . S
O104 Mg99 2.032 1_455 S
O104 C107 1.259 . S
O105 Mg96 2.114 1_565 S
O105 C108 1.252 . S
O106 Mg96 2.251 1_565 S
O106 Mg99 2.079 1_465 S
O106 C108 1.273 . S
C107 O103 1.246 . S
C107 O104 1.259 . S
C108 O105 1.252 . S
C108 O106 1.273 . S
O109 Mg96 2.010 . S
O109 C101 1.249 . S
Mg110 O111 2.028 1_655 S
Mg110 O117 1.986 1_655 S
Mg110 O119 2.114 1_545 S
Mg110 O120 2.251 1_645 S
Mg110 O123 2.010 . S
O111 Mg110 2.028 1_455 S
O111 C114 1.250 . S
O112 Mg113 2.028 . S
O112 C114 1.248 . S
Mg113 O112 2.028 . S
Mg113 O118 2.032 . S
Mg113 O120 2.079 1_545 S
C114 O111 1.250 . S
C114 O112 1.248 . S
C115 O116 1.264 . S
C115 O123 1.249 . S
O116 C115 1.264 . S
O117 Mg110 1.986 1_455 S
O117 C121 1.246 . S
O118 Mg113 2.032 . S
O118 C121 1.259 . S
O119 Mg110 2.114 1_565 S
O119 C122 1.252 1_655 S
O120 Mg110 2.251 1_465 S
O120 Mg113 2.079 1_565 S
O120 C122 1.273 . S
C121 O117 1.246 . S
C121 O118 1.259 . S
C122 O119 1.252 1_455 S
C122 O120 1.273 . S
O123 Mg110 2.010 . S
O123 C115 1.249 . S
C124 C125 1.349 1_565 S
C124 C126 1.327 . S
C124 H149 0.950 . S
C125 C124 1.349 1_545 S
C125 C141 1.349 . S
C126 C124 1.327 . S
C126 C145 1.429 1_565 S
C126 H150 0.950 . S
C127 C144 1.574 . S
C127 C146 1.368 . S
C127 H151 0.949 . S
H128 C132 0.949 . S
C129 C130 1.349 . S
C129 C131 1.327 . S
C129 H152 0.950 . S
C130 C129 1.349 . S
C130 C142 1.349 1_545 S
C131 C129 1.327 . S
C131 C147 1.429 . S
C131 H153 0.950 . S
C132 H128 0.949 . S
C132 C140 1.574 . S
C132 C148 1.368 1_565 S
H133 C141 0.950 . S
H134 C139 0.950 . S
H135 C140 0.949 . S
H136 C142 0.950 . S
H137 C143 0.950 . S
H138 C144 0.949 . S
C139 H134 0.950 . S
C139 C141 1.327 . S
C139 C145 1.429 . S
C140 C132 1.574 . S
C140 H135 0.949 . S
C140 C146 1.368 1_565 S
C141 C125 1.349 . S
C141 H133 0.950 . S
C141 C139 1.327 . S
C142 C130 1.349 1_565 S
C142 H136 0.950 . S
C142 C143 1.327 . S
C143 H137 0.950 . S
C143 C142 1.327 . S
C143 C147 1.429 1_565 S
C144 C127 1.574 . S
C144 H138 0.949 . S
C144 C148 1.368 . S
C145 C126 1.429 1_545 S
C145 C139 1.429 . S
C145 C146 1.523 . S
C146 C127 1.368 . S
C146 C140 1.368 1_545 S
C146 C145 1.523 . S
C147 C131 1.429 . S
C147 C143 1.429 1_545 S
C147 C148 1.523 . S
C148 C132 1.368 1_545 S
C148 C144 1.368 . S
C148 C147 1.523 . S
H149 C124 0.950 . S
H150 C126 0.950 . S
H151 C127 0.949 . S
H152 C129 0.950 . S
H153 C131 0.950 . S
C154 C155 1.349 . S
C154 C156 1.327 . S
C154 H179 0.950 . S
C155 C154 1.349 . S
C155 C171 1.349 . S
C156 C154 1.327 . S
C156 C175 1.429 . S
C156 H180 0.950 . S
C157 C174 1.574 . S
C157 C176 1.368 . S
C157 H181 0.949 . S
H158 C162 0.949 . S
C159 C160 1.349 . S
C159 C161 1.327 . S
C159 H182 0.950 . S
C160 C159 1.349 . S
C160 C172 1.349 . S
C161 C159 1.327 . S
C161 C177 1.429 . S
C161 H183 0.950 . S
C162 H158 0.949 . S
C162 C170 1.574 . S
C162 C178 1.368 . S
H163 C171 0.950 . S
H164 C169 0.950 . S
H165 C170 0.949 . S
H166 C172 0.950 . S
H167 C173 0.950 . S
H168 C174 0.949 . S
C169 H164 0.950 . S
C169 C171 1.327 . S
C169 C175 1.429 . S
C170 C162 1.574 . S
C170 H165 0.949 . S
C170 C176 1.368 . S
C171 C155 1.349 . S
C171 H163 0.950 . S
C171 C169 1.327 . S
C172 C160 1.349 . S
C172 H166 0.950 . S
C172 C173 1.327 . S
C173 H167 0.950 . S
C173 C172 1.327 . S
C173 C177 1.429 . S
C174 C157 1.574 . S
C174 H168 0.949 . S
C174 C178 1.368 . S
C175 C156 1.429 . S
C175 C169 1.429 . S
C175 C176 1.523 . S
C176 C157 1.368 . S
C176 C170 1.368 . S
C176 C175 1.523 . S
C177 C161 1.429 . S
C177 C173 1.429 . S
C177 C178 1.523 . S
C178 C162 1.368 . S
C178 C174 1.368 . S
C178 C177 1.523 . S
H179 C154 0.950 . S
H180 C156 0.950 . S
H181 C157 0.949 . S
H182 C159 0.950 . S
H183 C161 0.950 . S
C184 C185 1.349 1_565 S
C184 C186 1.327 . S
C184 H209 0.950 . S
C185 C184 1.349 1_545 S
C185 C201 1.349 . S
C186 C184 1.327 . S
C186 C205 1.429 1_565 S
C186 H210 0.950 . S
C187 C204 1.574 . S
C187 C206 1.368 . S
C187 H211 0.949 . S
H188 C192 0.949 . S
C189 C190 1.349 . S
C189 C191 1.327 . S
C189 H212 0.950 . S
C190 C189 1.349 . S
C190 C202 1.349 1_545 S
C191 C189 1.327 . S
C191 C207 1.429 . S
C191 H213 0.950 . S
C192 H188 0.949 . S
C192 C200 1.574 . S
C192 C208 1.368 1_565 S
H193 C201 0.950 . S
H194 C199 0.950 . S
H195 C200 0.949 . S
H196 C202 0.950 . S
H197 C203 0.950 . S
H198 C204 0.949 . S
C199 H194 0.950 . S
C199 C201 1.327 . S
C199 C205 1.429 . S
C200 C192 1.574 . S
C200 H195 0.949 . S
C200 C206 1.368 1_565 S
C201 C185 1.349 . S
C201 H193 0.950 . S
C201 C199 1.327 . S
C202 C190 1.349 1_565 S
C202 H196 0.950 . S
C202 C203 1.327 . S
C203 H197 0.950 . S
C203 C202 1.327 . S
C203 C207 1.429 1_565 S
C204 C187 1.574 . S
C204 H198 0.949 . S
C204 C208 1.368 . S
C205 C186 1.429 1_545 S
C205 C199 1.429 . S
C205 C206 1.523 . S
C206 C187 1.368 . S
C206 C200 1.368 1_545 S
C206 C205 1.523 . S
C207 C191 1.429 . S
C207 C203 1.429 1_545 S
C207 C208 1.523 . S
C208 C192 1.368 1_545 S
C208 C204 1.368 . S
C208 C207 1.523 . S
H209 C184 0.950 . S
H210 C186 0.950 . S
H211 C187 0.949 . S
H212 C189 0.950 . S
H213 C191 0.950 . S
C214 C215 1.349 . S
C214 C216 1.327 . S
C214 H239 0.950 . S
C215 C214 1.349 . S
C215 C231 1.349 . S
C216 C214 1.327 . S
C216 C235 1.429 . S
C216 H240 0.950 . S
C217 C234 1.574 . S
C217 C236 1.368 . S
C217 H241 0.949 . S
H218 C222 0.949 . S
C219 C220 1.349 . S
C219 C221 1.327 . S
C219 H242 0.950 . S
C220 C219 1.349 . S
C220 C232 1.349 . S
C221 C219 1.327 . S
C221 C237 1.429 . S
C221 H243 0.950 . S
C222 H218 0.949 . S
C222 C230 1.574 . S
C222 C238 1.368 . S
H223 C231 0.950 . S
H224 C229 0.950 . S
H225 C230 0.949 . S
H226 C232 0.952 . S
H227 C233 0.950 . S
H228 C234 0.949 . S
C229 H224 0.950 . S
C229 C231 1.327 . S
C229 C235 1.429 . S
C230 C222 1.574 . S
C230 H225 0.949 . S
C230 C236 1.368 . S
C231 C215 1.349 . S
C231 H223 0.950 . S
C231 C229 1.327 . S
C232 C220 1.349 . S
C232 H226 0.952 . S
C232 C233 1.327 . S
C233 H227 0.950 . S
C233 C232 1.327 . S
C233 C237 1.429 . S
C234 C217 1.574 . S
C234 H228 0.949 . S
C234 C238 1.368 . S
C235 C216 1.429 . S
C235 C229 1.429 . S
C235 C236 1.523 . S
C236 C217 1.368 . S
C236 C230 1.368 . S
C236 C235 1.523 . S
C237 C221 1.429 . S
C237 C233 1.429 . S
C237 C238 1.523 . S
C238 C222 1.368 . S
C238 C234 1.368 . S
C238 C237 1.523 . S
H239 C214 0.950 . S
H240 C216 0.950 . S
H241 C217 0.949 . S
H242 C219 0.950 . S
H243 C221 0.950 . S
C244 C245 1.349 1_565 S
C244 C246 1.327 . S
C244 H269 0.950 . S
C245 C244 1.349 1_545 S
C245 C261 1.349 . S
C246 C244 1.327 . S
C246 C265 1.429 1_565 S
C246 H270 0.950 . S
C247 C264 1.574 . S
C247 C266 1.368 . S
C247 H271 0.949 . S
H248 C252 0.949 . S
C249 C250 1.349 . S
C249 C251 1.327 . S
C249 H272 0.950 . S
C250 C249 1.349 . S
C250 C262 1.349 1_545 S
C251 C249 1.327 . S
C251 C267 1.429 . S
C251 H273 0.950 . S
C252 H248 0.949 . S
C252 C260 1.574 . S
C252 C268 1.368 1_565 S
H253 C261 0.950 . S
H254 C259 0.950 . S
H255 C260 0.949 . S
H256 C262 0.950 . S
H257 C263 0.950 . S
H258 C264 0.949 . S
C259 H254 0.950 . S
C259 C261 1.327 . S
C259 C265 1.429 . S
C260 C252 1.574 . S
C260 H255 0.949 . S
C260 C266 1.368 1_565 S
C261 C245 1.349 . S
C261 H253 0.950 . S
C261 C259 1.327 . S
C262 C250 1.349 1_565 S
C262 H256 0.950 . S
C262 C263 1.327 . S
C263 H257 0.950 . S
C263 C262 1.327 . S
C263 C267 1.429 1_565 S
C264 C247 1.574 . S
C264 H258 0.949 . S
C264 C268 1.368 . S
C265 C246 1.429 1_545 S
C265 C259 1.429 . S
C265 C266 1.523 . S
C266 C247 1.368 . S
C266 C260 1.368 1_545 S
C266 C265 1.523 . S
C267 C251 1.429 . S
C267 C263 1.429 1_545 S
C267 C268 1.523 . S
C268 C252 1.368 1_545 S
C268 C264 1.368 . S
C268 C267 1.523 . S
H269 C244 0.950 . S
H270 C246 0.950 . S
H271 C247 0.949 . S
H272 C249 0.950 . S
H273 C251 0.950 . S
C274 C275 1.349 . S
C274 C276 1.327 . S
C274 H299 0.950 . S
C275 C274 1.349 . S
C275 C291 1.349 . S
C276 C274 1.327 . S
C276 C295 1.429 . S
C276 H300 0.950 . S
C277 C294 1.574 . S
C277 C296 1.368 . S
C277 H301 0.949 . S
H278 C282 0.949 . S
C279 C280 1.349 . S
C279 C281 1.327 . S
C279 H302 0.950 . S
C280 C279 1.349 . S
C280 C292 1.349 . S
C281 C279 1.327 . S
C281 C297 1.429 . S
C281 H303 0.950 . S
C282 H278 0.949 . S
C282 C290 1.574 . S
C282 C298 1.368 . S
H283 C291 0.950 . S
H284 C289 0.950 . S
H285 C290 0.949 . S
H286 C292 0.950 . S
H287 C293 0.950 . S
H288 C294 0.949 . S
C289 H284 0.950 . S
C289 C291 1.327 . S
C289 C295 1.429 . S
C290 C282 1.574 . S
C290 H285 0.949 . S
C290 C296 1.368 . S
C291 C275 1.349 . S
C291 H283 0.950 . S
C291 C289 1.327 . S
C292 C280 1.349 . S
C292 H286 0.950 . S
C292 C293 1.327 . S
C293 H287 0.950 . S
C293 C292 1.327 . S
C293 C297 1.429 . S
C294 C277 1.574 . S
C294 H288 0.949 . S
C294 C298 1.368 . S
C295 C276 1.429 . S
C295 C289 1.429 . S
C295 C296 1.523 . S
C296 C277 1.368 . S
C296 C290 1.368 . S
C296 C295 1.523 . S
C297 C281 1.429 . S
C297 C293 1.429 . S
C297 C298 1.523 . S
C298 C282 1.368 . S
C298 C294 1.368 . S
C298 C297 1.523 . S
H299 C274 0.950 . S
H300 C276 0.950 . S
H301 C277 0.949 . S
H302 C279 0.950 . S
H303 C281 0.950 . S
C304 C305 1.349 1_565 S
C304 C306 1.327 . S
C304 H329 0.950 . S
C305 C304 1.349 1_545 S
C305 C321 1.349 . S
C306 C304 1.327 . S
C306 C325 1.429 1_565 S
C306 H330 0.950 . S
C307 C324 1.574 . S
C307 C326 1.368 . S
C307 H331 0.949 . S
H308 C312 0.949 . S
C309 C310 1.349 . S
C309 C311 1.327 . S
C309 H332 0.950 . S
C310 C309 1.349 . S
C310 C322 1.349 1_545 S
C311 C309 1.327 . S
C311 C327 1.429 . S
C311 H333 0.950 . S
C312 H308 0.949 . S
C312 C320 1.574 . S
C312 C328 1.368 1_565 S
H313 C321 0.950 . S
H314 C319 0.950 . S
H315 C320 0.949 . S
H316 C322 0.950 . S
H317 C323 0.950 . S
H318 C324 0.949 . S
C319 H314 0.950 . S
C319 C321 1.327 . S
C319 C325 1.429 . S
C320 C312 1.574 . S
C320 H315 0.949 . S
C320 C326 1.368 1_565 S
C321 C305 1.349 . S
C321 H313 0.950 . S
C321 C319 1.327 . S
C322 C310 1.349 1_565 S
C322 H316 0.950 . S
C322 C323 1.327 . S
C323 H317 0.950 . S
C323 C322 1.327 . S
C323 C327 1.429 1_565 S
C324 C307 1.574 . S
C324 H318 0.949 . S
C324 C328 1.368 . S
C325 C306 1.429 1_545 S
C325 C319 1.429 . S
C325 C326 1.523 . S
C326 C307 1.368 . S
C326 C320 1.368 1_545 S
C326 C325 1.523 . S
C327 C311 1.429 . S
C327 C323 1.429 1_545 S
C327 C328 1.523 . S
C328 C312 1.368 1_545 S
C328 C324 1.368 . S
C328 C327 1.523 . S
H329 C304 0.950 . S
H330 C306 0.950 . S
H331 C307 0.949 . S
H332 C309 0.950 . S
H333 C311 0.950 . S
C334 C335 1.349 . S
C334 C336 1.327 . S
C334 H359 0.950 . S
C335 C334 1.349 . S
C335 C351 1.349 . S
C336 C334 1.327 . S
C336 C355 1.429 . S
C336 H360 0.950 . S
C337 C354 1.574 . S
C337 C356 1.368 . S
C337 H361 0.949 1_455 S
H338 C342 0.949 . S
C339 C340 1.349 . S
C339 C341 1.327 . S
C339 H362 0.949 1_455 S
C340 C339 1.349 . S
C340 C352 1.349 . S
C341 C339 1.327 . S
C341 C357 1.429 . S
C341 H363 0.950 1_455 S
C342 H338 0.949 . S
C342 C350 1.574 . S
C342 C358 1.368 . S
H343 C351 0.950 1_655 S
H344 C349 0.950 1_655 S
H345 C350 0.949 . S
H346 C352 0.950 . S
H347 C353 0.950 . S
H348 C354 0.949 1_655 S
C349 H344 0.950 1_455 S
C349 C351 1.327 . S
C349 C355 1.429 . S
C350 C342 1.574 . S
C350 H345 0.949 . S
C350 C356 1.368 . S
C351 C335 1.349 . S
C351 H343 0.950 1_455 S
C351 C349 1.327 . S
C352 C340 1.349 . S
C352 H346 0.950 . S
C352 C353 1.327 . S
C353 H347 0.950 . S
C353 C352 1.327 . S
C353 C357 1.429 . S
C354 C337 1.574 . S
C354 H348 0.949 1_455 S
C354 C358 1.368 . S
C355 C336 1.429 . S
C355 C349 1.429 . S
C355 C356 1.523 . S
C356 C337 1.368 . S
C356 C350 1.368 . S
C356 C355 1.523 . S
C357 C341 1.429 . S
C357 C353 1.429 . S
C357 C358 1.523 . S
C358 C342 1.368 . S
C358 C354 1.368 . S
C358 C357 1.523 . S
H359 C334 0.950 . S
H360 C336 0.950 . S
H361 C337 0.949 1_655 S
H362 C339 0.949 1_655 S
H363 C341 0.950 1_655 S
C130 C101 1.277 . S
C125 C45 1.530 . S
C160 C121 1.498 . S
C155 C78 1.518 . S
C190 C100 1.480 1_655 S
C185 C21 1.525 . S
C220 C122 1.530 . S
C215 C84 1.529 . S
C250 C114 1.480 . S
C245 C36 1.523 . S
C280 C107 1.498 . S
C275 C69 1.522 . S
C310 C115 1.277 . S
C305 C30 1.526 . S
C335 C93 1.525 . S
C340 C108 1.530 . S
