# Generated by pormake.
# Topology dag, (6,3)-cn, num edge types: 1
# Building blocks:
#     Node 0, Type 0, BuildingBlock: OJICUG_clean_sbu_0, # of connection points: 6
#     Node 1, Type 0, BuildingBlock: OJICUG_clean_sbu_0, # of connection points: 6
#     Node 2, Type 0, BuildingBlock: OJICUG_clean_sbu_0, # of connection points: 6
#     Node 3, Type 0, BuildingBlock: OJICUG_clean_sbu_0, # of connection points: 6
#     Node 4, Type 1, BuildingBlock: QEWDON_clean_linker_0, # of connection points: 3
#     Node 5, Type 1, BuildingBlock: QEWDON_clean_linker_0, # of connection points: 3
#     Node 6, Type 1, BuildingBlock: QEWDON_clean_linker_0, # of connection points: 3
#     Node 7, Type 1, BuildingBlock: QEWDON_clean_linker_0, # of connection points: 3
#     Node 8, Type 1, BuildingBlock: QEWDON_clean_linker_0, # of connection points: 3
#     Node 9, Type 1, BuildingBlock: QEWDON_clean_linker_0, # of connection points: 3
#     Node 10, Type 1, BuildingBlock: QEWDON_clean_linker_0, # of connection points: 3
#     Node 11, Type 1, BuildingBlock: QEWDON_clean_linker_0, # of connection points: 3
#     Edge 12, Type (0, 1), BuildingBlock: XUDNAN_clean_linker_2, # of connection points: 2
#     Edge 13, Type (0, 1), BuildingBlock: XUDNAN_clean_linker_2, # of connection points: 2
#     Edge 14, Type (0, 1), BuildingBlock: XUDNAN_clean_linker_2, # of connection points: 2
#     Edge 15, Type (0, 1), BuildingBlock: XUDNAN_clean_linker_2, # of connection points: 2
#     Edge 16, Type (0, 1), BuildingBlock: XUDNAN_clean_linker_2, # of connection points: 2
#     Edge 17, Type (0, 1), BuildingBlock: XUDNAN_clean_linker_2, # of connection points: 2
#     Edge 18, Type (0, 1), BuildingBlock: XUDNAN_clean_linker_2, # of connection points: 2
#     Edge 19, Type (0, 1), BuildingBlock: XUDNAN_clean_linker_2, # of connection points: 2
#     Edge 20, Type (0, 1), BuildingBlock: XUDNAN_clean_linker_2, # of connection points: 2
#     Edge 21, Type (0, 1), BuildingBlock: XUDNAN_clean_linker_2, # of connection points: 2
#     Edge 22, Type (0, 1), BuildingBlock: XUDNAN_clean_linker_2, # of connection points: 2
#     Edge 23, Type (0, 1), BuildingBlock: XUDNAN_clean_linker_2, # of connection points: 2
#     Edge 24, Type (0, 1), BuildingBlock: XUDNAN_clean_linker_2, # of connection points: 2
#     Edge 25, Type (0, 1), BuildingBlock: XUDNAN_clean_linker_2, # of connection points: 2
#     Edge 26, Type (0, 1), BuildingBlock: XUDNAN_clean_linker_2, # of connection points: 2
#     Edge 27, Type (0, 1), BuildingBlock: XUDNAN_clean_linker_2, # of connection points: 2
#     Edge 28, Type (0, 1), BuildingBlock: XUDNAN_clean_linker_2, # of connection points: 2
#     Edge 29, Type (0, 1), BuildingBlock: XUDNAN_clean_linker_2, # of connection points: 2
#     Edge 30, Type (0, 1), BuildingBlock: XUDNAN_clean_linker_2, # of connection points: 2
#     Edge 31, Type (0, 1), BuildingBlock: XUDNAN_clean_linker_2, # of connection points: 2
#     Edge 32, Type (0, 1), BuildingBlock: XUDNAN_clean_linker_2, # of connection points: 2
#     Edge 33, Type (0, 1), BuildingBlock: XUDNAN_clean_linker_2, # of connection points: 2
#     Edge 34, Type (0, 1), BuildingBlock: XUDNAN_clean_linker_2, # of connection points: 2
#     Edge 35, Type (0, 1), BuildingBlock: XUDNAN_clean_linker_2, # of connection points: 2
# Relax obj value: 0.045
# Max RMSD: 0.070
# Mean RMSD: 0.065
data_MOF--net-dag--node1-OJICUG_clean_sbu_0--node2-QEWDON_clean_linker_0--edge1-XUDNAN_clean_linker_2
_symmetry_space_group_name_H-M    P1
_symmetry_Int_Tables_number       1
_symmetry_cell_setting            triclinic
loop_
_symmetry_equiv_pos_as_xyz
'x, y, z'
_cell_length_a     39.835622
_cell_length_b     39.84868
_cell_length_c     41.838279
_cell_angle_alpha  89.949327
_cell_angle_beta   89.967343
_cell_angle_gamma 90.000194
loop_
_atom_site_label
_atom_site_type_symbol
_atom_site_fract_x
_atom_site_fract_y
_atom_site_fract_z
_atom_type_partial_charge
Sc0 Sc 0.14358 0.89986 0.00127 0.0
Sc1 Sc 0.1637 0.81443 0.00392 0.0
Sc2 Sc 0.22772 0.87585 0.00527 0.0
O3 O 0.1784 0.86326 0.00339 0.0
C4 C 0.19846 0.9293 0.95518 0.0
C5 C 0.11345 0.84493 0.95322 0.0
C6 C 0.22917 0.81358 0.95859 0.0
C7 C 0.10924 0.84941 0.04939 0.0
C8 C 0.19643 0.93052 0.05078 0.0
C9 C 0.22316 0.81397 0.05403 0.0
O10 O 0.16796 0.92339 0.96181 0.0
O11 O 0.13188 0.82067 0.96236 0.0
O12 O 0.23951 0.84269 0.96629 0.0
O13 O 0.11661 0.87907 0.04081 0.0
O14 O 0.21971 0.90953 0.04509 0.0
O15 O 0.19407 0.80429 0.04551 0.0
O16 O 0.16927 0.93156 0.0349 0.0
O17 O 0.12174 0.8234 0.03627 0.0
O18 O 0.23912 0.83729 0.03985 0.0
O19 O 0.11357 0.87335 0.96697 0.0
O20 O 0.22275 0.91637 0.97069 0.0
O21 O 0.20392 0.7996 0.97183 0.0
Sc22 Sc 0.70852 0.6317 0.49764 0.0
Sc23 Sc 0.64557 0.69329 0.50453 0.0
Sc24 Sc 0.62499 0.60783 0.50536 0.0
O25 O 0.65976 0.64445 0.50267 0.0
C26 C 0.67565 0.57786 0.45344 0.0
C27 C 0.70201 0.69568 0.45126 0.0
C28 C 0.59012 0.65932 0.45926 0.0
C29 C 0.71293 0.69177 0.54661 0.0
C30 C 0.68138 0.57699 0.54811 0.0
C31 C 0.59536 0.6623 0.5542 0.0
O32 O 0.69811 0.60007 0.45722 0.0
O33 O 0.67389 0.70554 0.46218 0.0
O34 O 0.59831 0.62932 0.46601 0.0
O35 O 0.72238 0.66288 0.53734 0.0
O36 O 0.65052 0.58435 0.54461 0.0
O37 O 0.61594 0.68553 0.5472 0.0
O38 O 0.7045 0.58964 0.53074 0.0
O39 O 0.68749 0.70696 0.53508 0.0
O40 O 0.594 0.63465 0.53914 0.0
O41 O 0.71831 0.67136 0.46348 0.0
O42 O 0.6502 0.57536 0.47162 0.0
O43 O 0.60209 0.68488 0.4737 0.0
Sc44 Sc 0.83829 0.17877 0.00312 0.0
Sc45 Sc 0.77705 0.11587 0.98971 0.0
Sc46 Sc 0.86251 0.09459 0.99717 0.0
O47 O 0.82582 0.12975 0.99661 0.0
C48 C 0.89951 0.15279 0.95975 0.0
C49 C 0.78487 0.18221 0.9466 0.0
C50 C 0.81456 0.06582 0.94258 0.0
C51 C 0.76837 0.17455 0.04073 0.0
C52 C 0.88546 0.14361 0.05371 0.0
C53 C 0.80453 0.05933 0.03749 0.0
O54 O 0.88268 0.17558 0.97374 0.0
O55 O 0.76959 0.15543 0.95486 0.0
O56 O 0.84201 0.0669 0.95788 0.0
O57 O 0.79581 0.18866 0.03313 0.0
O58 O 0.88738 0.11701 0.03714 0.0
O59 O 0.7803 0.07453 0.02376 0.0
O60 O 0.86716 0.16841 0.04577 0.0
O61 O 0.75861 0.14715 0.02823 0.0
O62 O 0.83517 0.06477 0.0308 0.0
O63 O 0.81055 0.19338 0.96124 0.0
O64 O 0.89365 0.12169 0.96376 0.0
O65 O 0.78898 0.08315 0.95005 0.0
Sc66 Sc 0.3689 0.38067 0.48575 0.0
Sc67 Sc 0.28527 0.35462 0.49284 0.0
Sc68 Sc 0.35117 0.29512 0.49414 0.0
O69 O 0.33506 0.34334 0.4907 0.0
C70 C 0.40071 0.3236 0.44153 0.0
C71 C 0.31176 0.40808 0.44112 0.0
C72 C 0.28629 0.29038 0.44864 0.0
C73 C 0.31677 0.41108 0.53627 0.0
C74 C 0.40433 0.33429 0.53719 0.0
C75 C 0.29092 0.29456 0.54329 0.0
O76 O 0.39924 0.35341 0.45208 0.0
O77 O 0.28861 0.39431 0.4575 0.0
O78 O 0.31235 0.2783 0.46201 0.0
O79 O 0.34331 0.41205 0.51943 0.0
O80 O 0.39175 0.30702 0.52686 0.0
O81 O 0.27463 0.31708 0.52846 0.0
O82 O 0.39749 0.36281 0.52542 0.0
O83 O 0.29308 0.3903 0.5312 0.0
O84 O 0.32046 0.28563 0.53565 0.0
O85 O 0.3427 0.40258 0.44616 0.0
O86 O 0.3835 0.29956 0.45289 0.0
O87 O 0.27404 0.31905 0.4555 0.0
H88 H 0.14146 0.08074 0.25648 0.0
C89 C 0.11863 0.08818 0.24431 0.0
C90 C 0.11356 0.07935 0.21209 0.0
C91 C 0.09399 0.10632 0.26111 0.0
H92 H 0.07884 0.0823 0.17244 0.0
C93 C 0.08357 0.08933 0.19703 0.0
C94 C 0.05934 0.1083 0.2133 0.0
C95 C 0.06466 0.1166 0.24536 0.0
C96 C 0.09839 0.11463 0.29524 0.0
H97 H 0.04584 0.13095 0.25817 0.0
C98 C 0.1267 0.13258 0.30555 0.0
C99 C 0.12935 0.14304 0.33754 0.0
C100 C 0.07316 0.1063 0.31734 0.0
H101 H 0.05115 0.09241 0.30984 0.0
C102 C 0.07609 0.11593 0.34926 0.0
H103 H 0.14585 0.13968 0.2884 0.0
C104 C 0.10389 0.13439 0.35933 0.0
H105 H 0.10556 0.14182 0.38418 0.0
H106 H 0.05659 0.10937 0.36617 0.0
H107 H 0.41308 0.65094 0.74486 0.0
C108 C 0.40044 0.63154 0.73131 0.0
C109 C 0.41015 0.62474 0.69954 0.0
C110 C 0.37524 0.61229 0.74619 0.0
H111 H 0.40123 0.59241 0.65893 0.0
C112 C 0.39359 0.59883 0.683 0.0
C113 C 0.36794 0.57999 0.69734 0.0
C114 C 0.35879 0.58693 0.72894 0.0
C115 C 0.36833 0.61589 0.78072 0.0
H116 H 0.33974 0.57177 0.74056 0.0
C117 C 0.3547 0.64564 0.79334 0.0
C118 C 0.34639 0.64764 0.82607 0.0
C119 C 0.37441 0.58853 0.80106 0.0
H120 H 0.38496 0.56545 0.79175 0.0
C121 C 0.36705 0.59072 0.83355 0.0
H122 H 0.34944 0.66656 0.77754 0.0
C123 C 0.35305 0.61997 0.84601 0.0
H124 H 0.34757 0.621 0.87135 0.0
H125 H 0.37202 0.56957 0.84911 0.0
H126 H 0.89969 0.7847 0.18564 0.0
C127 C 0.88513 0.80698 0.18022 0.0
C128 C 0.90105 0.83498 0.1669 0.0
C129 C 0.85056 0.80786 0.18709 0.0
H130 H 0.89458 0.88426 0.14756 0.0
C131 C 0.88214 0.86351 0.15945 0.0
C132 C 0.84744 0.86484 0.16553 0.0
C133 C 0.83184 0.83689 0.1799 0.0
C134 C 0.83405 0.77769 0.20047 0.0
H135 H 0.80513 0.83733 0.18482 0.0
C136 C 0.81689 0.77895 0.22988 0.0
C137 C 0.80319 0.74949 0.24332 0.0
C138 C 0.8367 0.74701 0.1842 0.0
H139 H 0.84977 0.74555 0.16152 0.0
C140 C 0.82243 0.71802 0.19697 0.0
H141 H 0.81544 0.80247 0.24279 0.0
C142 C 0.80589 0.71914 0.22633 0.0
H143 H 0.79507 0.69622 0.2357 0.0
H144 H 0.82441 0.69451 0.18416 0.0
H145 H 0.70069 0.34755 0.68346 0.0
C146 C 0.67409 0.34551 0.67841 0.0
C147 C 0.65629 0.37341 0.66653 0.0
C148 C 0.65776 0.31452 0.68274 0.0
H149 H 0.6079 0.3906 0.64978 0.0
C150 C 0.62182 0.36991 0.66013 0.0
C151 C 0.60527 0.3393 0.66481 0.0
C152 C 0.62345 0.31151 0.67566 0.0
C153 C 0.67653 0.28458 0.69327 0.0
H154 H 0.61087 0.28759 0.6788 0.0
C155 C 0.69022 0.28286 0.72417 0.0
C156 C 0.7056 0.25311 0.73499 0.0
C157 C 0.67894 0.25672 0.67291 0.0
H158 H 0.66836 0.2576 0.64907 0.0
C159 C 0.69492 0.22752 0.6832 0.0
H160 H 0.68758 0.30412 0.74013 0.0
C161 C 0.70806 0.2256 0.71405 0.0
H162 H 0.72024 0.20259 0.72152 0.0
H163 H 0.69684 0.20617 0.66732 0.0
H164 H 0.65115 0.41452 0.25132 0.0
C165 C 0.63093 0.40088 0.26277 0.0
C166 C 0.62178 0.40831 0.2944 0.0
C167 C 0.61399 0.37591 0.24542 0.0
H168 H 0.58591 0.39766 0.33151 0.0
C169 C 0.59511 0.39033 0.3082 0.0
C170 C 0.57897 0.36405 0.29186 0.0
C171 C 0.58867 0.35694 0.26026 0.0
C172 C 0.62118 0.37184 0.21102 0.0
H173 H 0.57602 0.33741 0.24687 0.0
C174 C 0.63304 0.34124 0.19864 0.0
C175 C 0.64201 0.33881 0.16618 0.0
C176 C 0.6172 0.3995 0.19055 0.0
H177 H 0.60795 0.42322 0.19966 0.0
C178 C 0.62508 0.39683 0.1582 0.0
H179 H 0.63673 0.32 0.21447 0.0
C180 C 0.63762 0.36678 0.14608 0.0
H181 H 0.64404 0.36539 0.12094 0.0
H182 H 0.62186 0.41824 0.14256 0.0
H183 H 0.20441 0.15297 0.81379 0.0
C184 C 0.17913 0.15712 0.82254 0.0
C185 C 0.16227 0.13162 0.8392 0.0
C186 C 0.16391 0.18849 0.81805 0.0
H187 H 0.1175 0.1189 0.86535 0.0
C188 C 0.12974 0.13782 0.85086 0.0
C189 C 0.1137 0.16879 0.84577 0.0
C190 C 0.13123 0.19415 0.82935 0.0
C191 C 0.1831 0.21609 0.80339 0.0
H192 H 0.11964 0.21838 0.82525 0.0
C193 C 0.19185 0.21501 0.77092 0.0
C194 C 0.21069 0.24116 0.75718 0.0
C195 C 0.19329 0.24338 0.82219 0.0
H196 H 0.18675 0.24451 0.84731 0.0
C197 C 0.21245 0.26911 0.80878 0.0
H198 H 0.18385 0.19395 0.75639 0.0
C199 C 0.2212 0.26804 0.77648 0.0
H200 H 0.23549 0.28863 0.76641 0.0
H201 H 0.22038 0.29004 0.82342 0.0
H202 H 0.37205 0.71244 0.32825 0.0
C203 C 0.36142 0.68772 0.3321 0.0
C204 C 0.3818 0.66146 0.34306 0.0
C205 C 0.32726 0.68191 0.32598 0.0
H206 H 0.38361 0.61001 0.35795 0.0
C207 C 0.36778 0.62965 0.34824 0.0
C208 C 0.3336 0.62344 0.3423 0.0
C209 C 0.31351 0.6499 0.331 0.0
C210 C 0.30548 0.70923 0.31462 0.0
H211 H 0.28717 0.64573 0.32589 0.0
C212 C 0.30466 0.71763 0.28206 0.0
C213 C 0.28199 0.74198 0.27075 0.0
C214 C 0.28395 0.72555 0.33607 0.0
H215 H 0.28418 0.7191 0.36124 0.0
C216 C 0.26179 0.75011 0.32509 0.0
H217 H 0.32088 0.70443 0.26547 0.0
C218 C 0.26065 0.75822 0.29263 0.0
H219 H 0.24324 0.77735 0.28465 0.0
H220 H 0.24526 0.76271 0.34175 0.0
H221 H 0.95221 0.84401 0.74616 0.0
C222 C 0.93397 0.85942 0.75859 0.0
C223 C 0.9401 0.8696 0.79014 0.0
C224 C 0.90467 0.86982 0.74274 0.0
H225 H 0.92197 0.89883 0.82959 0.0
C226 C 0.91669 0.89036 0.80552 0.0
C227 C 0.88705 0.90075 0.79017 0.0
C228 C 0.88112 0.89005 0.75868 0.0
C229 C 0.89966 0.8615 0.70877 0.0
H230 H 0.8586 0.89793 0.74624 0.0
C231 C 0.8737 0.83983 0.69932 0.0
C232 C 0.86857 0.83272 0.66675 0.0
C233 C 0.92055 0.87602 0.68556 0.0
H234 H 0.94064 0.89283 0.6925 0.0
C235 C 0.91525 0.86939 0.65321 0.0
H236 H 0.85763 0.82851 0.71727 0.0
C237 C 0.88937 0.84795 0.64378 0.0
H238 H 0.88609 0.84268 0.61858 0.0
H239 H 0.93133 0.8808 0.63539 0.0
H240 H 0.17672 0.99551 0.05343 0.0
H241 H 0.21975 0.9158 0.11066 0.0
H242 H 0.2113 0.94998 0.15948 0.0
H243 H 0.20979 0.06764 0.10406 0.0
H244 H 0.17194 0.09134 0.09715 0.0
H245 H 0.18758 0.06334 0.06676 0.0
H246 H 0.13003 0.03304 0.06569 0.0
H247 H 0.11437 0.06046 0.09628 0.0
H248 H 0.11334 0.01566 0.10221 0.0
H249 H 0.1865 0.98761 0.20222 0.0
H250 H 0.15218 0.02669 0.23427 0.0
H251 H 0.1305 0.08434 0.14864 0.0
C252 C 0.18554 0.98586 0.07614 0.0
C253 C 0.19906 0.95326 0.07843 0.0
C254 C 0.20986 0.94102 0.10846 0.0
C255 C 0.20504 0.96023 0.13627 0.0
C256 C 0.19026 0.99187 0.13337 0.0
C257 C 0.18151 0.00492 0.10388 0.0
C258 C 0.16343 0.03811 0.10718 0.0
C259 C 0.18445 0.06681 0.09295 0.0
C260 C 0.12822 0.03669 0.09195 0.0
C261 C 0.16144 0.04075 0.14317 0.0
C262 C 0.17728 0.01409 0.15798 0.0
C263 C 0.17496 0.00915 0.19093 0.0
C264 C 0.15544 0.03162 0.20901 0.0
C265 C 0.13846 0.05871 0.19409 0.0
C266 C 0.14277 0.06379 0.1609 0.0
H267 H 0.52789 0.65569 0.55096 0.0
H268 H 0.60881 0.67893 0.61633 0.0
H269 H 0.56834 0.67917 0.66155 0.0
H270 H 0.46287 0.70772 0.59256 0.0
H271 H 0.43028 0.67784 0.58343 0.0
H272 H 0.46515 0.6832 0.55642 0.0
H273 H 0.47783 0.61951 0.55993 0.0
H274 H 0.44325 0.61396 0.58701 0.0
H275 H 0.48472 0.60055 0.59852 0.0
H276 H 0.52019 0.66681 0.70002 0.0
H277 H 0.46895 0.64732 0.72748 0.0
H278 H 0.41822 0.64036 0.63583 0.0
C279 C 0.53685 0.66163 0.57474 0.0
C280 C 0.57123 0.66734 0.58042 0.0
C281 C 0.58238 0.67483 0.61168 0.0
C282 C 0.5596 0.67497 0.6374 0.0
C283 C 0.52576 0.66853 0.63113 0.0
C284 C 0.51438 0.66279 0.60038 0.0
C285 C 0.47721 0.65513 0.59994 0.0
C286 C 0.45773 0.68262 0.58203 0.0
C287 C 0.47038 0.62022 0.58551 0.0
C288 C 0.46965 0.65585 0.63536 0.0
C289 C 0.49786 0.6636 0.65307 0.0
C290 C 0.4977 0.66169 0.68637 0.0
C291 C 0.46827 0.65077 0.70183 0.0
C292 C 0.43923 0.64211 0.684 0.0
C293 C 0.43988 0.64622 0.6504 0.0
H294 H 0.84333 0.0437 0.08853 0.0
H295 H 0.75132 0.01533 0.0404 0.0
H296 H 0.74656 0.96552 0.07572 0.0
H297 H 0.87713 0.96564 0.09335 0.0
H298 H 0.89646 0.97142 0.1319 0.0
H299 H 0.88856 0.00705 0.10673 0.0
H300 H 0.85459 0.03465 0.15278 0.0
H301 H 0.86206 0.99853 0.17775 0.0
H302 H 0.8197 0.01237 0.17026 0.0
H303 H 0.75867 0.9134 0.10879 0.0
H304 H 0.78494 0.86586 0.13726 0.0
H305 H 0.86655 0.93093 0.16675 0.0
C306 C 0.82162 0.02752 0.08604 0.0
C307 C 0.79766 0.03327 0.0618 0.0
C308 C 0.76974 0.01152 0.05908 0.0
C309 C 0.7669 0.98318 0.07902 0.0
C310 C 0.79177 0.97753 0.10196 0.0
C311 C 0.81827 0.99956 0.10589 0.0
C312 C 0.84349 0.98654 0.12989 0.0
C313 C 0.87844 0.98241 0.11455 0.0
C314 C 0.84502 0.00938 0.15943 0.0
C315 C 0.82795 0.95294 0.13783 0.0
C316 C 0.79801 0.94817 0.12176 0.0
C317 C 0.78155 0.91724 0.12223 0.0
C318 C 0.79661 0.89035 0.13864 0.0
C319 C 0.82788 0.89452 0.15432 0.0
C320 C 0.84273 0.92674 0.15495 0.0
H321 H 0.45662 0.29102 0.54833 0.0
H322 H 0.40431 0.37732 0.58704 0.0
H323 H 0.44611 0.38149 0.63028 0.0
H324 H 0.48855 0.25628 0.6267 0.0
H325 H 0.52837 0.24496 0.60929 0.0
H326 H 0.49082 0.24421 0.58524 0.0
H327 H 0.51889 0.28417 0.54427 0.0
H328 H 0.55638 0.28505 0.56812 0.0
H329 H 0.53561 0.32374 0.55776 0.0
H330 H 0.49669 0.38185 0.66395 0.0
H331 H 0.55457 0.37973 0.68491 0.0
H332 H 0.57586 0.29413 0.62434 0.0
C333 C 0.45349 0.30999 0.56662 0.0
C334 C 0.4272 0.33361 0.56475 0.0
C335 C 0.42432 0.35893 0.58829 0.0
C336 C 0.44776 0.36135 0.61302 0.0
C337 C 0.47403 0.33831 0.6138 0.0
C338 C 0.47712 0.3131 0.59126 0.0
C339 C 0.51012 0.29457 0.5951 0.0
C340 C 0.50409 0.25782 0.60466 0.0
C341 C 0.5315 0.29706 0.5645 0.0
C342 C 0.52561 0.31424 0.62237 0.0
C343 C 0.50399 0.33887 0.63321 0.0
C344 C 0.51362 0.36224 0.65618 0.0
C345 C 0.5465 0.36094 0.66786 0.0
C346 C 0.56935 0.33657 0.65642 0.0
C347 C 0.55851 0.31241 0.63403 0.0
H348 H 0.65946 0.51157 0.45219 0.0
H349 H 0.69565 0.59298 0.39268 0.0
H350 H 0.6911 0.55651 0.34493 0.0
H351 H 0.70275 0.44333 0.4065 0.0
H352 H 0.66845 0.41462 0.41304 0.0
H353 H 0.67801 0.44619 0.44249 0.0
H354 H 0.6167 0.46772 0.43932 0.0
H355 H 0.60706 0.43657 0.40966 0.0
H356 H 0.59977 0.48032 0.40119 0.0
H357 H 0.67312 0.51407 0.30327 0.0
H358 H 0.64926 0.46769 0.27177 0.0
H359 H 0.63217 0.41155 0.35945 0.0
C360 C 0.66712 0.5214 0.42917 0.0
C361 C 0.67784 0.55495 0.42592 0.0
C362 C 0.68765 0.56717 0.39555 0.0
C363 C 0.68506 0.54669 0.36836 0.0
C364 C 0.67354 0.51387 0.37224 0.0
C365 C 0.66555 0.50107 0.40203 0.0
C366 C 0.65281 0.46541 0.39973 0.0
C367 C 0.67696 0.44094 0.41642 0.0
C368 C 0.61697 0.46236 0.41327 0.0
C369 C 0.65329 0.46067 0.36389 0.0
C370 C 0.66528 0.48883 0.34837 0.0
C371 C 0.66465 0.49148 0.31516 0.0
C372 C 0.65116 0.46478 0.29741 0.0
C373 C 0.63876 0.43556 0.31287 0.0
C374 C 0.64087 0.43346 0.34659 0.0
H375 H 0.93823 0.1132 0.92028 0.0
H376 H 0.92667 0.21566 0.95397 0.0
H377 H 0.9777 0.23202 0.92461 0.0
H378 H 0.02528 0.10889 0.9273 0.0
H379 H 0.03207 0.08461 0.89156 0.0
H380 H 0.99282 0.08139 0.91263 0.0
H381 H 0.96056 0.09737 0.86105 0.0
H382 H 0.99976 0.10044 0.83971 0.0
H383 H 0.97122 0.13553 0.84021 0.0
H384 H 0.03342 0.23586 0.89708 0.0
H385 H 0.0883 0.22736 0.87124 0.0
H386 H 0.06164 0.12357 0.85186 0.0
C387 C 0.94609 0.1392 0.9211 0.0
C388 C 0.92835 0.16308 0.93953 0.0
C389 C 0.93966 0.19684 0.93998 0.0
C390 C 0.96867 0.20644 0.92336 0.0
C391 C 0.98589 0.18215 0.90598 0.0
C392 C 0.97482 0.14932 0.90437 0.0
C393 C 0.99873 0.12785 0.88503 0.0
C394 C 0.01307 0.09899 0.90535 0.0
C395 C 0.98154 0.11452 0.85469 0.0
C396 C 0.02548 0.15351 0.87696 0.0
C397 C 0.01755 0.18469 0.88914 0.0
C398 C 0.03959 0.21173 0.88677 0.0
C399 C 0.07071 0.20668 0.87181 0.0
C400 C 0.07951 0.17483 0.8592 0.0
C401 C 0.05607 0.1482 0.86139 0.0
H402 H 0.35124 0.43485 0.39407 0.0
H403 H 0.25291 0.44358 0.43792 0.0
H404 H 0.24352 0.49666 0.40895 0.0
H405 H 0.37444 0.51455 0.40237 0.0
H406 H 0.3962 0.51939 0.36486 0.0
H407 H 0.39224 0.47853 0.38254 0.0
H408 H 0.36409 0.45593 0.33107 0.0
H409 H 0.36843 0.49675 0.31288 0.0
H410 H 0.32777 0.47704 0.31505 0.0
H411 H 0.25041 0.55414 0.38582 0.0
H412 H 0.27121 0.60898 0.36723 0.0
H413 H 0.36337 0.56164 0.33493 0.0
C414 C 0.32722 0.44726 0.39665 0.0
C415 C 0.30284 0.43505 0.41827 0.0
C416 C 0.27186 0.45224 0.42127 0.0
C417 C 0.2663 0.48248 0.40491 0.0
C418 C 0.29162 0.49476 0.38508 0.0
C419 C 0.32117 0.47725 0.38027 0.0
C420 C 0.34585 0.49744 0.36057 0.0
C421 C 0.37911 0.50279 0.37868 0.0
C422 C 0.35188 0.4808 0.32795 0.0
C423 C 0.32654 0.52991 0.35699 0.0
C424 C 0.29511 0.52775 0.37082 0.0
C425 C 0.2745 0.55583 0.37395 0.0
C426 C 0.28654 0.58696 0.36319 0.0
C427 C 0.31898 0.58983 0.34946 0.0
C428 C 0.33857 0.56054 0.34546 0.0
H429 H 0.08016 0.89449 0.92138 0.0
H430 H 0.09643 0.78674 0.921 0.0
H431 H 0.05767 0.78151 0.8749 0.0
H432 H 0.99429 0.89268 0.90549 0.0
H433 H 0.99465 0.92967 0.88068 0.0
H434 H 0.02563 0.9247 0.91155 0.0
H435 H 0.07307 0.93222 0.86968 0.0
H436 H 0.04219 0.93712 0.83858 0.0
H437 H 0.0742 0.90537 0.83505 0.0
H438 H 0.01329 0.78834 0.83103 0.0
H439 H 0.96689 0.80629 0.79537 0.0
H440 H 0.98199 0.90941 0.82496 0.0
C441 C 0.07587 0.86969 0.91162 0.0
C442 C 0.09128 0.84097 0.92498 0.0
C443 C 0.08494 0.80912 0.91119 0.0
C444 C 0.06305 0.80594 0.88496 0.0
C445 C 0.04807 0.83487 0.87263 0.0
C446 C 0.05441 0.86613 0.88555 0.0
C447 C 0.03419 0.89328 0.86926 0.0
C448 C 0.01081 0.9111 0.89317 0.0
C449 C 0.0573 0.91847 0.85212 0.0
C450 C 0.0146 0.87238 0.84566 0.0
C451 C 0.0231 0.83879 0.84757 0.0
C452 C 0.00677 0.81463 0.82911 0.0
C453 C 0.98058 0.82503 0.80883 0.0
C454 C 0.97087 0.85919 0.80751 0.0
C455 C 0.98879 0.8831 0.82558 0.0
H456 H 0.83248 0.00064 0.94311 0.0
H457 H 0.79386 0.07882 0.88133 0.0
H458 H 0.80035 0.04107 0.83448 0.0
H459 H 0.89431 0.97227 0.89478 0.0
H460 H 0.88982 0.92833 0.90409 0.0
H461 H 0.87704 0.95938 0.9327 0.0
H462 H 0.81731 0.93362 0.93463 0.0
H463 H 0.82999 0.90218 0.90612 0.0
H464 H 0.794 0.92826 0.89807 0.0
H465 H 0.82173 0.99843 0.7941 0.0
H466 H 0.85213 0.95424 0.76458 0.0
H467 H 0.87054 0.90172 0.85381 0.0
C468 C 0.82449 0.00937 0.91979 0.0
C469 C 0.81267 0.04238 0.91555 0.0
C470 C 0.80265 0.05336 0.88487 0.0
C471 C 0.80628 0.03212 0.85825 0.0
C472 C 0.81902 -0.00017 0.86309 0.0
C473 C 0.8272 0.98831 0.8933 0.0
C474 C 0.84248 0.95363 0.89218 0.0
C475 C 0.878 0.95343 0.90678 0.0
C476 C 0.81956 0.9279 0.90872 0.0
C477 C 0.84348 0.94808 0.85649 0.0
C478 C 0.82967 0.9748 0.84 0.0
C479 C 0.83167 0.97692 0.80676 0.0
C480 C 0.84889 0.95155 0.79014 0.0
C481 C 0.86386 0.92437 0.80678 0.0
C482 C 0.85974 0.9222 0.84026 0.0
H483 H 0.46831 0.3273 0.44333 0.0
H484 H 0.38464 0.30768 0.38014 0.0
H485 H 0.42341 0.30743 0.33364 0.0
H486 H 0.50945 0.38313 0.39664 0.0
H487 H 0.55148 0.36945 0.40583 0.0
H488 H 0.51825 0.3625 0.43409 0.0
H489 H 0.53117 0.29875 0.43443 0.0
H490 H 0.56478 0.30552 0.40628 0.0
H491 H 0.53193 0.27591 0.39726 0.0
H492 H 0.46974 0.32042 0.29402 0.0
H493 H 0.51951 0.3418 0.26526 0.0
H494 H 0.57398 0.34655 0.35499 0.0
C495 C 0.45849 0.32178 0.41976 0.0
C496 C 0.42385 0.31712 0.415 0.0
C497 C 0.41135 0.31071 0.38401 0.0
C498 C 0.43316 0.31057 0.35759 0.0
C499 C 0.46732 0.3161 0.3629 0.0
C500 C 0.47997 0.32083 0.39338 0.0
C501 C 0.51708 0.3287 0.39265 0.0
C502 C 0.52446 0.36297 0.4082 0.0
C503 C 0.53744 0.30053 0.4086 0.0
C504 C 0.52301 0.32957 0.35698 0.0
C505 C 0.49417 0.32203 0.34011 0.0
C506 C 0.49275 0.32535 0.30693 0.0
C507 C 0.52125 0.3374 0.29074 0.0
C508 C 0.55079 0.34594 0.30778 0.0
C509 C 0.5518 0.34056 0.34117 0.0
H510 H 0.15576 0.94969 0.90832 0.0
H511 H 0.25564 0.96683 0.94619 0.0
H512 H 0.2616 0.01637 0.91104 0.0
H513 H 0.17239 0.98283 0.8246 0.0
H514 H 0.13102 0.00107 0.82295 0.0
H515 H 0.13792 0.96282 0.84505 0.0
H516 H 0.11253 0.99046 0.89549 0.0
H517 H 0.10583 0.02879 0.8739 0.0
H518 H 0.1302 0.02917 0.91018 0.0
H519 H 0.25164 0.07005 0.88125 0.0
H520 H 0.22735 0.12191 0.85882 0.0
H521 H 0.13468 0.06878 0.83883 0.0
C522 C 0.17935 0.9632 0.90849 0.0
C523 C 0.20523 0.95448 0.93001 0.0
C524 C 0.2356 0.9729 0.92969 0.0
C525 C 0.2392 0.00107 0.90977 0.0
C526 C 0.21247 0.00997 0.88994 0.0
C527 C 0.18332 0.99117 0.88877 0.0
C528 C 0.15665 0.00808 0.8687 0.0
C529 C 0.14907 0.98747 0.83853 0.0
C530 C 0.12445 0.01451 0.88825 0.0
C531 C 0.17449 0.04044 0.8605 0.0
C532 C 0.2069 0.04083 0.87233 0.0
C533 C 0.22669 0.06967 0.87103 0.0
C534 C 0.2127 0.09904 0.85815 0.0
C535 C 0.17913 0.09938 0.84698 0.0
C536 C 0.16041 0.06929 0.84714 0.0
H537 H 0.53397 0.69923 0.45901 0.0
H538 H 0.5904 0.62814 0.40197 0.0
H539 H 0.54607 0.6291 0.36083 0.0
H540 H 0.45747 0.66171 0.44718 0.0
H541 H 0.43278 0.69959 0.44555 0.0
H542 H 0.47171 0.69913 0.46725 0.0
H543 H 0.49325 0.74932 0.43359 0.0
H544 H 0.45424 0.74996 0.41174 0.0
H545 H 0.49352 0.7464 0.39059 0.0
H546 H 0.49324 0.63061 0.3304 0.0
H547 H 0.43392 0.63126 0.31323 0.0
H548 H 0.40995 0.70059 0.38958 0.0
C549 C 0.53739 0.68492 0.43725 0.0
C550 C 0.5657 0.66404 0.43324 0.0
C551 C 0.56894 0.64451 0.40519 0.0
C552 C 0.544 0.64504 0.38167 0.0
C553 C 0.51586 0.6651 0.38662 0.0
C554 C 0.51231 0.68474 0.41369 0.0
C555 C 0.47761 0.7004 0.41509 0.0
C556 C 0.4588 0.68954 0.44556 0.0
C557 C 0.4798 0.73881 0.4126 0.0
C558 C 0.46186 0.68541 0.38534 0.0
C559 C 0.48466 0.66567 0.36897 0.0
C560 C 0.47535 0.64661 0.34251 0.0
C561 C 0.4417 0.6471 0.33292 0.0
C562 C 0.41782 0.66648 0.34974 0.0
C563 C 0.42812 0.68645 0.3758 0.0
H564 H 0.37007 0.43595 0.56834 0.0
H565 H 0.26119 0.43701 0.56758 0.0
H566 H 0.26162 0.47741 0.61288 0.0
H567 H 0.38027 0.44188 0.65474 0.0
H568 H 0.41711 0.46787 0.65108 0.0
H569 H 0.40748 0.43751 0.62055 0.0
H570 H 0.40893 0.48436 0.57758 0.0
H571 H 0.41858 0.51488 0.60782 0.0
H572 H 0.3826 0.52083 0.58234 0.0
H573 H 0.27542 0.52202 0.65562 0.0
H574 H 0.30074 0.56534 0.69078 0.0
H575 H 0.40005 0.53176 0.66302 0.0
C576 C 0.34618 0.44451 0.57767 0.0
C577 C 0.31556 0.43371 0.56422 0.0
C578 C 0.28493 0.44508 0.57754 0.0
C579 C 0.28499 0.46795 0.60324 0.0
C580 C 0.31586 0.47851 0.61554 0.0
C581 C 0.34583 0.46677 0.60324 0.0
C582 C 0.37579 0.48245 0.61947 0.0
C583 C 0.39636 0.45584 0.63754 0.0
C584 C 0.39774 0.50178 0.59536 0.0
C585 C 0.35818 0.50589 0.64223 0.0
C586 C 0.32363 0.50321 0.64002 0.0
C587 C 0.30242 0.52397 0.65776 0.0
C588 C 0.31696 0.5484 0.67771 0.0
C589 C 0.3523 0.55195 0.67941 0.0
C590 C 0.37294 0.52982 0.66198 0.0
H591 H 0.0587 0.80278 0.05539 0.0
H592 H 0.1039 0.88892 0.10177 0.0
H593 H 0.05921 0.88834 0.14252 0.0
H594 H 0.97728 0.83047 0.06227 0.0
H595 H 0.95827 0.79011 0.06948 0.0
H596 H 0.99703 0.79278 0.04761 0.0
H597 H 0.02512 0.75203 0.08779 0.0
H598 H 0.9863 0.74917 0.10982 0.0
H599 H 0.02433 0.76162 0.12989 0.0
H600 H 0.00642 0.8843 0.17295 0.0
H601 H 0.94773 0.87743 0.19087 0.0
H602 H 0.93519 0.79416 0.12546 0.0
C603 C 0.05969 0.82072 0.0748 0.0
C604 C 0.08485 0.84568 0.07572 0.0
C605 C 0.08485 0.86954 0.10077 0.0
C606 C 0.0597 0.86928 0.12412 0.0
C607 C 0.03463 0.84503 0.12208 0.0
C608 C 0.03437 0.82109 0.09815 0.0
C609 C 0.00232 0.80052 0.09929 0.0
C610 C 0.98257 0.80369 0.0678 0.0
C611 C 0.00999 0.76365 0.10718 0.0
C612 C 0.98412 0.81755 0.12671 0.0
C613 C 0.00356 0.84277 0.13984 0.0
C614 C 0.99123 0.86415 0.16342 0.0
C615 C 0.95793 0.86014 0.17342 0.0
C616 C 0.9374 0.83496 0.15988 0.0
C617 C 0.95084 0.81294 0.13676 0.0
H618 H 0.64442 0.55599 0.59948 0.0
H619 H 0.73738 0.53691 0.54861 0.0
H620 H 0.74689 0.4865 0.58178 0.0
H621 H 0.67375 0.52248 0.67971 0.0
H622 H 0.63277 0.50531 0.68787 0.0
H623 H 0.63679 0.54318 0.66456 0.0
H624 H 0.60272 0.51569 0.61878 0.0
H625 H 0.59872 0.47785 0.64177 0.0
H626 H 0.61675 0.47631 0.60228 0.0
H627 H 0.74002 0.43251 0.6123 0.0
H628 H 0.71817 0.38132 0.63817 0.0
H629 H 0.63229 0.43761 0.67275 0.0
C630 C 0.6673 0.54178 0.59596 0.0
C631 C 0.69014 0.55039 0.57145 0.0
C632 C 0.71965 0.531 0.56742 0.0
C633 C 0.72529 0.50231 0.5862 0.0
C634 C 0.70162 0.49382 0.60941 0.0
C635 C 0.67351 0.51341 0.61475 0.0
C636 C 0.65022 0.49726 0.63887 0.0
C637 C 0.64829 0.51831 0.66958 0.0
C638 C 0.61506 0.49143 0.62455 0.0
C639 C 0.66847 0.46452 0.64468 0.0
C640 C 0.69833 0.46313 0.62791 0.0
C641 C 0.71722 0.43367 0.62633 0.0
C642 C 0.70467 0.40467 0.64129 0.0
C643 C 0.67345 0.40531 0.65755 0.0
C644 C 0.65616 0.43616 0.66044 0.0
H645 H 0.91705 0.0915 0.08313 0.0
H646 H 0.90076 0.19895 0.09067 0.0
H647 H 0.93943 0.2008 0.13702 0.0
H648 H 0.92521 0.07434 0.16947 0.0
H649 H 0.95713 0.04309 0.16262 0.0
H650 H 0.92496 0.05015 0.13312 0.0
H651 H 0.97089 0.06057 0.09027 0.0
H652 H 0.00311 0.05397 0.11966 0.0
H653 H 0.00214 0.09251 0.09711 0.0
H654 H 0.98456 0.19125 0.17906 0.0
H655 H 0.03222 0.17146 0.21209 0.0
H656 H 0.01798 0.07057 0.17587 0.0
C657 C 0.92115 0.11547 0.09468 0.0
C658 C 0.90597 0.14515 0.08316 0.0
C659 C 0.91204 0.17587 0.09914 0.0
C660 C 0.93391 0.17714 0.12549 0.0
C661 C 0.94907 0.14741 0.13568 0.0
C662 C 0.9427 0.11713 0.12082 0.0
C663 C 0.96371 0.08908 0.13462 0.0
C664 C 0.94143 0.06261 0.15094 0.0
C665 C 0.9863 0.07313 0.10888 0.0
C666 C 0.98401 0.10848 0.1588 0.0
C667 C 0.9749 0.14196 0.15954 0.0
C668 C 0.99154 0.165 0.17897 0.0
C669 C 0.01849 0.15356 0.19767 0.0
C670 C 0.02868 0.11954 0.19643 0.0
C671 C 0.01075 0.09673 0.17718 0.0
H672 H 0.19116 0.7887 0.10672 0.0
H673 H 0.29001 0.80707 0.06677 0.0
H674 H 0.31603 0.78718 0.11693 0.0
H675 H 0.20996 0.81928 0.18327 0.0
H676 H 0.18461 0.78916 0.20453 0.0
H677 H 0.1737 0.80096 0.16432 0.0
H678 H 0.17548 0.73859 0.14691 0.0
H679 H 0.18613 0.72652 0.18717 0.0
H680 H 0.21274 0.71412 0.15438 0.0
H681 H 0.3312 0.7682 0.17234 0.0
H682 H 0.33431 0.75315 0.22963 0.0
H683 H 0.22556 0.74922 0.23396 0.0
C684 C 0.21829 0.78776 0.10828 0.0
C685 C 0.23862 0.79902 0.08278 0.0
C686 C 0.27401 0.79838 0.08602 0.0
C687 C 0.289 0.78707 0.11436 0.0
C688 C 0.26824 0.77676 0.13931 0.0
C689 C 0.23365 0.77705 0.13658 0.0
C690 C 0.21702 0.76716 0.16775 0.0
C691 C 0.19504 0.79585 0.18072 0.0
C692 C 0.19664 0.73466 0.16381 0.0
C693 C 0.24765 0.7616 0.1885 0.0
C694 C 0.27695 0.76688 0.17156 0.0
C695 C 0.30842 0.76378 0.18581 0.0
C696 C 0.30996 0.75517 0.21829 0.0
C697 C 0.2802 0.7501 0.2362 0.0
C698 C 0.24872 0.75324 0.22094 0.0
H699 H 0.72876 0.75842 0.55046 0.0
H700 H 0.74372 0.66269 0.59769 0.0
H701 H 0.78091 0.68993 0.63724 0.0
H702 H 0.81268 0.784 0.55621 0.0
H703 H 0.8036 0.82784 0.56236 0.0
H704 H 0.7745 0.80196 0.54062 0.0
H705 H 0.72693 0.8187 0.57978 0.0
H706 H 0.75592 0.84473 0.60164 0.0
H707 H 0.73265 0.8124 0.62211 0.0
H708 H 0.81866 0.72685 0.6698 0.0
H709 H 0.85805 0.76973 0.69027 0.0
H710 H 0.82129 0.84061 0.6198 0.0
C711 C 0.73928 0.74343 0.56961 0.0
C712 C 0.73311 0.7086 0.57141 0.0
C713 C 0.74808 0.68948 0.59611 0.0
C714 C 0.76906 0.70474 0.61872 0.0
C715 C 0.77509 0.73907 0.61604 0.0
C716 C 0.76086 0.75815 0.59196 0.0
C717 C 0.77409 0.79379 0.59247 0.0
C718 C 0.7923 0.80238 0.56106 0.0
C719 C 0.7457 0.81888 0.59942 0.0
C720 C 0.7984 0.7916 0.62021 0.0
C721 C 0.79809 0.76002 0.63389 0.0
C722 C 0.81897 0.75173 0.65943 0.0
C723 C 0.84115 0.77623 0.67096 0.0
C724 C 0.84261 0.80837 0.6566 0.0
C725 C 0.82066 0.81618 0.63116 0.0
H726 H 0.77317 0.23964 0.06004 0.0
H727 H 0.71347 0.14958 0.07344 0.0
H728 H 0.67613 0.18073 0.11043 0.0
H729 H 0.7663 0.27223 0.14076 0.0
H730 H 0.76348 0.31509 0.12721 0.0
H731 H 0.78664 0.28476 0.10414 0.0
H732 H 0.75048 0.29879 0.05437 0.0
H733 H 0.72719 0.32908 0.07725 0.0
H734 H 0.70541 0.29568 0.05696 0.0
H735 H 0.64427 0.22336 0.14503 0.0
H736 H 0.61944 0.27376 0.17079 0.0
H737 H 0.69988 0.33479 0.13219 0.0
C738 C 0.75258 0.22615 0.07105 0.0
C739 C 0.74644 0.19204 0.06402 0.0
C740 C 0.71874 0.17569 0.07854 0.0
C741 C 0.69748 0.19315 0.09965 0.0
C742 C 0.70422 0.22692 0.1058 0.0
C743 C 0.73108 0.24317 0.09174 0.0
C744 C 0.73199 0.27994 0.10041 0.0
C745 C 0.764 0.28849 0.11926 0.0
C746 C 0.72855 0.30217 0.07047 0.0
C747 C 0.70119 0.28211 0.12132 0.0
C748 C 0.68562 0.25129 0.1246 0.0
C749 C 0.65635 0.24756 0.14264 0.0
C750 C 0.64248 0.2762 0.15723 0.0
C751 C 0.65769 0.30803 0.15321 0.0
C752 C 0.6876 0.31076 0.13538 0.0
H753 H 0.31868 0.28264 0.60182 0.0
H754 H 0.22634 0.27333 0.54782 0.0
H755 H 0.19723 0.25218 0.59603 0.0
H756 H 0.30593 0.21032 0.6566 0.0
H757 H 0.32292 0.23268 0.69035 0.0
H758 H 0.3378 0.24183 0.65058 0.0
H759 H 0.32293 0.30457 0.65858 0.0
H760 H 0.3079 0.29564 0.69823 0.0
H761 H 0.28073 0.31599 0.66975 0.0
H762 H 0.17729 0.23606 0.65051 0.0
H763 H 0.16664 0.23025 0.70845 0.0
H764 H 0.27102 0.25351 0.72788 0.0
C765 C 0.29259 0.27519 0.60007 0.0
C766 C 0.27475 0.27894 0.57118 0.0
C767 C 0.24036 0.27025 0.56981 0.0
C768 C 0.22372 0.25812 0.59697 0.0
C769 C 0.24179 0.25528 0.62535 0.0
C770 C 0.27541 0.26378 0.62717 0.0
C771 C 0.28797 0.26212 0.6613 0.0
C772 C 0.31527 0.23512 0.66491 0.0
C773 C 0.30061 0.29663 0.67262 0.0
C774 C 0.25601 0.25204 0.67842 0.0
C775 C 0.22987 0.24753 0.65716 0.0
C776 C 0.19763 0.2392 0.66738 0.0
C777 C 0.19183 0.23586 0.70027 0.0
C778 C 0.21802 0.24138 0.7225 0.0
C779 C 0.25057 0.24918 0.71134 0.0
H780 H 0.75243 0.67271 0.41237 0.0
H781 H 0.68178 0.75487 0.42334 0.0
H782 H 0.70221 0.77966 0.37275 0.0
H783 H 0.82063 0.72105 0.37658 0.0
H784 H 0.83217 0.68759 0.34977 0.0
H785 H 0.81375 0.67796 0.38803 0.0
H786 H 0.76712 0.64355 0.35991 0.0
H787 H 0.78529 0.65316 0.32159 0.0
H788 H 0.74194 0.66322 0.3294 0.0
H789 H 0.72899 0.7941 0.31928 0.0
H790 H 0.75845 0.79577 0.26715 0.0
H791 H 0.8107 0.70376 0.29167 0.0
C792 C 0.74158 0.69623 0.4045 0.0
C793 C 0.71563 0.71195 0.42205 0.0
C794 C 0.70174 0.74237 0.41042 0.0
C795 C 0.71324 0.7567 0.38173 0.0
C796 C 0.73857 0.74027 0.36486 0.0
C797 C 0.75253 0.71069 0.37587 0.0
C798 C 0.77808 0.69694 0.35252 0.0
C799 C 0.81324 0.69584 0.36763 0.0
C800 C 0.76745 0.66217 0.34013 0.0
C801 C 0.7761 0.72321 0.32645 0.0
C802 C 0.75342 0.74819 0.33406 0.0
C803 C 0.74695 0.77476 0.31319 0.0
C804 C 0.76388 0.77558 0.2837 0.0
C805 C 0.78676 0.74984 0.27526 0.0
C806 C 0.79308 0.72361 0.29722 0.0
H807 H 0.74268 0.15931 0.89955 0.0
H808 H 0.80154 0.24607 0.92785 0.0
H809 H 0.78533 0.27494 0.87798 0.0
H810 H 0.76485 0.16148 0.81817 0.0
H811 H 0.72423 0.14856 0.80377 0.0
H812 H 0.73806 0.13582 0.84289 0.0
H813 H 0.68464 0.16196 0.86804 0.0
H814 H 0.67053 0.17464 0.82894 0.0
H815 H 0.67474 0.20536 0.86028 0.0
H816 H 0.76472 0.2934 0.82373 0.0
H817 H 0.74221 0.29932 0.76889 0.0
H818 H 0.69758 0.20027 0.77619 0.0
C819 C 0.75173 0.1846 0.89558 0.0
C820 C 0.77324 0.20046 0.91777 0.0
C821 C 0.785 0.23337 0.91127 0.0
C822 C 0.77587 0.25003 0.88303 0.0
C823 C 0.75503 0.23346 0.86148 0.0
C824 C 0.74309 0.20149 0.86744 0.0
C825 C 0.7225 0.18852 0.83968 0.0
C826 C 0.73837 0.15672 0.82528 0.0
C827 C 0.68593 0.18226 0.84985 0.0
C828 C 0.72511 0.21801 0.81699 0.0
C829 C 0.74369 0.24383 0.83008 0.0
C830 C 0.74995 0.27343 0.8133 0.0
C831 C 0.73699 0.27662 0.78224 0.0
C832 C 0.71826 0.25023 0.76824 0.0
C833 C 0.71213 0.22072 0.78608 0.0
H834 H 0.21894 0.28824 0.43625 0.0
H835 H 0.31409 0.24351 0.40924 0.0
H836 H 0.28433 0.20356 0.37413 0.0
H837 H 0.17548 0.2128 0.44306 0.0
H838 H 0.13615 0.22842 0.42781 0.0
H839 H 0.16495 0.25658 0.4472 0.0
H840 H 0.16539 0.29491 0.39711 0.0
H841 H 0.1363 0.26699 0.37762 0.0
H842 H 0.17564 0.27724 0.35867 0.0
H843 H 0.24411 0.16598 0.3451 0.0
H844 H 0.19605 0.13239 0.32559 0.0
H845 H 0.1273 0.20033 0.37329 0.0
C846 C 0.23352 0.27062 0.42227 0.0
C847 C 0.26878 0.26911 0.42514 0.0
C848 C 0.28702 0.24508 0.40725 0.0
C849 C 0.27038 0.22239 0.38718 0.0
C850 C 0.2355 0.22397 0.38547 0.0
C851 C 0.21727 0.24745 0.40253 0.0
C852 C 0.1799 0.24192 0.39871 0.0
C853 C 0.16315 0.23448 0.43112 0.0
C854 C 0.16334 0.27206 0.38202 0.0
C855 C 0.18 0.21128 0.37739 0.0
C856 C 0.21229 0.20161 0.3696 0.0
C857 C 0.21869 0.17345 0.35081 0.0
C858 C 0.19132 0.15458 0.33982 0.0
C859 C 0.1581 0.16375 0.34807 0.0
C860 C 0.15249 0.19262 0.36687 0.0
H861 H 0.22553 0.74628 0.94497 0.0
H862 H 0.27577 0.8382 0.91623 0.0
H863 H 0.30879 0.8064 0.87651 0.0
H864 H 0.29704 0.69444 0.94089 0.0
H865 H 0.27484 0.65825 0.92608 0.0
H866 H 0.25326 0.68866 0.95033 0.0
H867 H 0.20867 0.69653 0.90584 0.0
H868 H 0.2301 0.66605 0.88144 0.0
H869 H 0.22198 0.7075 0.86598 0.0
H870 H 0.33823 0.76383 0.84135 0.0
H871 H 0.36291 0.71369 0.81543 0.0
H872 H 0.29353 0.65017 0.86776 0.0
C873 C 0.24311 0.75988 0.93004 0.0
C874 C 0.2479 0.79481 0.93369 0.0
C875 C 0.27162 0.81145 0.91395 0.0
C876 C 0.29043 0.79363 0.89121 0.0
C877 C 0.28531 0.75916 0.88851 0.0
C878 C 0.26225 0.74247 0.90743 0.0
C879 C 0.26277 0.70509 0.90111 0.0
C880 C 0.27257 0.68547 0.9314 0.0
C881 C 0.22887 0.6931 0.88779 0.0
C882 C 0.29004 0.70328 0.87598 0.0
C883 C 0.30254 0.73471 0.86874 0.0
C884 C 0.32848 0.7391 0.8467 0.0
C885 C 0.34225 0.71054 0.832 0.0
C886 C 0.33024 0.67806 0.83967 0.0
C887 C 0.30349 0.67464 0.86164 0.0
loop_
_geom_bond_atom_site_label_1
_geom_bond_atom_site_label_2
_geom_bond_distance
_geom_bond_site_symmetry_2
_ccdc_geom_bond_type
Sc0 O3 2.025 . S
Sc0 O10 2.105 1_554 S
Sc0 O13 2.105 . S
Sc0 O16 2.105 . S
Sc0 O19 2.105 1_554 S
Sc1 O3 2.025 . S
Sc1 O11 2.105 1_554 S
Sc1 O15 2.105 . S
Sc1 O17 2.105 . S
Sc1 O21 2.105 1_554 S
Sc2 O3 2.025 . S
Sc2 O12 2.105 1_554 S
Sc2 O14 2.105 . S
Sc2 O18 2.105 . S
Sc2 O20 2.105 1_554 S
O3 Sc0 2.025 . S
O3 Sc1 2.025 . S
O3 Sc2 2.025 . S
C4 O10 1.268 . S
C4 O20 1.268 . S
C5 O11 1.268 . S
C5 O19 1.268 . S
C6 O12 1.268 . S
C6 O21 1.268 . S
C7 O13 1.268 . S
C7 O17 1.268 . S
C8 O14 1.268 . S
C8 O16 1.268 . S
C9 O15 1.268 . S
C9 O18 1.268 . S
O10 Sc0 2.105 1_556 S
O10 C4 1.268 . S
O11 Sc1 2.105 1_556 S
O11 C5 1.268 . S
O12 Sc2 2.105 1_556 S
O12 C6 1.268 . S
O13 Sc0 2.105 . S
O13 C7 1.268 . S
O14 Sc2 2.105 . S
O14 C8 1.268 . S
O15 Sc1 2.105 . S
O15 C9 1.268 . S
O16 Sc0 2.105 . S
O16 C8 1.268 . S
O17 Sc1 2.105 . S
O17 C7 1.268 . S
O18 Sc2 2.105 . S
O18 C9 1.268 . S
O19 Sc0 2.105 1_556 S
O19 C5 1.268 . S
O20 Sc2 2.105 1_556 S
O20 C4 1.268 . S
O21 Sc1 2.105 1_556 S
O21 C6 1.268 . S
Sc22 O25 2.025 . S
Sc22 O32 2.105 . S
Sc22 O35 2.105 . S
Sc22 O38 2.105 . S
Sc22 O41 2.105 . S
Sc23 O25 2.025 . S
Sc23 O33 2.105 . S
Sc23 O37 2.105 . S
Sc23 O39 2.105 . S
Sc23 O43 2.105 . S
Sc24 O25 2.025 . S
Sc24 O34 2.105 . S
Sc24 O36 2.105 . S
Sc24 O40 2.105 . S
Sc24 O42 2.105 . S
O25 Sc22 2.025 . S
O25 Sc23 2.025 . S
O25 Sc24 2.025 . S
C26 O32 1.268 . S
C26 O42 1.268 . S
C27 O33 1.268 . S
C27 O41 1.268 . S
C28 O34 1.268 . S
C28 O43 1.268 . S
C29 O35 1.268 . S
C29 O39 1.268 . S
C30 O36 1.268 . S
C30 O38 1.268 . S
C31 O37 1.268 . S
C31 O40 1.268 . S
O32 Sc22 2.105 . S
O32 C26 1.268 . S
O33 Sc23 2.105 . S
O33 C27 1.268 . S
O34 Sc24 2.105 . S
O34 C28 1.268 . S
O35 Sc22 2.105 . S
O35 C29 1.268 . S
O36 Sc24 2.105 . S
O36 C30 1.268 . S
O37 Sc23 2.105 . S
O37 C31 1.268 . S
O38 Sc22 2.105 . S
O38 C30 1.268 . S
O39 Sc23 2.105 . S
O39 C29 1.268 . S
O40 Sc24 2.105 . S
O40 C31 1.268 . S
O41 Sc22 2.105 . S
O41 C27 1.268 . S
O42 Sc24 2.105 . S
O42 C26 1.268 . S
O43 Sc23 2.105 . S
O43 C28 1.268 . S
Sc44 O47 2.025 . S
Sc44 O54 2.105 1_554 S
Sc44 O57 2.105 . S
Sc44 O60 2.105 . S
Sc44 O63 2.105 1_554 S
Sc45 O47 2.025 . S
Sc45 O55 2.105 1_554 S
Sc45 O59 2.105 . S
Sc45 O61 2.105 . S
Sc45 O65 2.105 1_554 S
Sc46 O47 2.025 . S
Sc46 O56 2.105 1_554 S
Sc46 O58 2.105 . S
Sc46 O62 2.105 . S
Sc46 O64 2.105 1_554 S
O47 Sc44 2.025 . S
O47 Sc45 2.025 . S
O47 Sc46 2.025 . S
C48 O54 1.268 . S
C48 O64 1.268 . S
C49 O55 1.268 . S
C49 O63 1.268 . S
C50 O56 1.268 . S
C50 O65 1.268 . S
C51 O57 1.268 . S
C51 O61 1.268 . S
C52 O58 1.268 . S
C52 O60 1.268 . S
C53 O59 1.268 . S
C53 O62 1.268 . S
O54 Sc44 2.105 1_556 S
O54 C48 1.268 . S
O55 Sc45 2.105 1_556 S
O55 C49 1.268 . S
O56 Sc46 2.105 1_556 S
O56 C50 1.268 . S
O57 Sc44 2.105 . S
O57 C51 1.268 . S
O58 Sc46 2.105 . S
O58 C52 1.268 . S
O59 Sc45 2.105 . S
O59 C53 1.268 . S
O60 Sc44 2.105 . S
O60 C52 1.268 . S
O61 Sc45 2.105 . S
O61 C51 1.268 . S
O62 Sc46 2.105 . S
O62 C53 1.268 . S
O63 Sc44 2.105 1_556 S
O63 C49 1.268 . S
O64 Sc46 2.105 1_556 S
O64 C48 1.268 . S
O65 Sc45 2.105 1_556 S
O65 C50 1.268 . S
Sc66 O69 2.025 . S
Sc66 O76 2.105 . S
Sc66 O79 2.105 . S
Sc66 O82 2.105 . S
Sc66 O85 2.105 . S
Sc67 O69 2.025 . S
Sc67 O77 2.105 . S
Sc67 O81 2.105 . S
Sc67 O83 2.105 . S
Sc67 O87 2.105 . S
Sc68 O69 2.025 . S
Sc68 O78 2.105 . S
Sc68 O80 2.105 . S
Sc68 O84 2.105 . S
Sc68 O86 2.105 . S
O69 Sc66 2.025 . S
O69 Sc67 2.025 . S
O69 Sc68 2.025 . S
C70 O76 1.268 . S
C70 O86 1.268 . S
C71 O77 1.268 . S
C71 O85 1.268 . S
C72 O78 1.268 . S
C72 O87 1.268 . S
C73 O79 1.268 . S
C73 O83 1.268 . S
C74 O80 1.268 . S
C74 O82 1.268 . S
C75 O81 1.268 . S
C75 O84 1.268 . S
O76 Sc66 2.105 . S
O76 C70 1.268 . S
O77 Sc67 2.105 . S
O77 C71 1.268 . S
O78 Sc68 2.105 . S
O78 C72 1.268 . S
O79 Sc66 2.105 . S
O79 C73 1.268 . S
O80 Sc68 2.105 . S
O80 C74 1.268 . S
O81 Sc67 2.105 . S
O81 C75 1.268 . S
O82 Sc66 2.105 . S
O82 C74 1.268 . S
O83 Sc67 2.105 . S
O83 C73 1.268 . S
O84 Sc68 2.105 . S
O84 C75 1.268 . S
O85 Sc66 2.105 . S
O85 C71 1.268 . S
O86 Sc68 2.105 . S
O86 C70 1.268 . S
O87 Sc67 2.105 . S
O87 C72 1.268 . S
H88 C89 0.949 . S
C89 H88 0.949 . S
C89 C90 1.395 . S
C89 C91 1.391 . S
C90 C89 1.395 . S
C90 C93 1.390 . S
C91 C89 1.391 . S
C91 C95 1.387 . S
C91 C96 1.491 . S
H92 C93 0.950 . S
C93 C90 1.390 . S
C93 H92 0.950 . S
C93 C94 1.378 . S
C94 C93 1.378 . S
C94 C95 1.409 . S
C95 C91 1.387 . S
C95 C94 1.409 . S
C95 H97 0.951 . S
C96 C91 1.491 . S
C96 C98 1.382 . S
C96 C100 1.404 . S
H97 C95 0.951 . S
C98 C96 1.382 . S
C98 C99 1.390 . S
C98 H103 0.949 . S
C99 C98 1.390 . S
C99 C104 1.399 . S
C100 C96 1.404 . S
C100 H101 0.950 . S
C100 C102 1.375 . S
H101 C100 0.950 . S
C102 C100 1.375 . S
C102 C104 1.382 . S
C102 H106 0.950 . S
H103 C98 0.949 . S
C104 C99 1.399 . S
C104 C102 1.382 . S
C104 H105 0.952 . S
H105 C104 0.952 . S
H106 C102 0.950 . S
H107 C108 0.949 . S
C108 H107 0.949 . S
C108 C109 1.395 . S
C108 C110 1.391 . S
C109 C108 1.395 . S
C109 C112 1.390 . S
C110 C108 1.391 . S
C110 C114 1.387 . S
C110 C115 1.491 . S
H111 C112 0.950 . S
C112 C109 1.390 . S
C112 H111 0.950 . S
C112 C113 1.378 . S
C113 C112 1.378 . S
C113 C114 1.409 . S
C114 C110 1.387 . S
C114 C113 1.409 . S
C114 H116 0.951 . S
C115 C110 1.491 . S
C115 C117 1.382 . S
C115 C119 1.404 . S
H116 C114 0.951 . S
C117 C115 1.382 . S
C117 C118 1.390 . S
C117 H122 0.949 . S
C118 C117 1.390 . S
C118 C123 1.399 . S
C119 C115 1.404 . S
C119 H120 0.950 . S
C119 C121 1.375 . S
H120 C119 0.950 . S
C121 C119 1.375 . S
C121 C123 1.382 . S
C121 H125 0.950 . S
H122 C117 0.949 . S
C123 C118 1.399 . S
C123 C121 1.382 . S
C123 H124 0.952 . S
H124 C123 0.952 . S
H125 C121 0.950 . S
H126 C127 0.949 . S
C127 H126 0.949 . S
C127 C128 1.395 . S
C127 C129 1.391 . S
C128 C127 1.395 . S
C128 C131 1.390 . S
C129 C127 1.391 . S
C129 C133 1.387 . S
C129 C134 1.491 . S
H130 C131 0.950 . S
C131 C128 1.390 . S
C131 H130 0.950 . S
C131 C132 1.378 . S
C132 C131 1.378 . S
C132 C133 1.409 . S
C133 C129 1.387 . S
C133 C132 1.409 . S
C133 H135 0.951 . S
C134 C129 1.491 . S
C134 C136 1.382 . S
C134 C138 1.404 . S
H135 C133 0.951 . S
C136 C134 1.382 . S
C136 C137 1.390 . S
C136 H141 0.949 . S
C137 C136 1.390 . S
C137 C142 1.399 . S
C138 C134 1.404 . S
C138 H139 0.950 . S
C138 C140 1.375 . S
H139 C138 0.950 . S
C140 C138 1.375 . S
C140 C142 1.382 . S
C140 H144 0.950 . S
H141 C136 0.949 . S
C142 C137 1.399 . S
C142 C140 1.382 . S
C142 H143 0.952 . S
H143 C142 0.952 . S
H144 C140 0.950 . S
H145 C146 0.949 . S
C146 H145 0.949 . S
C146 C147 1.395 . S
C146 C148 1.391 . S
C147 C146 1.395 . S
C147 C150 1.390 . S
C148 C146 1.391 . S
C148 C152 1.387 . S
C148 C153 1.491 . S
H149 C150 0.950 . S
C150 C147 1.390 . S
C150 H149 0.950 . S
C150 C151 1.378 . S
C151 C150 1.378 . S
C151 C152 1.409 . S
C152 C148 1.387 . S
C152 C151 1.409 . S
C152 H154 0.951 . S
C153 C148 1.491 . S
C153 C155 1.382 . S
C153 C157 1.404 . S
H154 C152 0.951 . S
C155 C153 1.382 . S
C155 C156 1.390 . S
C155 H160 0.949 . S
C156 C155 1.390 . S
C156 C161 1.399 . S
C157 C153 1.404 . S
C157 H158 0.950 . S
C157 C159 1.375 . S
H158 C157 0.950 . S
C159 C157 1.375 . S
C159 C161 1.382 . S
C159 H163 0.950 . S
H160 C155 0.949 . S
C161 C156 1.399 . S
C161 C159 1.382 . S
C161 H162 0.952 . S
H162 C161 0.952 . S
H163 C159 0.950 . S
H164 C165 0.949 . S
C165 H164 0.949 . S
C165 C166 1.395 . S
C165 C167 1.391 . S
C166 C165 1.395 . S
C166 C169 1.390 . S
C167 C165 1.391 . S
C167 C171 1.387 . S
C167 C172 1.491 . S
H168 C169 0.950 . S
C169 C166 1.390 . S
C169 H168 0.950 . S
C169 C170 1.378 . S
C170 C169 1.378 . S
C170 C171 1.409 . S
C171 C167 1.387 . S
C171 C170 1.409 . S
C171 H173 0.951 . S
C172 C167 1.491 . S
C172 C174 1.382 . S
C172 C176 1.404 . S
H173 C171 0.951 . S
C174 C172 1.382 . S
C174 C175 1.390 . S
C174 H179 0.949 . S
C175 C174 1.390 . S
C175 C180 1.399 . S
C176 C172 1.404 . S
C176 H177 0.950 . S
C176 C178 1.375 . S
H177 C176 0.950 . S
C178 C176 1.375 . S
C178 C180 1.382 . S
C178 H182 0.950 . S
H179 C174 0.949 . S
C180 C175 1.399 . S
C180 C178 1.382 . S
C180 H181 0.952 . S
H181 C180 0.952 . S
H182 C178 0.950 . S
H183 C184 0.949 . S
C184 H183 0.949 . S
C184 C185 1.395 . S
C184 C186 1.391 . S
C185 C184 1.395 . S
C185 C188 1.390 . S
C186 C184 1.391 . S
C186 C190 1.387 . S
C186 C191 1.491 . S
H187 C188 0.950 . S
C188 C185 1.390 . S
C188 H187 0.950 . S
C188 C189 1.378 . S
C189 C188 1.378 . S
C189 C190 1.409 . S
C190 C186 1.387 . S
C190 C189 1.409 . S
C190 H192 0.951 . S
C191 C186 1.491 . S
C191 C193 1.382 . S
C191 C195 1.404 . S
H192 C190 0.951 . S
C193 C191 1.382 . S
C193 C194 1.390 . S
C193 H198 0.949 . S
C194 C193 1.390 . S
C194 C199 1.399 . S
C195 C191 1.404 . S
C195 H196 0.950 . S
C195 C197 1.375 . S
H196 C195 0.950 . S
C197 C195 1.375 . S
C197 C199 1.382 . S
C197 H201 0.950 . S
H198 C193 0.949 . S
C199 C194 1.399 . S
C199 C197 1.382 . S
C199 H200 0.952 . S
H200 C199 0.952 . S
H201 C197 0.950 . S
H202 C203 0.949 . S
C203 H202 0.949 . S
C203 C204 1.395 . S
C203 C205 1.391 . S
C204 C203 1.395 . S
C204 C207 1.390 . S
C205 C203 1.391 . S
C205 C209 1.387 . S
C205 C210 1.491 . S
H206 C207 0.950 . S
C207 C204 1.390 . S
C207 H206 0.950 . S
C207 C208 1.378 . S
C208 C207 1.378 . S
C208 C209 1.409 . S
C209 C205 1.387 . S
C209 C208 1.409 . S
C209 H211 0.951 . S
C210 C205 1.491 . S
C210 C212 1.382 . S
C210 C214 1.404 . S
H211 C209 0.951 . S
C212 C210 1.382 . S
C212 C213 1.390 . S
C212 H217 0.949 . S
C213 C212 1.390 . S
C213 C218 1.399 . S
C214 C210 1.404 . S
C214 H215 0.950 . S
C214 C216 1.375 . S
H215 C214 0.950 . S
C216 C214 1.375 . S
C216 C218 1.382 . S
C216 H220 0.950 . S
H217 C212 0.949 . S
C218 C213 1.399 . S
C218 C216 1.382 . S
C218 H219 0.952 . S
H219 C218 0.952 . S
H220 C216 0.950 . S
H221 C222 0.949 . S
C222 H221 0.949 . S
C222 C223 1.395 . S
C222 C224 1.391 . S
C223 C222 1.395 . S
C223 C226 1.390 . S
C224 C222 1.391 . S
C224 C228 1.387 . S
C224 C229 1.491 . S
H225 C226 0.950 . S
C226 C223 1.390 . S
C226 H225 0.950 . S
C226 C227 1.378 . S
C227 C226 1.378 . S
C227 C228 1.409 . S
C228 C224 1.387 . S
C228 C227 1.409 . S
C228 H230 0.951 . S
C229 C224 1.491 . S
C229 C231 1.382 . S
C229 C233 1.404 . S
H230 C228 0.951 . S
C231 C229 1.382 . S
C231 C232 1.390 . S
C231 H236 0.949 . S
C232 C231 1.390 . S
C232 C237 1.399 . S
C233 C229 1.404 . S
C233 H234 0.950 . S
C233 C235 1.375 . S
H234 C233 0.950 . S
C235 C233 1.375 . S
C235 C237 1.382 . S
C235 H239 0.950 . S
H236 C231 0.949 . S
C237 C232 1.399 . S
C237 C235 1.382 . S
C237 H238 0.952 . S
H238 C237 0.952 . S
H239 C235 0.950 . S
H240 C252 0.930 . S
H241 C254 0.930 . S
H242 C255 0.930 . S
H243 C259 0.959 . S
H244 C259 0.959 . S
H245 C259 0.961 . S
H246 C260 0.960 . S
H247 C260 0.961 . S
H248 C260 0.959 . S
H249 C263 0.929 . S
H250 C264 0.931 . S
H251 C266 0.930 . S
C252 H240 0.930 . S
C252 C253 1.399 . S
C252 C257 1.399 1_565 S
C253 C252 1.399 . S
C253 C254 1.376 . S
C254 H241 0.930 . S
C254 C253 1.376 . S
C254 C255 1.388 . S
C255 H242 0.930 . S
C255 C254 1.388 . S
C255 C256 1.390 . S
C256 C255 1.390 . S
C256 C257 1.394 1_565 S
C256 C262 1.465 1_565 S
C257 C252 1.399 1_545 S
C257 C256 1.394 1_545 S
C257 C258 1.516 . S
C258 C257 1.516 . S
C258 C259 1.502 . S
C258 C260 1.561 . S
C258 C261 1.526 . S
C259 H243 0.959 . S
C259 H244 0.959 . S
C259 H245 0.961 . S
C259 C258 1.502 . S
C260 H246 0.960 . S
C260 H247 0.961 . S
C260 H248 0.959 . S
C260 C258 1.561 . S
C261 C258 1.526 . S
C261 C262 1.396 . S
C261 C266 1.390 . S
C262 C256 1.465 1_545 S
C262 C261 1.396 . S
C262 C263 1.399 . S
C263 H249 0.929 . S
C263 C262 1.399 . S
C263 C264 1.385 . S
C264 H250 0.931 . S
C264 C263 1.385 . S
C264 C265 1.389 . S
C265 C264 1.389 . S
C265 C266 1.387 . S
C266 H251 0.930 . S
C266 C261 1.390 . S
C266 C265 1.387 . S
H267 C279 0.930 . S
H268 C281 0.930 . S
H269 C282 0.930 . S
H270 C286 0.959 . S
H271 C286 0.959 . S
H272 C286 0.961 . S
H273 C287 0.960 . S
H274 C287 0.961 . S
H275 C287 0.959 . S
H276 C290 0.929 . S
H277 C291 0.931 . S
H278 C293 0.930 . S
C279 H267 0.930 . S
C279 C280 1.399 . S
C279 C284 1.399 . S
C280 C279 1.399 . S
C280 C281 1.376 . S
C281 H268 0.930 . S
C281 C280 1.376 . S
C281 C282 1.388 . S
C282 H269 0.930 . S
C282 C281 1.388 . S
C282 C283 1.390 . S
C283 C282 1.390 . S
C283 C284 1.394 . S
C283 C289 1.465 . S
C284 C279 1.399 . S
C284 C283 1.394 . S
C284 C285 1.516 . S
C285 C284 1.516 . S
C285 C286 1.502 . S
C285 C287 1.561 . S
C285 C288 1.526 . S
C286 H270 0.959 . S
C286 H271 0.959 . S
C286 H272 0.961 . S
C286 C285 1.502 . S
C287 H273 0.960 . S
C287 H274 0.961 . S
C287 H275 0.959 . S
C287 C285 1.561 . S
C288 C285 1.526 . S
C288 C289 1.396 . S
C288 C293 1.390 . S
C289 C283 1.465 . S
C289 C288 1.396 . S
C289 C290 1.399 . S
C290 H276 0.929 . S
C290 C289 1.399 . S
C290 C291 1.385 . S
C291 H277 0.931 . S
C291 C290 1.385 . S
C291 C292 1.389 . S
C292 C291 1.389 . S
C292 C293 1.387 . S
C293 H278 0.930 . S
C293 C288 1.390 . S
C293 C292 1.387 . S
H294 C306 0.930 . S
H295 C308 0.930 . S
H296 C309 0.930 . S
H297 C313 0.959 . S
H298 C313 0.959 . S
H299 C313 0.961 . S
H300 C314 0.960 . S
H301 C314 0.961 . S
H302 C314 0.959 . S
H303 C317 0.929 . S
H304 C318 0.931 . S
H305 C320 0.930 . S
C306 H294 0.930 . S
C306 C307 1.399 . S
C306 C311 1.399 . S
C307 C306 1.399 . S
C307 C308 1.376 . S
C308 H295 0.930 . S
C308 C307 1.376 . S
C308 C309 1.388 1_545 S
C309 H296 0.930 . S
C309 C308 1.388 1_565 S
C309 C310 1.390 . S
C310 C309 1.390 . S
C310 C311 1.394 1_565 S
C310 C316 1.465 . S
C311 C306 1.399 . S
C311 C310 1.394 1_545 S
C311 C312 1.516 . S
C312 C311 1.516 . S
C312 C313 1.502 . S
C312 C314 1.561 . S
C312 C315 1.526 1_545 S
C313 H297 0.959 . S
C313 H298 0.959 . S
C313 H299 0.961 . S
C313 C312 1.502 . S
C314 H300 0.960 . S
C314 H301 0.961 . S
C314 H302 0.959 . S
C314 C312 1.561 . S
C315 C312 1.526 1_565 S
C315 C316 1.396 . S
C315 C320 1.390 . S
C316 C310 1.465 . S
C316 C315 1.396 . S
C316 C317 1.399 . S
C317 H303 0.929 . S
C317 C316 1.399 . S
C317 C318 1.385 . S
C318 H304 0.931 . S
C318 C317 1.385 . S
C318 C319 1.389 . S
C319 C318 1.389 . S
C319 C320 1.387 . S
C320 H305 0.930 . S
C320 C315 1.390 . S
C320 C319 1.387 . S
H321 C333 0.930 . S
H322 C335 0.930 . S
H323 C336 0.930 . S
H324 C340 0.959 . S
H325 C340 0.959 . S
H326 C340 0.961 . S
H327 C341 0.960 . S
H328 C341 0.961 . S
H329 C341 0.959 . S
H330 C344 0.929 . S
H331 C345 0.931 . S
H332 C347 0.930 . S
C333 H321 0.930 . S
C333 C334 1.399 . S
C333 C338 1.399 . S
C334 C333 1.399 . S
C334 C335 1.376 . S
C335 H322 0.930 . S
C335 C334 1.376 . S
C335 C336 1.388 . S
C336 H323 0.930 . S
C336 C335 1.388 . S
C336 C337 1.390 . S
C337 C336 1.390 . S
C337 C338 1.394 . S
C337 C343 1.465 . S
C338 C333 1.399 . S
C338 C337 1.394 . S
C338 C339 1.516 . S
C339 C338 1.516 . S
C339 C340 1.502 . S
C339 C341 1.561 . S
C339 C342 1.526 . S
C340 H324 0.959 . S
C340 H325 0.959 . S
C340 H326 0.961 . S
C340 C339 1.502 . S
C341 H327 0.960 . S
C341 H328 0.961 . S
C341 H329 0.959 . S
C341 C339 1.561 . S
C342 C339 1.526 . S
C342 C343 1.396 . S
C342 C347 1.390 . S
C343 C337 1.465 . S
C343 C342 1.396 . S
C343 C344 1.399 . S
C344 H330 0.929 . S
C344 C343 1.399 . S
C344 C345 1.385 . S
C345 H331 0.931 . S
C345 C344 1.385 . S
C345 C346 1.389 . S
C346 C345 1.389 . S
C346 C347 1.387 . S
C347 H332 0.930 . S
C347 C342 1.390 . S
C347 C346 1.387 . S
H348 C360 0.930 . S
H349 C362 0.930 . S
H350 C363 0.930 . S
H351 C367 0.959 . S
H352 C367 0.959 . S
H353 C367 0.961 . S
H354 C368 0.960 . S
H355 C368 0.961 . S
H356 C368 0.959 . S
H357 C371 0.929 . S
H358 C372 0.931 . S
H359 C374 0.930 . S
C360 H348 0.930 . S
C360 C361 1.399 . S
C360 C365 1.399 . S
C361 C360 1.399 . S
C361 C362 1.376 . S
C362 H349 0.930 . S
C362 C361 1.376 . S
C362 C363 1.388 . S
C363 H350 0.930 . S
C363 C362 1.388 . S
C363 C364 1.390 . S
C364 C363 1.390 . S
C364 C365 1.394 . S
C364 C370 1.465 . S
C365 C360 1.399 . S
C365 C364 1.394 . S
C365 C366 1.516 . S
C366 C365 1.516 . S
C366 C367 1.502 . S
C366 C368 1.561 . S
C366 C369 1.526 . S
C367 H351 0.959 . S
C367 H352 0.959 . S
C367 H353 0.961 . S
C367 C366 1.502 . S
C368 H354 0.960 . S
C368 H355 0.961 . S
C368 H356 0.959 . S
C368 C366 1.561 . S
C369 C366 1.526 . S
C369 C370 1.396 . S
C369 C374 1.390 . S
C370 C364 1.465 . S
C370 C369 1.396 . S
C370 C371 1.399 . S
C371 H357 0.929 . S
C371 C370 1.399 . S
C371 C372 1.385 . S
C372 H358 0.931 . S
C372 C371 1.385 . S
C372 C373 1.389 . S
C373 C372 1.389 . S
C373 C374 1.387 . S
C374 H359 0.930 . S
C374 C369 1.390 . S
C374 C373 1.387 . S
H375 C387 0.930 . S
H376 C389 0.930 . S
H377 C390 0.930 . S
H378 C394 0.959 . S
H379 C394 0.959 . S
H380 C394 0.961 . S
H381 C395 0.960 1_655 S
H382 C395 0.961 . S
H383 C395 0.959 1_655 S
H384 C398 0.929 . S
H385 C399 0.931 . S
H386 C401 0.930 . S
C387 H375 0.930 . S
C387 C388 1.399 . S
C387 C392 1.390 1_655 S
C388 C387 1.399 . S
C388 C389 1.376 . S
C389 H376 0.930 . S
C389 C388 1.376 . S
C389 C390 1.388 . S
C390 H377 0.930 . S
C390 C389 1.388 . S
C390 C391 1.390 1_655 S
C391 C390 1.390 1_455 S
C391 C392 1.395 . S
C391 C397 1.465 . S
C392 C387 1.390 1_455 S
C392 C391 1.395 . S
C392 C393 1.524 . S
C393 C392 1.524 . S
C393 C394 1.502 . S
C393 C395 1.561 . S
C393 C396 1.526 . S
C394 H378 0.959 . S
C394 H379 0.959 . S
C394 H380 0.961 . S
C394 C393 1.502 . S
C395 H381 0.960 1_455 S
C395 H382 0.961 . S
C395 H383 0.959 1_455 S
C395 C393 1.561 . S
C396 C393 1.526 . S
C396 C397 1.396 . S
C396 C401 1.390 . S
C397 C391 1.465 . S
C397 C396 1.396 . S
C397 C398 1.399 . S
C398 H384 0.929 . S
C398 C397 1.399 . S
C398 C399 1.385 . S
C399 H385 0.931 . S
C399 C398 1.385 . S
C399 C400 1.389 . S
C400 C399 1.389 . S
C400 C401 1.387 . S
C401 H386 0.930 . S
C401 C396 1.390 . S
C401 C400 1.387 . S
H402 C414 0.930 . S
H403 C416 0.930 . S
H404 C417 0.930 . S
H405 C421 0.959 . S
H406 C421 0.959 . S
H407 C421 0.961 . S
H408 C422 0.960 . S
H409 C422 0.961 . S
H410 C422 0.959 . S
H411 C425 0.929 . S
H412 C426 0.931 . S
H413 C428 0.930 . S
C414 H402 0.930 . S
C414 C415 1.399 . S
C414 C419 1.399 . S
C415 C414 1.399 . S
C415 C416 1.376 . S
C416 H403 0.930 . S
C416 C415 1.376 . S
C416 C417 1.388 . S
C417 H404 0.930 . S
C417 C416 1.388 . S
C417 C418 1.390 . S
C418 C417 1.390 . S
C418 C419 1.394 . S
C418 C424 1.465 . S
C419 C414 1.399 . S
C419 C418 1.394 . S
C419 C420 1.516 . S
C420 C419 1.516 . S
C420 C421 1.502 . S
C420 C422 1.561 . S
C420 C423 1.526 . S
C421 H405 0.959 . S
C421 H406 0.959 . S
C421 H407 0.961 . S
C421 C420 1.502 . S
C422 H408 0.960 . S
C422 H409 0.961 . S
C422 H410 0.959 . S
C422 C420 1.561 . S
C423 C420 1.526 . S
C423 C424 1.396 . S
C423 C428 1.390 . S
C424 C418 1.465 . S
C424 C423 1.396 . S
C424 C425 1.399 . S
C425 H411 0.929 . S
C425 C424 1.399 . S
C425 C426 1.385 . S
C426 H412 0.931 . S
C426 C425 1.385 . S
C426 C427 1.389 . S
C427 C426 1.389 . S
C427 C428 1.387 . S
C428 H413 0.930 . S
C428 C423 1.390 . S
C428 C427 1.387 . S
H429 C441 0.930 . S
H430 C443 0.930 . S
H431 C444 0.930 . S
H432 C448 0.959 . S
H433 C448 0.959 . S
H434 C448 0.961 . S
H435 C449 0.960 1_455 S
H436 C449 0.961 . S
H437 C449 0.959 1_455 S
H438 C452 0.929 . S
H439 C453 0.931 . S
H440 C455 0.930 . S
C441 H429 0.930 . S
C441 C442 1.399 . S
C441 C446 1.399 1_455 S
C442 C441 1.399 . S
C442 C443 1.376 . S
C443 H430 0.930 . S
C443 C442 1.376 . S
C443 C444 1.388 . S
C444 H431 0.930 . S
C444 C443 1.388 . S
C444 C445 1.390 1_455 S
C445 C444 1.390 1_655 S
C445 C446 1.394 . S
C445 C451 1.465 . S
C446 C441 1.399 1_655 S
C446 C445 1.394 . S
C446 C447 1.516 . S
C447 C446 1.516 . S
C447 C448 1.502 . S
C447 C449 1.561 . S
C447 C450 1.526 . S
C448 H432 0.959 . S
C448 H433 0.959 . S
C448 H434 0.961 . S
C448 C447 1.502 . S
C449 H435 0.960 1_655 S
C449 H436 0.961 . S
C449 H437 0.959 1_655 S
C449 C447 1.561 . S
C450 C447 1.526 . S
C450 C451 1.396 . S
C450 C455 1.390 . S
C451 C445 1.465 . S
C451 C450 1.396 . S
C451 C452 1.399 . S
C452 H438 0.929 . S
C452 C451 1.399 . S
C452 C453 1.385 . S
C453 H439 0.931 . S
C453 C452 1.385 . S
C453 C454 1.389 . S
C454 C453 1.389 . S
C454 C455 1.387 . S
C455 H440 0.930 . S
C455 C450 1.390 . S
C455 C454 1.387 . S
H456 C468 0.930 . S
H457 C470 0.930 . S
H458 C471 0.930 . S
H459 C475 0.959 . S
H460 C475 0.959 . S
H461 C475 0.961 . S
H462 C476 0.960 . S
H463 C476 0.961 . S
H464 C476 0.959 . S
H465 C479 0.929 . S
H466 C480 0.931 . S
H467 C482 0.930 . S
C468 H456 0.930 . S
C468 C469 1.399 . S
C468 C473 1.399 1_545 S
C469 C468 1.399 . S
C469 C470 1.376 . S
C470 H457 0.930 . S
C470 C469 1.376 . S
C470 C471 1.388 . S
C471 H458 0.930 . S
C471 C470 1.388 . S
C471 C472 1.390 . S
C472 C471 1.390 . S
C472 C473 1.394 1_545 S
C472 C478 1.465 1_545 S
C473 C468 1.399 1_565 S
C473 C472 1.394 1_565 S
C473 C474 1.516 . S
C474 C473 1.516 . S
C474 C475 1.502 . S
C474 C476 1.561 . S
C474 C477 1.526 . S
C475 H459 0.959 . S
C475 H460 0.959 . S
C475 H461 0.961 . S
C475 C474 1.502 . S
C476 H462 0.960 . S
C476 H463 0.961 . S
C476 H464 0.959 . S
C476 C474 1.561 . S
C477 C474 1.526 . S
C477 C478 1.396 . S
C477 C482 1.390 . S
C478 C472 1.465 1_565 S
C478 C477 1.396 . S
C478 C479 1.399 . S
C479 H465 0.929 . S
C479 C478 1.399 . S
C479 C480 1.385 . S
C480 H466 0.931 . S
C480 C479 1.385 . S
C480 C481 1.389 . S
C481 C480 1.389 . S
C481 C482 1.387 . S
C482 H467 0.930 . S
C482 C477 1.390 . S
C482 C481 1.387 . S
H483 C495 0.930 . S
H484 C497 0.930 . S
H485 C498 0.930 . S
H486 C502 0.959 . S
H487 C502 0.959 . S
H488 C502 0.961 . S
H489 C503 0.960 . S
H490 C503 0.961 . S
H491 C503 0.959 . S
H492 C506 0.929 . S
H493 C507 0.931 . S
H494 C509 0.930 . S
C495 H483 0.930 . S
C495 C496 1.399 . S
C495 C500 1.399 . S
C496 C495 1.399 . S
C496 C497 1.376 . S
C497 H484 0.930 . S
C497 C496 1.376 . S
C497 C498 1.388 . S
C498 H485 0.930 . S
C498 C497 1.388 . S
C498 C499 1.390 . S
C499 C498 1.390 . S
C499 C500 1.394 . S
C499 C505 1.465 . S
C500 C495 1.399 . S
C500 C499 1.394 . S
C500 C501 1.516 . S
C501 C500 1.516 . S
C501 C502 1.502 . S
C501 C503 1.561 . S
C501 C504 1.526 . S
C502 H486 0.959 . S
C502 H487 0.959 . S
C502 H488 0.961 . S
C502 C501 1.502 . S
C503 H489 0.960 . S
C503 H490 0.961 . S
C503 H491 0.959 . S
C503 C501 1.561 . S
C504 C501 1.526 . S
C504 C505 1.396 . S
C504 C509 1.390 . S
C505 C499 1.465 . S
C505 C504 1.396 . S
C505 C506 1.399 . S
C506 H492 0.929 . S
C506 C505 1.399 . S
C506 C507 1.385 . S
C507 H493 0.931 . S
C507 C506 1.385 . S
C507 C508 1.389 . S
C508 C507 1.389 . S
C508 C509 1.387 . S
C509 H494 0.930 . S
C509 C504 1.390 . S
C509 C508 1.387 . S
H510 C522 0.930 . S
H511 C524 0.930 . S
H512 C525 0.930 . S
H513 C529 0.959 . S
H514 C529 0.959 . S
H515 C529 0.961 . S
H516 C530 0.960 1_565 S
H517 C530 0.961 . S
H518 C530 0.959 . S
H519 C533 0.929 . S
H520 C534 0.931 . S
H521 C536 0.930 . S
C522 H510 0.930 . S
C522 C523 1.399 . S
C522 C527 1.399 . S
C523 C522 1.399 . S
C523 C524 1.376 . S
C524 H511 0.930 . S
C524 C523 1.376 . S
C524 C525 1.388 1_565 S
C525 H512 0.930 . S
C525 C524 1.388 1_545 S
C525 C526 1.390 . S
C526 C525 1.390 . S
C526 C527 1.394 1_545 S
C526 C532 1.465 . S
C527 C522 1.399 . S
C527 C526 1.394 1_565 S
C527 C528 1.516 1_565 S
C528 C527 1.516 1_545 S
C528 C529 1.502 1_545 S
C528 C530 1.561 . S
C528 C531 1.526 . S
C529 H513 0.959 . S
C529 H514 0.959 . S
C529 H515 0.961 . S
C529 C528 1.502 1_565 S
C530 H516 0.960 1_545 S
C530 H517 0.961 . S
C530 H518 0.959 . S
C530 C528 1.561 . S
C531 C528 1.526 . S
C531 C532 1.396 . S
C531 C536 1.390 . S
C532 C526 1.465 . S
C532 C531 1.396 . S
C532 C533 1.399 . S
C533 H519 0.929 . S
C533 C532 1.399 . S
C533 C534 1.385 . S
C534 H520 0.931 . S
C534 C533 1.385 . S
C534 C535 1.389 . S
C535 C534 1.389 . S
C535 C536 1.387 . S
C536 H521 0.930 . S
C536 C531 1.390 . S
C536 C535 1.387 . S
H537 C549 0.930 . S
H538 C551 0.930 . S
H539 C552 0.930 . S
H540 C556 0.959 . S
H541 C556 0.959 . S
H542 C556 0.961 . S
H543 C557 0.960 . S
H544 C557 0.961 . S
H545 C557 0.959 . S
H546 C560 0.929 . S
H547 C561 0.931 . S
H548 C563 0.930 . S
C549 H537 0.930 . S
C549 C550 1.399 . S
C549 C554 1.399 . S
C550 C549 1.399 . S
C550 C551 1.376 . S
C551 H538 0.930 . S
C551 C550 1.376 . S
C551 C552 1.388 . S
C552 H539 0.930 . S
C552 C551 1.388 . S
C552 C553 1.390 . S
C553 C552 1.390 . S
C553 C554 1.394 . S
C553 C559 1.465 . S
C554 C549 1.399 . S
C554 C553 1.394 . S
C554 C555 1.516 . S
C555 C554 1.516 . S
C555 C556 1.502 . S
C555 C557 1.561 . S
C555 C558 1.526 . S
C556 H540 0.959 . S
C556 H541 0.959 . S
C556 H542 0.961 . S
C556 C555 1.502 . S
C557 H543 0.960 . S
C557 H544 0.961 . S
C557 H545 0.959 . S
C557 C555 1.561 . S
C558 C555 1.526 . S
C558 C559 1.396 . S
C558 C563 1.390 . S
C559 C553 1.465 . S
C559 C558 1.396 . S
C559 C560 1.399 . S
C560 H546 0.929 . S
C560 C559 1.399 . S
C560 C561 1.385 . S
C561 H547 0.931 . S
C561 C560 1.385 . S
C561 C562 1.389 . S
C562 C561 1.389 . S
C562 C563 1.387 . S
C563 H548 0.930 . S
C563 C558 1.390 . S
C563 C562 1.387 . S
H564 C576 0.930 . S
H565 C578 0.930 . S
H566 C579 0.930 . S
H567 C583 0.959 . S
H568 C583 0.959 . S
H569 C583 0.961 . S
H570 C584 0.960 . S
H571 C584 0.961 . S
H572 C584 0.959 . S
H573 C587 0.929 . S
H574 C588 0.931 . S
H575 C590 0.930 . S
C576 H564 0.930 . S
C576 C577 1.399 . S
C576 C581 1.399 . S
C577 C576 1.399 . S
C577 C578 1.376 . S
C578 H565 0.930 . S
C578 C577 1.376 . S
C578 C579 1.388 . S
C579 H566 0.930 . S
C579 C578 1.388 . S
C579 C580 1.390 . S
C580 C579 1.390 . S
C580 C581 1.394 . S
C580 C586 1.465 . S
C581 C576 1.399 . S
C581 C580 1.394 . S
C581 C582 1.516 . S
C582 C581 1.516 . S
C582 C583 1.502 . S
C582 C584 1.561 . S
C582 C585 1.526 . S
C583 H567 0.959 . S
C583 H568 0.959 . S
C583 H569 0.961 . S
C583 C582 1.502 . S
C584 H570 0.960 . S
C584 H571 0.961 . S
C584 H572 0.959 . S
C584 C582 1.561 . S
C585 C582 1.526 . S
C585 C586 1.396 . S
C585 C590 1.390 . S
C586 C580 1.465 . S
C586 C585 1.396 . S
C586 C587 1.399 . S
C587 H573 0.929 . S
C587 C586 1.399 . S
C587 C588 1.385 . S
C588 H574 0.931 . S
C588 C587 1.385 . S
C588 C589 1.389 . S
C589 C588 1.389 . S
C589 C590 1.387 . S
C590 H575 0.930 . S
C590 C585 1.390 . S
C590 C589 1.387 . S
H591 C603 0.930 . S
H592 C605 0.930 . S
H593 C606 0.930 1_655 S
H594 C610 0.959 . S
H595 C610 0.959 . S
H596 C610 0.961 . S
H597 C611 0.960 . S
H598 C611 0.961 1_655 S
H599 C611 0.959 . S
H600 C614 0.929 . S
H601 C615 0.931 . S
H602 C617 0.930 . S
C603 H591 0.930 . S
C603 C604 1.399 . S
C603 C608 1.421 . S
C604 C603 1.399 . S
C604 C605 1.376 . S
C605 H592 0.930 . S
C605 C604 1.376 . S
C605 C606 1.388 . S
C606 H593 0.930 1_455 S
C606 C605 1.388 . S
C606 C607 1.390 1_455 S
C607 C606 1.390 1_655 S
C607 C608 1.384 1_655 S
C607 C613 1.465 . S
C608 C603 1.421 . S
C608 C607 1.384 1_455 S
C608 C609 1.503 1_455 S
C609 C608 1.503 1_655 S
C609 C610 1.502 . S
C609 C611 1.561 1_655 S
C609 C612 1.526 . S
C610 H594 0.959 . S
C610 H595 0.959 . S
C610 H596 0.961 . S
C610 C609 1.502 . S
C611 H597 0.960 . S
C611 H598 0.961 1_455 S
C611 H599 0.959 . S
C611 C609 1.561 1_455 S
C612 C609 1.526 . S
C612 C613 1.396 . S
C612 C617 1.390 . S
C613 C607 1.465 . S
C613 C612 1.396 . S
C613 C614 1.399 . S
C614 H600 0.929 . S
C614 C613 1.399 . S
C614 C615 1.385 . S
C615 H601 0.931 . S
C615 C614 1.385 . S
C615 C616 1.389 . S
C616 C615 1.389 . S
C616 C617 1.387 . S
C617 H602 0.930 . S
C617 C612 1.390 . S
C617 C616 1.387 . S
H618 C630 0.930 . S
H619 C632 0.930 . S
H620 C633 0.930 . S
H621 C637 0.959 . S
H622 C637 0.959 . S
H623 C637 0.961 . S
H624 C638 0.960 . S
H625 C638 0.961 . S
H626 C638 0.959 . S
H627 C641 0.929 . S
H628 C642 0.931 . S
H629 C644 0.930 . S
C630 H618 0.930 . S
C630 C631 1.399 . S
C630 C635 1.399 . S
C631 C630 1.399 . S
C631 C632 1.376 . S
C632 H619 0.930 . S
C632 C631 1.376 . S
C632 C633 1.388 . S
C633 H620 0.930 . S
C633 C632 1.388 . S
C633 C634 1.390 . S
C634 C633 1.390 . S
C634 C635 1.394 . S
C634 C640 1.465 . S
C635 C630 1.399 . S
C635 C634 1.394 . S
C635 C636 1.516 . S
C636 C635 1.516 . S
C636 C637 1.502 . S
C636 C638 1.561 . S
C636 C639 1.526 . S
C637 H621 0.959 . S
C637 H622 0.959 . S
C637 H623 0.961 . S
C637 C636 1.502 . S
C638 H624 0.960 . S
C638 H625 0.961 . S
C638 H626 0.959 . S
C638 C636 1.561 . S
C639 C636 1.526 . S
C639 C640 1.396 . S
C639 C644 1.390 . S
C640 C634 1.465 . S
C640 C639 1.396 . S
C640 C641 1.399 . S
C641 H627 0.929 . S
C641 C640 1.399 . S
C641 C642 1.385 . S
C642 H628 0.931 . S
C642 C641 1.385 . S
C642 C643 1.389 . S
C643 C642 1.389 . S
C643 C644 1.387 . S
C644 H629 0.930 . S
C644 C639 1.390 . S
C644 C643 1.387 . S
H645 C657 0.930 . S
H646 C659 0.930 . S
H647 C660 0.930 . S
H648 C664 0.959 . S
H649 C664 0.959 1_455 S
H650 C664 0.961 . S
H651 C665 0.960 . S
H652 C665 0.961 . S
H653 C665 0.959 . S
H654 C668 0.929 . S
H655 C669 0.931 . S
H656 C671 0.930 . S
C657 H645 0.930 . S
C657 C658 1.399 . S
C657 C662 1.399 . S
C658 C657 1.399 . S
C658 C659 1.376 . S
C659 H646 0.930 . S
C659 C658 1.376 . S
C659 C660 1.388 1_655 S
C660 H647 0.930 . S
C660 C659 1.388 1_455 S
C660 C661 1.390 . S
C661 C660 1.390 . S
C661 C662 1.394 1_455 S
C661 C667 1.465 . S
C662 C657 1.399 . S
C662 C661 1.394 1_655 S
C662 C663 1.516 1_655 S
C663 C662 1.516 1_455 S
C663 C664 1.502 1_455 S
C663 C665 1.561 . S
C663 C666 1.526 . S
C664 H648 0.959 . S
C664 H649 0.959 1_655 S
C664 H650 0.961 . S
C664 C663 1.502 1_655 S
C665 H651 0.960 . S
C665 H652 0.961 . S
C665 H653 0.959 . S
C665 C663 1.561 . S
C666 C663 1.526 . S
C666 C667 1.396 . S
C666 C671 1.390 . S
C667 C661 1.465 . S
C667 C666 1.396 . S
C667 C668 1.399 . S
C668 H654 0.929 . S
C668 C667 1.399 . S
C668 C669 1.385 . S
C669 H655 0.931 . S
C669 C668 1.385 . S
C669 C670 1.389 . S
C670 C669 1.389 . S
C670 C671 1.387 . S
C671 H656 0.930 . S
C671 C666 1.390 . S
C671 C670 1.387 . S
H672 C684 0.930 . S
H673 C686 0.930 . S
H674 C687 0.930 . S
H675 C691 0.959 . S
H676 C691 0.959 . S
H677 C691 0.961 . S
H678 C692 0.960 . S
H679 C692 0.961 . S
H680 C692 0.959 . S
H681 C695 0.929 . S
H682 C696 0.931 . S
H683 C698 0.930 . S
C684 H672 0.930 . S
C684 C685 1.399 . S
C684 C689 1.399 . S
C685 C684 1.399 . S
C685 C686 1.376 . S
C686 H673 0.930 . S
C686 C685 1.376 . S
C686 C687 1.388 . S
C687 H674 0.930 . S
C687 C686 1.388 . S
C687 C688 1.390 . S
C688 C687 1.390 . S
C688 C689 1.394 . S
C688 C694 1.465 . S
C689 C684 1.399 . S
C689 C688 1.394 . S
C689 C690 1.516 . S
C690 C689 1.516 . S
C690 C691 1.502 . S
C690 C692 1.561 . S
C690 C693 1.526 . S
C691 H675 0.959 . S
C691 H676 0.959 . S
C691 H677 0.961 . S
C691 C690 1.502 . S
C692 H678 0.960 . S
C692 H679 0.961 . S
C692 H680 0.959 . S
C692 C690 1.561 . S
C693 C690 1.526 . S
C693 C694 1.396 . S
C693 C698 1.390 . S
C694 C688 1.465 . S
C694 C693 1.396 . S
C694 C695 1.399 . S
C695 H681 0.929 . S
C695 C694 1.399 . S
C695 C696 1.385 . S
C696 H682 0.931 . S
C696 C695 1.385 . S
C696 C697 1.389 . S
C697 C696 1.389 . S
C697 C698 1.387 . S
C698 H683 0.930 . S
C698 C693 1.390 . S
C698 C697 1.387 . S
H699 C711 0.930 . S
H700 C713 0.930 . S
H701 C714 0.930 . S
H702 C718 0.959 . S
H703 C718 0.959 . S
H704 C718 0.961 . S
H705 C719 0.960 . S
H706 C719 0.961 . S
H707 C719 0.959 . S
H708 C722 0.929 . S
H709 C723 0.931 . S
H710 C725 0.930 . S
C711 H699 0.930 . S
C711 C712 1.399 . S
C711 C716 1.399 . S
C712 C711 1.399 . S
C712 C713 1.376 . S
C713 H700 0.930 . S
C713 C712 1.376 . S
C713 C714 1.388 . S
C714 H701 0.930 . S
C714 C713 1.388 . S
C714 C715 1.390 . S
C715 C714 1.390 . S
C715 C716 1.394 . S
C715 C721 1.465 . S
C716 C711 1.399 . S
C716 C715 1.394 . S
C716 C717 1.516 . S
C717 C716 1.516 . S
C717 C718 1.502 . S
C717 C719 1.561 . S
C717 C720 1.526 . S
C718 H702 0.959 . S
C718 H703 0.959 . S
C718 H704 0.961 . S
C718 C717 1.502 . S
C719 H705 0.960 . S
C719 H706 0.961 . S
C719 H707 0.959 . S
C719 C717 1.561 . S
C720 C717 1.526 . S
C720 C721 1.396 . S
C720 C725 1.390 . S
C721 C715 1.465 . S
C721 C720 1.396 . S
C721 C722 1.399 . S
C722 H708 0.929 . S
C722 C721 1.399 . S
C722 C723 1.385 . S
C723 H709 0.931 . S
C723 C722 1.385 . S
C723 C724 1.389 . S
C724 C723 1.389 . S
C724 C725 1.387 . S
C725 H710 0.930 . S
C725 C720 1.390 . S
C725 C724 1.387 . S
H726 C738 0.930 . S
H727 C740 0.930 . S
H728 C741 0.930 . S
H729 C745 0.959 . S
H730 C745 0.959 . S
H731 C745 0.961 . S
H732 C746 0.960 . S
H733 C746 0.961 . S
H734 C746 0.959 . S
H735 C749 0.929 . S
H736 C750 0.931 . S
H737 C752 0.930 . S
C738 H726 0.930 . S
C738 C739 1.399 . S
C738 C743 1.399 . S
C739 C738 1.399 . S
C739 C740 1.376 . S
C740 H727 0.930 . S
C740 C739 1.376 . S
C740 C741 1.388 . S
C741 H728 0.930 . S
C741 C740 1.388 . S
C741 C742 1.390 . S
C742 C741 1.390 . S
C742 C743 1.394 . S
C742 C748 1.465 . S
C743 C738 1.399 . S
C743 C742 1.394 . S
C743 C744 1.516 . S
C744 C743 1.516 . S
C744 C745 1.502 . S
C744 C746 1.561 . S
C744 C747 1.526 . S
C745 H729 0.959 . S
C745 H730 0.959 . S
C745 H731 0.961 . S
C745 C744 1.502 . S
C746 H732 0.960 . S
C746 H733 0.961 . S
C746 H734 0.959 . S
C746 C744 1.561 . S
C747 C744 1.526 . S
C747 C748 1.396 . S
C747 C752 1.390 . S
C748 C742 1.465 . S
C748 C747 1.396 . S
C748 C749 1.399 . S
C749 H735 0.929 . S
C749 C748 1.399 . S
C749 C750 1.385 . S
C750 H736 0.931 . S
C750 C749 1.385 . S
C750 C751 1.389 . S
C751 C750 1.389 . S
C751 C752 1.387 . S
C752 H737 0.930 . S
C752 C747 1.390 . S
C752 C751 1.387 . S
H753 C765 0.930 . S
H754 C767 0.930 . S
H755 C768 0.930 . S
H756 C772 0.959 . S
H757 C772 0.959 . S
H758 C772 0.961 . S
H759 C773 0.960 . S
H760 C773 0.961 . S
H761 C773 0.959 . S
H762 C776 0.929 . S
H763 C777 0.931 . S
H764 C779 0.930 . S
C765 H753 0.930 . S
C765 C766 1.399 . S
C765 C770 1.399 . S
C766 C765 1.399 . S
C766 C767 1.376 . S
C767 H754 0.930 . S
C767 C766 1.376 . S
C767 C768 1.388 . S
C768 H755 0.930 . S
C768 C767 1.388 . S
C768 C769 1.390 . S
C769 C768 1.390 . S
C769 C770 1.394 . S
C769 C775 1.465 . S
C770 C765 1.399 . S
C770 C769 1.394 . S
C770 C771 1.516 . S
C771 C770 1.516 . S
C771 C772 1.502 . S
C771 C773 1.561 . S
C771 C774 1.526 . S
C772 H756 0.959 . S
C772 H757 0.959 . S
C772 H758 0.961 . S
C772 C771 1.502 . S
C773 H759 0.960 . S
C773 H760 0.961 . S
C773 H761 0.959 . S
C773 C771 1.561 . S
C774 C771 1.526 . S
C774 C775 1.396 . S
C774 C779 1.390 . S
C775 C769 1.465 . S
C775 C774 1.396 . S
C775 C776 1.399 . S
C776 H762 0.929 . S
C776 C775 1.399 . S
C776 C777 1.385 . S
C777 H763 0.931 . S
C777 C776 1.385 . S
C777 C778 1.389 . S
C778 C777 1.389 . S
C778 C779 1.387 . S
C779 H764 0.930 . S
C779 C774 1.390 . S
C779 C778 1.387 . S
H780 C792 0.930 . S
H781 C794 0.930 . S
H782 C795 0.930 . S
H783 C799 0.959 . S
H784 C799 0.959 . S
H785 C799 0.961 . S
H786 C800 0.960 . S
H787 C800 0.961 . S
H788 C800 0.959 . S
H789 C803 0.929 . S
H790 C804 0.931 . S
H791 C806 0.930 . S
C792 H780 0.930 . S
C792 C793 1.399 . S
C792 C797 1.399 . S
C793 C792 1.399 . S
C793 C794 1.376 . S
C794 H781 0.930 . S
C794 C793 1.376 . S
C794 C795 1.388 . S
C795 H782 0.930 . S
C795 C794 1.388 . S
C795 C796 1.390 . S
C796 C795 1.390 . S
C796 C797 1.394 . S
C796 C802 1.465 . S
C797 C792 1.399 . S
C797 C796 1.394 . S
C797 C798 1.516 . S
C798 C797 1.516 . S
C798 C799 1.502 . S
C798 C800 1.561 . S
C798 C801 1.526 . S
C799 H783 0.959 . S
C799 H784 0.959 . S
C799 H785 0.961 . S
C799 C798 1.502 . S
C800 H786 0.960 . S
C800 H787 0.961 . S
C800 H788 0.959 . S
C800 C798 1.561 . S
C801 C798 1.526 . S
C801 C802 1.396 . S
C801 C806 1.390 . S
C802 C796 1.465 . S
C802 C801 1.396 . S
C802 C803 1.399 . S
C803 H789 0.929 . S
C803 C802 1.399 . S
C803 C804 1.385 . S
C804 H790 0.931 . S
C804 C803 1.385 . S
C804 C805 1.389 . S
C805 C804 1.389 . S
C805 C806 1.387 . S
C806 H791 0.930 . S
C806 C801 1.390 . S
C806 C805 1.387 . S
H807 C819 0.930 . S
H808 C821 0.930 . S
H809 C822 0.930 . S
H810 C826 0.959 . S
H811 C826 0.959 . S
H812 C826 0.961 . S
H813 C827 0.960 . S
H814 C827 0.961 . S
H815 C827 0.959 . S
H816 C830 0.929 . S
H817 C831 0.931 . S
H818 C833 0.930 . S
C819 H807 0.930 . S
C819 C820 1.399 . S
C819 C824 1.399 . S
C820 C819 1.399 . S
C820 C821 1.376 . S
C821 H808 0.930 . S
C821 C820 1.376 . S
C821 C822 1.388 . S
C822 H809 0.930 . S
C822 C821 1.388 . S
C822 C823 1.390 . S
C823 C822 1.390 . S
C823 C824 1.394 . S
C823 C829 1.465 . S
C824 C819 1.399 . S
C824 C823 1.394 . S
C824 C825 1.516 . S
C825 C824 1.516 . S
C825 C826 1.502 . S
C825 C827 1.561 . S
C825 C828 1.526 . S
C826 H810 0.959 . S
C826 H811 0.959 . S
C826 H812 0.961 . S
C826 C825 1.502 . S
C827 H813 0.960 . S
C827 H814 0.961 . S
C827 H815 0.959 . S
C827 C825 1.561 . S
C828 C825 1.526 . S
C828 C829 1.396 . S
C828 C833 1.390 . S
C829 C823 1.465 . S
C829 C828 1.396 . S
C829 C830 1.399 . S
C830 H816 0.929 . S
C830 C829 1.399 . S
C830 C831 1.385 . S
C831 H817 0.931 . S
C831 C830 1.385 . S
C831 C832 1.389 . S
C832 C831 1.389 . S
C832 C833 1.387 . S
C833 H818 0.930 . S
C833 C828 1.390 . S
C833 C832 1.387 . S
H834 C846 0.930 . S
H835 C848 0.930 . S
H836 C849 0.930 . S
H837 C853 0.959 . S
H838 C853 0.959 . S
H839 C853 0.961 . S
H840 C854 0.960 . S
H841 C854 0.961 . S
H842 C854 0.959 . S
H843 C857 0.929 . S
H844 C858 0.931 . S
H845 C860 0.930 . S
C846 H834 0.930 . S
C846 C847 1.399 . S
C846 C851 1.399 . S
C847 C846 1.399 . S
C847 C848 1.376 . S
C848 H835 0.930 . S
C848 C847 1.376 . S
C848 C849 1.388 . S
C849 H836 0.930 . S
C849 C848 1.388 . S
C849 C850 1.390 . S
C850 C849 1.390 . S
C850 C851 1.394 . S
C850 C856 1.465 . S
C851 C846 1.399 . S
C851 C850 1.394 . S
C851 C852 1.516 . S
C852 C851 1.516 . S
C852 C853 1.502 . S
C852 C854 1.561 . S
C852 C855 1.526 . S
C853 H837 0.959 . S
C853 H838 0.959 . S
C853 H839 0.961 . S
C853 C852 1.502 . S
C854 H840 0.960 . S
C854 H841 0.961 . S
C854 H842 0.959 . S
C854 C852 1.561 . S
C855 C852 1.526 . S
C855 C856 1.396 . S
C855 C860 1.390 . S
C856 C850 1.465 . S
C856 C855 1.396 . S
C856 C857 1.399 . S
C857 H843 0.929 . S
C857 C856 1.399 . S
C857 C858 1.385 . S
C858 H844 0.931 . S
C858 C857 1.385 . S
C858 C859 1.389 . S
C859 C858 1.389 . S
C859 C860 1.387 . S
C860 H845 0.930 . S
C860 C855 1.390 . S
C860 C859 1.387 . S
H861 C873 0.930 . S
H862 C875 0.930 . S
H863 C876 0.930 . S
H864 C880 0.959 . S
H865 C880 0.959 . S
H866 C880 0.961 . S
H867 C881 0.960 . S
H868 C881 0.961 . S
H869 C881 0.959 . S
H870 C884 0.929 . S
H871 C885 0.931 . S
H872 C887 0.930 . S
C873 H861 0.930 . S
C873 C874 1.399 . S
C873 C878 1.399 . S
C874 C873 1.399 . S
C874 C875 1.376 . S
C875 H862 0.930 . S
C875 C874 1.376 . S
C875 C876 1.388 . S
C876 H863 0.930 . S
C876 C875 1.388 . S
C876 C877 1.390 . S
C877 C876 1.390 . S
C877 C878 1.394 . S
C877 C883 1.465 . S
C878 C873 1.399 . S
C878 C877 1.394 . S
C878 C879 1.516 . S
C879 C878 1.516 . S
C879 C880 1.502 . S
C879 C881 1.561 . S
C879 C882 1.526 . S
C880 H864 0.959 . S
C880 H865 0.959 . S
C880 H866 0.961 . S
C880 C879 1.502 . S
C881 H867 0.960 . S
C881 H868 0.961 . S
C881 H869 0.959 . S
C881 C879 1.561 . S
C882 C879 1.526 . S
C882 C883 1.396 . S
C882 C887 1.390 . S
C883 C877 1.465 . S
C883 C882 1.396 . S
C883 C884 1.399 . S
C884 H870 0.929 . S
C884 C883 1.399 . S
C884 C885 1.385 . S
C885 H871 0.931 . S
C885 C884 1.385 . S
C885 C886 1.389 . S
C886 C885 1.389 . S
C886 C887 1.387 . S
C887 H872 0.930 . S
C887 C882 1.390 . S
C887 C886 1.387 . S
C253 C8 1.438 . S
C265 C90 1.381 . S
C280 C31 1.455 . S
C292 C109 1.343 . S
C307 C53 1.201 . S
C319 C132 1.205 . S
C346 C151 1.130 . S
C334 C74 1.141 . S
C373 C166 1.304 . S
C361 C26 1.410 . S
C388 C48 1.188 . S
C400 C189 1.198 . S
C415 C71 1.215 . S
C427 C208 1.225 . S
C442 C5 1.482 . S
C454 C223 1.442 . S
C469 C50 1.257 . S
C481 C227 1.240 . S
C508 C170 1.147 . S
C496 C70 1.187 . S
C535 C185 1.334 . S
C523 C4 1.389 . S
C550 C28 1.490 . S
C562 C204 1.378 . S
C589 C113 1.201 . S
C577 C73 1.195 . S
C604 C7 1.477 . S
C616 C128 1.349 . S
C643 C147 1.287 . S
C631 C30 1.396 . S
C670 C94 1.178 . S
C658 C52 1.140 . S
C697 C213 1.332 . S
C685 C9 1.388 . S
C724 C232 1.357 . S
C712 C29 1.414 . S
C739 C51 1.329 . S
C751 C175 1.270 . S
C778 C194 1.241 . S
C766 C75 1.289 . S
C805 C137 1.239 . S
C793 C27 1.408 . S
C820 C49 1.329 . S
C832 C156 1.164 . S
C859 C99 1.223 . S
C847 C72 1.297 . S
C886 C118 1.341 . S
C874 C6 1.403 . S
