# Generated by pormake.
# Topology zzz, (3,6)-cn, num edge types: 1
# Building blocks:
#     Node 0, Type 0, BuildingBlock: BETDAH_clean_linker_0, # of connection points: 3
#     Node 1, Type 0, BuildingBlock: BETDAH_clean_linker_0, # of connection points: 3
#     Node 2, Type 0, BuildingBlock: BETDAH_clean_linker_0, # of connection points: 3
#     Node 3, Type 0, BuildingBlock: BETDAH_clean_linker_0, # of connection points: 3
#     Node 4, Type 0, BuildingBlock: BETDAH_clean_linker_0, # of connection points: 3
#     Node 5, Type 0, BuildingBlock: BETDAH_clean_linker_0, # of connection points: 3
#     Node 6, Type 0, BuildingBlock: BETDAH_clean_linker_0, # of connection points: 3
#     Node 7, Type 0, BuildingBlock: BETDAH_clean_linker_0, # of connection points: 3
#     Node 8, Type 1, BuildingBlock: INOVEN_clean_sbu_0, # of connection points: 6
#     Node 9, Type 1, BuildingBlock: INOVEN_clean_sbu_0, # of connection points: 6
#     Node 10, Type 1, BuildingBlock: INOVEN_clean_sbu_0, # of connection points: 6
#     Node 11, Type 1, BuildingBlock: INOVEN_clean_sbu_0, # of connection points: 6
#     Edge 12, Type (0, 1), BuildingBlock: EZIPEK_clean_linker_0, # of connection points: 2
#     Edge 13, Type (0, 1), BuildingBlock: EZIPEK_clean_linker_0, # of connection points: 2
#     Edge 14, Type (0, 1), BuildingBlock: EZIPEK_clean_linker_0, # of connection points: 2
#     Edge 15, Type (0, 1), BuildingBlock: EZIPEK_clean_linker_0, # of connection points: 2
#     Edge 16, Type (0, 1), BuildingBlock: EZIPEK_clean_linker_0, # of connection points: 2
#     Edge 17, Type (0, 1), BuildingBlock: EZIPEK_clean_linker_0, # of connection points: 2
#     Edge 18, Type (0, 1), BuildingBlock: EZIPEK_clean_linker_0, # of connection points: 2
#     Edge 19, Type (0, 1), BuildingBlock: EZIPEK_clean_linker_0, # of connection points: 2
#     Edge 20, Type (0, 1), BuildingBlock: EZIPEK_clean_linker_0, # of connection points: 2
#     Edge 21, Type (0, 1), BuildingBlock: EZIPEK_clean_linker_0, # of connection points: 2
#     Edge 22, Type (0, 1), BuildingBlock: EZIPEK_clean_linker_0, # of connection points: 2
#     Edge 23, Type (0, 1), BuildingBlock: EZIPEK_clean_linker_0, # of connection points: 2
#     Edge 24, Type (0, 1), BuildingBlock: EZIPEK_clean_linker_0, # of connection points: 2
#     Edge 25, Type (0, 1), BuildingBlock: EZIPEK_clean_linker_0, # of connection points: 2
#     Edge 26, Type (0, 1), BuildingBlock: EZIPEK_clean_linker_0, # of connection points: 2
#     Edge 27, Type (0, 1), BuildingBlock: EZIPEK_clean_linker_0, # of connection points: 2
#     Edge 28, Type (0, 1), BuildingBlock: EZIPEK_clean_linker_0, # of connection points: 2
#     Edge 29, Type (0, 1), BuildingBlock: EZIPEK_clean_linker_0, # of connection points: 2
#     Edge 30, Type (0, 1), BuildingBlock: EZIPEK_clean_linker_0, # of connection points: 2
#     Edge 31, Type (0, 1), BuildingBlock: EZIPEK_clean_linker_0, # of connection points: 2
#     Edge 32, Type (0, 1), BuildingBlock: EZIPEK_clean_linker_0, # of connection points: 2
#     Edge 33, Type (0, 1), BuildingBlock: EZIPEK_clean_linker_0, # of connection points: 2
#     Edge 34, Type (0, 1), BuildingBlock: EZIPEK_clean_linker_0, # of connection points: 2
#     Edge 35, Type (0, 1), BuildingBlock: EZIPEK_clean_linker_0, # of connection points: 2
# Relax obj value: 0.352
# Max RMSD: 0.208
# Mean RMSD: 0.160
data_MOF--net-zzz--node1-INOVEN_clean_sbu_0--node2-BETDAH_clean_linker_0--edge1-EZIPEK_clean_linker_0
_symmetry_space_group_name_H-M    P1
_symmetry_Int_Tables_number       1
_symmetry_cell_setting            triclinic
loop_
_symmetry_equiv_pos_as_xyz
'x, y, z'
_cell_length_a     37.367189
_cell_length_b     37.480197
_cell_length_c     10.232534
_cell_angle_alpha  90.006513
_cell_angle_beta   89.256762
_cell_angle_gamma 90.112765
loop_
_atom_site_label
_atom_site_type_symbol
_atom_site_fract_x
_atom_site_fract_y
_atom_site_fract_z
_atom_type_partial_charge
H0 H 0.8534 0.5618 0.41901 0.0
H1 H 0.75207 0.52044 0.30328 0.0
H2 H 0.76708 0.5532 0.70017 0.0
C3 C 0.82589 0.55521 0.44351 0.0
C4 C 0.81448 0.55638 0.57392 0.0
C5 C 0.80545 0.53644 0.35361 0.0
C6 C 0.76848 0.53332 0.37584 0.0
C7 C 0.75333 0.54291 0.4967 0.0
C8 C 0.77714 0.55156 0.60064 0.0
N9 N 0.71533 0.53996 0.51769 0.0
C10 C 0.68975 0.53626 0.41768 0.0
H11 H 0.98802 0.83697 0.47908 0.0
H12 H 1.00182 0.73156 0.32763 0.0
H13 H 0.05383 0.76288 0.68383 0.0
C14 C 0.99877 0.81027 0.48745 0.0
C15 C 1.02154 0.80396 0.59135 0.0
C16 C 0.99738 0.78646 0.381 0.0
C17 C 1.00674 0.75098 0.40304 0.0
C18 C 1.02704 0.74152 0.51172 0.0
C19 C 0.03569 0.76872 0.60505 0.0
N20 N 0.04163 0.70612 0.51891 0.0
C21 C 0.03835 0.68022 0.41884 0.0
H22 H 0.72243 0.06265 0.46429 0.0
H23 H 0.82734 0.05062 0.30234 0.0
H24 H 0.79646 0.99147 0.64989 0.0
C25 C 0.74889 0.05087 0.47112 0.0
C26 C 0.75541 1.02616 0.56946 0.0
C27 C 0.77491 0.05994 0.37774 0.0
C28 C 0.80853 0.04419 0.37971 0.0
C29 C 0.8173 1.01975 0.47795 0.0
C30 C 0.79039 1.01062 0.5742 0.0
N31 N 0.85246 1.00412 0.47907 0.0
C32 C 0.87993 1.01091 0.38541 0.0
H33 H 0.57021 0.71726 0.48961 0.0
H34 H 0.55375 0.82031 0.31894 0.0
H35 H 0.5117 0.79581 0.70353 0.0
C36 C 0.55967 0.74402 0.4936 0.0
C37 C 0.54004 0.75256 0.60532 0.0
C38 C 0.56118 0.76672 0.38335 0.0
C39 C 0.55036 0.80201 0.39922 0.0
C40 C 0.53362 0.81355 0.5152 0.0
C41 C 0.52701 0.78815 0.61752 0.0
N42 N 0.5216 0.84979 0.52485 0.0
C43 C 0.52636 0.87524 0.42421 0.0
H44 H 0.22852 0.57095 0.11036 0.0
H45 H 0.33263 0.55746 0.26834 0.0
H46 H 0.28694 0.47453 0.0299 0.0
C47 C 0.253 0.55549 0.11608 0.0
C48 C 0.25426 0.52203 0.0556 0.0
C49 C 0.28025 0.56732 0.1981 0.0
C50 C 0.31168 0.54751 0.20755 0.0
C51 C 0.31499 0.5141 0.14675 0.0
C52 C 0.28572 0.50108 0.07139 0.0
N53 N 0.34628 0.4926 0.1667 0.0
C54 C 0.37417 0.4998 0.25535 0.0
H55 H 1.01274 0.21879 0.17248 0.0
H56 H 1.02628 0.32502 0.31089 0.0
H57 H 0.07027 0.29469 0.93262 0.0
C58 C 1.02312 0.24551 0.15537 0.0
C59 C 0.04269 0.2525 0.04136 0.0
C60 C 1.01693 0.27184 0.24944 0.0
C61 C 1.03052 0.30596 0.23306 0.0
C62 C 0.04895 0.31538 0.11796 0.0
C63 C 0.05547 0.2882 0.02115 0.0
N64 N 0.06044 0.35175 0.1001 0.0
C65 C 0.05329 0.37946 0.19094 0.0
H66 H 0.33135 1.0036 0.15667 0.0
H67 H 0.2308 0.03678 0.30832 0.0
H68 H 0.26357 0.06875 0.91732 0.0
C69 C 0.30601 1.01672 0.13882 0.0
C70 C 0.30196 0.0362 0.02379 0.0
C71 C 0.28155 1.01956 0.24288 0.0
C72 C 0.2489 0.03564 0.2252 0.0
C73 C 0.24119 0.05291 0.10755 0.0
C74 C 0.26829 0.05388 0.00611 0.0
N75 N 0.20766 0.07133 0.09724 0.0
C76 C 0.18227 0.07229 0.20102 0.0
H77 H 0.57997 0.32245 0.01746 0.0
H78 H 0.54563 0.2439 0.29186 0.0
H79 H 0.48456 0.26151 0.94646 0.0
C80 C 0.56208 0.30033 0.03952 0.0
C81 C 0.52926 0.29831 0.97586 0.0
C82 C 0.56532 0.28458 0.16257 0.0
C83 C 0.544 0.25529 0.19505 0.0
C84 C 0.51798 0.24333 0.1076 0.0
C85 C 0.50831 0.26693 1.00265 0.0
N86 N 0.49959 0.21012 0.13155 0.0
C87 C 0.5098 0.18402 0.22429 0.0
Gd88 Gd 0.06877 1.01974 0.90133 0.0
Gd89 Gd 1.01039 0.0358 0.70029 0.0
C90 C 0.03819 0.95444 0.71714 0.0
C91 C 0.09643 0.98428 0.0915 0.0
C92 C 0.09732 0.94543 0.10626 0.0
C93 C 0.11554 0.92802 0.20699 0.0
C94 C 0.07501 0.92557 0.02557 0.0
C95 C 0.08394 0.87332 0.15103 0.0
C96 C 0.07188 0.88933 0.03763 0.0
C97 C 0.10805 0.89177 0.23176 0.0
C98 C 0.09609 0.04574 0.67585 0.0
C99 C 0.04305 0.10298 0.87228 0.0
C100 C 0.97737 0.05382 0.49137 0.0
C101 C 0.96134 0.08803 0.45673 0.0
C102 C 0.94004 0.10677 0.54807 0.0
C103 C 0.97491 0.10571 0.34618 0.0
C104 C 0.95424 0.16167 0.43589 0.0
C105 C 0.97113 0.14241 0.33522 0.0
C106 C 0.93656 0.14369 0.53762 0.0
C107 C 0.97795 1.02615 0.94146 0.0
O108 O 0.06484 0.9679 0.78504 0.0
O109 O 1.01256 0.97546 0.6737 0.0
O110 O 0.11582 0.99749 0.99562 0.0
O111 O 0.06396 0.99731 0.09384 0.0
O112 O 0.11045 0.05006 0.79063 0.0
O113 O 0.06911 1.02468 0.68774 0.0
O114 O 1.02696 0.09249 0.76297 0.0
O115 O 0.05799 0.07856 0.94925 0.0
O116 O 0.96188 0.03578 0.58578 0.0
O117 O 1.01215 0.05531 0.50236 0.0
O118 O 0.96135 0.0353 0.83645 0.0
O119 O 1.01083 1.02427 0.91069 0.0
H120 H 0.13226 0.94296 0.27329 0.0
H121 H 0.05526 0.93819 0.96787 0.0
H122 H 0.05251 0.87584 0.97684 0.0
H123 H 0.11788 0.87949 0.31953 0.0
H124 H 0.92925 0.09367 0.63435 0.0
H125 H 0.99163 0.09176 0.27557 0.0
H126 H 0.98495 0.15617 0.25614 0.0
H127 H 0.92338 0.15846 0.6154 0.0
Gd128 Gd 0.53487 0.05606 0.90122 0.0
Gd129 Gd 0.5259 0.99435 0.74777 0.0
C130 C 0.6061 1.02241 0.75163 0.0
C131 C 0.55169 0.09292 0.10421 0.0
C132 C 0.58603 0.10685 0.14922 0.0
C133 C 0.607 0.12941 0.06931 0.0
C134 C 0.60087 0.09185 0.26176 0.0
C135 C 0.65875 0.11523 0.19806 0.0
C136 C 0.63713 0.09602 0.28617 0.0
C137 C 0.64338 0.13352 0.09375 0.0
C138 C 0.53014 0.08477 0.65622 0.0
C139 C 0.45306 0.0343 0.86581 0.0
C140 C 0.50097 0.94644 0.59477 0.0
C141 C 0.46628 0.95412 0.53797 0.0
C142 C 0.44015 0.92824 0.51323 0.0
C143 C 0.45649 0.98993 0.54185 0.0
C144 C 0.39565 0.97544 0.49789 0.0
C145 C 0.4213 0.99975 0.53953 0.0
C146 C 0.40532 0.93923 0.48257 0.0
C147 C 0.54215 0.9781 0.99892 0.0
O148 O 0.59393 0.04066 0.85469 0.0
O149 O 0.58253 1.00489 0.68292 0.0
O150 O 0.53818 0.10727 0.99952 0.0
O151 O 0.54969 0.05815 0.10378 0.0
O152 O 0.53273 0.10219 0.7645 0.0
O153 O 0.5285 0.05107 0.67922 0.0
O154 O 0.4674 1.00956 0.79039 0.0
O155 O 0.47435 0.05667 0.92668 0.0
O156 O 0.49929 0.94324 0.72135 0.0
O157 O 0.52653 0.96818 0.55745 0.0
O158 O 0.55859 0.96494 0.89742 0.0
O159 O 0.51991 1.00109 0.95978 0.0
H160 H 0.59616 0.1414 0.98208 0.0
H161 H 0.58515 0.07433 0.32433 0.0
H162 H 0.64889 0.08158 0.36671 0.0
H163 H 0.66003 0.1483 0.0252 0.0
H164 H 0.44658 0.90013 0.5172 0.0
H165 H 0.47562 1.0103 0.56438 0.0
H166 H 0.41471 1.02738 0.55983 0.0
H167 H 0.38595 0.9196 0.45133 0.0
Gd168 Gd 0.49976 0.53114 0.91287 0.0
Gd169 Gd 0.56054 0.52573 0.75693 0.0
C170 C 0.53307 0.60485 0.77335 0.0
C171 C 0.45786 0.55955 0.08348 0.0
C172 C 0.46989 0.59442 0.13247 0.0
C173 C 0.44733 0.62387 0.15792 0.0
C174 C 0.50662 0.60035 0.11928 0.0
C175 C 0.49946 0.66307 0.15349 0.0
C176 C 0.51965 0.63443 0.1096 0.0
C177 C 0.46261 0.65793 0.17885 0.0
C178 C 0.47999 0.51116 0.66805 0.0
C179 C 0.52203 0.45133 0.87103 0.0
C180 C 0.61109 0.50472 0.601 0.0
C181 C 0.61416 0.4692 0.54547 0.0
C182 C 0.64724 0.45367 0.51282 0.0
C183 C 0.58306 0.44866 0.543 0.0
C184 C 0.61658 0.39827 0.46544 0.0
C185 C 0.58486 0.41282 0.51679 0.0
C186 C 0.64819 0.41856 0.46559 0.0
C187 C 0.58114 0.54192 0.00538 0.0
O188 O 0.51142 0.58997 0.86022 0.0
O189 O 0.55527 0.58434 0.70713 0.0
O190 O 0.45046 0.5598 0.9594 0.0
O191 O 0.47883 0.53286 0.11312 0.0
O192 O 0.46598 0.49913 0.77609 0.0
O193 O 0.50403 0.53416 0.6949 0.0
O194 O 0.54196 0.46707 0.77963 0.0
O195 O 0.5037 0.47184 0.95232 0.0
O196 O 0.61398 0.5049 0.72749 0.0
O197 O 0.58362 0.5232 0.56145 0.0
O198 O 0.59207 0.55791 0.90048 0.0
O199 O 0.55649 0.51992 0.97466 0.0
H200 H 0.41856 0.62071 0.16168 0.0
H201 H 0.52493 0.57882 0.0982 0.0
H202 H 0.54685 0.63873 0.07844 0.0
H203 H 0.44593 0.67993 0.21072 0.0
H204 H 0.67176 0.46891 0.51906 0.0
H205 H 0.55701 0.46035 0.5594 0.0
H206 H 0.56006 0.3977 0.51722 0.0
H207 H 0.67285 0.40789 0.42507 0.0
Gd208 Gd 1.02569 0.49812 0.89448 0.0
Gd209 Gd 0.04096 0.56016 0.73204 0.0
C210 C 0.95829 0.54028 0.76401 0.0
C211 C 0.99793 0.45995 0.07571 0.0
C212 C 0.95883 0.45653 0.09014 0.0
C213 C 0.94159 0.42362 0.0705 0.0
C214 C 0.93814 0.48764 0.09772 0.0
C215 C 0.88364 0.45317 0.07425 0.0
C216 C 0.90137 0.48616 0.08506 0.0
C217 C 0.90416 0.42186 0.06524 0.0
C218 C 1.03143 0.47116 0.6455 0.0
C219 C 0.10842 0.51564 0.86406 0.0
C220 C 0.06499 0.60734 0.56824 0.0
C221 C 0.09995 0.61667 0.50918 0.0
C222 C 0.12077 0.64417 0.56333 0.0
C223 C 0.11345 0.59747 0.40161 0.0
C224 C 0.17 0.62863 0.41885 0.0
C225 C 0.14818 0.60364 0.35629 0.0
C226 C 0.15579 0.64998 0.51889 0.0
C227 C 1.02475 0.57912 0.98302 0.0
O228 O 0.96982 0.52065 0.86164 0.0
O229 O 0.98176 0.55605 0.68549 0.0
O230 O 1.01117 0.44574 0.96935 0.0
O231 O 1.01129 0.49161 0.0992 0.0
O232 O 1.02687 0.45266 0.75051 0.0
O233 O 0.03493 0.50383 0.6771 0.0
O234 O 0.09813 0.54101 0.78125 0.0
O235 O 0.08469 0.49511 0.92399 0.0
O236 O 0.06171 0.613 0.69353 0.0
O237 O 0.05034 0.57725 0.53215 0.0
O238 O 1.01147 0.5937 0.87992 0.0
O239 O 0.04458 0.55306 0.94763 0.0
H240 H 0.95703 0.39939 0.05902 0.0
H241 H 0.95031 0.51358 0.11087 0.0
H242 H 0.88664 0.51088 0.09465 0.0
H243 H 0.89119 0.39607 0.05886 0.0
H244 H 0.11068 0.65992 0.64452 0.0
H245 H 0.0977 0.57683 0.35543 0.0
H246 H 0.15903 0.58722 0.27829 0.0
H247 H 0.17253 0.66917 0.56856 0.0
C248 C 0.17114 0.08035 0.44309 0.0
C249 C 0.15863 0.07025 0.31847 0.0
C250 C 0.10421 0.04542 0.42279 0.0
C251 C 0.11583 0.05625 0.54934 0.0
N252 N 0.15441 0.09832 0.66214 0.0
N253 N 0.10718 0.05738 0.1907 0.0
C254 C 0.1477 0.07777 0.55481 0.0
C255 C 0.12324 0.05743 0.30885 0.0
N256 N 0.20505 0.09354 0.45494 0.0
N257 N 0.07638 1.02219 0.40803 0.0
H258 H 0.12116 0.06279 0.10396 0.0
H259 H 0.07941 0.05618 0.1832 0.0
H260 H 0.0642 1.00774 0.48235 0.0
H261 H 0.06731 1.014 0.3177 0.0
H262 H 0.21737 0.09703 0.54483 0.0
H263 H 0.22158 0.099 0.37439 0.0
H264 H 0.17633 0.11539 0.6687 0.0
H265 H 0.13536 0.10326 0.73496 0.0
C266 C 0.54995 0.15765 0.39635 0.0
C267 C 0.51859 0.1554 0.31995 0.0
C268 C 0.50665 0.09691 0.42369 0.0
C269 C 0.53123 0.10442 0.52472 0.0
N270 N 0.58085 0.14089 0.59391 0.0
N271 N 0.46707 0.1206 0.25849 0.0
C272 C 0.55408 0.13471 0.50734 0.0
C273 C 0.49675 0.12441 0.33355 0.0
N274 N 0.57723 0.17951 0.35658 0.0
N275 N 0.49605 0.06269 0.40427 0.0
H276 H 0.45989 0.13929 0.18798 0.0
H277 H 0.44868 0.09993 0.27239 0.0
H278 H 0.51006 0.04205 0.44825 0.0
H279 H 0.47953 0.05484 0.3281 0.0
H280 H 0.60209 0.18032 0.40132 0.0
H281 H 0.57674 0.19271 0.26704 0.0
H282 H 0.5952 0.16474 0.5969 0.0
H283 H 0.5883 0.12226 0.66401 0.0
C284 C 0.41964 0.53601 0.38095 0.0
C285 C 0.40454 0.50246 0.34766 0.0
C286 C 0.44482 0.47378 0.50649 0.0
C287 C 0.45959 0.50763 0.54092 0.0
N288 N 0.46952 0.56855 0.47179 0.0
N289 N 0.40846 0.43847 0.35807 0.0
C290 C 0.44952 0.53807 0.46689 0.0
C291 C 0.41896 0.47105 0.40419 0.0
N292 N 0.40539 0.56637 0.33091 0.0
N293 N 0.45556 0.44402 0.57235 0.0
H294 H 0.38941 0.43552 0.28516 0.0
H295 H 0.4204 0.4145 0.38418 0.0
H296 H 0.4772 0.44416 0.63572 0.0
H297 H 0.44266 0.41944 0.56699 0.0
H298 H 0.40967 0.59141 0.37231 0.0
H299 H 0.38897 0.56617 0.24961 0.0
H300 H 0.46456 0.59092 0.41458 0.0
H301 H 0.49388 0.57016 0.51921 0.0
C302 C 1.01268 0.40553 0.36378 0.0
C303 C 0.04521 0.4072 0.2912 0.0
C304 C 0.06335 0.45951 0.42459 0.0
C305 C 0.03358 0.45381 0.51096 0.0
N306 N 0.97904 0.42136 0.55914 0.0
N307 N 0.10048 0.43752 0.24291 0.0
C308 C 1.00798 0.42691 0.47862 0.0
C309 C 0.07007 0.43501 0.31816 0.0
N310 N 0.98548 0.38444 0.31973 0.0
N311 N 0.08541 0.488 0.44501 0.0
H312 H 0.10508 0.42131 0.16151 0.0
H313 H 0.12175 0.45452 0.26233 0.0
H314 H 0.08165 0.50612 0.52084 0.0
H315 H 0.10638 0.49525 0.38311 0.0
H316 H 0.95971 0.38444 0.35958 0.0
H317 H 0.98762 0.36952 0.23399 0.0
H318 H 0.96278 0.39881 0.55452 0.0
H319 H 0.97189 0.43881 0.63413 0.0
C320 C 0.91293 0.04995 0.22244 0.0
C321 C 0.90917 1.01661 0.28708 0.0
C322 C 0.9588 0.99243 0.14971 0.0
C323 C 0.95985 1.02455 0.07541 0.0
N324 N 0.94168 0.08551 0.05138 0.0
N325 N 0.93457 0.95962 0.33755 0.0
C326 C 0.93791 0.05374 0.11548 0.0
C327 C 0.93404 0.98892 0.25822 0.0
N328 N 0.89414 0.07861 0.26925 0.0
N329 N 0.98012 0.96462 0.11208 0.0
H330 H 0.91708 0.95638 0.41701 0.0
H331 H 0.95378 0.9398 0.33139 0.0
H332 H 0.99937 0.96706 0.03813 0.0
H333 H 0.97797 0.93892 0.14956 0.0
H334 H 0.89561 0.10427 0.23121 0.0
H335 H 0.87917 0.07748 0.35584 0.0
H336 H 0.92458 0.10717 0.06182 0.0
H337 H 0.96301 0.09029 0.9873 0.0
C338 C 0.50113 0.91592 0.2546 0.0
C339 C 0.53132 0.90181 0.31838 0.0
C340 C 0.56979 0.94027 0.1788 0.0
C341 C 0.53888 0.95679 0.12478 0.0
N342 N 0.47563 0.96874 0.16012 0.0
N343 N 0.595 0.90274 0.34952 0.0
C344 C 0.50468 0.94735 0.17745 0.0
C345 C 0.56591 0.91476 0.28318 0.0
N346 N 0.46908 0.89856 0.26248 0.0
N347 N 0.60292 0.94911 0.1307 0.0
H348 H 0.59308 0.88338 0.42259 0.0
H349 H 0.62066 0.91317 0.33745 0.0
H350 H 0.60708 0.97011 0.06532 0.0
H351 H 0.62611 0.93508 0.15244 0.0
H352 H 0.44693 0.90633 0.20845 0.0
H353 H 0.46587 0.87455 0.31302 0.0
H354 H 0.45094 0.96353 0.205 0.0
H355 H 0.4773 0.99414 0.11976 0.0
C356 C 0.65689 0.50645 0.23002 0.0
C357 C 0.66075 0.5353 0.31945 0.0
C358 C 0.61456 0.56793 0.20009 0.0
C359 C 0.60697 0.53794 0.11944 0.0
N360 N 0.62147 0.47701 0.06279 0.0
N361 N 0.63626 0.58964 0.40741 0.0
C362 C 0.62807 0.5065 0.13713 0.0
C363 C 0.63712 0.56455 0.31068 0.0
N364 N 0.68152 0.47956 0.23076 0.0
N365 N 0.60306 0.60082 0.16441 0.0
H366 H 0.65255 0.58846 0.48936 0.0
H367 H 0.61685 0.60951 0.41193 0.0
H368 H 0.59098 0.60493 0.07524 0.0
H369 H 0.61082 0.62413 0.21172 0.0
H370 H 0.6831 0.45969 0.15996 0.0
H371 H 0.70203 0.4784 0.2988 0.0
H372 H 0.63337 0.45232 0.07824 0.0
H373 H 0.60259 0.47654 0.98908 0.0
C374 C 1.00403 0.63236 0.29925 0.0
C375 C 0.03547 0.65345 0.31198 0.0
C376 C 0.06249 0.62109 0.1238 0.0
C377 C 1.0299 0.60191 0.10423 0.0
N378 N 0.96772 0.59389 0.16246 0.0
N379 N 0.093 0.67121 0.22625 0.0
C380 C 1.00019 0.60886 0.1893 0.0
C381 C 0.06422 0.64865 0.22137 0.0
N382 N 0.97789 0.63438 0.39363 0.0
N383 N 0.09199 0.6132 0.04897 0.0
H384 H 0.09562 0.69089 0.29766 0.0
H385 H 0.11316 0.67216 0.1552 0.0
H386 H 0.09163 0.59539 0.97106 0.0
H387 H 0.11759 0.62249 0.06928 0.0
H388 H 0.95615 0.617 0.39901 0.0
H389 H 0.97935 0.65182 0.47292 0.0
H390 H 0.94402 0.60097 0.21026 0.0
H391 H 0.96394 0.57609 0.08549 0.0
C392 C 0.95863 0.25724 0.34452 0.0
C393 C 0.99551 0.26219 0.36509 0.0
C394 C 0.9984 0.2083 0.49413 0.0
C395 C 0.96357 0.19954 0.44917 0.0
N396 N 0.90754 0.21828 0.35761 0.0
N397 N 0.04561 0.25305 0.50316 0.0
C398 C 0.94232 0.22536 0.38668 0.0
C399 C 1.01328 0.24169 0.45877 0.0
N400 N 0.93969 0.28102 0.27299 0.0
N401 N 1.0184 0.18331 0.55717 0.0
H402 H 0.05664 0.27729 0.47197 0.0
H403 H 0.05956 0.24041 0.57737 0.0
H404 H 1.00834 0.15825 0.58245 0.0
H405 H 0.04525 0.18673 0.57987 0.0
H406 H 0.95078 0.30479 0.23754 0.0
H407 H 0.95078 0.30479 0.23754 0.0
H408 H 0.89162 0.23642 0.30732 0.0
H409 H 0.89485 0.19469 0.38685 0.0
C410 C 0.32537 0.0403 0.39123 0.0
C411 C 0.2962 1.01728 0.37484 0.0
C412 C 0.32772 0.97215 0.49779 0.0
C413 C 0.36027 0.98981 0.46262 0.0
N414 N 0.38617 0.03865 0.33097 0.0
N415 N 0.26577 0.96342 0.43488 0.0
C416 C 0.35849 1.02383 0.40028 0.0
C417 C 0.29576 0.98405 0.43858 0.0
N418 N 0.32287 0.07537 0.3577 0.0
N419 N 0.32711 0.94517 0.58704 0.0
H420 H 0.24221 0.97284 0.39333 0.0
H421 H 0.26496 0.9372 0.46876 0.0
H422 H 0.34984 0.93732 0.63736 0.0
H423 H 0.30339 0.9335 0.62072 0.0
H424 H 0.3452 0.09222 0.35652 0.0
H425 H 0.29816 0.08705 0.33775 0.0
H426 H 0.41025 1.02566 0.31001 0.0
H427 H 0.41025 1.02566 0.31001 0.0
C428 C 0.6102 0.30349 0.33488 0.0
C429 C 0.57816 0.30892 0.26499 0.0
C430 C 0.58412 0.37207 0.28674 0.0
C431 C 0.61172 0.36767 0.37767 0.0
N432 N 0.64893 0.32792 0.50226 0.0
N433 N 0.52694 0.34731 0.23717 0.0
C434 C 0.6245 0.33288 0.40635 0.0
C435 C 0.56229 0.34296 0.26403 0.0
N436 N 0.62671 0.27114 0.33208 0.0
N437 N 0.57696 0.40447 0.23218 0.0
H438 H 0.50981 0.32545 0.22798 0.0
H439 H 0.51459 0.37227 0.23918 0.0
H440 H 0.5931 0.42673 0.24895 0.0
H441 H 0.55717 0.40777 0.16212 0.0
H442 H 0.65163 0.26672 0.37363 0.0
H443 H 0.61597 0.2494 0.2822 0.0
H444 H 0.65656 0.30269 0.53427 0.0
H445 H 0.65985 0.34922 0.55402 0.0
C446 C 0.257 0.62816 0.23591 0.0
C447 C 0.27135 0.59667 0.29044 0.0
C448 C 0.22748 0.59905 0.46828 0.0
C449 C 0.20897 0.62574 0.39815 0.0
N450 N 0.20934 0.67131 0.23223 0.0
N451 N 0.28156 0.56416 0.4898 0.0
C452 C 0.22533 0.64278 0.28973 0.0
C453 C 0.26066 0.58649 0.41836 0.0
N454 N 0.27134 0.64237 0.12485 0.0
N455 N 0.21183 0.58364 0.57584 0.0
H456 H 0.30657 0.55558 0.45761 0.0
H457 H 0.27627 0.5577 0.58707 0.0
H458 H 0.18799 0.59278 0.61782 0.0
H459 H 0.22153 0.56079 0.62026 0.0
H460 H 0.29441 0.63217 0.07992 0.0
H461 H 0.29441 0.63217 0.07992 0.0
H462 H 0.22025 0.68384 0.14969 0.0
H463 H 0.18583 0.68256 0.26987 0.0
C464 C 1.03013 0.78866 0.1713 0.0
C465 C 1.00046 0.80132 0.245 0.0
C466 C 1.02478 0.86029 0.24537 0.0
C467 C 0.0585 0.84668 0.20226 0.0
N468 N 0.09258 0.7981 0.10978 0.0
N469 N 0.96052 0.85075 0.24861 0.0
C470 C 0.06103 0.81077 0.15949 0.0
C471 C 0.99445 0.83802 0.2375 0.0
N472 N 1.02759 0.75665 0.10938 0.0
N473 N 1.02206 0.89346 0.29932 0.0
H474 H 0.93874 0.83327 0.25459 0.0
H475 H 0.95464 0.87789 0.24272 0.0
H476 H 0.04383 0.91055 0.31006 0.0
H477 H 0.99893 0.9018 0.34791 0.0
H478 H 0.04742 0.74648 0.04749 0.0
H479 H 1.00368 0.74216 0.11198 0.0
H480 H 0.09665 0.77143 0.08542 0.0
H481 H 0.11541 0.81411 0.102 0.0
C482 C 0.74672 0.06743 0.16838 0.0
C483 C 0.76407 0.08415 0.27262 0.0
C484 C 0.71948 0.13142 0.27812 0.0
C485 C 0.69758 0.10932 0.20003 0.0
N486 N 0.68971 0.05628 0.06816 0.0
N487 N 0.77601 0.13698 0.39385 0.0
C488 C 0.7114 0.07787 0.1403 0.0
C489 C 0.75382 0.11864 0.31296 0.0
N490 N 0.7632 0.03992 0.10469 0.0
N491 N 0.70621 0.1628 0.32614 0.0
H492 H 0.80086 0.12651 0.41947 0.0
H493 H 0.77087 0.16237 0.43038 0.0
H494 H 0.68097 0.17234 0.30115 0.0
H495 H 0.71987 0.17947 0.38966 0.0
H496 H 0.75285 1.02763 0.02202 0.0
H497 H 0.78909 0.032 0.1282 0.0
H498 H 0.69713 1.03094 0.0362 0.0
H499 H 0.66338 0.06283 0.04609 0.0
C500 C 0.5793 0.71628 0.25082 0.0
C501 C 0.56637 0.75107 0.24915 0.0
C502 C 0.5146 0.72924 0.12773 0.0
C503 C 0.52051 0.69537 0.18665 0.0
N504 N 0.55682 0.66088 0.3362 0.0
N505 N 0.53807 0.78979 0.09638 0.0
C506 C 0.55292 0.68963 0.25561 0.0
C507 C 0.53882 0.75766 0.15831 0.0
N508 N 0.61379 0.70997 0.2842 0.0
N509 N 0.48699 0.73388 0.04348 0.0
H510 H 0.55855 0.8084 0.1095 0.0
H511 H 0.51952 0.79676 0.026 0.0
H512 H 0.47054 0.7129 0.01459 0.0
H513 H 0.48024 0.75834 1.00278 0.0
H514 H 0.62401 0.68418 0.29203 0.0
H515 H 0.63184 0.73105 0.2953 0.0
H516 H 0.57896 0.65799 0.39613 0.0
H517 H 0.53608 0.64283 0.35525 0.0
C518 C 0.84253 0.4817 0.31925 0.0
C519 C 0.82284 0.51044 0.26338 0.0
C520 C 0.8228 0.4769 0.05773 0.0
C521 C 0.84559 0.45185 0.11651 0.0
N522 N 0.85194 0.41823 0.31301 0.0
N523 N 0.79256 0.53441 0.07544 0.0
C524 C 0.84365 0.44928 0.25199 0.0
C525 C 0.81147 0.5074 0.13129 0.0
N526 N 0.86621 0.48657 0.41764 0.0
N527 N 0.81253 0.4708 0.93311 0.0
H528 H 0.78618 0.55777 0.12612 0.0
H529 H 0.78493 0.53463 0.97803 0.0
H530 H 0.82156 0.4481 0.88332 0.0
H531 H 0.79374 0.4862 0.88475 0.0
H532 H 0.88185 0.4658 0.4535 0.0
H533 H 0.87606 0.51138 0.44328 0.0
H534 H 0.85181 0.4161 0.41481 0.0
H535 H 0.85571 0.39469 0.26011 0.0
C536 C 0.0781 0.19782 0.98033 0.0
C537 C 0.04883 0.22016 0.9538 0.0
C538 C 1.01604 0.16735 0.86924 0.0
C539 C 0.04452 0.14361 0.90632 0.0
N540 N 0.09787 0.13938 0.04029 0.0
N541 N 0.99463 0.22852 0.83838 0.0
C542 C 0.07455 0.15973 0.97163 0.0
C543 C 1.01938 0.20543 0.88686 0.0
N544 N 0.10948 0.21326 0.01743 0.0
N545 N 0.98397 0.15361 0.83058 0.0
H546 H 0.99717 0.25609 0.85022 0.0
H547 H 0.97417 0.22107 0.77587 0.0
H548 H 0.97859 0.12653 0.82338 0.0
H549 H 0.96107 0.16889 0.81806 0.0
H550 H 0.13351 0.19936 0.02409 0.0
H551 H 0.11222 0.24088 0.02603 0.0
H552 H 0.11872 0.14967 0.09532 0.0
H553 H 0.09274 0.11333 0.06505 0.0
C554 C 0.35638 0.07029 0.92504 0.0
C555 C 0.33587 0.03828 0.9376 0.0
C556 C 0.3917 1.00384 0.90001 0.0
C557 C 0.41227 0.03575 0.88397 0.0
N558 N 0.41017 0.09877 0.83751 0.0
N559 N 0.33309 0.97556 0.8919 0.0
C560 C 0.39335 0.06881 0.88295 0.0
C561 C 0.35338 1.00556 0.90705 0.0
N562 N 0.34144 0.10216 0.95942 0.0
N563 N 0.40847 0.97194 0.91945 0.0
H564 H 0.30515 0.9764 0.89547 0.0
H565 H 0.34368 0.95098 0.8642 0.0
H566 H 0.43611 0.96931 0.92579 0.0
H567 H 0.39484 0.94867 0.94524 0.0
H568 H 0.35625 0.12562 0.96738 0.0
H569 H 0.3147 0.10477 0.98732 0.0
H570 H 0.39685 0.12279 0.82237 0.0
H571 H 0.43635 0.09851 0.80094 0.0
C572 C 0.48883 0.35456 0.95146 0.0
C573 C 0.51804 0.33299 0.90625 0.0
C574 C 0.54889 0.38833 0.83649 0.0
C575 C 0.51959 0.41028 0.87726 0.0
N576 N 0.45611 0.41013 0.92752 0.0
N577 N 0.56736 0.33042 0.75393 0.0
C578 C 0.48781 0.39216 0.92063 0.0
C579 C 0.54451 0.35046 0.82827 0.0
N580 N 0.46253 0.34002 0.02825 0.0
N581 N 0.58218 0.40262 0.81779 0.0
H582 H 0.56484 0.30268 0.74867 0.0
H583 H 0.58593 0.34174 0.68914 0.0
H584 H 0.58836 0.42912 0.83765 0.0
H585 H 0.60467 0.38697 0.79827 0.0
H586 H 0.44356 0.35545 0.07787 0.0
H587 H 0.46071 0.31291 0.04823 0.0
H588 H 0.43176 0.39755 0.94763 0.0
H589 H 0.45336 0.43642 0.89651 0.0
C590 C 0.18933 0.50804 0.08945 0.0
C591 C 0.21891 0.50891 1.00136 0.0
C592 C 0.17599 0.50686 0.81808 0.0
C593 C 0.14696 0.513 0.9076 0.0
N594 N 0.12821 0.52589 0.12954 0.0
N595 N 0.24099 0.50475 0.78084 0.0
C596 C 0.15421 0.51484 0.04363 0.0
C597 C 0.21238 0.50676 0.86481 0.0
N598 N 0.19517 0.50148 0.21878 0.0
N599 N 0.16864 0.50089 0.68947 0.0
H600 H 0.26727 0.50414 0.81382 0.0
H601 H 0.23911 0.5035 0.67972 0.0
H602 H 0.14258 0.50059 0.65415 0.0
H603 H 0.18777 0.49438 0.6188 0.0
H604 H 0.17461 0.49762 0.2871 0.0
H605 H 0.22066 0.49612 0.25444 0.0
H606 H 0.13328 0.53132 0.22718 0.0
H607 H 0.1027 0.53371 0.10153 0.0
C608 C 0.06329 0.85725 0.616 0.0
C609 C 1.0331 0.83767 0.66332 0.0
C610 C 1.00809 0.8937 0.7558 0.0
C611 C 0.03658 0.91403 0.69784 0.0
N612 N 0.09335 0.91475 0.58392 0.0
N613 N 0.98278 0.83509 0.80889 0.0
C614 C 0.06515 0.89547 0.63337 0.0
C615 C 1.00746 0.85544 0.74323 0.0
N616 N 0.08978 0.83901 0.55165 0.0
N617 N 0.98135 0.91104 0.82233 0.0
H618 H 0.98272 0.80728 0.80179 0.0
H619 H 0.96476 0.84488 0.87831 0.0
H620 H 0.9815 0.93844 0.83906 0.0
H621 H 0.95811 0.89881 0.85694 0.0
H622 H 0.11346 0.85015 0.51674 0.0
H623 H 0.08894 0.81144 0.5387 0.0
H624 H 0.11607 0.90384 0.5405 0.0
H625 H 0.0942 0.94255 0.58549 0.0
C626 C 0.70843 0.0461 0.73283 0.0
C627 C 0.7231 1.01798 0.65692 0.0
C628 C 0.6624 0.99185 0.63971 0.0
C629 C 0.64658 1.02095 0.71405 0.0
N630 N 0.65642 0.08137 0.79072 0.0
N631 N 0.71613 0.95872 0.57708 0.0
C632 C 0.67031 0.04929 0.75201 0.0
C633 C 0.70064 0.9892 0.62387 0.0
N634 N 0.73156 0.0703 0.78513 0.0
N635 N 0.6418 0.96829 0.57122 0.0
H636 H 0.74375 0.95637 0.56396 0.0
H637 H 0.70238 0.93469 0.56674 0.0
H638 H 0.61425 0.96808 0.56567 0.0
H639 H 0.6525 0.95057 0.50287 0.0
H640 H 0.72398 0.09006 0.85133 0.0
H641 H 0.75924 0.06798 0.77199 0.0
H642 H 0.67188 0.10386 0.80962 0.0
H643 H 0.62934 0.08744 0.78715 0.0
C644 C 0.55822 0.70599 0.77059 0.0
C645 C 0.53091 0.72064 0.69187 0.0
C646 C 0.50153 0.66111 0.69099 0.0
C647 C 0.53173 0.64518 0.75123 0.0
N648 N 0.58981 0.65331 0.84651 0.0
N649 N 0.47396 0.71116 0.58753 0.0
C650 C 0.56018 0.66802 0.79188 0.0
C651 C 0.5018 0.69813 0.65725 0.0
N652 N 0.58237 0.7288 0.82472 0.0
N653 N 0.47253 0.64071 0.66019 0.0
H654 H 0.47168 0.73785 0.55965 0.0
H655 H 0.47168 0.73785 0.55965 0.0
H656 H 0.47056 0.61372 0.68353 0.0
H657 H 0.45016 0.65115 0.61367 0.0
H658 H 0.6012 0.72115 0.8933 0.0
H659 H 0.58089 0.75634 0.80999 0.0
H660 H 0.6129 0.66759 0.86794 0.0
H661 H 0.59222 0.62602 0.86252 0.0
C662 C 0.85887 0.51868 0.69666 0.0
C663 C 0.8443 0.55306 0.67256 0.0
C664 C 0.90227 0.57958 0.73801 0.0
C665 C 0.91812 0.54488 0.74458 0.0
N666 N 0.90881 0.48079 0.74505 0.0
N667 N 0.84877 0.61601 0.70124 0.0
C668 C 0.8954 0.51448 0.73178 0.0
C669 C 0.8651 0.58346 0.70392 0.0
N670 N 0.83921 0.48867 0.6757 0.0
N671 N 0.92287 0.60877 0.76441 0.0
H672 H 0.82161 0.61853 0.68012 0.0
H673 H 0.86082 0.63996 0.72692 0.0
H674 H 0.9489 0.60672 0.7985 0.0
H675 H 0.91459 0.63504 0.75376 0.0
H676 H 0.81255 0.48866 0.64659 0.0
H677 H 0.81255 0.48866 0.64659 0.0
H678 H 0.89302 0.45794 0.7358 0.0
H679 H 0.93548 0.47537 0.7646 0.0
loop_
_geom_bond_atom_site_label_1
_geom_bond_atom_site_label_2
_geom_bond_distance
_geom_bond_site_symmetry_2
_ccdc_geom_bond_type
H0 C3 0.929 . S
H1 C6 0.929 . S
H2 C8 0.930 . S
C3 H0 0.929 . S
C3 C4 1.398 . S
C3 C5 1.396 . S
C4 C3 1.398 . S
C4 C8 1.407 . S
C5 C3 1.396 . S
C5 C6 1.394 . S
C6 H1 0.929 . S
C6 C5 1.394 . S
C6 C7 1.382 . S
C7 C6 1.382 . S
C7 C8 1.392 . S
C7 N9 1.420 . S
C8 H2 0.930 . S
C8 C4 1.407 . S
C8 C7 1.392 . S
N9 C7 1.420 . S
N9 C10 1.244 . S
C10 N9 1.244 . S
H11 C14 0.929 . S
H12 C17 0.929 . S
H13 C19 0.930 . S
C14 H11 0.929 . S
C14 C15 1.395 1_655 S
C14 C16 1.394 1_655 S
C15 C14 1.395 1_455 S
C15 C19 1.414 . S
C16 C14 1.394 1_455 S
C16 C17 1.397 . S
C17 H12 0.929 . S
C17 C16 1.397 . S
C17 C18 1.382 . S
C18 C17 1.382 . S
C18 C19 1.392 . S
C18 N20 1.420 . S
C19 H13 0.930 . S
C19 C15 1.414 . S
C19 C18 1.392 . S
N20 C18 1.420 . S
N20 C21 1.232 1_455 S
C21 N20 1.232 1_655 S
H22 C25 0.929 . S
H23 C28 0.929 . S
H24 C30 0.930 . S
C25 H22 0.929 . S
C25 C26 1.395 1_565 S
C25 C27 1.394 1_565 S
C26 C25 1.395 1_545 S
C26 C30 1.414 . S
C27 C25 1.394 1_545 S
C27 C28 1.397 . S
C28 H23 0.929 . S
C28 C27 1.397 . S
C28 C29 1.382 . S
C29 C28 1.382 . S
C29 C30 1.392 . S
C29 N31 1.420 . S
C30 H24 0.930 . S
C30 C26 1.414 . S
C30 C29 1.392 . S
N31 C29 1.420 . S
N31 C32 1.232 1_545 S
C32 N31 1.232 1_565 S
H33 C36 0.929 . S
H34 C39 0.929 . S
H35 C41 0.930 . S
C36 H33 0.929 . S
C36 C37 1.398 . S
C36 C38 1.396 . S
C37 C36 1.398 . S
C37 C41 1.407 . S
C38 C36 1.396 . S
C38 C39 1.394 . S
C39 H34 0.929 . S
C39 C38 1.394 . S
C39 C40 1.382 . S
C40 C39 1.382 . S
C40 C41 1.392 . S
C40 N42 1.420 . S
C41 H35 0.930 . S
C41 C37 1.407 . S
C41 C40 1.392 . S
N42 C40 1.420 . S
N42 C43 1.244 . S
C43 N42 1.244 . S
H44 C47 0.929 1_556 S
H45 C50 0.929 . S
H46 C52 0.930 . S
C47 H44 0.929 1_554 S
C47 C48 1.398 1_554 S
C47 C49 1.396 . S
C48 C47 1.398 1_556 S
C48 C52 1.407 . S
C49 C47 1.396 . S
C49 C50 1.394 . S
C50 H45 0.929 . S
C50 C49 1.394 . S
C50 C51 1.382 . S
C51 C50 1.382 . S
C51 C52 1.392 1_554 S
C51 N53 1.420 . S
C52 H46 0.930 . S
C52 C48 1.407 . S
C52 C51 1.392 1_556 S
N53 C51 1.420 . S
N53 C54 1.244 . S
C54 N53 1.244 . S
H55 C58 0.929 1_556 S
H56 C61 0.929 . S
H57 C63 0.930 . S
C58 H55 0.929 1_554 S
C58 C59 1.398 1_654 S
C58 C60 1.394 1_655 S
C59 C58 1.398 1_456 S
C59 C63 1.407 . S
C60 C58 1.394 1_455 S
C60 C61 1.398 . S
C61 H56 0.929 . S
C61 C60 1.398 . S
C61 C62 1.382 . S
C62 C61 1.382 . S
C62 C63 1.392 1_554 S
C62 N64 1.420 . S
C63 H57 0.930 . S
C63 C59 1.407 . S
C63 C62 1.392 1_556 S
N64 C62 1.420 . S
N64 C65 1.235 1_455 S
C65 N64 1.235 1_655 S
H66 C69 0.929 1_556 S
H67 C72 0.929 . S
H68 C74 0.930 . S
C69 H66 0.929 1_554 S
C69 C70 1.398 1_564 S
C69 C71 1.394 1_565 S
C70 C69 1.398 1_546 S
C70 C74 1.407 . S
C71 C69 1.394 1_545 S
C71 C72 1.398 . S
C72 H67 0.929 . S
C72 C71 1.398 . S
C72 C73 1.382 . S
C73 C72 1.382 . S
C73 C74 1.392 1_554 S
C73 N75 1.420 . S
C74 H68 0.930 . S
C74 C70 1.407 . S
C74 C73 1.392 1_556 S
N75 C73 1.420 . S
N75 C76 1.235 1_545 S
C76 N75 1.235 1_565 S
H77 C80 0.929 1_556 S
H78 C83 0.929 . S
H79 C85 0.930 . S
C80 H77 0.929 1_554 S
C80 C81 1.398 1_554 S
C80 C82 1.396 . S
C81 C80 1.398 1_556 S
C81 C85 1.407 . S
C82 C80 1.396 . S
C82 C83 1.394 . S
C83 H78 0.929 . S
C83 C82 1.394 . S
C83 C84 1.382 . S
C84 C83 1.382 . S
C84 C85 1.392 1_554 S
C84 N86 1.420 . S
C85 H79 0.930 . S
C85 C81 1.407 . S
C85 C84 1.392 1_556 S
N86 C84 1.420 . S
N86 C87 1.244 . S
C87 N86 1.244 . S
Gd88 C91 2.818 1_556 S
Gd88 O108 2.377 . S
Gd88 O110 2.448 1_556 S
Gd88 O111 2.506 1_556 S
Gd88 O112 2.435 . S
Gd88 O113 2.717 1_565 S
Gd88 O115 2.395 1_565 S
Gd88 O119 2.327 1_455 S
Gd89 C100 2.818 . S
Gd89 O109 2.395 1_545 S
Gd89 O113 2.327 1_655 S
Gd89 O114 2.377 . S
Gd89 O116 2.448 . S
Gd89 O117 2.506 . S
Gd89 O118 2.435 . S
Gd89 O119 2.717 1_545 S
C90 O108 1.240 1_655 S
C90 O109 1.240 . S
C91 Gd88 2.818 1_554 S
C91 C92 1.510 . S
C91 O110 1.249 . S
C91 O111 1.252 . S
C92 C91 1.510 . S
C92 C93 1.404 . S
C92 C94 1.352 . S
C93 C92 1.404 . S
C93 C97 1.389 . S
C93 H120 0.930 . S
C94 C92 1.352 . S
C94 C96 1.374 . S
C94 H121 0.931 1_455 S
C95 C96 1.359 . S
C95 C97 1.364 . S
C96 C94 1.374 . S
C96 C95 1.359 . S
C96 H122 0.931 1_455 S
C97 C93 1.389 . S
C97 C95 1.364 . S
C97 H123 0.931 . S
C98 O112 1.256 . S
C98 O113 1.257 1_565 S
C99 O114 1.240 1_455 S
C99 O115 1.240 . S
C100 Gd89 2.818 . S
C100 C101 1.510 . S
C100 O116 1.249 . S
C100 O117 1.252 . S
C101 C100 1.510 . S
C101 C102 1.404 . S
C101 C103 1.352 . S
C102 C101 1.404 . S
C102 C106 1.389 . S
C102 H124 0.930 . S
C103 C101 1.352 . S
C103 C105 1.374 . S
C103 H125 0.931 1_655 S
C104 C105 1.359 . S
C104 C106 1.364 . S
C105 C103 1.374 . S
C105 C104 1.359 . S
C105 H126 0.931 1_655 S
C106 C102 1.389 . S
C106 C104 1.364 . S
C106 H127 0.931 . S
C107 O118 1.256 . S
C107 O119 1.257 1_545 S
O108 Gd88 2.377 . S
O108 C90 1.240 1_455 S
O109 Gd89 2.395 1_565 S
O109 C90 1.240 . S
O110 Gd88 2.448 1_554 S
O110 C91 1.249 . S
O111 Gd88 2.506 1_554 S
O111 C91 1.252 . S
O112 Gd88 2.435 . S
O112 C98 1.256 . S
O113 Gd88 2.717 1_545 S
O113 Gd89 2.327 1_455 S
O113 C98 1.257 1_545 S
O114 Gd89 2.377 . S
O114 C99 1.240 1_655 S
O115 Gd88 2.395 1_545 S
O115 C99 1.240 . S
O116 Gd89 2.448 . S
O116 C100 1.249 . S
O117 Gd89 2.506 . S
O117 C100 1.252 . S
O118 Gd89 2.435 . S
O118 C107 1.256 . S
O119 Gd88 2.327 1_655 S
O119 Gd89 2.717 1_565 S
O119 C107 1.257 1_565 S
H120 C93 0.930 . S
H121 C94 0.931 1_655 S
H122 C96 0.931 1_655 S
H123 C97 0.931 . S
H124 C102 0.930 . S
H125 C103 0.931 1_455 S
H126 C105 0.931 1_455 S
H127 C106 0.931 . S
Gd128 C131 2.818 1_556 S
Gd128 O148 2.377 . S
Gd128 O150 2.448 1_556 S
Gd128 O151 2.506 1_556 S
Gd128 O152 2.435 . S
Gd128 O153 2.717 . S
Gd128 O155 2.395 . S
Gd128 O159 2.327 1_545 S
Gd129 C140 2.818 . S
Gd129 O149 2.395 . S
Gd129 O153 2.327 1_565 S
Gd129 O154 2.377 . S
Gd129 O156 2.448 . S
Gd129 O157 2.506 . S
Gd129 O158 2.435 . S
Gd129 O159 2.717 . S
C130 O148 1.240 1_565 S
C130 O149 1.240 . S
C131 Gd128 2.818 1_554 S
C131 C132 1.510 . S
C131 O150 1.249 . S
C131 O151 1.252 . S
C132 C131 1.510 . S
C132 C133 1.404 . S
C132 C134 1.352 . S
C133 C132 1.404 . S
C133 C137 1.389 . S
C133 H160 0.930 . S
C134 C132 1.352 . S
C134 C136 1.374 . S
C134 H161 0.931 1_545 S
C135 C136 1.359 . S
C135 C137 1.364 . S
C136 C134 1.374 . S
C136 C135 1.359 . S
C136 H162 0.931 1_545 S
C137 C133 1.389 . S
C137 C135 1.364 . S
C137 H163 0.931 . S
C138 O152 1.256 . S
C138 O153 1.257 . S
C139 O154 1.240 1_545 S
C139 O155 1.240 . S
C140 Gd129 2.818 . S
C140 C141 1.510 . S
C140 O156 1.249 . S
C140 O157 1.252 . S
C141 C140 1.510 . S
C141 C142 1.404 . S
C141 C143 1.352 . S
C142 C141 1.404 . S
C142 C146 1.389 . S
C142 H164 0.930 . S
C143 C141 1.352 . S
C143 C145 1.374 . S
C143 H165 0.931 1_565 S
C144 C145 1.359 . S
C144 C146 1.364 . S
C145 C143 1.374 . S
C145 C144 1.359 . S
C145 H166 0.931 1_565 S
C146 C142 1.389 . S
C146 C144 1.364 . S
C146 H167 0.931 . S
C147 O158 1.256 . S
C147 O159 1.257 . S
O148 Gd128 2.377 . S
O148 C130 1.240 1_545 S
O149 Gd129 2.395 . S
O149 C130 1.240 . S
O150 Gd128 2.448 1_554 S
O150 C131 1.249 . S
O151 Gd128 2.506 1_554 S
O151 C131 1.252 . S
O152 Gd128 2.435 . S
O152 C138 1.256 . S
O153 Gd128 2.717 . S
O153 Gd129 2.327 1_545 S
O153 C138 1.257 . S
O154 Gd129 2.377 . S
O154 C139 1.240 1_565 S
O155 Gd128 2.395 . S
O155 C139 1.240 . S
O156 Gd129 2.448 . S
O156 C140 1.249 . S
O157 Gd129 2.506 . S
O157 C140 1.252 . S
O158 Gd129 2.435 . S
O158 C147 1.256 . S
O159 Gd128 2.327 1_565 S
O159 Gd129 2.717 . S
O159 C147 1.257 . S
H160 C133 0.930 . S
H161 C134 0.931 1_565 S
H162 C136 0.931 1_565 S
H163 C137 0.931 . S
H164 C142 0.930 . S
H165 C143 0.931 1_545 S
H166 C145 0.931 1_545 S
H167 C146 0.931 . S
Gd168 C171 2.818 1_556 S
Gd168 O188 2.377 . S
Gd168 O190 2.448 1_556 S
Gd168 O191 2.506 1_556 S
Gd168 O192 2.435 . S
Gd168 O193 2.717 . S
Gd168 O195 2.395 . S
Gd168 O199 2.327 . S
Gd169 C180 2.818 . S
Gd169 O189 2.395 . S
Gd169 O193 2.327 . S
Gd169 O194 2.377 . S
Gd169 O196 2.448 . S
Gd169 O197 2.506 . S
Gd169 O198 2.435 . S
Gd169 O199 2.717 . S
C170 O188 1.240 . S
C170 O189 1.240 . S
C171 Gd168 2.818 1_554 S
C171 C172 1.510 . S
C171 O190 1.249 . S
C171 O191 1.252 . S
C172 C171 1.510 . S
C172 C173 1.404 . S
C172 C174 1.352 . S
C173 C172 1.404 . S
C173 C177 1.389 . S
C173 H200 0.930 . S
C174 C172 1.352 . S
C174 C176 1.374 . S
C174 H201 0.931 . S
C175 C176 1.359 . S
C175 C177 1.364 . S
C176 C174 1.374 . S
C176 C175 1.359 . S
C176 H202 0.931 . S
C177 C173 1.389 . S
C177 C175 1.364 . S
C177 H203 0.931 . S
C178 O192 1.256 . S
C178 O193 1.257 . S
C179 O194 1.240 . S
C179 O195 1.240 . S
C180 Gd169 2.818 . S
C180 C181 1.510 . S
C180 O196 1.249 . S
C180 O197 1.252 . S
C181 C180 1.510 . S
C181 C182 1.404 . S
C181 C183 1.352 . S
C182 C181 1.404 . S
C182 C186 1.389 . S
C182 H204 0.930 . S
C183 C181 1.352 . S
C183 C185 1.374 . S
C183 H205 0.931 . S
C184 C185 1.359 . S
C184 C186 1.364 . S
C185 C183 1.374 . S
C185 C184 1.359 . S
C185 H206 0.931 . S
C186 C182 1.389 . S
C186 C184 1.364 . S
C186 H207 0.931 . S
C187 O198 1.256 . S
C187 O199 1.257 . S
O188 Gd168 2.377 . S
O188 C170 1.240 . S
O189 Gd169 2.395 . S
O189 C170 1.240 . S
O190 Gd168 2.448 1_554 S
O190 C171 1.249 . S
O191 Gd168 2.506 1_554 S
O191 C171 1.252 . S
O192 Gd168 2.435 . S
O192 C178 1.256 . S
O193 Gd168 2.717 . S
O193 Gd169 2.327 . S
O193 C178 1.257 . S
O194 Gd169 2.377 . S
O194 C179 1.240 . S
O195 Gd168 2.395 . S
O195 C179 1.240 . S
O196 Gd169 2.448 . S
O196 C180 1.249 . S
O197 Gd169 2.506 . S
O197 C180 1.252 . S
O198 Gd169 2.435 . S
O198 C187 1.256 . S
O199 Gd168 2.327 . S
O199 Gd169 2.717 . S
O199 C187 1.257 . S
H200 C173 0.930 . S
H201 C174 0.931 . S
H202 C176 0.931 . S
H203 C177 0.931 . S
H204 C182 0.930 . S
H205 C183 0.931 . S
H206 C185 0.931 . S
H207 C186 0.931 . S
Gd208 C211 2.818 1_556 S
Gd208 O228 2.377 . S
Gd208 O230 2.448 1_556 S
Gd208 O231 2.506 1_556 S
Gd208 O232 2.435 . S
Gd208 O233 2.717 1_655 S
Gd208 O235 2.395 1_655 S
Gd208 O239 2.327 . S
Gd209 C220 2.818 . S
Gd209 O229 2.395 1_455 S
Gd209 O233 2.327 . S
Gd209 O234 2.377 . S
Gd209 O236 2.448 . S
Gd209 O237 2.506 . S
Gd209 O238 2.435 . S
Gd209 O239 2.717 1_455 S
C210 O228 1.240 . S
C210 O229 1.240 . S
C211 Gd208 2.818 1_554 S
C211 C212 1.510 . S
C211 O230 1.249 . S
C211 O231 1.252 . S
C212 C211 1.510 . S
C212 C213 1.404 . S
C212 C214 1.352 . S
C213 C212 1.404 . S
C213 C217 1.389 . S
C213 H240 0.930 . S
C214 C212 1.352 . S
C214 C216 1.374 . S
C214 H241 0.931 . S
C215 C216 1.359 . S
C215 C217 1.364 . S
C216 C214 1.374 . S
C216 C215 1.359 . S
C216 H242 0.931 . S
C217 C213 1.389 . S
C217 C215 1.364 . S
C217 H243 0.931 . S
C218 O232 1.271 . S
C218 O233 1.250 1_655 S
C219 O234 1.240 . S
C219 O235 1.240 . S
C220 Gd209 2.818 . S
C220 C221 1.510 . S
C220 O236 1.249 . S
C220 O237 1.252 . S
C221 C220 1.510 . S
C221 C222 1.404 . S
C221 C223 1.352 . S
C222 C221 1.404 . S
C222 C226 1.389 . S
C222 H244 0.930 . S
C223 C221 1.352 . S
C223 C225 1.374 . S
C223 H245 0.931 . S
C224 C225 1.359 . S
C224 C226 1.364 . S
C225 C223 1.374 . S
C225 C224 1.359 . S
C225 H246 0.931 . S
C226 C222 1.389 . S
C226 C224 1.364 . S
C226 H247 0.931 . S
C227 O238 1.256 . S
C227 O239 1.257 1_455 S
O228 Gd208 2.377 . S
O228 C210 1.240 . S
O229 Gd209 2.395 1_655 S
O229 C210 1.240 . S
O230 Gd208 2.448 1_554 S
O230 C211 1.249 . S
O231 Gd208 2.506 1_554 S
O231 C211 1.252 . S
O232 Gd208 2.435 . S
O232 C218 1.271 . S
O233 Gd208 2.717 1_455 S
O233 Gd209 2.327 . S
O233 C218 1.250 1_455 S
O234 Gd209 2.377 . S
O234 C219 1.240 . S
O235 Gd208 2.395 1_455 S
O235 C219 1.240 . S
O236 Gd209 2.448 . S
O236 C220 1.249 . S
O237 Gd209 2.506 . S
O237 C220 1.252 . S
O238 Gd209 2.435 . S
O238 C227 1.256 . S
O239 Gd208 2.327 . S
O239 Gd209 2.717 1_655 S
O239 C227 1.257 1_655 S
H240 C213 0.930 . S
H241 C214 0.931 . S
H242 C216 0.931 . S
H243 C217 0.931 . S
H244 C222 0.930 . S
H245 C223 0.931 . S
H246 C225 0.931 . S
H247 C226 0.931 . S
C248 C249 1.368 . S
C248 C254 1.379 . S
C248 N256 1.356 . S
C249 C248 1.368 . S
C249 C255 1.359 1_545 S
C250 C251 1.363 1_565 S
C250 C255 1.379 . S
C250 N257 1.356 . S
C251 C250 1.363 1_545 S
C251 C254 1.363 . S
N252 C254 1.356 . S
N252 H264 0.984 . S
N252 H265 0.985 . S
N253 C255 1.356 . S
N253 H258 0.984 . S
N253 H259 0.985 . S
C254 C248 1.379 . S
C254 C251 1.363 . S
C254 N252 1.356 . S
C255 C249 1.359 1_565 S
C255 C250 1.379 . S
C255 N253 1.356 . S
N256 C248 1.356 . S
N256 H262 0.984 . S
N256 H263 0.984 . S
N257 C250 1.356 . S
N257 H260 0.984 . S
N257 H261 0.985 . S
H258 N253 0.984 . S
H259 N253 0.985 . S
H260 N257 0.984 . S
H261 N257 0.985 . S
H262 N256 0.984 . S
H263 N256 0.984 . S
H264 N252 0.984 . S
H265 N252 0.985 . S
C266 C267 1.363 . S
C266 C272 1.379 . S
C266 N274 1.356 . S
C267 C266 1.363 . S
C267 C273 1.363 . S
C268 C269 1.363 . S
C268 C273 1.379 . S
C268 N275 1.356 . S
C269 C268 1.363 . S
C269 C272 1.363 . S
N270 C272 1.356 . S
N270 H282 0.984 . S
N270 H283 0.985 . S
N271 C273 1.356 . S
N271 H276 0.984 . S
N271 H277 0.985 . S
C272 C266 1.379 . S
C272 C269 1.363 . S
C272 N270 1.356 . S
C273 C267 1.363 . S
C273 C268 1.379 . S
C273 N271 1.356 . S
N274 C266 1.356 . S
N274 H280 0.984 . S
N274 H281 0.984 . S
N275 C268 1.356 . S
N275 H278 0.984 . S
N275 H279 0.985 . S
H276 N271 0.984 . S
H277 N271 0.985 . S
H278 N275 0.984 . S
H279 N275 0.985 . S
H280 N274 0.984 . S
H281 N274 0.984 . S
H282 N270 0.984 . S
H283 N270 0.985 . S
C284 C285 1.363 . S
C284 C290 1.379 . S
C284 N292 1.356 . S
C285 C284 1.363 . S
C285 C291 1.363 . S
C286 C287 1.363 . S
C286 C291 1.379 . S
C286 N293 1.356 . S
C287 C286 1.363 . S
C287 C290 1.363 . S
N288 C290 1.356 . S
N288 H300 0.984 . S
N288 H301 0.985 . S
N289 C291 1.356 . S
N289 H294 0.984 . S
N289 H295 0.985 . S
C290 C284 1.379 . S
C290 C287 1.363 . S
C290 N288 1.356 . S
C291 C285 1.363 . S
C291 C286 1.379 . S
C291 N289 1.356 . S
N292 C284 1.356 . S
N292 H298 0.984 . S
N292 H299 0.984 . S
N293 C286 1.356 . S
N293 H296 0.984 . S
N293 H297 0.985 . S
H294 N289 0.984 . S
H295 N289 0.985 . S
H296 N293 0.984 . S
H297 N293 0.985 . S
H298 N292 0.984 . S
H299 N292 0.984 . S
H300 N288 0.984 . S
H301 N288 0.985 . S
C302 C303 1.356 1_655 S
C302 C308 1.379 . S
C302 N310 1.356 . S
C303 C302 1.356 1_455 S
C303 C309 1.372 . S
C304 C305 1.363 . S
C304 C309 1.379 . S
C304 N311 1.356 . S
C305 C304 1.363 . S
C305 C308 1.363 1_455 S
N306 C308 1.356 . S
N306 H318 0.984 . S
N306 H319 0.985 . S
N307 C309 1.356 . S
N307 H312 0.984 . S
N307 H313 0.985 . S
C308 C302 1.379 . S
C308 C305 1.363 1_655 S
C308 N306 1.356 . S
C309 C303 1.372 . S
C309 C304 1.379 . S
C309 N307 1.356 . S
N310 C302 1.356 . S
N310 H316 0.984 . S
N310 H317 0.984 . S
N311 C304 1.356 . S
N311 H314 0.984 . S
N311 H315 0.985 . S
H312 N307 0.984 . S
H313 N307 0.985 . S
H314 N311 0.984 . S
H315 N311 0.985 . S
H316 N310 0.984 . S
H317 N310 0.984 . S
H318 N306 0.984 . S
H319 N306 0.985 . S
C320 C321 1.354 1_545 S
C320 C326 1.379 . S
C320 N328 1.356 . S
C321 C320 1.354 1_565 S
C321 C327 1.373 . S
C322 C323 1.363 . S
C322 C327 1.379 . S
C322 N329 1.356 . S
C323 C322 1.363 . S
C323 C326 1.363 1_565 S
N324 C326 1.356 . S
N324 H336 0.984 . S
N324 H337 0.985 1_554 S
N325 C327 1.356 . S
N325 H330 0.984 . S
N325 H331 0.985 . S
C326 C320 1.379 . S
C326 C323 1.363 1_545 S
C326 N324 1.356 . S
C327 C321 1.373 . S
C327 C322 1.379 . S
C327 N325 1.356 . S
N328 C320 1.356 . S
N328 H334 0.984 . S
N328 H335 0.984 . S
N329 C322 1.356 . S
N329 H332 0.984 . S
N329 H333 0.985 . S
H330 N325 0.984 . S
H331 N325 0.985 . S
H332 N329 0.984 . S
H333 N329 0.985 . S
H334 N328 0.984 . S
H335 N328 0.984 . S
H336 N324 0.984 . S
H337 N324 0.985 1_556 S
C338 C339 1.363 . S
C338 C344 1.379 . S
C338 N346 1.356 . S
C339 C338 1.363 . S
C339 C345 1.363 . S
C340 C341 1.363 . S
C340 C345 1.379 . S
C340 N347 1.356 . S
C341 C340 1.363 . S
C341 C344 1.363 . S
N342 C344 1.356 . S
N342 H354 0.984 . S
N342 H355 0.985 . S
N343 C345 1.356 . S
N343 H348 0.984 . S
N343 H349 0.985 . S
C344 C338 1.379 . S
C344 C341 1.363 . S
C344 N342 1.356 . S
C345 C339 1.363 . S
C345 C340 1.379 . S
C345 N343 1.356 . S
N346 C338 1.356 . S
N346 H352 0.984 . S
N346 H353 0.984 . S
N347 C340 1.356 . S
N347 H350 0.984 1_554 S
N347 H351 0.985 . S
H348 N343 0.984 . S
H349 N343 0.985 . S
H350 N347 0.984 1_556 S
H351 N347 0.985 . S
H352 N346 0.984 . S
H353 N346 0.984 . S
H354 N342 0.984 . S
H355 N342 0.985 . S
C356 C357 1.363 . S
C356 C362 1.379 . S
C356 N364 1.356 . S
C357 C356 1.363 . S
C357 C363 1.363 . S
C358 C359 1.363 . S
C358 C363 1.379 . S
C358 N365 1.356 . S
C359 C358 1.363 . S
C359 C362 1.363 . S
N360 C362 1.356 . S
N360 H372 0.984 . S
N360 H373 0.985 1_554 S
N361 C363 1.356 . S
N361 H366 0.984 . S
N361 H367 0.985 . S
C362 C356 1.379 . S
C362 C359 1.363 . S
C362 N360 1.356 . S
C363 C357 1.363 . S
C363 C358 1.379 . S
C363 N361 1.356 . S
N364 C356 1.356 . S
N364 H370 0.984 . S
N364 H371 0.984 . S
N365 C358 1.356 . S
N365 H368 0.984 . S
N365 H369 0.985 . S
H366 N361 0.984 . S
H367 N361 0.985 . S
H368 N365 0.984 . S
H369 N365 0.985 . S
H370 N364 0.984 . S
H371 N364 0.984 . S
H372 N360 0.984 . S
H373 N360 0.985 1_556 S
C374 C375 1.387 . S
C374 C380 1.379 . S
C374 N382 1.356 . S
C375 C374 1.387 . S
C375 C381 1.340 1_655 S
C376 C377 1.363 1_455 S
C376 C381 1.379 . S
C376 N383 1.356 . S
C377 C376 1.363 1_655 S
C377 C380 1.363 . S
N378 C380 1.356 . S
N378 H390 0.984 . S
N378 H391 0.985 1_554 S
N379 C381 1.356 . S
N379 H384 0.984 . S
N379 H385 0.985 . S
C380 C374 1.379 . S
C380 C377 1.363 . S
C380 N378 1.356 . S
C381 C375 1.340 1_455 S
C381 C376 1.379 . S
C381 N379 1.356 . S
N382 C374 1.356 . S
N382 H388 0.984 . S
N382 H389 0.984 . S
N383 C376 1.356 . S
N383 H386 0.984 . S
N383 H387 0.985 . S
H384 N379 0.984 . S
H385 N379 0.985 . S
H386 N383 0.984 . S
H387 N383 0.985 . S
H388 N382 0.984 . S
H389 N382 0.984 . S
H390 N378 0.984 . S
H391 N378 0.985 1_556 S
C392 C393 1.363 . S
C392 C398 1.379 . S
C392 N400 1.356 . S
C393 C392 1.363 . S
C393 C399 1.363 1_655 S
C394 C395 1.363 . S
C394 C399 1.379 1_655 S
C394 N401 1.356 . S
C395 C394 1.363 . S
C395 C398 1.363 . S
N396 C398 1.356 . S
N396 H408 0.984 . S
N396 H409 0.985 . S
N397 C399 1.356 . S
N397 H402 0.984 . S
N397 H403 0.985 . S
C398 C392 1.379 . S
C398 C395 1.363 . S
C398 N396 1.356 . S
C399 C393 1.363 1_455 S
C399 C394 1.379 1_455 S
C399 N397 1.356 . S
N400 C392 1.356 . S
N400 H406 0.984 . S
N400 H407 0.984 . S
N401 C394 1.356 . S
N401 H404 0.984 . S
N401 H405 0.985 1_655 S
H402 N397 0.984 . S
H403 N397 0.985 . S
H404 N401 0.984 . S
H405 N401 0.985 1_455 S
H406 N400 0.984 . S
H407 N400 0.984 . S
H408 N396 0.984 . S
H409 N396 0.985 . S
C410 C411 1.363 . S
C410 C416 1.379 . S
C410 N418 1.356 1_565 S
C411 C410 1.363 . S
C411 C417 1.363 . S
C412 C413 1.363 . S
C412 C417 1.379 . S
C412 N419 1.356 . S
C413 C412 1.363 . S
C413 C416 1.363 . S
N414 C416 1.356 . S
N414 H426 0.984 . S
N414 H427 0.985 . S
N415 C417 1.349 1_545 S
N415 H420 0.995 . S
N415 H421 0.982 1_545 S
C416 C410 1.379 . S
C416 C413 1.363 . S
C416 N414 1.356 . S
C417 C411 1.363 . S
C417 C412 1.379 . S
C417 N415 1.349 1_565 S
N418 C410 1.356 1_545 S
N418 H424 0.984 1_554 S
N418 H425 0.984 1_554 S
N419 C412 1.356 . S
N419 H422 0.984 . S
N419 H423 0.985 . S
H420 N415 0.995 . S
H421 N415 0.982 1_565 S
H422 N419 0.984 . S
H423 N419 0.985 . S
H424 N418 0.984 1_556 S
H425 N418 0.984 1_556 S
H426 N414 0.984 . S
H427 N414 0.985 . S
C428 C429 1.363 . S
C428 C434 1.379 . S
C428 N436 1.356 . S
C429 C428 1.363 . S
C429 C435 1.363 . S
C430 C431 1.363 . S
C430 C435 1.379 . S
C430 N437 1.356 . S
C431 C430 1.363 . S
C431 C434 1.363 . S
N432 C434 1.356 . S
N432 H444 0.984 . S
N432 H445 0.985 . S
N433 C435 1.356 . S
N433 H438 0.984 . S
N433 H439 0.985 1_554 S
C434 C428 1.379 . S
C434 C431 1.363 . S
C434 N432 1.356 . S
C435 C429 1.363 . S
C435 C430 1.379 . S
C435 N433 1.356 . S
N436 C428 1.356 . S
N436 H442 0.984 . S
N436 H443 0.984 . S
N437 C430 1.356 . S
N437 H440 0.984 . S
N437 H441 0.985 . S
H438 N433 0.984 . S
H439 N433 0.985 1_556 S
H440 N437 0.984 . S
H441 N437 0.985 . S
H442 N436 0.984 . S
H443 N436 0.984 . S
H444 N432 0.984 . S
H445 N432 0.985 . S
C446 C447 1.363 . S
C446 C452 1.379 . S
C446 N454 1.356 . S
C447 C446 1.363 . S
C447 C453 1.363 . S
C448 C449 1.363 . S
C448 C453 1.379 . S
C448 N455 1.356 . S
C449 C448 1.363 . S
C449 C452 1.363 . S
N450 C452 1.356 . S
N450 H462 0.984 . S
N450 H463 0.985 . S
N451 C453 1.356 . S
N451 H456 0.984 . S
N451 H457 0.985 . S
C452 C446 1.379 . S
C452 C449 1.363 . S
C452 N450 1.356 . S
C453 C447 1.363 . S
C453 C448 1.379 . S
C453 N451 1.356 . S
N454 C446 1.356 . S
N454 H460 0.984 1_554 S
N454 H461 0.984 . S
N455 C448 1.356 . S
N455 H458 0.984 . S
N455 H459 0.985 . S
H456 N451 0.984 . S
H457 N451 0.985 . S
H458 N455 0.984 . S
H459 N455 0.985 . S
H460 N454 0.984 1_556 S
H461 N454 0.984 . S
H462 N450 0.984 . S
H463 N450 0.985 . S
C464 C465 1.363 . S
C464 C470 1.379 . S
C464 N472 1.356 . S
C465 C464 1.363 . S
C465 C471 1.363 . S
C466 C467 1.363 . S
C466 C471 1.379 . S
C466 N473 1.356 . S
C467 C466 1.363 . S
C467 C470 1.363 . S
N468 C470 1.356 . S
N468 H480 0.984 . S
N468 H481 0.985 . S
N469 C471 1.356 1_655 S
N469 H474 0.984 . S
N469 H475 0.985 . S
C470 C464 1.379 . S
C470 C467 1.363 . S
C470 N468 1.356 . S
C471 C465 1.363 . S
C471 C466 1.379 . S
C471 N469 1.356 1_455 S
N472 C464 1.356 . S
N472 H478 0.984 . S
N472 H479 0.984 1_455 S
N473 C466 1.356 . S
N473 H476 0.984 . S
N473 H477 0.985 . S
H474 N469 0.984 . S
H475 N469 0.985 . S
H476 N473 0.984 . S
H477 N473 0.985 . S
H478 N472 0.984 . S
H479 N472 0.984 1_655 S
H480 N468 0.984 . S
H481 N468 0.985 . S
C482 C483 1.364 . S
C482 C488 1.394 . S
C482 N490 1.338 1_545 S
C483 C482 1.364 . S
C483 C489 1.363 . S
C484 C485 1.363 . S
C484 C489 1.379 . S
C484 N491 1.356 . S
C485 C484 1.363 . S
C485 C488 1.363 . S
N486 C488 1.356 . S
N486 H498 0.984 . S
N486 H499 0.985 . S
N487 C489 1.356 . S
N487 H492 0.984 . S
N487 H493 0.985 . S
C488 C482 1.394 . S
C488 C485 1.363 . S
C488 N486 1.356 . S
C489 C483 1.363 . S
C489 C484 1.379 . S
C489 N487 1.356 . S
N490 C482 1.338 1_565 S
N490 H496 0.984 . S
N490 H497 0.984 . S
N491 C484 1.356 . S
N491 H494 0.984 . S
N491 H495 0.985 . S
H492 N487 0.984 . S
H493 N487 0.985 . S
H494 N491 0.984 . S
H495 N491 0.985 . S
H496 N490 0.984 . S
H497 N490 0.984 . S
H498 N486 0.984 . S
H499 N486 0.985 . S
C500 C501 1.363 . S
C500 C506 1.379 . S
C500 N508 1.356 . S
C501 C500 1.363 . S
C501 C507 1.363 . S
C502 C503 1.363 . S
C502 C507 1.379 . S
C502 N509 1.356 . S
C503 C502 1.363 . S
C503 C506 1.363 . S
N504 C506 1.356 . S
N504 H516 0.984 . S
N504 H517 0.985 . S
N505 C507 1.356 . S
N505 H510 0.984 . S
N505 H511 0.985 . S
C506 C500 1.379 . S
C506 C503 1.363 . S
C506 N504 1.356 . S
C507 C501 1.363 . S
C507 C502 1.379 . S
C507 N505 1.356 . S
N508 C500 1.356 . S
N508 H514 0.984 . S
N508 H515 0.984 . S
N509 C502 1.356 . S
N509 H512 0.984 . S
N509 H513 0.985 . S
H510 N505 0.984 . S
H511 N505 0.985 . S
H512 N509 0.984 . S
H513 N509 0.985 . S
H514 N508 0.984 . S
H515 N508 0.984 . S
H516 N504 0.984 . S
H517 N504 0.985 . S
C518 C519 1.363 . S
C518 C524 1.379 . S
C518 N526 1.356 . S
C519 C518 1.363 . S
C519 C525 1.363 . S
C520 C521 1.363 . S
C520 C525 1.379 . S
C520 N527 1.356 . S
C521 C520 1.363 . S
C521 C524 1.363 . S
N522 C524 1.356 . S
N522 H534 0.984 . S
N522 H535 0.985 . S
N523 C525 1.356 . S
N523 H528 0.984 . S
N523 H529 0.985 . S
C524 C518 1.379 . S
C524 C521 1.363 . S
C524 N522 1.356 . S
C525 C519 1.363 . S
C525 C520 1.379 . S
C525 N523 1.356 . S
N526 C518 1.356 . S
N526 H532 0.984 . S
N526 H533 0.984 . S
N527 C520 1.356 . S
N527 H530 0.984 . S
N527 H531 0.985 . S
H528 N523 0.984 . S
H529 N523 0.985 . S
H530 N527 0.984 . S
H531 N527 0.985 . S
H532 N526 0.984 . S
H533 N526 0.984 . S
H534 N522 0.984 . S
H535 N522 0.985 . S
C536 C537 1.363 . S
C536 C542 1.379 . S
C536 N544 1.356 . S
C537 C536 1.363 . S
C537 C543 1.363 1_455 S
C538 C539 1.363 1_655 S
C538 C543 1.379 . S
C538 N545 1.356 . S
C539 C538 1.363 1_455 S
C539 C542 1.363 . S
N540 C542 1.356 1_554 S
N540 H552 0.984 . S
N540 H553 0.985 1_554 S
N541 C543 1.356 . S
N541 H546 0.984 . S
N541 H547 0.985 . S
C542 C536 1.379 . S
C542 C539 1.363 . S
C542 N540 1.356 1_556 S
C543 C537 1.363 1_655 S
C543 C538 1.379 . S
C543 N541 1.356 . S
N544 C536 1.356 . S
N544 H550 0.984 1_556 S
N544 H551 0.984 . S
N545 C538 1.356 . S
N545 H548 0.984 . S
N545 H549 0.985 . S
H546 N541 0.984 . S
H547 N541 0.985 . S
H548 N545 0.984 . S
H549 N545 0.985 . S
H550 N544 0.984 1_554 S
H551 N544 0.984 . S
H552 N540 0.984 . S
H553 N540 0.985 1_556 S
C554 C555 1.363 . S
C554 C560 1.379 . S
C554 N562 1.356 . S
C555 C554 1.363 . S
C555 C561 1.363 1_545 S
C556 C557 1.363 1_565 S
C556 C561 1.379 . S
C556 N563 1.356 . S
C557 C556 1.363 1_545 S
C557 C560 1.363 . S
N558 C560 1.356 . S
N558 H570 0.984 . S
N558 H571 0.985 . S
N559 C561 1.356 . S
N559 H564 0.984 . S
N559 H565 0.985 1_556 S
C560 C554 1.379 . S
C560 C557 1.363 . S
C560 N558 1.356 . S
C561 C555 1.363 1_565 S
C561 C556 1.379 . S
C561 N559 1.356 . S
N562 C554 1.356 . S
N562 H568 0.984 . S
N562 H569 0.984 . S
N563 C556 1.356 . S
N563 H566 0.984 . S
N563 H567 0.985 1_556 S
H564 N559 0.984 . S
H565 N559 0.985 1_554 S
H566 N563 0.984 . S
H567 N563 0.985 1_554 S
H568 N562 0.984 . S
H569 N562 0.984 . S
H570 N558 0.984 . S
H571 N558 0.985 . S
C572 C573 1.363 . S
C572 C578 1.379 . S
C572 N580 1.356 . S
C573 C572 1.363 . S
C573 C579 1.363 . S
C574 C575 1.363 . S
C574 C579 1.379 . S
C574 N581 1.356 . S
C575 C574 1.363 . S
C575 C578 1.363 . S
N576 C578 1.356 1_554 S
N576 H588 0.984 . S
N576 H589 0.986 . S
N577 C579 1.356 . S
N577 H582 0.984 . S
N577 H583 0.985 . S
C578 C572 1.379 . S
C578 C575 1.363 . S
C578 N576 1.356 1_556 S
C579 C573 1.363 . S
C579 C574 1.379 . S
C579 N577 1.356 . S
N580 C572 1.356 . S
N580 H586 0.984 1_556 S
N580 H587 0.984 . S
N581 C574 1.356 . S
N581 H584 0.984 . S
N581 H585 0.985 . S
H582 N577 0.984 . S
H583 N577 0.985 . S
H584 N581 0.984 . S
H585 N581 0.985 . S
H586 N580 0.984 1_554 S
H587 N580 0.984 . S
H588 N576 0.984 . S
H589 N576 0.986 . S
C590 C591 1.363 . S
C590 C596 1.379 . S
C590 N598 1.356 1_556 S
C591 C590 1.363 . S
C591 C597 1.363 . S
C592 C593 1.363 . S
C592 C597 1.379 . S
C592 N599 1.356 . S
C593 C592 1.363 . S
C593 C596 1.363 . S
N594 C596 1.356 1_554 S
N594 H606 0.984 . S
N594 H607 0.985 . S
N595 C597 1.356 . S
N595 H600 0.984 . S
N595 H601 0.985 . S
C596 C590 1.379 . S
C596 C593 1.363 . S
C596 N594 1.356 1_556 S
C597 C591 1.363 . S
C597 C592 1.379 . S
C597 N595 1.356 . S
N598 C590 1.356 1_554 S
N598 H604 0.984 . S
N598 H605 0.986 . S
N599 C592 1.356 . S
N599 H602 0.984 . S
N599 H603 0.985 . S
H600 N595 0.984 . S
H601 N595 0.985 . S
H602 N599 0.984 . S
H603 N599 0.985 . S
H604 N598 0.984 . S
H605 N598 0.986 . S
H606 N594 0.984 . S
H607 N594 0.985 . S
C608 C609 1.363 1_455 S
C608 C614 1.379 . S
C608 N616 1.356 . S
C609 C608 1.363 1_655 S
C609 C615 1.363 . S
C610 C611 1.363 . S
C610 C615 1.379 . S
C610 N617 1.356 . S
C611 C610 1.363 . S
C611 C614 1.363 1_655 S
N612 C614 1.356 . S
N612 H624 0.984 . S
N612 H625 0.985 . S
N613 C615 1.356 . S
N613 H618 0.984 . S
N613 H619 0.985 . S
C614 C608 1.379 . S
C614 C611 1.363 1_455 S
C614 N612 1.356 . S
C615 C609 1.363 . S
C615 C610 1.379 . S
C615 N613 1.356 . S
N616 C608 1.356 . S
N616 H622 0.984 . S
N616 H623 0.984 . S
N617 C610 1.356 . S
N617 H620 0.984 . S
N617 H621 0.985 . S
H618 N613 0.984 . S
H619 N613 0.985 . S
H620 N617 0.984 . S
H621 N617 0.985 . S
H622 N616 0.984 . S
H623 N616 0.984 . S
H624 N612 0.984 . S
H625 N612 0.985 . S
C626 C627 1.363 1_545 S
C626 C632 1.379 . S
C626 N634 1.356 . S
C627 C626 1.363 1_565 S
C627 C633 1.363 . S
C628 C629 1.363 . S
C628 C633 1.379 . S
C628 N635 1.356 . S
C629 C628 1.363 . S
C629 C632 1.363 1_565 S
N630 C632 1.356 . S
N630 H642 0.984 1_556 S
N630 H643 0.985 . S
N631 C633 1.356 . S
N631 H636 0.984 . S
N631 H637 0.985 . S
C632 C626 1.379 . S
C632 C629 1.363 1_545 S
C632 N630 1.356 . S
C633 C627 1.363 . S
C633 C628 1.379 . S
C633 N631 1.356 . S
N634 C626 1.356 . S
N634 H640 0.984 1_556 S
N634 H641 0.984 . S
N635 C628 1.356 . S
N635 H638 0.984 . S
N635 H639 0.985 . S
H636 N631 0.984 . S
H637 N631 0.985 . S
H638 N635 0.984 . S
H639 N635 0.985 . S
H640 N634 0.984 1_554 S
H641 N634 0.984 . S
H642 N630 0.984 1_554 S
H643 N630 0.985 . S
C644 C645 1.363 . S
C644 C650 1.379 . S
C644 N652 1.356 . S
C645 C644 1.363 . S
C645 C651 1.363 . S
C646 C647 1.363 . S
C646 C651 1.379 . S
C646 N653 1.356 . S
C647 C646 1.363 . S
C647 C650 1.363 . S
N648 C650 1.356 . S
N648 H660 0.984 . S
N648 H661 0.985 . S
N649 C651 1.356 . S
N649 H654 0.984 . S
N649 H655 0.985 . S
C650 C644 1.379 . S
C650 C647 1.363 . S
C650 N648 1.356 . S
C651 C645 1.363 . S
C651 C646 1.379 . S
C651 N649 1.356 . S
N652 C644 1.356 . S
N652 H658 0.984 1_556 S
N652 H659 0.984 . S
N653 C646 1.356 . S
N653 H656 0.984 . S
N653 H657 0.985 . S
H654 N649 0.984 . S
H655 N649 0.985 . S
H656 N653 0.984 . S
H657 N653 0.985 . S
H658 N652 0.984 1_554 S
H659 N652 0.984 . S
H660 N648 0.984 . S
H661 N648 0.985 . S
C662 C663 1.363 . S
C662 C668 1.379 . S
C662 N670 1.356 . S
C663 C662 1.363 . S
C663 C669 1.363 . S
C664 C665 1.363 . S
C664 C669 1.379 . S
C664 N671 1.356 . S
C665 C664 1.363 . S
C665 C668 1.363 . S
N666 C668 1.356 . S
N666 H678 0.984 . S
N666 H679 0.985 . S
N667 C669 1.356 . S
N667 H672 0.984 . S
N667 H673 0.985 . S
C668 C662 1.379 . S
C668 C665 1.363 . S
C668 N666 1.356 . S
C669 C663 1.363 . S
C669 C664 1.379 . S
C669 N667 1.356 . S
N670 C662 1.356 . S
N670 H676 0.984 . S
N670 H677 0.984 . S
N671 C664 1.356 . S
N671 H674 0.984 . S
N671 H675 0.985 . S
H672 N667 0.984 . S
H673 N667 0.985 . S
H674 N671 0.984 . S
H675 N671 0.985 . S
H676 N670 0.984 . S
H677 N670 0.984 . S
H678 N666 0.984 . S
H679 N666 0.985 . S
C249 C76 1.955 1_545 S
C251 C98 2.203 1_545 S
C269 C138 2.212 . S
C267 C87 1.963 . S
C287 C178 2.217 . S
C285 C54 1.972 . S
C305 C218 2.208 1_455 S
C303 C65 1.962 1_455 S
C323 C107 2.204 1_564 S
C321 C32 1.958 . S
C339 C43 1.963 . S
C341 C147 2.214 1_554 S
C357 C10 1.970 . S
C359 C187 2.217 1_554 S
C375 C21 1.962 . S
C377 C227 2.210 1_654 S
C395 C104 0.824 . S
C393 C60 0.833 1_655 S
C413 C144 0.824 . S
C411 C71 0.834 1_565 S
C431 C184 0.820 . S
C429 C82 0.832 . S
C447 C49 0.832 . S
C449 C224 0.816 . S
C465 C16 0.834 . S
C467 C95 0.826 . S
C485 C135 0.824 . S
C483 C27 0.834 . S
C503 C175 0.820 . S
C501 C38 0.827 . S
C519 C5 0.828 . S
C521 C215 0.823 . S
C537 C59 2.215 . S
C539 C99 2.555 . S
C555 C70 2.196 . S
C557 C139 2.539 . S
C575 C179 2.532 . S
C573 C81 2.188 . S
C593 C219 2.552 . S
C591 C48 2.204 . S
C609 C15 2.220 1_655 S
C611 C90 2.562 . S
C629 C130 2.539 . S
C627 C26 2.200 1_565 S
C647 C170 2.532 . S
C645 C37 2.199 . S
C663 C4 2.218 . S
C665 C210 2.556 . S
