# Generated by pormake.
# Topology zzz, (3,6)-cn, num edge types: 1
# Building blocks:
#     Node 0, Type 0, BuildingBlock: BETDIP_clean_linker_0, # of connection points: 3
#     Node 1, Type 0, BuildingBlock: BETDIP_clean_linker_0, # of connection points: 3
#     Node 2, Type 0, BuildingBlock: BETDIP_clean_linker_0, # of connection points: 3
#     Node 3, Type 0, BuildingBlock: BETDIP_clean_linker_0, # of connection points: 3
#     Node 4, Type 0, BuildingBlock: BETDIP_clean_linker_0, # of connection points: 3
#     Node 5, Type 0, BuildingBlock: BETDIP_clean_linker_0, # of connection points: 3
#     Node 6, Type 0, BuildingBlock: BETDIP_clean_linker_0, # of connection points: 3
#     Node 7, Type 0, BuildingBlock: BETDIP_clean_linker_0, # of connection points: 3
#     Node 8, Type 1, BuildingBlock: BETDIP_clean_sbu_0, # of connection points: 6
#     Node 9, Type 1, BuildingBlock: BETDIP_clean_sbu_0, # of connection points: 6
#     Node 10, Type 1, BuildingBlock: BETDIP_clean_sbu_0, # of connection points: 6
#     Node 11, Type 1, BuildingBlock: BETDIP_clean_sbu_0, # of connection points: 6
#     Edge 12, Type (0, 1), BuildingBlock: AJUNOK_clean_linker_0, # of connection points: 2
#     Edge 13, Type (0, 1), BuildingBlock: AJUNOK_clean_linker_0, # of connection points: 2
#     Edge 14, Type (0, 1), BuildingBlock: AJUNOK_clean_linker_0, # of connection points: 2
#     Edge 15, Type (0, 1), BuildingBlock: AJUNOK_clean_linker_0, # of connection points: 2
#     Edge 16, Type (0, 1), BuildingBlock: AJUNOK_clean_linker_0, # of connection points: 2
#     Edge 17, Type (0, 1), BuildingBlock: AJUNOK_clean_linker_0, # of connection points: 2
#     Edge 18, Type (0, 1), BuildingBlock: AJUNOK_clean_linker_0, # of connection points: 2
#     Edge 19, Type (0, 1), BuildingBlock: AJUNOK_clean_linker_0, # of connection points: 2
#     Edge 20, Type (0, 1), BuildingBlock: AJUNOK_clean_linker_0, # of connection points: 2
#     Edge 21, Type (0, 1), BuildingBlock: AJUNOK_clean_linker_0, # of connection points: 2
#     Edge 22, Type (0, 1), BuildingBlock: AJUNOK_clean_linker_0, # of connection points: 2
#     Edge 23, Type (0, 1), BuildingBlock: AJUNOK_clean_linker_0, # of connection points: 2
#     Edge 24, Type (0, 1), BuildingBlock: AJUNOK_clean_linker_0, # of connection points: 2
#     Edge 25, Type (0, 1), BuildingBlock: AJUNOK_clean_linker_0, # of connection points: 2
#     Edge 26, Type (0, 1), BuildingBlock: AJUNOK_clean_linker_0, # of connection points: 2
#     Edge 27, Type (0, 1), BuildingBlock: AJUNOK_clean_linker_0, # of connection points: 2
#     Edge 28, Type (0, 1), BuildingBlock: AJUNOK_clean_linker_0, # of connection points: 2
#     Edge 29, Type (0, 1), BuildingBlock: AJUNOK_clean_linker_0, # of connection points: 2
#     Edge 30, Type (0, 1), BuildingBlock: AJUNOK_clean_linker_0, # of connection points: 2
#     Edge 31, Type (0, 1), BuildingBlock: AJUNOK_clean_linker_0, # of connection points: 2
#     Edge 32, Type (0, 1), BuildingBlock: AJUNOK_clean_linker_0, # of connection points: 2
#     Edge 33, Type (0, 1), BuildingBlock: AJUNOK_clean_linker_0, # of connection points: 2
#     Edge 34, Type (0, 1), BuildingBlock: AJUNOK_clean_linker_0, # of connection points: 2
#     Edge 35, Type (0, 1), BuildingBlock: AJUNOK_clean_linker_0, # of connection points: 2
# Relax obj value: 0.360
# Max RMSD: 0.189
# Mean RMSD: 0.147
data_MOF--net-zzz--node1-BETDIP_clean_sbu_0--node2-BETDIP_clean_linker_0--edge1-AJUNOK_clean_linker_0
_symmetry_space_group_name_H-M    P1
_symmetry_Int_Tables_number       1
_symmetry_cell_setting            triclinic
loop_
_symmetry_equiv_pos_as_xyz
'x, y, z'
_cell_length_a     38.711969
_cell_length_b     38.579213
_cell_length_c     10.317829
_cell_angle_alpha  89.24615
_cell_angle_beta   89.783814
_cell_angle_gamma 90.047633
loop_
_atom_site_label
_atom_site_type_symbol
_atom_site_fract_x
_atom_site_fract_y
_atom_site_fract_z
_atom_type_partial_charge
H0 H 0.77555 0.54322 0.42084 0.0
H1 H 0.73382 0.44982 0.25642 0.0
H2 H 0.83189 0.4477 0.45079 0.0
H3 H 0.73 0.4969 0.07705 0.0
C4 C 0.71114 0.5091 0.14012 0.0
C5 C 0.77728 0.51565 0.40399 0.0
C6 C 0.80634 0.49653 0.45263 0.0
C7 C 0.75104 0.49877 0.32933 0.0
C8 C 0.75404 0.46298 0.30869 0.0
C9 C 0.78336 0.4444 0.34799 0.0
C10 C 0.80859 0.46134 0.42251 0.0
N11 N 0.72242 0.51709 0.26991 0.0
H12 H 0.98623 0.77941 0.45307 0.0
H13 H 0.08189 0.73762 0.30003 0.0
H14 H 0.0816 0.83566 0.48742 0.0
H15 H 0.04898 0.71457 0.15415 0.0
C16 C 0.02744 0.704 0.20936 0.0
C17 C 1.01391 0.78093 0.43887 0.0
C18 C 0.03255 0.81041 0.48665 0.0
C19 C 0.03144 0.75382 0.36948 0.0
C20 C 0.06742 0.75716 0.35107 0.0
C21 C 0.08527 0.78678 0.38961 0.0
C22 C 0.06797 0.81221 0.46111 0.0
N23 N 1.01346 0.72419 0.3152 0.0
H24 H 0.74877 0.99244 0.47393 0.0
H25 H 0.78952 0.08297 0.27392 0.0
H26 H 0.69265 0.08861 0.47442 0.0
H27 H 0.84182 0.05807 0.36153 0.0
C28 C 0.8376 0.03413 0.30959 0.0
C29 C 0.74712 1.01971 0.44875 0.0
C30 C 0.71753 0.03933 0.48893 0.0
C31 C 0.77459 0.03588 0.37536 0.0
C32 C 0.77074 0.07089 0.33826 0.0
C33 C 0.74146 0.08985 0.37309 0.0
C34 C 0.71592 0.07423 0.45143 0.0
N35 N 0.80462 1.01714 0.32969 0.0
H36 H 0.49418 0.76171 0.5014 0.0
H37 H 0.57685 0.80892 0.27937 0.0
H38 H 0.58832 0.7061 0.43555 0.0
H39 H 0.54813 0.86061 0.42511 0.0
C40 C 0.52857 0.85469 0.3534 0.0
C41 C 0.5203 0.7609 0.46376 0.0
C42 C 0.54117 0.73073 0.48625 0.0
C43 C 0.53405 0.79034 0.39361 0.0
C44 C 0.56733 0.78795 0.34059 0.0
C45 C 0.58514 0.75645 0.34139 0.0
C46 C 0.57378 0.72998 0.42718 0.0
N47 N 0.51371 0.82038 0.35906 0.0
H48 H 0.24561 0.4914 0.19258 0.0
H49 H 0.28803 0.58586 0.34724 0.0
H50 H 0.18874 0.58652 0.16222 0.0
H51 H 0.34033 0.55533 0.27333 0.0
C52 C 0.33437 0.53444 0.34157 0.0
C53 C 0.24396 0.51906 0.20772 0.0
C54 C 0.21448 0.53785 0.16078 0.0
C55 C 0.2714 0.53657 0.27415 0.0
C56 C 0.26805 0.57241 0.2949 0.0
C57 C 0.23801 0.59048 0.25948 0.0
C58 C 0.21234 0.57312 0.18876 0.0
N59 N 0.30071 0.51844 0.33016 0.0
H60 H 0.03686 0.25684 0.17081 0.0
H61 H 0.9435 0.29882 0.33836 0.0
H62 H 0.9423 0.19896 0.16031 0.0
H63 H 0.96985 0.35087 0.26543 0.0
C64 C 0.99333 0.34633 0.32035 0.0
C65 C 1.00938 0.25514 0.1895 0.0
C66 C 0.99063 0.22503 0.14929 0.0
C67 C 0.99211 0.28305 0.25456 0.0
C68 C 0.95664 0.27928 0.28225 0.0
C69 C 0.93853 0.24903 0.25095 0.0
C70 C 0.95556 0.223 0.18092 0.0
N71 N 1.01025 0.31323 0.30263 0.0
H72 H 0.27306 0.05262 0.19032 0.0
H73 H 0.22682 0.95911 0.34838 0.0
H74 H 0.32832 0.95646 0.17837 0.0
H75 H 0.17558 0.99174 0.2586 0.0
C76 C 0.18168 1.0119 0.32757 0.0
C77 C 0.27393 0.02492 0.20811 0.0
C78 C 0.30366 1.00563 0.16899 0.0
C79 C 0.24529 1.00794 0.27108 0.0
C80 C 0.2476 0.97207 0.29659 0.0
C81 C 0.27772 0.95344 0.26786 0.0
C82 C 0.30465 0.9703 0.19979 0.0
N83 N 0.21589 0.02679 0.32058 0.0
H84 H 0.47594 0.28479 0.18343 0.0
H85 H 0.56865 0.2402 0.34727 0.0
H86 H 0.57313 0.33771 0.14314 0.0
H87 H 0.53642 0.18757 0.25676 0.0
C88 C 0.51635 0.19372 0.32683 0.0
C89 C 0.50364 0.28534 0.19692 0.0
C90 C 0.52324 0.31422 0.14788 0.0
C91 C 0.52037 0.25713 0.26381 0.0
C92 C 0.55608 0.2596 0.28694 0.0
C93 C 0.57508 0.28865 0.24581 0.0
C94 C 0.55875 0.31466 0.17164 0.0
N95 N 0.50158 0.22805 0.31902 0.0
Tb96 Tb 0.0319 1.00751 0.92198 0.0
Tb97 Tb 0.98844 0.02661 0.72892 0.0
C98 C 0.06156 0.97933 0.11244 0.0
C99 C 0.08527 0.95042 0.13584 0.0
C100 C 0.08526 0.93465 0.25833 0.0
C101 C 0.10682 0.90666 0.28393 0.0
C102 C 0.12852 0.89335 0.1865 0.0
C103 C 0.12906 0.90972 0.06398 0.0
C104 C 0.10767 0.93829 0.03895 0.0
C105 C 0.06901 0.02827 0.71441 0.0
C106 C 1.00912 0.94867 0.71823 0.0
C107 C 0.95505 0.05645 0.55161 0.0
C108 C 0.93543 0.08922 0.54651 0.0
C109 C 0.9528 0.12107 0.5496 0.0
C110 C 0.9346 0.15189 0.53672 0.0
C111 C 0.8985 0.15183 0.51987 0.0
C112 C 0.88079 0.12008 0.5224 0.0
C113 C 0.89915 0.08898 0.53722 0.0
C114 C 0.95269 1.00677 0.94168 0.0
C115 C 1.01253 0.08591 0.92563 0.0
O116 O 0.03039 0.97116 0.07526 0.0
O117 O 0.07413 1.00571 0.04762 0.0
O118 O 0.04175 1.0098 0.71355 0.0
O119 O 0.07524 0.03563 0.83356 0.0
O120 O 0.02087 0.95524 0.83646 0.0
O121 O 0.99818 0.97515 0.64735 0.0
O122 O 0.98857 0.0589 0.56419 0.0
O123 O 0.9421 0.03202 0.62536 0.0
O124 O 0.97947 0.02568 0.93673 0.0
O125 O 0.94675 0.99693 0.82482 0.0
O126 O 1.0018 0.07908 0.80656 0.0
O127 O 0.02145 0.05933 0.99994 0.0
H128 H 0.06802 0.94361 0.33384 0.0
H129 H 0.10461 0.89399 0.37789 0.0
H130 H 0.14478 0.89944 0.98641 0.0
H131 H 0.10783 0.95022 0.94329 0.0
H132 H 0.98063 0.12236 0.55829 0.0
H133 H 0.94929 0.1758 0.53206 0.0
H134 H 0.85308 0.11926 0.50841 0.0
H135 H 0.88516 0.06466 0.53684 0.0
Tb136 Tb 0.5201 0.0436 0.92957 0.0
Tb137 Tb 0.50064 1.00052 0.7331 0.0
C138 C 0.54843 0.07305 0.11738 0.0
C139 C 0.57783 0.09636 0.13496 0.0
C140 C 0.59396 0.09676 0.25562 0.0
C141 C 0.62289 0.11735 0.27461 0.0
C142 C 0.63687 0.13749 0.17211 0.0
C143 C 0.62016 0.13765 0.0514 0.0
C144 C 0.59062 0.11731 0.03309 0.0
C145 C 0.50063 0.08115 0.72123 0.0
C146 C 0.57931 1.01966 0.72919 0.0
C147 C 0.47173 0.96981 0.54882 0.0
C148 C 0.43918 0.95046 0.53305 0.0
C149 C 0.4075 0.96794 0.5342 0.0
C150 C 0.37684 0.94975 0.51999 0.0
C151 C 0.37687 0.91356 0.50458 0.0
C152 C 0.40851 0.89593 0.50077 0.0
C153 C 0.43952 0.91428 0.51566 0.0
C154 C 0.51933 0.96346 0.94347 0.0
C155 C 0.44187 0.02492 0.93366 0.0
O156 O 0.556 0.04163 0.08124 0.0
O157 O 0.52215 0.08588 0.05441 0.0
O158 O 0.51874 0.05363 0.72098 0.0
O159 O 0.49305 0.08751 0.8403 0.0
O160 O 0.57215 0.03138 0.84665 0.0
O161 O 0.55328 1.0094 0.6565 0.0
O162 O 0.46943 1.00321 0.56767 0.0
O163 O 0.4946 0.95538 0.62433 0.0
O164 O 0.50156 0.99109 0.94172 0.0
O165 O 0.52686 0.95624 0.82503 0.0
O166 O 0.44869 1.0147 0.81378 0.0
O167 O 0.46826 0.03287 0.00838 0.0
H168 H 0.58465 0.08043 0.33463 0.0
H169 H 0.63575 0.11538 0.36747 0.0
H170 H 0.63092 0.15209 0.97003 0.0
H171 H 0.57852 0.11698 0.93858 0.0
H172 H 0.40626 0.99582 0.54403 0.0
H173 H 0.35298 0.96437 0.51587 0.0
H174 H 0.40923 0.86827 0.48434 0.0
H175 H 0.46377 0.9003 0.51218 0.0
Tb176 Tb 0.49516 0.53322 0.90569 0.0
Tb177 Tb 0.52781 0.50973 0.69394 0.0
C178 C 0.48319 0.57165 0.0933 0.0
C179 C 0.50727 0.59983 0.12403 0.0
C180 C 0.54213 0.5957 0.08944 0.0
C181 C 0.56511 0.62326 0.09135 0.0
C182 C 0.55328 0.6562 0.12257 0.0
C183 C 0.5185 0.66065 0.16044 0.0
C184 C 0.49556 0.63253 0.16126 0.0
C185 C 0.44875 0.51627 0.72166 0.0
C186 C 0.51916 0.58825 0.69723 0.0
C187 C 0.54917 0.4796 0.49489 0.0
C188 C 0.57453 0.45224 0.47285 0.0
C189 C 0.57841 0.43891 0.34862 0.0
C190 C 0.60047 0.41103 0.32797 0.0
C191 C 0.6191 0.39592 0.43163 0.0
C192 C 0.6169 0.41109 0.55457 0.0
C193 C 0.59469 0.43909 0.57509 0.0
C194 C 0.57564 0.52636 0.87264 0.0
C195 C 0.50375 0.45326 0.91167 0.0
O196 O 0.49571 0.54041 0.10754 0.0
O197 O 0.4678 0.57552 0.98193 0.0
O198 O 0.4773 0.5318 0.70617 0.0
O199 O 0.44522 0.51043 0.84502 0.0
O200 O 0.52062 0.58028 0.82161 0.0
O201 O 0.51495 0.5621 0.6182 0.0
O202 O 0.52101 0.47043 0.55678 0.0
O203 O 0.56201 0.50832 0.53868 0.0
O204 O 0.5469 0.51109 0.8933 0.0
O205 O 0.57689 0.53312 0.75014 0.0
O206 O 0.5154 0.45902 0.79191 0.0
O207 O 0.49473 0.48006 0.98219 0.0
H208 H 0.55107 0.5716 0.0511 0.0
H209 H 0.59167 0.61916 0.06182 0.0
H210 H 0.50905 0.68592 0.18822 0.0
H211 H 0.46862 0.63661 0.18537 0.0
H212 H 0.56327 0.4491 0.26859 0.0
H213 H 0.60054 0.39962 0.23265 0.0
H214 H 0.63059 0.39988 0.63631 0.0
H215 H 0.59222 0.44959 0.6716 0.0
Tb216 Tb 1.00143 0.49514 0.90189 0.0
Tb217 Tb 1.01887 0.5412 0.71448 0.0
C218 C 0.97319 0.46075 0.08195 0.0
C219 C 0.94134 0.43984 0.09367 0.0
C220 C 0.91006 0.45614 0.12383 0.0
C221 C 0.8801 0.43678 0.13891 0.0
C222 C 0.88056 0.40055 0.1256 0.0
C223 C 0.91167 0.38388 0.09629 0.0
C224 C 0.9419 0.40352 0.07898 0.0
C225 C 0.02066 0.46105 0.6875 0.0
C226 C 0.94147 0.52022 0.7049 0.0
C227 C 0.04601 0.57693 0.5351 0.0
C228 C 0.07823 0.59709 0.52134 0.0
C229 C 0.11008 0.57997 0.51637 0.0
C230 C 0.1404 0.59868 0.50039 0.0
C231 C 0.13988 0.63506 0.48928 0.0
C232 C 0.10815 0.65248 0.49379 0.0
C233 C 0.07744 0.63355 0.51081 0.0
C234 C 0.99957 0.57465 0.93082 0.0
C235 C 0.07897 0.51546 0.91006 0.0
O236 O 0.96923 0.49418 0.06522 0.0
O237 O 0.99752 0.44848 0.00798 0.0
O238 O 1.00187 0.48801 0.69302 0.0
O239 O 0.03058 0.45415 0.80428 0.0
O240 O 0.94873 0.50767 0.82234 0.0
O241 O 0.96744 0.53165 0.63336 0.0
O242 O 0.04908 0.54324 0.5459 0.0
O243 O 0.02323 0.58903 0.61588 0.0
O244 O 1.01888 0.54814 0.92305 0.0
O245 O 0.98857 0.58099 0.81498 0.0
O246 O 0.07171 0.52796 0.79235 0.0
O247 O 0.05292 0.50454 0.98233 0.0
H248 H 0.90865 0.4839 0.13755 0.0
H249 H 0.8565 0.45016 0.16494 0.0
H250 H 0.91266 0.35592 0.08866 0.0
H251 H 0.96583 0.39024 0.0572 0.0
H252 H 0.11173 0.55197 0.5222 0.0
H253 H 0.16436 0.5844 0.49119 0.0
H254 H 0.10707 0.68038 0.48108 0.0
H255 H 0.05306 0.6473 0.51261 0.0
C256 C 0.11932 1.00965 0.39908 0.0
C257 C 0.15339 1.02086 0.42391 0.0
C258 C 0.09215 1.01279 0.49057 0.0
C259 C 0.09752 0.02774 0.61264 0.0
H260 H 0.11373 0.99787 0.30734 0.0
H261 H 0.06686 1.00287 0.46596 0.0
S262 S 0.18139 0.06392 0.7251 0.0
N263 N 0.19039 0.04919 0.57921 0.0
N264 N 0.13993 0.05594 0.74998 0.0
C265 C 0.13128 0.04051 0.63705 0.0
C266 C 0.15898 0.03699 0.54351 0.0
C267 C 0.51972 0.13144 0.40299 0.0
C268 C 0.50769 0.16542 0.42555 0.0
C269 C 0.51674 0.10429 0.49613 0.0
C270 C 0.50115 0.10957 0.61774 0.0
H271 H 0.53202 0.12594 0.31168 0.0
H272 H 0.52727 0.07909 0.47316 0.0
S273 S 0.46254 0.19302 0.72444 0.0
N274 N 0.4778 0.20215 0.57816 0.0
N275 N 0.47137 0.15168 0.75211 0.0
C276 C 0.48757 0.14319 0.63995 0.0
C277 C 0.49092 0.17088 0.54468 0.0
C278 C 0.39652 0.5381 0.41328 0.0
C279 C 0.3628 0.52537 0.43807 0.0
C280 C 0.42386 0.53416 0.503 0.0
C281 C 0.41917 0.51765 0.62461 0.0
H282 H 0.40186 0.5519 0.32328 0.0
H283 H 0.44885 0.54498 0.47745 0.0
S284 S 0.33632 0.47882 0.73962 0.0
N285 N 0.32674 0.49462 0.59443 0.0
N286 N 0.37763 0.48753 0.76324 0.0
C287 C 0.38572 0.50416 0.65039 0.0
C288 C 0.35779 0.50791 0.55768 0.0
C289 C 0.9849 0.40684 0.40617 0.0
C290 C 1.00396 0.37549 0.41029 0.0
C291 C 0.99133 0.43464 0.49109 0.0
C292 C 1.01692 0.43261 0.58761 0.0
H293 H 0.96398 0.40976 0.33785 0.0
H294 H 0.97522 0.45752 0.48348 0.0
S295 S 0.07488 0.35683 0.64175 0.0
N296 N 0.05037 0.3448 0.51945 0.0
N297 N 0.06212 0.39627 0.68022 0.0
C298 C 0.03658 0.40158 0.59235 0.0
C299 C 0.03023 0.37333 0.50414 0.0
C300 C 0.89813 0.04222 0.223 0.0
C301 C 0.8668 0.02327 0.21972 0.0
C302 C 0.92597 0.03577 0.13762 0.0
C303 C 0.92398 1.01034 0.04131 0.0
H304 H 0.90104 0.06308 0.29092 0.0
H305 H 0.94887 0.05179 0.1447 0.0
S306 S 0.8483 0.95266 0.98931 0.0
N307 N 0.83614 0.97706 0.1118 0.0
N308 N 0.88779 0.96534 0.94967 0.0
C309 C 0.893 0.99075 0.0373 0.0
C310 C 0.86468 0.99707 0.12622 0.0
C311 C 0.51228 0.87471 0.1226 0.0
C312 C 0.52162 0.88245 0.25112 0.0
C313 C 0.5112 0.90091 0.02414 0.0
C314 C 0.51842 0.93618 0.05026 0.0
H315 H 0.50726 0.84809 0.09646 0.0
H316 H 0.5049 0.89338 0.92627 0.0
S317 S 0.54426 0.97019 0.36884 0.0
N318 N 0.53892 0.92826 0.39653 0.0
N319 N 0.53479 0.97688 0.21489 0.0
C320 C 0.52666 0.9442 0.17863 0.0
C321 C 0.52882 0.91759 0.27761 0.0
C322 C 0.67252 0.51368 0.9446 0.0
C323 C 0.67581 0.51568 0.08053 0.0
C324 C 0.64038 0.51707 0.88117 0.0
C325 C 0.609 0.52145 0.94952 0.0
H326 H 0.6953 0.50949 0.8855 0.0
H327 H 0.64023 0.51573 0.77637 0.0
S328 S 0.60305 0.52931 0.30717 0.0
N329 N 0.64477 0.52413 0.28139 0.0
N330 N 0.58401 0.52705 0.16469 0.0
C331 C 0.61177 0.52279 0.08631 0.0
C332 C 0.64505 0.52085 0.15079 0.0
C333 C 0.98476 0.66076 0.11218 0.0
C334 C 1.01704 0.66772 0.16944 0.0
C335 C 0.9788 0.62992 0.04099 0.0
C336 C 1.00455 0.60416 0.02546 0.0
H337 H 0.96469 0.68029 0.11466 0.0
H338 H 0.95412 0.62683 0.99341 0.0
S339 S 0.09347 0.60946 0.15793 0.0
N340 N 0.0751 0.64596 0.20389 0.0
N341 N 0.06344 0.58799 0.07886 0.0
C342 C 0.03634 0.6102 0.08764 0.0
C343 C 0.04266 0.64188 0.15666 0.0
C344 C 0.90563 0.24266 0.45611 0.0
C345 C 0.90575 0.23981 0.31996 0.0
C346 C 0.89315 0.21528 0.53353 0.0
C347 C 0.88203 0.18448 0.47508 0.0
H348 H 0.92087 0.26233 0.50327 0.0
H349 H 0.89952 0.21517 0.63574 0.0
S350 S 0.85629 0.17578 0.13206 0.0
N351 N 0.87672 0.21337 0.13752 0.0
N352 N 0.85586 0.16039 0.28227 0.0
C353 C 0.87193 0.18662 0.34471 0.0
C354 C 0.8834 0.21508 0.26648 0.0
C355 C 0.30974 0.89765 0.27406 0.0
C356 C 0.2857 0.91977 0.33444 0.0
C357 C 0.33944 0.88715 0.34154 0.0
C358 C 0.34377 0.89671 0.47141 0.0
H359 H 0.30991 0.89554 0.16943 0.0
H360 H 0.36126 0.87779 0.28603 0.0
S361 S 0.27618 0.93031 0.6895 0.0
N362 N 0.25962 0.93402 0.54268 0.0
N363 N 0.31422 0.91168 0.67045 0.0
C364 C 0.3142 0.90674 0.54028 0.0
C365 C 0.2848 0.91889 0.47096 0.0
C366 C 0.60495 0.30344 0.44573 0.0
C367 C 0.60778 0.29796 0.31151 0.0
C368 C 0.61677 0.33451 0.49833 0.0
C369 C 0.632 0.35993 0.41726 0.0
H370 H 0.58746 0.28778 0.50422 0.0
H371 H 0.60783 0.34099 0.59462 0.0
S372 S 0.66487 0.34628 0.08504 0.0
N373 N 0.6412 0.31154 0.11781 0.0
N374 N 0.66421 0.36986 0.21765 0.0
C375 C 0.6448 0.34915 0.29673 0.0
C376 C 0.63254 0.31765 0.24311 0.0
C377 C 0.20522 0.64613 0.2529 0.0
C378 C 0.2289 0.62446 0.31897 0.0
C379 C 0.17664 0.65962 0.31927 0.0
C380 C 0.17249 0.65253 0.45227 0.0
H381 H 0.20468 0.64654 0.14789 0.0
H382 H 0.15494 0.66896 0.26268 0.0
S383 S 0.23949 0.62021 0.67638 0.0
N384 N 0.25504 0.61266 0.53019 0.0
N385 N 0.20237 0.64038 0.65341 0.0
C386 C 0.20201 0.64276 0.52191 0.0
C387 C 0.23033 0.6276 0.45493 0.0
C388 C 0.1158 0.80139 0.18792 0.0
C389 C 0.11793 0.79691 0.32338 0.0
C390 C 0.12804 0.83198 0.12936 0.0
C391 C 0.14266 0.858 0.20599 0.0
H392 H 0.09868 0.78525 0.13176 0.0
H393 H 0.11965 0.83785 0.03143 0.0
S394 S 0.17299 0.84756 0.54334 0.0
N395 N 0.14977 0.81241 0.5165 0.0
N396 N 0.17329 0.86987 0.40547 0.0
C397 C 0.15473 0.84828 0.32944 0.0
C398 C 0.14207 0.81732 0.38926 0.0
C399 C 0.72706 0.11865 0.16685 0.0
C400 C 0.73217 0.12199 0.30113 0.0
C401 C 0.69759 0.13286 0.10868 0.0
C402 C 0.6729 0.14991 0.18513 0.0
H403 H 0.74168 0.09979 0.11244 0.0
H404 H 0.69099 0.12429 0.01236 0.0
S405 S 0.68619 0.18245 0.51638 0.0
N406 N 0.71942 0.15655 0.49034 0.0
N407 N 0.66374 0.18313 0.38042 0.0
C408 C 0.68372 0.16242 0.3056 0.0
C409 C 0.71369 0.14807 0.36488 0.0
C410 C 0.62381 0.71533 0.23303 0.0
C411 C 0.60452 0.74622 0.22172 0.0
C412 C 0.60843 0.68437 0.19116 0.0
C413 C 0.57731 0.68582 0.12064 0.0
H414 H 0.64398 0.7134 0.30522 0.0
H415 H 0.61825 0.65988 0.22787 0.0
S416 S 0.54231 0.76425 0.95854 0.0
N417 N 0.57208 0.77881 0.05862 0.0
N418 N 0.54211 0.72164 0.97715 0.0
C419 C 0.56763 0.71779 0.06619 0.0
C420 C 0.58386 0.74845 0.10984 0.0
C421 C 0.81548 0.38833 0.35597 0.0
C422 C 0.79223 0.41028 0.2891 0.0
C423 C 0.84386 0.37421 0.29021 0.0
C424 C 0.84853 0.38154 0.1576 0.0
H425 H 0.81583 0.38793 0.46099 0.0
H426 H 0.86529 0.3645 0.34732 0.0
S427 S 0.78186 0.41349 0.93139 0.0
N428 N 0.76622 0.42153 0.07705 0.0
N429 N 0.81904 0.39351 0.95553 0.0
C430 C 0.81928 0.39153 0.08708 0.0
C431 C 0.79093 0.40689 0.15314 0.0
C432 C 0.99711 0.18524 0.95545 0.0
C433 C 1.00555 0.19286 0.08549 0.0
C434 C 1.00053 0.15137 0.90362 0.0
C435 C 1.01199 0.12279 0.97943 0.0
H436 H 0.98596 0.20537 0.89464 0.0
H437 H 0.99281 0.14738 0.80417 0.0
S438 S 0.03681 0.12815 0.32724 0.0
N439 N 0.02569 0.16829 0.28863 0.0
N440 N 0.03227 0.10545 0.19376 0.0
C441 C 0.02124 0.13028 0.10907 0.0
C442 C 1.01792 0.16483 0.16118 0.0
C443 C 0.36586 0.02619 0.17979 0.0
C444 C 0.33604 1.02018 0.10468 0.0
C445 C 0.39932 0.02888 0.1235 0.0
C446 C 0.40515 0.02499 0.9888 0.0
H447 H 0.36356 0.02688 0.28441 0.0
H448 H 0.42104 0.03259 0.18769 0.0
S449 S 0.33571 1.00999 0.74757 0.0
N450 N 0.31479 1.01125 0.88723 0.0
N451 N 0.37688 1.01638 0.78166 0.0
C452 C 0.37533 1.02003 0.9122 0.0
C453 C 0.34123 1.01753 0.96977 0.0
C454 C 0.5159 0.35376 0.95093 0.0
C455 C 0.5088 0.34674 0.0833 0.0
C456 C 0.51288 0.38757 0.89564 0.0
C457 C 0.50313 0.41659 0.96993 0.0
H458 H 0.5257 0.33317 0.8907 0.0
H459 H 0.51963 0.39114 0.79438 0.0
S460 S 0.48257 0.41273 0.3229 0.0
N461 N 0.49193 0.37219 0.2872 0.0
N462 N 0.48608 0.43504 0.18573 0.0
C463 C 0.4952 0.40969 0.10213 0.0
C464 C 0.49816 0.3752 0.15788 0.0
C465 C 0.15353 0.51315 0.1613 0.0
C466 C 0.18339 0.52289 0.09056 0.0
C467 C 0.12067 0.50968 0.10157 0.0
C468 C 0.1154 0.51643 0.96758 0.0
H469 H 0.15515 0.51004 0.26561 0.0
H470 H 0.09885 0.50303 0.16297 0.0
S471 S 0.18518 0.54189 0.73673 0.0
N472 N 0.20526 0.53856 0.87733 0.0
N473 N 0.14431 0.53205 0.76578 0.0
C474 C 0.14528 0.52527 0.89512 0.0
C475 C 0.17879 0.52857 0.95609 0.0
C476 C 0.02516 0.84949 0.68238 0.0
C477 C 1.01734 0.8424 0.55129 0.0
C478 C 0.02148 0.88313 0.73614 0.0
C479 C 1.01029 0.91205 0.66155 0.0
H480 H 0.036 0.82909 0.74275 0.0
H481 H 0.02867 0.88666 0.83643 0.0
S482 S 0.98776 0.90833 0.31105 0.0
N483 N 0.99853 0.868 0.34807 0.0
N484 N 0.99143 0.93038 0.44646 0.0
C485 C 1.00183 0.90514 0.53059 0.0
C486 C 1.00546 0.87082 0.47646 0.0
C487 C 0.65672 1.01438 0.48827 0.0
C488 C 0.68568 0.02542 0.55974 0.0
C489 C 0.62318 1.01169 0.5443 0.0
C490 C 0.61629 1.0202 0.67506 0.0
H491 H 0.65958 1.00968 0.38552 0.0
H492 H 0.60218 1.0042 0.48217 0.0
S493 S 0.6831 0.05055 0.90605 0.0
N494 N 0.70485 0.04499 0.76983 0.0
N495 N 0.64274 0.03959 0.87493 0.0
C496 C 0.64529 0.03052 0.74851 0.0
C497 C 0.67946 0.03326 0.6912 0.0
C498 C 0.50449 0.6753 0.50967 0.0
C499 C 0.53044 0.69748 0.55808 0.0
C500 C 0.50089 0.64022 0.55379 0.0
C501 C 0.52281 0.62561 0.64963 0.0
H502 H 0.48793 0.68452 0.43227 0.0
H503 H 0.48091 0.62433 0.51152 0.0
S504 S 0.59689 0.67092 0.79906 0.0
N505 N 0.57949 0.70071 0.70343 0.0
N506 N 0.57248 0.63606 0.78534 0.0
C507 C 0.54848 0.64756 0.69936 0.0
C508 C 0.55232 0.68293 0.65415 0.0
C509 C 0.86661 0.52289 0.45497 0.0
C510 C 0.8372 0.51136 0.5247 0.0
C511 C 0.89942 0.52679 0.51466 0.0
C512 C 0.90506 0.51883 0.64752 0.0
H513 H 0.86472 0.52712 0.35123 0.0
H514 H 0.92094 0.53483 0.454 0.0
S515 S 0.8365 0.48874 0.87595 0.0
N516 N 0.81612 0.49282 0.73611 0.0
N517 N 0.87697 0.50021 0.84757 0.0
C518 C 0.87558 0.50827 0.7192 0.0
C519 C 0.84214 0.50444 0.65829 0.0
loop_
_geom_bond_atom_site_label_1
_geom_bond_atom_site_label_2
_geom_bond_distance
_geom_bond_site_symmetry_2
_ccdc_geom_bond_type
H0 C5 0.930 . S
H1 C8 0.930 . S
H2 C10 0.930 . S
H3 C4 1.016 . S
C4 H3 1.016 . S
C4 N11 1.286 . S
C5 H0 0.930 . S
C5 C6 1.397 . S
C5 C7 1.361 . S
C6 C5 1.397 . S
C6 C10 1.390 . S
C7 C5 1.361 . S
C7 C8 1.393 . S
C7 N11 1.413 . S
C8 H1 0.930 . S
C8 C7 1.393 . S
C8 C9 1.399 . S
C9 C8 1.399 . S
C9 C10 1.381 . S
C10 H2 0.930 . S
C10 C6 1.390 . S
C10 C9 1.381 . S
N11 C4 1.286 . S
N11 C7 1.413 . S
H12 C17 0.930 . S
H13 C20 0.930 . S
H14 C22 0.930 . S
H15 C16 1.016 . S
C16 H15 1.016 . S
C16 N23 1.286 1_655 S
C17 H12 0.930 . S
C17 C18 1.397 . S
C17 C19 1.361 . S
C18 C17 1.397 . S
C18 C22 1.390 1_455 S
C19 C17 1.361 . S
C19 C20 1.393 . S
C19 N23 1.413 . S
C20 H13 0.930 . S
C20 C19 1.393 . S
C20 C21 1.403 . S
C21 C20 1.403 . S
C21 C22 1.379 1_455 S
C22 H14 0.930 . S
C22 C18 1.390 1_655 S
C22 C21 1.379 1_655 S
N23 C16 1.286 1_455 S
N23 C19 1.413 . S
H24 C29 0.930 . S
H25 C32 0.930 . S
H26 C34 0.930 . S
H27 C28 1.016 . S
C28 H27 1.016 . S
C28 N35 1.286 1_565 S
C29 H24 0.930 . S
C29 C30 1.397 . S
C29 C31 1.361 . S
C30 C29 1.397 . S
C30 C34 1.390 1_545 S
C31 C29 1.361 . S
C31 C32 1.393 . S
C31 N35 1.413 . S
C32 H25 0.930 . S
C32 C31 1.393 . S
C32 C33 1.403 . S
C33 C32 1.403 . S
C33 C34 1.379 1_545 S
C34 H26 0.930 . S
C34 C30 1.390 1_565 S
C34 C33 1.379 1_565 S
N35 C28 1.286 1_545 S
N35 C31 1.413 . S
H36 C41 0.930 . S
H37 C44 0.930 . S
H38 C46 0.930 . S
H39 C40 1.016 . S
C40 H39 1.016 . S
C40 N47 1.286 . S
C41 H36 0.930 . S
C41 C42 1.397 . S
C41 C43 1.361 . S
C42 C41 1.397 . S
C42 C46 1.390 . S
C43 C41 1.361 . S
C43 C44 1.393 . S
C43 N47 1.413 . S
C44 H37 0.930 . S
C44 C43 1.393 . S
C44 C45 1.399 . S
C45 C44 1.399 . S
C45 C46 1.381 . S
C46 H38 0.930 . S
C46 C42 1.390 . S
C46 C45 1.381 . S
N47 C40 1.286 . S
N47 C43 1.413 . S
H48 C53 0.930 . S
H49 C56 0.930 . S
H50 C58 0.930 . S
H51 C52 1.016 . S
C52 H51 1.016 . S
C52 N59 1.286 . S
C53 H48 0.930 . S
C53 C54 1.397 . S
C53 C55 1.361 1_556 S
C54 C53 1.397 . S
C54 C58 1.390 1_556 S
C55 C53 1.361 1_554 S
C55 C56 1.393 . S
C55 N59 1.413 . S
C56 H49 0.930 . S
C56 C55 1.393 . S
C56 C57 1.399 . S
C57 C56 1.399 . S
C57 C58 1.381 . S
C58 H50 0.930 . S
C58 C54 1.390 1_554 S
C58 C57 1.381 . S
N59 C52 1.286 . S
N59 C55 1.413 . S
H60 C65 0.930 . S
H61 C68 0.930 . S
H62 C70 0.930 . S
H63 C64 1.026 . S
C64 H63 1.026 . S
C64 N71 1.272 1_655 S
C65 H60 0.930 . S
C65 C66 1.397 . S
C65 C67 1.361 1_556 S
C66 C65 1.397 . S
C66 C70 1.390 1_456 S
C67 C65 1.361 1_554 S
C67 C68 1.393 . S
C67 N71 1.413 . S
C68 H61 0.930 . S
C68 C67 1.393 . S
C68 C69 1.404 . S
C69 C68 1.404 . S
C69 C70 1.378 1_455 S
C70 H62 0.930 . S
C70 C66 1.390 1_654 S
C70 C69 1.378 1_655 S
N71 C64 1.272 1_455 S
N71 C67 1.413 . S
H72 C77 0.930 . S
H73 C80 0.930 . S
H74 C82 0.930 . S
H75 C76 1.026 . S
C76 H75 1.026 . S
C76 N83 1.272 1_565 S
C77 H72 0.930 . S
C77 C78 1.397 . S
C77 C79 1.361 1_556 S
C78 C77 1.397 . S
C78 C82 1.390 1_546 S
C79 C77 1.361 1_554 S
C79 C80 1.393 . S
C79 N83 1.413 . S
C80 H73 0.930 . S
C80 C79 1.393 . S
C80 C81 1.404 . S
C81 C80 1.404 . S
C81 C82 1.378 1_545 S
C82 H74 0.930 . S
C82 C78 1.390 1_564 S
C82 C81 1.378 1_565 S
N83 C76 1.272 1_545 S
N83 C79 1.413 . S
H84 C89 0.930 . S
H85 C92 0.930 . S
H86 C94 0.930 1_556 S
H87 C88 1.016 . S
C88 H87 1.016 . S
C88 N95 1.286 . S
C89 H84 0.930 . S
C89 C90 1.397 . S
C89 C91 1.361 1_556 S
C90 C89 1.397 . S
C90 C94 1.390 1_556 S
C91 C89 1.361 1_554 S
C91 C92 1.393 . S
C91 N95 1.413 . S
C92 H85 0.930 . S
C92 C91 1.393 . S
C92 C93 1.399 . S
C93 C92 1.399 . S
C93 C94 1.381 . S
C94 H86 0.930 1_554 S
C94 C90 1.390 1_554 S
C94 C93 1.381 . S
N95 C88 1.286 . S
N95 C91 1.413 . S
Tb96 C98 2.809 1_556 S
Tb96 O116 2.484 1_556 S
Tb96 O117 2.440 1_556 S
Tb96 O118 2.658 1_565 S
Tb96 O119 2.409 . S
Tb96 O120 2.378 . S
Tb96 O124 2.325 1_455 S
Tb96 O127 2.341 1_565 S
Tb97 C107 2.809 . S
Tb97 O118 2.325 1_655 S
Tb97 O121 2.341 1_545 S
Tb97 O122 2.484 . S
Tb97 O123 2.440 . S
Tb97 O124 2.658 1_545 S
Tb97 O125 2.409 . S
Tb97 O126 2.378 . S
C98 Tb96 2.809 1_554 S
C98 C99 1.514 . S
C98 O116 1.248 . S
C98 O117 1.266 . S
C99 C98 1.514 . S
C99 C100 1.359 . S
C99 C104 1.348 . S
C100 C99 1.359 . S
C100 C101 1.380 . S
C100 H128 0.929 1_455 S
C101 C100 1.380 . S
C101 C102 1.347 . S
C101 H129 0.931 1_455 S
C102 C101 1.347 . S
C102 C103 1.369 . S
C103 C102 1.369 . S
C103 C104 1.408 . S
C103 H130 0.930 . S
C104 C99 1.348 . S
C104 C103 1.408 . S
C104 H131 0.930 . S
C105 O118 1.281 1_565 S
C105 O119 1.254 . S
C106 O120 1.236 1_655 S
C106 O121 1.266 . S
C107 Tb97 2.809 . S
C107 C108 1.514 . S
C107 O122 1.248 . S
C107 O123 1.266 . S
C108 C107 1.514 . S
C108 C109 1.359 . S
C108 C113 1.348 . S
C109 C108 1.359 . S
C109 C110 1.380 . S
C109 H132 0.929 1_655 S
C110 C109 1.380 . S
C110 C111 1.347 . S
C110 H133 0.931 1_655 S
C111 C110 1.347 . S
C111 C112 1.369 . S
C112 C111 1.369 . S
C112 C113 1.408 . S
C112 H134 0.930 . S
C113 C108 1.348 . S
C113 C112 1.408 . S
C113 H135 0.930 . S
C114 O124 1.281 1_545 S
C114 O125 1.254 . S
C115 O126 1.236 1_455 S
C115 O127 1.266 . S
O116 Tb96 2.484 1_554 S
O116 C98 1.248 . S
O117 Tb96 2.440 1_554 S
O117 C98 1.266 . S
O118 Tb96 2.658 1_545 S
O118 Tb97 2.325 1_455 S
O118 C105 1.281 1_545 S
O119 Tb96 2.409 . S
O119 C105 1.254 . S
O120 Tb96 2.378 . S
O120 C106 1.236 1_455 S
O121 Tb97 2.341 1_565 S
O121 C106 1.266 . S
O122 Tb97 2.484 . S
O122 C107 1.248 . S
O123 Tb97 2.440 . S
O123 C107 1.266 . S
O124 Tb96 2.325 1_655 S
O124 Tb97 2.658 1_565 S
O124 C114 1.281 1_565 S
O125 Tb97 2.409 . S
O125 C114 1.254 . S
O126 Tb97 2.378 . S
O126 C115 1.236 1_655 S
O127 Tb96 2.341 1_545 S
O127 C115 1.266 . S
H128 C100 0.929 1_655 S
H129 C101 0.931 1_655 S
H130 C103 0.930 . S
H131 C104 0.930 . S
H132 C109 0.929 1_455 S
H133 C110 0.931 1_455 S
H134 C112 0.930 . S
H135 C113 0.930 . S
Tb136 C138 2.809 1_556 S
Tb136 O156 2.484 1_556 S
Tb136 O157 2.440 1_556 S
Tb136 O158 2.658 . S
Tb136 O159 2.409 . S
Tb136 O160 2.378 . S
Tb136 O164 2.325 1_545 S
Tb136 O167 2.341 . S
Tb137 C147 2.809 . S
Tb137 O158 2.325 1_565 S
Tb137 O161 2.341 . S
Tb137 O162 2.484 . S
Tb137 O163 2.440 . S
Tb137 O164 2.658 . S
Tb137 O165 2.409 . S
Tb137 O166 2.378 . S
C138 Tb136 2.809 1_554 S
C138 C139 1.514 . S
C138 O156 1.248 . S
C138 O157 1.266 . S
C139 C138 1.514 . S
C139 C140 1.359 . S
C139 C144 1.348 . S
C140 C139 1.359 . S
C140 C141 1.380 . S
C140 H168 0.929 1_545 S
C141 C140 1.380 . S
C141 C142 1.347 . S
C141 H169 0.931 1_545 S
C142 C141 1.347 . S
C142 C143 1.369 . S
C143 C142 1.369 . S
C143 C144 1.408 . S
C143 H170 0.930 . S
C144 C139 1.348 . S
C144 C143 1.408 . S
C144 H171 0.930 . S
C145 O158 1.281 . S
C145 O159 1.254 . S
C146 O160 1.236 1_565 S
C146 O161 1.266 . S
C147 Tb137 2.809 . S
C147 C148 1.514 . S
C147 O162 1.248 . S
C147 O163 1.266 . S
C148 C147 1.514 . S
C148 C149 1.359 . S
C148 C153 1.348 . S
C149 C148 1.359 . S
C149 C150 1.380 . S
C149 H172 0.929 1_565 S
C150 C149 1.380 . S
C150 C151 1.347 . S
C150 H173 0.931 1_565 S
C151 C150 1.347 . S
C151 C152 1.369 . S
C152 C151 1.369 . S
C152 C153 1.408 . S
C152 H174 0.930 . S
C153 C148 1.348 . S
C153 C152 1.408 . S
C153 H175 0.930 . S
C154 O164 1.281 . S
C154 O165 1.254 . S
C155 O166 1.236 1_545 S
C155 O167 1.266 . S
O156 Tb136 2.484 1_554 S
O156 C138 1.248 . S
O157 Tb136 2.440 1_554 S
O157 C138 1.266 . S
O158 Tb136 2.658 . S
O158 Tb137 2.325 1_545 S
O158 C145 1.281 . S
O159 Tb136 2.409 . S
O159 C145 1.254 . S
O160 Tb136 2.378 . S
O160 C146 1.236 1_545 S
O161 Tb137 2.341 . S
O161 C146 1.266 . S
O162 Tb137 2.484 . S
O162 C147 1.248 . S
O163 Tb137 2.440 . S
O163 C147 1.266 . S
O164 Tb136 2.325 1_565 S
O164 Tb137 2.658 . S
O164 C154 1.281 . S
O165 Tb137 2.409 . S
O165 C154 1.254 . S
O166 Tb137 2.378 . S
O166 C155 1.236 1_565 S
O167 Tb136 2.341 . S
O167 C155 1.266 . S
H168 C140 0.929 1_565 S
H169 C141 0.931 1_565 S
H170 C143 0.930 . S
H171 C144 0.930 . S
H172 C149 0.929 1_545 S
H173 C150 0.931 1_545 S
H174 C152 0.930 . S
H175 C153 0.930 . S
Tb176 C178 2.809 1_556 S
Tb176 O196 2.484 1_556 S
Tb176 O197 2.440 1_556 S
Tb176 O198 2.658 . S
Tb176 O199 2.409 . S
Tb176 O200 2.378 . S
Tb176 O204 2.325 . S
Tb176 O207 2.341 . S
Tb177 C187 2.809 . S
Tb177 O198 2.325 . S
Tb177 O201 2.341 . S
Tb177 O202 2.484 . S
Tb177 O203 2.440 . S
Tb177 O204 2.658 . S
Tb177 O205 2.409 . S
Tb177 O206 2.378 . S
C178 Tb176 2.809 1_554 S
C178 C179 1.514 . S
C178 O196 1.248 . S
C178 O197 1.266 . S
C179 C178 1.514 . S
C179 C180 1.359 . S
C179 C184 1.348 . S
C180 C179 1.359 . S
C180 C181 1.380 . S
C180 H208 0.929 . S
C181 C180 1.380 . S
C181 C182 1.347 . S
C181 H209 0.931 . S
C182 C181 1.347 . S
C182 C183 1.369 . S
C183 C182 1.369 . S
C183 C184 1.408 . S
C183 H210 0.930 . S
C184 C179 1.348 . S
C184 C183 1.408 . S
C184 H211 0.930 . S
C185 O198 1.281 . S
C185 O199 1.254 . S
C186 O200 1.236 . S
C186 O201 1.266 . S
C187 Tb177 2.809 . S
C187 C188 1.514 . S
C187 O202 1.248 . S
C187 O203 1.266 . S
C188 C187 1.514 . S
C188 C189 1.359 . S
C188 C193 1.348 . S
C189 C188 1.359 . S
C189 C190 1.380 . S
C189 H212 0.929 . S
C190 C189 1.380 . S
C190 C191 1.347 . S
C190 H213 0.931 . S
C191 C190 1.347 . S
C191 C192 1.369 . S
C192 C191 1.369 . S
C192 C193 1.408 . S
C192 H214 0.930 . S
C193 C188 1.348 . S
C193 C192 1.408 . S
C193 H215 0.930 . S
C194 O204 1.281 . S
C194 O205 1.254 . S
C195 O206 1.236 . S
C195 O207 1.266 . S
O196 Tb176 2.484 1_554 S
O196 C178 1.248 . S
O197 Tb176 2.440 1_554 S
O197 C178 1.266 . S
O198 Tb176 2.658 . S
O198 Tb177 2.325 . S
O198 C185 1.281 . S
O199 Tb176 2.409 . S
O199 C185 1.254 . S
O200 Tb176 2.378 . S
O200 C186 1.236 . S
O201 Tb177 2.341 . S
O201 C186 1.266 . S
O202 Tb177 2.484 . S
O202 C187 1.248 . S
O203 Tb177 2.440 . S
O203 C187 1.266 . S
O204 Tb176 2.325 . S
O204 Tb177 2.658 . S
O204 C194 1.281 . S
O205 Tb177 2.409 . S
O205 C194 1.254 . S
O206 Tb177 2.378 . S
O206 C195 1.236 . S
O207 Tb176 2.341 . S
O207 C195 1.266 . S
H208 C180 0.929 . S
H209 C181 0.931 . S
H210 C183 0.930 . S
H211 C184 0.930 . S
H212 C189 0.929 . S
H213 C190 0.931 . S
H214 C192 0.930 . S
H215 C193 0.930 . S
Tb216 C218 2.809 1_556 S
Tb216 O236 2.484 1_556 S
Tb216 O237 2.440 1_556 S
Tb216 O238 2.658 1_655 S
Tb216 O239 2.409 . S
Tb216 O240 2.378 . S
Tb216 O244 2.325 . S
Tb216 O247 2.341 1_655 S
Tb217 C227 2.809 . S
Tb217 O238 2.325 . S
Tb217 O241 2.341 1_455 S
Tb217 O242 2.484 . S
Tb217 O243 2.440 . S
Tb217 O244 2.658 1_455 S
Tb217 O245 2.409 . S
Tb217 O246 2.378 . S
C218 Tb216 2.809 1_554 S
C218 C219 1.514 . S
C218 O236 1.248 . S
C218 O237 1.266 . S
C219 C218 1.514 . S
C219 C220 1.359 . S
C219 C224 1.348 . S
C220 C219 1.359 . S
C220 C221 1.380 . S
C220 H248 0.929 . S
C221 C220 1.380 . S
C221 C222 1.347 . S
C221 H249 0.931 . S
C222 C221 1.347 . S
C222 C223 1.369 . S
C223 C222 1.369 . S
C223 C224 1.408 . S
C223 H250 0.930 . S
C224 C219 1.348 . S
C224 C223 1.408 . S
C224 H251 0.930 . S
C225 O238 1.277 1_655 S
C225 O239 1.259 . S
C226 O240 1.236 . S
C226 O241 1.266 . S
C227 Tb217 2.809 . S
C227 C228 1.514 . S
C227 O242 1.248 . S
C227 O243 1.266 . S
C228 C227 1.514 . S
C228 C229 1.359 . S
C228 C233 1.348 . S
C229 C228 1.359 . S
C229 C230 1.380 . S
C229 H252 0.929 . S
C230 C229 1.380 . S
C230 C231 1.347 . S
C230 H253 0.931 . S
C231 C230 1.347 . S
C231 C232 1.369 . S
C232 C231 1.369 . S
C232 C233 1.408 . S
C232 H254 0.930 . S
C233 C228 1.348 . S
C233 C232 1.408 . S
C233 H255 0.930 . S
C234 O244 1.274 1_455 S
C234 O245 1.262 . S
C235 O246 1.236 . S
C235 O247 1.266 . S
O236 Tb216 2.484 1_554 S
O236 C218 1.248 . S
O237 Tb216 2.440 1_554 S
O237 C218 1.266 . S
O238 Tb216 2.658 1_455 S
O238 Tb217 2.325 . S
O238 C225 1.277 1_455 S
O239 Tb216 2.409 . S
O239 C225 1.259 . S
O240 Tb216 2.378 . S
O240 C226 1.236 . S
O241 Tb217 2.341 1_655 S
O241 C226 1.266 . S
O242 Tb217 2.484 . S
O242 C227 1.248 . S
O243 Tb217 2.440 . S
O243 C227 1.266 . S
O244 Tb216 2.325 . S
O244 Tb217 2.658 1_655 S
O244 C234 1.274 1_655 S
O245 Tb217 2.409 . S
O245 C234 1.262 . S
O246 Tb217 2.378 . S
O246 C235 1.236 . S
O247 Tb216 2.341 1_455 S
O247 C235 1.266 . S
H248 C220 0.929 . S
H249 C221 0.931 . S
H250 C223 0.930 . S
H251 C224 0.930 . S
H252 C229 0.929 . S
H253 C230 0.931 . S
H254 C232 0.930 . S
H255 C233 0.930 . S
C256 C257 1.370 . S
C256 C258 1.419 . S
C256 H260 0.930 . S
C257 C256 1.370 . S
C257 C266 1.428 1_565 S
C258 C256 1.419 . S
C258 C259 1.368 . S
C258 H261 0.929 . S
C259 C258 1.368 . S
C259 C265 1.424 1_565 S
H260 C256 0.930 . S
H261 C258 0.929 . S
S262 N263 1.613 . S
S262 N264 1.610 . S
N263 S262 1.613 . S
N263 C266 1.350 . S
N264 S262 1.610 . S
N264 C265 1.351 . S
C265 C259 1.424 1_545 S
C265 N264 1.351 . S
C265 C266 1.434 . S
C266 C257 1.428 1_545 S
C266 N263 1.350 . S
C266 C265 1.434 . S
C267 C268 1.369 . S
C267 C269 1.419 . S
C267 H271 0.930 . S
C268 C267 1.369 . S
C268 C277 1.429 . S
C269 C267 1.419 . S
C269 C270 1.363 . S
C269 H272 0.929 . S
C270 C269 1.363 . S
C270 C276 1.428 . S
H271 C267 0.930 . S
H272 C269 0.929 . S
S273 N274 1.613 . S
S273 N275 1.610 . S
N274 S273 1.613 . S
N274 C277 1.350 . S
N275 S273 1.610 . S
N275 C276 1.351 . S
C276 C270 1.428 . S
C276 N275 1.351 . S
C276 C277 1.434 . S
C277 C268 1.429 . S
C277 N274 1.350 . S
C277 C276 1.434 . S
C278 C279 1.369 . S
C278 C280 1.419 . S
C278 H282 0.930 . S
C279 C278 1.369 . S
C279 C288 1.429 . S
C280 C278 1.419 . S
C280 C281 1.363 . S
C280 H283 0.929 . S
C281 C280 1.363 . S
C281 C287 1.428 . S
H282 C278 0.930 . S
H283 C280 0.929 . S
S284 N285 1.613 . S
S284 N286 1.610 . S
N285 S284 1.613 . S
N285 C288 1.350 . S
N286 S284 1.610 . S
N286 C287 1.351 . S
C287 C281 1.428 . S
C287 N286 1.351 . S
C287 C288 1.434 . S
C288 C279 1.429 . S
C288 N285 1.350 . S
C288 C287 1.434 . S
C289 C290 1.369 1_655 S
C289 C291 1.419 . S
C289 H293 0.931 . S
C290 C289 1.369 1_455 S
C290 C299 1.429 . S
C291 C289 1.419 . S
C291 C292 1.361 1_655 S
C291 H294 0.930 . S
C292 C291 1.361 1_455 S
C292 C298 1.430 . S
H293 C289 0.931 . S
H294 C291 0.930 . S
S295 N296 1.613 . S
S295 N297 1.611 . S
N296 S295 1.613 . S
N296 C299 1.350 . S
N297 S295 1.611 . S
N297 C298 1.351 . S
C298 C292 1.430 . S
C298 N297 1.351 . S
C298 C299 1.434 . S
C299 C290 1.429 . S
C299 N296 1.350 . S
C299 C298 1.434 . S
C300 C301 1.369 1_545 S
C300 C302 1.419 . S
C300 H304 0.930 . S
C301 C300 1.369 1_565 S
C301 C310 1.429 . S
C302 C300 1.419 . S
C302 C303 1.371 . S
C302 H305 0.929 . S
C303 C302 1.371 . S
C303 C309 1.421 1_545 S
H304 C300 0.930 . S
H305 C302 0.929 . S
S306 N307 1.613 . S
S306 N308 1.610 . S
N307 S306 1.613 . S
N307 C310 1.350 . S
N308 S306 1.610 . S
N308 C309 1.351 . S
C309 C303 1.421 1_565 S
C309 N308 1.351 . S
C309 C310 1.434 . S
C310 C301 1.429 . S
C310 N307 1.350 . S
C310 C309 1.434 . S
C311 C312 1.369 . S
C311 C313 1.419 . S
C311 H315 0.930 . S
C312 C311 1.369 . S
C312 C321 1.429 . S
C313 C311 1.419 . S
C313 C314 1.363 . S
C313 H316 0.929 . S
C314 C313 1.363 . S
C314 C320 1.428 . S
H315 C311 0.930 . S
H316 C313 0.929 . S
S317 N318 1.613 . S
S317 N319 1.610 . S
N318 S317 1.613 . S
N318 C321 1.350 . S
N319 S317 1.610 . S
N319 C320 1.351 . S
C320 C314 1.428 . S
C320 N319 1.351 . S
C320 C321 1.434 . S
C321 C312 1.429 . S
C321 N318 1.350 . S
C321 C320 1.434 . S
C322 C323 1.369 . S
C322 C324 1.419 . S
C322 H326 0.930 . S
C323 C322 1.369 . S
C323 C332 1.429 . S
C324 C322 1.419 . S
C324 C325 1.363 . S
C324 H327 0.929 . S
C325 C324 1.363 . S
C325 C331 1.428 . S
H326 C322 0.930 . S
H327 C324 0.929 . S
S328 N329 1.613 . S
S328 N330 1.610 . S
N329 S328 1.613 . S
N329 C332 1.350 . S
N330 S328 1.610 . S
N330 C331 1.351 . S
C331 C325 1.428 . S
C331 N330 1.351 . S
C331 C332 1.434 . S
C332 C323 1.429 . S
C332 N329 1.350 . S
C332 C331 1.434 . S
C333 C334 1.370 . S
C333 C335 1.419 . S
C333 H337 0.930 . S
C334 C333 1.370 . S
C334 C343 1.428 1_655 S
C335 C333 1.419 . S
C335 C336 1.363 . S
C335 H338 0.929 . S
C336 C335 1.363 . S
C336 C342 1.427 1_655 S
H337 C333 0.930 . S
H338 C335 0.929 . S
S339 N340 1.613 . S
S339 N341 1.610 . S
N340 S339 1.613 . S
N340 C343 1.350 . S
N341 S339 1.610 . S
N341 C342 1.352 . S
C342 C336 1.427 1_455 S
C342 N341 1.352 . S
C342 C343 1.435 . S
C343 C334 1.428 1_455 S
C343 N340 1.350 . S
C343 C342 1.435 . S
C344 C345 1.366 1_455 S
C344 C346 1.419 1_455 S
C344 H348 0.930 . S
C345 C344 1.366 1_655 S
C345 C354 1.446 . S
C346 C344 1.419 1_655 S
C346 C347 1.363 . S
C346 H349 0.929 . S
C347 C346 1.363 . S
C347 C353 1.428 . S
H348 C344 0.930 . S
H349 C346 0.929 . S
S350 N351 1.613 . S
S350 N352 1.610 . S
N351 S350 1.613 . S
N351 C354 1.350 . S
N352 S350 1.610 . S
N352 C353 1.351 . S
C353 C347 1.428 . S
C353 N352 1.351 . S
C353 C354 1.434 . S
C354 C345 1.446 . S
C354 N351 1.350 . S
C354 C353 1.434 . S
C355 C356 1.374 . S
C355 C357 1.419 . S
C355 H359 0.930 . S
C356 C355 1.374 . S
C356 C365 1.429 1_565 S
C357 C355 1.419 . S
C357 C358 1.363 . S
C357 H360 0.929 . S
C358 C357 1.363 . S
C358 C364 1.428 . S
H359 C355 0.930 . S
H360 C357 0.929 . S
S361 N362 1.613 . S
S361 N363 1.610 1_545 S
N362 S361 1.613 . S
N362 C365 1.355 . S
N363 S361 1.610 1_565 S
N363 C364 1.351 . S
C364 C358 1.428 . S
C364 N363 1.351 . S
C364 C365 1.428 1_565 S
C365 C356 1.429 1_545 S
C365 N362 1.355 . S
C365 C364 1.428 1_545 S
C366 C367 1.369 . S
C366 C368 1.419 . S
C366 H370 0.930 . S
C367 C366 1.369 . S
C367 C376 1.429 . S
C368 C366 1.419 . S
C368 C369 1.363 . S
C368 H371 0.929 . S
C369 C368 1.363 . S
C369 C375 1.428 . S
H370 C366 0.930 . S
H371 C368 0.929 . S
S372 N373 1.613 . S
S372 N374 1.610 . S
N373 S372 1.613 . S
N373 C376 1.350 . S
N374 S372 1.610 . S
N374 C375 1.351 . S
C375 C369 1.428 . S
C375 N374 1.351 . S
C375 C376 1.434 . S
C376 C367 1.429 . S
C376 N373 1.350 . S
C376 C375 1.434 . S
C377 C378 1.369 . S
C377 C379 1.419 . S
C377 H381 0.930 . S
C378 C377 1.369 . S
C378 C387 1.429 . S
C379 C377 1.419 . S
C379 C380 1.363 . S
C379 H382 0.929 . S
C380 C379 1.363 . S
C380 C386 1.428 . S
H381 C377 0.930 . S
H382 C379 0.929 . S
S383 N384 1.613 . S
S383 N385 1.610 . S
N384 S383 1.613 . S
N384 C387 1.350 . S
N385 S383 1.610 . S
N385 C386 1.351 . S
C386 C380 1.428 . S
C386 N385 1.351 . S
C386 C387 1.434 . S
C387 C378 1.429 . S
C387 N384 1.350 . S
C387 C386 1.434 . S
C388 C389 1.362 1_655 S
C388 C390 1.419 1_655 S
C388 H392 0.930 . S
C389 C388 1.362 1_455 S
C389 C398 1.454 . S
C390 C388 1.419 1_455 S
C390 C391 1.363 . S
C390 H393 0.929 . S
C391 C390 1.363 . S
C391 C397 1.428 . S
H392 C388 0.930 . S
H393 C390 0.929 . S
S394 N395 1.613 . S
S394 N396 1.610 . S
N395 S394 1.613 . S
N395 C398 1.350 . S
N396 S394 1.610 . S
N396 C397 1.351 . S
C397 C391 1.428 . S
C397 N396 1.351 . S
C397 C398 1.434 . S
C398 C389 1.454 . S
C398 N395 1.350 . S
C398 C397 1.434 . S
C399 C400 1.369 . S
C399 C401 1.419 . S
C399 H403 0.930 1_545 S
C400 C399 1.369 . S
C400 C409 1.441 . S
C401 C399 1.419 . S
C401 C402 1.363 . S
C401 H404 0.929 . S
C402 C401 1.363 . S
C402 C408 1.428 . S
H403 C399 0.930 1_565 S
H404 C401 0.929 . S
S405 N406 1.613 . S
S405 N407 1.610 . S
N406 S405 1.613 . S
N406 C409 1.350 . S
N407 S405 1.610 . S
N407 C408 1.351 . S
C408 C402 1.428 . S
C408 N407 1.351 . S
C408 C409 1.434 . S
C409 C400 1.441 . S
C409 N406 1.350 . S
C409 C408 1.434 . S
C410 C411 1.369 . S
C410 C412 1.419 . S
C410 H414 0.930 . S
C411 C410 1.369 . S
C411 C420 1.429 . S
C412 C410 1.419 . S
C412 C413 1.363 . S
C412 H415 0.929 . S
C413 C412 1.363 . S
C413 C419 1.428 . S
H414 C410 0.930 . S
H415 C412 0.929 . S
S416 N417 1.613 . S
S416 N418 1.610 . S
N417 S416 1.613 . S
N417 C420 1.350 . S
N418 S416 1.610 . S
N418 C419 1.351 . S
C419 C413 1.428 . S
C419 N418 1.351 . S
C419 C420 1.434 . S
C420 C411 1.429 . S
C420 N417 1.350 . S
C420 C419 1.434 . S
C421 C422 1.369 . S
C421 C423 1.419 . S
C421 H425 0.930 . S
C422 C421 1.369 . S
C422 C431 1.429 . S
C423 C421 1.419 . S
C423 C424 1.363 . S
C423 H426 0.929 . S
C424 C423 1.363 . S
C424 C430 1.428 . S
H425 C421 0.930 . S
H426 C423 0.929 . S
S427 N428 1.613 . S
S427 N429 1.610 . S
N428 S427 1.613 . S
N428 C431 1.350 . S
N429 S427 1.610 . S
N429 C430 1.351 . S
C430 C424 1.428 . S
C430 N429 1.351 . S
C430 C431 1.434 . S
C431 C422 1.429 . S
C431 N428 1.350 . S
C431 C430 1.434 . S
C432 C433 1.369 1_655 S
C432 C434 1.419 . S
C432 H436 0.930 . S
C433 C432 1.369 1_455 S
C433 C442 1.429 . S
C434 C432 1.419 . S
C434 C435 1.363 1_655 S
C434 H437 0.929 . S
C435 C434 1.363 1_455 S
C435 C441 1.428 . S
H436 C432 0.930 . S
H437 C434 0.929 . S
S438 N439 1.613 . S
S438 N440 1.610 . S
N439 S438 1.613 . S
N439 C442 1.350 . S
N440 S438 1.610 . S
N440 C441 1.351 . S
C441 C435 1.428 . S
C441 N440 1.351 . S
C441 C442 1.434 . S
C442 C433 1.429 . S
C442 N439 1.350 . S
C442 C441 1.434 . S
C443 C444 1.369 . S
C443 C445 1.419 . S
C443 H447 0.930 . S
C444 C443 1.369 . S
C444 C453 1.429 1_545 S
C445 C443 1.419 . S
C445 C446 1.363 . S
C445 H448 0.929 . S
C446 C445 1.363 . S
C446 C452 1.428 1_545 S
H447 C443 0.930 . S
H448 C445 0.929 . S
S449 N450 1.613 . S
S449 N451 1.610 . S
N450 S449 1.613 . S
N450 C453 1.350 1_554 S
N451 S449 1.610 . S
N451 C452 1.351 1_554 S
C452 C446 1.428 1_565 S
C452 N451 1.351 1_556 S
C452 C453 1.434 . S
C453 C444 1.429 1_565 S
C453 N450 1.350 1_556 S
C453 C452 1.434 . S
C454 C455 1.369 . S
C454 C456 1.419 . S
C454 H458 0.930 . S
C455 C454 1.369 . S
C455 C464 1.429 . S
C456 C454 1.419 . S
C456 C457 1.363 . S
C456 H459 0.929 . S
C457 C456 1.363 . S
C457 C463 1.428 . S
H458 C454 0.930 . S
H459 C456 0.929 . S
S460 N461 1.613 1_554 S
S460 N462 1.610 1_554 S
N461 S460 1.613 1_556 S
N461 C464 1.350 . S
N462 S460 1.610 1_556 S
N462 C463 1.351 . S
C463 C457 1.428 . S
C463 N462 1.351 . S
C463 C464 1.434 . S
C464 C455 1.429 . S
C464 N461 1.350 . S
C464 C463 1.434 . S
C465 C466 1.369 . S
C465 C467 1.419 . S
C465 H469 0.930 . S
C466 C465 1.369 . S
C466 C475 1.429 . S
C467 C465 1.419 . S
C467 C468 1.363 . S
C467 H470 0.929 . S
C468 C467 1.363 . S
C468 C474 1.428 . S
H469 C465 0.930 . S
H470 C467 0.929 . S
S471 N472 1.613 . S
S471 N473 1.610 . S
N472 S471 1.613 . S
N472 C475 1.350 1_554 S
N473 S471 1.610 . S
N473 C474 1.351 1_554 S
C474 C468 1.428 . S
C474 N473 1.351 1_556 S
C474 C475 1.434 . S
C475 C466 1.429 . S
C475 N472 1.350 1_556 S
C475 C474 1.434 . S
C476 C477 1.369 1_455 S
C476 C478 1.419 . S
C476 H480 0.930 . S
C477 C476 1.369 1_655 S
C477 C486 1.429 . S
C478 C476 1.419 . S
C478 C479 1.363 1_455 S
C478 H481 0.929 . S
C479 C478 1.363 1_655 S
C479 C485 1.428 . S
H480 C476 0.930 . S
H481 C478 0.929 . S
S482 N483 1.613 . S
S482 N484 1.610 . S
N483 S482 1.613 . S
N483 C486 1.350 . S
N484 S482 1.610 . S
N484 C485 1.351 . S
C485 C479 1.428 . S
C485 N484 1.351 . S
C485 C486 1.434 . S
C486 C477 1.429 . S
C486 N483 1.350 . S
C486 C485 1.434 . S
C487 C488 1.369 . S
C487 C489 1.419 . S
C487 H491 0.930 . S
C488 C487 1.369 . S
C488 C497 1.429 1_565 S
C489 C487 1.419 . S
C489 C490 1.363 . S
C489 H492 0.929 . S
C490 C489 1.363 . S
C490 C496 1.428 1_565 S
H491 C487 0.930 . S
H492 C489 0.929 . S
S493 N494 1.613 1_554 S
S493 N495 1.610 1_554 S
N494 S493 1.613 1_556 S
N494 C497 1.350 . S
N495 S493 1.610 1_556 S
N495 C496 1.351 . S
C496 C490 1.428 1_545 S
C496 N495 1.351 . S
C496 C497 1.434 . S
C497 C488 1.429 1_545 S
C497 N494 1.350 . S
C497 C496 1.434 . S
C498 C499 1.369 . S
C498 C500 1.419 . S
C498 H502 0.930 . S
C499 C498 1.369 . S
C499 C508 1.429 . S
C500 C498 1.419 . S
C500 C501 1.363 . S
C500 H503 0.929 . S
C501 C500 1.363 . S
C501 C507 1.428 . S
H502 C498 0.930 . S
H503 C500 0.929 . S
S504 N505 1.613 1_554 S
S504 N506 1.610 1_554 S
N505 S504 1.613 1_556 S
N505 C508 1.350 . S
N506 S504 1.610 1_556 S
N506 C507 1.351 . S
C507 C501 1.428 . S
C507 N506 1.351 . S
C507 C508 1.434 . S
C508 C499 1.429 . S
C508 N505 1.350 . S
C508 C507 1.434 . S
C509 C510 1.369 . S
C509 C511 1.419 . S
C509 H513 0.930 . S
C510 C509 1.369 . S
C510 C519 1.429 . S
C511 C509 1.419 . S
C511 C512 1.363 . S
C511 H514 0.929 . S
C512 C511 1.363 . S
C512 C518 1.428 . S
H513 C509 0.930 . S
H514 C511 0.929 . S
S515 N516 1.613 . S
S515 N517 1.610 . S
N516 S515 1.613 . S
N516 C519 1.350 . S
N517 S515 1.610 . S
N517 C518 1.351 . S
C518 C512 1.428 . S
C518 N517 1.351 . S
C518 C519 1.434 . S
C519 C510 1.429 . S
C519 N516 1.350 . S
C519 C518 1.434 . S
C257 C76 1.908 . S
C259 C105 2.198 . S
C270 C145 2.221 . S
C268 C88 1.932 . S
C281 C185 2.235 . S
C279 C52 1.955 . S
C292 C225 2.211 1_455 S
C290 C64 1.925 1_455 S
C303 C114 2.200 1_554 S
C301 C28 1.915 . S
C312 C40 1.941 . S
C314 C154 2.222 1_554 S
C323 C4 1.955 . S
C325 C194 2.233 1_554 S
C334 C16 1.926 . S
C336 C234 2.212 1_654 S
C347 C111 0.777 . S
C345 C69 0.770 1_655 S
C358 C151 0.767 . S
C356 C81 0.764 1_565 S
C369 C191 0.766 . S
C367 C93 0.753 . S
C378 C57 0.752 . S
C380 C231 0.751 . S
C389 C21 0.759 . S
C391 C102 0.782 . S
C402 C142 0.771 . S
C400 C33 0.761 . S
C413 C182 0.767 . S
C411 C45 0.750 . S
C422 C9 0.764 . S
C424 C222 0.751 . S
C433 C66 2.266 . S
C435 C115 2.580 . S
C444 C78 2.206 . S
C446 C155 2.531 . S
C457 C195 2.515 . S
C455 C90 2.189 . S
C468 C235 2.564 . S
C466 C54 2.233 . S
C477 C18 2.270 1_655 S
C479 C106 2.589 . S
C490 C146 2.531 . S
C488 C30 2.226 1_565 S
C501 C186 2.514 . S
C499 C42 2.212 . S
C510 C6 2.262 . S
C512 C226 2.567 . S
