# Generated by pormake.
# Topology anh, (6,3)-cn, num edge types: 1
# Building blocks:
#     Node 0, Type 0, BuildingBlock: INOVEN_clean_sbu_0, # of connection points: 6
#     Node 1, Type 0, BuildingBlock: INOVEN_clean_sbu_0, # of connection points: 6
#     Node 2, Type 0, BuildingBlock: INOVEN_clean_sbu_0, # of connection points: 6
#     Node 3, Type 1, BuildingBlock: QEWDON_clean_linker_0, # of connection points: 3
#     Node 4, Type 1, BuildingBlock: QEWDON_clean_linker_0, # of connection points: 3
#     Node 5, Type 1, BuildingBlock: QEWDON_clean_linker_0, # of connection points: 3
#     Node 6, Type 1, BuildingBlock: QEWDON_clean_linker_0, # of connection points: 3
#     Node 7, Type 1, BuildingBlock: QEWDON_clean_linker_0, # of connection points: 3
#     Node 8, Type 1, BuildingBlock: QEWDON_clean_linker_0, # of connection points: 3
#     Edge 9, Type (0, 1), BuildingBlock: XUDNAN_clean_linker_2, # of connection points: 2
#     Edge 10, Type (0, 1), BuildingBlock: XUDNAN_clean_linker_2, # of connection points: 2
#     Edge 11, Type (0, 1), BuildingBlock: XUDNAN_clean_linker_2, # of connection points: 2
#     Edge 12, Type (0, 1), BuildingBlock: XUDNAN_clean_linker_2, # of connection points: 2
#     Edge 13, Type (0, 1), BuildingBlock: XUDNAN_clean_linker_2, # of connection points: 2
#     Edge 14, Type (0, 1), BuildingBlock: XUDNAN_clean_linker_2, # of connection points: 2
#     Edge 15, Type (0, 1), BuildingBlock: XUDNAN_clean_linker_2, # of connection points: 2
#     Edge 16, Type (0, 1), BuildingBlock: XUDNAN_clean_linker_2, # of connection points: 2
#     Edge 17, Type (0, 1), BuildingBlock: XUDNAN_clean_linker_2, # of connection points: 2
#     Edge 18, Type (0, 1), BuildingBlock: XUDNAN_clean_linker_2, # of connection points: 2
#     Edge 19, Type (0, 1), BuildingBlock: XUDNAN_clean_linker_2, # of connection points: 2
#     Edge 20, Type (0, 1), BuildingBlock: XUDNAN_clean_linker_2, # of connection points: 2
#     Edge 21, Type (0, 1), BuildingBlock: XUDNAN_clean_linker_2, # of connection points: 2
#     Edge 22, Type (0, 1), BuildingBlock: XUDNAN_clean_linker_2, # of connection points: 2
#     Edge 23, Type (0, 1), BuildingBlock: XUDNAN_clean_linker_2, # of connection points: 2
#     Edge 24, Type (0, 1), BuildingBlock: XUDNAN_clean_linker_2, # of connection points: 2
#     Edge 25, Type (0, 1), BuildingBlock: XUDNAN_clean_linker_2, # of connection points: 2
#     Edge 26, Type (0, 1), BuildingBlock: XUDNAN_clean_linker_2, # of connection points: 2
# Relax obj value: 0.130
# Max RMSD: 0.176
# Mean RMSD: 0.124
data_MOF--net-anh--node1-INOVEN_clean_sbu_0--node2-QEWDON_clean_linker_0--edge1-XUDNAN_clean_linker_2
_symmetry_space_group_name_H-M    P1
_symmetry_Int_Tables_number       1
_symmetry_cell_setting            triclinic
loop_
_symmetry_equiv_pos_as_xyz
'x, y, z'
_cell_length_a     34.268926
_cell_length_b     39.706093
_cell_length_c     48.317453
_cell_angle_alpha  96.860253
_cell_angle_beta   92.998339
_cell_angle_gamma 130.13419
loop_
_atom_site_label
_atom_site_type_symbol
_atom_site_fract_x
_atom_site_fract_y
_atom_site_fract_z
_atom_type_partial_charge
Gd0 Gd 0.09632 0.53335 0.14102 0.0
Gd1 Gd 1.03858 0.5598 0.16437 0.0
C2 C 0.15409 0.64134 0.15813 0.0
C3 C 0.14803 0.52499 0.10858 0.0
C4 C 0.19729 0.55546 0.09811 0.0
C5 C 0.24476 0.57818 0.11572 0.0
C6 C 0.1969 0.56001 0.06971 0.0
C7 C 0.28996 0.60386 0.07569 0.0
C8 C 0.2429 0.58427 0.05863 0.0
C9 C 0.29052 0.60206 0.10466 0.0
C10 C 0.10056 0.54018 0.19703 0.0
C11 C 0.98111 0.45198 0.15011 0.0
C12 C 0.97946 0.56209 0.19335 0.0
C13 C 0.92308 0.52729 0.19214 0.0
C14 C 0.88914 0.50954 0.1665 0.0
C15 C 0.90299 0.50913 0.21605 0.0
C16 C 0.81538 0.45796 0.18905 0.0
C17 C 0.84959 0.47467 0.21453 0.0
C18 C 0.83608 0.47562 0.16502 0.0
C19 C 1.03083 0.54716 0.10735 0.0
O20 O 0.15382 0.61013 0.14431 0.0
O21 O 0.11501 0.63015 0.17075 0.0
O22 O 0.15047 0.52311 0.13546 0.0
O23 O 0.11133 0.52463 0.09911 0.0
O24 O 0.09854 0.51046 0.18065 0.0
O25 O 0.10398 0.56706 0.18337 0.0
O26 O 0.9807 0.48376 0.16159 0.0
O27 O 1.02084 0.46233 0.1384 0.0
O28 O 0.99476 0.58088 0.17122 0.0
O29 O 1.00662 0.55213 0.20299 0.0
O30 O 1.03381 0.57842 0.12226 0.0
O31 O 1.02923 0.52348 0.12313 0.0
H32 H 0.24649 0.57573 0.13777 0.0
H33 H 0.16076 0.54318 0.05573 0.0
H34 H 0.24115 0.58537 0.03634 0.0
H35 H 0.32562 0.61589 0.11851 0.0
H36 H 0.90336 0.52213 0.14749 0.0
H37 H 0.92861 0.52166 0.23592 0.0
H38 H 0.83505 0.46166 0.23338 0.0
H39 H 0.81127 0.46475 0.14517 0.0
Gd40 Gd 0.66831 0.07545 0.48556 0.0
Gd41 Gd 0.6029 0.09735 0.47068 0.0
C42 C 0.54227 0.9952 0.47311 0.0
C43 C 0.71028 0.04585 0.50614 0.0
C44 C 0.69573 1.00319 0.51095 0.0
C45 C 0.7261 0.99276 0.50282 0.0
C46 C 0.65274 0.97299 0.52364 0.0
C47 C 0.67136 0.92286 0.52022 0.0
C48 C 0.6408 0.93329 0.52832 0.0
C49 C 0.71403 0.95304 0.50732 0.0
C50 C 0.65413 0.07541 0.43012 0.0
C51 C 0.7303 0.17803 0.48173 0.0
C52 C 0.5602 0.12673 0.451 0.0
C53 C 0.5633 0.16552 0.45932 0.0
C54 C 0.51753 0.15853 0.45621 0.0
C55 C 0.61012 0.20841 0.47217 0.0
C56 C 0.5643 0.23567 0.48042 0.0
C57 C 0.61066 0.24333 0.48245 0.0
C58 C 0.51797 0.19315 0.46668 0.0
C59 C 0.62168 0.10178 0.52681 0.0
O60 O 0.58694 1.01146 0.48752 0.0
O61 O 0.5402 0.02112 0.45943 0.0
O62 O 0.708 0.04988 0.47981 0.0
O63 O 0.69398 0.06251 0.52163 0.0
O64 O 0.69724 0.09074 0.44462 0.0
O65 O 0.61897 0.05889 0.44521 0.0
O66 O 0.68449 0.16403 0.47099 0.0
O67 O 0.73382 0.15058 0.49225 0.0
O68 O 0.5401 0.09798 0.46782 0.0
O69 O 0.60033 0.13452 0.44218 0.0
O70 O 0.57862 0.08822 0.51363 0.0
O71 O 0.65402 0.11548 0.51028 0.0
H72 H 0.7595 0.01558 0.49308 0.0
H73 H 0.62841 0.98004 0.52997 0.0
H74 H 0.60733 0.91052 0.53802 0.0
H75 H 0.73872 0.94636 0.50112 0.0
H76 H 0.48103 0.12577 0.4464 0.0
H77 H 0.64592 0.21454 0.47501 0.0
H78 H 0.64685 0.27564 0.4931 0.0
H79 H 0.48174 0.18637 0.46457 0.0
Gd80 Gd 0.66693 0.62555 0.84804 0.0
Gd81 Gd 0.59825 0.53023 0.85136 0.0
C82 C 0.5404 0.57395 0.85379 0.0
C83 C 0.7112 0.70194 0.83302 0.0
C84 C 0.70137 0.73189 0.82769 0.0
C85 C 0.73425 0.76609 0.81297 0.0
C86 C 0.66049 0.72744 0.83721 0.0
C87 C 0.68702 0.7925 0.81814 0.0
C88 C 0.65333 0.75746 0.83245 0.0
C89 C 0.7272 0.79604 0.80822 0.0
C90 C 0.66851 0.61 0.90055 0.0
C91 C 0.7262 0.58311 0.84898 0.0
C92 C 0.55682 0.45211 0.86239 0.0
C93 C 0.5673 0.42142 0.85675 0.0
C94 C 0.58925 0.4209 0.8331 0.0
C95 C 0.55551 0.39242 0.87517 0.0
C96 C 0.58632 0.36186 0.84604 0.0
C97 C 0.565 0.36298 0.86992 0.0
C98 C 0.5984 0.39126 0.82772 0.0
C99 C 0.59742 0.54527 0.79863 0.0
O100 O 0.58549 0.60898 0.84681 0.0
O101 O 0.53838 0.54043 0.8596 0.0
O102 O 0.71569 0.698 0.85924 0.0
O103 O 0.68499 0.66377 0.81497 0.0
O104 O 0.70977 0.64168 0.89135 0.0
O105 O 0.62878 0.5898 0.88212 0.0
O106 O 0.67956 0.54672 0.85349 0.0
O107 O 0.7295 0.61756 0.84405 0.0
O108 O 0.53934 0.45766 0.84027 0.0
O109 O 0.59196 0.48982 0.88052 0.0
O110 O 0.5562 0.51446 0.80806 0.0
O111 O 0.63725 0.56573 0.81704 0.0
H112 H 0.76577 0.76987 0.80526 0.0
H113 H 0.63456 0.70115 0.84857 0.0
H114 H 0.62219 0.75386 0.84055 0.0
H115 H 0.75326 0.82195 0.79666 0.0
H116 H 0.59928 0.4434 0.81875 0.0
H117 H 0.53876 0.3924 0.89358 0.0
H118 H 0.55489 0.34058 0.88434 0.0
H119 H 0.61554 0.39175 0.8094 0.0
H120 H 0.60603 0.08342 0.217 0.0
C121 C 0.57151 0.04928 0.20759 0.0
C122 C 0.54954 0.01622 0.22428 0.0
C123 C 0.54755 0.0396 0.17982 0.0
H124 H 0.48618 0.94703 0.22587 0.0
C125 C 0.50325 0.97228 0.21286 0.0
C126 C 0.4778 0.96092 0.18523 0.0
C127 C 0.50025 0.99485 0.16884 0.0
C128 C 0.56927 0.07738 0.16382 0.0
H129 H 0.48061 0.9862 0.14758 0.0
C130 C 0.62348 0.11549 0.16716 0.0
C131 C 0.64188 0.15238 0.15383 0.0
C132 C 0.53472 0.07699 0.1464 0.0
H133 H 0.49329 0.04968 0.14372 0.0
C134 C 0.55265 0.11257 0.1329 0.0
H135 H 0.65118 0.11684 0.18032 0.0
C136 C 0.60537 0.14981 0.13661 0.0
H137 H 0.61763 0.17659 0.12558 0.0
H138 H 0.52527 0.1115 0.11963 0.0
H139 H 0.59776 0.59262 0.58519 0.0
C140 C 0.60017 0.56725 0.57786 0.0
C141 C 0.6042 0.54617 0.59778 0.0
C142 C 0.59693 0.55439 0.54873 0.0
H143 H 0.60414 0.49324 0.60364 0.0
C144 C 0.60366 0.51107 0.58845 0.0
C145 C 0.59874 0.49648 0.55958 0.0
C146 C 0.59751 0.51937 0.53997 0.0
C147 C 0.58815 0.57454 0.52748 0.0
H148 H 0.59451 0.50824 0.51779 0.0
C149 C 0.60691 0.61896 0.53426 0.0
C150 C 0.59528 0.63643 0.5148 0.0
C151 C 0.55819 0.54839 0.50056 0.0
H152 H 0.54122 0.51375 0.49462 0.0
C153 C 0.54785 0.56595 0.48102 0.0
H154 H 0.63075 0.6402 0.55456 0.0
C155 C 0.56598 0.60945 0.48804 0.0
H156 H 0.55562 0.62143 0.47274 0.0
H157 H 0.52453 0.54526 0.46051 0.0
H158 H 0.13091 0.56457 0.90342 0.0
C159 C 0.10519 0.5677 0.89268 0.0
C160 C 0.06796 0.56352 0.90732 0.0
C161 C 0.11136 0.57761 0.86543 0.0
H162 H 1.0057 0.56377 0.90752 0.0
C163 C 1.03291 0.56719 0.89494 0.0
C164 C 1.03227 0.57597 0.86769 0.0
C165 C 0.07356 0.58209 0.85313 0.0
C166 C 0.15837 0.58461 0.8518 0.0
H167 H 0.07546 0.58973 0.83228 0.0
C168 C 0.19421 0.57683 0.86222 0.0
C169 C 0.23791 0.58683 0.84787 0.0
C170 C 0.16898 0.60164 0.82688 0.0
H171 H 0.14648 0.60891 0.8175 0.0
C172 C 0.20879 0.61047 0.81315 0.0
H173 H 0.1886 0.56352 0.88127 0.0
C174 C 0.24166 0.60341 0.8231 0.0
H175 H 0.27014 0.6104 0.81028 0.0
H176 H 0.2144 0.62333 0.79386 0.0
H177 H 0.08065 0.55466 0.41401 0.0
C178 C 0.11659 0.58834 0.42287 0.0
C179 C 0.14985 0.61496 0.40453 0.0
C180 C 0.12783 0.60524 0.45207 0.0
H181 H 0.22116 0.67951 0.40127 0.0
C182 C 0.19515 0.65962 0.41547 0.0
C183 C 0.20853 0.67817 0.44456 0.0
C184 C 0.17466 0.65042 0.46278 0.0
C185 C 0.08815 0.57681 0.47045 0.0
H186 H 0.18455 0.66423 0.48523 0.0
C187 C 0.05493 0.52876 0.46531 0.0
C188 C 1.01417 0.50285 0.48107 0.0
C189 C 0.08029 0.59782 0.49215 0.0
H190 H 0.1035 0.63391 0.4965 0.0
C191 C 1.041 0.57263 0.50789 0.0
H192 H 0.06015 0.5115 0.44893 0.0
C193 C 1.00816 0.52585 0.50235 0.0
H194 H 0.97826 0.50755 0.51514 0.0
H195 H 1.03554 0.58957 0.52439 0.0
H196 H 0.60624 0.04057 0.73094 0.0
C197 C 0.60886 0.06707 0.74286 0.0
C198 C 0.62184 0.10242 0.73015 0.0
C199 C 0.59618 0.06447 0.77018 0.0
H200 H 0.63407 0.16335 0.73517 0.0
C201 C 0.6235 0.13602 0.7451 0.0
C202 C 0.61252 0.13489 0.77278 0.0
C203 C 0.59875 0.09883 0.78504 0.0
C204 C 0.57628 0.02439 0.78255 0.0
H205 H 0.58889 0.09691 0.80607 0.0
C206 C 0.60066 1.00616 0.7818 0.0
C207 C 0.58133 0.96848 0.7941 0.0
C208 C 0.53189 1.00398 0.79527 0.0
H209 H 0.51175 0.01661 0.79576 0.0
C210 C 0.51256 0.96681 0.80729 0.0
H211 H 0.6347 0.02149 0.77188 0.0
C212 C 0.53709 0.94932 0.80688 0.0
H213 H 0.5218 0.92119 0.81714 0.0
H214 H 0.47852 0.95163 0.81716 0.0
H215 H 0.57891 0.53043 0.07097 0.0
C216 C 0.57491 0.50581 0.08128 0.0
C217 C 0.59503 0.48669 0.07035 0.0
C218 C 0.55204 0.49499 0.1056 0.0
H219 H 0.61609 0.44776 0.07756 0.0
C220 C 0.59632 0.45904 0.08511 0.0
C221 C 0.57372 0.44761 0.10982 0.0
C222 C 0.54902 0.46382 0.1187 0.0
C223 C 0.53445 0.51845 0.11811 0.0
H224 H 0.5286 0.45324 0.13642 0.0
C225 C 0.51652 0.53349 0.1007 0.0
C226 C 0.50381 0.55885 0.11226 0.0
C227 C 0.53845 0.52848 0.14761 0.0
H228 H 0.55344 0.51874 0.16187 0.0
C229 C 0.52444 0.55249 0.15924 0.0
H230 H 0.513 0.52594 0.078 0.0
C231 C 0.50725 0.56761 0.14178 0.0
H232 H 0.49611 0.58569 0.15148 0.0
H233 H 0.52737 0.55976 0.18194 0.0
H234 H 0.39284 0.67205 0.09735 0.0
H235 H 0.28856 0.56209 0.02593 0.0
H236 H 0.35486 0.55778 0.01781 0.0
H237 H 0.52532 0.70984 0.07266 0.0
H238 H 0.55038 0.72006 0.10925 0.0
H239 H 0.51059 0.73332 0.09997 0.0
H240 H 0.44994 0.68443 0.13379 0.0
H241 H 0.48786 0.66971 0.14247 0.0
H242 H 0.41973 0.62595 0.12845 0.0
H243 H 0.40557 0.53866 0.03107 0.0
H244 H 0.44387 0.51634 0.05921 0.0
H245 H 0.5213 0.63747 0.12306 0.0
C246 C 0.38543 0.6489 0.07907 0.0
C247 C 0.33522 0.61669 0.06286 0.0
C248 C 0.3266 0.58723 0.0388 0.0
C249 C 0.36433 0.58438 0.03406 0.0
C250 C 0.4105 0.61142 0.05338 0.0
C251 C 0.42233 0.64468 0.07487 0.0
C252 C 0.46778 0.66151 0.09672 0.0
C253 C 0.51641 0.709 0.0945 0.0
C254 C 0.45548 0.66021 0.12709 0.0
C255 C 0.47345 0.62747 0.08676 0.0
C256 C 0.4419 0.60034 0.06102 0.0
C257 C 0.43248 0.56104 0.05044 0.0
C258 C 0.45445 0.54847 0.06677 0.0
C259 C 0.48599 0.57524 0.09346 0.0
C260 C 0.49722 0.61617 0.10283 0.0
H261 H 0.7425 0.25383 0.4781 0.0
H262 H 0.82901 0.20921 0.48372 0.0
H263 H 0.90911 0.28512 0.4809 0.0
H264 H 0.81258 0.32958 0.43003 0.0
H265 H 0.81152 0.37168 0.44744 0.0
H266 H 0.76041 0.31339 0.44872 0.0
H267 H 0.77803 0.33346 0.50337 0.0
H268 H 0.82891 0.39183 0.50231 0.0
H269 H 0.84245 0.36384 0.5222 0.0
H270 H 0.98112 0.36719 0.47643 0.0
H271 H 1.0389 0.44888 0.47663 0.0
H272 H 0.90728 0.44179 0.47661 0.0
C273 C 0.77824 0.25995 0.47867 0.0
C274 C 0.77895 0.22499 0.48103 0.0
C275 C 0.82702 0.23504 0.48202 0.0
C276 C 0.8729 0.2782 0.48026 0.0
C277 C 0.87085 0.31176 0.47784 0.0
C278 C 0.82481 0.30328 0.47747 0.0
C279 C 0.83368 0.34589 0.47623 0.0
C280 C 0.8027 0.33975 0.44898 0.0
C281 C 0.81996 0.35956 0.5026 0.0
C282 C 0.89176 0.37959 0.47595 0.0
C283 C 0.9124 0.35911 0.47646 0.0
C284 C 0.9652 0.38346 0.47612 0.0
C285 C 0.99783 0.42993 0.47598 0.0
C286 C 0.97808 0.4522 0.47662 0.0
C287 C 0.92394 0.42609 0.4762 0.0
H288 H 0.59701 0.77758 0.8043 0.0
H289 H 0.76434 0.88356 0.82311 0.0
H290 H 0.75593 0.93926 0.81608 0.0
H291 H 0.5744 0.82197 0.7504 0.0
H292 H 0.51569 0.80568 0.76116 0.0
H293 H 0.5348 0.77371 0.76667 0.0
H294 H 0.53129 0.78532 0.82009 0.0
H295 H 0.51195 0.81715 0.81475 0.0
H296 H 0.5683 0.84157 0.84035 0.0
H297 H 0.72924 0.98424 0.80861 0.0
H298 H 0.68606 0.01484 0.80276 0.0
H299 H 0.53634 0.87955 0.78795 0.0
C300 C 0.63191 0.8125 0.80704 0.0
C301 C 0.68139 0.82598 0.81407 0.0
C302 C 0.72602 0.87211 0.81723 0.0
C303 C 0.72166 0.90412 0.8134 0.0
C304 C 0.67239 0.88967 0.80636 0.0
C305 C 0.62829 0.84496 0.80324 0.0
C306 C 0.5799 0.83843 0.79619 0.0
C307 C 0.54941 0.80816 0.76686 0.0
C308 C 0.54587 0.81951 0.81922 0.0
C309 C 0.60368 0.8865 0.79622 0.0
C310 C 0.65708 0.91553 0.80198 0.0
C311 C 0.68742 0.96175 0.80387 0.0
C312 C 0.66251 0.97882 0.80028 0.0
C313 C 0.6077 0.9498 0.79488 0.0
C314 C 0.57825 0.90289 0.79236 0.0
H315 H 0.73902 0.39104 0.14531 0.0
H316 H 0.76332 0.45846 0.22995 0.0
H317 H 0.67627 0.43258 0.22111 0.0
H318 H 0.70555 0.43289 0.11392 0.0
H319 H 0.65477 0.38718 0.08586 0.0
H320 H 0.70179 0.38589 0.10189 0.0
H321 H 0.63005 0.30919 0.11479 0.0
H322 H 0.58196 0.30942 0.09798 0.0
H323 H 0.58245 0.30225 0.13409 0.0
H324 H 0.61398 0.43404 0.19891 0.0
H325 H 0.58084 0.45694 0.16782 0.0
H326 H 0.58817 0.38715 0.09466 0.0
C327 C 0.72475 0.39829 0.16236 0.0
C328 C 0.75839 0.42754 0.18803 0.0
C329 C 0.73853 0.43601 0.21008 0.0
C330 C 0.68872 0.42137 0.20516 0.0
C331 C 0.65917 0.39821 0.17815 0.0
C332 C 0.67572 0.38527 0.15721 0.0
C333 C 0.64401 0.3712 0.12838 0.0
C334 C 0.67862 0.39583 0.10629 0.0
C335 C 0.60742 0.31996 0.11822 0.0
C336 C 0.61376 0.38575 0.13571 0.0
C337 C 0.6208 0.39871 0.1647 0.0
C338 C 0.6061 0.42207 0.17631 0.0
C339 C 0.5869 0.43498 0.15814 0.0
C340 C 0.58165 0.42414 0.12833 0.0
C341 C 0.59219 0.39662 0.11721 0.0
H342 H 0.44636 0.93783 0.43656 0.0
H343 H 0.52942 0.94397 0.51072 0.0
H344 H 0.45295 0.86645 0.51291 0.0
H345 H 0.3188 0.86909 0.45759 0.0
H346 H 0.28439 0.83629 0.42247 0.0
H347 H 0.3449 0.89324 0.42715 0.0
H348 H 0.38208 0.86563 0.396 0.0
H349 H 0.32164 0.80865 0.39115 0.0
H350 H 0.38124 0.82243 0.40505 0.0
H351 H 0.36641 0.7871 0.50747 0.0
H352 H 0.28018 0.71118 0.49232 0.0
H353 H 0.25246 0.75378 0.4208 0.0
C354 C 0.44834 0.92296 0.45335 0.0
C355 C 0.49445 0.94767 0.47355 0.0
C356 C 0.49511 0.92628 0.49491 0.0
C357 C 0.45154 0.88204 0.49644 0.0
C358 C 0.40694 0.85866 0.4763 0.0
C359 C 0.40508 0.87818 0.45497 0.0
C360 C 0.35286 0.84466 0.4353 0.0
C361 C 0.32351 0.86185 0.43565 0.0
C362 C 0.35989 0.83476 0.40509 0.0
C363 C 0.32591 0.80346 0.44886 0.0
C364 C 0.35763 0.81247 0.47269 0.0
C365 C 0.34131 0.77977 0.48881 0.0
C366 C 0.29188 0.73663 0.48015 0.0
C367 C 0.2589 0.72586 0.45533 0.0
C368 C 0.27648 0.76036 0.43977 0.0
H369 H 0.56598 0.30948 0.79511 0.0
H370 H 0.62831 0.34248 0.88404 0.0
H371 H 0.64306 0.28919 0.8749 0.0
H372 H 0.4992 0.19198 0.78462 0.0
H373 H 0.51307 0.18824 0.74946 0.0
H374 H 0.50864 0.2298 0.76287 0.0
H375 H 0.6006 0.29268 0.75275 0.0
H376 H 0.60531 0.25129 0.73932 0.0
H377 H 0.65403 0.29786 0.76758 0.0
H378 H 0.65076 0.23197 0.85607 0.0
H379 H 0.64944 0.17424 0.82923 0.0
H380 H 0.58028 0.17714 0.75265 0.0
C381 C 0.58323 0.30585 0.81262 0.0
C382 C 0.59597 0.33023 0.84033 0.0
C383 C 0.61771 0.32389 0.86271 0.0
C384 C 0.62651 0.29387 0.85769 0.0
C385 C 0.61327 0.27025 0.83017 0.0
C386 C 0.59201 0.27582 0.80801 0.0
C387 C 0.58017 0.24558 0.78054 0.0
C388 C 0.5218 0.2119 0.76869 0.0
C389 C 0.61193 0.27353 0.75876 0.0
C390 C 0.59802 0.22208 0.79072 0.0
C391 C 0.61715 0.23692 0.81939 0.0
C392 C 0.63569 0.22 0.83362 0.0
C393 C 0.63444 0.18694 0.81819 0.0
C394 C 0.61457 0.1708 0.78877 0.0
C395 C 0.59633 0.18897 0.77499 0.0
H396 H 0.67222 0.86433 0.48416 0.0
H397 H 0.64321 0.8865 0.56788 0.0
H398 H 0.62476 0.81771 0.57667 0.0
H399 H 0.57213 0.74476 0.46901 0.0
H400 H 0.60916 0.73511 0.45019 0.0
H401 H 0.62127 0.78661 0.45097 0.0
H402 H 0.71805 0.83246 0.47114 0.0
H403 H 0.70618 0.78106 0.47053 0.0
H404 H 0.73507 0.82212 0.50304 0.0
H405 H 0.6091 0.74576 0.57609 0.0
H406 H 0.592 0.67444 0.56501 0.0
H407 H 0.63236 0.70022 0.48188 0.0
C408 C 0.66245 0.85498 0.50446 0.0
C409 C 0.65933 0.88096 0.52537 0.0
C410 C 0.64542 0.86698 0.55144 0.0
C411 C 0.63526 0.82813 0.5567 0.0
C412 C 0.639 0.80347 0.53567 0.0
C413 C 0.65198 0.81624 0.51 0.0
C414 C 0.65176 0.7832 0.49057 0.0
C415 C 0.61116 0.76111 0.4636 0.0
C416 C 0.706 0.80609 0.48341 0.0
C417 C 0.63642 0.74968 0.50923 0.0
C418 C 0.6296 0.76208 0.53525 0.0
C419 C 0.61456 0.73586 0.55581 0.0
C420 C 0.60533 0.69554 0.54941 0.0
C421 C 0.61086 0.68161 0.52259 0.0
C422 C 0.6274 0.70964 0.50251 0.0
H423 H 0.75342 0.53139 0.87012 0.0
H424 H 0.81738 0.64216 0.82702 0.0
H425 H 0.89503 0.65048 0.82472 0.0
H426 H 0.87921 0.58095 0.91269 0.0
H427 H 0.8645 0.52816 0.91102 0.0
H428 H 0.81285 0.5295 0.90852 0.0
H429 H 0.76962 0.47247 0.86122 0.0
H430 H 0.82123 0.47105 0.86358 0.0
H431 H 0.80615 0.48466 0.83277 0.0
H432 H 0.97347 0.64608 0.8263 0.0
H433 H 1.03508 0.63361 0.83515 0.0
H434 H 0.92657 0.52838 0.87923 0.0
C435 C 0.78338 0.55752 0.86 0.0
C436 C 0.77579 0.58586 0.8485 0.0
C437 C 0.81891 0.61932 0.83609 0.0
C438 C 0.86449 0.62439 0.83462 0.0
C439 C 0.87046 0.59638 0.84595 0.0
C440 C 0.83067 0.56366 0.85876 0.0
C441 C 0.84759 0.53884 0.87025 0.0
C442 C 0.85122 0.54468 0.90254 0.0
C443 C 0.80882 0.48877 0.85613 0.0
C444 C 0.90225 0.56205 0.86202 0.0
C445 C 0.91465 0.59506 0.84767 0.0
C446 C 0.96286 0.62015 0.83772 0.0
C447 C 0.99856 0.61247 0.84271 0.0
C448 C 0.98892 0.57979 0.85813 0.0
C449 C 0.93827 0.55427 0.86751 0.0
H450 H 0.26066 0.69072 0.16943 0.0
H451 H 0.14623 0.70277 0.14821 0.0
H452 H 0.21618 0.78376 0.14895 0.0
H453 H 0.34655 0.79613 0.21946 0.0
H454 H 0.40517 0.80944 0.21103 0.0
H455 H 0.34642 0.75162 0.20624 0.0
H456 H 0.35413 0.73819 0.15381 0.0
H457 H 0.41285 0.79607 0.15843 0.0
H458 H 0.35932 0.77335 0.13111 0.0
H459 H 0.29916 0.86424 0.15169 0.0
H460 H 0.38747 0.93903 0.16235 0.0
H461 H 0.44932 0.87782 0.18625 0.0
C462 C 0.25049 0.7104 0.16463 0.0
C463 C 0.19772 0.69012 0.15839 0.0
C464 C 0.18616 0.71737 0.15293 0.0
C465 C 0.22575 0.76347 0.15318 0.0
C466 C 0.27727 0.78258 0.15951 0.0
C467 C 0.28982 0.75709 0.16562 0.0
C468 C 0.34831 0.78689 0.17402 0.0
C469 C 0.36243 0.78596 0.2045 0.0
C470 C 0.36992 0.77278 0.15309 0.0
C471 C 0.36656 0.83294 0.17173 0.0
C472 C 0.32495 0.82948 0.16276 0.0
C473 C 0.33196 0.86726 0.15879 0.0
C474 C 0.38242 0.9097 0.1647 0.0
C475 C 0.42564 0.91463 0.17505 0.0
C476 C 0.41725 0.87535 0.17833 0.0
H477 H 0.62736 0.32597 0.47778 0.0
H478 H 0.49823 0.22328 0.51529 0.0
H479 H 0.49385 0.2789 0.53916 0.0
H480 H 0.68847 0.41805 0.53784 0.0
H481 H 0.70704 0.45928 0.51673 0.0
H482 H 0.70095 0.41169 0.50264 0.0
H483 H 0.63595 0.3905 0.45944 0.0
H484 H 0.64178 0.43799 0.47341 0.0
H485 H 0.57894 0.38227 0.46506 0.0
H486 H 0.50348 0.34448 0.55952 0.0
H487 H 0.52474 0.4169 0.57434 0.0
H488 H 0.64613 0.47871 0.52308 0.0
C489 C 0.59836 0.3154 0.49111 0.0
C490 C 0.56292 0.2702 0.49458 0.0
C491 C 0.52529 0.25751 0.51205 0.0
C492 C 0.52266 0.28892 0.5258 0.0
C493 C 0.55773 0.33299 0.52182 0.0
C494 C 0.59474 0.34638 0.50483 0.0
C495 C 0.62696 0.3959 0.5039 0.0
C496 C 0.68425 0.42282 0.516 0.0
C497 C 0.6205 0.40201 0.47365 0.0
C498 C 0.60234 0.4081 0.52312 0.0
C499 C 0.56268 0.37117 0.53328 0.0
C500 C 0.53442 0.37366 0.55173 0.0
C501 C 0.54696 0.415 0.56012 0.0
C502 C 0.58728 0.45346 0.55003 0.0
C503 C 0.61507 0.44982 0.53106 0.0
H504 H 0.5142 0.62885 0.8374 0.0
H505 H 0.44893 0.5126 0.87499 0.0
H506 H 0.37175 0.5043 0.87946 0.0
H507 H 0.46296 0.67292 0.87999 0.0
H508 H 0.44866 0.69046 0.85128 0.0
H509 H 0.49952 0.68815 0.85138 0.0
H510 H 0.45593 0.63589 0.80231 0.0
H511 H 0.40498 0.63808 0.80206 0.0
H512 H 0.38925 0.58459 0.79701 0.0
H513 H 0.2932 0.50884 0.88051 0.0
H514 H 0.23268 0.52317 0.87509 0.0
H515 H 0.34416 0.63554 0.83639 0.0
C516 C 0.48403 0.60145 0.84672 0.0
C517 C 0.49114 0.57151 0.85588 0.0
C518 C 0.44783 0.53669 0.86757 0.0
C519 C 0.40246 0.5316 0.8703 0.0
C520 C 0.39694 0.56116 0.86121 0.0
C521 C 0.43711 0.59552 0.84941 0.0
C522 C 0.42105 0.62233 0.84069 0.0
C523 C 0.46041 0.67139 0.85677 0.0
C524 C 0.41763 0.62012 0.80861 0.0
C525 C 0.36642 0.5983 0.84928 0.0
C526 C 0.35315 0.56303 0.86131 0.0
C527 C 0.30457 0.53662 0.87092 0.0
C528 C 0.26945 0.54536 0.86793 0.0
C529 C 0.2801 0.58063 0.85505 0.0
C530 C 0.33122 0.60742 0.84604 0.0
H531 H 0.88212 0.4147 0.15864 0.0
H532 H 0.97627 0.37939 0.1426 0.0
H533 H 0.9023 0.30041 0.14481 0.0
H534 H 0.80943 0.34034 0.20675 0.0
H535 H 0.74975 0.32632 0.19268 0.0
H536 H 0.81093 0.37997 0.19096 0.0
H537 H 0.78489 0.36379 0.13635 0.0
H538 H 0.72333 0.31089 0.13876 0.0
H539 H 0.76352 0.31223 0.11544 0.0
H540 H 0.81624 0.22373 0.14947 0.0
H541 H 0.72551 0.1569 0.15109 0.0
H542 H 0.68684 0.24177 0.16231 0.0
C543 C 0.88736 0.39044 0.15565 0.0
C544 C 0.93557 0.40372 0.15054 0.0
C545 C 0.94006 0.37043 0.14647 0.0
C546 C 0.89815 0.32535 0.14784 0.0
C547 C 0.85133 0.31347 0.15303 0.0
C548 C 0.84561 0.34509 0.15652 0.0
C549 C 0.79057 0.32335 0.16043 0.0
C550 C 0.79016 0.3437 0.18944 0.0
C551 C 0.76397 0.32781 0.13631 0.0
C552 C 0.7662 0.27464 0.15879 0.0
C553 C 0.80193 0.26959 0.15479 0.0
C554 C 0.78808 0.22749 0.15256 0.0
C555 C 0.73639 0.1896 0.15374 0.0
C556 C 0.69851 0.19357 0.15679 0.0
C557 C 0.71442 0.23714 0.15978 0.0
H558 H 1.05169 0.60398 0.07137 0.0
H559 H 1.0124 0.47653 0.0738 0.0
H560 H 1.02214 0.46875 0.02374 0.0
H561 H 0.98118 0.56897 0.00028 0.0
H562 H 1.02808 0.62324 0.99128 0.0
H563 H 1.01922 0.6192 0.02752 0.0
H564 H 0.11715 0.66326 0.0423 0.0
H565 H 0.12621 0.66702 0.00605 0.0
H566 H 0.14588 0.64277 0.02547 0.0
H567 H 1.03962 0.47623 0.97373 0.0
H568 H 0.05295 0.49403 0.92582 0.0
H569 H 0.07536 0.61389 0.95479 0.0
C570 C 1.04485 0.57434 0.06127 0.0
C571 C 1.03235 0.54129 0.07663 0.0
C572 C 1.02306 0.50272 0.06259 0.0
C573 C 1.02849 0.49798 0.03415 0.0
C574 C 1.04218 0.53167 0.01976 0.0
C575 C 1.04931 0.56872 0.03267 0.0
C576 C 0.06193 0.5992 0.01206 0.0
C577 C 1.0201 0.60285 0.00752 0.0
C578 C 0.11601 0.64582 0.02207 0.0
C579 C 0.06081 0.57354 0.98563 0.0
C580 C 1.05003 0.53498 0.99062 0.0
C581 C 1.04778 0.50621 0.96953 0.0
C582 C 0.05569 0.51666 0.94247 0.0
C583 C 0.06504 0.55518 0.93667 0.0
C584 C 0.06806 0.5841 0.95867 0.0
H585 H 0.56328 0.03149 0.39242 0.0
H586 H 0.72923 0.1116 0.39793 0.0
H587 H 0.72013 0.10467 0.34626 0.0
H588 H 0.5259 0.95459 0.32807 0.0
H589 H 0.47335 0.95093 0.31379 0.0
H590 H 0.49237 0.96292 0.35153 0.0
H591 H 0.50584 0.03559 0.35602 0.0
H592 H 0.48652 0.02366 0.3183 0.0
H593 H 0.54815 0.07675 0.33541 0.0
H594 H 0.69412 0.08871 0.29433 0.0
H595 H 0.65203 0.06536 0.2446 0.0
H596 H 0.50265 0.99525 0.27155 0.0
C597 C 0.59759 0.0477 0.38267 0.0
C598 C 0.64696 0.07198 0.39916 0.0
C599 C 0.691 0.0927 0.38571 0.0
C600 C 0.68629 0.08899 0.35635 0.0
C601 C 0.63722 0.06445 0.34061 0.0
C602 C 0.59358 0.04425 0.35317 0.0
C603 C 0.54547 0.01964 0.33104 0.0
C604 C 0.50701 0.96901 0.33112 0.0
C605 C 0.52 0.04014 0.33546 0.0
C606 C 0.56903 0.02891 0.3042 0.0
C607 C 0.62204 0.05498 0.31032 0.0
C608 C 0.65261 0.06836 0.28922 0.0
C609 C 0.62842 0.05504 0.26107 0.0
C610 C 0.57415 0.02846 0.25418 0.0
C611 C 0.54414 0.01508 0.27612 0.0
H612 H 0.66617 0.56524 0.76293 0.0
H613 H 0.52588 0.54305 0.76971 0.0
H614 H 0.51959 0.55168 0.72023 0.0
H615 H 0.7172 0.64412 0.71298 0.0
H616 H 0.73883 0.61895 0.69335 0.0
H617 H 0.7376 0.61899 0.73061 0.0
H618 H 0.68001 0.53234 0.72021 0.0
H619 H 0.68105 0.53204 0.68301 0.0
H620 H 0.62001 0.49819 0.69552 0.0
H621 H 0.52457 0.55685 0.66938 0.0
H622 H 0.5352 0.55042 0.61935 0.0
H623 H 0.66854 0.56353 0.64422 0.0
C624 C 0.63503 0.56346 0.7541 0.0
C625 C 0.5969 0.55424 0.77002 0.0
C626 C 0.55558 0.55046 0.75772 0.0
C627 C 0.55189 0.55556 0.72975 0.0
C628 C 0.58948 0.56376 0.71429 0.0
C629 C 0.63001 0.56724 0.72589 0.0
C630 C 0.6613 0.57038 0.70367 0.0
C631 C 0.71704 0.61583 0.71057 0.0
C632 C 0.66051 0.53088 0.70041 0.0
C633 C 0.6313 0.56702 0.67769 0.0
C634 C 0.59083 0.56439 0.68444 0.0
C635 C 0.55645 0.55936 0.66386 0.0
C636 C 0.5629 0.55594 0.63553 0.0
C637 C 0.60285 0.55678 0.62802 0.0
C638 C 0.63789 0.56309 0.64947 0.0
H639 H 0.55833 0.08429 0.56527 0.0
H640 H 0.70959 0.12771 0.55776 0.0
H641 H 0.72543 0.13027 0.6089 0.0
H642 H 0.59901 0.15648 0.63289 0.0
H643 H 0.53917 0.11613 0.64524 0.0
H644 H 0.53941 0.1161 0.60798 0.0
H645 H 0.49648 0.0322 0.59821 0.0
H646 H 0.4963 0.03201 0.63546 0.0
H647 H 0.52688 0.01527 0.6163 0.0
H648 H 0.72301 0.12569 0.66104 0.0
H649 H 0.70574 0.12095 0.71036 0.0
H650 H 0.55906 0.08606 0.68389 0.0
C651 C 0.59478 0.09429 0.57438 0.0
C652 C 0.63245 0.10508 0.55751 0.0
C653 C 0.6799 0.11858 0.57024 0.0
C654 C 0.68924 0.12022 0.59926 0.0
C655 C 0.65102 0.10895 0.61529 0.0
C656 C 0.60503 0.09684 0.60332 0.0
C657 C 0.57103 0.08798 0.62525 0.0
C658 C 0.56163 0.12116 0.628 0.0
C659 C 0.51964 0.03895 0.61839 0.0
C660 C 0.60489 0.0968 0.65146 0.0
C661 C 0.65067 0.10837 0.64529 0.0
C662 C 0.68748 0.11698 0.66611 0.0
C663 C 0.6774 0.11412 0.69396 0.0
C664 C 0.63132 0.10337 0.70066 0.0
C665 C 0.5947 0.09457 0.67916 0.0
H666 H 0.58486 0.5454 0.92232 0.0
H667 H 0.75269 0.63746 0.93659 0.0
H668 H 0.75204 0.60753 0.97891 0.0
H669 H 0.57038 0.55504 -0.00679 0.0
H670 H 0.51305 0.49679 0.98956 0.0
H671 H 0.52786 0.52339 0.95954 0.0
H672 H 0.52418 0.46133 0.93122 0.0
H673 H 0.51023 0.43492 0.96143 0.0
H674 H 0.56488 0.45126 0.94522 0.0
H675 H 0.73241 0.57057 0.02161 0.0
H676 H 0.69581 0.53515 0.0628 0.0
H677 H 0.54149 0.46714 0.01942 0.0
C678 C 0.62148 0.55904 0.93425 0.0
C679 C 0.66881 0.59359 0.92627 0.0
C680 C 0.71598 0.61094 0.94247 0.0
C681 C 0.71595 0.59388 0.96634 0.0
C682 C 0.66841 0.55935 0.9735 0.0
C683 C 0.62208 0.54232 0.95794 0.0
C684 C 0.57634 0.50737 0.97089 0.0
C685 C 0.54511 0.52152 0.97878 0.0
C686 C 0.54188 0.46097 0.95101 0.0
C687 C 0.60413 0.50855 -0.00316 0.0
C688 C 0.65718 0.53801 -0.00222 0.0
C689 C 0.69091 0.54689 0.02088 0.0
C690 C 0.66992 0.52646 0.04405 0.0
C691 C 0.61598 0.49804 0.04385 0.0
C692 C 0.58278 0.48801 0.01965 0.0
H693 H 0.12546 0.60944 0.23752 0.0
H694 H 0.07992 0.47758 0.22605 0.0
H695 H 0.08497 0.48164 0.27755 0.0
H696 H 0.21816 0.65781 0.30055 0.0
H697 H 0.20328 0.69057 0.31723 0.0
H698 H 0.1934 0.67664 0.27922 0.0
H699 H 0.09741 0.64032 0.27654 0.0
H700 H 0.10703 0.65428 0.31455 0.0
H701 H 0.05662 0.59687 0.29616 0.0
H702 H 0.09693 0.50013 0.32989 0.0
H703 H 0.1166 0.53279 0.38062 0.0
H704 H 0.15576 0.65338 0.35916 0.0
C705 C 0.11621 0.58138 0.24592 0.0
C706 C 0.10231 0.54318 0.22787 0.0
C707 C 0.0908 0.5072 0.23955 0.0
C708 C 0.09343 0.50913 0.26876 0.0
C709 C 0.10779 0.54735 0.28606 0.0
C710 C 0.11906 0.58289 0.2752 0.0
C711 C 0.13512 0.62057 0.29876 0.0
C712 C 0.1908 0.66396 0.29894 0.0
C713 C 0.09675 0.62846 0.29636 0.0
C714 C 0.13163 0.60075 0.32447 0.0
C715 C 0.11536 0.55833 0.31656 0.0
C716 C 0.10944 0.53324 0.33639 0.0
C717 C 0.1205 0.55199 0.36514 0.0
C718 C 0.13754 0.59553 0.37386 0.0
C719 C 0.14313 0.62014 0.35315 0.0
loop_
_geom_bond_atom_site_label_1
_geom_bond_atom_site_label_2
_geom_bond_distance
_geom_bond_site_symmetry_2
_ccdc_geom_bond_type
Gd0 C3 2.818 . S
Gd0 O20 2.377 . S
Gd0 O22 2.448 . S
Gd0 O23 2.506 . S
Gd0 O24 2.435 . S
Gd0 O25 2.717 . S
Gd0 O27 2.395 1_455 S
Gd0 O31 2.327 . S
Gd1 C12 2.818 1_455 S
Gd1 O21 2.395 . S
Gd1 O25 2.327 . S
Gd1 O26 2.377 1_455 S
Gd1 O28 2.448 1_455 S
Gd1 O29 2.506 1_455 S
Gd1 O30 2.435 . S
Gd1 O31 2.717 . S
C2 O20 1.240 . S
C2 O21 1.240 . S
C3 Gd0 2.818 . S
C3 C4 1.510 . S
C3 O22 1.249 . S
C3 O23 1.252 . S
C4 C3 1.510 . S
C4 C5 1.404 . S
C4 C6 1.352 . S
C5 C4 1.404 . S
C5 C9 1.389 . S
C5 H32 0.930 . S
C6 C4 1.352 . S
C6 C8 1.374 . S
C6 H33 0.931 . S
C7 C8 1.359 . S
C7 C9 1.364 . S
C8 C6 1.374 . S
C8 C7 1.359 . S
C8 H34 0.931 . S
C9 C5 1.389 . S
C9 C7 1.364 . S
C9 H35 0.931 . S
C10 O24 1.256 . S
C10 O25 1.257 . S
C11 O26 1.240 . S
C11 O27 1.240 . S
C12 Gd1 2.818 1_655 S
C12 C13 1.510 . S
C12 O28 1.249 . S
C12 O29 1.252 . S
C13 C12 1.510 . S
C13 C14 1.404 . S
C13 C15 1.352 . S
C14 C13 1.404 . S
C14 C18 1.389 . S
C14 H36 0.930 . S
C15 C13 1.352 . S
C15 C17 1.374 . S
C15 H37 0.931 . S
C16 C17 1.359 . S
C16 C18 1.364 . S
C17 C15 1.374 . S
C17 C16 1.359 . S
C17 H38 0.931 . S
C18 C14 1.389 . S
C18 C16 1.364 . S
C18 H39 0.931 . S
C19 O30 1.256 . S
C19 O31 1.257 . S
O20 Gd0 2.377 . S
O20 C2 1.240 . S
O21 Gd1 2.395 . S
O21 C2 1.240 . S
O22 Gd0 2.448 . S
O22 C3 1.249 . S
O23 Gd0 2.506 . S
O23 C3 1.252 . S
O24 Gd0 2.435 . S
O24 C10 1.256 . S
O25 Gd0 2.717 . S
O25 Gd1 2.327 . S
O25 C10 1.257 . S
O26 Gd1 2.377 1_655 S
O26 C11 1.240 . S
O27 Gd0 2.395 1_655 S
O27 C11 1.240 . S
O28 Gd1 2.448 1_655 S
O28 C12 1.249 . S
O29 Gd1 2.506 1_655 S
O29 C12 1.252 . S
O30 Gd1 2.435 . S
O30 C19 1.256 . S
O31 Gd0 2.327 . S
O31 Gd1 2.717 . S
O31 C19 1.257 . S
H32 C5 0.930 . S
H33 C6 0.931 . S
H34 C8 0.931 . S
H35 C9 0.931 . S
H36 C14 0.930 . S
H37 C15 0.931 . S
H38 C17 0.931 . S
H39 C18 0.931 . S
Gd40 C43 2.818 1_545 S
Gd40 O60 2.377 1_545 S
Gd40 O62 2.448 1_545 S
Gd40 O63 2.506 1_545 S
Gd40 O64 2.435 . S
Gd40 O65 2.717 . S
Gd40 O67 2.395 . S
Gd40 O71 2.327 . S
Gd41 C52 2.818 . S
Gd41 O61 2.395 1_545 S
Gd41 O65 2.327 . S
Gd41 O66 2.377 . S
Gd41 O68 2.448 . S
Gd41 O69 2.506 . S
Gd41 O70 2.435 . S
Gd41 O71 2.717 . S
C42 O60 1.240 . S
C42 O61 1.240 . S
C43 Gd40 2.818 1_565 S
C43 C44 1.510 . S
C43 O62 1.249 . S
C43 O63 1.252 . S
C44 C43 1.510 . S
C44 C45 1.404 . S
C44 C46 1.352 . S
C45 C44 1.404 . S
C45 C49 1.389 . S
C45 H72 0.930 . S
C46 C44 1.352 . S
C46 C48 1.374 . S
C46 H73 0.931 . S
C47 C48 1.359 . S
C47 C49 1.364 . S
C48 C46 1.374 . S
C48 C47 1.359 . S
C48 H74 0.931 . S
C49 C45 1.389 . S
C49 C47 1.364 . S
C49 H75 0.931 . S
C50 O64 1.256 . S
C50 O65 1.257 . S
C51 O66 1.240 . S
C51 O67 1.240 . S
C52 Gd41 2.818 . S
C52 C53 1.510 . S
C52 O68 1.249 . S
C52 O69 1.252 . S
C53 C52 1.510 . S
C53 C54 1.404 . S
C53 C55 1.352 . S
C54 C53 1.404 . S
C54 C58 1.389 . S
C54 H76 0.930 . S
C55 C53 1.352 . S
C55 C57 1.374 . S
C55 H77 0.931 . S
C56 C57 1.359 . S
C56 C58 1.364 . S
C57 C55 1.374 . S
C57 C56 1.359 . S
C57 H78 0.931 . S
C58 C54 1.389 . S
C58 C56 1.364 . S
C58 H79 0.931 . S
C59 O70 1.256 . S
C59 O71 1.257 . S
O60 Gd40 2.377 1_565 S
O60 C42 1.240 . S
O61 Gd41 2.395 1_565 S
O61 C42 1.240 . S
O62 Gd40 2.448 1_565 S
O62 C43 1.249 . S
O63 Gd40 2.506 1_565 S
O63 C43 1.252 . S
O64 Gd40 2.435 . S
O64 C50 1.256 . S
O65 Gd40 2.717 . S
O65 Gd41 2.327 . S
O65 C50 1.257 . S
O66 Gd41 2.377 . S
O66 C51 1.240 . S
O67 Gd40 2.395 . S
O67 C51 1.240 . S
O68 Gd41 2.448 . S
O68 C52 1.249 . S
O69 Gd41 2.506 . S
O69 C52 1.252 . S
O70 Gd41 2.435 . S
O70 C59 1.256 . S
O71 Gd40 2.327 . S
O71 Gd41 2.717 . S
O71 C59 1.257 . S
H72 C45 0.930 . S
H73 C46 0.931 . S
H74 C48 0.931 . S
H75 C49 0.931 . S
H76 C54 0.930 . S
H77 C55 0.931 . S
H78 C57 0.931 . S
H79 C58 0.931 . S
Gd80 C83 2.818 . S
Gd80 O100 2.377 . S
Gd80 O102 2.448 . S
Gd80 O103 2.506 . S
Gd80 O104 2.435 . S
Gd80 O105 2.717 . S
Gd80 O107 2.395 . S
Gd80 O111 2.327 . S
Gd81 C92 2.818 . S
Gd81 O101 2.395 . S
Gd81 O105 2.327 . S
Gd81 O106 2.377 . S
Gd81 O108 2.448 . S
Gd81 O109 2.506 . S
Gd81 O110 2.435 . S
Gd81 O111 2.717 . S
C82 O100 1.240 . S
C82 O101 1.240 . S
C83 Gd80 2.818 . S
C83 C84 1.510 . S
C83 O102 1.249 . S
C83 O103 1.252 . S
C84 C83 1.510 . S
C84 C85 1.404 . S
C84 C86 1.352 . S
C85 C84 1.404 . S
C85 C89 1.389 . S
C85 H112 0.930 . S
C86 C84 1.352 . S
C86 C88 1.374 . S
C86 H113 0.931 . S
C87 C88 1.359 . S
C87 C89 1.364 . S
C88 C86 1.374 . S
C88 C87 1.359 . S
C88 H114 0.931 . S
C89 C85 1.389 . S
C89 C87 1.364 . S
C89 H115 0.931 . S
C90 O104 1.256 . S
C90 O105 1.257 . S
C91 O106 1.240 . S
C91 O107 1.240 . S
C92 Gd81 2.818 . S
C92 C93 1.510 . S
C92 O108 1.249 . S
C92 O109 1.252 . S
C93 C92 1.510 . S
C93 C94 1.404 . S
C93 C95 1.352 . S
C94 C93 1.404 . S
C94 C98 1.389 . S
C94 H116 0.930 . S
C95 C93 1.352 . S
C95 C97 1.374 . S
C95 H117 0.931 . S
C96 C97 1.359 . S
C96 C98 1.364 . S
C97 C95 1.374 . S
C97 C96 1.359 . S
C97 H118 0.931 . S
C98 C94 1.389 . S
C98 C96 1.364 . S
C98 H119 0.931 . S
C99 O110 1.256 . S
C99 O111 1.257 . S
O100 Gd80 2.377 . S
O100 C82 1.240 . S
O101 Gd81 2.395 . S
O101 C82 1.240 . S
O102 Gd80 2.448 . S
O102 C83 1.249 . S
O103 Gd80 2.506 . S
O103 C83 1.252 . S
O104 Gd80 2.435 . S
O104 C90 1.256 . S
O105 Gd80 2.717 . S
O105 Gd81 2.327 . S
O105 C90 1.257 . S
O106 Gd81 2.377 . S
O106 C91 1.240 . S
O107 Gd80 2.395 . S
O107 C91 1.240 . S
O108 Gd81 2.448 . S
O108 C92 1.249 . S
O109 Gd81 2.506 . S
O109 C92 1.252 . S
O110 Gd81 2.435 . S
O110 C99 1.256 . S
O111 Gd80 2.327 . S
O111 Gd81 2.717 . S
O111 C99 1.257 . S
H112 C85 0.930 . S
H113 C86 0.931 . S
H114 C88 0.931 . S
H115 C89 0.931 . S
H116 C94 0.930 . S
H117 C95 0.931 . S
H118 C97 0.931 . S
H119 C98 0.931 . S
H120 C121 0.949 . S
C121 H120 0.949 . S
C121 C122 1.395 . S
C121 C123 1.391 . S
C122 C121 1.395 . S
C122 C125 1.390 . S
C123 C121 1.391 . S
C123 C127 1.387 . S
C123 C128 1.491 . S
H124 C125 0.950 1_565 S
C125 C122 1.390 . S
C125 H124 0.950 1_545 S
C125 C126 1.378 1_545 S
C126 C125 1.378 1_565 S
C126 C127 1.409 1_565 S
C127 C123 1.387 . S
C127 C126 1.409 1_545 S
C127 H129 0.951 . S
C128 C123 1.491 . S
C128 C130 1.382 . S
C128 C132 1.404 . S
H129 C127 0.951 . S
C130 C128 1.382 . S
C130 C131 1.390 . S
C130 H135 0.949 . S
C131 C130 1.390 . S
C131 C136 1.399 . S
C132 C128 1.404 . S
C132 H133 0.950 . S
C132 C134 1.375 . S
H133 C132 0.950 . S
C134 C132 1.375 . S
C134 C136 1.382 . S
C134 H138 0.950 . S
H135 C130 0.949 . S
C136 C131 1.399 . S
C136 C134 1.382 . S
C136 H137 0.952 . S
H137 C136 0.952 . S
H138 C134 0.950 . S
H139 C140 0.949 . S
C140 H139 0.949 . S
C140 C141 1.395 . S
C140 C142 1.391 . S
C141 C140 1.395 . S
C141 C144 1.390 . S
C142 C140 1.391 . S
C142 C146 1.387 . S
C142 C147 1.491 . S
H143 C144 0.950 . S
C144 C141 1.390 . S
C144 H143 0.950 . S
C144 C145 1.378 . S
C145 C144 1.378 . S
C145 C146 1.409 . S
C146 C142 1.387 . S
C146 C145 1.409 . S
C146 H148 0.951 . S
C147 C142 1.491 . S
C147 C149 1.382 . S
C147 C151 1.404 . S
H148 C146 0.951 . S
C149 C147 1.382 . S
C149 C150 1.390 . S
C149 H154 0.949 . S
C150 C149 1.390 . S
C150 C155 1.399 . S
C151 C147 1.404 . S
C151 H152 0.950 . S
C151 C153 1.375 . S
H152 C151 0.950 . S
C153 C151 1.375 . S
C153 C155 1.382 . S
C153 H157 0.950 . S
H154 C149 0.949 . S
C155 C150 1.399 . S
C155 C153 1.382 . S
C155 H156 0.952 . S
H156 C155 0.952 . S
H157 C153 0.950 . S
H158 C159 0.949 . S
C159 H158 0.949 . S
C159 C160 1.395 . S
C159 C161 1.391 . S
C160 C159 1.395 . S
C160 C163 1.390 . S
C161 C159 1.391 . S
C161 C165 1.387 . S
C161 C166 1.491 . S
H162 C163 0.958 . S
C163 C160 1.390 . S
C163 H162 0.958 . S
C163 C164 1.378 . S
C164 C163 1.378 . S
C164 C165 1.409 . S
C165 C161 1.387 . S
C165 C164 1.409 . S
C165 H167 0.951 . S
C166 C161 1.491 . S
C166 C168 1.382 . S
C166 C170 1.404 . S
H167 C165 0.951 . S
C168 C166 1.382 . S
C168 C169 1.390 . S
C168 H173 0.949 . S
C169 C168 1.390 . S
C169 C174 1.399 . S
C170 C166 1.404 . S
C170 H171 0.950 . S
C170 C172 1.375 . S
H171 C170 0.950 . S
C172 C170 1.375 . S
C172 C174 1.382 . S
C172 H176 0.950 . S
H173 C168 0.949 . S
C174 C169 1.399 . S
C174 C172 1.382 . S
C174 H175 0.952 . S
H175 C174 0.952 . S
H176 C172 0.950 . S
H177 C178 0.949 . S
C178 H177 0.949 . S
C178 C179 1.395 1_655 S
C178 C180 1.391 1_655 S
C179 C178 1.395 1_455 S
C179 C182 1.390 . S
C180 C178 1.391 1_455 S
C180 C184 1.387 . S
C180 C185 1.491 1_455 S
H181 C182 0.950 . S
C182 C179 1.390 . S
C182 H181 0.950 . S
C182 C183 1.378 . S
C183 C182 1.378 . S
C183 C184 1.409 . S
C184 C180 1.387 . S
C184 C183 1.409 . S
C184 H186 0.951 . S
C185 C180 1.491 1_655 S
C185 C187 1.382 . S
C185 C189 1.404 . S
H186 C184 0.951 . S
C187 C185 1.382 . S
C187 C188 1.390 . S
C187 H192 0.949 . S
C188 C187 1.390 . S
C188 C193 1.399 . S
C189 C185 1.404 . S
C189 H190 0.950 . S
C189 C191 1.375 . S
H190 C189 0.950 . S
C191 C189 1.375 . S
C191 C193 1.382 . S
C191 H195 0.950 . S
H192 C187 0.949 . S
C193 C188 1.399 . S
C193 C191 1.382 . S
C193 H194 0.952 . S
H194 C193 0.952 . S
H195 C191 0.950 . S
H196 C197 0.949 . S
C197 H196 0.949 . S
C197 C198 1.395 . S
C197 C199 1.391 . S
C198 C197 1.395 . S
C198 C201 1.390 . S
C199 C197 1.391 . S
C199 C203 1.387 . S
C199 C204 1.491 . S
H200 C201 0.950 . S
C201 C198 1.390 . S
C201 H200 0.950 . S
C201 C202 1.378 . S
C202 C201 1.378 . S
C202 C203 1.409 . S
C203 C199 1.387 . S
C203 C202 1.409 . S
C203 H205 0.951 . S
C204 C199 1.491 . S
C204 C206 1.382 1_545 S
C204 C208 1.404 1_545 S
H205 C203 0.951 . S
C206 C204 1.382 1_565 S
C206 C207 1.390 . S
C206 H211 0.949 . S
C207 C206 1.390 . S
C207 C212 1.399 . S
C208 C204 1.404 1_565 S
C208 H209 0.950 1_565 S
C208 C210 1.375 . S
H209 C208 0.950 1_545 S
C210 C208 1.375 . S
C210 C212 1.382 . S
C210 H214 0.950 . S
H211 C206 0.949 . S
C212 C207 1.399 . S
C212 C210 1.382 . S
C212 H213 0.952 . S
H213 C212 0.952 . S
H214 C210 0.950 . S
H215 C216 0.949 . S
C216 H215 0.949 . S
C216 C217 1.395 . S
C216 C218 1.391 . S
C217 C216 1.395 . S
C217 C220 1.390 . S
C218 C216 1.391 . S
C218 C222 1.387 . S
C218 C223 1.491 . S
H219 C220 0.950 . S
C220 C217 1.390 . S
C220 H219 0.950 . S
C220 C221 1.378 . S
C221 C220 1.378 . S
C221 C222 1.409 . S
C222 C218 1.387 . S
C222 C221 1.409 . S
C222 H224 0.951 . S
C223 C218 1.491 . S
C223 C225 1.382 . S
C223 C227 1.404 . S
H224 C222 0.951 . S
C225 C223 1.382 . S
C225 C226 1.390 . S
C225 H230 0.949 . S
C226 C225 1.390 . S
C226 C231 1.399 . S
C227 C223 1.404 . S
C227 H228 0.950 . S
C227 C229 1.375 . S
H228 C227 0.950 . S
C229 C227 1.375 . S
C229 C231 1.382 . S
C229 H233 0.950 . S
H230 C225 0.949 . S
C231 C226 1.399 . S
C231 C229 1.382 . S
C231 H232 0.952 . S
H232 C231 0.952 . S
H233 C229 0.950 . S
H234 C246 0.930 . S
H235 C248 0.930 . S
H236 C249 0.930 . S
H237 C253 0.959 . S
H238 C253 0.959 . S
H239 C253 0.961 . S
H240 C254 0.960 . S
H241 C254 0.961 . S
H242 C254 0.959 . S
H243 C257 0.929 . S
H244 C258 0.931 . S
H245 C260 0.930 . S
C246 H234 0.930 . S
C246 C247 1.399 . S
C246 C251 1.399 . S
C247 C246 1.399 . S
C247 C248 1.376 . S
C248 H235 0.930 . S
C248 C247 1.376 . S
C248 C249 1.388 . S
C249 H236 0.930 . S
C249 C248 1.388 . S
C249 C250 1.390 . S
C250 C249 1.390 . S
C250 C251 1.394 . S
C250 C256 1.465 . S
C251 C246 1.399 . S
C251 C250 1.394 . S
C251 C252 1.516 . S
C252 C251 1.516 . S
C252 C253 1.502 . S
C252 C254 1.561 . S
C252 C255 1.526 . S
C253 H237 0.959 . S
C253 H238 0.959 . S
C253 H239 0.961 . S
C253 C252 1.502 . S
C254 H240 0.960 . S
C254 H241 0.961 . S
C254 H242 0.959 . S
C254 C252 1.561 . S
C255 C252 1.526 . S
C255 C256 1.396 . S
C255 C260 1.390 . S
C256 C250 1.465 . S
C256 C255 1.396 . S
C256 C257 1.399 . S
C257 H243 0.929 . S
C257 C256 1.399 . S
C257 C258 1.385 . S
C258 H244 0.931 . S
C258 C257 1.385 . S
C258 C259 1.389 . S
C259 C258 1.389 . S
C259 C260 1.387 . S
C260 H245 0.930 . S
C260 C255 1.390 . S
C260 C259 1.387 . S
H261 C273 0.930 . S
H262 C275 0.930 . S
H263 C276 0.930 . S
H264 C280 0.959 . S
H265 C280 0.959 . S
H266 C280 0.961 . S
H267 C281 0.960 . S
H268 C281 0.961 . S
H269 C281 0.959 . S
H270 C284 0.929 . S
H271 C285 0.931 . S
H272 C287 0.930 . S
C273 H261 0.930 . S
C273 C274 1.399 . S
C273 C278 1.399 . S
C274 C273 1.399 . S
C274 C275 1.376 . S
C275 H262 0.930 . S
C275 C274 1.376 . S
C275 C276 1.388 . S
C276 H263 0.930 . S
C276 C275 1.388 . S
C276 C277 1.390 . S
C277 C276 1.390 . S
C277 C278 1.394 . S
C277 C283 1.465 . S
C278 C273 1.399 . S
C278 C277 1.394 . S
C278 C279 1.516 . S
C279 C278 1.516 . S
C279 C280 1.502 . S
C279 C281 1.561 . S
C279 C282 1.526 . S
C280 H264 0.959 . S
C280 H265 0.959 . S
C280 H266 0.961 . S
C280 C279 1.502 . S
C281 H267 0.960 . S
C281 H268 0.961 . S
C281 H269 0.959 . S
C281 C279 1.561 . S
C282 C279 1.526 . S
C282 C283 1.396 . S
C282 C287 1.390 . S
C283 C277 1.465 . S
C283 C282 1.396 . S
C283 C284 1.399 . S
C284 H270 0.929 . S
C284 C283 1.399 . S
C284 C285 1.385 . S
C285 H271 0.931 . S
C285 C284 1.385 . S
C285 C286 1.389 . S
C286 C285 1.389 . S
C286 C287 1.387 . S
C287 H272 0.930 . S
C287 C282 1.390 . S
C287 C286 1.387 . S
H288 C300 0.930 . S
H289 C302 0.930 . S
H290 C303 0.930 . S
H291 C307 0.959 . S
H292 C307 0.959 . S
H293 C307 0.961 . S
H294 C308 0.960 . S
H295 C308 0.961 . S
H296 C308 0.959 . S
H297 C311 0.929 . S
H298 C312 0.931 . S
H299 C314 0.930 . S
C300 H288 0.930 . S
C300 C301 1.399 . S
C300 C305 1.399 . S
C301 C300 1.399 . S
C301 C302 1.376 . S
C302 H289 0.930 . S
C302 C301 1.376 . S
C302 C303 1.388 . S
C303 H290 0.930 . S
C303 C302 1.388 . S
C303 C304 1.390 . S
C304 C303 1.390 . S
C304 C305 1.394 . S
C304 C310 1.465 . S
C305 C300 1.399 . S
C305 C304 1.394 . S
C305 C306 1.516 . S
C306 C305 1.516 . S
C306 C307 1.502 . S
C306 C308 1.561 . S
C306 C309 1.526 . S
C307 H291 0.959 . S
C307 H292 0.959 . S
C307 H293 0.961 . S
C307 C306 1.502 . S
C308 H294 0.960 . S
C308 H295 0.961 . S
C308 H296 0.959 . S
C308 C306 1.561 . S
C309 C306 1.526 . S
C309 C310 1.396 . S
C309 C314 1.390 . S
C310 C304 1.465 . S
C310 C309 1.396 . S
C310 C311 1.399 . S
C311 H297 0.929 . S
C311 C310 1.399 . S
C311 C312 1.385 . S
C312 H298 0.931 . S
C312 C311 1.385 . S
C312 C313 1.389 . S
C313 C312 1.389 . S
C313 C314 1.387 . S
C314 H299 0.930 . S
C314 C309 1.390 . S
C314 C313 1.387 . S
H315 C327 0.930 . S
H316 C329 0.930 . S
H317 C330 0.930 . S
H318 C334 0.959 . S
H319 C334 0.959 . S
H320 C334 0.961 . S
H321 C335 0.960 . S
H322 C335 0.961 . S
H323 C335 0.959 . S
H324 C338 0.929 . S
H325 C339 0.931 . S
H326 C341 0.930 . S
C327 H315 0.930 . S
C327 C328 1.399 . S
C327 C332 1.399 . S
C328 C327 1.399 . S
C328 C329 1.376 . S
C329 H316 0.930 . S
C329 C328 1.376 . S
C329 C330 1.388 . S
C330 H317 0.930 . S
C330 C329 1.388 . S
C330 C331 1.390 . S
C331 C330 1.390 . S
C331 C332 1.394 . S
C331 C337 1.465 . S
C332 C327 1.399 . S
C332 C331 1.394 . S
C332 C333 1.516 . S
C333 C332 1.516 . S
C333 C334 1.502 . S
C333 C335 1.561 . S
C333 C336 1.526 . S
C334 H318 0.959 . S
C334 H319 0.959 . S
C334 H320 0.961 . S
C334 C333 1.502 . S
C335 H321 0.960 . S
C335 H322 0.961 . S
C335 H323 0.959 . S
C335 C333 1.561 . S
C336 C333 1.526 . S
C336 C337 1.396 . S
C336 C341 1.390 . S
C337 C331 1.465 . S
C337 C336 1.396 . S
C337 C338 1.399 . S
C338 H324 0.929 . S
C338 C337 1.399 . S
C338 C339 1.385 . S
C339 H325 0.931 . S
C339 C338 1.385 . S
C339 C340 1.389 . S
C340 C339 1.389 . S
C340 C341 1.387 . S
C341 H326 0.930 . S
C341 C336 1.390 . S
C341 C340 1.387 . S
H342 C354 0.930 . S
H343 C356 0.930 . S
H344 C357 0.930 . S
H345 C361 0.959 . S
H346 C361 0.959 . S
H347 C361 0.961 . S
H348 C362 0.960 . S
H349 C362 0.961 . S
H350 C362 0.959 . S
H351 C365 0.929 . S
H352 C366 0.931 . S
H353 C368 0.930 . S
C354 H342 0.930 . S
C354 C355 1.399 . S
C354 C359 1.399 . S
C355 C354 1.399 . S
C355 C356 1.376 . S
C356 H343 0.930 . S
C356 C355 1.376 . S
C356 C357 1.388 . S
C357 H344 0.930 . S
C357 C356 1.388 . S
C357 C358 1.390 . S
C358 C357 1.390 . S
C358 C359 1.394 . S
C358 C364 1.465 . S
C359 C354 1.399 . S
C359 C358 1.394 . S
C359 C360 1.516 . S
C360 C359 1.516 . S
C360 C361 1.502 . S
C360 C362 1.561 . S
C360 C363 1.526 . S
C361 H345 0.959 . S
C361 H346 0.959 . S
C361 H347 0.961 . S
C361 C360 1.502 . S
C362 H348 0.960 . S
C362 H349 0.961 . S
C362 H350 0.959 . S
C362 C360 1.561 . S
C363 C360 1.526 . S
C363 C364 1.396 . S
C363 C368 1.390 . S
C364 C358 1.465 . S
C364 C363 1.396 . S
C364 C365 1.399 . S
C365 H351 0.929 . S
C365 C364 1.399 . S
C365 C366 1.385 . S
C366 H352 0.931 . S
C366 C365 1.385 . S
C366 C367 1.389 . S
C367 C366 1.389 . S
C367 C368 1.387 . S
C368 H353 0.930 . S
C368 C363 1.390 . S
C368 C367 1.387 . S
H369 C381 0.930 . S
H370 C383 0.930 . S
H371 C384 0.930 . S
H372 C388 0.959 . S
H373 C388 0.959 . S
H374 C388 0.961 . S
H375 C389 0.960 . S
H376 C389 0.961 . S
H377 C389 0.959 . S
H378 C392 0.929 . S
H379 C393 0.931 . S
H380 C395 0.930 . S
C381 H369 0.930 . S
C381 C382 1.399 . S
C381 C386 1.399 . S
C382 C381 1.399 . S
C382 C383 1.376 . S
C383 H370 0.930 . S
C383 C382 1.376 . S
C383 C384 1.388 . S
C384 H371 0.930 . S
C384 C383 1.388 . S
C384 C385 1.390 . S
C385 C384 1.390 . S
C385 C386 1.394 . S
C385 C391 1.465 . S
C386 C381 1.399 . S
C386 C385 1.394 . S
C386 C387 1.516 . S
C387 C386 1.516 . S
C387 C388 1.502 . S
C387 C389 1.561 . S
C387 C390 1.526 . S
C388 H372 0.959 . S
C388 H373 0.959 . S
C388 H374 0.961 . S
C388 C387 1.502 . S
C389 H375 0.960 . S
C389 H376 0.961 . S
C389 H377 0.959 . S
C389 C387 1.561 . S
C390 C387 1.526 . S
C390 C391 1.396 . S
C390 C395 1.390 . S
C391 C385 1.465 . S
C391 C390 1.396 . S
C391 C392 1.399 . S
C392 H378 0.929 . S
C392 C391 1.399 . S
C392 C393 1.385 . S
C393 H379 0.931 . S
C393 C392 1.385 . S
C393 C394 1.389 . S
C394 C393 1.389 . S
C394 C395 1.387 . S
C395 H380 0.930 . S
C395 C390 1.390 . S
C395 C394 1.387 . S
H396 C408 0.930 . S
H397 C410 0.930 . S
H398 C411 0.930 . S
H399 C415 0.959 . S
H400 C415 0.959 . S
H401 C415 0.961 . S
H402 C416 0.960 . S
H403 C416 0.961 . S
H404 C416 0.959 . S
H405 C419 0.929 . S
H406 C420 0.931 . S
H407 C422 0.930 . S
C408 H396 0.930 . S
C408 C409 1.399 . S
C408 C413 1.399 . S
C409 C408 1.399 . S
C409 C410 1.376 . S
C410 H397 0.930 . S
C410 C409 1.376 . S
C410 C411 1.388 . S
C411 H398 0.930 . S
C411 C410 1.388 . S
C411 C412 1.390 . S
C412 C411 1.390 . S
C412 C413 1.394 . S
C412 C418 1.465 . S
C413 C408 1.399 . S
C413 C412 1.394 . S
C413 C414 1.516 . S
C414 C413 1.516 . S
C414 C415 1.502 . S
C414 C416 1.561 . S
C414 C417 1.526 . S
C415 H399 0.959 . S
C415 H400 0.959 . S
C415 H401 0.961 . S
C415 C414 1.502 . S
C416 H402 0.960 . S
C416 H403 0.961 . S
C416 H404 0.959 . S
C416 C414 1.561 . S
C417 C414 1.526 . S
C417 C418 1.396 . S
C417 C422 1.390 . S
C418 C412 1.465 . S
C418 C417 1.396 . S
C418 C419 1.399 . S
C419 H405 0.929 . S
C419 C418 1.399 . S
C419 C420 1.385 . S
C420 H406 0.931 . S
C420 C419 1.385 . S
C420 C421 1.389 . S
C421 C420 1.389 . S
C421 C422 1.387 . S
C422 H407 0.930 . S
C422 C417 1.390 . S
C422 C421 1.387 . S
H423 C435 0.930 . S
H424 C437 0.930 . S
H425 C438 0.930 . S
H426 C442 0.959 . S
H427 C442 0.959 . S
H428 C442 0.961 . S
H429 C443 0.960 . S
H430 C443 0.961 . S
H431 C443 0.959 . S
H432 C446 0.929 . S
H433 C447 0.931 . S
H434 C449 0.930 . S
C435 H423 0.930 . S
C435 C436 1.399 . S
C435 C440 1.399 . S
C436 C435 1.399 . S
C436 C437 1.376 . S
C437 H424 0.930 . S
C437 C436 1.376 . S
C437 C438 1.388 . S
C438 H425 0.930 . S
C438 C437 1.388 . S
C438 C439 1.390 . S
C439 C438 1.390 . S
C439 C440 1.394 . S
C439 C445 1.465 . S
C440 C435 1.399 . S
C440 C439 1.394 . S
C440 C441 1.516 . S
C441 C440 1.516 . S
C441 C442 1.502 . S
C441 C443 1.561 . S
C441 C444 1.526 . S
C442 H426 0.959 . S
C442 H427 0.959 . S
C442 H428 0.961 . S
C442 C441 1.502 . S
C443 H429 0.960 . S
C443 H430 0.961 . S
C443 H431 0.959 . S
C443 C441 1.561 . S
C444 C441 1.526 . S
C444 C445 1.396 . S
C444 C449 1.390 . S
C445 C439 1.465 . S
C445 C444 1.396 . S
C445 C446 1.399 . S
C446 H432 0.929 . S
C446 C445 1.399 . S
C446 C447 1.385 . S
C447 H433 0.931 . S
C447 C446 1.385 . S
C447 C448 1.389 . S
C448 C447 1.389 . S
C448 C449 1.387 . S
C449 H434 0.930 . S
C449 C444 1.390 . S
C449 C448 1.387 . S
H450 C462 0.930 . S
H451 C464 0.930 . S
H452 C465 0.930 . S
H453 C469 0.959 . S
H454 C469 0.959 . S
H455 C469 0.961 . S
H456 C470 0.960 . S
H457 C470 0.961 . S
H458 C470 0.959 . S
H459 C473 0.929 . S
H460 C474 0.931 . S
H461 C476 0.930 . S
C462 H450 0.930 . S
C462 C463 1.399 . S
C462 C467 1.399 . S
C463 C462 1.399 . S
C463 C464 1.376 . S
C464 H451 0.930 . S
C464 C463 1.376 . S
C464 C465 1.388 . S
C465 H452 0.930 . S
C465 C464 1.388 . S
C465 C466 1.390 . S
C466 C465 1.390 . S
C466 C467 1.394 . S
C466 C472 1.465 . S
C467 C462 1.399 . S
C467 C466 1.394 . S
C467 C468 1.516 . S
C468 C467 1.516 . S
C468 C469 1.502 . S
C468 C470 1.561 . S
C468 C471 1.526 . S
C469 H453 0.959 . S
C469 H454 0.959 . S
C469 H455 0.961 . S
C469 C468 1.502 . S
C470 H456 0.960 . S
C470 H457 0.961 . S
C470 H458 0.959 . S
C470 C468 1.561 . S
C471 C468 1.526 . S
C471 C472 1.396 . S
C471 C476 1.390 . S
C472 C466 1.465 . S
C472 C471 1.396 . S
C472 C473 1.399 . S
C473 H459 0.929 . S
C473 C472 1.399 . S
C473 C474 1.385 . S
C474 H460 0.931 . S
C474 C473 1.385 . S
C474 C475 1.389 . S
C475 C474 1.389 . S
C475 C476 1.387 . S
C476 H461 0.930 . S
C476 C471 1.390 . S
C476 C475 1.387 . S
H477 C489 0.930 . S
H478 C491 0.930 . S
H479 C492 0.930 . S
H480 C496 0.959 . S
H481 C496 0.959 . S
H482 C496 0.961 . S
H483 C497 0.960 . S
H484 C497 0.961 . S
H485 C497 0.959 . S
H486 C500 0.929 . S
H487 C501 0.931 . S
H488 C503 0.930 . S
C489 H477 0.930 . S
C489 C490 1.399 . S
C489 C494 1.399 . S
C490 C489 1.399 . S
C490 C491 1.376 . S
C491 H478 0.930 . S
C491 C490 1.376 . S
C491 C492 1.388 . S
C492 H479 0.930 . S
C492 C491 1.388 . S
C492 C493 1.390 . S
C493 C492 1.390 . S
C493 C494 1.394 . S
C493 C499 1.465 . S
C494 C489 1.399 . S
C494 C493 1.394 . S
C494 C495 1.516 . S
C495 C494 1.516 . S
C495 C496 1.502 . S
C495 C497 1.561 . S
C495 C498 1.526 . S
C496 H480 0.959 . S
C496 H481 0.959 . S
C496 H482 0.961 . S
C496 C495 1.502 . S
C497 H483 0.960 . S
C497 H484 0.961 . S
C497 H485 0.959 . S
C497 C495 1.561 . S
C498 C495 1.526 . S
C498 C499 1.396 . S
C498 C503 1.390 . S
C499 C493 1.465 . S
C499 C498 1.396 . S
C499 C500 1.399 . S
C500 H486 0.929 . S
C500 C499 1.399 . S
C500 C501 1.385 . S
C501 H487 0.931 . S
C501 C500 1.385 . S
C501 C502 1.389 . S
C502 C501 1.389 . S
C502 C503 1.387 . S
C503 H488 0.930 . S
C503 C498 1.390 . S
C503 C502 1.387 . S
H504 C516 0.930 . S
H505 C518 0.930 . S
H506 C519 0.930 . S
H507 C523 0.959 . S
H508 C523 0.959 . S
H509 C523 0.961 . S
H510 C524 0.960 . S
H511 C524 0.961 . S
H512 C524 0.959 . S
H513 C527 0.929 . S
H514 C528 0.931 . S
H515 C530 0.930 . S
C516 H504 0.930 . S
C516 C517 1.399 . S
C516 C521 1.399 . S
C517 C516 1.399 . S
C517 C518 1.376 . S
C518 H505 0.930 . S
C518 C517 1.376 . S
C518 C519 1.388 . S
C519 H506 0.930 . S
C519 C518 1.388 . S
C519 C520 1.390 . S
C520 C519 1.390 . S
C520 C521 1.394 . S
C520 C526 1.465 . S
C521 C516 1.399 . S
C521 C520 1.394 . S
C521 C522 1.516 . S
C522 C521 1.516 . S
C522 C523 1.502 . S
C522 C524 1.561 . S
C522 C525 1.526 . S
C523 H507 0.959 . S
C523 H508 0.959 . S
C523 H509 0.961 . S
C523 C522 1.502 . S
C524 H510 0.960 . S
C524 H511 0.961 . S
C524 H512 0.959 . S
C524 C522 1.561 . S
C525 C522 1.526 . S
C525 C526 1.396 . S
C525 C530 1.390 . S
C526 C520 1.465 . S
C526 C525 1.396 . S
C526 C527 1.399 . S
C527 H513 0.929 . S
C527 C526 1.399 . S
C527 C528 1.385 . S
C528 H514 0.931 . S
C528 C527 1.385 . S
C528 C529 1.389 . S
C529 C528 1.389 . S
C529 C530 1.387 . S
C530 H515 0.930 . S
C530 C525 1.390 . S
C530 C529 1.387 . S
H531 C543 0.930 . S
H532 C545 0.930 . S
H533 C546 0.930 . S
H534 C550 0.959 . S
H535 C550 0.959 . S
H536 C550 0.961 . S
H537 C551 0.960 . S
H538 C551 0.961 . S
H539 C551 0.959 . S
H540 C554 0.929 . S
H541 C555 0.931 . S
H542 C557 0.930 . S
C543 H531 0.930 . S
C543 C544 1.399 . S
C543 C548 1.399 . S
C544 C543 1.399 . S
C544 C545 1.376 . S
C545 H532 0.930 . S
C545 C544 1.376 . S
C545 C546 1.388 . S
C546 H533 0.930 . S
C546 C545 1.388 . S
C546 C547 1.390 . S
C547 C546 1.390 . S
C547 C548 1.394 . S
C547 C553 1.465 . S
C548 C543 1.399 . S
C548 C547 1.394 . S
C548 C549 1.516 . S
C549 C548 1.516 . S
C549 C550 1.502 . S
C549 C551 1.561 . S
C549 C552 1.526 . S
C550 H534 0.959 . S
C550 H535 0.959 . S
C550 H536 0.961 . S
C550 C549 1.502 . S
C551 H537 0.960 . S
C551 H538 0.961 . S
C551 H539 0.959 . S
C551 C549 1.561 . S
C552 C549 1.526 . S
C552 C553 1.396 . S
C552 C557 1.390 . S
C553 C547 1.465 . S
C553 C552 1.396 . S
C553 C554 1.399 . S
C554 H540 0.929 . S
C554 C553 1.399 . S
C554 C555 1.385 . S
C555 H541 0.931 . S
C555 C554 1.385 . S
C555 C556 1.389 . S
C556 C555 1.389 . S
C556 C557 1.387 . S
C557 H542 0.930 . S
C557 C552 1.390 . S
C557 C556 1.387 . S
H558 C570 0.930 . S
H559 C572 0.930 . S
H560 C573 0.930 . S
H561 C577 0.965 . S
H562 C577 0.959 1_556 S
H563 C577 0.961 . S
H564 C578 0.960 . S
H565 C578 0.961 . S
H566 C578 0.959 . S
H567 C581 0.929 . S
H568 C582 0.931 . S
H569 C584 0.930 . S
C570 H558 0.930 . S
C570 C571 1.399 . S
C570 C575 1.399 . S
C571 C570 1.399 . S
C571 C572 1.376 . S
C572 H559 0.930 . S
C572 C571 1.376 . S
C572 C573 1.388 . S
C573 H560 0.930 . S
C573 C572 1.388 . S
C573 C574 1.390 . S
C574 C573 1.390 . S
C574 C575 1.394 . S
C574 C580 1.465 1_554 S
C575 C570 1.399 . S
C575 C574 1.394 . S
C575 C576 1.516 . S
C576 C575 1.516 . S
C576 C577 1.502 . S
C576 C578 1.561 . S
C576 C579 1.526 1_554 S
C577 H561 0.965 . S
C577 H562 0.959 1_554 S
C577 H563 0.961 . S
C577 C576 1.502 . S
C578 H564 0.960 . S
C578 H565 0.961 . S
C578 H566 0.959 . S
C578 C576 1.561 . S
C579 C576 1.526 1_556 S
C579 C580 1.396 . S
C579 C584 1.390 . S
C580 C574 1.465 1_556 S
C580 C579 1.396 . S
C580 C581 1.399 . S
C581 H567 0.929 . S
C581 C580 1.399 . S
C581 C582 1.385 . S
C582 H568 0.931 . S
C582 C581 1.385 . S
C582 C583 1.389 . S
C583 C582 1.389 . S
C583 C584 1.387 . S
C584 H569 0.930 . S
C584 C579 1.390 . S
C584 C583 1.387 . S
H585 C597 0.930 . S
H586 C599 0.930 1_565 S
H587 C600 0.933 1_565 S
H588 C604 0.959 . S
H589 C604 0.959 . S
H590 C604 0.961 . S
H591 C605 0.960 . S
H592 C605 0.961 . S
H593 C605 0.959 . S
H594 C608 0.929 1_565 S
H595 C609 0.931 1_565 S
H596 C611 0.930 . S
C597 H585 0.930 . S
C597 C598 1.399 . S
C597 C602 1.399 . S
C598 C597 1.399 . S
C598 C599 1.376 . S
C599 H586 0.930 1_545 S
C599 C598 1.376 . S
C599 C600 1.388 . S
C600 H587 0.933 1_545 S
C600 C599 1.388 . S
C600 C601 1.387 . S
C601 C600 1.387 . S
C601 C602 1.394 . S
C601 C607 1.465 . S
C602 C597 1.399 . S
C602 C601 1.394 . S
C602 C603 1.516 . S
C603 C602 1.516 . S
C603 C604 1.502 . S
C603 C605 1.561 . S
C603 C606 1.526 . S
C604 H588 0.959 . S
C604 H589 0.959 . S
C604 H590 0.961 . S
C604 C603 1.502 . S
C605 H591 0.960 . S
C605 H592 0.961 . S
C605 H593 0.959 . S
C605 C603 1.561 . S
C606 C603 1.526 . S
C606 C607 1.396 . S
C606 C611 1.390 . S
C607 C601 1.465 . S
C607 C606 1.396 . S
C607 C608 1.399 . S
C608 H594 0.929 1_545 S
C608 C607 1.399 . S
C608 C609 1.385 . S
C609 H595 0.931 1_545 S
C609 C608 1.385 . S
C609 C610 1.389 . S
C610 C609 1.389 . S
C610 C611 1.387 . S
C611 H596 0.930 . S
C611 C606 1.390 . S
C611 C610 1.387 . S
H612 C624 0.930 . S
H613 C626 0.930 . S
H614 C627 0.930 . S
H615 C631 0.959 . S
H616 C631 0.959 . S
H617 C631 0.961 . S
H618 C632 0.960 . S
H619 C632 0.961 . S
H620 C632 0.959 . S
H621 C635 0.929 . S
H622 C636 0.931 . S
H623 C638 0.930 . S
C624 H612 0.930 . S
C624 C625 1.399 . S
C624 C629 1.399 . S
C625 C624 1.399 . S
C625 C626 1.376 . S
C626 H613 0.930 . S
C626 C625 1.376 . S
C626 C627 1.388 . S
C627 H614 0.930 . S
C627 C626 1.388 . S
C627 C628 1.390 . S
C628 C627 1.390 . S
C628 C629 1.394 . S
C628 C634 1.465 . S
C629 C624 1.399 . S
C629 C628 1.394 . S
C629 C630 1.516 . S
C630 C629 1.516 . S
C630 C631 1.502 . S
C630 C632 1.561 . S
C630 C633 1.526 . S
C631 H615 0.959 . S
C631 H616 0.959 . S
C631 H617 0.961 . S
C631 C630 1.502 . S
C632 H618 0.960 . S
C632 H619 0.961 . S
C632 H620 0.959 . S
C632 C630 1.561 . S
C633 C630 1.526 . S
C633 C634 1.396 . S
C633 C638 1.390 . S
C634 C628 1.465 . S
C634 C633 1.396 . S
C634 C635 1.399 . S
C635 H621 0.929 . S
C635 C634 1.399 . S
C635 C636 1.385 . S
C636 H622 0.931 . S
C636 C635 1.385 . S
C636 C637 1.389 . S
C637 C636 1.389 . S
C637 C638 1.387 . S
C638 H623 0.930 . S
C638 C633 1.390 . S
C638 C637 1.387 . S
H639 C651 0.930 1_565 S
H640 C653 0.930 . S
H641 C654 0.930 . S
H642 C658 0.959 1_545 S
H643 C658 0.959 . S
H644 C658 0.961 . S
H645 C659 0.960 . S
H646 C659 0.961 . S
H647 C659 0.959 . S
H648 C662 0.929 . S
H649 C663 0.931 . S
H650 C665 0.930 1_565 S
C651 H639 0.930 1_545 S
C651 C652 1.399 . S
C651 C656 1.399 . S
C652 C651 1.399 . S
C652 C653 1.376 . S
C653 H640 0.930 . S
C653 C652 1.376 . S
C653 C654 1.388 . S
C654 H641 0.930 . S
C654 C653 1.388 . S
C654 C655 1.390 . S
C655 C654 1.390 . S
C655 C656 1.394 . S
C655 C661 1.465 . S
C656 C651 1.399 . S
C656 C655 1.394 . S
C656 C657 1.516 . S
C657 C656 1.516 . S
C657 C658 1.502 1_545 S
C657 C659 1.561 1_545 S
C657 C660 1.526 . S
C658 H642 0.959 1_565 S
C658 H643 0.959 . S
C658 H644 0.961 . S
C658 C657 1.502 1_565 S
C659 H645 0.960 . S
C659 H646 0.961 . S
C659 H647 0.959 . S
C659 C657 1.561 1_565 S
C660 C657 1.526 . S
C660 C661 1.396 . S
C660 C665 1.390 . S
C661 C655 1.465 . S
C661 C660 1.396 . S
C661 C662 1.399 . S
C662 H648 0.929 . S
C662 C661 1.399 . S
C662 C663 1.385 . S
C663 H649 0.931 . S
C663 C662 1.385 . S
C663 C664 1.389 . S
C664 C663 1.389 . S
C664 C665 1.387 . S
C665 H650 0.930 1_545 S
C665 C660 1.390 . S
C665 C664 1.387 . S
H666 C678 0.930 . S
H667 C680 0.930 . S
H668 C681 0.930 . S
H669 C685 0.959 . S
H670 C685 0.959 . S
H671 C685 0.961 . S
H672 C686 0.960 . S
H673 C686 0.961 . S
H674 C686 0.959 . S
H675 C689 0.929 . S
H676 C690 0.931 . S
H677 C692 0.930 . S
C678 H666 0.930 . S
C678 C679 1.399 . S
C678 C683 1.399 . S
C679 C678 1.399 . S
C679 C680 1.376 . S
C680 H667 0.930 . S
C680 C679 1.376 . S
C680 C681 1.388 . S
C681 H668 0.930 . S
C681 C680 1.388 . S
C681 C682 1.390 . S
C682 C681 1.390 . S
C682 C683 1.394 . S
C682 C688 1.465 1_556 S
C683 C678 1.399 . S
C683 C682 1.394 . S
C683 C684 1.516 . S
C684 C683 1.516 . S
C684 C685 1.502 . S
C684 C686 1.561 . S
C684 C687 1.526 1_556 S
C685 H669 0.959 . S
C685 H670 0.959 . S
C685 H671 0.961 . S
C685 C684 1.502 . S
C686 H672 0.960 . S
C686 H673 0.961 . S
C686 H674 0.959 . S
C686 C684 1.561 . S
C687 C684 1.526 1_554 S
C687 C688 1.396 . S
C687 C692 1.390 . S
C688 C682 1.465 1_554 S
C688 C687 1.396 . S
C688 C689 1.399 . S
C689 H675 0.929 . S
C689 C688 1.399 . S
C689 C690 1.385 . S
C690 H676 0.931 . S
C690 C689 1.385 . S
C690 C691 1.389 . S
C691 C690 1.389 . S
C691 C692 1.387 . S
C692 H677 0.930 . S
C692 C687 1.390 . S
C692 C691 1.387 . S
H693 C705 0.930 . S
H694 C707 0.930 . S
H695 C708 0.930 . S
H696 C712 0.959 . S
H697 C712 0.959 . S
H698 C712 0.961 . S
H699 C713 0.960 . S
H700 C713 0.961 . S
H701 C713 0.959 . S
H702 C716 0.929 . S
H703 C717 0.931 . S
H704 C719 0.930 . S
C705 H693 0.930 . S
C705 C706 1.399 . S
C705 C710 1.399 . S
C706 C705 1.399 . S
C706 C707 1.376 1_455 S
C707 H694 0.930 . S
C707 C706 1.376 1_655 S
C707 C708 1.388 . S
C708 H695 0.930 . S
C708 C707 1.388 . S
C708 C709 1.390 1_655 S
C709 C708 1.390 1_455 S
C709 C710 1.394 . S
C709 C715 1.465 . S
C710 C705 1.399 . S
C710 C709 1.394 . S
C710 C711 1.516 . S
C711 C710 1.516 . S
C711 C712 1.502 . S
C711 C713 1.561 . S
C711 C714 1.526 . S
C712 H696 0.959 . S
C712 H697 0.959 . S
C712 H698 0.961 . S
C712 C711 1.502 . S
C713 H699 0.960 . S
C713 H700 0.961 . S
C713 H701 0.959 . S
C713 C711 1.561 . S
C714 C711 1.526 . S
C714 C715 1.396 . S
C714 C719 1.390 . S
C715 C709 1.465 . S
C715 C714 1.396 . S
C715 C716 1.399 1_455 S
C716 H702 0.929 . S
C716 C715 1.399 1_655 S
C716 C717 1.385 . S
C717 H703 0.931 . S
C717 C716 1.385 . S
C717 C718 1.389 1_655 S
C718 C717 1.389 1_455 S
C718 C719 1.387 . S
C719 H704 0.930 . S
C719 C714 1.390 . S
C719 C718 1.387 . S
C247 C7 0.749 . S
C259 C226 0.904 . S
C274 C51 1.975 . S
C286 C188 1.940 . S
C301 C87 1.305 . S
C313 C207 1.194 . S
C328 C16 0.321 . S
C340 C221 0.236 . S
C367 C183 1.888 . S
C355 C42 1.911 . S
C394 C202 1.152 . S
C382 C96 1.136 . S
C409 C47 1.310 . S
C421 C150 1.273 . S
C436 C91 3.050 . S
C448 C164 3.028 1_655 S
C463 C2 1.931 . S
C475 C126 1.921 . S
C502 C145 1.084 . S
C490 C56 1.109 . S
C529 C169 3.030 . S
C517 C82 3.078 . S
C544 C11 1.996 . S
C556 C131 1.906 . S
C583 C160 1.716 . S
C571 C19 1.712 . S
C598 C50 1.419 . S
C610 C122 1.508 . S
C625 C99 1.528 . S
C637 C141 1.534 . S
C664 C198 1.541 . S
C652 C59 1.561 . S
C691 C217 1.348 . S
C679 C90 1.344 . S
C706 C10 1.446 . S
C718 C179 1.493 . S
