# Generated by pormake.
# Topology anh, (6,3)-cn, num edge types: 1
# Building blocks:
#     Node 0, Type 0, BuildingBlock: INOVEN_clean_sbu_0, # of connection points: 6
#     Node 1, Type 0, BuildingBlock: INOVEN_clean_sbu_0, # of connection points: 6
#     Node 2, Type 0, BuildingBlock: INOVEN_clean_sbu_0, # of connection points: 6
#     Node 3, Type 1, BuildingBlock: KAKCAD_clean_linker_0, # of connection points: 3
#     Node 4, Type 1, BuildingBlock: KAKCAD_clean_linker_0, # of connection points: 3
#     Node 5, Type 1, BuildingBlock: KAKCAD_clean_linker_0, # of connection points: 3
#     Node 6, Type 1, BuildingBlock: KAKCAD_clean_linker_0, # of connection points: 3
#     Node 7, Type 1, BuildingBlock: KAKCAD_clean_linker_0, # of connection points: 3
#     Node 8, Type 1, BuildingBlock: KAKCAD_clean_linker_0, # of connection points: 3
#     Edge 9, Type (0, 1), BuildingBlock: UVAHIK_clean_linker_0, # of connection points: 2
#     Edge 10, Type (0, 1), BuildingBlock: UVAHIK_clean_linker_0, # of connection points: 2
#     Edge 11, Type (0, 1), BuildingBlock: UVAHIK_clean_linker_0, # of connection points: 2
#     Edge 12, Type (0, 1), BuildingBlock: UVAHIK_clean_linker_0, # of connection points: 2
#     Edge 13, Type (0, 1), BuildingBlock: UVAHIK_clean_linker_0, # of connection points: 2
#     Edge 14, Type (0, 1), BuildingBlock: UVAHIK_clean_linker_0, # of connection points: 2
#     Edge 15, Type (0, 1), BuildingBlock: UVAHIK_clean_linker_0, # of connection points: 2
#     Edge 16, Type (0, 1), BuildingBlock: UVAHIK_clean_linker_0, # of connection points: 2
#     Edge 17, Type (0, 1), BuildingBlock: UVAHIK_clean_linker_0, # of connection points: 2
#     Edge 18, Type (0, 1), BuildingBlock: UVAHIK_clean_linker_0, # of connection points: 2
#     Edge 19, Type (0, 1), BuildingBlock: UVAHIK_clean_linker_0, # of connection points: 2
#     Edge 20, Type (0, 1), BuildingBlock: UVAHIK_clean_linker_0, # of connection points: 2
#     Edge 21, Type (0, 1), BuildingBlock: UVAHIK_clean_linker_0, # of connection points: 2
#     Edge 22, Type (0, 1), BuildingBlock: UVAHIK_clean_linker_0, # of connection points: 2
#     Edge 23, Type (0, 1), BuildingBlock: UVAHIK_clean_linker_0, # of connection points: 2
#     Edge 24, Type (0, 1), BuildingBlock: UVAHIK_clean_linker_0, # of connection points: 2
#     Edge 25, Type (0, 1), BuildingBlock: UVAHIK_clean_linker_0, # of connection points: 2
#     Edge 26, Type (0, 1), BuildingBlock: UVAHIK_clean_linker_0, # of connection points: 2
# Relax obj value: 0.161
# Max RMSD: 0.202
# Mean RMSD: 0.151
data_MOF--net-anh--node1-INOVEN_clean_sbu_0--node2-KAKCAD_clean_linker_0--edge1-UVAHIK_clean_linker_0
_symmetry_space_group_name_H-M    P1
_symmetry_Int_Tables_number       1
_symmetry_cell_setting            triclinic
loop_
_symmetry_equiv_pos_as_xyz
'x, y, z'
_cell_length_a     46.521052
_cell_length_b     52.448404
_cell_length_c     81.969752
_cell_angle_alpha  92.983861
_cell_angle_beta   89.784036
_cell_angle_gamma 126.91007
loop_
_atom_site_label
_atom_site_type_symbol
_atom_site_fract_x
_atom_site_fract_y
_atom_site_fract_z
_atom_type_partial_charge
Gd0 Gd 0.07408 0.51391 0.14908 0.0
Gd1 Gd 0.03577 0.54098 0.15999 0.0
C2 C 0.11961 0.59158 0.15725 0.0
C3 C 0.11745 0.50458 0.13591 0.0
C4 C 0.15358 0.51692 0.14189 0.0
C5 C 0.16167 0.5223 0.15879 0.0
C6 C 0.18053 0.52469 0.13093 0.0
C7 C 0.22261 0.54099 0.15377 0.0
C8 C 0.21497 0.53679 0.13685 0.0
C9 C 0.19579 0.53393 0.16468 0.0
C10 C 0.06535 0.51359 0.18164 0.0
C11 C 0.99127 0.46417 0.15241 0.0
C12 C 0.99349 0.55026 0.17477 0.0
C13 C 0.95745 0.52755 0.18117 0.0
C14 C 0.93084 0.49996 0.17169 0.0
C15 C 0.95041 0.53187 0.19734 0.0
C16 C 0.8908 0.48098 0.1945 0.0
C17 C 0.91722 0.50882 0.20395 0.0
C18 C 0.8979 0.47692 0.17829 0.0
C19 C 0.04688 0.54195 0.12758 0.0
O20 O 0.11859 0.56753 0.1505 0.0
O21 O 0.09076 0.58707 0.16342 0.0
O22 O 0.09119 0.48393 0.14503 0.0
O23 O 0.11418 0.52614 0.13108 0.0
O24 O 0.06507 0.49192 0.17319 0.0
O25 O 0.07324 0.53571 0.17276 0.0
O26 O 0.99445 0.48735 0.16154 0.0
O27 O 1.01792 0.47016 0.14333 0.0
O28 O 0.99595 0.54977 0.15886 0.0
O29 O 1.01929 0.55195 0.18237 0.0
O30 O 0.0496 0.56496 0.13608 0.0
O31 O 0.0369 0.51918 0.13639 0.0
H32 H 0.14147 0.51722 0.16747 0.0
H33 H 0.17487 0.52115 0.11787 0.0
H34 H 0.23527 0.54186 0.12823 0.0
H35 H 0.20119 0.53714 0.17776 0.0
H36 H 0.9356 0.49586 0.15921 0.0
H37 H 0.97075 0.55286 0.20491 0.0
H38 H 0.91231 0.5126 0.21645 0.0
H39 H 0.87774 0.45608 0.17059 0.0
Gd40 Gd 0.57496 0.01316 0.48556 0.0
Gd41 Gd 0.52625 0.03114 0.47847 0.0
C42 C 0.48873 0.95736 0.47875 0.0
C43 C 0.60525 0.98927 0.49708 0.0
C44 C 0.59749 0.95777 0.49875 0.0
C45 C 0.62079 0.95187 0.4919 0.0
C46 C 0.56815 0.93396 0.50751 0.0
C47 C 0.58653 0.89934 0.50303 0.0
C48 C 0.56277 0.90507 0.50965 0.0
C49 C 0.6153 0.92297 0.49393 0.0
C50 C 0.5694 0.02101 0.45381 0.0
C51 C 0.61307 0.08689 0.48345 0.0
C52 C 0.49637 0.05644 0.4685 0.0
C53 C 0.50219 0.08728 0.47172 0.0
C54 C 0.47452 0.08749 0.47841 0.0
C55 C 0.53519 0.11655 0.46877 0.0
C56 C 0.51297 0.14573 0.47963 0.0
C57 C 0.54047 0.14543 0.47264 0.0
C58 C 0.47986 0.11633 0.48239 0.0
C59 C 0.53374 0.02488 0.51039 0.0
O60 O 0.51892 0.96585 0.48605 0.0
O61 O 0.48676 0.9787 0.47211 0.0
O62 O 0.60987 0.99892 0.48226 0.0
O63 O 0.58719 0.99628 0.50602 0.0
O64 O 0.59905 0.02981 0.46103 0.0
O65 O 0.54364 0.00712 0.4634 0.0
O66 O 0.58201 0.07802 0.47705 0.0
O67 O 0.61607 0.06615 0.49009 0.0
O68 O 0.48483 0.03797 0.48075 0.0
O69 O 0.52072 0.05667 0.46029 0.0
O70 O 0.50382 0.01608 0.50354 0.0
O71 O 0.55849 0.03807 0.50034 0.0
H72 H 0.64355 0.96981 0.48506 0.0
H73 H 0.54964 0.93777 0.51293 0.0
H74 H 0.54054 0.8876 0.51686 0.0
H75 H 0.63373 0.9192 0.48837 0.0
H76 H 0.44887 0.06527 0.48084 0.0
H77 H 0.55707 0.11721 0.4636 0.0
H78 H 0.56613 0.16753 0.47011 0.0
H79 H 0.45823 0.11552 0.48799 0.0
Gd80 Gd 0.60139 0.56278 0.85055 0.0
Gd81 Gd 0.55192 0.49208 0.85285 0.0
C82 C 0.51387 0.52686 0.85365 0.0
C83 C 0.63378 0.6211 0.8427 0.0
C84 C 0.62538 0.64326 0.83913 0.0
C85 C 0.64953 0.67542 0.84468 0.0
C86 C 0.59415 0.63311 0.83016 0.0
C87 C 0.61221 0.68756 0.83182 0.0
C88 C 0.58767 0.65508 0.8265 0.0
C89 C 0.643 0.69732 0.84112 0.0
C90 C 0.59365 0.54278 0.88091 0.0
C91 C 0.64031 0.5286 0.85076 0.0
C92 C 0.52117 0.4339 0.86051 0.0
C93 C 0.52788 0.41014 0.85709 0.0
C94 C 0.55422 0.4161 0.84613 0.0
C95 C 0.5073 0.38096 0.86451 0.0
C96 C 0.53863 0.36333 0.84966 0.0
C97 C 0.5126 0.35774 0.86083 0.0
C98 C 0.55959 0.39292 0.84246 0.0
C99 C 0.55947 0.51099 0.82219 0.0
O100 O 0.54527 0.55173 0.84851 0.0
O101 O 0.51103 0.50163 0.85842 0.0
O102 O 0.63025 0.61307 0.85782 0.0
O103 O 0.6224 0.59719 0.83198 0.0
O104 O 0.62417 0.56638 0.87554 0.0
O105 O 0.5688 0.53185 0.87029 0.0
O106 O 0.60762 0.50209 0.85328 0.0
O107 O 0.64474 0.55548 0.84808 0.0
O108 O 0.51112 0.44134 0.84786 0.0
O109 O 0.54514 0.45887 0.87002 0.0
O110 O 0.52956 0.48694 0.82769 0.0
O111 O 0.58459 0.52279 0.83283 0.0
H112 H 0.67363 0.68367 0.85173 0.0
H113 H 0.57499 0.60831 0.82582 0.0
H114 H 0.56383 0.64672 0.81922 0.0
H115 H 0.6621 0.72193 0.84573 0.0
H116 H 0.57026 0.43848 0.84023 0.0
H117 H 0.48693 0.37604 0.87304 0.0
H118 H 0.49636 0.33542 0.86678 0.0
H119 H 0.57954 0.39791 0.83366 0.0
C120 C 0.57529 0.05628 0.27108 0.0
C121 C 0.56523 0.02914 0.27909 0.0
C122 C 0.57642 0.05624 0.25404 0.0
C123 C 0.56805 0.02921 0.24461 0.0
C124 C 0.55863 0.00228 0.25273 0.0
C125 C 0.55694 0.00216 0.26976 0.0
C126 C 0.56822 0.02884 0.22639 0.0
C127 C 0.59357 0.05658 0.21837 0.0
C128 C 0.59278 0.05697 0.20121 0.0
C129 C 0.56657 0.02852 0.19195 0.0
C130 C 0.54159 1.00027 0.1998 0.0
C131 C 0.54245 1.00084 0.21694 0.0
C132 C 0.51359 0.96982 0.19054 0.0
C133 C 0.48892 0.96798 0.17976 0.0
C134 C 0.50879 0.94156 0.19403 0.0
C135 C 0.4791 0.91192 0.1875 0.0
C136 C 0.45325 0.90976 0.17741 0.0
C137 C 0.61956 0.0874 0.19333 0.0
C138 C 0.62902 0.11656 0.20051 0.0
C139 C 0.63735 0.08801 0.17927 0.0
C140 C 0.66484 0.11719 0.17294 0.0
C141 C 0.6751 0.14643 0.18051 0.0
C142 C 0.65645 0.14557 0.19427 0.0
C143 C 0.45888 0.93818 0.17333 0.0
H144 H 0.58151 0.0773 0.278 0.0
H145 H 0.58312 0.07721 0.24826 0.0
H146 H 0.55272 0.98126 0.24596 0.0
H147 H 0.54956 0.98107 0.27567 0.0
H148 H 0.61444 0.07797 0.22554 0.0
H149 H 0.52211 0.97942 0.22292 0.0
H150 H 0.5655 0.02831 0.17874 0.0
H151 H 0.49189 0.98939 0.17697 0.0
H152 H 0.52743 0.94234 0.20232 0.0
H153 H 0.47549 0.89057 0.19101 0.0
H154 H 0.61553 0.11704 0.21119 0.0
H155 H 0.63085 0.06603 0.17345 0.0
H156 H 0.43962 0.93732 0.16547 0.0
H157 H 0.6637 0.16741 0.20062 0.0
H158 H 0.67821 0.11681 0.16219 0.0
C159 C 0.55519 0.54362 0.6399 0.0
C160 C 0.57868 0.53974 0.64813 0.0
C161 C 0.55378 0.5427 0.62284 0.0
C162 C 0.57574 0.53777 0.61359 0.0
C163 C 0.59949 0.5342 0.62181 0.0
C164 C 0.60102 0.53528 0.63889 0.0
C165 C 0.57358 0.53607 0.59542 0.0
C166 C 0.57139 0.55773 0.58724 0.0
C167 C 0.56889 0.55613 0.57009 0.0
C168 C 0.56887 0.53256 0.56106 0.0
C169 C 0.57073 0.5104 0.56903 0.0
C170 C 0.5731 0.51245 0.58623 0.0
C171 C 0.56914 0.48449 0.55955 0.0
C172 C 0.54598 0.46847 0.5457 0.0
C173 C 0.58984 0.47475 0.56465 0.0
C174 C 0.58672 0.44913 0.55642 0.0
C175 C 0.56304 0.43267 0.54276 0.0
C176 C 0.56628 0.5792 0.56175 0.0
C177 C 0.54334 0.58645 0.56759 0.0
C178 C 0.58741 0.59489 0.54829 0.0
C179 C 0.58636 0.61798 0.54113 0.0
C180 C 0.56389 0.62565 0.54718 0.0
C181 C 0.5421 0.60934 0.56037 0.0
C182 C 0.54305 0.44297 0.53738 0.0
H183 H 0.53787 0.5474 0.64666 0.0
H184 H 0.53499 0.54528 0.61687 0.0
H185 H 0.617 0.53069 0.61503 0.0
H186 H 0.61918 0.53194 0.64486 0.0
H187 H 0.57237 0.57636 0.59425 0.0
H188 H 0.57339 0.49496 0.59254 0.0
H189 H 0.56712 0.53135 0.54783 0.0
H190 H 0.52936 0.47507 0.54148 0.0
H191 H 0.60838 0.4868 0.57511 0.0
H192 H 0.60229 0.44176 0.56106 0.0
H193 H 0.52644 0.57451 0.57783 0.0
H194 H 0.60547 0.58993 0.54358 0.0
H195 H 0.52494 0.43124 0.52677 0.0
H196 H 0.52474 0.61487 0.56542 0.0
H197 H 0.60323 0.62994 0.53088 0.0
C198 C 0.1127 0.55673 0.94448 0.0
C199 C 0.08144 0.53433 0.95276 0.0
C200 C 0.11243 0.55564 0.92737 0.0
C201 C 0.08075 0.53242 0.91821 0.0
C202 C 0.04957 0.51 0.9265 0.0
C203 C 0.04996 0.51085 0.94357 0.0
C204 C 0.07981 0.53164 0.90005 0.0
C205 C 0.10625 0.53281 0.89113 0.0
C206 C 0.10502 0.53065 0.87396 0.0
C207 C 0.07584 0.52761 0.86556 0.0
C208 C 0.04855 0.52657 0.87458 0.0
C209 C 0.05173 0.5289 0.89176 0.0
C210 C 1.01556 0.52245 0.8674 0.0
C211 C 1.01787 0.54355 0.85647 0.0
C212 C 0.98162 0.50064 0.87422 0.0
C213 C 0.9522 0.50124 0.87126 0.0
C214 C 0.95478 0.52327 0.86104 0.0
C215 C 0.13501 0.53122 0.86602 0.0
C216 C 0.17055 0.55969 0.86698 0.0
C217 C 0.1308 0.50263 0.862 0.0
C218 C 0.16091 0.50246 0.85945 0.0
C219 C 0.1967 0.53088 0.86102 0.0
C220 C 0.20061 0.55958 0.86442 0.0
C221 C 0.9879 0.54376 0.85324 0.0
H222 H 0.13741 0.57498 0.95125 0.0
H223 H 0.1368 0.57329 0.92129 0.0
H224 H 1.02485 0.49167 0.91976 0.0
H225 H 1.02537 0.49344 0.94959 0.0
H226 H 0.1277 0.53462 0.89767 0.0
H227 H 1.03206 0.52887 0.89892 0.0
H228 H 0.07417 0.5257 0.85233 0.0
H229 H 0.04335 0.56107 0.85111 0.0
H230 H 0.97823 0.4838 0.88262 0.0
H231 H 0.92732 0.48459 0.87728 0.0
H232 H 0.17525 0.58213 0.87055 0.0
H233 H 0.1042 0.48003 0.8618 0.0
H234 H 0.99126 0.5611 0.84524 0.0
H235 H 0.22712 0.58224 0.86548 0.0
H236 H 0.15599 0.47963 0.85708 0.0
C237 C 1.01771 0.50801 0.36565 0.0
C238 C 0.0461 0.51176 0.35705 0.0
C239 C 1.01774 0.50813 0.38273 0.0
C240 C 0.0465 0.51261 0.3915 0.0
C241 C 0.07491 0.51645 0.38289 0.0
C242 C 0.07457 0.51578 0.36584 0.0
C243 C 0.04732 0.51382 0.40961 0.0
C244 C 1.01771 0.48969 0.41802 0.0
C245 C 1.01887 0.4903 0.43518 0.0
C246 C 0.04975 0.51606 0.444 0.0
C247 C 0.0794 0.5408 0.43567 0.0
C248 C 0.07802 0.53916 0.4185 0.0
C249 C 0.1116 0.56928 0.44452 0.0
C250 C 0.10807 0.58782 0.45613 0.0
C251 C 0.14625 0.58022 0.43992 0.0
C252 C 0.17663 0.60973 0.44623 0.0
C253 C 0.17308 0.62918 0.45715 0.0
C254 C 0.98792 0.46314 0.44352 0.0
C255 C 0.95319 0.45424 0.44068 0.0
C256 C 0.99227 0.44393 0.45286 0.0
C257 C 0.9622 0.41544 0.45858 0.0
C258 C 0.9271 0.40577 0.45528 0.0
C259 C 0.92322 0.42615 0.44665 0.0
C260 C 0.1385 0.61759 0.46231 0.0
H261 H 0.99537 0.50472 0.35915 0.0
H262 H 0.99562 0.50528 0.3891 0.0
H263 H 0.0973 0.51978 0.38938 0.0
H264 H 0.09688 0.51891 0.3595 0.0
H265 H 0.99413 0.46977 0.41117 0.0
H266 H 0.10056 0.55825 0.412 0.0
H267 H 0.05067 0.51686 0.45723 0.0
H268 H 0.08167 0.58007 0.45979 0.0
H269 H 0.14973 0.56637 0.431 0.0
H270 H 0.20279 0.61798 0.44192 0.0
H271 H 0.94919 0.46877 0.43356 0.0
H272 H 1.01879 0.45013 0.45504 0.0
H273 H 0.13492 0.63189 0.47083 0.0
H274 H 0.89692 0.42022 0.44423 0.0
H275 H 0.96651 0.40041 0.46499 0.0
C276 C 0.54334 0.99157 0.69241 0.0
C277 C 0.56662 0.02006 0.68448 0.0
C278 C 0.54414 0.99161 0.70946 0.0
C279 C 0.56811 0.02015 0.71899 0.0
C280 C 0.5915 0.0486 0.71109 0.0
C281 C 0.59084 0.04855 0.69405 0.0
C282 C 0.56857 0.02034 0.73713 0.0
C283 C 0.56726 0.99656 0.74502 0.0
C284 C 0.56803 0.99674 0.76217 0.0
C285 C 0.5699 0.02106 0.77146 0.0
C286 C 0.57104 0.04499 0.76376 0.0
C287 C 0.57041 0.0444 0.74659 0.0
C288 C 0.57228 0.07043 0.77347 0.0
C289 C 0.54989 0.06297 0.78678 0.0
C290 C 0.59483 0.10225 0.769 0.0
C291 C 0.59436 0.12588 0.77737 0.0
C292 C 0.57129 0.11831 0.79041 0.0
C293 C 0.56773 0.97183 0.77023 0.0
C294 C 0.54424 0.93963 0.76442 0.0
C295 C 0.59196 0.98021 0.78329 0.0
C296 C 0.59338 0.95703 0.79007 0.0
C297 C 0.57039 0.92492 0.78402 0.0
C298 C 0.54547 0.91644 0.77127 0.0
C299 C 0.54933 0.08663 0.79514 0.0
H300 H 0.52396 0.96928 0.68546 0.0
H301 H 0.52548 0.96937 0.71521 0.0
H302 H 0.61066 0.07089 0.7181 0.0
H303 H 0.6096 0.07082 0.68837 0.0
H304 H 0.56672 0.97837 0.73778 0.0
H305 H 0.57039 0.06228 0.74054 0.0
H306 H 0.57051 0.02137 0.78469 0.0
H307 H 0.53204 0.03865 0.79046 0.0
H308 H 0.61269 0.10886 0.75891 0.0
H309 H 0.61138 0.14995 0.7733 0.0
H310 H 0.52504 0.9324 0.75447 0.0
H311 H 0.61055 0.00485 0.78797 0.0
H312 H 0.53154 0.08006 0.80525 0.0
H313 H 0.52759 0.89197 0.76624 0.0
H314 H 0.61263 0.96427 0.8 0.0
C315 C 0.5345 0.40809 0.04912 0.0
C316 C 0.53703 0.433 0.04189 0.0
C317 C 0.52786 0.40369 0.06582 0.0
C318 C 0.52421 0.42448 0.07556 0.0
C319 C 0.52819 0.45011 0.06823 0.0
C320 C 0.53406 0.45404 0.05158 0.0
C321 C 0.51597 0.41968 0.09322 0.0
C322 C 0.53145 0.4096 0.1033 0.0
C323 C 0.52544 0.40739 0.12021 0.0
C324 C 0.50367 0.41531 0.12686 0.0
C325 C 0.48934 0.42666 0.11719 0.0
C326 C 0.49428 0.42739 0.10031 0.0
C327 C 0.47375 0.44179 0.1251 0.0
C328 C 0.45358 0.42989 0.13925 0.0
C329 C 0.48243 0.47047 0.11952 0.0
C330 C 0.47209 0.48725 0.12807 0.0
C331 C 0.4533 0.47613 0.14261 0.0
C332 C 0.54408 0.39959 0.13133 0.0
C333 C 0.55031 0.37721 0.12649 0.0
C334 C 0.55588 0.4148 0.1471 0.0
C335 C 0.57266 0.40747 0.15782 0.0
C336 C 0.57975 0.38573 0.15293 0.0
C337 C 0.56819 0.37052 0.13713 0.0
C338 C 0.44373 0.447 0.14798 0.0
H339 H 0.53679 0.39163 0.04178 0.0
H340 H 0.52484 0.38366 0.071 0.0
H341 H 0.52688 0.46733 0.07536 0.0
H342 H 0.53649 0.47371 0.04625 0.0
H343 H 0.54957 0.40508 0.09815 0.0
H344 H 0.48178 0.43477 0.09272 0.0
H345 H 0.4993 0.41416 0.13986 0.0
H346 H 0.44599 0.40766 0.14379 0.0
H347 H 0.49838 0.48069 0.10882 0.0
H348 H 0.47904 0.5091 0.12328 0.0
H349 H 0.54142 0.36486 0.11449 0.0
H350 H 0.5527 0.43289 0.15123 0.0
H351 H 0.4293 0.43767 0.15913 0.0
H352 H 0.57358 0.35395 0.13282 0.0
H353 H 0.58039 0.41925 0.16995 0.0
C354 C 0.25769 0.52998 0.17072 0.0
C355 C 0.25733 0.54981 0.16005 0.0
C356 C 0.28988 0.53521 0.17493 0.0
C357 C 0.37727 0.56958 0.1567 0.0
H358 H 0.3855 0.52897 0.19272 0.0
C359 C 0.46571 0.52824 0.15234 0.0
C360 C 0.44307 0.4946 0.1518 0.0
C361 C 0.45388 0.54544 0.15889 0.0
C362 C 0.38403 0.54101 0.18277 0.0
H363 H 0.29021 0.59227 0.14653 0.0
H364 H 0.34706 0.60243 0.1544 0.0
H365 H 0.3448 0.54379 0.19448 0.0
H366 H 0.39127 0.45294 0.15891 0.0
H367 H 0.37119 0.48305 0.17068 0.0
H368 H 0.41579 0.56598 0.14487 0.0
C369 C 0.32237 0.58209 0.15908 0.0
C370 C 0.36051 0.54923 0.18367 0.0
C371 C 0.28994 0.5764 0.15459 0.0
C372 C 0.40957 0.47877 0.1592 0.0
C373 C 0.39805 0.49602 0.166 0.0
C374 C 0.40134 0.56205 0.15599 0.0
C375 C 0.32259 0.56074 0.16873 0.0
C376 C 0.35507 0.56162 0.17017 0.0
C377 C 0.41956 0.52937 0.16534 0.0
C378 C 0.4033 0.54602 0.16859 0.0
H379 H 0.23277 0.5092 0.17502 0.0
H380 H 0.28855 0.51781 0.18212 0.0
H381 H 0.37392 0.5789 0.14599 0.0
H382 H 0.49214 0.5413 0.14721 0.0
H383 H 0.4709 0.57118 0.1583 0.0
C384 C 0.64471 0.14075 0.47212 0.0
C385 C 0.64516 0.12068 0.48266 0.0
C386 C 0.67522 0.17218 0.47069 0.0
C387 C 0.77457 0.22595 0.4789 0.0
H388 H 0.76361 0.29126 0.46904 0.0
C389 C 0.89515 0.3603 0.4743 0.0
C390 C 0.89469 0.374 0.46005 0.0
C391 C 0.86506 0.33006 0.47832 0.0
C392 C 0.76708 0.27325 0.47176 0.0
H393 H 0.67802 0.11825 0.50023 0.0
H394 H 0.73096 0.17345 0.49817 0.0
H395 H 0.71064 0.23782 0.47426 0.0
H396 H 0.86169 0.36566 0.43875 0.0
H397 H 0.8092 0.31387 0.44614 0.0
H398 H 0.83129 0.26194 0.47665 0.0
C399 C 0.70728 0.16467 0.49066 0.0
C400 C 0.73668 0.24248 0.47466 0.0
C401 C 0.6768 0.13302 0.49193 0.0
C402 C 0.86306 0.35659 0.45005 0.0
C403 C 0.83289 0.32667 0.45421 0.0
C404 C 0.80506 0.25692 0.47623 0.0
C405 C 0.70704 0.18469 0.47992 0.0
C406 C 0.73984 0.21816 0.47799 0.0
C407 C 0.83358 0.31298 0.46833 0.0
C408 C 0.80158 0.28075 0.47237 0.0
H409 H 0.62098 0.13198 0.46464 0.0
H410 H 0.67398 0.18639 0.46201 0.0
H411 H 0.77826 0.20793 0.48119 0.0
H412 H 0.91864 0.37299 0.48248 0.0
H413 H 0.86626 0.32018 0.48935 0.0
C414 C 0.57154 0.70359 0.82729 0.0
C415 C 0.60624 0.71137 0.82751 0.0
C416 C 0.56627 0.72621 0.82336 0.0
C417 C 0.61404 0.81313 0.82202 0.0
H418 H 0.53679 0.78955 0.79171 0.0
C419 C 0.60718 0.90753 0.79332 0.0
C420 C 0.57329 0.90056 0.79052 0.0
C421 C 0.61004 0.88424 0.79867 0.0
C422 C 0.55816 0.79647 0.8004 0.0
H423 H 0.66243 0.74894 0.82328 0.0
H424 H 0.65326 0.78833 0.81669 0.0
H425 H 0.54357 0.7491 0.79947 0.0
H426 H 0.51579 0.86388 0.79158 0.0
H427 H 0.52073 0.82331 0.80116 0.0
H428 H 0.62863 0.86041 0.82305 0.0
C429 C 0.6302 0.76488 0.81979 0.0
C430 C 0.56207 0.77326 0.80481 0.0
C431 C 0.63544 0.74226 0.82361 0.0
C432 C 0.5423 0.86987 0.79344 0.0
C433 C 0.54515 0.8466 0.79888 0.0
C434 C 0.61001 0.83628 0.8177 0.0
C435 C 0.59559 0.75717 0.81965 0.0
C436 C 0.5903 0.78141 0.81554 0.0
C437 C 0.57907 0.8534 0.80146 0.0
C438 C 0.58226 0.82836 0.80668 0.0
H439 H 0.54848 0.6802 0.83043 0.0
H440 H 0.53931 0.71964 0.82349 0.0
H441 H 0.6357 0.82005 0.83053 0.0
H442 H 0.63157 0.93077 0.79094 0.0
H443 H 0.6366 0.89022 0.80023 0.0
C444 C 0.83565 0.46739 0.20818 0.0
C445 C 0.8547 0.45722 0.20082 0.0
C446 C 0.79883 0.44553 0.21044 0.0
C447 C 0.7194 0.39653 0.21328 0.0
H448 H 0.68155 0.35303 0.17042 0.0
C449 C 0.59502 0.35099 0.16416 0.0
C450 C 0.601 0.38069 0.16402 0.0
C451 C 0.61699 0.34748 0.1739 0.0
C452 C 0.69112 0.36404 0.18267 0.0
H453 H 0.85154 0.41585 0.19207 0.0
H454 H 0.7871 0.37746 0.19617 0.0
H455 H 0.74052 0.37045 0.17963 0.0
H456 H 0.63494 0.42985 0.17422 0.0
H457 H 0.67181 0.42332 0.19137 0.0
H458 H 0.67121 0.39297 0.21541 0.0
C459 C 0.80035 0.40241 0.19981 0.0
C460 C 0.72507 0.37408 0.18802 0.0
C461 C 0.83718 0.42436 0.19744 0.0
C462 C 0.62859 0.40633 0.17427 0.0
C463 C 0.64987 0.40263 0.18418 0.0
C464 C 0.68556 0.38674 0.20786 0.0
C465 C 0.78037 0.41301 0.20544 0.0
C466 C 0.74064 0.39248 0.20287 0.0
C467 C 0.64478 0.3734 0.18389 0.0
C468 C 0.67233 0.37239 0.19204 0.0
H469 H 0.84846 0.49258 0.21087 0.0
H470 H 0.78444 0.45475 0.21468 0.0
H471 H 0.73021 0.40983 0.22499 0.0
H472 H 0.57373 0.33059 0.15661 0.0
H473 H 0.61279 0.32478 0.17337 0.0
C474 C 0.42306 0.91451 0.47238 0.0
C475 C 0.45676 0.92326 0.4777 0.0
C476 C 0.39274 0.88249 0.47154 0.0
C477 C 0.36489 0.80034 0.46756 0.0
H478 H 0.27416 0.77784 0.48341 0.0
C479 C 0.23818 0.66863 0.46637 0.0
C480 C 0.20508 0.66226 0.46212 0.0
C481 C 0.26892 0.70007 0.46971 0.0
C482 C 0.29913 0.78366 0.47874 0.0
H483 H 0.48492 0.905 0.48625 0.0
H484 H 0.43196 0.849 0.48457 0.0
H485 H 0.32763 0.83328 0.48612 0.0
H486 H 0.1784 0.68402 0.45811 0.0
H487 H 0.23187 0.7387 0.46362 0.0
H488 H 0.33639 0.75101 0.45975 0.0
C489 C 0.4291 0.86702 0.48107 0.0
C490 C 0.32984 0.8155 0.48034 0.0
C491 C 0.4594 0.89913 0.48209 0.0
C492 C 0.20333 0.68804 0.4616 0.0
C493 C 0.2341 0.71948 0.46479 0.0
C494 C 0.3341 0.76853 0.46581 0.0
C495 C 0.39538 0.85835 0.47584 0.0
C496 C 0.36304 0.82426 0.47468 0.0
C497 C 0.26747 0.72601 0.46873 0.0
C498 C 0.30068 0.75973 0.47128 0.0
H499 H 0.41997 0.93242 0.46894 0.0
H500 H 0.36726 0.87659 0.46729 0.0
H501 H 0.38998 0.80636 0.46291 0.0
H502 H 0.24034 0.64927 0.46704 0.0
H503 H 0.29386 0.704 0.47302 0.0
C504 C 0.51314 0.30595 0.84278 0.0
C505 C 0.54326 0.33813 0.84521 0.0
C506 C 0.51732 0.28236 0.8381 0.0
C507 C 0.58085 0.27142 0.81825 0.0
H508 H 0.52128 0.18803 0.83613 0.0
C509 C 0.60058 0.17451 0.80194 0.0
C510 C 0.56927 0.14319 0.7986 0.0
C511 C 0.59844 0.19832 0.80874 0.0
C512 C 0.53792 0.2111 0.83091 0.0
H513 H 0.60152 0.37054 0.84501 0.0
H514 H 0.6088 0.32937 0.83681 0.0
H515 H 0.51571 0.22957 0.84592 0.0
H516 H 0.51113 0.11237 0.79988 0.0
H517 H 0.50738 0.15385 0.81171 0.0
H518 H 0.60278 0.25291 0.80311 0.0
C519 C 0.58189 0.32246 0.8383 0.0
C520 C 0.53473 0.23492 0.83653 0.0
C521 C 0.57771 0.34607 0.843 0.0
C522 C 0.53582 0.13612 0.80252 0.0
C523 C 0.53368 0.15993 0.8093 0.0
C524 C 0.58402 0.24761 0.81263 0.0
C525 C 0.55172 0.29034 0.83572 0.0
C526 C 0.556 0.26532 0.83019 0.0
C527 C 0.56493 0.19141 0.81235 0.0
C528 C 0.56245 0.21708 0.81882 0.0
H529 H 0.48618 0.29904 0.84411 0.0
H530 H 0.49347 0.25794 0.83596 0.0
H531 H 0.59726 0.2944 0.81292 0.0
H532 H 0.62681 0.18065 0.79931 0.0
H533 H 0.6231 0.22217 0.8112 0.0
C534 C 0.61243 0.87011 0.50881 0.0
C535 C 0.5821 0.86935 0.50599 0.0
C536 C 0.60855 0.84221 0.51175 0.0
C537 C 0.5449 0.76217 0.52667 0.0
H538 H 0.60868 0.74599 0.50672 0.0
C539 C 0.53193 0.64774 0.5377 0.0
C540 C 0.56415 0.65144 0.54024 0.0
C541 C 0.53243 0.67274 0.53209 0.0
C542 C 0.59086 0.75028 0.51252 0.0
H543 H 0.52378 0.83827 0.50388 0.0
H544 H 0.51705 0.78959 0.5093 0.0
H545 H 0.61262 0.79262 0.49974 0.0
H546 H 0.62216 0.68431 0.53885 0.0
H547 H 0.62313 0.72799 0.52926 0.0
H548 H 0.52369 0.72034 0.53976 0.0
C549 C 0.54384 0.81194 0.50929 0.0
C550 C 0.59309 0.77697 0.50849 0.0
C551 C 0.54772 0.83987 0.50623 0.0
C552 C 0.59683 0.68052 0.53679 0.0
C553 C 0.59735 0.70557 0.53127 0.0
C554 C 0.5428 0.73556 0.53078 0.0
C555 C 0.57424 0.81282 0.51207 0.0
C556 C 0.57039 0.78341 0.51564 0.0
C557 C 0.56519 0.70212 0.52898 0.0
C558 C 0.56602 0.72943 0.52389 0.0
H559 H 0.63929 0.89241 0.50908 0.0
H560 H 0.63248 0.84379 0.51413 0.0
H561 H 0.52731 0.76667 0.53253 0.0
H562 H 0.50627 0.62546 0.54004 0.0
H563 H 0.50709 0.66901 0.5302 0.0
C564 C 0.66919 0.49942 0.84926 0.0
C565 C 0.67283 0.5282 0.85111 0.0
C566 C 0.69956 0.49923 0.84969 0.0
C567 C 0.79552 0.54674 0.86531 0.0
H568 H 0.80397 0.49339 0.83428 0.0
C569 C 0.90475 0.52448 0.87314 0.0
C570 C 0.92344 0.52526 0.8593 0.0
C571 C 0.8752 0.5256 0.87181 0.0
C572 C 0.80226 0.50856 0.84306 0.0
H573 H 0.71252 0.57944 0.85513 0.0
H574 H 0.76485 0.57901 0.85639 0.0
H575 H 0.75121 0.49336 0.83276 0.0
H576 H 0.92435 0.52766 0.833 0.0
H577 H 0.87225 0.52862 0.83061 0.0
H578 H 0.84607 0.56137 0.87586 0.0
C579 C 0.73843 0.55645 0.85439 0.0
C580 C 0.77165 0.50836 0.84226 0.0
C581 C 0.70817 0.55671 0.85357 0.0
C582 C 0.91109 0.52713 0.844 0.0
C583 C 0.88086 0.52746 0.84262 0.0
C584 C 0.82567 0.54635 0.86635 0.0
C585 C 0.73488 0.52773 0.85241 0.0
C586 C 0.76765 0.52758 0.85332 0.0
C587 C 0.86231 0.52682 0.85652 0.0
C588 C 0.82985 0.52737 0.85522 0.0
H589 H 0.64272 0.47686 0.84734 0.0
H590 H 0.69525 0.47651 0.84821 0.0
H591 H 0.79377 0.56178 0.87416 0.0
H592 H 0.91322 0.52326 0.88518 0.0
H593 H 0.86193 0.52488 0.88284 0.0
C594 C 0.1553 0.6509 0.1632 0.0
C595 C 0.15418 0.62429 0.15809 0.0
C596 C 0.18782 0.68173 0.16394 0.0
C597 C 0.28607 0.7252 0.16745 0.0
H598 H 0.28972 0.79588 0.1523 0.0
C599 C 0.42016 0.85219 0.16723 0.0
C600 C 0.41943 0.87784 0.17228 0.0
C601 C 0.38815 0.82146 0.16403 0.0
C602 C 0.28916 0.77651 0.15675 0.0
H603 H 0.18663 0.60938 0.14976 0.0
H604 H 0.24333 0.66315 0.15111 0.0
H605 H 0.23334 0.74197 0.14991 0.0
H606 H 0.38435 0.89125 0.1777 0.0
H607 H 0.32862 0.83775 0.17231 0.0
H608 H 0.34158 0.75965 0.17462 0.0
C609 C 0.21902 0.66012 0.15461 0.0
C610 C 0.25679 0.74556 0.15535 0.0
C611 C 0.18644 0.62929 0.15375 0.0
C612 C 0.38591 0.87216 0.1736 0.0
C613 C 0.35389 0.84139 0.1705 0.0
C614 C 0.31838 0.75616 0.16894 0.0
C615 C 0.22011 0.68673 0.15969 0.0
C616 C 0.25479 0.71954 0.16076 0.0
C617 C 0.35453 0.81549 0.1659 0.0
C618 C 0.32037 0.7823 0.16368 0.0
H619 H 0.13101 0.64798 0.16663 0.0
H620 H 0.18776 0.70164 0.16809 0.0
H621 H 0.28537 0.70578 0.17194 0.0
H622 H 0.44554 0.85584 0.16589 0.0
H623 H 0.3898 0.80232 0.16018 0.0
C624 C 0.55234 0.20289 0.49116 0.0
C625 C 0.51892 0.17646 0.48442 0.0
C626 C 0.55743 0.23126 0.49627 0.0
C627 C 0.50762 0.26148 0.51052 0.0
H628 H 0.59397 0.34434 0.50077 0.0
C629 C 0.5243 0.37756 0.52868 0.0
C630 C 0.55844 0.40432 0.53451 0.0
C631 C 0.51964 0.35041 0.52159 0.0
C632 C 0.56988 0.32143 0.50379 0.0
H633 H 0.46505 0.15981 0.47729 0.0
H634 H 0.47379 0.20904 0.48652 0.0
H635 H 0.58582 0.29587 0.49033 0.0
H636 H 0.61466 0.42359 0.53699 0.0
H637 H 0.60632 0.37592 0.52525 0.0
H638 H 0.49194 0.28675 0.52431 0.0
C639 C 0.49593 0.20762 0.48797 0.0
C640 C 0.5652 0.29366 0.49775 0.0
C641 C 0.49092 0.17936 0.48272 0.0
C642 C 0.58787 0.40331 0.53286 0.0
C643 C 0.58316 0.37606 0.5259 0.0
C644 C 0.51242 0.2892 0.51668 0.0
C645 C 0.52916 0.23381 0.49489 0.0
C646 C 0.53401 0.26338 0.50105 0.0
C647 C 0.54893 0.34913 0.52027 0.0
C648 C 0.54363 0.31959 0.51342 0.0
H649 H 0.57437 0.20145 0.49291 0.0
H650 H 0.58323 0.25091 0.50173 0.0
H651 H 0.48354 0.23849 0.51348 0.0
H652 H 0.50089 0.37722 0.52988 0.0
H653 H 0.49298 0.33038 0.51718 0.0
C654 C 0.48334 0.5538 0.84922 0.0
C655 C 0.48146 0.52748 0.85426 0.0
C656 C 0.45314 0.55424 0.84974 0.0
C657 C 0.35103 0.50039 0.85379 0.0
H658 H 0.36498 0.5807 0.86118 0.0
C659 C 0.22892 0.50731 0.84991 0.0
C660 C 0.22954 0.53059 0.8598 0.0
C661 C 0.25917 0.50695 0.84904 0.0
C662 C 0.36015 0.55783 0.85923 0.0
H663 H 0.44494 0.48085 0.86389 0.0
H664 H 0.39306 0.48167 0.86498 0.0
H665 H 0.41685 0.58003 0.86046 0.0
H666 H 0.26417 0.57149 0.87689 0.0
H667 H 0.31597 0.57091 0.87536 0.0
H668 H 0.29429 0.47813 0.85291 0.0
C669 C 0.41776 0.50204 0.86034 0.0
C670 C 0.3904 0.55749 0.85859 0.0
C671 C 0.44796 0.50163 0.85983 0.0
C672 C 0.26206 0.55344 0.86878 0.0
C673 C 0.29226 0.55309 0.86791 0.0
C674 C 0.32078 0.50074 0.8544 0.0
C675 C 0.41949 0.52835 0.8553 0.0
C676 C 0.38669 0.52876 0.85588 0.0
C677 C 0.29168 0.52984 0.85802 0.0
C678 C 0.32449 0.52946 0.85718 0.0
H679 H 0.5083 0.57425 0.84477 0.0
H680 H 0.45622 0.57492 0.84548 0.0
H681 H 0.34623 0.4776 0.85146 0.0
H682 H 0.20509 0.4894 0.84254 0.0
H683 H 0.25706 0.48881 0.84102 0.0
C684 C 0.95613 0.4046 0.14684 0.0
C685 C 0.95777 0.43098 0.15303 0.0
C686 C 0.92515 0.37332 0.14856 0.0
C687 C 0.84206 0.32795 0.17301 0.0
H688 H 0.81188 0.25876 0.14076 0.0
C689 C 0.70528 0.20437 0.17562 0.0
C690 C 0.70593 0.17783 0.17464 0.0
C691 C 0.73545 0.23458 0.1718 0.0
C692 C 0.82013 0.27785 0.1499 0.0
H693 H 0.92766 0.44497 0.16543 0.0
H694 H 0.87347 0.39114 0.1677 0.0
H695 H 0.86519 0.31279 0.13623 0.0
H696 H 0.7389 0.16248 0.16819 0.0
H697 H 0.79121 0.21516 0.16109 0.0
H698 H 0.79653 0.2931 0.18646 0.0
C699 C 0.89634 0.39423 0.16202 0.0
C700 C 0.85081 0.30885 0.14736 0.0
C701 C 0.92742 0.42532 0.16055 0.0
C702 C 0.73713 0.18216 0.16895 0.0
C703 C 0.76723 0.2124 0.16494 0.0
C704 C 0.81121 0.29715 0.1754 0.0
C705 C 0.89487 0.36766 0.15632 0.0
C706 C 0.86221 0.33441 0.15888 0.0
C707 C 0.76696 0.23907 0.16667 0.0
C708 C 0.79983 0.27174 0.16389 0.0
H709 H 0.97913 0.40805 0.14108 0.0
H710 H 0.92539 0.35363 0.14417 0.0
H711 H 0.8503 0.34659 0.18242 0.0
H712 H 0.68153 0.20195 0.17952 0.0
H713 H 0.7342 0.25456 0.17297 0.0
C714 C 0.04437 0.51384 0.10142 0.0
C715 C 0.05267 0.54162 0.10986 0.0
C716 C 0.04911 0.51326 0.08457 0.0
C717 C 0.09803 0.56486 0.05066 0.0
H718 H 1.02068 0.49294 0.02347 0.0
C719 C 0.09637 0.56473 0.97999 0.0
C720 C 0.08126 0.53562 0.97093 0.0
C721 C 0.09438 0.56562 0.99704 0.0
C722 C 0.04285 0.51298 0.03086 0.0
H723 H 0.07313 0.59076 0.10745 0.0
H724 H 0.0817 0.58985 0.078 0.0
H725 H 1.01475 0.49412 0.05297 0.0
H726 H 0.05346 0.48481 0.97266 0.0
H727 H 0.05073 0.48637 0.00236 0.0
H728 H 0.1264 0.58359 0.02862 0.0
C729 C 0.0715 0.56852 0.08439 0.0
C730 C 0.03935 0.51368 0.04779 0.0
C731 C 0.0664 0.56899 0.10122 0.0
C732 C 0.06489 0.50754 0.9793 0.0
C733 C 0.0632 0.50846 0.99634 0.0
C734 C 0.10171 0.56404 0.03372 0.0
C735 C 0.06263 0.54056 0.07586 0.0
C736 C 0.06682 0.53967 0.05788 0.0
C737 C 0.07751 0.53745 0.00545 0.0
C738 C 0.0741 0.53813 0.02356 0.0
H739 H 0.03392 0.49244 0.1078 0.0
H740 H 0.04242 0.49148 0.07838 0.0
H741 H 0.11985 0.58504 0.05814 0.0
H742 H 0.10882 0.58671 0.97387 0.0
H743 H 0.10524 0.58833 0.00356 0.0
C744 C 0.59669 0.04435 0.42739 0.0
C745 C 0.56584 0.02349 0.43622 0.0
C746 C 0.59395 0.04595 0.41057 0.0
C747 C 0.54031 0.99806 0.37443 0.0
H748 H 0.588 0.07894 0.35432 0.0
C749 C 0.53254 0.00355 0.30451 0.0
C750 C 0.56323 0.02891 0.29713 0.0
C751 C 0.53061 0.00334 0.32154 0.0
C752 C 0.57494 0.05615 0.35968 0.0
H753 H 0.50789 0.98825 0.43457 0.0
H754 H 0.50318 0.99041 0.40493 0.0
H755 H 0.5888 0.07804 0.38403 0.0
H756 H 0.61612 0.07371 0.30165 0.0
H757 H 0.61354 0.07288 0.33133 0.0
H758 H 0.5278 0.9761 0.35024 0.0
C759 C 0.5294 0.00566 0.41109 0.0
C760 C 0.5752 0.05568 0.37671 0.0
C761 C 0.53207 0.00452 0.42801 0.0
C762 C 0.592 0.05403 0.30706 0.0
C763 C 0.59035 0.05359 0.32408 0.0
C764 C 0.54054 0.99853 0.35739 0.0
C765 C 0.56036 0.02631 0.40223 0.0
C766 C 0.55808 0.02665 0.38423 0.0
C767 C 0.55959 0.02826 0.33158 0.0
C768 C 0.55809 0.02762 0.34976 0.0
H769 H 0.62302 0.05933 0.43347 0.0
H770 H 0.61824 0.0619 0.404 0.0
H771 H 0.52728 0.97539 0.37995 0.0
H772 H 0.5098 0.98408 0.2971 0.0
H773 H 0.5062 0.98374 0.32679 0.0
C774 C 0.59852 0.53858 0.79836 0.0
C775 C 0.5642 0.51823 0.80481 0.0
C776 C 0.60224 0.54301 0.78155 0.0
C777 C 0.55185 0.5028 0.7423 0.0
H778 H 0.6219 0.58465 0.72435 0.0
C779 C 0.54651 0.52252 0.6745 0.0
C780 C 0.57901 0.53936 0.66625 0.0
C781 C 0.54649 0.52129 0.69147 0.0
C782 C 0.60246 0.56158 0.7292 0.0
H783 H 0.50694 0.48788 0.79898 0.0
H784 H 0.5133 0.49601 0.76988 0.0
H785 H 0.6188 0.58062 0.75402 0.0
H786 H 0.63707 0.56871 0.66941 0.0
H787 H 0.63701 0.56638 0.69916 0.0
H788 H 0.53526 0.48376 0.7176 0.0
C789 C 0.53742 0.50789 0.77761 0.0
C790 C 0.6007 0.55926 0.74619 0.0
C791 C 0.53375 0.50338 0.79431 0.0
C792 C 0.61157 0.5553 0.67541 0.0
C793 C 0.61156 0.55422 0.69244 0.0
C794 C 0.55352 0.50514 0.7254 0.0
C795 C 0.57167 0.52722 0.77094 0.0
C796 C 0.57503 0.52988 0.75293 0.0
C797 C 0.57898 0.53695 0.70064 0.0
C798 C 0.57853 0.53459 0.71864 0.0
H799 H 0.62244 0.55036 0.80622 0.0
H800 H 0.62901 0.558 0.7768 0.0
H801 H 0.53238 0.47962 0.74704 0.0
H802 H 0.52095 0.50974 0.66781 0.0
H803 H 0.52095 0.50809 0.69744 0.0
C804 C 0.5732 0.03739 0.53485 0.0
C805 C 0.53872 0.02288 0.52791 0.0
C806 C 0.57776 0.03618 0.55159 0.0
C807 C 0.52911 0.99173 0.5877 0.0
H808 H 0.60448 0.06967 0.61227 0.0
C809 C 0.56912 0.04546 0.6588 0.0
C810 C 0.56536 0.02016 0.66634 0.0
C811 C 0.56755 0.04545 0.64178 0.0
C812 C 0.58326 0.04774 0.60558 0.0
H813 H 0.48196 0.99532 0.53285 0.0
H814 H 0.48987 0.99323 0.56205 0.0
H815 H 0.59832 0.0698 0.58271 0.0
H816 H 0.55767 0.97527 0.66177 0.0
H817 H 0.5545 0.97511 0.63205 0.0
H818 H 0.5136 0.96982 0.61061 0.0
C819 C 0.51337 0.00537 0.5546 0.0
C820 C 0.57997 0.04773 0.58863 0.0
C821 C 0.50886 0.00673 0.53791 0.0
C822 C 0.56009 0.99489 0.6564 0.0
C823 C 0.55834 0.99481 0.63936 0.0
C824 C 0.53254 0.99169 0.60463 0.0
C825 C 0.54789 0.02026 0.56165 0.0
C826 C 0.55262 0.01981 0.57953 0.0
C827 C 0.56202 0.02008 0.63187 0.0
C828 C 0.55943 0.01977 0.61378 0.0
H829 H 0.59668 0.04992 0.52739 0.0
H830 H 0.60465 0.04761 0.55664 0.0
H831 H 0.50797 0.96976 0.581 0.0
H832 H 0.57257 0.06504 0.66605 0.0
H833 H 0.5699 0.06503 0.63638 0.0
C834 C 0.5544 0.50755 0.90273 0.0
C835 C 0.58896 0.52899 0.89678 0.0
C836 C 0.54982 0.49437 0.91776 0.0
C837 C 0.59995 0.50666 0.95626 0.0
H838 H 0.51398 0.42174 0.96349 0.0
C839 C 0.57461 0.44643 0.01732 0.0
C840 C 0.54226 0.43727 0.02421 0.0
C841 C 0.58118 0.4545 0.00101 0.0
C842 C 0.53816 0.44543 0.96159 0.0
H843 H 0.64578 0.55295 0.90154 0.0
H844 H 0.63788 0.52914 0.92753 0.0
H845 H 0.5245 0.4421 0.93632 0.0
H846 H 0.49094 0.4281 0.01962 0.0
H847 H 0.50193 0.44128 0.99095 0.0
H848 H 0.61361 0.5096 0.98158 0.0
C849 C 0.61427 0.52315 0.9209 0.0
C850 C 0.54411 0.45727 0.94607 0.0
C851 C 0.61886 0.53672 0.90598 0.0
C852 C 0.516 0.43499 0.01446 0.0
C853 C 0.52225 0.44242 0.99811 0.0
C854 C 0.59427 0.49457 0.9717 0.0
C855 C 0.57968 0.50192 0.92706 0.0
C856 C 0.57473 0.48832 0.94326 0.0
C857 C 0.55518 0.45289 0.99133 0.0
C858 C 0.56302 0.4641 0.97457 0.0
H859 H 0.5309 0.50126 0.89585 0.0
H860 H 0.52283 0.47868 0.92218 0.0
H861 H 0.62354 0.53082 0.9547 0.0
H862 H 0.59528 0.44856 0.02472 0.0
H863 H 0.60675 0.46246 0.99603 0.0
C864 C 0.06522 0.53957 0.20821 0.0
C865 C 0.06296 0.51453 0.19959 0.0
C866 C 0.06277 0.53998 0.22524 0.0
C867 C 0.07916 0.51215 0.26135 0.0
H868 H 1.01111 0.52139 0.28269 0.0
C869 C 0.05309 0.49263 0.32979 0.0
C870 C 0.04632 0.51173 0.33897 0.0
C871 C 0.05444 0.49325 0.31278 0.0
C872 C 1.0307 0.51931 0.27699 0.0
H873 H 0.05669 0.47046 0.20198 0.0
H874 H 0.05338 0.47164 0.23171 0.0
H875 H 1.01577 0.5232 0.25302 0.0
H876 H 0.03573 0.54652 0.33765 0.0
H877 H 0.03928 0.54855 0.30797 0.0
H878 H 0.095 0.50912 0.28513 0.0
C879 C 0.05673 0.49078 0.2253 0.0
C880 C 1.03322 0.52024 0.25998 0.0
C881 C 0.05855 0.49009 0.2083 0.0
C882 C 0.04067 0.53134 0.33082 0.0
C883 C 0.04258 0.53236 0.3138 0.0
C884 C 0.07708 0.51172 0.27834 0.0
C885 C 0.05879 0.51569 0.23394 0.0
C886 C 0.05719 0.5163 0.252 0.0
C887 C 0.04967 0.51343 0.30453 0.0
C888 C 0.05251 0.5149 0.28641 0.0
H889 H 0.0691 0.55892 0.20182 0.0
H890 H 0.0647 0.55957 0.23165 0.0
H891 H 0.09821 0.50949 0.25549 0.0
H892 H 0.05708 0.47698 0.33578 0.0
H893 H 0.05904 0.4777 0.3061 0.0
loop_
_geom_bond_atom_site_label_1
_geom_bond_atom_site_label_2
_geom_bond_distance
_geom_bond_site_symmetry_2
_ccdc_geom_bond_type
Gd0 C3 2.818 . S
Gd0 O20 2.377 . S
Gd0 O22 2.448 . S
Gd0 O23 2.506 . S
Gd0 O24 2.435 . S
Gd0 O25 2.717 . S
Gd0 O27 2.395 1_455 S
Gd0 O31 2.327 . S
Gd1 C12 2.818 1_455 S
Gd1 O21 2.395 . S
Gd1 O25 2.327 . S
Gd1 O26 2.377 1_455 S
Gd1 O28 2.448 1_455 S
Gd1 O29 2.506 1_455 S
Gd1 O30 2.435 . S
Gd1 O31 2.717 . S
C2 O20 1.240 . S
C2 O21 1.240 . S
C3 Gd0 2.818 . S
C3 C4 1.510 . S
C3 O22 1.249 . S
C3 O23 1.252 . S
C4 C3 1.510 . S
C4 C5 1.404 . S
C4 C6 1.352 . S
C5 C4 1.404 . S
C5 C9 1.389 . S
C5 H32 0.930 . S
C6 C4 1.352 . S
C6 C8 1.374 . S
C6 H33 0.931 . S
C7 C8 1.359 . S
C7 C9 1.364 . S
C8 C6 1.374 . S
C8 C7 1.359 . S
C8 H34 0.931 . S
C9 C5 1.389 . S
C9 C7 1.364 . S
C9 H35 0.931 . S
C10 O24 1.256 . S
C10 O25 1.257 . S
C11 O26 1.240 . S
C11 O27 1.240 . S
C12 Gd1 2.818 1_655 S
C12 C13 1.510 . S
C12 O28 1.249 . S
C12 O29 1.252 . S
C13 C12 1.510 . S
C13 C14 1.404 . S
C13 C15 1.352 . S
C14 C13 1.404 . S
C14 C18 1.389 . S
C14 H36 0.930 . S
C15 C13 1.352 . S
C15 C17 1.374 . S
C15 H37 0.931 . S
C16 C17 1.359 . S
C16 C18 1.364 . S
C17 C15 1.374 . S
C17 C16 1.359 . S
C17 H38 0.931 . S
C18 C14 1.389 . S
C18 C16 1.364 . S
C18 H39 0.931 . S
C19 O30 1.256 . S
C19 O31 1.257 . S
O20 Gd0 2.377 . S
O20 C2 1.240 . S
O21 Gd1 2.395 . S
O21 C2 1.240 . S
O22 Gd0 2.448 . S
O22 C3 1.249 . S
O23 Gd0 2.506 . S
O23 C3 1.252 . S
O24 Gd0 2.435 . S
O24 C10 1.256 . S
O25 Gd0 2.717 . S
O25 Gd1 2.327 . S
O25 C10 1.257 . S
O26 Gd1 2.377 1_655 S
O26 C11 1.240 . S
O27 Gd0 2.395 1_655 S
O27 C11 1.240 . S
O28 Gd1 2.448 1_655 S
O28 C12 1.249 . S
O29 Gd1 2.506 1_655 S
O29 C12 1.252 . S
O30 Gd1 2.435 . S
O30 C19 1.256 . S
O31 Gd0 2.327 . S
O31 Gd1 2.717 . S
O31 C19 1.257 . S
H32 C5 0.930 . S
H33 C6 0.931 . S
H34 C8 0.931 . S
H35 C9 0.931 . S
H36 C14 0.930 . S
H37 C15 0.931 . S
H38 C17 0.931 . S
H39 C18 0.931 . S
Gd40 C43 2.818 . S
Gd40 O60 2.377 . S
Gd40 O62 2.448 . S
Gd40 O63 2.506 . S
Gd40 O64 2.435 . S
Gd40 O65 2.717 1_565 S
Gd40 O67 2.395 1_565 S
Gd40 O71 2.327 1_565 S
Gd41 C52 2.818 . S
Gd41 O61 2.395 1_545 S
Gd41 O65 2.327 . S
Gd41 O66 2.377 . S
Gd41 O68 2.448 . S
Gd41 O69 2.506 . S
Gd41 O70 2.435 . S
Gd41 O71 2.717 . S
C42 O60 1.240 . S
C42 O61 1.240 . S
C43 Gd40 2.818 . S
C43 C44 1.510 . S
C43 O62 1.249 . S
C43 O63 1.252 . S
C44 C43 1.510 . S
C44 C45 1.404 . S
C44 C46 1.352 . S
C45 C44 1.404 . S
C45 C49 1.389 . S
C45 H72 0.930 . S
C46 C44 1.352 . S
C46 C48 1.374 . S
C46 H73 0.931 . S
C47 C48 1.359 . S
C47 C49 1.364 . S
C48 C46 1.374 . S
C48 C47 1.359 . S
C48 H74 0.931 . S
C49 C45 1.389 . S
C49 C47 1.364 . S
C49 H75 0.931 . S
C50 O64 1.256 1_545 S
C50 O65 1.257 . S
C51 O66 1.240 . S
C51 O67 1.240 . S
C52 Gd41 2.818 . S
C52 C53 1.510 . S
C52 O68 1.249 . S
C52 O69 1.252 . S
C53 C52 1.510 . S
C53 C54 1.404 . S
C53 C55 1.352 . S
C54 C53 1.404 . S
C54 C58 1.389 . S
C54 H76 0.930 . S
C55 C53 1.352 . S
C55 C57 1.374 . S
C55 H77 0.931 . S
C56 C57 1.359 . S
C56 C58 1.364 . S
C57 C55 1.374 . S
C57 C56 1.359 . S
C57 H78 0.931 . S
C58 C54 1.389 . S
C58 C56 1.364 . S
C58 H79 0.931 . S
C59 O70 1.256 . S
C59 O71 1.257 . S
O60 Gd40 2.377 . S
O60 C42 1.240 . S
O61 Gd41 2.395 1_565 S
O61 C42 1.240 . S
O62 Gd40 2.448 . S
O62 C43 1.249 . S
O63 Gd40 2.506 . S
O63 C43 1.252 . S
O64 Gd40 2.435 . S
O64 C50 1.256 1_565 S
O65 Gd40 2.717 1_545 S
O65 Gd41 2.327 . S
O65 C50 1.257 . S
O66 Gd41 2.377 . S
O66 C51 1.240 . S
O67 Gd40 2.395 1_545 S
O67 C51 1.240 . S
O68 Gd41 2.448 . S
O68 C52 1.249 . S
O69 Gd41 2.506 . S
O69 C52 1.252 . S
O70 Gd41 2.435 . S
O70 C59 1.256 . S
O71 Gd40 2.327 1_545 S
O71 Gd41 2.717 . S
O71 C59 1.257 . S
H72 C45 0.930 . S
H73 C46 0.931 . S
H74 C48 0.931 . S
H75 C49 0.931 . S
H76 C54 0.930 . S
H77 C55 0.931 . S
H78 C57 0.931 . S
H79 C58 0.931 . S
Gd80 C83 2.818 . S
Gd80 O100 2.377 . S
Gd80 O102 2.448 . S
Gd80 O103 2.506 . S
Gd80 O104 2.435 . S
Gd80 O105 2.717 . S
Gd80 O107 2.395 . S
Gd80 O111 2.327 . S
Gd81 C92 2.818 . S
Gd81 O101 2.395 . S
Gd81 O105 2.327 . S
Gd81 O106 2.377 . S
Gd81 O108 2.448 . S
Gd81 O109 2.506 . S
Gd81 O110 2.435 . S
Gd81 O111 2.717 . S
C82 O100 1.240 . S
C82 O101 1.240 . S
C83 Gd80 2.818 . S
C83 C84 1.510 . S
C83 O102 1.249 . S
C83 O103 1.252 . S
C84 C83 1.510 . S
C84 C85 1.404 . S
C84 C86 1.352 . S
C85 C84 1.404 . S
C85 C89 1.389 . S
C85 H112 0.930 . S
C86 C84 1.352 . S
C86 C88 1.374 . S
C86 H113 0.931 . S
C87 C88 1.359 . S
C87 C89 1.364 . S
C88 C86 1.374 . S
C88 C87 1.359 . S
C88 H114 0.931 . S
C89 C85 1.389 . S
C89 C87 1.364 . S
C89 H115 0.931 . S
C90 O104 1.256 . S
C90 O105 1.257 . S
C91 O106 1.240 . S
C91 O107 1.240 . S
C92 Gd81 2.818 . S
C92 C93 1.510 . S
C92 O108 1.249 . S
C92 O109 1.252 . S
C93 C92 1.510 . S
C93 C94 1.404 . S
C93 C95 1.352 . S
C94 C93 1.404 . S
C94 C98 1.389 . S
C94 H116 0.930 . S
C95 C93 1.352 . S
C95 C97 1.374 . S
C95 H117 0.931 . S
C96 C97 1.359 . S
C96 C98 1.364 . S
C97 C95 1.374 . S
C97 C96 1.359 . S
C97 H118 0.931 . S
C98 C94 1.389 . S
C98 C96 1.364 . S
C98 H119 0.931 . S
C99 O110 1.256 . S
C99 O111 1.257 . S
O100 Gd80 2.377 . S
O100 C82 1.240 . S
O101 Gd81 2.395 . S
O101 C82 1.240 . S
O102 Gd80 2.448 . S
O102 C83 1.249 . S
O103 Gd80 2.506 . S
O103 C83 1.252 . S
O104 Gd80 2.435 . S
O104 C90 1.256 . S
O105 Gd80 2.717 . S
O105 Gd81 2.327 . S
O105 C90 1.257 . S
O106 Gd81 2.377 . S
O106 C91 1.240 . S
O107 Gd80 2.395 . S
O107 C91 1.240 . S
O108 Gd81 2.448 . S
O108 C92 1.249 . S
O109 Gd81 2.506 . S
O109 C92 1.252 . S
O110 Gd81 2.435 . S
O110 C99 1.256 . S
O111 Gd80 2.327 . S
O111 Gd81 2.717 . S
O111 C99 1.257 . S
H112 C85 0.930 . S
H113 C86 0.931 . S
H114 C88 0.931 . S
H115 C89 0.931 . S
H116 C94 0.930 . S
H117 C95 0.931 . S
H118 C97 0.931 . S
H119 C98 0.931 . S
C120 C121 1.386 . S
C120 C122 1.397 . S
C120 H144 0.931 . S
C121 C120 1.386 . S
C121 C125 1.369 1_545 S
C122 C120 1.397 . S
C122 C123 1.384 . S
C122 H145 0.930 . S
C123 C122 1.384 . S
C123 C124 1.377 1_545 S
C123 C126 1.481 . S
C124 C123 1.377 1_565 S
C124 C125 1.389 . S
C124 H146 0.929 . S
C125 C121 1.369 1_565 S
C125 C124 1.389 . S
C125 H147 0.961 . S
C126 C123 1.481 . S
C126 C127 1.387 . S
C126 C131 1.390 1_545 S
C127 C126 1.387 . S
C127 C128 1.401 . S
C127 H148 0.930 . S
C128 C127 1.401 . S
C128 C129 1.376 . S
C128 C137 1.511 . S
C129 C128 1.376 . S
C129 C130 1.392 1_545 S
C129 H150 0.931 . S
C130 C129 1.392 1_565 S
C130 C131 1.361 . S
C130 C132 1.500 . S
C131 C126 1.390 1_565 S
C131 C130 1.361 . S
C131 H149 0.931 . S
C132 C130 1.500 . S
C132 C133 1.371 . S
C132 C134 1.365 . S
C133 C132 1.371 . S
C133 C143 1.386 . S
C133 H151 0.931 . S
C134 C132 1.365 . S
C134 C135 1.409 . S
C134 H152 0.929 . S
C135 C134 1.409 . S
C135 C136 1.380 . S
C135 H153 0.930 . S
C136 C135 1.380 . S
C136 C143 1.357 . S
C137 C128 1.511 . S
C137 C138 1.341 . S
C137 C139 1.371 . S
C138 C137 1.341 . S
C138 C142 1.394 . S
C138 H154 0.930 . S
C139 C137 1.371 . S
C139 C140 1.392 . S
C139 H155 0.931 . S
C140 C139 1.392 . S
C140 C141 1.331 . S
C140 H158 0.932 . S
C141 C140 1.331 . S
C141 C142 1.336 . S
C142 C138 1.394 . S
C142 C141 1.336 . S
C142 H157 0.929 . S
C143 C133 1.386 . S
C143 C136 1.357 . S
C143 H156 0.928 . S
H144 C120 0.931 . S
H145 C122 0.930 . S
H146 C124 0.929 . S
H147 C125 0.961 . S
H148 C127 0.930 . S
H149 C131 0.931 . S
H150 C129 0.931 . S
H151 C133 0.931 . S
H152 C134 0.929 . S
H153 C135 0.930 . S
H154 C138 0.930 . S
H155 C139 0.931 . S
H156 C143 0.928 . S
H157 C142 0.929 . S
H158 C140 0.932 . S
C159 C160 1.386 . S
C159 C161 1.397 . S
C159 H183 0.931 . S
C160 C159 1.386 . S
C160 C164 1.397 . S
C161 C159 1.397 . S
C161 C162 1.384 . S
C161 H184 0.930 . S
C162 C161 1.384 . S
C162 C163 1.377 . S
C162 C165 1.481 . S
C163 C162 1.377 . S
C163 C164 1.389 . S
C163 H185 0.929 . S
C164 C160 1.397 . S
C164 C163 1.389 . S
C164 H186 0.931 . S
C165 C162 1.481 . S
C165 C166 1.387 . S
C165 C170 1.390 . S
C166 C165 1.387 . S
C166 C167 1.401 . S
C166 H187 0.930 . S
C167 C166 1.401 . S
C167 C168 1.376 . S
C167 C176 1.511 . S
C168 C167 1.376 . S
C168 C169 1.392 . S
C168 H189 0.931 . S
C169 C168 1.392 . S
C169 C170 1.361 . S
C169 C171 1.500 . S
C170 C165 1.390 . S
C170 C169 1.361 . S
C170 H188 0.931 . S
C171 C169 1.500 . S
C171 C172 1.371 . S
C171 C173 1.365 . S
C172 C171 1.371 . S
C172 C182 1.386 . S
C172 H190 0.931 . S
C173 C171 1.365 . S
C173 C174 1.409 . S
C173 H191 0.929 . S
C174 C173 1.409 . S
C174 C175 1.380 . S
C174 H192 0.930 . S
C175 C174 1.380 . S
C175 C182 1.357 . S
C176 C167 1.511 . S
C176 C177 1.341 . S
C176 C178 1.371 . S
C177 C176 1.341 . S
C177 C181 1.394 . S
C177 H193 0.930 . S
C178 C176 1.371 . S
C178 C179 1.392 . S
C178 H194 0.931 . S
C179 C178 1.392 . S
C179 C180 1.331 . S
C179 H197 0.932 . S
C180 C179 1.331 . S
C180 C181 1.336 . S
C181 C177 1.394 . S
C181 C180 1.336 . S
C181 H196 0.929 . S
C182 C172 1.386 . S
C182 C175 1.357 . S
C182 H195 0.928 . S
H183 C159 0.931 . S
H184 C161 0.930 . S
H185 C163 0.929 . S
H186 C164 0.931 . S
H187 C166 0.930 . S
H188 C170 0.931 . S
H189 C168 0.931 . S
H190 C172 0.931 . S
H191 C173 0.929 . S
H192 C174 0.930 . S
H193 C177 0.930 . S
H194 C178 0.931 . S
H195 C182 0.928 . S
H196 C181 0.929 . S
H197 C179 0.932 . S
C198 C199 1.386 . S
C198 C200 1.397 . S
C198 H222 0.931 . S
C199 C198 1.386 . S
C199 C203 1.397 . S
C200 C198 1.397 . S
C200 C201 1.384 . S
C200 H223 0.930 . S
C201 C200 1.384 . S
C201 C202 1.377 . S
C201 C204 1.481 . S
C202 C201 1.377 . S
C202 C203 1.389 . S
C202 H224 0.929 . S
C203 C199 1.397 . S
C203 C202 1.389 . S
C203 H225 0.931 . S
C204 C201 1.481 . S
C204 C205 1.387 . S
C204 C209 1.390 . S
C205 C204 1.387 . S
C205 C206 1.401 . S
C205 H226 0.930 . S
C206 C205 1.401 . S
C206 C207 1.376 . S
C206 C215 1.511 . S
C207 C206 1.376 . S
C207 C208 1.392 . S
C207 H228 0.931 . S
C208 C207 1.392 . S
C208 C209 1.361 . S
C208 C210 1.500 . S
C209 C204 1.390 . S
C209 C208 1.361 . S
C209 H227 0.931 . S
C210 C208 1.500 . S
C210 C211 1.371 . S
C210 C212 1.365 1_455 S
C211 C210 1.371 . S
C211 C221 1.386 1_455 S
C211 H229 0.931 . S
C212 C210 1.365 1_655 S
C212 C213 1.409 . S
C212 H230 0.929 . S
C213 C212 1.409 . S
C213 C214 1.380 . S
C213 H231 0.930 . S
C214 C213 1.380 . S
C214 C221 1.357 . S
C215 C206 1.511 . S
C215 C216 1.341 . S
C215 C217 1.371 . S
C216 C215 1.341 . S
C216 C220 1.394 . S
C216 H232 0.930 . S
C217 C215 1.371 . S
C217 C218 1.392 . S
C217 H233 0.931 . S
C218 C217 1.392 . S
C218 C219 1.331 . S
C218 H236 0.932 . S
C219 C218 1.331 . S
C219 C220 1.336 . S
C220 C216 1.394 . S
C220 C219 1.336 . S
C220 H235 0.929 . S
C221 C211 1.386 1_655 S
C221 C214 1.357 . S
C221 H234 0.928 . S
H222 C198 0.931 . S
H223 C200 0.930 . S
H224 C202 0.929 . S
H225 C203 0.931 . S
H226 C205 0.930 . S
H227 C209 0.931 . S
H228 C207 0.931 . S
H229 C211 0.931 . S
H230 C212 0.929 . S
H231 C213 0.930 . S
H232 C216 0.930 . S
H233 C217 0.931 . S
H234 C221 0.928 . S
H235 C220 0.929 . S
H236 C218 0.932 . S
C237 C238 1.386 . S
C237 C239 1.397 . S
C237 H261 0.931 . S
C238 C237 1.386 . S
C238 C242 1.397 1_655 S
C239 C237 1.397 . S
C239 C240 1.384 . S
C239 H262 0.930 . S
C240 C239 1.384 . S
C240 C241 1.377 1_655 S
C240 C243 1.481 . S
C241 C240 1.377 1_455 S
C241 C242 1.389 . S
C241 H263 0.929 . S
C242 C238 1.397 1_455 S
C242 C241 1.389 . S
C242 H264 0.931 . S
C243 C240 1.481 . S
C243 C244 1.387 . S
C243 C248 1.390 1_655 S
C244 C243 1.387 . S
C244 C245 1.401 . S
C244 H265 0.930 . S
C245 C244 1.401 . S
C245 C246 1.385 . S
C245 C254 1.511 . S
C246 C245 1.385 . S
C246 C247 1.383 1_655 S
C246 H267 0.931 . S
C247 C246 1.383 1_455 S
C247 C248 1.361 . S
C247 C249 1.500 . S
C248 C243 1.390 1_455 S
C248 C247 1.361 . S
C248 H266 0.931 . S
C249 C247 1.500 . S
C249 C250 1.371 . S
C249 C251 1.365 . S
C250 C249 1.371 . S
C250 C260 1.386 . S
C250 H268 0.931 . S
C251 C249 1.365 . S
C251 C252 1.409 . S
C251 H269 0.929 . S
C252 C251 1.409 . S
C252 C253 1.380 . S
C252 H270 0.930 . S
C253 C252 1.380 . S
C253 C260 1.357 . S
C254 C245 1.511 . S
C254 C255 1.341 . S
C254 C256 1.371 . S
C255 C254 1.341 . S
C255 C259 1.394 . S
C255 H271 0.930 . S
C256 C254 1.371 . S
C256 C257 1.392 . S
C256 H272 0.931 . S
C257 C256 1.392 . S
C257 C258 1.331 . S
C257 H275 0.932 . S
C258 C257 1.331 . S
C258 C259 1.336 . S
C259 C255 1.394 . S
C259 C258 1.336 . S
C259 H274 0.929 . S
C260 C250 1.386 . S
C260 C253 1.357 . S
C260 H273 0.928 . S
H261 C237 0.931 . S
H262 C239 0.930 . S
H263 C241 0.929 . S
H264 C242 0.931 . S
H265 C244 0.930 . S
H266 C248 0.931 . S
H267 C246 0.931 . S
H268 C250 0.931 . S
H269 C251 0.929 . S
H270 C252 0.930 . S
H271 C255 0.930 . S
H272 C256 0.931 . S
H273 C260 0.928 . S
H274 C259 0.929 . S
H275 C257 0.932 . S
C276 C277 1.386 . S
C276 C278 1.397 . S
C276 H300 0.931 . S
C277 C276 1.386 . S
C277 C281 1.397 1_565 S
C278 C276 1.397 . S
C278 C279 1.374 1_565 S
C278 H301 0.930 . S
C279 C278 1.374 1_545 S
C279 C280 1.388 . S
C279 C282 1.480 . S
C280 C279 1.388 . S
C280 C281 1.389 . S
C280 H302 0.929 . S
C281 C277 1.397 1_545 S
C281 C280 1.389 . S
C281 H303 0.931 . S
C282 C279 1.480 . S
C282 C283 1.387 1_545 S
C282 C287 1.390 . S
C283 C282 1.387 1_565 S
C283 C284 1.401 . S
C283 H304 0.930 . S
C284 C283 1.401 . S
C284 C285 1.376 1_565 S
C284 C293 1.511 . S
C285 C284 1.376 1_545 S
C285 C286 1.392 . S
C285 H306 0.931 . S
C286 C285 1.392 . S
C286 C287 1.361 . S
C286 C288 1.500 . S
C287 C282 1.390 . S
C287 C286 1.361 . S
C287 H305 0.931 . S
C288 C286 1.500 . S
C288 C289 1.371 . S
C288 C290 1.365 . S
C289 C288 1.371 . S
C289 C299 1.386 . S
C289 H307 0.931 . S
C290 C288 1.365 . S
C290 C291 1.409 . S
C290 H308 0.929 . S
C291 C290 1.409 . S
C291 C292 1.380 . S
C291 H309 0.930 . S
C292 C291 1.380 . S
C292 C299 1.357 . S
C293 C284 1.511 . S
C293 C294 1.341 . S
C293 C295 1.371 . S
C294 C293 1.341 . S
C294 C298 1.394 . S
C294 H310 0.930 . S
C295 C293 1.371 . S
C295 C296 1.392 . S
C295 H311 0.931 . S
C296 C295 1.392 . S
C296 C297 1.331 . S
C296 H314 0.932 . S
C297 C296 1.331 . S
C297 C298 1.336 . S
C298 C294 1.394 . S
C298 C297 1.336 . S
C298 H313 0.929 . S
C299 C289 1.386 . S
C299 C292 1.357 . S
C299 H312 0.928 . S
H300 C276 0.931 . S
H301 C278 0.930 . S
H302 C280 0.929 . S
H303 C281 0.931 . S
H304 C283 0.930 . S
H305 C287 0.931 . S
H306 C285 0.931 . S
H307 C289 0.931 . S
H308 C290 0.929 . S
H309 C291 0.930 . S
H310 C294 0.930 . S
H311 C295 0.931 . S
H312 C299 0.928 . S
H313 C298 0.929 . S
H314 C296 0.932 . S
C315 C316 1.386 . S
C315 C317 1.397 . S
C315 H339 0.931 . S
C316 C315 1.386 . S
C316 C320 1.397 . S
C317 C315 1.397 . S
C317 C318 1.384 . S
C317 H340 0.930 . S
C318 C317 1.384 . S
C318 C319 1.377 . S
C318 C321 1.481 . S
C319 C318 1.377 . S
C319 C320 1.389 . S
C319 H341 0.929 . S
C320 C316 1.397 . S
C320 C319 1.389 . S
C320 H342 0.931 . S
C321 C318 1.481 . S
C321 C322 1.387 . S
C321 C326 1.390 . S
C322 C321 1.387 . S
C322 C323 1.401 . S
C322 H343 0.930 . S
C323 C322 1.401 . S
C323 C324 1.376 . S
C323 C332 1.511 . S
C324 C323 1.376 . S
C324 C325 1.392 . S
C324 H345 0.931 . S
C325 C324 1.392 . S
C325 C326 1.361 . S
C325 C327 1.500 . S
C326 C321 1.390 . S
C326 C325 1.361 . S
C326 H344 0.931 . S
C327 C325 1.500 . S
C327 C328 1.371 . S
C327 C329 1.365 . S
C328 C327 1.371 . S
C328 C338 1.386 . S
C328 H346 0.931 . S
C329 C327 1.365 . S
C329 C330 1.409 . S
C329 H347 0.929 . S
C330 C329 1.409 . S
C330 C331 1.380 . S
C330 H348 0.930 . S
C331 C330 1.380 . S
C331 C338 1.357 . S
C332 C323 1.511 . S
C332 C333 1.341 . S
C332 C334 1.371 . S
C333 C332 1.341 . S
C333 C337 1.394 . S
C333 H349 0.930 . S
C334 C332 1.371 . S
C334 C335 1.392 . S
C334 H350 0.931 . S
C335 C334 1.392 . S
C335 C336 1.331 . S
C335 H353 0.932 . S
C336 C335 1.331 . S
C336 C337 1.336 . S
C337 C333 1.394 . S
C337 C336 1.336 . S
C337 H352 0.929 . S
C338 C328 1.386 . S
C338 C331 1.357 . S
C338 H351 0.928 . S
H339 C315 0.931 . S
H340 C317 0.930 . S
H341 C319 0.929 . S
H342 C320 0.931 . S
H343 C322 0.930 . S
H344 C326 0.931 . S
H345 C324 0.931 . S
H346 C328 0.931 . S
H347 C329 0.929 . S
H348 C330 0.930 . S
H349 C333 0.930 . S
H350 C334 0.931 . S
H351 C338 0.928 . S
H352 C337 0.929 . S
H353 C335 0.932 . S
C354 C355 1.349 . S
C354 C356 1.327 . S
C354 H379 0.950 . S
C355 C354 1.349 . S
C355 C371 1.349 . S
C356 C354 1.327 . S
C356 C375 1.429 . S
C356 H380 0.950 . S
C357 C374 1.574 . S
C357 C376 1.368 . S
C357 H381 0.949 . S
H358 C362 0.949 . S
C359 C360 1.349 . S
C359 C361 1.327 . S
C359 H382 0.950 . S
C360 C359 1.349 . S
C360 C372 1.349 . S
C361 C359 1.327 . S
C361 C377 1.429 . S
C361 H383 0.950 . S
C362 H358 0.949 . S
C362 C370 1.574 . S
C362 C378 1.368 . S
H363 C371 0.950 . S
H364 C369 0.950 . S
H365 C370 0.949 . S
H366 C372 0.950 . S
H367 C373 0.950 . S
H368 C374 0.949 . S
C369 H364 0.950 . S
C369 C371 1.327 . S
C369 C375 1.429 . S
C370 C362 1.574 . S
C370 H365 0.949 . S
C370 C376 1.368 . S
C371 C355 1.349 . S
C371 H363 0.950 . S
C371 C369 1.327 . S
C372 C360 1.349 . S
C372 H366 0.950 . S
C372 C373 1.327 . S
C373 H367 0.950 . S
C373 C372 1.327 . S
C373 C377 1.429 . S
C374 C357 1.574 . S
C374 H368 0.949 . S
C374 C378 1.368 . S
C375 C356 1.429 . S
C375 C369 1.429 . S
C375 C376 1.523 . S
C376 C357 1.368 . S
C376 C370 1.368 . S
C376 C375 1.523 . S
C377 C361 1.429 . S
C377 C373 1.429 . S
C377 C378 1.523 . S
C378 C362 1.368 . S
C378 C374 1.368 . S
C378 C377 1.523 . S
H379 C354 0.950 . S
H380 C356 0.950 . S
H381 C357 0.949 . S
H382 C359 0.950 . S
H383 C361 0.950 . S
C384 C385 1.349 . S
C384 C386 1.327 . S
C384 H409 0.950 . S
C385 C384 1.349 . S
C385 C401 1.349 . S
C386 C384 1.327 . S
C386 C405 1.429 . S
C386 H410 0.950 . S
C387 C404 1.574 . S
C387 C406 1.368 . S
C387 H411 0.949 . S
H388 C392 0.949 . S
C389 C390 1.349 . S
C389 C391 1.327 . S
C389 H412 0.950 . S
C390 C389 1.349 . S
C390 C402 1.349 . S
C391 C389 1.327 . S
C391 C407 1.429 . S
C391 H413 0.950 . S
C392 H388 0.949 . S
C392 C400 1.574 . S
C392 C408 1.368 . S
H393 C401 0.950 . S
H394 C399 0.950 . S
H395 C400 0.949 . S
H396 C402 0.950 . S
H397 C403 0.950 . S
H398 C404 0.949 . S
C399 H394 0.950 . S
C399 C401 1.327 . S
C399 C405 1.429 . S
C400 C392 1.574 . S
C400 H395 0.949 . S
C400 C406 1.368 . S
C401 C385 1.349 . S
C401 H393 0.950 . S
C401 C399 1.327 . S
C402 C390 1.349 . S
C402 H396 0.950 . S
C402 C403 1.327 . S
C403 H397 0.950 . S
C403 C402 1.327 . S
C403 C407 1.429 . S
C404 C387 1.574 . S
C404 H398 0.949 . S
C404 C408 1.368 . S
C405 C386 1.429 . S
C405 C399 1.429 . S
C405 C406 1.523 . S
C406 C387 1.368 . S
C406 C400 1.368 . S
C406 C405 1.523 . S
C407 C391 1.429 . S
C407 C403 1.429 . S
C407 C408 1.523 . S
C408 C392 1.368 . S
C408 C404 1.368 . S
C408 C407 1.523 . S
H409 C384 0.950 . S
H410 C386 0.950 . S
H411 C387 0.949 . S
H412 C389 0.950 . S
H413 C391 0.950 . S
C414 C415 1.349 . S
C414 C416 1.327 . S
C414 H439 0.950 . S
C415 C414 1.349 . S
C415 C431 1.349 . S
C416 C414 1.327 . S
C416 C435 1.429 . S
C416 H440 0.950 . S
C417 C434 1.574 . S
C417 C436 1.368 . S
C417 H441 0.949 . S
H418 C422 0.949 . S
C419 C420 1.349 . S
C419 C421 1.327 . S
C419 H442 0.950 . S
C420 C419 1.349 . S
C420 C432 1.349 . S
C421 C419 1.327 . S
C421 C437 1.429 . S
C421 H443 0.950 . S
C422 H418 0.949 . S
C422 C430 1.574 . S
C422 C438 1.368 . S
H423 C431 0.950 . S
H424 C429 0.950 . S
H425 C430 0.949 . S
H426 C432 0.950 . S
H427 C433 0.950 . S
H428 C434 0.949 . S
C429 H424 0.950 . S
C429 C431 1.327 . S
C429 C435 1.429 . S
C430 C422 1.574 . S
C430 H425 0.949 . S
C430 C436 1.368 . S
C431 C415 1.349 . S
C431 H423 0.950 . S
C431 C429 1.327 . S
C432 C420 1.349 . S
C432 H426 0.950 . S
C432 C433 1.327 . S
C433 H427 0.950 . S
C433 C432 1.327 . S
C433 C437 1.429 . S
C434 C417 1.574 . S
C434 H428 0.949 . S
C434 C438 1.368 . S
C435 C416 1.429 . S
C435 C429 1.429 . S
C435 C436 1.523 . S
C436 C417 1.368 . S
C436 C430 1.368 . S
C436 C435 1.523 . S
C437 C421 1.429 . S
C437 C433 1.429 . S
C437 C438 1.523 . S
C438 C422 1.368 . S
C438 C434 1.368 . S
C438 C437 1.523 . S
H439 C414 0.950 . S
H440 C416 0.950 . S
H441 C417 0.949 . S
H442 C419 0.950 . S
H443 C421 0.950 . S
C444 C445 1.349 . S
C444 C446 1.327 . S
C444 H469 0.950 . S
C445 C444 1.349 . S
C445 C461 1.349 . S
C446 C444 1.327 . S
C446 C465 1.429 . S
C446 H470 0.950 . S
C447 C464 1.574 . S
C447 C466 1.368 . S
C447 H471 0.949 . S
H448 C452 0.949 . S
C449 C450 1.349 . S
C449 C451 1.327 . S
C449 H472 0.950 . S
C450 C449 1.349 . S
C450 C462 1.349 . S
C451 C449 1.327 . S
C451 C467 1.429 . S
C451 H473 0.950 . S
C452 H448 0.949 . S
C452 C460 1.574 . S
C452 C468 1.368 . S
H453 C461 0.950 . S
H454 C459 0.950 . S
H455 C460 0.949 . S
H456 C462 0.950 . S
H457 C463 0.950 . S
H458 C464 0.949 . S
C459 H454 0.950 . S
C459 C461 1.327 . S
C459 C465 1.429 . S
C460 C452 1.574 . S
C460 H455 0.949 . S
C460 C466 1.368 . S
C461 C445 1.349 . S
C461 H453 0.950 . S
C461 C459 1.327 . S
C462 C450 1.349 . S
C462 H456 0.950 . S
C462 C463 1.327 . S
C463 H457 0.950 . S
C463 C462 1.327 . S
C463 C467 1.429 . S
C464 C447 1.574 . S
C464 H458 0.949 . S
C464 C468 1.368 . S
C465 C446 1.429 . S
C465 C459 1.429 . S
C465 C466 1.523 . S
C466 C447 1.368 . S
C466 C460 1.368 . S
C466 C465 1.523 . S
C467 C451 1.429 . S
C467 C463 1.429 . S
C467 C468 1.523 . S
C468 C452 1.368 . S
C468 C464 1.368 . S
C468 C467 1.523 . S
H469 C444 0.950 . S
H470 C446 0.950 . S
H471 C447 0.949 . S
H472 C449 0.950 . S
H473 C451 0.950 . S
C474 C475 1.349 . S
C474 C476 1.327 . S
C474 H499 0.950 . S
C475 C474 1.349 . S
C475 C491 1.349 . S
C476 C474 1.327 . S
C476 C495 1.429 . S
C476 H500 0.950 . S
C477 C494 1.574 . S
C477 C496 1.368 . S
C477 H501 0.949 . S
H478 C482 0.949 . S
C479 C480 1.349 . S
C479 C481 1.327 . S
C479 H502 0.950 . S
C480 C479 1.349 . S
C480 C492 1.349 . S
C481 C479 1.327 . S
C481 C497 1.429 . S
C481 H503 0.950 . S
C482 H478 0.949 . S
C482 C490 1.574 . S
C482 C498 1.368 . S
H483 C491 0.950 . S
H484 C489 0.950 . S
H485 C490 0.949 . S
H486 C492 0.950 . S
H487 C493 0.950 . S
H488 C494 0.949 . S
C489 H484 0.950 . S
C489 C491 1.327 . S
C489 C495 1.429 . S
C490 C482 1.574 . S
C490 H485 0.949 . S
C490 C496 1.368 . S
C491 C475 1.349 . S
C491 H483 0.950 . S
C491 C489 1.327 . S
C492 C480 1.349 . S
C492 H486 0.950 . S
C492 C493 1.327 . S
C493 H487 0.950 . S
C493 C492 1.327 . S
C493 C497 1.429 . S
C494 C477 1.574 . S
C494 H488 0.949 . S
C494 C498 1.368 . S
C495 C476 1.429 . S
C495 C489 1.429 . S
C495 C496 1.523 . S
C496 C477 1.368 . S
C496 C490 1.368 . S
C496 C495 1.523 . S
C497 C481 1.429 . S
C497 C493 1.429 . S
C497 C498 1.523 . S
C498 C482 1.368 . S
C498 C494 1.368 . S
C498 C497 1.523 . S
H499 C474 0.950 . S
H500 C476 0.950 . S
H501 C477 0.949 . S
H502 C479 0.950 . S
H503 C481 0.950 . S
C504 C505 1.349 . S
C504 C506 1.327 . S
C504 H529 0.950 . S
C505 C504 1.349 . S
C505 C521 1.349 . S
C506 C504 1.327 . S
C506 C525 1.429 . S
C506 H530 0.950 . S
C507 C524 1.574 . S
C507 C526 1.368 . S
C507 H531 0.949 . S
H508 C512 0.949 . S
C509 C510 1.349 . S
C509 C511 1.327 . S
C509 H532 0.950 . S
C510 C509 1.349 . S
C510 C522 1.349 . S
C511 C509 1.327 . S
C511 C527 1.429 . S
C511 H533 0.950 . S
C512 H508 0.949 . S
C512 C520 1.574 . S
C512 C528 1.368 . S
H513 C521 0.950 . S
H514 C519 0.950 . S
H515 C520 0.949 . S
H516 C522 0.950 . S
H517 C523 0.950 . S
H518 C524 0.949 . S
C519 H514 0.950 . S
C519 C521 1.327 . S
C519 C525 1.429 . S
C520 C512 1.574 . S
C520 H515 0.949 . S
C520 C526 1.368 . S
C521 C505 1.349 . S
C521 H513 0.950 . S
C521 C519 1.327 . S
C522 C510 1.349 . S
C522 H516 0.950 . S
C522 C523 1.327 . S
C523 H517 0.950 . S
C523 C522 1.327 . S
C523 C527 1.429 . S
C524 C507 1.574 . S
C524 H518 0.949 . S
C524 C528 1.368 . S
C525 C506 1.429 . S
C525 C519 1.429 . S
C525 C526 1.523 . S
C526 C507 1.368 . S
C526 C520 1.368 . S
C526 C525 1.523 . S
C527 C511 1.429 . S
C527 C523 1.429 . S
C527 C528 1.523 . S
C528 C512 1.368 . S
C528 C524 1.368 . S
C528 C527 1.523 . S
H529 C504 0.950 . S
H530 C506 0.950 . S
H531 C507 0.949 . S
H532 C509 0.950 . S
H533 C511 0.950 . S
C534 C535 1.349 . S
C534 C536 1.327 . S
C534 H559 0.950 . S
C535 C534 1.349 . S
C535 C551 1.349 . S
C536 C534 1.327 . S
C536 C555 1.429 . S
C536 H560 0.950 . S
C537 C554 1.574 . S
C537 C556 1.368 . S
C537 H561 0.949 . S
H538 C542 0.949 . S
C539 C540 1.349 . S
C539 C541 1.327 . S
C539 H562 0.950 . S
C540 C539 1.349 . S
C540 C552 1.349 . S
C541 C539 1.327 . S
C541 C557 1.429 . S
C541 H563 0.950 . S
C542 H538 0.949 . S
C542 C550 1.574 . S
C542 C558 1.368 . S
H543 C551 0.950 . S
H544 C549 0.950 . S
H545 C550 0.949 . S
H546 C552 0.950 . S
H547 C553 0.950 . S
H548 C554 0.949 . S
C549 H544 0.950 . S
C549 C551 1.327 . S
C549 C555 1.429 . S
C550 C542 1.574 . S
C550 H545 0.949 . S
C550 C556 1.368 . S
C551 C535 1.349 . S
C551 H543 0.950 . S
C551 C549 1.327 . S
C552 C540 1.349 . S
C552 H546 0.950 . S
C552 C553 1.327 . S
C553 H547 0.950 . S
C553 C552 1.327 . S
C553 C557 1.429 . S
C554 C537 1.574 . S
C554 H548 0.949 . S
C554 C558 1.368 . S
C555 C536 1.429 . S
C555 C549 1.429 . S
C555 C556 1.523 . S
C556 C537 1.368 . S
C556 C550 1.368 . S
C556 C555 1.523 . S
C557 C541 1.429 . S
C557 C553 1.429 . S
C557 C558 1.523 . S
C558 C542 1.368 . S
C558 C554 1.368 . S
C558 C557 1.523 . S
H559 C534 0.950 . S
H560 C536 0.950 . S
H561 C537 0.949 . S
H562 C539 0.950 . S
H563 C541 0.950 . S
C564 C565 1.349 . S
C564 C566 1.327 . S
C564 H589 0.950 . S
C565 C564 1.349 . S
C565 C581 1.349 . S
C566 C564 1.327 . S
C566 C585 1.429 . S
C566 H590 0.950 . S
C567 C584 1.574 . S
C567 C586 1.368 . S
C567 H591 0.949 . S
H568 C572 0.949 . S
C569 C570 1.349 . S
C569 C571 1.327 . S
C569 H592 0.950 . S
C570 C569 1.349 . S
C570 C582 1.349 . S
C571 C569 1.327 . S
C571 C587 1.429 . S
C571 H593 0.950 . S
C572 H568 0.949 . S
C572 C580 1.574 . S
C572 C588 1.368 . S
H573 C581 0.950 . S
H574 C579 0.950 . S
H575 C580 0.949 . S
H576 C582 0.950 . S
H577 C583 0.950 . S
H578 C584 0.949 . S
C579 H574 0.950 . S
C579 C581 1.327 . S
C579 C585 1.429 . S
C580 C572 1.574 . S
C580 H575 0.949 . S
C580 C586 1.368 . S
C581 C565 1.349 . S
C581 H573 0.950 . S
C581 C579 1.327 . S
C582 C570 1.349 . S
C582 H576 0.950 . S
C582 C583 1.327 . S
C583 H577 0.950 . S
C583 C582 1.327 . S
C583 C587 1.429 . S
C584 C567 1.574 . S
C584 H578 0.949 . S
C584 C588 1.368 . S
C585 C566 1.429 . S
C585 C579 1.429 . S
C585 C586 1.523 . S
C586 C567 1.368 . S
C586 C580 1.368 . S
C586 C585 1.523 . S
C587 C571 1.429 . S
C587 C583 1.429 . S
C587 C588 1.523 . S
C588 C572 1.368 . S
C588 C584 1.368 . S
C588 C587 1.523 . S
H589 C564 0.950 . S
H590 C566 0.950 . S
H591 C567 0.949 . S
H592 C569 0.950 . S
H593 C571 0.950 . S
C594 C595 1.349 . S
C594 C596 1.327 . S
C594 H619 0.950 . S
C595 C594 1.349 . S
C595 C611 1.349 . S
C596 C594 1.327 . S
C596 C615 1.429 . S
C596 H620 0.950 . S
C597 C614 1.574 . S
C597 C616 1.368 . S
C597 H621 0.949 . S
H598 C602 0.949 . S
C599 C600 1.349 . S
C599 C601 1.327 . S
C599 H622 0.950 . S
C600 C599 1.349 . S
C600 C612 1.349 . S
C601 C599 1.327 . S
C601 C617 1.429 . S
C601 H623 0.950 . S
C602 H598 0.949 . S
C602 C610 1.574 . S
C602 C618 1.368 . S
H603 C611 0.950 . S
H604 C609 0.950 . S
H605 C610 0.949 . S
H606 C612 0.950 . S
H607 C613 0.950 . S
H608 C614 0.949 . S
C609 H604 0.950 . S
C609 C611 1.327 . S
C609 C615 1.429 . S
C610 C602 1.574 . S
C610 H605 0.949 . S
C610 C616 1.368 . S
C611 C595 1.349 . S
C611 H603 0.950 . S
C611 C609 1.327 . S
C612 C600 1.349 . S
C612 H606 0.950 . S
C612 C613 1.327 . S
C613 H607 0.950 . S
C613 C612 1.327 . S
C613 C617 1.429 . S
C614 C597 1.574 . S
C614 H608 0.949 . S
C614 C618 1.368 . S
C615 C596 1.429 . S
C615 C609 1.429 . S
C615 C616 1.523 . S
C616 C597 1.368 . S
C616 C610 1.368 . S
C616 C615 1.523 . S
C617 C601 1.429 . S
C617 C613 1.429 . S
C617 C618 1.523 . S
C618 C602 1.368 . S
C618 C614 1.368 . S
C618 C617 1.523 . S
H619 C594 0.950 . S
H620 C596 0.950 . S
H621 C597 0.949 . S
H622 C599 0.950 . S
H623 C601 0.950 . S
C624 C625 1.349 . S
C624 C626 1.327 . S
C624 H649 0.950 . S
C625 C624 1.349 . S
C625 C641 1.349 . S
C626 C624 1.327 . S
C626 C645 1.429 . S
C626 H650 0.950 . S
C627 C644 1.574 . S
C627 C646 1.368 . S
C627 H651 0.949 . S
H628 C632 0.949 . S
C629 C630 1.349 . S
C629 C631 1.327 . S
C629 H652 0.950 . S
C630 C629 1.349 . S
C630 C642 1.349 . S
C631 C629 1.327 . S
C631 C647 1.429 . S
C631 H653 0.950 . S
C632 H628 0.949 . S
C632 C640 1.574 . S
C632 C648 1.368 . S
H633 C641 0.950 . S
H634 C639 0.950 . S
H635 C640 0.949 . S
H636 C642 0.950 . S
H637 C643 0.950 . S
H638 C644 0.949 . S
C639 H634 0.950 . S
C639 C641 1.327 . S
C639 C645 1.429 . S
C640 C632 1.574 . S
C640 H635 0.949 . S
C640 C646 1.368 . S
C641 C625 1.349 . S
C641 H633 0.950 . S
C641 C639 1.327 . S
C642 C630 1.349 . S
C642 H636 0.950 . S
C642 C643 1.327 . S
C643 H637 0.950 . S
C643 C642 1.327 . S
C643 C647 1.429 . S
C644 C627 1.574 . S
C644 H638 0.949 . S
C644 C648 1.368 . S
C645 C626 1.429 . S
C645 C639 1.429 . S
C645 C646 1.523 . S
C646 C627 1.368 . S
C646 C640 1.368 . S
C646 C645 1.523 . S
C647 C631 1.429 . S
C647 C643 1.429 . S
C647 C648 1.523 . S
C648 C632 1.368 . S
C648 C644 1.368 . S
C648 C647 1.523 . S
H649 C624 0.950 . S
H650 C626 0.950 . S
H651 C627 0.949 . S
H652 C629 0.950 . S
H653 C631 0.950 . S
C654 C655 1.349 . S
C654 C656 1.327 . S
C654 H679 0.950 . S
C655 C654 1.349 . S
C655 C671 1.349 . S
C656 C654 1.327 . S
C656 C675 1.429 . S
C656 H680 0.950 . S
C657 C674 1.574 . S
C657 C676 1.368 . S
C657 H681 0.949 . S
H658 C662 0.949 . S
C659 C660 1.349 . S
C659 C661 1.327 . S
C659 H682 0.950 . S
C660 C659 1.349 . S
C660 C672 1.349 . S
C661 C659 1.327 . S
C661 C677 1.429 . S
C661 H683 0.950 . S
C662 H658 0.949 . S
C662 C670 1.574 . S
C662 C678 1.368 . S
H663 C671 0.950 . S
H664 C669 0.950 . S
H665 C670 0.949 . S
H666 C672 0.950 . S
H667 C673 0.950 . S
H668 C674 0.949 . S
C669 H664 0.950 . S
C669 C671 1.327 . S
C669 C675 1.429 . S
C670 C662 1.574 . S
C670 H665 0.949 . S
C670 C676 1.368 . S
C671 C655 1.349 . S
C671 H663 0.950 . S
C671 C669 1.327 . S
C672 C660 1.349 . S
C672 H666 0.950 . S
C672 C673 1.327 . S
C673 H667 0.950 . S
C673 C672 1.327 . S
C673 C677 1.429 . S
C674 C657 1.574 . S
C674 H668 0.949 . S
C674 C678 1.368 . S
C675 C656 1.429 . S
C675 C669 1.429 . S
C675 C676 1.523 . S
C676 C657 1.368 . S
C676 C670 1.368 . S
C676 C675 1.523 . S
C677 C661 1.429 . S
C677 C673 1.429 . S
C677 C678 1.523 . S
C678 C662 1.368 . S
C678 C674 1.368 . S
C678 C677 1.523 . S
H679 C654 0.950 . S
H680 C656 0.950 . S
H681 C657 0.949 . S
H682 C659 0.950 . S
H683 C661 0.950 . S
C684 C685 1.349 . S
C684 C686 1.327 . S
C684 H709 0.950 . S
C685 C684 1.349 . S
C685 C701 1.349 . S
C686 C684 1.327 . S
C686 C705 1.429 . S
C686 H710 0.950 . S
C687 C704 1.574 . S
C687 C706 1.368 . S
C687 H711 0.949 . S
H688 C692 0.949 . S
C689 C690 1.349 . S
C689 C691 1.327 . S
C689 H712 0.950 . S
C690 C689 1.349 . S
C690 C702 1.349 . S
C691 C689 1.327 . S
C691 C707 1.429 . S
C691 H713 0.950 . S
C692 H688 0.949 . S
C692 C700 1.574 . S
C692 C708 1.368 . S
H693 C701 0.950 . S
H694 C699 0.950 . S
H695 C700 0.949 . S
H696 C702 0.950 . S
H697 C703 0.950 . S
H698 C704 0.949 . S
C699 H694 0.950 . S
C699 C701 1.327 . S
C699 C705 1.429 . S
C700 C692 1.574 . S
C700 H695 0.949 . S
C700 C706 1.368 . S
C701 C685 1.349 . S
C701 H693 0.950 . S
C701 C699 1.327 . S
C702 C690 1.349 . S
C702 H696 0.950 . S
C702 C703 1.327 . S
C703 H697 0.950 . S
C703 C702 1.327 . S
C703 C707 1.429 . S
C704 C687 1.574 . S
C704 H698 0.949 . S
C704 C708 1.368 . S
C705 C686 1.429 . S
C705 C699 1.429 . S
C705 C706 1.523 . S
C706 C687 1.368 . S
C706 C700 1.368 . S
C706 C705 1.523 . S
C707 C691 1.429 . S
C707 C703 1.429 . S
C707 C708 1.523 . S
C708 C692 1.368 . S
C708 C704 1.368 . S
C708 C707 1.523 . S
H709 C684 0.950 . S
H710 C686 0.950 . S
H711 C687 0.949 . S
H712 C689 0.950 . S
H713 C691 0.950 . S
C714 C715 1.349 . S
C714 C716 1.327 . S
C714 H739 0.950 1_455 S
C715 C714 1.349 . S
C715 C731 1.349 . S
C716 C714 1.327 . S
C716 C735 1.429 . S
C716 H740 0.950 1_455 S
C717 C734 1.574 . S
C717 C736 1.368 . S
C717 H741 0.949 . S
H718 C722 0.949 1_655 S
C719 C720 1.349 . S
C719 C721 1.327 1_556 S
C719 H742 0.950 . S
C720 C719 1.349 . S
C720 C732 1.349 . S
C721 C719 1.327 1_554 S
C721 C737 1.429 . S
C721 H743 0.950 . S
C722 H718 0.949 1_455 S
C722 C730 1.574 . S
C722 C738 1.368 . S
H723 C731 0.950 . S
H724 C729 0.950 . S
H725 C730 0.949 1_655 S
H726 C732 0.950 . S
H727 C733 0.950 1_655 S
H728 C734 0.949 . S
C729 H724 0.950 . S
C729 C731 1.327 . S
C729 C735 1.429 . S
C730 C722 1.574 . S
C730 H725 0.949 1_455 S
C730 C736 1.368 . S
C731 C715 1.349 . S
C731 H723 0.950 . S
C731 C729 1.327 . S
C732 C720 1.349 . S
C732 H726 0.950 . S
C732 C733 1.327 1_556 S
C733 H727 0.950 1_455 S
C733 C732 1.327 1_554 S
C733 C737 1.429 . S
C734 C717 1.574 . S
C734 H728 0.949 . S
C734 C738 1.368 . S
C735 C716 1.429 . S
C735 C729 1.429 . S
C735 C736 1.523 . S
C736 C717 1.368 . S
C736 C730 1.368 . S
C736 C735 1.523 . S
C737 C721 1.429 . S
C737 C733 1.429 . S
C737 C738 1.523 . S
C738 C722 1.368 . S
C738 C734 1.368 . S
C738 C737 1.523 . S
H739 C714 0.950 1_655 S
H740 C716 0.950 1_655 S
H741 C717 0.949 . S
H742 C719 0.950 . S
H743 C721 0.950 . S
C744 C745 1.349 . S
C744 C746 1.327 . S
C744 H769 0.950 . S
C745 C744 1.349 . S
C745 C761 1.349 1_545 S
C746 C744 1.327 . S
C746 C765 1.429 . S
C746 H770 0.950 . S
C747 C764 1.574 . S
C747 C766 1.368 1_565 S
C747 H771 0.949 . S
H748 C752 0.949 . S
C749 C750 1.350 . S
C749 C751 1.327 1_545 S
C749 H772 0.949 1_545 S
C750 C749 1.350 . S
C750 C762 1.349 . S
C751 C749 1.327 1_565 S
C751 C767 1.429 1_565 S
C751 H773 0.950 . S
C752 H748 0.949 . S
C752 C760 1.574 . S
C752 C768 1.368 . S
H753 C761 0.950 . S
H754 C759 0.950 . S
H755 C760 0.949 . S
H756 C762 0.950 . S
H757 C763 0.950 . S
H758 C764 0.949 . S
C759 H754 0.950 . S
C759 C761 1.327 . S
C759 C765 1.429 1_565 S
C760 C752 1.574 . S
C760 H755 0.949 . S
C760 C766 1.368 . S
C761 C745 1.349 1_565 S
C761 H753 0.950 . S
C761 C759 1.327 . S
C762 C750 1.349 . S
C762 H756 0.950 . S
C762 C763 1.327 . S
C763 H757 0.950 . S
C763 C762 1.327 . S
C763 C767 1.429 . S
C764 C747 1.574 . S
C764 H758 0.949 . S
C764 C768 1.368 1_565 S
C765 C746 1.429 . S
C765 C759 1.429 1_545 S
C765 C766 1.523 . S
C766 C747 1.368 1_545 S
C766 C760 1.368 . S
C766 C765 1.523 . S
C767 C751 1.429 1_545 S
C767 C763 1.429 . S
C767 C768 1.523 . S
C768 C752 1.368 . S
C768 C764 1.368 1_545 S
C768 C767 1.523 . S
H769 C744 0.950 . S
H770 C746 0.950 . S
H771 C747 0.949 . S
H772 C749 0.949 1_565 S
H773 C751 0.950 . S
C774 C775 1.349 . S
C774 C776 1.327 . S
C774 H799 0.950 . S
C775 C774 1.349 . S
C775 C791 1.349 . S
C776 C774 1.327 . S
C776 C795 1.429 . S
C776 H800 0.950 . S
C777 C794 1.574 . S
C777 C796 1.368 . S
C777 H801 0.949 . S
H778 C782 0.949 . S
C779 C780 1.349 . S
C779 C781 1.327 . S
C779 H802 0.950 . S
C780 C779 1.349 . S
C780 C792 1.349 . S
C781 C779 1.327 . S
C781 C797 1.429 . S
C781 H803 0.950 . S
C782 H778 0.949 . S
C782 C790 1.574 . S
C782 C798 1.368 . S
H783 C791 0.950 . S
H784 C789 0.950 . S
H785 C790 0.949 . S
H786 C792 0.950 . S
H787 C793 0.950 . S
H788 C794 0.949 . S
C789 H784 0.950 . S
C789 C791 1.327 . S
C789 C795 1.429 . S
C790 C782 1.574 . S
C790 H785 0.949 . S
C790 C796 1.368 . S
C791 C775 1.349 . S
C791 H783 0.950 . S
C791 C789 1.327 . S
C792 C780 1.349 . S
C792 H786 0.950 . S
C792 C793 1.327 . S
C793 H787 0.950 . S
C793 C792 1.327 . S
C793 C797 1.429 . S
C794 C777 1.574 . S
C794 H788 0.949 . S
C794 C798 1.368 . S
C795 C776 1.429 . S
C795 C789 1.429 . S
C795 C796 1.523 . S
C796 C777 1.368 . S
C796 C790 1.368 . S
C796 C795 1.523 . S
C797 C781 1.429 . S
C797 C793 1.429 . S
C797 C798 1.523 . S
C798 C782 1.368 . S
C798 C794 1.368 . S
C798 C797 1.523 . S
H799 C774 0.950 . S
H800 C776 0.950 . S
H801 C777 0.949 . S
H802 C779 0.950 . S
H803 C781 0.950 . S
C804 C805 1.349 1_565 S
C804 C806 1.327 . S
C804 H829 0.950 . S
C805 C804 1.349 1_545 S
C805 C821 1.349 . S
C806 C804 1.327 . S
C806 C825 1.429 1_565 S
C806 H830 0.950 . S
C807 C824 1.574 . S
C807 C826 1.368 . S
C807 H831 0.949 . S
H808 C812 0.949 . S
C809 C810 1.349 1_545 S
C809 C811 1.327 . S
C809 H832 0.950 . S
C810 C809 1.349 1_565 S
C810 C822 1.349 . S
C811 C809 1.327 . S
C811 C827 1.456 . S
C811 H833 0.950 . S
C812 H808 0.949 . S
C812 C820 1.574 . S
C812 C828 1.368 1_565 S
H813 C821 0.950 . S
H814 C819 0.950 . S
H815 C820 0.949 . S
H816 C822 0.950 . S
H817 C823 0.950 . S
H818 C824 0.949 . S
C819 H814 0.950 . S
C819 C821 1.327 . S
C819 C825 1.429 . S
C820 C812 1.574 . S
C820 H815 0.949 . S
C820 C826 1.368 1_565 S
C821 C805 1.349 . S
C821 H813 0.950 . S
C821 C819 1.327 . S
C822 C810 1.349 . S
C822 H816 0.950 . S
C822 C823 1.327 . S
C823 H817 0.950 . S
C823 C822 1.327 . S
C823 C827 1.398 1_565 S
C824 C807 1.574 . S
C824 H818 0.949 . S
C824 C828 1.368 . S
C825 C806 1.429 1_545 S
C825 C819 1.429 . S
C825 C826 1.523 . S
C826 C807 1.368 . S
C826 C820 1.368 1_545 S
C826 C825 1.523 . S
C827 C811 1.456 . S
C827 C823 1.398 1_545 S
C827 C828 1.527 . S
C828 C812 1.368 1_545 S
C828 C824 1.368 . S
C828 C827 1.527 . S
H829 C804 0.950 . S
H830 C806 0.950 . S
H831 C807 0.949 . S
H832 C809 0.950 . S
H833 C811 0.950 . S
C834 C835 1.349 . S
C834 C836 1.327 . S
C834 H859 0.950 . S
C835 C834 1.349 . S
C835 C851 1.349 . S
C836 C834 1.327 . S
C836 C855 1.429 . S
C836 H860 0.950 . S
C837 C854 1.574 . S
C837 C856 1.368 . S
C837 H861 0.949 . S
H838 C842 0.949 . S
C839 C840 1.349 . S
C839 C841 1.327 1_554 S
C839 H862 0.950 . S
C840 C839 1.349 . S
C840 C852 1.349 . S
C841 C839 1.327 1_556 S
C841 C857 1.429 . S
C841 H863 0.950 . S
C842 H838 0.949 . S
C842 C850 1.574 . S
C842 C858 1.368 . S
H843 C851 0.950 . S
H844 C849 0.950 . S
H845 C850 0.949 . S
H846 C852 0.950 . S
H847 C853 0.950 . S
H848 C854 0.949 . S
C849 H844 0.950 . S
C849 C851 1.327 . S
C849 C855 1.429 . S
C850 C842 1.574 . S
C850 H845 0.949 . S
C850 C856 1.368 . S
C851 C835 1.349 . S
C851 H843 0.950 . S
C851 C849 1.327 . S
C852 C840 1.349 . S
C852 H846 0.950 . S
C852 C853 1.327 1_554 S
C853 H847 0.950 . S
C853 C852 1.327 1_556 S
C853 C857 1.429 . S
C854 C837 1.574 . S
C854 H848 0.949 . S
C854 C858 1.368 . S
C855 C836 1.429 . S
C855 C849 1.429 . S
C855 C856 1.523 . S
C856 C837 1.368 . S
C856 C850 1.368 . S
C856 C855 1.523 . S
C857 C841 1.429 . S
C857 C853 1.429 . S
C857 C858 1.523 . S
C858 C842 1.368 . S
C858 C854 1.368 . S
C858 C857 1.523 . S
H859 C834 0.950 . S
H860 C836 0.950 . S
H861 C837 0.949 . S
H862 C839 0.950 . S
H863 C841 0.950 . S
C864 C865 1.349 . S
C864 C866 1.327 . S
C864 H889 0.950 . S
C865 C864 1.349 . S
C865 C881 1.349 . S
C866 C864 1.327 . S
C866 C885 1.429 . S
C866 H890 0.950 . S
C867 C884 1.574 . S
C867 C886 1.368 . S
C867 H891 0.949 . S
H868 C872 0.949 . S
C869 C870 1.359 . S
C869 C871 1.327 . S
C869 H892 0.950 . S
C870 C869 1.359 . S
C870 C882 1.359 . S
C871 C869 1.327 . S
C871 C887 1.429 . S
C871 H893 0.950 . S
C872 H868 0.949 . S
C872 C880 1.574 . S
C872 C888 1.368 . S
H873 C881 0.950 . S
H874 C879 0.950 . S
H875 C880 0.949 . S
H876 C882 0.917 1_655 S
H877 C883 0.950 . S
H878 C884 0.949 . S
C879 H874 0.950 . S
C879 C881 1.327 . S
C879 C885 1.429 . S
C880 C872 1.574 . S
C880 H875 0.949 . S
C880 C886 1.368 . S
C881 C865 1.349 . S
C881 H873 0.950 . S
C881 C879 1.327 . S
C882 C870 1.359 . S
C882 H876 0.917 1_455 S
C882 C883 1.330 . S
C883 H877 0.950 . S
C883 C882 1.330 . S
C883 C887 1.429 . S
C884 C867 1.574 . S
C884 H878 0.949 . S
C884 C888 1.368 . S
C885 C866 1.429 . S
C885 C879 1.429 . S
C885 C886 1.523 . S
C886 C867 1.368 . S
C886 C880 1.368 . S
C886 C885 1.523 . S
C887 C871 1.429 . S
C887 C883 1.429 . S
C887 C888 1.523 . S
C888 C872 1.368 . S
C888 C884 1.368 . S
C888 C887 1.523 . S
H889 C864 0.950 . S
H890 C866 0.950 . S
H891 C867 0.949 . S
H892 C869 0.950 . S
H893 C871 0.950 . S
C355 C7 0.520 . S
C360 C331 0.504 . S
C385 C51 1.856 . S
C390 C258 1.824 . S
C415 C87 1.146 . S
C420 C297 1.152 . S
C445 C16 0.301 . S
C450 C336 0.225 . S
C480 C253 1.950 . S
C475 C42 1.988 . S
C510 C292 1.291 . S
C505 C96 1.296 . S
C535 C47 1.145 . S
C540 C180 1.150 . S
C565 C91 3.086 . S
C570 C214 3.036 . S
C595 C2 2.023 . S
C600 C136 1.991 . S
C630 C175 1.267 . S
C625 C56 1.265 . S
C660 C219 2.874 . S
C655 C82 2.901 . S
C685 C11 1.844 . S
C690 C141 1.816 . S
C720 C199 1.762 . S
C715 C19 1.695 . S
C745 C50 1.344 . S
C750 C121 1.386 . S
C775 C99 1.463 . S
C780 C160 1.514 . S
C810 C277 1.493 . S
C805 C59 1.452 . S
C840 C316 1.137 . S
C835 C90 1.119 . S
C865 C10 1.342 . S
C870 C238 1.377 1_455 S
