# Generated by pormake.
# Topology nom, (4,4)-cn, num edge types: 1
# Building blocks:
#     Node 0, Type 0, BuildingBlock: KUFVIS_clean_linker_0, # of connection points: 4
#     Node 1, Type 0, BuildingBlock: KUFVIS_clean_linker_0, # of connection points: 4
#     Node 2, Type 0, BuildingBlock: KUFVIS_clean_linker_0, # of connection points: 4
#     Node 3, Type 0, BuildingBlock: KUFVIS_clean_linker_0, # of connection points: 4
#     Node 4, Type 0, BuildingBlock: KUFVIS_clean_linker_0, # of connection points: 4
#     Node 5, Type 0, BuildingBlock: KUFVIS_clean_linker_0, # of connection points: 4
#     Node 6, Type 1, BuildingBlock: GALJAG_clean_sbu_0, # of connection points: 4
#     Node 7, Type 1, BuildingBlock: GALJAG_clean_sbu_0, # of connection points: 4
#     Node 8, Type 1, BuildingBlock: GALJAG_clean_sbu_0, # of connection points: 4
#     Node 9, Type 1, BuildingBlock: GALJAG_clean_sbu_0, # of connection points: 4
#     Node 10, Type 1, BuildingBlock: GALJAG_clean_sbu_0, # of connection points: 4
#     Node 11, Type 1, BuildingBlock: GALJAG_clean_sbu_0, # of connection points: 4
#     Edge 12, Type (0, 1), BuildingBlock: UVAHIK_clean_linker_0, # of connection points: 2
#     Edge 13, Type (0, 1), BuildingBlock: UVAHIK_clean_linker_0, # of connection points: 2
#     Edge 14, Type (0, 1), BuildingBlock: UVAHIK_clean_linker_0, # of connection points: 2
#     Edge 15, Type (0, 1), BuildingBlock: UVAHIK_clean_linker_0, # of connection points: 2
#     Edge 16, Type (0, 1), BuildingBlock: UVAHIK_clean_linker_0, # of connection points: 2
#     Edge 17, Type (0, 1), BuildingBlock: UVAHIK_clean_linker_0, # of connection points: 2
#     Edge 18, Type (0, 1), BuildingBlock: UVAHIK_clean_linker_0, # of connection points: 2
#     Edge 19, Type (0, 1), BuildingBlock: UVAHIK_clean_linker_0, # of connection points: 2
#     Edge 20, Type (0, 1), BuildingBlock: UVAHIK_clean_linker_0, # of connection points: 2
#     Edge 21, Type (0, 1), BuildingBlock: UVAHIK_clean_linker_0, # of connection points: 2
#     Edge 22, Type (0, 1), BuildingBlock: UVAHIK_clean_linker_0, # of connection points: 2
#     Edge 23, Type (0, 1), BuildingBlock: UVAHIK_clean_linker_0, # of connection points: 2
#     Edge 24, Type (0, 1), BuildingBlock: UVAHIK_clean_linker_0, # of connection points: 2
#     Edge 25, Type (0, 1), BuildingBlock: UVAHIK_clean_linker_0, # of connection points: 2
#     Edge 26, Type (0, 1), BuildingBlock: UVAHIK_clean_linker_0, # of connection points: 2
#     Edge 27, Type (0, 1), BuildingBlock: UVAHIK_clean_linker_0, # of connection points: 2
#     Edge 28, Type (0, 1), BuildingBlock: UVAHIK_clean_linker_0, # of connection points: 2
#     Edge 29, Type (0, 1), BuildingBlock: UVAHIK_clean_linker_0, # of connection points: 2
#     Edge 30, Type (0, 1), BuildingBlock: UVAHIK_clean_linker_0, # of connection points: 2
#     Edge 31, Type (0, 1), BuildingBlock: UVAHIK_clean_linker_0, # of connection points: 2
#     Edge 32, Type (0, 1), BuildingBlock: UVAHIK_clean_linker_0, # of connection points: 2
#     Edge 33, Type (0, 1), BuildingBlock: UVAHIK_clean_linker_0, # of connection points: 2
#     Edge 34, Type (0, 1), BuildingBlock: UVAHIK_clean_linker_0, # of connection points: 2
#     Edge 35, Type (0, 1), BuildingBlock: UVAHIK_clean_linker_0, # of connection points: 2
# Relax obj value: 0.012
# Max RMSD: 0.070
# Mean RMSD: 0.062
data_MOF--net-nom--node1-GALJAG_clean_sbu_0--node2-KUFVIS_clean_linker_0--edge1-UVAHIK_clean_linker_0
_symmetry_space_group_name_H-M    P1
_symmetry_Int_Tables_number       1
_symmetry_cell_setting            triclinic
loop_
_symmetry_equiv_pos_as_xyz
'x, y, z'
_cell_length_a     58.401109
_cell_length_b     58.367857
_cell_length_c     61.889032
_cell_angle_alpha  90.104091
_cell_angle_beta   89.965704
_cell_angle_gamma 120.0933
loop_
_atom_site_label
_atom_site_type_symbol
_atom_site_fract_x
_atom_site_fract_y
_atom_site_fract_z
_atom_type_partial_charge
H0 H 0.11331 0.61865 0.3388 0.0
H1 H 0.05492 0.58612 0.28879 0.0
H2 H 0.03472 0.55751 0.3545 0.0
H3 H 0.99471 0.55063 0.34452 0.0
H4 H 0.94119 0.49829 0.29658 0.0
H5 H 0.02359 0.54461 0.28141 0.0
C6 C 0.09296 0.60551 0.33391 0.0
C7 C 0.07446 0.58899 0.34925 0.0
C8 C 0.08613 0.60411 0.31211 0.0
C9 C 0.06003 0.58643 0.30563 0.0
C10 C 0.04082 0.56957 0.32082 0.0
C11 C 0.04858 0.57082 0.34261 0.0
C12 C 1.01304 0.55015 0.31397 0.0
C13 C 0.99159 0.54208 0.32851 0.0
C14 C 0.96585 0.5227 0.3225 0.0
C15 C 0.96128 0.5123 0.30156 0.0
C16 C 0.98189 0.52058 0.28663 0.0
C17 C 1.00775 0.53919 0.29293 0.0
H18 H 0.54922 0.1062 0.50851 0.0
H19 H 0.49841 0.05301 0.45975 0.0
H20 H 0.5068 0.02321 0.52169 0.0
H21 H 0.46787 0.98922 0.51403 0.0
H22 H 0.43932 0.93304 0.46232 0.0
H23 H 0.49226 0.01463 0.44794 0.0
C24 C 0.53588 0.08609 0.50311 0.0
C25 C 0.52866 0.06513 0.51745 0.0
C26 C 0.52549 0.08176 0.48221 0.0
C27 C 0.50698 0.05588 0.4757 0.0
C28 C 0.50004 0.03406 0.4896 0.0
C29 C 0.5111 0.03918 0.51062 0.0
C30 C 0.48217 1.00611 0.48202 0.0
C31 C 0.46747 0.98535 0.4969 0.0
C32 C 0.45269 0.95903 0.48979 0.0
C33 C 0.45081 0.95345 0.46772 0.0
C34 C 0.46446 0.97354 0.45262 0.0
C35 C 0.48067 0.99965 0.45981 0.0
H36 H 0.54703 0.45317 0.63084 0.0
H37 H 0.50161 0.46457 0.67964 0.0
H38 H 0.50862 0.49705 0.61541 0.0
H39 H 0.46946 0.49322 0.6242 0.0
H40 H 0.45669 0.53866 0.67211 0.0
H41 H 0.50282 0.50289 0.68848 0.0
C42 C 0.53481 0.46141 0.63577 0.0
C43 C 0.52829 0.47499 0.6207 0.0
C44 C 0.52558 0.45793 0.65703 0.0
C45 C 0.50897 0.46776 0.66322 0.0
C46 C 0.50266 0.48227 0.64841 0.0
C47 C 0.51238 0.48549 0.62703 0.0
C48 C 0.48784 0.49579 0.65546 0.0
C49 C 0.47251 0.50088 0.64054 0.0
C50 C 0.46186 0.51685 0.64641 0.0
C51 C 0.46522 0.52658 0.66749 0.0
C52 C 0.47942 0.52107 0.68271 0.0
C53 C 0.49077 0.50579 0.67674 0.0
H54 H 0.11454 0.52312 0.79871 0.0
H55 H 0.05457 0.48531 0.84711 0.0
H56 H 0.03458 0.50129 0.78365 0.0
H57 H 0.99517 0.46371 0.79189 0.0
H58 H 0.94008 0.45691 0.84075 0.0
H59 H 0.02258 0.49512 0.85615 0.0
C60 C 0.09393 0.51399 0.80353 0.0
C61 C 0.07524 0.5128 0.78881 0.0
C62 C 0.08662 0.50426 0.82453 0.0
C63 C 0.06002 0.49294 0.83084 0.0
C64 C 0.04069 0.49134 0.81616 0.0
C65 C 0.04867 0.50131 0.79503 0.0
C66 C 1.01262 0.48073 0.82311 0.0
C67 C 0.99147 0.46755 0.80827 0.0
C68 C 0.96539 0.45961 0.81446 0.0
C69 C 0.96033 0.4639 0.83573 0.0
C70 C 0.98076 0.47622 0.85083 0.0
C71 C 1.00685 0.48473 0.84449 0.0
H72 H 0.50663 0.93505 0.00936 0.0
H73 H 0.54947 0.99109 0.95946 0.0
H74 H 0.54493 0.0177 0.02405 0.0
H75 H 0.58168 0.05428 0.01404 0.0
H76 H 0.59301 0.10988 0.9643 0.0
H77 H 0.54816 0.02714 0.95017 0.0
C78 C 0.51856 0.95548 0.00415 0.0
C79 C 0.52566 0.97587 0.01911 0.0
C80 C 0.52676 0.9609 0.98265 0.0
C81 C 0.54285 0.98729 0.97608 0.0
C82 C 0.54945 1.00845 0.99072 0.0
C83 C 0.54089 1.00226 0.01241 0.0
C84 C 0.56327 0.03668 0.98312 0.0
C85 C 0.57823 0.05796 -0.00244 0.0
C86 C 0.5882 0.08429 0.99095 0.0
C87 C 0.58463 0.08951 0.96958 0.0
C88 C 0.57078 0.06899 0.95483 0.0
C89 C 0.55997 0.04268 0.9616 0.0
H90 H 0.50714 0.59065 0.13179 0.0
H91 H 0.55116 0.57586 0.17953 0.0
H92 H 0.54458 0.5464 0.1141 0.0
H93 H 0.58279 0.5481 0.12283 0.0
H94 H 0.59393 0.50046 0.16955 0.0
H95 H 0.54888 0.53704 0.18699 0.0
C96 C 0.51915 0.58198 0.13617 0.0
C97 C 0.52558 0.56891 0.12048 0.0
C98 C 0.52805 0.58423 0.15743 0.0
C99 C 0.54413 0.57363 0.16306 0.0
C100 C 0.55023 0.5595 0.14763 0.0
C101 C 0.54097 0.55761 0.12622 0.0
C102 C 0.56421 0.54493 0.15409 0.0
C103 C 0.57935 0.53983 0.13894 0.0
C104 C 0.58942 0.52318 0.1443 0.0
C105 C 0.58563 0.5128 0.16517 0.0
C106 C 0.57156 0.51825 0.18059 0.0
C107 C 0.56079 0.53416 0.17508 0.0
In108 In 0.64767 0.39956 0.40127 0.0
O109 O 0.69124 0.4306 0.40669 0.0
O110 O 0.68251 0.39871 0.38536 0.0
C111 C 0.62739 0.41376 0.4345 0.0
C112 C 0.63473 0.41784 0.36604 0.0
C113 C 0.62699 0.34743 0.40982 0.0
O114 O 0.65098 0.4185 0.43441 0.0
O115 O 0.61404 0.40142 0.41815 0.0
O116 O 0.61723 0.35585 0.39591 0.0
O117 O 0.64713 0.36527 0.41945 0.0
C118 C 0.70006 0.41968 0.39425 0.0
O119 O 0.62922 0.39408 0.36775 0.0
O120 O 0.64734 0.43244 0.38179 0.0
In121 In 0.26829 0.63985 0.56795 0.0
O122 O 0.28051 0.60887 0.56085 0.0
O123 O 0.30391 0.63982 0.5829 0.0
C124 C 0.234 0.62861 0.53498 0.0
C125 C 0.23647 0.61854 0.60253 0.0
C126 C 0.29962 0.69253 0.56173 0.0
O127 O 0.25376 0.62537 0.53346 0.0
O128 O 0.23196 0.63782 0.55283 0.0
O129 O 0.2816 0.6831 0.57584 0.0
O130 O 0.30183 0.67544 0.55085 0.0
C131 C 0.30032 0.61921 0.57327 0.0
O132 O 0.25493 0.64238 0.60218 0.0
O133 O 0.23463 0.60545 0.58576 0.0
In134 In 0.64785 0.26256 0.73483 0.0
O135 O 0.69158 0.27689 0.72832 0.0
O136 O 0.68237 0.29729 0.7521 0.0
C137 C 0.62735 0.22851 0.70128 0.0
C138 C 0.6353 0.22949 0.76887 0.0
C139 C 0.62725 0.29428 0.72737 0.0
O140 O 0.65122 0.24683 0.70176 0.0
O141 O 0.61381 0.22795 0.71733 0.0
O142 O 0.61775 0.27599 0.74121 0.0
O143 O 0.64704 0.29652 0.71725 0.0
C144 C 0.70013 0.29538 0.74203 0.0
O145 O 0.62934 0.24748 0.76813 0.0
O146 O 0.64818 0.22875 0.75281 0.0
In147 In 0.40347 0.64332 0.90182 0.0
O148 O 0.36099 0.61319 0.91111 0.0
O149 O 0.36664 0.63852 0.88457 0.0
C150 C 0.42533 0.63129 0.93524 0.0
C151 C 0.41581 0.62368 0.86702 0.0
C152 C 0.42273 0.6958 0.90848 0.0
O153 O 0.40161 0.62609 0.93538 0.0
O154 O 0.43813 0.64309 0.91855 0.0
O155 O 0.4339 0.68708 0.89628 0.0
O156 O 0.40183 0.67812 0.91729 0.0
C157 C 0.35044 0.6199 0.89653 0.0
O158 O 0.42018 0.64714 0.86777 0.0
O159 O 0.40464 0.61001 0.88354 0.0
In160 In 0.78442 0.40294 0.06872 0.0
O161 O 0.79854 0.39992 0.10258 0.0
O162 O 0.81889 0.43687 0.08642 0.0
C163 C 0.75176 0.35045 0.06209 0.0
C164 C 0.75338 0.42478 0.07404 0.0
C165 C 0.81806 0.41446 0.03517 0.0
O166 O 0.77005 0.35934 0.07596 0.0
O167 O 0.7499 0.36798 0.05162 0.0
O168 O 0.79993 0.42023 0.03519 0.0
O169 O 0.81867 0.40226 0.05173 0.0
C170 C 0.81734 0.42358 0.10292 0.0
O171 O 0.7727 0.43401 0.06117 0.0
O172 O 0.74971 0.40457 0.08435 0.0
In173 In 0.40388 0.7767 0.23556 0.0
O174 O 0.43422 0.76374 0.24286 0.0
O175 O 0.40225 0.73944 0.22207 0.0
C176 C 0.41564 0.81209 0.26786 0.0
C177 C 0.4261 0.809 0.20132 0.0
C178 C 0.35086 0.74654 0.24066 0.0
O179 O 0.41812 0.79193 0.26995 0.0
O180 O 0.40677 0.81394 0.24981 0.0
O181 O 0.36134 0.76061 0.22415 0.0
O182 O 0.36712 0.7475 0.25459 0.0
C183 C 0.42307 0.74316 0.23132 0.0
O184 O 0.40158 0.79279 0.20251 0.0
O185 O 0.43944 0.80824 0.21702 0.0
C186 C 0.11354 0.6067 0.28018 0.0
C187 C 0.10743 0.61969 0.29634 0.0
C188 C 0.13756 0.62016 0.26897 0.0
C189 C 0.19763 0.64669 0.26545 0.0
H190 H 0.23212 0.72028 0.24779 0.0
C191 C 0.31106 0.71329 0.26123 0.0
C192 C 0.32185 0.73063 0.24362 0.0
C193 C 0.28366 0.69872 0.2643 0.0
C194 C 0.22268 0.69963 0.25242 0.0
H195 H 0.12043 0.65724 0.31234 0.0
H196 H 0.1621 0.68088 0.29259 0.0
H197 H 0.18515 0.69717 0.25734 0.0
H198 H 0.31239 0.74618 0.21533 0.0
H199 H 0.26449 0.72086 0.22084 0.0
H200 H 0.23528 0.64932 0.26111 0.0
C201 C 0.14852 0.66035 0.28854 0.0
C202 C 0.19584 0.68646 0.258 0.0
C203 C 0.12469 0.64685 0.29988 0.0
C204 C 0.30466 0.73298 0.22907 0.0
C205 C 0.27725 0.71858 0.23226 0.0
C206 C 0.2245 0.65992 0.26007 0.0
C207 C 0.1557 0.6469 0.27359 0.0
C208 C 0.18312 0.65996 0.2649 0.0
C209 C 0.26646 0.70133 0.24994 0.0
C210 C 0.23743 0.68666 0.25386 0.0
H211 H 0.10066 0.58571 0.2773 0.0
H212 H 0.14245 0.60936 0.25737 0.0
H213 H 0.18852 0.62637 0.27094 0.0
H214 H 0.3238 0.71108 0.27272 0.0
H215 H 0.27597 0.68583 0.27823 0.0
C216 C 0.5164 0.11092 0.45797 0.0
C217 C 0.53449 0.10494 0.46773 0.0
C218 C 0.52537 0.13574 0.44832 0.0
C219 C 0.578 0.20306 0.45655 0.0
H220 H 0.56136 0.22008 0.40034 0.0
C221 C 0.63026 0.31034 0.42668 0.0
C222 C 0.61576 0.31896 0.4145 0.0
C223 C 0.61964 0.28352 0.43143 0.0
C224 C 0.56589 0.21567 0.41622 0.0
H225 H 0.57609 0.11897 0.47332 0.0
H226 H 0.59162 0.16211 0.4567 0.0
H227 H 0.54332 0.17363 0.4107 0.0
H228 H 0.57883 0.30629 0.39759 0.0
H229 H 0.5598 0.25948 0.40652 0.0
H230 H 0.59979 0.2446 0.46262 0.0
C231 C 0.57059 0.14792 0.45673 0.0
C232 C 0.55563 0.18908 0.42206 0.0
C233 C 0.5617 0.12325 0.46618 0.0
C234 C 0.59047 0.30018 0.407 0.0
C235 C 0.57965 0.27332 0.412 0.0
C236 C 0.5879 0.22948 0.45089 0.0
C237 C 0.55249 0.1548 0.44845 0.0
C238 C 0.56199 0.18262 0.44216 0.0
C239 C 0.59403 0.26465 0.42442 0.0
C240 C 0.58238 0.23624 0.43053 0.0
H241 H 0.49532 0.09716 0.45902 0.0
H242 H 0.51105 0.14062 0.442 0.0
H243 H 0.58276 0.19858 0.47234 0.0
H244 H 0.64993 0.32433 0.43247 0.0
H245 H 0.63163 0.27761 0.44055 0.0
C246 C 0.42372 0.50702 0.62189 0.0
C247 C 0.4484 0.52526 0.63075 0.0
C248 C 0.40827 0.51604 0.61161 0.0
C249 C 0.39689 0.57111 0.61732 0.0
H250 H 0.35872 0.54995 0.56302 0.0
C251 C 0.3423 0.62314 0.58694 0.0
C252 C 0.31774 0.60795 0.57672 0.0
C253 C 0.35845 0.61239 0.59117 0.0
C254 C 0.36899 0.55581 0.57836 0.0
H255 H 0.47735 0.56686 0.63437 0.0
H256 H 0.4506 0.58253 0.61643 0.0
H257 H 0.38674 0.53155 0.57361 0.0
H258 H 0.29098 0.56971 0.56251 0.0
H259 H 0.31881 0.55048 0.57059 0.0
H260 H 0.37887 0.59458 0.62269 0.0
C261 C 0.44297 0.5614 0.61758 0.0
C262 C 0.38508 0.54533 0.58433 0.0
C263 C 0.45831 0.55246 0.62771 0.0
C264 C 0.30985 0.58188 0.57041 0.0
C265 C 0.32589 0.57093 0.57494 0.0
C266 C 0.38066 0.58125 0.61154 0.0
C267 C 0.41738 0.54334 0.61024 0.0
C268 C 0.39949 0.55327 0.60373 0.0
C269 C 0.35026 0.58596 0.58565 0.0
C270 C 0.36679 0.57412 0.59183 0.0
H271 H 0.41565 0.48597 0.62422 0.0
H272 H 0.38858 0.50173 0.60609 0.0
H273 H 0.4073 0.57709 0.63261 0.0
H274 H 0.34907 0.64341 0.59174 0.0
H275 H 0.37738 0.62485 0.59889 0.0
C276 C 0.93658 0.42278 0.78885 0.0
C277 C 0.94271 0.44656 0.79933 0.0
C278 C 0.91184 0.40746 0.77887 0.0
C279 C 0.84472 0.3934 0.78724 0.0
H280 H 0.82754 0.35903 0.73121 0.0
C281 C 0.73717 0.33668 0.75802 0.0
C282 C 0.72866 0.3133 0.74613 0.0
C283 C 0.76402 0.35342 0.76242 0.0
C284 C 0.83199 0.3682 0.74703 0.0
H285 H 0.9291 0.47425 0.80588 0.0
H286 H 0.88615 0.44764 0.78856 0.0
H287 H 0.874 0.38768 0.74153 0.0
H288 H 0.74156 0.28917 0.7293 0.0
H289 H 0.78844 0.31788 0.73764 0.0
H290 H 0.80323 0.37357 0.79334 0.0
C291 C 0.90013 0.44057 0.7883 0.0
C292 C 0.85859 0.38468 0.75285 0.0
C293 C 0.92471 0.45582 0.79812 0.0
C294 C 0.74758 0.30712 0.73849 0.0
C295 C 0.77448 0.32369 0.74316 0.0
C296 C 0.8183 0.37675 0.78161 0.0
C297 C 0.89301 0.41576 0.77937 0.0
C298 C 0.86514 0.3977 0.77291 0.0
C299 C 0.78304 0.34697 0.75536 0.0
C300 C 0.81148 0.36416 0.76132 0.0
H301 H 0.95009 0.41518 0.78967 0.0
H302 H 0.90681 0.38839 0.77207 0.0
H303 H 0.84922 0.40273 0.80302 0.0
H304 H 0.72307 0.34213 0.7639 0.0
H305 H 0.76982 0.37147 0.77136 0.0
C306 C 0.48968 0.92065 0.96606 0.0
C307 C 0.51703 0.93834 0.96743 0.0
C308 C 0.47999 0.89611 0.95606 0.0
C309 C 0.49436 0.85437 0.92065 0.0
H310 H 0.44678 0.79858 0.95949 0.0
C311 C 0.4593 0.74307 0.906 0.0
C312 C 0.4335 0.72438 0.91252 0.0
C313 C 0.46984 0.76997 0.91076 0.0
C314 C 0.45963 0.8138 0.94821 0.0
H315 H 0.55568 0.94521 0.95811 0.0
H316 H 0.53862 0.90191 0.94027 0.0
H317 H 0.4644 0.84453 0.96975 0.0
H318 H 0.39814 0.71926 0.92834 0.0
H319 H 0.41607 0.76608 0.93603 0.0
H320 H 0.48925 0.82347 0.89894 0.0
C321 C 0.52474 0.90718 0.94699 0.0
C322 C 0.46983 0.8402 0.95417 0.0
C323 C 0.5345 0.93191 0.9571 0.0
C324 C 0.4182 0.73317 0.92333 0.0
C325 C 0.42858 0.76004 0.92786 0.0
C326 C 0.48387 0.8278 0.91453 0.0
C327 C 0.49745 0.88866 0.94721 0.0
C328 C 0.48714 0.86078 0.94043 0.0
C329 C 0.45471 0.77879 0.92197 0.0
C330 C 0.46622 0.80717 0.92821 0.0
H331 H 0.47582 0.92527 0.9738 0.0
H332 H 0.45885 0.88242 0.95611 0.0
H333 H 0.50767 0.86987 0.90976 0.0
H334 H 0.47157 0.73684 0.89765 0.0
H335 H 0.49009 0.78373 0.90616 0.0
C336 C 0.59533 0.48846 0.12612 0.0
C337 C 0.60328 0.51537 0.1284 0.0
C338 C 0.61087 0.48069 0.11469 0.0
C339 C 0.68049 0.50632 0.09974 0.0
H340 H 0.65107 0.43716 0.07283 0.0
C341 C 0.74438 0.4621 0.06871 0.0
C342 C 0.73632 0.43661 0.07668 0.0
C343 C 0.72831 0.47337 0.0714 0.0
C344 C 0.65955 0.45655 0.08026 0.0
H345 H 0.63275 0.55522 0.11929 0.0
H346 H 0.65994 0.54163 0.09871 0.0
H347 H 0.62208 0.45466 0.08181 0.0
H348 H 0.705 0.4028 0.0934 0.0
H349 H 0.67672 0.42229 0.09774 0.0
H350 H 0.71799 0.50798 0.09818 0.0
C351 C 0.64187 0.52654 0.10619 0.0
C352 C 0.64298 0.46659 0.08546 0.0
C353 C 0.6262 0.53434 0.11773 0.0
C354 C 0.71175 0.42249 0.08714 0.0
C355 C 0.6955 0.43357 0.08949 0.0
C356 C 0.69714 0.4964 0.09424 0.0
C357 C 0.63477 0.49964 0.10509 0.0
C358 C 0.65306 0.49122 0.09595 0.0
C359 C 0.70366 0.45915 0.08173 0.0
C360 C 0.68668 0.47108 0.08505 0.0
H361 H 0.57764 0.47342 0.13412 0.0
H362 H 0.6048 0.45986 0.11451 0.0
H363 H 0.68898 0.5252 0.108 0.0
H364 H 0.76325 0.47345 0.0606 0.0
H365 H 0.73504 0.4931 0.06524 0.0
C366 C 0.41771 0.92969 0.51634 0.0
C367 C 0.44102 0.93645 0.50491 0.0
C368 C 0.40346 0.90479 0.52627 0.0
C369 C 0.39056 0.83826 0.51637 0.0
H370 H 0.36016 0.81999 0.57378 0.0
C371 C 0.33941 0.73071 0.54519 0.0
C372 C 0.31657 0.72127 0.55793 0.0
C373 C 0.35506 0.75772 0.54086 0.0
C374 C 0.36823 0.82475 0.55759 0.0
H375 H 0.46876 0.92376 0.49599 0.0
H376 H 0.44412 0.88055 0.51334 0.0
H377 H 0.38693 0.8667 0.5634 0.0
H378 H 0.29236 0.73269 0.57643 0.0
H379 H 0.31921 0.77988 0.56827 0.0
H380 H 0.37151 0.79682 0.51004 0.0
C381 C 0.43666 0.89417 0.51456 0.0
C382 C 0.38362 0.85148 0.55173 0.0
C383 C 0.45084 0.9189 0.50478 0.0
C384 C 0.3099 0.73945 0.56657 0.0
C385 C 0.3254 0.76651 0.56199 0.0
C386 C 0.375 0.81171 0.52208 0.0
C387 C 0.41233 0.88645 0.52466 0.0
C388 C 0.39524 0.85842 0.53116 0.0
C389 C 0.34805 0.77597 0.54886 0.0
C390 C 0.36392 0.80451 0.54286 0.0
H391 H 0.40969 0.94287 0.51639 0.0
H392 H 0.38471 0.89924 0.53394 0.0
H393 H 0.39879 0.84305 0.50022 0.0
H394 H 0.34523 0.71721 0.53853 0.0
H395 H 0.37271 0.76425 0.53118 0.0
C396 C 0.51652 0.42034 0.68196 0.0
C397 C 0.53455 0.44457 0.67232 0.0
C398 C 0.52564 0.40471 0.69175 0.0
C399 C 0.57853 0.39084 0.68326 0.0
H400 H 0.56191 0.35598 0.73898 0.0
C401 C 0.63059 0.33508 0.71134 0.0
C402 C 0.61612 0.3117 0.72326 0.0
C403 C 0.62006 0.35145 0.70711 0.0
C404 C 0.56645 0.36527 0.72323 0.0
H405 H 0.57607 0.47261 0.66698 0.0
H406 H 0.5919 0.44548 0.68398 0.0
H407 H 0.5438 0.38449 0.72927 0.0
H408 H 0.57932 0.28715 0.74028 0.0
H409 H 0.56041 0.31522 0.73221 0.0
H410 H 0.60032 0.3713 0.67662 0.0
C411 C 0.57083 0.43836 0.68381 0.0
C412 C 0.55616 0.38166 0.71776 0.0
C413 C 0.56179 0.45391 0.67419 0.0
C414 C 0.59094 0.30511 0.73105 0.0
C415 C 0.5802 0.32131 0.72655 0.0
C416 C 0.58844 0.37426 0.68853 0.0
C417 C 0.55283 0.41316 0.69187 0.0
C418 C 0.5625 0.39491 0.69785 0.0
C419 C 0.59455 0.34463 0.71436 0.0
C420 C 0.58293 0.36153 0.70871 0.0
H421 H 0.49542 0.41269 0.68056 0.0
H422 H 0.51139 0.38533 0.69787 0.0
H423 H 0.58326 0.40039 0.66759 0.0
H424 H 0.65019 0.34083 0.70535 0.0
H425 H 0.63206 0.36955 0.69818 0.0
C426 C 0.11312 0.52428 0.85806 0.0
C427 C 0.10771 0.50804 0.83982 0.0
C428 C 0.13695 0.53351 0.86933 0.0
C429 C 0.19593 0.52552 0.87578 0.0
H430 H 0.23406 0.60202 0.88151 0.0
C431 C 0.30442 0.58439 0.90596 0.0
C432 C 0.32142 0.60671 0.89358 0.0
C433 C 0.27702 0.57147 0.9028 0.0
C434 C 0.22366 0.58065 0.88005 0.0
H435 H 0.12175 0.48706 0.81996 0.0
H436 H 0.16308 0.50273 0.83974 0.0
H437 H 0.18745 0.57903 0.87124 0.0
H438 H 0.32304 0.63323 0.86839 0.0
H439 H 0.27523 0.61073 0.86286 0.0
H440 H 0.23245 0.52728 0.88381 0.0
C441 C 0.14911 0.50844 0.84542 0.0
C442 C 0.19686 0.56743 0.87444 0.0
C443 C 0.12547 0.49948 0.83406 0.0
C444 C 0.31045 0.61609 0.87819 0.0
C445 C 0.28305 0.6033 0.87513 0.0
C446 C 0.2227 0.53874 0.88154 0.0
C447 C 0.1556 0.52638 0.86265 0.0
C448 C 0.18282 0.53977 0.87178 0.0
C449 C 0.26602 0.58074 0.8873 0.0
C450 C 0.23701 0.56651 0.88326 0.0
H451 H 0.09982 0.53134 0.86266 0.0
H452 H 0.1413 0.54709 0.88269 0.0
H453 H 0.18562 0.50419 0.87396 0.0
H454 H 0.31229 0.57672 0.91799 0.0
H455 H 0.26442 0.55428 0.91254 0.0
C456 C 0.62556 0.11309 0.01615 0.0
C457 C 0.60168 0.10705 0.00596 0.0
C458 C 0.64118 0.13794 0.02594 0.0
C459 C 0.65593 0.20509 0.01712 0.0
H460 H 0.68904 0.22302 0.0736 0.0
C461 C 0.71103 0.31293 0.04585 0.0
C462 C 0.73414 0.32181 0.05813 0.0
C463 C 0.69467 0.28599 0.0415 0.0
C464 C 0.68024 0.21835 0.05765 0.0
H465 H 0.57421 0.12093 -0.00037 0.0
H466 H 0.60133 0.16405 0.01662 0.0
H467 H 0.6607 0.17638 0.06348 0.0
H468 H 0.75817 0.30946 0.07574 0.0
H469 H 0.73011 0.26242 0.06752 0.0
H470 H 0.67575 0.24653 0.01074 0.0
C471 C 0.60821 0.14992 0.01685 0.0
C472 C 0.66395 0.19165 0.05194 0.0
C473 C 0.59267 0.12525 0.00723 0.0
C474 C 0.74042 0.30315 0.06624 0.0
C475 C 0.72422 0.27616 0.06163 0.0
C476 C 0.67239 0.2316 0.02265 0.0
C477 C 0.63307 0.15693 0.02552 0.0
C478 C 0.65133 0.18486 0.03174 0.0
C479 C 0.70123 0.26723 0.04901 0.0
C480 C 0.68447 0.2387 0.04311 0.0
H481 H 0.63296 0.09941 0.01525 0.0
H482 H 0.66031 0.14292 0.03255 0.0
H483 H 0.64687 0.20036 0.00125 0.0
H484 H 0.70551 0.32682 0.0396 0.0
H485 H 0.67681 0.2799 0.03223 0.0
C486 C 0.4915 0.58578 0.17646 0.0
C487 C 0.51882 0.59664 0.17345 0.0
C488 C 0.4817 0.60024 0.18691 0.0
C489 C 0.49672 0.65814 0.2205 0.0
H490 H 0.44476 0.66141 0.18363 0.0
C491 C 0.46014 0.73332 0.23391 0.0
C492 C 0.43387 0.72526 0.22826 0.0
C493 C 0.47076 0.71694 0.2296 0.0
C494 C 0.45883 0.66041 0.1944 0.0
H495 H 0.55749 0.63023 0.18023 0.0
H496 H 0.54026 0.65577 0.19885 0.0
H497 H 0.46278 0.6335 0.17343 0.0
H498 H 0.39771 0.69329 0.2147 0.0
H499 H 0.41574 0.66437 0.20794 0.0
H500 H 0.49249 0.68493 0.24164 0.0
C501 C 0.52649 0.63599 0.19314 0.0
C502 C 0.46926 0.64444 0.18847 0.0
C503 C 0.53635 0.62141 0.18258 0.0
C504 C 0.41813 0.70017 0.21897 0.0
C505 C 0.42858 0.68367 0.21497 0.0
C506 C 0.48599 0.67397 0.22663 0.0
C507 C 0.49902 0.62594 0.19454 0.0
C508 C 0.4882 0.643 0.20146 0.0
C509 C 0.45521 0.69203 0.21978 0.0
C510 C 0.4668 0.67522 0.21366 0.0
H511 H 0.47764 0.56668 0.16953 0.0
H512 H 0.46046 0.59184 0.18808 0.0
H513 H 0.51133 0.65739 0.23079 0.0
H514 H 0.47274 0.75261 0.24107 0.0
H515 H 0.49138 0.7242 0.23336 0.0
C516 C 0.92541 0.48586 0.33931 0.0
C517 C 0.94296 0.51321 0.33737 0.0
C518 C 0.90076 0.47638 0.34901 0.0
C519 C 0.85859 0.49154 0.38301 0.0
H520 H 0.80324 0.44311 0.34414 0.0
C521 C 0.74722 0.45655 0.39657 0.0
C522 C 0.72863 0.43061 0.39023 0.0
C523 C 0.77414 0.46711 0.39195 0.0
C524 C 0.81833 0.4562 0.35543 0.0
H525 H 0.94943 0.55209 0.3456 0.0
H526 H 0.90605 0.53538 0.36296 0.0
H527 H 0.84927 0.46042 0.33445 0.0
H528 H 0.7237 0.39504 0.37487 0.0
H529 H 0.77052 0.41295 0.36749 0.0
H530 H 0.8275 0.48693 0.4042 0.0
C531 C 0.91148 0.52136 0.35683 0.0
C532 C 0.84477 0.46622 0.3498 0.0
C533 C 0.93628 0.53091 0.34698 0.0
C534 C 0.73753 0.41521 0.37972 0.0
C535 C 0.7644 0.42559 0.37537 0.0
C536 C 0.83198 0.4812 0.38883 0.0
C537 C 0.89311 0.49403 0.35709 0.0
C538 C 0.86518 0.48384 0.36355 0.0
C539 C 0.78307 0.45183 0.3811 0.0
C540 C 0.81149 0.46325 0.37514 0.0
H541 H 0.93023 0.47179 0.33225 0.0
H542 H 0.88717 0.45521 0.34937 0.0
H543 H 0.87397 0.50511 0.39389 0.0
H544 H 0.7409 0.4689 0.40468 0.0
H545 H 0.78782 0.48745 0.39642 0.0
C546 C 0.09918 0.61468 0.38189 0.0
C547 C 0.08318 0.59006 0.3719 0.0
C548 C 0.11107 0.61625 0.40178 0.0
C549 C 0.13429 0.57945 0.43432 0.0
H550 H 0.14892 0.6346 0.47621 0.0
C551 C 0.21846 0.61431 0.49701 0.0
C552 C 0.21434 0.62175 0.51758 0.0
C553 C 0.19977 0.60812 0.48061 0.0
C554 C 0.14476 0.61883 0.46487 0.0
H555 H 0.06588 0.54762 0.37543 0.0
H556 H 0.08627 0.55027 0.41056 0.0
H557 H 0.1188 0.62711 0.44642 0.0
H558 H 0.18719 0.62791 0.53733 0.0
H559 H 0.15442 0.61662 0.50895 0.0
H560 H 0.16009 0.57103 0.4529 0.0
C561 C 0.08997 0.56842 0.40278 0.0
C562 C 0.12769 0.61473 0.44764 0.0
C563 C 0.07804 0.56687 0.38281 0.0
C564 C 0.19104 0.62249 0.52155 0.0
C565 C 0.17229 0.61612 0.50525 0.0
C566 C 0.15128 0.58347 0.45163 0.0
C567 C 0.10717 0.59319 0.41222 0.0
C568 C 0.12264 0.59534 0.43193 0.0
C569 C 0.17649 0.60905 0.48452 0.0
C570 C 0.15708 0.60352 0.4669 0.0
H571 H 0.10328 0.63287 0.37392 0.0
H572 H 0.12436 0.63566 0.40844 0.0
H573 H 0.13106 0.56451 0.4224 0.0
H574 H 0.23627 0.6136 0.4935 0.0
H575 H 0.20384 0.60314 0.46475 0.0
C576 C 0.52108 0.06344 0.55731 0.0
C577 C 0.53878 0.07125 0.53986 0.0
C578 C 0.52997 0.07479 0.57772 0.0
C579 C 0.5903 0.11815 0.61021 0.0
H580 H 0.54745 0.14643 0.6326 0.0
C581 C 0.63244 0.20865 0.66701 0.0
C582 C 0.61637 0.20829 0.68404 0.0
C583 C 0.62224 0.18873 0.6513 0.0
C584 C 0.55948 0.13837 0.62682 0.0
H585 H 0.57984 0.095 0.53034 0.0
H586 H 0.5954 0.11481 0.56582 0.0
H587 H 0.53079 0.11478 0.60295 0.0
H588 H 0.57706 0.18686 0.698 0.0
H589 H 0.5593 0.15209 0.67063 0.0
H590 H 0.61932 0.14241 0.63374 0.0
C591 C 0.57471 0.1 0.56393 0.0
C592 C 0.54987 0.1201 0.60986 0.0
C593 C 0.56582 0.08876 0.54356 0.0
C594 C 0.58989 0.18775 0.68499 0.0
C595 C 0.57969 0.16785 0.66929 0.0
C596 C 0.59993 0.13644 0.62719 0.0
C597 C 0.55672 0.09401 0.58101 0.0
C598 C 0.56538 0.11017 0.60108 0.0
C599 C 0.59577 0.16805 0.6523 0.0
C600 C 0.58482 0.14714 0.63539 0.0
H601 H 0.50012 0.05004 0.55481 0.0
H602 H 0.51571 0.06948 0.59067 0.0
H603 H 0.6026 0.11063 0.60396 0.0
H604 H 0.65294 0.22423 0.66588 0.0
H605 H 0.63503 0.1897 0.63821 0.0
C606 C 0.4938 0.55977 0.707 0.0
C607 C 0.48247 0.5323 0.70459 0.0
C608 C 0.49085 0.57039 0.72629 0.0
C609 C 0.46888 0.55623 0.7833 0.0
H610 H 0.44424 0.60564 0.77193 0.0
C611 C 0.41818 0.58681 0.84848 0.0
C612 C 0.42434 0.61338 0.84879 0.0
C613 C 0.42711 0.57729 0.83166 0.0
C614 C 0.45146 0.59221 0.77547 0.0
H615 H 0.46078 0.49442 0.72064 0.0
H616 H 0.45542 0.51298 0.75458 0.0
H617 H 0.45874 0.58891 0.74213 0.0
H618 H 0.44483 0.65086 0.83186 0.0
H619 H 0.46072 0.63439 0.80265 0.0
H620 H 0.46134 0.55947 0.81673 0.0
C621 C 0.46679 0.52634 0.74164 0.0
C622 C 0.45982 0.58262 0.75837 0.0
C623 C 0.46989 0.5157 0.72229 0.0
C624 C 0.43958 0.63023 0.83196 0.0
C625 C 0.44861 0.62075 0.81519 0.0
C626 C 0.46059 0.56594 0.8005 0.0
C627 C 0.47628 0.5537 0.74347 0.0
C628 C 0.46863 0.56453 0.76206 0.0
C629 C 0.44249 0.59416 0.81483 0.0
C630 C 0.45173 0.58402 0.79675 0.0
H631 H 0.50362 0.5729 0.69351 0.0
H632 H 0.49889 0.5916 0.72738 0.0
H633 H 0.47565 0.54238 0.78664 0.0
H634 H 0.40645 0.57335 0.86126 0.0
H635 H 0.42169 0.55662 0.83172 0.0
C636 C 0.95688 0.48899 0.87727 0.0
C637 C 0.97399 0.47908 0.87333 0.0
C638 C 0.94563 0.48646 0.89763 0.0
C639 C 0.92486 0.4413 0.94345 0.0
H640 H 0.90483 0.49008 0.96764 0.0
C641 C 0.85811 0.41618 0.01899 0.0
C642 C 0.83805 0.42274 0.01786 0.0
C643 C 0.87786 0.42514 0.00322 0.0
C644 C 0.91018 0.47621 0.96101 0.0
H645 H 0.99434 0.46054 0.88784 0.0
H646 H 0.97485 0.45633 0.92372 0.0
H647 H 0.9363 0.5043 0.93775 0.0
H648 H 0.82277 0.44363 -0.0007 0.0
H649 H 0.85708 0.45902 0.9716 0.0
H650 H 0.89825 0.413 0.96631 0.0
C651 C 0.96988 0.46574 0.91095 0.0
C652 C 0.92828 0.48439 0.94397 0.0
C653 C 0.98124 0.46839 0.89052 0.0
C654 C 0.83798 0.43826 0.00058 0.0
C655 C 0.85777 0.44728 0.98484 0.0
C656 C 0.90681 0.43315 0.96052 0.0
C657 C 0.95123 0.47391 0.91449 0.0
C658 C 0.93537 0.46683 0.93467 0.0
C659 C 0.878 0.44092 0.98604 0.0
C660 C 0.89883 0.45032 0.96917 0.0
H661 H 0.9511 0.49744 0.86425 0.0
H662 H 0.93124 0.49281 0.89971 0.0
H663 H 0.92955 0.42712 0.93645 0.0
H664 H 0.85874 0.40435 0.03219 0.0
H665 H 0.89326 0.42006 0.00467 0.0
C666 C 0.48968 0.95181 0.04589 0.0
C667 C 0.51667 0.96877 0.04166 0.0
C668 C 0.48138 0.93995 0.06609 0.0
C669 C 0.50594 0.91643 0.10968 0.0
H670 H 0.43891 0.89825 0.13649 0.0
C671 C 0.46514 0.84758 0.18418 0.0
C672 C 0.43797 0.82881 0.1839 0.0
C673 C 0.47607 0.86755 0.16859 0.0
C674 C 0.4576 0.90304 0.1291 0.0
H675 H 0.55604 0.98806 0.05539 0.0
H676 H 0.54152 0.96732 0.09101 0.0
H677 H 0.456 0.93058 0.10723 0.0
H678 H 0.40103 0.81592 0.16692 0.0
H679 H 0.42016 0.85048 0.13949 0.0
H680 H 0.50719 0.88832 0.13107 0.0
C681 C 0.52681 0.96309 0.07863 0.0
C682 C 0.46745 0.92165 0.11244 0.0
C683 C 0.5351 0.97515 0.05839 0.0
C684 C 0.42203 0.83012 0.16754 0.0
C685 C 0.43295 0.85009 0.15197 0.0
C686 C 0.49608 0.89779 0.12633 0.0
C687 C 0.49995 0.94468 0.08244 0.0
C688 C 0.49145 0.92815 0.10224 0.0
C689 C 0.46006 0.86917 0.15242 0.0
C690 C 0.47153 0.89047 0.13592 0.0
H691 H 0.47515 0.94658 0.03316 0.0
H692 H 0.46059 0.92572 0.0684 0.0
H693 H 0.52428 0.92067 0.10193 0.0
H694 H 0.4779 0.84714 0.19666 0.0
H695 H 0.49698 0.88203 0.16948 0.0
C696 C 0.58037 0.52323 0.22028 0.0
C697 C 0.56842 0.50677 0.20235 0.0
C698 C 0.58317 0.51253 0.23965 0.0
C699 C 0.58997 0.45618 0.25671 0.0
H700 H 0.58834 0.48029 0.31478 0.0
C701 C 0.61012 0.41011 0.33127 0.0
C702 C 0.62593 0.42756 0.34764 0.0
C703 C 0.6009 0.41911 0.31434 0.0
C704 C 0.58907 0.47352 0.29862 0.0
H705 H 0.54801 0.46628 0.19086 0.0
H706 H 0.55212 0.44743 0.2248 0.0
H707 H 0.57407 0.49687 0.28439 0.0
H708 H 0.64461 0.46811 0.35912 0.0
H709 H 0.62891 0.48395 0.32933 0.0
H710 H 0.6054 0.43328 0.27071 0.0
C711 C 0.55999 0.46861 0.22385 0.0
C712 C 0.58083 0.48296 0.28126 0.0
C713 C 0.5574 0.47931 0.20452 0.0
C714 C 0.63245 0.45421 0.34671 0.0
C715 C 0.62326 0.46322 0.32976 0.0
C716 C 0.5982 0.4468 0.274 0.0
C717 C 0.57395 0.48521 0.24131 0.0
C718 C 0.58123 0.47439 0.2601 0.0
C719 C 0.60734 0.44577 0.31339 0.0
C720 C 0.59794 0.45541 0.29515 0.0
H721 H 0.58921 0.54451 0.21883 0.0
H722 H 0.59409 0.52585 0.25279 0.0
H723 H 0.59117 0.44967 0.24056 0.0
H724 H 0.60463 0.38942 0.33166 0.0
H725 H 0.58842 0.40508 0.30212 0.0
C726 C 0.43746 0.94986 0.42034 0.0
C727 C 0.46248 0.96624 0.42951 0.0
C728 C 0.43513 0.93857 0.40002 0.0
C729 C 0.47091 0.91645 0.36533 0.0
H730 H 0.41299 0.89992 0.32598 0.0
C731 C 0.43169 0.82927 0.3052 0.0
C732 C 0.42319 0.83247 0.28481 0.0
C733 C 0.43896 0.8488 0.32107 0.0
C734 C 0.42951 0.90462 0.3366 0.0
H735 H 0.50473 0.985 0.42422 0.0
H736 H 0.50073 0.96543 0.38835 0.0
H737 H 0.4221 0.93094 0.35551 0.0
H738 H 0.41605 0.85878 0.26486 0.0
H739 H 0.42904 0.89295 0.29239 0.0
H740 H 0.47829 0.89008 0.34643 0.0
C741 C 0.4829 0.96109 0.39704 0.0
C742 C 0.43458 0.92224 0.35365 0.0
C743 C 0.48522 0.97252 0.41742 0.0
C744 C 0.42232 0.85565 0.28051 0.0
C745 C 0.42969 0.87521 0.29631 0.0
C746 C 0.46588 0.89887 0.34824 0.0
C747 C 0.4578 0.94338 0.38841 0.0
C748 C 0.45495 0.9279 0.3685 0.0
C749 C 0.43798 0.87199 0.31682 0.0
C750 C 0.44477 0.89231 0.33394 0.0
H751 H 0.41963 0.94481 0.42935 0.0
H752 H 0.4155 0.92485 0.394 0.0
H753 H 0.48659 0.92017 0.37659 0.0
H754 H 0.43255 0.8116 0.30896 0.0
H755 H 0.44486 0.84549 0.33681 0.0
C756 C 0.56525 0.48636 0.59491 0.0
C757 C 0.53838 0.47779 0.59837 0.0
C758 C 0.57416 0.48418 0.57453 0.0
C759 C 0.5494 0.44179 0.52701 0.0
H760 H 0.61951 0.48966 0.50453 0.0
C761 C 0.59018 0.41749 0.45064 0.0
C762 C 0.61643 0.42284 0.45184 0.0
C763 C 0.57991 0.42668 0.46666 0.0
C764 C 0.59992 0.47604 0.51068 0.0
H765 H 0.50004 0.4619 0.58309 0.0
H766 H 0.51567 0.4582 0.54718 0.0
H767 H 0.60268 0.50338 0.53507 0.0
H768 H 0.65255 0.44196 0.47072 0.0
H769 H 0.63452 0.45773 0.49891 0.0
H770 H 0.5469 0.41417 0.50306 0.0
C771 C 0.52977 0.46635 0.56033 0.0
C772 C 0.59025 0.48394 0.52809 0.0
C773 C 0.52087 0.46869 0.58077 0.0
C774 C 0.63224 0.43754 0.46939 0.0
C775 C 0.62198 0.44676 0.48541 0.0
C776 C 0.55907 0.4339 0.5096 0.0
C777 C 0.55636 0.4733 0.55718 0.0
C778 C 0.5651 0.46669 0.53674 0.0
C779 C 0.5957 0.44146 0.48422 0.0
C780 C 0.58465 0.45072 0.50153 0.0
H781 H 0.57915 0.49359 0.60825 0.0
H782 H 0.5947 0.48953 0.57274 0.0
H783 H 0.53012 0.42785 0.5335 0.0
H784 H 0.57756 0.40632 0.43724 0.0
H785 H 0.55968 0.42247 0.46517 0.0
C786 C 0.07468 0.50891 0.74851 0.0
C787 C 0.08431 0.52454 0.76719 0.0
C788 C 0.08683 0.51894 0.72853 0.0
C789 C 0.13375 0.58058 0.69971 0.0
H790 H 0.15524 0.53568 0.67031 0.0
C791 C 0.21999 0.62231 0.63895 0.0
C792 C 0.21742 0.60715 0.62052 0.0
C793 C 0.20119 0.61181 0.65548 0.0
C794 C 0.14907 0.54835 0.67807 0.0
H795 H 0.11275 0.56321 0.77968 0.0
H796 H 0.1338 0.58084 0.7449 0.0
H797 H 0.12479 0.51819 0.70073 0.0
H798 H 0.19322 0.56914 0.60489 0.0
H799 H 0.1603 0.55093 0.63359 0.0
H800 H 0.15837 0.61089 0.67729 0.0
C801 C 0.11699 0.56091 0.74552 0.0
C802 C 0.13155 0.53828 0.69548 0.0
C803 C 0.10506 0.55082 0.76543 0.0
C804 C 0.19581 0.58125 0.61898 0.0
C805 C 0.17698 0.57078 0.63546 0.0
C806 C 0.15119 0.59063 0.68225 0.0
C807 C 0.10855 0.54485 0.72697 0.0
C808 C 0.1241 0.55445 0.70674 0.0
C809 C 0.17938 0.58596 0.65387 0.0
C810 C 0.15945 0.57478 0.67149 0.0
H811 H 0.05875 0.48854 0.74957 0.0
H812 H 0.07979 0.50622 0.71444 0.0
H813 H 0.12812 0.59341 0.70795 0.0
H814 H 0.23646 0.64233 0.64058 0.0
H815 H 0.2039 0.62387 0.66962 0.0
C816 C 0.55925 0.09379 0.92845 0.0
C817 C 0.56809 0.07581 0.93234 0.0
C818 C 0.56192 0.10488 0.90802 0.0
C819 C 0.60628 0.12364 0.86186 0.0
H820 H 0.55865 0.14495 0.83753 0.0
C821 C 0.63274 0.18942 0.78575 0.0
C822 C 0.62656 0.20978 0.78642 0.0
C823 C 0.62342 0.16995 0.80174 0.0
C824 C 0.57221 0.13926 0.8442 0.0
H825 H 0.58498 0.05389 0.91779 0.0
H826 H 0.58958 0.07323 0.88178 0.0
H827 H 0.544 0.11402 0.86778 0.0
H828 H 0.60596 0.22587 0.80441 0.0
H829 H 0.59001 0.19211 0.83257 0.0
H830 H 0.63476 0.14944 0.83874 0.0
C831 C 0.5808 0.07891 0.89462 0.0
C832 C 0.56378 0.12146 0.86145 0.0
C833 C 0.57794 0.06765 0.9151 0.0
C834 C 0.61104 0.21042 0.80348 0.0
C835 C 0.6017 0.19093 0.81948 0.0
C836 C 0.61471 0.14144 0.84462 0.0
C837 C 0.57362 0.0983 0.89108 0.0
C838 C 0.58091 0.11387 0.87076 0.0
C839 C 0.60769 0.17041 0.81874 0.0
C840 C 0.59797 0.14988 0.83589 0.0
H841 H 0.55152 0.1003 0.94153 0.0
H842 H 0.55638 0.11988 0.90592 0.0
H843 H 0.62013 0.11855 0.86888 0.0
H844 H 0.64456 0.18834 0.77272 0.0
H845 H 0.6282 0.1543 0.80061 0.0
C846 C 0.48885 0.5589 0.09482 0.0
C847 C 0.51565 0.56716 0.09821 0.0
C848 C 0.48004 0.56167 0.0746 0.0
C849 C 0.50476 0.60464 0.02748 0.0
H850 H 0.43476 0.55668 0.00477 0.0
C851 C 0.46322 0.62869 0.95133 0.0
C852 C 0.43685 0.62297 0.95265 0.0
C853 C 0.47383 0.61984 0.96732 0.0
C854 C 0.45431 0.57033 0.01098 0.0
H855 H 0.55402 0.58328 0.08296 0.0
H856 H 0.53858 0.58806 0.0473 0.0
H857 H 0.45169 0.54284 0.03507 0.0
H858 H 0.40095 0.6037 0.97177 0.0
H859 H 0.41954 0.58853 -0.00016 0.0
H860 H 0.50711 0.6324 0.00378 0.0
C861 C 0.52445 0.57967 0.06039 0.0
C862 C 0.46404 0.56236 0.02826 0.0
C863 C 0.53324 0.57672 0.08068 0.0
C864 C 0.42133 0.60839 0.97032 0.0
C865 C 0.43192 0.5995 0.98629 0.0
C866 C 0.49503 0.61261 0.01018 0.0
C867 C 0.49789 0.57285 0.05732 0.0
C868 C 0.48914 0.57965 0.03701 0.0
C869 C 0.45825 0.60503 0.98492 0.0
C870 C 0.46947 0.59575 0.00205 0.0
H871 H 0.47489 0.55134 0.1081 0.0
H872 H 0.45953 0.55643 0.07286 0.0
H873 H 0.52401 0.61858 0.03404 0.0
H874 H 0.47563 0.63979 0.93783 0.0
H875 H 0.49411 0.62425 0.96573 0.0
C876 C 0.98253 0.52866 0.24691 0.0
C877 C 0.97534 0.51073 0.26414 0.0
C878 C 0.97078 0.51994 0.22661 0.0
C879 C 0.92711 0.45971 0.19395 0.0
H880 H 0.89864 0.50281 0.17263 0.0
C881 C 0.83641 0.41832 0.13752 0.0
C882 C 0.83714 0.43449 0.12045 0.0
C883 C 0.85617 0.42835 0.15334 0.0
C884 C 0.90672 0.49072 0.17815 0.0
H885 H 0.95236 0.46943 0.27325 0.0
H886 H 0.93177 0.45421 0.23801 0.0
H887 H 0.93053 0.51918 0.20208 0.0
H888 H 0.85896 0.47385 0.10661 0.0
H889 H 0.89338 0.49134 0.13424 0.0
H890 H 0.90258 0.4309 0.17037 0.0
C891 C 0.9464 0.47495 0.23999 0.0
C892 C 0.92514 0.50016 0.19497 0.0
C893 C 0.95808 0.48366 0.26024 0.0
C894 C 0.8578 0.46094 0.11964 0.0
C895 C 0.8775 0.47098 0.13548 0.0
C896 C 0.90862 0.45024 0.17714 0.0
C897 C 0.95175 0.49314 0.2232 0.0
C898 C 0.9352 0.48458 0.20334 0.0
C899 C 0.877 0.45476 0.15243 0.0
C900 C 0.89789 0.46545 0.16931 0.0
H901 H 0.99574 0.54965 0.24953 0.0
H902 H 0.97566 0.53436 0.21387 0.0
H903 H 0.93472 0.44737 0.19985 0.0
H904 H 0.82074 0.39784 0.13853 0.0
H905 H 0.85501 0.41547 0.16639 0.0
loop_
_geom_bond_atom_site_label_1
_geom_bond_atom_site_label_2
_geom_bond_distance
_geom_bond_site_symmetry_2
_ccdc_geom_bond_type
H0 C6 0.930 . S
H1 C9 0.931 . S
H2 C11 0.931 . S
H3 C13 0.930 . S
H4 C15 0.930 . S
H5 C17 0.931 1_455 S
C6 H0 0.930 . S
C6 C7 1.380 . S
C6 C8 1.394 . S
C7 C6 1.380 . S
C7 C11 1.382 . S
C8 C6 1.394 . S
C8 C9 1.400 . S
C9 H1 0.931 . S
C9 C8 1.400 . S
C9 C10 1.375 . S
C10 C9 1.375 . S
C10 C11 1.415 . S
C10 C12 1.501 1_455 S
C11 H2 0.931 . S
C11 C7 1.382 . S
C11 C10 1.415 . S
C12 C10 1.501 1_655 S
C12 C13 1.384 . S
C12 C17 1.408 . S
C13 H3 0.930 . S
C13 C12 1.384 . S
C13 C14 1.389 . S
C14 C13 1.389 . S
C14 C15 1.405 . S
C15 H4 0.930 . S
C15 C14 1.405 . S
C15 C16 1.364 . S
C16 C15 1.364 . S
C16 C17 1.400 . S
C17 H5 0.931 1_655 S
C17 C12 1.408 . S
C17 C16 1.400 . S
H18 C24 0.930 . S
H19 C27 0.931 . S
H20 C29 0.931 . S
H21 C31 0.930 . S
H22 C33 0.930 . S
H23 C35 0.931 1_545 S
C24 H18 0.930 . S
C24 C25 1.380 . S
C24 C26 1.394 . S
C25 C24 1.380 . S
C25 C29 1.382 . S
C26 C24 1.394 . S
C26 C27 1.400 . S
C27 H19 0.931 . S
C27 C26 1.400 . S
C27 C28 1.375 . S
C28 C27 1.375 . S
C28 C29 1.415 . S
C28 C30 1.501 1_545 S
C29 H20 0.931 . S
C29 C25 1.382 . S
C29 C28 1.415 . S
C30 C28 1.501 1_565 S
C30 C31 1.384 . S
C30 C35 1.408 . S
C31 H21 0.930 . S
C31 C30 1.384 . S
C31 C32 1.389 . S
C32 C31 1.389 . S
C32 C33 1.405 . S
C33 H22 0.930 . S
C33 C32 1.405 . S
C33 C34 1.364 . S
C34 C33 1.364 . S
C34 C35 1.400 . S
C35 H23 0.931 1_565 S
C35 C30 1.408 . S
C35 C34 1.400 . S
H36 C42 0.930 . S
H37 C45 0.931 . S
H38 C47 0.931 . S
H39 C49 0.930 . S
H40 C51 0.930 . S
H41 C53 0.931 . S
C42 H36 0.930 . S
C42 C43 1.380 . S
C42 C44 1.394 . S
C43 C42 1.380 . S
C43 C47 1.382 . S
C44 C42 1.394 . S
C44 C45 1.400 . S
C45 H37 0.931 . S
C45 C44 1.400 . S
C45 C46 1.375 . S
C46 C45 1.375 . S
C46 C47 1.415 . S
C46 C48 1.501 . S
C47 H38 0.931 . S
C47 C43 1.382 . S
C47 C46 1.415 . S
C48 C46 1.501 . S
C48 C49 1.384 . S
C48 C53 1.408 . S
C49 H39 0.930 . S
C49 C48 1.384 . S
C49 C50 1.389 . S
C50 C49 1.389 . S
C50 C51 1.405 . S
C51 H40 0.930 . S
C51 C50 1.405 . S
C51 C52 1.364 . S
C52 C51 1.364 . S
C52 C53 1.400 . S
C53 H41 0.931 . S
C53 C48 1.408 . S
C53 C52 1.400 . S
H54 C60 0.930 . S
H55 C63 0.931 . S
H56 C65 0.931 . S
H57 C67 0.930 . S
H58 C69 0.930 . S
H59 C71 0.931 1_455 S
C60 H54 0.930 . S
C60 C61 1.380 . S
C60 C62 1.394 . S
C61 C60 1.380 . S
C61 C65 1.382 . S
C62 C60 1.394 . S
C62 C63 1.400 . S
C63 H55 0.931 . S
C63 C62 1.400 . S
C63 C64 1.375 . S
C64 C63 1.375 . S
C64 C65 1.415 . S
C64 C66 1.501 1_455 S
C65 H56 0.931 . S
C65 C61 1.382 . S
C65 C64 1.415 . S
C66 C64 1.501 1_655 S
C66 C67 1.384 . S
C66 C71 1.408 . S
C67 H57 0.930 . S
C67 C66 1.384 . S
C67 C68 1.389 . S
C68 C67 1.389 . S
C68 C69 1.405 . S
C69 H58 0.930 . S
C69 C68 1.405 . S
C69 C70 1.364 . S
C70 C69 1.364 . S
C70 C71 1.400 . S
C71 H59 0.931 1_655 S
C71 C66 1.408 . S
C71 C70 1.400 . S
H72 C78 0.930 . S
H73 C81 0.931 . S
H74 C83 0.931 1_545 S
H75 C85 0.930 . S
H76 C87 0.930 . S
H77 C89 0.931 . S
C78 H72 0.930 . S
C78 C79 1.380 . S
C78 C80 1.394 1_554 S
C79 C78 1.380 . S
C79 C83 1.382 . S
C80 C78 1.394 1_556 S
C80 C81 1.400 . S
C81 H73 0.931 . S
C81 C80 1.400 . S
C81 C82 1.375 . S
C82 C81 1.375 . S
C82 C83 1.415 1_556 S
C82 C84 1.501 1_565 S
C83 H74 0.931 1_565 S
C83 C79 1.382 . S
C83 C82 1.415 1_554 S
C84 C82 1.501 1_545 S
C84 C85 1.384 1_556 S
C84 C89 1.408 . S
C85 H75 0.930 . S
C85 C84 1.384 1_554 S
C85 C86 1.389 1_554 S
C86 C85 1.389 1_556 S
C86 C87 1.405 . S
C87 H76 0.930 . S
C87 C86 1.405 . S
C87 C88 1.364 . S
C88 C87 1.364 . S
C88 C89 1.400 . S
C89 H77 0.931 . S
C89 C84 1.408 . S
C89 C88 1.400 . S
H90 C96 0.930 . S
H91 C99 0.931 . S
H92 C101 0.931 . S
H93 C103 0.930 . S
H94 C105 0.930 . S
H95 C107 0.931 . S
C96 H90 0.930 . S
C96 C97 1.380 . S
C96 C98 1.394 . S
C97 C96 1.380 . S
C97 C101 1.382 . S
C98 C96 1.394 . S
C98 C99 1.400 . S
C99 H91 0.931 . S
C99 C98 1.400 . S
C99 C100 1.375 . S
C100 C99 1.375 . S
C100 C101 1.415 . S
C100 C102 1.501 . S
C101 H92 0.931 . S
C101 C97 1.382 . S
C101 C100 1.415 . S
C102 C100 1.501 . S
C102 C103 1.384 . S
C102 C107 1.408 . S
C103 H93 0.930 . S
C103 C102 1.384 . S
C103 C104 1.389 . S
C104 C103 1.389 . S
C104 C105 1.405 . S
C105 H94 0.930 . S
C105 C104 1.405 . S
C105 C106 1.364 . S
C106 C105 1.364 . S
C106 C107 1.400 . S
C107 H95 0.931 . S
C107 C102 1.408 . S
C107 C106 1.400 . S
In108 O109 2.294 . S
In108 O110 2.326 . S
In108 O114 2.266 . S
In108 O115 2.326 . S
In108 O116 2.266 . S
In108 O117 2.326 . S
In108 O119 2.294 . S
In108 O120 2.326 . S
O109 In108 2.294 . S
O109 C118 1.240 . S
O110 In108 2.326 . S
O110 C118 1.252 . S
C111 O114 1.252 . S
C111 O115 1.260 . S
C112 O119 1.240 . S
C112 O120 1.252 . S
C113 O116 1.252 . S
C113 O117 1.260 . S
O114 In108 2.266 . S
O114 C111 1.252 . S
O115 In108 2.326 . S
O115 C111 1.260 . S
O116 In108 2.266 . S
O116 C113 1.252 . S
O117 In108 2.326 . S
O117 C113 1.260 . S
C118 O109 1.240 . S
C118 O110 1.252 . S
O119 In108 2.294 . S
O119 C112 1.240 . S
O120 In108 2.326 . S
O120 C112 1.252 . S
In121 O122 2.294 . S
In121 O123 2.326 . S
In121 O127 2.266 . S
In121 O128 2.326 . S
In121 O129 2.266 . S
In121 O130 2.326 . S
In121 O132 2.294 . S
In121 O133 2.326 . S
O122 In121 2.294 . S
O122 C131 1.240 . S
O123 In121 2.326 . S
O123 C131 1.252 . S
C124 O127 1.252 . S
C124 O128 1.260 . S
C125 O132 1.240 . S
C125 O133 1.252 . S
C126 O129 1.252 . S
C126 O130 1.260 . S
O127 In121 2.266 . S
O127 C124 1.252 . S
O128 In121 2.326 . S
O128 C124 1.260 . S
O129 In121 2.266 . S
O129 C126 1.252 . S
O130 In121 2.326 . S
O130 C126 1.260 . S
C131 O122 1.240 . S
C131 O123 1.252 . S
O132 In121 2.294 . S
O132 C125 1.240 . S
O133 In121 2.326 . S
O133 C125 1.252 . S
In134 O135 2.294 . S
In134 O136 2.326 . S
In134 O140 2.266 . S
In134 O141 2.326 . S
In134 O142 2.266 . S
In134 O143 2.326 . S
In134 O145 2.294 . S
In134 O146 2.326 . S
O135 In134 2.294 . S
O135 C144 1.240 . S
O136 In134 2.326 . S
O136 C144 1.252 . S
C137 O140 1.252 . S
C137 O141 1.260 . S
C138 O145 1.240 . S
C138 O146 1.252 . S
C139 O142 1.252 . S
C139 O143 1.260 . S
O140 In134 2.266 . S
O140 C137 1.252 . S
O141 In134 2.326 . S
O141 C137 1.260 . S
O142 In134 2.266 . S
O142 C139 1.252 . S
O143 In134 2.326 . S
O143 C139 1.260 . S
C144 O135 1.240 . S
C144 O136 1.252 . S
O145 In134 2.294 . S
O145 C138 1.240 . S
O146 In134 2.326 . S
O146 C138 1.252 . S
In147 O148 2.294 . S
In147 O149 2.326 . S
In147 O153 2.266 . S
In147 O154 2.326 . S
In147 O155 2.266 . S
In147 O156 2.326 . S
In147 O158 2.294 . S
In147 O159 2.326 . S
O148 In147 2.294 . S
O148 C157 1.240 . S
O149 In147 2.326 . S
O149 C157 1.252 . S
C150 O153 1.252 . S
C150 O154 1.260 . S
C151 O158 1.240 . S
C151 O159 1.252 . S
C152 O155 1.252 . S
C152 O156 1.260 . S
O153 In147 2.266 . S
O153 C150 1.252 . S
O154 In147 2.326 . S
O154 C150 1.260 . S
O155 In147 2.266 . S
O155 C152 1.252 . S
O156 In147 2.326 . S
O156 C152 1.260 . S
C157 O148 1.240 . S
C157 O149 1.252 . S
O158 In147 2.294 . S
O158 C151 1.240 . S
O159 In147 2.326 . S
O159 C151 1.252 . S
In160 O161 2.294 . S
In160 O162 2.326 . S
In160 O166 2.266 . S
In160 O167 2.326 . S
In160 O168 2.266 . S
In160 O169 2.326 . S
In160 O171 2.294 . S
In160 O172 2.326 . S
O161 In160 2.294 . S
O161 C170 1.240 . S
O162 In160 2.326 . S
O162 C170 1.252 . S
C163 O166 1.252 . S
C163 O167 1.260 . S
C164 O171 1.240 . S
C164 O172 1.252 . S
C165 O168 1.252 . S
C165 O169 1.260 . S
O166 In160 2.266 . S
O166 C163 1.252 . S
O167 In160 2.326 . S
O167 C163 1.260 . S
O168 In160 2.266 . S
O168 C165 1.252 . S
O169 In160 2.326 . S
O169 C165 1.260 . S
C170 O161 1.240 . S
C170 O162 1.252 . S
O171 In160 2.294 . S
O171 C164 1.240 . S
O172 In160 2.326 . S
O172 C164 1.252 . S
In173 O174 2.294 . S
In173 O175 2.326 . S
In173 O179 2.266 . S
In173 O180 2.326 . S
In173 O181 2.266 . S
In173 O182 2.326 . S
In173 O184 2.294 . S
In173 O185 2.326 . S
O174 In173 2.294 . S
O174 C183 1.240 . S
O175 In173 2.326 . S
O175 C183 1.252 . S
C176 O179 1.252 . S
C176 O180 1.260 . S
C177 O184 1.240 . S
C177 O185 1.252 . S
C178 O181 1.252 . S
C178 O182 1.260 . S
O179 In173 2.266 . S
O179 C176 1.252 . S
O180 In173 2.326 . S
O180 C176 1.260 . S
O181 In173 2.266 . S
O181 C178 1.252 . S
O182 In173 2.326 . S
O182 C178 1.260 . S
C183 O174 1.240 . S
C183 O175 1.252 . S
O184 In173 2.294 . S
O184 C177 1.240 . S
O185 In173 2.326 . S
O185 C177 1.252 . S
C186 C187 1.349 . S
C186 C188 1.327 . S
C186 H211 0.950 . S
C187 C186 1.349 . S
C187 C203 1.349 . S
C188 C186 1.327 . S
C188 C207 1.429 . S
C188 H212 0.950 . S
C189 C206 1.574 . S
C189 C208 1.368 . S
C189 H213 0.949 . S
H190 C194 0.949 . S
C191 C192 1.349 . S
C191 C193 1.327 . S
C191 H214 0.950 . S
C192 C191 1.349 . S
C192 C204 1.349 . S
C193 C191 1.327 . S
C193 C209 1.429 . S
C193 H215 0.950 . S
C194 H190 0.949 . S
C194 C202 1.574 . S
C194 C210 1.368 . S
H195 C203 0.950 . S
H196 C201 0.950 . S
H197 C202 0.949 . S
H198 C204 0.950 . S
H199 C205 0.950 . S
H200 C206 0.949 . S
C201 H196 0.950 . S
C201 C203 1.327 . S
C201 C207 1.429 . S
C202 C194 1.574 . S
C202 H197 0.949 . S
C202 C208 1.368 . S
C203 C187 1.349 . S
C203 H195 0.950 . S
C203 C201 1.327 . S
C204 C192 1.349 . S
C204 H198 0.950 . S
C204 C205 1.327 . S
C205 H199 0.950 . S
C205 C204 1.327 . S
C205 C209 1.429 . S
C206 C189 1.574 . S
C206 H200 0.949 . S
C206 C210 1.368 . S
C207 C188 1.429 . S
C207 C201 1.429 . S
C207 C208 1.523 . S
C208 C189 1.368 . S
C208 C202 1.368 . S
C208 C207 1.523 . S
C209 C193 1.429 . S
C209 C205 1.429 . S
C209 C210 1.523 . S
C210 C194 1.368 . S
C210 C206 1.368 . S
C210 C209 1.523 . S
H211 C186 0.950 . S
H212 C188 0.950 . S
H213 C189 0.949 . S
H214 C191 0.950 . S
H215 C193 0.950 . S
C216 C217 1.349 . S
C216 C218 1.327 . S
C216 H241 0.950 . S
C217 C216 1.349 . S
C217 C233 1.349 . S
C218 C216 1.327 . S
C218 C237 1.429 . S
C218 H242 0.950 . S
C219 C236 1.574 . S
C219 C238 1.368 . S
C219 H243 0.949 . S
H220 C224 0.949 . S
C221 C222 1.349 . S
C221 C223 1.327 . S
C221 H244 0.950 . S
C222 C221 1.349 . S
C222 C234 1.349 . S
C223 C221 1.327 . S
C223 C239 1.429 . S
C223 H245 0.950 . S
C224 H220 0.949 . S
C224 C232 1.574 . S
C224 C240 1.368 . S
H225 C233 0.950 . S
H226 C231 0.950 . S
H227 C232 0.949 . S
H228 C234 0.950 . S
H229 C235 0.950 . S
H230 C236 0.949 . S
C231 H226 0.950 . S
C231 C233 1.327 . S
C231 C237 1.429 . S
C232 C224 1.574 . S
C232 H227 0.949 . S
C232 C238 1.368 . S
C233 C217 1.349 . S
C233 H225 0.950 . S
C233 C231 1.327 . S
C234 C222 1.349 . S
C234 H228 0.950 . S
C234 C235 1.327 . S
C235 H229 0.950 . S
C235 C234 1.327 . S
C235 C239 1.429 . S
C236 C219 1.574 . S
C236 H230 0.949 . S
C236 C240 1.368 . S
C237 C218 1.429 . S
C237 C231 1.429 . S
C237 C238 1.523 . S
C238 C219 1.368 . S
C238 C232 1.368 . S
C238 C237 1.523 . S
C239 C223 1.429 . S
C239 C235 1.429 . S
C239 C240 1.523 . S
C240 C224 1.368 . S
C240 C236 1.368 . S
C240 C239 1.523 . S
H241 C216 0.950 . S
H242 C218 0.950 . S
H243 C219 0.949 . S
H244 C221 0.950 . S
H245 C223 0.950 . S
C246 C247 1.349 . S
C246 C248 1.327 . S
C246 H271 0.950 . S
C247 C246 1.349 . S
C247 C263 1.349 . S
C248 C246 1.327 . S
C248 C267 1.429 . S
C248 H272 0.950 . S
C249 C266 1.574 . S
C249 C268 1.368 . S
C249 H273 0.949 . S
H250 C254 0.949 . S
C251 C252 1.349 . S
C251 C253 1.327 . S
C251 H274 0.950 . S
C252 C251 1.349 . S
C252 C264 1.349 . S
C253 C251 1.327 . S
C253 C269 1.429 . S
C253 H275 0.950 . S
C254 H250 0.949 . S
C254 C262 1.574 . S
C254 C270 1.368 . S
H255 C263 0.950 . S
H256 C261 0.950 . S
H257 C262 0.949 . S
H258 C264 0.950 . S
H259 C265 0.950 . S
H260 C266 0.949 . S
C261 H256 0.950 . S
C261 C263 1.327 . S
C261 C267 1.429 . S
C262 C254 1.574 . S
C262 H257 0.949 . S
C262 C268 1.368 . S
C263 C247 1.349 . S
C263 H255 0.950 . S
C263 C261 1.327 . S
C264 C252 1.349 . S
C264 H258 0.950 . S
C264 C265 1.327 . S
C265 H259 0.950 . S
C265 C264 1.327 . S
C265 C269 1.429 . S
C266 C249 1.574 . S
C266 H260 0.949 . S
C266 C270 1.368 . S
C267 C248 1.429 . S
C267 C261 1.429 . S
C267 C268 1.523 . S
C268 C249 1.368 . S
C268 C262 1.368 . S
C268 C267 1.523 . S
C269 C253 1.429 . S
C269 C265 1.429 . S
C269 C270 1.523 . S
C270 C254 1.368 . S
C270 C266 1.368 . S
C270 C269 1.523 . S
H271 C246 0.950 . S
H272 C248 0.950 . S
H273 C249 0.949 . S
H274 C251 0.950 . S
H275 C253 0.950 . S
C276 C277 1.349 . S
C276 C278 1.327 . S
C276 H301 0.950 . S
C277 C276 1.349 . S
C277 C293 1.349 . S
C278 C276 1.327 . S
C278 C297 1.429 . S
C278 H302 0.950 . S
C279 C296 1.574 . S
C279 C298 1.368 . S
C279 H303 0.949 . S
H280 C284 0.949 . S
C281 C282 1.349 . S
C281 C283 1.327 . S
C281 H304 0.950 . S
C282 C281 1.349 . S
C282 C294 1.349 . S
C283 C281 1.327 . S
C283 C299 1.429 . S
C283 H305 0.950 . S
C284 H280 0.949 . S
C284 C292 1.574 . S
C284 C300 1.368 . S
H285 C293 0.950 . S
H286 C291 0.950 . S
H287 C292 0.949 . S
H288 C294 0.950 . S
H289 C295 0.950 . S
H290 C296 0.949 . S
C291 H286 0.950 . S
C291 C293 1.327 . S
C291 C297 1.429 . S
C292 C284 1.574 . S
C292 H287 0.949 . S
C292 C298 1.368 . S
C293 C277 1.349 . S
C293 H285 0.950 . S
C293 C291 1.327 . S
C294 C282 1.349 . S
C294 H288 0.950 . S
C294 C295 1.327 . S
C295 H289 0.950 . S
C295 C294 1.327 . S
C295 C299 1.429 . S
C296 C279 1.574 . S
C296 H290 0.949 . S
C296 C300 1.368 . S
C297 C278 1.429 . S
C297 C291 1.429 . S
C297 C298 1.523 . S
C298 C279 1.368 . S
C298 C292 1.368 . S
C298 C297 1.523 . S
C299 C283 1.429 . S
C299 C295 1.429 . S
C299 C300 1.523 . S
C300 C284 1.368 . S
C300 C296 1.368 . S
C300 C299 1.523 . S
H301 C276 0.950 . S
H302 C278 0.950 . S
H303 C279 0.949 . S
H304 C281 0.950 . S
H305 C283 0.950 . S
C306 C307 1.349 . S
C306 C308 1.327 . S
C306 H331 0.959 . S
C307 C306 1.349 . S
C307 C323 1.349 . S
C308 C306 1.327 . S
C308 C327 1.429 . S
C308 H332 0.950 . S
C309 C326 1.574 . S
C309 C328 1.368 . S
C309 H333 0.949 . S
H310 C314 0.949 . S
C311 C312 1.349 . S
C311 C313 1.327 . S
C311 H334 0.950 . S
C312 C311 1.349 . S
C312 C324 1.349 . S
C313 C311 1.327 . S
C313 C329 1.429 . S
C313 H335 0.950 . S
C314 H310 0.949 . S
C314 C322 1.574 . S
C314 C330 1.368 . S
H315 C323 0.950 . S
H316 C321 0.950 . S
H317 C322 0.949 . S
H318 C324 0.950 . S
H319 C325 0.950 . S
H320 C326 0.949 . S
C321 H316 0.950 . S
C321 C323 1.327 . S
C321 C327 1.429 . S
C322 C314 1.574 . S
C322 H317 0.949 . S
C322 C328 1.368 . S
C323 C307 1.349 . S
C323 H315 0.950 . S
C323 C321 1.327 . S
C324 C312 1.349 . S
C324 H318 0.950 . S
C324 C325 1.327 . S
C325 H319 0.950 . S
C325 C324 1.327 . S
C325 C329 1.429 . S
C326 C309 1.574 . S
C326 H320 0.949 . S
C326 C330 1.368 . S
C327 C308 1.429 . S
C327 C321 1.429 . S
C327 C328 1.523 . S
C328 C309 1.368 . S
C328 C322 1.368 . S
C328 C327 1.523 . S
C329 C313 1.429 . S
C329 C325 1.429 . S
C329 C330 1.523 . S
C330 C314 1.368 . S
C330 C326 1.368 . S
C330 C329 1.523 . S
H331 C306 0.959 . S
H332 C308 0.950 . S
H333 C309 0.949 . S
H334 C311 0.950 . S
H335 C313 0.950 . S
C336 C337 1.349 . S
C336 C338 1.327 . S
C336 H361 0.950 . S
C337 C336 1.349 . S
C337 C353 1.349 . S
C338 C336 1.327 . S
C338 C357 1.429 . S
C338 H362 0.950 . S
C339 C356 1.574 . S
C339 C358 1.368 . S
C339 H363 0.949 . S
H340 C344 0.949 . S
C341 C342 1.349 . S
C341 C343 1.327 . S
C341 H364 0.950 . S
C342 C341 1.349 . S
C342 C354 1.349 . S
C343 C341 1.327 . S
C343 C359 1.429 . S
C343 H365 0.950 . S
C344 H340 0.949 . S
C344 C352 1.574 . S
C344 C360 1.368 . S
H345 C353 0.950 . S
H346 C351 0.950 . S
H347 C352 0.949 . S
H348 C354 0.950 . S
H349 C355 0.950 . S
H350 C356 0.949 . S
C351 H346 0.950 . S
C351 C353 1.327 . S
C351 C357 1.429 . S
C352 C344 1.574 . S
C352 H347 0.949 . S
C352 C358 1.368 . S
C353 C337 1.349 . S
C353 H345 0.950 . S
C353 C351 1.327 . S
C354 C342 1.349 . S
C354 H348 0.950 . S
C354 C355 1.327 . S
C355 H349 0.950 . S
C355 C354 1.327 . S
C355 C359 1.429 . S
C356 C339 1.574 . S
C356 H350 0.949 . S
C356 C360 1.368 . S
C357 C338 1.429 . S
C357 C351 1.429 . S
C357 C358 1.523 . S
C358 C339 1.368 . S
C358 C352 1.368 . S
C358 C357 1.523 . S
C359 C343 1.429 . S
C359 C355 1.429 . S
C359 C360 1.523 . S
C360 C344 1.368 . S
C360 C356 1.368 . S
C360 C359 1.523 . S
H361 C336 0.950 . S
H362 C338 0.950 . S
H363 C339 0.949 . S
H364 C341 0.950 . S
H365 C343 0.950 . S
C366 C367 1.349 . S
C366 C368 1.327 . S
C366 H391 0.950 . S
C367 C366 1.349 . S
C367 C383 1.349 . S
C368 C366 1.327 . S
C368 C387 1.429 . S
C368 H392 0.950 . S
C369 C386 1.574 . S
C369 C388 1.368 . S
C369 H393 0.949 . S
H370 C374 0.949 . S
C371 C372 1.349 . S
C371 C373 1.327 . S
C371 H394 0.950 . S
C372 C371 1.349 . S
C372 C384 1.349 . S
C373 C371 1.327 . S
C373 C389 1.429 . S
C373 H395 0.950 . S
C374 H370 0.949 . S
C374 C382 1.574 . S
C374 C390 1.368 . S
H375 C383 0.950 . S
H376 C381 0.950 . S
H377 C382 0.949 . S
H378 C384 0.950 . S
H379 C385 0.950 . S
H380 C386 0.949 . S
C381 H376 0.950 . S
C381 C383 1.327 . S
C381 C387 1.429 . S
C382 C374 1.574 . S
C382 H377 0.949 . S
C382 C388 1.368 . S
C383 C367 1.349 . S
C383 H375 0.950 . S
C383 C381 1.327 . S
C384 C372 1.349 . S
C384 H378 0.950 . S
C384 C385 1.327 . S
C385 H379 0.950 . S
C385 C384 1.327 . S
C385 C389 1.429 . S
C386 C369 1.574 . S
C386 H380 0.949 . S
C386 C390 1.368 . S
C387 C368 1.429 . S
C387 C381 1.429 . S
C387 C388 1.523 . S
C388 C369 1.368 . S
C388 C382 1.368 . S
C388 C387 1.523 . S
C389 C373 1.429 . S
C389 C385 1.429 . S
C389 C390 1.523 . S
C390 C374 1.368 . S
C390 C386 1.368 . S
C390 C389 1.523 . S
H391 C366 0.950 . S
H392 C368 0.950 . S
H393 C369 0.949 . S
H394 C371 0.950 . S
H395 C373 0.950 . S
C396 C397 1.349 . S
C396 C398 1.327 . S
C396 H421 0.950 . S
C397 C396 1.349 . S
C397 C413 1.349 . S
C398 C396 1.327 . S
C398 C417 1.429 . S
C398 H422 0.950 . S
C399 C416 1.574 . S
C399 C418 1.368 . S
C399 H423 0.949 . S
H400 C404 0.949 . S
C401 C402 1.349 . S
C401 C403 1.327 . S
C401 H424 0.950 . S
C402 C401 1.349 . S
C402 C414 1.349 . S
C403 C401 1.327 . S
C403 C419 1.429 . S
C403 H425 0.950 . S
C404 H400 0.949 . S
C404 C412 1.574 . S
C404 C420 1.368 . S
H405 C413 0.950 . S
H406 C411 0.950 . S
H407 C412 0.949 . S
H408 C414 0.950 . S
H409 C415 0.950 . S
H410 C416 0.949 . S
C411 H406 0.950 . S
C411 C413 1.327 . S
C411 C417 1.429 . S
C412 C404 1.574 . S
C412 H407 0.949 . S
C412 C418 1.368 . S
C413 C397 1.349 . S
C413 H405 0.950 . S
C413 C411 1.327 . S
C414 C402 1.349 . S
C414 H408 0.950 . S
C414 C415 1.327 . S
C415 H409 0.950 . S
C415 C414 1.327 . S
C415 C419 1.429 . S
C416 C399 1.574 . S
C416 H410 0.949 . S
C416 C420 1.368 . S
C417 C398 1.429 . S
C417 C411 1.429 . S
C417 C418 1.523 . S
C418 C399 1.368 . S
C418 C412 1.368 . S
C418 C417 1.523 . S
C419 C403 1.429 . S
C419 C415 1.429 . S
C419 C420 1.523 . S
C420 C404 1.368 . S
C420 C416 1.368 . S
C420 C419 1.523 . S
H421 C396 0.950 . S
H422 C398 0.950 . S
H423 C399 0.949 . S
H424 C401 0.950 . S
H425 C403 0.950 . S
C426 C427 1.349 . S
C426 C428 1.327 . S
C426 H451 0.950 . S
C427 C426 1.349 . S
C427 C443 1.349 . S
C428 C426 1.327 . S
C428 C447 1.429 . S
C428 H452 0.950 . S
C429 C446 1.574 . S
C429 C448 1.368 . S
C429 H453 0.949 . S
H430 C434 0.949 . S
C431 C432 1.349 . S
C431 C433 1.327 . S
C431 H454 0.950 . S
C432 C431 1.349 . S
C432 C444 1.349 . S
C433 C431 1.327 . S
C433 C449 1.429 . S
C433 H455 0.950 . S
C434 H430 0.949 . S
C434 C442 1.574 . S
C434 C450 1.368 . S
H435 C443 0.950 . S
H436 C441 0.950 . S
H437 C442 0.949 . S
H438 C444 0.950 . S
H439 C445 0.950 . S
H440 C446 0.949 . S
C441 H436 0.950 . S
C441 C443 1.327 . S
C441 C447 1.429 . S
C442 C434 1.574 . S
C442 H437 0.949 . S
C442 C448 1.368 . S
C443 C427 1.349 . S
C443 H435 0.950 . S
C443 C441 1.327 . S
C444 C432 1.349 . S
C444 H438 0.950 . S
C444 C445 1.327 . S
C445 H439 0.950 . S
C445 C444 1.327 . S
C445 C449 1.429 . S
C446 C429 1.574 . S
C446 H440 0.949 . S
C446 C450 1.368 . S
C447 C428 1.429 . S
C447 C441 1.429 . S
C447 C448 1.523 . S
C448 C429 1.368 . S
C448 C442 1.368 . S
C448 C447 1.523 . S
C449 C433 1.429 . S
C449 C445 1.429 . S
C449 C450 1.523 . S
C450 C434 1.368 . S
C450 C446 1.368 . S
C450 C449 1.523 . S
H451 C426 0.950 . S
H452 C428 0.950 . S
H453 C429 0.949 . S
H454 C431 0.950 . S
H455 C433 0.950 . S
C456 C457 1.349 . S
C456 C458 1.327 . S
C456 H481 0.950 . S
C457 C456 1.349 . S
C457 C473 1.349 1_554 S
C458 C456 1.327 . S
C458 C477 1.429 . S
C458 H482 0.950 . S
C459 C476 1.574 . S
C459 C478 1.368 . S
C459 H483 0.949 1_554 S
H460 C464 0.949 . S
C461 C462 1.349 . S
C461 C463 1.327 . S
C461 H484 0.950 . S
C462 C461 1.349 . S
C462 C474 1.349 . S
C463 C461 1.327 . S
C463 C479 1.429 . S
C463 H485 0.950 . S
C464 H460 0.949 . S
C464 C472 1.574 . S
C464 C480 1.368 . S
H465 C473 0.950 . S
H466 C471 0.950 . S
H467 C472 0.949 . S
H468 C474 0.950 . S
H469 C475 0.950 . S
H470 C476 0.949 . S
C471 H466 0.950 . S
C471 C473 1.327 . S
C471 C477 1.429 1_556 S
C472 C464 1.574 . S
C472 H467 0.949 . S
C472 C478 1.368 . S
C473 C457 1.349 1_556 S
C473 H465 0.950 . S
C473 C471 1.327 . S
C474 C462 1.349 . S
C474 H468 0.950 . S
C474 C475 1.327 . S
C475 H469 0.950 . S
C475 C474 1.327 . S
C475 C479 1.429 . S
C476 C459 1.574 . S
C476 H470 0.949 . S
C476 C480 1.368 . S
C477 C458 1.429 . S
C477 C471 1.429 1_554 S
C477 C478 1.523 . S
C478 C459 1.368 . S
C478 C472 1.368 . S
C478 C477 1.523 . S
C479 C463 1.429 . S
C479 C475 1.429 . S
C479 C480 1.523 . S
C480 C464 1.368 . S
C480 C476 1.368 . S
C480 C479 1.523 . S
H481 C456 0.950 . S
H482 C458 0.950 . S
H483 C459 0.949 1_556 S
H484 C461 0.950 . S
H485 C463 0.950 . S
C486 C487 1.349 . S
C486 C488 1.327 . S
C486 H511 0.950 . S
C487 C486 1.349 . S
C487 C503 1.349 . S
C488 C486 1.327 . S
C488 C507 1.429 . S
C488 H512 0.950 . S
C489 C506 1.574 . S
C489 C508 1.368 . S
C489 H513 0.949 . S
H490 C494 0.949 . S
C491 C492 1.349 . S
C491 C493 1.327 . S
C491 H514 0.950 . S
C492 C491 1.349 . S
C492 C504 1.349 . S
C493 C491 1.327 . S
C493 C509 1.429 . S
C493 H515 0.950 . S
C494 H490 0.949 . S
C494 C502 1.574 . S
C494 C510 1.368 . S
H495 C503 0.950 . S
H496 C501 0.950 . S
H497 C502 0.949 . S
H498 C504 0.950 . S
H499 C505 0.950 . S
H500 C506 0.949 . S
C501 H496 0.950 . S
C501 C503 1.327 . S
C501 C507 1.429 . S
C502 C494 1.574 . S
C502 H497 0.949 . S
C502 C508 1.368 . S
C503 C487 1.349 . S
C503 H495 0.950 . S
C503 C501 1.327 . S
C504 C492 1.349 . S
C504 H498 0.950 . S
C504 C505 1.327 . S
C505 H499 0.950 . S
C505 C504 1.327 . S
C505 C509 1.429 . S
C506 C489 1.574 . S
C506 H500 0.949 . S
C506 C510 1.368 . S
C507 C488 1.429 . S
C507 C501 1.429 . S
C507 C508 1.523 . S
C508 C489 1.368 . S
C508 C502 1.368 . S
C508 C507 1.523 . S
C509 C493 1.429 . S
C509 C505 1.429 . S
C509 C510 1.523 . S
C510 C494 1.368 . S
C510 C506 1.368 . S
C510 C509 1.523 . S
H511 C486 0.950 . S
H512 C488 0.950 . S
H513 C489 0.949 . S
H514 C491 0.950 . S
H515 C493 0.950 . S
C516 C517 1.349 . S
C516 C518 1.327 . S
C516 H541 0.950 . S
C517 C516 1.349 . S
C517 C533 1.349 . S
C518 C516 1.327 . S
C518 C537 1.429 . S
C518 H542 0.950 . S
C519 C536 1.574 . S
C519 C538 1.368 . S
C519 H543 0.949 . S
H520 C524 0.949 . S
C521 C522 1.349 . S
C521 C523 1.327 . S
C521 H544 0.950 . S
C522 C521 1.349 . S
C522 C534 1.349 . S
C523 C521 1.327 . S
C523 C539 1.429 . S
C523 H545 0.950 . S
C524 H520 0.949 . S
C524 C532 1.574 . S
C524 C540 1.368 . S
H525 C533 0.950 . S
H526 C531 0.950 . S
H527 C532 0.949 . S
H528 C534 0.950 . S
H529 C535 0.950 . S
H530 C536 0.949 . S
C531 H526 0.950 . S
C531 C533 1.327 . S
C531 C537 1.429 . S
C532 C524 1.574 . S
C532 H527 0.949 . S
C532 C538 1.368 . S
C533 C517 1.349 . S
C533 H525 0.950 . S
C533 C531 1.327 . S
C534 C522 1.349 . S
C534 H528 0.950 . S
C534 C535 1.327 . S
C535 H529 0.950 . S
C535 C534 1.327 . S
C535 C539 1.429 . S
C536 C519 1.574 . S
C536 H530 0.949 . S
C536 C540 1.368 . S
C537 C518 1.429 . S
C537 C531 1.429 . S
C537 C538 1.523 . S
C538 C519 1.368 . S
C538 C532 1.368 . S
C538 C537 1.523 . S
C539 C523 1.429 . S
C539 C535 1.429 . S
C539 C540 1.523 . S
C540 C524 1.368 . S
C540 C536 1.368 . S
C540 C539 1.523 . S
H541 C516 0.950 . S
H542 C518 0.950 . S
H543 C519 0.949 . S
H544 C521 0.950 . S
H545 C523 0.950 . S
C546 C547 1.349 . S
C546 C548 1.327 . S
C546 H571 0.950 . S
C547 C546 1.349 . S
C547 C563 1.349 . S
C548 C546 1.327 . S
C548 C567 1.429 . S
C548 H572 0.950 . S
C549 C566 1.574 . S
C549 C568 1.368 . S
C549 H573 0.949 . S
H550 C554 0.949 . S
C551 C552 1.349 . S
C551 C553 1.327 . S
C551 H574 0.950 . S
C552 C551 1.349 . S
C552 C564 1.349 . S
C553 C551 1.327 . S
C553 C569 1.429 . S
C553 H575 0.950 . S
C554 H550 0.949 . S
C554 C562 1.574 . S
C554 C570 1.368 . S
H555 C563 0.950 . S
H556 C561 0.950 . S
H557 C562 0.949 . S
H558 C564 0.950 . S
H559 C565 0.950 . S
H560 C566 0.949 . S
C561 H556 0.950 . S
C561 C563 1.327 . S
C561 C567 1.429 . S
C562 C554 1.574 . S
C562 H557 0.949 . S
C562 C568 1.368 . S
C563 C547 1.349 . S
C563 H555 0.950 . S
C563 C561 1.327 . S
C564 C552 1.349 . S
C564 H558 0.950 . S
C564 C565 1.327 . S
C565 H559 0.950 . S
C565 C564 1.327 . S
C565 C569 1.429 . S
C566 C549 1.574 . S
C566 H560 0.949 . S
C566 C570 1.368 . S
C567 C548 1.429 . S
C567 C561 1.429 . S
C567 C568 1.523 . S
C568 C549 1.368 . S
C568 C562 1.368 . S
C568 C567 1.523 . S
C569 C553 1.429 . S
C569 C565 1.429 . S
C569 C570 1.523 . S
C570 C554 1.368 . S
C570 C566 1.368 . S
C570 C569 1.523 . S
H571 C546 0.950 . S
H572 C548 0.950 . S
H573 C549 0.949 . S
H574 C551 0.950 . S
H575 C553 0.950 . S
C576 C577 1.349 . S
C576 C578 1.327 . S
C576 H601 0.950 . S
C577 C576 1.349 . S
C577 C593 1.349 . S
C578 C576 1.327 . S
C578 C597 1.429 . S
C578 H602 0.950 . S
C579 C596 1.574 . S
C579 C598 1.368 . S
C579 H603 0.949 . S
H580 C584 0.949 . S
C581 C582 1.349 . S
C581 C583 1.327 . S
C581 H604 0.950 . S
C582 C581 1.349 . S
C582 C594 1.349 . S
C583 C581 1.327 . S
C583 C599 1.429 . S
C583 H605 0.950 . S
C584 H580 0.949 . S
C584 C592 1.574 . S
C584 C600 1.368 . S
H585 C593 0.950 . S
H586 C591 0.950 . S
H587 C592 0.949 . S
H588 C594 0.950 . S
H589 C595 0.950 . S
H590 C596 0.949 . S
C591 H586 0.950 . S
C591 C593 1.327 . S
C591 C597 1.429 . S
C592 C584 1.574 . S
C592 H587 0.949 . S
C592 C598 1.368 . S
C593 C577 1.349 . S
C593 H585 0.950 . S
C593 C591 1.327 . S
C594 C582 1.349 . S
C594 H588 0.950 . S
C594 C595 1.327 . S
C595 H589 0.950 . S
C595 C594 1.327 . S
C595 C599 1.429 . S
C596 C579 1.574 . S
C596 H590 0.949 . S
C596 C600 1.368 . S
C597 C578 1.429 . S
C597 C591 1.429 . S
C597 C598 1.523 . S
C598 C579 1.368 . S
C598 C592 1.368 . S
C598 C597 1.523 . S
C599 C583 1.429 . S
C599 C595 1.429 . S
C599 C600 1.523 . S
C600 C584 1.368 . S
C600 C596 1.368 . S
C600 C599 1.523 . S
H601 C576 0.950 . S
H602 C578 0.950 . S
H603 C579 0.949 . S
H604 C581 0.950 . S
H605 C583 0.950 . S
C606 C607 1.349 . S
C606 C608 1.327 . S
C606 H631 0.950 . S
C607 C606 1.349 . S
C607 C623 1.349 . S
C608 C606 1.327 . S
C608 C627 1.429 . S
C608 H632 0.950 . S
C609 C626 1.574 . S
C609 C628 1.368 . S
C609 H633 0.949 . S
H610 C614 0.949 . S
C611 C612 1.349 . S
C611 C613 1.327 . S
C611 H634 0.950 . S
C612 C611 1.349 . S
C612 C624 1.349 . S
C613 C611 1.327 . S
C613 C629 1.429 . S
C613 H635 0.950 . S
C614 H610 0.949 . S
C614 C622 1.574 . S
C614 C630 1.368 . S
H615 C623 0.950 . S
H616 C621 0.950 . S
H617 C622 0.949 . S
H618 C624 0.950 . S
H619 C625 0.950 . S
H620 C626 0.949 . S
C621 H616 0.950 . S
C621 C623 1.327 . S
C621 C627 1.429 . S
C622 C614 1.574 . S
C622 H617 0.949 . S
C622 C628 1.368 . S
C623 C607 1.349 . S
C623 H615 0.950 . S
C623 C621 1.327 . S
C624 C612 1.349 . S
C624 H618 0.950 . S
C624 C625 1.327 . S
C625 H619 0.950 . S
C625 C624 1.327 . S
C625 C629 1.429 . S
C626 C609 1.574 . S
C626 H620 0.949 . S
C626 C630 1.368 . S
C627 C608 1.429 . S
C627 C621 1.429 . S
C627 C628 1.523 . S
C628 C609 1.368 . S
C628 C622 1.368 . S
C628 C627 1.523 . S
C629 C613 1.429 . S
C629 C625 1.429 . S
C629 C630 1.523 . S
C630 C614 1.368 . S
C630 C626 1.368 . S
C630 C629 1.523 . S
H631 C606 0.950 . S
H632 C608 0.950 . S
H633 C609 0.949 . S
H634 C611 0.950 . S
H635 C613 0.950 . S
C636 C637 1.349 . S
C636 C638 1.327 . S
C636 H661 0.950 . S
C637 C636 1.349 . S
C637 C653 1.349 . S
C638 C636 1.327 . S
C638 C657 1.429 . S
C638 H662 0.950 . S
C639 C656 1.574 . S
C639 C658 1.368 . S
C639 H663 0.949 . S
H640 C644 0.949 . S
C641 C642 1.349 . S
C641 C643 1.310 1_554 S
C641 H664 0.950 . S
C642 C641 1.349 . S
C642 C654 1.349 . S
C643 C641 1.310 1_556 S
C643 C659 1.442 . S
C643 H665 0.954 . S
C644 H640 0.949 . S
C644 C652 1.574 . S
C644 C660 1.368 . S
H645 C653 0.950 . S
H646 C651 0.950 . S
H647 C652 0.949 . S
H648 C654 0.950 . S
H649 C655 0.950 . S
H650 C656 0.949 . S
C651 H646 0.950 . S
C651 C653 1.327 . S
C651 C657 1.429 . S
C652 C644 1.574 . S
C652 H647 0.949 . S
C652 C658 1.368 . S
C653 C637 1.349 . S
C653 H645 0.950 . S
C653 C651 1.327 . S
C654 C642 1.349 . S
C654 H648 0.950 . S
C654 C655 1.327 1_554 S
C655 H649 0.950 . S
C655 C654 1.327 1_556 S
C655 C659 1.429 . S
C656 C639 1.574 . S
C656 H650 0.949 . S
C656 C660 1.368 . S
C657 C638 1.429 . S
C657 C651 1.429 . S
C657 C658 1.523 . S
C658 C639 1.368 . S
C658 C652 1.368 . S
C658 C657 1.523 . S
C659 C643 1.442 . S
C659 C655 1.429 . S
C659 C660 1.523 . S
C660 C644 1.368 . S
C660 C656 1.368 . S
C660 C659 1.523 . S
H661 C636 0.950 . S
H662 C638 0.950 . S
H663 C639 0.949 . S
H664 C641 0.950 . S
H665 C643 0.954 . S
C666 C667 1.349 . S
C666 C668 1.327 . S
C666 H691 0.950 . S
C667 C666 1.349 . S
C667 C683 1.349 . S
C668 C666 1.327 . S
C668 C687 1.429 . S
C668 H692 0.950 . S
C669 C686 1.574 . S
C669 C688 1.368 . S
C669 H693 0.949 . S
H670 C674 0.949 . S
C671 C672 1.349 . S
C671 C673 1.327 . S
C671 H694 0.950 . S
C672 C671 1.349 . S
C672 C684 1.349 . S
C673 C671 1.327 . S
C673 C689 1.429 . S
C673 H695 0.950 . S
C674 H670 0.949 . S
C674 C682 1.574 . S
C674 C690 1.368 . S
H675 C683 0.950 . S
H676 C681 0.950 . S
H677 C682 0.949 . S
H678 C684 0.950 . S
H679 C685 0.950 . S
H680 C686 0.949 . S
C681 H676 0.950 . S
C681 C683 1.327 . S
C681 C687 1.429 . S
C682 C674 1.574 . S
C682 H677 0.949 . S
C682 C688 1.368 . S
C683 C667 1.349 . S
C683 H675 0.950 . S
C683 C681 1.327 . S
C684 C672 1.349 . S
C684 H678 0.950 . S
C684 C685 1.327 . S
C685 H679 0.950 . S
C685 C684 1.327 . S
C685 C689 1.429 . S
C686 C669 1.574 . S
C686 H680 0.949 . S
C686 C690 1.368 . S
C687 C668 1.429 . S
C687 C681 1.429 . S
C687 C688 1.523 . S
C688 C669 1.368 . S
C688 C682 1.368 . S
C688 C687 1.523 . S
C689 C673 1.429 . S
C689 C685 1.429 . S
C689 C690 1.523 . S
C690 C674 1.368 . S
C690 C686 1.368 . S
C690 C689 1.523 . S
H691 C666 0.950 . S
H692 C668 0.950 . S
H693 C669 0.949 . S
H694 C671 0.950 . S
H695 C673 0.950 . S
C696 C697 1.349 . S
C696 C698 1.327 . S
C696 H721 0.950 . S
C697 C696 1.349 . S
C697 C713 1.349 . S
C698 C696 1.327 . S
C698 C717 1.429 . S
C698 H722 0.950 . S
C699 C716 1.574 . S
C699 C718 1.368 . S
C699 H723 0.949 . S
H700 C704 0.949 . S
C701 C702 1.349 . S
C701 C703 1.327 . S
C701 H724 0.950 . S
C702 C701 1.349 . S
C702 C714 1.349 . S
C703 C701 1.327 . S
C703 C719 1.429 . S
C703 H725 0.950 . S
C704 H700 0.949 . S
C704 C712 1.574 . S
C704 C720 1.368 . S
H705 C713 0.950 . S
H706 C711 0.950 . S
H707 C712 0.949 . S
H708 C714 0.950 . S
H709 C715 0.950 . S
H710 C716 0.949 . S
C711 H706 0.950 . S
C711 C713 1.327 . S
C711 C717 1.429 . S
C712 C704 1.574 . S
C712 H707 0.949 . S
C712 C718 1.368 . S
C713 C697 1.349 . S
C713 H705 0.950 . S
C713 C711 1.327 . S
C714 C702 1.349 . S
C714 H708 0.950 . S
C714 C715 1.327 . S
C715 H709 0.950 . S
C715 C714 1.327 . S
C715 C719 1.429 . S
C716 C699 1.574 . S
C716 H710 0.949 . S
C716 C720 1.368 . S
C717 C698 1.429 . S
C717 C711 1.429 . S
C717 C718 1.523 . S
C718 C699 1.368 . S
C718 C712 1.368 . S
C718 C717 1.523 . S
C719 C703 1.429 . S
C719 C715 1.429 . S
C719 C720 1.523 . S
C720 C704 1.368 . S
C720 C716 1.368 . S
C720 C719 1.523 . S
H721 C696 0.950 . S
H722 C698 0.950 . S
H723 C699 0.949 . S
H724 C701 0.950 . S
H725 C703 0.950 . S
C726 C727 1.349 . S
C726 C728 1.327 . S
C726 H751 0.950 . S
C727 C726 1.349 . S
C727 C743 1.349 . S
C728 C726 1.327 . S
C728 C747 1.429 . S
C728 H752 0.950 . S
C729 C746 1.574 . S
C729 C748 1.368 . S
C729 H753 0.949 . S
H730 C734 0.949 . S
C731 C732 1.349 . S
C731 C733 1.327 . S
C731 H754 0.950 . S
C732 C731 1.349 . S
C732 C744 1.349 . S
C733 C731 1.327 . S
C733 C749 1.429 . S
C733 H755 0.950 . S
C734 H730 0.949 . S
C734 C742 1.574 . S
C734 C750 1.368 . S
H735 C743 0.950 . S
H736 C741 0.950 . S
H737 C742 0.949 . S
H738 C744 0.950 . S
H739 C745 0.950 . S
H740 C746 0.949 . S
C741 H736 0.950 . S
C741 C743 1.327 . S
C741 C747 1.429 . S
C742 C734 1.574 . S
C742 H737 0.949 . S
C742 C748 1.368 . S
C743 C727 1.349 . S
C743 H735 0.950 . S
C743 C741 1.327 . S
C744 C732 1.349 . S
C744 H738 0.950 . S
C744 C745 1.327 . S
C745 H739 0.950 . S
C745 C744 1.327 . S
C745 C749 1.429 . S
C746 C729 1.574 . S
C746 H740 0.949 . S
C746 C750 1.368 . S
C747 C728 1.429 . S
C747 C741 1.429 . S
C747 C748 1.523 . S
C748 C729 1.368 . S
C748 C742 1.368 . S
C748 C747 1.523 . S
C749 C733 1.429 . S
C749 C745 1.429 . S
C749 C750 1.523 . S
C750 C734 1.368 . S
C750 C746 1.368 . S
C750 C749 1.523 . S
H751 C726 0.950 . S
H752 C728 0.950 . S
H753 C729 0.949 . S
H754 C731 0.950 . S
H755 C733 0.950 . S
C756 C757 1.349 . S
C756 C758 1.327 . S
C756 H781 0.950 . S
C757 C756 1.349 . S
C757 C773 1.349 . S
C758 C756 1.327 . S
C758 C777 1.429 . S
C758 H782 0.950 . S
C759 C776 1.574 . S
C759 C778 1.368 . S
C759 H783 0.949 . S
H760 C764 0.949 . S
C761 C762 1.349 . S
C761 C763 1.327 . S
C761 H784 0.950 . S
C762 C761 1.349 . S
C762 C774 1.349 . S
C763 C761 1.327 . S
C763 C779 1.429 . S
C763 H785 0.950 . S
C764 H760 0.949 . S
C764 C772 1.574 . S
C764 C780 1.368 . S
H765 C773 0.950 . S
H766 C771 0.950 . S
H767 C772 0.949 . S
H768 C774 0.950 . S
H769 C775 0.950 . S
H770 C776 0.949 . S
C771 H766 0.950 . S
C771 C773 1.327 . S
C771 C777 1.429 . S
C772 C764 1.574 . S
C772 H767 0.949 . S
C772 C778 1.368 . S
C773 C757 1.349 . S
C773 H765 0.950 . S
C773 C771 1.327 . S
C774 C762 1.349 . S
C774 H768 0.950 . S
C774 C775 1.327 . S
C775 H769 0.950 . S
C775 C774 1.327 . S
C775 C779 1.429 . S
C776 C759 1.574 . S
C776 H770 0.949 . S
C776 C780 1.368 . S
C777 C758 1.429 . S
C777 C771 1.429 . S
C777 C778 1.523 . S
C778 C759 1.368 . S
C778 C772 1.368 . S
C778 C777 1.523 . S
C779 C763 1.429 . S
C779 C775 1.429 . S
C779 C780 1.523 . S
C780 C764 1.368 . S
C780 C776 1.368 . S
C780 C779 1.523 . S
H781 C756 0.950 . S
H782 C758 0.950 . S
H783 C759 0.949 . S
H784 C761 0.950 . S
H785 C763 0.950 . S
C786 C787 1.349 . S
C786 C788 1.327 . S
C786 H811 0.950 . S
C787 C786 1.349 . S
C787 C803 1.349 . S
C788 C786 1.327 . S
C788 C807 1.429 . S
C788 H812 0.950 . S
C789 C806 1.574 . S
C789 C808 1.368 . S
C789 H813 0.949 . S
H790 C794 0.949 . S
C791 C792 1.349 . S
C791 C793 1.327 . S
C791 H814 0.950 . S
C792 C791 1.349 . S
C792 C804 1.349 . S
C793 C791 1.327 . S
C793 C809 1.429 . S
C793 H815 0.950 . S
C794 H790 0.949 . S
C794 C802 1.574 . S
C794 C810 1.368 . S
H795 C803 0.950 . S
H796 C801 0.950 . S
H797 C802 0.949 . S
H798 C804 0.950 . S
H799 C805 0.950 . S
H800 C806 0.949 . S
C801 H796 0.950 . S
C801 C803 1.327 . S
C801 C807 1.429 . S
C802 C794 1.574 . S
C802 H797 0.949 . S
C802 C808 1.368 . S
C803 C787 1.349 . S
C803 H795 0.950 . S
C803 C801 1.327 . S
C804 C792 1.349 . S
C804 H798 0.950 . S
C804 C805 1.327 . S
C805 H799 0.950 . S
C805 C804 1.327 . S
C805 C809 1.429 . S
C806 C789 1.574 . S
C806 H800 0.949 . S
C806 C810 1.368 . S
C807 C788 1.429 . S
C807 C801 1.429 . S
C807 C808 1.523 . S
C808 C789 1.368 . S
C808 C802 1.368 . S
C808 C807 1.523 . S
C809 C793 1.429 . S
C809 C805 1.429 . S
C809 C810 1.523 . S
C810 C794 1.368 . S
C810 C806 1.368 . S
C810 C809 1.523 . S
H811 C786 0.950 . S
H812 C788 0.950 . S
H813 C789 0.949 . S
H814 C791 0.950 . S
H815 C793 0.950 . S
C816 C817 1.349 . S
C816 C818 1.327 . S
C816 H841 0.950 . S
C817 C816 1.349 . S
C817 C833 1.349 . S
C818 C816 1.327 . S
C818 C837 1.429 . S
C818 H842 0.950 . S
C819 C836 1.574 . S
C819 C838 1.368 . S
C819 H843 0.949 . S
H820 C824 0.949 . S
C821 C822 1.349 . S
C821 C823 1.327 . S
C821 H844 0.950 . S
C822 C821 1.349 . S
C822 C834 1.349 . S
C823 C821 1.327 . S
C823 C839 1.429 . S
C823 H845 0.950 . S
C824 H820 0.949 . S
C824 C832 1.574 . S
C824 C840 1.368 . S
H825 C833 0.950 . S
H826 C831 0.950 . S
H827 C832 0.949 . S
H828 C834 0.950 . S
H829 C835 0.950 . S
H830 C836 0.949 . S
C831 H826 0.950 . S
C831 C833 1.327 . S
C831 C837 1.429 . S
C832 C824 1.574 . S
C832 H827 0.949 . S
C832 C838 1.368 . S
C833 C817 1.349 . S
C833 H825 0.950 . S
C833 C831 1.327 . S
C834 C822 1.349 . S
C834 H828 0.950 . S
C834 C835 1.327 . S
C835 H829 0.950 . S
C835 C834 1.327 . S
C835 C839 1.429 . S
C836 C819 1.574 . S
C836 H830 0.949 . S
C836 C840 1.368 . S
C837 C818 1.429 . S
C837 C831 1.429 . S
C837 C838 1.523 . S
C838 C819 1.368 . S
C838 C832 1.368 . S
C838 C837 1.523 . S
C839 C823 1.429 . S
C839 C835 1.429 . S
C839 C840 1.523 . S
C840 C824 1.368 . S
C840 C836 1.368 . S
C840 C839 1.523 . S
H841 C816 0.950 . S
H842 C818 0.950 . S
H843 C819 0.949 . S
H844 C821 0.950 . S
H845 C823 0.950 . S
C846 C847 1.349 . S
C846 C848 1.327 . S
C846 H871 0.950 . S
C847 C846 1.349 . S
C847 C863 1.349 . S
C848 C846 1.327 . S
C848 C867 1.429 . S
C848 H872 0.950 . S
C849 C866 1.574 . S
C849 C868 1.368 . S
C849 H873 0.949 . S
H850 C854 0.949 . S
C851 C852 1.349 . S
C851 C853 1.327 . S
C851 H874 0.950 . S
C852 C851 1.349 . S
C852 C864 1.349 . S
C853 C851 1.327 . S
C853 C869 1.429 . S
C853 H875 0.950 . S
C854 H850 0.949 . S
C854 C862 1.574 . S
C854 C870 1.368 . S
H855 C863 0.950 . S
H856 C861 0.950 . S
H857 C862 0.949 . S
H858 C864 0.950 . S
H859 C865 0.966 . S
H860 C866 0.949 . S
C861 H856 0.950 . S
C861 C863 1.327 . S
C861 C867 1.429 . S
C862 C854 1.574 . S
C862 H857 0.949 . S
C862 C868 1.368 . S
C863 C847 1.349 . S
C863 H855 0.950 . S
C863 C861 1.327 . S
C864 C852 1.349 . S
C864 H858 0.950 . S
C864 C865 1.327 . S
C865 H859 0.966 . S
C865 C864 1.327 . S
C865 C869 1.429 . S
C866 C849 1.574 . S
C866 H860 0.949 . S
C866 C870 1.368 . S
C867 C848 1.429 . S
C867 C861 1.429 . S
C867 C868 1.523 . S
C868 C849 1.368 . S
C868 C862 1.368 . S
C868 C867 1.523 . S
C869 C853 1.429 . S
C869 C865 1.429 . S
C869 C870 1.523 1_556 S
C870 C854 1.368 . S
C870 C866 1.368 . S
C870 C869 1.523 1_554 S
H871 C846 0.950 . S
H872 C848 0.950 . S
H873 C849 0.949 . S
H874 C851 0.950 . S
H875 C853 0.950 . S
C876 C877 1.349 . S
C876 C878 1.327 . S
C876 H901 0.950 . S
C877 C876 1.349 . S
C877 C893 1.349 . S
C878 C876 1.327 . S
C878 C897 1.429 . S
C878 H902 0.950 . S
C879 C896 1.574 . S
C879 C898 1.368 . S
C879 H903 0.949 . S
H880 C884 0.949 . S
C881 C882 1.349 . S
C881 C883 1.327 . S
C881 H904 0.950 . S
C882 C881 1.349 . S
C882 C894 1.349 . S
C883 C881 1.327 . S
C883 C899 1.429 . S
C883 H905 0.950 . S
C884 H880 0.949 . S
C884 C892 1.574 . S
C884 C900 1.368 . S
H885 C893 0.950 . S
H886 C891 0.950 . S
H887 C892 0.949 . S
H888 C894 0.950 . S
H889 C895 0.950 . S
H890 C896 0.949 . S
C891 H886 0.950 . S
C891 C893 1.327 . S
C891 C897 1.429 . S
C892 C884 1.574 . S
C892 H887 0.949 . S
C892 C898 1.368 . S
C893 C877 1.349 . S
C893 H885 0.950 . S
C893 C891 1.327 . S
C894 C882 1.349 . S
C894 H888 0.950 . S
C894 C895 1.327 . S
C895 H889 0.950 . S
C895 C894 1.327 . S
C895 C899 1.429 . S
C896 C879 1.574 . S
C896 H890 0.949 . S
C896 C900 1.368 . S
C897 C878 1.429 . S
C897 C891 1.429 . S
C897 C898 1.523 . S
C898 C879 1.368 . S
C898 C892 1.368 . S
C898 C897 1.523 . S
C899 C883 1.429 . S
C899 C895 1.429 . S
C899 C900 1.523 . S
C900 C884 1.368 . S
C900 C896 1.368 . S
C900 C899 1.523 . S
H901 C876 0.950 . S
H902 C878 0.950 . S
H903 C879 0.949 . S
H904 C881 0.950 . S
H905 C883 0.950 . S
C192 C178 1.629 . S
C187 C8 1.586 . S
C217 C26 1.592 . S
C222 C113 1.635 . S
C247 C50 1.593 . S
C252 C131 1.638 . S
C277 C68 1.578 . S
C282 C144 1.621 . S
C312 C152 1.634 . S
C307 C80 1.590 . S
C337 C104 1.586 . S
C342 C164 1.630 . S
C367 C32 1.598 . S
C372 C126 1.644 . S
C397 C44 1.587 . S
C402 C139 1.631 . S
C427 C62 1.583 . S
C432 C157 1.625 . S
C462 C163 1.638 . S
C457 C86 1.592 1_554 S
C492 C183 1.618 . S
C487 C98 1.577 . S
C522 C118 1.630 . S
C517 C14 1.586 . S
C547 C7 1.557 . S
C552 C124 1.606 . S
C577 C25 1.558 . S
C582 C137 1.607 . S
C612 C151 1.601 . S
C607 C52 1.555 . S
C637 C70 1.567 . S
C642 C165 1.612 . S
C672 C177 1.597 . S
C667 C79 1.548 . S
C702 C112 1.600 . S
C697 C106 1.554 . S
C732 C176 1.605 . S
C727 C34 1.560 . S
C757 C43 1.554 . S
C762 C111 1.604 . S
C792 C125 1.604 . S
C787 C61 1.555 . S
C817 C88 1.551 . S
C822 C138 1.596 . S
C847 C97 1.559 . S
C852 C150 1.608 . S
C877 C16 1.560 . S
C882 C170 1.606 . S
