# Generated by pormake.
# Topology llj, (12,3)-cn, num edge types: 1
# Building blocks:
#     Node 0, Type 0, BuildingBlock: QEWDON_clean_sbu_0, # of connection points: 12
#     Node 1, Type 0, BuildingBlock: QEWDON_clean_sbu_0, # of connection points: 12
#     Node 2, Type 1, BuildingBlock: PAMTOO_clean_linker_0, # of connection points: 3
#     Node 3, Type 1, BuildingBlock: PAMTOO_clean_linker_0, # of connection points: 3
#     Node 4, Type 1, BuildingBlock: PAMTOO_clean_linker_0, # of connection points: 3
#     Node 5, Type 1, BuildingBlock: PAMTOO_clean_linker_0, # of connection points: 3
#     Node 6, Type 1, BuildingBlock: PAMTOO_clean_linker_0, # of connection points: 3
#     Node 7, Type 1, BuildingBlock: PAMTOO_clean_linker_0, # of connection points: 3
#     Node 8, Type 1, BuildingBlock: PAMTOO_clean_linker_0, # of connection points: 3
#     Node 9, Type 1, BuildingBlock: PAMTOO_clean_linker_0, # of connection points: 3
#     Edge 10, Type (0, 1), BuildingBlock: CIFDUS_clean_linker_0, # of connection points: 2
#     Edge 11, Type (0, 1), BuildingBlock: CIFDUS_clean_linker_0, # of connection points: 2
#     Edge 12, Type (0, 1), BuildingBlock: CIFDUS_clean_linker_0, # of connection points: 2
#     Edge 13, Type (0, 1), BuildingBlock: CIFDUS_clean_linker_0, # of connection points: 2
#     Edge 14, Type (0, 1), BuildingBlock: CIFDUS_clean_linker_0, # of connection points: 2
#     Edge 15, Type (0, 1), BuildingBlock: CIFDUS_clean_linker_0, # of connection points: 2
#     Edge 16, Type (0, 1), BuildingBlock: CIFDUS_clean_linker_0, # of connection points: 2
#     Edge 17, Type (0, 1), BuildingBlock: CIFDUS_clean_linker_0, # of connection points: 2
#     Edge 18, Type (0, 1), BuildingBlock: CIFDUS_clean_linker_0, # of connection points: 2
#     Edge 19, Type (0, 1), BuildingBlock: CIFDUS_clean_linker_0, # of connection points: 2
#     Edge 20, Type (0, 1), BuildingBlock: CIFDUS_clean_linker_0, # of connection points: 2
#     Edge 21, Type (0, 1), BuildingBlock: CIFDUS_clean_linker_0, # of connection points: 2
#     Edge 22, Type (0, 1), BuildingBlock: CIFDUS_clean_linker_0, # of connection points: 2
#     Edge 23, Type (0, 1), BuildingBlock: CIFDUS_clean_linker_0, # of connection points: 2
#     Edge 24, Type (0, 1), BuildingBlock: CIFDUS_clean_linker_0, # of connection points: 2
#     Edge 25, Type (0, 1), BuildingBlock: CIFDUS_clean_linker_0, # of connection points: 2
#     Edge 26, Type (0, 1), BuildingBlock: CIFDUS_clean_linker_0, # of connection points: 2
#     Edge 27, Type (0, 1), BuildingBlock: CIFDUS_clean_linker_0, # of connection points: 2
#     Edge 28, Type (0, 1), BuildingBlock: CIFDUS_clean_linker_0, # of connection points: 2
#     Edge 29, Type (0, 1), BuildingBlock: CIFDUS_clean_linker_0, # of connection points: 2
#     Edge 30, Type (0, 1), BuildingBlock: CIFDUS_clean_linker_0, # of connection points: 2
#     Edge 31, Type (0, 1), BuildingBlock: CIFDUS_clean_linker_0, # of connection points: 2
#     Edge 32, Type (0, 1), BuildingBlock: CIFDUS_clean_linker_0, # of connection points: 2
#     Edge 33, Type (0, 1), BuildingBlock: CIFDUS_clean_linker_0, # of connection points: 2
# Relax obj value: 0.010
# Max RMSD: 0.099
# Mean RMSD: 0.084
data_MOF--net-llj--node1-QEWDON_clean_sbu_0--node2-PAMTOO_clean_linker_0--edge1-CIFDUS_clean_linker_0
_symmetry_space_group_name_H-M    P1
_symmetry_Int_Tables_number       1
_symmetry_cell_setting            triclinic
loop_
_symmetry_equiv_pos_as_xyz
'x, y, z'
_cell_length_a     35.196941
_cell_length_b     35.154662
_cell_length_c     21.6526
_cell_angle_alpha  91.534783
_cell_angle_beta   90.336132
_cell_angle_gamma 89.648229
loop_
_atom_site_label
_atom_site_type_symbol
_atom_site_fract_x
_atom_site_fract_y
_atom_site_fract_z
_atom_type_partial_charge
Zn0 Zn 0.94675 0.07724 0.92798 0.0
Zn1 Zn 0.93897 0.07416 0.07579 0.0
O2 O 0.97227 0.05896 0.00489 0.0
H3 H 0.99141 0.03916 0.00508 0.0
C4 C 0.8994 0.98579 0.86668 0.0
O5 O 0.90832 0.00633 0.91612 0.0
Zn6 Zn 0.05772 0.92899 0.09379 0.0
Zn7 Zn 0.05709 0.9347 0.95454 0.0
O8 O 0.02077 0.92462 0.02362 0.0
H9 H 0.00059 0.90618 0.01977 0.0
Zn10 Zn 0.91273 0.92762 0.95526 0.0
O11 O 0.93119 0.96561 0.02005 0.0
Zn12 Zn 0.92606 0.94043 0.10008 0.0
H13 H 0.95107 0.98359 0.01207 0.0
Zn14 Zn 0.0935 0.06373 0.93246 0.0
O15 O 0.07457 0.03147 0.00122 0.0
H16 H 0.05832 0.00972 0.9941 0.0
Zn17 Zn 0.07591 0.06542 0.07674 0.0
C18 C 0.08646 0.01851 0.81913 0.0
O19 O 0.05058 0.02067 0.83531 0.0
O20 O 0.90012 0.11136 0.94523 0.0
O21 O 0.89566 0.1095 0.04777 0.0
O22 O 0.1081 0.90693 0.97018 0.0
O23 O 0.10515 0.89798 0.07163 0.0
O24 O 0.88277 0.88293 0.99097 0.0
O25 O 0.89434 0.89254 0.09144 0.0
C26 C 0.00709 0.09435 0.14136 0.0
O27 O 0.12006 0.11291 0.96266 0.0
O28 O 0.10945 0.11165 0.06395 0.0
O29 O 0.03117 0.93157 0.86804 0.0
C30 C 0.88378 0.12126 0.9956 0.0
O31 O 0.9815 0.08752 0.85371 0.0
C32 C 0.99575 0.9179 0.1733 0.0
O33 O 0.89871 0.94974 0.87017 0.0
C34 C 0.12197 0.8933 0.01965 0.0
O35 O 0.1113 0.03518 0.85275 0.0
C36 C 0.904 0.01233 0.15591 0.0
O37 O 0.97117 0.09717 0.14447 0.0
O38 O 0.02208 0.08226 0.09141 0.0
C39 C 0.87897 0.8734 0.04706 0.0
O40 O 0.03169 0.91386 0.17344 0.0
O41 O 0.97968 0.92886 0.12443 0.0
C42 C 0.08832 0.99952 0.1486 0.0
O43 O 0.90193 0.97653 0.16203 0.0
O44 O 0.92017 0.02438 0.10783 0.0
C45 C 0.12404 0.12725 0.01704 0.0
O46 O 0.09402 0.03519 0.14957 0.0
O47 O 0.07213 0.984 0.10199 0.0
C48 C 0.01029 0.90258 0.85879 0.0
O49 O 0.00884 0.87685 0.90162 0.0
C50 C 0.00914 0.11014 0.86244 0.0
O51 O 0.01386 0.12642 0.91727 0.0
Zn52 Zn 0.45365 0.5834 0.4694 0.0
Zn53 Zn 0.4485 0.57319 0.61563 0.0
O54 O 0.48008 0.56088 0.54191 0.0
H55 H 0.49592 0.53843 0.53784 0.0
C56 C 0.36973 0.52264 0.38771 0.0
O57 O 0.38092 0.53722 0.44123 0.0
Zn58 Zn 0.55737 0.42589 0.58706 0.0
Zn59 Zn 0.54987 0.41494 0.43945 0.0
O60 O 0.52536 0.43886 0.51411 0.0
H61 H 0.50794 0.46017 0.51242 0.0
Zn62 Zn 0.38829 0.45395 0.45214 0.0
O63 O 0.42033 0.47939 0.51831 0.0
Zn64 Zn 0.41974 0.44455 0.58892 0.0
H65 H 0.43993 0.49768 0.51034 0.0
Zn66 Zn 0.5953 0.56108 0.45 0.0
O67 O 0.57485 0.53002 0.51889 0.0
H68 H 0.55743 0.50918 0.51255 0.0
Zn69 Zn 0.58371 0.55888 0.59777 0.0
C70 C 0.61868 0.49556 0.37752 0.0
O71 O 0.61427 0.48088 0.43216 0.0
O72 O 0.41039 0.62063 0.4938 0.0
O73 O 0.40827 0.61388 0.59587 0.0
O74 O 0.59451 0.38001 0.46069 0.0
O75 O 0.59965 0.38719 0.56297 0.0
O76 O 0.36319 0.4036 0.47611 0.0
O77 O 0.38835 0.3973 0.56989 0.0
C78 C 0.51893 0.58287 0.68111 0.0
O79 O 0.62248 0.60974 0.48072 0.0
O80 O 0.6148 0.6068 0.58272 0.0
O81 O 0.51463 0.39959 0.36662 0.0
C82 C 0.39612 0.62922 0.54645 0.0
O83 O 0.48814 0.59164 0.394 0.0
C84 C 0.48721 0.41041 0.64805 0.0
O85 O 0.36922 0.48666 0.37998 0.0
C86 C 0.61068 0.37208 0.51157 0.0
O87 O 0.613 0.53102 0.37147 0.0
C88 C 0.40305 0.50712 0.67082 0.0
O89 O 0.48332 0.58747 0.68796 0.0
O90 O 0.53151 0.57279 0.6284 0.0
C91 C 0.36734 0.38498 0.52548 0.0
O92 O 0.52267 0.40366 0.6511 0.0
O93 O 0.47432 0.43081 0.60528 0.0
C94 C 0.60217 0.48896 0.65529 0.0
O95 O 0.39643 0.47192 0.66227 0.0
O96 O 0.42428 0.52302 0.63204 0.0
C97 C 0.6276 0.62343 0.53529 0.0
O98 O 0.61022 0.5242 0.65763 0.0
O99 O 0.57836 0.47707 0.61504 0.0
C100 C 0.47875 0.39998 0.37301 0.0
O101 O 0.46418 0.41032 0.42666 0.0
C102 C 0.51894 0.60951 0.4039 0.0
O103 O 0.52615 0.6234 0.45966 0.0
H104 H 0.41364 0.38333 -0.00101 0.0
H105 H 0.33443 0.31253 0.09292 0.0
H106 H 0.32053 0.33174 0.89892 0.0
H107 H 0.24933 0.33339 0.97177 0.0
C108 C 0.25658 0.31104 0.00541 0.0
O109 O 0.29287 0.29754 0.99484 0.0
H110 H 0.25474 0.32399 0.05278 0.0
C111 C 0.38828 0.36594 -0.00165 0.0
C112 C 0.36827 0.36016 0.94282 0.0
C113 C 0.37665 0.34864 0.05259 0.0
C114 C 0.34375 0.3263 0.05151 0.0
C115 C 0.32346 0.32047 0.9962 0.0
C116 C 0.33596 0.33698 0.94174 0.0
H117 H 0.63179 0.41962 0.99491 0.0
H118 H 0.70431 0.34931 0.10643 0.0
H119 H 0.69034 0.32344 0.91292 0.0
H120 H 0.68806 0.25634 0.99564 0.0
C121 C 0.70847 0.26667 0.0317 0.0
O122 O 0.72209 0.3019 0.01652 0.0
H123 H 0.69306 0.26884 0.07644 0.0
C124 C 0.65075 0.39545 -0.00021 0.0
C125 C 0.65922 0.37261 0.94761 0.0
C126 C 0.667 0.38772 0.05756 0.0
C127 C 0.69107 0.35583 0.06264 0.0
C128 C 0.6989 0.33238 0.01088 0.0
C129 C 0.68345 0.3411 0.95315 0.0
H130 H 0.59591 0.60351 0.03013 0.0
H131 H 0.68616 0.66789 0.95112 0.0
H132 H 0.68745 0.64689 0.14474 0.0
H133 H 0.70969 0.72116 0.12704 0.0
C134 C 0.71445 0.72029 0.07626 0.0
O135 O 0.71998 0.68299 0.05663 0.0
H136 H 0.68867 0.73255 0.05402 0.0
C137 C 0.62304 0.61768 0.03534 0.0
C138 C 0.63937 0.6229 0.09451 0.0
C139 C 0.63996 0.63325 0.98309 0.0
C140 C 0.67338 0.65454 0.9904 0.0
C141 C 0.69012 0.65939 0.04875 0.0
C142 C 0.67392 0.64262 0.10006 0.0
H143 H 0.35782 0.58778 0.01244 0.0
H144 H 0.29622 0.67295 0.11822 0.0
H145 H 0.31487 0.6879 0.92476 0.0
H146 H 0.32033 0.76089 0.00616 0.0
C147 C 0.30029 0.7519 0.04248 0.0
O148 O 0.28446 0.71738 0.02554 0.0
H149 H 0.31654 0.74941 0.08649 0.0
C150 C 0.34249 0.61461 0.01507 0.0
C151 C 0.3378 0.6358 0.96143 0.0
C152 C 0.32757 0.62747 0.0719 0.0
C153 C 0.30869 0.66275 0.07519 0.0
C154 C 0.30472 0.68467 0.02243 0.0
C155 C 0.31931 0.67131 0.96567 0.0
H156 H 0.92186 0.86758 0.51247 0.0
H157 H 0.83257 0.81399 0.61294 0.0
H158 H 0.82489 0.81975 0.41626 0.0
H159 H 0.75267 0.82988 0.48365 0.0
C160 C 0.75765 0.80873 0.52023 0.0
O161 O 0.79369 0.79353 0.51504 0.0
H162 H 0.75442 0.82354 0.56598 0.0
C163 C 0.89426 0.85413 0.51307 0.0
C164 C 0.87507 0.846 0.457 0.0
C165 C 0.87927 0.84287 0.56976 0.0
C166 C 0.84456 0.82333 0.56997 0.0
C167 C 0.8253 0.81504 0.51467 0.0
C168 C 0.8403 0.82654 0.45854 0.0
H169 H 0.14962 0.93285 0.48257 0.0
H170 H 0.21163 0.85231 0.59041 0.0
H171 H 0.20615 0.83706 0.3936 0.0
H172 H 0.20124 0.7669 0.46744 0.0
C173 C 0.22198 0.77489 0.50449 0.0
O174 O 0.2351 0.81123 0.49576 0.0
H175 H 0.20713 0.77374 0.54964 0.0
C176 C 0.1658 0.90662 0.48497 0.0
C177 C 0.17533 0.88627 0.43027 0.0
C178 C 0.17815 0.89448 0.54302 0.0
C179 C 0.20148 0.86205 0.54618 0.0
C180 C 0.21157 0.84164 0.49227 0.0
C181 C 0.19833 0.8535 0.43463 0.0
H182 H 0.08427 0.11919 0.48894 0.0
H183 H 0.18234 0.17282 0.41131 0.0
H184 H 0.17653 0.1567 0.60571 0.0
H185 H 0.20157 0.22917 0.58839 0.0
C186 C 0.20646 0.22813 0.53764 0.0
O187 O 0.21213 0.19077 0.51835 0.0
H188 H 0.18055 0.24022 0.51547 0.0
C189 C 0.11263 0.1306 0.49384 0.0
C190 C 0.12844 0.13466 0.55343 0.0
C191 C 0.13203 0.14297 0.44123 0.0
C192 C 0.16689 0.16187 0.44998 0.0
C193 C 0.18203 0.16757 0.50938 0.0
C194 C 0.1638 0.15256 0.56039 0.0
H195 H 0.87349 0.07666 0.52637 0.0
H196 H 0.80211 0.15617 0.43154 0.0
H197 H 0.8118 0.16302 0.62929 0.0
H198 H 0.73772 0.1702 0.58166 0.0
C199 C 0.7425 0.18783 0.54047 0.0
O200 O 0.78092 0.19356 0.53262 0.0
H201 H 0.73081 0.17196 0.49953 0.0
C202 C 0.85418 0.10081 0.52769 0.0
C203 C 0.84419 0.11756 0.58482 0.0
C204 C 0.83864 0.11375 0.47223 0.0
C205 C 0.81481 0.14599 0.47375 0.0
C206 C 0.8057 0.16399 0.53054 0.0
C207 C 0.82045 0.14985 0.58577 0.0
H208 H 0.15264 0.1717 0.92788 0.0
H209 H 0.14622 0.16205 0.12602 0.0
H210 H 0.18564 0.2186 0.13997 0.0
H211 H 0.22383 0.26969 0.09566 0.0
H212 H 0.22994 0.2791 0.89798 0.0
H213 H 0.18878 0.22357 0.88393 0.0
C214 C 0.15977 0.18192 0.9742 0.0
C215 C 0.14666 0.16242 0.02578 0.0
C216 C 0.1824 0.21442 0.98191 0.0
C217 C 0.15597 0.17639 0.08543 0.0
C218 C 0.17857 0.20872 0.09349 0.0
C219 C 0.2157 0.25973 0.04964 0.0
C220 C 0.22925 0.27858 -0.00217 0.0
C221 C 0.19216 0.2278 0.04207 0.0
C222 C 0.21925 0.26518 0.93835 0.0
C223 C 0.1959 0.23345 0.93039 0.0
H224 H 0.84618 0.15623 0.09187 0.0
H225 H 0.84631 0.14485 0.89266 0.0
H226 H 0.79236 0.18826 0.88665 0.0
H227 H 0.74521 0.23017 0.93751 0.0
H228 H 0.74523 0.24271 0.13591 0.0
H229 H 0.799 0.19835 0.14276 0.0
C230 C 0.83436 0.16314 0.04715 0.0
C231 C 0.85044 0.14723 0.99288 0.0
C232 C 0.8033 0.1884 0.04383 0.0
C233 C 0.83472 0.15669 0.9353 0.0
C234 C 0.80378 0.18154 0.93169 0.0
C235 C 0.75698 0.22291 0.98213 0.0
C236 C 0.74109 0.23902 0.03613 0.0
C237 C 0.7879 0.19763 0.98557 0.0
C238 C 0.7568 0.23013 0.0938 0.0
C239 C 0.78752 0.20486 0.09768 0.0
H240 H 0.8363 0.83038 0.96679 0.0
H241 H 0.86519 0.84394 0.16029 0.0
H242 H 0.81905 0.79546 0.18582 0.0
H243 H 0.7668 0.75294 0.15416 0.0
H244 H 0.73659 0.74067 0.96158 0.0
H245 H 0.78718 0.78474 0.93448 0.0
C246 C 0.83285 0.82249 0.0145 0.0
C247 C 0.854 0.8411 0.06155 0.0
C248 C 0.80584 0.79497 0.02902 0.0
C249 C 0.84917 0.83031 0.12311 0.0
C250 C 0.82271 0.80261 0.13784 0.0
C251 C 0.77165 0.7597 0.10627 0.0
C252 C 0.74801 0.74407 0.05981 0.0
C253 C 0.80034 0.78536 0.09134 0.0
C254 C 0.75451 0.75268 -0.00212 0.0
C255 C 0.78328 0.77787 0.98252 0.0
H256 H 0.15959 0.85736 0.11269 0.0
H257 H 0.16465 0.878 0.91705 0.0
H258 H 0.22098 0.83786 0.90785 0.0
H259 H 0.26729 0.79429 0.95389 0.0
H260 H 0.26207 0.77221 0.1483 0.0
H261 H 0.20746 0.81544 0.15953 0.0
C262 C 0.17309 0.85325 0.06809 0.0
C263 C 0.15758 0.87056 0.01564 0.0
C264 C 0.20551 0.8298 0.06285 0.0
C265 C 0.1757 0.86497 0.95827 0.0
C266 C 0.20799 0.84195 0.95283 0.0
C267 C 0.25441 0.79946 -0.00124 0.0
C268 C 0.26891 0.78081 0.0504 0.0
C269 C 0.22289 0.82391 0.00459 0.0
C270 C 0.25164 0.78688 0.10818 0.0
C271 C 0.22038 0.81141 0.1145 0.0
H272 H 0.65239 0.66981 0.44564 0.0
H273 H 0.65205 0.65745 0.64361 0.0
H274 H 0.69066 0.71464 0.6565 0.0
H275 H 0.72696 0.7667 0.61113 0.0
H276 H 0.72761 0.77845 0.41361 0.0
H277 H 0.68642 0.72285 0.40082 0.0
C278 C 0.66065 0.67959 0.49171 0.0
C279 C 0.64953 0.6591 0.54353 0.0
C280 C 0.68288 0.71243 0.49882 0.0
C281 C 0.66027 0.67253 0.60285 0.0
C282 C 0.6824 0.70523 0.6103 0.0
C283 C 0.71751 0.75731 0.56548 0.0
C284 C 0.72952 0.77689 0.5134 0.0
C285 C 0.69414 0.72521 0.5586 0.0
C286 C 0.718 0.76411 0.45428 0.0
C287 C 0.69468 0.73229 0.44702 0.0
H288 H 0.35991 0.66281 0.45056 0.0
H289 H 0.35995 0.65789 0.6497 0.0
H290 H 0.30647 0.70252 0.65437 0.0
H291 H 0.25921 0.74277 0.60165 0.0
H292 H 0.25899 0.74672 0.40293 0.0
H293 H 0.31314 0.70261 0.39825 0.0
C294 C 0.34837 0.67147 0.49512 0.0
C295 C 0.3641 0.65693 0.5497 0.0
C296 C 0.31747 0.69691 0.49748 0.0
C297 C 0.34853 0.66857 0.6069 0.0
C298 C 0.31789 0.6941 0.60964 0.0
C299 C 0.27101 0.73375 0.55744 0.0
C300 C 0.25496 0.74739 0.50259 0.0
C301 C 0.30205 0.70836 0.55523 0.0
C302 C 0.27073 0.7361 0.44556 0.0
C303 C 0.30165 0.71101 0.44295 0.0
H304 H 0.32164 0.34892 0.44089 0.0
H305 H 0.36247 0.3423 0.62891 0.0
H306 H 0.31898 0.29015 0.64715 0.0
H307 H 0.26458 0.25109 0.61314 0.0
H308 H 0.22282 0.25852 0.42642 0.0
H309 H 0.27181 0.30533 0.40383 0.0
C310 C 0.32136 0.33583 0.48569 0.0
C311 C 0.34487 0.35001 0.5337 0.0
C312 C 0.29595 0.30612 0.49618 0.0
C313 C 0.34447 0.33228 0.5912 0.0
C314 C 0.31953 0.30245 0.60179 0.0
C315 C 0.26665 0.26267 0.56736 0.0
C316 C 0.2399 0.2522 0.52174 0.0
C317 C 0.29442 0.28989 0.55518 0.0
C318 C 0.24299 0.26675 0.46227 0.0
C319 C 0.27083 0.29351 0.44951 0.0
H320 H 0.63958 0.33147 0.60765 0.0
H321 H 0.6504 0.3465 0.41121 0.0
H322 H 0.69428 0.29286 0.40392 0.0
H323 H 0.72533 0.23795 0.45123 0.0
H324 H 0.71412 0.22155 0.64663 0.0
H325 H 0.67514 0.27937 0.65661 0.0
C326 C 0.65198 0.32336 0.56346 0.0
C327 C 0.64125 0.34279 0.51002 0.0
C328 C 0.67694 0.29191 0.55924 0.0
C329 C 0.6577 0.33184 0.45308 0.0
C330 C 0.68285 0.30109 0.44873 0.0
C331 C 0.71458 0.24738 0.49597 0.0
C332 C 0.72192 0.22537 0.54786 0.0
C333 C 0.69193 0.28033 0.50114 0.0
C334 C 0.70835 0.2379 0.6059 0.0
C335 C 0.68606 0.2709 0.61157 0.0
H336 H 0.06305 0.14514 0.16911 0.0
H337 H 0.00059 0.05103 0.24039 0.0
H338 H 0.03707 0.05493 0.33675 0.0
H339 H 0.08538 0.08555 0.40062 0.0
H340 H 0.13954 0.18765 0.33824 0.0
H341 H 0.10913 0.17912 0.23767 0.0
C342 C 0.05772 0.12558 0.20594 0.0
C343 C 0.02966 0.09766 0.19821 0.0
C344 C 0.07758 0.12916 0.26235 0.0
C345 C 0.02227 0.07266 0.24593 0.0
C346 C 0.04308 0.07487 0.30079 0.0
C347 C 0.09009 0.10668 0.36601 0.0
C348 C 0.11475 0.13742 0.37828 0.0
C349 C 0.07052 0.10323 0.30969 0.0
C350 C 0.12137 0.16324 0.33078 0.0
C351 C 0.10354 0.15872 0.27311 0.0
H352 H 0.87654 0.9912 0.26553 0.0
H353 H 0.89918 0.09106 0.16081 0.0
H354 H 0.87971 0.13175 0.24835 0.0
H355 H 0.85851 0.13862 0.3576 0.0
H356 H 0.83334 0.03733 0.45775 0.0
H357 H 0.85108 0.99764 0.36881 0.0
C358 C 0.87714 0.02188 0.26134 0.0
C359 C 0.89031 0.03797 0.20677 0.0
C360 C 0.8653 0.04492 0.31136 0.0
C361 C 0.89031 0.07779 0.20254 0.0
C362 C 0.87883 0.10112 0.25261 0.0
C363 C 0.85645 0.10791 0.35943 0.0
C364 C 0.84535 0.09095 0.4146 0.0
C365 C 0.86663 0.08498 0.30766 0.0
C366 C 0.84266 0.05107 0.41632 0.0
C367 C 0.85267 0.02831 0.36544 0.0
H368 H 0.94894 0.85904 0.19243 0.0
H369 H 0.9922 0.96233 0.27688 0.0
H370 H 0.95649 0.95068 0.37108 0.0
H371 H 0.91481 0.90985 0.43038 0.0
H372 H 0.87502 0.80392 0.34841 0.0
H373 H 0.90668 0.81815 0.25204 0.0
C374 C 0.95039 0.87883 0.23168 0.0
C375 C 0.97347 0.91108 0.2288 0.0
C376 C 0.93024 0.87156 0.28586 0.0
C377 C 0.97517 0.93692 0.27912 0.0
C378 C 0.9546 0.93035 0.33267 0.0
C379 C 0.91323 0.8897 0.39165 0.0
C380 C 0.89255 0.85581 0.39703 0.0
C381 C 0.93247 0.89747 0.33687 0.0
C382 C 0.89019 0.83051 0.34562 0.0
C383 C 0.90861 0.83844 0.2905 0.0
H384 H 0.14925 0.95316 0.16402 0.0
H385 H 0.04829 0.99605 0.25326 0.0
H386 H 0.06401 0.96114 0.34639 0.0
H387 H 0.10789 0.921 0.40341 0.0
H388 H 0.213 0.88349 0.31886 0.0
H389 H 0.19363 0.91211 0.2221 0.0
C390 C 0.13083 0.95458 0.20402 0.0
C391 C 0.0978 0.97713 0.20274 0.0
C392 C 0.1407 0.93514 0.25781 0.0
C393 C 0.07396 0.97905 0.25419 0.0
C394 C 0.08292 0.95903 0.3071 0.0
C395 C 0.12695 0.9194 0.36427 0.0
C396 C 0.1622 0.90048 0.36926 0.0
C397 C 0.11654 0.93749 0.30976 0.0
C398 C 0.1856 0.89756 0.31676 0.0
C399 C 0.17475 0.91434 0.26141 0.0
H400 H 0.1564 0.98963 0.79235 0.0
H401 H 0.04189 0.99695 0.72136 0.0
H402 H 0.05988 0.95841 0.63056 0.0
H403 H 0.10821 0.92268 0.57133 0.0
H404 H 0.22281 0.91526 0.64202 0.0
H405 H 0.20464 0.95334 0.73343 0.0
C406 C 0.13545 0.98291 0.75684 0.0
C407 C 0.09782 0.996 0.76361 0.0
C408 C 0.14597 0.96053 0.70495 0.0
C409 C 0.07091 0.98681 0.71754 0.0
C410 C 0.08122 0.96491 0.6655 0.0
C411 C 0.12926 0.92958 0.60661 0.0
C412 C 0.16685 0.91628 0.59978 0.0
C413 C 0.11866 0.95159 0.65878 0.0
C414 C 0.19363 0.92486 0.64641 0.0
C415 C 0.18332 0.94685 0.69846 0.0
H416 H 0.016 0.07177 0.75233 0.0
H417 H 0.06164 0.16673 0.85871 0.0
H418 H 0.10342 0.18194 0.77338 0.0
H419 H 0.12436 0.17035 0.66694 0.0
H420 H 0.0828 0.07212 0.56369 0.0
H421 H 0.04165 0.0565 0.64937 0.0
C422 C 0.03518 0.09572 0.75695 0.0
C423 C 0.0354 0.11832 0.81154 0.0
C424 C 0.0597 0.10385 0.70824 0.0
C425 C 0.06075 0.14897 0.81707 0.0
C426 C 0.08467 0.1577 0.7683 0.0
C427 C 0.10708 0.14496 0.66345 0.0
C428 C 0.1065 0.12279 0.6083 0.0
C429 C 0.08414 0.13553 0.71349 0.0
C430 C 0.08327 0.09032 0.60484 0.0
C431 C 0.05988 0.08115 0.65404 0.0
H432 H 0.89706 0.06165 0.84671 0.0
H433 H 0.87936 0.95226 0.75597 0.0
H434 H 0.86075 0.98369 0.66121 0.0
H435 H 0.84737 0.04187 0.60582 0.0
H436 H 0.86729 0.15148 0.69453 0.0
H437 H 0.88633 0.12012 0.78953 0.0
C438 C 0.88926 0.04464 0.80623 0.0
C439 C 0.88938 0.00466 0.8086 0.0
C440 C 0.87862 0.0629 0.75196 0.0
C441 C 0.8793 0.98306 0.75556 0.0
C442 C 0.86863 0.00102 0.70137 0.0
C443 C 0.85654 0.05904 0.64545 0.0
C444 C 0.85619 0.09905 0.64277 0.0
C445 C 0.86795 0.04088 0.69928 0.0
C446 C 0.86702 0.1207 0.6954 0.0
C447 C 0.87811 0.10278 0.74957 0.0
H448 H 0.96998 0.84066 0.82172 0.0
H449 H 0.99729 0.95473 0.76921 0.0
H450 H 0.95861 0.94679 0.67551 0.0
H451 H 0.91725 0.90689 0.60821 0.0
H452 H 0.89078 0.79271 0.66195 0.0
H453 H 0.92829 0.80155 0.75611 0.0
C454 C 0.96755 0.86383 0.78981 0.0
C455 C 0.98699 0.89805 0.80196 0.0
C456 C 0.94513 0.85911 0.73646 0.0
C457 C 0.98325 0.92784 0.76027 0.0
C458 C 0.96095 0.92337 0.70689 0.0
C459 C 0.91985 0.88392 0.64045 0.0
C460 C 0.90113 0.84921 0.62804 0.0
C461 C 0.94189 0.88903 0.69437 0.0
C462 C 0.90437 0.8199 0.6707 0.0
C463 C 0.92608 0.82481 0.72438 0.0
H464 H 0.55253 0.64603 0.72862 0.0
H465 H 0.54121 0.5255 0.75322 0.0
H466 H 0.57933 0.52989 0.84823 0.0
H467 H 0.61286 0.56891 0.92714 0.0
H468 H 0.62451 0.68957 0.9023 0.0
H469 H 0.5896 0.68445 0.80447 0.0
C470 C 0.55883 0.62085 0.7548 0.0
C471 C 0.54433 0.58557 0.7348 0.0
C472 C 0.58059 0.62371 0.8093 0.0
C473 C 0.55232 0.55291 0.76839 0.0
C474 C 0.57395 0.55545 0.82258 0.0
C475 C 0.6078 0.594 0.9001 0.0
C476 C 0.62104 0.62956 0.92189 0.0
C477 C 0.58772 0.59082 0.844 0.0
C478 C 0.61478 0.66184 0.88619 0.0
C479 C 0.59466 0.65897 0.83047 0.0
H480 H 0.40947 0.58286 0.7056 0.0
H481 H 0.35921 0.47706 0.75926 0.0
H482 H 0.33375 0.50791 0.85171 0.0
H483 H 0.32661 0.56402 0.91876 0.0
H484 H 0.37673 0.67034 0.86853 0.0
H485 H 0.40062 0.64045 0.77244 0.0
C486 C 0.39305 0.56657 0.73741 0.0
C487 C 0.38689 0.5275 0.72555 0.0
C488 C 0.37819 0.58463 0.79095 0.0
C489 C 0.36487 0.50705 0.76719 0.0
C490 C 0.35014 0.52467 0.82021 0.0
C491 C 0.343 0.58065 0.88703 0.0
C492 C 0.35039 0.61915 0.90113 0.0
C493 C 0.35688 0.56328 0.83277 0.0
C494 C 0.37069 0.64061 0.85867 0.0
C495 C 0.38452 0.62347 0.80399 0.0
H496 H 0.45625 0.44997 0.74248 0.0
H497 H 0.46177 0.33818 0.65684 0.0
H498 H 0.42061 0.31323 0.73732 0.0
H499 H 0.38722 0.32273 0.83649 0.0
H500 H 0.38455 0.43428 0.92407 0.0
H501 H 0.42021 0.46016 0.83838 0.0
C502 C 0.44798 0.42026 0.74144 0.0
C503 C 0.46161 0.39574 0.69454 0.0
C504 C 0.42488 0.40627 0.78805 0.0
C505 C 0.45141 0.35727 0.69315 0.0
C506 C 0.4279 0.34314 0.7389 0.0
C507 C 0.39364 0.35286 0.83576 0.0
C508 C 0.38332 0.37668 0.88605 0.0
C509 C 0.41489 0.36729 0.78707 0.0
C510 C 0.3923 0.41555 0.88556 0.0
C511 C 0.41275 0.43028 0.83681 0.0
H512 H 0.5668 0.43844 0.7262 0.0
H513 H 0.67667 0.48441 0.68591 0.0
H514 H 0.70539 0.44753 0.76862 0.0
H515 H 0.69783 0.4072 0.85881 0.0
H516 H 0.58706 0.36535 0.90427 0.0
H517 H 0.55989 0.39451 0.81208 0.0
C518 C 0.59717 0.43914 0.73421 0.0
C519 C 0.61983 0.46322 0.69953 0.0
C520 C 0.61313 0.41873 0.7829 0.0
C521 C 0.6589 0.46569 0.71205 0.0
C522 C 0.67525 0.4447 0.75925 0.0
C523 C 0.66797 0.40376 0.84732 0.0
C524 C 0.64439 0.38393 0.8871 0.0
C525 C 0.6525 0.42178 0.79582 0.0
C526 C 0.60558 0.38022 0.87337 0.0
C527 C 0.59011 0.39706 0.8211 0.0
H528 H 0.63162 0.51642 0.25913 0.0
H529 H 0.6286 0.41872 0.37548 0.0
H530 H 0.64289 0.37683 0.28719 0.0
H531 H 0.65507 0.36768 0.17654 0.0
H532 H 0.66142 0.46553 0.06078 0.0
H533 H 0.64663 0.50745 0.149 0.0
C534 C 0.63417 0.48598 0.26518 0.0
C535 C 0.62874 0.47072 0.32382 0.0
C536 C 0.64279 0.462 0.21419 0.0
C537 C 0.63234 0.43122 0.33086 0.0
C538 C 0.64058 0.40719 0.28035 0.0
C539 C 0.65371 0.39819 0.17067 0.0
C540 C 0.65912 0.41328 0.1119 0.0
C541 C 0.64575 0.42225 0.22177 0.0
C542 C 0.65666 0.45296 0.10516 0.0
C543 C 0.64844 0.47705 0.1557 0.0
H544 H 0.52738 0.56595 0.29927 0.0
H545 H 0.57225 0.6648 0.39634 0.0
H546 H 0.61504 0.67631 0.31058 0.0
H547 H 0.63577 0.66128 0.20542 0.0
H548 H 0.59476 0.55983 0.11041 0.0
H549 H 0.55403 0.54656 0.19807 0.0
C550 C 0.54656 0.58999 0.30153 0.0
C551 C 0.54615 0.61496 0.35338 0.0
C552 C 0.57152 0.59609 0.25246 0.0
C553 C 0.57177 0.64542 0.35658 0.0
C554 C 0.59622 0.65202 0.30758 0.0
C555 C 0.6188 0.63565 0.20412 0.0
C556 C 0.61825 0.61183 0.15073 0.0
C557 C 0.59589 0.62788 0.25493 0.0
C558 C 0.59525 0.57919 0.15014 0.0
C559 C 0.57202 0.57148 0.20039 0.0
H560 H 0.34558 0.50168 0.27243 0.0
H561 H 0.37244 0.60027 0.38715 0.0
H562 H 0.3603 0.64169 0.30048 0.0
H563 H 0.34512 0.64959 0.19036 0.0
H564 H 0.31738 0.55077 0.07667 0.0
H565 H 0.3271 0.50983 0.16451 0.0
C566 C 0.3486 0.53224 0.27863 0.0
C567 C 0.36013 0.5478 0.33614 0.0
C568 C 0.34171 0.55588 0.22856 0.0
C569 C 0.36373 0.5875 0.34335 0.0
C570 C 0.35683 0.61124 0.29375 0.0
C571 C 0.34072 0.61916 0.18506 0.0
C572 C 0.33101 0.60326 0.12685 0.0
C573 C 0.34621 0.5957 0.23592 0.0
C574 C 0.32565 0.5637 0.12066 0.0
C575 C 0.33098 0.54025 0.17094 0.0
H576 H 0.50031 0.37304 0.26018 0.0
H577 H 0.40111 0.40343 0.3672 0.0
H578 H 0.36025 0.38812 0.2785 0.0
H579 H 0.35308 0.36854 0.16861 0.0
H580 H 0.45288 0.33893 0.06264 0.0
H581 H 0.49315 0.35135 0.15291 0.0
C582 C 0.46975 0.37624 0.26428 0.0
C583 C 0.45381 0.38953 0.32017 0.0
C584 C 0.44653 0.36752 0.21317 0.0
C585 C 0.41412 0.3933 0.32468 0.0
C586 C 0.39073 0.38456 0.27395 0.0
C587 C 0.38359 0.36439 0.16574 0.0
C588 C 0.40009 0.35316 0.10917 0.0
C589 C 0.40665 0.37192 0.21777 0.0
C590 C 0.43966 0.34807 0.10565 0.0
C591 C 0.46267 0.35509 0.15718 0.0
loop_
_geom_bond_atom_site_label_1
_geom_bond_atom_site_label_2
_geom_bond_distance
_geom_bond_site_symmetry_2
_ccdc_geom_bond_type
Zn0 O2 1.933 1_556 S
Zn0 O20 1.985 . S
Zn0 O31 1.955 . S
Zn1 O2 1.911 . S
Zn1 O21 1.970 . S
Zn1 O37 1.945 . S
Zn1 O44 1.981 . S
O2 Zn0 1.933 1_554 S
O2 Zn1 1.911 . S
O2 H3 0.841 1_655 S
H3 O2 0.841 1_455 S
C4 O5 1.246 . S
C4 O33 1.276 1_545 S
O5 C4 1.246 . S
Zn6 O8 1.911 . S
Zn6 O23 1.970 . S
Zn6 O40 1.945 . S
Zn6 O47 1.981 . S
Zn7 O8 1.933 1_556 S
Zn7 O22 1.985 . S
Zn7 O29 1.955 . S
O8 Zn6 1.911 . S
O8 Zn7 1.933 1_554 S
O8 H9 0.841 1_455 S
H9 O8 0.841 1_655 S
Zn10 O11 1.933 1_556 S
Zn10 O24 1.985 . S
Zn10 O33 1.955 . S
O11 Zn10 1.933 1_554 S
O11 Zn12 1.911 . S
O11 H13 0.841 1_565 S
Zn12 O11 1.911 . S
Zn12 O25 1.970 . S
Zn12 O41 1.981 . S
Zn12 O43 1.945 . S
H13 O11 0.841 1_545 S
Zn14 O15 1.933 1_556 S
Zn14 O27 1.985 . S
Zn14 O35 1.955 . S
O15 Zn14 1.933 1_554 S
O15 H16 0.841 1_545 S
O15 Zn17 1.911 . S
H16 O15 0.841 1_565 S
Zn17 O15 1.911 . S
Zn17 O28 1.970 . S
Zn17 O38 1.981 . S
Zn17 O46 1.945 . S
C18 O19 1.246 . S
C18 O35 1.276 1_565 S
O19 C18 1.246 . S
O20 Zn0 1.985 . S
O20 C30 1.245 1_556 S
O21 Zn1 1.970 . S
O21 C30 1.263 . S
O22 Zn7 1.985 . S
O22 C34 1.245 1_556 S
O23 Zn6 1.970 . S
O23 C34 1.263 . S
O24 Zn10 1.985 . S
O24 C39 1.245 1_556 S
O25 Zn12 1.970 . S
O25 C39 1.263 . S
C26 O37 1.262 1_455 S
C26 O38 1.245 . S
O27 Zn14 1.985 . S
O27 C45 1.245 1_556 S
O28 Zn17 1.970 . S
O28 C45 1.263 . S
O29 Zn7 1.955 . S
O29 C48 1.276 1_455 S
C30 O20 1.245 1_554 S
C30 O21 1.263 . S
O31 Zn0 1.955 . S
O31 C50 1.276 1_655 S
C32 O40 1.262 1_655 S
C32 O41 1.245 . S
O33 C4 1.276 1_565 S
O33 Zn10 1.955 . S
C34 O22 1.245 1_554 S
C34 O23 1.263 . S
O35 Zn14 1.955 . S
O35 C18 1.276 1_545 S
C36 O43 1.262 1_545 S
C36 O44 1.245 . S
O37 Zn1 1.945 . S
O37 C26 1.262 1_655 S
O38 Zn17 1.981 . S
O38 C26 1.245 . S
C39 O24 1.245 1_554 S
C39 O25 1.263 . S
O40 Zn6 1.945 . S
O40 C32 1.262 1_455 S
O41 Zn12 1.981 . S
O41 C32 1.245 . S
C42 O46 1.262 1_565 S
C42 O47 1.245 . S
O43 Zn12 1.945 . S
O43 C36 1.262 1_565 S
O44 Zn1 1.981 . S
O44 C36 1.245 . S
C45 O27 1.245 1_554 S
C45 O28 1.263 . S
O46 Zn17 1.945 . S
O46 C42 1.262 1_545 S
O47 Zn6 1.981 . S
O47 C42 1.245 . S
C48 O29 1.276 1_655 S
C48 O49 1.246 . S
O49 C48 1.246 . S
C50 O31 1.276 1_455 S
C50 O51 1.246 . S
O51 C50 1.246 . S
Zn52 O54 1.933 . S
Zn52 O72 1.985 . S
Zn52 O83 1.955 . S
Zn53 O54 1.911 . S
Zn53 O73 1.970 . S
Zn53 O89 1.945 . S
Zn53 O96 1.981 . S
O54 Zn52 1.933 . S
O54 Zn53 1.911 . S
O54 H55 0.841 . S
H55 O54 0.841 . S
C56 O57 1.246 . S
C56 O85 1.276 . S
O57 C56 1.246 . S
Zn58 O60 1.911 . S
Zn58 O75 1.970 . S
Zn58 O92 1.945 . S
Zn58 O99 1.981 . S
Zn59 O60 1.933 . S
Zn59 O74 1.985 . S
Zn59 O81 1.955 . S
O60 Zn58 1.911 . S
O60 Zn59 1.933 . S
O60 H61 0.841 . S
H61 O60 0.841 . S
Zn62 O63 1.933 . S
Zn62 O76 1.985 . S
Zn62 O85 1.955 . S
O63 Zn62 1.933 . S
O63 Zn64 1.911 . S
O63 H65 0.841 . S
Zn64 O63 1.911 . S
Zn64 O77 1.970 . S
Zn64 O93 1.981 . S
Zn64 O95 1.945 . S
H65 O63 0.841 . S
Zn66 O67 1.933 . S
Zn66 O79 1.985 . S
Zn66 O87 1.955 . S
O67 Zn66 1.933 . S
O67 H68 0.841 . S
O67 Zn69 1.911 . S
H68 O67 0.841 . S
Zn69 O67 1.911 . S
Zn69 O80 1.970 . S
Zn69 O90 1.981 . S
Zn69 O98 1.945 . S
C70 O71 1.246 . S
C70 O87 1.276 . S
O71 C70 1.246 . S
O72 Zn52 1.985 . S
O72 C82 1.245 . S
O73 Zn53 1.970 . S
O73 C82 1.263 . S
O74 Zn59 1.985 . S
O74 C86 1.245 . S
O75 Zn58 1.970 . S
O75 C86 1.263 . S
O76 Zn62 1.985 . S
O76 C91 1.245 . S
O77 Zn64 1.970 . S
O77 C91 1.263 . S
C78 O89 1.262 . S
C78 O90 1.245 . S
O79 Zn66 1.985 . S
O79 C97 1.245 . S
O80 Zn69 1.970 . S
O80 C97 1.263 . S
O81 Zn59 1.955 . S
O81 C100 1.276 . S
C82 O72 1.245 . S
C82 O73 1.263 . S
O83 Zn52 1.955 . S
O83 C102 1.276 . S
C84 O92 1.262 . S
C84 O93 1.245 . S
O85 C56 1.276 . S
O85 Zn62 1.955 . S
C86 O74 1.245 . S
C86 O75 1.263 . S
O87 Zn66 1.955 . S
O87 C70 1.276 . S
C88 O95 1.262 . S
C88 O96 1.245 . S
O89 Zn53 1.945 . S
O89 C78 1.262 . S
O90 Zn69 1.981 . S
O90 C78 1.245 . S
C91 O76 1.245 . S
C91 O77 1.263 . S
O92 Zn58 1.945 . S
O92 C84 1.262 . S
O93 Zn64 1.981 . S
O93 C84 1.245 . S
C94 O98 1.262 . S
C94 O99 1.245 . S
O95 Zn64 1.945 . S
O95 C88 1.262 . S
O96 Zn53 1.981 . S
O96 C88 1.245 . S
C97 O79 1.245 . S
C97 O80 1.263 . S
O98 Zn69 1.945 . S
O98 C94 1.262 . S
O99 Zn58 1.981 . S
O99 C94 1.245 . S
C100 O81 1.276 . S
C100 O101 1.246 . S
O101 C100 1.246 . S
C102 O83 1.276 . S
C102 O103 1.246 . S
O103 C102 1.246 . S
H104 C111 0.929 . S
H105 C114 0.930 . S
H106 C116 0.929 . S
H107 C108 0.969 . S
C108 H107 0.969 . S
C108 O109 1.550 1_554 S
C108 H110 0.973 . S
O109 C108 1.550 1_556 S
O109 C115 1.412 1_556 S
H110 C108 0.973 . S
C111 H104 0.929 . S
C111 C112 1.400 1_554 S
C111 C113 1.364 . S
C112 C111 1.400 1_556 S
C112 C116 1.377 . S
C113 C111 1.364 . S
C113 C114 1.374 . S
C114 H105 0.930 . S
C114 C113 1.374 . S
C114 C115 1.383 . S
C115 O109 1.412 1_554 S
C115 C114 1.383 . S
C115 C116 1.394 1_554 S
C116 H106 0.929 . S
C116 C112 1.377 . S
C116 C115 1.394 1_556 S
H117 C124 0.929 . S
H118 C127 0.930 . S
H119 C129 0.929 . S
H120 C121 0.969 . S
C121 H120 0.969 . S
C121 O122 1.550 1_554 S
C121 H123 0.973 . S
O122 C121 1.550 1_556 S
O122 C128 1.412 1_556 S
H123 C121 0.973 . S
C124 H117 0.929 . S
C124 C125 1.400 1_554 S
C124 C126 1.364 . S
C125 C124 1.400 1_556 S
C125 C129 1.377 . S
C126 C124 1.364 . S
C126 C127 1.374 . S
C127 H118 0.930 . S
C127 C126 1.374 . S
C127 C128 1.383 . S
C128 O122 1.412 1_554 S
C128 C127 1.383 . S
C128 C129 1.394 1_554 S
C129 H119 0.929 . S
C129 C125 1.377 . S
C129 C128 1.394 1_556 S
H130 C137 0.929 . S
H131 C140 0.930 . S
H132 C142 0.929 . S
H133 C134 0.969 . S
C134 H133 0.969 . S
C134 O135 1.550 1_556 S
C134 H136 0.973 . S
O135 C134 1.550 1_554 S
O135 C141 1.412 . S
H136 C134 0.973 . S
C137 H130 0.929 . S
C137 C138 1.400 . S
C137 C139 1.364 1_554 S
C138 C137 1.400 . S
C138 C142 1.377 . S
C139 C137 1.364 1_556 S
C139 C140 1.374 . S
C140 H131 0.930 . S
C140 C139 1.374 . S
C140 C141 1.383 1_556 S
C141 O135 1.412 . S
C141 C140 1.383 1_554 S
C141 C142 1.394 . S
C142 H132 0.929 . S
C142 C138 1.377 . S
C142 C141 1.394 . S
H143 C150 0.929 . S
H144 C153 0.930 . S
H145 C155 0.929 . S
H146 C147 0.969 . S
C147 H146 0.969 . S
C147 O148 1.550 1_554 S
C147 H149 0.973 . S
O148 C147 1.550 1_556 S
O148 C154 1.412 1_556 S
H149 C147 0.973 . S
C150 H143 0.929 . S
C150 C151 1.400 1_554 S
C150 C152 1.364 . S
C151 C150 1.400 1_556 S
C151 C155 1.377 . S
C152 C150 1.364 . S
C152 C153 1.374 . S
C153 H144 0.930 . S
C153 C152 1.374 . S
C153 C154 1.383 . S
C154 O148 1.412 1_554 S
C154 C153 1.383 . S
C154 C155 1.394 1_554 S
C155 H145 0.929 . S
C155 C151 1.377 . S
C155 C154 1.394 1_556 S
H156 C163 0.929 . S
H157 C166 0.930 . S
H158 C168 0.929 . S
H159 C160 0.969 . S
C160 H159 0.969 . S
C160 O161 1.550 . S
C160 H162 0.973 . S
O161 C160 1.550 . S
O161 C167 1.412 . S
H162 C160 0.973 . S
C163 H156 0.929 . S
C163 C164 1.400 . S
C163 C165 1.364 . S
C164 C163 1.400 . S
C164 C168 1.377 . S
C165 C163 1.364 . S
C165 C166 1.374 . S
C166 H157 0.930 . S
C166 C165 1.374 . S
C166 C167 1.383 . S
C167 O161 1.412 . S
C167 C166 1.383 . S
C167 C168 1.394 . S
C168 H158 0.929 . S
C168 C164 1.377 . S
C168 C167 1.394 . S
H169 C176 0.929 . S
H170 C179 0.930 . S
H171 C181 0.929 . S
H172 C173 0.969 . S
C173 H172 0.969 . S
C173 O174 1.550 . S
C173 H175 0.973 . S
O174 C173 1.550 . S
O174 C180 1.412 . S
H175 C173 0.973 . S
C176 H169 0.929 . S
C176 C177 1.400 . S
C176 C178 1.364 . S
C177 C176 1.400 . S
C177 C181 1.377 . S
C178 C176 1.364 . S
C178 C179 1.374 . S
C179 H170 0.930 . S
C179 C178 1.374 . S
C179 C180 1.383 . S
C180 O174 1.412 . S
C180 C179 1.383 . S
C180 C181 1.394 . S
C181 H171 0.929 . S
C181 C177 1.377 . S
C181 C180 1.394 . S
H182 C189 0.929 . S
H183 C192 0.930 . S
H184 C194 0.929 . S
H185 C186 0.969 . S
C186 H185 0.969 . S
C186 O187 1.550 . S
C186 H188 0.973 . S
O187 C186 1.550 . S
O187 C193 1.412 . S
H188 C186 0.973 . S
C189 H182 0.929 . S
C189 C190 1.400 . S
C189 C191 1.364 . S
C190 C189 1.400 . S
C190 C194 1.377 . S
C191 C189 1.364 . S
C191 C192 1.374 . S
C192 H183 0.930 . S
C192 C191 1.374 . S
C192 C193 1.383 . S
C193 O187 1.412 . S
C193 C192 1.383 . S
C193 C194 1.394 . S
C194 H184 0.929 . S
C194 C190 1.377 . S
C194 C193 1.394 . S
H195 C202 0.929 . S
H196 C205 0.930 . S
H197 C207 0.929 . S
H198 C199 0.969 . S
C199 H198 0.969 . S
C199 O200 1.550 . S
C199 H201 0.973 . S
O200 C199 1.550 . S
O200 C206 1.412 . S
H201 C199 0.973 . S
C202 H195 0.929 . S
C202 C203 1.400 . S
C202 C204 1.364 . S
C203 C202 1.400 . S
C203 C207 1.377 . S
C204 C202 1.364 . S
C204 C205 1.374 . S
C205 H196 0.930 . S
C205 C204 1.374 . S
C205 C206 1.383 . S
C206 O200 1.412 . S
C206 C205 1.383 . S
C206 C207 1.394 . S
C207 H197 0.929 . S
C207 C203 1.377 . S
C207 C206 1.394 . S
H208 C214 0.930 . S
H209 C217 0.930 . S
H210 C218 0.930 . S
H211 C219 0.930 . S
H212 C222 0.930 . S
H213 C223 0.929 1_556 S
C214 H208 0.930 . S
C214 C215 1.355 . S
C214 C216 1.415 . S
C215 C214 1.355 . S
C215 C217 1.419 . S
C216 C214 1.415 . S
C216 C221 1.425 . S
C216 C223 1.409 . S
C217 H209 0.930 . S
C217 C215 1.419 . S
C217 C218 1.362 . S
C218 H210 0.930 . S
C218 C217 1.362 . S
C218 C221 1.409 . S
C219 H211 0.930 . S
C219 C220 1.355 . S
C219 C221 1.415 . S
C220 C219 1.355 . S
C220 C222 1.419 . S
C221 C216 1.425 . S
C221 C218 1.409 . S
C221 C219 1.415 . S
C222 H212 0.930 . S
C222 C220 1.419 . S
C222 C223 1.362 . S
C223 H213 0.929 1_554 S
C223 C216 1.409 . S
C223 C222 1.362 . S
H224 C230 0.930 . S
H225 C233 0.926 1_556 S
H226 C234 0.930 1_556 S
H227 C235 0.930 . S
H228 C238 0.930 . S
H229 C239 0.930 . S
C230 H224 0.930 . S
C230 C231 1.355 . S
C230 C232 1.415 . S
C231 C230 1.355 . S
C231 C233 1.419 . S
C232 C230 1.415 . S
C232 C237 1.425 . S
C232 C239 1.409 . S
C233 H225 0.926 1_554 S
C233 C231 1.419 . S
C233 C234 1.362 . S
C234 H226 0.930 1_554 S
C234 C233 1.362 . S
C234 C237 1.409 . S
C235 H227 0.930 . S
C235 C236 1.355 . S
C235 C237 1.415 . S
C236 C235 1.355 . S
C236 C238 1.419 . S
C237 C232 1.425 . S
C237 C234 1.409 . S
C237 C235 1.415 . S
C238 H228 0.930 . S
C238 C236 1.419 . S
C238 C239 1.362 . S
C239 H229 0.930 . S
C239 C232 1.409 . S
C239 C238 1.362 . S
H240 C246 0.930 . S
H241 C249 0.930 . S
H242 C250 0.930 . S
H243 C251 0.930 . S
H244 C254 0.930 . S
H245 C255 0.930 . S
C246 H240 0.930 . S
C246 C247 1.355 1_556 S
C246 C248 1.415 . S
C247 C246 1.355 1_554 S
C247 C249 1.419 . S
C248 C246 1.415 . S
C248 C253 1.425 1_556 S
C248 C255 1.409 . S
C249 H241 0.930 . S
C249 C247 1.419 . S
C249 C250 1.362 . S
C250 H242 0.930 . S
C250 C249 1.362 . S
C250 C253 1.409 . S
C251 H243 0.930 . S
C251 C252 1.355 . S
C251 C253 1.415 . S
C252 C251 1.355 . S
C252 C254 1.419 1_554 S
C253 C248 1.425 1_554 S
C253 C250 1.409 . S
C253 C251 1.415 . S
C254 H244 0.930 . S
C254 C252 1.419 1_556 S
C254 C255 1.362 . S
C255 H245 0.930 . S
C255 C248 1.409 . S
C255 C254 1.362 . S
H256 C262 0.930 . S
H257 C265 0.930 . S
H258 C266 0.930 . S
H259 C267 0.930 1_556 S
H260 C270 0.930 . S
H261 C271 0.930 . S
C262 H256 0.930 . S
C262 C263 1.355 . S
C262 C264 1.415 . S
C263 C262 1.355 . S
C263 C265 1.419 1_554 S
C264 C262 1.415 . S
C264 C269 1.425 . S
C264 C271 1.409 . S
C265 H257 0.930 . S
C265 C263 1.419 1_556 S
C265 C266 1.362 . S
C266 H258 0.930 . S
C266 C265 1.362 . S
C266 C269 1.409 1_556 S
C267 H259 0.930 1_554 S
C267 C268 1.355 . S
C267 C269 1.415 . S
C268 C267 1.355 . S
C268 C270 1.419 . S
C269 C264 1.425 . S
C269 C266 1.409 1_554 S
C269 C267 1.415 . S
C270 H260 0.930 . S
C270 C268 1.419 . S
C270 C271 1.362 . S
C271 H261 0.930 . S
C271 C264 1.409 . S
C271 C270 1.362 . S
H272 C278 0.930 . S
H273 C281 0.930 . S
H274 C282 0.930 . S
H275 C283 0.930 . S
H276 C286 0.930 . S
H277 C287 0.930 . S
C278 H272 0.930 . S
C278 C279 1.355 . S
C278 C280 1.415 . S
C279 C278 1.355 . S
C279 C281 1.419 . S
C280 C278 1.415 . S
C280 C285 1.425 . S
C280 C287 1.409 . S
C281 H273 0.930 . S
C281 C279 1.419 . S
C281 C282 1.362 . S
C282 H274 0.930 . S
C282 C281 1.362 . S
C282 C285 1.409 . S
C283 H275 0.930 . S
C283 C284 1.355 . S
C283 C285 1.415 . S
C284 C283 1.355 . S
C284 C286 1.419 . S
C285 C280 1.425 . S
C285 C282 1.409 . S
C285 C283 1.415 . S
C286 H276 0.930 . S
C286 C284 1.419 . S
C286 C287 1.362 . S
C287 H277 0.930 . S
C287 C280 1.409 . S
C287 C286 1.362 . S
H288 C294 0.930 . S
H289 C297 0.930 . S
H290 C298 0.930 . S
H291 C299 0.930 . S
H292 C302 0.930 . S
H293 C303 0.930 . S
C294 H288 0.930 . S
C294 C295 1.355 . S
C294 C296 1.415 . S
C295 C294 1.355 . S
C295 C297 1.419 . S
C296 C294 1.415 . S
C296 C301 1.425 . S
C296 C303 1.409 . S
C297 H289 0.930 . S
C297 C295 1.419 . S
C297 C298 1.362 . S
C298 H290 0.930 . S
C298 C297 1.362 . S
C298 C301 1.409 . S
C299 H291 0.930 . S
C299 C300 1.355 . S
C299 C301 1.415 . S
C300 C299 1.355 . S
C300 C302 1.419 . S
C301 C296 1.425 . S
C301 C298 1.409 . S
C301 C299 1.415 . S
C302 H292 0.930 . S
C302 C300 1.419 . S
C302 C303 1.362 . S
C303 H293 0.930 . S
C303 C296 1.409 . S
C303 C302 1.362 . S
H304 C310 0.930 . S
H305 C313 0.930 . S
H306 C314 0.930 . S
H307 C315 0.930 . S
H308 C318 0.930 . S
H309 C319 0.930 . S
C310 H304 0.930 . S
C310 C311 1.355 . S
C310 C312 1.415 . S
C311 C310 1.355 . S
C311 C313 1.419 . S
C312 C310 1.415 . S
C312 C317 1.425 . S
C312 C319 1.409 . S
C313 H305 0.930 . S
C313 C311 1.419 . S
C313 C314 1.362 . S
C314 H306 0.930 . S
C314 C313 1.362 . S
C314 C317 1.409 . S
C315 H307 0.930 . S
C315 C316 1.355 . S
C315 C317 1.415 . S
C316 C315 1.355 . S
C316 C318 1.419 . S
C317 C312 1.425 . S
C317 C314 1.409 . S
C317 C315 1.415 . S
C318 H308 0.930 . S
C318 C316 1.419 . S
C318 C319 1.362 . S
C319 H309 0.930 . S
C319 C312 1.409 . S
C319 C318 1.362 . S
H320 C326 0.930 . S
H321 C329 0.930 . S
H322 C330 0.930 . S
H323 C331 0.930 . S
H324 C334 0.930 . S
H325 C335 0.930 . S
C326 H320 0.930 . S
C326 C327 1.355 . S
C326 C328 1.415 . S
C327 C326 1.355 . S
C327 C329 1.419 . S
C328 C326 1.415 . S
C328 C333 1.425 . S
C328 C335 1.409 . S
C329 H321 0.930 . S
C329 C327 1.419 . S
C329 C330 1.362 . S
C330 H322 0.930 . S
C330 C329 1.362 . S
C330 C333 1.409 . S
C331 H323 0.930 . S
C331 C332 1.355 . S
C331 C333 1.415 . S
C332 C331 1.355 . S
C332 C334 1.419 . S
C333 C328 1.425 . S
C333 C330 1.409 . S
C333 C331 1.415 . S
C334 H324 0.930 . S
C334 C332 1.419 . S
C334 C335 1.362 . S
C335 H325 0.930 . S
C335 C328 1.409 . S
C335 C334 1.362 . S
H336 C342 0.930 . S
H337 C345 0.930 . S
H338 C346 0.930 . S
H339 C347 0.930 . S
H340 C350 0.930 . S
H341 C351 0.930 . S
C342 H336 0.930 . S
C342 C343 1.355 . S
C342 C344 1.415 . S
C343 C342 1.355 . S
C343 C345 1.419 . S
C344 C342 1.415 . S
C344 C349 1.425 . S
C344 C351 1.409 . S
C345 H337 0.930 . S
C345 C343 1.419 . S
C345 C346 1.362 . S
C346 H338 0.930 . S
C346 C345 1.362 . S
C346 C349 1.409 . S
C347 H339 0.930 . S
C347 C348 1.355 . S
C347 C349 1.415 . S
C348 C347 1.355 . S
C348 C350 1.419 . S
C349 C344 1.425 . S
C349 C346 1.409 . S
C349 C347 1.415 . S
C350 H340 0.930 . S
C350 C348 1.419 . S
C350 C351 1.362 . S
C351 H341 0.930 . S
C351 C344 1.409 . S
C351 C350 1.362 . S
H352 C358 0.930 . S
H353 C361 0.930 . S
H354 C362 0.930 . S
H355 C363 0.930 . S
H356 C366 0.930 . S
H357 C367 0.930 . S
C358 H352 0.930 . S
C358 C359 1.355 . S
C358 C360 1.415 . S
C359 C358 1.355 . S
C359 C361 1.419 . S
C360 C358 1.415 . S
C360 C365 1.425 . S
C360 C367 1.409 . S
C361 H353 0.930 . S
C361 C359 1.419 . S
C361 C362 1.362 . S
C362 H354 0.930 . S
C362 C361 1.362 . S
C362 C365 1.409 . S
C363 H355 0.930 . S
C363 C364 1.355 . S
C363 C365 1.415 . S
C364 C363 1.355 . S
C364 C366 1.419 . S
C365 C360 1.425 . S
C365 C362 1.409 . S
C365 C363 1.415 . S
C366 H356 0.930 . S
C366 C364 1.419 . S
C366 C367 1.362 . S
C367 H357 0.930 . S
C367 C360 1.409 . S
C367 C366 1.362 . S
H368 C374 0.930 . S
H369 C377 0.930 . S
H370 C378 0.930 . S
H371 C379 0.930 . S
H372 C382 0.930 . S
H373 C383 0.930 . S
C374 H368 0.930 . S
C374 C375 1.355 . S
C374 C376 1.415 . S
C375 C374 1.355 . S
C375 C377 1.419 . S
C376 C374 1.415 . S
C376 C381 1.425 . S
C376 C383 1.409 . S
C377 H369 0.930 . S
C377 C375 1.419 . S
C377 C378 1.362 . S
C378 H370 0.930 . S
C378 C377 1.362 . S
C378 C381 1.409 . S
C379 H371 0.930 . S
C379 C380 1.355 . S
C379 C381 1.415 . S
C380 C379 1.355 . S
C380 C382 1.419 . S
C381 C376 1.425 . S
C381 C378 1.409 . S
C381 C379 1.415 . S
C382 H372 0.930 . S
C382 C380 1.419 . S
C382 C383 1.362 . S
C383 H373 0.930 . S
C383 C376 1.409 . S
C383 C382 1.362 . S
H384 C390 0.930 . S
H385 C393 0.930 . S
H386 C394 0.930 . S
H387 C395 0.930 . S
H388 C398 0.930 . S
H389 C399 0.930 . S
C390 H384 0.930 . S
C390 C391 1.355 . S
C390 C392 1.415 . S
C391 C390 1.355 . S
C391 C393 1.419 . S
C392 C390 1.415 . S
C392 C397 1.425 . S
C392 C399 1.409 . S
C393 H385 0.930 . S
C393 C391 1.419 . S
C393 C394 1.362 . S
C394 H386 0.930 . S
C394 C393 1.362 . S
C394 C397 1.409 . S
C395 H387 0.930 . S
C395 C396 1.355 . S
C395 C397 1.415 . S
C396 C395 1.355 . S
C396 C398 1.419 . S
C397 C392 1.425 . S
C397 C394 1.409 . S
C397 C395 1.415 . S
C398 H388 0.930 . S
C398 C396 1.419 . S
C398 C399 1.362 . S
C399 H389 0.930 . S
C399 C392 1.409 . S
C399 C398 1.362 . S
H400 C406 0.930 . S
H401 C409 0.930 . S
H402 C410 0.930 . S
H403 C411 0.930 . S
H404 C414 0.930 . S
H405 C415 0.930 . S
C406 H400 0.930 . S
C406 C407 1.355 . S
C406 C408 1.415 . S
C407 C406 1.355 . S
C407 C409 1.419 . S
C408 C406 1.415 . S
C408 C413 1.425 . S
C408 C415 1.409 . S
C409 H401 0.930 . S
C409 C407 1.419 . S
C409 C410 1.362 . S
C410 H402 0.930 . S
C410 C409 1.362 . S
C410 C413 1.409 . S
C411 H403 0.930 . S
C411 C412 1.355 . S
C411 C413 1.415 . S
C412 C411 1.355 . S
C412 C414 1.419 . S
C413 C408 1.425 . S
C413 C410 1.409 . S
C413 C411 1.415 . S
C414 H404 0.930 . S
C414 C412 1.419 . S
C414 C415 1.362 . S
C415 H405 0.930 . S
C415 C408 1.409 . S
C415 C414 1.362 . S
H416 C422 0.930 . S
H417 C425 0.930 . S
H418 C426 0.930 . S
H419 C427 0.930 . S
H420 C430 0.930 . S
H421 C431 0.930 . S
C422 H416 0.930 . S
C422 C423 1.355 . S
C422 C424 1.415 . S
C423 C422 1.355 . S
C423 C425 1.419 . S
C424 C422 1.415 . S
C424 C429 1.425 . S
C424 C431 1.409 . S
C425 H417 0.930 . S
C425 C423 1.419 . S
C425 C426 1.362 . S
C426 H418 0.930 . S
C426 C425 1.362 . S
C426 C429 1.409 . S
C427 H419 0.930 . S
C427 C428 1.355 . S
C427 C429 1.415 . S
C428 C427 1.355 . S
C428 C430 1.419 . S
C429 C424 1.425 . S
C429 C426 1.409 . S
C429 C427 1.415 . S
C430 H420 0.930 . S
C430 C428 1.419 . S
C430 C431 1.362 . S
C431 H421 0.930 . S
C431 C424 1.409 . S
C431 C430 1.362 . S
H432 C438 0.930 . S
H433 C441 0.930 . S
H434 C442 0.930 . S
H435 C443 0.930 . S
H436 C446 0.930 . S
H437 C447 0.930 . S
C438 H432 0.930 . S
C438 C439 1.355 . S
C438 C440 1.415 . S
C439 C438 1.355 . S
C439 C441 1.419 . S
C440 C438 1.415 . S
C440 C445 1.425 . S
C440 C447 1.409 . S
C441 H433 0.930 . S
C441 C439 1.419 . S
C441 C442 1.362 . S
C442 H434 0.930 . S
C442 C441 1.362 . S
C442 C445 1.409 . S
C443 H435 0.930 . S
C443 C444 1.355 . S
C443 C445 1.415 . S
C444 C443 1.355 . S
C444 C446 1.419 . S
C445 C440 1.425 . S
C445 C442 1.409 . S
C445 C443 1.415 . S
C446 H436 0.930 . S
C446 C444 1.419 . S
C446 C447 1.362 . S
C447 H437 0.930 . S
C447 C440 1.409 . S
C447 C446 1.362 . S
H448 C454 0.930 . S
H449 C457 0.930 . S
H450 C458 0.930 . S
H451 C459 0.930 . S
H452 C462 0.930 . S
H453 C463 0.930 . S
C454 H448 0.930 . S
C454 C455 1.355 . S
C454 C456 1.415 . S
C455 C454 1.355 . S
C455 C457 1.419 . S
C456 C454 1.415 . S
C456 C461 1.425 . S
C456 C463 1.409 . S
C457 H449 0.930 . S
C457 C455 1.419 . S
C457 C458 1.362 . S
C458 H450 0.930 . S
C458 C457 1.362 . S
C458 C461 1.409 . S
C459 H451 0.930 . S
C459 C460 1.355 . S
C459 C461 1.415 . S
C460 C459 1.355 . S
C460 C462 1.419 . S
C461 C456 1.425 . S
C461 C458 1.409 . S
C461 C459 1.415 . S
C462 H452 0.930 . S
C462 C460 1.419 . S
C462 C463 1.362 . S
C463 H453 0.930 . S
C463 C456 1.409 . S
C463 C462 1.362 . S
H464 C470 0.930 . S
H465 C473 0.930 . S
H466 C474 0.930 . S
H467 C475 0.930 . S
H468 C478 0.930 . S
H469 C479 0.930 . S
C470 H464 0.930 . S
C470 C471 1.355 . S
C470 C472 1.415 . S
C471 C470 1.355 . S
C471 C473 1.419 . S
C472 C470 1.415 . S
C472 C477 1.425 . S
C472 C479 1.409 . S
C473 H465 0.930 . S
C473 C471 1.419 . S
C473 C474 1.362 . S
C474 H466 0.930 . S
C474 C473 1.362 . S
C474 C477 1.409 . S
C475 H467 0.930 . S
C475 C476 1.355 . S
C475 C477 1.415 . S
C476 C475 1.355 . S
C476 C478 1.419 . S
C477 C472 1.425 . S
C477 C474 1.409 . S
C477 C475 1.415 . S
C478 H468 0.930 . S
C478 C476 1.419 . S
C478 C479 1.362 . S
C479 H469 0.930 . S
C479 C472 1.409 . S
C479 C478 1.362 . S
H480 C486 0.930 . S
H481 C489 0.930 . S
H482 C490 0.930 . S
H483 C491 0.930 . S
H484 C494 0.930 . S
H485 C495 0.930 . S
C486 H480 0.930 . S
C486 C487 1.355 . S
C486 C488 1.415 . S
C487 C486 1.355 . S
C487 C489 1.419 . S
C488 C486 1.415 . S
C488 C493 1.425 . S
C488 C495 1.409 . S
C489 H481 0.930 . S
C489 C487 1.419 . S
C489 C490 1.362 . S
C490 H482 0.930 . S
C490 C489 1.362 . S
C490 C493 1.409 . S
C491 H483 0.930 . S
C491 C492 1.355 . S
C491 C493 1.415 . S
C492 C491 1.355 . S
C492 C494 1.419 . S
C493 C488 1.425 . S
C493 C490 1.409 . S
C493 C491 1.415 . S
C494 H484 0.930 . S
C494 C492 1.419 . S
C494 C495 1.362 . S
C495 H485 0.930 . S
C495 C488 1.409 . S
C495 C494 1.362 . S
H496 C502 0.930 . S
H497 C505 0.930 . S
H498 C506 0.930 . S
H499 C507 0.930 . S
H500 C510 0.930 . S
H501 C511 0.930 . S
C502 H496 0.930 . S
C502 C503 1.355 . S
C502 C504 1.415 . S
C503 C502 1.355 . S
C503 C505 1.419 . S
C504 C502 1.415 . S
C504 C509 1.425 . S
C504 C511 1.409 . S
C505 H497 0.930 . S
C505 C503 1.419 . S
C505 C506 1.362 . S
C506 H498 0.930 . S
C506 C505 1.362 . S
C506 C509 1.409 . S
C507 H499 0.930 . S
C507 C508 1.355 . S
C507 C509 1.415 . S
C508 C507 1.355 . S
C508 C510 1.419 . S
C509 C504 1.425 . S
C509 C506 1.409 . S
C509 C507 1.415 . S
C510 H500 0.930 . S
C510 C508 1.419 . S
C510 C511 1.362 . S
C511 H501 0.930 . S
C511 C504 1.409 . S
C511 C510 1.362 . S
H512 C518 0.930 . S
H513 C521 0.930 . S
H514 C522 0.930 . S
H515 C523 0.930 . S
H516 C526 0.930 . S
H517 C527 0.930 . S
C518 H512 0.930 . S
C518 C519 1.355 . S
C518 C520 1.415 . S
C519 C518 1.355 . S
C519 C521 1.419 . S
C520 C518 1.415 . S
C520 C525 1.425 . S
C520 C527 1.409 . S
C521 H513 0.930 . S
C521 C519 1.419 . S
C521 C522 1.362 . S
C522 H514 0.930 . S
C522 C521 1.362 . S
C522 C525 1.409 . S
C523 H515 0.930 . S
C523 C524 1.355 . S
C523 C525 1.415 . S
C524 C523 1.355 . S
C524 C526 1.419 . S
C525 C520 1.425 . S
C525 C522 1.409 . S
C525 C523 1.415 . S
C526 H516 0.930 . S
C526 C524 1.419 . S
C526 C527 1.362 . S
C527 H517 0.930 . S
C527 C520 1.409 . S
C527 C526 1.362 . S
H528 C534 0.930 . S
H529 C537 0.930 . S
H530 C538 0.930 . S
H531 C539 0.930 . S
H532 C542 0.930 . S
H533 C543 0.930 . S
C534 H528 0.930 . S
C534 C535 1.355 . S
C534 C536 1.415 . S
C535 C534 1.355 . S
C535 C537 1.419 . S
C536 C534 1.415 . S
C536 C541 1.425 . S
C536 C543 1.409 . S
C537 H529 0.930 . S
C537 C535 1.419 . S
C537 C538 1.362 . S
C538 H530 0.930 . S
C538 C537 1.362 . S
C538 C541 1.409 . S
C539 H531 0.930 . S
C539 C540 1.355 . S
C539 C541 1.415 . S
C540 C539 1.355 . S
C540 C542 1.419 . S
C541 C536 1.425 . S
C541 C538 1.409 . S
C541 C539 1.415 . S
C542 H532 0.930 . S
C542 C540 1.419 . S
C542 C543 1.362 . S
C543 H533 0.930 . S
C543 C536 1.409 . S
C543 C542 1.362 . S
H544 C550 0.930 . S
H545 C553 0.930 . S
H546 C554 0.930 . S
H547 C555 0.930 . S
H548 C558 0.930 . S
H549 C559 0.930 . S
C550 H544 0.930 . S
C550 C551 1.355 . S
C550 C552 1.415 . S
C551 C550 1.355 . S
C551 C553 1.419 . S
C552 C550 1.415 . S
C552 C557 1.425 . S
C552 C559 1.409 . S
C553 H545 0.930 . S
C553 C551 1.419 . S
C553 C554 1.362 . S
C554 H546 0.930 . S
C554 C553 1.362 . S
C554 C557 1.409 . S
C555 H547 0.930 . S
C555 C556 1.355 . S
C555 C557 1.415 . S
C556 C555 1.355 . S
C556 C558 1.419 . S
C557 C552 1.425 . S
C557 C554 1.409 . S
C557 C555 1.415 . S
C558 H548 0.930 . S
C558 C556 1.419 . S
C558 C559 1.362 . S
C559 H549 0.930 . S
C559 C552 1.409 . S
C559 C558 1.362 . S
H560 C566 0.930 . S
H561 C569 0.930 . S
H562 C570 0.930 . S
H563 C571 0.930 . S
H564 C574 0.930 . S
H565 C575 0.930 . S
C566 H560 0.930 . S
C566 C567 1.355 . S
C566 C568 1.415 . S
C567 C566 1.355 . S
C567 C569 1.419 . S
C568 C566 1.415 . S
C568 C573 1.425 . S
C568 C575 1.409 . S
C569 H561 0.930 . S
C569 C567 1.419 . S
C569 C570 1.362 . S
C570 H562 0.930 . S
C570 C569 1.362 . S
C570 C573 1.409 . S
C571 H563 0.930 . S
C571 C572 1.355 . S
C571 C573 1.415 . S
C572 C571 1.355 . S
C572 C574 1.419 . S
C573 C568 1.425 . S
C573 C570 1.409 . S
C573 C571 1.415 . S
C574 H564 0.930 . S
C574 C572 1.419 . S
C574 C575 1.362 . S
C575 H565 0.930 . S
C575 C568 1.409 . S
C575 C574 1.362 . S
H576 C582 0.930 . S
H577 C585 0.930 . S
H578 C586 0.930 . S
H579 C587 0.930 . S
H580 C590 0.930 . S
H581 C591 0.930 . S
C582 H576 0.930 . S
C582 C583 1.355 . S
C582 C584 1.415 . S
C583 C582 1.355 . S
C583 C585 1.419 . S
C584 C582 1.415 . S
C584 C589 1.425 . S
C584 C591 1.409 . S
C585 H577 0.930 . S
C585 C583 1.419 . S
C585 C586 1.362 . S
C586 H578 0.930 . S
C586 C585 1.362 . S
C586 C589 1.409 . S
C587 H579 0.930 . S
C587 C588 1.355 . S
C587 C589 1.415 . S
C588 C587 1.355 . S
C588 C590 1.419 . S
C589 C584 1.425 . S
C589 C586 1.409 . S
C589 C587 1.415 . S
C590 H580 0.930 . S
C590 C588 1.419 . S
C590 C591 1.362 . S
C591 H581 0.930 . S
C591 C584 1.409 . S
C591 C590 1.362 . S
C215 C45 1.571 . S
C220 C108 1.523 . S
C231 C30 1.533 . S
C236 C121 1.437 . S
C247 C39 1.566 . S
C252 C134 1.523 1_554 S
C268 C147 1.453 . S
C263 C34 1.546 . S
C279 C97 1.529 . S
C284 C160 1.447 . S
C300 C173 1.448 . S
C295 C82 1.531 . S
C316 C186 1.516 . S
C311 C91 1.561 . S
C332 C199 1.534 . S
C327 C86 1.573 . S
C348 C191 1.535 . S
C343 C26 1.515 . S
C364 C204 1.530 . S
C359 C36 1.494 . S
C380 C164 1.532 . S
C375 C32 1.506 . S
C396 C177 1.510 . S
C391 C42 1.487 . S
C407 C18 1.625 . S
C412 C178 1.667 . S
C428 C190 1.607 . S
C423 C50 1.522 . S
C439 C4 1.528 . S
C444 C203 1.590 . S
C455 C48 1.586 . S
C460 C165 1.634 . S
C476 C139 1.556 . S
C471 C78 1.536 . S
C487 C88 1.402 . S
C492 C151 1.446 . S
C508 C112 1.527 . S
C503 C84 1.476 . S
C524 C125 1.485 . S
C519 C94 1.435 . S
C540 C126 1.633 . S
C535 C70 1.594 . S
C556 C138 1.582 . S
C551 C102 1.494 . S
C567 C56 1.626 . S
C572 C152 1.665 . S
C583 C100 1.542 . S
C588 C113 1.582 . S
