# Generated by pormake.
# Topology rtl, (3,6)-cn, num edge types: 1
# Building blocks:
#     Node 0, Type 0, BuildingBlock: MIDCAF_clean_linker_0, # of connection points: 3
#     Node 1, Type 0, BuildingBlock: MIDCAF_clean_linker_0, # of connection points: 3
#     Node 2, Type 0, BuildingBlock: MIDCAF_clean_linker_0, # of connection points: 3
#     Node 3, Type 0, BuildingBlock: MIDCAF_clean_linker_0, # of connection points: 3
#     Node 4, Type 1, BuildingBlock: KUMBUR_clean_sbu_1, # of connection points: 6
#     Node 5, Type 1, BuildingBlock: KUMBUR_clean_sbu_1, # of connection points: 6
#     Edge 6, Type (0, 1), BuildingBlock: EZIPEK_clean_linker_0, # of connection points: 2
#     Edge 7, Type (0, 1), BuildingBlock: EZIPEK_clean_linker_0, # of connection points: 2
#     Edge 8, Type (0, 1), BuildingBlock: EZIPEK_clean_linker_0, # of connection points: 2
#     Edge 9, Type (0, 1), BuildingBlock: EZIPEK_clean_linker_0, # of connection points: 2
#     Edge 10, Type (0, 1), BuildingBlock: EZIPEK_clean_linker_0, # of connection points: 2
#     Edge 11, Type (0, 1), BuildingBlock: EZIPEK_clean_linker_0, # of connection points: 2
#     Edge 12, Type (0, 1), BuildingBlock: EZIPEK_clean_linker_0, # of connection points: 2
#     Edge 13, Type (0, 1), BuildingBlock: EZIPEK_clean_linker_0, # of connection points: 2
#     Edge 14, Type (0, 1), BuildingBlock: EZIPEK_clean_linker_0, # of connection points: 2
#     Edge 15, Type (0, 1), BuildingBlock: EZIPEK_clean_linker_0, # of connection points: 2
#     Edge 16, Type (0, 1), BuildingBlock: EZIPEK_clean_linker_0, # of connection points: 2
#     Edge 17, Type (0, 1), BuildingBlock: EZIPEK_clean_linker_0, # of connection points: 2
# Relax obj value: 0.018
# Max RMSD: 0.112
# Mean RMSD: 0.067
data_MOF--net-rtl--node1-KUMBUR_clean_sbu_1--node2-MIDCAF_clean_linker_0--edge1-EZIPEK_clean_linker_0
_symmetry_space_group_name_H-M    P1
_symmetry_Int_Tables_number       1
_symmetry_cell_setting            triclinic
loop_
_symmetry_equiv_pos_as_xyz
'x, y, z'
_cell_length_a     30.794455
_cell_length_b     31.350298
_cell_length_c     28.040524
_cell_angle_alpha  77.510593
_cell_angle_beta   99.743962
_cell_angle_gamma 90.549448
loop_
_atom_site_label
_atom_site_type_symbol
_atom_site_fract_x
_atom_site_fract_y
_atom_site_fract_z
_atom_type_partial_charge
C0 C 0.16498 0.91325 0.1415 0.0
C1 C 0.19192 0.89745 0.18756 0.0
C2 C 0.23211 0.87612 0.18931 0.0
C3 C 0.24502 0.87003 0.14574 0.0
H4 H 0.32519 0.79055 0.10112 0.0
H5 H 0.37443 0.7279 0.10965 0.0
H6 H 0.35558 0.74498 0.95083 0.0
H7 H 0.30578 0.80794 0.94146 0.0
H8 H 0.24635 0.89306 0.87577 0.0
H9 H 0.20249 0.92051 0.79343 0.0
H10 H 0.09592 0.95547 0.86057 0.0
H11 H 0.13959 0.92883 0.94308 0.0
H12 H 0.15638 0.91965 0.06274 0.0
H13 H 0.13378 0.92975 0.13955 0.0
H14 H 0.25327 0.8637 0.22456 0.0
H15 H 0.27613 0.85306 0.14859 0.0
N16 N 0.26485 0.84805 0.05695 0.0
N17 N 0.25491 0.8591 0.97046 0.0
N18 N 0.20943 0.89689 0.00774 0.0
C19 C 0.27683 0.83875 0.01578 0.0
C20 C 0.22131 0.88831 0.96603 0.0
C21 C 0.23136 0.8771 0.05343 0.0
C22 C 0.31095 0.80414 0.02057 0.0
C23 C 0.33177 0.78156 0.0678 0.0
C24 C 0.36009 0.74575 0.07284 0.0
C25 C 0.36836 0.73187 0.0309 0.0
C26 C 0.34951 0.75539 0.98357 0.0
C27 C 0.32099 0.79127 0.97842 0.0
C28 C 0.19636 0.90839 0.91616 0.0
C29 C 0.21374 0.90697 0.87313 0.0
C30 C 0.18888 0.92277 0.82602 0.0
C31 C 0.14595 0.93965 0.82109 0.0
C32 C 0.129 0.94244 0.86375 0.0
C33 C 0.15404 0.9272 0.91086 0.0
C34 C 0.21807 0.88541 0.09932 0.0
C35 C 0.17803 0.90749 0.0977 0.0
C36 C 0.60185 0.6388 0.51196 0.0
C37 C 0.61447 0.66076 0.46748 0.0
C38 C 0.63847 0.69903 0.46659 0.0
C39 C 0.65061 0.71475 0.50977 0.0
H40 H 0.7013 0.82624 0.57382 0.0
H41 H 0.76207 0.87566 0.56058 0.0
H42 H 0.8414 0.80214 0.69419 0.0
H43 H 0.77954 0.75312 0.70857 0.0
H44 H 0.6861 0.70638 0.78436 0.0
H45 H 0.65536 0.67087 0.85816 0.0
H46 H 0.54926 0.62218 0.7651 0.0
H47 H 0.57945 0.65674 0.69182 0.0
H48 H 0.60416 0.6367 0.58927 0.0
H49 H 0.5834 0.6091 0.51324 0.0
H50 H 0.64854 0.7163 0.43254 0.0
H51 H 0.66969 0.74408 0.50781 0.0
N52 N 0.68519 0.73911 0.60188 0.0
N53 N 0.68639 0.73413 0.687 0.0
N54 N 0.639 0.69062 0.64363 0.0
C55 C 0.70152 0.75227 0.64427 0.0
C56 C 0.65441 0.70355 0.68662 0.0
C57 C 0.65431 0.70806 0.60119 0.0
C58 C 0.73571 0.78591 0.64227 0.0
C59 C 0.73131 0.82123 0.60108 0.0
C60 C 0.76604 0.84945 0.59341 0.0
C61 C 0.80645 0.84249 0.62613 0.0
C62 C 0.81047 0.80824 0.66855 0.0
C63 C 0.77513 0.7804 0.67685 0.0
C64 C 0.63558 0.68423 0.73197 0.0
C65 C 0.65607 0.68838 0.77958 0.0
C66 C 0.63852 0.6682 0.82179 0.0
C67 C 0.59995 0.64398 0.81705 0.0
C68 C 0.57896 0.64075 0.7696 0.0
C69 C 0.59655 0.66045 0.72769 0.0
C70 C 0.63883 0.69256 0.55485 0.0
C71 C 0.61375 0.65468 0.55528 0.0
C72 C 0.88514 0.13144 0.92665 0.0
C73 C 0.87546 0.16333 0.88246 0.0
C74 C 0.84841 0.19956 0.88069 0.0
C75 C 0.83194 0.20438 0.92275 0.0
H76 H 0.72824 0.26405 0.96794 0.0
H77 H 0.67032 0.31848 0.9642 0.0
H78 H 0.69957 0.30188 0.12304 0.0
H79 H 0.75704 0.24747 0.12753 0.0
H80 H 0.81945 0.17527 0.19036 0.0
H81 H 0.85562 0.13688 0.27238 0.0
H82 H 0.93122 0.05778 0.20624 0.0
H83 H 0.89536 0.09621 0.12335 0.0
H84 H 0.87774 0.1117 1.00279 0.0
H85 H 0.90581 0.10314 0.92856 0.0
H86 H 0.84053 0.22445 0.84683 0.0
H87 H 0.81169 0.23309 0.92028 0.0
N88 N 0.7952 0.21045 0.0097 0.0
N89 N 0.80132 0.19411 0.09612 0.0
N90 N 0.84604 0.15632 0.0584 0.0
C91 C 0.782 0.2177 0.05119 0.0
C92 C 0.83325 0.16338 0.10021 0.0
C93 C 0.8272 0.17978 0.01298 0.0
C94 C 0.74731 0.25121 0.04805 0.0
C95 C 0.72246 0.272 1.00209 0.0
C96 C 0.68937 0.30306 0.99982 0.0
C97 C 0.68089 0.31401 0.04336 0.0
C98 C 0.70574 0.29369 0.08911 0.0
C99 C 0.73854 0.26255 0.09149 0.0
C100 C 0.85453 0.13897 0.15001 0.0
C101 C 0.84364 0.14967 0.19291 0.0
C102 C 0.86426 0.12781 0.23992 0.0
C103 C 0.89607 0.09476 0.24512 0.0
C104 C 0.90676 0.08339 0.20271 0.0
C105 C 0.88624 0.10541 0.15547 0.0
C106 C 0.84259 0.17322 0.96763 0.0
C107 C 0.86913 0.13649 0.96899 0.0
C108 C 0.37765 0.41805 0.62024 0.0
C109 C 0.35584 0.40134 0.6602 0.0
C110 C 0.32789 0.36611 0.65759 0.0
C111 C 0.32117 0.34817 0.61559 0.0
H112 H 0.25647 0.25298 0.56576 0.0
H113 H 0.20488 0.19335 0.5675 0.0
H114 H 0.2171 0.18859 0.41798 0.0
H115 H 0.26898 0.24869 0.41545 0.0
H116 H 0.32764 0.32298 0.35682 0.0
H117 H 0.36057 0.35381 0.28368 0.0
H118 H 0.43464 0.44192 0.36266 0.0
H119 H 0.40185 0.41166 0.436 0.0
H120 H 0.38766 0.41397 0.54738 0.0
H121 H 0.3995 0.4452 0.6217 0.0
H122 H 0.31086 0.35269 0.68807 0.0
H123 H 0.299 0.32119 0.61506 0.0
N124 N 0.30666 0.31154 0.52945 0.0
N125 N 0.31519 0.31095 0.44815 0.0
N126 N 0.35134 0.363 0.48883 0.0
C127 C 0.29724 0.29363 0.48909 0.0
C128 C 0.34237 0.34568 0.44768 0.0
C129 C 0.33352 0.34608 0.52991 0.0
C130 C 0.267 0.25603 0.49028 0.0
C131 C 0.24858 0.23931 0.53313 0.0
C132 C 0.21908 0.20503 0.5344 0.0
C133 C 0.20737 0.18649 0.49303 0.0
C134 C 0.226 0.2024 0.45042 0.0
C135 C 0.25555 0.23685 0.44902 0.0
C136 C 0.362 0.36465 0.40269 0.0
C137 C 0.35083 0.34898 0.35883 0.0
C138 C 0.36956 0.36662 0.31682 0.0
C139 C 0.39996 0.40025 0.31764 0.0
C140 C 0.41112 0.41612 0.36113 0.0
C141 C 0.3923 0.39864 0.40311 0.0
C142 C 0.34221 0.36507 0.57488 0.0
C143 C 0.37078 0.40017 0.57783 0.0
Tb144 Tb 0.03592 0.95538 0.52107 0.0
C145 C 0.89373 0.0968 0.46405 0.0
N146 N 0.93591 0.10644 0.47989 0.0
C147 C 0.93125 0.16764 0.41061 0.0
C148 C 0.8693 0.12056 0.41919 0.0
C149 C 0.9536 0.1435 0.45591 0.0
C150 C 0.88929 0.15538 0.39144 0.0
C151 C 0.82874 0.05796 0.48351 0.0
C152 C 0.8741 0.06569 0.49535 0.0
C153 C 0.80487 0.07896 0.4372 0.0
C154 C 0.82524 0.11014 0.40491 0.0
Tb155 Tb 0.97321 0.06016 0.54964 0.0
N156 N 0.89839 0.0466 0.53973 0.0
C157 C 0.80831 0.03149 0.51966 0.0
C158 C 0.87694 0.02622 0.57717 0.0
C159 C 0.83225 0.01672 0.56727 0.0
H160 H 0.98536 0.15382 0.47132 0.0
H161 H 0.81623 0.99851 0.59654 0.0
H162 H 0.96526 0.87905 0.49863 0.0
H163 H 0.18938 0.94911 0.65038 0.0
H164 H 0.89453 0.0161 0.61469 0.0
H165 H 0.77357 0.02463 0.51214 0.0
H166 H 0.12867 0.98501 0.58604 0.0
H167 H 0.94622 0.19588 0.39079 0.0
H168 H 0.77023 0.07279 0.42699 0.0
H169 H 0.80609 0.12744 0.37016 0.0
H170 H 0.95504 0.80094 0.53356 0.0
H171 H 0.87179 0.17434 0.35663 0.0
H172 H 0.18735 0.87001 0.68663 0.0
N173 N 0.02483 0.88272 0.54813 0.0
C174 C 0.05627 0.86055 0.58469 0.0
C175 C 0.98356 0.81735 0.54849 0.0
C176 C 0.05246 0.81572 0.60499 0.0
C177 C 0.98901 0.86173 0.52934 0.0
C178 C 0.01536 0.79424 0.58662 0.0
N179 N 0.09375 0.92661 0.58257 0.0
C180 C 0.12847 0.9502 0.59923 0.0
C181 C 0.1257 0.86135 0.64004 0.0
C182 C 0.09232 0.88304 0.60194 0.0
C183 C 0.16118 0.88541 0.65718 0.0
C184 C 0.16251 0.93004 0.63671 0.0
H185 H 0.01114 0.75982 0.60131 0.0
H186 H 0.0833 0.75944 0.65901 0.0
H187 H 0.14747 0.79942 0.68972 0.0
O188 O 0.07061 0.97712 0.46228 0.0
O189 O 0.04049 0.9571 0.59921 0.0
O190 O 0.03268 0.02923 0.60045 0.0
O191 O 0.04628 0.91208 0.47589 0.0
O192 O 0.07277 0.01646 0.51319 0.0
O193 O 0.03817 0.07694 0.52918 0.0
O194 O 0.95321 0.07706 0.61246 0.0
O195 O 0.9805 0.05916 0.47333 0.0
O196 O 0.976 0.9864 0.47355 0.0
O197 O 0.98604 0.12318 0.56248 0.0
O198 O 0.95554 0.99232 0.58043 0.0
O199 O 0.96531 0.95211 0.52363 0.0
C200 C 0.04027 0.98818 0.624 0.0
C201 C 0.11014 0.92287 0.43948 0.0
C202 C 0.15398 0.90646 0.38059 0.0
C203 C 0.18776 0.88899 0.42014 0.0
C204 C 0.14427 0.90548 0.47862 0.0
C205 C 0.18291 0.88867 0.46888 0.0
C206 C 0.11521 0.92357 0.39042 0.0
C207 C 0.07106 0.05809 0.51547 0.0
C208 C 0.06883 0.93975 0.44907 0.0
C209 C 0.08565 0.79388 0.64289 0.0
C210 C 0.12223 0.81663 0.66031 0.0
C211 C 0.97393 0.02732 0.44965 0.0
C212 C 0.96516 0.1497 0.63069 0.0
C213 C 0.94559 0.17258 0.70232 0.0
C214 C 0.95966 0.21482 0.68438 0.0
C215 C 0.97914 0.19222 0.61343 0.0
C216 C 0.94856 0.13992 0.67551 0.0
C217 C 0.97641 0.22449 0.6402 0.0
C218 C 0.94635 0.95803 0.56056 0.0
C219 C 0.96781 0.11617 0.6015 0.0
H220 H 0.21783 0.87568 0.41319 0.0
H221 H 0.14101 0.90472 0.51657 0.0
H222 H 0.2091 0.87519 0.49922 0.0
H223 H 0.08897 0.93697 0.35997 0.0
H224 H 0.95766 0.24027 0.70468 0.0
H225 H 0.99207 0.20065 0.57908 0.0
H226 H 0.93782 0.10727 0.68949 0.0
H227 H 0.98721 0.25714 0.62659 0.0
Tb228 Tb 0.44892 0.47769 0.02059 0.0
C229 C 0.6569 0.48834 0.10645 0.0
N230 N 0.62213 0.47157 0.12726 0.0
C231 C 0.66426 0.40556 0.16665 0.0
C232 C 0.69648 0.46386 0.11345 0.0
C233 C 0.62592 0.4315 0.15906 0.0
C234 C 0.69953 0.42158 0.14319 0.0
C235 C 0.68894 0.55068 0.05903 0.0
C236 C 0.65316 0.53086 0.07973 0.0
C237 C 0.72801 0.52606 0.06406 0.0
C238 C 0.73178 0.48269 0.09127 0.0
Tb239 Tb 0.55924 0.51445 0.10875 0.0
N240 N 0.61493 0.55334 0.07596 0.0
C241 C 0.68469 0.59485 0.035 0.0
C242 C 0.61166 0.59721 0.05527 0.0
C243 C 0.64604 0.61837 0.03371 0.0
H244 H 0.59887 0.41912 0.17766 0.0
H245 H 0.64269 0.65276 0.01611 0.0
H246 H 0.38612 0.43767 0.10679 0.0
H247 H 0.492 0.40004 0.88064 0.0
H248 H 0.58174 0.61547 0.05396 0.0
H249 H 0.71136 0.61132 0.01845 0.0
H250 H 0.47312 0.46219 0.91565 0.0
H251 H 0.66661 0.3733 0.19064 0.0
H252 H 0.75577 0.54052 0.048 0.0
H253 H 0.76234 0.4643 0.09569 0.0
H254 H 0.37024 0.36572 0.15485 0.0
H255 H 0.72922 0.4015 0.14918 0.0
H256 H 0.48857 0.32418 0.92863 0.0
N257 N 0.42784 0.4122 0.06524 0.0
C258 C 0.43904 0.37564 0.05111 0.0
C259 C 0.39043 0.36794 0.12637 0.0
C260 C 0.42933 0.33359 0.07637 0.0
C261 C 0.40048 0.40885 0.09963 0.0
C262 C 0.406 0.33006 0.11564 0.0
N263 N 0.46266 0.4219 0.98384 0.0
C264 C 0.47226 0.42916 0.93691 0.0
C265 C 0.46666 0.34418 0.99012 0.0
C266 C 0.45715 0.38071 0.00871 0.0
C267 C 0.48088 0.35135 0.94426 0.0
C268 C 0.48284 0.3941 0.91706 0.0
H269 H 0.39787 0.2984 0.13607 0.0
H270 H 0.4348 0.26409 0.07944 0.0
H271 H 0.46777 0.27341 1.00379 0.0
O272 O 0.41496 0.51186 0.95079 0.0
O273 O 0.44799 0.48266 0.09843 0.0
O274 O 0.51808 0.46109 0.1374 0.0
O275 O 0.38045 0.47181 1.00277 0.0
O276 O 0.51488 0.45269 0.01749 0.0
O277 O 0.54662 0.44886 0.09694 0.0
O278 O 0.53215 0.54315 0.15917 0.0
O279 O 0.55249 0.54239 0.02819 0.0
O280 O 0.48872 0.52458 0.97726 0.0
O281 O 0.60021 0.52349 0.17355 0.0
O282 O 0.50999 0.5662 0.06977 0.0
O283 O 0.4423 0.53481 0.05253 0.0
C284 C 0.47625 0.46642 0.13921 0.0
C285 C 0.3509 0.47586 0.91898 0.0
C286 C 0.33935 0.4519 0.84046 0.0
C287 C 0.29702 0.43863 0.84825 0.0
C288 C 0.30823 0.46248 0.92561 0.0
C289 C 0.28157 0.44399 0.89053 0.0
C290 C 0.36634 0.47088 0.87575 0.0
C291 C 0.54787 0.44008 0.0538 0.0
C292 C 0.37749 0.49481 0.95809 0.0
C293 C 0.44135 0.2967 0.06008 0.0
C294 C 0.46005 0.302 0.01697 0.0
C295 C 0.52674 0.54429 0.98468 0.0
C296 C 0.58213 0.5821 0.20711 0.0
C297 C 0.59458 0.62057 0.27495 0.0
C298 C 0.61227 0.65534 0.24426 0.0
C299 C 0.6006 0.61696 0.17737 0.0
C300 C 0.57882 0.58416 0.25602 0.0
C301 C 0.61505 0.65357 0.19563 0.0
C302 C 0.46653 0.56737 0.0641 0.0
C303 C 0.56952 0.54218 0.18898 0.0
H304 H 0.27591 0.42401 0.82146 0.0
H305 H 0.29547 0.46626 0.95824 0.0
H306 H 0.24884 0.43369 0.8962 0.0
H307 H 0.39881 0.48151 0.86941 0.0
H308 H 0.62441 0.68363 0.25824 0.0
H309 H 0.60424 0.61577 0.14023 0.0
H310 H 0.56543 0.55709 0.27975 0.0
H311 H 0.62912 0.68031 0.17226 0.0
C312 C 0.18593 0.10747 0.51382 0.0
C313 C 0.17359 0.15203 0.49346 0.0
C314 C 0.09689 0.13123 0.47316 0.0
C315 C 0.10785 0.08765 0.49976 0.0
N316 N 0.16625 0.03222 0.51795 0.0
N317 N 0.11676 0.20722 0.456 0.0
C318 C 0.1534 0.07476 0.51262 0.0
C319 C 0.12898 0.16408 0.47327 0.0
N320 N 0.22872 0.09638 0.53522 0.0
N321 N 0.05691 0.14014 0.44321 0.0
H322 H 0.13926 0.23236 0.45435 0.0
H323 H 0.084 0.21833 0.44685 0.0
H324 H 0.0343 0.11585 0.43898 0.0
H325 H 0.04838 0.16979 0.4182 0.0
H326 H 0.23869 0.06543 0.55652 0.0
H327 H 0.25378 0.11903 0.53483 0.0
H328 H 0.19906 0.02165 0.524 0.0
H329 H 0.14488 0.00863 0.50797 0.0
C330 C 0.44026 0.68999 0.04659 0.0
C331 C 0.39371 0.69029 0.0377 0.0
C332 C 0.39495 0.61023 0.05903 0.0
C333 C 0.44199 0.60933 0.06379 0.0
N334 N 0.50712 0.6493 0.08701 0.0
N335 N 0.3261 0.6515 0.028 0.0
C336 C 0.4643 0.6495 0.06422 0.0
C337 C 0.37094 0.65064 0.04165 0.0
N338 N 0.46163 0.72856 0.03741 0.0
N339 N 0.37322 0.57341 0.07647 0.0
H340 H 0.30699 0.68034 0.0168 0.0
H341 H 0.30821 0.62388 0.02337 0.0
H342 H 0.38907 0.54438 0.09651 0.0
H343 H 0.33972 0.57318 0.07824 0.0
H344 H 0.49539 0.73029 0.03717 0.0
H345 H 0.44497 0.75881 0.02529 0.0
H346 H 0.52423 0.67743 0.09119 0.0
H347 H 0.52306 0.62143 0.10976 0.0
C348 C 0.86518 0.89767 0.64199 0.0
C349 C 0.84512 0.86896 0.61281 0.0
C350 C 0.88712 0.90093 0.54779 0.0
C351 C 0.91203 0.92632 0.57917 0.0
N352 N 0.93041 0.93664 0.66427 0.0
N353 N 0.84837 0.83392 0.54503 0.0
C354 C 0.90289 0.92106 0.62872 0.0
C355 C 0.85997 0.86748 0.56821 0.0
N356 N 0.8476 0.90397 0.68159 0.0
N357 N 0.88602 0.90997 0.49775 0.0
H358 H 0.82929 0.80817 0.55938 0.0
H359 H 0.86192 0.82932 0.51478 0.0
H360 H 0.90241 0.93518 0.4787 0.0
H361 H 0.86445 0.89491 0.474 0.0
H362 H 0.85802 0.92838 0.70063 0.0
H363 H 0.81995 0.88774 0.69235 0.0
H364 H 0.92693 0.9292 0.70148 0.0
H365 H 0.95925 0.95283 0.65875 0.0
C366 C 0.65237 0.39163 0.0264 0.0
C367 C 0.64552 0.34635 0.04178 0.0
C368 C 0.57635 0.36238 0.06716 0.0
C369 C 0.58132 0.40776 0.04881 0.0
N370 N 0.62171 0.46527 1.0051 0.0
N371 N 0.59697 0.28817 0.06658 0.0
C372 C 0.61847 0.42221 0.02625 0.0
C373 C 0.60626 0.33161 0.05909 0.0
N374 N 0.69212 0.4055 0.01421 0.0
N375 N 0.5438 0.34856 0.09375 0.0
H376 H 0.61812 0.26465 0.06088 0.0
H377 H 0.56659 0.27602 0.0738 0.0
H378 H 0.52063 0.37005 0.09892 0.0
H379 H 0.54165 0.31657 0.11336 0.0
H380 H 0.70114 0.43805 0.00797 0.0
H381 H 0.7177 0.3841 0.01378 0.0
H382 H 0.64474 0.47728 0.98267 0.0
H383 H 0.5997 0.48894 0.00812 0.0
C384 C 0.18944 0.93968 0.25383 0.0
C385 C 0.17791 0.90202 0.23456 0.0
C386 C 0.14405 0.87095 0.30735 0.0
C387 C 0.15957 0.90648 0.32885 0.0
N388 N 0.1986 0.97378 0.3248 0.0
N389 N 0.14648 0.83065 0.2429 0.0
C390 C 0.18246 0.94079 0.30253 0.0
C391 C 0.15551 0.86745 0.26117 0.0
N392 N 0.2066 0.97453 0.2252 0.0
N393 N 0.11798 0.84081 0.33098 0.0
H394 H 0.15265 0.82768 0.20829 0.0
H395 H 0.13514 0.80206 0.26289 0.0
H396 H 0.11007 0.8416 0.36552 0.0
H397 H 0.10156 0.81677 0.31515 0.0
H398 H 0.21156 1.00475 0.2346 0.0
H399 H 0.21311 0.97434 0.18993 0.0
H400 H 0.22002 0.99704 0.31046 0.0
H401 H 0.19243 0.9767 0.35943 0.0
C402 C 0.5593 0.64149 0.88902 0.0
C403 C 0.58248 0.61937 0.86143 0.0
C404 C 0.56258 0.54884 0.90908 0.0
C405 C 0.54309 0.57051 0.94015 0.0
N406 N 0.5243 0.63783 0.96111 0.0
N407 N 0.61367 0.55226 0.85165 0.0
C408 C 0.5421 0.61701 0.93063 0.0
C409 C 0.58614 0.57312 0.87329 0.0
N410 N 0.55211 0.68571 0.87412 0.0
N411 N 0.55788 0.505 0.9128 0.0
H412 H 0.63204 0.56885 0.82574 0.0
H413 H 0.62169 0.51898 0.86294 0.0
H414 H 0.54267 0.48561 0.93973 0.0
H415 H 0.56632 0.48843 0.88709 0.0
H416 H 0.53144 0.7034 0.88899 0.0
H417 H 0.56449 0.70459 0.84423 0.0
H418 H 0.52766 0.67098 0.96068 0.0
H419 H 0.50761 0.62136 0.98857 0.0
C420 C 0.89405 0.04351 0.32661 0.0
C421 C 0.91817 0.07255 0.29548 0.0
C422 C 0.98195 0.06257 0.36242 0.0
C423 C 0.95565 0.03926 0.39576 0.0
N424 N 0.8844 0.0123 0.4106 0.0
N425 N 0.98353 0.11414 0.28491 0.0
C426 C 0.91118 0.03049 0.37804 0.0
C427 C 0.96185 0.08307 0.31354 0.0
N428 N 0.85483 0.0283 0.30691 0.0
N429 N 0.02641 0.06413 0.37695 0.0
H430 H 0.97013 0.12983 0.24874 0.0
H431 H 0.01333 0.12685 0.29843 0.0
H432 H 0.04221 0.04978 0.41256 0.0
H433 H 0.04792 0.07648 0.35269 0.0
H434 H 0.83782 1.00367 0.32673 0.0
H435 H 0.84134 0.03737 0.26931 0.0
H436 H 0.85063 0.00892 0.40052 0.0
H437 H 0.89508 1.00488 0.4487 0.0
C438 C 0.38464 0.39606 0.75057 0.0
C439 C 0.36106 0.42044 0.70509 0.0
C440 C 0.33751 0.47368 0.74886 0.0
C441 C 0.35422 0.44511 0.79475 0.0
N442 N 0.3925 0.37816 0.84029 0.0
N443 N 0.3134 0.48186 0.66036 0.0
C444 C 0.37817 0.40635 0.79595 0.0
C445 C 0.33766 0.45959 0.7039 0.0
N446 N 0.41316 0.36308 0.75015 0.0
N447 N 0.32121 0.51414 0.74854 0.0
H448 H 0.31302 0.47295 0.62657 0.0
H449 H 0.2914 0.50752 0.65809 0.0
H450 H 0.32063 0.52505 0.78107 0.0
H451 H 0.31214 0.53819 0.7164 0.0
H452 H 0.4344 0.34659 0.78153 0.0
H453 H 0.4185 0.355 0.71736 0.0
H454 H 0.40557 0.34698 0.8434 0.0
H455 H 0.38899 0.38502 0.87424 0.0
C456 C 0.63663 0.61563 0.41127 0.0
C457 C 0.60472 0.64304 0.42183 0.0
C458 C 0.56158 0.6488 0.33855 0.0
C459 C 0.59429 0.62269 0.32739 0.0
N460 N 0.65787 0.5739 0.35486 0.0
N461 N 0.53296 0.67849 0.40071 0.0
C462 C 0.63008 0.60351 0.36453 0.0
C463 C 0.56579 0.65717 0.38706 0.0
N464 N 0.67411 0.60286 0.44524 0.0
N465 N 0.52738 0.66677 0.30207 0.0
H466 H 0.5355 0.68559 0.43574 0.0
H467 H 0.50202 0.68638 0.37903 0.0
H468 H 0.52211 0.65929 0.26707 0.0
H469 H 0.50518 0.69028 0.30547 0.0
H470 H 0.70127 0.58747 0.43796 0.0
H471 H 0.67911 0.60952 0.48061 0.0
H472 H 0.68195 0.5553 0.38157 0.0
H473 H 0.65486 0.56534 0.32055 0.0
C474 C 0.86609 0.15273 0.79506 0.0
C475 C 0.89439 0.15974 0.83801 0.0
C476 C 0.95747 0.16319 0.79457 0.0
C477 C 0.9282 0.1632 0.74973 0.0
N478 N 0.85386 0.16216 0.70569 0.0
N479 N 0.96647 0.17698 0.87727 0.0
C480 C 0.88226 0.15868 0.74954 0.0
C481 C 0.94008 0.166 0.83762 0.0
N482 N 0.82397 0.13968 0.79805 0.0
N483 N 1.00194 0.15998 0.79605 0.0
H484 H 0.95506 0.18 0.90936 0.0
H485 H 0.99884 0.18674 0.87676 0.0
H486 H 0.01569 0.15751 0.76516 0.0
H487 H 0.02482 0.15545 0.82876 0.0
H488 H 0.80314 0.12988 0.7693 0.0
H489 H 0.81124 0.13469 0.83096 0.0
H490 H 0.81973 0.16424 0.70268 0.0
H491 H 0.86435 0.16631 0.67156 0.0
C492 C 0.4103 0.46075 0.24477 0.0
C493 C 0.42112 0.41789 0.27336 0.0
C494 C 0.46795 0.40614 0.21432 0.0
C495 C 0.45945 0.45013 0.18722 0.0
N496 N 0.43275 0.52228 0.18682 0.0
N497 N 0.46821 0.35345 0.2917 0.0
C498 C 0.43343 0.47828 0.2053 0.0
C499 C 0.45239 0.39172 0.26004 0.0
N500 N 0.37702 0.48445 0.25429 0.0
N501 N 0.48892 0.3772 0.19539 0.0
H502 H 0.45777 0.34181 0.32554 0.0
H503 H 0.49464 0.33538 0.28668 0.0
H504 H 0.50041 0.38607 0.16214 0.0
H505 H 0.49108 0.34366 0.21015 0.0
H506 H 0.36452 0.51394 0.23119 0.0
H507 H 0.35926 0.47283 0.28277 0.0
H508 H 0.41811 0.54485 0.20198 0.0
H509 H 0.45076 0.53651 0.15961 0.0
C510 C 0.09715 0.91924 0.7486 0.0
C511 C 0.11742 0.95218 0.77151 0.0
C512 C 0.07621 0.00869 0.70532 0.0
C513 C 0.06014 0.97623 0.67864 0.0
N514 N 0.03954 0.90024 0.68765 0.0
N515 N 0.13141 0.02823 0.76893 0.0
C516 C 0.06625 0.93125 0.70376 0.0
C517 C 0.10835 0.99687 0.7491 0.0
N518 N 0.1081 0.87621 0.76921 0.0
N519 N 0.05743 0.04971 0.69247 0.0
H520 H 0.15497 0.02089 0.80119 0.0
H521 H 0.13018 0.06106 0.75091 0.0
H522 H 0.02811 0.05725 0.6677 0.0
H523 H 0.0658 0.07376 0.7126 0.0
H524 H 0.10013 0.85107 0.75062 0.0
H525 H 0.12794 0.86561 0.80375 0.0
H526 H 0.0393 0.86799 0.70708 0.0
H527 H 0.01349 0.90719 0.65807 0.0
loop_
_geom_bond_atom_site_label_1
_geom_bond_atom_site_label_2
_geom_bond_distance
_geom_bond_site_symmetry_2
_ccdc_geom_bond_type
C0 C1 1.384 . S
C0 H13 0.947 . S
C0 C35 1.382 . S
C1 C0 1.384 . S
C1 C2 1.378 . S
C2 C1 1.378 . S
C2 C3 1.378 . S
C2 H14 0.952 . S
C3 C2 1.378 . S
C3 H15 0.950 . S
C3 C34 1.383 . S
H4 C23 0.947 . S
H5 C24 0.946 . S
H6 C26 0.953 . S
H7 C27 0.945 . S
H8 C29 0.952 . S
H9 C30 0.949 . S
H10 C32 0.950 . S
H11 C33 0.948 . S
H12 C35 0.951 . S
H13 C0 0.947 . S
H14 C2 0.952 . S
H15 C3 0.950 . S
N16 C19 1.382 . S
N16 C21 1.363 . S
N17 C19 1.371 1_556 S
N17 C20 1.372 . S
N18 C20 1.361 1_554 S
N18 C21 1.377 . S
C19 N16 1.382 . S
C19 N17 1.371 1_554 S
C19 C22 1.480 . S
C20 N17 1.372 . S
C20 N18 1.361 1_556 S
C20 C28 1.457 . S
C21 N16 1.363 . S
C21 N18 1.377 . S
C21 C34 1.479 . S
C22 C19 1.480 . S
C22 C23 1.383 . S
C22 C27 1.385 1_554 S
C23 H4 0.947 . S
C23 C22 1.383 . S
C23 C24 1.388 . S
C24 H5 0.946 . S
C24 C23 1.388 . S
C24 C25 1.384 . S
C25 C24 1.384 . S
C25 C26 1.377 1_554 S
C26 H6 0.953 . S
C26 C25 1.377 1_556 S
C26 C27 1.369 . S
C27 H7 0.945 . S
C27 C22 1.385 1_556 S
C27 C26 1.369 . S
C28 C20 1.457 . S
C28 C29 1.372 . S
C28 C33 1.364 . S
C29 H8 0.952 . S
C29 C28 1.372 . S
C29 C30 1.389 . S
C30 H9 0.949 . S
C30 C29 1.389 . S
C30 C31 1.387 . S
C31 C30 1.387 . S
C31 C32 1.372 . S
C32 H10 0.950 . S
C32 C31 1.372 . S
C32 C33 1.379 . S
C33 H11 0.948 . S
C33 C28 1.364 . S
C33 C32 1.379 . S
C34 C3 1.383 . S
C34 C21 1.479 . S
C34 C35 1.398 . S
C35 C0 1.382 . S
C35 H12 0.951 . S
C35 C34 1.398 . S
C36 C37 1.384 . S
C36 H49 0.947 . S
C36 C71 1.382 . S
C37 C36 1.384 . S
C37 C38 1.378 . S
C38 C37 1.378 . S
C38 C39 1.378 . S
C38 H50 0.952 . S
C39 C38 1.378 . S
C39 H51 0.950 . S
C39 C70 1.383 . S
H40 C59 0.947 . S
H41 C60 0.946 . S
H42 C62 0.953 . S
H43 C63 0.945 . S
H44 C65 0.952 . S
H45 C66 0.949 . S
H46 C68 0.950 . S
H47 C69 0.948 . S
H48 C71 0.951 . S
H49 C36 0.947 . S
H50 C38 0.952 . S
H51 C39 0.950 . S
N52 C55 1.382 . S
N52 C57 1.363 . S
N53 C55 1.371 . S
N53 C56 1.372 . S
N54 C56 1.361 . S
N54 C57 1.377 . S
C55 N52 1.382 . S
C55 N53 1.371 . S
C55 C58 1.480 . S
C56 N53 1.372 . S
C56 N54 1.361 . S
C56 C64 1.457 . S
C57 N52 1.363 . S
C57 N54 1.377 . S
C57 C70 1.479 . S
C58 C55 1.480 . S
C58 C59 1.383 . S
C58 C63 1.385 . S
C59 H40 0.947 . S
C59 C58 1.383 . S
C59 C60 1.388 . S
C60 H41 0.946 . S
C60 C59 1.388 . S
C60 C61 1.384 . S
C61 C60 1.384 . S
C61 C62 1.377 . S
C62 H42 0.953 . S
C62 C61 1.377 . S
C62 C63 1.369 . S
C63 H43 0.945 . S
C63 C58 1.385 . S
C63 C62 1.369 . S
C64 C56 1.457 . S
C64 C65 1.372 . S
C64 C69 1.364 . S
C65 H44 0.952 . S
C65 C64 1.372 . S
C65 C66 1.389 . S
C66 H45 0.949 . S
C66 C65 1.389 . S
C66 C67 1.387 . S
C67 C66 1.387 . S
C67 C68 1.372 . S
C68 H46 0.950 . S
C68 C67 1.372 . S
C68 C69 1.379 . S
C69 H47 0.948 . S
C69 C64 1.364 . S
C69 C68 1.379 . S
C70 C39 1.383 . S
C70 C57 1.479 . S
C70 C71 1.398 . S
C71 C36 1.382 . S
C71 H48 0.951 . S
C71 C70 1.398 . S
C72 C73 1.384 . S
C72 H85 0.947 . S
C72 C107 1.382 . S
C73 C72 1.384 . S
C73 C74 1.378 . S
C74 C73 1.378 . S
C74 C75 1.378 . S
C74 H86 0.952 . S
C75 C74 1.378 . S
C75 H87 0.950 . S
C75 C106 1.383 . S
H76 C95 0.947 1_556 S
H77 C96 0.946 1_556 S
H78 C98 0.953 . S
H79 C99 0.945 . S
H80 C101 0.952 . S
H81 C102 0.949 . S
H82 C104 0.950 . S
H83 C105 0.948 . S
H84 C107 0.951 1_554 S
H85 C72 0.947 . S
H86 C74 0.952 . S
H87 C75 0.950 . S
N88 C91 1.382 . S
N88 C93 1.363 . S
N89 C91 1.371 . S
N89 C92 1.372 . S
N90 C92 1.361 . S
N90 C93 1.377 . S
C91 N88 1.382 . S
C91 N89 1.371 . S
C91 C94 1.480 . S
C92 N89 1.372 . S
C92 N90 1.361 . S
C92 C100 1.457 . S
C93 N88 1.363 . S
C93 N90 1.377 . S
C93 C106 1.479 1_554 S
C94 C91 1.480 . S
C94 C95 1.383 . S
C94 C99 1.385 . S
C95 H76 0.947 1_554 S
C95 C94 1.383 . S
C95 C96 1.388 . S
C96 H77 0.946 1_554 S
C96 C95 1.388 . S
C96 C97 1.384 . S
C97 C96 1.384 . S
C97 C98 1.377 . S
C98 H78 0.953 . S
C98 C97 1.377 . S
C98 C99 1.369 . S
C99 H79 0.945 . S
C99 C94 1.385 . S
C99 C98 1.369 . S
C100 C92 1.457 . S
C100 C101 1.372 . S
C100 C105 1.364 . S
C101 H80 0.952 . S
C101 C100 1.372 . S
C101 C102 1.389 . S
C102 H81 0.949 . S
C102 C101 1.389 . S
C102 C103 1.387 . S
C103 C102 1.387 . S
C103 C104 1.372 . S
C104 H82 0.950 . S
C104 C103 1.372 . S
C104 C105 1.379 . S
C105 H83 0.948 . S
C105 C100 1.364 . S
C105 C104 1.379 . S
C106 C75 1.383 . S
C106 C93 1.479 1_556 S
C106 C107 1.398 . S
C107 C72 1.382 . S
C107 H84 0.951 1_556 S
C107 C106 1.398 . S
C108 C109 1.384 . S
C108 H121 0.947 . S
C108 C143 1.382 . S
C109 C108 1.384 . S
C109 C110 1.378 . S
C110 C109 1.378 . S
C110 C111 1.378 . S
C110 H122 0.952 . S
C111 C110 1.378 . S
C111 H123 0.950 . S
C111 C142 1.383 . S
H112 C131 0.947 . S
H113 C132 0.946 . S
H114 C134 0.953 . S
H115 C135 0.945 . S
H116 C137 0.952 . S
H117 C138 0.949 . S
H118 C140 0.950 . S
H119 C141 0.948 . S
H120 C143 0.951 . S
H121 C108 0.947 . S
H122 C110 0.952 . S
H123 C111 0.950 . S
N124 C127 1.382 . S
N124 C129 1.363 . S
N125 C127 1.371 . S
N125 C128 1.372 . S
N126 C128 1.361 . S
N126 C129 1.377 . S
C127 N124 1.382 . S
C127 N125 1.371 . S
C127 C130 1.480 . S
C128 N125 1.372 . S
C128 N126 1.361 . S
C128 C136 1.457 . S
C129 N124 1.363 . S
C129 N126 1.377 . S
C129 C142 1.479 . S
C130 C127 1.480 . S
C130 C131 1.383 . S
C130 C135 1.385 . S
C131 H112 0.947 . S
C131 C130 1.383 . S
C131 C132 1.388 . S
C132 H113 0.946 . S
C132 C131 1.388 . S
C132 C133 1.384 . S
C133 C132 1.384 . S
C133 C134 1.377 . S
C134 H114 0.953 . S
C134 C133 1.377 . S
C134 C135 1.369 . S
C135 H115 0.945 . S
C135 C130 1.385 . S
C135 C134 1.369 . S
C136 C128 1.457 . S
C136 C137 1.372 . S
C136 C141 1.364 . S
C137 H116 0.952 . S
C137 C136 1.372 . S
C137 C138 1.389 . S
C138 H117 0.949 . S
C138 C137 1.389 . S
C138 C139 1.387 . S
C139 C138 1.387 . S
C139 C140 1.372 . S
C140 H118 0.950 . S
C140 C139 1.372 . S
C140 C141 1.379 . S
C141 H119 0.948 . S
C141 C136 1.364 . S
C141 C140 1.379 . S
C142 C111 1.383 . S
C142 C129 1.479 . S
C142 C143 1.398 . S
C143 C108 1.382 . S
C143 H120 0.951 . S
C143 C142 1.398 . S
Tb144 N173 2.617 . S
Tb144 N179 2.572 . S
Tb144 O188 2.465 . S
Tb144 O189 2.387 . S
Tb144 O191 2.428 . S
Tb144 O192 2.308 1_565 S
Tb144 O196 2.346 1_465 S
Tb144 O199 2.393 1_455 S
Tb144 C208 2.802 . S
C145 N146 1.379 . S
C145 C148 1.416 . S
C145 C152 1.424 . S
N146 C145 1.379 . S
N146 C149 1.334 . S
N146 Tb155 2.617 . S
C147 C149 1.390 . S
C147 C150 1.339 . S
C147 H167 0.930 1_655 S
C148 C145 1.416 . S
C148 C150 1.416 . S
C148 C154 1.448 . S
C149 N146 1.334 . S
C149 C147 1.390 . S
C149 H160 0.930 1_655 S
C150 C147 1.339 . S
C150 C148 1.416 . S
C150 H171 0.930 . S
C151 C152 1.413 . S
C151 C153 1.427 . S
C151 C157 1.416 . S
C152 C145 1.424 . S
C152 C151 1.413 . S
C152 N156 1.361 . S
C153 C151 1.427 . S
C153 C154 1.328 . S
C153 H168 0.929 . S
C154 C148 1.448 . S
C154 C153 1.328 . S
C154 H169 0.930 . S
Tb155 N146 2.617 . S
Tb155 N156 2.572 . S
Tb155 O190 2.349 1_655 S
Tb155 O193 2.393 1_655 S
Tb155 O194 2.465 . S
Tb155 O195 2.387 . S
Tb155 O197 2.428 . S
Tb155 O198 2.308 1_545 S
Tb155 C219 2.802 . S
N156 C152 1.361 . S
N156 Tb155 2.572 . S
N156 C158 1.340 . S
C157 C151 1.416 . S
C157 C159 1.332 . S
C157 H165 0.931 . S
C158 N156 1.340 . S
C158 C159 1.407 . S
C158 H164 0.930 . S
C159 C157 1.332 . S
C159 C158 1.407 . S
C159 H161 0.929 . S
H160 C149 0.930 1_455 S
H161 C159 0.929 . S
H162 C177 0.930 1_655 S
H163 C184 0.929 . S
H164 C158 0.930 . S
H165 C157 0.931 . S
H166 C180 0.930 . S
H167 C147 0.930 1_455 S
H168 C153 0.929 . S
H169 C154 0.930 . S
H170 C175 0.930 1_655 S
H171 C150 0.930 . S
H172 C183 0.931 . S
N173 Tb144 2.617 . S
N173 C174 1.379 . S
N173 C177 1.334 . S
C174 N173 1.379 . S
C174 C176 1.416 . S
C174 C182 1.424 . S
C175 H170 0.930 1_455 S
C175 C177 1.390 . S
C175 C178 1.339 . S
C176 C174 1.416 . S
C176 C178 1.416 . S
C176 C209 1.448 . S
C177 H162 0.930 1_455 S
C177 N173 1.334 . S
C177 C175 1.390 . S
C178 C175 1.339 . S
C178 C176 1.416 . S
C178 H185 0.930 . S
N179 Tb144 2.572 . S
N179 C180 1.340 . S
N179 C182 1.361 . S
C180 H166 0.930 . S
C180 N179 1.340 . S
C180 C184 1.407 . S
C181 C182 1.413 . S
C181 C183 1.416 . S
C181 C210 1.427 . S
C182 C174 1.424 . S
C182 N179 1.361 . S
C182 C181 1.413 . S
C183 H172 0.931 . S
C183 C181 1.416 . S
C183 C184 1.332 . S
C184 H163 0.929 . S
C184 C180 1.407 . S
C184 C183 1.332 . S
H185 C178 0.930 . S
H186 C209 0.930 . S
H187 C210 0.929 . S
O188 Tb144 2.465 . S
O188 C208 1.264 . S
O189 Tb144 2.387 . S
O189 C200 1.264 . S
O190 Tb155 2.349 1_455 S
O190 C200 1.243 1_545 S
O191 Tb144 2.428 . S
O191 C208 1.256 . S
O192 Tb144 2.308 1_545 S
O192 C207 1.266 . S
O193 Tb155 2.393 1_455 S
O193 C207 1.248 . S
O194 Tb155 2.465 . S
O194 C219 1.264 . S
O195 Tb155 2.387 . S
O195 C211 1.264 . S
O196 Tb144 2.346 1_645 S
O196 C211 1.249 . S
O197 Tb155 2.428 . S
O197 C219 1.256 . S
O198 Tb155 2.308 1_565 S
O198 C218 1.266 . S
O199 Tb144 2.393 1_655 S
O199 C218 1.248 . S
C200 O189 1.264 . S
C200 O190 1.243 1_565 S
C201 C204 1.399 . S
C201 C206 1.383 . S
C201 C208 1.496 . S
C202 C203 1.399 . S
C202 C206 1.389 . S
C203 C202 1.399 . S
C203 C205 1.380 . S
C203 H220 0.929 . S
C204 C201 1.399 . S
C204 C205 1.392 . S
C204 H221 0.929 . S
C205 C203 1.380 . S
C205 C204 1.392 . S
C205 H222 0.929 . S
C206 C201 1.383 . S
C206 C202 1.389 . S
C206 H223 0.931 . S
C207 O192 1.266 . S
C207 O193 1.248 . S
C208 Tb144 2.802 . S
C208 O188 1.264 . S
C208 O191 1.256 . S
C208 C201 1.496 . S
C209 C176 1.448 . S
C209 H186 0.930 . S
C209 C210 1.328 . S
C210 C181 1.427 . S
C210 H187 0.929 . S
C210 C209 1.328 . S
C211 O195 1.264 . S
C211 O196 1.249 . S
C212 C215 1.399 . S
C212 C216 1.383 . S
C212 C219 1.496 . S
C213 C214 1.399 . S
C213 C216 1.389 . S
C214 C213 1.399 . S
C214 C217 1.380 . S
C214 H224 0.929 . S
C215 C212 1.399 . S
C215 C217 1.392 . S
C215 H225 0.929 . S
C216 C212 1.383 . S
C216 C213 1.389 . S
C216 H226 0.931 . S
C217 C214 1.380 . S
C217 C215 1.392 . S
C217 H227 0.929 . S
C218 O198 1.266 . S
C218 O199 1.248 . S
C219 Tb155 2.802 . S
C219 O194 1.264 . S
C219 O197 1.256 . S
C219 C212 1.496 . S
H220 C203 0.929 . S
H221 C204 0.929 . S
H222 C205 0.929 . S
H223 C206 0.931 . S
H224 C214 0.929 . S
H225 C215 0.929 . S
H226 C216 0.931 . S
H227 C217 0.929 . S
Tb228 N257 2.616 1_556 S
Tb228 N263 2.572 1_556 S
Tb228 O272 2.465 . S
Tb228 O273 2.387 1_556 S
Tb228 O275 2.428 . S
Tb228 O276 2.308 1_556 S
Tb228 O280 2.349 . S
Tb228 O283 2.393 1_556 S
Tb228 C292 2.802 . S
C229 N230 1.379 . S
C229 C232 1.416 . S
C229 C236 1.424 . S
N230 C229 1.379 . S
N230 C233 1.334 . S
N230 Tb239 2.617 . S
C231 C233 1.390 . S
C231 C234 1.339 . S
C231 H251 0.930 . S
C232 C229 1.416 . S
C232 C234 1.416 . S
C232 C238 1.448 . S
C233 N230 1.334 . S
C233 C231 1.390 . S
C233 H244 0.930 . S
C234 C231 1.339 . S
C234 C232 1.416 . S
C234 H255 0.930 . S
C235 C236 1.413 . S
C235 C237 1.427 . S
C235 C241 1.416 . S
C236 C229 1.424 . S
C236 C235 1.413 . S
C236 N240 1.361 . S
C237 C235 1.427 . S
C237 C238 1.328 . S
C237 H252 0.929 . S
C238 C232 1.448 . S
C238 C237 1.328 . S
C238 H253 0.930 . S
Tb239 N230 2.617 . S
Tb239 N240 2.572 . S
Tb239 O274 2.349 . S
Tb239 O277 2.393 . S
Tb239 O278 2.465 . S
Tb239 O279 2.387 . S
Tb239 O281 2.428 . S
Tb239 O282 2.308 . S
Tb239 C303 2.802 . S
N240 C236 1.361 . S
N240 Tb239 2.572 . S
N240 C242 1.340 . S
C241 C235 1.416 . S
C241 C243 1.332 . S
C241 H249 0.931 . S
C242 N240 1.340 . S
C242 C243 1.407 . S
C242 H248 0.930 . S
C243 C241 1.332 . S
C243 C242 1.407 . S
C243 H245 0.929 . S
H244 C233 0.930 . S
H245 C243 0.929 . S
H246 C261 0.930 . S
H247 C268 0.929 . S
H248 C242 0.930 . S
H249 C241 0.931 . S
H250 C264 0.930 . S
H251 C231 0.930 . S
H252 C237 0.929 . S
H253 C238 0.930 . S
H254 C259 0.930 . S
H255 C234 0.930 . S
H256 C267 0.931 . S
N257 Tb228 2.616 1_554 S
N257 C258 1.381 . S
N257 C261 1.335 1_554 S
C258 N257 1.381 . S
C258 C260 1.416 . S
C258 C266 1.424 . S
C259 H254 0.930 . S
C259 C261 1.390 . S
C259 C262 1.339 1_556 S
C260 C258 1.416 . S
C260 C262 1.416 . S
C260 C293 1.448 . S
C261 H246 0.930 . S
C261 N257 1.335 1_556 S
C261 C259 1.390 . S
C262 C259 1.339 1_554 S
C262 C260 1.416 . S
C262 H269 0.930 . S
N263 Tb228 2.572 1_554 S
N263 C264 1.340 . S
N263 C266 1.361 . S
C264 H250 0.930 . S
C264 N263 1.340 . S
C264 C268 1.407 . S
C265 C266 1.413 . S
C265 C267 1.416 . S
C265 C294 1.427 . S
C266 C258 1.424 . S
C266 N263 1.361 . S
C266 C265 1.413 . S
C267 H256 0.931 . S
C267 C265 1.416 . S
C267 C268 1.332 . S
C268 H247 0.929 . S
C268 C264 1.407 . S
C268 C267 1.332 . S
H269 C262 0.930 . S
H270 C293 0.930 . S
H271 C294 0.929 . S
O272 Tb228 2.465 . S
O272 C292 1.264 . S
O273 Tb228 2.387 1_554 S
O273 C284 1.264 . S
O274 Tb239 2.349 . S
O274 C284 1.243 . S
O275 Tb228 2.428 . S
O275 C292 1.256 . S
O276 Tb228 2.308 1_554 S
O276 C291 1.266 . S
O277 Tb239 2.393 . S
O277 C291 1.248 . S
O278 Tb239 2.465 . S
O278 C303 1.264 . S
O279 Tb239 2.387 . S
O279 C295 1.264 1_554 S
O280 Tb228 2.349 . S
O280 C295 1.243 . S
O281 Tb239 2.428 . S
O281 C303 1.256 . S
O282 Tb239 2.308 . S
O282 C302 1.266 . S
O283 Tb228 2.393 1_554 S
O283 C302 1.248 . S
C284 O273 1.264 . S
C284 O274 1.243 . S
C285 C288 1.399 . S
C285 C290 1.383 . S
C285 C292 1.496 . S
C286 C287 1.399 . S
C286 C290 1.389 . S
C287 C286 1.399 . S
C287 C289 1.380 . S
C287 H304 0.929 . S
C288 C285 1.399 . S
C288 C289 1.392 . S
C288 H305 0.929 . S
C289 C287 1.380 . S
C289 C288 1.392 . S
C289 H306 0.929 . S
C290 C285 1.383 . S
C290 C286 1.389 . S
C290 H307 0.931 . S
C291 O276 1.266 . S
C291 O277 1.248 . S
C292 Tb228 2.802 . S
C292 O272 1.264 . S
C292 O275 1.256 . S
C292 C285 1.496 . S
C293 C260 1.448 . S
C293 H270 0.930 . S
C293 C294 1.328 . S
C294 C265 1.427 . S
C294 H271 0.929 . S
C294 C293 1.328 . S
C295 O279 1.264 1_556 S
C295 O280 1.243 . S
C296 C299 1.399 . S
C296 C300 1.383 . S
C296 C303 1.496 . S
C297 C298 1.399 . S
C297 C300 1.389 . S
C298 C297 1.399 . S
C298 C301 1.380 . S
C298 H308 0.929 . S
C299 C296 1.399 . S
C299 C301 1.392 . S
C299 H309 0.929 . S
C300 C296 1.383 . S
C300 C297 1.389 . S
C300 H310 0.931 . S
C301 C298 1.380 . S
C301 C299 1.392 . S
C301 H311 0.929 . S
C302 O282 1.266 . S
C302 O283 1.248 . S
C303 Tb239 2.802 . S
C303 O278 1.264 . S
C303 O281 1.256 . S
C303 C296 1.496 . S
H304 C287 0.929 . S
H305 C288 0.929 . S
H306 C289 0.929 . S
H307 C290 0.931 . S
H308 C298 0.929 . S
H309 C299 0.929 . S
H310 C300 0.931 . S
H311 C301 0.929 . S
C312 C313 1.363 . S
C312 C318 1.379 . S
C312 N320 1.356 . S
C313 C312 1.363 . S
C313 C319 1.363 . S
C314 C315 1.363 . S
C314 C319 1.379 . S
C314 N321 1.356 . S
C315 C314 1.363 . S
C315 C318 1.363 . S
N316 C318 1.356 . S
N316 H328 0.983 1_545 S
N316 H329 0.985 . S
N317 C319 1.356 . S
N317 H322 0.984 . S
N317 H323 0.985 . S
C318 C312 1.379 . S
C318 C315 1.363 . S
C318 N316 1.356 . S
C319 C313 1.363 . S
C319 C314 1.379 . S
C319 N317 1.356 . S
N320 C312 1.356 . S
N320 H326 0.984 . S
N320 H327 0.984 . S
N321 C314 1.356 . S
N321 H324 0.984 . S
N321 H325 0.985 . S
H322 N317 0.984 . S
H323 N317 0.985 . S
H324 N321 0.984 . S
H325 N321 0.985 . S
H326 N320 0.984 . S
H327 N320 0.984 . S
H328 N316 0.983 1_565 S
H329 N316 0.985 . S
C330 C331 1.363 . S
C330 C336 1.379 . S
C330 N338 1.356 . S
C331 C330 1.363 . S
C331 C337 1.363 . S
C332 C333 1.363 . S
C332 C337 1.379 . S
C332 N339 1.356 . S
C333 C332 1.363 . S
C333 C336 1.363 . S
N334 C336 1.356 . S
N334 H346 0.984 . S
N334 H347 0.985 . S
N335 C337 1.356 . S
N335 H340 0.984 . S
N335 H341 0.985 1_554 S
C336 C330 1.379 . S
C336 C333 1.363 . S
C336 N334 1.356 . S
C337 C331 1.363 . S
C337 C332 1.379 . S
C337 N335 1.356 . S
N338 C330 1.356 . S
N338 H344 0.984 . S
N338 H345 0.984 . S
N339 C332 1.356 . S
N339 H342 0.984 . S
N339 H343 0.985 1_554 S
H340 N335 0.984 . S
H341 N335 0.985 1_556 S
H342 N339 0.984 . S
H343 N339 0.985 1_556 S
H344 N338 0.984 . S
H345 N338 0.984 . S
H346 N334 0.984 . S
H347 N334 0.985 . S
C348 C349 1.363 . S
C348 C354 1.379 . S
C348 N356 1.356 . S
C349 C348 1.363 . S
C349 C355 1.363 . S
C350 C351 1.363 . S
C350 C355 1.379 . S
C350 N357 1.356 . S
C351 C350 1.363 . S
C351 C354 1.363 . S
N352 C354 1.356 . S
N352 H364 0.995 . S
N352 H365 0.985 . S
N353 C355 1.356 . S
N353 H358 0.984 . S
N353 H359 0.985 . S
C354 C348 1.379 . S
C354 C351 1.363 . S
C354 N352 1.356 . S
C355 C349 1.363 . S
C355 C350 1.379 . S
C355 N353 1.356 . S
N356 C348 1.356 . S
N356 H362 0.984 . S
N356 H363 0.984 . S
N357 C350 1.356 . S
N357 H360 0.984 . S
N357 H361 0.985 . S
H358 N353 0.984 . S
H359 N353 0.985 . S
H360 N357 0.984 . S
H361 N357 0.985 . S
H362 N356 0.984 . S
H363 N356 0.984 . S
H364 N352 0.995 . S
H365 N352 0.985 . S
C366 C367 1.363 . S
C366 C372 1.379 . S
C366 N374 1.356 1_554 S
C367 C366 1.363 . S
C367 C373 1.363 . S
C368 C369 1.363 . S
C368 C373 1.379 . S
C368 N375 1.356 . S
C369 C368 1.363 . S
C369 C372 1.363 . S
N370 C372 1.356 1_556 S
N370 H382 0.984 . S
N370 H383 0.985 . S
N371 C373 1.356 . S
N371 H376 0.984 . S
N371 H377 0.985 . S
C372 C366 1.379 . S
C372 C369 1.363 . S
C372 N370 1.356 1_554 S
C373 C367 1.363 . S
C373 C368 1.379 . S
C373 N371 1.356 . S
N374 C366 1.356 1_556 S
N374 H380 0.984 . S
N374 H381 0.984 . S
N375 C368 1.356 . S
N375 H378 0.984 . S
N375 H379 0.985 . S
H376 N371 0.984 . S
H377 N371 0.985 . S
H378 N375 0.984 . S
H379 N375 0.985 . S
H380 N374 0.984 . S
H381 N374 0.984 . S
H382 N370 0.984 . S
H383 N370 0.985 . S
C384 C385 1.363 . S
C384 C390 1.379 . S
C384 N392 1.356 . S
C385 C384 1.363 . S
C385 C391 1.363 . S
C386 C387 1.363 . S
C386 C391 1.379 . S
C386 N393 1.356 . S
C387 C386 1.363 . S
C387 C390 1.363 . S
N388 C390 1.356 . S
N388 H400 0.984 1_565 S
N388 H401 0.985 . S
N389 C391 1.356 . S
N389 H394 0.984 . S
N389 H395 0.985 . S
C390 C384 1.379 . S
C390 C387 1.363 . S
C390 N388 1.356 . S
C391 C385 1.363 . S
C391 C386 1.379 . S
C391 N389 1.356 . S
N392 C384 1.356 . S
N392 H398 0.984 1_565 S
N392 H399 0.984 . S
N393 C386 1.356 . S
N393 H396 0.984 . S
N393 H397 0.985 . S
H394 N389 0.984 . S
H395 N389 0.985 . S
H396 N393 0.984 . S
H397 N393 0.985 . S
H398 N392 0.984 1_545 S
H399 N392 0.984 . S
H400 N388 0.984 1_545 S
H401 N388 0.985 . S
C402 C403 1.363 . S
C402 C408 1.379 . S
C402 N410 1.356 . S
C403 C402 1.363 . S
C403 C409 1.363 . S
C404 C405 1.363 . S
C404 C409 1.379 . S
C404 N411 1.356 . S
C405 C404 1.363 . S
C405 C408 1.363 . S
N406 C408 1.356 . S
N406 H418 0.984 . S
N406 H419 0.985 . S
N407 C409 1.356 . S
N407 H412 0.984 . S
N407 H413 0.985 . S
C408 C402 1.379 . S
C408 C405 1.363 . S
C408 N406 1.356 . S
C409 C403 1.363 . S
C409 C404 1.379 . S
C409 N407 1.356 . S
N410 C402 1.356 . S
N410 H416 0.984 . S
N410 H417 0.984 . S
N411 C404 1.356 . S
N411 H414 0.984 . S
N411 H415 0.985 . S
H412 N407 0.984 . S
H413 N407 0.985 . S
H414 N411 0.984 . S
H415 N411 0.985 . S
H416 N410 0.984 . S
H417 N410 0.984 . S
H418 N406 0.984 . S
H419 N406 0.985 . S
C420 C421 1.363 . S
C420 C426 1.379 . S
C420 N428 1.356 . S
C421 C420 1.363 . S
C421 C427 1.363 . S
C422 C423 1.363 . S
C422 C427 1.379 . S
C422 N429 1.356 . S
C423 C422 1.363 . S
C423 C426 1.363 . S
N424 C426 1.356 . S
N424 H436 0.984 . S
N424 H437 0.985 . S
N425 C427 1.356 . S
N425 H430 0.984 . S
N425 H431 0.985 . S
C426 C420 1.379 . S
C426 C423 1.363 . S
C426 N424 1.356 . S
C427 C421 1.363 . S
C427 C422 1.379 . S
C427 N425 1.356 . S
N428 C420 1.356 . S
N428 H434 0.984 . S
N428 H435 0.984 . S
N429 C422 1.356 . S
N429 H432 0.984 . S
N429 H433 0.985 1_655 S
H430 N425 0.984 . S
H431 N425 0.985 . S
H432 N429 0.984 . S
H433 N429 0.985 1_455 S
H434 N428 0.984 . S
H435 N428 0.984 . S
H436 N424 0.984 . S
H437 N424 0.985 . S
C438 C439 1.363 . S
C438 C444 1.379 . S
C438 N446 1.356 . S
C439 C438 1.363 . S
C439 C445 1.363 . S
C440 C441 1.363 . S
C440 C445 1.379 . S
C440 N447 1.356 . S
C441 C440 1.363 . S
C441 C444 1.363 . S
N442 C444 1.356 . S
N442 H454 0.984 . S
N442 H455 0.985 . S
N443 C445 1.356 . S
N443 H448 0.984 . S
N443 H449 0.985 . S
C444 C438 1.379 . S
C444 C441 1.363 . S
C444 N442 1.356 . S
C445 C439 1.363 . S
C445 C440 1.379 . S
C445 N443 1.356 . S
N446 C438 1.356 . S
N446 H452 0.984 . S
N446 H453 0.984 . S
N447 C440 1.356 . S
N447 H450 0.984 . S
N447 H451 0.985 . S
H448 N443 0.984 . S
H449 N443 0.985 . S
H450 N447 0.984 . S
H451 N447 0.985 . S
H452 N446 0.984 . S
H453 N446 0.984 . S
H454 N442 0.984 . S
H455 N442 0.985 . S
C456 C457 1.363 . S
C456 C462 1.379 . S
C456 N464 1.356 . S
C457 C456 1.363 . S
C457 C463 1.363 . S
C458 C459 1.363 . S
C458 C463 1.379 . S
C458 N465 1.356 . S
C459 C458 1.363 . S
C459 C462 1.363 . S
N460 C462 1.356 . S
N460 H472 0.984 . S
N460 H473 0.985 . S
N461 C463 1.356 . S
N461 H466 0.984 . S
N461 H467 0.985 . S
C462 C456 1.379 . S
C462 C459 1.363 . S
C462 N460 1.356 . S
C463 C457 1.363 . S
C463 C458 1.379 . S
C463 N461 1.356 . S
N464 C456 1.356 . S
N464 H470 0.984 . S
N464 H471 0.984 . S
N465 C458 1.356 . S
N465 H468 0.984 . S
N465 H469 0.985 . S
H466 N461 0.984 . S
H467 N461 0.985 . S
H468 N465 0.984 . S
H469 N465 0.985 . S
H470 N464 0.984 . S
H471 N464 0.984 . S
H472 N460 0.984 . S
H473 N460 0.985 . S
C474 C475 1.363 . S
C474 C480 1.379 . S
C474 N482 1.356 . S
C475 C474 1.363 . S
C475 C481 1.363 . S
C476 C477 1.363 . S
C476 C481 1.379 . S
C476 N483 1.356 . S
C477 C476 1.363 . S
C477 C480 1.363 . S
N478 C480 1.356 . S
N478 H490 0.984 . S
N478 H491 0.985 . S
N479 C481 1.356 . S
N479 H484 0.984 . S
N479 H485 0.985 . S
C480 C474 1.379 . S
C480 C477 1.363 . S
C480 N478 1.356 . S
C481 C475 1.363 . S
C481 C476 1.379 . S
C481 N479 1.356 . S
N482 C474 1.356 . S
N482 H488 0.984 . S
N482 H489 0.984 . S
N483 C476 1.356 . S
N483 H486 0.984 . S
N483 H487 0.985 . S
H484 N479 0.984 . S
H485 N479 0.985 . S
H486 N483 0.984 . S
H487 N483 0.985 . S
H488 N482 0.984 . S
H489 N482 0.984 . S
H490 N478 0.984 . S
H491 N478 0.985 . S
C492 C493 1.363 . S
C492 C498 1.379 . S
C492 N500 1.356 . S
C493 C492 1.363 . S
C493 C499 1.363 . S
C494 C495 1.363 . S
C494 C499 1.379 . S
C494 N501 1.356 . S
C495 C494 1.363 . S
C495 C498 1.363 . S
N496 C498 1.356 . S
N496 H508 0.984 . S
N496 H509 0.985 . S
N497 C499 1.356 . S
N497 H502 0.984 . S
N497 H503 0.985 . S
C498 C492 1.379 . S
C498 C495 1.363 . S
C498 N496 1.356 . S
C499 C493 1.363 . S
C499 C494 1.379 . S
C499 N497 1.356 . S
N500 C492 1.356 . S
N500 H506 0.984 . S
N500 H507 0.984 . S
N501 C494 1.356 . S
N501 H504 0.984 . S
N501 H505 0.985 . S
H502 N497 0.984 . S
H503 N497 0.985 . S
H504 N501 0.984 . S
H505 N501 0.985 . S
H506 N500 0.984 . S
H507 N500 0.984 . S
H508 N496 0.984 . S
H509 N496 0.985 . S
C510 C511 1.363 . S
C510 C516 1.379 . S
C510 N518 1.356 . S
C511 C510 1.363 . S
C511 C517 1.363 . S
C512 C513 1.363 . S
C512 C517 1.379 . S
C512 N519 1.356 1_565 S
C513 C512 1.363 . S
C513 C516 1.363 . S
N514 C516 1.356 . S
N514 H526 0.984 . S
N514 H527 0.985 . S
N515 C517 1.356 1_545 S
N515 H520 0.984 . S
N515 H521 0.985 . S
C516 C510 1.379 . S
C516 C513 1.363 . S
C516 N514 1.356 . S
C517 C511 1.363 . S
C517 C512 1.379 . S
C517 N515 1.356 1_565 S
N518 C510 1.356 . S
N518 H524 0.984 . S
N518 H525 0.984 . S
N519 C512 1.356 1_545 S
N519 H522 0.984 . S
N519 H523 0.985 . S
H520 N515 0.984 . S
H521 N515 0.985 . S
H522 N519 0.984 . S
H523 N519 0.985 . S
H524 N518 0.984 . S
H525 N518 0.984 . S
H526 N514 0.984 . S
H527 N514 0.985 . S
C315 C207 1.675 . S
C313 C133 1.667 . S
C331 C25 1.652 . S
C333 C302 1.662 . S
C349 C61 1.637 . S
C351 C218 1.675 . S
C367 C97 1.600 . S
C369 C291 1.662 . S
C387 C202 1.429 . S
C385 C1 1.557 . S
C405 C295 1.632 . S
C403 C67 1.585 . S
C421 C103 1.600 . S
C423 C211 1.667 . S
C439 C109 1.534 . S
C441 C286 1.412 . S
C459 C297 1.412 . S
C457 C37 1.522 . S
C477 C213 1.429 . S
C475 C73 1.538 . S
C495 C284 1.632 . S
C493 C139 1.614 . S
C511 C31 1.653 . S
C513 C200 1.667 . S
