# Generated by pormake.
# Topology ssb, (4,4)-cn, num edge types: 1
# Building blocks:
#     Node 0, Type 0, BuildingBlock: KUFVIS_clean_linker_0, # of connection points: 4
#     Node 1, Type 0, BuildingBlock: KUFVIS_clean_linker_0, # of connection points: 4
#     Node 2, Type 0, BuildingBlock: KUFVIS_clean_linker_0, # of connection points: 4
#     Node 3, Type 0, BuildingBlock: KUFVIS_clean_linker_0, # of connection points: 4
#     Node 4, Type 0, BuildingBlock: KUFVIS_clean_linker_0, # of connection points: 4
#     Node 5, Type 0, BuildingBlock: KUFVIS_clean_linker_0, # of connection points: 4
#     Node 6, Type 0, BuildingBlock: KUFVIS_clean_linker_0, # of connection points: 4
#     Node 7, Type 0, BuildingBlock: KUFVIS_clean_linker_0, # of connection points: 4
#     Node 8, Type 1, BuildingBlock: KOZSID_clean_sbu_0, # of connection points: 4
#     Node 9, Type 1, BuildingBlock: KOZSID_clean_sbu_0, # of connection points: 4
#     Node 10, Type 1, BuildingBlock: KOZSID_clean_sbu_0, # of connection points: 4
#     Node 11, Type 1, BuildingBlock: KOZSID_clean_sbu_0, # of connection points: 4
#     Node 12, Type 1, BuildingBlock: KOZSID_clean_sbu_0, # of connection points: 4
#     Node 13, Type 1, BuildingBlock: KOZSID_clean_sbu_0, # of connection points: 4
#     Node 14, Type 1, BuildingBlock: KOZSID_clean_sbu_0, # of connection points: 4
#     Node 15, Type 1, BuildingBlock: KOZSID_clean_sbu_0, # of connection points: 4
#     Edge 16, Type (0, 1), BuildingBlock: XUDNAN_clean_linker_2, # of connection points: 2
#     Edge 17, Type (0, 1), BuildingBlock: XUDNAN_clean_linker_2, # of connection points: 2
#     Edge 18, Type (0, 1), BuildingBlock: XUDNAN_clean_linker_2, # of connection points: 2
#     Edge 19, Type (0, 1), BuildingBlock: XUDNAN_clean_linker_2, # of connection points: 2
#     Edge 20, Type (0, 1), BuildingBlock: XUDNAN_clean_linker_2, # of connection points: 2
#     Edge 21, Type (0, 1), BuildingBlock: XUDNAN_clean_linker_2, # of connection points: 2
#     Edge 22, Type (0, 1), BuildingBlock: XUDNAN_clean_linker_2, # of connection points: 2
#     Edge 23, Type (0, 1), BuildingBlock: XUDNAN_clean_linker_2, # of connection points: 2
#     Edge 24, Type (0, 1), BuildingBlock: XUDNAN_clean_linker_2, # of connection points: 2
#     Edge 25, Type (0, 1), BuildingBlock: XUDNAN_clean_linker_2, # of connection points: 2
#     Edge 26, Type (0, 1), BuildingBlock: XUDNAN_clean_linker_2, # of connection points: 2
#     Edge 27, Type (0, 1), BuildingBlock: XUDNAN_clean_linker_2, # of connection points: 2
#     Edge 28, Type (0, 1), BuildingBlock: XUDNAN_clean_linker_2, # of connection points: 2
#     Edge 29, Type (0, 1), BuildingBlock: XUDNAN_clean_linker_2, # of connection points: 2
#     Edge 30, Type (0, 1), BuildingBlock: XUDNAN_clean_linker_2, # of connection points: 2
#     Edge 31, Type (0, 1), BuildingBlock: XUDNAN_clean_linker_2, # of connection points: 2
#     Edge 32, Type (0, 1), BuildingBlock: XUDNAN_clean_linker_2, # of connection points: 2
#     Edge 33, Type (0, 1), BuildingBlock: XUDNAN_clean_linker_2, # of connection points: 2
#     Edge 34, Type (0, 1), BuildingBlock: XUDNAN_clean_linker_2, # of connection points: 2
#     Edge 35, Type (0, 1), BuildingBlock: XUDNAN_clean_linker_2, # of connection points: 2
#     Edge 36, Type (0, 1), BuildingBlock: XUDNAN_clean_linker_2, # of connection points: 2
#     Edge 37, Type (0, 1), BuildingBlock: XUDNAN_clean_linker_2, # of connection points: 2
#     Edge 38, Type (0, 1), BuildingBlock: XUDNAN_clean_linker_2, # of connection points: 2
#     Edge 39, Type (0, 1), BuildingBlock: XUDNAN_clean_linker_2, # of connection points: 2
#     Edge 40, Type (0, 1), BuildingBlock: XUDNAN_clean_linker_2, # of connection points: 2
#     Edge 41, Type (0, 1), BuildingBlock: XUDNAN_clean_linker_2, # of connection points: 2
#     Edge 42, Type (0, 1), BuildingBlock: XUDNAN_clean_linker_2, # of connection points: 2
#     Edge 43, Type (0, 1), BuildingBlock: XUDNAN_clean_linker_2, # of connection points: 2
#     Edge 44, Type (0, 1), BuildingBlock: XUDNAN_clean_linker_2, # of connection points: 2
#     Edge 45, Type (0, 1), BuildingBlock: XUDNAN_clean_linker_2, # of connection points: 2
#     Edge 46, Type (0, 1), BuildingBlock: XUDNAN_clean_linker_2, # of connection points: 2
#     Edge 47, Type (0, 1), BuildingBlock: XUDNAN_clean_linker_2, # of connection points: 2
# Relax obj value: 0.003
# Max RMSD: 0.066
# Mean RMSD: 0.032
data_MOF--net-ssb--node1-KOZSID_clean_sbu_0--node2-KUFVIS_clean_linker_0--edge1-XUDNAN_clean_linker_2
_symmetry_space_group_name_H-M    P1
_symmetry_Int_Tables_number       1
_symmetry_cell_setting            triclinic
loop_
_symmetry_equiv_pos_as_xyz
'x, y, z'
_cell_length_a     54.416239
_cell_length_b     54.329149
_cell_length_c     39.979456
_cell_angle_alpha  92.54906
_cell_angle_beta   95.008089
_cell_angle_gamma 89.998828
loop_
_atom_site_label
_atom_site_type_symbol
_atom_site_fract_x
_atom_site_fract_y
_atom_site_fract_z
_atom_type_partial_charge
H0 H 0.21813 0.19864 0.36876 0.0
H1 H 0.28224 0.21302 0.31772 0.0
H2 H 0.21461 0.25447 0.29663 0.0
H3 H 0.23611 0.28165 0.27427 0.0
H4 H 0.29446 0.28803 0.21026 0.0
H5 H 0.29142 0.22431 0.26886 0.0
C6 C 0.22711 0.20876 0.3504 0.0
C7 C 0.21437 0.22772 0.33404 0.0
C8 C 0.2513 0.20288 0.34406 0.0
C9 C 0.26314 0.21704 0.32097 0.0
C10 C 0.25032 0.2361 0.30268 0.0
C11 C 0.22556 0.24074 0.30972 0.0
C12 C 0.26236 0.25094 0.27648 0.0
C13 C 0.25239 0.27377 0.26454 0.0
C14 C 0.26375 0.28717 0.24022 0.0
C15 C 0.28546 0.27778 0.22837 0.0
C16 C 0.29554 0.25529 0.23856 0.0
C17 C 0.28387 0.24202 0.26235 0.0
H18 H 0.70584 0.30475 0.19996 0.0
H19 H 0.77026 0.30273 0.2694 0.0
H20 H 0.72341 0.23844 0.25019 0.0
H21 H 0.73323 0.23232 0.30254 0.0
H22 H 0.80082 0.21941 0.36108 0.0
H23 H 0.79763 0.27688 0.29057 0.0
C24 C 0.71816 0.29447 0.21691 0.0
C25 C 0.71199 0.27033 0.22371 0.0
C26 C 0.73967 0.30583 0.23222 0.0
C27 C 0.75436 0.29336 0.25668 0.0
C28 C 0.74854 0.26908 0.26454 0.0
C29 C 0.72767 0.25753 0.24666 0.0
C30 C 0.76353 0.25597 0.29177 0.0
C31 C 0.75249 0.237 0.30828 0.0
C32 C 0.76607 0.22344 0.33228 0.0
C33 C 0.79054 0.2299 0.34213 0.0
C34 C 0.80174 0.24989 0.32833 0.0
C35 C 0.78847 0.26228 0.3022 0.0
H36 H 0.79829 0.81148 0.35985 0.0
H37 H 0.78761 0.7461 0.29786 0.0
H38 H 0.73777 0.80808 0.28351 0.0
H39 H 0.71507 0.78425 0.25024 0.0
H40 H 0.71089 0.72183 0.1812 0.0
H41 H 0.77557 0.73218 0.24892 0.0
C42 C 0.78748 0.80155 0.33952 0.0
C43 C 0.76621 0.81226 0.32404 0.0
C44 C 0.79511 0.778 0.32973 0.0
C45 C 0.78161 0.76465 0.30335 0.0
C46 C 0.76092 0.77501 0.28489 0.0
C47 C 0.7535 0.7992 0.29601 0.0
C48 C 0.74727 0.76036 0.25495 0.0
C49 C 0.72382 0.76796 0.24053 0.0
C50 C 0.71112 0.75468 0.21309 0.0
C51 C 0.72144 0.73284 0.20065 0.0
C52 C 0.74452 0.72441 0.21357 0.0
C53 C 0.75742 0.73846 0.24033 0.0
H54 H 0.20869 0.79583 0.32529 0.0
H55 H 0.27328 0.7866 0.27266 0.0
H56 H 0.21159 0.7363 0.25178 0.0
H57 H 0.24052 0.71042 0.23974 0.0
H58 H 0.30016 0.70555 0.1768 0.0
H59 H 0.28262 0.7755 0.2221 0.0
C60 C 0.21809 0.7862 0.3058 0.0
C61 C 0.20736 0.76505 0.28933 0.0
C62 C 0.24157 0.79418 0.29929 0.0
C63 C 0.25474 0.7807 0.27612 0.0
C64 C 0.24447 0.75962 0.25838 0.0
C65 C 0.2204 0.75213 0.26511 0.0
C66 C 0.25952 0.74497 0.23459 0.0
C67 C 0.25507 0.71955 0.22824 0.0
C68 C 0.26912 0.70553 0.20666 0.0
C69 C 0.28899 0.71655 0.19292 0.0
C70 C 0.29427 0.74164 0.19893 0.0
C71 C 0.279 0.75593 0.21885 0.0
H72 H 0.29455 0.71388 0.8521 0.0
H73 H 0.23014 0.73206 0.78983 0.0
H74 H 0.30111 0.76399 0.77343 0.0
H75 H 0.27764 0.79634 0.75295 0.0
H76 H 0.21708 0.8015 0.67638 0.0
H77 H 0.22269 0.73831 0.73579 0.0
C78 C 0.28603 0.72388 0.83142 0.0
C79 C 0.30098 0.73871 0.81347 0.0
C80 C 0.26092 0.72014 0.82232 0.0
C81 C 0.24978 0.73417 0.79599 0.0
C82 C 0.26374 0.75105 0.77835 0.0
C83 C 0.28963 0.75271 0.78741 0.0
C84 C 0.25148 0.76568 0.74951 0.0
C85 C 0.26104 0.78866 0.73965 0.0
C86 C 0.24923 0.80171 0.71238 0.0
C87 C 0.22718 0.79176 0.69624 0.0
C88 C 0.21769 0.76924 0.70489 0.0
C89 C 0.22994 0.7562 0.73087 0.0
H90 H 0.29161 0.30512 0.87347 0.0
H91 H 0.28654 0.23992 0.80907 0.0
H92 H 0.23201 0.29681 0.79553 0.0
H93 H 0.20992 0.2621 0.76826 0.0
H94 H 0.22797 0.21763 0.68209 0.0
H95 H 0.28568 0.24377 0.75338 0.0
C96 C 0.28175 0.29396 0.85353 0.0
C97 C 0.25969 0.30286 0.83731 0.0
C98 C 0.29196 0.27155 0.84292 0.0
C99 C 0.27935 0.25779 0.81622 0.0
C100 C 0.25835 0.26716 0.79776 0.0
C101 C 0.24829 0.28951 0.8091 0.0
C102 C 0.24892 0.25454 0.76508 0.0
C103 C 0.22351 0.25346 0.75341 0.0
C104 C 0.2157 0.24008 0.72316 0.0
C105 C 0.23366 0.22812 0.70505 0.0
C106 C 0.25858 0.2281 0.71695 0.0
C107 C 0.26612 0.24257 0.74566 0.0
H108 H 0.71022 0.30492 0.86186 0.0
H109 H 0.76743 0.30301 0.79483 0.0
H110 H 0.71746 0.24101 0.79747 0.0
H111 H 0.72766 0.22914 0.74837 0.0
H112 H 0.79187 0.21952 0.69508 0.0
H113 H 0.79089 0.27791 0.77032 0.0
C114 C 0.71986 0.29536 0.84261 0.0
C115 C 0.71133 0.27207 0.83034 0.0
C116 C 0.74057 0.30643 0.83091 0.0
C117 C 0.75216 0.29388 0.80459 0.0
C118 C 0.74424 0.2699 0.79148 0.0
C119 C 0.72387 0.2593 0.80553 0.0
C120 C 0.7573 0.2557 0.76407 0.0
C121 C 0.74624 0.23492 0.74508 0.0
C122 C 0.75913 0.22128 0.72114 0.0
C123 C 0.78262 0.22919 0.71469 0.0
C124 C 0.79367 0.25009 0.7315 0.0
C125 C 0.78128 0.26273 0.75659 0.0
H126 H 0.72427 0.71749 0.84545 0.0
H127 H 0.78873 0.72891 0.79442 0.0
H128 H 0.72824 0.78067 0.78585 0.0
H129 H 0.75608 0.80599 0.77358 0.0
H130 H 0.80466 0.80916 0.69642 0.0
H131 H 0.79815 0.74159 0.74701 0.0
C132 C 0.73419 0.72865 0.82925 0.0
C133 C 0.72399 0.75086 0.81817 0.0
C134 C 0.75727 0.72067 0.82027 0.0
C135 C 0.77051 0.735 0.79971 0.0
C136 C 0.76039 0.75668 0.78622 0.0
C137 C 0.73679 0.76426 0.79564 0.0
C138 C 0.77437 0.77129 0.76265 0.0
C139 C 0.76895 0.79637 0.75859 0.0
C140 C 0.77987 0.80957 0.73471 0.0
C141 C 0.79743 0.7985 0.71561 0.0
C142 C 0.80544 0.77429 0.72096 0.0
C143 C 0.79312 0.76056 0.7439 0.0
C144 C 0.04714 0.28062 0.58362 0.0
C145 C 0.06074 0.30192 0.5927 0.0
C146 C 0.04855 0.32086 0.57733 0.0
C147 C 0.02866 0.31015 0.55901 0.0
N148 N 0.02718 0.28551 0.56196 0.0
Co149 Co 0.00449 0.26225 0.53339 0.0
N150 N 0.98966 0.28958 0.50634 0.0
C151 C 0.99372 0.31393 0.51261 0.0
C152 C 0.97989 0.32855 0.49119 0.0
C153 C 0.96591 0.31257 0.47016 0.0
C154 C 0.97215 0.28902 0.47992 0.0
N155 N 0.98333 0.23862 0.5034 0.0
C156 C 0.96755 0.24264 0.47603 0.0
C157 C 0.95749 0.22074 0.46166 0.0
C158 C 0.96693 0.2023 0.48096 0.0
C159 C 0.98234 0.21388 0.5057 0.0
N160 N 0.01816 0.23522 0.56153 0.0
C161 C 0.00971 0.21182 0.5606 0.0
C162 C 0.02025 0.19818 0.58603 0.0
C163 C 0.03666 0.21378 0.60398 0.0
C164 C 0.03563 0.23596 0.58788 0.0
N165 N 0.97781 0.26684 0.56469 0.0
C166 C 0.94021 0.27246 0.60945 0.0
C167 C 0.94131 0.25157 0.58799 0.0
C168 C 0.95999 0.24913 0.56626 0.0
C169 C 0.9582 0.29068 0.60782 0.0
C170 C 0.9766 0.28757 0.58546 0.0
N171 N 0.03084 0.25758 0.50238 0.0
C172 C 0.05631 0.23066 0.47019 0.0
C173 C 0.06733 0.25086 0.45697 0.0
C174 C 0.06009 0.27447 0.46715 0.0
C175 C 0.04172 0.27741 0.48943 0.0
C176 C 0.03848 0.23441 0.49312 0.0
H177 H 0.03644 0.29586 0.49574 0.0
H178 H 0.03098 0.21835 0.50304 0.0
H179 H 0.9593 0.2326 0.55099 0.0
H180 H 0.9896 0.30227 0.58561 0.0
C181 C 0.01211 0.32234 0.53688 0.0
C182 C 0.0534 0.25614 0.59613 0.0
C183 C 0.96048 0.26679 0.46386 0.0
C184 C 0.99391 0.20259 0.53356 0.0
H185 H 0.07803 0.30392 0.60792 0.0
H186 H 0.05416 0.34001 0.57823 0.0
H187 H 0.98017 0.34845 0.49065 0.0
H188 H 0.95259 0.31766 0.44997 0.0
H189 H 0.94418 0.21842 0.43999 0.0
H190 H 0.96247 0.18286 0.47794 0.0
H191 H 0.01703 0.17897 0.59034 0.0
H192 H 0.0488 0.20903 0.62562 0.0
H193 H 0.92756 0.23712 0.58744 0.0
H194 H 0.95835 0.30722 0.62398 0.0
H195 H 0.06161 0.21206 0.46308 0.0
H196 H 0.06817 0.29058 0.45735 0.0
C197 C 0.71793 0.05339 0.56735 0.0
C198 C 0.69562 0.05833 0.58067 0.0
C199 C 0.68019 0.03894 0.57079 0.0
C200 C 0.69385 0.02313 0.55222 0.0
N201 N 0.7169 0.03137 0.54954 0.0
Co202 Co 0.74276 0.01291 0.52645 0.0
N203 N 0.71815 0.98999 0.50151 0.0
C204 C 0.69485 0.98666 0.50936 0.0
C205 C 0.68213 0.96915 0.48894 0.0
C206 C 0.69852 0.9606 0.46705 0.0
C207 C 0.72042 0.97342 0.47534 0.0
N208 N 0.76869 0.99438 0.50337 0.0
C209 C 0.76679 0.97738 0.47713 0.0
C210 C 0.7899 0.96888 0.46997 0.0
C211 C 0.80673 0.98053 0.4928 0.0
C212 C 0.79308 0.99553 0.51253 0.0
N213 N 0.76735 0.03577 0.55163 0.0
C214 C 0.79194 0.03227 0.55489 0.0
C215 C 0.80461 0.05151 0.57176 0.0
C216 C 0.78695 0.06809 0.58006 0.0
C217 C 0.76426 0.05786 0.56829 0.0
N218 N 0.74634 0.99041 0.56327 0.0
C219 C 0.75 0.95792 0.61576 0.0
C220 C 0.74824 0.98335 0.62243 0.0
C221 C 0.74655 0.99926 0.59588 0.0
C222 C 0.75029 0.9492 0.58228 0.0
C223 C 0.7483 0.96566 0.55654 0.0
N224 N 0.73907 0.03547 0.48994 0.0
C225 C 0.75712 0.06523 0.45683 0.0
C226 C 0.73363 0.07293 0.44426 0.0
C227 C 0.71297 0.06043 0.45369 0.0
C228 C 0.71609 0.04184 0.47663 0.0
C229 C 0.75941 0.04635 0.47928 0.0
H230 H 0.69985 0.0332 0.48443 0.0
H231 H 0.77766 0.04129 0.48904 0.0
H232 H 0.74523 0.01871 0.60182 0.0
H233 H 0.74831 0.95822 0.53117 0.0
C234 C 0.68491 1.00207 0.53367 0.0
C235 C 0.74022 0.06886 0.57505 0.0
C236 C 0.74355 0.96723 0.46035 0.0
C237 C 0.8026 0.01299 0.53696 0.0
H238 H 0.69107 0.07404 0.59651 0.0
H239 H 0.66114 0.03685 0.57605 0.0
H240 H 0.66313 0.96345 0.48962 0.0
H241 H 0.69495 0.94611 0.44778 0.0
H242 H 0.79414 0.95539 0.4506 0.0
H243 H 0.82659 0.97864 0.49437 0.0
H244 H 0.82441 0.05379 0.57613 0.0
H245 H 0.79062 0.08576 0.59302 0.0
H246 H 0.74786 0.99092 0.64789 0.0
H247 H 0.75229 0.92977 0.57587 0.0
H248 H 0.7737 0.07442 0.45073 0.0
H249 H 0.69448 0.06532 0.44409 0.0
C250 C 0.0489 0.76678 0.56336 0.0
C251 C 0.06035 0.78878 0.57509 0.0
C252 C 0.05027 0.80688 0.55567 0.0
C253 C 0.03334 0.79511 0.53314 0.0
N254 N 0.03163 0.7707 0.53743 0.0
Co255 Co 0.01058 0.7471 0.50773 0.0
N256 N 0.99115 0.77418 0.48624 0.0
C257 C 0.99726 0.79822 0.48818 0.0
C258 C 0.97941 0.81284 0.47302 0.0
C259 C 0.96086 0.79703 0.46068 0.0
C260 C 0.96862 0.77348 0.46862 0.0
N261 N 0.99003 0.72374 0.47741 0.0
C262 C 0.9682 0.72732 0.45927 0.0
C263 C 0.96053 0.70608 0.4407 0.0
C264 C 0.97804 0.68853 0.44792 0.0
C265 C 0.99545 0.70003 0.4702 0.0
N266 N 0.02952 0.71983 0.52954 0.0
C267 C 0.02913 0.69605 0.51835 0.0
C268 C 0.04358 0.68113 0.53863 0.0
C269 C 0.05424 0.69651 0.56381 0.0
C270 C 0.04597 0.72014 0.55721 0.0
N271 N 0.98648 0.74569 0.54162 0.0
C272 C 0.94866 0.74399 0.58602 0.0
C273 C 0.95566 0.7229 0.5674 0.0
C274 C 0.97478 0.72402 0.54627 0.0
C275 C 0.9619 0.76586 0.58213 0.0
C276 C 0.98022 0.76641 0.55954 0.0
N277 N 0.03452 0.74829 0.47353 0.0
C278 C 0.07628 0.74362 0.45836 0.0
C279 C 0.06847 0.74588 0.42442 0.0
C280 C 0.04344 0.75013 0.41548 0.0
C281 C 0.02673 0.75108 0.44037 0.0
C282 C 0.05916 0.74519 0.48242 0.0
H283 H 0.00743 0.75354 0.43265 0.0
H284 H 0.06599 0.74341 0.50817 0.0
H285 H 0.97961 0.70728 0.53303 0.0
H286 H 0.98908 0.78377 0.55636 0.0
C287 C 0.01737 0.80667 0.50956 0.0
C288 C 0.05749 0.74244 0.57424 0.0
C289 C 0.95481 0.75074 0.4581 0.0
C290 C 0.0139 0.68818 0.48991 0.0
H291 H 0.07511 0.79158 0.59479 0.0
H292 H 0.05479 0.82633 0.55774 0.0
H293 H 0.97925 0.83275 0.47264 0.0
H294 H 0.94355 0.80248 0.44786 0.0
H295 H 0.94391 0.70349 0.42395 0.0
H296 H 0.97746 0.66935 0.43929 0.0
H297 H 0.04616 0.66144 0.53543 0.0
H298 H 0.06758 0.69115 0.58383 0.0
H299 H 0.9463 0.70544 0.56814 0.0
H300 H 0.95835 0.78275 0.59612 0.0
H301 H 0.09554 0.74052 0.46625 0.0
H302 H 0.03673 0.75195 0.38939 0.0
C303 C 0.30135 0.96318 0.57854 0.0
C304 C 0.32393 0.9524 0.58755 0.0
C305 C 0.34129 0.96511 0.5725 0.0
C306 C 0.32843 0.9828 0.55497 0.0
N307 N 0.30391 0.9824 0.55815 0.0
Co308 Co 0.27865 1.00408 0.53422 0.0
N309 N 0.30433 0.02365 0.51339 0.0
C310 C 0.32901 0.02047 0.51838 0.0
C311 C 0.34236 0.03662 0.50174 0.0
C312 C 0.32525 0.05139 0.48569 0.0
C313 C 0.30224 0.04356 0.49361 0.0
N314 N 0.25324 0.02483 0.50887 0.0
C315 C 0.25562 0.04449 0.48915 0.0
C316 C 0.23268 0.05376 0.47812 0.0
C317 C 0.21539 0.03947 0.49073 0.0
C318 C 0.22852 0.0224 0.50901 0.0
N319 N 0.25302 0.98552 0.55668 0.0
C320 C 0.22851 0.98985 0.55359 0.0
C321 C 0.21523 0.97483 0.57204 0.0
C322 C 0.23226 0.95992 0.58795 0.0
C323 C 0.25508 0.96656 0.57807 0.0
N324 N 0.28124 0.02867 0.57232 0.0
C325 C 0.28787 0.07101 0.61473 0.0
C326 C 0.26448 0.06446 0.59984 0.0
C327 C 0.26151 0.04306 0.57928 0.0
C328 C 0.30737 0.05484 0.61074 0.0
C329 C 0.30365 0.03383 0.58964 0.0
N330 N 0.27645 0.97957 0.4958 0.0
C331 C 0.25422 0.94737 0.46209 0.0
C332 C 0.27548 0.94085 0.44655 0.0
C333 C 0.2967 0.955 0.4546 0.0
C334 C 0.29681 0.974 0.47908 0.0
C335 C 0.25504 0.96685 0.48621 0.0
H336 H 0.31384 0.98353 0.48428 0.0
H337 H 0.23827 0.97089 0.49723 0.0
H338 H 0.24331 0.03904 0.56826 0.0
H339 H 0.31946 0.02267 0.58661 0.0
C340 C 0.3389 1.00103 0.537 0.0
C341 C 0.27803 0.95408 0.58955 0.0
C342 C 0.27907 0.05573 0.48163 0.0
C343 C 0.21838 0.00647 0.53062 0.0
H344 H 0.32749 0.93686 0.60326 0.0
H345 H 0.36098 0.96191 0.57429 0.0
H346 H 0.36218 0.03739 0.50105 0.0
H347 H 0.32932 0.0662 0.4698 0.0
H348 H 0.22862 0.06976 0.46352 0.0
H349 H 0.1956 0.04206 0.48833 0.0
H350 H 0.19543 0.97435 0.57312 0.0
H351 H 0.22828 0.94555 0.6046 0.0
H352 H 0.24866 0.07609 0.6034 0.0
H353 H 0.32571 0.05903 0.62238 0.0
H354 H 0.23721 0.93705 0.45658 0.0
H355 H 0.31342 0.95125 0.44243 0.0
C356 C 0.54141 0.79567 0.06039 0.0
C357 C 0.54542 0.81898 0.07555 0.0
C358 C 0.52711 0.83376 0.06205 0.0
C359 C 0.51314 0.81878 0.03929 0.0
N360 N 0.52143 0.79549 0.03746 0.0
Co361 Co 0.5073 0.76835 0.00637 0.0
N362 N 0.48652 0.79159 0.97835 0.0
C363 C 0.4818 0.81514 0.98783 0.0
C364 C 0.46427 0.8261 0.96695 0.0
C365 C 0.45691 0.80834 0.94298 0.0
C366 C 0.47071 0.78736 0.9502 0.0
N367 N 0.49408 0.74127 0.97481 0.0
C368 C 0.48265 0.74257 0.94339 0.0
C369 C 0.48182 0.71949 0.92683 0.0
C370 C 0.49102 0.70303 0.94964 0.0
C371 C 0.49779 0.71698 0.97839 0.0
N372 N 0.52717 0.74508 0.0349 0.0
C373 C 0.52415 0.72045 0.0344 0.0
C374 C 0.54022 0.70917 0.05722 0.0
C375 C 0.5543 0.7278 0.0731 0.0
C376 C 0.54609 0.74949 0.05886 0.0
N377 N 0.47963 0.76465 0.03463 0.0
C378 C 0.43922 0.76543 0.07396 0.0
C379 C 0.43579 0.76181 0.03906 0.0
C380 C 0.45613 0.76106 0.02003 0.0
C381 C 0.46339 0.76733 0.0891 0.0
C382 C 0.48333 0.76702 0.06898 0.0
N383 N 0.53495 0.77206 0.97823 0.0
C384 C 0.56872 0.75393 0.95058 0.0
C385 C 0.5744 0.77657 0.93776 0.0
C386 C 0.55991 0.79701 0.94564 0.0
C387 C 0.54048 0.79443 0.96621 0.0
C388 C 0.54895 0.75203 0.97037 0.0
H389 H 0.53 0.81056 0.97237 0.0
H390 H 0.5451 0.73417 0.97912 0.0
H391 H 0.45256 0.75812 0.9934 0.0
H392 H 0.50168 0.76927 0.08126 0.0
C393 C 0.49437 0.82651 0.01628 0.0
C394 C 0.55606 0.77391 0.06968 0.0
C395 C 0.46642 0.76306 0.93236 0.0
C396 C 0.51039 0.70834 0.00747 0.0
H397 H 0.56001 0.82475 0.09437 0.0
H398 H 0.52481 0.8533 0.06733 0.0
H399 H 0.45717 0.84465 0.96935 0.0
H400 H 0.44223 0.81083 0.92361 0.0
H401 H 0.47341 0.71479 0.90182 0.0
H402 H 0.49272 0.6833 0.94563 0.0
H403 H 0.54243 0.68961 0.06058 0.0
H404 H 0.56911 0.72563 0.09262 0.0
H405 H 0.41741 0.75977 0.02644 0.0
H406 H 0.4668 0.76994 0.11613 0.0
H407 H 0.57922 0.73757 0.94483 0.0
H408 H 0.56377 0.81492 0.93642 0.0
C409 C 0.21262 0.53586 0.07927 0.0
C410 C 0.19062 0.54492 0.08993 0.0
C411 C 0.17213 0.5342 0.06901 0.0
C412 C 0.18387 0.5194 0.04681 0.0
N413 N 0.20873 0.51977 0.05247 0.0
Co414 Co 0.23296 0.50212 0.02502 0.0
N415 N 0.20571 0.48571 0.99498 0.0
C416 C 0.18119 0.48785 0.99761 0.0
C417 C 0.16701 0.47335 0.97454 0.0
C418 C 0.18346 0.46089 0.95632 0.0
C419 C 0.2068 0.46869 0.96932 0.0
N420 N 0.25713 0.48531 0.99675 0.0
C421 C 0.25328 0.46914 0.97005 0.0
C422 C 0.27523 0.46236 0.95697 0.0
C423 C 0.29365 0.47443 0.97644 0.0
C424 C 0.28193 0.48792 1.00004 0.0
N425 N 0.26019 0.51748 0.05596 0.0
C426 C 0.2847 0.5141 0.05458 0.0
C427 C 0.29891 0.52647 0.07989 0.0
C428 C 0.28249 0.53853 0.09859 0.0
C429 C 0.25914 0.53287 0.08334 0.0
N430 N 0.23326 0.47312 0.05489 0.0
C431 C 0.23326 0.43203 0.09766 0.0
C432 C 0.25465 0.43935 0.08332 0.0
C433 C 0.25428 0.45969 0.06241 0.0
C434 C 0.21199 0.44611 0.09004 0.0
C435 C 0.21232 0.46606 0.06879 0.0
N436 N 0.23267 0.5313 0.99519 0.0
C437 C 0.25371 0.56505 0.97077 0.0
C438 C 0.23192 0.57259 0.95277 0.0
C439 C 0.21052 0.55908 0.95692 0.0
C440 C 0.21123 0.53898 0.97808 0.0
C441 C 0.25374 0.54451 0.9913 0.0
H442 H 0.19407 0.52998 0.98017 0.0
H443 H 0.27113 0.53961 1.00367 0.0
H444 H 0.27125 0.46418 0.05244 0.0
H445 H 0.1953 0.47556 0.06399 0.0
C446 C 0.17208 0.50404 0.02153 0.0
C447 C 0.2367 0.54364 0.09479 0.0
C448 C 0.22942 0.45891 0.95713 0.0
C449 C 0.29378 0.5009 0.02767 0.0
H450 H 0.18821 0.55798 0.11061 0.0
H451 H 0.15248 0.53682 0.06996 0.0
H452 H 0.14709 0.4719 0.97147 0.0
H453 H 0.17883 0.44744 0.93598 0.0
H454 H 0.27768 0.44957 0.93598 0.0
H455 H 0.3133 0.47289 0.97436 0.0
H456 H 0.31884 0.52714 0.0838 0.0
H457 H 0.28714 0.55056 0.12055 0.0
H458 H 0.27169 0.42925 0.08766 0.0
H459 H 0.19491 0.44206 0.10067 0.0
H460 H 0.27091 0.57458 0.96843 0.0
H461 H 0.19301 0.56415 0.9441 0.0
C462 C 0.46447 0.26512 0.98379 0.0
C463 C 0.45716 0.28828 0.97348 0.0
C464 C 0.47196 0.30497 0.9921 0.0
C465 C 0.48755 0.29114 0.01239 0.0
N466 N 0.48374 0.26659 0.00776 0.0
Co467 Co 0.50291 0.23996 0.03148 0.0
N468 N 0.52264 0.26463 0.06151 0.0
C469 C 0.51944 0.28932 0.06288 0.0
C470 C 0.53513 0.30154 0.08667 0.0
C471 C 0.54932 0.28361 0.10131 0.0
C472 C 0.54159 0.26139 0.08526 0.0
N473 N 0.52306 0.21338 0.0539 0.0
C474 C 0.54292 0.21499 0.07696 0.0
C475 C 0.55275 0.19194 0.08353 0.0
C476 C 0.53859 0.17518 0.06407 0.0
C477 C 0.52116 0.18888 0.04654 0.0
N478 N 0.48214 0.21527 1.00276 0.0
C479 C 0.48349 0.19047 1.00399 0.0
C480 C 0.46561 0.17819 0.98347 0.0
C481 C 0.45173 0.19622 0.96854 0.0
C482 C 0.46213 0.21857 0.98063 0.0
N483 N 0.52762 0.24092 0.9975 0.0
C484 C 0.56662 0.24058 0.95484 0.0
C485 C 0.55211 0.21961 0.95755 0.0
C486 C 0.53296 0.22016 0.97876 0.0
C487 C 0.56039 0.26208 0.97278 0.0
C488 C 0.54091 0.2619 0.99353 0.0
N489 N 0.47831 0.23885 0.06559 0.0
C490 C 0.4556 0.21584 0.10348 0.0
C491 C 0.44188 0.23662 0.11163 0.0
C492 C 0.44694 0.25864 0.09678 0.0
C493 C 0.4653 0.25944 0.07438 0.0
C494 C 0.47339 0.21728 0.08038 0.0
H495 H 0.46853 0.27692 0.06441 0.0
H496 H 0.48273 0.20058 0.0747 0.0
H497 H 0.523 0.20339 0.97997 0.0
H498 H 0.53729 0.27886 0.00666 0.0
C499 C 0.50361 0.30062 0.03894 0.0
C500 C 0.452 0.2424 0.97091 0.0
C501 C 0.55339 0.23787 0.09271 0.0
C502 C 0.50218 0.17929 0.024 0.0
H503 H 0.44228 0.2927 0.95499 0.0
H504 H 0.47085 0.32486 0.99179 0.0
H505 H 0.53664 0.32122 0.09198 0.0
H506 H 0.56406 0.28662 0.12105 0.0
H507 H 0.56863 0.18763 0.10044 0.0
H508 H 0.5408 0.15537 0.06277 0.0
H509 H 0.46289 0.15848 0.97999 0.0
H510 H 0.43559 0.19321 0.95102 0.0
H511 H 0.55554 0.20264 0.9435 0.0
H512 H 0.57094 0.27889 0.97176 0.0
H513 H 0.45221 0.19835 0.11428 0.0
H514 H 0.43695 0.27529 0.10273 0.0
C515 C 0.74588 0.55657 0.06891 0.0
C516 C 0.72312 0.56591 0.07627 0.0
C517 C 0.7056 0.55184 0.0579 0.0
C518 C 0.71849 0.53455 0.04065 0.0
N519 N 0.74324 0.5367 0.04679 0.0
Co520 Co 0.76841 0.51398 0.0281 0.0
N521 N 0.74254 0.49444 0.99915 0.0
C522 C 0.7181 0.49927 0.99594 0.0
C523 C 0.70478 0.48344 0.97365 0.0
C524 C 0.72172 0.46757 0.96165 0.0
C525 C 0.74451 0.47455 0.97753 0.0
N526 N 0.7934 0.49041 0.01084 0.0
C527 C 0.79063 0.47032 0.98912 0.0
C528 C 0.813 0.4587 0.98548 0.0
C529 C 0.83049 0.47186 1.00536 0.0
C530 C 0.81788 0.49065 0.02018 0.0
N531 N 0.79436 0.53443 0.05549 0.0
C532 C 0.81901 0.53101 0.0561 0.0
C533 C 0.83256 0.54859 0.07523 0.0
C534 C 0.81559 0.56433 0.08745 0.0
C535 C 0.79248 0.5553 0.07538 0.0
N536 N 0.76527 0.49223 0.06608 0.0
C537 C 0.76192 0.45839 0.11662 0.0
C538 C 0.78396 0.47074 0.11348 0.0
C539 C 0.78527 0.48736 0.08809 0.0
C540 C 0.7413 0.46392 0.09508 0.0
C541 C 0.74328 0.48102 0.07043 0.0
N542 N 0.77178 0.53572 0.99032 0.0
C543 C 0.79759 0.55575 0.95344 0.0
C544 C 0.77812 0.57084 0.94211 0.0
C545 C 0.75504 0.56703 0.95396 0.0
C546 C 0.75224 0.54932 0.97755 0.0
C547 C 0.79408 0.53852 0.9774 0.0
H548 H 0.73423 0.54739 0.98572 0.0
H549 H 0.80986 0.52807 0.98551 0.0
H550 H 0.80284 0.49561 0.08645 0.0
H551 H 0.72686 0.48451 0.05491 0.0
C552 C 0.70804 0.51747 0.01636 0.0
C553 C 0.76939 0.56727 0.08358 0.0
C554 C 0.76738 0.46159 0.97121 0.0
C555 C 0.8287 0.51015 0.04026 0.0
H556 H 0.71948 0.58141 0.09303 0.0
H557 H 0.68579 0.55421 0.05679 0.0
H558 H 0.68502 0.48318 0.96732 0.0
H559 H 0.71772 0.45243 0.94347 0.0
H560 H 0.81634 0.44249 0.9698 0.0
H561 H 0.85014 0.46844 0.00812 0.0
H562 H 0.85243 0.54971 0.07998 0.0
H563 H 0.81979 0.58061 0.10351 0.0
H564 H 0.8004 0.46685 0.12966 0.0
H565 H 0.72376 0.4549 0.09705 0.0
H566 H 0.81566 0.55746 0.94433 0.0
H567 H 0.73931 0.57825 0.94613 0.0
H568 H 0.20218 0.25073 0.39212 0.0
H569 H 0.17038 0.21672 0.29826 0.0
H570 H 0.12863 0.22044 0.31855 0.0
H571 H 0.16452 0.22221 0.44517 0.0
H572 H 0.16161 0.24856 0.47355 0.0
H573 H 0.18851 0.24529 0.45056 0.0
H574 H 0.18053 0.28812 0.42585 0.0
H575 H 0.15375 0.2917 0.44913 0.0
H576 H 0.15092 0.29455 0.40421 0.0
H577 H 0.09116 0.22342 0.35219 0.0
H578 H 0.0603 0.22949 0.39392 0.0
H579 H 0.11621 0.26385 0.4646 0.0
C580 C 0.18628 0.24473 0.37557 0.0
C581 C 0.18926 0.23377 0.34348 0.0
C582 C 0.16827 0.22556 0.32266 0.0
C583 C 0.14459 0.22748 0.3341 0.0
C584 C 0.14227 0.23791 0.36624 0.0
C585 C 0.16253 0.24683 0.38643 0.0
C586 C 0.1552 0.25659 0.42027 0.0
C587 C 0.16823 0.2423 0.44908 0.0
C588 C 0.16041 0.28439 0.42514 0.0
C589 C 0.12773 0.2513 0.41635 0.0
C590 C 0.12063 0.24039 0.38507 0.0
C591 C 0.09645 0.23236 0.37648 0.0
C592 C 0.07909 0.23575 0.40032 0.0
C593 C 0.08591 0.24733 0.43218 0.0
C594 C 0.11051 0.25528 0.44017 0.0
H595 H 0.78433 0.17698 0.33568 0.0
H596 H 0.72259 0.2222 0.36174 0.0
H597 H 0.70479 0.18672 0.38826 0.0
H598 H 0.74901 0.11922 0.31784 0.0
H599 H 0.77395 0.10065 0.3354 0.0
H600 H 0.78052 0.12897 0.31604 0.0
H601 H 0.80603 0.14453 0.37071 0.0
H602 H 0.79959 0.11631 0.39017 0.0
H603 H 0.7919 0.14545 0.40989 0.0
H604 H 0.69651 0.14787 0.41719 0.0
H605 H 0.69794 0.10864 0.44583 0.0
H606 H 0.7637 0.08791 0.39716 0.0
C607 C 0.76696 0.17928 0.34676 0.0
C608 C 0.75478 0.20217 0.34688 0.0
C609 C 0.73204 0.20466 0.36134 0.0
C610 C 0.72183 0.18466 0.37636 0.0
C611 C 0.73445 0.16233 0.37611 0.0
C612 C 0.75641 0.15949 0.36142 0.0
C613 C 0.76692 0.13398 0.36585 0.0
C614 C 0.76763 0.11988 0.33175 0.0
C615 C 0.79262 0.13515 0.38532 0.0
C616 C 0.74791 0.12316 0.38642 0.0
C617 C 0.72924 0.1397 0.39187 0.0
C618 C 0.71072 0.13453 0.41248 0.0
C619 C 0.71161 0.11207 0.42847 0.0
C620 C 0.73087 0.09501 0.42367 0.0
C621 C 0.7488 0.10052 0.40159 0.0
H622 H 0.84365 0.78945 0.32561 0.0
H623 H 0.79546 0.74398 0.37776 0.0
H624 H 0.83124 0.7312 0.41577 0.0
H625 H 0.89714 0.74707 0.33131 0.0
H626 H 0.91913 0.77205 0.33686 0.0
H627 H 0.88997 0.77615 0.31278 0.0
H628 H 0.88128 0.81424 0.35122 0.0
H629 H 0.9102 0.81002 0.37577 0.0
H630 H 0.88185 0.81104 0.39598 0.0
H631 H 0.87184 0.72678 0.4515 0.0
H632 H 0.91461 0.72785 0.47863 0.0
H633 H 0.93694 0.77355 0.40042 0.0
C634 C 0.84085 0.77632 0.34454 0.0
C635 C 0.81697 0.76736 0.34862 0.0
C636 C 0.81374 0.75064 0.37401 0.0
C637 C 0.83391 0.74344 0.39577 0.0
C638 C 0.85723 0.75295 0.39154 0.0
C639 C 0.86086 0.76867 0.36612 0.0
C640 C 0.88769 0.77652 0.36723 0.0
C641 C 0.89916 0.7674 0.33514 0.0
C642 C 0.8904 0.80462 0.37289 0.0
C643 C 0.89852 0.76321 0.39762 0.0
C644 C 0.88062 0.74984 0.41145 0.0
C645 C 0.88601 0.73699 0.44064 0.0
C646 C 0.91029 0.73776 0.45595 0.0
C647 C 0.92893 0.75118 0.44205 0.0
C648 C 0.92295 0.76369 0.41216 0.0
H649 H 0.21963 0.83836 0.31261 0.0
H650 H 0.28842 0.79861 0.33008 0.0
H651 H 0.30569 0.8335 0.36636 0.0
H652 H 0.24669 0.90057 0.31332 0.0
H653 H 0.22201 0.91432 0.33489 0.0
H654 H 0.21612 0.88741 0.30733 0.0
H655 H 0.19873 0.8647 0.35589 0.0
H656 H 0.20471 0.89142 0.38364 0.0
H657 H 0.21758 0.86206 0.39494 0.0
H658 H 0.31382 0.87041 0.40498 0.0
H659 H 0.31299 0.90764 0.44221 0.0
H660 H 0.239 0.9238 0.39906 0.0
C661 C 0.23844 0.83715 0.32377 0.0
C662 C 0.25277 0.81589 0.31845 0.0
C663 C 0.27729 0.81492 0.33341 0.0
C664 C 0.2872 0.83457 0.35415 0.0
C665 C 0.27237 0.85503 0.35944 0.0
C666 C 0.24859 0.85655 0.34451 0.0
C667 C 0.23605 0.87996 0.35579 0.0
C668 C 0.22986 0.89655 0.32606 0.0
C669 C 0.21291 0.87418 0.37363 0.0
C670 C 0.2563 0.89108 0.38011 0.0
C671 C 0.27714 0.87649 0.38164 0.0
C672 C 0.2978 0.88225 0.40356 0.0
C673 C 0.29717 0.90353 0.42448 0.0
C674 C 0.27603 0.91885 0.42331 0.0
C675 C 0.25541 0.9125 0.40064 0.0
H676 H 0.16865 0.77552 0.71512 0.0
H677 H 0.21761 0.74075 0.64763 0.0
H678 H 0.18163 0.72749 0.60879 0.0
H679 H 0.11811 0.7291 0.70042 0.0
H680 H 0.09425 0.752 0.70243 0.0
H681 H 0.12365 0.75693 0.72625 0.0
H682 H 0.12843 0.79843 0.69796 0.0
H683 H 0.09915 0.79356 0.67392 0.0
H684 H 0.12643 0.79892 0.65273 0.0
H685 H 0.14109 0.72225 0.57453 0.0
H686 H 0.09835 0.72307 0.54833 0.0
H687 H 0.07439 0.75879 0.63895 0.0
C688 C 0.17161 0.76456 0.69255 0.0
C689 C 0.19579 0.75871 0.68446 0.0
C690 C 0.19917 0.74497 0.65437 0.0
C691 C 0.17886 0.73746 0.63219 0.0
C692 C 0.15523 0.74374 0.64054 0.0
C693 C 0.15143 0.75674 0.67017 0.0
C694 C 0.12413 0.76197 0.67228 0.0
C695 C 0.11447 0.74924 0.70212 0.0
C696 C 0.11926 0.78988 0.67434 0.0
C697 C 0.11327 0.75032 0.63898 0.0
C698 C 0.1316 0.73998 0.62109 0.0
C699 C 0.12652 0.72979 0.58861 0.0
C700 C 0.10215 0.73027 0.57396 0.0
C701 C 0.08294 0.74053 0.59181 0.0
C702 C 0.08863 0.75042 0.62496 0.0
H703 H 0.2602 0.21131 0.65099 0.0
H704 H 0.29409 0.20134 0.7519 0.0
H705 H 0.3124 0.16265 0.73263 0.0
H706 H 0.23808 0.15467 0.64094 0.0
H707 H 0.24177 0.14952 0.59681 0.0
H708 H 0.23865 0.18034 0.61395 0.0
H709 H 0.27997 0.19308 0.59195 0.0
H710 H 0.28302 0.16234 0.57388 0.0
H711 H 0.30744 0.17551 0.6025 0.0
H712 H 0.31842 0.12093 0.70715 0.0
H713 H 0.3131 0.08053 0.67626 0.0
H714 H 0.27214 0.1157 0.59367 0.0
C715 C 0.27211 0.20141 0.66883 0.0
C716 C 0.2755 0.20948 0.70302 0.0
C717 C 0.29145 0.196 0.72541 0.0
C718 C 0.30187 0.17377 0.71474 0.0
C719 C 0.29626 0.16524 0.68161 0.0
C720 C 0.28202 0.17883 0.65879 0.0
C721 C 0.27494 0.16379 0.6266 0.0
C722 C 0.2467 0.16198 0.61918 0.0
C723 C 0.28708 0.17431 0.59698 0.0
C724 C 0.28601 0.13923 0.6358 0.0
C725 C 0.29887 0.1406 0.66719 0.0
C726 C 0.30892 0.11974 0.68219 0.0
C727 C 0.30571 0.09689 0.66462 0.0
C728 C 0.29213 0.09513 0.63278 0.0
C729 C 0.2825 0.11661 0.6181 0.0
H730 H 0.83438 0.22323 0.71575 0.0
H731 H 0.80643 0.29794 0.72149 0.0
H732 H 0.843 0.31263 0.69551 0.0
H733 H 0.90087 0.23906 0.73015 0.0
H734 H 0.90929 0.21515 0.70063 0.0
H735 H 0.8827 0.21123 0.72381 0.0
H736 H 0.85553 0.20327 0.66786 0.0
H737 H 0.88192 0.20738 0.64452 0.0
H738 H 0.85479 0.2259 0.63615 0.0
H739 H 0.88026 0.3183 0.66246 0.0
H740 H 0.91531 0.31462 0.62727 0.0
H741 H 0.91902 0.23621 0.64384 0.0
C742 C 0.83611 0.24276 0.71207 0.0
C743 C 0.81748 0.25943 0.72081 0.0
C744 C 0.82058 0.28484 0.71557 0.0
C745 C 0.84125 0.29335 0.70061 0.0
C746 C 0.85882 0.27626 0.69126 0.0
C747 C 0.85658 0.25153 0.69716 0.0
C748 C 0.87712 0.23668 0.68288 0.0
C749 C 0.89347 0.22483 0.71105 0.0
C750 C 0.86671 0.21717 0.65628 0.0
C751 C 0.89088 0.25678 0.66711 0.0
C752 C 0.88021 0.27953 0.67243 0.0
C753 C 0.88899 0.30062 0.65865 0.0
C754 C 0.90904 0.29836 0.63877 0.0
C755 C 0.92012 0.27514 0.63265 0.0
C756 C 0.91097 0.25423 0.6476 0.0
H757 H 0.74745 0.82455 0.68497 0.0
H758 H 0.79716 0.85118 0.76916 0.0
H759 H 0.78994 0.89418 0.75231 0.0
H760 H 0.76731 0.86218 0.62769 0.0
H761 H 0.73775 0.86749 0.60522 0.0
H762 H 0.74289 0.83973 0.62753 0.0
H763 H 0.70538 0.84947 0.66158 0.0
H764 H 0.6999 0.87723 0.63904 0.0
H765 H 0.70382 0.87875 0.68433 0.0
H766 H 0.78296 0.93269 0.72061 0.0
H767 H 0.77601 0.96385 0.67774 0.0
H768 H 0.72913 0.91212 0.61563 0.0
C769 C 0.75602 0.83962 0.70042 0.0
C770 C 0.77249 0.83501 0.72849 0.0
C771 C 0.78415 0.85475 0.74786 0.0
C772 C 0.78013 0.87909 0.73849 0.0
C773 C 0.76422 0.88312 0.70997 0.0
C774 C 0.75207 0.86392 0.69149 0.0
C775 C 0.73806 0.87274 0.66001 0.0
C776 C 0.74706 0.85977 0.62826 0.0
C777 C 0.71013 0.86935 0.66134 0.0
C778 C 0.74519 0.89967 0.66274 0.0
C779 C 0.75999 0.90542 0.6919 0.0
C780 C 0.77084 0.9286 0.69812 0.0
C781 C 0.76675 0.94621 0.67364 0.0
C782 C 0.75201 0.94045 0.6433 0.0
C783 C 0.74061 0.91707 0.63842 0.0
H784 H 0.84326 0.79989 0.6948 0.0
H785 H 0.81681 0.7251 0.70454 0.0
H786 H 0.85168 0.70933 0.67483 0.0
H787 H 0.85697 0.789 0.60889 0.0
H788 H 0.88287 0.80993 0.61331 0.0
H789 H 0.85737 0.81501 0.63855 0.0
H790 H 0.88754 0.81521 0.69242 0.0
H791 H 0.91311 0.80979 0.66737 0.0
H792 H 0.90744 0.78913 0.69992 0.0
H793 H 0.89121 0.70185 0.64515 0.0
H794 H 0.92717 0.7031 0.61274 0.0
H795 H 0.92145 0.78312 0.61233 0.0
C796 C 0.84403 0.78016 0.69034 0.0
C797 C 0.82662 0.76401 0.70257 0.0
C798 C 0.82977 0.73824 0.69658 0.0
C799 C 0.84956 0.72898 0.67931 0.0
C800 C 0.8659 0.7456 0.66732 0.0
C801 C 0.86294 0.77067 0.67204 0.0
C802 C 0.88176 0.78484 0.65459 0.0
C803 C 0.86898 0.80062 0.62721 0.0
C804 C 0.89845 0.80067 0.68011 0.0
C805 C 0.896 0.7638 0.63942 0.0
C806 C 0.88693 0.74133 0.64761 0.0
C807 C 0.89801 0.71939 0.63789 0.0
C808 C 0.91851 0.72039 0.61885 0.0
C809 C 0.92758 0.74321 0.60843 0.0
C810 C 0.91584 0.76516 0.61937 0.0
H811 H 0.24629 0.81806 0.64701 0.0
H812 H 0.27416 0.84056 0.74883 0.0
H813 H 0.2861 0.88096 0.72857 0.0
H814 H 0.29116 0.8498 0.60278 0.0
H815 H 0.26884 0.85818 0.56925 0.0
H816 H 0.26445 0.83059 0.59142 0.0
H817 H 0.22139 0.84599 0.60563 0.0
H818 H 0.22567 0.87364 0.58355 0.0
H819 H 0.21865 0.87573 0.62681 0.0
H820 H 0.29338 0.92067 0.69627 0.0
H821 H 0.29498 0.95428 0.65636 0.0
H822 H 0.26002 0.90644 0.57671 0.0
C823 C 0.25475 0.83138 0.66542 0.0
C824 C 0.25895 0.82569 0.69997 0.0
C825 C 0.27081 0.84391 0.72235 0.0
C826 C 0.27752 0.86714 0.711 0.0
C827 C 0.27233 0.87222 0.67704 0.0
C828 C 0.26121 0.8547 0.65463 0.0
C829 C 0.25669 0.86479 0.61965 0.0
C830 C 0.27115 0.84995 0.59428 0.0
C831 C 0.22895 0.86505 0.60825 0.0
C832 C 0.26688 0.89083 0.62567 0.0
C833 C 0.27601 0.89478 0.65889 0.0
C834 C 0.28628 0.91757 0.67029 0.0
C835 C 0.28715 0.93662 0.64742 0.0
C836 C 0.27769 0.93309 0.61336 0.0
C837 C 0.26746 0.90976 0.60253 0.0
H838 H 0.1764 0.2737 0.724 0.0
H839 H 0.19372 0.19828 0.69365 0.0
H840 H 0.15526 0.19547 0.65727 0.0
H841 H 0.10833 0.25679 0.72749 0.0
H842 H 0.0982 0.28691 0.71515 0.0
H843 H 0.12739 0.28342 0.73945 0.0
H844 H 0.14896 0.30555 0.69396 0.0
H845 H 0.11998 0.30845 0.66903 0.0
H846 H 0.14559 0.29338 0.65109 0.0
H847 H 0.12157 0.20479 0.61367 0.0
H848 H 0.08389 0.2184 0.5813 0.0
H849 H 0.07886 0.28066 0.65247 0.0
C850 C 0.17181 0.25638 0.71047 0.0
C851 C 0.18915 0.23685 0.70996 0.0
C852 C 0.18181 0.21424 0.69269 0.0
C853 C 0.1598 0.21228 0.67208 0.0
C854 C 0.14421 0.23245 0.67079 0.0
C855 C 0.14891 0.25344 0.69114 0.0
C856 C 0.12744 0.27134 0.6865 0.0
C857 C 0.11457 0.27481 0.71909 0.0
C858 C 0.13602 0.29615 0.67443 0.0
C859 C 0.11093 0.25753 0.65911 0.0
C860 C 0.12159 0.23556 0.64979 0.0
C861 C 0.11224 0.2213 0.62179 0.0
C862 C 0.09083 0.22923 0.60353 0.0
C863 C 0.07798 0.25044 0.61431 0.0
C864 C 0.08824 0.26466 0.64283 0.0
H865 H 0.77452 0.17305 0.72234 0.0
H866 H 0.72118 0.22074 0.67135 0.0
H867 H 0.70971 0.18689 0.6291 0.0
H868 H 0.79556 0.14307 0.65119 0.0
H869 H 0.79853 0.11296 0.66826 0.0
H870 H 0.80118 0.14007 0.69593 0.0
H871 H 0.76625 0.12411 0.72938 0.0
H872 H 0.76381 0.09668 0.70221 0.0
H873 H 0.73697 0.11544 0.70741 0.0
H874 H 0.70801 0.14883 0.58816 0.0
H875 H 0.71227 0.10886 0.55681 0.0
H876 H 0.76352 0.08434 0.63752 0.0
C877 C 0.75984 0.17607 0.70289 0.0
C878 C 0.74837 0.19947 0.70055 0.0
C879 C 0.72976 0.20288 0.67415 0.0
C880 C 0.72333 0.18377 0.64984 0.0
C881 C 0.73541 0.16111 0.6524 0.0
C882 C 0.75287 0.15701 0.6788 0.0
C883 C 0.76333 0.13109 0.67566 0.0
C884 C 0.79131 0.13186 0.67258 0.0
C885 C 0.75722 0.11593 0.70544 0.0
C886 C 0.7495 0.12138 0.64303 0.0
C887 C 0.73366 0.13905 0.62977 0.0
C888 C 0.7201 0.13481 0.59872 0.0
C889 C 0.72266 0.11203 0.58099 0.0
C890 C 0.73846 0.09342 0.59427 0.0
C891 C 0.75169 0.09823 0.62611 0.0
H892 H 0.81964 0.25305 0.39439 0.0
H893 H 0.8413 0.26371 0.29414 0.0
H894 H 0.88417 0.27232 0.31821 0.0
H895 H 0.86036 0.29902 0.4394 0.0
H896 H 0.86656 0.28011 0.47506 0.0
H897 H 0.83741 0.27748 0.45007 0.0
H898 H 0.84453 0.23061 0.44032 0.0
H899 H 0.87369 0.23311 0.46517 0.0
H900 H 0.87231 0.22015 0.42276 0.0
H901 H 0.92574 0.27652 0.35382 0.0
H902 H 0.96139 0.27608 0.3972 0.0
H903 H 0.91189 0.2612 0.47295 0.0
C904 C 0.83332 0.25731 0.37738 0.0
C905 C 0.82707 0.25757 0.34228 0.0
C906 C 0.84554 0.26361 0.3211 0.0
C907 C 0.86997 0.2684 0.33457 0.0
C908 C 0.87557 0.26723 0.36926 0.0
C909 C 0.85765 0.26192 0.39031 0.0
C910 C 0.86837 0.26037 0.42639 0.0
C911 C 0.85753 0.28045 0.44906 0.0
C912 C 0.86449 0.23453 0.4394 0.0
C913 C 0.89528 0.26525 0.42247 0.0
C914 C 0.89916 0.26938 0.38942 0.0
C915 C 0.92281 0.27352 0.37975 0.0
C916 C 0.94291 0.27325 0.40442 0.0
C917 C 0.93916 0.26875 0.43817 0.0
C918 C 0.91507 0.26488 0.44727 0.0
H919 H 0.7682 0.82921 0.39061 0.0
H920 H 0.74584 0.85208 0.28988 0.0
H921 H 0.73625 0.89362 0.31346 0.0
H922 H 0.72364 0.86461 0.43462 0.0
H923 H 0.74518 0.87182 0.47057 0.0
H924 H 0.7484 0.84366 0.44581 0.0
H925 H 0.79329 0.85576 0.43673 0.0
H926 H 0.79018 0.88399 0.46134 0.0
H927 H 0.79922 0.88493 0.4191 0.0
H928 H 0.73083 0.93418 0.34924 0.0
H929 H 0.73 0.96833 0.39264 0.0
H930 H 0.75775 0.919 0.46906 0.0
C931 C 0.76136 0.84286 0.37324 0.0
C932 C 0.75801 0.83703 0.33804 0.0
C933 C 0.74842 0.85566 0.31681 0.0
C934 C 0.74308 0.87947 0.33006 0.0
C935 C 0.74732 0.88463 0.36473 0.0
C936 C 0.7562 0.86669 0.38596 0.0
C937 C 0.76001 0.87684 0.42213 0.0
C938 C 0.74331 0.86343 0.4446 0.0
C939 C 0.78729 0.87528 0.43561 0.0
C940 C 0.75206 0.90342 0.41814 0.0
C941 C 0.74466 0.90761 0.38488 0.0
C942 C 0.73662 0.93093 0.37525 0.0
C943 C 0.73622 0.95027 0.40004 0.0
C944 C 0.74399 0.9464 0.43413 0.0
C945 C 0.75187 0.92255 0.44315 0.0
H946 H 0.16607 0.79163 0.30329 0.0
H947 H 0.19576 0.71753 0.30257 0.0
H948 H 0.16053 0.70354 0.33199 0.0
H949 H 0.14879 0.79265 0.38408 0.0
H950 H 0.12089 0.81014 0.37618 0.0
H951 H 0.1459 0.8135 0.35013 0.0
H952 H 0.11671 0.80218 0.297 0.0
H953 H 0.09147 0.79901 0.32287 0.0
H954 H 0.09925 0.77387 0.29483 0.0
H955 H 0.12605 0.69921 0.36957 0.0
H956 H 0.09317 0.70418 0.40843 0.0
H957 H 0.08525 0.78083 0.38424 0.0
C958 C 0.16484 0.77231 0.30855 0.0
C959 C 0.1837 0.75565 0.30043 0.0
C960 C 0.1814 0.73056 0.30794 0.0
C961 C 0.16151 0.72249 0.32489 0.0
C962 C 0.14386 0.73964 0.33383 0.0
C963 C 0.14511 0.76397 0.32542 0.0
C964 C 0.12485 0.77911 0.34008 0.0
C965 C 0.13577 0.80008 0.36403 0.0
C966 C 0.10701 0.78913 0.31202 0.0
C967 C 0.11247 0.75971 0.35905 0.0
C968 C 0.12365 0.73702 0.35497 0.0
C969 C 0.11681 0.71673 0.37228 0.0
C970 C 0.0982 0.71971 0.39434 0.0
C971 C 0.08648 0.74273 0.39876 0.0
C972 C 0.09353 0.76289 0.38059 0.0
H973 H 0.24077 0.15312 0.33847 0.0
H974 H 0.2875 0.20698 0.39619 0.0
H975 H 0.30053 0.17526 0.43685 0.0
H976 H 0.21995 0.12258 0.40603 0.0
H977 H 0.22044 0.09194 0.38688 0.0
H978 H 0.21627 0.11812 0.36091 0.0
H979 H 0.25387 0.10491 0.32904 0.0
H980 H 0.25791 0.07842 0.35452 0.0
H981 H 0.28312 0.09966 0.35239 0.0
H982 H 0.30403 0.13846 0.4755 0.0
H983 H 0.3023 0.09904 0.50406 0.0
H984 H 0.25676 0.06745 0.41855 0.0
C985 C 0.25442 0.15798 0.35905 0.0
C986 C 0.26357 0.18252 0.36364 0.0
C987 C 0.28077 0.18827 0.39156 0.0
C988 C 0.28805 0.17036 0.41501 0.0
C989 C 0.27826 0.1465 0.41016 0.0
C990 C 0.26225 0.14014 0.38235 0.0
C991 C 0.25415 0.11331 0.38316 0.0
C992 C 0.22604 0.11139 0.38431 0.0
C993 C 0.26278 0.09818 0.35298 0.0
C994 C 0.26768 0.10563 0.41601 0.0
C995 C 0.28126 0.12514 0.43143 0.0
C996 C 0.29387 0.12299 0.46315 0.0
C997 C 0.29281 0.10044 0.47925 0.0
C998 C 0.2796 0.07986 0.46368 0.0
C999 C 0.26704 0.08268 0.43135 0.0
H1000 H 0.70831 0.746 0.88128 0.0
H1001 H 0.68547 0.77597 0.78456 0.0
H1002 H 0.64595 0.78885 0.80598 0.0
H1003 H 0.65024 0.71949 0.89267 0.0
H1004 H 0.65297 0.72539 0.93757 0.0
H1005 H 0.68026 0.72102 0.91563 0.0
H1006 H 0.69722 0.7632 0.94031 0.0
H1007 H 0.66991 0.76775 0.96224 0.0
H1008 H 0.67885 0.79051 0.93412 0.0
H1009 H 0.60771 0.79716 0.83827 0.0
H1010 H 0.57415 0.79761 0.8765 0.0
H1011 H 0.62147 0.75919 0.94971 0.0
C1012 C 0.69505 0.7551 0.86427 0.0
C1013 C 0.70027 0.75982 0.831 0.0
C1014 C 0.68233 0.77237 0.81025 0.0
C1015 C 0.65968 0.77966 0.82218 0.0
C1016 C 0.6551 0.77421 0.85489 0.0
C1017 C 0.67231 0.76207 0.87551 0.0
C1018 C 0.66255 0.75694 0.90888 0.0
C1019 C 0.66144 0.72906 0.91397 0.0
C1020 C 0.67806 0.77041 0.93811 0.0
C1021 C 0.63698 0.76785 0.90383 0.0
C1022 C 0.63307 0.77809 0.87276 0.0
C1023 C 0.61066 0.7892 0.86262 0.0
C1024 C 0.59174 0.78949 0.88454 0.0
C1025 C 0.59518 0.7784 0.91602 0.0
C1026 C 0.61824 0.76769 0.92573 0.0
H1027 H 0.26716 0.70603 0.88893 0.0
H1028 H 0.22633 0.68629 0.79337 0.0
H1029 H 0.2126 0.64778 0.8171 0.0
H1030 H 0.29105 0.64674 0.90213 0.0
H1031 H 0.29006 0.64863 0.94712 0.0
H1032 H 0.29335 0.67626 0.92465 0.0
H1033 H 0.25474 0.69478 0.9496 0.0
H1034 H 0.25146 0.66728 0.97245 0.0
H1035 H 0.22611 0.67777 0.94468 0.0
H1036 H 0.20619 0.60899 0.8507 0.0
H1037 H 0.20729 0.57498 0.88985 0.0
H1038 H 0.25548 0.61843 0.96179 0.0
C1039 C 0.25518 0.69382 0.87278 0.0
C1040 C 0.24805 0.69958 0.83881 0.0
C1041 C 0.23189 0.68289 0.81941 0.0
C1042 C 0.2242 0.6607 0.83268 0.0
C1043 C 0.23278 0.65511 0.86554 0.0
C1044 C 0.24785 0.67136 0.88535 0.0
C1045 C 0.25607 0.66043 0.91898 0.0
C1046 C 0.28431 0.65787 0.92347 0.0
C1047 C 0.24652 0.67599 0.94815 0.0
C1048 C 0.24352 0.6353 0.91504 0.0
C1049 C 0.2299 0.63271 0.8842 0.0
C1050 C 0.21673 0.61104 0.8749 0.0
C1051 C 0.21742 0.59174 0.89749 0.0
C1052 C 0.23142 0.59374 0.92921 0.0
C1053 C 0.2447 0.616 0.9378 0.0
H1054 H 0.31238 0.27596 0.90909 0.0
H1055 H 0.32862 0.25001 0.80905 0.0
H1056 H 0.37036 0.23844 0.83133 0.0
H1057 H 0.37178 0.30302 0.93249 0.0
H1058 H 0.3729 0.29455 0.97567 0.0
H1059 H 0.34359 0.29958 0.95244 0.0
H1060 H 0.32915 0.25596 0.96593 0.0
H1061 H 0.35842 0.25082 0.98924 0.0
H1062 H 0.34749 0.22958 0.95528 0.0
H1063 H 0.41108 0.2312 0.86356 0.0
H1064 H 0.44789 0.22848 0.90434 0.0
H1065 H 0.40607 0.25953 0.98329 0.0
C1066 C 0.32466 0.2678 0.89185 0.0
C1067 C 0.31688 0.26364 0.85729 0.0
C1068 C 0.33371 0.25286 0.83573 0.0
C1069 C 0.35762 0.24638 0.8481 0.0
C1070 C 0.36467 0.25084 0.88213 0.0
C1071 C 0.34873 0.26127 0.90376 0.0
C1072 C 0.36126 0.26468 0.93912 0.0
C1073 C 0.36245 0.29209 0.95059 0.0
C1074 C 0.34831 0.24934 0.96385 0.0
C1075 C 0.38674 0.25465 0.93386 0.0
C1076 C 0.38827 0.24673 0.90077 0.0
C1077 C 0.41005 0.23718 0.88957 0.0
C1078 C 0.43081 0.23567 0.9128 0.0
C1079 C 0.42961 0.2436 0.94678 0.0
C1080 C 0.4073 0.2532 0.95741 0.0
H1081 H 0.74057 0.32323 0.89754 0.0
H1082 H 0.76038 0.34626 0.80078 0.0
H1083 H 0.77128 0.38758 0.82644 0.0
H1084 H 0.71074 0.37916 0.92008 0.0
H1085 H 0.72076 0.37815 0.96417 0.0
H1086 H 0.71674 0.34996 0.93886 0.0
H1087 H 0.76179 0.33764 0.9568 0.0
H1088 H 0.76594 0.36581 0.9822 0.0
H1089 H 0.7866 0.35842 0.95037 0.0
H1090 H 0.7783 0.4278 0.86321 0.0
H1091 H 0.78026 0.46212 0.90657 0.0
H1092 H 0.75341 0.41329 0.97797 0.0
C1093 C 0.74707 0.33687 0.88142 0.0
C1094 C 0.74938 0.33111 0.84673 0.0
C1095 C 0.75862 0.34973 0.82733 0.0
C1096 C 0.76471 0.37344 0.84173 0.0
C1097 C 0.7615 0.37852 0.87571 0.0
C1098 C 0.75288 0.36064 0.89525 0.0
C1099 C 0.75002 0.37085 0.93076 0.0
C1100 C 0.72296 0.36944 0.93893 0.0
C1101 C 0.76711 0.35737 0.95655 0.0
C1102 C 0.75821 0.39738 0.92829 0.0
C1103 C 0.76498 0.40145 0.8964 0.0
C1104 C 0.77307 0.42467 0.88817 0.0
C1105 C 0.77415 0.44408 0.91294 0.0
C1106 C 0.76705 0.44036 0.94558 0.0
C1107 C 0.75903 0.41663 0.95324 0.0
H1108 H 0.69173 0.27399 0.15854 0.0
H1109 H 0.6787 0.24207 0.25306 0.0
H1110 H 0.63769 0.22764 0.22855 0.0
H1111 H 0.63207 0.29739 0.1418 0.0
H1112 H 0.63066 0.29128 0.097 0.0
H1113 H 0.66 0.29663 0.12063 0.0
H1114 H 0.67597 0.2548 0.09763 0.0
H1115 H 0.64668 0.24938 0.07375 0.0
H1116 H 0.65883 0.22702 0.10275 0.0
H1117 H 0.59638 0.22024 0.19536 0.0
H1118 H 0.55886 0.21923 0.15528 0.0
H1119 H 0.59882 0.25624 0.08294 0.0
C1120 C 0.68038 0.26376 0.17405 0.0
C1121 C 0.68854 0.25915 0.20778 0.0
C1122 C 0.67309 0.24553 0.22704 0.0
C1123 C 0.64968 0.23738 0.21339 0.0
C1124 C 0.64199 0.24286 0.18037 0.0
C1125 C 0.65698 0.25558 0.16087 0.0
C1126 C 0.64394 0.26024 0.12668 0.0
C1127 C 0.64153 0.28803 0.12123 0.0
C1128 C 0.65714 0.24707 0.09854 0.0
C1129 C 0.61908 0.24858 0.13018 0.0
C1130 C 0.61832 0.23854 0.16126 0.0
C1131 C 0.59689 0.22774 0.1708 0.0
C1132 C 0.57572 0.22723 0.148 0.0
C1133 C 0.5762 0.23742 0.11612 0.0
C1134 C 0.59817 0.2481 0.1071 0.0
H1135 H 0.74058 0.70619 0.14722 0.0
H1136 H 0.76964 0.68733 0.24735 0.0
H1137 H 0.78073 0.646 0.2249 0.0
H1138 H 0.71249 0.64827 0.12413 0.0
H1139 H 0.71934 0.64838 0.08084 0.0
H1140 H 0.71568 0.67707 0.10417 0.0
H1141 H 0.75895 0.69123 0.09035 0.0
H1142 H 0.76268 0.66261 0.06681 0.0
H1143 H 0.78533 0.67203 0.10056 0.0
H1144 H 0.78589 0.60496 0.19152 0.0
H1145 H 0.786 0.56937 0.15044 0.0
H1146 H 0.75313 0.61479 0.07235 0.0
C1147 C 0.74938 0.69349 0.16459 0.0
C1148 C 0.75413 0.70034 0.19935 0.0
C1149 C 0.76602 0.68296 0.22069 0.0
C1150 C 0.77223 0.65925 0.20813 0.0
C1151 C 0.76659 0.65299 0.174 0.0
C1152 C 0.75558 0.66975 0.15251 0.0
C1153 C 0.75068 0.65831 0.11709 0.0
C1154 C 0.7229 0.65799 0.10591 0.0
C1155 C 0.76529 0.67185 0.09224 0.0
C1156 C 0.76042 0.63237 0.12194 0.0
C1157 C 0.76957 0.62964 0.15496 0.0
C1158 C 0.77894 0.60707 0.16561 0.0
C1159 C 0.77896 0.58692 0.1421 0.0
C1160 C 0.76973 0.58927 0.10814 0.0
C1161 C 0.76042 0.61242 0.09808 0.0
H1162 H 0.34123 0.72343 0.19791 0.0
H1163 H 0.29487 0.78371 0.16329 0.0
H1164 H 0.32833 0.79826 0.13076 0.0
H1165 H 0.40051 0.75754 0.2041 0.0
H1166 H 0.41721 0.73102 0.18972 0.0
H1167 H 0.39058 0.727 0.21279 0.0
H1168 H 0.37073 0.69849 0.16418 0.0
H1169 H 0.39716 0.70253 0.14088 0.0
H1170 H 0.36677 0.70967 0.12227 0.0
H1171 H 0.36491 0.803 0.09654 0.0
H1172 H 0.4028 0.79951 0.06663 0.0
H1173 H 0.42613 0.73701 0.12498 0.0
C1174 C 0.33827 0.73994 0.18391 0.0
C1175 C 0.31541 0.75248 0.18317 0.0
C1176 C 0.31228 0.774 0.16457 0.0
C1177 C 0.33116 0.7823 0.14589 0.0
C1178 C 0.3532 0.76908 0.14643 0.0
C1179 C 0.35697 0.74856 0.16538 0.0
C1180 C 0.38191 0.73701 0.16064 0.0
C1181 C 0.39854 0.73822 0.19379 0.0
C1182 C 0.37895 0.71035 0.14613 0.0
C1183 C 0.39139 0.75384 0.13533 0.0
C1184 C 0.37454 0.77224 0.12748 0.0
C1185 C 0.37839 0.78896 0.10298 0.0
C1186 C 0.3999 0.7868 0.08606 0.0
C1187 C 0.41746 0.76821 0.09384 0.0
C1188 C 0.41323 0.7517 0.11908 0.0
H1189 H 0.28798 0.32994 0.22561 0.0
H1190 H 0.21534 0.29626 0.21749 0.0
H1191 H 0.19939 0.33001 0.182 0.0
H1192 H 0.26747 0.39479 0.22631 0.0
H1193 H 0.29174 0.40417 0.20163 0.0
H1194 H 0.29657 0.37883 0.22903 0.0
H1195 H 0.30815 0.3509 0.1787 0.0
H1196 H 0.30305 0.37603 0.15107 0.0
H1197 H 0.28674 0.34733 0.14176 0.0
H1198 H 0.19253 0.3655 0.14177 0.0
H1199 H 0.19418 0.40057 0.10529 0.0
H1200 H 0.27136 0.4121 0.14025 0.0
C1201 C 0.26858 0.32978 0.21686 0.0
C1202 C 0.25294 0.31016 0.22465 0.0
C1203 C 0.22769 0.31104 0.21256 0.0
C1204 C 0.21852 0.3301 0.192 0.0
C1205 C 0.2347 0.34849 0.18375 0.0
C1206 C 0.25915 0.34865 0.19629 0.0
C1207 C 0.27297 0.37 0.18283 0.0
C1208 C 0.28276 0.38802 0.21167 0.0
C1209 C 0.29397 0.36049 0.16238 0.0
C1210 C 0.25261 0.38171 0.16031 0.0
C1211 C 0.23069 0.369 0.1612 0.0
C1212 C 0.20954 0.37578 0.14152 0.0
C1213 C 0.21068 0.39607 0.12088 0.0
C1214 C 0.23278 0.40993 0.11978 0.0
C1215 C 0.25406 0.40226 0.13996 0.0
H1216 H 0.30807 0.25893 0.1736 0.0
H1217 H 0.33541 0.23145 0.27017 0.0
H1218 H 0.3751 0.22112 0.24718 0.0
H1219 H 0.34026 0.21656 0.11967 0.0
H1220 H 0.34648 0.2401 0.09114 0.0
H1221 H 0.31935 0.24206 0.1139 0.0
H1222 H 0.33281 0.28562 0.13766 0.0
H1223 H 0.36004 0.28373 0.11517 0.0
H1224 H 0.36285 0.28983 0.16003 0.0
H1225 H 0.41299 0.21607 0.2139 0.0
H1226 H 0.44549 0.21772 0.17428 0.0
H1227 H 0.39405 0.25229 0.102 0.0
C1228 C 0.3223 0.25073 0.19012 0.0
C1229 C 0.31847 0.24616 0.22392 0.0
C1230 C 0.33762 0.23487 0.24412 0.0
C1231 C 0.36033 0.2291 0.23132 0.0
C1232 C 0.3637 0.23481 0.19831 0.0
C1233 C 0.34514 0.2454 0.17804 0.0
C1234 C 0.35379 0.25144 0.14433 0.0
C1235 C 0.3391 0.23665 0.11556 0.0
C1236 C 0.35229 0.27931 0.139 0.0
C1237 C 0.38028 0.24288 0.1488 0.0
C1238 C 0.3856 0.23297 0.17988 0.0
C1239 C 0.40896 0.22376 0.18953 0.0
C1240 C 0.42729 0.22475 0.16689 0.0
C1241 C 0.4223 0.23526 0.13522 0.0
C1242 C 0.39845 0.24439 0.12619 0.0
H1243 H 0.73544 0.32267 0.16876 0.0
H1244 H 0.75943 0.34519 0.27203 0.0
H1245 H 0.76909 0.38677 0.25372 0.0
H1246 H 0.77921 0.35774 0.12822 0.0
H1247 H 0.75716 0.36518 0.09389 0.0
H1248 H 0.75404 0.33694 0.11509 0.0
H1249 H 0.70952 0.34914 0.12734 0.0
H1250 H 0.71253 0.37746 0.10629 0.0
H1251 H 0.7043 0.37823 0.14903 0.0
H1252 H 0.77545 0.42633 0.22335 0.0
H1253 H 0.7767 0.46035 0.18407 0.0
H1254 H 0.74545 0.41169 0.10248 0.0
C1255 C 0.74258 0.33632 0.1877 0.0
C1256 C 0.74659 0.33065 0.22188 0.0
C1257 C 0.75647 0.34898 0.24563 0.0
C1258 C 0.76187 0.37269 0.2355 0.0
C1259 C 0.75716 0.3777 0.20162 0.0
C1260 C 0.74767 0.35998 0.17818 0.0
C1261 C 0.74328 0.37003 0.14356 0.0
C1262 C 0.75939 0.35668 0.11874 0.0
C1263 C 0.71577 0.36863 0.13083 0.0
C1264 C 0.75163 0.39632 0.15111 0.0
C1265 C 0.75986 0.40042 0.18461 0.0
C1266 C 0.76894 0.42333 0.19713 0.0
C1267 C 0.7696 0.44249 0.17474 0.0
C1268 C 0.76088 0.43858 0.14052 0.0
C1269 C 0.75181 0.41522 0.1287 0.0
H1270 H 0.69487 0.75318 0.14583 0.0
H1271 H 0.67156 0.77415 0.24417 0.0
H1272 H 0.63005 0.78389 0.21782 0.0
H1273 H 0.65896 0.79845 0.09798 0.0
H1274 H 0.65186 0.77725 0.06247 0.0
H1275 H 0.68019 0.77409 0.0888 0.0
H1276 H 0.6687 0.72891 0.09897 0.0
H1277 H 0.64034 0.73196 0.07274 0.0
H1278 H 0.63963 0.7224 0.11523 0.0
H1279 H 0.58986 0.78819 0.18076 0.0
H1280 H 0.5551 0.78759 0.13626 0.0
H1281 H 0.60458 0.76312 0.06253 0.0
C1282 C 0.68112 0.75993 0.16194 0.0
C1283 C 0.68664 0.76287 0.19724 0.0
C1284 C 0.66804 0.77203 0.21712 0.0
C1285 C 0.64431 0.77747 0.20236 0.0
C1286 C 0.63942 0.77375 0.16761 0.0
C1287 C 0.65738 0.76528 0.14767 0.0
C1288 C 0.64723 0.76176 0.11118 0.0
C1289 C 0.66034 0.77892 0.08879 0.0
C1290 C 0.64909 0.73465 0.09882 0.0
C1291 C 0.62062 0.76932 0.11364 0.0
C1292 C 0.61647 0.77628 0.14638 0.0
C1293 C 0.59304 0.78313 0.15501 0.0
C1294 C 0.57344 0.78283 0.12962 0.0
C1295 C 0.57736 0.77589 0.09595 0.0
C1296 C 0.60125 0.769 0.08798 0.0
H1297 H 0.26664 0.68389 0.14376 0.0
H1298 H 0.25631 0.6688 0.2473 0.0
H1299 H 0.24517 0.62562 0.22983 0.0
H1300 H 0.21725 0.64602 0.10495 0.0
H1301 H 0.23417 0.63604 0.07002 0.0
H1302 H 0.24048 0.66576 0.09075 0.0
H1303 H 0.28667 0.65427 0.1017 0.0
H1304 H 0.28049 0.62457 0.08089 0.0
H1305 H 0.29495 0.6266 0.12324 0.0
H1306 H 0.23626 0.58364 0.20063 0.0
H1307 H 0.23072 0.54649 0.16203 0.0
H1308 H 0.2477 0.58983 0.07869 0.0
C1309 C 0.26224 0.67148 0.16286 0.0
C1310 C 0.26244 0.67961 0.1969 0.0
C1311 C 0.25608 0.66294 0.22102 0.0
C1312 C 0.24983 0.63841 0.21136 0.0
C1313 C 0.24998 0.631 0.17754 0.0
C1314 C 0.25604 0.64709 0.15371 0.0
C1315 C 0.2553 0.63464 0.1191 0.0
C1316 C 0.23562 0.64631 0.09478 0.0
C1317 C 0.28087 0.63504 0.10545 0.0
C1318 C 0.24801 0.60892 0.12711 0.0
C1319 C 0.24491 0.6071 0.16089 0.0
C1320 C 0.23853 0.58488 0.17414 0.0
C1321 C 0.23541 0.56399 0.15222 0.0
C1322 C 0.23872 0.5657 0.11775 0.0
C1323 C 0.24497 0.58835 0.10505 0.0
H1324 H 0.33782 0.77598 0.81479 0.0
H1325 H 0.32789 0.69801 0.83043 0.0
H1326 H 0.36759 0.69722 0.86376 0.0
H1327 H 0.4068 0.76363 0.80203 0.0
H1328 H 0.416 0.79393 0.81873 0.0
H1329 H 0.38611 0.78929 0.79608 0.0
H1330 H 0.36579 0.80873 0.84704 0.0
H1331 H 0.39553 0.81274 0.87024 0.0
H1332 H 0.37167 0.79564 0.88762 0.0
H1333 H 0.39934 0.70932 0.91049 0.0
H1334 H 0.436 0.725 0.94437 0.0
H1335 H 0.43898 0.7866 0.87881 0.0
C1336 C 0.34429 0.75858 0.82434 0.0
C1337 C 0.32844 0.73761 0.82251 0.0
C1338 C 0.33845 0.71497 0.83394 0.0
C1339 C 0.36118 0.71415 0.85274 0.0
C1340 C 0.37511 0.73555 0.85714 0.0
C1341 C 0.3683 0.75673 0.84094 0.0
C1342 C 0.38906 0.7758 0.84703 0.0
C1343 C 0.40016 0.78097 0.814 0.0
C1344 C 0.37995 0.79964 0.86398 0.0
C1345 C 0.40742 0.76234 0.87088 0.0
C1346 C 0.39807 0.73967 0.87741 0.0
C1347 C 0.40813 0.72605 0.90377 0.0
C1348 C 0.42919 0.73511 0.92276 0.0
C1349 C 0.44169 0.75645 0.91364 0.0
C1350 C 0.43034 0.7703 0.88706 0.0
H1351 H 0.25748 0.3205 0.90218 0.0
H1352 H 0.24001 0.33998 0.79868 0.0
H1353 H 0.22665 0.38116 0.8184 0.0
H1354 H 0.20817 0.3553 0.93916 0.0
H1355 H 0.22768 0.36443 0.97641 0.0
H1356 H 0.233 0.33559 0.95422 0.0
H1357 H 0.27826 0.34865 0.94873 0.0
H1358 H 0.27306 0.3775 0.97082 0.0
H1359 H 0.28432 0.37727 0.92972 0.0
H1360 H 0.21864 0.42151 0.84939 0.0
H1361 H 0.21684 0.45762 0.88947 0.0
H1362 H 0.24093 0.41188 0.97192 0.0
C1363 C 0.25067 0.33333 0.88361 0.0
C1364 C 0.24969 0.32692 0.84887 0.0
C1365 C 0.24052 0.34425 0.82544 0.0
C1366 C 0.23301 0.36775 0.83639 0.0
C1367 C 0.23475 0.3736 0.87082 0.0
C1368 C 0.24331 0.35684 0.89406 0.0
C1369 C 0.24501 0.36811 0.92947 0.0
C1370 C 0.22741 0.35508 0.95108 0.0
C1371 C 0.27175 0.36787 0.94561 0.0
C1372 C 0.23651 0.394 0.92252 0.0
C1373 C 0.23042 0.3968 0.88858 0.0
C1374 C 0.22306 0.41946 0.87604 0.0
C1375 C 0.22208 0.43978 0.89881 0.0
C1376 C 0.22852 0.43716 0.93346 0.0
C1377 C 0.23564 0.41404 0.94546 0.0
H1378 H 0.66794 0.29487 0.84384 0.0
H1379 H 0.7058 0.22475 0.8506 0.0
H1380 H 0.6718 0.20828 0.88042 0.0
H1381 H 0.64766 0.29648 0.92505 0.0
H1382 H 0.61835 0.31055 0.91331 0.0
H1383 H 0.64432 0.31598 0.88961 0.0
H1384 H 0.61905 0.30031 0.83488 0.0
H1385 H 0.5929 0.295 0.85837 0.0
H1386 H 0.60482 0.27025 0.83302 0.0
H1387 H 0.63531 0.2008 0.91406 0.0
H1388 H 0.59885 0.20217 0.94654 0.0
H1389 H 0.58454 0.27723 0.91727 0.0
C1390 C 0.66901 0.27596 0.85132 0.0
C1391 C 0.68961 0.2611 0.84481 0.0
C1392 C 0.69013 0.2364 0.85484 0.0
C1393 C 0.67095 0.22694 0.872 0.0
C1394 C 0.65128 0.24235 0.87879 0.0
C1395 C 0.65009 0.26627 0.86847 0.0
C1396 C 0.6275 0.27938 0.88001 0.0
C1397 C 0.63491 0.30192 0.90338 0.0
C1398 C 0.61003 0.28666 0.84977 0.0
C1399 C 0.61632 0.25924 0.89901 0.0
C1400 C 0.63025 0.238 0.89789 0.0
C1401 C 0.62408 0.21723 0.91463 0.0
C1402 C 0.60316 0.21817 0.93291 0.0
C1403 C 0.58845 0.23973 0.93439 0.0
C1404 C 0.59528 0.26047 0.91697 0.0
H1405 H 0.73386 0.67634 0.82087 0.0
H1406 H 0.80364 0.71311 0.85035 0.0
H1407 H 0.81891 0.67581 0.87865 0.0
H1408 H 0.72823 0.64942 0.89565 0.0
H1409 H 0.71456 0.62098 0.878 0.0
H1410 H 0.71075 0.64868 0.85517 0.0
H1411 H 0.72921 0.62711 0.80395 0.0
H1412 H 0.73294 0.59919 0.82658 0.0
H1413 H 0.75908 0.61276 0.80947 0.0
H1414 H 0.82392 0.63748 0.91083 0.0
H1415 H 0.81889 0.60072 0.94339 0.0
H1416 H 0.74617 0.58823 0.89143 0.0
C1417 C 0.75254 0.67633 0.83272 0.0
C1418 C 0.76764 0.69749 0.83343 0.0
C1419 C 0.79194 0.69691 0.84918 0.0
C1420 C 0.80072 0.67585 0.86533 0.0
C1421 C 0.78505 0.65552 0.86505 0.0
C1422 C 0.76156 0.6555 0.84882 0.0
C1423 C 0.74759 0.63225 0.85473 0.0
C1424 C 0.7239 0.6382 0.87192 0.0
C1425 C 0.74188 0.61692 0.82172 0.0
C1426 C 0.76648 0.61967 0.87806 0.0
C1427 C 0.78808 0.63321 0.88335 0.0
C1428 C 0.80735 0.62638 0.90623 0.0
C1429 C 0.80434 0.60535 0.92452 0.0
C1430 C 0.78218 0.59137 0.91986 0.0
C1431 C 0.7633 0.59847 0.89572 0.0
loop_
_geom_bond_atom_site_label_1
_geom_bond_atom_site_label_2
_geom_bond_distance
_geom_bond_site_symmetry_2
_ccdc_geom_bond_type
H0 C6 0.930 . S
H1 C9 0.931 . S
H2 C11 0.931 . S
H3 C13 0.930 . S
H4 C15 0.930 . S
H5 C17 0.931 . S
C6 H0 0.930 . S
C6 C7 1.380 . S
C6 C8 1.394 . S
C7 C6 1.380 . S
C7 C11 1.382 . S
C8 C6 1.394 . S
C8 C9 1.400 . S
C9 H1 0.931 . S
C9 C8 1.400 . S
C9 C10 1.375 . S
C10 C9 1.375 . S
C10 C11 1.415 . S
C10 C12 1.501 . S
C11 H2 0.931 . S
C11 C7 1.382 . S
C11 C10 1.415 . S
C12 C10 1.501 . S
C12 C13 1.384 . S
C12 C17 1.408 . S
C13 H3 0.930 . S
C13 C12 1.384 . S
C13 C14 1.389 . S
C14 C13 1.389 . S
C14 C15 1.405 . S
C15 H4 0.930 . S
C15 C14 1.405 . S
C15 C16 1.364 . S
C16 C15 1.364 . S
C16 C17 1.400 . S
C17 H5 0.931 . S
C17 C12 1.408 . S
C17 C16 1.400 . S
H18 C24 0.930 . S
H19 C27 0.931 . S
H20 C29 0.931 . S
H21 C31 0.930 . S
H22 C33 0.930 . S
H23 C35 0.931 . S
C24 H18 0.930 . S
C24 C25 1.380 . S
C24 C26 1.394 . S
C25 C24 1.380 . S
C25 C29 1.382 . S
C26 C24 1.394 . S
C26 C27 1.400 . S
C27 H19 0.931 . S
C27 C26 1.400 . S
C27 C28 1.375 . S
C28 C27 1.375 . S
C28 C29 1.415 . S
C28 C30 1.501 . S
C29 H20 0.931 . S
C29 C25 1.382 . S
C29 C28 1.415 . S
C30 C28 1.501 . S
C30 C31 1.384 . S
C30 C35 1.408 . S
C31 H21 0.930 . S
C31 C30 1.384 . S
C31 C32 1.389 . S
C32 C31 1.389 . S
C32 C33 1.405 . S
C33 H22 0.930 . S
C33 C32 1.405 . S
C33 C34 1.364 . S
C34 C33 1.364 . S
C34 C35 1.400 . S
C35 H23 0.931 . S
C35 C30 1.408 . S
C35 C34 1.400 . S
H36 C42 0.930 . S
H37 C45 0.931 . S
H38 C47 0.931 . S
H39 C49 0.930 . S
H40 C51 0.930 . S
H41 C53 0.931 . S
C42 H36 0.930 . S
C42 C43 1.380 . S
C42 C44 1.394 . S
C43 C42 1.380 . S
C43 C47 1.382 . S
C44 C42 1.394 . S
C44 C45 1.400 . S
C45 H37 0.931 . S
C45 C44 1.400 . S
C45 C46 1.375 . S
C46 C45 1.375 . S
C46 C47 1.415 . S
C46 C48 1.501 . S
C47 H38 0.931 . S
C47 C43 1.382 . S
C47 C46 1.415 . S
C48 C46 1.501 . S
C48 C49 1.384 . S
C48 C53 1.408 . S
C49 H39 0.930 . S
C49 C48 1.384 . S
C49 C50 1.389 . S
C50 C49 1.389 . S
C50 C51 1.405 . S
C51 H40 0.930 . S
C51 C50 1.405 . S
C51 C52 1.364 . S
C52 C51 1.364 . S
C52 C53 1.400 . S
C53 H41 0.931 . S
C53 C48 1.408 . S
C53 C52 1.400 . S
H54 C60 0.930 . S
H55 C63 0.931 . S
H56 C65 0.931 . S
H57 C67 0.930 . S
H58 C69 0.930 . S
H59 C71 0.931 . S
C60 H54 0.930 . S
C60 C61 1.380 . S
C60 C62 1.394 . S
C61 C60 1.380 . S
C61 C65 1.382 . S
C62 C60 1.394 . S
C62 C63 1.400 . S
C63 H55 0.931 . S
C63 C62 1.400 . S
C63 C64 1.375 . S
C64 C63 1.375 . S
C64 C65 1.415 . S
C64 C66 1.501 . S
C65 H56 0.931 . S
C65 C61 1.382 . S
C65 C64 1.415 . S
C66 C64 1.501 . S
C66 C67 1.384 . S
C66 C71 1.408 . S
C67 H57 0.930 . S
C67 C66 1.384 . S
C67 C68 1.389 . S
C68 C67 1.389 . S
C68 C69 1.405 . S
C69 H58 0.930 . S
C69 C68 1.405 . S
C69 C70 1.364 . S
C70 C69 1.364 . S
C70 C71 1.400 . S
C71 H59 0.931 . S
C71 C66 1.408 . S
C71 C70 1.400 . S
H72 C78 0.930 . S
H73 C81 0.931 . S
H74 C83 0.931 . S
H75 C85 0.930 . S
H76 C87 0.930 . S
H77 C89 0.931 . S
C78 H72 0.930 . S
C78 C79 1.380 . S
C78 C80 1.394 . S
C79 C78 1.380 . S
C79 C83 1.382 . S
C80 C78 1.394 . S
C80 C81 1.400 . S
C81 H73 0.931 . S
C81 C80 1.400 . S
C81 C82 1.375 . S
C82 C81 1.375 . S
C82 C83 1.415 . S
C82 C84 1.501 . S
C83 H74 0.931 . S
C83 C79 1.382 . S
C83 C82 1.415 . S
C84 C82 1.501 . S
C84 C85 1.384 . S
C84 C89 1.408 . S
C85 H75 0.930 . S
C85 C84 1.384 . S
C85 C86 1.389 . S
C86 C85 1.389 . S
C86 C87 1.405 . S
C87 H76 0.930 . S
C87 C86 1.405 . S
C87 C88 1.364 . S
C88 C87 1.364 . S
C88 C89 1.400 . S
C89 H77 0.931 . S
C89 C84 1.408 . S
C89 C88 1.400 . S
H90 C96 0.930 . S
H91 C99 0.931 . S
H92 C101 0.931 . S
H93 C103 0.930 . S
H94 C105 0.930 . S
H95 C107 0.931 . S
C96 H90 0.930 . S
C96 C97 1.380 . S
C96 C98 1.394 . S
C97 C96 1.380 . S
C97 C101 1.382 . S
C98 C96 1.394 . S
C98 C99 1.400 . S
C99 H91 0.931 . S
C99 C98 1.400 . S
C99 C100 1.375 . S
C100 C99 1.375 . S
C100 C101 1.415 . S
C100 C102 1.501 . S
C101 H92 0.931 . S
C101 C97 1.382 . S
C101 C100 1.415 . S
C102 C100 1.501 . S
C102 C103 1.384 . S
C102 C107 1.408 . S
C103 H93 0.930 . S
C103 C102 1.384 . S
C103 C104 1.389 . S
C104 C103 1.389 . S
C104 C105 1.405 . S
C105 H94 0.930 . S
C105 C104 1.405 . S
C105 C106 1.364 . S
C106 C105 1.364 . S
C106 C107 1.400 . S
C107 H95 0.931 . S
C107 C102 1.408 . S
C107 C106 1.400 . S
H108 C114 0.930 . S
H109 C117 0.931 . S
H110 C119 0.931 . S
H111 C121 0.930 . S
H112 C123 0.930 . S
H113 C125 0.931 . S
C114 H108 0.930 . S
C114 C115 1.380 . S
C114 C116 1.394 . S
C115 C114 1.380 . S
C115 C119 1.382 . S
C116 C114 1.394 . S
C116 C117 1.400 . S
C117 H109 0.931 . S
C117 C116 1.400 . S
C117 C118 1.375 . S
C118 C117 1.375 . S
C118 C119 1.415 . S
C118 C120 1.501 . S
C119 H110 0.931 . S
C119 C115 1.382 . S
C119 C118 1.415 . S
C120 C118 1.501 . S
C120 C121 1.384 . S
C120 C125 1.408 . S
C121 H111 0.930 . S
C121 C120 1.384 . S
C121 C122 1.389 . S
C122 C121 1.389 . S
C122 C123 1.405 . S
C123 H112 0.930 . S
C123 C122 1.405 . S
C123 C124 1.364 . S
C124 C123 1.364 . S
C124 C125 1.400 . S
C125 H113 0.931 . S
C125 C120 1.408 . S
C125 C124 1.400 . S
H126 C132 0.930 . S
H127 C135 0.931 . S
H128 C137 0.931 . S
H129 C139 0.930 . S
H130 C141 0.930 . S
H131 C143 0.931 . S
C132 H126 0.930 . S
C132 C133 1.380 . S
C132 C134 1.394 . S
C133 C132 1.380 . S
C133 C137 1.382 . S
C134 C132 1.394 . S
C134 C135 1.400 . S
C135 H127 0.931 . S
C135 C134 1.400 . S
C135 C136 1.375 . S
C136 C135 1.375 . S
C136 C137 1.415 . S
C136 C138 1.501 . S
C137 H128 0.931 . S
C137 C133 1.382 . S
C137 C136 1.415 . S
C138 C136 1.501 . S
C138 C139 1.384 . S
C138 C143 1.408 . S
C139 H129 0.930 . S
C139 C138 1.384 . S
C139 C140 1.389 . S
C140 C139 1.389 . S
C140 C141 1.405 . S
C141 H130 0.930 . S
C141 C140 1.405 . S
C141 C142 1.364 . S
C142 C141 1.364 . S
C142 C143 1.400 . S
C143 H131 0.931 . S
C143 C138 1.408 . S
C143 C142 1.400 . S
C144 C145 1.443 . S
C144 N148 1.376 . S
C144 C182 1.389 . S
C145 C144 1.443 . S
C145 C146 1.340 . S
C145 H185 0.951 . S
C146 C145 1.340 . S
C146 C147 1.439 . S
C146 H186 0.950 . S
C147 C146 1.439 . S
C147 N148 1.374 . S
C147 C181 1.395 . S
N148 C144 1.376 . S
N148 C147 1.374 . S
N148 Co149 2.008 . S
Co149 N148 2.008 . S
Co149 N150 1.995 1_455 S
Co149 N155 2.008 1_455 S
Co149 N160 1.995 . S
Co149 N165 2.282 1_455 S
Co149 N171 2.282 . S
N150 Co149 1.995 1_655 S
N150 C151 1.376 . S
N150 C154 1.383 . S
C151 N150 1.376 . S
C151 C152 1.446 . S
C151 C181 1.391 1_655 S
C152 C151 1.446 . S
C152 C153 1.339 . S
C152 H187 0.949 . S
C153 C152 1.339 . S
C153 C154 1.439 . S
C153 H188 0.950 . S
C154 N150 1.383 . S
C154 C153 1.439 . S
C154 C183 1.392 . S
N155 Co149 2.008 1_655 S
N155 C156 1.376 . S
N155 C159 1.374 . S
C156 N155 1.376 . S
C156 C157 1.443 . S
C156 C183 1.389 . S
C157 C156 1.443 . S
C157 C158 1.340 . S
C157 H189 0.951 . S
C158 C157 1.340 . S
C158 C159 1.439 . S
C158 H190 0.950 . S
C159 N155 1.374 . S
C159 C158 1.439 . S
C159 C184 1.410 . S
N160 Co149 1.995 . S
N160 C161 1.376 . S
N160 C164 1.383 . S
C161 N160 1.376 . S
C161 C162 1.446 . S
C161 C184 1.375 1_455 S
C162 C161 1.446 . S
C162 C163 1.339 . S
C162 H191 0.949 . S
C163 C162 1.339 . S
C163 C164 1.439 . S
C163 H192 0.950 . S
C164 N160 1.383 . S
C164 C163 1.439 . S
C164 C182 1.392 . S
N165 Co149 2.282 1_655 S
N165 C168 1.332 . S
N165 C170 1.332 . S
C166 C167 1.386 . S
C166 C169 1.388 . S
C167 C166 1.386 . S
C167 C168 1.382 . S
C167 H193 0.950 . S
C168 N165 1.332 . S
C168 C167 1.382 . S
C168 H179 0.952 . S
C169 C166 1.388 . S
C169 C170 1.382 . S
C169 H194 0.950 . S
C170 N165 1.332 . S
C170 C169 1.382 . S
C170 H180 0.948 . S
N171 Co149 2.282 . S
N171 C175 1.332 . S
N171 C176 1.332 . S
C172 C173 1.388 . S
C172 C176 1.382 . S
C172 H195 0.950 . S
C173 C172 1.388 . S
C173 C174 1.386 . S
C174 C173 1.386 . S
C174 C175 1.382 . S
C174 H196 0.950 . S
C175 N171 1.332 . S
C175 C174 1.382 . S
C175 H177 0.952 . S
C176 N171 1.332 . S
C176 C172 1.382 . S
C176 H178 0.948 . S
H177 C175 0.952 . S
H178 C176 0.948 . S
H179 C168 0.952 . S
H180 C170 0.948 . S
C181 C147 1.395 . S
C181 C151 1.391 1_455 S
C182 C144 1.389 . S
C182 C164 1.392 . S
C183 C154 1.392 . S
C183 C156 1.389 . S
C184 C159 1.410 . S
C184 C161 1.375 1_655 S
H185 C145 0.951 . S
H186 C146 0.950 . S
H187 C152 0.949 . S
H188 C153 0.950 . S
H189 C157 0.951 . S
H190 C158 0.950 . S
H191 C162 0.949 . S
H192 C163 0.950 . S
H193 C167 0.950 . S
H194 C169 0.950 . S
H195 C172 0.950 . S
H196 C174 0.950 . S
C197 C198 1.443 . S
C197 N201 1.376 . S
C197 C235 1.389 . S
C198 C197 1.443 . S
C198 C199 1.340 . S
C198 H238 0.951 . S
C199 C198 1.340 . S
C199 C200 1.439 . S
C199 H239 0.950 . S
C200 C199 1.439 . S
C200 N201 1.374 . S
C200 C234 1.395 . S
N201 C197 1.376 . S
N201 C200 1.374 . S
N201 Co202 2.008 . S
Co202 N201 2.008 . S
Co202 N203 1.995 1_545 S
Co202 N208 2.008 1_545 S
Co202 N213 1.995 . S
Co202 N218 2.282 1_545 S
Co202 N224 2.282 . S
N203 Co202 1.995 1_565 S
N203 C204 1.376 . S
N203 C207 1.383 . S
C204 N203 1.376 . S
C204 C205 1.446 . S
C204 C234 1.391 1_565 S
C205 C204 1.446 . S
C205 C206 1.339 . S
C205 H240 0.949 . S
C206 C205 1.339 . S
C206 C207 1.439 . S
C206 H241 0.950 . S
C207 N203 1.383 . S
C207 C206 1.439 . S
C207 C236 1.392 . S
N208 Co202 2.008 1_565 S
N208 C209 1.376 . S
N208 C212 1.374 . S
C209 N208 1.376 . S
C209 C210 1.443 . S
C209 C236 1.389 . S
C210 C209 1.443 . S
C210 C211 1.340 . S
C210 H242 0.951 . S
C211 C210 1.340 . S
C211 C212 1.439 . S
C211 H243 0.950 . S
C212 N208 1.374 . S
C212 C211 1.439 . S
C212 C237 1.381 1_565 S
N213 Co202 1.995 . S
N213 C214 1.376 . S
N213 C217 1.383 . S
C214 N213 1.376 . S
C214 C215 1.446 . S
C214 C237 1.407 . S
C215 C214 1.446 . S
C215 C216 1.339 . S
C215 H244 0.949 . S
C216 C215 1.339 . S
C216 C217 1.439 . S
C216 H245 0.950 . S
C217 N213 1.383 . S
C217 C216 1.439 . S
C217 C235 1.392 . S
N218 Co202 2.282 1_565 S
N218 C221 1.332 . S
N218 C223 1.332 . S
C219 C220 1.386 . S
C219 C222 1.388 . S
C220 C219 1.386 . S
C220 C221 1.382 . S
C220 H246 0.950 . S
C221 N218 1.332 . S
C221 C220 1.382 . S
C221 H232 0.952 . S
C222 C219 1.388 . S
C222 C223 1.382 . S
C222 H247 0.950 . S
C223 N218 1.332 . S
C223 C222 1.382 . S
C223 H233 0.948 . S
N224 Co202 2.282 . S
N224 C228 1.332 . S
N224 C229 1.332 . S
C225 C226 1.388 . S
C225 C229 1.382 . S
C225 H248 0.950 . S
C226 C225 1.388 . S
C226 C227 1.386 . S
C227 C226 1.386 . S
C227 C228 1.382 . S
C227 H249 0.950 . S
C228 N224 1.332 . S
C228 C227 1.382 . S
C228 H230 0.952 . S
C229 N224 1.332 . S
C229 C225 1.382 . S
C229 H231 0.948 . S
H230 C228 0.952 . S
H231 C229 0.948 . S
H232 C221 0.952 . S
H233 C223 0.948 . S
C234 C200 1.395 . S
C234 C204 1.391 1_545 S
C235 C197 1.389 . S
C235 C217 1.392 . S
C236 C207 1.392 . S
C236 C209 1.389 . S
C237 C212 1.381 1_545 S
C237 C214 1.407 . S
H238 C198 0.951 . S
H239 C199 0.950 . S
H240 C205 0.949 . S
H241 C206 0.950 . S
H242 C210 0.951 . S
H243 C211 0.950 . S
H244 C215 0.949 . S
H245 C216 0.950 . S
H246 C220 0.950 . S
H247 C222 0.950 . S
H248 C225 0.950 . S
H249 C227 0.950 . S
C250 C251 1.443 . S
C250 N254 1.376 . S
C250 C288 1.389 . S
C251 C250 1.443 . S
C251 C252 1.340 . S
C251 H291 0.951 . S
C252 C251 1.340 . S
C252 C253 1.439 . S
C252 H292 0.950 . S
C253 C252 1.439 . S
C253 N254 1.374 . S
C253 C287 1.395 . S
N254 C250 1.376 . S
N254 C253 1.374 . S
N254 Co255 2.008 . S
Co255 N254 2.008 . S
Co255 N256 1.995 1_455 S
Co255 N261 2.008 1_455 S
Co255 N266 1.995 . S
Co255 N271 2.282 1_455 S
Co255 N277 2.282 . S
N256 Co255 1.995 1_655 S
N256 C257 1.376 . S
N256 C260 1.383 . S
C257 N256 1.376 . S
C257 C258 1.446 . S
C257 C287 1.391 1_655 S
C258 C257 1.446 . S
C258 C259 1.339 . S
C258 H293 0.949 . S
C259 C258 1.339 . S
C259 C260 1.439 . S
C259 H294 0.950 . S
C260 N256 1.383 . S
C260 C259 1.439 . S
C260 C289 1.392 . S
N261 Co255 2.008 1_655 S
N261 C262 1.376 . S
N261 C265 1.374 . S
C262 N261 1.376 . S
C262 C263 1.443 . S
C262 C289 1.389 . S
C263 C262 1.443 . S
C263 C264 1.340 . S
C263 H295 0.951 . S
C264 C263 1.340 . S
C264 C265 1.439 . S
C264 H296 0.950 . S
C265 N261 1.374 . S
C265 C264 1.439 . S
C265 C290 1.395 . S
N266 Co255 1.995 . S
N266 C267 1.376 . S
N266 C270 1.383 . S
C267 N266 1.376 . S
C267 C268 1.446 . S
C267 C290 1.391 1_455 S
C268 C267 1.446 . S
C268 C269 1.339 . S
C268 H297 0.949 . S
C269 C268 1.339 . S
C269 C270 1.439 . S
C269 H298 0.950 . S
C270 N266 1.383 . S
C270 C269 1.439 . S
C270 C288 1.392 . S
N271 Co255 2.282 1_655 S
N271 C274 1.332 . S
N271 C276 1.332 . S
C272 C273 1.386 . S
C272 C275 1.388 . S
C273 C272 1.386 . S
C273 C274 1.382 . S
C273 H299 0.950 . S
C274 N271 1.332 . S
C274 C273 1.382 . S
C274 H285 0.952 . S
C275 C272 1.388 . S
C275 C276 1.382 . S
C275 H300 0.950 . S
C276 N271 1.332 . S
C276 C275 1.382 . S
C276 H286 0.948 . S
N277 Co255 2.282 . S
N277 C281 1.332 . S
N277 C282 1.332 . S
C278 C279 1.388 . S
C278 C282 1.382 . S
C278 H301 0.950 . S
C279 C278 1.388 . S
C279 C280 1.386 . S
C280 C279 1.386 . S
C280 C281 1.382 . S
C280 H302 0.950 . S
C281 N277 1.332 . S
C281 C280 1.382 . S
C281 H283 0.952 . S
C282 N277 1.332 . S
C282 C278 1.382 . S
C282 H284 0.948 . S
H283 C281 0.952 . S
H284 C282 0.948 . S
H285 C274 0.952 . S
H286 C276 0.948 . S
C287 C253 1.395 . S
C287 C257 1.391 1_455 S
C288 C250 1.389 . S
C288 C270 1.392 . S
C289 C260 1.392 . S
C289 C262 1.389 . S
C290 C265 1.395 . S
C290 C267 1.391 1_655 S
H291 C251 0.951 . S
H292 C252 0.950 . S
H293 C258 0.949 . S
H294 C259 0.950 . S
H295 C263 0.951 . S
H296 C264 0.950 . S
H297 C268 0.949 . S
H298 C269 0.950 . S
H299 C273 0.950 . S
H300 C275 0.950 . S
H301 C278 0.950 . S
H302 C280 0.950 . S
C303 C304 1.443 . S
C303 N307 1.376 . S
C303 C341 1.389 . S
C304 C303 1.443 . S
C304 C305 1.340 . S
C304 H344 0.951 . S
C305 C304 1.340 . S
C305 C306 1.439 . S
C305 H345 0.950 . S
C306 C305 1.439 . S
C306 N307 1.374 . S
C306 C340 1.409 . S
N307 C303 1.376 . S
N307 C306 1.374 . S
N307 Co308 2.008 1_565 S
Co308 N307 2.008 1_545 S
Co308 N309 1.995 . S
Co308 N314 2.008 . S
Co308 N319 1.995 1_545 S
Co308 N324 2.282 . S
Co308 N330 2.282 1_545 S
N309 Co308 1.995 . S
N309 C310 1.376 . S
N309 C313 1.383 . S
C310 N309 1.376 . S
C310 C311 1.446 . S
C310 C340 1.377 1_545 S
C311 C310 1.446 . S
C311 C312 1.339 . S
C311 H346 0.949 . S
C312 C311 1.339 . S
C312 C313 1.439 . S
C312 H347 0.950 . S
C313 N309 1.383 . S
C313 C312 1.439 . S
C313 C342 1.392 . S
N314 Co308 2.008 . S
N314 C315 1.376 . S
N314 C318 1.374 . S
C315 N314 1.376 . S
C315 C316 1.443 . S
C315 C342 1.389 . S
C316 C315 1.443 . S
C316 C317 1.340 . S
C316 H348 0.951 . S
C317 C316 1.340 . S
C317 C318 1.439 . S
C317 H349 0.950 . S
C318 N314 1.374 . S
C318 C317 1.439 . S
C318 C343 1.395 . S
N319 Co308 1.995 1_565 S
N319 C320 1.376 . S
N319 C323 1.383 . S
C320 N319 1.376 . S
C320 C321 1.446 . S
C320 C343 1.391 1_565 S
C321 C320 1.446 . S
C321 C322 1.339 . S
C321 H350 0.949 . S
C322 C321 1.339 . S
C322 C323 1.439 . S
C322 H351 0.950 . S
C323 N319 1.383 . S
C323 C322 1.439 . S
C323 C341 1.392 . S
N324 Co308 2.282 . S
N324 C327 1.332 . S
N324 C329 1.332 . S
C325 C326 1.386 . S
C325 C328 1.388 . S
C326 C325 1.386 . S
C326 C327 1.382 . S
C326 H352 0.950 . S
C327 N324 1.332 . S
C327 C326 1.382 . S
C327 H338 0.952 . S
C328 C325 1.388 . S
C328 C329 1.382 . S
C328 H353 0.950 . S
C329 N324 1.332 . S
C329 C328 1.382 . S
C329 H339 0.948 . S
N330 Co308 2.282 1_565 S
N330 C334 1.332 . S
N330 C335 1.332 . S
C331 C332 1.388 . S
C331 C335 1.382 . S
C331 H354 0.950 . S
C332 C331 1.388 . S
C332 C333 1.386 . S
C333 C332 1.386 . S
C333 C334 1.382 . S
C333 H355 0.950 . S
C334 N330 1.332 . S
C334 C333 1.382 . S
C334 H336 0.952 . S
C335 N330 1.332 . S
C335 C331 1.382 . S
C335 H337 0.948 . S
H336 C334 0.952 . S
H337 C335 0.948 . S
H338 C327 0.952 . S
H339 C329 0.948 . S
C340 C306 1.409 . S
C340 C310 1.377 1_565 S
C341 C303 1.389 . S
C341 C323 1.392 . S
C342 C313 1.392 . S
C342 C315 1.389 . S
C343 C318 1.395 . S
C343 C320 1.391 1_545 S
H344 C304 0.951 . S
H345 C305 0.950 . S
H346 C311 0.949 . S
H347 C312 0.950 . S
H348 C316 0.951 . S
H349 C317 0.950 . S
H350 C321 0.949 . S
H351 C322 0.950 . S
H352 C326 0.950 . S
H353 C328 0.950 . S
H354 C331 0.950 . S
H355 C333 0.950 . S
C356 C357 1.443 . S
C356 N360 1.376 . S
C356 C394 1.389 . S
C357 C356 1.443 . S
C357 C358 1.340 . S
C357 H397 0.951 . S
C358 C357 1.340 . S
C358 C359 1.439 . S
C358 H398 0.950 . S
C359 C358 1.439 . S
C359 N360 1.374 . S
C359 C393 1.395 1_554 S
N360 C356 1.376 . S
N360 C359 1.374 . S
N360 Co361 2.021 . S
Co361 N360 2.021 . S
Co361 N362 1.980 1_554 S
Co361 N367 1.996 1_554 S
Co361 N372 2.010 . S
Co361 N377 2.304 . S
Co361 N383 2.261 1_554 S
N362 Co361 1.980 1_556 S
N362 C363 1.376 . S
N362 C366 1.383 . S
C363 N362 1.376 . S
C363 C364 1.446 . S
C363 C393 1.391 . S
C364 C363 1.446 . S
C364 C365 1.339 . S
C364 H399 0.949 . S
C365 C364 1.339 . S
C365 C366 1.439 . S
C365 H400 0.950 . S
C366 N362 1.383 . S
C366 C365 1.439 . S
C366 C395 1.392 . S
N367 Co361 1.996 1_556 S
N367 C368 1.376 . S
N367 C371 1.374 . S
C368 N367 1.376 . S
C368 C369 1.443 . S
C368 C395 1.389 . S
C369 C368 1.443 . S
C369 C370 1.340 . S
C369 H401 0.951 . S
C370 C369 1.340 . S
C370 C371 1.439 . S
C370 H402 0.950 . S
C371 N367 1.374 . S
C371 C370 1.439 . S
C371 C396 1.395 1_556 S
N372 Co361 2.010 . S
N372 C373 1.376 . S
N372 C376 1.383 . S
C373 N372 1.376 . S
C373 C374 1.446 . S
C373 C396 1.391 . S
C374 C373 1.446 . S
C374 C375 1.339 . S
C374 H403 0.949 . S
C375 C374 1.339 . S
C375 C376 1.439 . S
C375 H404 0.950 . S
C376 N372 1.383 . S
C376 C375 1.439 . S
C376 C394 1.392 . S
N377 Co361 2.304 . S
N377 C380 1.332 . S
N377 C382 1.332 . S
C378 C379 1.386 . S
C378 C381 1.388 . S
C379 C378 1.386 . S
C379 C380 1.382 . S
C379 H405 0.950 . S
C380 N377 1.332 . S
C380 C379 1.382 . S
C380 H391 0.952 . S
C381 C378 1.388 . S
C381 C382 1.382 . S
C381 H406 0.950 . S
C382 N377 1.332 . S
C382 C381 1.382 . S
C382 H392 0.948 . S
N383 Co361 2.261 1_556 S
N383 C387 1.332 . S
N383 C388 1.332 . S
C384 C385 1.388 . S
C384 C388 1.382 . S
C384 H407 0.950 . S
C385 C384 1.388 . S
C385 C386 1.386 . S
C386 C385 1.386 . S
C386 C387 1.382 . S
C386 H408 0.950 . S
C387 N383 1.332 . S
C387 C386 1.382 . S
C387 H389 0.952 . S
C388 N383 1.332 . S
C388 C384 1.382 . S
C388 H390 0.948 . S
H389 C387 0.952 . S
H390 C388 0.948 . S
H391 C380 0.952 . S
H392 C382 0.948 . S
C393 C359 1.395 1_556 S
C393 C363 1.391 . S
C394 C356 1.389 . S
C394 C376 1.392 . S
C395 C366 1.392 . S
C395 C368 1.389 . S
C396 C371 1.395 1_554 S
C396 C373 1.391 . S
H397 C357 0.951 . S
H398 C358 0.950 . S
H399 C364 0.949 . S
H400 C365 0.950 . S
H401 C369 0.951 . S
H402 C370 0.950 . S
H403 C374 0.949 . S
H404 C375 0.950 . S
H405 C379 0.950 . S
H406 C381 0.950 . S
H407 C384 0.950 . S
H408 C386 0.950 . S
C409 C410 1.443 . S
C409 N413 1.376 . S
C409 C447 1.389 . S
C410 C409 1.443 . S
C410 C411 1.340 . S
C410 H450 0.951 . S
C411 C410 1.340 . S
C411 C412 1.439 . S
C411 H451 0.950 . S
C412 C411 1.439 . S
C412 N413 1.374 . S
C412 C446 1.395 . S
N413 C409 1.376 . S
N413 C412 1.374 . S
N413 Co414 2.008 . S
Co414 N413 2.008 . S
Co414 N415 1.995 1_554 S
Co414 N420 2.008 . S
Co414 N425 1.995 . S
Co414 N430 2.282 . S
Co414 N436 2.282 1_554 S
N415 Co414 1.995 1_556 S
N415 C416 1.376 . S
N415 C419 1.383 . S
C416 N415 1.376 . S
C416 C417 1.446 . S
C416 C446 1.391 1_556 S
C417 C416 1.446 . S
C417 C418 1.339 . S
C417 H452 0.949 . S
C418 C417 1.339 . S
C418 C419 1.439 . S
C418 H453 0.950 . S
C419 N415 1.383 . S
C419 C418 1.439 . S
C419 C448 1.392 . S
N420 Co414 2.008 . S
N420 C421 1.376 1_554 S
N420 C424 1.374 . S
C421 N420 1.376 1_556 S
C421 C422 1.443 . S
C421 C448 1.389 . S
C422 C421 1.443 . S
C422 C423 1.340 1_556 S
C422 H454 0.951 . S
C423 C422 1.340 1_554 S
C423 C424 1.439 . S
C423 H455 0.950 . S
C424 N420 1.374 . S
C424 C423 1.439 . S
C424 C449 1.395 . S
N425 Co414 1.995 . S
N425 C426 1.376 . S
N425 C429 1.383 . S
C426 N425 1.376 . S
C426 C427 1.446 . S
C426 C449 1.391 . S
C427 C426 1.446 . S
C427 C428 1.339 . S
C427 H456 0.949 . S
C428 C427 1.339 . S
C428 C429 1.439 . S
C428 H457 0.950 . S
C429 N425 1.383 . S
C429 C428 1.439 . S
C429 C447 1.392 . S
N430 Co414 2.282 . S
N430 C433 1.332 . S
N430 C435 1.332 . S
C431 C432 1.386 . S
C431 C434 1.388 . S
C432 C431 1.386 . S
C432 C433 1.382 . S
C432 H458 0.950 . S
C433 N430 1.332 . S
C433 C432 1.382 . S
C433 H444 0.952 . S
C434 C431 1.388 . S
C434 C435 1.382 . S
C434 H459 0.950 . S
C435 N430 1.332 . S
C435 C434 1.382 . S
C435 H445 0.948 . S
N436 Co414 2.282 1_556 S
N436 C440 1.332 . S
N436 C441 1.332 . S
C437 C438 1.388 . S
C437 C441 1.382 . S
C437 H460 0.950 . S
C438 C437 1.388 . S
C438 C439 1.386 . S
C439 C438 1.386 . S
C439 C440 1.382 . S
C439 H461 0.950 . S
C440 N436 1.332 . S
C440 C439 1.382 . S
C440 H442 0.952 . S
C441 N436 1.332 . S
C441 C437 1.382 . S
C441 H443 0.948 . S
H442 C440 0.952 . S
H443 C441 0.948 . S
H444 C433 0.952 . S
H445 C435 0.948 . S
C446 C412 1.395 . S
C446 C416 1.391 1_554 S
C447 C409 1.389 . S
C447 C429 1.392 . S
C448 C419 1.392 . S
C448 C421 1.389 . S
C449 C424 1.395 . S
C449 C426 1.391 . S
H450 C410 0.951 . S
H451 C411 0.950 . S
H452 C417 0.949 . S
H453 C418 0.950 . S
H454 C422 0.951 . S
H455 C423 0.950 . S
H456 C427 0.949 . S
H457 C428 0.950 . S
H458 C432 0.950 . S
H459 C434 0.950 . S
H460 C437 0.950 . S
H461 C439 0.950 . S
C462 C463 1.443 . S
C462 N466 1.376 1_556 S
C462 C500 1.389 . S
C463 C462 1.443 . S
C463 C464 1.340 1_556 S
C463 H503 0.951 . S
C464 C463 1.340 1_554 S
C464 C465 1.439 . S
C464 H504 0.950 . S
C465 C464 1.439 . S
C465 N466 1.374 . S
C465 C499 1.395 . S
N466 C462 1.376 1_554 S
N466 C465 1.374 . S
N466 Co467 2.008 . S
Co467 N466 2.008 . S
Co467 N468 1.995 . S
Co467 N473 2.008 . S
Co467 N478 1.995 . S
Co467 N483 2.282 1_554 S
Co467 N489 2.282 . S
N468 Co467 1.995 . S
N468 C469 1.376 . S
N468 C472 1.383 . S
C469 N468 1.376 . S
C469 C470 1.446 . S
C469 C499 1.391 . S
C470 C469 1.446 . S
C470 C471 1.339 . S
C470 H505 0.949 . S
C471 C470 1.339 . S
C471 C472 1.439 . S
C471 H506 0.950 . S
C472 N468 1.383 . S
C472 C471 1.439 . S
C472 C501 1.392 . S
N473 Co467 2.008 . S
N473 C474 1.376 . S
N473 C477 1.374 . S
C474 N473 1.376 . S
C474 C475 1.443 . S
C474 C501 1.389 . S
C475 C474 1.443 . S
C475 C476 1.340 . S
C475 H507 0.951 . S
C476 C475 1.340 . S
C476 C477 1.439 . S
C476 H508 0.950 . S
C477 N473 1.374 . S
C477 C476 1.439 . S
C477 C502 1.395 . S
N478 Co467 1.995 . S
N478 C479 1.376 . S
N478 C482 1.383 1_554 S
C479 N478 1.376 . S
C479 C480 1.446 1_554 S
C479 C502 1.391 . S
C480 C479 1.446 1_556 S
C480 C481 1.339 . S
C480 H509 0.949 . S
C481 C480 1.339 . S
C481 C482 1.439 . S
C481 H510 0.950 . S
C482 N478 1.383 1_556 S
C482 C481 1.439 . S
C482 C500 1.392 . S
N483 Co467 2.282 1_556 S
N483 C486 1.332 . S
N483 C488 1.332 . S
C484 C485 1.386 . S
C484 C487 1.388 . S
C485 C484 1.386 . S
C485 C486 1.382 . S
C485 H511 0.950 . S
C486 N483 1.332 . S
C486 C485 1.382 . S
C486 H497 0.952 . S
C487 C484 1.388 . S
C487 C488 1.382 . S
C487 H512 0.950 . S
C488 N483 1.332 . S
C488 C487 1.382 . S
C488 H498 0.948 1_556 S
N489 Co467 2.282 . S
N489 C493 1.332 . S
N489 C494 1.332 . S
C490 C491 1.388 . S
C490 C494 1.382 . S
C490 H513 0.950 . S
C491 C490 1.388 . S
C491 C492 1.386 . S
C492 C491 1.386 . S
C492 C493 1.382 . S
C492 H514 0.950 . S
C493 N489 1.332 . S
C493 C492 1.382 . S
C493 H495 0.952 . S
C494 N489 1.332 . S
C494 C490 1.382 . S
C494 H496 0.948 . S
H495 C493 0.952 . S
H496 C494 0.948 . S
H497 C486 0.952 . S
H498 C488 0.948 1_554 S
C499 C465 1.395 . S
C499 C469 1.391 . S
C500 C462 1.389 . S
C500 C482 1.392 . S
C501 C472 1.392 . S
C501 C474 1.389 . S
C502 C477 1.395 . S
C502 C479 1.391 . S
H503 C463 0.951 . S
H504 C464 0.950 . S
H505 C470 0.949 . S
H506 C471 0.950 . S
H507 C475 0.951 . S
H508 C476 0.950 . S
H509 C480 0.949 . S
H510 C481 0.950 . S
H511 C485 0.950 . S
H512 C487 0.950 . S
H513 C490 0.950 . S
H514 C492 0.950 . S
C515 C516 1.443 . S
C515 N519 1.376 . S
C515 C553 1.389 . S
C516 C515 1.443 . S
C516 C517 1.340 . S
C516 H556 0.951 . S
C517 C516 1.340 . S
C517 C518 1.439 . S
C517 H557 0.950 . S
C518 C517 1.439 . S
C518 N519 1.374 . S
C518 C552 1.395 1_554 S
N519 C515 1.376 . S
N519 C518 1.374 . S
N519 Co520 2.008 . S
Co520 N519 2.008 . S
Co520 N521 1.995 1_554 S
Co520 N526 2.008 1_554 S
Co520 N531 1.995 . S
Co520 N536 2.282 . S
Co520 N542 2.282 1_554 S
N521 Co520 1.995 1_556 S
N521 C522 1.376 . S
N521 C525 1.383 . S
C522 N521 1.376 . S
C522 C523 1.446 . S
C522 C552 1.391 . S
C523 C522 1.446 . S
C523 C524 1.339 . S
C523 H558 0.949 . S
C524 C523 1.339 . S
C524 C525 1.439 . S
C524 H559 0.950 . S
C525 N521 1.383 . S
C525 C524 1.439 . S
C525 C554 1.392 . S
N526 Co520 2.008 1_556 S
N526 C527 1.376 . S
N526 C530 1.374 1_556 S
C527 N526 1.376 . S
C527 C528 1.443 . S
C527 C554 1.389 . S
C528 C527 1.443 . S
C528 C529 1.340 . S
C528 H560 0.951 . S
C529 C528 1.340 . S
C529 C530 1.439 1_556 S
C529 H561 0.950 . S
C530 N526 1.374 1_554 S
C530 C529 1.439 1_554 S
C530 C555 1.395 . S
N531 Co520 1.995 . S
N531 C532 1.376 . S
N531 C535 1.383 . S
C532 N531 1.376 . S
C532 C533 1.446 . S
C532 C555 1.391 . S
C533 C532 1.446 . S
C533 C534 1.339 . S
C533 H562 0.949 . S
C534 C533 1.339 . S
C534 C535 1.439 . S
C534 H563 0.950 . S
C535 N531 1.383 . S
C535 C534 1.439 . S
C535 C553 1.392 . S
N536 Co520 2.282 . S
N536 C539 1.332 . S
N536 C541 1.332 . S
C537 C538 1.386 . S
C537 C540 1.388 . S
C538 C537 1.386 . S
C538 C539 1.382 . S
C538 H564 0.950 . S
C539 N536 1.332 . S
C539 C538 1.382 . S
C539 H550 0.952 . S
C540 C537 1.388 . S
C540 C541 1.382 . S
C540 H565 0.950 . S
C541 N536 1.332 . S
C541 C540 1.382 . S
C541 H551 0.948 . S
N542 Co520 2.282 1_556 S
N542 C546 1.332 . S
N542 C547 1.332 . S
C543 C544 1.388 . S
C543 C547 1.382 . S
C543 H566 0.950 . S
C544 C543 1.388 . S
C544 C545 1.386 . S
C545 C544 1.386 . S
C545 C546 1.382 . S
C545 H567 0.950 . S
C546 N542 1.332 . S
C546 C545 1.382 . S
C546 H548 0.952 . S
C547 N542 1.332 . S
C547 C543 1.382 . S
C547 H549 0.948 . S
H548 C546 0.952 . S
H549 C547 0.948 . S
H550 C539 0.952 . S
H551 C541 0.948 . S
C552 C518 1.395 1_556 S
C552 C522 1.391 . S
C553 C515 1.389 . S
C553 C535 1.392 . S
C554 C525 1.392 . S
C554 C527 1.389 . S
C555 C530 1.395 . S
C555 C532 1.391 . S
H556 C516 0.951 . S
H557 C517 0.950 . S
H558 C523 0.949 . S
H559 C524 0.950 . S
H560 C528 0.951 . S
H561 C529 0.950 . S
H562 C533 0.949 . S
H563 C534 0.950 . S
H564 C538 0.950 . S
H565 C540 0.950 . S
H566 C543 0.950 . S
H567 C545 0.950 . S
H568 C580 0.930 . S
H569 C582 0.930 . S
H570 C583 0.930 . S
H571 C587 0.959 . S
H572 C587 0.959 . S
H573 C587 0.961 . S
H574 C588 0.960 . S
H575 C588 0.961 . S
H576 C588 0.959 . S
H577 C591 0.929 . S
H578 C592 0.931 . S
H579 C594 0.930 . S
C580 H568 0.930 . S
C580 C581 1.399 . S
C580 C585 1.399 . S
C581 C580 1.399 . S
C581 C582 1.376 . S
C582 H569 0.930 . S
C582 C581 1.376 . S
C582 C583 1.388 . S
C583 H570 0.930 . S
C583 C582 1.388 . S
C583 C584 1.390 . S
C584 C583 1.390 . S
C584 C585 1.394 . S
C584 C590 1.465 . S
C585 C580 1.399 . S
C585 C584 1.394 . S
C585 C586 1.516 . S
C586 C585 1.516 . S
C586 C587 1.502 . S
C586 C588 1.561 . S
C586 C589 1.526 . S
C587 H571 0.959 . S
C587 H572 0.959 . S
C587 H573 0.961 . S
C587 C586 1.502 . S
C588 H574 0.960 . S
C588 H575 0.961 . S
C588 H576 0.959 . S
C588 C586 1.561 . S
C589 C586 1.526 . S
C589 C590 1.396 . S
C589 C594 1.390 . S
C590 C584 1.465 . S
C590 C589 1.396 . S
C590 C591 1.399 . S
C591 H577 0.929 . S
C591 C590 1.399 . S
C591 C592 1.385 . S
C592 H578 0.931 . S
C592 C591 1.385 . S
C592 C593 1.389 . S
C593 C592 1.389 . S
C593 C594 1.387 . S
C594 H579 0.930 . S
C594 C589 1.390 . S
C594 C593 1.387 . S
H595 C607 0.930 . S
H596 C609 0.930 . S
H597 C610 0.930 . S
H598 C614 0.959 . S
H599 C614 0.959 . S
H600 C614 0.961 . S
H601 C615 0.960 . S
H602 C615 0.961 . S
H603 C615 0.959 . S
H604 C618 0.929 . S
H605 C619 0.931 . S
H606 C621 0.930 . S
C607 H595 0.930 . S
C607 C608 1.399 . S
C607 C612 1.399 . S
C608 C607 1.399 . S
C608 C609 1.376 . S
C609 H596 0.930 . S
C609 C608 1.376 . S
C609 C610 1.388 . S
C610 H597 0.930 . S
C610 C609 1.388 . S
C610 C611 1.390 . S
C611 C610 1.390 . S
C611 C612 1.394 . S
C611 C617 1.465 . S
C612 C607 1.399 . S
C612 C611 1.394 . S
C612 C613 1.516 . S
C613 C612 1.516 . S
C613 C614 1.502 . S
C613 C615 1.561 . S
C613 C616 1.526 . S
C614 H598 0.959 . S
C614 H599 0.959 . S
C614 H600 0.961 . S
C614 C613 1.502 . S
C615 H601 0.960 . S
C615 H602 0.961 . S
C615 H603 0.959 . S
C615 C613 1.561 . S
C616 C613 1.526 . S
C616 C617 1.396 . S
C616 C621 1.390 . S
C617 C611 1.465 . S
C617 C616 1.396 . S
C617 C618 1.399 . S
C618 H604 0.929 . S
C618 C617 1.399 . S
C618 C619 1.385 . S
C619 H605 0.931 . S
C619 C618 1.385 . S
C619 C620 1.389 . S
C620 C619 1.389 . S
C620 C621 1.387 . S
C621 H606 0.930 . S
C621 C616 1.390 . S
C621 C620 1.387 . S
H622 C634 0.930 . S
H623 C636 0.930 . S
H624 C637 0.930 . S
H625 C641 0.959 . S
H626 C641 0.959 . S
H627 C641 0.961 . S
H628 C642 0.960 . S
H629 C642 0.961 . S
H630 C642 0.959 . S
H631 C645 0.929 . S
H632 C646 0.931 . S
H633 C648 0.930 . S
C634 H622 0.930 . S
C634 C635 1.399 . S
C634 C639 1.399 . S
C635 C634 1.399 . S
C635 C636 1.376 . S
C636 H623 0.930 . S
C636 C635 1.376 . S
C636 C637 1.388 . S
C637 H624 0.930 . S
C637 C636 1.388 . S
C637 C638 1.390 . S
C638 C637 1.390 . S
C638 C639 1.394 . S
C638 C644 1.465 . S
C639 C634 1.399 . S
C639 C638 1.394 . S
C639 C640 1.516 . S
C640 C639 1.516 . S
C640 C641 1.502 . S
C640 C642 1.561 . S
C640 C643 1.526 . S
C641 H625 0.959 . S
C641 H626 0.959 . S
C641 H627 0.961 . S
C641 C640 1.502 . S
C642 H628 0.960 . S
C642 H629 0.961 . S
C642 H630 0.959 . S
C642 C640 1.561 . S
C643 C640 1.526 . S
C643 C644 1.396 . S
C643 C648 1.390 . S
C644 C638 1.465 . S
C644 C643 1.396 . S
C644 C645 1.399 . S
C645 H631 0.929 . S
C645 C644 1.399 . S
C645 C646 1.385 . S
C646 H632 0.931 . S
C646 C645 1.385 . S
C646 C647 1.389 . S
C647 C646 1.389 . S
C647 C648 1.387 . S
C648 H633 0.930 . S
C648 C643 1.390 . S
C648 C647 1.387 . S
H649 C661 0.930 . S
H650 C663 0.930 . S
H651 C664 0.930 . S
H652 C668 0.959 . S
H653 C668 0.959 . S
H654 C668 0.961 . S
H655 C669 0.960 . S
H656 C669 0.961 . S
H657 C669 0.959 . S
H658 C672 0.929 . S
H659 C673 0.931 . S
H660 C675 0.930 . S
C661 H649 0.930 . S
C661 C662 1.399 . S
C661 C666 1.399 . S
C662 C661 1.399 . S
C662 C663 1.376 . S
C663 H650 0.930 . S
C663 C662 1.376 . S
C663 C664 1.388 . S
C664 H651 0.930 . S
C664 C663 1.388 . S
C664 C665 1.390 . S
C665 C664 1.390 . S
C665 C666 1.394 . S
C665 C671 1.465 . S
C666 C661 1.399 . S
C666 C665 1.394 . S
C666 C667 1.516 . S
C667 C666 1.516 . S
C667 C668 1.502 . S
C667 C669 1.561 . S
C667 C670 1.526 . S
C668 H652 0.959 . S
C668 H653 0.959 . S
C668 H654 0.961 . S
C668 C667 1.502 . S
C669 H655 0.960 . S
C669 H656 0.961 . S
C669 H657 0.959 . S
C669 C667 1.561 . S
C670 C667 1.526 . S
C670 C671 1.396 . S
C670 C675 1.390 . S
C671 C665 1.465 . S
C671 C670 1.396 . S
C671 C672 1.399 . S
C672 H658 0.929 . S
C672 C671 1.399 . S
C672 C673 1.385 . S
C673 H659 0.931 . S
C673 C672 1.385 . S
C673 C674 1.389 . S
C674 C673 1.389 . S
C674 C675 1.387 . S
C675 H660 0.930 . S
C675 C670 1.390 . S
C675 C674 1.387 . S
H676 C688 0.930 . S
H677 C690 0.930 . S
H678 C691 0.930 . S
H679 C695 0.959 . S
H680 C695 0.959 . S
H681 C695 0.961 . S
H682 C696 0.960 . S
H683 C696 0.961 . S
H684 C696 0.959 . S
H685 C699 0.929 . S
H686 C700 0.931 . S
H687 C702 0.930 . S
C688 H676 0.930 . S
C688 C689 1.399 . S
C688 C693 1.399 . S
C689 C688 1.399 . S
C689 C690 1.376 . S
C690 H677 0.930 . S
C690 C689 1.376 . S
C690 C691 1.388 . S
C691 H678 0.930 . S
C691 C690 1.388 . S
C691 C692 1.390 . S
C692 C691 1.390 . S
C692 C693 1.394 . S
C692 C698 1.465 . S
C693 C688 1.399 . S
C693 C692 1.394 . S
C693 C694 1.516 . S
C694 C693 1.516 . S
C694 C695 1.502 . S
C694 C696 1.561 . S
C694 C697 1.526 . S
C695 H679 0.959 . S
C695 H680 0.959 . S
C695 H681 0.961 . S
C695 C694 1.502 . S
C696 H682 0.960 . S
C696 H683 0.961 . S
C696 H684 0.959 . S
C696 C694 1.561 . S
C697 C694 1.526 . S
C697 C698 1.396 . S
C697 C702 1.390 . S
C698 C692 1.465 . S
C698 C697 1.396 . S
C698 C699 1.399 . S
C699 H685 0.929 . S
C699 C698 1.399 . S
C699 C700 1.385 . S
C700 H686 0.931 . S
C700 C699 1.385 . S
C700 C701 1.389 . S
C701 C700 1.389 . S
C701 C702 1.387 . S
C702 H687 0.930 . S
C702 C697 1.390 . S
C702 C701 1.387 . S
H703 C715 0.930 . S
H704 C717 0.930 . S
H705 C718 0.930 . S
H706 C722 0.959 . S
H707 C722 0.959 . S
H708 C722 0.961 . S
H709 C723 0.960 . S
H710 C723 0.961 . S
H711 C723 0.959 . S
H712 C726 0.929 . S
H713 C727 0.931 . S
H714 C729 0.930 . S
C715 H703 0.930 . S
C715 C716 1.399 . S
C715 C720 1.399 . S
C716 C715 1.399 . S
C716 C717 1.376 . S
C717 H704 0.930 . S
C717 C716 1.376 . S
C717 C718 1.388 . S
C718 H705 0.930 . S
C718 C717 1.388 . S
C718 C719 1.390 . S
C719 C718 1.390 . S
C719 C720 1.394 . S
C719 C725 1.465 . S
C720 C715 1.399 . S
C720 C719 1.394 . S
C720 C721 1.516 . S
C721 C720 1.516 . S
C721 C722 1.502 . S
C721 C723 1.561 . S
C721 C724 1.526 . S
C722 H706 0.959 . S
C722 H707 0.959 . S
C722 H708 0.961 . S
C722 C721 1.502 . S
C723 H709 0.960 . S
C723 H710 0.961 . S
C723 H711 0.959 . S
C723 C721 1.561 . S
C724 C721 1.526 . S
C724 C725 1.396 . S
C724 C729 1.390 . S
C725 C719 1.465 . S
C725 C724 1.396 . S
C725 C726 1.399 . S
C726 H712 0.929 . S
C726 C725 1.399 . S
C726 C727 1.385 . S
C727 H713 0.931 . S
C727 C726 1.385 . S
C727 C728 1.389 . S
C728 C727 1.389 . S
C728 C729 1.387 . S
C729 H714 0.930 . S
C729 C724 1.390 . S
C729 C728 1.387 . S
H730 C742 0.930 . S
H731 C744 0.930 . S
H732 C745 0.930 . S
H733 C749 0.959 . S
H734 C749 0.959 . S
H735 C749 0.961 . S
H736 C750 0.960 . S
H737 C750 0.961 . S
H738 C750 0.959 . S
H739 C753 0.929 . S
H740 C754 0.931 . S
H741 C756 0.930 . S
C742 H730 0.930 . S
C742 C743 1.399 . S
C742 C747 1.399 . S
C743 C742 1.399 . S
C743 C744 1.376 . S
C744 H731 0.930 . S
C744 C743 1.376 . S
C744 C745 1.388 . S
C745 H732 0.930 . S
C745 C744 1.388 . S
C745 C746 1.390 . S
C746 C745 1.390 . S
C746 C747 1.394 . S
C746 C752 1.465 . S
C747 C742 1.399 . S
C747 C746 1.394 . S
C747 C748 1.516 . S
C748 C747 1.516 . S
C748 C749 1.502 . S
C748 C750 1.561 . S
C748 C751 1.526 . S
C749 H733 0.959 . S
C749 H734 0.959 . S
C749 H735 0.961 . S
C749 C748 1.502 . S
C750 H736 0.960 . S
C750 H737 0.961 . S
C750 H738 0.959 . S
C750 C748 1.561 . S
C751 C748 1.526 . S
C751 C752 1.396 . S
C751 C756 1.390 . S
C752 C746 1.465 . S
C752 C751 1.396 . S
C752 C753 1.399 . S
C753 H739 0.929 . S
C753 C752 1.399 . S
C753 C754 1.385 . S
C754 H740 0.931 . S
C754 C753 1.385 . S
C754 C755 1.389 . S
C755 C754 1.389 . S
C755 C756 1.387 . S
C756 H741 0.930 . S
C756 C751 1.390 . S
C756 C755 1.387 . S
H757 C769 0.930 . S
H758 C771 0.930 . S
H759 C772 0.930 . S
H760 C776 0.959 . S
H761 C776 0.959 . S
H762 C776 0.961 . S
H763 C777 0.960 . S
H764 C777 0.961 . S
H765 C777 0.959 . S
H766 C780 0.929 . S
H767 C781 0.931 . S
H768 C783 0.930 . S
C769 H757 0.930 . S
C769 C770 1.399 . S
C769 C774 1.399 . S
C770 C769 1.399 . S
C770 C771 1.376 . S
C771 H758 0.930 . S
C771 C770 1.376 . S
C771 C772 1.388 . S
C772 H759 0.930 . S
C772 C771 1.388 . S
C772 C773 1.390 . S
C773 C772 1.390 . S
C773 C774 1.394 . S
C773 C779 1.465 . S
C774 C769 1.399 . S
C774 C773 1.394 . S
C774 C775 1.516 . S
C775 C774 1.516 . S
C775 C776 1.502 . S
C775 C777 1.561 . S
C775 C778 1.526 . S
C776 H760 0.959 . S
C776 H761 0.959 . S
C776 H762 0.961 . S
C776 C775 1.502 . S
C777 H763 0.960 . S
C777 H764 0.961 . S
C777 H765 0.959 . S
C777 C775 1.561 . S
C778 C775 1.526 . S
C778 C779 1.396 . S
C778 C783 1.390 . S
C779 C773 1.465 . S
C779 C778 1.396 . S
C779 C780 1.399 . S
C780 H766 0.929 . S
C780 C779 1.399 . S
C780 C781 1.385 . S
C781 H767 0.931 . S
C781 C780 1.385 . S
C781 C782 1.389 . S
C782 C781 1.389 . S
C782 C783 1.387 . S
C783 H768 0.930 . S
C783 C778 1.390 . S
C783 C782 1.387 . S
H784 C796 0.930 . S
H785 C798 0.930 . S
H786 C799 0.930 . S
H787 C803 0.959 . S
H788 C803 0.959 . S
H789 C803 0.961 . S
H790 C804 0.960 . S
H791 C804 0.961 . S
H792 C804 0.959 . S
H793 C807 0.929 . S
H794 C808 0.931 . S
H795 C810 0.930 . S
C796 H784 0.930 . S
C796 C797 1.399 . S
C796 C801 1.399 . S
C797 C796 1.399 . S
C797 C798 1.376 . S
C798 H785 0.930 . S
C798 C797 1.376 . S
C798 C799 1.388 . S
C799 H786 0.930 . S
C799 C798 1.388 . S
C799 C800 1.390 . S
C800 C799 1.390 . S
C800 C801 1.394 . S
C800 C806 1.465 . S
C801 C796 1.399 . S
C801 C800 1.394 . S
C801 C802 1.516 . S
C802 C801 1.516 . S
C802 C803 1.502 . S
C802 C804 1.561 . S
C802 C805 1.526 . S
C803 H787 0.959 . S
C803 H788 0.959 . S
C803 H789 0.961 . S
C803 C802 1.502 . S
C804 H790 0.960 . S
C804 H791 0.961 . S
C804 H792 0.959 . S
C804 C802 1.561 . S
C805 C802 1.526 . S
C805 C806 1.396 . S
C805 C810 1.390 . S
C806 C800 1.465 . S
C806 C805 1.396 . S
C806 C807 1.399 . S
C807 H793 0.929 . S
C807 C806 1.399 . S
C807 C808 1.385 . S
C808 H794 0.931 . S
C808 C807 1.385 . S
C808 C809 1.389 . S
C809 C808 1.389 . S
C809 C810 1.387 . S
C810 H795 0.930 . S
C810 C805 1.390 . S
C810 C809 1.387 . S
H811 C823 0.930 . S
H812 C825 0.930 . S
H813 C826 0.930 . S
H814 C830 0.959 . S
H815 C830 0.959 . S
H816 C830 0.961 . S
H817 C831 0.960 . S
H818 C831 0.961 . S
H819 C831 0.959 . S
H820 C834 0.929 . S
H821 C835 0.931 . S
H822 C837 0.930 . S
C823 H811 0.930 . S
C823 C824 1.399 . S
C823 C828 1.399 . S
C824 C823 1.399 . S
C824 C825 1.376 . S
C825 H812 0.930 . S
C825 C824 1.376 . S
C825 C826 1.388 . S
C826 H813 0.930 . S
C826 C825 1.388 . S
C826 C827 1.390 . S
C827 C826 1.390 . S
C827 C828 1.394 . S
C827 C833 1.465 . S
C828 C823 1.399 . S
C828 C827 1.394 . S
C828 C829 1.516 . S
C829 C828 1.516 . S
C829 C830 1.502 . S
C829 C831 1.561 . S
C829 C832 1.526 . S
C830 H814 0.959 . S
C830 H815 0.959 . S
C830 H816 0.961 . S
C830 C829 1.502 . S
C831 H817 0.960 . S
C831 H818 0.961 . S
C831 H819 0.959 . S
C831 C829 1.561 . S
C832 C829 1.526 . S
C832 C833 1.396 . S
C832 C837 1.390 . S
C833 C827 1.465 . S
C833 C832 1.396 . S
C833 C834 1.399 . S
C834 H820 0.929 . S
C834 C833 1.399 . S
C834 C835 1.385 . S
C835 H821 0.931 . S
C835 C834 1.385 . S
C835 C836 1.389 . S
C836 C835 1.389 . S
C836 C837 1.387 . S
C837 H822 0.930 . S
C837 C832 1.390 . S
C837 C836 1.387 . S
H838 C850 0.930 . S
H839 C852 0.930 . S
H840 C853 0.930 . S
H841 C857 0.959 . S
H842 C857 0.959 . S
H843 C857 0.961 . S
H844 C858 0.960 . S
H845 C858 0.961 . S
H846 C858 0.959 . S
H847 C861 0.929 . S
H848 C862 0.931 . S
H849 C864 0.930 . S
C850 H838 0.930 . S
C850 C851 1.399 . S
C850 C855 1.399 . S
C851 C850 1.399 . S
C851 C852 1.376 . S
C852 H839 0.930 . S
C852 C851 1.376 . S
C852 C853 1.388 . S
C853 H840 0.930 . S
C853 C852 1.388 . S
C853 C854 1.390 . S
C854 C853 1.390 . S
C854 C855 1.394 . S
C854 C860 1.465 . S
C855 C850 1.399 . S
C855 C854 1.394 . S
C855 C856 1.516 . S
C856 C855 1.516 . S
C856 C857 1.502 . S
C856 C858 1.561 . S
C856 C859 1.526 . S
C857 H841 0.959 . S
C857 H842 0.959 . S
C857 H843 0.961 . S
C857 C856 1.502 . S
C858 H844 0.960 . S
C858 H845 0.961 . S
C858 H846 0.959 . S
C858 C856 1.561 . S
C859 C856 1.526 . S
C859 C860 1.396 . S
C859 C864 1.390 . S
C860 C854 1.465 . S
C860 C859 1.396 . S
C860 C861 1.399 . S
C861 H847 0.929 . S
C861 C860 1.399 . S
C861 C862 1.385 . S
C862 H848 0.931 . S
C862 C861 1.385 . S
C862 C863 1.389 . S
C863 C862 1.389 . S
C863 C864 1.387 . S
C864 H849 0.930 . S
C864 C859 1.390 . S
C864 C863 1.387 . S
H865 C877 0.930 . S
H866 C879 0.930 . S
H867 C880 0.930 . S
H868 C884 0.959 . S
H869 C884 0.959 . S
H870 C884 0.961 . S
H871 C885 0.960 . S
H872 C885 0.961 . S
H873 C885 0.959 . S
H874 C888 0.929 . S
H875 C889 0.931 . S
H876 C891 0.930 . S
C877 H865 0.930 . S
C877 C878 1.399 . S
C877 C882 1.399 . S
C878 C877 1.399 . S
C878 C879 1.376 . S
C879 H866 0.930 . S
C879 C878 1.376 . S
C879 C880 1.388 . S
C880 H867 0.930 . S
C880 C879 1.388 . S
C880 C881 1.390 . S
C881 C880 1.390 . S
C881 C882 1.394 . S
C881 C887 1.465 . S
C882 C877 1.399 . S
C882 C881 1.394 . S
C882 C883 1.516 . S
C883 C882 1.516 . S
C883 C884 1.502 . S
C883 C885 1.561 . S
C883 C886 1.526 . S
C884 H868 0.959 . S
C884 H869 0.959 . S
C884 H870 0.961 . S
C884 C883 1.502 . S
C885 H871 0.960 . S
C885 H872 0.961 . S
C885 H873 0.959 . S
C885 C883 1.561 . S
C886 C883 1.526 . S
C886 C887 1.396 . S
C886 C891 1.390 . S
C887 C881 1.465 . S
C887 C886 1.396 . S
C887 C888 1.399 . S
C888 H874 0.929 . S
C888 C887 1.399 . S
C888 C889 1.385 . S
C889 H875 0.931 . S
C889 C888 1.385 . S
C889 C890 1.389 . S
C890 C889 1.389 . S
C890 C891 1.387 . S
C891 H876 0.930 . S
C891 C886 1.390 . S
C891 C890 1.387 . S
H892 C904 0.930 . S
H893 C906 0.930 . S
H894 C907 0.930 . S
H895 C911 0.959 . S
H896 C911 0.959 . S
H897 C911 0.961 . S
H898 C912 0.960 . S
H899 C912 0.961 . S
H900 C912 0.959 . S
H901 C915 0.929 . S
H902 C916 0.931 . S
H903 C918 0.930 . S
C904 H892 0.930 . S
C904 C905 1.399 . S
C904 C909 1.399 . S
C905 C904 1.399 . S
C905 C906 1.376 . S
C906 H893 0.930 . S
C906 C905 1.376 . S
C906 C907 1.388 . S
C907 H894 0.930 . S
C907 C906 1.388 . S
C907 C908 1.390 . S
C908 C907 1.390 . S
C908 C909 1.394 . S
C908 C914 1.465 . S
C909 C904 1.399 . S
C909 C908 1.394 . S
C909 C910 1.516 . S
C910 C909 1.516 . S
C910 C911 1.502 . S
C910 C912 1.561 . S
C910 C913 1.526 . S
C911 H895 0.959 . S
C911 H896 0.959 . S
C911 H897 0.961 . S
C911 C910 1.502 . S
C912 H898 0.960 . S
C912 H899 0.961 . S
C912 H900 0.959 . S
C912 C910 1.561 . S
C913 C910 1.526 . S
C913 C914 1.396 . S
C913 C918 1.390 . S
C914 C908 1.465 . S
C914 C913 1.396 . S
C914 C915 1.399 . S
C915 H901 0.929 . S
C915 C914 1.399 . S
C915 C916 1.385 . S
C916 H902 0.931 . S
C916 C915 1.385 . S
C916 C917 1.389 . S
C917 C916 1.389 . S
C917 C918 1.387 . S
C918 H903 0.930 . S
C918 C913 1.390 . S
C918 C917 1.387 . S
H919 C931 0.930 . S
H920 C933 0.930 . S
H921 C934 0.930 . S
H922 C938 0.959 . S
H923 C938 0.959 . S
H924 C938 0.961 . S
H925 C939 0.960 . S
H926 C939 0.961 . S
H927 C939 0.959 . S
H928 C942 0.929 . S
H929 C943 0.931 . S
H930 C945 0.930 . S
C931 H919 0.930 . S
C931 C932 1.399 . S
C931 C936 1.399 . S
C932 C931 1.399 . S
C932 C933 1.376 . S
C933 H920 0.930 . S
C933 C932 1.376 . S
C933 C934 1.388 . S
C934 H921 0.930 . S
C934 C933 1.388 . S
C934 C935 1.390 . S
C935 C934 1.390 . S
C935 C936 1.394 . S
C935 C941 1.465 . S
C936 C931 1.399 . S
C936 C935 1.394 . S
C936 C937 1.516 . S
C937 C936 1.516 . S
C937 C938 1.502 . S
C937 C939 1.561 . S
C937 C940 1.526 . S
C938 H922 0.959 . S
C938 H923 0.959 . S
C938 H924 0.961 . S
C938 C937 1.502 . S
C939 H925 0.960 . S
C939 H926 0.961 . S
C939 H927 0.959 . S
C939 C937 1.561 . S
C940 C937 1.526 . S
C940 C941 1.396 . S
C940 C945 1.390 . S
C941 C935 1.465 . S
C941 C940 1.396 . S
C941 C942 1.399 . S
C942 H928 0.929 . S
C942 C941 1.399 . S
C942 C943 1.385 . S
C943 H929 0.931 . S
C943 C942 1.385 . S
C943 C944 1.389 . S
C944 C943 1.389 . S
C944 C945 1.387 . S
C945 H930 0.930 . S
C945 C940 1.390 . S
C945 C944 1.387 . S
H946 C958 0.930 . S
H947 C960 0.930 . S
H948 C961 0.930 . S
H949 C965 0.959 . S
H950 C965 0.959 . S
H951 C965 0.961 . S
H952 C966 0.960 . S
H953 C966 0.961 . S
H954 C966 0.959 . S
H955 C969 0.929 . S
H956 C970 0.931 . S
H957 C972 0.930 . S
C958 H946 0.930 . S
C958 C959 1.399 . S
C958 C963 1.399 . S
C959 C958 1.399 . S
C959 C960 1.376 . S
C960 H947 0.930 . S
C960 C959 1.376 . S
C960 C961 1.388 . S
C961 H948 0.930 . S
C961 C960 1.388 . S
C961 C962 1.390 . S
C962 C961 1.390 . S
C962 C963 1.394 . S
C962 C968 1.465 . S
C963 C958 1.399 . S
C963 C962 1.394 . S
C963 C964 1.516 . S
C964 C963 1.516 . S
C964 C965 1.502 . S
C964 C966 1.561 . S
C964 C967 1.526 . S
C965 H949 0.959 . S
C965 H950 0.959 . S
C965 H951 0.961 . S
C965 C964 1.502 . S
C966 H952 0.960 . S
C966 H953 0.961 . S
C966 H954 0.959 . S
C966 C964 1.561 . S
C967 C964 1.526 . S
C967 C968 1.396 . S
C967 C972 1.390 . S
C968 C962 1.465 . S
C968 C967 1.396 . S
C968 C969 1.399 . S
C969 H955 0.929 . S
C969 C968 1.399 . S
C969 C970 1.385 . S
C970 H956 0.931 . S
C970 C969 1.385 . S
C970 C971 1.389 . S
C971 C970 1.389 . S
C971 C972 1.387 . S
C972 H957 0.930 . S
C972 C967 1.390 . S
C972 C971 1.387 . S
H973 C985 0.930 . S
H974 C987 0.930 . S
H975 C988 0.930 . S
H976 C992 0.959 . S
H977 C992 0.959 . S
H978 C992 0.961 . S
H979 C993 0.960 . S
H980 C993 0.961 . S
H981 C993 0.959 . S
H982 C996 0.929 . S
H983 C997 0.931 . S
H984 C999 0.930 . S
C985 H973 0.930 . S
C985 C986 1.399 . S
C985 C990 1.399 . S
C986 C985 1.399 . S
C986 C987 1.376 . S
C987 H974 0.930 . S
C987 C986 1.376 . S
C987 C988 1.388 . S
C988 H975 0.930 . S
C988 C987 1.388 . S
C988 C989 1.390 . S
C989 C988 1.390 . S
C989 C990 1.394 . S
C989 C995 1.465 . S
C990 C985 1.399 . S
C990 C989 1.394 . S
C990 C991 1.516 . S
C991 C990 1.516 . S
C991 C992 1.502 . S
C991 C993 1.561 . S
C991 C994 1.526 . S
C992 H976 0.959 . S
C992 H977 0.959 . S
C992 H978 0.961 . S
C992 C991 1.502 . S
C993 H979 0.960 . S
C993 H980 0.961 . S
C993 H981 0.959 . S
C993 C991 1.561 . S
C994 C991 1.526 . S
C994 C995 1.396 . S
C994 C999 1.390 . S
C995 C989 1.465 . S
C995 C994 1.396 . S
C995 C996 1.399 . S
C996 H982 0.929 . S
C996 C995 1.399 . S
C996 C997 1.385 . S
C997 H983 0.931 . S
C997 C996 1.385 . S
C997 C998 1.389 . S
C998 C997 1.389 . S
C998 C999 1.387 . S
C999 H984 0.930 . S
C999 C994 1.390 . S
C999 C998 1.387 . S
H1000 C1012 0.930 . S
H1001 C1014 0.930 . S
H1002 C1015 0.930 . S
H1003 C1019 0.959 . S
H1004 C1019 0.959 . S
H1005 C1019 0.961 . S
H1006 C1020 0.960 . S
H1007 C1020 0.961 . S
H1008 C1020 0.959 . S
H1009 C1023 0.929 . S
H1010 C1024 0.931 . S
H1011 C1026 0.930 . S
C1012 H1000 0.930 . S
C1012 C1013 1.399 . S
C1012 C1017 1.399 . S
C1013 C1012 1.399 . S
C1013 C1014 1.376 . S
C1014 H1001 0.930 . S
C1014 C1013 1.376 . S
C1014 C1015 1.388 . S
C1015 H1002 0.930 . S
C1015 C1014 1.388 . S
C1015 C1016 1.390 . S
C1016 C1015 1.390 . S
C1016 C1017 1.394 . S
C1016 C1022 1.465 . S
C1017 C1012 1.399 . S
C1017 C1016 1.394 . S
C1017 C1018 1.516 . S
C1018 C1017 1.516 . S
C1018 C1019 1.502 . S
C1018 C1020 1.561 . S
C1018 C1021 1.526 . S
C1019 H1003 0.959 . S
C1019 H1004 0.959 . S
C1019 H1005 0.961 . S
C1019 C1018 1.502 . S
C1020 H1006 0.960 . S
C1020 H1007 0.961 . S
C1020 H1008 0.959 . S
C1020 C1018 1.561 . S
C1021 C1018 1.526 . S
C1021 C1022 1.396 . S
C1021 C1026 1.390 . S
C1022 C1016 1.465 . S
C1022 C1021 1.396 . S
C1022 C1023 1.399 . S
C1023 H1009 0.929 . S
C1023 C1022 1.399 . S
C1023 C1024 1.385 . S
C1024 H1010 0.931 . S
C1024 C1023 1.385 . S
C1024 C1025 1.389 . S
C1025 C1024 1.389 . S
C1025 C1026 1.387 . S
C1026 H1011 0.930 . S
C1026 C1021 1.390 . S
C1026 C1025 1.387 . S
H1027 C1039 0.930 . S
H1028 C1041 0.930 . S
H1029 C1042 0.930 . S
H1030 C1046 0.959 . S
H1031 C1046 0.959 . S
H1032 C1046 0.961 . S
H1033 C1047 0.960 . S
H1034 C1047 0.961 . S
H1035 C1047 0.959 . S
H1036 C1050 0.929 . S
H1037 C1051 0.931 . S
H1038 C1053 0.930 . S
C1039 H1027 0.930 . S
C1039 C1040 1.399 . S
C1039 C1044 1.399 . S
C1040 C1039 1.399 . S
C1040 C1041 1.376 . S
C1041 H1028 0.930 . S
C1041 C1040 1.376 . S
C1041 C1042 1.388 . S
C1042 H1029 0.930 . S
C1042 C1041 1.388 . S
C1042 C1043 1.390 . S
C1043 C1042 1.390 . S
C1043 C1044 1.394 . S
C1043 C1049 1.465 . S
C1044 C1039 1.399 . S
C1044 C1043 1.394 . S
C1044 C1045 1.516 . S
C1045 C1044 1.516 . S
C1045 C1046 1.502 . S
C1045 C1047 1.561 . S
C1045 C1048 1.526 . S
C1046 H1030 0.959 . S
C1046 H1031 0.959 . S
C1046 H1032 0.961 . S
C1046 C1045 1.502 . S
C1047 H1033 0.960 . S
C1047 H1034 0.961 . S
C1047 H1035 0.959 . S
C1047 C1045 1.561 . S
C1048 C1045 1.526 . S
C1048 C1049 1.396 . S
C1048 C1053 1.390 . S
C1049 C1043 1.465 . S
C1049 C1048 1.396 . S
C1049 C1050 1.399 . S
C1050 H1036 0.929 . S
C1050 C1049 1.399 . S
C1050 C1051 1.385 . S
C1051 H1037 0.931 . S
C1051 C1050 1.385 . S
C1051 C1052 1.389 . S
C1052 C1051 1.389 . S
C1052 C1053 1.387 . S
C1053 H1038 0.930 . S
C1053 C1048 1.390 . S
C1053 C1052 1.387 . S
H1054 C1066 0.930 . S
H1055 C1068 0.930 . S
H1056 C1069 0.930 . S
H1057 C1073 0.959 . S
H1058 C1073 0.959 . S
H1059 C1073 0.961 . S
H1060 C1074 0.960 . S
H1061 C1074 0.961 . S
H1062 C1074 0.959 . S
H1063 C1077 0.929 . S
H1064 C1078 0.931 . S
H1065 C1080 0.930 . S
C1066 H1054 0.930 . S
C1066 C1067 1.399 . S
C1066 C1071 1.399 . S
C1067 C1066 1.399 . S
C1067 C1068 1.376 . S
C1068 H1055 0.930 . S
C1068 C1067 1.376 . S
C1068 C1069 1.388 . S
C1069 H1056 0.930 . S
C1069 C1068 1.388 . S
C1069 C1070 1.390 . S
C1070 C1069 1.390 . S
C1070 C1071 1.394 . S
C1070 C1076 1.465 . S
C1071 C1066 1.399 . S
C1071 C1070 1.394 . S
C1071 C1072 1.516 . S
C1072 C1071 1.516 . S
C1072 C1073 1.502 . S
C1072 C1074 1.561 . S
C1072 C1075 1.526 . S
C1073 H1057 0.959 . S
C1073 H1058 0.959 . S
C1073 H1059 0.961 . S
C1073 C1072 1.502 . S
C1074 H1060 0.960 . S
C1074 H1061 0.961 . S
C1074 H1062 0.959 . S
C1074 C1072 1.561 . S
C1075 C1072 1.526 . S
C1075 C1076 1.396 . S
C1075 C1080 1.390 . S
C1076 C1070 1.465 . S
C1076 C1075 1.396 . S
C1076 C1077 1.399 . S
C1077 H1063 0.929 . S
C1077 C1076 1.399 . S
C1077 C1078 1.385 . S
C1078 H1064 0.931 . S
C1078 C1077 1.385 . S
C1078 C1079 1.389 . S
C1079 C1078 1.389 . S
C1079 C1080 1.387 . S
C1080 H1065 0.930 . S
C1080 C1075 1.390 . S
C1080 C1079 1.387 . S
H1081 C1093 0.930 . S
H1082 C1095 0.930 . S
H1083 C1096 0.930 . S
H1084 C1100 0.959 . S
H1085 C1100 0.959 . S
H1086 C1100 0.961 . S
H1087 C1101 0.960 . S
H1088 C1101 0.961 . S
H1089 C1101 0.959 . S
H1090 C1104 0.929 . S
H1091 C1105 0.931 . S
H1092 C1107 0.930 . S
C1093 H1081 0.930 . S
C1093 C1094 1.399 . S
C1093 C1098 1.399 . S
C1094 C1093 1.399 . S
C1094 C1095 1.376 . S
C1095 H1082 0.930 . S
C1095 C1094 1.376 . S
C1095 C1096 1.388 . S
C1096 H1083 0.930 . S
C1096 C1095 1.388 . S
C1096 C1097 1.390 . S
C1097 C1096 1.390 . S
C1097 C1098 1.394 . S
C1097 C1103 1.465 . S
C1098 C1093 1.399 . S
C1098 C1097 1.394 . S
C1098 C1099 1.516 . S
C1099 C1098 1.516 . S
C1099 C1100 1.502 . S
C1099 C1101 1.561 . S
C1099 C1102 1.526 . S
C1100 H1084 0.959 . S
C1100 H1085 0.959 . S
C1100 H1086 0.961 . S
C1100 C1099 1.502 . S
C1101 H1087 0.960 . S
C1101 H1088 0.961 . S
C1101 H1089 0.959 . S
C1101 C1099 1.561 . S
C1102 C1099 1.526 . S
C1102 C1103 1.396 . S
C1102 C1107 1.390 . S
C1103 C1097 1.465 . S
C1103 C1102 1.396 . S
C1103 C1104 1.399 . S
C1104 H1090 0.929 . S
C1104 C1103 1.399 . S
C1104 C1105 1.385 . S
C1105 H1091 0.931 . S
C1105 C1104 1.385 . S
C1105 C1106 1.389 . S
C1106 C1105 1.389 . S
C1106 C1107 1.387 . S
C1107 H1092 0.930 . S
C1107 C1102 1.390 . S
C1107 C1106 1.387 . S
H1108 C1120 0.930 . S
H1109 C1122 0.930 . S
H1110 C1123 0.930 . S
H1111 C1127 0.959 . S
H1112 C1127 0.959 . S
H1113 C1127 0.961 . S
H1114 C1128 0.960 . S
H1115 C1128 0.961 . S
H1116 C1128 0.959 . S
H1117 C1131 0.929 . S
H1118 C1132 0.931 . S
H1119 C1134 0.930 . S
C1120 H1108 0.930 . S
C1120 C1121 1.399 . S
C1120 C1125 1.399 . S
C1121 C1120 1.399 . S
C1121 C1122 1.376 . S
C1122 H1109 0.930 . S
C1122 C1121 1.376 . S
C1122 C1123 1.388 . S
C1123 H1110 0.930 . S
C1123 C1122 1.388 . S
C1123 C1124 1.390 . S
C1124 C1123 1.390 . S
C1124 C1125 1.394 . S
C1124 C1130 1.465 . S
C1125 C1120 1.399 . S
C1125 C1124 1.394 . S
C1125 C1126 1.516 . S
C1126 C1125 1.516 . S
C1126 C1127 1.502 . S
C1126 C1128 1.561 . S
C1126 C1129 1.526 . S
C1127 H1111 0.959 . S
C1127 H1112 0.959 . S
C1127 H1113 0.961 . S
C1127 C1126 1.502 . S
C1128 H1114 0.960 . S
C1128 H1115 0.961 . S
C1128 H1116 0.959 . S
C1128 C1126 1.561 . S
C1129 C1126 1.526 . S
C1129 C1130 1.396 . S
C1129 C1134 1.390 . S
C1130 C1124 1.465 . S
C1130 C1129 1.396 . S
C1130 C1131 1.399 . S
C1131 H1117 0.929 . S
C1131 C1130 1.399 . S
C1131 C1132 1.385 . S
C1132 H1118 0.931 . S
C1132 C1131 1.385 . S
C1132 C1133 1.389 . S
C1133 C1132 1.389 . S
C1133 C1134 1.387 . S
C1134 H1119 0.930 . S
C1134 C1129 1.390 . S
C1134 C1133 1.387 . S
H1135 C1147 0.930 . S
H1136 C1149 0.930 . S
H1137 C1150 0.930 . S
H1138 C1154 0.959 . S
H1139 C1154 0.959 . S
H1140 C1154 0.961 . S
H1141 C1155 0.960 . S
H1142 C1155 0.961 . S
H1143 C1155 0.959 . S
H1144 C1158 0.929 . S
H1145 C1159 0.931 . S
H1146 C1161 0.930 . S
C1147 H1135 0.930 . S
C1147 C1148 1.399 . S
C1147 C1152 1.399 . S
C1148 C1147 1.399 . S
C1148 C1149 1.376 . S
C1149 H1136 0.930 . S
C1149 C1148 1.376 . S
C1149 C1150 1.388 . S
C1150 H1137 0.930 . S
C1150 C1149 1.388 . S
C1150 C1151 1.390 . S
C1151 C1150 1.390 . S
C1151 C1152 1.394 . S
C1151 C1157 1.465 . S
C1152 C1147 1.399 . S
C1152 C1151 1.394 . S
C1152 C1153 1.516 . S
C1153 C1152 1.516 . S
C1153 C1154 1.502 . S
C1153 C1155 1.561 . S
C1153 C1156 1.526 . S
C1154 H1138 0.959 . S
C1154 H1139 0.959 . S
C1154 H1140 0.961 . S
C1154 C1153 1.502 . S
C1155 H1141 0.960 . S
C1155 H1142 0.961 . S
C1155 H1143 0.959 . S
C1155 C1153 1.561 . S
C1156 C1153 1.526 . S
C1156 C1157 1.396 . S
C1156 C1161 1.390 . S
C1157 C1151 1.465 . S
C1157 C1156 1.396 . S
C1157 C1158 1.399 . S
C1158 H1144 0.929 . S
C1158 C1157 1.399 . S
C1158 C1159 1.385 . S
C1159 H1145 0.931 . S
C1159 C1158 1.385 . S
C1159 C1160 1.389 . S
C1160 C1159 1.389 . S
C1160 C1161 1.387 . S
C1161 H1146 0.930 . S
C1161 C1156 1.390 . S
C1161 C1160 1.387 . S
H1162 C1174 0.930 . S
H1163 C1176 0.930 . S
H1164 C1177 0.930 . S
H1165 C1181 0.959 . S
H1166 C1181 0.959 . S
H1167 C1181 0.961 . S
H1168 C1182 0.960 . S
H1169 C1182 0.961 . S
H1170 C1182 0.959 . S
H1171 C1185 0.929 . S
H1172 C1186 0.931 . S
H1173 C1188 0.930 . S
C1174 H1162 0.930 . S
C1174 C1175 1.399 . S
C1174 C1179 1.399 . S
C1175 C1174 1.399 . S
C1175 C1176 1.376 . S
C1176 H1163 0.930 . S
C1176 C1175 1.376 . S
C1176 C1177 1.388 . S
C1177 H1164 0.930 . S
C1177 C1176 1.388 . S
C1177 C1178 1.390 . S
C1178 C1177 1.390 . S
C1178 C1179 1.394 . S
C1178 C1184 1.465 . S
C1179 C1174 1.399 . S
C1179 C1178 1.394 . S
C1179 C1180 1.516 . S
C1180 C1179 1.516 . S
C1180 C1181 1.502 . S
C1180 C1182 1.561 . S
C1180 C1183 1.526 . S
C1181 H1165 0.959 . S
C1181 H1166 0.959 . S
C1181 H1167 0.961 . S
C1181 C1180 1.502 . S
C1182 H1168 0.960 . S
C1182 H1169 0.961 . S
C1182 H1170 0.959 . S
C1182 C1180 1.561 . S
C1183 C1180 1.526 . S
C1183 C1184 1.396 . S
C1183 C1188 1.390 . S
C1184 C1178 1.465 . S
C1184 C1183 1.396 . S
C1184 C1185 1.399 . S
C1185 H1171 0.929 . S
C1185 C1184 1.399 . S
C1185 C1186 1.385 . S
C1186 H1172 0.931 . S
C1186 C1185 1.385 . S
C1186 C1187 1.389 . S
C1187 C1186 1.389 . S
C1187 C1188 1.387 . S
C1188 H1173 0.930 . S
C1188 C1183 1.390 . S
C1188 C1187 1.387 . S
H1189 C1201 0.930 . S
H1190 C1203 0.930 . S
H1191 C1204 0.930 . S
H1192 C1208 0.959 . S
H1193 C1208 0.959 . S
H1194 C1208 0.961 . S
H1195 C1209 0.960 . S
H1196 C1209 0.961 . S
H1197 C1209 0.959 . S
H1198 C1212 0.929 . S
H1199 C1213 0.931 . S
H1200 C1215 0.930 . S
C1201 H1189 0.930 . S
C1201 C1202 1.399 . S
C1201 C1206 1.399 . S
C1202 C1201 1.399 . S
C1202 C1203 1.376 . S
C1203 H1190 0.930 . S
C1203 C1202 1.376 . S
C1203 C1204 1.388 . S
C1204 H1191 0.930 . S
C1204 C1203 1.388 . S
C1204 C1205 1.390 . S
C1205 C1204 1.390 . S
C1205 C1206 1.394 . S
C1205 C1211 1.465 . S
C1206 C1201 1.399 . S
C1206 C1205 1.394 . S
C1206 C1207 1.516 . S
C1207 C1206 1.516 . S
C1207 C1208 1.502 . S
C1207 C1209 1.561 . S
C1207 C1210 1.526 . S
C1208 H1192 0.959 . S
C1208 H1193 0.959 . S
C1208 H1194 0.961 . S
C1208 C1207 1.502 . S
C1209 H1195 0.960 . S
C1209 H1196 0.961 . S
C1209 H1197 0.959 . S
C1209 C1207 1.561 . S
C1210 C1207 1.526 . S
C1210 C1211 1.396 . S
C1210 C1215 1.390 . S
C1211 C1205 1.465 . S
C1211 C1210 1.396 . S
C1211 C1212 1.399 . S
C1212 H1198 0.929 . S
C1212 C1211 1.399 . S
C1212 C1213 1.385 . S
C1213 H1199 0.931 . S
C1213 C1212 1.385 . S
C1213 C1214 1.389 . S
C1214 C1213 1.389 . S
C1214 C1215 1.387 . S
C1215 H1200 0.930 . S
C1215 C1210 1.390 . S
C1215 C1214 1.387 . S
H1216 C1228 0.930 . S
H1217 C1230 0.930 . S
H1218 C1231 0.930 . S
H1219 C1235 0.959 . S
H1220 C1235 0.959 . S
H1221 C1235 0.961 . S
H1222 C1236 0.960 . S
H1223 C1236 0.961 . S
H1224 C1236 0.959 . S
H1225 C1239 0.929 . S
H1226 C1240 0.931 . S
H1227 C1242 0.930 . S
C1228 H1216 0.930 . S
C1228 C1229 1.399 . S
C1228 C1233 1.399 . S
C1229 C1228 1.399 . S
C1229 C1230 1.376 . S
C1230 H1217 0.930 . S
C1230 C1229 1.376 . S
C1230 C1231 1.388 . S
C1231 H1218 0.930 . S
C1231 C1230 1.388 . S
C1231 C1232 1.390 . S
C1232 C1231 1.390 . S
C1232 C1233 1.394 . S
C1232 C1238 1.465 . S
C1233 C1228 1.399 . S
C1233 C1232 1.394 . S
C1233 C1234 1.516 . S
C1234 C1233 1.516 . S
C1234 C1235 1.502 . S
C1234 C1236 1.561 . S
C1234 C1237 1.526 . S
C1235 H1219 0.959 . S
C1235 H1220 0.959 . S
C1235 H1221 0.961 . S
C1235 C1234 1.502 . S
C1236 H1222 0.960 . S
C1236 H1223 0.961 . S
C1236 H1224 0.959 . S
C1236 C1234 1.561 . S
C1237 C1234 1.526 . S
C1237 C1238 1.396 . S
C1237 C1242 1.390 . S
C1238 C1232 1.465 . S
C1238 C1237 1.396 . S
C1238 C1239 1.399 . S
C1239 H1225 0.929 . S
C1239 C1238 1.399 . S
C1239 C1240 1.385 . S
C1240 H1226 0.931 . S
C1240 C1239 1.385 . S
C1240 C1241 1.389 . S
C1241 C1240 1.389 . S
C1241 C1242 1.387 . S
C1242 H1227 0.930 . S
C1242 C1237 1.390 . S
C1242 C1241 1.387 . S
H1243 C1255 0.930 . S
H1244 C1257 0.930 . S
H1245 C1258 0.930 . S
H1246 C1262 0.959 . S
H1247 C1262 0.959 . S
H1248 C1262 0.961 . S
H1249 C1263 0.960 . S
H1250 C1263 0.961 . S
H1251 C1263 0.959 . S
H1252 C1266 0.929 . S
H1253 C1267 0.931 . S
H1254 C1269 0.930 . S
C1255 H1243 0.930 . S
C1255 C1256 1.399 . S
C1255 C1260 1.399 . S
C1256 C1255 1.399 . S
C1256 C1257 1.376 . S
C1257 H1244 0.930 . S
C1257 C1256 1.376 . S
C1257 C1258 1.388 . S
C1258 H1245 0.930 . S
C1258 C1257 1.388 . S
C1258 C1259 1.390 . S
C1259 C1258 1.390 . S
C1259 C1260 1.394 . S
C1259 C1265 1.465 . S
C1260 C1255 1.399 . S
C1260 C1259 1.394 . S
C1260 C1261 1.516 . S
C1261 C1260 1.516 . S
C1261 C1262 1.502 . S
C1261 C1263 1.561 . S
C1261 C1264 1.526 . S
C1262 H1246 0.959 . S
C1262 H1247 0.959 . S
C1262 H1248 0.961 . S
C1262 C1261 1.502 . S
C1263 H1249 0.960 . S
C1263 H1250 0.961 . S
C1263 H1251 0.959 . S
C1263 C1261 1.561 . S
C1264 C1261 1.526 . S
C1264 C1265 1.396 . S
C1264 C1269 1.390 . S
C1265 C1259 1.465 . S
C1265 C1264 1.396 . S
C1265 C1266 1.399 . S
C1266 H1252 0.929 . S
C1266 C1265 1.399 . S
C1266 C1267 1.385 . S
C1267 H1253 0.931 . S
C1267 C1266 1.385 . S
C1267 C1268 1.389 . S
C1268 C1267 1.389 . S
C1268 C1269 1.387 . S
C1269 H1254 0.930 . S
C1269 C1264 1.390 . S
C1269 C1268 1.387 . S
H1270 C1282 0.930 . S
H1271 C1284 0.930 . S
H1272 C1285 0.930 . S
H1273 C1289 0.959 . S
H1274 C1289 0.959 . S
H1275 C1289 0.961 . S
H1276 C1290 0.960 . S
H1277 C1290 0.961 . S
H1278 C1290 0.959 . S
H1279 C1293 0.929 . S
H1280 C1294 0.931 . S
H1281 C1296 0.930 . S
C1282 H1270 0.930 . S
C1282 C1283 1.399 . S
C1282 C1287 1.399 . S
C1283 C1282 1.399 . S
C1283 C1284 1.376 . S
C1284 H1271 0.930 . S
C1284 C1283 1.376 . S
C1284 C1285 1.388 . S
C1285 H1272 0.930 . S
C1285 C1284 1.388 . S
C1285 C1286 1.390 . S
C1286 C1285 1.390 . S
C1286 C1287 1.394 . S
C1286 C1292 1.465 . S
C1287 C1282 1.399 . S
C1287 C1286 1.394 . S
C1287 C1288 1.516 . S
C1288 C1287 1.516 . S
C1288 C1289 1.502 . S
C1288 C1290 1.561 . S
C1288 C1291 1.526 . S
C1289 H1273 0.959 . S
C1289 H1274 0.959 . S
C1289 H1275 0.961 . S
C1289 C1288 1.502 . S
C1290 H1276 0.960 . S
C1290 H1277 0.961 . S
C1290 H1278 0.959 . S
C1290 C1288 1.561 . S
C1291 C1288 1.526 . S
C1291 C1292 1.396 . S
C1291 C1296 1.390 . S
C1292 C1286 1.465 . S
C1292 C1291 1.396 . S
C1292 C1293 1.399 . S
C1293 H1279 0.929 . S
C1293 C1292 1.399 . S
C1293 C1294 1.385 . S
C1294 H1280 0.931 . S
C1294 C1293 1.385 . S
C1294 C1295 1.389 . S
C1295 C1294 1.389 . S
C1295 C1296 1.387 . S
C1296 H1281 0.930 . S
C1296 C1291 1.390 . S
C1296 C1295 1.387 . S
H1297 C1309 0.930 . S
H1298 C1311 0.930 . S
H1299 C1312 0.930 . S
H1300 C1316 0.959 . S
H1301 C1316 0.959 . S
H1302 C1316 0.961 . S
H1303 C1317 0.960 . S
H1304 C1317 0.961 . S
H1305 C1317 0.959 . S
H1306 C1320 0.929 . S
H1307 C1321 0.931 . S
H1308 C1323 0.930 . S
C1309 H1297 0.930 . S
C1309 C1310 1.399 . S
C1309 C1314 1.399 . S
C1310 C1309 1.399 . S
C1310 C1311 1.376 . S
C1311 H1298 0.930 . S
C1311 C1310 1.376 . S
C1311 C1312 1.388 . S
C1312 H1299 0.930 . S
C1312 C1311 1.388 . S
C1312 C1313 1.390 . S
C1313 C1312 1.390 . S
C1313 C1314 1.394 . S
C1313 C1319 1.465 . S
C1314 C1309 1.399 . S
C1314 C1313 1.394 . S
C1314 C1315 1.516 . S
C1315 C1314 1.516 . S
C1315 C1316 1.502 . S
C1315 C1317 1.561 . S
C1315 C1318 1.526 . S
C1316 H1300 0.959 . S
C1316 H1301 0.959 . S
C1316 H1302 0.961 . S
C1316 C1315 1.502 . S
C1317 H1303 0.960 . S
C1317 H1304 0.961 . S
C1317 H1305 0.959 . S
C1317 C1315 1.561 . S
C1318 C1315 1.526 . S
C1318 C1319 1.396 . S
C1318 C1323 1.390 . S
C1319 C1313 1.465 . S
C1319 C1318 1.396 . S
C1319 C1320 1.399 . S
C1320 H1306 0.929 . S
C1320 C1319 1.399 . S
C1320 C1321 1.385 . S
C1321 H1307 0.931 . S
C1321 C1320 1.385 . S
C1321 C1322 1.389 . S
C1322 C1321 1.389 . S
C1322 C1323 1.387 . S
C1323 H1308 0.930 . S
C1323 C1318 1.390 . S
C1323 C1322 1.387 . S
H1324 C1336 0.930 . S
H1325 C1338 0.930 . S
H1326 C1339 0.930 . S
H1327 C1343 0.959 . S
H1328 C1343 0.959 . S
H1329 C1343 0.961 . S
H1330 C1344 0.960 . S
H1331 C1344 0.961 . S
H1332 C1344 0.959 . S
H1333 C1347 0.929 . S
H1334 C1348 0.931 . S
H1335 C1350 0.930 . S
C1336 H1324 0.930 . S
C1336 C1337 1.399 . S
C1336 C1341 1.399 . S
C1337 C1336 1.399 . S
C1337 C1338 1.376 . S
C1338 H1325 0.930 . S
C1338 C1337 1.376 . S
C1338 C1339 1.388 . S
C1339 H1326 0.930 . S
C1339 C1338 1.388 . S
C1339 C1340 1.390 . S
C1340 C1339 1.390 . S
C1340 C1341 1.394 . S
C1340 C1346 1.465 . S
C1341 C1336 1.399 . S
C1341 C1340 1.394 . S
C1341 C1342 1.516 . S
C1342 C1341 1.516 . S
C1342 C1343 1.502 . S
C1342 C1344 1.561 . S
C1342 C1345 1.526 . S
C1343 H1327 0.959 . S
C1343 H1328 0.959 . S
C1343 H1329 0.961 . S
C1343 C1342 1.502 . S
C1344 H1330 0.960 . S
C1344 H1331 0.961 . S
C1344 H1332 0.959 . S
C1344 C1342 1.561 . S
C1345 C1342 1.526 . S
C1345 C1346 1.396 . S
C1345 C1350 1.390 . S
C1346 C1340 1.465 . S
C1346 C1345 1.396 . S
C1346 C1347 1.399 . S
C1347 H1333 0.929 . S
C1347 C1346 1.399 . S
C1347 C1348 1.385 . S
C1348 H1334 0.931 . S
C1348 C1347 1.385 . S
C1348 C1349 1.389 . S
C1349 C1348 1.389 . S
C1349 C1350 1.387 . S
C1350 H1335 0.930 . S
C1350 C1345 1.390 . S
C1350 C1349 1.387 . S
H1351 C1363 0.930 . S
H1352 C1365 0.930 . S
H1353 C1366 0.930 . S
H1354 C1370 0.959 . S
H1355 C1370 0.959 . S
H1356 C1370 0.961 . S
H1357 C1371 0.960 . S
H1358 C1371 0.961 . S
H1359 C1371 0.959 . S
H1360 C1374 0.929 . S
H1361 C1375 0.931 . S
H1362 C1377 0.930 . S
C1363 H1351 0.930 . S
C1363 C1364 1.399 . S
C1363 C1368 1.399 . S
C1364 C1363 1.399 . S
C1364 C1365 1.376 . S
C1365 H1352 0.930 . S
C1365 C1364 1.376 . S
C1365 C1366 1.388 . S
C1366 H1353 0.930 . S
C1366 C1365 1.388 . S
C1366 C1367 1.390 . S
C1367 C1366 1.390 . S
C1367 C1368 1.394 . S
C1367 C1373 1.465 . S
C1368 C1363 1.399 . S
C1368 C1367 1.394 . S
C1368 C1369 1.516 . S
C1369 C1368 1.516 . S
C1369 C1370 1.502 . S
C1369 C1371 1.561 . S
C1369 C1372 1.526 . S
C1370 H1354 0.959 . S
C1370 H1355 0.959 . S
C1370 H1356 0.961 . S
C1370 C1369 1.502 . S
C1371 H1357 0.960 . S
C1371 H1358 0.961 . S
C1371 H1359 0.959 . S
C1371 C1369 1.561 . S
C1372 C1369 1.526 . S
C1372 C1373 1.396 . S
C1372 C1377 1.390 . S
C1373 C1367 1.465 . S
C1373 C1372 1.396 . S
C1373 C1374 1.399 . S
C1374 H1360 0.929 . S
C1374 C1373 1.399 . S
C1374 C1375 1.385 . S
C1375 H1361 0.931 . S
C1375 C1374 1.385 . S
C1375 C1376 1.389 . S
C1376 C1375 1.389 . S
C1376 C1377 1.387 . S
C1377 H1362 0.930 . S
C1377 C1372 1.390 . S
C1377 C1376 1.387 . S
H1378 C1390 0.930 . S
H1379 C1392 0.930 . S
H1380 C1393 0.930 . S
H1381 C1397 0.959 . S
H1382 C1397 0.959 . S
H1383 C1397 0.961 . S
H1384 C1398 0.960 . S
H1385 C1398 0.961 . S
H1386 C1398 0.959 . S
H1387 C1401 0.929 . S
H1388 C1402 0.931 . S
H1389 C1404 0.930 . S
C1390 H1378 0.930 . S
C1390 C1391 1.399 . S
C1390 C1395 1.399 . S
C1391 C1390 1.399 . S
C1391 C1392 1.376 . S
C1392 H1379 0.930 . S
C1392 C1391 1.376 . S
C1392 C1393 1.388 . S
C1393 H1380 0.930 . S
C1393 C1392 1.388 . S
C1393 C1394 1.390 . S
C1394 C1393 1.390 . S
C1394 C1395 1.394 . S
C1394 C1400 1.465 . S
C1395 C1390 1.399 . S
C1395 C1394 1.394 . S
C1395 C1396 1.516 . S
C1396 C1395 1.516 . S
C1396 C1397 1.502 . S
C1396 C1398 1.561 . S
C1396 C1399 1.526 . S
C1397 H1381 0.959 . S
C1397 H1382 0.959 . S
C1397 H1383 0.961 . S
C1397 C1396 1.502 . S
C1398 H1384 0.960 . S
C1398 H1385 0.961 . S
C1398 H1386 0.959 . S
C1398 C1396 1.561 . S
C1399 C1396 1.526 . S
C1399 C1400 1.396 . S
C1399 C1404 1.390 . S
C1400 C1394 1.465 . S
C1400 C1399 1.396 . S
C1400 C1401 1.399 . S
C1401 H1387 0.929 . S
C1401 C1400 1.399 . S
C1401 C1402 1.385 . S
C1402 H1388 0.931 . S
C1402 C1401 1.385 . S
C1402 C1403 1.389 . S
C1403 C1402 1.389 . S
C1403 C1404 1.387 . S
C1404 H1389 0.930 . S
C1404 C1399 1.390 . S
C1404 C1403 1.387 . S
H1405 C1417 0.930 . S
H1406 C1419 0.930 . S
H1407 C1420 0.930 . S
H1408 C1424 0.959 . S
H1409 C1424 0.959 . S
H1410 C1424 0.961 . S
H1411 C1425 0.960 . S
H1412 C1425 0.961 . S
H1413 C1425 0.959 . S
H1414 C1428 0.929 . S
H1415 C1429 0.931 . S
H1416 C1431 0.930 . S
C1417 H1405 0.930 . S
C1417 C1418 1.399 . S
C1417 C1422 1.399 . S
C1418 C1417 1.399 . S
C1418 C1419 1.376 . S
C1419 H1406 0.930 . S
C1419 C1418 1.376 . S
C1419 C1420 1.388 . S
C1420 H1407 0.930 . S
C1420 C1419 1.388 . S
C1420 C1421 1.390 . S
C1421 C1420 1.390 . S
C1421 C1422 1.394 . S
C1421 C1427 1.465 . S
C1422 C1417 1.399 . S
C1422 C1421 1.394 . S
C1422 C1423 1.516 . S
C1423 C1422 1.516 . S
C1423 C1424 1.502 . S
C1423 C1425 1.561 . S
C1423 C1426 1.526 . S
C1424 H1408 0.959 . S
C1424 H1409 0.959 . S
C1424 H1410 0.961 . S
C1424 C1423 1.502 . S
C1425 H1411 0.960 . S
C1425 H1412 0.961 . S
C1425 H1413 0.959 . S
C1425 C1423 1.561 . S
C1426 C1423 1.526 . S
C1426 C1427 1.396 . S
C1426 C1431 1.390 . S
C1427 C1421 1.465 . S
C1427 C1426 1.396 . S
C1427 C1428 1.399 . S
C1428 H1414 0.929 . S
C1428 C1427 1.399 . S
C1428 C1429 1.385 . S
C1429 H1415 0.931 . S
C1429 C1428 1.385 . S
C1429 C1430 1.389 . S
C1430 C1429 1.389 . S
C1430 C1431 1.387 . S
C1431 H1416 0.930 . S
C1431 C1426 1.390 . S
C1431 C1430 1.387 . S
C593 C173 1.493 . S
C581 C7 1.415 . S
C620 C226 1.302 . S
C608 C32 1.211 . S
C647 C289 1.526 . S
C635 C44 1.502 . S
C674 C332 1.274 . S
C662 C62 1.189 . S
C689 C88 1.497 . S
C701 C288 1.533 . S
C728 C325 1.308 . S
C716 C106 1.307 . S
C755 C166 1.477 . S
C743 C124 1.459 . S
C782 C219 1.263 . S
C770 C140 1.173 . S
C809 C272 1.516 . S
C797 C142 1.496 . S
C836 C341 1.805 . S
C824 C86 1.730 . S
C863 C182 1.589 . S
C851 C104 1.474 . S
C890 C235 1.744 . S
C878 C122 1.695 . S
C917 C183 1.561 . S
C905 C34 1.543 . S
C944 C236 1.798 . S
C932 C43 1.730 . S
C971 C279 1.518 . S
C959 C61 1.497 . S
C998 C342 1.755 . S
C986 C8 1.698 . S
C1025 C385 1.476 . S
C1013 C133 1.393 . S
C1040 C80 1.651 . S
C1052 C438 1.671 . S
C1067 C98 1.489 . S
C1079 C500 1.560 . S
C1094 C116 1.651 . S
C1106 C554 1.666 . S
C1121 C25 1.478 . S
C1133 C501 1.507 . S
C1148 C52 1.642 . S
C1160 C553 1.736 . S
C1175 C70 1.402 . S
C1187 C378 1.518 . S
C1214 C431 1.635 . S
C1202 C14 1.550 . S
C1241 C491 1.514 . S
C1229 C16 1.378 . S
C1256 C26 1.340 . S
C1268 C537 1.357 . S
C1283 C50 1.572 . S
C1295 C394 1.583 . S
C1310 C68 1.321 . S
C1322 C447 1.341 . S
C1349 C395 1.554 . S
C1337 C79 1.428 . S
C1376 C448 1.392 . S
C1364 C97 1.386 . S
C1391 C115 1.513 . S
C1403 C484 1.538 . S
C1430 C544 1.322 . S
C1418 C134 1.257 . S
