# Generated by pormake.
# Topology pts, (4,4)-cn, num edge types: 1
# Building blocks:
#     Node 0, Type 0, BuildingBlock: AZAVOO_clean_linker_0, # of connection points: 4
#     Node 1, Type 0, BuildingBlock: AZAVOO_clean_linker_0, # of connection points: 4
#     Node 2, Type 1, BuildingBlock: UXUYUI_clean_sbu_0, # of connection points: 4
#     Node 3, Type 1, BuildingBlock: UXUYUI_clean_sbu_0, # of connection points: 4
#     Edge 4, Type (0, 1), BuildingBlock: FUNLAD_clean_linker_1, # of connection points: 2
#     Edge 5, Type (0, 1), BuildingBlock: FUNLAD_clean_linker_1, # of connection points: 2
#     Edge 6, Type (0, 1), BuildingBlock: FUNLAD_clean_linker_1, # of connection points: 2
#     Edge 7, Type (0, 1), BuildingBlock: FUNLAD_clean_linker_1, # of connection points: 2
#     Edge 8, Type (0, 1), BuildingBlock: FUNLAD_clean_linker_1, # of connection points: 2
#     Edge 9, Type (0, 1), BuildingBlock: FUNLAD_clean_linker_1, # of connection points: 2
#     Edge 10, Type (0, 1), BuildingBlock: FUNLAD_clean_linker_1, # of connection points: 2
#     Edge 11, Type (0, 1), BuildingBlock: FUNLAD_clean_linker_1, # of connection points: 2
# Relax obj value: 0.119
# Max RMSD: 0.231
# Mean RMSD: 0.163
data_MOF--net-pts--node1-UXUYUI_clean_sbu_0--node2-AZAVOO_clean_linker_0--edge1-FUNLAD_clean_linker_1
_symmetry_space_group_name_H-M    P1
_symmetry_Int_Tables_number       1
_symmetry_cell_setting            triclinic
loop_
_symmetry_equiv_pos_as_xyz
'x, y, z'
_cell_length_a     33.25797
_cell_length_b     33.266727
_cell_length_c     57.328296
_cell_angle_alpha  91.450811
_cell_angle_beta   91.480262
_cell_angle_gamma 90.044553
loop_
_atom_site_label
_atom_site_type_symbol
_atom_site_fract_x
_atom_site_fract_y
_atom_site_fract_z
_atom_type_partial_charge
H0 H 0.49629 0.06713 0.85943 0.0
H1 H 0.80714 0.02313 0.07365 0.0
H2 H 0.47733 0.11676 0.98741 0.0
H3 H 0.41201 0.11506 0.9668 0.0
H4 H 0.4041 0.98718 0.97746 0.0
H5 H 0.46974 0.98929 0.99812 0.0
H6 H 0.53658 0.11144 0.95666 0.0
H7 H 0.51892 0.10501 0.915 0.0
H8 H 0.52819 0.97566 0.91894 0.0
H9 H 0.54577 0.98262 0.96061 0.0
H10 H 0.61576 0.11093 0.96695 0.0
H11 H 0.67087 0.11013 0.93963 0.0
H12 H 0.69945 0.98826 0.9585 0.0
H13 H 0.64371 0.9893 0.98577 0.0
H14 H 0.6538 0.11482 0.01962 0.0
H15 H 0.72246 0.11704 0.03611 0.0
H16 H 0.71182 0.99259 0.05516 0.0
H17 H 0.6434 0.99071 0.03838 0.0
H18 H 0.59262 0.12065 0.06036 0.0
H19 H 0.62908 0.12222 0.09792 0.0
H20 H 0.60979 0.99443 0.10375 0.0
H21 H 0.57295 0.99331 0.06615 0.0
H22 H 0.48679 0.12096 0.03944 0.0
H23 H 0.42987 0.12538 0.06572 0.0
H24 H 0.44017 0.99784 0.07767 0.0
H25 H 0.49697 0.99414 0.05169 0.0
O26 O 0.50357 0.06901 0.87589 0.0
O27 O 0.50859 0.00266 0.87885 0.0
O28 O 0.78321 0.08761 0.05798 0.0
O29 O 0.78036 0.0229 0.06662 0.0
C30 C 0.52047 0.05319 0.00298 0.0
C31 C 0.55197 0.0513 0.9869 0.0
C32 C 0.59237 0.0511 0.99498 0.0
C33 C 0.60125 0.05222 0.01918 0.0
C34 C 0.56973 0.05401 0.0353 0.0
C35 C 0.52931 0.05452 0.02721 0.0
C36 C 0.47826 0.05311 0.99405 0.0
C37 C 0.4612 0.08851 0.98552 0.0
C38 C 0.42414 0.08734 0.97351 0.0
C39 C 0.40356 0.05062 0.96988 0.0
C40 C 0.41958 0.01573 0.9798 0.0
C41 C 0.45686 0.01688 0.99165 0.0
C42 C 0.54243 0.04749 0.96154 0.0
C43 C 0.53486 0.08179 0.94844 0.0
C44 C 0.52476 0.078 0.92468 0.0
C45 C 0.5221 0.03981 0.91364 0.0
C46 C 0.52997 0.00551 0.92689 0.0
C47 C 0.54007 0.00937 0.95065 0.0
C48 C 0.62545 0.05002 0.9781 0.0
C49 C 0.63351 0.08385 0.96489 0.0
C50 C 0.66493 0.08321 0.94918 0.0
C51 C 0.68896 0.04865 0.94651 0.0
C52 C 0.68115 0.01508 0.96007 0.0
C53 C 0.64945 0.01563 0.97561 0.0
C54 C 0.64375 0.05263 0.02782 0.0
C55 C 0.66655 0.08799 0.02715 0.0
C56 C 0.70565 0.08921 0.03669 0.0
C57 C 0.7226 0.05499 0.04702 0.0
C58 C 0.69972 0.01945 0.04735 0.0
C59 C 0.66066 0.01827 0.03777 0.0
C60 C 0.58024 0.05688 0.06056 0.0
C61 C 0.59509 0.09329 0.07015 0.0
C62 C 0.61658 0.09394 0.09141 0.0
C63 C 0.62359 0.05803 0.10333 0.0
C64 C 0.60518 0.0224 0.09479 0.0
C65 C 0.58383 0.02176 0.07345 0.0
C66 C 0.49621 0.05735 0.04395 0.0
C67 C 0.47693 0.09418 0.04803 0.0
C68 C 0.44445 0.09659 0.06299 0.0
C69 C 0.43079 0.06229 0.07423 0.0
C70 C 0.4503 0.02529 0.07001 0.0
C71 C 0.48277 0.02295 0.05501 0.0
C72 C 0.51105 0.03587 0.88843 0.0
C73 C 0.76387 0.05631 0.05751 0.0
H74 H 0.01332 0.50024 0.35845 0.0
H75 H 0.13367 0.80478 0.55043 0.0
H76 H 0.98314 0.47887 0.48905 0.0
H77 H 0.97433 0.41521 0.467 0.0
H78 H 0.10157 0.39169 0.47531 0.0
H79 H 0.10998 0.45526 0.49744 0.0
H80 H 0.99326 0.55128 0.45596 0.0
H81 H 0.99005 0.53405 0.41414 0.0
H82 H 0.11364 0.49387 0.4181 0.0
H83 H 0.1164 0.51137 0.45985 0.0
H84 H 0.00463 0.63714 0.48082 0.0
H85 H 0.00758 0.68903 0.45152 0.0
H86 H 0.12915 0.65313 0.43605 0.0
H87 H 0.12592 0.60141 0.46574 0.0
H88 H 0.01175 0.64599 0.53631 0.0
H89 H 0.02256 0.71587 0.54947 0.0
H90 H 0.14544 0.70898 0.52676 0.0
H91 H 0.1343 0.63905 0.51392 0.0
H92 H 0.00432 0.57185 0.56553 0.0
H93 H 0.00748 0.61142 0.60189 0.0
H94 H 0.13537 0.62814 0.59383 0.0
H95 H 0.13183 0.58731 0.55782 0.0
H96 H 0.99081 0.48108 0.5376 0.0
H97 H 0.986 0.42697 0.56552 0.0
H98 H 0.11187 0.44362 0.58444 0.0
H99 H 0.1163 0.49664 0.55616 0.0
O100 O 0.01507 0.50652 0.37503 0.0
O101 O 0.08019 0.49157 0.37744 0.0
O102 O 0.06438 0.78015 0.5553 0.0
O103 O 0.12851 0.77725 0.54535 0.0
C104 C 0.05377 0.51367 0.50296 0.0
C105 C 0.05716 0.54359 0.48605 0.0
C106 C 0.06288 0.58409 0.49305 0.0
C107 C 0.06608 0.59473 0.51695 0.0
C108 C 0.06377 0.56472 0.53397 0.0
C109 C 0.05712 0.52411 0.52701 0.0
C110 C 0.04716 0.47151 0.49483 0.0
C111 C 0.00884 0.45934 0.48668 0.0
C112 C 0.00393 0.42319 0.474 0.0
C113 C 0.03738 0.39918 0.46885 0.0
C114 C 0.07537 0.41016 0.47841 0.0
C115 C 0.08017 0.4461 0.49135 0.0
C116 C 0.05501 0.53248 0.46083 0.0
C117 C 0.01953 0.53869 0.44772 0.0
C118 C 0.0178 0.52879 0.42388 0.0
C119 C 0.05163 0.51268 0.41277 0.0
C120 C 0.08709 0.50633 0.42609 0.0
C121 C 0.08874 0.51619 0.44992 0.0
C122 C 0.06496 0.6155 0.47525 0.0
C123 C 0.03178 0.64042 0.47099 0.0
C124 C 0.03342 0.66974 0.45402 0.0
C125 C 0.06839 0.67449 0.44101 0.0
C126 C 0.10175 0.64981 0.44564 0.0
C127 C 0.09997 0.62035 0.46253 0.0
C128 C 0.07226 0.63755 0.52419 0.0
C129 C 0.04095 0.65968 0.5342 0.0
C130 C 0.04721 0.69956 0.54168 0.0
C131 C 0.0849 0.71801 0.53917 0.0
C132 C 0.11608 0.69571 0.52897 0.0
C133 C 0.10978 0.65583 0.52154 0.0
C134 C 0.06775 0.57712 0.55895 0.0
C135 C 0.03322 0.58285 0.57212 0.0
C136 C 0.03506 0.6063 0.59273 0.0
C137 C 0.07156 0.62465 0.60028 0.0
C138 C 0.10674 0.61504 0.58829 0.0
C139 C 0.10486 0.59149 0.5678 0.0
C140 C 0.05398 0.49254 0.54471 0.0
C141 C 0.01733 0.47277 0.54773 0.0
C142 C 0.01465 0.44196 0.56373 0.0
C143 C 0.04852 0.43021 0.57706 0.0
C144 C 0.08512 0.45081 0.57432 0.0
C145 C 0.08776 0.48159 0.55823 0.0
C146 C 0.04997 0.50288 0.38738 0.0
C147 C 0.09181 0.76032 0.54712 0.0
Li148 Li 0.05592 0.08248 0.27656 0.0
Li149 Li 0.05014 0.00973 0.26993 0.0
Li150 Li 0.08691 0.05111 0.24152 0.0
Li151 Li 0.01332 0.05176 0.24332 0.0
C152 C 0.13653 0.05359 0.28429 0.0
N153 N 0.21099 0.0767 0.30255 0.0
C154 C 0.15483 0.03186 0.30222 0.0
C155 C 0.15639 0.08672 0.27546 0.0
C156 C 0.19239 0.04413 0.31128 0.0
C157 C 0.19394 0.098 0.28495 0.0
C158 C 0.98665 0.02897 0.29436 0.0
C159 C 0.94171 0.97642 0.3057 0.0
N160 N 0.94831 0.98738 0.3285 0.0
C161 C 0.99273 0.03994 0.31788 0.0
C162 C 0.96069 0.99718 0.28818 0.0
C163 C 0.97315 0.01847 0.33489 0.0
C164 C 0.03736 0.1574 0.2983 0.0
N165 N 0.05949 0.12329 0.30044 0.0
C166 C 0.08452 0.14536 0.33807 0.0
C167 C 0.08257 0.11671 0.31989 0.0
C168 C 0.06177 0.18066 0.33652 0.0
C169 C 0.03811 0.18676 0.31621 0.0
H170 H 0.01898 0.16168 0.28272 0.0
H171 H 0.09886 0.08885 0.32155 0.0
C172 C 0.03934 0.92543 0.27705 0.0
N173 N 0.0503 0.96148 0.28694 0.0
C174 C 0.03778 0.89125 0.2907 0.0
C175 C 0.05917 0.93203 0.32427 0.0
C176 C 0.06038 0.96526 0.30999 0.0
C177 C 0.04791 0.89423 0.31462 0.0
H178 H 0.03138 0.9233 0.25867 0.0
H179 H 0.06843 0.99448 0.31741 0.0
C180 C 0.06172 0.13345 0.23295 0.0
N181 N 0.08317 0.20413 0.2121 0.0
C182 C 0.04637 0.14239 0.21075 0.0
C183 C 0.0873 0.16096 0.24474 0.0
C184 C 0.05778 0.17811 0.20044 0.0
C185 C 0.09797 0.19638 0.23386 0.0
C186 C 0.0312 0.98804 0.21596 0.0
C187 C 0.04807 0.99263 0.19411 0.0
C188 C 0.99573 0.96589 0.21776 0.0
C189 C 0.02883 0.97539 0.17434 0.0
C190 C 0.97736 0.94919 0.19758 0.0
N191 N 0.99414 0.95426 0.17646 0.0
C192 C 0.16387 0.0276 0.22766 0.0
C193 C 0.13339 0.07477 0.20252 0.0
C194 C 0.19828 0.02649 0.21422 0.0
N195 N 0.13247 0.05178 0.22178 0.0
C196 C 0.16715 0.07443 0.18848 0.0
C197 C 0.20018 0.04984 0.19425 0.0
H198 H 0.16219 0.00914 0.24287 0.0
H199 H 0.10789 0.09316 0.1979 0.0
C200 C 0.92893 0.05858 0.2364 0.0
N201 N 0.96452 0.0573 0.22526 0.0
C202 C 0.89266 0.06153 0.22367 0.0
C203 C 0.9304 0.06247 0.18825 0.0
C204 C 0.96586 0.05957 0.20165 0.0
C205 C 0.8931 0.0631 0.19915 0.0
H206 H 0.92866 0.05741 0.25521 0.0
H207 H 0.99448 0.05879 0.19317 0.0
O208 O 0.09968 0.04197 0.27528 0.0
O209 O 0.00635 0.04898 0.27749 0.0
O210 O 0.05041 0.09879 0.24342 0.0
O211 O 0.04944 0.00499 0.23548 0.0
H212 H 0.14017 0.00584 0.3091 0.0
H213 H 0.14331 0.10308 0.26115 0.0
H214 H 0.20679 0.02771 0.32524 0.0
H215 H 0.20962 0.12359 0.27824 0.0
H216 H 0.92179 0.95155 0.30118 0.0
H217 H 0.01263 0.06451 0.32299 0.0
H218 H 0.95555 0.98839 0.27007 0.0
H219 H 0.97778 0.02645 0.35317 0.0
H220 H 0.10304 0.13958 0.35344 0.0
H221 H 0.02076 0.21396 0.31396 0.0
H222 H 0.0286 0.86276 0.28267 0.0
H223 H 0.0659 0.93652 0.3427 0.0
H224 H 0.02615 0.12184 0.20147 0.0
H225 H 0.09852 0.15536 0.2622 0.0
H226 H 0.04639 0.18518 0.18319 0.0
H227 H 0.11787 0.21781 0.24277 0.0
H228 H 0.0756 0.00949 0.1924 0.0
H229 H 0.98228 0.962 0.23452 0.0
H230 H 0.04144 0.97886 0.1573 0.0
H231 H 0.94972 0.93225 0.19869 0.0
H232 H 0.22308 0.00721 0.21929 0.0
H233 H 0.16731 0.09365 0.17355 0.0
H234 H 0.865 0.063 0.23313 0.0
H235 H 0.93215 0.0639 0.16944 0.0
Li236 Li 0.01532 0.05171 0.7709 0.0
Li237 Li 0.08892 0.04874 0.77556 0.0
Li238 Li 0.05711 0.08162 0.74209 0.0
Li239 Li 0.05595 0.00791 0.74544 0.0
C240 C 0.05792 0.13698 0.77583 0.0
N241 N 0.06807 0.21921 0.77386 0.0
C242 C 0.09558 0.15418 0.78089 0.0
C243 C 0.02534 0.16156 0.76995 0.0
C244 C 0.10011 0.19584 0.77977 0.0
C245 C 0.03112 0.20308 0.76898 0.0
C246 C 0.06259 0.98882 0.79957 0.0
C247 C 0.11076 0.94869 0.8208 0.0
N248 N 0.09264 0.95916 0.84107 0.0
C249 C 0.04432 0.99905 0.82058 0.0
C250 C 0.09594 0.96327 0.79963 0.0
C251 C 0.05999 0.98376 0.84138 0.0
C252 C 0.93911 0.02526 0.78545 0.0
N253 N 0.96702 0.05506 0.78793 0.0
C254 C 0.92896 0.08763 0.81771 0.0
C255 C 0.9626 0.08595 0.80363 0.0
C256 C 0.8996 0.05731 0.81541 0.0
C257 C 0.90455 0.02627 0.79876 0.0
H258 H 0.94398 0.00036 0.77339 0.0
H259 H 0.98561 0.10885 0.80556 0.0
C260 C 0.1694 0.03989 0.79283 0.0
N261 N 0.13166 0.05177 0.7983 0.0
C262 C 0.2003 0.04121 0.80981 0.0
C263 C 0.15299 0.06751 0.83762 0.0
C264 C 0.12308 0.06584 0.82007 0.0
C265 C 0.1922 0.05463 0.83262 0.0
H266 H 0.17551 0.0293 0.77531 0.0
H267 H 0.09287 0.07568 0.82379 0.0
C268 C 0.97135 0.04053 0.73146 0.0
N269 N 0.88959 0.03193 0.72301 0.0
C270 C 0.95536 0.00312 0.72449 0.0
C271 C 0.9458 0.07362 0.73398 0.0
C272 C 0.91393 0.99939 0.72032 0.0
C273 C 0.90454 0.06863 0.72969 0.0
C274 C 0.12479 0.02465 0.72565 0.0
C275 C 0.12431 0.03901 0.70295 0.0
C276 C 0.14623 0.9897 0.73078 0.0
C277 C 0.14518 0.01799 0.68568 0.0
C278 C 0.16663 0.9695 0.71301 0.0
N279 N 0.16569 0.98394 0.69102 0.0
C280 C 0.09699 0.14628 0.7214 0.0
C281 C 0.03034 0.13537 0.7071 0.0
C282 C 0.10121 0.17909 0.70692 0.0
N283 N 0.06182 0.12546 0.7214 0.0
C284 C 0.03325 0.16791 0.69228 0.0
C285 C 0.06903 0.19061 0.69223 0.0
H286 H 0.12176 0.13742 0.73273 0.0
H287 H 0.00297 0.11789 0.70711 0.0
C288 C 0.05133 0.92345 0.74176 0.0
N289 N 0.05561 0.95713 0.72911 0.0
C290 C 0.04932 0.88566 0.73065 0.0
C291 C 0.05616 0.91777 0.69361 0.0
C292 C 0.05749 0.95504 0.70544 0.0
C293 C 0.05215 0.88242 0.70632 0.0
H294 H 0.04884 0.92596 0.76049 0.0
H295 H 0.05947 0.98236 0.69572 0.0
O296 O 0.05306 0.09621 0.77635 0.0
O297 O 0.04839 0.00433 0.77908 0.0
O298 O 0.01181 0.04476 0.73569 0.0
O299 O 0.1043 0.04463 0.74276 0.0
H300 H 0.12113 0.13553 0.78539 0.0
H301 H 0.996 0.14867 0.76599 0.0
H302 H 0.12912 0.20958 0.78353 0.0
H303 H 0.00624 0.22246 0.76431 0.0
H304 H 0.13673 0.92914 0.82114 0.0
H305 H 0.01857 0.01888 0.82086 0.0
H306 H 0.11054 0.95524 0.78352 0.0
H307 H 0.04629 0.99158 0.85779 0.0
H308 H 0.9259 0.1124 0.83016 0.0
H309 H 0.88253 0.00235 0.79661 0.0
H310 H 0.23021 0.03149 0.80521 0.0
H311 H 0.14538 0.07938 0.85467 0.0
H312 H 0.97466 0.97719 0.72243 0.0
H313 H 0.95765 0.10274 0.73945 0.0
H314 H 0.90112 0.97059 0.71499 0.0
H315 H 0.88439 0.09392 0.73171 0.0
H316 H 0.10775 0.0659 0.69863 0.0
H317 H 0.14665 0.978 0.74822 0.0
H318 H 0.14496 0.02867 0.66801 0.0
H319 H 0.18312 0.94227 0.7167 0.0
H320 H 0.12941 0.19545 0.70729 0.0
H321 H 0.00784 0.17447 0.6809 0.0
H322 H 0.0456 0.85915 0.74098 0.0
H323 H 0.05702 0.91691 0.67475 0.0
H324 H 0.37663 0.09293 0.08756 0.0
C325 C 0.39522 0.06622 0.08936 0.0
H326 H 0.40273 0.01235 0.10805 0.0
H327 H 0.2793 0.11866 0.1749 0.0
H328 H 0.33664 0.16243 0.18289 0.0
H329 H 0.40019 0.15192 0.16234 0.0
H330 H 0.40661 0.09793 0.13346 0.0
C331 C 0.38513 0.03932 0.10536 0.0
C332 C 0.34791 0.04433 0.11904 0.0
C333 C 0.34512 0.07531 0.13639 0.0
C334 C 0.30894 0.08048 0.14884 0.0
C335 C 0.30642 0.11263 0.16541 0.0
C336 C 0.33906 0.1381 0.1701 0.0
C337 C 0.3748 0.13226 0.15848 0.0
C338 C 0.378 0.10126 0.14184 0.0
H339 H 0.26449 0.03665 0.18858 0.0
C340 C 0.23722 0.0482 0.18027 0.0
H341 H 0.2114 0.06722 0.14823 0.0
H342 H 0.34351 0.98169 0.08716 0.0
H343 H 0.28685 0.93668 0.08002 0.0
H344 H 0.22477 0.9446 0.10232 0.0
H345 H 0.2189 0.99769 0.13184 0.0
C346 C 0.23846 0.05845 0.15775 0.0
C347 C 0.2761 0.05389 0.14443 0.0
C348 C 0.27908 0.02267 0.12728 0.0
C349 C 0.31502 0.01785 0.11459 0.0
C350 C 0.31705 0.98653 0.09746 0.0
C351 C 0.28473 0.9605 0.09316 0.0
C352 C 0.24977 0.96498 0.1057 0.0
C353 C 0.24679 0.99562 0.12258 0.0
H354 H 0.01367 0.38532 0.59607 0.0
C355 C 0.04396 0.39644 0.59343 0.0
H356 H 0.10556 0.38726 0.60265 0.0
H357 H 0.06182 0.30061 0.69635 0.0
H358 H 0.08273 0.36592 0.71206 0.0
H359 H 0.09701 0.42164 0.6859 0.0
H360 H 0.09025 0.41244 0.64385 0.0
C361 C 0.07466 0.37776 0.60442 0.0
C362 C 0.06721 0.34359 0.62006 0.0
C363 C 0.07211 0.34918 0.64456 0.0
C364 C 0.06438 0.31687 0.65963 0.0
C365 C 0.06816 0.32378 0.68407 0.0
C366 C 0.07993 0.36121 0.69333 0.0
C367 C 0.08793 0.3926 0.6786 0.0
C368 C 0.084 0.38689 0.6545 0.0
H369 H 0.10501 0.23687 0.67502 0.0
C370 C 0.07457 0.2256 0.67689 0.0
H371 H 0.01339 0.23504 0.66696 0.0
H372 H 0.05801 0.32172 0.57381 0.0
H373 H 0.0372 0.25641 0.5581 0.0
H374 H 0.02293 0.20067 0.58424 0.0
H375 H 0.0296 0.20986 0.62628 0.0
C376 C 0.04436 0.2447 0.6657 0.0
C377 C 0.05242 0.2788 0.65012 0.0
C378 C 0.04764 0.27317 0.62561 0.0
C379 C 0.05537 0.30547 0.61054 0.0
C380 C 0.05166 0.29855 0.5861 0.0
C381 C 0.03995 0.26112 0.57682 0.0
C382 C 0.03195 0.22972 0.59154 0.0
C383 C 0.03582 0.23545 0.61565 0.0
H384 H 0.64984 0.03123 0.1353 0.0
C385 C 0.65262 0.05594 0.12337 0.0
H386 H 0.69023 0.10353 0.11312 0.0
H387 H 0.78449 0.11979 0.21041 0.0
H388 H 0.73716 0.17467 0.21534 0.0
H389 H 0.68038 0.18327 0.18736 0.0
H390 H 0.67062 0.13706 0.15421 0.0
C391 C 0.6854 0.07965 0.1253 0.0
C392 C 0.71786 0.07258 0.14303 0.0
C393 C 0.72292 0.09954 0.16239 0.0
C394 C 0.7555 0.0944 0.17861 0.0
C395 C 0.76013 0.12214 0.19764 0.0
C396 C 0.73319 0.15379 0.20067 0.0
C397 C 0.70124 0.15865 0.18491 0.0
C398 C 0.69601 0.13195 0.16595 0.0
H399 H 0.85944 0.0736 0.16608 0.0
C400 C 0.85589 0.06605 0.18428 0.0
H401 H 0.81293 0.05092 0.20943 0.0
H402 H 0.71806 0.01649 0.10707 0.0
H403 H 0.76375 0.96024 0.10297 0.0
H404 H 0.81796 0.94916 0.13228 0.0
H405 H 0.82706 0.99463 0.16574 0.0
C406 C 0.81849 0.05868 0.19156 0.0
C407 C 0.78303 0.06236 0.17535 0.0
C408 C 0.77721 0.03459 0.15636 0.0
C409 C 0.74503 0.04013 0.13994 0.0
C410 C 0.74115 0.01308 0.12051 0.0
C411 C 0.76731 0.98071 0.11786 0.0
C412 C 0.79791 0.97455 0.13432 0.0
C413 C 0.80294 0.00104 0.15338 0.0
H414 H 0.10378 0.66762 0.62418 0.0
C415 C 0.07397 0.65693 0.61875 0.0
H416 H 0.01173 0.66965 0.62054 0.0
H417 H 0.10416 0.78586 0.7035 0.0
H418 H 0.1247 0.72405 0.72182 0.0
H419 H 0.10834 0.65812 0.70328 0.0
H420 H 0.07213 0.65371 0.66602 0.0
C421 C 0.04194 0.6776 0.62649 0.0
C422 C 0.04722 0.71675 0.63948 0.0
C423 C 0.06657 0.71872 0.66183 0.0
C424 C 0.07403 0.7567 0.67313 0.0
C425 C 0.09595 0.75786 0.69465 0.0
C426 C 0.10822 0.72257 0.70529 0.0
C427 C 0.09916 0.68546 0.6948 0.0
C428 C 0.07859 0.68337 0.67333 0.0
H429 H 0.03177 0.81911 0.70342 0.0
C430 C 0.04868 0.84212 0.69473 0.0
H431 H 0.08397 0.85467 0.66565 0.0
H432 H 0.0098 0.72402 0.5965 0.0
H433 H 0.98587 0.78546 0.57929 0.0
H434 H 0.9951 0.85084 0.59998 0.0
H435 H 0.0285 0.85511 0.63802 0.0
C436 C 0.06641 0.83249 0.67453 0.0
C437 C 0.06004 0.79251 0.66267 0.0
C438 C 0.03986 0.79042 0.64058 0.0
C439 C 0.03374 0.7526 0.62889 0.0
C440 C 0.01449 0.75169 0.60651 0.0
C441 C 0.00069 0.78682 0.59633 0.0
C442 C 0.00595 0.82363 0.60796 0.0
C443 C 0.02529 0.82562 0.62979 0.0
H444 H 0.34517 0.02337 0.95858 0.0
C445 C 0.36617 0.04751 0.95524 0.0
H446 H 0.38029 0.09434 0.93248 0.0
H447 H 0.25125 0.98479 0.86758 0.0
H448 H 0.30204 0.93257 0.86872 0.0
H449 H 0.36386 0.9413 0.89304 0.0
H450 H 0.37483 0.00182 0.91673 0.0
C451 C 0.35934 0.07071 0.93667 0.0
C452 C 0.32292 0.06557 0.92123 0.0
C453 C 0.31787 0.03058 0.90675 0.0
C454 C 0.28321 0.02641 0.89179 0.0
C455 C 0.27779 0.99026 0.8785 0.0
C456 C 0.30659 0.95991 0.8791 0.0
C457 C 0.34132 0.96476 0.89286 0.0
C458 C 0.34709 0.99961 0.90652 0.0
H459 H 0.2562 0.05612 0.84415 0.0
C460 C 0.22557 0.05594 0.85038 0.0
H461 H 0.19008 0.0547 0.88056 0.0
H462 H 0.32308 0.13597 0.947 0.0
H463 H 0.27333 0.18914 0.94484 0.0
H464 H 0.21472 0.18312 0.91771 0.0
H465 H 0.20535 0.12383 0.89266 0.0
C466 C 0.22004 0.05546 0.87355 0.0
C467 C 0.25477 0.0581 0.89045 0.0
C468 C 0.25979 0.09297 0.90496 0.0
C469 C 0.29385 0.09667 0.92039 0.0
C470 C 0.298 0.13177 0.93477 0.0
C471 C 0.26964 0.1625 0.93374 0.0
C472 C 0.23662 0.1591 0.91848 0.0
C473 C 0.23159 0.12485 0.90422 0.0
H474 H 0.0027 0.34991 0.45102 0.0
C475 C 0.03204 0.36437 0.45238 0.0
H476 H 0.08851 0.36994 0.43666 0.0
H477 H 0.03104 0.1891 0.39689 0.0
H478 H 0.03963 0.16796 0.4369 0.0
H479 H 0.055 0.21741 0.46868 0.0
H480 H 0.06126 0.28837 0.4607 0.0
C481 C 0.06035 0.35346 0.43714 0.0
C482 C 0.05183 0.3232 0.41812 0.0
C483 C 0.04942 0.28173 0.42303 0.0
C484 C 0.04209 0.25304 0.40458 0.0
C485 C 0.03807 0.212 0.4101 0.0
C486 C 0.04265 0.19948 0.43302 0.0
C487 C 0.05119 0.22734 0.45092 0.0
C488 C 0.05456 0.26801 0.4461 0.0
H489 H 0.09103 0.21056 0.36739 0.0
C490 C 0.06412 0.21051 0.35618 0.0
H491 H 0.00649 0.23631 0.35099 0.0
H492 H 0.05212 0.40065 0.40292 0.0
H493 H 0.04352 0.42158 0.36283 0.0
H494 H 0.03338 0.37171 0.33075 0.0
H495 H 0.03114 0.30045 0.33844 0.0
C496 C 0.03409 0.2359 0.3615 0.0
C497 C 0.03862 0.2658 0.38117 0.0
C498 C 0.04016 0.30733 0.37634 0.0
C499 C 0.04671 0.33607 0.39484 0.0
C500 C 0.04774 0.37743 0.38952 0.0
C501 C 0.04282 0.38992 0.36661 0.0
C502 C 0.03701 0.36182 0.34853 0.0
C503 C 0.03574 0.32098 0.35321 0.0
H504 H 0.74815 0.02722 0.93462 0.0
C505 C 0.72326 0.04724 0.93048 0.0
H506 H 0.69961 0.08803 0.90594 0.0
H507 H 0.8648 0.14127 0.86577 0.0
H508 H 0.84371 0.2023 0.88587 0.0
H509 H 0.78462 0.20241 0.911 0.0
H510 H 0.74601 0.14157 0.91597 0.0
C511 C 0.72428 0.06833 0.91078 0.0
C512 C 0.76015 0.06759 0.89575 0.0
C513 C 0.78272 0.10333 0.89325 0.0
C514 C 0.81732 0.10304 0.87916 0.0
C515 C 0.83871 0.13947 0.87658 0.0
C516 C 0.82688 0.17481 0.88798 0.0
C517 C 0.79359 0.17489 0.9021 0.0
C518 C 0.77164 0.13971 0.90476 0.0
H519 H 0.83548 0.04639 0.82245 0.0
C520 C 0.86378 0.05727 0.83019 0.0
H521 H 0.89423 0.0772 0.8611 0.0
H522 H 0.72058 0.99514 0.89401 0.0
H523 H 0.74405 0.93297 0.87614 0.0
H524 H 0.8084 0.93057 0.8557 0.0
H525 H 0.84895 0.99055 0.8524 0.0
C526 C 0.86589 0.0672 0.85307 0.0
C527 C 0.82972 0.06685 0.8679 0.0
C528 C 0.80777 0.03078 0.87096 0.0
C529 C 0.7721 0.03152 0.88415 0.0
C530 C 0.74899 0.99586 0.88528 0.0
C531 C 0.76196 0.95999 0.87495 0.0
C532 C 0.79807 0.95869 0.86334 0.0
C533 C 0.82088 0.99351 0.86136 0.0
H534 H 0.10156 0.71685 0.41941 0.0
C535 C 0.07168 0.70585 0.42321 0.0
H536 H 0.00963 0.70971 0.41422 0.0
H537 H 0.0204 0.88856 0.38046 0.0
H538 H 0.98269 0.89728 0.41588 0.0
H539 H 0.97307 0.84064 0.44214 0.0
H540 H 0.0009 0.77491 0.43309 0.0
C541 C 0.03984 0.72043 0.41123 0.0
C542 C 0.04454 0.75386 0.39476 0.0
C543 C 0.02806 0.79208 0.40036 0.0
C544 C 0.03402 0.82483 0.38538 0.0
C545 C 0.01714 0.8627 0.39134 0.0
C546 C 0.99536 0.86813 0.41161 0.0
C547 C 0.98991 0.83624 0.42638 0.0
C548 C 0.00603 0.79862 0.42094 0.0
H549 H 0.0258 0.83331 0.32245 0.0
C550 C 0.04459 0.85802 0.32912 0.0
H551 H 0.08328 0.87783 0.3571 0.0
H552 H 0.07545 0.68327 0.37729 0.0
H553 H 0.11405 0.6748 0.34217 0.0
H554 H 0.12769 0.73253 0.31737 0.0
H555 H 0.10229 0.79894 0.32734 0.0
C556 C 0.06373 0.85428 0.34991 0.0
C557 C 0.05643 0.8193 0.36485 0.0
C558 C 0.07245 0.78096 0.35906 0.0
C559 C 0.06589 0.748 0.37384 0.0
C560 C 0.08077 0.70964 0.36715 0.0
C561 C 0.10275 0.70431 0.34695 0.0
C562 C 0.11033 0.73679 0.33295 0.0
C563 C 0.09544 0.77473 0.33884 0.0
loop_
_geom_bond_atom_site_label_1
_geom_bond_atom_site_label_2
_geom_bond_distance
_geom_bond_site_symmetry_2
_ccdc_geom_bond_type
H0 O26 0.856 . S
H1 O29 0.854 . S
H2 C37 0.930 . S
H3 C38 0.930 . S
H4 C40 0.930 . S
H5 C41 0.941 . S
H6 C43 0.931 . S
H7 C44 0.930 . S
H8 C46 0.930 1_565 S
H9 C47 0.929 1_565 S
H10 C49 0.930 . S
H11 C50 0.931 . S
H12 C52 0.921 1_565 S
H13 C53 0.929 1_565 S
H14 C55 0.931 . S
H15 C56 0.930 . S
H16 C58 0.930 1_565 S
H17 C59 0.932 1_565 S
H18 C61 0.930 . S
H19 C62 0.929 . S
H20 C64 0.931 . S
H21 C65 0.930 . S
H22 C67 0.929 . S
H23 C68 0.931 . S
H24 C70 0.930 1_565 S
H25 C71 0.929 1_565 S
O26 H0 0.856 . S
O26 C72 1.300 . S
O27 C72 1.209 . S
O28 C73 1.199 . S
O29 H1 0.854 . S
O29 C73 1.297 . S
C30 C31 1.404 . S
C30 C35 1.397 1_556 S
C30 C36 1.492 . S
C31 C30 1.404 . S
C31 C32 1.396 . S
C31 C42 1.492 . S
C32 C31 1.396 . S
C32 C33 1.397 1_556 S
C32 C48 1.509 . S
C33 C32 1.397 1_554 S
C33 C34 1.412 . S
C33 C54 1.485 . S
C34 C33 1.412 . S
C34 C35 1.388 . S
C34 C60 1.490 . S
C35 C30 1.397 1_554 S
C35 C34 1.388 . S
C35 C66 1.519 . S
C36 C30 1.492 . S
C36 C37 1.363 . S
C36 C41 1.390 . S
C37 H2 0.930 . S
C37 C36 1.363 . S
C37 C38 1.372 . S
C38 H3 0.930 . S
C38 C37 1.372 . S
C38 C39 1.383 . S
C39 C38 1.383 . S
C39 C40 1.395 . S
C40 H4 0.930 . S
C40 C39 1.395 . S
C40 C41 1.362 . S
C41 H5 0.941 . S
C41 C36 1.390 . S
C41 C40 1.362 . S
C42 C31 1.492 . S
C42 C43 1.377 . S
C42 C47 1.397 . S
C43 H6 0.931 . S
C43 C42 1.377 . S
C43 C44 1.376 . S
C44 H7 0.930 . S
C44 C43 1.376 . S
C44 C45 1.376 . S
C45 C44 1.376 . S
C45 C46 1.378 . S
C45 C72 1.486 . S
C46 H8 0.930 1_545 S
C46 C45 1.378 . S
C46 C47 1.376 . S
C47 H9 0.929 1_545 S
C47 C42 1.397 . S
C47 C46 1.376 . S
C48 C32 1.509 . S
C48 C49 1.391 . S
C48 C53 1.386 . S
C49 H10 0.930 . S
C49 C48 1.391 . S
C49 C50 1.375 . S
C50 H11 0.931 . S
C50 C49 1.375 . S
C50 C51 1.375 . S
C51 C50 1.375 . S
C51 C52 1.369 . S
C52 H12 0.921 1_545 S
C52 C51 1.369 . S
C52 C53 1.400 . S
C53 H13 0.929 1_545 S
C53 C48 1.386 . S
C53 C52 1.400 . S
C54 C33 1.485 . S
C54 C55 1.394 . S
C54 C59 1.360 . S
C55 H14 0.931 . S
C55 C54 1.394 . S
C55 C56 1.372 . S
C56 H15 0.930 . S
C56 C55 1.372 . S
C56 C57 1.397 . S
C57 C56 1.397 . S
C57 C58 1.390 . S
C57 C73 1.476 . S
C58 H16 0.930 1_545 S
C58 C57 1.390 . S
C58 C59 1.366 . S
C59 H17 0.932 1_545 S
C59 C54 1.360 . S
C59 C58 1.366 . S
C60 C34 1.490 . S
C60 C61 1.380 . S
C60 C65 1.386 . S
C61 H18 0.930 . S
C61 C60 1.380 . S
C61 C62 1.381 . S
C62 H19 0.929 . S
C62 C61 1.381 . S
C62 C63 1.371 . S
C63 C62 1.371 . S
C63 C64 1.380 . S
C64 H20 0.931 . S
C64 C63 1.380 . S
C64 C65 1.387 . S
C65 H21 0.930 . S
C65 C60 1.386 . S
C65 C64 1.387 . S
C66 C35 1.519 . S
C66 C67 1.377 . S
C66 C71 1.361 . S
C67 H22 0.929 . S
C67 C66 1.377 . S
C67 C68 1.386 . S
C68 H23 0.931 . S
C68 C67 1.386 . S
C68 C69 1.363 . S
C69 C68 1.363 . S
C69 C70 1.385 . S
C70 H24 0.930 1_545 S
C70 C69 1.385 . S
C70 C71 1.396 . S
C71 H25 0.929 1_545 S
C71 C66 1.361 . S
C71 C70 1.396 . S
C72 O26 1.300 . S
C72 O27 1.209 . S
C72 C45 1.486 . S
C73 O28 1.199 . S
C73 O29 1.297 . S
C73 C57 1.476 . S
H74 O100 0.856 . S
H75 O103 0.854 . S
H76 C111 0.930 1_655 S
H77 C112 0.930 1_655 S
H78 C114 0.930 . S
H79 C115 0.930 . S
H80 C117 0.931 . S
H81 C118 0.930 . S
H82 C120 0.930 . S
H83 C121 0.929 . S
H84 C123 0.930 . S
H85 C124 0.931 . S
H86 C126 0.930 . S
H87 C127 0.929 . S
H88 C129 0.931 . S
H89 C130 0.930 . S
H90 C132 0.930 . S
H91 C133 0.932 . S
H92 C135 0.930 1_655 S
H93 C136 0.929 1_655 S
H94 C138 0.931 . S
H95 C139 0.930 . S
H96 C141 0.929 . S
H97 C142 0.931 . S
H98 C144 0.930 . S
H99 C145 0.929 . S
O100 H74 0.856 . S
O100 C146 1.300 . S
O101 C146 1.209 . S
O102 C147 1.199 . S
O103 H75 0.854 . S
O103 C147 1.297 . S
C104 C105 1.404 . S
C104 C109 1.397 . S
C104 C110 1.492 . S
C105 C104 1.404 . S
C105 C106 1.396 . S
C105 C116 1.492 . S
C106 C105 1.396 . S
C106 C107 1.397 . S
C106 C122 1.509 . S
C107 C106 1.397 . S
C107 C108 1.412 . S
C107 C128 1.485 . S
C108 C107 1.412 . S
C108 C109 1.388 . S
C108 C134 1.490 . S
C109 C104 1.397 . S
C109 C108 1.388 . S
C109 C140 1.519 . S
C110 C104 1.492 . S
C110 C111 1.363 . S
C110 C115 1.390 . S
C111 H76 0.930 1_455 S
C111 C110 1.363 . S
C111 C112 1.372 . S
C112 H77 0.930 1_455 S
C112 C111 1.372 . S
C112 C113 1.383 . S
C113 C112 1.383 . S
C113 C114 1.395 . S
C114 H78 0.930 . S
C114 C113 1.395 . S
C114 C115 1.362 . S
C115 H79 0.930 . S
C115 C110 1.390 . S
C115 C114 1.362 . S
C116 C105 1.492 . S
C116 C117 1.377 . S
C116 C121 1.397 . S
C117 H80 0.931 . S
C117 C116 1.377 . S
C117 C118 1.376 . S
C118 H81 0.930 . S
C118 C117 1.376 . S
C118 C119 1.376 . S
C119 C118 1.376 . S
C119 C120 1.378 . S
C119 C146 1.486 . S
C120 H82 0.930 . S
C120 C119 1.378 . S
C120 C121 1.376 . S
C121 H83 0.929 . S
C121 C116 1.397 . S
C121 C120 1.376 . S
C122 C106 1.509 . S
C122 C123 1.391 . S
C122 C127 1.386 . S
C123 H84 0.930 . S
C123 C122 1.391 . S
C123 C124 1.375 . S
C124 H85 0.931 . S
C124 C123 1.375 . S
C124 C125 1.375 . S
C125 C124 1.375 . S
C125 C126 1.361 . S
C126 H86 0.930 . S
C126 C125 1.361 . S
C126 C127 1.399 . S
C127 H87 0.929 . S
C127 C122 1.386 . S
C127 C126 1.399 . S
C128 C107 1.485 . S
C128 C129 1.394 . S
C128 C133 1.360 . S
C129 H88 0.931 . S
C129 C128 1.394 . S
C129 C130 1.372 . S
C130 H89 0.930 . S
C130 C129 1.372 . S
C130 C131 1.397 . S
C131 C130 1.397 . S
C131 C132 1.390 . S
C131 C147 1.476 . S
C132 H90 0.930 . S
C132 C131 1.390 . S
C132 C133 1.366 . S
C133 H91 0.932 . S
C133 C128 1.360 . S
C133 C132 1.366 . S
C134 C108 1.490 . S
C134 C135 1.380 . S
C134 C139 1.386 . S
C135 H92 0.930 1_455 S
C135 C134 1.380 . S
C135 C136 1.381 . S
C136 H93 0.929 1_455 S
C136 C135 1.381 . S
C136 C137 1.371 . S
C137 C136 1.371 . S
C137 C138 1.380 . S
C138 H94 0.931 . S
C138 C137 1.380 . S
C138 C139 1.387 . S
C139 H95 0.930 . S
C139 C134 1.386 . S
C139 C138 1.387 . S
C140 C109 1.519 . S
C140 C141 1.377 . S
C140 C145 1.361 . S
C141 H96 0.929 . S
C141 C140 1.377 . S
C141 C142 1.386 . S
C142 H97 0.931 . S
C142 C141 1.386 . S
C142 C143 1.363 . S
C143 C142 1.363 . S
C143 C144 1.385 . S
C144 H98 0.930 . S
C144 C143 1.385 . S
C144 C145 1.396 . S
C145 H99 0.929 . S
C145 C140 1.361 . S
C145 C144 1.396 . S
C146 O100 1.300 . S
C146 O101 1.209 . S
C146 C119 1.486 . S
C147 O102 1.199 . S
C147 O103 1.297 . S
C147 C131 1.476 . S
Li148 N165 1.990 . S
Li148 O208 1.956 . S
Li148 O209 1.970 1_455 S
Li148 O210 1.961 . S
Li149 N173 1.990 1_545 S
Li149 O208 1.970 . S
Li149 O209 1.956 1_455 S
Li149 O211 1.961 . S
Li150 N195 1.990 . S
Li150 O208 1.961 . S
Li150 O210 1.956 . S
Li150 O211 1.970 . S
Li151 N201 1.990 . S
Li151 O209 1.961 . S
Li151 O210 1.970 1_655 S
Li151 O211 1.956 1_655 S
C152 C154 1.348 . S
C152 C155 1.356 . S
C152 O208 1.325 . S
N153 C156 1.314 . S
N153 C157 1.279 . S
C154 C152 1.348 . S
C154 C156 1.353 . S
C154 H212 0.929 . S
C155 C152 1.356 . S
C155 C157 1.358 . S
C155 H213 0.930 . S
C156 N153 1.314 . S
C156 C154 1.353 . S
C156 H214 0.930 . S
C157 N153 1.279 . S
C157 C155 1.358 . S
C157 H215 0.930 . S
C158 C161 1.348 . S
C158 C162 1.356 . S
C158 O209 1.325 . S
C159 N160 1.279 . S
C159 C162 1.358 . S
C159 H216 0.930 . S
N160 C159 1.279 . S
N160 C163 1.314 . S
C161 C158 1.348 . S
C161 C163 1.353 . S
C161 H217 0.929 . S
C162 C158 1.356 . S
C162 C159 1.358 . S
C162 H218 0.930 . S
C163 N160 1.314 . S
C163 C161 1.353 . S
C163 H219 0.930 . S
C164 N165 1.314 . S
C164 C169 1.353 . S
C164 H170 0.929 . S
N165 Li148 1.990 . S
N165 C164 1.314 . S
N165 C167 1.279 . S
C166 C167 1.358 . S
C166 C168 1.356 . S
C166 H220 0.930 . S
C167 N165 1.279 . S
C167 C166 1.358 . S
C167 H171 0.930 . S
C168 C166 1.356 . S
C168 C169 1.348 . S
C169 C164 1.353 . S
C169 C168 1.348 . S
C169 H221 0.929 1_455 S
H170 C164 0.929 . S
H171 C167 0.930 . S
C172 N173 1.314 . S
C172 C174 1.353 . S
C172 H178 0.930 . S
N173 Li149 1.990 1_565 S
N173 C172 1.314 . S
N173 C176 1.279 . S
C174 C172 1.353 . S
C174 C177 1.348 . S
C174 H222 0.929 . S
C175 C176 1.358 . S
C175 C177 1.356 . S
C175 H223 0.930 1_455 S
C176 N173 1.279 . S
C176 C175 1.358 . S
C176 H179 0.930 1_455 S
C177 C174 1.348 . S
C177 C175 1.356 . S
H178 C172 0.930 . S
H179 C176 0.930 1_655 S
C180 C182 1.348 . S
C180 C183 1.356 . S
C180 O210 1.325 . S
N181 C184 1.314 . S
N181 C185 1.279 . S
C182 C180 1.348 . S
C182 C184 1.353 . S
C182 H224 0.929 1_455 S
C183 C180 1.356 . S
C183 C185 1.358 . S
C183 H225 0.930 . S
C184 N181 1.314 . S
C184 C182 1.353 . S
C184 H226 0.930 1_455 S
C185 N181 1.279 . S
C185 C183 1.358 . S
C185 H227 0.930 . S
C186 C187 1.348 . S
C186 C188 1.356 . S
C186 O211 1.325 1_565 S
C187 C186 1.348 . S
C187 C189 1.353 . S
C187 H228 0.929 . S
C188 C186 1.356 . S
C188 C190 1.358 . S
C188 H229 0.930 1_455 S
C189 C187 1.353 . S
C189 N191 1.314 . S
C189 H230 0.930 . S
C190 C188 1.358 . S
C190 N191 1.279 . S
C190 H231 0.930 1_455 S
N191 C189 1.314 . S
N191 C190 1.279 . S
C192 C194 1.353 . S
C192 N195 1.314 . S
C192 H198 0.930 . S
C193 N195 1.279 . S
C193 C196 1.358 . S
C193 H199 0.930 . S
C194 C192 1.353 . S
C194 C197 1.348 . S
C194 H232 0.929 . S
N195 Li150 1.990 . S
N195 C192 1.314 . S
N195 C193 1.279 . S
C196 C193 1.358 . S
C196 C197 1.356 . S
C196 H233 0.930 . S
C197 C194 1.348 . S
C197 C196 1.356 . S
H198 C192 0.930 . S
H199 C193 0.930 . S
C200 N201 1.314 . S
C200 C202 1.353 . S
C200 H206 0.930 . S
N201 Li151 1.990 . S
N201 C200 1.314 . S
N201 C204 1.279 . S
C202 C200 1.353 . S
C202 C205 1.348 . S
C202 H234 0.929 . S
C203 C204 1.358 . S
C203 C205 1.356 . S
C203 H235 0.930 . S
C204 N201 1.279 . S
C204 C203 1.358 . S
C204 H207 0.930 . S
C205 C202 1.348 . S
C205 C203 1.356 . S
H206 C200 0.930 . S
H207 C204 0.930 . S
O208 Li148 1.956 . S
O208 Li149 1.970 . S
O208 Li150 1.961 . S
O208 C152 1.325 . S
O209 Li148 1.970 1_655 S
O209 Li149 1.956 1_655 S
O209 Li151 1.961 . S
O209 C158 1.325 . S
O210 Li148 1.961 . S
O210 Li150 1.956 . S
O210 Li151 1.970 1_455 S
O210 C180 1.325 . S
O211 Li149 1.961 . S
O211 Li150 1.970 . S
O211 Li151 1.956 1_455 S
O211 C186 1.325 1_545 S
H212 C154 0.929 . S
H213 C155 0.930 . S
H214 C156 0.930 . S
H215 C157 0.930 . S
H216 C159 0.930 . S
H217 C161 0.929 . S
H218 C162 0.930 . S
H219 C163 0.930 . S
H220 C166 0.930 . S
H221 C169 0.929 1_655 S
H222 C174 0.929 . S
H223 C175 0.930 1_655 S
H224 C182 0.929 1_655 S
H225 C183 0.930 . S
H226 C184 0.930 1_655 S
H227 C185 0.930 . S
H228 C187 0.929 . S
H229 C188 0.930 1_655 S
H230 C189 0.930 . S
H231 C190 0.930 1_655 S
H232 C194 0.929 . S
H233 C196 0.930 . S
H234 C202 0.929 . S
H235 C203 0.930 . S
Li236 N253 1.990 1_455 S
Li236 O296 1.956 . S
Li236 O297 1.970 1_545 S
Li236 O298 1.961 . S
Li237 N261 1.990 . S
Li237 O296 1.970 . S
Li237 O297 1.956 1_545 S
Li237 O299 1.961 . S
Li238 N283 1.990 . S
Li238 O296 1.961 . S
Li238 O298 1.956 . S
Li238 O299 1.970 . S
Li239 N289 1.990 . S
Li239 O297 1.961 . S
Li239 O298 1.970 1_565 S
Li239 O299 1.956 1_565 S
C240 C242 1.348 . S
C240 C243 1.356 . S
C240 O296 1.325 . S
N241 C244 1.314 . S
N241 C245 1.279 . S
C242 C240 1.348 . S
C242 C244 1.353 . S
C242 H300 0.929 . S
C243 C240 1.356 . S
C243 C245 1.358 . S
C243 H301 0.930 . S
C244 N241 1.314 . S
C244 C242 1.353 . S
C244 H302 0.930 . S
C245 N241 1.279 . S
C245 C243 1.358 . S
C245 H303 0.930 . S
C246 C249 1.348 . S
C246 C250 1.356 . S
C246 O297 1.325 . S
C247 N248 1.279 . S
C247 C250 1.358 . S
C247 H304 0.930 . S
N248 C247 1.279 . S
N248 C251 1.314 . S
C249 C246 1.348 . S
C249 C251 1.353 . S
C249 H305 0.929 . S
C250 C246 1.356 . S
C250 C247 1.358 . S
C250 H306 0.930 . S
C251 N248 1.314 . S
C251 C249 1.353 . S
C251 H307 0.930 . S
C252 N253 1.314 . S
C252 C257 1.353 . S
C252 H258 0.924 1_545 S
N253 Li236 1.990 1_655 S
N253 C252 1.314 . S
N253 C255 1.279 . S
C254 C255 1.358 . S
C254 C256 1.356 . S
C254 H308 0.930 . S
C255 N253 1.279 . S
C255 C254 1.358 . S
C255 H259 0.930 . S
C256 C254 1.356 . S
C256 C257 1.348 . S
C257 C252 1.353 . S
C257 C256 1.348 . S
C257 H309 0.929 1_545 S
H258 C252 0.924 1_565 S
H259 C255 0.930 . S
C260 N261 1.314 . S
C260 C262 1.353 . S
C260 H266 0.930 . S
N261 Li237 1.990 . S
N261 C260 1.314 . S
N261 C264 1.279 . S
C262 C260 1.353 . S
C262 C265 1.348 . S
C262 H310 0.929 . S
C263 C264 1.358 . S
C263 C265 1.356 . S
C263 H311 0.930 1_545 S
C264 N261 1.279 . S
C264 C263 1.358 . S
C264 H267 0.930 1_545 S
C265 C262 1.348 . S
C265 C263 1.356 . S
H266 C260 0.930 . S
H267 C264 0.930 1_565 S
C268 C270 1.348 . S
C268 C271 1.356 . S
C268 O298 1.325 1_655 S
N269 C272 1.314 . S
N269 C273 1.279 . S
C270 C268 1.348 . S
C270 C272 1.353 . S
C270 H312 0.929 1_545 S
C271 C268 1.356 . S
C271 C273 1.358 . S
C271 H313 0.930 . S
C272 N269 1.314 . S
C272 C270 1.353 . S
C272 H314 0.930 1_545 S
C273 N269 1.279 . S
C273 C271 1.358 . S
C273 H315 0.930 . S
C274 C275 1.348 . S
C274 C276 1.356 . S
C274 O299 1.325 . S
C275 C274 1.348 . S
C275 C277 1.353 . S
C275 H316 0.929 . S
C276 C274 1.356 . S
C276 C278 1.358 . S
C276 H317 0.930 1_545 S
C277 C275 1.353 . S
C277 N279 1.314 . S
C277 H318 0.930 . S
C278 C276 1.358 . S
C278 N279 1.279 . S
C278 H319 0.930 1_545 S
N279 C277 1.314 . S
N279 C278 1.279 . S
C280 C282 1.353 . S
C280 N283 1.314 . S
C280 H286 0.930 . S
C281 N283 1.279 . S
C281 C284 1.358 . S
C281 H287 0.930 . S
C282 C280 1.353 . S
C282 C285 1.348 . S
C282 H320 0.929 . S
N283 Li238 1.990 . S
N283 C280 1.314 . S
N283 C281 1.279 . S
C284 C281 1.358 . S
C284 C285 1.356 . S
C284 H321 0.930 . S
C285 C282 1.348 . S
C285 C284 1.356 . S
H286 C280 0.930 . S
H287 C281 0.930 . S
C288 N289 1.314 . S
C288 C290 1.353 . S
C288 H294 0.930 . S
N289 Li239 1.990 . S
N289 C288 1.314 . S
N289 C292 1.279 . S
C290 C288 1.353 . S
C290 C293 1.348 . S
C290 H322 0.929 . S
C291 C292 1.358 . S
C291 C293 1.356 . S
C291 H323 0.930 . S
C292 N289 1.279 . S
C292 C291 1.358 . S
C292 H295 0.930 . S
C293 C290 1.348 . S
C293 C291 1.356 . S
H294 C288 0.930 . S
H295 C292 0.930 . S
O296 Li236 1.956 . S
O296 Li237 1.970 . S
O296 Li238 1.961 . S
O296 C240 1.325 . S
O297 Li236 1.970 1_565 S
O297 Li237 1.956 1_565 S
O297 Li239 1.961 . S
O297 C246 1.325 . S
O298 Li236 1.961 . S
O298 Li238 1.956 . S
O298 Li239 1.970 1_545 S
O298 C268 1.325 1_455 S
O299 Li237 1.961 . S
O299 Li238 1.970 . S
O299 Li239 1.956 1_545 S
O299 C274 1.325 . S
H300 C242 0.929 . S
H301 C243 0.930 . S
H302 C244 0.930 . S
H303 C245 0.930 . S
H304 C247 0.930 . S
H305 C249 0.929 . S
H306 C250 0.930 . S
H307 C251 0.930 . S
H308 C254 0.930 . S
H309 C257 0.929 1_565 S
H310 C262 0.929 . S
H311 C263 0.930 1_565 S
H312 C270 0.929 1_565 S
H313 C271 0.930 . S
H314 C272 0.930 1_565 S
H315 C273 0.930 . S
H316 C275 0.929 . S
H317 C276 0.930 1_565 S
H318 C277 0.930 . S
H319 C278 0.930 1_565 S
H320 C282 0.929 . S
H321 C284 0.930 . S
H322 C290 0.929 . S
H323 C291 0.930 . S
H324 C325 0.951 . S
C325 H324 0.951 . S
C325 C331 1.265 . S
H326 C331 0.950 . S
H327 C335 0.949 . S
H328 C336 0.950 . S
H329 C337 0.951 . S
H330 C338 0.951 . S
C331 C325 1.265 . S
C331 H326 0.950 . S
C331 C332 1.478 . S
C332 C331 1.478 . S
C332 C333 1.397 . S
C332 C349 1.394 . S
C333 C332 1.397 . S
C333 C334 1.438 . S
C333 C338 1.429 . S
C334 C333 1.438 . S
C334 C335 1.428 . S
C334 C347 1.394 . S
C335 H327 0.949 . S
C335 C334 1.428 . S
C335 C336 1.345 . S
C336 H328 0.950 . S
C336 C335 1.345 . S
C336 C337 1.424 . S
C337 H329 0.951 . S
C337 C336 1.424 . S
C337 C338 1.347 . S
C338 H330 0.951 . S
C338 C333 1.429 . S
C338 C337 1.347 . S
H339 C340 0.951 . S
C340 H339 0.951 . S
C340 C346 1.265 . S
H341 C346 0.950 . S
H342 C350 0.949 . S
H343 C351 0.950 . S
H344 C352 0.951 . S
H345 C353 0.951 . S
C346 C340 1.265 . S
C346 H341 0.950 . S
C346 C347 1.478 . S
C347 C334 1.394 . S
C347 C346 1.478 . S
C347 C348 1.397 . S
C348 C347 1.397 . S
C348 C349 1.438 . S
C348 C353 1.429 1_545 S
C349 C332 1.394 . S
C349 C348 1.438 . S
C349 C350 1.428 1_545 S
C350 H342 0.949 . S
C350 C349 1.428 1_565 S
C350 C351 1.345 . S
C351 H343 0.950 . S
C351 C350 1.345 . S
C351 C352 1.424 . S
C352 H344 0.951 . S
C352 C351 1.424 . S
C352 C353 1.347 . S
C353 H345 0.951 . S
C353 C348 1.429 1_565 S
C353 C352 1.347 . S
H354 C355 0.951 . S
C355 H354 0.951 . S
C355 C361 1.265 . S
H356 C361 0.950 . S
H357 C365 0.949 . S
H358 C366 0.950 . S
H359 C367 0.951 . S
H360 C368 0.951 . S
C361 C355 1.265 . S
C361 H356 0.950 . S
C361 C362 1.478 . S
C362 C361 1.478 . S
C362 C363 1.397 . S
C362 C379 1.394 . S
C363 C362 1.397 . S
C363 C364 1.438 . S
C363 C368 1.429 . S
C364 C363 1.438 . S
C364 C365 1.428 . S
C364 C377 1.394 . S
C365 H357 0.949 . S
C365 C364 1.428 . S
C365 C366 1.345 . S
C366 H358 0.950 . S
C366 C365 1.345 . S
C366 C367 1.424 . S
C367 H359 0.951 . S
C367 C366 1.424 . S
C367 C368 1.347 . S
C368 H360 0.951 . S
C368 C363 1.429 . S
C368 C367 1.347 . S
H369 C370 0.951 . S
C370 H369 0.951 . S
C370 C376 1.265 . S
H371 C376 0.950 . S
H372 C380 0.949 . S
H373 C381 0.950 . S
H374 C382 0.948 1_655 S
H375 C383 0.951 . S
C376 C370 1.265 . S
C376 H371 0.950 . S
C376 C377 1.478 . S
C377 C364 1.394 . S
C377 C376 1.478 . S
C377 C378 1.397 . S
C378 C377 1.397 . S
C378 C379 1.438 . S
C378 C383 1.429 . S
C379 C362 1.394 . S
C379 C378 1.438 . S
C379 C380 1.428 . S
C380 H372 0.949 . S
C380 C379 1.428 . S
C380 C381 1.345 . S
C381 H373 0.950 . S
C381 C380 1.345 . S
C381 C382 1.424 . S
C382 H374 0.948 1_455 S
C382 C381 1.424 . S
C382 C383 1.347 . S
C383 H375 0.951 . S
C383 C378 1.429 . S
C383 C382 1.347 . S
H384 C385 0.951 . S
C385 H384 0.951 . S
C385 C391 1.265 . S
H386 C391 0.950 . S
H387 C395 0.949 . S
H388 C396 0.950 . S
H389 C397 0.951 . S
H390 C398 0.951 . S
C391 C385 1.265 . S
C391 H386 0.950 . S
C391 C392 1.478 . S
C392 C391 1.478 . S
C392 C393 1.397 . S
C392 C409 1.394 . S
C393 C392 1.397 . S
C393 C394 1.438 . S
C393 C398 1.429 . S
C394 C393 1.438 . S
C394 C395 1.428 . S
C394 C407 1.394 . S
C395 H387 0.949 . S
C395 C394 1.428 . S
C395 C396 1.345 . S
C396 H388 0.950 . S
C396 C395 1.345 . S
C396 C397 1.424 . S
C397 H389 0.951 . S
C397 C396 1.424 . S
C397 C398 1.347 . S
C398 H390 0.951 . S
C398 C393 1.429 . S
C398 C397 1.347 . S
H399 C400 0.951 . S
C400 H399 0.951 . S
C400 C406 1.265 . S
H401 C406 0.950 . S
H402 C410 0.950 . S
H403 C411 0.950 . S
H404 C412 0.951 . S
H405 C413 0.951 . S
C406 C400 1.265 . S
C406 H401 0.950 . S
C406 C407 1.478 . S
C407 C394 1.394 . S
C407 C406 1.478 . S
C407 C408 1.397 . S
C408 C407 1.397 . S
C408 C409 1.438 . S
C408 C413 1.429 1_545 S
C409 C392 1.394 . S
C409 C408 1.438 . S
C409 C410 1.432 . S
C410 H402 0.950 . S
C410 C409 1.432 . S
C410 C411 1.340 1_545 S
C411 H403 0.950 . S
C411 C410 1.340 1_565 S
C411 C412 1.424 . S
C412 H404 0.951 . S
C412 C411 1.424 . S
C412 C413 1.347 . S
C413 H405 0.951 . S
C413 C408 1.429 1_565 S
C413 C412 1.347 . S
H414 C415 0.951 . S
C415 H414 0.951 . S
C415 C421 1.265 . S
H416 C421 0.950 . S
H417 C425 0.949 . S
H418 C426 0.950 . S
H419 C427 0.951 . S
H420 C428 0.951 . S
C421 C415 1.265 . S
C421 H416 0.950 . S
C421 C422 1.478 . S
C422 C421 1.478 . S
C422 C423 1.397 . S
C422 C439 1.394 . S
C423 C422 1.397 . S
C423 C424 1.438 . S
C423 C428 1.429 . S
C424 C423 1.438 . S
C424 C425 1.428 . S
C424 C437 1.394 . S
C425 H417 0.949 . S
C425 C424 1.428 . S
C425 C426 1.345 . S
C426 H418 0.950 . S
C426 C425 1.345 . S
C426 C427 1.424 . S
C427 H419 0.951 . S
C427 C426 1.424 . S
C427 C428 1.347 . S
C428 H420 0.951 . S
C428 C423 1.429 . S
C428 C427 1.347 . S
H429 C430 0.951 . S
C430 H429 0.951 . S
C430 C436 1.265 . S
H431 C436 0.950 . S
H432 C440 0.949 . S
H433 C441 0.950 . S
H434 C442 0.951 . S
H435 C443 0.951 . S
C436 C430 1.265 . S
C436 H431 0.950 . S
C436 C437 1.478 . S
C437 C424 1.394 . S
C437 C436 1.478 . S
C437 C438 1.397 . S
C438 C437 1.397 . S
C438 C439 1.438 . S
C438 C443 1.429 . S
C439 C422 1.394 . S
C439 C438 1.438 . S
C439 C440 1.428 . S
C440 H432 0.949 . S
C440 C439 1.428 . S
C440 C441 1.345 . S
C441 H433 0.950 . S
C441 C440 1.345 . S
C441 C442 1.424 . S
C442 H434 0.951 . S
C442 C441 1.424 . S
C442 C443 1.347 . S
C443 H435 0.951 . S
C443 C438 1.429 . S
C443 C442 1.347 . S
H444 C445 0.951 . S
C445 H444 0.951 . S
C445 C451 1.265 . S
H446 C451 0.950 . S
H447 C455 0.949 . S
H448 C456 0.950 . S
H449 C457 0.951 . S
H450 C458 0.951 . S
C451 C445 1.265 . S
C451 H446 0.950 . S
C451 C452 1.478 . S
C452 C451 1.478 . S
C452 C453 1.397 . S
C452 C469 1.394 . S
C453 C452 1.397 . S
C453 C454 1.438 . S
C453 C458 1.429 1_545 S
C454 C453 1.438 . S
C454 C455 1.428 1_545 S
C454 C467 1.394 . S
C455 H447 0.949 . S
C455 C454 1.428 1_565 S
C455 C456 1.345 . S
C456 H448 0.950 . S
C456 C455 1.345 . S
C456 C457 1.424 . S
C457 H449 0.951 . S
C457 C456 1.424 . S
C457 C458 1.347 . S
C458 H450 0.951 . S
C458 C453 1.429 1_565 S
C458 C457 1.347 . S
H459 C460 0.951 . S
C460 H459 0.951 . S
C460 C466 1.265 . S
H461 C466 0.950 . S
H462 C470 0.949 . S
H463 C471 0.950 . S
H464 C472 0.951 . S
H465 C473 0.951 . S
C466 C460 1.265 . S
C466 H461 0.950 . S
C466 C467 1.478 . S
C467 C454 1.394 . S
C467 C466 1.478 . S
C467 C468 1.397 . S
C468 C467 1.397 . S
C468 C469 1.438 . S
C468 C473 1.429 . S
C469 C452 1.394 . S
C469 C468 1.438 . S
C469 C470 1.428 . S
C470 H462 0.949 . S
C470 C469 1.428 . S
C470 C471 1.345 . S
C471 H463 0.950 . S
C471 C470 1.345 . S
C471 C472 1.424 . S
C472 H464 0.951 . S
C472 C471 1.424 . S
C472 C473 1.347 . S
C473 H465 0.951 . S
C473 C468 1.429 . S
C473 C472 1.347 . S
H474 C475 0.951 . S
C475 H474 0.951 . S
C475 C481 1.265 . S
H476 C481 0.950 . S
H477 C485 0.949 . S
H478 C486 0.950 . S
H479 C487 0.951 . S
H480 C488 0.951 . S
C481 C475 1.265 . S
C481 H476 0.950 . S
C481 C482 1.478 . S
C482 C481 1.478 . S
C482 C483 1.397 . S
C482 C499 1.394 . S
C483 C482 1.397 . S
C483 C484 1.438 . S
C483 C488 1.429 . S
C484 C483 1.438 . S
C484 C485 1.428 . S
C484 C497 1.394 . S
C485 H477 0.949 . S
C485 C484 1.428 . S
C485 C486 1.345 . S
C486 H478 0.950 . S
C486 C485 1.345 . S
C486 C487 1.424 . S
C487 H479 0.951 . S
C487 C486 1.424 . S
C487 C488 1.347 . S
C488 H480 0.951 . S
C488 C483 1.429 . S
C488 C487 1.347 . S
H489 C490 0.951 . S
C490 H489 0.951 . S
C490 C496 1.265 . S
H491 C496 0.950 1_655 S
H492 C500 0.949 . S
H493 C501 0.950 . S
H494 C502 0.951 1_655 S
H495 C503 0.951 . S
C496 C490 1.265 . S
C496 H491 0.950 1_455 S
C496 C497 1.478 . S
C497 C484 1.394 . S
C497 C496 1.478 . S
C497 C498 1.397 . S
C498 C497 1.397 . S
C498 C499 1.438 . S
C498 C503 1.429 . S
C499 C482 1.394 . S
C499 C498 1.438 . S
C499 C500 1.428 . S
C500 H492 0.949 . S
C500 C499 1.428 . S
C500 C501 1.345 . S
C501 H493 0.950 . S
C501 C500 1.345 . S
C501 C502 1.424 . S
C502 H494 0.951 1_455 S
C502 C501 1.424 . S
C502 C503 1.347 . S
C503 H495 0.951 . S
C503 C498 1.429 . S
C503 C502 1.347 . S
H504 C505 0.951 . S
C505 H504 0.951 . S
C505 C511 1.265 . S
H506 C511 0.950 . S
H507 C515 0.949 . S
H508 C516 0.950 . S
H509 C517 0.951 . S
H510 C518 0.951 . S
C511 C505 1.265 . S
C511 H506 0.950 . S
C511 C512 1.478 . S
C512 C511 1.478 . S
C512 C513 1.397 . S
C512 C529 1.380 1_545 S
C513 C512 1.397 . S
C513 C514 1.438 . S
C513 C518 1.429 . S
C514 C513 1.438 . S
C514 C515 1.428 . S
C514 C527 1.394 . S
C515 H507 0.949 . S
C515 C514 1.428 . S
C515 C516 1.345 . S
C516 H508 0.950 . S
C516 C515 1.345 . S
C516 C517 1.424 . S
C517 H509 0.951 . S
C517 C516 1.424 . S
C517 C518 1.347 . S
C518 H510 0.951 . S
C518 C513 1.429 . S
C518 C517 1.347 . S
H519 C520 0.951 . S
C520 H519 0.951 . S
C520 C526 1.265 . S
H521 C526 0.950 . S
H522 C530 0.949 . S
H523 C531 0.950 . S
H524 C532 0.951 . S
H525 C533 0.951 . S
C526 C520 1.265 . S
C526 H521 0.950 . S
C526 C527 1.478 . S
C527 C514 1.394 . S
C527 C526 1.478 . S
C527 C528 1.397 1_545 S
C528 C527 1.397 1_565 S
C528 C529 1.439 . S
C528 C533 1.429 . S
C529 C512 1.380 1_565 S
C529 C528 1.439 . S
C529 C530 1.440 . S
C530 H522 0.949 . S
C530 C529 1.440 . S
C530 C531 1.345 . S
C531 H523 0.950 . S
C531 C530 1.345 . S
C531 C532 1.424 . S
C532 H524 0.951 . S
C532 C531 1.424 . S
C532 C533 1.347 . S
C533 H525 0.951 . S
C533 C528 1.429 . S
C533 C532 1.347 . S
H534 C535 0.951 . S
C535 H534 0.951 . S
C535 C541 1.265 . S
H536 C541 0.950 . S
H537 C545 0.949 . S
H538 C546 0.950 . S
H539 C547 0.951 . S
H540 C548 0.951 . S
C541 C535 1.265 . S
C541 H536 0.950 . S
C541 C542 1.478 . S
C542 C541 1.478 . S
C542 C543 1.397 . S
C542 C559 1.394 . S
C543 C542 1.397 . S
C543 C544 1.438 . S
C543 C548 1.429 1_455 S
C544 C543 1.438 . S
C544 C545 1.428 1_455 S
C544 C557 1.394 . S
C545 H537 0.949 . S
C545 C544 1.428 1_655 S
C545 C546 1.345 . S
C546 H538 0.950 . S
C546 C545 1.345 . S
C546 C547 1.424 . S
C547 H539 0.951 . S
C547 C546 1.424 . S
C547 C548 1.347 . S
C548 H540 0.951 . S
C548 C543 1.429 1_655 S
C548 C547 1.347 . S
H549 C550 0.951 . S
C550 H549 0.951 . S
C550 C556 1.265 . S
H551 C556 0.950 . S
H552 C560 0.949 . S
H553 C561 0.950 . S
H554 C562 0.951 . S
H555 C563 0.951 . S
C556 C550 1.265 . S
C556 H551 0.950 . S
C556 C557 1.478 . S
C557 C544 1.394 . S
C557 C556 1.478 . S
C557 C558 1.397 . S
C558 C557 1.397 . S
C558 C559 1.438 . S
C558 C563 1.429 . S
C559 C542 1.394 . S
C559 C558 1.438 . S
C559 C560 1.428 . S
C560 H552 0.949 . S
C560 C559 1.428 . S
C560 C561 1.345 . S
C561 H553 0.950 . S
C561 C560 1.345 . S
C561 C562 1.424 . S
C562 H554 0.951 . S
C562 C561 1.424 . S
C562 C563 1.347 . S
C563 H555 0.951 . S
C563 C558 1.429 . S
C563 C562 1.347 . S
C340 C197 2.239 . S
C325 C69 2.232 . S
C370 C285 2.243 . S
C355 C143 2.227 . S
C400 C205 1.474 . S
C385 C63 1.415 . S
C430 C293 1.455 . S
C415 C137 1.320 . S
C460 C265 1.432 . S
C445 C39 1.397 . S
C490 C168 1.375 . S
C475 C113 1.326 . S
C520 C256 0.684 . S
C505 C51 0.674 . S
C535 C125 0.732 . S
C550 C177 0.730 . S
