# Generated by pormake.
# Topology pts, (4,4)-cn, num edge types: 1
# Building blocks:
#     Node 0, Type 0, BuildingBlock: NAWXER_clean_linker_0, # of connection points: 4
#     Node 1, Type 0, BuildingBlock: NAWXER_clean_linker_0, # of connection points: 4
#     Node 2, Type 1, BuildingBlock: UXUYUI_clean_sbu_0, # of connection points: 4
#     Node 3, Type 1, BuildingBlock: UXUYUI_clean_sbu_0, # of connection points: 4
#     Edge 4, Type (0, 1), None
#     Edge 5, Type (0, 1), None
#     Edge 6, Type (0, 1), None
#     Edge 7, Type (0, 1), None
#     Edge 8, Type (0, 1), None
#     Edge 9, Type (0, 1), None
#     Edge 10, Type (0, 1), None
#     Edge 11, Type (0, 1), None
# Relax obj value: 0.000
# Max RMSD: 0.009
# Mean RMSD: 0.008
data_MOF--net-pts--node1-UXUYUI_clean_sbu_0--node2-NAWXER_clean_linker_0--edge1-none
_symmetry_space_group_name_H-M    P1
_symmetry_Int_Tables_number       1
_symmetry_cell_setting            triclinic
loop_
_symmetry_equiv_pos_as_xyz
'x, y, z'
_cell_length_a     21.746835
_cell_length_b     21.746833
_cell_length_c     31.16222
_cell_angle_alpha  90.032375
_cell_angle_beta   89.967635
_cell_angle_gamma 89.995321
loop_
_atom_site_label
_atom_site_type_symbol
_atom_site_fract_x
_atom_site_fract_y
_atom_site_fract_z
_atom_type_partial_charge
C0 C 0.71386 0.04816 0.93833 0.0
C1 C 0.72231 1.00264 0.90674 0.0
C2 C 0.66178 0.04763 0.96463 0.0
C3 C 0.61718 1.00141 0.96007 0.0
C4 C 0.67738 0.9565 0.90226 0.0
C5 C 0.62518 0.9562 0.92844 0.0
C6 C 0.56035 1.00205 0.98622 0.0
C7 C 0.71239 0.96129 0.08026 0.0
C8 C 0.72203 0.00818 0.11071 0.0
C9 C 0.66047 0.96196 0.05385 0.0
C10 C 0.61705 0.00944 0.05735 0.0
C11 C 0.67837 0.05579 0.11391 0.0
C12 C 0.62617 0.05603 0.0878 0.0
C13 C 0.5603 0.00887 0.03125 0.0
C14 C 0.29475 0.96627 0.07835 0.0
C15 C 0.28972 0.00881 0.11214 0.0
C16 C 0.34679 0.96585 0.05197 0.0
C17 C 0.39401 0.00912 0.05815 0.0
C18 C 0.3375 0.05118 0.11885 0.0
C19 C 0.38909 0.05131 0.09212 0.0
C20 C 0.45046 0.00852 0.03142 0.0
C21 C 0.29429 0.04328 0.9396 0.0
C22 C 0.28977 1.00112 0.90557 0.0
C23 C 0.34632 0.04394 0.96595 0.0
C24 C 0.39398 1.0012 0.95952 0.0
C25 C 0.33795 0.9593 0.8986 0.0
C26 C 0.38948 0.95932 0.92533 0.0
C27 C 0.45046 1.00207 0.98618 0.0
H28 H 0.74679 0.08511 0.94213 0.0
H29 H 0.65576 0.08414 0.98792 0.0
H30 H 0.68269 0.92026 0.87871 0.0
H31 H 0.59113 0.92035 0.92416 0.0
H32 H 0.74422 0.92323 0.0774 0.0
H33 H 0.65357 0.92464 0.03132 0.0
H34 H 0.6846 0.09322 0.13641 0.0
H35 H 0.59303 0.09293 0.09115 0.0
H36 H 0.25906 0.9324 0.07294 0.0
H37 H 0.35038 0.93119 0.02713 0.0
H38 H 0.3347 0.08463 0.14454 0.0
H39 H 0.42517 0.08465 0.0979 0.0
H40 H 0.25826 0.07675 0.94518 0.0
H41 H 0.34957 0.07842 0.99092 0.0
H42 H 0.33553 0.9262 0.87266 0.0
H43 H 0.42589 0.9264 0.91934 0.0
N44 N 0.50548 0.99868 0.96553 0.0
N45 N 0.50546 0.01209 0.05201 0.0
C46 C 0.04815 0.71387 0.57893 0.0
C47 C 1.00263 0.72232 0.61052 0.0
C48 C 0.04762 0.66179 0.55263 0.0
C49 C 1.0014 0.61719 0.55719 0.0
C50 C 0.95649 0.67739 0.615 0.0
C51 C 0.95619 0.62519 0.58882 0.0
C52 C 1.00204 0.56035 0.53104 0.0
C53 C 0.96128 0.7124 0.437 0.0
C54 C 0.00817 0.72204 0.40655 0.0
C55 C 0.96195 0.66048 0.46341 0.0
C56 C 0.00943 0.61706 0.45991 0.0
C57 C 0.05578 0.67838 0.40335 0.0
C58 C 0.05602 0.62618 0.42946 0.0
C59 C 0.00886 0.56031 0.48601 0.0
C60 C 0.96626 0.29476 0.43891 0.0
C61 C 0.0088 0.28973 0.40512 0.0
C62 C 0.96584 0.3468 0.46529 0.0
C63 C 0.00911 0.39402 0.45911 0.0
C64 C 0.05117 0.33751 0.39841 0.0
C65 C 0.0513 0.3891 0.42514 0.0
C66 C 0.00851 0.45047 0.48584 0.0
C67 C 0.04327 0.2943 0.57766 0.0
C68 C 1.00111 0.28978 0.61169 0.0
C69 C 0.04393 0.34633 0.55131 0.0
C70 C 1.00119 0.39399 0.55774 0.0
C71 C 0.95928 0.33796 0.61866 0.0
C72 C 0.95931 0.38949 0.59193 0.0
C73 C 1.00206 0.45047 0.53108 0.0
H74 H 0.0851 0.74679 0.57513 0.0
H75 H 0.08413 0.65577 0.52934 0.0
H76 H 0.92025 0.6827 0.63855 0.0
H77 H 0.92034 0.59114 0.5931 0.0
H78 H 0.92322 0.74423 0.43986 0.0
H79 H 0.92463 0.65358 0.48594 0.0
H80 H 0.09321 0.68461 0.38085 0.0
H81 H 0.09292 0.59304 0.42611 0.0
H82 H 0.93239 0.25907 0.44432 0.0
H83 H 0.93118 0.35039 0.49013 0.0
H84 H 0.08462 0.33471 0.37272 0.0
H85 H 0.08464 0.42518 0.41936 0.0
H86 H 0.07674 0.25827 0.57208 0.0
H87 H 0.07841 0.34958 0.52634 0.0
H88 H 0.92619 0.33553 0.6446 0.0
H89 H 0.92639 0.4259 0.59792 0.0
N90 N 0.99866 0.50549 0.55173 0.0
N91 N 0.01208 0.50547 0.46525 0.0
Li92 Li 0.00819 0.0623 0.28675 0.0
Li93 Li 1.00449 0.94996 0.28791 0.0
Li94 Li 0.0623 0.0082 0.23051 0.0
Li95 Li 0.94995 1.00449 0.22935 0.0
C96 C 0.11187 0.02941 0.32594 0.0
N97 N 0.17755 0.0826 0.39223 0.0
C98 C 0.11092 1.00319 0.36688 0.0
C99 C 0.14713 0.08211 0.3186 0.0
C100 C 0.14422 0.03088 0.4 0.0
C101 C 0.17972 0.10851 0.35255 0.0
C102 C 0.88619 0.98537 0.31573 0.0
C103 C 0.7987 0.91766 0.32204 0.0
N104 N 0.78895 0.93836 0.36266 0.0
C105 C 0.87454 0.00674 0.35728 0.0
C106 C 0.84735 0.94111 0.29777 0.0
C107 C 0.82549 0.98212 0.38059 0.0
C108 C 0.01068 0.19003 0.30553 0.0
N109 N 0.00803 0.13293 0.32314 0.0
C110 C 0.00541 0.17564 0.39385 0.0
C111 C 0.00551 0.12491 0.36639 0.0
C112 C 0.00855 0.23515 0.37659 0.0
C113 C 0.0114 0.24208 0.33182 0.0
H114 H 0.01203 0.19523 0.27107 0.0
H115 H 1.00397 0.07901 0.37959 0.0
C116 C 0.02659 0.82527 0.30913 0.0
N117 N 1.00462 0.87948 0.32451 0.0
C118 C 0.02762 0.77309 0.33523 0.0
C119 C 0.98571 0.83401 0.39312 0.0
C120 C 0.98481 0.88478 0.36573 0.0
C121 C 0.00706 0.77696 0.37796 0.0
H122 H 0.04333 0.82249 0.27652 0.0
H123 H 0.96975 0.92884 0.37774 0.0
C124 C 0.0294 0.11188 0.19132 0.0
N125 N 0.08259 0.17756 0.12503 0.0
C126 C 1.00319 0.11093 0.15038 0.0
C127 C 0.0821 0.14714 0.19866 0.0
C128 C 0.03087 0.14422 0.11726 0.0
C129 C 0.1085 0.17973 0.16471 0.0
C130 C 0.98536 0.8862 0.20153 0.0
C131 C 0.00673 0.87455 0.15998 0.0
C132 C 0.9411 0.84736 0.21949 0.0
C133 C 0.9821 0.8255 0.13667 0.0
C134 C 0.91764 0.79871 0.19522 0.0
N135 N 0.93835 0.78896 0.1546 0.0
C136 C 0.19002 0.01069 0.21173 0.0
C137 C 0.1249 0.00551 0.15087 0.0
C138 C 0.24207 0.01141 0.18544 0.0
N139 N 0.13292 0.00804 0.19412 0.0
C140 C 0.17564 0.00542 0.12341 0.0
C141 C 0.23514 0.00856 0.14067 0.0
H142 H 0.19522 0.01204 0.24619 0.0
H143 H 0.079 1.00398 0.13767 0.0
C144 C 0.82526 0.0266 0.20813 0.0
N145 N 0.87947 1.00463 0.19275 0.0
C146 C 0.77308 0.02763 0.18203 0.0
C147 C 0.834 0.98572 0.12414 0.0
C148 C 0.88477 0.98482 0.15153 0.0
C149 C 0.77695 0.00707 0.1393 0.0
H150 H 0.82248 0.04334 0.24074 0.0
H151 H 0.92883 0.96976 0.13952 0.0
O152 O 0.07868 1.00349 0.29325 0.0
O153 O 0.93435 0.00885 0.29253 0.0
O154 O 1.00348 0.07869 0.22401 0.0
O155 O 0.00884 0.93436 0.22473 0.0
H156 H 0.0847 0.96202 0.37311 0.0
H157 H 0.14912 0.10262 0.28711 0.0
H158 H 0.14353 0.01124 0.43188 0.0
H159 H 0.20677 0.14958 0.34734 0.0
H160 H 0.76848 0.88325 0.30849 0.0
H161 H 0.90316 0.04175 0.37155 0.0
H162 H 0.85389 0.92574 0.26517 0.0
H163 H 0.8164 0.99789 0.4129 0.0
H164 H 1.0038 0.1684 0.42822 0.0
H165 H 0.01323 0.28727 0.31729 0.0
H166 H 0.04388 0.73012 0.32183 0.0
H167 H 0.97088 0.83982 0.42604 0.0
H168 H 0.96201 0.08471 0.14415 0.0
H169 H 0.10261 0.14913 0.23015 0.0
H170 H 0.01124 0.14354 0.08538 0.0
H171 H 0.14957 0.20678 0.16992 0.0
H172 H 0.04174 0.90317 0.14571 0.0
H173 H 0.92573 0.8539 0.25209 0.0
H174 H 0.99788 0.81641 0.10436 0.0
H175 H 0.88324 0.76849 0.20877 0.0
H176 H 0.28726 0.01324 0.19997 0.0
H177 H 0.16839 1.00381 0.08904 0.0
H178 H 0.73011 0.0439 0.19543 0.0
H179 H 0.83981 0.97089 0.09122 0.0
Li180 Li 0.95035 0.00734 0.78819 0.0
Li181 Li 0.06282 1.00356 0.78676 0.0
Li182 Li 1.00355 0.06283 0.7305 0.0
Li183 Li 0.00733 0.95036 0.72907 0.0
C184 C 0.98443 0.11973 0.82114 0.0
N185 N 0.93311 0.20391 0.87724 0.0
C186 C 0.01384 0.13369 0.85982 0.0
C187 C 0.92949 0.14949 0.81072 0.0
C188 C 0.98703 0.17614 0.88783 0.0
C189 C 0.9041 0.19164 0.83956 0.0
C190 C 0.02827 0.89401 0.8219 0.0
C191 C 0.09437 0.8091 0.84084 0.0
N192 N 0.0773 0.81531 0.8826 0.0
C193 C 0.01067 0.89882 0.86491 0.0
C194 C 0.06985 0.84819 0.80967 0.0
C195 C 0.03624 0.85892 0.89515 0.0
C196 C 0.82507 0.9888 0.8087 0.0
N197 N 0.88022 0.00628 0.82516 0.0
C198 C 0.83519 0.02091 0.89447 0.0
C199 C 0.88616 0.02187 0.86723 0.0
C200 C 0.77736 1.00369 0.87832 0.0
C201 C 0.77277 0.98748 0.83474 0.0
H202 H 0.82169 0.97588 0.77528 0.0
H203 H 0.93067 0.03455 0.87982 0.0
C204 C 0.19104 1.00161 0.80567 0.0
N205 N 0.13368 1.00233 0.82304 0.0
C206 C 0.24283 1.00054 0.83215 0.0
C207 C 0.17574 1.00304 0.89397 0.0
C208 C 0.12527 1.00321 0.8663 0.0
C209 C 0.23543 1.0014 0.8769 0.0
H210 H 0.19679 1.00251 0.77129 0.0
H211 H 0.07926 1.00458 0.87936 0.0
C212 C 0.894 0.02828 0.69536 0.0
N213 N 0.8153 0.07731 0.63466 0.0
C214 C 0.89882 0.01068 0.65235 0.0
C215 C 0.84818 0.06986 0.70759 0.0
C216 C 0.85891 0.03625 0.62211 0.0
C217 C 0.80909 0.09438 0.67642 0.0
C218 C 0.11973 0.98444 0.69612 0.0
C219 C 0.13368 0.01385 0.65744 0.0
C220 C 0.14948 0.92949 0.70654 0.0
C221 C 0.17613 0.98704 0.62943 0.0
C222 C 0.19163 0.90411 0.67771 0.0
N223 N 0.2039 0.93312 0.64002 0.0
C224 C 1.0016 0.19105 0.71159 0.0
C225 C 1.0032 0.12528 0.65096 0.0
C226 C 1.00052 0.24284 0.68511 0.0
N227 N 1.00232 0.13369 0.69422 0.0
C228 C 1.00303 0.17575 0.62329 0.0
C229 C 1.00139 0.23544 0.64036 0.0
H230 H 1.0025 0.1968 0.74597 0.0
H231 H 1.00458 0.07927 0.6379 0.0
C232 C 0.98879 0.82508 0.70856 0.0
N233 N 0.00627 0.88023 0.69209 0.0
C234 C 0.98747 0.77278 0.68252 0.0
C235 C 0.0209 0.8352 0.62279 0.0
C236 C 0.02186 0.88617 0.65003 0.0
C237 C 1.00368 0.77737 0.63894 0.0
H238 H 0.97587 0.8217 0.74198 0.0
H239 H 0.03454 0.93067 0.63744 0.0
O240 O 0.00942 0.07737 0.79363 0.0
O241 O 1.00401 0.93311 0.79188 0.0
O242 O 0.9331 1.00402 0.72538 0.0
O243 O 0.07736 0.00943 0.72363 0.0
H244 H 0.05702 0.11228 0.86812 0.0
H245 H 0.90688 0.14032 0.78061 0.0
H246 H 0.00919 0.18709 0.91796 0.0
H247 H 0.86141 0.21469 0.83192 0.0
H248 H 0.12679 0.77366 0.83179 0.0
H249 H 0.97812 0.93339 0.87498 0.0
H250 H 0.08265 0.8423 0.77646 0.0
H251 H 0.02342 0.86264 0.9286 0.0
H252 H 0.84131 0.03267 0.92796 0.0
H253 H 0.72911 0.97457 0.82068 0.0
H254 H 0.2882 1.00021 0.81779 0.0
H255 H 0.16818 1.00356 0.92833 0.0
H256 H 0.93338 0.97813 0.64228 0.0
H257 H 0.84229 0.08267 0.7408 0.0
H258 H 0.86264 0.02343 0.58866 0.0
H259 H 0.77365 0.1268 0.68547 0.0
H260 H 0.11227 0.05703 0.64914 0.0
H261 H 0.14031 0.90689 0.73665 0.0
H262 H 0.18709 0.00919 0.5993 0.0
H263 H 0.21468 0.86142 0.68534 0.0
H264 H 1.00019 0.28821 0.69947 0.0
H265 H 1.00355 0.16819 0.58893 0.0
H266 H 0.97456 0.72912 0.69658 0.0
H267 H 0.03266 0.84132 0.5893 0.0
loop_
_geom_bond_atom_site_label_1
_geom_bond_atom_site_label_2
_geom_bond_distance
_geom_bond_site_symmetry_2
_ccdc_geom_bond_type
C0 C1 1.384 1_545 S
C0 C2 1.384 . S
C0 H28 0.931 . S
C1 C0 1.384 1_565 S
C1 C4 1.382 . S
C2 C0 1.384 . S
C2 C3 1.381 1_545 S
C2 H29 0.930 . S
C3 C2 1.381 1_565 S
C3 C5 1.381 . S
C3 C6 1.487 . S
C4 C1 1.382 . S
C4 C5 1.387 . S
C4 H30 0.930 . S
C5 C3 1.381 . S
C5 C4 1.387 . S
C5 H31 0.931 . S
C6 C3 1.487 . S
C6 C13 1.399 1_566 S
C6 N44 1.343 . S
C7 C8 1.384 1_565 S
C7 C9 1.384 . S
C7 H32 0.931 . S
C8 C7 1.384 1_545 S
C8 C11 1.382 . S
C9 C7 1.384 . S
C9 C10 1.381 1_565 S
C9 H33 0.930 . S
C10 C9 1.381 1_545 S
C10 C12 1.381 . S
C10 C13 1.487 . S
C11 C8 1.382 . S
C11 C12 1.387 . S
C11 H34 0.930 . S
C12 C10 1.381 . S
C12 C11 1.387 . S
C12 H35 0.931 . S
C13 C6 1.399 1_544 S
C13 C10 1.487 . S
C13 N45 1.343 . S
C14 C15 1.384 1_565 S
C14 C16 1.384 . S
C14 H36 0.931 . S
C15 C14 1.384 1_545 S
C15 C18 1.382 . S
C16 C14 1.384 . S
C16 C17 1.381 1_565 S
C16 H37 0.930 . S
C17 C16 1.381 1_545 S
C17 C19 1.381 . S
C17 C20 1.487 . S
C18 C15 1.382 . S
C18 C19 1.387 . S
C18 H38 0.930 . S
C19 C17 1.381 . S
C19 C18 1.387 . S
C19 H39 0.931 . S
C20 C17 1.487 . S
C20 C27 1.399 1_544 S
C20 N45 1.343 . S
C21 C22 1.384 1_545 S
C21 C23 1.384 . S
C21 H40 0.931 . S
C22 C21 1.384 1_565 S
C22 C25 1.382 . S
C23 C21 1.384 . S
C23 C24 1.381 1_545 S
C23 H41 0.930 . S
C24 C23 1.381 1_565 S
C24 C26 1.381 . S
C24 C27 1.487 . S
C25 C22 1.382 . S
C25 C26 1.387 . S
C25 H42 0.930 . S
C26 C24 1.381 . S
C26 C25 1.387 . S
C26 H43 0.931 . S
C27 C20 1.399 1_566 S
C27 C24 1.487 . S
C27 N44 1.343 . S
H28 C0 0.931 . S
H29 C2 0.930 . S
H30 C4 0.930 . S
H31 C5 0.931 . S
H32 C7 0.931 . S
H33 C9 0.930 . S
H34 C11 0.930 . S
H35 C12 0.931 . S
H36 C14 0.931 . S
H37 C16 0.930 . S
H38 C18 0.930 . S
H39 C19 0.931 . S
H40 C21 0.931 . S
H41 C23 0.930 . S
H42 C25 0.930 . S
H43 C26 0.931 . S
N44 C6 1.343 . S
N44 C27 1.343 . S
N45 C13 1.343 . S
N45 C20 1.343 . S
C46 C47 1.384 1_455 S
C46 C48 1.384 . S
C46 H74 0.931 . S
C47 C46 1.384 1_655 S
C47 C50 1.382 . S
C48 C46 1.384 . S
C48 C49 1.381 1_455 S
C48 H75 0.930 . S
C49 C48 1.381 1_655 S
C49 C51 1.381 . S
C49 C52 1.487 . S
C50 C47 1.382 . S
C50 C51 1.387 . S
C50 H76 0.930 . S
C51 C49 1.381 . S
C51 C50 1.387 . S
C51 H77 0.931 . S
C52 C49 1.487 . S
C52 C59 1.399 1_655 S
C52 N90 1.343 . S
C53 C54 1.384 1_655 S
C53 C55 1.384 . S
C53 H78 0.931 . S
C54 C53 1.384 1_455 S
C54 C57 1.382 . S
C55 C53 1.384 . S
C55 C56 1.381 1_655 S
C55 H79 0.930 . S
C56 C55 1.381 1_455 S
C56 C58 1.381 . S
C56 C59 1.487 . S
C57 C54 1.382 . S
C57 C58 1.387 . S
C57 H80 0.930 . S
C58 C56 1.381 . S
C58 C57 1.387 . S
C58 H81 0.931 . S
C59 C52 1.399 1_455 S
C59 C56 1.487 . S
C59 N91 1.343 . S
C60 C61 1.384 1_655 S
C60 C62 1.384 . S
C60 H82 0.931 . S
C61 C60 1.384 1_455 S
C61 C64 1.382 . S
C62 C60 1.384 . S
C62 C63 1.381 1_655 S
C62 H83 0.930 . S
C63 C62 1.381 1_455 S
C63 C65 1.381 . S
C63 C66 1.487 . S
C64 C61 1.382 . S
C64 C65 1.387 . S
C64 H84 0.930 . S
C65 C63 1.381 . S
C65 C64 1.387 . S
C65 H85 0.931 . S
C66 C63 1.487 . S
C66 C73 1.399 1_455 S
C66 N91 1.343 . S
C67 C68 1.384 1_455 S
C67 C69 1.384 . S
C67 H86 0.931 . S
C68 C67 1.384 1_655 S
C68 C71 1.382 . S
C69 C67 1.384 . S
C69 C70 1.381 1_455 S
C69 H87 0.930 . S
C70 C69 1.381 1_655 S
C70 C72 1.381 . S
C70 C73 1.487 . S
C71 C68 1.382 . S
C71 C72 1.387 . S
C71 H88 0.930 . S
C72 C70 1.381 . S
C72 C71 1.387 . S
C72 H89 0.931 . S
C73 C66 1.399 1_655 S
C73 C70 1.487 . S
C73 N90 1.343 . S
H74 C46 0.931 . S
H75 C48 0.930 . S
H76 C50 0.930 . S
H77 C51 0.931 . S
H78 C53 0.931 . S
H79 C55 0.930 . S
H80 C57 0.930 . S
H81 C58 0.931 . S
H82 C60 0.931 . S
H83 C62 0.930 . S
H84 C64 0.930 . S
H85 C65 0.931 . S
H86 C67 0.931 . S
H87 C69 0.930 . S
H88 C71 0.930 . S
H89 C72 0.931 . S
N90 C52 1.343 . S
N90 C73 1.343 . S
N91 C59 1.343 . S
N91 C66 1.343 . S
Li92 N109 1.990 . S
Li92 O152 1.956 1_545 S
Li92 O153 1.970 1_455 S
Li92 O154 1.961 1_455 S
Li93 N117 1.990 . S
Li93 O152 1.970 1_655 S
Li93 O153 1.956 1_565 S
Li93 O155 1.961 1_655 S
Li94 N139 1.990 . S
Li94 O152 1.961 1_545 S
Li94 O154 1.956 1_455 S
Li94 O155 1.970 1_545 S
Li95 N145 1.990 . S
Li95 O153 1.961 1_565 S
Li95 O154 1.970 1_565 S
Li95 O155 1.956 1_655 S
C96 C98 1.348 1_545 S
C96 C99 1.356 . S
C96 O152 1.325 1_545 S
N97 C100 1.314 1_545 S
N97 C101 1.279 . S
C98 C96 1.348 1_565 S
C98 C100 1.353 . S
C98 H156 0.929 . S
C99 C96 1.356 . S
C99 C101 1.358 . S
C99 H157 0.930 . S
C100 N97 1.314 1_565 S
C100 C98 1.353 . S
C100 H158 0.930 . S
C101 N97 1.279 . S
C101 C99 1.358 . S
C101 H159 0.930 . S
C102 C105 1.348 . S
C102 C106 1.356 1_545 S
C102 O153 1.325 . S
C103 N104 1.279 . S
C103 C106 1.358 . S
C103 H160 0.930 . S
N104 C103 1.279 . S
N104 C107 1.314 1_565 S
C105 C102 1.348 . S
C105 C107 1.353 . S
C105 H161 0.929 . S
C106 C102 1.356 1_565 S
C106 C103 1.358 . S
C106 H162 0.930 . S
C107 N104 1.314 1_545 S
C107 C105 1.353 . S
C107 H163 0.930 . S
C108 N109 1.314 1_655 S
C108 C113 1.353 . S
C108 H114 0.930 . S
N109 Li92 1.990 . S
N109 C108 1.314 1_455 S
N109 C111 1.279 . S
C110 C111 1.358 . S
C110 C112 1.356 . S
C110 H164 0.930 . S
C111 N109 1.279 . S
C111 C110 1.358 . S
C111 H115 0.930 . S
C112 C110 1.356 . S
C112 C113 1.348 1_455 S
C113 C108 1.353 . S
C113 C112 1.348 1_655 S
C113 H165 0.929 . S
H114 C108 0.930 . S
H115 C111 0.930 . S
C116 N117 1.314 1_455 S
C116 C118 1.353 . S
C116 H122 0.930 . S
N117 Li93 1.990 . S
N117 C116 1.314 1_655 S
N117 C120 1.279 . S
C118 C116 1.353 . S
C118 C121 1.348 . S
C118 H166 0.929 . S
C119 C120 1.358 . S
C119 C121 1.356 1_655 S
C119 H167 0.930 . S
C120 N117 1.279 . S
C120 C119 1.358 . S
C120 H123 0.930 . S
C121 C118 1.348 . S
C121 C119 1.356 1_455 S
H122 C116 0.930 . S
H123 C120 0.930 . S
C124 C126 1.348 1_455 S
C124 C127 1.356 . S
C124 O154 1.325 1_455 S
N125 C128 1.314 1_455 S
N125 C129 1.279 . S
C126 C124 1.348 1_655 S
C126 C128 1.353 . S
C126 H168 0.929 . S
C127 C124 1.356 . S
C127 C129 1.358 . S
C127 H169 0.930 . S
C128 N125 1.314 1_655 S
C128 C126 1.353 . S
C128 H170 0.930 . S
C129 N125 1.279 . S
C129 C127 1.358 . S
C129 H171 0.930 . S
C130 C131 1.348 . S
C130 C132 1.356 1_455 S
C130 O155 1.325 . S
C131 C130 1.348 . S
C131 C133 1.353 . S
C131 H172 0.929 . S
C132 C130 1.356 1_655 S
C132 C134 1.358 . S
C132 H173 0.930 . S
C133 C131 1.353 . S
C133 N135 1.314 1_455 S
C133 H174 0.930 . S
C134 C132 1.358 . S
C134 N135 1.279 . S
C134 H175 0.930 . S
N135 C133 1.314 1_655 S
N135 C134 1.279 . S
C136 C138 1.353 . S
C136 N139 1.314 1_565 S
C136 H142 0.930 . S
C137 N139 1.279 . S
C137 C140 1.358 . S
C137 H143 0.930 . S
C138 C136 1.353 . S
C138 C141 1.348 1_565 S
C138 H176 0.929 . S
N139 Li94 1.990 . S
N139 C136 1.314 1_545 S
N139 C137 1.279 . S
C140 C137 1.358 . S
C140 C141 1.356 . S
C140 H177 0.930 . S
C141 C138 1.348 1_545 S
C141 C140 1.356 . S
H142 C136 0.930 . S
H143 C137 0.930 . S
C144 N145 1.314 1_545 S
C144 C146 1.353 . S
C144 H150 0.930 . S
N145 Li95 1.990 . S
N145 C144 1.314 1_565 S
N145 C148 1.279 . S
C146 C144 1.353 . S
C146 C149 1.348 . S
C146 H178 0.929 . S
C147 C148 1.358 . S
C147 C149 1.356 1_565 S
C147 H179 0.930 . S
C148 N145 1.279 . S
C148 C147 1.358 . S
C148 H151 0.930 . S
C149 C146 1.348 . S
C149 C147 1.356 1_545 S
H150 C144 0.930 . S
H151 C148 0.930 . S
O152 Li92 1.956 1_565 S
O152 Li93 1.970 1_455 S
O152 Li94 1.961 1_565 S
O152 C96 1.325 1_565 S
O153 Li92 1.970 1_655 S
O153 Li93 1.956 1_545 S
O153 Li95 1.961 1_545 S
O153 C102 1.325 . S
O154 Li92 1.961 1_655 S
O154 Li94 1.956 1_655 S
O154 Li95 1.970 1_545 S
O154 C124 1.325 1_655 S
O155 Li93 1.961 1_455 S
O155 Li94 1.970 1_565 S
O155 Li95 1.956 1_455 S
O155 C130 1.325 . S
H156 C98 0.929 . S
H157 C99 0.930 . S
H158 C100 0.930 . S
H159 C101 0.930 . S
H160 C103 0.930 . S
H161 C105 0.929 . S
H162 C106 0.930 . S
H163 C107 0.930 . S
H164 C110 0.930 . S
H165 C113 0.929 . S
H166 C118 0.929 . S
H167 C119 0.930 . S
H168 C126 0.929 . S
H169 C127 0.930 . S
H170 C128 0.930 . S
H171 C129 0.930 . S
H172 C131 0.929 . S
H173 C132 0.930 . S
H174 C133 0.930 . S
H175 C134 0.930 . S
H176 C138 0.929 . S
H177 C140 0.930 . S
H178 C146 0.929 . S
H179 C147 0.930 . S
Li180 N197 1.990 . S
Li180 O240 1.956 1_655 S
Li180 O241 1.970 1_545 S
Li180 O242 1.961 1_545 S
Li181 N205 1.990 . S
Li181 O240 1.970 1_565 S
Li181 O241 1.956 1_455 S
Li181 O243 1.961 1_565 S
Li182 N227 1.990 . S
Li182 O240 1.961 1_655 S
Li182 O242 1.956 1_545 S
Li182 O243 1.970 1_655 S
Li183 N233 1.990 . S
Li183 O241 1.961 1_455 S
Li183 O242 1.970 1_455 S
Li183 O243 1.956 1_565 S
C184 C186 1.348 . S
C184 C187 1.356 1_455 S
C184 O240 1.325 . S
N185 C188 1.314 1_655 S
N185 C189 1.279 . S
C186 C184 1.348 . S
C186 C188 1.353 . S
C186 H244 0.929 . S
C187 C184 1.356 1_655 S
C187 C189 1.358 . S
C187 H245 0.930 . S
C188 N185 1.314 1_455 S
C188 C186 1.353 . S
C188 H246 0.930 . S
C189 N185 1.279 . S
C189 C187 1.358 . S
C189 H247 0.930 . S
C190 C193 1.348 1_455 S
C190 C194 1.356 . S
C190 O241 1.325 1_455 S
C191 N192 1.279 . S
C191 C194 1.358 . S
C191 H248 0.930 . S
N192 C191 1.279 . S
N192 C195 1.314 1_455 S
C193 C190 1.348 1_655 S
C193 C195 1.353 . S
C193 H249 0.929 . S
C194 C190 1.356 . S
C194 C191 1.358 . S
C194 H250 0.930 . S
C195 N192 1.314 1_655 S
C195 C193 1.353 . S
C195 H251 0.930 . S
C196 N197 1.314 1_565 S
C196 C201 1.353 . S
C196 H202 0.930 . S
N197 Li180 1.990 . S
N197 C196 1.314 1_545 S
N197 C199 1.279 . S
C198 C199 1.358 . S
C198 C200 1.356 . S
C198 H252 0.930 . S
C199 N197 1.279 . S
C199 C198 1.358 . S
C199 H203 0.930 . S
C200 C198 1.356 . S
C200 C201 1.348 1_545 S
C201 C196 1.353 . S
C201 C200 1.348 1_565 S
C201 H253 0.929 . S
H202 C196 0.930 . S
H203 C199 0.930 . S
C204 N205 1.314 1_545 S
C204 C206 1.353 . S
C204 H210 0.930 . S
N205 Li181 1.990 . S
N205 C204 1.314 1_565 S
N205 C208 1.279 . S
C206 C204 1.353 . S
C206 C209 1.348 . S
C206 H254 0.929 . S
C207 C208 1.358 . S
C207 C209 1.356 1_565 S
C207 H255 0.930 . S
C208 N205 1.279 . S
C208 C207 1.358 . S
C208 H211 0.930 . S
C209 C206 1.348 . S
C209 C207 1.356 1_545 S
H210 C204 0.930 . S
H211 C208 0.930 . S
C212 C214 1.348 1_545 S
C212 C215 1.356 . S
C212 O242 1.325 1_545 S
N213 C216 1.314 1_545 S
N213 C217 1.279 . S
C214 C212 1.348 1_565 S
C214 C216 1.353 . S
C214 H256 0.929 . S
C215 C212 1.356 . S
C215 C217 1.358 . S
C215 H257 0.930 . S
C216 N213 1.314 1_565 S
C216 C214 1.353 . S
C216 H258 0.930 . S
C217 N213 1.279 . S
C217 C215 1.358 . S
C217 H259 0.930 . S
C218 C219 1.348 . S
C218 C220 1.356 1_545 S
C218 O243 1.325 . S
C219 C218 1.348 . S
C219 C221 1.353 . S
C219 H260 0.929 . S
C220 C218 1.356 1_565 S
C220 C222 1.358 . S
C220 H261 0.930 . S
C221 C219 1.353 . S
C221 N223 1.314 1_545 S
C221 H262 0.930 . S
C222 C220 1.358 . S
C222 N223 1.279 . S
C222 H263 0.930 . S
N223 C221 1.314 1_565 S
N223 C222 1.279 . S
C224 C226 1.353 . S
C224 N227 1.314 1_455 S
C224 H230 0.930 . S
C225 N227 1.279 . S
C225 C228 1.358 . S
C225 H231 0.930 . S
C226 C224 1.353 . S
C226 C229 1.348 . S
C226 H264 0.929 . S
N227 Li182 1.990 . S
N227 C224 1.314 1_655 S
N227 C225 1.279 . S
C228 C225 1.358 . S
C228 C229 1.356 1_655 S
C228 H265 0.930 . S
C229 C226 1.348 . S
C229 C228 1.356 1_455 S
H230 C224 0.930 . S
H231 C225 0.930 . S
C232 N233 1.314 1_655 S
C232 C234 1.353 . S
C232 H238 0.930 . S
N233 Li183 1.990 . S
N233 C232 1.314 1_455 S
N233 C236 1.279 . S
C234 C232 1.353 . S
C234 C237 1.348 1_655 S
C234 H266 0.929 . S
C235 C236 1.358 . S
C235 C237 1.356 . S
C235 H267 0.930 . S
C236 N233 1.279 . S
C236 C235 1.358 . S
C236 H239 0.930 . S
C237 C234 1.348 1_455 S
C237 C235 1.356 . S
H238 C232 0.930 . S
H239 C236 0.930 . S
O240 Li180 1.956 1_455 S
O240 Li181 1.970 1_545 S
O240 Li182 1.961 1_455 S
O240 C184 1.325 . S
O241 Li180 1.970 1_565 S
O241 Li181 1.956 1_655 S
O241 Li183 1.961 1_655 S
O241 C190 1.325 1_655 S
O242 Li180 1.961 1_565 S
O242 Li182 1.956 1_565 S
O242 Li183 1.970 1_655 S
O242 C212 1.325 1_565 S
O243 Li181 1.961 1_545 S
O243 Li182 1.970 1_455 S
O243 Li183 1.956 1_545 S
O243 C218 1.325 . S
H244 C186 0.929 . S
H245 C187 0.930 . S
H246 C188 0.930 . S
H247 C189 0.930 . S
H248 C191 0.930 . S
H249 C193 0.929 . S
H250 C194 0.930 . S
H251 C195 0.930 . S
H252 C198 0.930 . S
H253 C201 0.929 . S
H254 C206 0.929 . S
H255 C207 0.930 . S
H256 C214 0.929 . S
H257 C215 0.930 . S
H258 C216 0.930 . S
H259 C217 0.930 . S
H260 C219 0.929 . S
H261 C220 0.930 . S
H262 C221 0.930 . S
H263 C222 0.930 . S
H264 C226 0.929 . S
H265 C228 0.930 . S
H266 C234 0.929 . S
H267 C235 0.930 . S
C141 C15 1.486 . S
C229 C68 1.488 1_455 S
C149 C8 1.488 . S
C237 C47 1.491 1_455 S
C209 C22 1.490 1_545 S
C112 C61 1.488 . S
C200 C1 1.492 1_545 S
C54 C121 1.491 . S
