# Generated by pormake.
# Topology eea, (3,6)-cn, num edge types: 1
# Building blocks:
#     Node 0, Type 0, BuildingBlock: ESEHIV_clean_linker_0, # of connection points: 3
#     Node 1, Type 0, BuildingBlock: ESEHIV_clean_linker_0, # of connection points: 3
#     Node 2, Type 0, BuildingBlock: ESEHIV_clean_linker_0, # of connection points: 3
#     Node 3, Type 0, BuildingBlock: ESEHIV_clean_linker_0, # of connection points: 3
#     Node 4, Type 0, BuildingBlock: ESEHIV_clean_linker_0, # of connection points: 3
#     Node 5, Type 0, BuildingBlock: ESEHIV_clean_linker_0, # of connection points: 3
#     Node 6, Type 0, BuildingBlock: ESEHIV_clean_linker_0, # of connection points: 3
#     Node 7, Type 0, BuildingBlock: ESEHIV_clean_linker_0, # of connection points: 3
#     Node 8, Type 0, BuildingBlock: ESEHIV_clean_linker_0, # of connection points: 3
#     Node 9, Type 0, BuildingBlock: ESEHIV_clean_linker_0, # of connection points: 3
#     Node 10, Type 0, BuildingBlock: ESEHIV_clean_linker_0, # of connection points: 3
#     Node 11, Type 0, BuildingBlock: ESEHIV_clean_linker_0, # of connection points: 3
#     Node 12, Type 0, BuildingBlock: ESEHIV_clean_linker_0, # of connection points: 3
#     Node 13, Type 0, BuildingBlock: ESEHIV_clean_linker_0, # of connection points: 3
#     Node 14, Type 0, BuildingBlock: ESEHIV_clean_linker_0, # of connection points: 3
#     Node 15, Type 0, BuildingBlock: ESEHIV_clean_linker_0, # of connection points: 3
#     Node 16, Type 0, BuildingBlock: ESEHIV_clean_linker_0, # of connection points: 3
#     Node 17, Type 0, BuildingBlock: ESEHIV_clean_linker_0, # of connection points: 3
#     Node 18, Type 1, BuildingBlock: CUWYAW_clean_sbu_0, # of connection points: 6
#     Node 19, Type 1, BuildingBlock: CUWYAW_clean_sbu_0, # of connection points: 6
#     Node 20, Type 1, BuildingBlock: CUWYAW_clean_sbu_0, # of connection points: 6
#     Node 21, Type 1, BuildingBlock: CUWYAW_clean_sbu_0, # of connection points: 6
#     Node 22, Type 1, BuildingBlock: CUWYAW_clean_sbu_0, # of connection points: 6
#     Node 23, Type 1, BuildingBlock: CUWYAW_clean_sbu_0, # of connection points: 6
#     Node 24, Type 1, BuildingBlock: CUWYAW_clean_sbu_0, # of connection points: 6
#     Node 25, Type 1, BuildingBlock: CUWYAW_clean_sbu_0, # of connection points: 6
#     Node 26, Type 1, BuildingBlock: CUWYAW_clean_sbu_0, # of connection points: 6
#     Edge 27, Type (0, 1), BuildingBlock: EZIPEK_clean_linker_0, # of connection points: 2
#     Edge 28, Type (0, 1), BuildingBlock: EZIPEK_clean_linker_0, # of connection points: 2
#     Edge 29, Type (0, 1), BuildingBlock: EZIPEK_clean_linker_0, # of connection points: 2
#     Edge 30, Type (0, 1), BuildingBlock: EZIPEK_clean_linker_0, # of connection points: 2
#     Edge 31, Type (0, 1), BuildingBlock: EZIPEK_clean_linker_0, # of connection points: 2
#     Edge 32, Type (0, 1), BuildingBlock: EZIPEK_clean_linker_0, # of connection points: 2
#     Edge 33, Type (0, 1), BuildingBlock: EZIPEK_clean_linker_0, # of connection points: 2
#     Edge 34, Type (0, 1), BuildingBlock: EZIPEK_clean_linker_0, # of connection points: 2
#     Edge 35, Type (0, 1), BuildingBlock: EZIPEK_clean_linker_0, # of connection points: 2
#     Edge 36, Type (0, 1), BuildingBlock: EZIPEK_clean_linker_0, # of connection points: 2
#     Edge 37, Type (0, 1), BuildingBlock: EZIPEK_clean_linker_0, # of connection points: 2
#     Edge 38, Type (0, 1), BuildingBlock: EZIPEK_clean_linker_0, # of connection points: 2
#     Edge 39, Type (0, 1), BuildingBlock: EZIPEK_clean_linker_0, # of connection points: 2
#     Edge 40, Type (0, 1), BuildingBlock: EZIPEK_clean_linker_0, # of connection points: 2
#     Edge 41, Type (0, 1), BuildingBlock: EZIPEK_clean_linker_0, # of connection points: 2
#     Edge 42, Type (0, 1), BuildingBlock: EZIPEK_clean_linker_0, # of connection points: 2
#     Edge 43, Type (0, 1), BuildingBlock: EZIPEK_clean_linker_0, # of connection points: 2
#     Edge 44, Type (0, 1), BuildingBlock: EZIPEK_clean_linker_0, # of connection points: 2
#     Edge 45, Type (0, 1), BuildingBlock: EZIPEK_clean_linker_0, # of connection points: 2
#     Edge 46, Type (0, 1), BuildingBlock: EZIPEK_clean_linker_0, # of connection points: 2
#     Edge 47, Type (0, 1), BuildingBlock: EZIPEK_clean_linker_0, # of connection points: 2
#     Edge 48, Type (0, 1), BuildingBlock: EZIPEK_clean_linker_0, # of connection points: 2
#     Edge 49, Type (0, 1), BuildingBlock: EZIPEK_clean_linker_0, # of connection points: 2
#     Edge 50, Type (0, 1), BuildingBlock: EZIPEK_clean_linker_0, # of connection points: 2
#     Edge 51, Type (0, 1), BuildingBlock: EZIPEK_clean_linker_0, # of connection points: 2
#     Edge 52, Type (0, 1), BuildingBlock: EZIPEK_clean_linker_0, # of connection points: 2
#     Edge 53, Type (0, 1), BuildingBlock: EZIPEK_clean_linker_0, # of connection points: 2
#     Edge 54, Type (0, 1), BuildingBlock: EZIPEK_clean_linker_0, # of connection points: 2
#     Edge 55, Type (0, 1), BuildingBlock: EZIPEK_clean_linker_0, # of connection points: 2
#     Edge 56, Type (0, 1), BuildingBlock: EZIPEK_clean_linker_0, # of connection points: 2
#     Edge 57, Type (0, 1), BuildingBlock: EZIPEK_clean_linker_0, # of connection points: 2
#     Edge 58, Type (0, 1), BuildingBlock: EZIPEK_clean_linker_0, # of connection points: 2
#     Edge 59, Type (0, 1), BuildingBlock: EZIPEK_clean_linker_0, # of connection points: 2
#     Edge 60, Type (0, 1), BuildingBlock: EZIPEK_clean_linker_0, # of connection points: 2
#     Edge 61, Type (0, 1), BuildingBlock: EZIPEK_clean_linker_0, # of connection points: 2
#     Edge 62, Type (0, 1), BuildingBlock: EZIPEK_clean_linker_0, # of connection points: 2
#     Edge 63, Type (0, 1), BuildingBlock: EZIPEK_clean_linker_0, # of connection points: 2
#     Edge 64, Type (0, 1), BuildingBlock: EZIPEK_clean_linker_0, # of connection points: 2
#     Edge 65, Type (0, 1), BuildingBlock: EZIPEK_clean_linker_0, # of connection points: 2
#     Edge 66, Type (0, 1), BuildingBlock: EZIPEK_clean_linker_0, # of connection points: 2
#     Edge 67, Type (0, 1), BuildingBlock: EZIPEK_clean_linker_0, # of connection points: 2
#     Edge 68, Type (0, 1), BuildingBlock: EZIPEK_clean_linker_0, # of connection points: 2
#     Edge 69, Type (0, 1), BuildingBlock: EZIPEK_clean_linker_0, # of connection points: 2
#     Edge 70, Type (0, 1), BuildingBlock: EZIPEK_clean_linker_0, # of connection points: 2
#     Edge 71, Type (0, 1), BuildingBlock: EZIPEK_clean_linker_0, # of connection points: 2
#     Edge 72, Type (0, 1), BuildingBlock: EZIPEK_clean_linker_0, # of connection points: 2
#     Edge 73, Type (0, 1), BuildingBlock: EZIPEK_clean_linker_0, # of connection points: 2
#     Edge 74, Type (0, 1), BuildingBlock: EZIPEK_clean_linker_0, # of connection points: 2
#     Edge 75, Type (0, 1), BuildingBlock: EZIPEK_clean_linker_0, # of connection points: 2
#     Edge 76, Type (0, 1), BuildingBlock: EZIPEK_clean_linker_0, # of connection points: 2
#     Edge 77, Type (0, 1), BuildingBlock: EZIPEK_clean_linker_0, # of connection points: 2
#     Edge 78, Type (0, 1), BuildingBlock: EZIPEK_clean_linker_0, # of connection points: 2
#     Edge 79, Type (0, 1), BuildingBlock: EZIPEK_clean_linker_0, # of connection points: 2
#     Edge 80, Type (0, 1), BuildingBlock: EZIPEK_clean_linker_0, # of connection points: 2
# Relax obj value: 0.034
# Max RMSD: 0.130
# Mean RMSD: 0.113
data_MOF--net-eea--node1-CUWYAW_clean_sbu_0--node2-ESEHIV_clean_linker_0--edge1-EZIPEK_clean_linker_0
_symmetry_space_group_name_H-M    P1
_symmetry_Int_Tables_number       1
_symmetry_cell_setting            triclinic
loop_
_symmetry_equiv_pos_as_xyz
'x, y, z'
_cell_length_a     33.94443
_cell_length_b     33.338456
_cell_length_c     56.114991
_cell_angle_alpha  93.410478
_cell_angle_beta   93.081855
_cell_angle_gamma 120.07892
loop_
_atom_site_label
_atom_site_type_symbol
_atom_site_fract_x
_atom_site_fract_y
_atom_site_fract_z
_atom_type_partial_charge
H0 H 0.24286 0.19649 0.44055 0.0
H1 H 0.26345 0.07975 0.43523 0.0
H2 H 0.20924 0.11497 0.37365 0.0
C3 C 0.24215 0.16798 0.42979 0.0
C4 C 0.22681 0.15937 0.40545 0.0
C5 C 0.25518 0.13897 0.44043 0.0
C6 C 0.25501 0.10262 0.42621 0.0
C7 C 0.24344 0.09567 0.40097 0.0
C8 C 0.2256 0.12243 0.39157 0.0
H9 H 0.79729 0.07207 0.44385 0.0
H10 H 0.92408 0.20311 0.44943 0.0
H11 H 0.87444 0.11451 0.38279 0.0
C12 C 0.82628 0.098 0.43557 0.0
C13 C 0.8323 0.0887 0.41178 0.0
C14 C 0.8588 0.13972 0.44907 0.0
C15 C 0.89794 0.17189 0.43871 0.0
C16 C 0.90358 0.16326 0.41461 0.0
C17 C 0.86983 0.12209 0.40116 0.0
H18 H 0.82144 0.74037 0.44932 0.0
H19 H 0.94719 0.73754 0.45279 0.0
H20 H 0.90382 0.77855 0.38993 0.0
C21 C 0.85171 0.7455 0.4412 0.0
C22 C 0.85868 0.75993 0.41803 0.0
C23 C 0.8832 0.73682 0.45376 0.0
C24 C 0.92255 0.74381 0.44317 0.0
C25 C 0.93039 0.75978 0.42029 0.0
C26 C 0.89802 0.76688 0.40771 0.0
H27 H 0.05413 0.25565 0.58303 0.0
H28 H 0.18417 0.26287 0.58158 0.0
H29 H 0.11681 0.23444 0.64621 0.0
C30 C 0.08227 0.25417 0.59215 0.0
C31 C 0.08097 0.24451 0.61629 0.0
C32 C 0.12031 0.26251 0.57987 0.0
C33 C 0.15569 0.25842 0.59129 0.0
C34 C 0.15388 0.24745 0.61502 0.0
C35 C 0.11766 0.24248 0.62774 0.0
H36 H 0.74713 0.92958 0.58989 0.0
H37 H 0.75096 0.80213 0.58505 0.0
H38 H 0.78866 0.88689 0.6525 0.0
C39 C 0.75225 0.90401 0.59844 0.0
C40 C 0.76811 0.91236 0.62278 0.0
C41 C 0.74521 0.86386 0.58485 0.0
C42 C 0.75457 0.83221 0.5957 0.0
C43 C 0.76941 0.84003 0.62027 0.0
C44 C 0.77538 0.87977 0.63376 0.0
H45 H 0.0651 0.79892 0.58498 0.0
H46 H 0.19052 0.93132 0.5911 0.0
H47 H 0.10771 0.89082 0.65028 0.0
C48 C 0.08959 0.83142 0.59538 0.0
C49 C 0.08176 0.84113 0.61882 0.0
C50 C 0.12873 0.86404 0.58525 0.0
C51 C 0.16018 0.9061 0.5988 0.0
C52 C 0.15292 0.91563 0.62227 0.0
C53 C 0.11364 0.88319 0.63222 0.0
H54 H 0.92354 0.53374 0.77475 0.0
H55 H 0.9266 0.40592 0.77086 0.0
H56 H 0.88082 0.44538 0.70828 0.0
C57 C 0.91865 0.50279 0.76442 0.0
C58 C 0.90207 0.49364 0.74009 0.0
C59 C 0.92784 0.47132 0.77555 0.0
C60 C 0.92019 0.43065 0.76225 0.0
C61 C 0.90327 0.42128 0.73802 0.0
C62 C 0.89464 0.45301 0.72694 0.0
H63 H 0.47803 0.41124 0.78012 0.0
H64 H 0.60401 0.54327 0.78648 0.0
H65 H 0.55719 0.45467 0.71984 0.0
C66 C 0.50738 0.4373 0.77212 0.0
C67 C 0.51426 0.42832 0.74846 0.0
C68 C 0.53909 0.47928 0.78571 0.0
C69 C 0.57853 0.51179 0.77568 0.0
C70 C 0.58512 0.5033 0.75174 0.0
C71 C 0.552 0.46201 0.73813 0.0
H72 H 0.48561 0.08156 0.7839 0.0
H73 H 0.60618 0.06929 0.78577 0.0
H74 H 0.56308 0.10955 0.72259 0.0
C75 C 0.51427 0.08367 0.77521 0.0
C76 C 0.52034 0.09619 0.75163 0.0
C77 C 0.5445 0.07287 0.78743 0.0
C78 C 0.58213 0.07653 0.77626 0.0
C79 C 0.58939 0.09088 0.75305 0.0
C80 C 0.55777 0.09925 0.74065 0.0
H81 H 0.72967 0.6063 0.91893 0.0
H82 H 0.8591 0.61288 0.9148 0.0
H83 H 0.78196 0.55834 0.97512 0.0
C84 C 0.75652 0.60109 0.9267 0.0
C85 C 0.75168 0.5816 0.94862 0.0
C86 C 0.79492 0.61185 0.91428 0.0
C87 C 0.82938 0.60463 0.92431 0.0
C88 C 0.82492 0.58578 0.9464 0.0
C89 C 0.78588 0.5739 0.95834 0.0
H90 H 0.41026 0.25389 0.91835 0.0
H91 H 0.41333 0.12605 0.91745 0.0
H92 H 0.4646 0.22305 0.98098 0.0
C93 C 0.41764 0.2303 0.92749 0.0
C94 C 0.43779 0.24285 0.95118 0.0
C95 C 0.40841 0.18803 0.9153 0.0
C96 C 0.4195 0.15825 0.92694 0.0
C97 C 0.43965 0.17095 0.95072 0.0
C98 C 0.44825 0.2129 0.96276 0.0
H99 H 0.73595 0.13806 0.92394 0.0
H100 H 0.85695 0.27101 0.92303 0.0
H101 H 0.78984 0.23782 0.98681 0.0
C102 C 0.76216 0.17011 0.93388 0.0
C103 C 0.76157 0.17913 0.9589 0.0
C104 C 0.79673 0.20277 0.92104 0.0
C105 C 0.82972 0.24606 0.93268 0.0
C106 C 0.82715 0.25768 0.95658 0.0
C107 C 0.79228 0.22535 0.96913 0.0
H108 H 0.60275 0.8676 0.10815 0.0
H109 H 0.60731 0.74141 0.1012 0.0
H110 H 0.54808 0.77885 0.04296 0.0
C111 C 0.59652 0.83661 0.09729 0.0
C112 C 0.57604 0.8271 0.07379 0.0
C113 C 0.60648 0.80487 0.10729 0.0
C114 C 0.60026 0.76583 0.09282 0.0
C115 C 0.58492 0.75844 0.06804 0.0
C116 C 0.56797 0.78685 0.05994 0.0
H117 H 0.15184 0.75849 0.11316 0.0
H118 H 0.27481 0.89318 0.11798 0.0
H119 H 0.23556 0.79755 0.05444 0.0
C120 C 0.18134 0.78428 0.10515 0.0
C121 C 0.18979 0.7737 0.08213 0.0
C122 C 0.21166 0.82748 0.11815 0.0
C123 C 0.25064 0.86026 0.10783 0.0
C124 C 0.25923 0.84941 0.08477 0.0
C125 C 0.22846 0.80637 0.07199 0.0
H126 H 0.15773 0.42333 0.11811 0.0
H127 H 0.27892 0.4121 0.12051 0.0
H128 H 0.23671 0.45334 0.05738 0.0
C129 C 0.1869 0.42622 0.10964 0.0
C130 C 0.19352 0.43951 0.08624 0.0
C131 C 0.21688 0.41513 0.12188 0.0
C132 C 0.25518 0.41978 0.11103 0.0
C133 C 0.2627 0.43438 0.08788 0.0
C134 C 0.23117 0.44283 0.07539 0.0
H135 H 0.41327 0.95596 0.25631 0.0
H136 H 0.53112 0.94054 0.25132 0.0
H137 H 0.44469 0.88245 0.30774 0.0
C138 C 0.43488 0.94313 0.26321 0.0
C139 C 0.4242 0.91845 0.2837 0.0
C140 C 0.47225 0.94933 0.25093 0.0
C141 C 0.50138 0.9345 0.2603 0.0
C142 C 0.49182 0.91129 0.28107 0.0
C143 C 0.45251 0.9018 0.29211 0.0
H144 H 0.08106 0.59649 0.2506 0.0
H145 H 0.0682 0.46133 0.25283 0.0
H146 H 0.12858 0.56216 0.31457 0.0
C147 C 0.08573 0.57173 0.26025 0.0
C148 C 0.10578 0.58411 0.28406 0.0
C149 C 0.07171 0.52718 0.24898 0.0
C150 C 0.07831 0.49546 0.26154 0.0
C151 C 0.09904 0.5082 0.28512 0.0
C152 C 0.1123 0.55227 0.29634 0.0
H153 H 0.38348 0.45824 0.24995 0.0
H154 H 0.51094 0.58842 0.25464 0.0
H155 H 0.43036 0.55206 0.31473 0.0
C156 C 0.40879 0.49077 0.26003 0.0
C157 C 0.40214 0.50171 0.28353 0.0
C158 C 0.44802 0.52214 0.24953 0.0
C159 C 0.48054 0.56421 0.26265 0.0
C160 C 0.47457 0.57485 0.2862 0.0
C161 C 0.43529 0.54361 0.29658 0.0
C162 C 0.55881 0.06727 0.08983 0.0
Eu163 Eu 0.53165 0.03922 0.04447 0.0
C164 C 0.54315 0.0502 0.11329 0.0
C165 C 0.51921 0.06694 0.12638 0.0
C166 C 0.50533 0.05169 0.14878 0.0
C167 C 0.51538 0.01968 0.15848 0.0
C168 C 0.53919 1.00286 0.14553 0.0
C169 C 0.55317 0.01814 0.1232 0.0
C170 C 0.50822 0.0819 1.01169 0.0
C171 C 0.42313 0.95656 0.03757 0.0
C172 C 0.46423 0.95746 0.95034 0.0
Eu173 Eu 0.489 0.9824 0.99604 0.0
C174 C 0.47996 0.97747 0.92745 0.0
C175 C 0.49429 0.95512 0.911 0.0
C176 C 0.50728 0.97207 0.88881 0.0
C177 C 0.50577 0.01146 0.88256 0.0
C178 C 0.49228 0.03445 0.89911 0.0
C179 C 0.47963 0.01773 0.92141 0.0
C180 C 0.51439 0.94021 0.02862 0.0
C181 C 0.59726 0.06192 1.00315 0.0
O182 O 0.57322 0.04437 0.07668 0.0
O183 O 0.53446 0.08018 0.07704 0.0
O184 O 0.54394 0.10401 0.02721 0.0
O185 O 0.48527 0.03961 0.01532 0.0
O186 O 0.46058 0.98302 0.05224 0.0
O187 O 0.42375 0.95343 1.01404 0.0
O188 O 0.44665 0.9765 0.96399 0.0
O189 O 0.4905 0.9462 0.96266 0.0
O190 O 0.47969 0.91794 1.01248 0.0
O191 O 0.53627 0.98256 0.0251 0.0
O192 O 0.55922 0.04062 0.98842 0.0
O193 O 0.596 0.06077 0.02656 0.0
H194 H 0.51141 0.09202 0.11938 0.0
H195 H 0.487 0.06502 0.15861 0.0
H196 H 0.54724 0.97816 0.15281 0.0
H197 H 0.57199 0.00491 0.11379 0.0
H198 H 0.49485 0.92409 0.91518 0.0
H199 H 0.5176 0.9539 0.87627 0.0
H200 H 0.49093 0.06492 0.89461 0.0
H201 H 0.46903 0.036 0.93372 0.0
C202 C 0.97303 0.5313 0.08022 0.0
Eu203 Eu 0.99379 0.51499 0.03822 0.0
C204 C 0.98281 0.52134 0.10434 0.0
C205 C 0.95505 0.51786 0.12251 0.0
C206 C 0.96481 0.50882 0.14548 0.0
C207 C 1.00149 0.50074 0.15076 0.0
C208 C 0.03128 0.50867 0.13258 0.0
C209 C 0.02138 0.51737 0.10966 0.0
C210 C 0.95916 0.43303 1.01023 0.0
C211 C 0.0712 0.48638 0.03506 0.0
C212 C 0.05629 0.51609 0.9471 0.0
Eu213 Eu 0.03786 0.52228 0.99111 0.0
C214 C 0.03428 0.50852 0.92267 0.0
C215 C 0.0487 0.49103 0.90384 0.0
C216 C 0.02947 0.48505 0.88034 0.0
C217 C 0.9956 0.49658 0.87536 0.0
C218 C 0.98064 0.51351 0.89423 0.0
C219 C 0.99978 0.51932 0.91779 0.0
C220 C 0.08619 0.59537 0.02526 0.0
C221 C 0.95429 0.54366 0.99272 0.0
O222 O 0.00886 0.56172 0.07037 0.0
O223 O 0.94475 0.49518 0.06518 0.0
O224 O 0.96305 0.43677 0.0335 0.0
O225 O 0.97099 0.47219 1.00297 0.0
O226 O 0.05278 0.50433 0.04914 0.0
O227 O 0.06445 0.4828 1.01145 0.0
O228 O 0.03858 0.48048 0.95989 0.0
O229 O 0.06772 0.5556 0.95944 0.0
O230 O 0.10505 0.58009 1.01063 0.0
O231 O 0.04365 0.57345 0.02005 0.0
O232 O 0.98448 0.5407 0.97993 0.0
O233 O 0.95113 0.5358 0.01557 0.0
H234 H 0.92624 0.52299 0.11907 0.0
H235 H 0.94392 0.50991 0.15902 0.0
H236 H 0.06352 0.51003 0.13569 0.0
H237 H 0.04468 0.5221 0.09621 0.0
H238 H 0.07519 0.48243 0.9073 0.0
H239 H 0.04134 0.47193 0.86596 0.0
H240 H 0.95451 0.52254 0.89067 0.0
H241 H 0.98807 0.53273 0.93208 0.0
C242 C 0.43853 0.47558 0.95108 0.0
Eu243 Eu 0.48121 0.49526 0.99377 0.0
C244 C 0.4535 0.48288 0.92668 0.0
C245 C 0.49278 0.52405 0.92192 0.0
C246 C 0.50915 0.52802 0.89926 0.0
C247 C 0.48692 0.49063 0.88122 0.0
C248 C 0.44747 0.4498 0.8859 0.0
C249 C 0.43086 0.44601 0.90842 0.0
C250 C 0.5365 0.58005 0.01886 0.0
C251 C 0.58593 0.52011 0.99663 0.0
C252 C 0.55145 0.49528 0.08741 0.0
Eu253 Eu 0.52645 0.49206 0.04228 0.0
C254 C 0.53374 0.49795 0.11065 0.0
C255 C 0.51486 0.45869 0.12364 0.0
C256 C 0.49769 0.46006 0.14555 0.0
C257 C 0.49958 0.50091 0.15505 0.0
C258 C 0.51818 0.54019 0.14214 0.0
C259 C 0.53507 0.53875 0.12008 0.0
C260 C 0.49791 0.4165 1.00997 0.0
C261 C 0.42129 0.47135 0.03887 0.0
O262 O 0.44682 0.44655 0.96195 0.0
O263 O 0.44714 0.51233 0.96533 0.0
O264 O 0.53268 0.57205 0.99567 0.0
O265 O 0.50967 0.5431 0.02784 0.0
O266 O 0.54713 0.5035 0.98302 0.0
O267 O 0.58806 0.5251 0.02045 0.0
O268 O 0.56818 0.53206 0.07547 0.0
O269 O 0.52655 0.45651 0.0735 0.0
O270 O 0.53246 0.43197 0.02599 0.0
O271 O 0.47816 0.43935 1.01371 0.0
O272 O 0.45665 0.47564 0.05221 0.0
O273 O 0.42187 0.47744 0.0158 0.0
H274 H 0.51136 0.55268 0.93583 0.0
H275 H 0.53966 0.55977 0.89593 0.0
H276 H 0.42987 0.42066 0.87217 0.0
H277 H 0.40094 0.41375 0.9118 0.0
H278 H 0.5135 0.42687 0.11685 0.0
H279 H 0.48359 0.4295 0.15532 0.0
H280 H 0.52004 0.57207 0.14929 0.0
H281 H 0.54932 0.56958 0.11052 0.0
C282 C 0.20873 0.37486 0.41879 0.0
Eu283 Eu 0.17669 0.35733 0.37385 0.0
C284 C 0.19173 0.35602 0.44147 0.0
C285 C 0.22252 0.3699 0.46205 0.0
C286 C 0.20691 0.35254 0.48381 0.0
C287 C 0.16031 0.32102 0.48521 0.0
C288 C 0.12944 0.30693 0.4646 0.0
C289 C 0.14509 0.32429 0.44282 0.0
C290 C 0.14878 0.40226 0.34542 0.0
C291 C 0.066 0.27741 0.36701 0.0
C292 C 0.10186 0.28773 0.27829 0.0
Eu293 Eu 0.12861 0.30298 0.32386 0.0
C294 C 0.12343 0.30809 0.25636 0.0
C295 C 0.14081 0.28598 0.24175 0.0
C296 C 0.15991 0.30433 0.22071 0.0
C297 C 0.16157 0.34485 0.21374 0.0
C298 C 0.14499 0.36749 0.22843 0.0
C299 C 0.12611 0.34934 0.24953 0.0
C300 C 0.15835 0.26019 0.35321 0.0
C301 C 0.23719 0.38551 0.32898 0.0
O302 O 0.21432 0.34743 0.40339 0.0
O303 O 0.18992 0.39639 0.40868 0.0
O304 O 0.18214 0.42354 0.36243 0.0
O305 O 0.12855 0.35879 0.34673 0.0
O306 O 0.10407 0.30408 0.38139 0.0
O307 O 0.06531 0.27382 0.34339 0.0
O308 O 0.09464 0.31447 0.29332 0.0
O309 O 0.11628 0.26309 0.28921 0.0
O310 O 0.12197 0.23764 0.33801 0.0
O311 O 0.17884 0.30314 0.35062 0.0
O312 O 0.20018 0.35396 0.31542 0.0
O313 O 0.23805 0.39223 0.35258 0.0
H314 H 0.2586 0.39428 0.46131 0.0
H315 H 0.23111 0.36377 0.4996 0.0
H316 H 0.09335 0.28271 0.46542 0.0
H317 H 0.12078 0.31315 0.42715 0.0
H318 H 0.13915 0.25414 0.24643 0.0
H319 H 0.17241 0.28631 0.20953 0.0
H320 H 0.14585 0.39873 0.2233 0.0
H321 H 0.11311 0.36738 0.26031 0.0
C322 C 0.63262 0.8435 0.41278 0.0
Eu323 Eu 0.65265 0.82508 0.37097 0.0
C324 C 0.6503 0.84591 0.43758 0.0
C325 C 0.63517 0.86227 0.45654 0.0
C326 C 0.65149 0.86404 0.48022 0.0
C327 C 0.68305 0.84939 0.48514 0.0
C328 C 0.6983 0.83316 0.46615 0.0
C329 C 0.68209 0.83153 0.44249 0.0
C330 C 0.61126 0.74553 0.34139 0.0
C331 C 0.72992 0.7973 0.36694 0.0
C332 C 0.71152 0.81392 0.27973 0.0
Eu333 Eu 0.69273 0.83181 0.3221 0.0
C334 C 0.69528 0.8143 0.25487 0.0
C335 C 0.72455 0.82396 0.23676 0.0
C336 C 0.71065 0.82757 0.21344 0.0
C337 C 0.66785 0.82431 0.20768 0.0
C338 C 0.63686 0.80868 0.2256 0.0
C339 C 0.65083 0.80535 0.24897 0.0
C340 C 0.73453 0.9117 0.35239 0.0
C341 C 0.6151 0.85932 0.3258 0.0
O342 O 0.66065 0.87579 0.4 0.0
O343 O 0.61132 0.80196 0.401 0.0
O344 O 0.6164 0.74685 0.36458 0.0
O345 O 0.62528 0.78586 0.33505 0.0
O346 O 0.70805 0.80974 0.38169 0.0
O347 O 0.72651 0.79921 0.34346 0.0
O348 O 0.68213 0.78176 0.2921 0.0
O349 O 0.73498 0.85464 0.29223 0.0
O350 O 0.73277 0.91089 0.32915 0.0
O351 O 0.71882 0.87077 0.35795 0.0
O352 O 0.63973 0.85034 0.31132 0.0
O353 O 0.61552 0.85338 0.34893 0.0
H354 H 0.61069 0.87352 0.45302 0.0
H355 H 0.63947 0.87669 0.49472 0.0
H356 H 0.72267 0.82177 0.46969 0.0
H357 H 0.69415 0.81884 0.42805 0.0
H358 H 0.75835 0.82873 0.24064 0.0
H359 H 0.73391 0.83238 0.20006 0.0
H360 H 0.60125 0.79779 0.22206 0.0
H361 H 0.62668 0.79552 0.26241 0.0
C362 C 0.11419 0.81545 0.28485 0.0
Eu363 Eu 0.15489 0.83392 0.32812 0.0
C364 C 0.1288 0.8233 0.2603 0.0
C365 C 0.15936 0.86802 0.25387 0.0
C366 C 0.17455 0.8737 0.23087 0.0
C367 C 0.15969 0.83477 0.21408 0.0
C368 C 0.12891 0.7903 0.22041 0.0
C369 C 0.11351 0.78465 0.24326 0.0
C370 C 0.20584 0.91985 0.3532 0.0
C371 C 0.26042 0.8656 0.33263 0.0
C372 C 0.22321 0.83305 0.42083 0.0
Eu373 Eu 0.19865 0.83246 0.37587 0.0
C374 C 0.20704 0.83685 0.44438 0.0
C375 C 0.1908 0.79892 0.45827 0.0
C376 C 0.17544 0.80144 0.48061 0.0
C377 C 0.17651 0.84217 0.48961 0.0
C378 C 0.19238 0.88008 0.47575 0.0
C379 C 0.20741 0.87745 0.45327 0.0
C380 C 0.17391 0.75769 0.34364 0.0
C381 C 0.09275 0.80821 0.37217 0.0
O382 O 0.12259 0.78643 0.29564 0.0
O383 O 0.12193 0.85153 0.29932 0.0
O384 O 0.20454 0.91138 0.33021 0.0
O385 O 0.17967 0.88255 0.36213 0.0
O386 O 0.2213 0.83963 0.3193 0.0
O387 O 0.26057 0.87495 0.35584 0.0
O388 O 0.24161 0.87006 0.40913 0.0
O389 O 0.1963 0.79503 0.40678 0.0
O390 O 0.2116 0.77777 0.35769 0.0
O391 O 0.15108 0.77721 0.34772 0.0
O392 O 0.12917 0.81644 0.38601 0.0
O393 O 0.09322 0.81183 0.34887 0.0
H394 H 0.17208 0.89846 0.26666 0.0
H395 H 0.19844 0.90827 0.22629 0.0
H396 H 0.11716 0.75988 0.2077 0.0
H397 H 0.09015 0.74983 0.24779 0.0
H398 H 0.19015 0.76727 0.45185 0.0
H399 H 0.16337 0.77189 0.49108 0.0
H400 H 0.19349 0.91182 0.48246 0.0
H401 H 0.21952 0.90722 0.44297 0.0
C402 C 0.88905 0.71588 0.7538 0.0
Eu403 Eu 0.85727 0.69682 0.70875 0.0
C404 C 0.86984 0.70028 0.77668 0.0
C405 C 0.88888 0.73053 0.79769 0.0
C406 C 0.86968 0.71709 0.81933 0.0
C407 C 0.82922 0.6737 0.82052 0.0
C408 C 0.81363 0.64192 0.79951 0.0
C409 C 0.8327 0.65547 0.77784 0.0
C410 C 0.8279 0.74021 0.67997 0.0
C411 C 0.74651 0.6176 0.70342 0.0
C412 C 0.77831 0.6236 0.61409 0.0
Eu413 Eu 0.80746 0.64075 0.65944 0.0
C414 C 0.79826 0.64125 0.59138 0.0
C415 C 0.81665 0.61894 0.5777 0.0
C416 C 0.83398 0.63475 0.55591 0.0
C417 C 0.83286 0.67288 0.54729 0.0
C418 C 0.81514 0.69564 0.56101 0.0
C419 C 0.79796 0.67998 0.58281 0.0
C420 C 0.83809 0.59873 0.68871 0.0
C421 C 0.91653 0.72208 0.6634 0.0
O422 O 0.89149 0.68514 0.73922 0.0
O423 O 0.8747 0.74025 0.74265 0.0
O424 O 0.86247 0.76237 0.69628 0.0
O425 O 0.80773 0.69699 0.682 0.0
O426 O 0.78497 0.64498 0.71739 0.0
O427 O 0.74509 0.61283 0.67977 0.0
O428 O 0.77387 0.65269 0.62889 0.0
O429 O 0.79185 0.59848 0.62522 0.0
O430 O 0.80116 0.57599 0.67391 0.0
O431 O 0.85868 0.64162 0.68587 0.0
O432 O 0.87898 0.69041 0.65023 0.0
O433 O 0.91813 0.72963 0.68701 0.0
H434 H 0.91889 0.76466 0.79743 0.0
H435 H 0.88778 0.74108 0.83509 0.0
H436 H 0.78754 0.60591 0.79929 0.0
H437 H 0.81859 0.63063 0.76201 0.0
H438 H 0.81721 0.58891 0.58368 0.0
H439 H 0.84744 0.61671 0.54551 0.0
H440 H 0.81391 0.72506 0.55462 0.0
H441 H 0.78395 0.69796 0.59279 0.0
C442 C 0.30245 0.1914 0.74652 0.0
Eu443 Eu 0.32119 0.17204 0.70459 0.0
C444 C 0.3104 0.18261 0.7712 0.0
C445 C 0.31048 0.14176 0.77607 0.0
C446 C 0.32325 0.13659 0.79933 0.0
C447 C 0.33677 0.17254 0.8178 0.0
C448 C 0.33583 0.21287 0.813 0.0
C449 C 0.32264 0.21781 0.78987 0.0
C450 C 0.28496 0.08933 0.67725 0.0
C451 C 0.39761 0.14228 0.7004 0.0
C452 C 0.37772 0.16949 0.61175 0.0
Eu453 Eu 0.36273 0.1772 0.65644 0.0
C454 C 0.35586 0.16518 0.58754 0.0
C455 C 0.3832 0.18215 0.5687 0.0
C456 C 0.3638 0.18109 0.54589 0.0
C457 C 0.31651 0.16525 0.54128 0.0
C458 C 0.28891 0.14317 0.55991 0.0
C459 C 0.3084 0.14446 0.58285 0.0
C460 C 0.41223 0.25138 0.6899 0.0
C461 C 0.28135 0.20153 0.65964 0.0
O462 O 0.3396 0.21953 0.73683 0.0
O463 O 0.27288 0.15555 0.73165 0.0
O464 O 0.28946 0.09374 0.70054 0.0
O465 O 0.29676 0.12827 0.66968 0.0
O466 O 0.38 0.16077 0.71475 0.0
O467 O 0.39008 0.13828 0.67678 0.0
O468 O 0.35761 0.13384 0.6244 0.0
O469 O 0.39335 0.20951 0.62455 0.0
O470 O 0.43068 0.23562 0.6752 0.0
O471 O 0.36958 0.22911 0.68519 0.0
O472 O 0.31045 0.1977 0.6463 0.0
O473 O 0.27863 0.19335 0.68244 0.0
H474 H 0.30187 0.11447 0.76182 0.0
H475 H 0.32393 0.10531 0.80278 0.0
H476 H 0.3462 0.24089 0.82709 0.0
H477 H 0.3233 0.24976 0.78639 0.0
H478 H 0.41982 0.19639 0.57162 0.0
H479 H 0.3866 0.19274 0.53189 0.0
H480 H 0.2522 0.12367 0.55738 0.0
H481 H 0.28628 0.12896 0.59688 0.0
C482 C 0.77036 0.13562 0.61727 0.0
Eu483 Eu 0.81274 0.1619 0.66025 0.0
C484 C 0.78411 0.14268 0.59268 0.0
C485 C 0.82408 0.18291 0.58772 0.0
C486 C 0.8387 0.18686 0.56463 0.0
C487 C 0.81387 0.15038 0.54635 0.0
C488 C 0.7738 0.11045 0.55128 0.0
C489 C 0.75901 0.10667 0.57425 0.0
C490 C 0.85969 0.24744 0.68528 0.0
C491 C 0.92137 0.19914 0.66674 0.0
C492 C 0.88596 0.17684 0.7556 0.0
Eu493 Eu 0.85873 0.16495 0.71012 0.0
C494 C 0.86857 0.18064 0.77865 0.0
C495 C 0.89958 0.20383 0.79905 0.0
C496 C 0.88374 0.2056 0.82137 0.0
C497 C 0.83662 0.18424 0.8236 0.0
C498 C 0.8055 0.16166 0.80314 0.0
C499 C 0.82137 0.15993 0.7808 0.0
C500 C 0.83467 0.08915 0.67898 0.0
C501 C 0.75091 0.13493 0.70496 0.0
O502 O 0.78366 0.11094 0.62896 0.0
O503 O 0.77494 0.17167 0.63063 0.0
O504 O 0.85537 0.24056 0.66203 0.0
O505 O 0.83568 0.20933 0.69387 0.0
O506 O 0.88331 0.17753 0.65203 0.0
O507 O 0.92113 0.20471 0.69026 0.0
O508 O 0.89791 0.21151 0.74232 0.0
O509 O 0.86368 0.13604 0.74307 0.0
O510 O 0.87114 0.10838 0.69399 0.0
O511 O 0.81209 0.10917 0.68211 0.0
O512 O 0.78704 0.14248 0.71888 0.0
O513 O 0.75163 0.13985 0.6817 0.0
H514 H 0.84441 0.21079 0.60179 0.0
H515 H 0.86979 0.21786 0.56113 0.0
H516 H 0.7543 0.08197 0.53738 0.0
H517 H 0.72847 0.07513 0.57779 0.0
H518 H 0.93605 0.21994 0.79778 0.0
H519 H 0.9082 0.22312 0.83699 0.0
H520 H 0.76903 0.14492 0.80455 0.0
H521 H 0.79675 0.14173 0.76534 0.0
C522 C 0.30438 0.9135 0.05889 0.0
C523 C 0.30243 0.88043 0.07431 0.0
C524 C 0.37519 0.89181 0.06206 0.0
C525 C 0.37959 0.92806 0.04842 0.0
N526 N 0.35005 0.9758 0.03465 0.0
N527 N 0.33894 0.84319 0.09365 0.0
C528 C 0.34454 0.93953 0.04701 0.0
C529 C 0.33892 0.87136 0.07691 0.0
N530 N 0.2673 0.91898 0.05514 0.0
N531 N 0.40401 0.87474 0.05956 0.0
H532 H 0.31246 0.82679 0.10455 0.0
H533 H 0.36696 0.83939 0.09819 0.0
H534 H 0.42878 0.88676 0.04749 0.0
H535 H 0.40009 0.84543 0.06724 0.0
H536 H 0.26418 0.93842 0.0421 0.0
H537 H 0.23822 0.90186 0.0643 0.0
H538 H 0.3287 0.9898 0.03523 0.0
H539 H 0.37752 0.99342 0.02454 0.0
C540 C 0.17879 0.49454 0.06378 0.0
C541 C 0.16149 0.45064 0.07296 0.0
C542 C 0.08385 0.4301 0.05783 0.0
C543 C 0.10204 0.4718 0.04637 0.0
N544 N 0.16863 0.53654 0.03281 0.0
N545 N 0.09838 0.37199 0.07327 0.0
C546 C 0.15008 0.50173 0.04751 0.0
C547 C 0.11416 0.41699 0.06849 0.0
N548 N 0.22195 0.5302 0.07136 0.0
N549 N 0.03777 0.40293 0.05862 0.0
H550 H 0.11975 0.36038 0.07995 0.0
H551 H 0.06495 0.34518 0.06821 0.0
H552 H 0.01441 0.41031 0.05021 0.0
H553 H 0.02313 0.37504 0.06903 0.0
H554 H 0.23439 0.56406 0.06679 0.0
H555 H 0.24331 0.5273 0.08434 0.0
H556 H 0.20374 0.55675 0.03167 0.0
H557 H 0.14887 0.54162 0.0199 0.0
C558 C 0.60655 0.6957 0.05868 0.0
C559 C 0.5829 0.7189 0.05176 0.0
C560 C 0.53483 0.65454 0.02135 0.0
C561 C 0.55271 0.62766 0.03064 0.0
N562 N 0.60929 0.62436 0.05697 0.0
N563 N 0.55977 0.73274 1.01317 0.0
C564 C 0.58981 0.64879 0.04897 0.0
C565 C 0.55639 0.70238 0.02925 0.0
N566 N 0.6485 0.72077 0.07144 0.0
N567 N 0.49708 0.63493 1.00512 0.0
H568 H 0.58493 0.76796 0.01598 0.0
H569 H 0.54345 0.72167 0.99578 0.0
H570 H 0.47816 0.59932 0.99966 0.0
H571 H 0.48227 0.6539 0.99917 0.0
H572 H 0.66975 0.70748 0.07549 0.0
H573 H 0.66455 0.75687 0.07521 0.0
H574 H 0.63215 0.63517 0.07232 0.0
H575 H 0.60096 0.59213 0.04859 0.0
C576 C 0.90448 0.30994 0.97898 0.0
C577 C 0.86213 0.30358 0.96908 0.0
C578 C 0.88192 0.38041 0.98778 0.0
C579 C 0.92594 0.38855 0.99594 0.0
N580 N 0.98161 0.36382 0.99686 0.0
N581 N 0.81351 0.33522 0.96027 0.0
C582 C 0.93794 0.35406 0.99085 0.0
C583 C 0.85181 0.33966 0.97229 0.0
N584 N 0.91211 0.27332 0.9777 0.0
N585 N 0.86781 0.41021 0.99588 0.0
H586 H 0.79038 0.30552 0.949 0.0
H587 H 0.80682 0.36245 0.95978 0.0
H588 H 0.88809 0.43966 1.0079 0.0
H589 H 0.83448 0.40351 0.99249 0.0
H590 H 0.9399 0.27403 0.98696 0.0
H591 H 0.88889 0.24077 0.96871 0.0
H592 H 0.99402 0.34225 0.99127 0.0
H593 H 0.00664 0.3953 1.00602 0.0
C594 C 0.66902 0.52412 0.95175 0.0
C595 C 0.70925 0.56618 0.96073 0.0
C596 C 0.66732 0.58064 0.99109 0.0
C597 C 0.6284 0.53587 0.98414 0.0
N598 N 0.59307 0.46346 0.95797 0.0
N599 N 0.74889 0.63234 0.99051 0.0
C600 C 0.62934 0.50735 0.96436 0.0
C601 C 0.70911 0.59359 0.98099 0.0
N602 N 0.66857 0.50024 0.93093 0.0
N603 N 0.66339 0.61246 1.00572 0.0
H604 H 0.7797 0.64465 0.98281 0.0
H605 H 0.752 0.65039 1.00696 0.0
H606 H 0.63234 0.60616 1.01147 0.0
H607 H 0.68934 0.64704 1.00962 0.0
H608 H 0.63881 0.47361 0.92134 0.0
H609 H 0.69775 0.50881 0.92223 0.0
H610 H 0.59445 0.43882 0.9463 0.0
H611 H 0.56212 0.44966 0.96541 0.0
C612 C 0.4275 0.11438 0.98055 0.0
C613 C 0.45473 0.14246 0.96333 0.0
C614 C 0.5172 0.12993 0.97712 0.0
C615 C 0.49113 0.10482 0.99563 0.0
N616 N 0.42662 0.08363 0.01858 0.0
N617 N 0.52651 0.1807 0.94596 0.0
C618 C 0.44746 0.09951 0.99823 0.0
C619 C 0.49975 0.15089 0.96164 0.0
N620 N 0.38249 0.10203 0.97997 0.0
N621 N 0.55852 0.13357 0.97424 0.0
H622 H 0.51428 0.19517 0.93369 0.0
H623 H 0.56138 0.19311 0.94582 0.0
H624 H 0.57477 0.12348 0.9867 0.0
H625 H 0.57609 0.14517 0.95916 0.0
H626 H 0.35964 0.07781 0.99055 0.0
H627 H 0.367 0.1127 0.96725 0.0
H628 H 0.397 0.08354 0.02265 0.0
H629 H 0.44147 0.07512 0.03268 0.0
C630 C 0.72073 0.15414 0.99721 0.0
C631 C 0.7265 0.14253 0.9735 0.0
C632 C 0.65344 0.06886 0.97313 0.0
C633 C 0.6424 0.08851 0.99321 0.0
N634 N 0.667 0.15495 0.02282 0.0
N635 N 0.71376 0.07399 0.94981 0.0
C636 C 0.67647 0.13244 1.00492 0.0
C637 C 0.69698 0.09539 0.96409 0.0
N638 N 0.75767 0.17892 1.01368 0.0
N639 N 0.62306 0.02482 0.96292 0.0
H640 H 0.74827 0.09063 0.94677 0.0
H641 H 0.69586 0.03864 0.94386 0.0
H642 H 0.59411 1.00159 0.97078 0.0
H643 H 0.62621 0.01165 0.94628 0.0
H644 H 0.75447 0.18486 0.03176 0.0
H645 H 0.79045 0.18705 1.00975 0.0
H646 H 0.69129 0.18837 0.03048 0.0
H647 H 0.63428 0.14306 0.02802 0.0
C648 C 0.89225 0.60818 0.97601 0.0
C649 C 0.86035 0.57672 0.95699 0.0
C650 C 0.89047 0.52391 0.96112 0.0
C651 C 0.92178 0.55492 0.98053 0.0
N652 N 0.95788 0.62921 1.00436 0.0
N653 N 0.82511 0.50315 0.9326 0.0
C654 C 0.92395 0.59769 0.98753 0.0
C655 C 0.85873 0.53439 0.94966 0.0
N656 N 0.89117 0.64745 0.98344 0.0
N657 N 0.89143 0.48464 0.95353 0.0
H658 H 0.80192 0.51002 0.92344 0.0
H659 H 0.81817 0.46934 0.92824 0.0
H660 H 0.9116 0.47374 0.96245 0.0
H661 H 0.87393 0.46356 0.93776 0.0
H662 H 0.90929 0.66919 0.99894 0.0
H663 H 0.87023 0.65755 0.97456 0.0
H664 H 0.9649 0.66308 1.00858 0.0
H665 H 0.98145 0.62263 1.01331 0.0
C666 C 0.41941 0.29894 0.97266 0.0
C667 C 0.45205 0.28924 0.96356 0.0
C668 C 0.51416 0.36217 0.98424 0.0
C669 C 0.48173 0.37431 0.99232 0.0
N670 N 0.40213 0.35644 0.98831 0.0
N671 N 0.52967 0.31668 0.95507 0.0
C672 C 0.43404 0.34372 0.98462 0.0
C673 C 0.49911 0.3224 0.96767 0.0
N674 N 0.3744 0.2646 0.97085 0.0
N675 N 0.55961 0.38782 0.99229 0.0
H676 H 0.51993 0.28817 0.94252 0.0
H677 H 0.56391 0.34247 0.95522 0.0
H678 H 0.57592 0.42162 1.00058 0.0
H679 H 0.58185 0.37505 0.99047 0.0
H680 H 0.34985 0.26742 0.98 0.0
H681 H 0.36222 0.23162 0.9619 0.0
H682 H 0.3687 0.33742 0.98021 0.0
H683 H 0.40854 0.38748 0.99722 0.0
C684 C 0.17105 0.69133 0.07272 0.0
C685 C 0.16054 0.72678 0.06911 0.0
C686 C 0.10383 0.67758 0.03568 0.0
C687 C 0.11164 0.64059 0.04045 0.0
N688 N 0.14764 0.60984 0.06587 0.0
N689 N 0.11207 0.75163 0.05028 0.0
C690 C 0.14391 0.64682 0.05962 0.0
C691 C 0.12523 0.71915 0.0516 0.0
N692 N 0.20785 0.70062 0.08817 0.0
N693 N 0.07846 0.67433 0.01511 0.0
H694 H 0.12766 0.78285 0.06142 0.0
H695 H 0.08325 0.74588 0.03965 0.0
H696 H 0.06411 0.6456 1.00227 0.0
H697 H 0.07541 0.70196 1.00951 0.0
H698 H 0.22082 0.67828 0.08932 0.0
H699 H 0.22758 0.73222 0.0988 0.0
H700 H 0.16646 0.61064 0.08136 0.0
H701 H 0.12889 0.57702 0.05652 0.0
C702 C 0.30737 0.40544 0.06546 0.0
C703 C 0.30458 0.44313 0.07664 0.0
C704 C 0.37595 0.499 0.06089 0.0
C705 C 0.38016 0.46138 0.05096 0.0
N706 N 0.35459 0.37934 0.04681 0.0
N707 N 0.33961 0.52527 0.08889 0.0
C708 C 0.34725 0.4147 0.05416 0.0
C709 C 0.33991 0.48983 0.07547 0.0
N710 N 0.27125 0.361 0.06495 0.0
N711 N 0.40606 0.54344 0.05609 0.0
H712 H 0.31396 0.51975 0.09996 0.0
H713 H 0.36661 0.55957 0.09078 0.0
H714 H 0.43353 0.5516 0.04594 0.0
H715 H 0.40197 0.57181 0.06056 0.0
H716 H 0.26892 0.33261 0.05478 0.0
H717 H 0.2419 0.35285 0.07344 0.0
H718 H 0.33456 0.34522 0.05095 0.0
H719 H 0.38287 0.38475 0.03797 0.0
C720 C 0.58245 0.88026 0.04217 0.0
C721 C 0.5633 0.85956 0.06323 0.0
C722 C 0.52328 0.9034 0.06469 0.0
C723 C 0.53516 0.91664 0.04145 0.0
N724 N 0.57417 0.91521 1.007 0.0
N725 N 0.5083 0.84527 0.09205 0.0
C726 C 0.56431 0.90442 0.02986 0.0
C727 C 0.53182 0.86954 0.07391 0.0
N728 N 0.61905 0.87835 0.03445 0.0
N729 N 0.5053 0.92425 0.07836 0.0
H730 H 0.5118 0.81853 0.09865 0.0
H731 H 0.48182 0.84841 0.09876 0.0
H732 H 0.50153 0.95132 0.07265 0.0
H733 H 0.49934 0.91844 0.09621 0.0
H734 H 0.637 0.89649 0.02054 0.0
H735 H 0.63452 0.86266 0.04355 0.0
H736 H 0.59095 0.90251 0.99671 0.0
H737 H 0.56289 0.93432 0.9977 0.0
C738 C 0.9717 0.17496 0.3939 0.0
C739 C 0.94653 0.19437 0.40368 0.0
C740 C 1.00238 0.27021 0.39111 0.0
C741 C 0.02309 0.24872 0.37831 0.0
N742 N 0.01897 0.17718 0.36294 0.0
N743 N 0.93347 0.25922 0.40764 0.0
C744 C 0.00502 0.20002 0.37818 0.0
C745 C 0.96069 0.2418 0.4013 0.0
N746 N 0.96521 0.13334 0.40038 0.0
N747 N 0.0223 0.3176 0.39356 0.0
H748 H 0.90209 0.23924 0.41444 0.0
H749 H 0.93997 0.29218 0.40403 0.0
H750 H 0.05197 0.33951 0.38578 0.0
H751 H 0.01127 0.33521 0.40481 0.0
H752 H 0.9858 0.11991 0.3954 0.0
H753 H 0.94299 0.11507 0.41299 0.0
H754 H 0.00346 0.14099 0.36078 0.0
H755 H 0.04281 0.19379 0.35081 0.0
C756 C 0.83961 0.81374 0.39735 0.0
C757 C 0.82523 0.76863 0.40445 0.0
C758 C 0.74739 0.74159 0.38659 0.0
C759 C 0.76304 0.78548 0.37769 0.0
N760 N 0.82636 0.85935 0.36953 0.0
N761 N 0.76789 0.68684 0.40111 0.0
C762 C 0.80994 0.82025 0.38138 0.0
C763 C 0.77973 0.73165 0.39777 0.0
N764 N 0.88068 0.8509 0.40677 0.0
N765 N 0.70167 0.70954 0.38455 0.0
H766 H 0.79096 0.67793 0.40851 0.0
H767 H 0.73651 0.65807 0.39444 0.0
H768 H 0.67722 0.71488 0.37559 0.0
H769 H 0.68783 0.6791 0.3931 0.0
H770 H 0.89067 0.88523 0.40404 0.0
H771 H 0.90269 0.84806 0.41935 0.0
H772 H 0.86112 0.88362 0.36986 0.0
H773 H 0.80577 0.86536 0.35754 0.0
C774 C 0.26905 0.03544 0.39385 0.0
C775 C 0.24558 0.05777 0.38533 0.0
C776 C 0.20305 0.99388 0.35381 0.0
C777 C 0.22008 0.96742 0.36455 0.0
N778 N 0.27409 0.96556 0.39354 0.0
N779 N 0.22812 0.07217 0.34564 0.0
C780 C 0.25462 0.989 0.38423 0.0
C781 C 0.22272 0.04148 0.36191 0.0
N782 N 0.3092 0.06114 0.40814 0.0
N783 N 0.16779 0.97409 0.33607 0.0
H784 H 0.25219 0.10763 0.34925 0.0
H785 H 0.21476 0.06145 0.32773 0.0
H786 H 0.15004 0.93859 0.33034 0.0
H787 H 0.15345 0.9927 0.32899 0.0
H788 H 0.33055 0.04865 0.41349 0.0
H789 H 0.32398 0.0971 0.41203 0.0
H790 H 0.29443 0.97626 0.40982 0.0
H791 H 0.26853 0.93447 0.38509 0.0
C792 C 0.5004 0.65526 0.30521 0.0
C793 C 0.50989 0.61897 0.30005 0.0
C794 C 0.58797 0.66839 0.31934 0.0
C795 C 0.57687 0.70269 0.32654 0.0
N796 N 0.51973 0.72497 0.33069 0.0
N797 N 0.55984 0.58755 0.30544 0.0
C798 C 0.53231 0.69516 0.32068 0.0
C799 C 0.55297 0.62458 0.30797 0.0
N800 N 0.46155 0.65225 0.29479 0.0
N801 N 0.63214 0.67806 0.32289 0.0
H802 H 0.53484 0.55474 0.29746 0.0
H803 H 0.58877 0.58813 0.3131 0.0
H804 H 0.65854 0.70977 0.33125 0.0
H805 H 0.64336 0.65638 0.31578 0.0
H806 H 0.45541 0.67992 0.29581 0.0
H807 H 0.43735 0.62359 0.28327 0.0
H808 H 0.48624 0.71837 0.32906 0.0
H809 H 0.54188 0.75448 0.34229 0.0
C810 C 0.33956 0.89008 0.28344 0.0
C811 C 0.38315 0.90899 0.29634 0.0
C812 C 0.34636 0.89553 0.3337 0.0
C813 C 0.30395 0.88362 0.32084 0.0
N814 N 0.26891 0.8901 0.28333 0.0
N815 N 0.42833 0.94428 0.33451 0.0
C816 C 0.30303 0.88717 0.29565 0.0
C817 C 0.38676 0.91662 0.32174 0.0
N818 N 0.33184 0.87266 0.25997 0.0
N819 N 0.34858 0.8842 0.35652 0.0
H820 H 0.4584 0.96268 0.32628 0.0
H821 H 0.43171 0.95304 0.35296 0.0
H822 H 0.31995 0.86306 0.36516 0.0
H823 H 0.37905 0.89017 0.36549 0.0
H824 H 0.29913 0.85522 0.25092 0.0
H825 H 0.35639 0.87012 0.25068 0.0
H826 H 0.26906 0.89492 0.26512 0.0
H827 H 0.24482 0.89495 0.2918 0.0
C828 C 0.07569 0.4401 0.30935 0.0
C829 C 0.10983 0.47681 0.29797 0.0
C830 C 0.16898 0.46558 0.31782 0.0
C831 C 0.13473 0.42672 0.32845 0.0
N832 N 0.05403 0.37421 0.3322 0.0
N833 N 0.18649 0.5171 0.28639 0.0
C834 C 0.08761 0.41273 0.32331 0.0
C835 C 0.15569 0.48727 0.30073 0.0
N836 N 0.03228 0.43311 0.30796 0.0
N837 N 0.21448 0.48277 0.32415 0.0
H838 H 0.17795 0.53362 0.27358 0.0
H839 H 0.21912 0.52183 0.28547 0.0
H840 H 0.22743 0.46587 0.33403 0.0
H841 H 0.23997 0.51518 0.31996 0.0
H842 H 0.00709 0.41118 0.31835 0.0
H843 H 0.02208 0.45177 0.29751 0.0
H844 H 0.01959 0.35834 0.32591 0.0
H845 H 0.06003 0.35675 0.34531 0.0
C846 C 0.31857 0.46937 0.28725 0.0
C847 C 0.35959 0.47014 0.29438 0.0
C848 C 0.32103 0.41607 0.32449 0.0
C849 C 0.27927 0.41394 0.31677 0.0
N850 N 0.23659 0.43104 0.2868 0.0
N851 N 0.39914 0.43932 0.31672 0.0
C852 C 0.27744 0.43804 0.29687 0.0
C853 C 0.36066 0.4422 0.31222 0.0
N854 N 0.31927 0.5004 0.27211 0.0
N855 N 0.3227 0.39236 0.34323 0.0
H856 H 0.42861 0.45794 0.30804 0.0
H857 H 0.40106 0.41603 0.32759 0.0
H858 H 0.29376 0.36827 0.35079 0.0
H859 H 0.35297 0.39748 0.3519 0.0
H860 H 0.29193 0.50585 0.26871 0.0
H861 H 0.34853 0.52384 0.26449 0.0
H862 H 0.2329 0.44195 0.27024 0.0
H863 H 0.20556 0.41244 0.29401 0.0
C864 C 0.5551 0.92743 0.31197 0.0
C865 C 0.52392 0.89835 0.29217 0.0
C866 C 0.55066 0.84274 0.29529 0.0
C867 C 0.58252 0.87213 0.315 0.0
N868 N 0.60997 0.93832 0.34477 0.0
N869 N 0.49486 0.83191 0.26283 0.0
C870 C 0.58326 0.91329 0.32414 0.0
C871 C 0.5225 0.85699 0.28322 0.0
N872 N 0.55932 0.96982 0.31832 0.0
N873 N 0.54501 0.79964 0.28924 0.0
H874 H 0.47218 0.84006 0.25417 0.0
H875 H 0.49634 0.80489 0.25345 0.0
H876 H 0.56366 0.78692 0.29802 0.0
H877 H 0.51907 0.77437 0.27697 0.0
H878 H 0.58501 0.99542 0.33058 0.0
H879 H 0.53916 0.98133 0.30991 0.0
H880 H 0.60768 0.96492 0.35405 0.0
H881 H 0.63275 0.93095 0.35383 0.0
C882 C 0.09242 0.63744 0.31114 0.0
C883 C 0.12184 0.63094 0.29652 0.0
C884 C 0.18513 0.70896 0.31134 0.0
C885 C 0.15673 0.71367 0.32774 0.0
N886 N 0.08693 0.6768 0.34726 0.0
N887 N 0.1971 0.65764 0.28403 0.0
C888 C 0.11115 0.67658 0.3286 0.0
C889 C 0.16842 0.66603 0.29689 0.0
N890 N 0.04655 0.6059 0.30847 0.0
N891 N 0.22766 0.74568 0.30905 0.0
H892 H 0.18566 0.62765 0.27229 0.0
H893 H 0.23254 0.67897 0.28599 0.0
H894 H 0.24281 0.77665 0.32017 0.0
H895 H 0.24715 0.74654 0.29516 0.0
H896 H 0.02271 0.61131 0.31684 0.0
H897 H 0.03184 0.57632 0.29613 0.0
H898 H 0.05526 0.64865 0.35003 0.0
H899 H 0.10059 0.7027 0.36162 0.0
C900 C 0.76923 0.03432 0.38037 0.0
C901 C 0.80306 0.04168 0.39869 0.0
C902 C 0.78559 0.9611 0.39015 0.0
C903 C 0.75585 0.95523 0.36951 0.0
N904 N 0.72083 0.9883 0.34461 0.0
N905 N 0.84833 0.01485 0.41925 0.0
C906 C 0.74811 0.99246 0.36454 0.0
C907 C 0.81221 0.0057 0.40325 0.0
N908 N 0.75644 0.06702 0.37854 0.0
N909 N 0.78919 0.92466 0.39749 0.0
H910 H 0.8683 0.04661 0.42967 0.0
H911 H 0.86101 0.99233 0.42083 0.0
H912 H 0.77499 0.89243 0.38782 0.0
H913 H 0.80436 0.92556 0.41431 0.0
H914 H 0.72837 0.06178 0.36743 0.0
H915 H 0.77152 0.09808 0.3898 0.0
H916 H 0.7197 0.01636 0.33812 0.0
H917 H 0.70001 0.95717 0.33393 0.0
C918 C 0.97139 0.73891 0.39043 0.0
C919 C 0.9729 0.77037 0.40916 0.0
C920 C 0.05098 0.82827 0.40159 0.0
C921 C 0.05048 0.79583 0.38382 0.0
N922 N 0.01309 0.71849 0.36312 0.0
N923 N 0.01529 0.84245 0.43483 0.0
C924 C 0.01137 0.75069 0.37863 0.0
C925 C 0.01318 0.81423 0.41549 0.0
N926 N 0.93142 0.69802 0.38372 0.0
N927 N 0.0867 0.87326 0.40431 0.0
H928 H 0.98762 0.83457 0.44473 0.0
H929 H 0.04533 0.87209 0.4422 0.0
H930 H 0.11451 0.88514 0.39408 0.0
H931 H 0.08714 0.89998 0.41512 0.0
H932 H 0.92609 0.67625 0.36832 0.0
H933 H 0.90238 0.68678 0.39296 0.0
H934 H 0.98803 0.68338 0.36072 0.0
H935 H 0.04119 0.72619 0.35362 0.0
C936 C 0.23951 0.22183 0.37881 0.0
C937 C 0.21114 0.18866 0.39402 0.0
C938 C 0.15201 0.20869 0.38564 0.0
C939 C 0.17766 0.23728 0.36798 0.0
N940 N 0.24345 0.26576 0.34525 0.0
N941 N 0.13806 0.14583 0.40978 0.0
C942 C 0.22103 0.2428 0.364 0.0
C943 C 0.16676 0.18086 0.39691 0.0
N944 N 0.28431 0.23363 0.37873 0.0
N945 N 0.11453 0.20962 0.39246 0.0
H946 H 0.14784 0.12517 0.41871 0.0
H947 H 0.10347 0.13486 0.41007 0.0
H948 H 0.10366 0.23055 0.38506 0.0
H949 H 0.09724 0.19358 0.40701 0.0
H950 H 0.30802 0.26109 0.36997 0.0
H951 H 0.29884 0.2187 0.38926 0.0
H952 H 0.27277 0.2666 0.33996 0.0
H953 H 0.23068 0.28051 0.33351 0.0
C954 C 0.65357 0.51557 0.73126 0.0
C955 C 0.62824 0.53477 0.74103 0.0
C956 C 0.68376 0.61056 0.72831 0.0
C957 C 0.70416 0.58905 0.71522 0.0
N958 N 0.69978 0.5173 0.69988 0.0
N959 N 0.6149 0.59947 0.74491 0.0
C960 C 0.68628 0.54038 0.71524 0.0
C961 C 0.64219 0.58213 0.73859 0.0
N962 N 0.64766 0.47429 0.73795 0.0
N963 N 0.70383 0.65795 0.73097 0.0
H964 H 0.58354 0.57945 0.75172 0.0
H965 H 0.62134 0.63238 0.74125 0.0
H966 H 0.73369 0.67993 0.72337 0.0
H967 H 0.69283 0.67543 0.74234 0.0
H968 H 0.66836 0.46102 0.73292 0.0
H969 H 0.62592 0.45631 0.75079 0.0
H970 H 0.68429 0.4811 0.69791 0.0
H971 H 0.72312 0.53363 0.6875 0.0
C972 C 0.44077 0.0736 0.73429 0.0
C973 C 0.48819 0.10709 0.73831 0.0
C974 C 0.47646 0.15707 0.71214 0.0
C975 C 0.42844 0.12755 0.7115 0.0
N976 N 0.36444 0.05999 0.72496 0.0
N977 N 0.54878 0.18619 0.73566 0.0
C978 C 0.41041 0.08656 0.72357 0.0
C979 C 0.50543 0.15045 0.72852 0.0
N980 N 0.42489 0.02885 0.73956 0.0
N981 N 0.49469 0.19106 0.69696 0.0
H982 H 0.57034 0.1838 0.74873 0.0
H983 H 0.56123 0.21974 0.7306 0.0
H984 H 0.47465 0.1959 0.68409 0.0
H985 H 0.52972 0.21086 0.69548 0.0
H986 H 0.3913 1.00211 0.73484 0.0
H987 H 0.44625 0.01726 0.74628 0.0
H988 H 0.35009 0.03277 0.73581 0.0
H989 H 0.34098 0.06729 0.71662 0.0
C990 C 0.84627 0.34062 0.71975 0.0
C991 C 0.89247 0.37698 0.72437 0.0
C992 C 0.91776 0.32805 0.7039 0.0
C993 C 0.87133 0.29282 0.69795 0.0
N994 N 0.79148 0.27017 0.69505 0.0
N995 N 0.97185 0.40901 0.71781 0.0
C996 C 0.83555 0.30039 0.70441 0.0
C997 C 0.92819 0.37176 0.71559 0.0
N998 N 0.81272 0.34395 0.73057 0.0
N999 N 0.95189 0.31942 0.6989 0.0
H1000 H 0.9808 0.44138 0.72652 0.0
H1001 H 0.99854 0.40907 0.70947 0.0
H1002 H 0.94561 0.28869 0.68949 0.0
H1003 H 0.98606 0.34134 0.70533 0.0
H1004 H 0.77924 0.31631 0.73003 0.0
H1005 H 0.81916 0.373 0.74188 0.0
H1006 H 0.76472 0.27652 0.69714 0.0
H1007 H 0.7822 0.24066 0.68337 0.0
C1008 C 0.22865 0.96564 0.64658 0.0
C1009 C 0.18673 0.96001 0.6365 0.0
C1010 C 0.20717 0.03684 0.65549 0.0
C1011 C 0.25115 0.04463 0.66339 0.0
N1012 N 0.30606 0.01891 0.66425 0.0
N1013 N 0.13896 0.99279 0.6278 0.0
C1014 C 0.26254 0.00966 0.65836 0.0
C1015 C 0.17681 0.99637 0.63992 0.0
N1016 N 0.23549 0.92852 0.64551 0.0
N1017 N 0.19348 0.06688 0.66378 0.0
H1018 H 0.11564 0.96348 0.61637 0.0
H1019 H 0.13285 0.02042 0.62745 0.0
H1020 H 0.21406 0.09625 0.6758 0.0
H1021 H 0.16019 0.0604 0.66055 0.0
H1022 H 0.26314 0.92892 0.65475 0.0
H1023 H 0.21154 0.89582 0.63692 0.0
H1024 H 0.31797 0.99687 0.6587 0.0
H1025 H 0.33149 0.05043 0.67319 0.0
C1026 C 0.01871 0.19281 0.64116 0.0
C1027 C 0.04051 0.23428 0.62956 0.0
C1028 C 0.98341 0.25339 0.64228 0.0
C1029 C 0.96542 0.21486 0.65621 0.0
N1030 N 0.97679 0.15717 0.67455 0.0
N1031 N 0.05026 0.31026 0.62481 0.0
C1032 C 0.9867 0.1877 0.65759 0.0
C1033 C 0.02481 0.26649 0.63172 0.0
N1034 N 0.02655 0.1571 0.63562 0.0
N1035 N 0.96112 0.27744 0.63896 0.0
H1036 H 0.08201 0.32212 0.61824 0.0
H1037 H 0.04223 0.33631 0.62807 0.0
H1038 H 0.93162 0.26996 0.647 0.0
H1039 H 0.97022 0.30251 0.62686 0.0
H1040 H 0.00822 0.12471 0.64219 0.0
H1041 H 0.04717 0.15783 0.62233 0.0
H1042 H 0.99437 0.13937 0.67726 0.0
H1043 H 0.95465 0.15352 0.68746 0.0
C1044 C 0.83147 0.82805 0.63795 0.0
C1045 C 0.78415 0.81019 0.63186 0.0
C1046 C 0.76509 0.7469 0.65727 0.0
C1047 C 0.81261 0.76345 0.66282 0.0
N1048 N 0.89116 0.81639 0.65534 0.0
N1049 N 0.70622 0.74786 0.63123 0.0
C1050 C 0.84585 0.80315 0.65232 0.0
C1051 C 0.75114 0.76779 0.63988 0.0
N1052 N 0.86271 0.8694 0.63013 0.0
N1053 N 0.73324 0.7142 0.67007 0.0
H1054 H 0.69442 0.76323 0.61934 0.0
H1055 H 0.68136 0.71421 0.63416 0.0
H1056 H 0.74146 0.70044 0.68434 0.0
H1057 H 0.69884 0.70456 0.66853 0.0
H1058 H 0.89698 0.88852 0.63685 0.0
H1059 H 0.85389 0.88599 0.61749 0.0
H1060 H 0.9163 0.84195 0.64628 0.0
H1061 H 0.90384 0.79894 0.66494 0.0
C1062 C 0.99741 0.80552 0.62135 0.0
C1063 C 0.03906 0.80819 0.62917 0.0
C1064 C 1.00063 0.75356 0.65908 0.0
C1065 C 0.95838 0.74994 0.65084 0.0
N1066 N 0.91524 0.76409 0.61964 0.0
N1067 N 0.0797 0.77939 0.65223 0.0
C1068 C 0.95626 0.77299 0.63052 0.0
C1069 C 0.04052 0.78074 0.64719 0.0
N1070 N 0.99743 0.83603 0.60606 0.0
N1071 N 1.00252 0.73028 0.67797 0.0
H1072 H 0.10934 0.79876 0.64382 0.0
H1073 H 0.08213 0.75663 0.66331 0.0
H1074 H 0.97357 0.70527 0.68515 0.0
H1075 H 0.0329 0.73648 0.68704 0.0
H1076 H 0.96929 0.84002 0.60219 0.0
H1077 H 0.02671 0.86054 0.59887 0.0
H1078 H 0.91192 0.77419 0.60277 0.0
H1079 H 0.88389 0.745 0.62645 0.0
C1080 C 0.18191 0.1918 0.62025 0.0
C1081 C 0.18759 0.23655 0.62596 0.0
C1082 C 0.25294 0.25726 0.65503 0.0
C1083 C 0.24912 0.21366 0.64814 0.0
N1084 N 0.21396 0.14141 0.62232 0.0
N1085 N 0.23114 0.31426 0.64595 0.0
C1086 C 0.21492 0.1816 0.6301 0.0
C1087 C 0.22385 0.26999 0.6426 0.0
N1088 N 0.14384 0.15836 0.60623 0.0
N1089 N 0.28417 0.28631 0.67352 0.0
H1090 H 0.21015 0.32451 0.63725 0.0
H1091 H 0.25973 0.34181 0.65587 0.0
H1092 H 0.30752 0.27926 0.68232 0.0
H1093 H 0.28528 0.3161 0.6812 0.0
H1094 H 0.13482 0.1235 0.60377 0.0
H1095 H 0.11901 0.16448 0.59841 0.0
H1096 H 0.19382 0.11972 0.60714 0.0
H1097 H 0.23537 0.13082 0.63011 0.0
C1098 C 0.75505 0.964 0.65162 0.0
C1099 C 0.78375 0.95825 0.6361 0.0
C1100 C 0.84398 0.03925 0.64697 0.0
C1101 C 0.81708 0.04396 0.66424 0.0
N1102 N 0.75065 0.00761 0.68642 0.0
N1103 N 0.85778 0.98762 0.62123 0.0
C1104 C 0.77339 0.00555 0.66742 0.0
C1105 C 0.82885 0.99511 0.63439 0.0
N1106 N 0.71022 0.92986 0.65112 0.0
N1107 N 0.8832 0.07736 0.64183 0.0
H1108 H 0.84768 0.95635 0.61095 0.0
H1109 H 0.89273 0.01122 0.62186 0.0
H1110 H 0.89548 0.11007 0.65076 0.0
H1111 H 0.90138 0.07746 0.62744 0.0
H1112 H 0.68627 0.93404 0.66012 0.0
H1113 H 0.69605 0.89866 0.64004 0.0
H1114 H 0.72085 0.97914 0.69098 0.0
H1115 H 0.76382 0.03638 0.69918 0.0
C1116 C 0.44973 0.37401 0.71772 0.0
C1117 C 0.48529 0.38163 0.73505 0.0
C1118 C 0.47043 0.30257 0.72426 0.0
C1119 C 0.43779 0.29643 0.70532 0.0
N1120 N 0.40316 0.33011 0.68099 0.0
N1121 N 0.53387 0.35596 0.75315 0.0
C1122 C 0.42897 0.33307 0.7013 0.0
C1123 C 0.4968 0.34663 0.73789 0.0
N1124 N 0.43565 0.40585 0.71709 0.0
N1125 N 0.47519 0.26583 0.72981 0.0
H1126 H 0.55295 0.38702 0.76426 0.0
H1127 H 0.54766 0.33426 0.75367 0.0
H1128 H 0.45709 0.2334 0.72003 0.0
H1129 H 0.49422 0.26632 0.74513 0.0
H1130 H 0.40666 0.40001 0.7066 0.0
H1131 H 0.45067 0.43648 0.72868 0.0
H1132 H 0.3993 0.35758 0.67591 0.0
H1133 H 0.38919 0.30188 0.66786 0.0
C1134 C 0.67263 0.14311 0.74848 0.0
C1135 C 0.63146 0.1002 0.7418 0.0
C1136 C 0.6689 0.07909 0.71121 0.0
C1137 C 0.709 0.12335 0.71678 0.0
N1138 N 0.74802 0.19996 0.7385 0.0
N1139 N 0.58832 0.02857 0.71593 0.0
C1140 C 0.7107 0.1559 0.73495 0.0
C1141 C 0.62902 0.06852 0.72289 0.0
N1142 N 0.67536 0.17168 0.76783 0.0
N1143 N 0.66961 0.0465 0.69552 0.0
H1144 H 0.55928 0.0182 0.72507 0.0
H1145 H 0.58249 0.0068 0.70045 0.0
H1146 H 0.69789 0.05325 0.68636 0.0
H1147 H 0.6435 0.01183 0.6927 0.0
H1148 H 0.70587 0.20018 0.77565 0.0
H1149 H 0.64748 0.1654 0.77722 0.0
H1150 H 0.74938 0.22717 0.74931 0.0
H1151 H 0.77682 0.21076 0.72915 0.0
C1152 C 0.84439 0.51795 0.73186 0.0
C1153 C 0.88811 0.52415 0.7287 0.0
C1154 C 0.89988 0.57974 0.69924 0.0
C1155 C 0.85717 0.57569 0.70351 0.0
N1156 N 0.79464 0.54973 0.72832 0.0
N1157 N 0.96122 0.56668 0.71306 0.0
C1158 C 0.8311 0.54725 0.72109 0.0
C1159 C 0.91713 0.55702 0.71357 0.0
N1160 N 0.81488 0.48307 0.74457 0.0
N1161 N 0.92269 0.60289 0.68063 0.0
H1162 H 0.97457 0.55009 0.72311 0.0
H1163 H 0.98557 0.59377 0.70437 0.0
H1164 H 0.91081 0.61899 0.66929 0.0
H1165 H 0.95144 0.60282 0.67509 0.0
H1166 H 0.78056 0.47323 0.74492 0.0
H1167 H 0.82354 0.46138 0.75328 0.0
H1168 H 0.77717 0.53374 0.74282 0.0
H1169 H 0.78513 0.57207 0.72141 0.0
C1170 C 0.45435 0.94024 0.20626 0.0
C1171 C 0.47999 0.96922 0.22749 0.0
C1172 C 0.52821 0.03206 0.20353 0.0
C1173 C 0.50142 0.00373 0.18238 0.0
N1174 N 0.4338 0.93501 0.16363 0.0
N1175 N 0.53535 0.04492 0.24699 0.0
C1176 C 0.46277 0.95907 0.18378 0.0
C1177 C 0.51508 0.01592 0.2263 0.0
N1178 N 0.42341 0.89416 0.20749 0.0
N1179 N 0.56722 0.07354 0.20178 0.0
H1180 H 0.52669 0.03396 0.26395 0.0
H1181 H 0.55786 0.08059 0.24735 0.0
H1182 H 0.57757 0.08688 0.18544 0.0
H1183 H 0.59104 0.09328 0.21631 0.0
H1184 H 0.40746 0.87005 0.19246 0.0
H1185 H 0.41611 0.879 0.2236 0.0
H1186 H 0.40245 0.90454 0.16387 0.0
H1187 H 0.43923 0.94763 0.14682 0.0
C1188 C 0.00411 0.50089 0.2185 0.0
C1189 C 0.05046 0.51328 0.22383 0.0
C1190 C 0.05242 0.4895 0.18208 0.0
C1191 C 0.01201 0.4906 0.17576 0.0
N1192 N 0.93744 0.45863 0.18976 0.0
N1193 N 0.1193 0.51869 0.21021 0.0
C1194 C 0.98378 0.48528 0.19446 0.0
C1195 C 0.07473 0.50703 0.20553 0.0
N1196 N 0.97949 0.50404 0.23624 0.0
N1197 N 0.06494 0.46473 0.16732 0.0
H1198 H 0.1374 0.53237 0.2271 0.0
H1199 H 0.13908 0.51825 0.19671 0.0
H1200 H 0.044 0.44428 0.15196 0.0
H1201 H 0.09191 0.4593 0.17208 0.0
H1202 H 0.94733 0.50039 0.23276 0.0
H1203 H 0.99226 0.51284 0.25428 0.0
H1204 H 0.9149 0.44965 0.203 0.0
H1205 H 0.92241 0.44034 0.17294 0.0
C1206 C 0.49393 0.50296 0.22267 0.0
C1207 C 0.45696 0.5109 0.22509 0.0
C1208 C 0.44323 0.50452 0.18127 0.0
C1209 C 0.48406 0.50317 0.17911 0.0
N1210 N 0.55214 0.50793 0.19794 0.0
N1211 N 0.39876 0.52397 0.20698 0.0
C1212 C 0.51039 0.50402 0.19987 0.0
C1213 C 0.43194 0.51265 0.20445 0.0
N1214 N 0.51274 0.49351 0.24215 0.0
N1215 N 0.41482 0.49705 0.1612 0.0
H1216 H 0.38935 0.52991 0.22363 0.0
H1217 H 0.38282 0.5308 0.19271 0.0
H1218 H 0.42211 0.49109 0.14396 0.0
H1219 H 0.38231 0.49276 0.16175 0.0
H1220 H 0.53673 0.48289 0.24104 0.0
H1221 H 0.501 0.49173 0.25908 0.0
H1222 H 0.57502 0.51393 0.2127 0.0
H1223 H 0.56585 0.50941 0.1816 0.0
C1224 C 0.91441 0.45187 0.81797 0.0
C1225 C 0.94419 0.47999 0.80144 0.0
C1226 C 0.00464 0.52381 0.83424 0.0
C1227 C 0.97686 0.49201 0.85018 0.0
N1228 N 0.90742 0.42206 0.85683 0.0
N1229 N 0.01955 0.53869 0.793 0.0
C1230 C 0.93218 0.45508 0.84197 0.0
C1231 C 0.98982 0.51505 0.80935 0.0
N1232 N 0.8689 0.42297 0.81085 0.0
N1233 N 0.04471 0.56301 0.84301 0.0
H1234 H 0.01005 0.53329 0.77458 0.0
H1235 H 0.05452 0.56086 0.79745 0.0
H1236 H 0.05657 0.5707 0.86118 0.0
H1237 H 0.06405 0.58992 0.83269 0.0
H1238 H 0.84465 0.40518 0.82265 0.0
H1239 H 0.85461 0.42 0.79344 0.0
H1240 H 0.87686 0.39149 0.85105 0.0
H1241 H 0.91917 0.4233 0.87457 0.0
C1242 C 0.50052 0.50519 0.81463 0.0
C1243 C 0.53077 0.48824 0.81073 0.0
C1244 C 0.5392 0.48198 0.85389 0.0
C1245 C 0.50479 0.49358 0.85731 0.0
N1246 N 0.45102 0.51455 0.84128 0.0
N1247 N 0.57756 0.45816 0.82587 0.0
C1248 C 0.4852 0.50505 0.83778 0.0
C1249 C 0.55016 0.47645 0.8302 0.0
N1250 N 0.4871 0.52213 0.79621 0.0
N1251 N 0.56145 0.47642 0.87334 0.0
H1252 H 0.58726 0.45479 0.80887 0.0
H1253 H 0.58862 0.44378 0.83871 0.0
H1254 H 0.55323 0.47859 0.89084 0.0
H1255 H 0.59018 0.47298 0.87248 0.0
H1256 H 0.46882 0.53931 0.79829 0.0
H1257 H 0.49743 0.52238 0.77901 0.0
H1258 H 0.43129 0.51752 0.82742 0.0
H1259 H 0.44051 0.51705 0.85817 0.0
C1260 C 0.56422 0.08659 0.83232 0.0
C1261 C 0.53589 0.05688 0.81185 0.0
C1262 C 0.48578 0.99965 0.8379 0.0
C1263 C 0.51635 0.02732 0.85822 0.0
N1264 N 0.58882 0.09326 0.8745 0.0
N1265 N 0.47502 0.9813 0.79478 0.0
C1266 C 0.55683 0.06976 0.85536 0.0
C1267 C 0.49818 0.01225 0.81454 0.0
N1268 N 0.59712 0.13143 0.82988 0.0
N1269 N 0.44405 0.96227 0.84092 0.0
H1270 H 0.48349 0.98899 0.77737 0.0
H1271 H 0.45035 0.94659 0.79578 0.0
H1272 H 0.43331 0.95219 0.85773 0.0
H1273 H 0.41841 0.9439 0.82692 0.0
H1274 H 0.61557 0.15624 0.84439 0.0
H1275 H 0.60332 0.14508 0.81335 0.0
H1276 H 0.62113 0.12167 0.87301 0.0
H1277 H 0.58463 0.08195 0.89161 0.0
C1278 C 0.13539 0.32119 0.55031 0.0
C1279 C 0.1237 0.27527 0.55486 0.0
C1280 C 0.13389 0.25825 0.51328 0.0
C1281 C 0.14407 0.30364 0.50855 0.0
N1282 N 0.14422 0.37432 0.5206 0.0
N1283 N 0.10185 0.19697 0.53985 0.0
C1284 C 0.14146 0.33383 0.52648 0.0
C1285 C 0.11973 0.24276 0.53602 0.0
N1286 N 0.14306 0.35344 0.5689 0.0
N1287 N 0.13968 0.23074 0.49644 0.0
H1288 H 0.09091 0.18456 0.5563 0.0
H1289 H 0.09398 0.17069 0.52628 0.0
H1290 H 0.14953 0.24067 0.47948 0.0
H1291 H 0.138 0.19958 0.49983 0.0
H1292 H 0.15685 0.38877 0.56706 0.0
H1293 H 0.13902 0.34568 0.58664 0.0
H1294 H 0.13784 0.39545 0.53227 0.0
H1295 H 0.14877 0.38468 0.5033 0.0
C1296 C 0.76148 0.88611 0.54313 0.0
C1297 C 0.73041 0.85681 0.55884 0.0
C1298 C 0.67077 0.81772 0.52524 0.0
C1299 C 0.70002 0.85096 0.5103 0.0
N1300 N 0.77128 0.92052 0.50549 0.0
N1301 N 0.65403 0.79811 0.56581 0.0
C1302 C 0.74499 0.8861 0.51933 0.0
C1303 C 0.68467 0.82329 0.55014 0.0
N1304 N 0.80695 0.91317 0.55086 0.0
N1305 N 0.63018 0.78027 0.5155 0.0
H1306 H 0.66298 0.80086 0.58415 0.0
H1307 H 0.61904 0.77709 0.56096 0.0
H1308 H 0.61889 0.7751 0.49732 0.0
H1309 H 0.60962 0.7523 0.52495 0.0
H1310 H 0.832 0.93176 0.53958 0.0
H1311 H 0.82026 0.91359 0.56813 0.0
H1312 H 0.80226 0.94995 0.51202 0.0
H1313 H 0.76046 0.92171 0.48793 0.0
C1314 C 0.17573 0.8478 0.55761 0.0
C1315 C 0.13804 0.85435 0.56059 0.0
C1316 C 0.12166 0.84626 0.51685 0.0
C1317 C 0.16272 0.84569 0.51404 0.0
N1318 N 0.23289 0.85351 0.53184 0.0
N1319 N 0.07825 0.86589 0.54325 0.0
C1320 C 0.19083 0.84839 0.53445 0.0
C1321 C 0.11163 0.85501 0.54026 0.0
N1322 N 0.19644 0.83988 0.57687 0.0
N1323 N 0.09176 0.83731 0.49722 0.0
H1324 H 0.06997 0.87267 0.56007 0.0
H1325 H 0.06124 0.87185 0.52914 0.0
H1326 H 0.098 0.83077 0.47983 0.0
H1327 H 0.05912 0.83238 0.49835 0.0
H1328 H 0.22102 0.83013 0.57537 0.0
H1329 H 0.18588 0.83853 0.59407 0.0
H1330 H 0.25688 0.86079 0.54626 0.0
H1331 H 0.24562 0.85477 0.51522 0.0
C1332 C 0.5922 0.80587 0.1507 0.0
C1333 C 0.62315 0.81316 0.13319 0.0
C1334 C 0.68646 0.84901 0.1651 0.0
C1335 C 0.65452 0.83202 0.18257 0.0
N1336 N 0.58669 0.83499 0.18982 0.0
N1337 N 0.70099 0.84366 0.12359 0.0
C1338 C 0.60945 0.82146 0.17509 0.0
C1339 C 0.67073 0.83542 0.14033 0.0
N1340 N 0.54625 0.78391 0.14421 0.0
N1341 N 0.73019 0.88406 0.17189 0.0
H1342 H 0.69106 0.83589 0.10521 0.0
H1343 H 0.73545 0.85525 0.12817 0.0
H1344 H 0.74018 0.90033 0.18939 0.0
H1345 H 0.75406 0.90111 0.15977 0.0
H1346 H 0.52239 0.77456 0.15681 0.0
H1347 H 0.53204 0.77159 0.12652 0.0
H1348 H 0.55522 0.83169 0.18445 0.0
H1349 H 0.60296 0.85633 0.20579 0.0
C1350 C 0.22775 0.83187 0.1629 0.0
C1351 C 0.20302 0.83662 0.1431 0.0
C1352 C 0.15171 0.84374 0.1701 0.0
C1353 C 0.17693 0.83981 0.18992 0.0
N1354 N 0.24385 0.83939 0.20612 0.0
N1355 N 0.14773 0.85626 0.12802 0.0
C1356 C 0.21668 0.83703 0.18658 0.0
C1357 C 0.16691 0.84547 0.1468 0.0
N1358 N 0.26015 0.81992 0.15899 0.0
N1359 N 0.1124 0.84432 0.17348 0.0
H1360 H 0.15821 0.85785 0.11078 0.0
H1361 H 0.1243 0.86743 0.12983 0.0
H1362 H 0.10128 0.84499 0.1904 0.0
H1363 H 0.08939 0.84144 0.15952 0.0
H1364 H 0.27562 0.81057 0.17234 0.0
H1365 H 0.26948 0.81608 0.14198 0.0
H1366 H 0.27594 0.84287 0.2051 0.0
H1367 H 0.2359 0.84165 0.22365 0.0
C1368 C 0.16719 0.35104 0.14629 0.0
C1369 C 0.20596 0.3959 0.1455 0.0
C1370 C 0.22 0.40396 0.18942 0.0
C1371 C 0.17784 0.36192 0.19024 0.0
N1372 N 0.10748 0.2991 0.16958 0.0
N1373 N 0.26716 0.4676 0.16628 0.0
C1374 C 0.15044 0.33633 0.16869 0.0
C1375 C 0.23204 0.42304 0.16707 0.0
N1376 N 0.14703 0.32194 0.12562 0.0
N1377 N 0.24891 0.42503 0.2099 0.0
H1378 H 0.27708 0.48261 0.15027 0.0
H1379 H 0.28432 0.49085 0.18149 0.0
H1380 H 0.24113 0.41194 0.22651 0.0
H1381 H 0.28211 0.45306 0.21012 0.0
H1382 H 0.12155 0.28715 0.12536 0.0
H1383 H 0.15896 0.33113 0.10891 0.0
H1384 H 0.0841 0.28246 0.15449 0.0
H1385 H 0.09351 0.28736 0.18559 0.0
C1386 C 0.77254 0.59708 0.86982 0.0
C1387 C 0.79785 0.62899 0.89023 0.0
C1388 C 0.82329 0.69313 0.86481 0.0
C1389 C 0.80766 0.66042 0.84416 0.0
N1390 N 0.73663 0.59045 0.83048 0.0
N1391 N 0.8452 0.70862 0.90762 0.0
C1392 C 0.77322 0.61434 0.84726 0.0
C1393 C 0.82234 0.6775 0.88792 0.0
N1394 N 0.74835 0.55031 0.87174 0.0
N1395 N 0.83241 0.73739 0.86248 0.0
H1396 H 0.84403 0.69861 0.92495 0.0
H1397 H 0.86754 0.74396 0.90644 0.0
H1398 H 0.82636 0.74725 0.84598 0.0
H1399 H 0.83982 0.76179 0.87704 0.0
H1400 H 0.73281 0.52581 0.8568 0.0
H1401 H 0.74686 0.53607 0.88795 0.0
H1402 H 0.70849 0.55818 0.83283 0.0
H1403 H 0.73154 0.60656 0.81618 0.0
C1404 C 0.34126 0.15647 0.88437 0.0
C1405 C 0.3891 0.17669 0.88984 0.0
C1406 C 0.40068 0.18396 0.84719 0.0
C1407 C 0.3537 0.16928 0.84215 0.0
N1408 N 0.27888 0.14245 0.85535 0.0
N1409 N 0.46524 0.21175 0.87729 0.0
C1410 C 0.32374 0.15534 0.86057 0.0
C1411 C 0.41904 0.19046 0.87143 0.0
N1412 N 0.31273 0.13802 0.90198 0.0
N1413 N 0.42765 0.19167 0.82876 0.0
H1414 H 0.47985 0.21584 0.89474 0.0
H1415 H 0.48943 0.22782 0.86521 0.0
H1416 H 0.41579 0.18887 0.81086 0.0
H1417 H 0.46082 0.19749 0.83088 0.0
H1418 H 0.27724 0.11887 0.89888 0.0
H1419 H 0.32468 0.13876 0.91962 0.0
H1420 H 0.25635 0.13724 0.86828 0.0
H1421 H 0.26447 0.13912 0.83793 0.0
C1422 C 0.78975 0.2152 0.8777 0.0
C1423 C 0.79978 0.19194 0.89532 0.0
C1424 C 0.82369 0.15564 0.86442 0.0
C1425 C 0.82023 0.18427 0.84768 0.0
N1426 N 0.80329 0.24414 0.83855 0.0
N1427 N 0.83033 0.14322 0.9062 0.0
C1428 C 0.80371 0.21454 0.85428 0.0
C1429 C 0.8174 0.16258 0.88885 0.0
N1430 N 0.76638 0.23744 0.88337 0.0
N1431 N 0.83231 0.1213 0.85683 0.0
H1432 H 0.82603 0.14711 0.92428 0.0
H1433 H 0.84843 0.12615 0.90297 0.0
H1434 H 0.83705 0.11522 0.83904 0.0
H1435 H 0.83059 0.09617 0.86759 0.0
H1436 H 0.75407 0.25122 0.87079 0.0
H1437 H 0.7556 0.23835 0.90036 0.0
H1438 H 0.79668 0.27074 0.84322 0.0
H1439 H 0.81282 0.24436 0.82117 0.0
C1440 C 0.31515 0.18356 0.47496 0.0
C1441 C 0.26995 0.14805 0.46661 0.0
C1442 C 0.2502 0.14183 0.50815 0.0
C1443 C 0.2974 0.16828 0.5165 0.0
N1444 N 0.36355 0.23942 0.50821 0.0
N1445 N 0.19339 0.0931 0.47546 0.0
C1446 C 0.32716 0.19672 0.50001 0.0
C1447 C 0.23717 0.12691 0.48327 0.0
N1448 N 0.34697 0.20416 0.45907 0.0
N1449 N 0.2184 0.1398 0.52261 0.0
H1450 H 0.1821 0.08207 0.45733 0.0
H1451 H 0.16957 0.07387 0.48721 0.0
H1452 H 0.2281 0.16167 0.53855 0.0
H1453 H 0.18367 0.12391 0.51686 0.0
H1454 H 0.38157 0.22676 0.46446 0.0
H1455 H 0.33942 0.19583 0.44055 0.0
H1456 H 0.38409 0.26377 0.49695 0.0
H1457 H 0.36912 0.2525 0.52622 0.0
C1458 C 0.86974 0.13197 0.4929 0.0
C1459 C 0.8524 0.1481 0.47454 0.0
C1460 C 0.81226 0.16878 0.50357 0.0
C1461 C 0.82997 0.1531 0.522 0.0
N1462 N 0.88155 0.12745 0.53552 0.0
N1463 N 0.81436 0.1893 0.46262 0.0
C1464 C 0.86073 0.1372 0.51705 0.0
C1465 C 0.82591 0.16892 0.47999 0.0
N1466 N 0.89341 0.11011 0.48706 0.0
N1467 N 0.78128 0.18219 0.50852 0.0
H1468 H 0.82328 0.18937 0.44511 0.0
H1469 H 0.79908 0.20919 0.46585 0.0
H1470 H 0.77203 0.18444 0.52577 0.0
H1471 H 0.76279 0.18868 0.49547 0.0
H1472 H 0.90228 0.09248 0.49894 0.0
H1473 H 0.90214 0.10724 0.46975 0.0
H1474 H 0.90796 0.12054 0.5336 0.0
H1475 H 0.87476 0.12957 0.55332 0.0
C1476 C 0.89956 0.74818 0.49892 0.0
C1477 C 0.87363 0.71903 0.47778 0.0
C1478 C 0.8208 0.65995 0.5022 0.0
C1479 C 0.84817 0.6878 0.52333 0.0
N1480 N 0.91844 0.75384 0.54181 0.0
N1481 N 0.81631 0.64309 0.45922 0.0
C1482 C 0.88912 0.73057 0.52168 0.0
C1483 C 0.8363 0.6736 0.47942 0.0
N1484 N 0.93281 0.79329 0.49735 0.0
N1485 N 0.77899 0.6215 0.50383 0.0
H1486 H 0.82726 0.65164 0.44226 0.0
H1487 H 0.79203 0.60803 0.45956 0.0
H1488 H 0.7661 0.61034 0.52013 0.0
H1489 H 0.75536 0.60297 0.48904 0.0
H1490 H 0.9495 0.81768 0.51222 0.0
H1491 H 0.94132 0.80753 0.48107 0.0
H1492 H 0.95099 0.78264 0.54146 0.0
H1493 H 0.91184 0.74183 0.55872 0.0
loop_
_geom_bond_atom_site_label_1
_geom_bond_atom_site_label_2
_geom_bond_distance
_geom_bond_site_symmetry_2
_ccdc_geom_bond_type
H0 C3 0.931 . S
H1 C6 0.928 . S
H2 C8 0.930 . S
C3 H0 0.931 . S
C3 C4 1.413 . S
C3 C5 1.360 . S
C4 C3 1.413 . S
C4 C8 1.429 . S
C5 C3 1.360 . S
C5 C6 1.372 . S
C6 H1 0.928 . S
C6 C5 1.372 . S
C6 C7 1.404 . S
C7 C6 1.404 . S
C7 C8 1.391 . S
C8 H2 0.930 . S
C8 C4 1.429 . S
C8 C7 1.391 . S
H9 C12 0.931 . S
H10 C15 0.928 . S
H11 C17 0.930 . S
C12 H9 0.931 . S
C12 C13 1.413 . S
C12 C14 1.360 . S
C13 C12 1.413 . S
C13 C17 1.429 . S
C14 C12 1.360 . S
C14 C15 1.372 . S
C15 H10 0.928 . S
C15 C14 1.372 . S
C15 C16 1.404 . S
C16 C15 1.404 . S
C16 C17 1.391 . S
C17 H11 0.930 . S
C17 C13 1.429 . S
C17 C16 1.391 . S
H18 C21 0.931 . S
H19 C24 0.928 . S
H20 C26 0.930 . S
C21 H18 0.931 . S
C21 C22 1.413 . S
C21 C23 1.360 . S
C22 C21 1.413 . S
C22 C26 1.429 . S
C23 C21 1.360 . S
C23 C24 1.372 . S
C24 H19 0.928 . S
C24 C23 1.372 . S
C24 C25 1.404 . S
C25 C24 1.404 . S
C25 C26 1.391 . S
C26 H20 0.930 . S
C26 C22 1.429 . S
C26 C25 1.391 . S
H27 C30 0.931 . S
H28 C33 0.928 . S
H29 C35 0.930 . S
C30 H27 0.931 . S
C30 C31 1.413 . S
C30 C32 1.360 . S
C31 C30 1.413 . S
C31 C35 1.429 . S
C32 C30 1.360 . S
C32 C33 1.372 . S
C33 H28 0.928 . S
C33 C32 1.372 . S
C33 C34 1.404 . S
C34 C33 1.404 . S
C34 C35 1.391 . S
C35 H29 0.930 . S
C35 C31 1.429 . S
C35 C34 1.391 . S
H36 C39 0.931 . S
H37 C42 0.928 . S
H38 C44 0.930 . S
C39 H36 0.931 . S
C39 C40 1.413 . S
C39 C41 1.360 . S
C40 C39 1.413 . S
C40 C44 1.429 . S
C41 C39 1.360 . S
C41 C42 1.372 . S
C42 H37 0.928 . S
C42 C41 1.372 . S
C42 C43 1.404 . S
C43 C42 1.404 . S
C43 C44 1.391 . S
C44 H38 0.930 . S
C44 C40 1.429 . S
C44 C43 1.391 . S
H45 C48 0.931 . S
H46 C51 0.928 . S
H47 C53 0.930 . S
C48 H45 0.931 . S
C48 C49 1.413 . S
C48 C50 1.360 . S
C49 C48 1.413 . S
C49 C53 1.429 . S
C50 C48 1.360 . S
C50 C51 1.372 . S
C51 H46 0.928 . S
C51 C50 1.372 . S
C51 C52 1.404 . S
C52 C51 1.404 . S
C52 C53 1.391 . S
C53 H47 0.930 . S
C53 C49 1.429 . S
C53 C52 1.391 . S
H54 C57 0.931 . S
H55 C60 0.928 . S
H56 C62 0.930 . S
C57 H54 0.931 . S
C57 C58 1.413 . S
C57 C59 1.360 . S
C58 C57 1.413 . S
C58 C62 1.429 . S
C59 C57 1.360 . S
C59 C60 1.372 . S
C60 H55 0.928 . S
C60 C59 1.372 . S
C60 C61 1.404 . S
C61 C60 1.404 . S
C61 C62 1.391 . S
C62 H56 0.930 . S
C62 C58 1.429 . S
C62 C61 1.391 . S
H63 C66 0.931 . S
H64 C69 0.928 . S
H65 C71 0.930 . S
C66 H63 0.931 . S
C66 C67 1.413 . S
C66 C68 1.360 . S
C67 C66 1.413 . S
C67 C71 1.429 . S
C68 C66 1.360 . S
C68 C69 1.372 . S
C69 H64 0.928 . S
C69 C68 1.372 . S
C69 C70 1.404 . S
C70 C69 1.404 . S
C70 C71 1.391 . S
C71 H65 0.930 . S
C71 C67 1.429 . S
C71 C70 1.391 . S
H72 C75 0.931 . S
H73 C78 0.928 . S
H74 C80 0.930 . S
C75 H72 0.931 . S
C75 C76 1.413 . S
C75 C77 1.360 . S
C76 C75 1.413 . S
C76 C80 1.429 . S
C77 C75 1.360 . S
C77 C78 1.372 . S
C78 H73 0.928 . S
C78 C77 1.372 . S
C78 C79 1.404 . S
C79 C78 1.404 . S
C79 C80 1.391 . S
C80 H74 0.930 . S
C80 C76 1.429 . S
C80 C79 1.391 . S
H81 C84 0.931 . S
H82 C87 0.928 . S
H83 C89 0.930 . S
C84 H81 0.931 . S
C84 C85 1.413 . S
C84 C86 1.360 . S
C85 C84 1.413 . S
C85 C89 1.429 . S
C86 C84 1.360 . S
C86 C87 1.372 . S
C87 H82 0.928 . S
C87 C86 1.372 . S
C87 C88 1.404 . S
C88 C87 1.404 . S
C88 C89 1.391 . S
C89 H83 0.930 . S
C89 C85 1.429 . S
C89 C88 1.391 . S
H90 C93 0.931 . S
H91 C96 0.928 . S
H92 C98 0.930 . S
C93 H90 0.931 . S
C93 C94 1.413 . S
C93 C95 1.360 . S
C94 C93 1.413 . S
C94 C98 1.429 . S
C95 C93 1.360 . S
C95 C96 1.372 . S
C96 H91 0.928 . S
C96 C95 1.372 . S
C96 C97 1.404 . S
C97 C96 1.404 . S
C97 C98 1.391 . S
C98 H92 0.930 . S
C98 C94 1.429 . S
C98 C97 1.391 . S
H99 C102 0.931 . S
H100 C105 0.928 . S
H101 C107 0.930 . S
C102 H99 0.931 . S
C102 C103 1.413 . S
C102 C104 1.360 . S
C103 C102 1.413 . S
C103 C107 1.429 . S
C104 C102 1.360 . S
C104 C105 1.372 . S
C105 H100 0.928 . S
C105 C104 1.372 . S
C105 C106 1.404 . S
C106 C105 1.404 . S
C106 C107 1.391 . S
C107 H101 0.930 . S
C107 C103 1.429 . S
C107 C106 1.391 . S
H108 C111 0.931 . S
H109 C114 0.928 . S
H110 C116 0.930 . S
C111 H108 0.931 . S
C111 C112 1.413 . S
C111 C113 1.360 . S
C112 C111 1.413 . S
C112 C116 1.429 . S
C113 C111 1.360 . S
C113 C114 1.372 . S
C114 H109 0.928 . S
C114 C113 1.372 . S
C114 C115 1.404 . S
C115 C114 1.404 . S
C115 C116 1.391 . S
C116 H110 0.930 . S
C116 C112 1.429 . S
C116 C115 1.391 . S
H117 C120 0.931 . S
H118 C123 0.928 . S
H119 C125 0.930 . S
C120 H117 0.931 . S
C120 C121 1.413 . S
C120 C122 1.360 . S
C121 C120 1.413 . S
C121 C125 1.429 . S
C122 C120 1.360 . S
C122 C123 1.372 . S
C123 H118 0.928 . S
C123 C122 1.372 . S
C123 C124 1.404 . S
C124 C123 1.404 . S
C124 C125 1.391 . S
C125 H119 0.930 . S
C125 C121 1.429 . S
C125 C124 1.391 . S
H126 C129 0.931 . S
H127 C132 0.928 . S
H128 C134 0.930 . S
C129 H126 0.931 . S
C129 C130 1.413 . S
C129 C131 1.360 . S
C130 C129 1.413 . S
C130 C134 1.429 . S
C131 C129 1.360 . S
C131 C132 1.372 . S
C132 H127 0.928 . S
C132 C131 1.372 . S
C132 C133 1.404 . S
C133 C132 1.404 . S
C133 C134 1.391 . S
C134 H128 0.930 . S
C134 C130 1.429 . S
C134 C133 1.391 . S
H135 C138 0.931 . S
H136 C141 0.928 . S
H137 C143 0.930 . S
C138 H135 0.931 . S
C138 C139 1.413 . S
C138 C140 1.360 . S
C139 C138 1.413 . S
C139 C143 1.429 . S
C140 C138 1.360 . S
C140 C141 1.372 . S
C141 H136 0.928 . S
C141 C140 1.372 . S
C141 C142 1.404 . S
C142 C141 1.404 . S
C142 C143 1.391 . S
C143 H137 0.930 . S
C143 C139 1.429 . S
C143 C142 1.391 . S
H144 C147 0.931 . S
H145 C150 0.928 . S
H146 C152 0.930 . S
C147 H144 0.931 . S
C147 C148 1.413 . S
C147 C149 1.360 . S
C148 C147 1.413 . S
C148 C152 1.429 . S
C149 C147 1.360 . S
C149 C150 1.372 . S
C150 H145 0.928 . S
C150 C149 1.372 . S
C150 C151 1.404 . S
C151 C150 1.404 . S
C151 C152 1.391 . S
C152 H146 0.930 . S
C152 C148 1.429 . S
C152 C151 1.391 . S
H153 C156 0.931 . S
H154 C159 0.928 . S
H155 C161 0.930 . S
C156 H153 0.931 . S
C156 C157 1.413 . S
C156 C158 1.360 . S
C157 C156 1.413 . S
C157 C161 1.429 . S
C158 C156 1.360 . S
C158 C159 1.372 . S
C159 H154 0.928 . S
C159 C158 1.372 . S
C159 C160 1.404 . S
C160 C159 1.404 . S
C160 C161 1.391 . S
C161 H155 0.930 . S
C161 C157 1.429 . S
C161 C160 1.391 . S
C162 Eu163 2.835 . S
C162 C164 1.500 . S
C162 O182 1.257 1_545 S
C162 O183 1.260 . S
Eu163 C162 2.835 . S
Eu163 O182 2.473 1_545 S
Eu163 O183 2.480 . S
Eu163 O184 2.430 . S
Eu163 O185 2.670 1_554 S
Eu163 O186 2.394 1_545 S
Eu163 O191 2.355 1_545 S
Eu163 O193 2.374 . S
C164 C162 1.500 . S
C164 C165 1.377 . S
C164 C169 1.377 1_545 S
C165 C164 1.377 . S
C165 C166 1.395 . S
C165 H194 0.931 . S
C166 C165 1.395 . S
C166 C167 1.359 1_545 S
C166 H195 0.931 . S
C167 C166 1.359 1_565 S
C167 C168 1.415 . S
C168 C167 1.415 . S
C168 C169 1.378 . S
C168 H196 0.931 . S
C169 C164 1.377 1_565 S
C169 C168 1.378 . S
C169 H197 0.931 . S
C170 O184 1.259 1_556 S
C170 O185 1.270 . S
C171 O186 1.251 . S
C171 O187 1.251 1_554 S
C172 Eu173 2.835 . S
C172 C174 1.500 . S
C172 O188 1.257 1_565 S
C172 O189 1.260 . S
Eu173 C172 2.835 . S
Eu173 O185 2.355 1_565 S
Eu173 O187 2.374 . S
Eu173 O188 2.473 1_565 S
Eu173 O189 2.480 . S
Eu173 O190 2.430 . S
Eu173 O191 2.670 1_556 S
Eu173 O192 2.394 1_565 S
C174 C172 1.500 . S
C174 C175 1.377 . S
C174 C179 1.377 1_565 S
C175 C174 1.377 . S
C175 C176 1.395 . S
C175 H198 0.931 . S
C176 C175 1.395 . S
C176 C177 1.383 1_565 S
C176 H199 0.931 . S
C177 C176 1.383 1_545 S
C177 C178 1.394 . S
C178 C177 1.394 . S
C178 C179 1.378 . S
C178 H200 0.931 . S
C179 C174 1.377 1_545 S
C179 C178 1.378 . S
C179 H201 0.931 . S
C180 O190 1.259 1_554 S
C180 O191 1.270 . S
C181 O192 1.251 . S
C181 O193 1.251 1_556 S
O182 C162 1.257 1_565 S
O182 Eu163 2.473 1_565 S
O183 C162 1.260 . S
O183 Eu163 2.480 . S
O184 Eu163 2.430 . S
O184 C170 1.259 1_554 S
O185 Eu163 2.670 1_556 S
O185 C170 1.270 . S
O185 Eu173 2.355 1_545 S
O186 Eu163 2.394 1_565 S
O186 C171 1.251 . S
O187 C171 1.251 1_556 S
O187 Eu173 2.374 . S
O188 C172 1.257 1_545 S
O188 Eu173 2.473 1_545 S
O189 C172 1.260 . S
O189 Eu173 2.480 . S
O190 Eu173 2.430 . S
O190 C180 1.259 1_556 S
O191 Eu163 2.355 1_565 S
O191 Eu173 2.670 1_554 S
O191 C180 1.270 . S
O192 Eu173 2.394 1_545 S
O192 C181 1.251 . S
O193 Eu163 2.374 . S
O193 C181 1.251 1_554 S
H194 C165 0.931 . S
H195 C166 0.931 . S
H196 C168 0.931 . S
H197 C169 0.931 . S
H198 C175 0.931 . S
H199 C176 0.931 . S
H200 C178 0.931 . S
H201 C179 0.931 . S
C202 Eu203 2.835 . S
C202 C204 1.500 1_655 S
C202 O222 1.257 1_655 S
C202 O223 1.260 . S
Eu203 C202 2.835 . S
Eu203 O222 2.473 1_655 S
Eu203 O223 2.480 . S
Eu203 O224 2.430 . S
Eu203 O225 2.670 1_554 S
Eu203 O226 2.394 1_655 S
Eu203 O231 2.355 1_655 S
Eu203 O233 2.374 . S
C204 C202 1.500 1_455 S
C204 C205 1.377 1_455 S
C204 C209 1.377 . S
C205 C204 1.377 1_655 S
C205 C206 1.395 . S
C205 H234 0.931 . S
C206 C205 1.395 . S
C206 C207 1.383 1_655 S
C206 H235 0.931 . S
C207 C206 1.383 1_455 S
C207 C208 1.394 . S
C208 C207 1.394 . S
C208 C209 1.378 . S
C208 H236 0.931 . S
C209 C204 1.377 . S
C209 C208 1.378 . S
C209 H237 0.931 . S
C210 O224 1.259 1_556 S
C210 O225 1.270 . S
C211 O226 1.251 . S
C211 O227 1.251 . S
C212 Eu213 2.835 . S
C212 C214 1.500 1_455 S
C212 O228 1.257 1_455 S
C212 O229 1.260 . S
Eu213 C212 2.835 . S
Eu213 O225 2.355 1_455 S
Eu213 O227 2.374 1_556 S
Eu213 O228 2.473 1_455 S
Eu213 O229 2.480 . S
Eu213 O230 2.430 . S
Eu213 O231 2.670 1_556 S
Eu213 O232 2.394 1_455 S
C214 C212 1.500 1_655 S
C214 C215 1.377 1_655 S
C214 C219 1.377 . S
C215 C214 1.377 1_455 S
C215 C216 1.395 . S
C215 H238 0.931 . S
C216 C215 1.395 . S
C216 C217 1.383 1_455 S
C216 H239 0.931 . S
C217 C216 1.383 1_655 S
C217 C218 1.394 . S
C218 C217 1.394 . S
C218 C219 1.378 . S
C218 H240 0.931 . S
C219 C214 1.377 . S
C219 C218 1.378 . S
C219 H241 0.931 . S
C220 O230 1.259 1_554 S
C220 O231 1.270 . S
C221 O232 1.251 . S
C221 O233 1.251 1_556 S
O222 C202 1.257 1_455 S
O222 Eu203 2.473 1_455 S
O223 C202 1.260 . S
O223 Eu203 2.480 . S
O224 Eu203 2.430 . S
O224 C210 1.259 1_554 S
O225 Eu203 2.670 1_556 S
O225 C210 1.270 . S
O225 Eu213 2.355 1_655 S
O226 Eu203 2.394 1_455 S
O226 C211 1.251 . S
O227 C211 1.251 . S
O227 Eu213 2.374 1_554 S
O228 C212 1.257 1_655 S
O228 Eu213 2.473 1_655 S
O229 C212 1.260 . S
O229 Eu213 2.480 . S
O230 Eu213 2.430 . S
O230 C220 1.259 1_556 S
O231 Eu203 2.355 1_455 S
O231 Eu213 2.670 1_554 S
O231 C220 1.270 . S
O232 Eu213 2.394 1_655 S
O232 C221 1.251 . S
O233 Eu203 2.374 . S
O233 C221 1.251 1_554 S
H234 C205 0.931 . S
H235 C206 0.931 . S
H236 C208 0.931 . S
H237 C209 0.931 . S
H238 C215 0.931 . S
H239 C216 0.931 . S
H240 C218 0.931 . S
H241 C219 0.931 . S
C242 Eu243 2.835 . S
C242 C244 1.500 . S
C242 O262 1.257 . S
C242 O263 1.260 . S
Eu243 C242 2.835 . S
Eu243 O262 2.473 . S
Eu243 O263 2.480 . S
Eu243 O264 2.430 . S
Eu243 O265 2.670 1_556 S
Eu243 O266 2.394 . S
Eu243 O271 2.355 . S
Eu243 O273 2.395 . S
C244 C242 1.500 . S
C244 C245 1.377 . S
C244 C249 1.377 . S
C245 C244 1.377 . S
C245 C246 1.395 . S
C245 H274 0.931 . S
C246 C245 1.395 . S
C246 C247 1.383 . S
C246 H275 0.931 . S
C247 C246 1.383 . S
C247 C248 1.394 . S
C248 C247 1.394 . S
C248 C249 1.378 . S
C248 H276 0.931 . S
C249 C244 1.377 . S
C249 C248 1.378 . S
C249 H277 0.931 . S
C250 O264 1.259 1_554 S
C250 O265 1.270 . S
C251 O266 1.251 . S
C251 O267 1.251 1_556 S
C252 Eu253 2.835 . S
C252 C254 1.500 . S
C252 O268 1.257 . S
C252 O269 1.260 . S
Eu253 C252 2.835 . S
Eu253 O265 2.355 . S
Eu253 O267 2.374 . S
Eu253 O268 2.473 . S
Eu253 O269 2.480 . S
Eu253 O270 2.430 . S
Eu253 O271 2.670 1_554 S
Eu253 O272 2.394 . S
C254 C252 1.500 . S
C254 C255 1.377 . S
C254 C259 1.377 . S
C255 C254 1.377 . S
C255 C256 1.395 . S
C255 H278 0.931 . S
C256 C255 1.395 . S
C256 C257 1.383 . S
C256 H279 0.931 . S
C257 C256 1.383 . S
C257 C258 1.394 . S
C258 C257 1.394 . S
C258 C259 1.378 . S
C258 H280 0.931 . S
C259 C254 1.377 . S
C259 C258 1.378 . S
C259 H281 0.931 . S
C260 O270 1.259 1_556 S
C260 O271 1.270 . S
C261 O272 1.251 . S
C261 O273 1.224 1_554 S
O262 C242 1.257 . S
O262 Eu243 2.473 . S
O263 C242 1.260 . S
O263 Eu243 2.480 . S
O264 Eu243 2.430 . S
O264 C250 1.259 1_556 S
O265 Eu243 2.670 1_554 S
O265 C250 1.270 . S
O265 Eu253 2.355 . S
O266 Eu243 2.394 . S
O266 C251 1.251 . S
O267 C251 1.251 1_554 S
O267 Eu253 2.374 . S
O268 C252 1.257 . S
O268 Eu253 2.473 . S
O269 C252 1.260 . S
O269 Eu253 2.480 . S
O270 Eu253 2.430 . S
O270 C260 1.259 1_554 S
O271 Eu243 2.355 . S
O271 Eu253 2.670 1_556 S
O271 C260 1.270 . S
O272 Eu253 2.394 . S
O272 C261 1.251 . S
O273 Eu243 2.395 . S
O273 C261 1.224 1_556 S
H274 C245 0.931 . S
H275 C246 0.931 . S
H276 C248 0.931 . S
H277 C249 0.931 . S
H278 C255 0.931 . S
H279 C256 0.931 . S
H280 C258 0.931 . S
H281 C259 0.931 . S
C282 Eu283 2.835 . S
C282 C284 1.500 . S
C282 O302 1.257 . S
C282 O303 1.260 . S
Eu283 C282 2.835 . S
Eu283 O302 2.473 . S
Eu283 O303 2.480 . S
Eu283 O304 2.430 . S
Eu283 O305 2.670 . S
Eu283 O306 2.394 . S
Eu283 O311 2.355 . S
Eu283 O313 2.374 . S
C284 C282 1.500 . S
C284 C285 1.377 . S
C284 C289 1.377 . S
C285 C284 1.377 . S
C285 C286 1.395 . S
C285 H314 0.931 . S
C286 C285 1.395 . S
C286 C287 1.383 . S
C286 H315 0.931 . S
C287 C286 1.383 . S
C287 C288 1.394 . S
C288 C287 1.394 . S
C288 C289 1.378 . S
C288 H316 0.931 . S
C289 C284 1.377 . S
C289 C288 1.378 . S
C289 H317 0.931 . S
C290 O304 1.259 . S
C290 O305 1.270 . S
C291 O306 1.251 . S
C291 O307 1.251 . S
C292 Eu293 2.835 . S
C292 C294 1.500 . S
C292 O308 1.257 . S
C292 O309 1.260 . S
Eu293 C292 2.835 . S
Eu293 O305 2.355 . S
Eu293 O307 2.374 . S
Eu293 O308 2.473 . S
Eu293 O309 2.480 . S
Eu293 O310 2.430 . S
Eu293 O311 2.670 . S
Eu293 O312 2.394 . S
C294 C292 1.500 . S
C294 C295 1.377 . S
C294 C299 1.377 . S
C295 C294 1.377 . S
C295 C296 1.395 . S
C295 H318 0.931 . S
C296 C295 1.395 . S
C296 C297 1.383 . S
C296 H319 0.931 . S
C297 C296 1.383 . S
C297 C298 1.394 . S
C298 C297 1.394 . S
C298 C299 1.378 . S
C298 H320 0.931 . S
C299 C294 1.377 . S
C299 C298 1.378 . S
C299 H321 0.931 . S
C300 O310 1.259 . S
C300 O311 1.270 . S
C301 O312 1.251 . S
C301 O313 1.251 . S
O302 C282 1.257 . S
O302 Eu283 2.473 . S
O303 C282 1.260 . S
O303 Eu283 2.480 . S
O304 Eu283 2.430 . S
O304 C290 1.259 . S
O305 Eu283 2.670 . S
O305 C290 1.270 . S
O305 Eu293 2.355 . S
O306 Eu283 2.394 . S
O306 C291 1.251 . S
O307 C291 1.251 . S
O307 Eu293 2.374 . S
O308 C292 1.257 . S
O308 Eu293 2.473 . S
O309 C292 1.260 . S
O309 Eu293 2.480 . S
O310 Eu293 2.430 . S
O310 C300 1.259 . S
O311 Eu283 2.355 . S
O311 Eu293 2.670 . S
O311 C300 1.270 . S
O312 Eu293 2.394 . S
O312 C301 1.251 . S
O313 Eu283 2.374 . S
O313 C301 1.251 . S
H314 C285 0.931 . S
H315 C286 0.931 . S
H316 C288 0.931 . S
H317 C289 0.931 . S
H318 C295 0.931 . S
H319 C296 0.931 . S
H320 C298 0.931 . S
H321 C299 0.931 . S
C322 Eu323 2.835 . S
C322 C324 1.500 . S
C322 O342 1.257 . S
C322 O343 1.260 . S
Eu323 C322 2.835 . S
Eu323 O342 2.473 . S
Eu323 O343 2.480 . S
Eu323 O344 2.430 . S
Eu323 O345 2.670 . S
Eu323 O346 2.394 . S
Eu323 O351 2.355 . S
Eu323 O353 2.374 . S
C324 C322 1.500 . S
C324 C325 1.377 . S
C324 C329 1.377 . S
C325 C324 1.377 . S
C325 C326 1.395 . S
C325 H354 0.931 . S
C326 C325 1.395 . S
C326 C327 1.383 . S
C326 H355 0.931 . S
C327 C326 1.383 . S
C327 C328 1.394 . S
C328 C327 1.394 . S
C328 C329 1.378 . S
C328 H356 0.931 . S
C329 C324 1.377 . S
C329 C328 1.378 . S
C329 H357 0.931 . S
C330 O344 1.259 . S
C330 O345 1.270 . S
C331 O346 1.251 . S
C331 O347 1.251 . S
C332 Eu333 2.835 . S
C332 C334 1.500 . S
C332 O348 1.257 . S
C332 O349 1.260 . S
Eu333 C332 2.835 . S
Eu333 O345 2.355 . S
Eu333 O347 2.374 . S
Eu333 O348 2.473 . S
Eu333 O349 2.480 . S
Eu333 O350 2.430 . S
Eu333 O351 2.670 . S
Eu333 O352 2.394 . S
C334 C332 1.500 . S
C334 C335 1.377 . S
C334 C339 1.377 . S
C335 C334 1.377 . S
C335 C336 1.395 . S
C335 H358 0.931 . S
C336 C335 1.395 . S
C336 C337 1.383 . S
C336 H359 0.931 . S
C337 C336 1.383 . S
C337 C338 1.394 . S
C338 C337 1.394 . S
C338 C339 1.378 . S
C338 H360 0.931 . S
C339 C334 1.377 . S
C339 C338 1.378 . S
C339 H361 0.931 . S
C340 O350 1.259 . S
C340 O351 1.270 . S
C341 O352 1.251 . S
C341 O353 1.251 . S
O342 C322 1.257 . S
O342 Eu323 2.473 . S
O343 C322 1.260 . S
O343 Eu323 2.480 . S
O344 Eu323 2.430 . S
O344 C330 1.259 . S
O345 Eu323 2.670 . S
O345 C330 1.270 . S
O345 Eu333 2.355 . S
O346 Eu323 2.394 . S
O346 C331 1.251 . S
O347 C331 1.251 . S
O347 Eu333 2.374 . S
O348 C332 1.257 . S
O348 Eu333 2.473 . S
O349 C332 1.260 . S
O349 Eu333 2.480 . S
O350 Eu333 2.430 . S
O350 C340 1.259 . S
O351 Eu323 2.355 . S
O351 Eu333 2.670 . S
O351 C340 1.270 . S
O352 Eu333 2.394 . S
O352 C341 1.251 . S
O353 Eu323 2.374 . S
O353 C341 1.251 . S
H354 C325 0.931 . S
H355 C326 0.931 . S
H356 C328 0.931 . S
H357 C329 0.931 . S
H358 C335 0.931 . S
H359 C336 0.931 . S
H360 C338 0.931 . S
H361 C339 0.931 . S
C362 Eu363 2.835 . S
C362 C364 1.500 . S
C362 O382 1.257 . S
C362 O383 1.260 . S
Eu363 C362 2.835 . S
Eu363 O382 2.473 . S
Eu363 O383 2.480 . S
Eu363 O384 2.430 . S
Eu363 O385 2.670 . S
Eu363 O386 2.394 . S
Eu363 O391 2.355 . S
Eu363 O393 2.374 . S
C364 C362 1.500 . S
C364 C365 1.377 . S
C364 C369 1.377 . S
C365 C364 1.377 . S
C365 C366 1.395 . S
C365 H394 0.931 . S
C366 C365 1.395 . S
C366 C367 1.383 . S
C366 H395 0.931 . S
C367 C366 1.383 . S
C367 C368 1.394 . S
C368 C367 1.394 . S
C368 C369 1.378 . S
C368 H396 0.931 . S
C369 C364 1.377 . S
C369 C368 1.378 . S
C369 H397 0.931 . S
C370 O384 1.259 . S
C370 O385 1.270 . S
C371 O386 1.251 . S
C371 O387 1.251 . S
C372 Eu373 2.835 . S
C372 C374 1.500 . S
C372 O388 1.257 . S
C372 O389 1.260 . S
Eu373 C372 2.835 . S
Eu373 O385 2.355 . S
Eu373 O387 2.374 . S
Eu373 O388 2.473 . S
Eu373 O389 2.480 . S
Eu373 O390 2.430 . S
Eu373 O391 2.670 . S
Eu373 O392 2.394 . S
C374 C372 1.500 . S
C374 C375 1.377 . S
C374 C379 1.377 . S
C375 C374 1.377 . S
C375 C376 1.395 . S
C375 H398 0.931 . S
C376 C375 1.395 . S
C376 C377 1.383 . S
C376 H399 0.931 . S
C377 C376 1.383 . S
C377 C378 1.394 . S
C378 C377 1.394 . S
C378 C379 1.378 . S
C378 H400 0.931 . S
C379 C374 1.377 . S
C379 C378 1.378 . S
C379 H401 0.931 . S
C380 O390 1.259 . S
C380 O391 1.270 . S
C381 O392 1.251 . S
C381 O393 1.251 . S
O382 C362 1.257 . S
O382 Eu363 2.473 . S
O383 C362 1.260 . S
O383 Eu363 2.480 . S
O384 Eu363 2.430 . S
O384 C370 1.259 . S
O385 Eu363 2.670 . S
O385 C370 1.270 . S
O385 Eu373 2.355 . S
O386 Eu363 2.394 . S
O386 C371 1.251 . S
O387 C371 1.251 . S
O387 Eu373 2.374 . S
O388 C372 1.257 . S
O388 Eu373 2.473 . S
O389 C372 1.260 . S
O389 Eu373 2.480 . S
O390 Eu373 2.430 . S
O390 C380 1.259 . S
O391 Eu363 2.355 . S
O391 Eu373 2.670 . S
O391 C380 1.270 . S
O392 Eu373 2.394 . S
O392 C381 1.251 . S
O393 Eu363 2.374 . S
O393 C381 1.251 . S
H394 C365 0.931 . S
H395 C366 0.931 . S
H396 C368 0.931 . S
H397 C369 0.931 . S
H398 C375 0.931 . S
H399 C376 0.931 . S
H400 C378 0.931 . S
H401 C379 0.931 . S
C402 Eu403 2.835 . S
C402 C404 1.500 . S
C402 O422 1.257 . S
C402 O423 1.260 . S
Eu403 C402 2.835 . S
Eu403 O422 2.473 . S
Eu403 O423 2.480 . S
Eu403 O424 2.430 . S
Eu403 O425 2.670 . S
Eu403 O426 2.394 . S
Eu403 O431 2.355 . S
Eu403 O433 2.374 . S
C404 C402 1.500 . S
C404 C405 1.377 . S
C404 C409 1.377 . S
C405 C404 1.377 . S
C405 C406 1.395 . S
C405 H434 0.931 . S
C406 C405 1.395 . S
C406 C407 1.383 . S
C406 H435 0.931 . S
C407 C406 1.383 . S
C407 C408 1.394 . S
C408 C407 1.394 . S
C408 C409 1.378 . S
C408 H436 0.931 . S
C409 C404 1.377 . S
C409 C408 1.378 . S
C409 H437 0.931 . S
C410 O424 1.259 . S
C410 O425 1.270 . S
C411 O426 1.251 . S
C411 O427 1.251 . S
C412 Eu413 2.835 . S
C412 C414 1.500 . S
C412 O428 1.257 . S
C412 O429 1.260 . S
Eu413 C412 2.835 . S
Eu413 O425 2.355 . S
Eu413 O427 2.374 . S
Eu413 O428 2.473 . S
Eu413 O429 2.480 . S
Eu413 O430 2.430 . S
Eu413 O431 2.670 . S
Eu413 O432 2.394 . S
C414 C412 1.500 . S
C414 C415 1.377 . S
C414 C419 1.377 . S
C415 C414 1.377 . S
C415 C416 1.395 . S
C415 H438 0.931 . S
C416 C415 1.395 . S
C416 C417 1.383 . S
C416 H439 0.931 . S
C417 C416 1.383 . S
C417 C418 1.394 . S
C418 C417 1.394 . S
C418 C419 1.378 . S
C418 H440 0.931 . S
C419 C414 1.377 . S
C419 C418 1.378 . S
C419 H441 0.931 . S
C420 O430 1.259 . S
C420 O431 1.270 . S
C421 O432 1.251 . S
C421 O433 1.251 . S
O422 C402 1.257 . S
O422 Eu403 2.473 . S
O423 C402 1.260 . S
O423 Eu403 2.480 . S
O424 Eu403 2.430 . S
O424 C410 1.259 . S
O425 Eu403 2.670 . S
O425 C410 1.270 . S
O425 Eu413 2.355 . S
O426 Eu403 2.394 . S
O426 C411 1.251 . S
O427 C411 1.251 . S
O427 Eu413 2.374 . S
O428 C412 1.257 . S
O428 Eu413 2.473 . S
O429 C412 1.260 . S
O429 Eu413 2.480 . S
O430 Eu413 2.430 . S
O430 C420 1.259 . S
O431 Eu403 2.355 . S
O431 Eu413 2.670 . S
O431 C420 1.270 . S
O432 Eu413 2.394 . S
O432 C421 1.251 . S
O433 Eu403 2.374 . S
O433 C421 1.251 . S
H434 C405 0.931 . S
H435 C406 0.931 . S
H436 C408 0.931 . S
H437 C409 0.931 . S
H438 C415 0.931 . S
H439 C416 0.931 . S
H440 C418 0.931 . S
H441 C419 0.931 . S
C442 Eu443 2.835 . S
C442 C444 1.500 . S
C442 O462 1.257 . S
C442 O463 1.260 . S
Eu443 C442 2.835 . S
Eu443 O462 2.473 . S
Eu443 O463 2.480 . S
Eu443 O464 2.430 . S
Eu443 O465 2.670 . S
Eu443 O466 2.394 . S
Eu443 O471 2.355 . S
Eu443 O473 2.374 . S
C444 C442 1.500 . S
C444 C445 1.377 . S
C444 C449 1.377 . S
C445 C444 1.377 . S
C445 C446 1.395 . S
C445 H474 0.931 . S
C446 C445 1.395 . S
C446 C447 1.383 . S
C446 H475 0.931 . S
C447 C446 1.383 . S
C447 C448 1.394 . S
C448 C447 1.394 . S
C448 C449 1.378 . S
C448 H476 0.931 . S
C449 C444 1.377 . S
C449 C448 1.378 . S
C449 H477 0.931 . S
C450 O464 1.259 . S
C450 O465 1.270 . S
C451 O466 1.251 . S
C451 O467 1.251 . S
C452 Eu453 2.835 . S
C452 C454 1.500 . S
C452 O468 1.257 . S
C452 O469 1.260 . S
Eu453 C452 2.835 . S
Eu453 O465 2.355 . S
Eu453 O467 2.374 . S
Eu453 O468 2.473 . S
Eu453 O469 2.480 . S
Eu453 O470 2.430 . S
Eu453 O471 2.670 . S
Eu453 O472 2.394 . S
C454 C452 1.500 . S
C454 C455 1.377 . S
C454 C459 1.377 . S
C455 C454 1.377 . S
C455 C456 1.395 . S
C455 H478 0.931 . S
C456 C455 1.395 . S
C456 C457 1.383 . S
C456 H479 0.931 . S
C457 C456 1.383 . S
C457 C458 1.394 . S
C458 C457 1.394 . S
C458 C459 1.378 . S
C458 H480 0.931 . S
C459 C454 1.377 . S
C459 C458 1.378 . S
C459 H481 0.931 . S
C460 O470 1.259 . S
C460 O471 1.270 . S
C461 O472 1.251 . S
C461 O473 1.251 . S
O462 C442 1.257 . S
O462 Eu443 2.473 . S
O463 C442 1.260 . S
O463 Eu443 2.480 . S
O464 Eu443 2.430 . S
O464 C450 1.259 . S
O465 Eu443 2.670 . S
O465 C450 1.270 . S
O465 Eu453 2.355 . S
O466 Eu443 2.394 . S
O466 C451 1.251 . S
O467 C451 1.251 . S
O467 Eu453 2.374 . S
O468 C452 1.257 . S
O468 Eu453 2.473 . S
O469 C452 1.260 . S
O469 Eu453 2.480 . S
O470 Eu453 2.430 . S
O470 C460 1.259 . S
O471 Eu443 2.355 . S
O471 Eu453 2.670 . S
O471 C460 1.270 . S
O472 Eu453 2.394 . S
O472 C461 1.251 . S
O473 Eu443 2.374 . S
O473 C461 1.251 . S
H474 C445 0.931 . S
H475 C446 0.931 . S
H476 C448 0.931 . S
H477 C449 0.931 . S
H478 C455 0.931 . S
H479 C456 0.931 . S
H480 C458 0.931 . S
H481 C459 0.931 . S
C482 Eu483 2.835 . S
C482 C484 1.500 . S
C482 O502 1.257 . S
C482 O503 1.260 . S
Eu483 C482 2.835 . S
Eu483 O502 2.473 . S
Eu483 O503 2.480 . S
Eu483 O504 2.430 . S
Eu483 O505 2.670 . S
Eu483 O506 2.394 . S
Eu483 O511 2.355 . S
Eu483 O513 2.374 . S
C484 C482 1.500 . S
C484 C485 1.377 . S
C484 C489 1.377 . S
C485 C484 1.377 . S
C485 C486 1.395 . S
C485 H514 0.931 . S
C486 C485 1.395 . S
C486 C487 1.383 . S
C486 H515 0.931 . S
C487 C486 1.383 . S
C487 C488 1.394 . S
C488 C487 1.394 . S
C488 C489 1.378 . S
C488 H516 0.931 . S
C489 C484 1.377 . S
C489 C488 1.378 . S
C489 H517 0.931 . S
C490 O504 1.259 . S
C490 O505 1.270 . S
C491 O506 1.251 . S
C491 O507 1.251 . S
C492 Eu493 2.835 . S
C492 C494 1.500 . S
C492 O508 1.257 . S
C492 O509 1.260 . S
Eu493 C492 2.835 . S
Eu493 O505 2.355 . S
Eu493 O507 2.374 . S
Eu493 O508 2.473 . S
Eu493 O509 2.480 . S
Eu493 O510 2.430 . S
Eu493 O511 2.670 . S
Eu493 O512 2.394 . S
C494 C492 1.500 . S
C494 C495 1.377 . S
C494 C499 1.377 . S
C495 C494 1.377 . S
C495 C496 1.395 . S
C495 H518 0.931 . S
C496 C495 1.395 . S
C496 C497 1.383 . S
C496 H519 0.931 . S
C497 C496 1.383 . S
C497 C498 1.394 . S
C498 C497 1.394 . S
C498 C499 1.378 . S
C498 H520 0.931 . S
C499 C494 1.377 . S
C499 C498 1.378 . S
C499 H521 0.931 . S
C500 O510 1.259 . S
C500 O511 1.270 . S
C501 O512 1.251 . S
C501 O513 1.251 . S
O502 C482 1.257 . S
O502 Eu483 2.473 . S
O503 C482 1.260 . S
O503 Eu483 2.480 . S
O504 Eu483 2.430 . S
O504 C490 1.259 . S
O505 Eu483 2.670 . S
O505 C490 1.270 . S
O505 Eu493 2.355 . S
O506 Eu483 2.394 . S
O506 C491 1.251 . S
O507 C491 1.251 . S
O507 Eu493 2.374 . S
O508 C492 1.257 . S
O508 Eu493 2.473 . S
O509 C492 1.260 . S
O509 Eu493 2.480 . S
O510 Eu493 2.430 . S
O510 C500 1.259 . S
O511 Eu483 2.355 . S
O511 Eu493 2.670 . S
O511 C500 1.270 . S
O512 Eu493 2.394 . S
O512 C501 1.251 . S
O513 Eu483 2.374 . S
O513 C501 1.251 . S
H514 C485 0.931 . S
H515 C486 0.931 . S
H516 C488 0.931 . S
H517 C489 0.931 . S
H518 C495 0.931 . S
H519 C496 0.931 . S
H520 C498 0.931 . S
H521 C499 0.931 . S
C522 C523 1.363 . S
C522 C528 1.379 . S
C522 N530 1.356 . S
C523 C522 1.363 . S
C523 C529 1.363 . S
C524 C525 1.363 . S
C524 C529 1.379 . S
C524 N531 1.356 . S
C525 C524 1.363 . S
C525 C528 1.363 . S
N526 C528 1.356 . S
N526 H538 0.984 . S
N526 H539 0.985 . S
N527 C529 1.356 . S
N527 H532 0.984 . S
N527 H533 0.985 . S
C528 C522 1.379 . S
C528 C525 1.363 . S
C528 N526 1.356 . S
C529 C523 1.363 . S
C529 C524 1.379 . S
C529 N527 1.356 . S
N530 C522 1.356 . S
N530 H536 0.984 . S
N530 H537 0.984 . S
N531 C524 1.356 . S
N531 H534 0.984 . S
N531 H535 0.985 . S
H532 N527 0.984 . S
H533 N527 0.985 . S
H534 N531 0.984 . S
H535 N531 0.985 . S
H536 N530 0.984 . S
H537 N530 0.984 . S
H538 N526 0.984 . S
H539 N526 0.985 . S
C540 C541 1.363 . S
C540 C546 1.379 . S
C540 N548 1.356 . S
C541 C540 1.363 . S
C541 C547 1.363 . S
C542 C543 1.363 . S
C542 C547 1.379 . S
C542 N549 1.356 . S
C543 C542 1.363 . S
C543 C546 1.363 . S
N544 C546 1.356 . S
N544 H556 0.984 . S
N544 H557 0.985 . S
N545 C547 1.356 . S
N545 H550 0.984 . S
N545 H551 0.985 . S
C546 C540 1.379 . S
C546 C543 1.363 . S
C546 N544 1.356 . S
C547 C541 1.363 . S
C547 C542 1.379 . S
C547 N545 1.356 . S
N548 C540 1.356 . S
N548 H554 0.984 . S
N548 H555 0.984 . S
N549 C542 1.356 . S
N549 H552 0.984 . S
N549 H553 0.985 . S
H550 N545 0.984 . S
H551 N545 0.985 . S
H552 N549 0.984 . S
H553 N549 0.985 . S
H554 N548 0.984 . S
H555 N548 0.984 . S
H556 N544 0.984 . S
H557 N544 0.985 . S
C558 C559 1.363 . S
C558 C564 1.379 . S
C558 N566 1.356 . S
C559 C558 1.363 . S
C559 C565 1.363 . S
C560 C561 1.363 . S
C560 C565 1.379 . S
C560 N567 1.356 1_554 S
C561 C560 1.363 . S
C561 C564 1.363 . S
N562 C564 1.356 . S
N562 H574 0.984 . S
N562 H575 0.985 . S
N563 C565 1.356 . S
N563 H568 0.984 . S
N563 H569 0.985 1_554 S
C564 C558 1.379 . S
C564 C561 1.363 . S
C564 N562 1.356 . S
C565 C559 1.363 . S
C565 C560 1.379 . S
C565 N563 1.356 . S
N566 C558 1.356 . S
N566 H572 0.984 . S
N566 H573 0.984 . S
N567 C560 1.356 1_556 S
N567 H570 0.984 . S
N567 H571 0.985 . S
H568 N563 0.984 . S
H569 N563 0.985 1_556 S
H570 N567 0.984 . S
H571 N567 0.985 . S
H572 N566 0.984 . S
H573 N566 0.984 . S
H574 N562 0.984 . S
H575 N562 0.985 . S
C576 C577 1.363 . S
C576 C582 1.379 . S
C576 N584 1.356 . S
C577 C576 1.363 . S
C577 C583 1.363 . S
C578 C579 1.363 . S
C578 C583 1.379 . S
C578 N585 1.356 1_556 S
C579 C578 1.363 . S
C579 C582 1.363 . S
N580 C582 1.356 . S
N580 H592 0.984 . S
N580 H593 0.985 . S
N581 C583 1.356 . S
N581 H586 0.984 . S
N581 H587 0.985 . S
C582 C576 1.379 . S
C582 C579 1.363 . S
C582 N580 1.356 . S
C583 C577 1.363 . S
C583 C578 1.379 . S
C583 N581 1.356 . S
N584 C576 1.356 . S
N584 H590 0.984 . S
N584 H591 0.984 . S
N585 C578 1.356 1_554 S
N585 H588 0.984 . S
N585 H589 0.985 . S
H586 N581 0.984 . S
H587 N581 0.985 . S
H588 N585 0.984 . S
H589 N585 0.985 . S
H590 N584 0.984 . S
H591 N584 0.984 . S
H592 N580 0.984 . S
H593 N580 0.985 . S
C594 C595 1.363 . S
C594 C600 1.379 . S
C594 N602 1.356 . S
C595 C594 1.363 . S
C595 C601 1.363 . S
C596 C597 1.363 . S
C596 C601 1.379 . S
C596 N603 1.356 1_556 S
C597 C596 1.363 . S
C597 C600 1.363 . S
N598 C600 1.356 . S
N598 H610 0.984 . S
N598 H611 0.985 . S
N599 C601 1.356 . S
N599 H604 0.984 . S
N599 H605 0.985 . S
C600 C594 1.379 . S
C600 C597 1.363 . S
C600 N598 1.356 . S
C601 C595 1.363 . S
C601 C596 1.379 . S
C601 N599 1.356 . S
N602 C594 1.356 . S
N602 H608 0.984 . S
N602 H609 0.984 . S
N603 C596 1.356 1_554 S
N603 H606 0.984 . S
N603 H607 0.985 . S
H604 N599 0.984 . S
H605 N599 0.985 . S
H606 N603 0.984 . S
H607 N603 0.985 . S
H608 N602 0.984 . S
H609 N602 0.984 . S
H610 N598 0.984 . S
H611 N598 0.985 . S
C612 C613 1.363 . S
C612 C618 1.379 . S
C612 N620 1.356 . S
C613 C612 1.363 . S
C613 C619 1.363 . S
C614 C615 1.363 . S
C614 C619 1.379 . S
C614 N621 1.356 . S
C615 C614 1.363 . S
C615 C618 1.363 . S
N616 C618 1.354 . S
N616 H628 0.986 1_546 S
N616 H629 0.985 1_556 S
N617 C619 1.356 . S
N617 H622 0.984 . S
N617 H623 0.985 . S
C618 C612 1.379 . S
C618 C615 1.363 . S
C618 N616 1.354 . S
C619 C613 1.363 . S
C619 C614 1.379 . S
C619 N617 1.356 . S
N620 C612 1.356 . S
N620 H626 0.984 . S
N620 H627 0.984 . S
N621 C614 1.356 . S
N621 H624 0.984 . S
N621 H625 0.985 . S
H622 N617 0.984 . S
H623 N617 0.985 . S
H624 N621 0.984 . S
H625 N621 0.985 . S
H626 N620 0.984 . S
H627 N620 0.984 . S
H628 N616 0.986 1_564 S
H629 N616 0.985 1_554 S
C630 C631 1.363 . S
C630 C636 1.379 . S
C630 N638 1.356 . S
C631 C630 1.363 . S
C631 C637 1.363 . S
C632 C633 1.363 . S
C632 C637 1.379 . S
C632 N639 1.356 . S
C633 C632 1.363 . S
C633 C636 1.363 . S
N634 C636 1.356 1_554 S
N634 H646 0.984 . S
N634 H647 0.985 . S
N635 C637 1.356 . S
N635 H640 0.984 . S
N635 H641 0.985 . S
C636 C630 1.379 . S
C636 C633 1.363 . S
C636 N634 1.356 1_556 S
C637 C631 1.363 . S
C637 C632 1.379 . S
C637 N635 1.356 . S
N638 C630 1.356 . S
N638 H644 0.984 1_556 S
N638 H645 0.984 . S
N639 C632 1.356 . S
N639 H642 0.984 . S
N639 H643 0.985 . S
H640 N635 0.984 . S
H641 N635 0.985 . S
H642 N639 0.984 . S
H643 N639 0.985 . S
H644 N638 0.984 1_554 S
H645 N638 0.984 . S
H646 N634 0.984 . S
H647 N634 0.985 . S
C648 C649 1.363 . S
C648 C654 1.379 . S
C648 N656 1.356 . S
C649 C648 1.363 . S
C649 C655 1.363 . S
C650 C651 1.363 . S
C650 C655 1.379 . S
C650 N657 1.356 . S
C651 C650 1.363 . S
C651 C654 1.363 . S
N652 C654 1.356 . S
N652 H664 0.984 1_556 S
N652 H665 0.985 . S
N653 C655 1.356 . S
N653 H658 0.984 . S
N653 H659 0.985 . S
C654 C648 1.379 . S
C654 C651 1.363 . S
C654 N652 1.356 . S
C655 C649 1.363 . S
C655 C650 1.379 . S
C655 N653 1.356 . S
N656 C648 1.356 . S
N656 H662 0.984 . S
N656 H663 0.984 . S
N657 C650 1.356 . S
N657 H660 0.984 . S
N657 H661 0.985 . S
H658 N653 0.984 . S
H659 N653 0.985 . S
H660 N657 0.984 . S
H661 N657 0.985 . S
H662 N656 0.984 . S
H663 N656 0.984 . S
H664 N652 0.984 1_554 S
H665 N652 0.985 . S
C666 C667 1.363 . S
C666 C672 1.379 . S
C666 N674 1.356 . S
C667 C666 1.363 . S
C667 C673 1.363 . S
C668 C669 1.363 . S
C668 C673 1.379 . S
C668 N675 1.356 . S
C669 C668 1.363 . S
C669 C672 1.363 . S
N670 C672 1.356 . S
N670 H682 0.984 . S
N670 H683 0.985 . S
N671 C673 1.356 . S
N671 H676 0.984 . S
N671 H677 0.985 . S
C672 C666 1.379 . S
C672 C669 1.363 . S
C672 N670 1.356 . S
C673 C667 1.363 . S
C673 C668 1.379 . S
C673 N671 1.356 . S
N674 C666 1.356 . S
N674 H680 0.984 . S
N674 H681 0.984 . S
N675 C668 1.356 . S
N675 H678 0.984 . S
N675 H679 0.985 . S
H676 N671 0.984 . S
H677 N671 0.985 . S
H678 N675 0.984 . S
H679 N675 0.985 . S
H680 N674 0.984 . S
H681 N674 0.984 . S
H682 N670 0.984 . S
H683 N670 0.985 . S
C684 C685 1.363 . S
C684 C690 1.379 . S
C684 N692 1.356 . S
C685 C684 1.363 . S
C685 C691 1.363 . S
C686 C687 1.363 . S
C686 C691 1.379 . S
C686 N693 1.356 1_554 S
C687 C686 1.363 . S
C687 C690 1.363 . S
N688 C690 1.356 . S
N688 H700 0.984 . S
N688 H701 0.985 . S
N689 C691 1.356 . S
N689 H694 0.984 . S
N689 H695 0.985 1_554 S
C690 C684 1.379 . S
C690 C687 1.363 . S
C690 N688 1.356 . S
C691 C685 1.363 . S
C691 C686 1.379 . S
C691 N689 1.356 . S
N692 C684 1.356 . S
N692 H698 0.984 . S
N692 H699 0.984 . S
N693 C686 1.356 1_556 S
N693 H696 0.984 . S
N693 H697 0.985 . S
H694 N689 0.984 . S
H695 N689 0.985 1_556 S
H696 N693 0.984 . S
H697 N693 0.985 . S
H698 N692 0.984 . S
H699 N692 0.984 . S
H700 N688 0.984 . S
H701 N688 0.985 . S
C702 C703 1.363 . S
C702 C708 1.379 . S
C702 N710 1.356 . S
C703 C702 1.363 . S
C703 C709 1.363 . S
C704 C705 1.363 . S
C704 C709 1.379 . S
C704 N711 1.356 . S
C705 C704 1.363 . S
C705 C708 1.363 . S
N706 C708 1.356 . S
N706 H718 0.984 . S
N706 H719 0.985 . S
N707 C709 1.356 . S
N707 H712 0.984 . S
N707 H713 0.985 . S
C708 C702 1.379 . S
C708 C705 1.363 . S
C708 N706 1.356 . S
C709 C703 1.363 . S
C709 C704 1.379 . S
C709 N707 1.356 . S
N710 C702 1.356 . S
N710 H716 0.984 . S
N710 H717 0.984 . S
N711 C704 1.356 . S
N711 H714 0.984 . S
N711 H715 0.985 . S
H712 N707 0.984 . S
H713 N707 0.985 . S
H714 N711 0.984 . S
H715 N711 0.985 . S
H716 N710 0.984 . S
H717 N710 0.984 . S
H718 N706 0.984 . S
H719 N706 0.985 . S
C720 C721 1.363 . S
C720 C726 1.379 . S
C720 N728 1.356 . S
C721 C720 1.363 . S
C721 C727 1.363 . S
C722 C723 1.363 . S
C722 C727 1.379 . S
C722 N729 1.356 . S
C723 C722 1.363 . S
C723 C726 1.363 . S
N724 C726 1.356 1_556 S
N724 H736 0.984 . S
N724 H737 0.985 . S
N725 C727 1.356 . S
N725 H730 0.984 . S
N725 H731 0.985 . S
C726 C720 1.379 . S
C726 C723 1.363 . S
C726 N724 1.356 1_554 S
C727 C721 1.363 . S
C727 C722 1.379 . S
C727 N725 1.356 . S
N728 C720 1.356 . S
N728 H734 0.984 1_554 S
N728 H735 0.984 . S
N729 C722 1.356 . S
N729 H732 0.984 . S
N729 H733 0.985 . S
H730 N725 0.984 . S
H731 N725 0.985 . S
H732 N729 0.984 . S
H733 N729 0.985 . S
H734 N728 0.984 1_556 S
H735 N728 0.984 . S
H736 N724 0.984 . S
H737 N724 0.985 . S
C738 C739 1.363 . S
C738 C744 1.379 1_655 S
C738 N746 1.356 . S
C739 C738 1.363 . S
C739 C745 1.363 . S
C740 C741 1.363 . S
C740 C745 1.379 1_455 S
C740 N747 1.356 . S
C741 C740 1.363 . S
C741 C744 1.363 . S
N742 C744 1.356 . S
N742 H754 0.984 . S
N742 H755 0.985 . S
N743 C745 1.356 . S
N743 H748 0.984 . S
N743 H749 0.985 . S
C744 C738 1.379 1_455 S
C744 C741 1.363 . S
C744 N742 1.356 . S
C745 C739 1.363 . S
C745 C740 1.379 1_655 S
C745 N743 1.356 . S
N746 C738 1.356 . S
N746 H752 0.984 . S
N746 H753 0.984 . S
N747 C740 1.356 . S
N747 H750 0.984 . S
N747 H751 0.985 . S
H748 N743 0.984 . S
H749 N743 0.985 . S
H750 N747 0.984 . S
H751 N747 0.985 . S
H752 N746 0.984 . S
H753 N746 0.984 . S
H754 N742 0.984 . S
H755 N742 0.985 . S
C756 C757 1.363 . S
C756 C762 1.379 . S
C756 N764 1.356 . S
C757 C756 1.363 . S
C757 C763 1.363 . S
C758 C759 1.363 . S
C758 C763 1.379 . S
C758 N765 1.356 . S
C759 C758 1.363 . S
C759 C762 1.363 . S
N760 C762 1.356 . S
N760 H772 0.984 . S
N760 H773 0.985 . S
N761 C763 1.356 . S
N761 H766 0.984 . S
N761 H767 0.985 . S
C762 C756 1.379 . S
C762 C759 1.363 . S
C762 N760 1.356 . S
C763 C757 1.363 . S
C763 C758 1.379 . S
C763 N761 1.356 . S
N764 C756 1.356 . S
N764 H770 0.984 . S
N764 H771 0.984 . S
N765 C758 1.356 . S
N765 H768 0.984 . S
N765 H769 0.985 . S
H766 N761 0.984 . S
H767 N761 0.985 . S
H768 N765 0.984 . S
H769 N765 0.985 . S
H770 N764 0.984 . S
H771 N764 0.984 . S
H772 N760 0.984 . S
H773 N760 0.985 . S
C774 C775 1.363 . S
C774 C780 1.379 1_545 S
C774 N782 1.356 . S
C775 C774 1.363 . S
C775 C781 1.363 . S
C776 C777 1.361 1_545 S
C776 C781 1.380 . S
C776 N783 1.356 1_545 S
C777 C776 1.361 1_565 S
C777 C780 1.363 . S
N778 C780 1.356 . S
N778 H790 0.984 . S
N778 H791 0.985 . S
N779 C781 1.356 . S
N779 H784 0.984 . S
N779 H785 0.985 . S
C780 C774 1.379 1_565 S
C780 C777 1.363 . S
C780 N778 1.356 . S
C781 C775 1.363 . S
C781 C776 1.380 . S
C781 N779 1.356 . S
N782 C774 1.356 . S
N782 H788 0.984 . S
N782 H789 0.984 . S
N783 C776 1.356 1_565 S
N783 H786 0.984 . S
N783 H787 0.985 . S
H784 N779 0.984 . S
H785 N779 0.985 . S
H786 N783 0.984 . S
H787 N783 0.985 . S
H788 N782 0.984 . S
H789 N782 0.984 . S
H790 N778 0.984 . S
H791 N778 0.985 . S
C792 C793 1.363 . S
C792 C798 1.379 . S
C792 N800 1.356 . S
C793 C792 1.363 . S
C793 C799 1.363 . S
C794 C795 1.363 . S
C794 C799 1.379 . S
C794 N801 1.356 . S
C795 C794 1.363 . S
C795 C798 1.363 . S
N796 C798 1.356 . S
N796 H808 0.984 . S
N796 H809 0.985 . S
N797 C799 1.356 . S
N797 H802 0.984 . S
N797 H803 0.985 . S
C798 C792 1.379 . S
C798 C795 1.363 . S
C798 N796 1.356 . S
C799 C793 1.363 . S
C799 C794 1.379 . S
C799 N797 1.356 . S
N800 C792 1.356 . S
N800 H806 0.984 . S
N800 H807 0.984 . S
N801 C794 1.356 . S
N801 H804 0.984 . S
N801 H805 0.985 . S
H802 N797 0.984 . S
H803 N797 0.985 . S
H804 N801 0.984 . S
H805 N801 0.985 . S
H806 N800 0.984 . S
H807 N800 0.984 . S
H808 N796 0.984 . S
H809 N796 0.985 . S
C810 C811 1.363 . S
C810 C816 1.379 . S
C810 N818 1.356 . S
C811 C810 1.363 . S
C811 C817 1.363 . S
C812 C813 1.363 . S
C812 C817 1.379 . S
C812 N819 1.356 . S
C813 C812 1.363 . S
C813 C816 1.363 . S
N814 C816 1.356 . S
N814 H826 0.984 . S
N814 H827 0.985 . S
N815 C817 1.356 . S
N815 H820 0.984 . S
N815 H821 0.985 . S
C816 C810 1.379 . S
C816 C813 1.363 . S
C816 N814 1.356 . S
C817 C811 1.363 . S
C817 C812 1.379 . S
C817 N815 1.356 . S
N818 C810 1.356 . S
N818 H824 0.984 . S
N818 H825 0.984 . S
N819 C812 1.356 . S
N819 H822 0.984 . S
N819 H823 0.985 . S
H820 N815 0.984 . S
H821 N815 0.985 . S
H822 N819 0.984 . S
H823 N819 0.985 . S
H824 N818 0.984 . S
H825 N818 0.984 . S
H826 N814 0.984 . S
H827 N814 0.985 . S
C828 C829 1.363 . S
C828 C834 1.379 . S
C828 N836 1.356 . S
C829 C828 1.363 . S
C829 C835 1.363 . S
C830 C831 1.363 . S
C830 C835 1.379 . S
C830 N837 1.356 . S
C831 C830 1.363 . S
C831 C834 1.363 . S
N832 C834 1.356 . S
N832 H844 0.984 . S
N832 H845 0.985 . S
N833 C835 1.356 . S
N833 H838 0.984 . S
N833 H839 0.985 . S
C834 C828 1.379 . S
C834 C831 1.363 . S
C834 N832 1.356 . S
C835 C829 1.363 . S
C835 C830 1.379 . S
C835 N833 1.356 . S
N836 C828 1.356 . S
N836 H842 0.984 1_455 S
N836 H843 0.984 1_455 S
N837 C830 1.356 . S
N837 H840 0.984 . S
N837 H841 0.985 . S
H838 N833 0.984 . S
H839 N833 0.985 . S
H840 N837 0.984 . S
H841 N837 0.985 . S
H842 N836 0.984 1_655 S
H843 N836 0.984 1_655 S
H844 N832 0.984 . S
H845 N832 0.985 . S
C846 C847 1.363 . S
C846 C852 1.379 . S
C846 N854 1.356 . S
C847 C846 1.363 . S
C847 C853 1.363 . S
C848 C849 1.363 . S
C848 C853 1.379 . S
C848 N855 1.356 . S
C849 C848 1.363 . S
C849 C852 1.363 . S
N850 C852 1.356 . S
N850 H862 0.984 . S
N850 H863 0.985 . S
N851 C853 1.356 . S
N851 H856 0.984 . S
N851 H857 0.985 . S
C852 C846 1.379 . S
C852 C849 1.363 . S
C852 N850 1.356 . S
C853 C847 1.363 . S
C853 C848 1.379 . S
C853 N851 1.356 . S
N854 C846 1.356 . S
N854 H860 0.984 . S
N854 H861 0.984 . S
N855 C848 1.356 . S
N855 H858 0.984 . S
N855 H859 0.985 . S
H856 N851 0.984 . S
H857 N851 0.985 . S
H858 N855 0.984 . S
H859 N855 0.985 . S
H860 N854 0.984 . S
H861 N854 0.984 . S
H862 N850 0.984 . S
H863 N850 0.985 . S
C864 C865 1.363 . S
C864 C870 1.379 . S
C864 N872 1.356 . S
C865 C864 1.363 . S
C865 C871 1.363 . S
C866 C867 1.363 . S
C866 C871 1.379 . S
C866 N873 1.356 . S
C867 C866 1.363 . S
C867 C870 1.363 . S
N868 C870 1.356 . S
N868 H880 0.984 . S
N868 H881 0.985 . S
N869 C871 1.356 . S
N869 H874 0.984 . S
N869 H875 0.985 . S
C870 C864 1.379 . S
C870 C867 1.363 . S
C870 N868 1.356 . S
C871 C865 1.363 . S
C871 C866 1.379 . S
C871 N869 1.356 . S
N872 C864 1.356 . S
N872 H878 0.984 . S
N872 H879 0.984 . S
N873 C866 1.356 . S
N873 H876 0.984 . S
N873 H877 0.985 . S
H874 N869 0.984 . S
H875 N869 0.985 . S
H876 N873 0.984 . S
H877 N873 0.985 . S
H878 N872 0.984 . S
H879 N872 0.984 . S
H880 N868 0.984 . S
H881 N868 0.985 . S
C882 C883 1.363 . S
C882 C888 1.379 . S
C882 N890 1.356 . S
C883 C882 1.363 . S
C883 C889 1.363 . S
C884 C885 1.363 . S
C884 C889 1.379 . S
C884 N891 1.356 . S
C885 C884 1.363 . S
C885 C888 1.363 . S
N886 C888 1.356 . S
N886 H898 0.984 . S
N886 H899 0.985 . S
N887 C889 1.356 . S
N887 H892 0.984 . S
N887 H893 0.985 . S
C888 C882 1.379 . S
C888 C885 1.363 . S
C888 N886 1.356 . S
C889 C883 1.363 . S
C889 C884 1.379 . S
C889 N887 1.356 . S
N890 C882 1.356 . S
N890 H896 0.984 . S
N890 H897 0.984 . S
N891 C884 1.356 . S
N891 H894 0.984 . S
N891 H895 0.985 . S
H892 N887 0.984 . S
H893 N887 0.985 . S
H894 N891 0.984 . S
H895 N891 0.985 . S
H896 N890 0.984 . S
H897 N890 0.984 . S
H898 N886 0.984 . S
H899 N886 0.985 . S
C900 C901 1.363 . S
C900 C906 1.379 1_545 S
C900 N908 1.356 . S
C901 C900 1.363 . S
C901 C907 1.363 . S
C902 C903 1.363 . S
C902 C907 1.379 1_565 S
C902 N909 1.356 . S
C903 C902 1.363 . S
C903 C906 1.363 . S
N904 C906 1.356 . S
N904 H916 0.984 . S
N904 H917 0.985 . S
N905 C907 1.356 . S
N905 H910 0.984 . S
N905 H911 0.985 . S
C906 C900 1.379 1_565 S
C906 C903 1.363 . S
C906 N904 1.356 . S
C907 C901 1.363 . S
C907 C902 1.379 1_545 S
C907 N905 1.356 . S
N908 C900 1.356 . S
N908 H914 0.984 . S
N908 H915 0.984 . S
N909 C902 1.356 . S
N909 H912 0.984 . S
N909 H913 0.985 . S
H910 N905 0.984 . S
H911 N905 0.985 . S
H912 N909 0.984 . S
H913 N909 0.985 . S
H914 N908 0.984 . S
H915 N908 0.984 . S
H916 N904 0.984 . S
H917 N904 0.985 . S
C918 C919 1.363 . S
C918 C924 1.379 1_655 S
C918 N926 1.356 . S
C919 C918 1.363 . S
C919 C925 1.363 . S
C920 C921 1.363 . S
C920 C925 1.379 1_455 S
C920 N927 1.356 . S
C921 C920 1.363 . S
C921 C924 1.363 . S
N922 C924 1.356 . S
N922 H934 0.984 . S
N922 H935 0.985 . S
N923 C925 1.356 . S
N923 H928 0.984 . S
N923 H929 0.985 . S
C924 C918 1.379 1_455 S
C924 C921 1.363 . S
C924 N922 1.356 . S
C925 C919 1.363 . S
C925 C920 1.379 1_655 S
C925 N923 1.356 . S
N926 C918 1.356 . S
N926 H932 0.984 . S
N926 H933 0.984 . S
N927 C920 1.356 . S
N927 H930 0.984 . S
N927 H931 0.985 . S
H928 N923 0.984 . S
H929 N923 0.985 . S
H930 N927 0.984 . S
H931 N927 0.985 . S
H932 N926 0.984 . S
H933 N926 0.984 . S
H934 N922 0.984 . S
H935 N922 0.985 . S
C936 C937 1.363 . S
C936 C942 1.379 . S
C936 N944 1.356 . S
C937 C936 1.363 . S
C937 C943 1.363 . S
C938 C939 1.363 . S
C938 C943 1.379 . S
C938 N945 1.356 . S
C939 C938 1.363 . S
C939 C942 1.363 . S
N940 C942 1.356 . S
N940 H952 0.984 . S
N940 H953 0.985 . S
N941 C943 1.356 . S
N941 H946 0.984 . S
N941 H947 0.985 . S
C942 C936 1.379 . S
C942 C939 1.363 . S
C942 N940 1.356 . S
C943 C937 1.363 . S
C943 C938 1.379 . S
C943 N941 1.356 . S
N944 C936 1.356 . S
N944 H950 0.984 . S
N944 H951 0.984 . S
N945 C938 1.356 . S
N945 H948 0.984 . S
N945 H949 0.985 . S
H946 N941 0.984 . S
H947 N941 0.985 . S
H948 N945 0.984 . S
H949 N945 0.985 . S
H950 N944 0.984 . S
H951 N944 0.984 . S
H952 N940 0.984 . S
H953 N940 0.985 . S
C954 C955 1.363 . S
C954 C960 1.379 . S
C954 N962 1.356 . S
C955 C954 1.363 . S
C955 C961 1.363 . S
C956 C957 1.363 . S
C956 C961 1.379 . S
C956 N963 1.356 . S
C957 C956 1.363 . S
C957 C960 1.363 . S
N958 C960 1.356 . S
N958 H970 0.984 . S
N958 H971 0.985 . S
N959 C961 1.356 . S
N959 H964 0.984 . S
N959 H965 0.985 . S
C960 C954 1.379 . S
C960 C957 1.363 . S
C960 N958 1.356 . S
C961 C955 1.363 . S
C961 C956 1.379 . S
C961 N959 1.356 . S
N962 C954 1.356 . S
N962 H968 0.984 . S
N962 H969 0.984 . S
N963 C956 1.356 . S
N963 H966 0.984 . S
N963 H967 0.985 . S
H964 N959 0.984 . S
H965 N959 0.985 . S
H966 N963 0.984 . S
H967 N963 0.985 . S
H968 N962 0.984 . S
H969 N962 0.984 . S
H970 N958 0.984 . S
H971 N958 0.985 . S
C972 C973 1.363 . S
C972 C978 1.379 . S
C972 N980 1.356 . S
C973 C972 1.363 . S
C973 C979 1.363 . S
C974 C975 1.363 . S
C974 C979 1.379 . S
C974 N981 1.356 . S
C975 C974 1.363 . S
C975 C978 1.363 . S
N976 C978 1.356 . S
N976 H988 0.984 . S
N976 H989 0.985 . S
N977 C979 1.356 . S
N977 H982 0.984 . S
N977 H983 0.985 . S
C978 C972 1.379 . S
C978 C975 1.363 . S
C978 N976 1.356 . S
C979 C973 1.363 . S
C979 C974 1.379 . S
C979 N977 1.356 . S
N980 C972 1.356 . S
N980 H986 0.984 . S
N980 H987 0.984 . S
N981 C974 1.356 . S
N981 H984 0.984 . S
N981 H985 0.985 . S
H982 N977 0.984 . S
H983 N977 0.985 . S
H984 N981 0.984 . S
H985 N981 0.985 . S
H986 N980 0.984 . S
H987 N980 0.984 . S
H988 N976 0.984 . S
H989 N976 0.985 . S
C990 C991 1.363 . S
C990 C996 1.379 . S
C990 N998 1.356 . S
C991 C990 1.363 . S
C991 C997 1.363 . S
C992 C993 1.363 . S
C992 C997 1.379 . S
C992 N999 1.356 . S
C993 C992 1.363 . S
C993 C996 1.363 . S
N994 C996 1.356 . S
N994 H1006 0.984 . S
N994 H1007 0.985 . S
N995 C997 1.356 . S
N995 H1000 0.984 . S
N995 H1001 0.985 1_655 S
C996 C990 1.379 . S
C996 C993 1.363 . S
C996 N994 1.356 . S
C997 C991 1.363 . S
C997 C992 1.379 . S
C997 N995 1.356 . S
N998 C990 1.356 . S
N998 H1004 0.984 . S
N998 H1005 0.984 . S
N999 C992 1.356 . S
N999 H1002 0.984 . S
N999 H1003 0.985 . S
H1000 N995 0.984 . S
H1001 N995 0.985 1_455 S
H1002 N999 0.984 . S
H1003 N999 0.985 . S
H1004 N998 0.984 . S
H1005 N998 0.984 . S
H1006 N994 0.984 . S
H1007 N994 0.985 . S
C1008 C1009 1.363 . S
C1008 C1014 1.379 1_565 S
C1008 N1016 1.356 . S
C1009 C1008 1.363 . S
C1009 C1015 1.363 . S
C1010 C1011 1.363 . S
C1010 C1015 1.379 1_545 S
C1010 N1017 1.356 . S
C1011 C1010 1.363 . S
C1011 C1014 1.363 . S
N1012 C1014 1.356 . S
N1012 H1024 0.984 . S
N1012 H1025 0.985 . S
N1013 C1015 1.356 . S
N1013 H1018 0.984 . S
N1013 H1019 0.985 . S
C1014 C1008 1.379 1_545 S
C1014 C1011 1.363 . S
C1014 N1012 1.356 . S
C1015 C1009 1.363 . S
C1015 C1010 1.379 1_565 S
C1015 N1013 1.356 . S
N1016 C1008 1.356 . S
N1016 H1022 0.984 . S
N1016 H1023 0.984 . S
N1017 C1010 1.356 . S
N1017 H1020 0.984 . S
N1017 H1021 0.985 . S
H1018 N1013 0.984 . S
H1019 N1013 0.985 . S
H1020 N1017 0.984 . S
H1021 N1017 0.985 . S
H1022 N1016 0.984 . S
H1023 N1016 0.984 . S
H1024 N1012 0.984 . S
H1025 N1012 0.985 . S
C1026 C1027 1.363 . S
C1026 C1032 1.379 1_455 S
C1026 N1034 1.356 . S
C1027 C1026 1.363 . S
C1027 C1033 1.363 . S
C1028 C1029 1.363 . S
C1028 C1033 1.379 1_655 S
C1028 N1035 1.356 . S
C1029 C1028 1.363 . S
C1029 C1032 1.363 . S
N1030 C1032 1.356 . S
N1030 H1042 0.984 . S
N1030 H1043 0.985 . S
N1031 C1033 1.356 . S
N1031 H1036 0.984 . S
N1031 H1037 0.985 . S
C1032 C1026 1.379 1_655 S
C1032 C1029 1.363 . S
C1032 N1030 1.356 . S
C1033 C1027 1.363 . S
C1033 C1028 1.379 1_455 S
C1033 N1031 1.356 . S
N1034 C1026 1.356 . S
N1034 H1040 0.984 . S
N1034 H1041 0.984 . S
N1035 C1028 1.356 . S
N1035 H1038 0.984 . S
N1035 H1039 0.985 . S
H1036 N1031 0.984 . S
H1037 N1031 0.985 . S
H1038 N1035 0.984 . S
H1039 N1035 0.985 . S
H1040 N1034 0.984 . S
H1041 N1034 0.984 . S
H1042 N1030 0.984 . S
H1043 N1030 0.985 . S
C1044 C1045 1.363 . S
C1044 C1050 1.379 . S
C1044 N1052 1.356 . S
C1045 C1044 1.363 . S
C1045 C1051 1.363 . S
C1046 C1047 1.363 . S
C1046 C1051 1.379 . S
C1046 N1053 1.356 . S
C1047 C1046 1.363 . S
C1047 C1050 1.363 . S
N1048 C1050 1.356 . S
N1048 H1060 0.984 . S
N1048 H1061 0.985 . S
N1049 C1051 1.356 . S
N1049 H1054 0.984 . S
N1049 H1055 0.985 . S
C1050 C1044 1.379 . S
C1050 C1047 1.363 . S
C1050 N1048 1.356 . S
C1051 C1045 1.363 . S
C1051 C1046 1.379 . S
C1051 N1049 1.356 . S
N1052 C1044 1.356 . S
N1052 H1058 0.984 . S
N1052 H1059 0.984 . S
N1053 C1046 1.356 . S
N1053 H1056 0.984 . S
N1053 H1057 0.985 . S
H1054 N1049 0.984 . S
H1055 N1049 0.985 . S
H1056 N1053 0.984 . S
H1057 N1053 0.985 . S
H1058 N1052 0.984 . S
H1059 N1052 0.984 . S
H1060 N1048 0.984 . S
H1061 N1048 0.985 . S
C1062 C1063 1.363 . S
C1062 C1068 1.379 1_455 S
C1062 N1070 1.356 . S
C1063 C1062 1.363 . S
C1063 C1069 1.363 . S
C1064 C1065 1.363 1_455 S
C1064 C1069 1.379 . S
C1064 N1071 1.356 1_455 S
C1065 C1064 1.363 1_655 S
C1065 C1068 1.363 . S
N1066 C1068 1.356 . S
N1066 H1078 0.984 . S
N1066 H1079 0.985 . S
N1067 C1069 1.356 . S
N1067 H1072 0.984 . S
N1067 H1073 0.985 . S
C1068 C1062 1.379 1_655 S
C1068 C1065 1.363 . S
C1068 N1066 1.356 . S
C1069 C1063 1.363 . S
C1069 C1064 1.379 . S
C1069 N1067 1.356 . S
N1070 C1062 1.356 . S
N1070 H1076 0.984 . S
N1070 H1077 0.984 . S
N1071 C1064 1.356 1_655 S
N1071 H1074 0.984 . S
N1071 H1075 0.985 1_655 S
H1072 N1067 0.984 . S
H1073 N1067 0.985 . S
H1074 N1071 0.984 . S
H1075 N1071 0.985 1_455 S
H1076 N1070 0.984 . S
H1077 N1070 0.984 . S
H1078 N1066 0.984 . S
H1079 N1066 0.985 . S
C1080 C1081 1.363 . S
C1080 C1086 1.379 . S
C1080 N1088 1.356 . S
C1081 C1080 1.363 . S
C1081 C1087 1.363 . S
C1082 C1083 1.363 . S
C1082 C1087 1.379 . S
C1082 N1089 1.356 . S
C1083 C1082 1.363 . S
C1083 C1086 1.363 . S
N1084 C1086 1.356 . S
N1084 H1096 0.984 . S
N1084 H1097 0.985 . S
N1085 C1087 1.356 . S
N1085 H1090 0.984 . S
N1085 H1091 0.985 . S
C1086 C1080 1.379 . S
C1086 C1083 1.363 . S
C1086 N1084 1.356 . S
C1087 C1081 1.363 . S
C1087 C1082 1.379 . S
C1087 N1085 1.356 . S
N1088 C1080 1.356 . S
N1088 H1094 0.984 . S
N1088 H1095 0.984 . S
N1089 C1082 1.356 . S
N1089 H1092 0.984 . S
N1089 H1093 0.985 . S
H1090 N1085 0.984 . S
H1091 N1085 0.985 . S
H1092 N1089 0.984 . S
H1093 N1089 0.985 . S
H1094 N1088 0.984 . S
H1095 N1088 0.984 . S
H1096 N1084 0.984 . S
H1097 N1084 0.985 . S
C1098 C1099 1.363 . S
C1098 C1104 1.400 . S
C1098 N1106 1.356 . S
C1099 C1098 1.363 . S
C1099 C1105 1.363 . S
C1100 C1101 1.363 . S
C1100 C1105 1.379 1_545 S
C1100 N1107 1.356 . S
C1101 C1100 1.363 . S
C1101 C1104 1.355 1_545 S
N1102 C1104 1.339 1_545 S
N1102 H1114 0.984 . S
N1102 H1115 0.985 . S
N1103 C1105 1.356 . S
N1103 H1108 0.984 . S
N1103 H1109 0.985 . S
C1104 C1098 1.400 . S
C1104 C1101 1.355 1_565 S
C1104 N1102 1.339 1_565 S
C1105 C1099 1.363 . S
C1105 C1100 1.379 1_565 S
C1105 N1103 1.356 . S
N1106 C1098 1.356 . S
N1106 H1112 0.984 . S
N1106 H1113 0.984 . S
N1107 C1100 1.356 . S
N1107 H1110 0.984 . S
N1107 H1111 0.985 . S
H1108 N1103 0.984 . S
H1109 N1103 0.985 . S
H1110 N1107 0.984 . S
H1111 N1107 0.985 . S
H1112 N1106 0.984 . S
H1113 N1106 0.984 . S
H1114 N1102 0.984 . S
H1115 N1102 0.985 . S
C1116 C1117 1.363 . S
C1116 C1122 1.379 . S
C1116 N1124 1.356 . S
C1117 C1116 1.363 . S
C1117 C1123 1.363 . S
C1118 C1119 1.363 . S
C1118 C1123 1.379 . S
C1118 N1125 1.356 . S
C1119 C1118 1.363 . S
C1119 C1122 1.363 . S
N1120 C1122 1.356 . S
N1120 H1132 0.984 . S
N1120 H1133 0.985 . S
N1121 C1123 1.356 . S
N1121 H1126 0.984 . S
N1121 H1127 0.985 . S
C1122 C1116 1.379 . S
C1122 C1119 1.363 . S
C1122 N1120 1.356 . S
C1123 C1117 1.363 . S
C1123 C1118 1.379 . S
C1123 N1121 1.356 . S
N1124 C1116 1.356 . S
N1124 H1130 0.984 . S
N1124 H1131 0.984 . S
N1125 C1118 1.356 . S
N1125 H1128 0.984 . S
N1125 H1129 0.985 . S
H1126 N1121 0.984 . S
H1127 N1121 0.985 . S
H1128 N1125 0.984 . S
H1129 N1125 0.985 . S
H1130 N1124 0.984 . S
H1131 N1124 0.984 . S
H1132 N1120 0.984 . S
H1133 N1120 0.985 . S
C1134 C1135 1.363 . S
C1134 C1140 1.379 . S
C1134 N1142 1.356 . S
C1135 C1134 1.363 . S
C1135 C1141 1.363 . S
C1136 C1137 1.363 . S
C1136 C1141 1.379 . S
C1136 N1143 1.356 . S
C1137 C1136 1.363 . S
C1137 C1140 1.363 . S
N1138 C1140 1.356 . S
N1138 H1150 0.984 . S
N1138 H1151 0.985 . S
N1139 C1141 1.356 . S
N1139 H1144 0.984 . S
N1139 H1145 0.985 . S
C1140 C1134 1.379 . S
C1140 C1137 1.363 . S
C1140 N1138 1.356 . S
C1141 C1135 1.363 . S
C1141 C1136 1.379 . S
C1141 N1139 1.356 . S
N1142 C1134 1.356 . S
N1142 H1148 0.984 . S
N1142 H1149 0.984 . S
N1143 C1136 1.356 . S
N1143 H1146 0.984 . S
N1143 H1147 0.985 . S
H1144 N1139 0.984 . S
H1145 N1139 0.985 . S
H1146 N1143 0.984 . S
H1147 N1143 0.985 . S
H1148 N1142 0.984 . S
H1149 N1142 0.984 . S
H1150 N1138 0.984 . S
H1151 N1138 0.985 . S
C1152 C1153 1.363 . S
C1152 C1158 1.379 . S
C1152 N1160 1.356 . S
C1153 C1152 1.363 . S
C1153 C1159 1.363 . S
C1154 C1155 1.363 . S
C1154 C1159 1.379 . S
C1154 N1161 1.356 . S
C1155 C1154 1.363 . S
C1155 C1158 1.363 . S
N1156 C1158 1.356 . S
N1156 H1168 0.984 . S
N1156 H1169 0.985 . S
N1157 C1159 1.356 . S
N1157 H1162 0.984 . S
N1157 H1163 0.985 . S
C1158 C1152 1.379 . S
C1158 C1155 1.363 . S
C1158 N1156 1.356 . S
C1159 C1153 1.363 . S
C1159 C1154 1.379 . S
C1159 N1157 1.356 . S
N1160 C1152 1.356 . S
N1160 H1166 0.984 . S
N1160 H1167 0.984 . S
N1161 C1154 1.356 . S
N1161 H1164 0.984 . S
N1161 H1165 0.985 . S
H1162 N1157 0.984 . S
H1163 N1157 0.985 . S
H1164 N1161 0.984 . S
H1165 N1161 0.985 . S
H1166 N1160 0.984 . S
H1167 N1160 0.984 . S
H1168 N1156 0.984 . S
H1169 N1156 0.985 . S
C1170 C1171 1.363 . S
C1170 C1176 1.379 . S
C1170 N1178 1.356 . S
C1171 C1170 1.363 . S
C1171 C1177 1.363 . S
C1172 C1173 1.363 1_545 S
C1172 C1177 1.379 1_545 S
C1172 N1179 1.356 . S
C1173 C1172 1.363 1_565 S
C1173 C1176 1.363 . S
N1174 C1176 1.356 . S
N1174 H1186 0.984 . S
N1174 H1187 0.985 . S
N1175 C1177 1.356 1_545 S
N1175 H1180 0.984 1_545 S
N1175 H1181 0.985 . S
C1176 C1170 1.379 . S
C1176 C1173 1.363 . S
C1176 N1174 1.356 . S
C1177 C1171 1.363 . S
C1177 C1172 1.379 1_565 S
C1177 N1175 1.356 1_565 S
N1178 C1170 1.356 . S
N1178 H1184 0.984 . S
N1178 H1185 0.984 . S
N1179 C1172 1.356 . S
N1179 H1182 0.984 . S
N1179 H1183 0.985 . S
H1180 N1175 0.984 1_565 S
H1181 N1175 0.985 . S
H1182 N1179 0.984 . S
H1183 N1179 0.985 . S
H1184 N1178 0.984 . S
H1185 N1178 0.984 . S
H1186 N1174 0.984 . S
H1187 N1174 0.985 . S
C1188 C1189 1.363 1_655 S
C1188 C1194 1.379 . S
C1188 N1196 1.356 . S
C1189 C1188 1.363 1_455 S
C1189 C1195 1.363 . S
C1190 C1191 1.363 . S
C1190 C1195 1.379 . S
C1190 N1197 1.356 . S
C1191 C1190 1.363 . S
C1191 C1194 1.363 1_455 S
N1192 C1194 1.356 . S
N1192 H1204 0.984 . S
N1192 H1205 0.985 . S
N1193 C1195 1.356 . S
N1193 H1198 0.984 . S
N1193 H1199 0.985 . S
C1194 C1188 1.379 . S
C1194 C1191 1.363 1_655 S
C1194 N1192 1.356 . S
C1195 C1189 1.363 . S
C1195 C1190 1.379 . S
C1195 N1193 1.356 . S
N1196 C1188 1.356 . S
N1196 H1202 0.984 . S
N1196 H1203 0.984 . S
N1197 C1190 1.356 . S
N1197 H1200 0.984 . S
N1197 H1201 0.985 . S
H1198 N1193 0.984 . S
H1199 N1193 0.985 . S
H1200 N1197 0.984 . S
H1201 N1197 0.985 . S
H1202 N1196 0.984 . S
H1203 N1196 0.984 . S
H1204 N1192 0.984 . S
H1205 N1192 0.985 . S
C1206 C1207 1.363 . S
C1206 C1212 1.379 . S
C1206 N1214 1.356 . S
C1207 C1206 1.363 . S
C1207 C1213 1.363 . S
C1208 C1209 1.363 . S
C1208 C1213 1.379 . S
C1208 N1215 1.356 . S
C1209 C1208 1.363 . S
C1209 C1212 1.363 . S
N1210 C1212 1.356 . S
N1210 H1222 0.984 . S
N1210 H1223 0.985 . S
N1211 C1213 1.356 . S
N1211 H1216 0.984 . S
N1211 H1217 0.985 . S
C1212 C1206 1.379 . S
C1212 C1209 1.363 . S
C1212 N1210 1.356 . S
C1213 C1207 1.363 . S
C1213 C1208 1.379 . S
C1213 N1211 1.356 . S
N1214 C1206 1.356 . S
N1214 H1220 0.984 . S
N1214 H1221 0.984 . S
N1215 C1208 1.356 . S
N1215 H1218 0.984 . S
N1215 H1219 0.985 . S
H1216 N1211 0.984 . S
H1217 N1211 0.985 . S
H1218 N1215 0.984 . S
H1219 N1215 0.985 . S
H1220 N1214 0.984 . S
H1221 N1214 0.984 . S
H1222 N1210 0.984 . S
H1223 N1210 0.985 . S
C1224 C1225 1.363 . S
C1224 C1230 1.379 . S
C1224 N1232 1.356 . S
C1225 C1224 1.363 . S
C1225 C1231 1.363 . S
C1226 C1227 1.363 . S
C1226 C1231 1.379 . S
C1226 N1233 1.356 1_655 S
C1227 C1226 1.363 . S
C1227 C1230 1.363 . S
N1228 C1230 1.356 . S
N1228 H1240 0.984 . S
N1228 H1241 0.985 . S
N1229 C1231 1.356 1_455 S
N1229 H1234 0.984 . S
N1229 H1235 0.985 . S
C1230 C1224 1.379 . S
C1230 C1227 1.363 . S
C1230 N1228 1.356 . S
C1231 C1225 1.363 . S
C1231 C1226 1.379 . S
C1231 N1229 1.356 1_655 S
N1232 C1224 1.356 . S
N1232 H1238 0.984 . S
N1232 H1239 0.984 . S
N1233 C1226 1.356 1_455 S
N1233 H1236 0.984 . S
N1233 H1237 0.985 . S
H1234 N1229 0.984 . S
H1235 N1229 0.985 . S
H1236 N1233 0.984 . S
H1237 N1233 0.985 . S
H1238 N1232 0.984 . S
H1239 N1232 0.984 . S
H1240 N1228 0.984 . S
H1241 N1228 0.985 . S
C1242 C1243 1.363 . S
C1242 C1248 1.379 . S
C1242 N1250 1.356 . S
C1243 C1242 1.363 . S
C1243 C1249 1.363 . S
C1244 C1245 1.363 . S
C1244 C1249 1.379 . S
C1244 N1251 1.356 . S
C1245 C1244 1.363 . S
C1245 C1248 1.363 . S
N1246 C1248 1.356 . S
N1246 H1258 0.984 . S
N1246 H1259 0.985 . S
N1247 C1249 1.356 . S
N1247 H1252 0.984 . S
N1247 H1253 0.985 . S
C1248 C1242 1.379 . S
C1248 C1245 1.363 . S
C1248 N1246 1.356 . S
C1249 C1243 1.363 . S
C1249 C1244 1.379 . S
C1249 N1247 1.356 . S
N1250 C1242 1.356 . S
N1250 H1256 0.984 . S
N1250 H1257 0.984 . S
N1251 C1244 1.356 . S
N1251 H1254 0.984 . S
N1251 H1255 0.985 . S
H1252 N1247 0.984 . S
H1253 N1247 0.985 . S
H1254 N1251 0.984 . S
H1255 N1251 0.985 . S
H1256 N1250 0.984 . S
H1257 N1250 0.984 . S
H1258 N1246 0.984 . S
H1259 N1246 0.985 . S
C1260 C1261 1.363 . S
C1260 C1266 1.379 . S
C1260 N1268 1.356 . S
C1261 C1260 1.363 . S
C1261 C1267 1.363 1_545 S
C1262 C1263 1.363 1_565 S
C1262 C1267 1.379 . S
C1262 N1269 1.356 . S
C1263 C1262 1.363 1_545 S
C1263 C1266 1.363 . S
N1264 C1266 1.356 . S
N1264 H1276 0.984 . S
N1264 H1277 0.985 . S
N1265 C1267 1.356 . S
N1265 H1270 0.984 . S
N1265 H1271 0.985 . S
C1266 C1260 1.379 . S
C1266 C1263 1.363 . S
C1266 N1264 1.356 . S
C1267 C1261 1.363 1_565 S
C1267 C1262 1.379 . S
C1267 N1265 1.356 . S
N1268 C1260 1.356 . S
N1268 H1274 0.984 . S
N1268 H1275 0.984 . S
N1269 C1262 1.356 . S
N1269 H1272 0.984 . S
N1269 H1273 0.985 . S
H1270 N1265 0.984 . S
H1271 N1265 0.985 . S
H1272 N1269 0.984 . S
H1273 N1269 0.985 . S
H1274 N1268 0.984 . S
H1275 N1268 0.984 . S
H1276 N1264 0.984 . S
H1277 N1264 0.985 . S
C1278 C1279 1.363 . S
C1278 C1284 1.379 . S
C1278 N1286 1.356 . S
C1279 C1278 1.363 . S
C1279 C1285 1.363 . S
C1280 C1281 1.363 . S
C1280 C1285 1.379 . S
C1280 N1287 1.356 . S
C1281 C1280 1.363 . S
C1281 C1284 1.363 . S
N1282 C1284 1.356 . S
N1282 H1294 0.984 . S
N1282 H1295 0.985 . S
N1283 C1285 1.356 . S
N1283 H1288 0.984 . S
N1283 H1289 0.985 . S
C1284 C1278 1.379 . S
C1284 C1281 1.363 . S
C1284 N1282 1.356 . S
C1285 C1279 1.363 . S
C1285 C1280 1.379 . S
C1285 N1283 1.356 . S
N1286 C1278 1.356 . S
N1286 H1292 0.984 . S
N1286 H1293 0.984 . S
N1287 C1280 1.356 . S
N1287 H1290 0.984 . S
N1287 H1291 0.985 . S
H1288 N1283 0.984 . S
H1289 N1283 0.985 . S
H1290 N1287 0.984 . S
H1291 N1287 0.985 . S
H1292 N1286 0.984 . S
H1293 N1286 0.984 . S
H1294 N1282 0.984 . S
H1295 N1282 0.985 . S
C1296 C1297 1.363 . S
C1296 C1302 1.379 . S
C1296 N1304 1.356 . S
C1297 C1296 1.363 . S
C1297 C1303 1.363 . S
C1298 C1299 1.363 . S
C1298 C1303 1.379 . S
C1298 N1305 1.356 . S
C1299 C1298 1.363 . S
C1299 C1302 1.363 . S
N1300 C1302 1.356 . S
N1300 H1312 0.984 . S
N1300 H1313 0.985 . S
N1301 C1303 1.356 . S
N1301 H1306 0.984 . S
N1301 H1307 0.985 . S
C1302 C1296 1.379 . S
C1302 C1299 1.363 . S
C1302 N1300 1.356 . S
C1303 C1297 1.363 . S
C1303 C1298 1.379 . S
C1303 N1301 1.356 . S
N1304 C1296 1.356 . S
N1304 H1310 0.984 . S
N1304 H1311 0.984 . S
N1305 C1298 1.356 . S
N1305 H1308 0.984 . S
N1305 H1309 0.985 . S
H1306 N1301 0.984 . S
H1307 N1301 0.985 . S
H1308 N1305 0.984 . S
H1309 N1305 0.985 . S
H1310 N1304 0.984 . S
H1311 N1304 0.984 . S
H1312 N1300 0.984 . S
H1313 N1300 0.985 . S
C1314 C1315 1.363 . S
C1314 C1320 1.379 . S
C1314 N1322 1.356 . S
C1315 C1314 1.363 . S
C1315 C1321 1.363 . S
C1316 C1317 1.363 . S
C1316 C1321 1.379 . S
C1316 N1323 1.356 . S
C1317 C1316 1.363 . S
C1317 C1320 1.363 . S
N1318 C1320 1.356 . S
N1318 H1330 0.984 . S
N1318 H1331 0.985 . S
N1319 C1321 1.356 . S
N1319 H1324 0.984 . S
N1319 H1325 0.985 . S
C1320 C1314 1.379 . S
C1320 C1317 1.363 . S
C1320 N1318 1.356 . S
C1321 C1315 1.363 . S
C1321 C1316 1.379 . S
C1321 N1319 1.356 . S
N1322 C1314 1.356 . S
N1322 H1328 0.984 . S
N1322 H1329 0.984 . S
N1323 C1316 1.356 . S
N1323 H1326 0.984 . S
N1323 H1327 0.985 . S
H1324 N1319 0.984 . S
H1325 N1319 0.985 . S
H1326 N1323 0.984 . S
H1327 N1323 0.985 . S
H1328 N1322 0.984 . S
H1329 N1322 0.984 . S
H1330 N1318 0.984 . S
H1331 N1318 0.985 . S
C1332 C1333 1.363 . S
C1332 C1338 1.379 . S
C1332 N1340 1.356 . S
C1333 C1332 1.363 . S
C1333 C1339 1.363 . S
C1334 C1335 1.363 . S
C1334 C1339 1.379 . S
C1334 N1341 1.356 . S
C1335 C1334 1.363 . S
C1335 C1338 1.363 . S
N1336 C1338 1.356 . S
N1336 H1348 0.984 . S
N1336 H1349 0.985 . S
N1337 C1339 1.356 . S
N1337 H1342 0.984 . S
N1337 H1343 0.985 . S
C1338 C1332 1.379 . S
C1338 C1335 1.363 . S
C1338 N1336 1.356 . S
C1339 C1333 1.363 . S
C1339 C1334 1.379 . S
C1339 N1337 1.356 . S
N1340 C1332 1.356 . S
N1340 H1346 0.984 . S
N1340 H1347 0.984 . S
N1341 C1334 1.356 . S
N1341 H1344 0.984 . S
N1341 H1345 0.985 . S
H1342 N1337 0.984 . S
H1343 N1337 0.985 . S
H1344 N1341 0.984 . S
H1345 N1341 0.985 . S
H1346 N1340 0.984 . S
H1347 N1340 0.984 . S
H1348 N1336 0.984 . S
H1349 N1336 0.985 . S
C1350 C1351 1.363 . S
C1350 C1356 1.379 . S
C1350 N1358 1.356 . S
C1351 C1350 1.363 . S
C1351 C1357 1.363 . S
C1352 C1353 1.363 . S
C1352 C1357 1.379 . S
C1352 N1359 1.356 . S
C1353 C1352 1.363 . S
C1353 C1356 1.363 . S
N1354 C1356 1.356 . S
N1354 H1366 0.984 . S
N1354 H1367 0.985 . S
N1355 C1357 1.356 . S
N1355 H1360 0.984 . S
N1355 H1361 0.985 . S
C1356 C1350 1.379 . S
C1356 C1353 1.363 . S
C1356 N1354 1.356 . S
C1357 C1351 1.363 . S
C1357 C1352 1.379 . S
C1357 N1355 1.356 . S
N1358 C1350 1.356 . S
N1358 H1364 0.984 . S
N1358 H1365 0.984 . S
N1359 C1352 1.356 . S
N1359 H1362 0.984 . S
N1359 H1363 0.985 . S
H1360 N1355 0.984 . S
H1361 N1355 0.985 . S
H1362 N1359 0.984 . S
H1363 N1359 0.985 . S
H1364 N1358 0.984 . S
H1365 N1358 0.984 . S
H1366 N1354 0.984 . S
H1367 N1354 0.985 . S
C1368 C1369 1.363 . S
C1368 C1374 1.379 . S
C1368 N1376 1.356 . S
C1369 C1368 1.363 . S
C1369 C1375 1.363 . S
C1370 C1371 1.363 . S
C1370 C1375 1.379 . S
C1370 N1377 1.356 . S
C1371 C1370 1.363 . S
C1371 C1374 1.363 . S
N1372 C1374 1.356 . S
N1372 H1384 0.984 . S
N1372 H1385 0.985 . S
N1373 C1375 1.356 . S
N1373 H1378 0.984 . S
N1373 H1379 0.985 . S
C1374 C1368 1.379 . S
C1374 C1371 1.363 . S
C1374 N1372 1.356 . S
C1375 C1369 1.363 . S
C1375 C1370 1.379 . S
C1375 N1373 1.356 . S
N1376 C1368 1.356 . S
N1376 H1382 0.984 . S
N1376 H1383 0.984 . S
N1377 C1370 1.356 . S
N1377 H1380 0.984 . S
N1377 H1381 0.985 . S
H1378 N1373 0.984 . S
H1379 N1373 0.985 . S
H1380 N1377 0.984 . S
H1381 N1377 0.985 . S
H1382 N1376 0.984 . S
H1383 N1376 0.984 . S
H1384 N1372 0.984 . S
H1385 N1372 0.985 . S
C1386 C1387 1.363 . S
C1386 C1392 1.379 . S
C1386 N1394 1.356 . S
C1387 C1386 1.363 . S
C1387 C1393 1.363 . S
C1388 C1389 1.363 . S
C1388 C1393 1.379 . S
C1388 N1395 1.356 . S
C1389 C1388 1.363 . S
C1389 C1392 1.363 . S
N1390 C1392 1.356 . S
N1390 H1402 0.984 . S
N1390 H1403 0.985 . S
N1391 C1393 1.356 . S
N1391 H1396 0.984 . S
N1391 H1397 0.985 . S
C1392 C1386 1.379 . S
C1392 C1389 1.363 . S
C1392 N1390 1.356 . S
C1393 C1387 1.363 . S
C1393 C1388 1.379 . S
C1393 N1391 1.356 . S
N1394 C1386 1.356 . S
N1394 H1400 0.984 . S
N1394 H1401 0.984 . S
N1395 C1388 1.356 . S
N1395 H1398 0.984 . S
N1395 H1399 0.985 . S
H1396 N1391 0.984 . S
H1397 N1391 0.985 . S
H1398 N1395 0.984 . S
H1399 N1395 0.985 . S
H1400 N1394 0.984 . S
H1401 N1394 0.984 . S
H1402 N1390 0.984 . S
H1403 N1390 0.985 . S
C1404 C1405 1.363 . S
C1404 C1410 1.379 . S
C1404 N1412 1.356 . S
C1405 C1404 1.363 . S
C1405 C1411 1.363 . S
C1406 C1407 1.363 . S
C1406 C1411 1.379 . S
C1406 N1413 1.356 . S
C1407 C1406 1.363 . S
C1407 C1410 1.363 . S
N1408 C1410 1.356 . S
N1408 H1420 0.984 . S
N1408 H1421 0.985 . S
N1409 C1411 1.356 . S
N1409 H1414 0.984 . S
N1409 H1415 0.985 . S
C1410 C1404 1.379 . S
C1410 C1407 1.363 . S
C1410 N1408 1.356 . S
C1411 C1405 1.363 . S
C1411 C1406 1.379 . S
C1411 N1409 1.356 . S
N1412 C1404 1.356 . S
N1412 H1418 0.984 . S
N1412 H1419 0.984 . S
N1413 C1406 1.356 . S
N1413 H1416 0.984 . S
N1413 H1417 0.985 . S
H1414 N1409 0.984 . S
H1415 N1409 0.985 . S
H1416 N1413 0.984 . S
H1417 N1413 0.985 . S
H1418 N1412 0.984 . S
H1419 N1412 0.984 . S
H1420 N1408 0.984 . S
H1421 N1408 0.985 . S
C1422 C1423 1.363 . S
C1422 C1428 1.379 . S
C1422 N1430 1.356 . S
C1423 C1422 1.363 . S
C1423 C1429 1.363 . S
C1424 C1425 1.363 . S
C1424 C1429 1.379 . S
C1424 N1431 1.356 . S
C1425 C1424 1.363 . S
C1425 C1428 1.363 . S
N1426 C1428 1.356 . S
N1426 H1438 0.984 . S
N1426 H1439 0.985 . S
N1427 C1429 1.356 . S
N1427 H1432 0.984 . S
N1427 H1433 0.985 . S
C1428 C1422 1.379 . S
C1428 C1425 1.363 . S
C1428 N1426 1.356 . S
C1429 C1423 1.363 . S
C1429 C1424 1.379 . S
C1429 N1427 1.356 . S
N1430 C1422 1.356 . S
N1430 H1436 0.984 . S
N1430 H1437 0.984 . S
N1431 C1424 1.356 . S
N1431 H1434 0.984 . S
N1431 H1435 0.985 . S
H1432 N1427 0.984 . S
H1433 N1427 0.985 . S
H1434 N1431 0.984 . S
H1435 N1431 0.985 . S
H1436 N1430 0.984 . S
H1437 N1430 0.984 . S
H1438 N1426 0.984 . S
H1439 N1426 0.985 . S
C1440 C1441 1.363 . S
C1440 C1446 1.379 . S
C1440 N1448 1.356 . S
C1441 C1440 1.363 . S
C1441 C1447 1.363 . S
C1442 C1443 1.363 . S
C1442 C1447 1.379 . S
C1442 N1449 1.356 . S
C1443 C1442 1.363 . S
C1443 C1446 1.363 . S
N1444 C1446 1.356 . S
N1444 H1456 0.984 . S
N1444 H1457 0.985 . S
N1445 C1447 1.356 . S
N1445 H1450 0.984 . S
N1445 H1451 0.985 . S
C1446 C1440 1.379 . S
C1446 C1443 1.363 . S
C1446 N1444 1.356 . S
C1447 C1441 1.363 . S
C1447 C1442 1.379 . S
C1447 N1445 1.356 . S
N1448 C1440 1.356 . S
N1448 H1454 0.984 . S
N1448 H1455 0.984 . S
N1449 C1442 1.356 . S
N1449 H1452 0.984 . S
N1449 H1453 0.985 . S
H1450 N1445 0.984 . S
H1451 N1445 0.985 . S
H1452 N1449 0.984 . S
H1453 N1449 0.985 . S
H1454 N1448 0.984 . S
H1455 N1448 0.984 . S
H1456 N1444 0.984 . S
H1457 N1444 0.985 . S
C1458 C1459 1.363 . S
C1458 C1464 1.379 . S
C1458 N1466 1.356 . S
C1459 C1458 1.363 . S
C1459 C1465 1.363 . S
C1460 C1461 1.363 . S
C1460 C1465 1.379 . S
C1460 N1467 1.356 . S
C1461 C1460 1.363 . S
C1461 C1464 1.363 . S
N1462 C1464 1.356 . S
N1462 H1474 0.984 . S
N1462 H1475 0.985 . S
N1463 C1465 1.356 . S
N1463 H1468 0.984 . S
N1463 H1469 0.985 . S
C1464 C1458 1.379 . S
C1464 C1461 1.363 . S
C1464 N1462 1.356 . S
C1465 C1459 1.363 . S
C1465 C1460 1.379 . S
C1465 N1463 1.356 . S
N1466 C1458 1.356 . S
N1466 H1472 0.984 . S
N1466 H1473 0.984 . S
N1467 C1460 1.356 . S
N1467 H1470 0.984 . S
N1467 H1471 0.985 . S
H1468 N1463 0.984 . S
H1469 N1463 0.985 . S
H1470 N1467 0.984 . S
H1471 N1467 0.985 . S
H1472 N1466 0.984 . S
H1473 N1466 0.984 . S
H1474 N1462 0.984 . S
H1475 N1462 0.985 . S
C1476 C1477 1.363 . S
C1476 C1482 1.379 . S
C1476 N1484 1.356 . S
C1477 C1476 1.363 . S
C1477 C1483 1.363 . S
C1478 C1479 1.363 . S
C1478 C1483 1.379 . S
C1478 N1485 1.356 . S
C1479 C1478 1.363 . S
C1479 C1482 1.363 . S
N1480 C1482 1.356 . S
N1480 H1492 0.984 . S
N1480 H1493 0.985 . S
N1481 C1483 1.356 . S
N1481 H1486 0.984 . S
N1481 H1487 0.985 . S
C1482 C1476 1.379 . S
C1482 C1479 1.363 . S
C1482 N1480 1.356 . S
C1483 C1477 1.363 . S
C1483 C1478 1.379 . S
C1483 N1481 1.356 . S
N1484 C1476 1.356 . S
N1484 H1490 0.984 . S
N1484 H1491 0.984 . S
N1485 C1478 1.356 . S
N1485 H1488 0.984 . S
N1485 H1489 0.985 . S
H1486 N1481 0.984 . S
H1487 N1481 0.985 . S
H1488 N1485 0.984 . S
H1489 N1485 0.985 . S
H1490 N1484 0.984 . S
H1491 N1484 0.984 . S
H1492 N1480 0.984 . S
H1493 N1480 0.985 . S
C523 C124 1.563 . S
C525 C171 1.545 . S
C541 C130 1.670 . S
C543 C211 1.651 . S
C559 C115 1.565 . S
C561 C250 1.573 . S
C577 C106 1.495 . S
C579 C210 1.490 . S
C597 C251 1.459 . S
C595 C85 1.470 . S
C613 C97 1.381 . S
C615 C170 1.404 . S
C633 C181 1.564 . S
C631 C103 1.580 . S
C651 C221 1.634 . S
C649 C88 1.649 . S
C667 C94 1.565 . S
C669 C260 1.571 . S
C685 C121 1.494 . S
C687 C220 1.487 . S
C703 C133 1.449 . S
C705 C261 1.439 . S
C723 C180 1.422 . S
C721 C112 1.398 . S
C741 C291 1.545 . S
C739 C16 1.563 . S
C757 C22 1.670 . S
C759 C331 1.651 . S
C775 C7 1.565 . S
C777 C370 1.573 . S
C793 C160 1.496 . S
C795 C330 1.491 . S
C811 C139 1.470 . S
C813 C371 1.459 . S
C829 C151 1.381 . S
C831 C290 1.404 . S
C847 C157 1.580 . S
C849 C301 1.564 . S
C865 C142 1.649 . S
C867 C341 1.634 . S
C885 C380 1.570 . S
C883 C148 1.565 . S
C901 C13 1.494 . S
C903 C340 1.487 . S
C921 C381 1.439 . S
C919 C25 1.449 . S
C937 C4 1.397 . S
C939 C300 1.422 . S
C957 C411 1.545 . S
C955 C70 1.563 . S
C973 C76 1.670 . S
C975 C451 1.651 . S
C993 C490 1.573 . S
C991 C61 1.565 . S
C1011 C450 1.490 . S
C1009 C52 1.495 . S
C1029 C491 1.459 . S
C1027 C31 1.469 . S
C1045 C43 1.381 . S
C1047 C410 1.404 . S
C1063 C49 1.580 . S
C1065 C421 1.563 . S
C1081 C34 1.649 . S
C1083 C461 1.634 . S
C1101 C500 1.571 . S
C1099 C40 1.565 . S
C1117 C67 1.495 . S
C1119 C460 1.488 . S
C1135 C79 1.449 . S
C1137 C501 1.439 . S
C1153 C58 1.397 . S
C1155 C420 1.422 . S
C1171 C140 1.502 . S
C1173 C167 1.485 . S
C1191 C207 1.690 . S
C1189 C149 1.690 . S
C1207 C158 1.548 . S
C1209 C257 1.547 . S
C1225 C59 1.707 . S
C1227 C217 1.705 . S
C1243 C68 1.533 . S
C1245 C247 1.532 . S
C1263 C177 1.479 . S
C1261 C77 1.502 . S
C1279 C32 1.502 . S
C1281 C287 1.478 . S
C1297 C41 1.690 . S
C1299 C327 1.690 . S
C1315 C50 1.548 . S
C1317 C377 1.547 . S
C1333 C113 1.707 . S
C1335 C337 1.705 . S
C1353 C367 1.532 . S
C1351 C122 1.533 . S
C1369 C131 1.502 . S
C1371 C297 1.479 . S
C1387 C86 1.502 . S
C1389 C407 1.478 . S
C1405 C95 1.690 . S
C1407 C447 1.690 . S
C1425 C497 1.547 . S
C1423 C104 1.548 . S
C1441 C5 1.707 . S
C1443 C457 1.705 . S
C1459 C14 1.533 . S
C1461 C487 1.532 . S
C1477 C23 1.502 . S
C1479 C417 1.479 . S
