# Generated by pormake.
# Topology eea, (3,6)-cn, num edge types: 1
# Building blocks:
#     Node 0, Type 0, BuildingBlock: BETDIP_clean_linker_0, # of connection points: 3
#     Node 1, Type 0, BuildingBlock: BETDIP_clean_linker_0, # of connection points: 3
#     Node 2, Type 0, BuildingBlock: BETDIP_clean_linker_0, # of connection points: 3
#     Node 3, Type 0, BuildingBlock: BETDIP_clean_linker_0, # of connection points: 3
#     Node 4, Type 0, BuildingBlock: BETDIP_clean_linker_0, # of connection points: 3
#     Node 5, Type 0, BuildingBlock: BETDIP_clean_linker_0, # of connection points: 3
#     Node 6, Type 0, BuildingBlock: BETDIP_clean_linker_0, # of connection points: 3
#     Node 7, Type 0, BuildingBlock: BETDIP_clean_linker_0, # of connection points: 3
#     Node 8, Type 0, BuildingBlock: BETDIP_clean_linker_0, # of connection points: 3
#     Node 9, Type 0, BuildingBlock: BETDIP_clean_linker_0, # of connection points: 3
#     Node 10, Type 0, BuildingBlock: BETDIP_clean_linker_0, # of connection points: 3
#     Node 11, Type 0, BuildingBlock: BETDIP_clean_linker_0, # of connection points: 3
#     Node 12, Type 0, BuildingBlock: BETDIP_clean_linker_0, # of connection points: 3
#     Node 13, Type 0, BuildingBlock: BETDIP_clean_linker_0, # of connection points: 3
#     Node 14, Type 0, BuildingBlock: BETDIP_clean_linker_0, # of connection points: 3
#     Node 15, Type 0, BuildingBlock: BETDIP_clean_linker_0, # of connection points: 3
#     Node 16, Type 0, BuildingBlock: BETDIP_clean_linker_0, # of connection points: 3
#     Node 17, Type 0, BuildingBlock: BETDIP_clean_linker_0, # of connection points: 3
#     Node 18, Type 1, BuildingBlock: KUMJIN_clean_sbu_0, # of connection points: 6
#     Node 19, Type 1, BuildingBlock: KUMJIN_clean_sbu_0, # of connection points: 6
#     Node 20, Type 1, BuildingBlock: KUMJIN_clean_sbu_0, # of connection points: 6
#     Node 21, Type 1, BuildingBlock: KUMJIN_clean_sbu_0, # of connection points: 6
#     Node 22, Type 1, BuildingBlock: KUMJIN_clean_sbu_0, # of connection points: 6
#     Node 23, Type 1, BuildingBlock: KUMJIN_clean_sbu_0, # of connection points: 6
#     Node 24, Type 1, BuildingBlock: KUMJIN_clean_sbu_0, # of connection points: 6
#     Node 25, Type 1, BuildingBlock: KUMJIN_clean_sbu_0, # of connection points: 6
#     Node 26, Type 1, BuildingBlock: KUMJIN_clean_sbu_0, # of connection points: 6
#     Edge 27, Type (0, 1), BuildingBlock: OJICUG_clean_linker_0, # of connection points: 2
#     Edge 28, Type (0, 1), BuildingBlock: OJICUG_clean_linker_0, # of connection points: 2
#     Edge 29, Type (0, 1), BuildingBlock: OJICUG_clean_linker_0, # of connection points: 2
#     Edge 30, Type (0, 1), BuildingBlock: OJICUG_clean_linker_0, # of connection points: 2
#     Edge 31, Type (0, 1), BuildingBlock: OJICUG_clean_linker_0, # of connection points: 2
#     Edge 32, Type (0, 1), BuildingBlock: OJICUG_clean_linker_0, # of connection points: 2
#     Edge 33, Type (0, 1), BuildingBlock: OJICUG_clean_linker_0, # of connection points: 2
#     Edge 34, Type (0, 1), BuildingBlock: OJICUG_clean_linker_0, # of connection points: 2
#     Edge 35, Type (0, 1), BuildingBlock: OJICUG_clean_linker_0, # of connection points: 2
#     Edge 36, Type (0, 1), BuildingBlock: OJICUG_clean_linker_0, # of connection points: 2
#     Edge 37, Type (0, 1), BuildingBlock: OJICUG_clean_linker_0, # of connection points: 2
#     Edge 38, Type (0, 1), BuildingBlock: OJICUG_clean_linker_0, # of connection points: 2
#     Edge 39, Type (0, 1), BuildingBlock: OJICUG_clean_linker_0, # of connection points: 2
#     Edge 40, Type (0, 1), BuildingBlock: OJICUG_clean_linker_0, # of connection points: 2
#     Edge 41, Type (0, 1), BuildingBlock: OJICUG_clean_linker_0, # of connection points: 2
#     Edge 42, Type (0, 1), BuildingBlock: OJICUG_clean_linker_0, # of connection points: 2
#     Edge 43, Type (0, 1), BuildingBlock: OJICUG_clean_linker_0, # of connection points: 2
#     Edge 44, Type (0, 1), BuildingBlock: OJICUG_clean_linker_0, # of connection points: 2
#     Edge 45, Type (0, 1), BuildingBlock: OJICUG_clean_linker_0, # of connection points: 2
#     Edge 46, Type (0, 1), BuildingBlock: OJICUG_clean_linker_0, # of connection points: 2
#     Edge 47, Type (0, 1), BuildingBlock: OJICUG_clean_linker_0, # of connection points: 2
#     Edge 48, Type (0, 1), BuildingBlock: OJICUG_clean_linker_0, # of connection points: 2
#     Edge 49, Type (0, 1), BuildingBlock: OJICUG_clean_linker_0, # of connection points: 2
#     Edge 50, Type (0, 1), BuildingBlock: OJICUG_clean_linker_0, # of connection points: 2
#     Edge 51, Type (0, 1), BuildingBlock: OJICUG_clean_linker_0, # of connection points: 2
#     Edge 52, Type (0, 1), BuildingBlock: OJICUG_clean_linker_0, # of connection points: 2
#     Edge 53, Type (0, 1), BuildingBlock: OJICUG_clean_linker_0, # of connection points: 2
#     Edge 54, Type (0, 1), BuildingBlock: OJICUG_clean_linker_0, # of connection points: 2
#     Edge 55, Type (0, 1), BuildingBlock: OJICUG_clean_linker_0, # of connection points: 2
#     Edge 56, Type (0, 1), BuildingBlock: OJICUG_clean_linker_0, # of connection points: 2
#     Edge 57, Type (0, 1), BuildingBlock: OJICUG_clean_linker_0, # of connection points: 2
#     Edge 58, Type (0, 1), BuildingBlock: OJICUG_clean_linker_0, # of connection points: 2
#     Edge 59, Type (0, 1), BuildingBlock: OJICUG_clean_linker_0, # of connection points: 2
#     Edge 60, Type (0, 1), BuildingBlock: OJICUG_clean_linker_0, # of connection points: 2
#     Edge 61, Type (0, 1), BuildingBlock: OJICUG_clean_linker_0, # of connection points: 2
#     Edge 62, Type (0, 1), BuildingBlock: OJICUG_clean_linker_0, # of connection points: 2
#     Edge 63, Type (0, 1), BuildingBlock: OJICUG_clean_linker_0, # of connection points: 2
#     Edge 64, Type (0, 1), BuildingBlock: OJICUG_clean_linker_0, # of connection points: 2
#     Edge 65, Type (0, 1), BuildingBlock: OJICUG_clean_linker_0, # of connection points: 2
#     Edge 66, Type (0, 1), BuildingBlock: OJICUG_clean_linker_0, # of connection points: 2
#     Edge 67, Type (0, 1), BuildingBlock: OJICUG_clean_linker_0, # of connection points: 2
#     Edge 68, Type (0, 1), BuildingBlock: OJICUG_clean_linker_0, # of connection points: 2
#     Edge 69, Type (0, 1), BuildingBlock: OJICUG_clean_linker_0, # of connection points: 2
#     Edge 70, Type (0, 1), BuildingBlock: OJICUG_clean_linker_0, # of connection points: 2
#     Edge 71, Type (0, 1), BuildingBlock: OJICUG_clean_linker_0, # of connection points: 2
#     Edge 72, Type (0, 1), BuildingBlock: OJICUG_clean_linker_0, # of connection points: 2
#     Edge 73, Type (0, 1), BuildingBlock: OJICUG_clean_linker_0, # of connection points: 2
#     Edge 74, Type (0, 1), BuildingBlock: OJICUG_clean_linker_0, # of connection points: 2
#     Edge 75, Type (0, 1), BuildingBlock: OJICUG_clean_linker_0, # of connection points: 2
#     Edge 76, Type (0, 1), BuildingBlock: OJICUG_clean_linker_0, # of connection points: 2
#     Edge 77, Type (0, 1), BuildingBlock: OJICUG_clean_linker_0, # of connection points: 2
#     Edge 78, Type (0, 1), BuildingBlock: OJICUG_clean_linker_0, # of connection points: 2
#     Edge 79, Type (0, 1), BuildingBlock: OJICUG_clean_linker_0, # of connection points: 2
#     Edge 80, Type (0, 1), BuildingBlock: OJICUG_clean_linker_0, # of connection points: 2
# Relax obj value: 0.026
# Max RMSD: 0.187
# Mean RMSD: 0.132
data_MOF--net-eea--node1-KUMJIN_clean_sbu_0--node2-BETDIP_clean_linker_0--edge1-OJICUG_clean_linker_0
_symmetry_space_group_name_H-M    P1
_symmetry_Int_Tables_number       1
_symmetry_cell_setting            triclinic
loop_
_symmetry_equiv_pos_as_xyz
'x, y, z'
_cell_length_a     38.683139
_cell_length_b     40.262512
_cell_length_c     52.169524
_cell_angle_alpha  89.417689
_cell_angle_beta   89.597667
_cell_angle_gamma 120.0498
loop_
_atom_site_label
_atom_site_type_symbol
_atom_site_fract_x
_atom_site_fract_y
_atom_site_fract_z
_atom_type_partial_charge
H0 H 0.21943 0.08714 0.37988 0.0
H1 H 0.28734 0.17065 0.43696 0.0
H2 H 0.29185 0.06699 0.4333 0.0
H3 H 0.24561 0.19068 0.4308 0.0
C4 C 0.23604 0.18535 0.41104 0.0
C5 C 0.23991 0.09624 0.39577 0.0
C6 C 0.25428 0.07246 0.40504 0.0
C7 C 0.25088 0.13142 0.40735 0.0
C8 C 0.27747 0.1433 0.42805 0.0
C9 C 0.29135 0.11963 0.43779 0.0
C10 C 0.27994 0.08454 0.42613 0.0
N11 N 0.2349 0.15415 0.39771 0.0
H12 H 0.95161 0.13802 0.37118 0.0
H13 H 0.86611 0.09832 0.4336 0.0
H14 H 0.96161 0.21509 0.43125 0.0
H15 H 0.86447 0.04243 0.42549 0.0
C16 C 0.86149 0.04207 0.40478 0.0
C17 C 0.94098 0.14339 0.38907 0.0
C18 C 0.96086 0.18042 0.39964 0.0
C19 C 0.90702 0.11331 0.40141 0.0
C20 C 0.89278 0.12083 0.42427 0.0
C21 C 0.91234 0.1573 0.43525 0.0
C22 C 0.94645 0.18681 0.42289 0.0
N23 N 0.88649 0.07618 0.39019 0.0
H24 H 0.88547 0.80583 0.36522 0.0
H25 H 0.93339 0.77447 0.4292 0.0
H26 H 0.81566 0.76042 0.43467 0.0
H27 H 0.99249 0.84927 0.40217 0.0
C28 C 0.98792 0.82665 0.38906 0.0
C29 C 0.88251 0.79542 0.38481 0.0
C30 C 0.84706 0.78448 0.3989 0.0
C31 C 0.91394 0.79226 0.39584 0.0
C32 C 0.90955 0.7777 0.42101 0.0
C33 C 0.87405 0.76588 0.43521 0.0
C34 C 0.84328 0.76982 0.42402 0.0
N35 N 0.94843 0.80051 0.38091 0.0
H36 H 0.0959 0.20802 0.66625 0.0
H37 H 0.17658 0.24032 0.60162 0.0
H38 H 0.07684 0.25957 0.59907 0.0
H39 H 0.1578 0.16611 0.62408 0.0
C40 C 0.17631 0.18714 0.63815 0.0
C41 C 0.10439 0.2197 0.64695 0.0
C42 C 0.08152 0.2327 0.63382 0.0
C43 C 0.13852 0.2221 0.63521 0.0
C44 C 0.14992 0.23794 0.61037 0.0
C45 C 0.12812 0.25196 0.59722 0.0
C46 C 0.09378 0.24876 0.60902 0.0
N47 N 0.16303 0.21121 0.64898 0.0
H48 H 0.79879 0.884 0.65579 0.0
H49 H 0.73881 0.90643 0.595 0.0
H50 H 0.73991 0.80045 0.59674 0.0
H51 H 0.8316 0.94939 0.65945 0.0
C52 C 0.81257 0.95966 0.65181 0.0
C53 C 0.78218 0.8753 0.63818 0.0
C54 C 0.77071 0.83887 0.62796 0.0
C55 C 0.77068 0.89968 0.62602 0.0
C56 C 0.74732 0.88733 0.60415 0.0
C57 C 0.73597 0.8516 0.59352 0.0
C58 C 0.74824 0.82782 0.60528 0.0
N59 N 0.78102 0.93662 0.63507 0.0
H60 H 0.13216 0.91696 0.65291 0.0
H61 H 0.1141 0.83595 0.59424 0.0
H62 H 0.21739 0.94848 0.59043 0.0
H63 H 0.05879 0.87559 0.65452 0.0
C64 C 0.05508 0.84733 0.65152 0.0
C65 C 0.14178 0.9102 0.63516 0.0
C66 C 0.1777 0.93793 0.62284 0.0
C67 C 0.11892 0.8733 0.62471 0.0
C68 C 0.13191 0.86437 0.6021 0.0
C69 C 0.16671 0.89165 0.58924 0.0
C70 C 0.18947 0.92816 0.59979 0.0
N71 N 0.08376 0.84339 0.6367 0.0
H72 H 0.89161 0.42448 0.70667 0.0
H73 H 0.94889 0.50346 0.76793 0.0
H74 H 0.95141 0.39857 0.76638 0.0
H75 H 0.90598 0.52177 0.76043 0.0
C76 C 0.89964 0.51842 0.7401 0.0
C77 C 0.90818 0.43174 0.72435 0.0
C78 C 0.92168 0.40765 0.73445 0.0
C79 C 0.91626 0.46561 0.73684 0.0
C80 C 0.93964 0.47617 0.75911 0.0
C81 C 0.95258 0.45223 0.76983 0.0
C82 C 0.94285 0.41782 0.75758 0.0
N83 N 0.9014 0.48888 0.72634 0.0
H84 H 0.61828 0.47178 0.70435 0.0
H85 H 0.53137 0.43135 0.76598 0.0
H86 H 0.62586 0.54852 0.76403 0.0
H87 H 0.53182 0.37606 0.7587 0.0
C88 C 0.52878 0.37529 0.73799 0.0
C89 C 0.6071 0.47703 0.72205 0.0
C90 C 0.62635 0.51415 0.73258 0.0
C91 C 0.57309 0.44669 0.73423 0.0
C92 C 0.55809 0.45405 0.75681 0.0
C93 C 0.57698 0.49055 0.76774 0.0
C94 C 0.61119 0.52028 0.75562 0.0
N95 N 0.55329 0.40937 0.7232 0.0
H96 H 0.55726 0.13713 0.69834 0.0
H97 H 0.60359 0.10371 0.76218 0.0
H98 H 0.48614 0.09026 0.76717 0.0
H99 H 0.66262 0.18102 0.73542 0.0
C100 C 0.65891 0.15806 0.72292 0.0
C101 C 0.55387 0.12617 0.7178 0.0
C102 C 0.5182 0.11502 0.73171 0.0
C103 C 0.58497 0.12254 0.72893 0.0
C104 C 0.58001 0.1073 0.75393 0.0
C105 C 0.54434 0.09537 0.76787 0.0
C106 C 0.5139 0.09977 0.75667 0.0
N107 N 0.6199 0.13125 0.71438 0.0
H108 H 0.76288 0.54461 0.99753 0.0
H109 H 0.8462 0.58025 0.93417 0.0
H110 H 0.7443 0.59612 0.93015 0.0
H111 H 0.82762 0.50535 0.9568 0.0
C112 C 0.84568 0.52657 0.97089 0.0
C113 C 0.77185 0.55679 0.97838 0.0
C114 C 0.74863 0.56907 0.9649 0.0
C115 C 0.80694 0.56054 0.96717 0.0
C116 C 0.8189 0.57696 0.94251 0.0
C117 C 0.79676 0.59032 0.92904 0.0
C118 C 0.76152 0.58583 0.94034 0.0
N119 N 0.83175 0.55038 0.98131 0.0
H120 H 0.47604 0.22048 0.98292 0.0
H121 H 0.4038 0.23511 0.92688 0.0
H122 H 0.40738 0.13027 0.92992 0.0
H123 H 0.50371 0.28397 0.98727 0.0
C124 C 0.48344 0.29317 0.98032 0.0
C125 C 0.45561 0.20958 0.96709 0.0
C126 C 0.44415 0.17286 0.95753 0.0
C127 C 0.44066 0.23187 0.95599 0.0
C128 C 0.41427 0.21726 0.9356 0.0
C129 C 0.40264 0.18098 0.92575 0.0
C130 C 0.41736 0.15883 0.93699 0.0
N131 N 0.4511 0.26917 0.96438 0.0
H132 H 0.79827 0.26369 0.98994 0.0
H133 H 0.77068 0.17906 0.93205 0.0
H134 H 0.87946 0.28738 0.92625 0.0
H135 H 0.7523 0.14265 0.97351 0.0
C136 C 0.73179 0.15266 0.97868 0.0
C137 C 0.80624 0.25517 0.97223 0.0
C138 C 0.8422 0.28051 0.9592 0.0
C139 C 0.78082 0.21828 0.96287 0.0
C140 C 0.79069 0.20713 0.93972 0.0
C141 C 0.82574 0.23243 0.92609 0.0
C142 C 0.8514 0.26875 0.93611 0.0
N143 N 0.74542 0.19261 0.97685 0.0
H144 H 0.55074 0.75074 0.0406 0.0
H145 H 0.60433 0.82914 0.10265 0.0
H146 H 0.6134 0.72773 0.10005 0.0
H147 H 0.55653 0.8422 0.09568 0.0
C148 C 0.55237 0.84061 0.07509 0.0
C149 C 0.56718 0.75826 0.05833 0.0
C150 C 0.58178 0.73507 0.06838 0.0
C151 C 0.57376 0.79148 0.07098 0.0
C152 C 0.59704 0.80265 0.09326 0.0
C153 C 0.6112 0.77963 0.10378 0.0
C154 C 0.60289 0.74566 0.09154 0.0
N155 N 0.55739 0.81348 0.06067 0.0
H156 H 0.28436 0.8129 0.03576 0.0
H157 H 0.1964 0.77431 0.09666 0.0
H158 H 0.2916 0.89116 0.09415 0.0
H159 H 0.19776 0.71907 0.0907 0.0
C160 C 0.19545 0.71755 0.06995 0.0
C161 C 0.27286 0.81872 0.0531 0.0
C162 C 0.29212 0.85599 0.06328 0.0
C163 C 0.23868 0.78882 0.0653 0.0
C164 C 0.22328 0.79674 0.08746 0.0
C165 C 0.24229 0.83348 0.09803 0.0
C166 C 0.27674 0.8628 0.08591 0.0
N167 N 0.21954 0.75124 0.05481 0.0
H168 H 0.22626 0.47219 0.03391 0.0
H169 H 0.26598 0.43437 0.09908 0.0
H170 H 0.15044 0.4257 0.1008 0.0
H171 H 0.32989 0.50919 0.07487 0.0
C172 C 0.32537 0.48739 0.06105 0.0
C173 C 0.22127 0.46071 0.05332 0.0
C174 C 0.18487 0.45015 0.06614 0.0
C175 C 0.25099 0.45573 0.06538 0.0
C176 C 0.24385 0.43969 0.09033 0.0
C177 C 0.20714 0.42777 0.10308 0.0
C178 C 0.17842 0.43393 0.09093 0.0
N179 N 0.28621 0.46323 0.05152 0.0
H180 H 0.42273 0.87563 0.32911 0.0
H181 H 0.50713 0.91054 0.26642 0.0
H182 H 0.40706 0.92924 0.2618 0.0
H183 H 0.48737 0.83534 0.28908 0.0
C184 C 0.50524 0.8564 0.30331 0.0
C185 C 0.43226 0.88794 0.31003 0.0
C186 C 0.40991 0.90107 0.29641 0.0
C187 C 0.46726 0.89112 0.29911 0.0
C188 C 0.47993 0.90773 0.27455 0.0
C189 C 0.45868 0.92199 0.26094 0.0
C190 C 0.42356 0.91815 0.272 0.0
N191 N 0.49141 0.88041 0.31352 0.0
H192 H 0.15868 0.55856 0.31234 0.0
H193 H 0.08875 0.57914 0.25764 0.0
H194 H 0.07455 0.46721 0.2645 0.0
H195 H 0.13504 0.6388 0.26078 0.0
C196 C 0.1439 0.64241 0.2807 0.0
C197 C 0.13612 0.54791 0.29767 0.0
C198 C 0.11815 0.50937 0.28991 0.0
C199 C 0.12601 0.57346 0.28609 0.0
C200 C 0.0973 0.56013 0.26667 0.0
C201 C 0.07962 0.52218 0.25835 0.0
C202 C 0.0896 0.49688 0.27035 0.0
N203 N 0.14458 0.61211 0.29459 0.0
H204 H 0.46421 0.58342 0.32185 0.0
H205 H 0.4503 0.5036 0.26317 0.0
H206 H 0.55035 0.61805 0.25978 0.0
H207 H 0.39232 0.54101 0.32354 0.0
C208 C 0.38922 0.51301 0.32044 0.0
C209 C 0.47449 0.5772 0.30417 0.0
C210 C 0.50992 0.60584 0.29197 0.0
C211 C 0.45301 0.54022 0.29364 0.0
C212 C 0.46699 0.53207 0.27112 0.0
C213 C 0.50134 0.56037 0.25842 0.0
C214 C 0.52269 0.59692 0.26904 0.0
N215 N 0.41809 0.50971 0.30539 0.0
Eu216 Eu 0.49143 0.98791 0.98325 0.0
C217 C 0.57579 0.1237 0.06064 0.0
C218 C 0.64457 0.13844 0.06015 0.0
C219 C 0.62898 0.18865 0.06907 0.0
C220 C 0.60352 0.11216 0.05706 0.0
C221 C 0.58804 0.16175 0.06756 0.0
C222 C 0.65723 0.17701 0.06534 0.0
C223 C 0.51859 0.14244 0.07433 0.0
N224 N 0.53658 0.09681 0.05958 0.0
C225 C 0.50802 0.10505 0.0675 0.0
C226 C 0.55876 0.17112 0.0739 0.0
Eu227 Eu 0.52023 0.03438 0.04695 0.0
N228 N 0.59011 0.07454 0.0526 0.0
C229 C 0.61591 0.06067 0.0534 0.0
C230 C 0.67144 0.12481 0.05905 0.0
C231 C 0.65694 0.08562 0.05616 0.0
H232 H 0.47691 0.08292 0.06773 0.0
H233 H 0.67733 0.07458 0.05597 0.0
H234 H 0.68866 0.19771 0.06745 0.0
H235 H 0.49575 0.1491 0.07989 0.0
H236 H 0.60534 0.03052 0.05115 0.0
H237 H 0.33314 0.94424 0.97814 0.0
H238 H 0.70321 0.14405 0.06127 0.0
H239 H 0.53646 0.94038 0.96306 0.0
H240 H 0.40522 0.98966 0.98177 0.0
H241 H 0.51853 0.87463 0.95053 0.0
H242 H 0.63903 0.21815 0.07404 0.0
H243 H 0.30872 0.87518 0.97197 0.0
H244 H 0.32472 0.82275 0.96434 0.0
H245 H 0.56692 0.20001 0.07935 0.0
H246 H 0.37527 0.80376 0.95665 0.0
N247 N 0.4217 0.94671 0.97858 0.0
C248 C 0.39513 0.95967 0.97903 0.0
C249 C 0.34047 0.89501 0.97361 0.0
C250 C 0.36806 0.88233 0.97141 0.0
C251 C 0.35414 0.93397 0.977 0.0
C252 C 0.40904 0.90931 0.97383 0.0
H253 H 0.44763 0.82311 0.95083 0.0
N254 N 0.47644 0.92583 0.97083 0.0
C255 C 0.4954 0.88089 0.95608 0.0
C256 C 0.43734 0.89852 0.96978 0.0
C257 C 0.50546 0.91805 0.96315 0.0
C258 C 0.45536 0.85186 0.95636 0.0
C259 C 0.42567 0.86061 0.96284 0.0
O260 O 0.52722 0.00424 0.94786 0.0
O261 O 0.53898 0.03528 1.00615 0.0
O262 O 0.51323 0.07603 0.02089 0.0
O263 O 0.47583 0.03528 0.98769 0.0
O264 O 0.55688 0.00612 0.98171 0.0
O265 O 0.47321 0.00746 0.94932 0.0
O266 O 0.4864 0.02157 0.08307 0.0
O267 O 0.4733 0.98747 0.02389 0.0
O268 O 0.49662 0.94569 0.00984 0.0
O269 O 0.5364 0.98749 0.04177 0.0
O270 O 0.45397 0.01439 0.04873 0.0
O271 O 0.53473 0.0097 0.07976 0.0
C272 C 0.56894 0.03389 0.99765 0.0
C273 C 0.49324 0.9958 0.909 0.0
C274 C 0.50057 0.00589 0.86247 0.0
C275 C 0.5079 0.0207 0.88748 0.0
C276 C 0.47805 0.9659 0.85939 0.0
C277 C 0.47052 0.95609 0.9054 0.0
C278 C 0.46302 0.94128 0.88072 0.0
C279 C 0.49109 0.06818 1.00011 0.0
C280 C 0.50288 0.01142 0.93504 0.0
C281 C 0.38486 0.83315 0.96165 0.0
C282 C 0.35608 0.84397 0.96601 0.0
C283 C 0.44253 0.98694 0.03256 0.0
C284 C 0.52129 0.02482 0.12083 0.0
C285 C 0.50626 0.99999 0.14235 0.0
C286 C 0.51946 0.01385 0.16722 0.0
C287 C 0.54759 0.05304 0.17007 0.0
C288 C 0.54942 0.06364 0.1242 0.0
C289 C 0.56238 0.07764 0.14871 0.0
C290 C 0.51966 0.95381 0.03022 0.0
C291 C 0.50796 0.00987 0.09494 0.0
H292 H 0.52554 0.05142 0.89021 0.0
H293 H 0.47155 0.95369 0.84043 0.0
H294 H 0.45874 0.93654 0.92164 0.0
H295 H 0.4455 0.91058 0.8781 0.0
H296 H 0.48487 0.96987 0.13966 0.0
H297 H 0.55787 0.06486 0.18887 0.0
H298 H 0.56141 0.08309 0.10792 0.0
H299 H 0.58397 0.1077 0.15118 0.0
Eu300 Eu 0.04788 0.50764 0.98329 0.0
C301 C 0.90066 0.44967 0.05557 0.0
C302 C 0.88428 0.50017 0.05189 0.0
C303 C 0.83159 0.43442 0.06001 0.0
C304 C 0.91256 0.48781 0.05112 0.0
C305 C 0.86026 0.42278 0.06104 0.0
C306 C 0.84359 0.47308 0.05542 0.0
C307 C 0.88042 0.37653 0.07195 0.0
N308 N 0.92922 0.43963 0.05706 0.0
C309 C 0.92011 0.40435 0.06655 0.0
C310 C 0.85023 0.38554 0.06866 0.0
Eu311 Eu 0.99554 0.48752 0.04634 0.0
N312 N 0.95217 0.51329 0.04822 0.0
C313 C 0.96577 0.55183 0.04821 0.0
C314 C 0.89791 0.53953 0.05027 0.0
C315 C 0.93889 0.56549 0.04901 0.0
H316 H 0.94347 0.39731 0.06893 0.0
H317 H 0.94981 0.59604 0.04837 0.0
H318 H 0.82138 0.48197 0.05566 0.0
H319 H 0.87317 0.34819 0.07861 0.0
H320 H 0.99729 0.57231 0.04694 0.0
H321 H 0.0822 0.39103 0.98301 0.0
H322 H 0.87717 0.5502 0.05079 0.0
H323 H 0.10556 0.59749 0.96135 0.0
H324 H 0.03893 0.41934 0.98411 0.0
H325 H 0.17691 0.64275 0.9513 0.0
H326 H 0.80032 0.41407 0.06378 0.0
H327 H 0.15545 0.43277 0.97911 0.0
H328 H 0.21444 0.49895 0.97282 0.0
H329 H 0.81954 0.36404 0.07305 0.0
H330 H 0.24042 0.56775 0.96444 0.0
N331 N 0.08695 0.47717 0.98131 0.0
C332 C 0.0707 0.43818 0.98218 0.0
C333 C 0.13654 0.4455 0.97949 0.0
C334 C 0.15286 0.48521 0.97702 0.0
C335 C 0.09522 0.42186 0.98162 0.0
C336 C 0.12692 0.50036 0.97777 0.0
H337 H 0.22657 0.62151 0.95586 0.0
N338 N 0.1154 0.55205 0.97259 0.0
C339 C 0.16748 0.61377 0.95774 0.0
C340 C 0.14163 0.53908 0.97345 0.0
C341 C 0.12722 0.58815 0.96341 0.0
C342 C 0.19542 0.60171 0.96042 0.0
C343 C 0.18253 0.56369 0.96775 0.0
O344 O 0.04216 0.5306 0.94643 0.0
O345 O 0.99615 0.50295 1.00526 0.0
O346 O 0.95507 0.43771 0.02151 0.0
O347 O 0.99614 0.44565 0.98602 0.0
O348 O 0.02272 0.54807 0.97949 0.0
O349 O 0.02796 0.47143 0.94951 0.0
O350 O 1.00497 0.46724 0.08324 0.0
O351 O 0.04841 0.4927 0.02476 0.0
O352 O 0.08718 0.55867 0.00785 0.0
O353 O 0.04477 0.55048 0.04261 0.0
O354 O 0.0191 0.44628 0.04966 0.0
O355 O 1.01186 0.52386 0.07998 0.0
C356 C 0.99344 0.53039 0.99563 0.0
C357 C 0.05135 0.50265 0.90933 0.0
C358 C 0.0465 0.49568 0.86278 0.0
C359 C 0.02843 0.49199 0.88701 0.0
C360 C 0.08804 0.51029 0.86141 0.0
C361 C 0.09256 0.51671 0.90753 0.0
C362 C 0.11077 0.52058 0.88365 0.0
C363 C 0.96299 0.4257 0.99997 0.0
C364 C 0.03167 0.49891 0.93425 0.0
C365 C 0.20882 0.54918 0.9684 0.0
C366 C 0.19401 0.51 0.9731 0.0
C367 C 0.04933 0.46409 0.03423 0.0
C368 C 0.9882 0.49084 0.11952 0.0
C369 C 1.0073 0.49422 0.14285 0.0
C370 C 0.98648 0.48803 0.16627 0.0
C371 C 0.94604 0.478 0.16593 0.0
C372 C 0.948 0.48123 0.11956 0.0
C373 C 0.927 0.47463 0.14267 0.0
C374 C 0.07817 0.57089 0.02894 0.0
C375 C 1.01075 0.49766 0.0954 0.0
H376 H 0.99645 0.4804 0.88863 0.0
H377 H 0.10311 0.5142 0.84312 0.0
H378 H 0.11064 0.52472 0.92448 0.0
H379 H 0.14266 0.53172 0.88237 0.0
H380 H 0.03865 0.50252 0.14271 0.0
H381 H 0.92914 0.47269 0.18362 0.0
H382 H 0.93292 0.47907 0.10185 0.0
H383 H 0.89592 0.46707 0.14255 0.0
Eu384 Eu 0.55043 0.51266 0.04529 0.0
C385 C 0.46291 0.56448 0.97024 0.0
C386 C 0.39345 0.51485 0.97421 0.0
C387 C 0.41067 0.5806 0.96453 0.0
C388 C 0.43443 0.52662 0.97519 0.0
C389 C 0.45138 0.59175 0.96427 0.0
C390 C 0.38175 0.5422 0.9695 0.0
C391 C 0.5209 0.63812 0.95591 0.0
N392 N 0.5019 0.57419 0.96986 0.0
C393 C 0.5308 0.60996 0.96181 0.0
C394 C 0.48105 0.62912 0.95747 0.0
Eu395 Eu 0.5166 0.52578 0.98185 0.0
N396 N 0.44676 0.5009 0.97945 0.0
C397 C 0.41969 0.46254 0.981 0.0
C398 C 0.36549 0.47577 0.97718 0.0
C399 C 0.37871 0.44945 0.98011 0.0
H400 H 0.56167 0.61703 0.96079 0.0
H401 H 0.35735 0.41908 0.98193 0.0
H402 H 0.35041 0.53377 0.96897 0.0
H403 H 0.54397 0.66671 0.95019 0.0
H404 H 0.42942 0.4419 0.98354 0.0
H405 H 0.71155 0.61208 0.04543 0.0
H406 H 0.33374 0.46556 0.97658 0.0
H407 H 0.49964 0.42166 0.06687 0.0
H408 H 0.64049 0.59327 0.04293 0.0
H409 H 0.51284 0.36982 0.07981 0.0
H410 H 0.40121 0.60121 0.96025 0.0
H411 H 0.73075 0.56279 0.05325 0.0
H412 H 0.70952 0.49391 0.06315 0.0
H413 H 0.47343 0.65093 0.95277 0.0
H414 H 0.65547 0.42804 0.07274 0.0
N415 N 0.61943 0.53369 0.04847 0.0
C416 C 0.64834 0.57143 0.0464 0.0
C417 C 0.69945 0.55433 0.05214 0.0
C418 C 0.6696 0.516 0.05581 0.0
C419 C 0.68873 0.58225 0.0478 0.0
C420 C 0.62931 0.50649 0.05401 0.0
H421 H 0.5821 0.38166 0.07942 0.0
N422 N 0.56067 0.46195 0.05877 0.0
C423 C 0.53733 0.39768 0.07403 0.0
C424 C 0.59898 0.46948 0.05942 0.0
C425 C 0.52995 0.42707 0.06677 0.0
C426 C 0.57646 0.40445 0.07372 0.0
C427 C 0.60795 0.44086 0.06672 0.0
O428 O 0.521 0.49929 0.08288 0.0
O429 O 0.50195 0.51402 0.02334 0.0
O430 O 0.5243 0.57421 1.0073 0.0
O431 O 0.57062 0.57549 0.0362 0.0
O432 O 0.48314 0.47222 0.05116 0.0
O433 O 0.57433 0.55437 0.07605 0.0
O434 O 0.54695 0.54288 0.94454 0.0
O435 O 0.56555 0.52478 1.00361 0.0
O436 O 0.54475 0.46517 0.02032 0.0
O437 O 0.49953 0.46294 0.99007 0.0
O438 O 0.58302 0.56786 0.97638 0.0
O439 O 0.49558 0.48609 0.94983 0.0
C440 C 0.47108 0.48729 0.03404 0.0
C441 C 0.56311 0.5278 0.11795 0.0
C442 C 0.56046 0.52972 0.16462 0.0
C443 C 0.54747 0.53441 0.14042 0.0
C444 C 0.58935 0.51835 0.16601 0.0
C445 C 0.59217 0.51682 0.11972 0.0
C446 C 0.60516 0.51209 0.14364 0.0
C447 C 0.55163 0.59142 0.02507 0.0
C448 C 0.54791 0.53132 0.09294 0.0
C449 C 0.64797 0.44973 0.06741 0.0
C450 C 0.67875 0.48723 0.06194 0.0
C451 C 0.59571 0.55257 0.99292 0.0
C452 C 0.50706 0.51471 0.90847 0.0
C453 C 0.52429 0.5102 0.8859 0.0
C454 C 0.51067 0.51404 0.86164 0.0
C455 C 0.4798 0.52288 0.86045 0.0
C456 C 0.47628 0.52338 0.90679 0.0
C457 C 0.46282 0.5275 0.88288 0.0
C458 C 0.51835 0.44746 1.00221 0.0
C459 C 0.52189 0.5109 0.93358 0.0
H460 H 0.52477 0.54261 0.13905 0.0
H461 H 0.60014 0.51486 0.18437 0.0
H462 H 0.60474 0.51184 0.10269 0.0
H463 H 0.62759 0.50358 0.14485 0.0
H464 H 0.54782 0.50313 0.88727 0.0
H465 H 0.469 0.52658 0.84216 0.0
H466 H 0.46269 0.52696 0.92391 0.0
H467 H 0.43914 0.53435 0.88171 0.0
Eu468 Eu 0.16147 0.32182 0.31924 0.0
C469 C 0.22871 0.45488 0.39997 0.0
C470 C 0.29955 0.47727 0.40113 0.0
C471 C 0.27539 0.52105 0.41095 0.0
C472 C 0.25996 0.44796 0.39673 0.0
C473 C 0.23591 0.49116 0.4079 0.0
C474 C 0.30718 0.51412 0.40752 0.0
C475 C 0.16453 0.46436 0.41211 0.0
N476 N 0.191 0.42522 0.3973 0.0
C477 C 0.15897 0.42895 0.40414 0.0
C478 C 0.20317 0.49581 0.41355 0.0
Eu479 Eu 0.18335 0.36612 0.38354 0.0
N480 N 0.25138 0.41184 0.39102 0.0
C481 C 0.28076 0.40241 0.39143 0.0
C482 C 0.33008 0.46829 0.39987 0.0
C483 C 0.32053 0.43055 0.39541 0.0
H484 H 0.12903 0.4048 0.40286 0.0
H485 H 0.34379 0.42308 0.39497 0.0
H486 H 0.33743 0.53711 0.41069 0.0
H487 H 0.13903 0.4674 0.41699 0.0
H488 H 0.27404 0.37345 0.38798 0.0
H489 H 1.00066 0.26404 0.311 0.0
H490 H 0.36088 0.49 0.40304 0.0
H491 H 0.21548 0.28199 0.30125 0.0
H492 H 0.07104 0.31442 0.31584 0.0
H493 H 0.20484 0.21821 0.2893 0.0
H494 H 0.28157 0.54925 0.41675 0.0
H495 H 0.98334 0.1966 0.30489 0.0
H496 H 1.00658 0.14908 0.29821 0.0
H497 H 0.20742 0.52319 0.41977 0.0
H498 H 0.06221 0.13659 0.29214 0.0
N499 N 0.09334 0.27579 0.31341 0.0
C500 C 0.06395 0.28515 0.31316 0.0
C501 C 1.0143 0.2186 0.30708 0.0
C502 C 0.04485 0.20964 0.30567 0.0
C503 C 0.02397 0.25665 0.31044 0.0
C504 C 0.08464 0.23933 0.30878 0.0
H505 H 0.13626 0.16236 0.28823 0.0
N506 N 0.1537 0.26198 0.30734 0.0
C507 C 0.17955 0.2217 0.29399 0.0
C508 C 0.11582 0.23219 0.3056 0.0
C509 C 0.18549 0.25772 0.30071 0.0
C510 C 0.1408 0.19021 0.29349 0.0
C511 C 0.10828 0.19534 0.29892 0.0
O512 O 0.19751 0.33969 0.28389 0.0
O513 O 0.20452 0.37031 0.34317 0.0
O514 O 0.17611 0.407 0.35687 0.0
O515 O 0.14022 0.36527 0.32378 0.0
O516 O 0.22887 0.34775 0.31824 0.0
O517 O 0.14151 0.3392 0.28509 0.0
O518 O 0.14838 0.34921 0.41936 0.0
O519 O 0.13966 0.31772 0.35959 0.0
O520 O 0.16954 0.28174 0.34614 0.0
O521 O 0.20724 0.32505 0.37781 0.0
O522 O 0.11638 0.34197 0.3837 0.0
O523 O 0.19991 0.34214 0.41575 0.0
C524 C 0.23702 0.37411 0.33484 0.0
C525 C 0.163 0.32876 0.24489 0.0
C526 C 0.16597 0.33767 0.19816 0.0
C527 C 0.17496 0.35317 0.22302 0.0
C528 C 0.14564 0.29749 0.19568 0.0
C529 C 0.14246 0.28891 0.24175 0.0
C530 C 0.13405 0.27343 0.21729 0.0
C531 C 0.15452 0.39849 0.33577 0.0
C532 C 0.17193 0.34488 0.27088 0.0
C533 C 0.06865 0.16522 0.29698 0.0
C534 C 0.03698 0.17234 0.30042 0.0
C535 C 0.10738 0.31497 0.36752 0.0
C536 C 0.18431 0.35445 0.45701 0.0
C537 C 0.17065 0.32923 0.47837 0.0
C538 C 0.18358 0.34314 0.50326 0.0
C539 C 0.20995 0.38268 0.50634 0.0
C540 C 0.21063 0.39366 0.46063 0.0
C541 C 0.22327 0.40766 0.48517 0.0
C542 C 0.19289 0.29146 0.3664 0.0
C543 C 0.17185 0.33959 0.43101 0.0
H544 H 0.19044 0.38401 0.2254 0.0
H545 H 0.13883 0.28458 0.17693 0.0
H546 H 0.13291 0.26973 0.2582 0.0
H547 H 0.11835 0.2426 0.21506 0.0
H548 H 0.15062 0.29884 0.47555 0.0
H549 H 0.21994 0.39443 0.5252 0.0
H550 H 0.22155 0.41342 0.44451 0.0
H551 H 0.24351 0.43802 0.48779 0.0
Eu552 Eu 0.70653 0.83634 0.31647 0.0
C553 C 0.55948 0.7796 0.38819 0.0
C554 C 0.54453 0.83111 0.38493 0.0
C555 C 0.4908 0.76561 0.39237 0.0
C556 C 0.57221 0.81803 0.38417 0.0
C557 C 0.51884 0.75319 0.39334 0.0
C558 C 0.50363 0.80453 0.38814 0.0
C559 C 0.5375 0.70573 0.40391 0.0
N560 N 0.58743 0.76876 0.38963 0.0
C561 C 0.57746 0.73312 0.39888 0.0
C562 C 0.50792 0.71558 0.40061 0.0
Eu563 Eu 0.65423 0.81604 0.37948 0.0
N564 N 0.61199 0.84299 0.38149 0.0
C565 C 0.62632 0.88167 0.3816 0.0
C566 C 0.55892 0.87063 0.38353 0.0
C567 C 0.60004 0.89602 0.38243 0.0
H568 H 0.60037 0.72549 0.40135 0.0
H569 H 0.61153 0.92668 0.38192 0.0
H570 H 0.48187 0.81398 0.38838 0.0
H571 H 0.52956 0.67711 0.41035 0.0
H572 H 0.65796 0.90169 0.38044 0.0
H573 H 0.74686 0.72386 0.31703 0.0
H574 H 0.53864 0.88183 0.38406 0.0
H575 H 0.7608 0.92618 0.29389 0.0
H576 H 0.70136 0.74978 0.31799 0.0
H577 H 0.83133 0.97312 0.28284 0.0
H578 H 0.45935 0.74564 0.39589 0.0
H579 H 0.81971 0.76767 0.31241 0.0
H580 H 0.8768 0.8347 0.30515 0.0
H581 H 0.47702 0.69443 0.40475 0.0
H582 H 0.89997 0.90282 0.29601 0.0
N583 N 0.74777 0.8082 0.31453 0.0
C584 C 0.73295 0.76944 0.31578 0.0
C585 C 0.79982 0.77932 0.31276 0.0
C586 C 0.81462 0.81876 0.30984 0.0
C587 C 0.75872 0.7545 0.3153 0.0
C588 C 0.78745 0.83247 0.3106 0.0
H589 H 0.88312 0.95455 0.2871 0.0
N590 N 0.77319 0.88238 0.30513 0.0
C591 C 0.82318 0.94455 0.28952 0.0
C592 C 0.8006 0.87083 0.30589 0.0
C593 C 0.78337 0.91798 0.29571 0.0
C594 C 0.85233 0.934 0.29203 0.0
C595 C 0.8411 0.89648 0.29973 0.0
O596 O 0.69806 0.85729 0.2796 0.0
O597 O 0.65469 0.83151 0.33841 0.0
O598 O 0.61398 0.76618 0.35454 0.0
O599 O 0.656 0.77378 0.3197 0.0
O600 O 0.68147 0.87682 0.31278 0.0
O601 O 0.68805 0.7995 0.28297 0.0
O602 O 0.66361 0.79475 0.41593 0.0
O603 O 0.70696 0.82137 0.35788 0.0
O604 O 0.74651 0.88704 0.34107 0.0
O605 O 0.70469 0.87883 0.37622 0.0
O606 O 0.67779 0.77477 0.38263 0.0
O607 O 0.66967 0.85111 0.41375 0.0
C608 C 0.65215 0.8591 0.3289 0.0
C609 C 0.70939 0.83068 0.24261 0.0
C610 C 0.7048 0.82496 0.1961 0.0
C611 C 0.68639 0.81941 0.22034 0.0
C612 C 0.74655 0.84178 0.19444 0.0
C613 C 0.75095 0.84686 0.24063 0.0
C614 C 0.76939 0.85243 0.21664 0.0
C615 C 0.62251 0.75388 0.33335 0.0
C616 C 0.68954 0.82593 0.26759 0.0
C617 C 0.86864 0.88343 0.30032 0.0
C618 C 0.85543 0.84463 0.30545 0.0
C619 C 0.70813 0.79289 0.36732 0.0
C620 C 0.64672 0.81671 0.45291 0.0
C621 C 0.66674 0.8219 0.4761 0.0
C622 C 0.64591 0.81401 0.49965 0.0
C623 C 0.60455 0.80034 0.49955 0.0
C624 C 0.60567 0.80376 0.45323 0.0
C625 C 0.58467 0.79538 0.47645 0.0
C626 C 0.73807 0.89915 0.36245 0.0
C627 C 0.6691 0.82464 0.42864 0.0
H628 H 0.65425 0.80695 0.22185 0.0
H629 H 0.76141 0.84619 0.176 0.0
H630 H 0.76913 0.85528 0.25752 0.0
H631 H 0.8015 0.86506 0.21523 0.0
H632 H 0.69868 0.83283 0.47572 0.0
H633 H 0.58753 0.79344 0.51732 0.0
H634 H 0.58987 0.80023 0.43564 0.0
H635 H 0.55291 0.78512 0.47655 0.0
Eu636 Eu 0.20903 0.84383 0.37425 0.0
C637 C 0.13234 0.9113 0.30057 0.0
C638 C 0.06194 0.86419 0.30342 0.0
C639 C 0.08295 0.93109 0.29457 0.0
C640 C 0.10234 0.87394 0.3049 0.0
C641 C 0.12304 0.94011 0.29448 0.0
C642 C 0.05242 0.89316 0.29908 0.0
C643 C 0.19315 0.98317 0.28546 0.0
N644 N 0.17061 0.9188 0.30016 0.0
C645 C 0.2008 0.95357 0.29163 0.0
C646 C 0.15418 0.97663 0.28737 0.0
Eu647 Eu 0.18194 0.86811 0.31171 0.0
N648 N 0.11268 0.84664 0.30847 0.0
C649 C 0.08411 0.80867 0.30845 0.0
C650 C 0.03243 0.82546 0.30519 0.0
C651 C 0.04362 0.79754 0.30716 0.0
H652 H 0.23102 0.95879 0.29037 0.0
H653 H 0.02108 0.76743 0.30786 0.0
H654 H 0.02156 0.8863 0.29821 0.0
H655 H 0.21732 0.01102 0.27935 0.0
H656 H 0.09217 0.78671 0.31015 0.0
H657 H 0.37034 0.94006 0.37961 0.0
H658 H 1.00105 0.81677 0.30418 0.0
H659 H 0.15544 0.75121 0.39161 0.0
H660 H 0.29985 0.92312 0.37619 0.0
H661 H 0.16639 0.69718 0.40236 0.0
H662 H 0.07519 0.95292 0.29027 0.0
H663 H 0.38763 0.88893 0.38455 0.0
H664 H 0.3644 0.8188 0.39067 0.0
H665 H 0.14829 0.99954 0.2825 0.0
H666 H 0.30886 0.75265 0.39702 0.0
N667 N 0.2774 0.86293 0.37828 0.0
C668 C 0.30692 0.90052 0.37837 0.0
C669 C 0.35661 0.88131 0.383 0.0
C670 C 0.326 0.84295 0.38456 0.0
C671 C 0.34696 0.91025 0.38029 0.0
C672 C 0.28613 0.83458 0.38227 0.0
H673 H 0.23495 0.70717 0.40199 0.0
N674 N 0.21703 0.79084 0.38481 0.0
C675 C 0.19154 0.72516 0.39756 0.0
C676 C 0.25496 0.79735 0.38566 0.0
C677 C 0.18544 0.75575 0.39152 0.0
C678 C 0.23029 0.73089 0.39725 0.0
C679 C 0.26266 0.76746 0.39165 0.0
O680 O 0.1775 0.82554 0.41118 0.0
O681 O 0.16392 0.8513 0.35255 0.0
O682 O 0.19332 0.91657 0.33822 0.0
O683 O 0.23005 0.90785 0.3705 0.0
O684 O 0.14137 0.80496 0.37733 0.0
O685 O 0.23151 0.88086 0.4075 0.0
O686 O 0.21429 0.88662 0.27502 0.0
O687 O 0.22782 0.86174 0.33352 0.0
O688 O 0.20176 0.79813 0.34654 0.0
O689 O 0.1609 0.80412 0.31643 0.0
O690 O 0.24904 0.90839 0.30892 0.0
O691 O 0.16147 0.83059 0.27862 0.0
C692 C 0.13183 0.82385 0.36158 0.0
C693 C 0.21733 0.84964 0.44793 0.0
C694 C 0.21701 0.85285 0.49466 0.0
C695 C 0.20484 0.85926 0.47061 0.0
C696 C 0.24199 0.8368 0.4956 0.0
C697 C 0.24241 0.8339 0.4493 0.0
C698 C 0.25463 0.8275 0.47303 0.0
C699 C 0.2161 0.9281 0.35878 0.0
C700 C 0.20383 0.85605 0.42305 0.0
C701 C 0.30232 0.77531 0.39272 0.0
C702 C 0.33395 0.81298 0.38913 0.0
C703 C 0.25941 0.89008 0.3246 0.0
C704 C 0.17531 0.86154 0.23814 0.0
C705 C 0.1916 0.856 0.21556 0.0
C706 C 0.17855 0.86082 0.19139 0.0
C707 C 0.14918 0.87164 0.19024 0.0
C708 C 0.14603 0.87225 0.23658 0.0
C709 C 0.13314 0.87736 0.21272 0.0
C710 C 0.17738 0.78523 0.32685 0.0
C711 C 0.18891 0.85575 0.26314 0.0
H712 H 0.18523 0.87121 0.46953 0.0
H713 H 0.25219 0.83191 0.51378 0.0
H714 H 0.25257 0.8266 0.43211 0.0
H715 H 0.27403 0.81536 0.47394 0.0
H716 H 0.21387 0.84724 0.21685 0.0
H717 H 0.13885 0.87601 0.17195 0.0
H718 H 0.13303 0.87649 0.25375 0.0
H719 H 0.11059 0.88572 0.21163 0.0
Eu720 Eu 0.82456 0.65762 0.651 0.0
C721 C 0.89612 0.7914 0.72969 0.0
C722 C 0.96671 0.81263 0.73144 0.0
C723 C 0.94377 0.85793 0.73916 0.0
C724 C 0.92692 0.78356 0.72733 0.0
C725 C 0.90408 0.82848 0.73613 0.0
C726 C 0.97503 0.85002 0.73683 0.0
C727 C 0.83285 0.8038 0.73824 0.0
N728 N 0.85813 0.76221 0.72698 0.0
C729 C 0.82649 0.76745 0.73208 0.0
C730 C 0.87184 0.83457 0.74 0.0
Eu731 Eu 0.8496 0.70195 0.71514 0.0
N732 N 0.9178 0.7471 0.7222 0.0
C733 C 0.94681 0.7372 0.72269 0.0
C734 C 0.99681 0.80305 0.73059 0.0
C735 C 0.98673 0.76505 0.72653 0.0
H736 H 0.7963 0.74374 0.7306 0.0
H737 H 1.00969 0.75719 0.72628 0.0
H738 H 1.00545 0.8728 0.73979 0.0
H739 H 0.80771 0.80804 0.74164 0.0
H740 H 0.93963 0.70804 0.71952 0.0
H741 H 0.66243 0.59339 0.64649 0.0
H742 H 0.02775 0.82455 0.73357 0.0
H743 H 0.88105 0.62195 0.62972 0.0
H744 H 0.73206 0.64579 0.65035 0.0
H745 H 0.87295 0.5598 0.61622 0.0
H746 H 0.95053 0.8867 0.74391 0.0
H747 H 0.64795 0.52707 0.63902 0.0
H748 H 0.67398 0.48223 0.63005 0.0
H749 H 0.87671 0.86266 0.74493 0.0
H750 H 0.73135 0.4731 0.62158 0.0
N751 N 0.7569 0.60945 0.64607 0.0
C752 C 0.72625 0.61705 0.64708 0.0
C753 C 0.67862 0.54998 0.64078 0.0
C754 C 0.71033 0.54285 0.63803 0.0
C755 C 0.68668 0.58738 0.64491 0.0
C756 C 0.74967 0.57367 0.64064 0.0
H757 H 0.80563 0.50205 0.6158 0.0
N758 N 0.81911 0.59933 0.63733 0.0
C759 C 0.84708 0.56178 0.6219 0.0
C760 C 0.78182 0.56845 0.63604 0.0
C761 C 0.85157 0.59692 0.62952 0.0
C762 C 0.80905 0.52922 0.62176 0.0
C763 C 0.77574 0.5324 0.6285 0.0
O764 O 0.8594 0.67947 0.61539 0.0
O765 O 0.8689 0.70602 0.67449 0.0
O766 O 0.84287 0.74245 0.68786 0.0
O767 O 0.80024 0.69829 0.65821 0.0
O768 O 0.89208 0.68403 0.64835 0.0
O769 O 0.80117 0.6741 0.61811 0.0
O770 O 0.81664 0.68796 0.75162 0.0
O771 O 0.80495 0.65298 0.692 0.0
O772 O 0.83489 0.61763 0.6766 0.0
O773 O 0.87257 0.66011 0.70879 0.0
O774 O 0.78244 0.67676 0.71718 0.0
O775 O 0.86678 0.67866 0.74744 0.0
C776 C 0.90106 0.70994 0.6654 0.0
C777 C 0.82341 0.66725 0.57706 0.0
C778 C 0.83187 0.67766 0.53051 0.0
C779 C 0.83795 0.69233 0.55558 0.0
C780 C 0.81069 0.63763 0.52738 0.0
C781 C 0.80213 0.62751 0.57334 0.0
C782 C 0.79583 0.61285 0.54863 0.0
C783 C 0.81653 0.73231 0.66928 0.0
C784 C 0.83184 0.68258 0.60325 0.0
C785 C 0.73665 0.50114 0.62707 0.0
C786 C 0.70399 0.50634 0.63189 0.0
C787 C 0.77293 0.64964 0.701 0.0
C788 C 0.85332 0.6928 0.78883 0.0
C789 C 0.83984 0.66784 0.81032 0.0
C790 C 0.85324 0.68193 0.83511 0.0
C791 C 0.88011 0.72143 0.83792 0.0
C792 C 0.88008 0.73198 0.79217 0.0
C793 C 0.89334 0.74617 0.8166 0.0
C794 C 0.85856 0.62699 0.69672 0.0
C795 C 0.83975 0.67763 0.76303 0.0
H796 H 0.85457 0.72308 0.55839 0.0
H797 H 0.80509 0.62546 0.50841 0.0
H798 H 0.79054 0.60782 0.58951 0.0
H799 H 0.7794 0.58212 0.54594 0.0
H800 H 0.81943 0.63748 0.80766 0.0
H801 H 0.89049 0.73339 0.85669 0.0
H802 H 0.89073 0.75156 0.77593 0.0
H803 H 0.91391 0.77649 0.81904 0.0
Eu804 Eu 0.3788 0.16795 0.65 0.0
C805 C 0.22946 0.10928 0.72003 0.0
C806 C 0.21462 0.16089 0.71708 0.0
C807 C 0.16069 0.09524 0.72355 0.0
C808 C 0.24231 0.1478 0.71639 0.0
C809 C 0.18869 0.08279 0.72471 0.0
C810 C 0.17365 0.13426 0.71972 0.0
C811 C 0.20706 0.03522 0.7355 0.0
N812 N 0.25737 0.09842 0.72175 0.0
C813 C 0.24715 0.06268 0.73097 0.0
C814 C 0.17758 0.04508 0.73181 0.0
Eu815 Eu 0.32451 0.14591 0.7125 0.0
N816 N 0.28216 0.1728 0.71424 0.0
C817 C 0.29646 0.21146 0.71487 0.0
C818 C 0.22905 0.20042 0.71622 0.0
C819 C 0.27018 0.22581 0.71569 0.0
H820 H 0.26999 0.05502 0.73373 0.0
H821 H 0.28169 0.25647 0.7156 0.0
H822 H 0.1519 0.14373 0.71987 0.0
H823 H 0.19896 0.00652 0.74186 0.0
H824 H 0.32811 0.23153 0.71416 0.0
H825 H 0.40842 0.04822 0.64979 0.0
H826 H 0.20877 0.21163 0.71672 0.0
H827 H 0.44001 0.25834 0.6299 0.0
H828 H 0.36689 0.07836 0.6505 0.0
H829 H 0.51221 0.30231 0.62173 0.0
H830 H 0.12916 0.07522 0.72669 0.0
H831 H 0.48196 0.08832 0.64705 0.0
H832 H 0.54248 0.15378 0.64225 0.0
H833 H 0.14657 0.02387 0.73558 0.0
H834 H 0.57092 0.22318 0.63508 0.0
N835 N 0.41615 0.13566 0.64846 0.0
C836 C 0.39881 0.09655 0.64903 0.0
C837 C 0.46381 0.10188 0.6472 0.0
C838 C 0.48134 0.14177 0.64522 0.0
C839 C 0.42233 0.07916 0.64869 0.0
C840 C 0.45637 0.15801 0.64565 0.0
H841 H 0.55984 0.27874 0.62696 0.0
N842 N 0.44733 0.21135 0.6411 0.0
C843 C 0.50153 0.2729 0.62774 0.0
C844 C 0.47248 0.1971 0.64211 0.0
C845 C 0.46079 0.24803 0.6324 0.0
C846 C 0.52831 0.25951 0.63077 0.0
C847 C 0.51382 0.22095 0.63739 0.0
O848 O 0.37591 0.1936 0.61361 0.0
O849 O 0.32618 0.16219 0.67147 0.0
O850 O 0.28539 0.09578 0.68729 0.0
O851 O 0.3258 0.10631 0.65097 0.0
O852 O 0.35349 0.20821 0.64636 0.0
O853 O 0.36144 0.1342 0.61506 0.0
O854 O 0.33235 0.12366 0.74904 0.0
O855 O 0.37812 0.15234 0.69139 0.0
O856 O 0.41693 0.21872 0.67502 0.0
O857 O 0.37478 0.20893 0.71027 0.0
O858 O 0.34882 0.10525 0.71579 0.0
O859 O 0.33902 0.18028 0.74706 0.0
C860 C 0.32373 0.1899 0.66208 0.0
C861 C 0.38794 0.16844 0.57611 0.0
C862 C 0.38585 0.16379 0.52955 0.0
C863 C 0.36621 0.1577 0.55337 0.0
C864 C 0.42764 0.18083 0.52874 0.0
C865 C 0.42958 0.18477 0.57504 0.0
C866 C 0.44931 0.19103 0.55143 0.0
C867 C 0.29313 0.08505 0.66513 0.0
C868 C 0.36647 0.16287 0.60053 0.0
C869 C 0.53903 0.20522 0.63828 0.0
C870 C 0.52282 0.1657 0.64226 0.0
C871 C 0.37941 0.1239 0.70075 0.0
C872 C 0.31417 0.14508 0.78578 0.0
C873 C 0.33319 0.14958 0.80926 0.0
C874 C 0.31155 0.14152 0.8325 0.0
C875 C 0.27035 0.12848 0.83179 0.0
C876 C 0.27325 0.13271 0.78547 0.0
C877 C 0.25143 0.12421 0.80837 0.0
C878 C 0.40796 0.23013 0.69649 0.0
C879 C 0.33752 0.15333 0.76189 0.0
H880 H 0.33401 0.14514 0.55419 0.0
H881 H 0.44342 0.18569 0.51061 0.0
H882 H 0.44687 0.19278 0.5923 0.0
H883 H 0.48146 0.20379 0.55073 0.0
H884 H 0.36506 0.16016 0.80936 0.0
H885 H 0.25275 0.12156 0.84931 0.0
H886 H 0.25819 0.12976 0.76764 0.0
H887 H 0.21978 0.11442 0.80798 0.0
Eu888 Eu 0.88374 0.1817 0.71418 0.0
C889 C 0.80011 0.23467 0.63697 0.0
C890 C 0.73051 0.18504 0.63964 0.0
C891 C 0.74823 0.25098 0.63015 0.0
C892 C 0.7714 0.19674 0.64145 0.0
C893 C 0.7889 0.26206 0.63064 0.0
C894 C 0.71907 0.21252 0.63464 0.0
C895 C 0.85872 0.30835 0.62325 0.0
N896 N 0.83907 0.24428 0.63725 0.0
C897 C 0.8683 0.28007 0.62945 0.0
C898 C 0.81888 0.29946 0.62419 0.0
Eu899 Eu 0.85317 0.19565 0.64978 0.0
N900 N 0.78349 0.1709 0.64599 0.0
C901 C 0.75634 0.13253 0.647 0.0
C902 C 0.70241 0.14593 0.64205 0.0
C903 C 0.71545 0.11951 0.64526 0.0
H904 H 0.89916 0.28704 0.62893 0.0
H905 H 0.69401 0.08912 0.64664 0.0
H906 H 0.68779 0.20414 0.63349 0.0
H907 H 0.88204 0.33695 0.61777 0.0
H908 H 0.76588 0.11179 0.64974 0.0
H909 H 0.0451 0.27971 0.71599 0.0
H910 H 0.67072 0.13576 0.6408 0.0
H911 H 0.83135 0.09109 0.73636 0.0
H912 H 0.97438 0.26168 0.71235 0.0
H913 H 0.84331 0.03896 0.75057 0.0
H914 H 0.739 0.27168 0.62559 0.0
H915 H 0.06318 0.22997 0.72518 0.0
H916 H 0.0408 0.16107 0.73593 0.0
H917 H 0.8115 0.32136 0.61924 0.0
H918 H 0.98592 0.0956 0.74554 0.0
N919 N 0.95241 0.20207 0.71862 0.0
C920 C 0.98173 0.23965 0.71642 0.0
C921 C 0.03202 0.22185 0.72357 0.0
C922 C 1.00172 0.18372 0.72734 0.0
C923 C 0.02193 0.25002 0.71845 0.0
C924 C 0.96165 0.17465 0.72487 0.0
H925 H 0.91222 0.04997 0.75147 0.0
N926 N 0.89274 0.13071 0.72878 0.0
C927 C 0.86818 0.06658 0.74479 0.0
C928 C 0.93086 0.13783 0.73019 0.0
C929 C 0.86151 0.09614 0.73679 0.0
C930 C 0.90713 0.07288 0.7452 0.0
C931 C 0.93912 0.10901 0.73822 0.0
O932 O 0.85081 0.169 0.75047 0.0
O933 O 0.83682 0.18388 0.69099 0.0
O934 O 0.8606 0.24441 0.67491 0.0
O935 O 0.90507 0.2448 0.705 0.0
O936 O 0.81625 0.14142 0.71854 0.0
O937 O 0.90704 0.22208 0.74578 0.0
O938 O 0.88468 0.21333 0.61282 0.0
O939 O 0.90066 0.19376 0.67268 0.0
O940 O 0.87786 0.13341 0.68998 0.0
O941 O 0.8353 0.13253 0.65812 0.0
O942 O 0.91985 0.23715 0.64553 0.0
O943 O 0.83389 0.15613 0.61766 0.0
C944 C 0.80539 0.15704 0.70107 0.0
C945 C 0.88935 0.19398 0.78736 0.0
C946 C 0.88115 0.19397 0.83382 0.0
C947 C 0.87227 0.2011 0.80893 0.0
C948 C 0.90736 0.17955 0.83675 0.0
C949 C 0.91573 0.17999 0.7907 0.0
C950 C 0.92459 0.17275 0.8153 0.0
C951 C 0.88723 0.26132 0.69312 0.0
C952 C 0.87807 0.19978 0.76156 0.0
C953 C 0.97895 0.11745 0.73965 0.0
C954 C 1.0102 0.15473 0.73418 0.0
C955 C 0.93148 0.2214 0.66244 0.0
C956 C 0.84573 0.18497 0.57639 0.0
C957 C 0.86249 0.17957 0.55389 0.0
C958 C 0.84877 0.18309 0.52958 0.0
C959 C 0.81839 0.19258 0.52825 0.0
C960 C 0.81537 0.19419 0.57453 0.0
C961 C 0.80189 0.19807 0.55058 0.0
C962 C 0.8525 0.11625 0.67124 0.0
C963 C 0.86034 0.18129 0.60164 0.0
H964 H 0.85165 0.21167 0.80632 0.0
H965 H 0.91511 0.1742 0.85565 0.0
H966 H 0.92935 0.17456 0.77438 0.0
H967 H 0.94496 0.16192 0.81774 0.0
H968 H 0.88568 0.17204 0.55537 0.0
H969 H 0.80756 0.19609 0.50991 0.0
H970 H 0.80208 0.19837 0.59156 0.0
H971 H 0.77855 0.20536 0.54931 0.0
C972 C 0.36108 0.88336 0.0436 0.0
C973 C 0.32882 0.88811 0.05109 0.0
H974 H 0.42279 0.91106 0.03193 0.0
C975 C 0.33332 0.92497 0.04933 0.0
H976 H 0.35866 0.8554 0.04487 0.0
C977 C 0.36986 0.95666 0.04195 0.0
C978 C 0.40267 0.95227 0.03577 0.0
H979 H 0.30888 0.92955 0.05455 0.0
H980 H 0.37286 0.9849 0.04183 0.0
C981 C 0.3978 0.91522 0.03618 0.0
C982 C 0.15742 0.48948 0.04564 0.0
C983 C 0.15202 0.45374 0.05387 0.0
H984 H 0.12908 0.52124 0.03325 0.0
C985 C 0.11339 0.42153 0.05327 0.0
H986 H 0.18674 0.51488 0.04617 0.0
C987 C 0.08075 0.42507 0.04568 0.0
C988 C 0.08566 0.46087 0.03835 0.0
H989 H 0.10822 0.39363 0.05949 0.0
H990 H 0.05127 0.39977 0.04618 0.0
C991 C 0.12444 0.49311 0.03824 0.0
C992 C 0.53908 0.67592 0.04243 0.0
C993 C 0.57509 0.69972 0.05509 0.0
H994 H 0.50362 0.6232 0.02267 0.0
C995 C 0.60437 0.68873 0.05582 0.0
H996 H 0.51568 0.68319 0.0416 0.0
C997 C 0.59703 0.65397 0.04554 0.0
C998 C 0.56059 0.62969 0.03373 0.0
H999 H 0.63299 0.7068 0.0646 0.0
H1000 H 0.61986 0.64601 0.04705 0.0
C1001 C 0.53205 0.6414 0.03167 0.0
C1002 C 0.89403 0.35041 0.95368 0.0
C1003 C 0.87143 0.31845 0.97 0.0
H1004 H 0.94096 0.40906 0.95039 0.0
C1005 C 0.879 0.32246 0.99645 0.0
H1006 H 0.88862 0.3487 0.93327 0.0
C1007 C 0.90877 0.35729 1.00623 0.0
C1008 C 0.93175 0.38877 0.9898 0.0
H1009 H 0.86284 0.29836 0.00955 0.0
H1010 H 0.91466 0.35913 0.02651 0.0
C1011 C 0.92407 0.38503 0.96344 0.0
C1012 C 0.67977 0.52982 0.98504 0.0
C1013 C 0.71116 0.5654 0.97605 0.0
H1014 H 0.61813 0.49742 0.99711 0.0
C1015 C 0.705 0.59697 0.97517 0.0
H1016 H 0.68348 0.50489 0.98572 0.0
C1017 C 0.66797 0.59281 0.98192 0.0
C1018 C 0.63605 0.55703 0.98987 0.0
H1019 H 0.72862 0.6248 0.96849 0.0
H1020 H 0.66391 0.61749 0.98023 0.0
C1021 C 0.64239 0.52556 0.9916 0.0
C1022 C 0.46359 0.14634 0.99534 0.0
C1023 C 0.45966 0.1487 0.96869 0.0
H1024 H 0.47609 0.11873 0.02621 0.0
C1025 C 0.46873 0.12612 0.95265 0.0
H1026 H 0.45644 0.16295 0.0083 0.0
C1027 C 0.47956 0.10059 0.96299 0.0
C1028 C 0.48234 0.0974 0.98961 0.0
H1029 H 0.46704 0.12783 0.93201 0.0
H1030 H 0.48565 0.08318 0.95008 0.0
C1031 C 0.47494 0.121 1.00567 0.0
C1032 C 0.68022 0.08506 0.98771 0.0
C1033 C 0.69038 0.12371 0.98637 0.0
H1034 H 0.63381 0.02664 0.9927 0.0
C1035 C 0.66051 0.13327 0.99093 0.0
H1036 H 0.7026 0.07689 0.98429 0.0
C1037 C 0.62084 0.10427 0.99583 0.0
C1038 C 0.61078 0.06552 0.99649 0.0
H1039 H 0.66749 0.16287 0.98997 0.0
H1040 H 0.59794 0.112 0.9983 0.0
C1041 C 0.64089 0.05632 0.99254 0.0
C1042 C 0.88368 0.49372 0.98283 0.0
C1043 C 0.88275 0.52795 0.97979 0.0
H1044 H 0.91903 0.46761 0.99098 0.0
C1045 C 0.91825 0.5631 0.98274 0.0
H1046 H 0.85681 0.46626 0.98031 0.0
C1047 C 0.95428 0.56392 0.98793 0.0
C1048 C 0.95504 0.52962 0.99152 0.0
H1049 H 0.91847 0.58991 0.97998 0.0
H1050 H 0.98152 0.59135 0.98937 0.0
C1051 C 0.9193 0.49451 0.98896 0.0
C1052 C 0.52589 0.3573 0.99955 0.0
C1053 C 0.49198 0.33262 0.9856 0.0
H1054 H 0.56134 0.41304 0.01512 0.0
C1055 C 0.46696 0.34613 0.97656 0.0
H1056 H 0.54579 0.34771 1.00657 0.0
C1057 C 0.47565 0.38361 0.9816 0.0
C1058 C 0.50943 0.40821 0.99581 0.0
H1059 H 0.44056 0.3278 0.96566 0.0
H1060 H 0.45566 0.3931 0.97462 0.0
C1061 C 0.53464 0.3947 1.0045 0.0
C1062 C 0.13904 0.65068 0.07517 0.0
C1063 C 0.16579 0.68051 0.05872 0.0
H1064 H 0.09036 0.59302 0.07868 0.0
C1065 C 0.16327 0.67442 0.03218 0.0
H1066 H 0.14025 0.65465 0.09573 0.0
C1067 C 0.1347 0.63888 0.02238 0.0
C1068 C 0.10795 0.60897 0.03888 0.0
H1069 H 0.18334 0.69695 0.019 0.0
H1070 H 0.13318 0.63517 1.0019 0.0
C1071 C 0.1103 0.61544 0.06539 0.0
C1072 C 0.36116 0.45209 0.04815 0.0
C1073 C 0.36109 0.48676 0.05079 0.0
H1074 H 0.39644 0.4252 0.04138 0.0
C1075 C 0.3969 0.52143 0.04626 0.0
H1076 H 0.33414 0.42497 0.05194 0.0
C1077 C 0.43212 0.52154 0.0394 0.0
C1078 C 0.43264 0.48697 0.03763 0.0
H1079 H 0.3978 0.54858 0.04844 0.0
H1080 H 0.4593 0.5488 0.03662 0.0
C1081 C 0.3968 0.45224 0.04223 0.0
C1082 C 0.55465 0.90306 0.0756 0.0
C1083 C 0.54396 0.86893 0.06279 0.0
H1084 H 0.55639 0.95669 0.07524 0.0
C1085 C 0.52501 0.86238 0.03901 0.0
H1086 H 0.56922 0.90868 0.094 0.0
C1087 C 0.51649 0.88961 0.02842 0.0
C1088 C 0.52794 0.92429 0.04104 0.0
H1089 H 0.51604 0.83598 0.0289 0.0
H1090 H 0.50088 0.88337 0.01048 0.0
C1091 C 0.54723 0.93059 0.06475 0.0
C1092 C 0.02977 0.20991 0.37921 0.0
C1093 C 0.99653 0.21305 0.38683 0.0
H1094 H 0.0915 0.23992 0.36712 0.0
C1095 C 0.99897 0.24898 0.38452 0.0
H1096 H 0.02884 0.18263 0.38084 0.0
C1097 C 0.03445 0.28144 0.37651 0.0
C1098 C 0.06845 0.2789 0.37044 0.0
H1099 H 0.97375 0.25227 0.38987 0.0
H1100 H 0.03582 0.30899 0.37608 0.0
C1101 C 0.06559 0.24266 0.37129 0.0
C1102 C 0.77457 0.75366 0.38794 0.0
C1103 C 0.81281 0.78646 0.38755 0.0
H1104 H 0.71203 0.73012 0.38132 0.0
C1105 C 0.817 0.82137 0.37851 0.0
H1106 H 0.77039 0.72638 0.39478 0.0
C1107 C 0.78329 0.82366 0.37115 0.0
C1108 C 0.74496 0.79083 0.37196 0.0
H1109 H 0.84605 0.8472 0.37824 0.0
H1110 H 0.78709 0.85125 0.36547 0.0
C1111 C 0.74116 0.75582 0.38024 0.0
C1112 C 0.23639 1.00332 0.40822 0.0
C1113 C 0.24278 0.03502 0.39299 0.0
H1114 H 0.22334 0.94507 0.40929 0.0
C1115 C 0.23956 0.03093 0.36623 0.0
H1116 H 0.23763 0.00502 0.42893 0.0
C1117 C 0.23074 0.99617 0.35503 0.0
C1118 C 0.22533 0.96496 0.37027 0.0
H1119 H 0.24485 0.05483 0.35387 0.0
H1120 H 0.22933 0.9942 0.33444 0.0
C1121 C 0.22813 0.96887 0.39698 0.0
C1122 C 0.55579 0.67719 0.28714 0.0
C1123 C 0.5353 0.64454 0.30325 0.0
H1124 H 0.59979 0.7369 0.28403 0.0
C1125 C 0.5424 0.64882 0.32976 0.0
H1126 H 0.5505 0.67533 0.26671 0.0
C1127 C 0.57034 0.68448 0.33969 0.0
C1128 C 0.59192 0.71645 0.32333 0.0
H1129 H 0.52769 0.62432 0.34272 0.0
H1130 H 0.57624 0.68657 0.35999 0.0
C1131 C 0.58408 0.71253 0.29701 0.0
C1132 C 0.36874 0.93107 0.30796 0.0
C1133 C 0.37279 0.89829 0.30741 0.0
H1134 H 0.32997 0.95396 0.31436 0.0
C1135 C 0.33982 0.86269 0.31484 0.0
H1136 H 0.39358 0.95887 0.30237 0.0
C1137 C 0.30302 0.85978 0.3214 0.0
C1138 C 0.29888 0.89259 0.32132 0.0
H1139 H 0.34194 0.83688 0.31433 0.0
H1140 H 0.27757 0.83175 0.32567 0.0
C1141 C 0.33232 0.92825 0.31483 0.0
C1142 C 0.12878 0.4527 0.28706 0.0
C1143 C 0.12916 0.48204 0.30175 0.0
H1144 H 0.13571 0.4034 0.28627 0.0
C1145 C 0.13941 0.48436 0.32777 0.0
H1146 H 0.12256 0.45058 0.26676 0.0
C1147 C 0.14837 0.45775 0.33879 0.0
C1148 C 0.14624 0.42759 0.3243 0.0
H1149 H 0.13981 0.50625 0.33985 0.0
H1150 H 0.15626 0.46053 0.35873 0.0
C1151 C 0.13664 0.42561 0.29825 0.0
C1152 C 0.34767 0.44147 0.32556 0.0
C1153 C 0.35081 0.47774 0.32689 0.0
H1154 H 0.30914 0.38046 0.32744 0.0
C1155 C 0.31641 0.47981 0.33269 0.0
H1156 H 0.37361 0.43882 0.32126 0.0
C1157 C 0.27929 0.44618 0.33604 0.0
C1158 C 0.27619 0.40996 0.33428 0.0
H1159 H 0.31796 0.50738 0.33373 0.0
H1160 H 0.25295 0.44853 0.33938 0.0
C1161 C 0.31078 0.40801 0.32913 0.0
C1162 C 0.57754 0.89244 0.31578 0.0
C1163 C 0.54198 0.85743 0.31256 0.0
H1164 H 0.64068 0.92033 0.32279 0.0
C1165 C 0.54263 0.82305 0.31566 0.0
H1166 H 0.578 0.91935 0.31301 0.0
C1167 C 0.57804 0.82357 0.32204 0.0
C1168 C 0.61386 0.85855 0.32478 0.0
H1169 H 0.51571 0.7957 0.31295 0.0
H1170 H 0.5776 0.79657 0.32405 0.0
C1171 C 0.61336 0.89299 0.32122 0.0
C1172 C 0.13745 0.70061 0.28224 0.0
C1173 C 0.15244 0.67845 0.2931 0.0
H1174 H 0.13256 0.75099 0.28464 0.0
C1175 C 0.17549 0.69125 0.31529 0.0
H1176 H 0.1196 0.69125 0.26508 0.0
C1177 C 0.18384 0.72606 0.32621 0.0
C1178 C 0.16826 0.74807 0.31561 0.0
H1179 H 0.18779 0.67486 0.32386 0.0
H1180 H 0.20286 0.73581 0.34275 0.0
C1181 C 0.14487 0.73481 0.29351 0.0
C1182 C 0.8264 1.00108 0.36656 0.0
C1183 C 0.8299 0.00622 0.39319 0.0
H1184 H 0.7942 0.96349 0.33594 0.0
C1185 C 0.80238 0.97648 0.40942 0.0
H1186 H 0.847 0.02356 0.35354 0.0
C1187 C 0.77208 0.94223 0.39935 0.0
C1188 C 0.76889 0.93661 0.37275 0.0
H1189 H 0.80427 0.97972 0.43004 0.0
H1190 H 0.7517 0.91979 0.41248 0.0
C1191 C 0.79628 0.96651 0.35647 0.0
C1192 C 0.05992 0.86008 0.37541 0.0
C1193 C 0.02347 0.82568 0.37897 0.0
H1194 H 0.12248 0.88659 0.36627 0.0
C1195 C 0.02247 0.79071 0.3752 0.0
H1196 H 0.06156 0.88742 0.37839 0.0
C1197 C 0.05764 0.7902 0.36909 0.0
C1198 C 0.09412 0.82464 0.36549 0.0
H1199 H 0.99492 0.76376 0.37817 0.0
H1200 H 0.05642 0.76285 0.36729 0.0
C1201 C 0.09476 0.85961 0.36841 0.0
C1202 C 0.23806 0.24776 0.40982 0.0
C1203 C 0.22521 0.21199 0.3987 0.0
H1204 H 0.2389 0.30101 0.40816 0.0
C1205 C 0.20185 0.20225 0.37657 0.0
H1206 H 0.2561 0.25588 0.42691 0.0
C1207 C 0.19106 0.22789 0.36601 0.0
C1208 C 0.20433 0.26403 0.37701 0.0
H1209 H 0.1912 0.17461 0.36777 0.0
H1210 H 0.172 0.21916 0.34946 0.0
C1211 C 0.22812 0.27361 0.399 0.0
C1212 C 0.66462 0.58317 0.71825 0.0
C1213 C 0.66213 0.54714 0.72001 0.0
H1214 H 0.70147 0.64339 0.71049 0.0
C1215 C 0.6954 0.54425 0.71205 0.0
H1216 H 0.63941 0.58636 0.72379 0.0
C1217 C 0.7312 0.57721 0.70429 0.0
C1218 C 0.73408 0.61348 0.70403 0.0
H1219 H 0.6945 0.51696 0.71321 0.0
H1220 H 0.75708 0.57459 0.69973 0.0
C1221 C 0.70012 0.61584 0.71051 0.0
C1222 C 0.44607 0.08434 0.72005 0.0
C1223 C 0.48415 0.11731 0.72036 0.0
H1224 H 0.3836 0.06076 0.71314 0.0
C1225 C 0.48819 0.15259 0.71239 0.0
H1226 H 0.44202 0.0568 0.72616 0.0
C1227 C 0.45444 0.15497 0.70528 0.0
C1228 C 0.41628 0.12191 0.70529 0.0
H1229 H 0.51709 0.17854 0.71276 0.0
H1230 H 0.45806 0.18274 0.70037 0.0
C1231 C 0.41263 0.08662 0.71264 0.0
C1232 C 0.94233 0.35967 0.7224 0.0
C1233 C 0.91387 0.37171 0.72136 0.0
H1234 H 0.95613 0.31555 0.71453 0.0
C1235 C 0.87762 0.34823 0.70884 0.0
H1236 H 0.97115 0.37742 0.73104 0.0
C1237 C 0.86949 0.31296 0.69866 0.0
C1238 C 0.89716 0.30021 0.70117 0.0
H1239 H 0.85487 0.35633 0.70771 0.0
H1240 H 0.84089 0.29501 0.68978 0.0
C1241 C 0.93389 0.32424 0.71274 0.0
C1242 C 0.22637 0.00901 0.61818 0.0
C1243 C 0.20453 0.97642 0.63418 0.0
H1244 H 0.27166 0.06837 0.61535 0.0
C1245 C 0.21123 0.98048 0.66074 0.0
H1246 H 0.22155 0.0074 0.5977 0.0
C1247 C 0.23973 0.01579 0.67085 0.0
C1248 C 0.26235 0.0478 0.65468 0.0
H1249 H 0.1956 0.95605 0.67365 0.0
H1250 H 0.24509 0.01756 0.69121 0.0
C1251 C 0.25516 0.04406 0.62826 0.0
C1252 C 0.04025 0.26286 0.64462 0.0
C1253 C 0.04511 0.23053 0.64555 0.0
H1254 H 1.0007 0.28515 0.64972 0.0
C1255 C 1.01327 0.19559 0.65502 0.0
H1256 H 0.06429 0.29024 0.63762 0.0
C1257 C 0.97654 0.19261 0.66182 0.0
C1258 C 0.97135 0.22474 0.65978 0.0
H1259 H 0.01603 0.17012 0.65579 0.0
H1260 H 0.95181 0.16489 0.66759 0.0
C1261 C 1.00387 0.25997 0.65159 0.0
C1262 C 0.75546 0.77198 0.63972 0.0
C1263 C 0.78166 0.81193 0.64062 0.0
H1264 H 0.74606 0.71583 0.64771 0.0
C1265 C 0.81867 0.82543 0.65274 0.0
H1266 H 0.72611 0.76028 0.63145 0.0
C1267 C 0.82961 0.79961 0.66283 0.0
C1268 C 0.80409 0.75981 0.66059 0.0
H1269 H 0.83979 0.85587 0.65374 0.0
H1270 H 0.85861 0.81083 0.67156 0.0
C1271 C 0.76673 0.74633 0.64924 0.0
C1272 C 1.01216 0.77579 0.65647 0.0
C1273 C 0.01618 0.81242 0.65789 0.0
H1274 H 0.97258 0.7149 0.65814 0.0
C1275 C 0.98217 0.81519 0.6637 0.0
H1276 H 0.03773 0.77254 0.65215 0.0
C1277 C 0.94464 0.78195 0.66698 0.0
C1278 C 0.94069 0.74537 0.66514 0.0
H1279 H 0.98434 0.84302 0.6648 0.0
H1280 H 0.91866 0.78489 0.67027 0.0
C1281 C 0.97486 0.74272 0.65995 0.0
C1282 C 0.21424 0.15382 0.64893 0.0
C1283 C 0.2134 0.18817 0.64651 0.0
H1284 H 0.24945 0.12738 0.6565 0.0
C1285 C 0.24894 0.22319 0.64975 0.0
H1286 H 0.18733 0.12648 0.64617 0.0
C1287 C 0.28488 0.22378 0.65475 0.0
C1288 C 0.28551 0.18934 0.65785 0.0
H1289 H 0.24922 0.25009 0.64747 0.0
H1290 H 0.31215 0.25112 0.65651 0.0
C1291 C 0.24978 0.15435 0.65486 0.0
C1292 C 0.79915 0.01443 0.64633 0.0
C1293 C 0.82245 0.9997 0.65655 0.0
H1294 H 0.79038 0.06282 0.64281 0.0
C1295 C 0.856 0.02377 0.67102 0.0
H1296 H 0.77309 0.99664 0.635 0.0
C1297 C 0.86602 0.06173 0.67532 0.0
C1298 C 0.8425 0.07646 0.66543 0.0
H1299 H 0.87463 0.01327 0.67894 0.0
H1300 H 0.89239 0.07955 0.68637 0.0
C1301 C 0.80912 0.05245 0.6507 0.0
C1302 C 0.4712 0.30876 0.74307 0.0
C1303 C 0.49776 0.33883 0.72664 0.0
H1304 H 0.4219 0.25127 0.7465 0.0
C1305 C 0.49382 0.33344 0.70004 0.0
H1306 H 0.47341 0.31218 0.76367 0.0
C1307 C 0.46429 0.29836 0.69018 0.0
C1308 C 0.43796 0.26809 0.70666 0.0
H1309 H 0.5136 0.35615 0.68687 0.0
H1310 H 0.46181 0.2952 0.66966 0.0
C1311 C 0.44151 0.27394 0.73323 0.0
C1312 C 0.73122 0.19173 0.71035 0.0
C1313 C 0.69511 0.15715 0.71422 0.0
H1314 H 0.79409 0.21881 0.70245 0.0
C1315 C 0.69508 0.12235 0.71231 0.0
H1316 H 0.73213 0.21896 0.71199 0.0
C1317 C 0.73089 0.12229 0.70764 0.0
C1318 C 0.76702 0.15693 0.70362 0.0
H1319 H 0.66777 0.09531 0.71562 0.0
H1320 H 0.73043 0.09518 0.70723 0.0
C1321 C 0.76668 0.19163 0.7048 0.0
C1322 C 0.90157 0.58083 0.73991 0.0
C1323 C 0.8901 0.54603 0.72772 0.0
H1324 H 0.90164 0.63377 0.73954 0.0
C1325 C 0.86881 0.53798 0.70477 0.0
H1326 H 0.91799 0.58768 0.75765 0.0
C1327 C 0.85843 0.56417 0.69455 0.0
C1328 C 0.87011 0.59924 0.70674 0.0
H1329 H 0.85923 0.51112 0.69512 0.0
H1330 H 0.84084 0.55663 0.67735 0.0
C1331 C 0.89212 0.60727 0.72945 0.0
C1332 C 0.51541 0.96961 0.23276 0.0
C1333 C 0.47443 0.94313 0.23601 0.0
H1334 H 0.56169 0.01204 0.20857 0.0
C1335 C 0.44859 0.93858 0.21576 0.0
H1336 H 0.53618 0.97422 0.24798 0.0
C1337 C 0.46324 0.96067 0.19315 0.0
C1338 C 0.50406 0.988 0.19029 0.0
H1339 H 0.41692 0.91816 0.21747 0.0
H1340 H 0.44238 0.95716 0.17825 0.0
C1341 C 0.52999 0.9917 0.21024 0.0
C1342 C 0.02389 0.52125 0.23336 0.0
C1343 C 0.05256 0.5098 0.23607 0.0
H1344 H 0.98079 0.52363 0.20912 0.0
C1345 C 0.05731 0.48877 0.21639 0.0
H1346 H 0.01924 0.53711 0.24832 0.0
C1347 C 0.035 0.48069 0.19405 0.0
C1348 C 1.00747 0.49348 0.1909 0.0
H1349 H 0.07936 0.47978 0.21782 0.0
H1350 H 0.03978 0.46495 0.17906 0.0
C1351 C 1.00159 0.51319 0.21101 0.0
C1352 C 0.52699 0.57758 0.21319 0.0
C1353 C 0.51536 0.55185 0.23416 0.0
H1354 H 0.55024 0.59065 0.17474 0.0
C1355 C 0.51784 0.51836 0.23192 0.0
H1356 H 0.52509 0.60347 0.21433 0.0
C1357 C 0.53232 0.51108 0.2093 0.0
C1358 C 0.54418 0.53694 0.18839 0.0
H1359 H 0.5093 0.49816 0.24784 0.0
H1360 H 0.5341 0.48513 0.20813 0.0
C1361 C 0.54107 0.5701 0.19049 0.0
C1362 C 1.00833 0.45608 0.79661 0.0
C1363 C 0.9765 0.46324 0.79373 0.0
H1364 H 0.05467 0.45988 0.82064 0.0
C1365 C 0.96778 0.48103 0.81383 0.0
H1366 H 0.01625 0.44286 0.78144 0.0
C1367 C 0.99041 0.49156 0.83616 0.0
C1368 C 0.02222 0.48436 0.83905 0.0
H1369 H 0.94321 0.48659 0.81243 0.0
H1370 H 0.98322 0.50577 0.85104 0.0
C1371 C 0.03077 0.46636 0.819 0.0
C1372 C 0.58548 0.5182 0.81195 0.0
C1373 C 0.56039 0.49743 0.79168 0.0
H1374 H 0.58957 0.53973 0.84992 0.0
C1375 C 0.51902 0.48246 0.7946 0.0
H1376 H 0.61746 0.52985 0.81037 0.0
C1377 C 0.50306 0.48787 0.81724 0.0
C1378 C 0.52803 0.50838 0.83761 0.0
H1379 H 0.49888 0.46666 0.77928 0.0
H1380 H 0.471 0.47552 0.81889 0.0
C1381 C 0.56946 0.52348 0.8347 0.0
C1382 C 0.51969 0.08439 0.81377 0.0
C1383 C 0.53724 0.07544 0.79323 0.0
H1384 H 0.49486 0.06977 0.85193 0.0
C1385 C 0.54524 0.04524 0.79644 0.0
H1386 H 0.51336 0.10764 0.81192 0.0
C1387 C 0.53438 0.02345 0.81919 0.0
C1388 C 0.51571 0.03161 0.83943 0.0
H1389 H 0.5584 0.0374 0.78093 0.0
H1390 H 0.53997 0.9997 0.82081 0.0
C1391 C 0.50933 0.06289 0.83671 0.0
C1392 C 0.18331 0.29942 0.56819 0.0
C1393 C 0.14262 0.27244 0.57203 0.0
H1394 H 0.2281 0.34239 0.54346 0.0
C1395 C 0.11581 0.26706 0.55224 0.0
H1396 H 0.20476 0.30459 0.58306 0.0
C1397 C 0.12921 0.289 0.52952 0.0
C1398 C 0.16968 0.31702 0.52616 0.0
H1399 H 0.08433 0.24623 0.55447 0.0
H1400 H 0.10765 0.28497 0.51498 0.0
C1401 C 0.19664 0.32142 0.54558 0.0
C1402 C 0.67973 0.84691 0.56732 0.0
C1403 C 0.71143 0.83959 0.57004 0.0
H1404 H 0.63473 0.84519 0.54297 0.0
C1405 C 0.72031 0.82209 0.54986 0.0
H1406 H 0.67177 0.85987 0.58266 0.0
C1407 C 0.69857 0.81305 0.52719 0.0
C1408 C 0.66755 0.82136 0.52422 0.0
H1409 H 0.74472 0.81629 0.5513 0.0
H1410 H 0.70622 0.79973 0.51193 0.0
C1411 C 0.65814 0.83804 0.54467 0.0
C1412 C 0.1786 0.84655 0.5627 0.0
C1413 C 0.1796 0.88177 0.56497 0.0
H1414 H 0.1894 0.80977 0.53872 0.0
C1415 C 0.19273 0.90736 0.54386 0.0
H1416 H 0.16892 0.82637 0.57869 0.0
C1417 C 0.20448 0.89785 0.52094 0.0
C1418 C 0.20371 0.86272 0.51875 0.0
H1419 H 0.19352 0.93458 0.54497 0.0
H1420 H 0.21472 0.91824 0.50506 0.0
C1421 C 0.19064 0.83719 0.53988 0.0
C1422 C 0.6245 0.76549 0.14836 0.0
C1423 C 0.63498 0.79126 0.12751 0.0
H1424 H 0.63827 0.75619 0.18659 0.0
C1425 C 0.66838 0.82822 0.1294 0.0
H1426 H 0.59873 0.7369 0.14739 0.0
C1427 C 0.69116 0.83909 0.15165 0.0
C1428 C 0.68058 0.81341 0.17256 0.0
H1429 H 0.67717 0.84853 0.11353 0.0
H1430 H 0.71685 0.86772 0.15261 0.0
C1431 C 0.6469 0.77658 0.17077 0.0
C1432 C 0.18498 0.82718 0.12472 0.0
C1433 C 0.22615 0.84105 0.12182 0.0
H1434 H 0.13772 0.82234 0.14893 0.0
C1435 C 0.25166 0.86168 0.14195 0.0
H1436 H 0.16461 0.81144 0.10948 0.0
C1437 C 0.23627 0.86803 0.16454 0.0
C1438 C 0.19507 0.85414 0.16742 0.0
H1439 H 0.28348 0.87245 0.14037 0.0
H1440 H 0.25667 0.88413 0.17968 0.0
C1441 C 0.16964 0.83373 0.14722 0.0
C1442 C 0.15881 0.37373 0.13193 0.0
C1443 C 0.19699 0.40603 0.12805 0.0
H1444 H 0.11909 0.3277 0.15693 0.0
C1445 C 0.22483 0.41659 0.14796 0.0
H1446 H 0.13669 0.3643 0.11699 0.0
C1447 C 0.21465 0.39523 0.17107 0.0
C1448 C 0.1766 0.36256 0.17462 0.0
H1449 H 0.25442 0.44141 0.1457 0.0
H1450 H 0.23686 0.4037 0.18589 0.0
C1451 C 0.14879 0.35242 0.15481 0.0
C1452 C 0.78509 0.60563 0.88394 0.0
C1453 C 0.81159 0.6112 0.90397 0.0
H1454 H 0.77731 0.62344 0.84657 0.0
C1455 C 0.85224 0.63858 0.90042 0.0
H1456 H 0.75367 0.58449 0.88589 0.0
C1457 C 0.86581 0.66066 0.87784 0.0
C1458 C 0.83913 0.656 0.85815 0.0
H1459 H 0.87348 0.64393 0.91547 0.0
H1460 H 0.89725 0.68179 0.87594 0.0
C1461 C 0.79871 0.6277 0.86128 0.0
C1462 C 0.34483 0.17441 0.90025 0.0
C1463 C 0.37665 0.16726 0.90296 0.0
H1464 H 0.29973 0.17241 0.87584 0.0
C1465 C 0.38506 0.14906 0.88301 0.0
H1466 H 0.33721 0.18787 0.91543 0.0
C1467 C 0.36308 0.13955 0.86047 0.0
C1468 C 0.33236 0.1482 0.85733 0.0
H1469 H 0.40956 0.14338 0.8844 0.0
H1470 H 0.3706 0.12594 0.84534 0.0
C1471 C 0.32301 0.16511 0.87767 0.0
C1472 C 0.85081 0.24656 0.8806 0.0
C1473 C 0.83665 0.221 0.90172 0.0
H1474 H 0.87584 0.25799 0.84261 0.0
C1475 C 0.83513 0.18552 0.89984 0.0
H1476 H 0.852 0.27399 0.88145 0.0
C1477 C 0.8489 0.1764 0.87761 0.0
C1478 C 0.86401 0.2024 0.85673 0.0
H1479 H 0.82456 0.16536 0.91586 0.0
H1480 H 0.84803 0.14912 0.87683 0.0
C1481 C 0.86418 0.23729 0.85831 0.0
C1482 C 0.30617 0.10484 0.48159 0.0
C1483 C 0.31656 0.1308 0.46087 0.0
H1484 H 0.32 0.0951 0.51962 0.0
C1485 C 0.35041 0.1675 0.46263 0.0
H1486 H 0.28003 0.07647 0.48076 0.0
C1487 C 0.37343 0.17806 0.48478 0.0
C1488 C 0.36258 0.15228 0.50566 0.0
H1489 H 0.35909 0.18794 0.44685 0.0
H1490 H 0.39922 0.20661 0.48581 0.0
C1491 C 0.32881 0.11556 0.50384 0.0
C1492 C 0.9221 0.18524 0.47947 0.0
C1493 C 0.89646 0.16445 0.45942 0.0
H1494 H 0.92725 0.20738 0.51737 0.0
C1495 C 0.85521 0.14984 0.46272 0.0
H1496 H 0.95399 0.19661 0.47761 0.0
C1497 C 0.83992 0.15574 0.48547 0.0
C1498 C 0.86543 0.17644 0.50559 0.0
H1499 H 0.83465 0.13402 0.44759 0.0
H1500 H 0.80793 0.14375 0.48739 0.0
C1501 C 0.90674 0.19104 0.50235 0.0
C1502 C 0.84928 0.75507 0.48119 0.0
C1503 C 0.86748 0.74651 0.46081 0.0
H1504 H 0.8243 0.74046 0.51933 0.0
C1505 C 0.87667 0.71715 0.46444 0.0
H1506 H 0.84206 0.7777 0.47908 0.0
C1507 C 0.86631 0.69577 0.48738 0.0
C1508 C 0.84688 0.70342 0.50742 0.0
H1509 H 0.89035 0.70956 0.44912 0.0
H1510 H 0.87281 0.67263 0.48926 0.0
C1511 C 0.83937 0.73395 0.50431 0.0
loop_
_geom_bond_atom_site_label_1
_geom_bond_atom_site_label_2
_geom_bond_distance
_geom_bond_site_symmetry_2
_ccdc_geom_bond_type
H0 C5 0.930 . S
H1 C8 0.930 . S
H2 C10 0.930 . S
H3 C4 1.016 . S
C4 H3 1.016 . S
C4 N11 1.286 . S
C5 H0 0.930 . S
C5 C6 1.397 . S
C5 C7 1.361 . S
C6 C5 1.397 . S
C6 C10 1.390 . S
C7 C5 1.361 . S
C7 C8 1.393 . S
C7 N11 1.413 . S
C8 H1 0.930 . S
C8 C7 1.393 . S
C8 C9 1.399 . S
C9 C8 1.399 . S
C9 C10 1.381 . S
C10 H2 0.930 . S
C10 C6 1.390 . S
C10 C9 1.381 . S
N11 C4 1.286 . S
N11 C7 1.413 . S
H12 C17 0.930 . S
H13 C20 0.930 . S
H14 C22 0.930 . S
H15 C16 1.016 . S
C16 H15 1.016 . S
C16 N23 1.286 . S
C17 H12 0.930 . S
C17 C18 1.397 . S
C17 C19 1.361 . S
C18 C17 1.397 . S
C18 C22 1.390 . S
C19 C17 1.361 . S
C19 C20 1.393 . S
C19 N23 1.413 . S
C20 H13 0.930 . S
C20 C19 1.393 . S
C20 C21 1.399 . S
C21 C20 1.399 . S
C21 C22 1.381 . S
C22 H14 0.930 . S
C22 C18 1.390 . S
C22 C21 1.381 . S
N23 C16 1.286 . S
N23 C19 1.413 . S
H24 C29 0.930 . S
H25 C32 0.930 . S
H26 C34 0.930 . S
H27 C28 1.016 . S
C28 H27 1.016 . S
C28 N35 1.286 . S
C29 H24 0.930 . S
C29 C30 1.397 . S
C29 C31 1.361 . S
C30 C29 1.397 . S
C30 C34 1.390 . S
C31 C29 1.361 . S
C31 C32 1.393 . S
C31 N35 1.413 . S
C32 H25 0.930 . S
C32 C31 1.393 . S
C32 C33 1.399 . S
C33 C32 1.399 . S
C33 C34 1.381 . S
C34 H26 0.930 . S
C34 C30 1.390 . S
C34 C33 1.381 . S
N35 C28 1.286 . S
N35 C31 1.413 . S
H36 C41 0.930 . S
H37 C44 0.930 . S
H38 C46 0.930 . S
H39 C40 1.016 . S
C40 H39 1.016 . S
C40 N47 1.286 . S
C41 H36 0.930 . S
C41 C42 1.397 . S
C41 C43 1.361 . S
C42 C41 1.397 . S
C42 C46 1.390 . S
C43 C41 1.361 . S
C43 C44 1.393 . S
C43 N47 1.413 . S
C44 H37 0.930 . S
C44 C43 1.393 . S
C44 C45 1.399 . S
C45 C44 1.399 . S
C45 C46 1.381 . S
C46 H38 0.930 . S
C46 C42 1.390 . S
C46 C45 1.381 . S
N47 C40 1.286 . S
N47 C43 1.413 . S
H48 C53 0.930 . S
H49 C56 0.930 . S
H50 C58 0.930 . S
H51 C52 1.016 . S
C52 H51 1.016 . S
C52 N59 1.286 . S
C53 H48 0.930 . S
C53 C54 1.397 . S
C53 C55 1.361 . S
C54 C53 1.397 . S
C54 C58 1.390 . S
C55 C53 1.361 . S
C55 C56 1.393 . S
C55 N59 1.413 . S
C56 H49 0.930 . S
C56 C55 1.393 . S
C56 C57 1.399 . S
C57 C56 1.399 . S
C57 C58 1.381 . S
C58 H50 0.930 . S
C58 C54 1.390 . S
C58 C57 1.381 . S
N59 C52 1.286 . S
N59 C55 1.413 . S
H60 C65 0.930 . S
H61 C68 0.930 . S
H62 C70 0.930 . S
H63 C64 1.016 . S
C64 H63 1.016 . S
C64 N71 1.286 . S
C65 H60 0.930 . S
C65 C66 1.397 . S
C65 C67 1.361 . S
C66 C65 1.397 . S
C66 C70 1.390 . S
C67 C65 1.361 . S
C67 C68 1.393 . S
C67 N71 1.413 . S
C68 H61 0.930 . S
C68 C67 1.393 . S
C68 C69 1.399 . S
C69 C68 1.399 . S
C69 C70 1.381 . S
C70 H62 0.930 . S
C70 C66 1.390 . S
C70 C69 1.381 . S
N71 C64 1.286 . S
N71 C67 1.413 . S
H72 C77 0.930 . S
H73 C80 0.930 . S
H74 C82 0.930 . S
H75 C76 1.016 . S
C76 H75 1.016 . S
C76 N83 1.286 . S
C77 H72 0.930 . S
C77 C78 1.397 . S
C77 C79 1.361 . S
C78 C77 1.397 . S
C78 C82 1.390 . S
C79 C77 1.361 . S
C79 C80 1.393 . S
C79 N83 1.413 . S
C80 H73 0.930 . S
C80 C79 1.393 . S
C80 C81 1.399 . S
C81 C80 1.399 . S
C81 C82 1.381 . S
C82 H74 0.930 . S
C82 C78 1.390 . S
C82 C81 1.381 . S
N83 C76 1.286 . S
N83 C79 1.413 . S
H84 C89 0.930 . S
H85 C92 0.930 . S
H86 C94 0.930 . S
H87 C88 1.016 . S
C88 H87 1.016 . S
C88 N95 1.286 . S
C89 H84 0.930 . S
C89 C90 1.397 . S
C89 C91 1.361 . S
C90 C89 1.397 . S
C90 C94 1.390 . S
C91 C89 1.361 . S
C91 C92 1.393 . S
C91 N95 1.413 . S
C92 H85 0.930 . S
C92 C91 1.393 . S
C92 C93 1.399 . S
C93 C92 1.399 . S
C93 C94 1.381 . S
C94 H86 0.930 . S
C94 C90 1.390 . S
C94 C93 1.381 . S
N95 C88 1.286 . S
N95 C91 1.413 . S
H96 C101 0.930 . S
H97 C104 0.930 . S
H98 C106 0.930 . S
H99 C100 1.016 . S
C100 H99 1.016 . S
C100 N107 1.286 . S
C101 H96 0.930 . S
C101 C102 1.397 . S
C101 C103 1.361 . S
C102 C101 1.397 . S
C102 C106 1.390 . S
C103 C101 1.361 . S
C103 C104 1.393 . S
C103 N107 1.413 . S
C104 H97 0.930 . S
C104 C103 1.393 . S
C104 C105 1.399 . S
C105 C104 1.399 . S
C105 C106 1.381 . S
C106 H98 0.930 . S
C106 C102 1.390 . S
C106 C105 1.381 . S
N107 C100 1.286 . S
N107 C103 1.413 . S
H108 C113 0.930 . S
H109 C116 0.930 . S
H110 C118 0.930 . S
H111 C112 1.016 . S
C112 H111 1.016 . S
C112 N119 1.286 . S
C113 H108 0.930 . S
C113 C114 1.397 . S
C113 C115 1.361 . S
C114 C113 1.397 . S
C114 C118 1.390 . S
C115 C113 1.361 . S
C115 C116 1.393 . S
C115 N119 1.413 . S
C116 H109 0.930 . S
C116 C115 1.393 . S
C116 C117 1.399 . S
C117 C116 1.399 . S
C117 C118 1.381 . S
C118 H110 0.930 . S
C118 C114 1.390 . S
C118 C117 1.381 . S
N119 C112 1.286 . S
N119 C115 1.413 . S
H120 C125 0.930 . S
H121 C128 0.930 . S
H122 C130 0.930 . S
H123 C124 1.016 . S
C124 H123 1.016 . S
C124 N131 1.286 . S
C125 H120 0.930 . S
C125 C126 1.397 . S
C125 C127 1.361 . S
C126 C125 1.397 . S
C126 C130 1.390 . S
C127 C125 1.361 . S
C127 C128 1.393 . S
C127 N131 1.413 . S
C128 H121 0.930 . S
C128 C127 1.393 . S
C128 C129 1.399 . S
C129 C128 1.399 . S
C129 C130 1.381 . S
C130 H122 0.930 . S
C130 C126 1.390 . S
C130 C129 1.381 . S
N131 C124 1.286 . S
N131 C127 1.413 . S
H132 C137 0.930 . S
H133 C140 0.930 . S
H134 C142 0.930 . S
H135 C136 1.016 . S
C136 H135 1.016 . S
C136 N143 1.286 . S
C137 H132 0.930 . S
C137 C138 1.397 . S
C137 C139 1.361 . S
C138 C137 1.397 . S
C138 C142 1.390 . S
C139 C137 1.361 . S
C139 C140 1.393 . S
C139 N143 1.413 . S
C140 H133 0.930 . S
C140 C139 1.393 . S
C140 C141 1.399 . S
C141 C140 1.399 . S
C141 C142 1.381 . S
C142 H134 0.930 . S
C142 C138 1.390 . S
C142 C141 1.381 . S
N143 C136 1.286 . S
N143 C139 1.413 . S
H144 C149 0.930 . S
H145 C152 0.930 . S
H146 C154 0.930 . S
H147 C148 1.016 . S
C148 H147 1.016 . S
C148 N155 1.286 . S
C149 H144 0.930 . S
C149 C150 1.397 . S
C149 C151 1.361 . S
C150 C149 1.397 . S
C150 C154 1.390 . S
C151 C149 1.361 . S
C151 C152 1.393 . S
C151 N155 1.413 . S
C152 H145 0.930 . S
C152 C151 1.393 . S
C152 C153 1.399 . S
C153 C152 1.399 . S
C153 C154 1.381 . S
C154 H146 0.930 . S
C154 C150 1.390 . S
C154 C153 1.381 . S
N155 C148 1.286 . S
N155 C151 1.413 . S
H156 C161 0.930 . S
H157 C164 0.930 . S
H158 C166 0.930 . S
H159 C160 1.016 . S
C160 H159 1.016 . S
C160 N167 1.286 . S
C161 H156 0.930 . S
C161 C162 1.397 . S
C161 C163 1.361 . S
C162 C161 1.397 . S
C162 C166 1.390 . S
C163 C161 1.361 . S
C163 C164 1.393 . S
C163 N167 1.413 . S
C164 H157 0.930 . S
C164 C163 1.393 . S
C164 C165 1.399 . S
C165 C164 1.399 . S
C165 C166 1.381 . S
C166 H158 0.930 . S
C166 C162 1.390 . S
C166 C165 1.381 . S
N167 C160 1.286 . S
N167 C163 1.413 . S
H168 C173 0.930 . S
H169 C176 0.930 . S
H170 C178 0.930 . S
H171 C172 1.016 . S
C172 H171 1.016 . S
C172 N179 1.286 . S
C173 H168 0.930 . S
C173 C174 1.397 . S
C173 C175 1.361 . S
C174 C173 1.397 . S
C174 C178 1.390 . S
C175 C173 1.361 . S
C175 C176 1.393 . S
C175 N179 1.413 . S
C176 H169 0.930 . S
C176 C175 1.393 . S
C176 C177 1.399 . S
C177 C176 1.399 . S
C177 C178 1.381 . S
C178 H170 0.930 . S
C178 C174 1.390 . S
C178 C177 1.381 . S
N179 C172 1.286 . S
N179 C175 1.413 . S
H180 C185 0.930 . S
H181 C188 0.930 . S
H182 C190 0.930 . S
H183 C184 1.016 . S
C184 H183 1.016 . S
C184 N191 1.286 . S
C185 H180 0.930 . S
C185 C186 1.397 . S
C185 C187 1.361 . S
C186 C185 1.397 . S
C186 C190 1.390 . S
C187 C185 1.361 . S
C187 C188 1.393 . S
C187 N191 1.413 . S
C188 H181 0.930 . S
C188 C187 1.393 . S
C188 C189 1.399 . S
C189 C188 1.399 . S
C189 C190 1.381 . S
C190 H182 0.930 . S
C190 C186 1.390 . S
C190 C189 1.381 . S
N191 C184 1.286 . S
N191 C187 1.413 . S
H192 C197 0.930 . S
H193 C200 0.930 . S
H194 C202 0.930 . S
H195 C196 1.016 . S
C196 H195 1.016 . S
C196 N203 1.286 . S
C197 H192 0.930 . S
C197 C198 1.397 . S
C197 C199 1.361 . S
C198 C197 1.397 . S
C198 C202 1.390 . S
C199 C197 1.361 . S
C199 C200 1.393 . S
C199 N203 1.413 . S
C200 H193 0.930 . S
C200 C199 1.393 . S
C200 C201 1.399 . S
C201 C200 1.399 . S
C201 C202 1.381 . S
C202 H194 0.930 . S
C202 C198 1.390 . S
C202 C201 1.381 . S
N203 C196 1.286 . S
N203 C199 1.413 . S
H204 C209 0.930 . S
H205 C212 0.930 . S
H206 C214 0.930 . S
H207 C208 1.016 . S
C208 H207 1.016 . S
C208 N215 1.286 . S
C209 H204 0.930 . S
C209 C210 1.397 . S
C209 C211 1.361 . S
C210 C209 1.397 . S
C210 C214 1.390 . S
C211 C209 1.361 . S
C211 C212 1.393 . S
C211 N215 1.413 . S
C212 H205 0.930 . S
C212 C211 1.393 . S
C212 C213 1.399 . S
C213 C212 1.399 . S
C213 C214 1.381 . S
C214 H206 0.930 . S
C214 C210 1.390 . S
C214 C213 1.381 . S
N215 C208 1.286 . S
N215 C211 1.413 . S
Eu216 N247 2.657 . S
Eu216 N254 2.609 . S
Eu216 O260 2.558 . S
Eu216 O261 2.612 1_566 S
Eu216 O263 2.339 1_565 S
Eu216 O264 2.563 1_565 S
Eu216 O265 2.419 1_565 S
Eu216 O267 2.380 1_556 S
Eu216 O268 2.432 . S
Eu216 C280 2.848 . S
C217 C220 1.429 . S
C217 C221 1.411 . S
C217 N224 1.377 . S
C218 C220 1.420 . S
C218 C222 1.423 . S
C218 C230 1.392 . S
C219 C221 1.420 . S
C219 C222 1.351 . S
C219 H242 0.931 . S
C220 C217 1.429 . S
C220 C218 1.420 . S
C220 N228 1.362 . S
C221 C217 1.411 . S
C221 C219 1.420 . S
C221 C226 1.395 . S
C222 C218 1.423 . S
C222 C219 1.351 . S
C222 H234 0.930 . S
C223 C225 1.400 . S
C223 C226 1.386 . S
C223 H235 0.930 . S
N224 C217 1.377 . S
N224 C225 1.321 . S
N224 Eu227 2.609 . S
C225 C223 1.400 . S
C225 N224 1.321 . S
C225 H232 0.930 . S
C226 C221 1.395 . S
C226 C223 1.386 . S
C226 H245 0.930 . S
Eu227 N224 2.609 . S
Eu227 N228 2.657 . S
Eu227 O261 2.380 . S
Eu227 O262 2.432 . S
Eu227 O266 2.558 . S
Eu227 O267 2.612 1_545 S
Eu227 O269 2.339 1_545 S
Eu227 O270 2.563 1_545 S
Eu227 O271 2.419 1_545 S
Eu227 C291 2.848 . S
N228 C220 1.362 . S
N228 Eu227 2.657 . S
N228 C229 1.334 . S
C229 N228 1.334 . S
C229 C231 1.413 . S
C229 H236 0.929 . S
C230 C218 1.392 . S
C230 C231 1.367 . S
C230 H238 0.930 . S
C231 C229 1.413 . S
C231 C230 1.367 . S
C231 H233 0.930 . S
H232 C225 0.930 . S
H233 C231 0.930 . S
H234 C222 0.930 . S
H235 C223 0.930 . S
H236 C229 0.929 . S
H237 C251 0.930 . S
H238 C230 0.930 . S
H239 C257 0.930 . S
H240 C248 0.929 . S
H241 C255 0.930 . S
H242 C219 0.931 . S
H243 C249 0.930 . S
H244 C282 0.930 . S
H245 C226 0.930 . S
H246 C281 0.931 . S
N247 Eu216 2.657 . S
N247 C248 1.334 . S
N247 C252 1.362 . S
C248 H240 0.929 . S
C248 N247 1.334 . S
C248 C251 1.413 . S
C249 H243 0.930 . S
C249 C250 1.392 . S
C249 C251 1.367 . S
C250 C249 1.392 . S
C250 C252 1.420 . S
C250 C282 1.423 . S
C251 H237 0.930 . S
C251 C248 1.413 . S
C251 C249 1.367 . S
C252 N247 1.362 . S
C252 C250 1.420 . S
C252 C256 1.429 . S
H253 C258 0.930 . S
N254 Eu216 2.609 . S
N254 C256 1.377 . S
N254 C257 1.321 . S
C255 H241 0.930 . S
C255 C257 1.400 . S
C255 C258 1.386 . S
C256 C252 1.429 . S
C256 N254 1.377 . S
C256 C259 1.411 . S
C257 H239 0.930 . S
C257 N254 1.321 . S
C257 C255 1.400 . S
C258 H253 0.930 . S
C258 C255 1.386 . S
C258 C259 1.395 . S
C259 C256 1.411 . S
C259 C258 1.395 . S
C259 C281 1.420 . S
O260 Eu216 2.558 . S
O260 C280 1.257 . S
O261 Eu216 2.612 1_544 S
O261 Eu227 2.380 . S
O261 C272 1.276 1_554 S
O262 Eu227 2.432 . S
O262 C279 1.264 1_554 S
O263 Eu216 2.339 1_545 S
O263 C279 1.254 . S
O264 Eu216 2.563 1_545 S
O264 C272 1.235 . S
O265 Eu216 2.419 1_545 S
O265 C280 1.249 1_545 S
O266 Eu227 2.558 . S
O266 C291 1.257 . S
O267 Eu216 2.380 1_554 S
O267 Eu227 2.612 1_565 S
O267 C283 1.276 . S
O268 Eu216 2.432 . S
O268 C290 1.264 1_556 S
O269 Eu227 2.339 1_565 S
O269 C290 1.254 . S
O270 Eu227 2.563 1_565 S
O270 C283 1.235 . S
O271 Eu227 2.419 1_565 S
O271 C291 1.249 1_565 S
C272 O261 1.276 1_556 S
C272 O264 1.235 . S
C273 C275 1.393 . S
C273 C277 1.395 1_545 S
C273 C280 1.492 1_545 S
C274 C275 1.392 . S
C274 C276 1.386 . S
C275 C273 1.393 . S
C275 C274 1.392 . S
C275 H292 0.930 . S
C276 C274 1.386 . S
C276 C278 1.395 1_545 S
C276 H293 0.930 . S
C277 C273 1.395 1_565 S
C277 C278 1.379 . S
C277 H294 0.930 . S
C278 C276 1.395 1_565 S
C278 C277 1.379 . S
C278 H295 0.930 . S
C279 O262 1.264 1_556 S
C279 O263 1.254 . S
C280 Eu216 2.848 . S
C280 O260 1.257 . S
C280 O265 1.249 1_565 S
C280 C273 1.492 1_565 S
C281 H246 0.931 . S
C281 C259 1.420 . S
C281 C282 1.351 . S
C282 H244 0.930 . S
C282 C250 1.423 . S
C282 C281 1.351 . S
C283 O267 1.276 . S
C283 O270 1.235 . S
C284 C285 1.393 1_545 S
C284 C288 1.395 . S
C284 C291 1.492 . S
C285 C284 1.393 1_565 S
C285 C286 1.392 . S
C285 H296 0.930 . S
C286 C285 1.392 . S
C286 C287 1.386 . S
C287 C286 1.386 . S
C287 C289 1.395 1_565 S
C287 H297 0.930 . S
C288 C284 1.395 . S
C288 C289 1.379 . S
C288 H298 0.930 . S
C289 C287 1.395 1_545 S
C289 C288 1.379 . S
C289 H299 0.930 . S
C290 O268 1.264 1_554 S
C290 O269 1.254 . S
C291 Eu227 2.848 . S
C291 O266 1.257 . S
C291 O271 1.249 1_545 S
C291 C284 1.492 . S
H292 C275 0.930 . S
H293 C276 0.930 . S
H294 C277 0.930 . S
H295 C278 0.930 . S
H296 C285 0.930 . S
H297 C287 0.930 . S
H298 C288 0.930 . S
H299 C289 0.930 . S
Eu300 N331 2.657 . S
Eu300 N338 2.609 . S
Eu300 O344 2.558 . S
Eu300 O345 2.612 1_456 S
Eu300 O347 2.339 1_455 S
Eu300 O348 2.563 1_455 S
Eu300 O349 2.419 1_455 S
Eu300 O351 2.380 1_556 S
Eu300 O352 2.432 . S
Eu300 C364 2.848 . S
C301 C304 1.429 . S
C301 C305 1.411 . S
C301 N308 1.377 . S
C302 C304 1.420 . S
C302 C306 1.423 . S
C302 C314 1.392 . S
C303 C305 1.420 . S
C303 C306 1.351 . S
C303 H326 0.931 . S
C304 C301 1.429 . S
C304 C302 1.420 . S
C304 N312 1.362 . S
C305 C301 1.411 . S
C305 C303 1.420 . S
C305 C310 1.395 . S
C306 C302 1.423 . S
C306 C303 1.351 . S
C306 H318 0.930 . S
C307 C309 1.400 . S
C307 C310 1.386 . S
C307 H319 0.930 . S
N308 C301 1.377 . S
N308 C309 1.321 . S
N308 Eu311 2.609 . S
C309 C307 1.400 . S
C309 N308 1.321 . S
C309 H316 0.930 . S
C310 C305 1.395 . S
C310 C307 1.386 . S
C310 H329 0.930 . S
Eu311 N308 2.609 . S
Eu311 N312 2.657 . S
Eu311 O345 2.380 . S
Eu311 O346 2.432 . S
Eu311 O350 2.558 . S
Eu311 O351 2.612 1_655 S
Eu311 O353 2.339 1_655 S
Eu311 O354 2.563 1_655 S
Eu311 O355 2.419 1_655 S
Eu311 C375 2.848 . S
N312 C304 1.362 . S
N312 Eu311 2.657 . S
N312 C313 1.334 . S
C313 N312 1.334 . S
C313 C315 1.413 . S
C313 H320 0.929 . S
C314 C302 1.392 . S
C314 C315 1.367 . S
C314 H322 0.930 . S
C315 C313 1.413 . S
C315 C314 1.367 . S
C315 H317 0.930 . S
H316 C309 0.930 . S
H317 C315 0.930 . S
H318 C306 0.930 . S
H319 C307 0.930 . S
H320 C313 0.929 . S
H321 C335 0.930 . S
H322 C314 0.930 . S
H323 C341 0.930 . S
H324 C332 0.929 . S
H325 C339 0.930 . S
H326 C303 0.931 . S
H327 C333 0.930 . S
H328 C366 0.930 . S
H329 C310 0.930 . S
H330 C365 0.931 . S
N331 Eu300 2.657 . S
N331 C332 1.334 . S
N331 C336 1.362 . S
C332 H324 0.929 . S
C332 N331 1.334 . S
C332 C335 1.413 . S
C333 H327 0.930 . S
C333 C334 1.392 . S
C333 C335 1.367 . S
C334 C333 1.392 . S
C334 C336 1.420 . S
C334 C366 1.423 . S
C335 H321 0.930 . S
C335 C332 1.413 . S
C335 C333 1.367 . S
C336 N331 1.362 . S
C336 C334 1.420 . S
C336 C340 1.429 . S
H337 C342 0.930 . S
N338 Eu300 2.609 . S
N338 C340 1.377 . S
N338 C341 1.321 . S
C339 H325 0.930 . S
C339 C341 1.400 . S
C339 C342 1.386 . S
C340 C336 1.429 . S
C340 N338 1.377 . S
C340 C343 1.411 . S
C341 H323 0.930 . S
C341 N338 1.321 . S
C341 C339 1.400 . S
C342 H337 0.930 . S
C342 C339 1.386 . S
C342 C343 1.395 . S
C343 C340 1.411 . S
C343 C342 1.395 . S
C343 C365 1.420 . S
O344 Eu300 2.558 . S
O344 C364 1.257 . S
O345 Eu300 2.612 1_654 S
O345 Eu311 2.380 . S
O345 C356 1.276 1_554 S
O346 Eu311 2.432 . S
O346 C363 1.264 1_554 S
O347 Eu300 2.339 1_655 S
O347 C363 1.254 . S
O348 Eu300 2.563 1_655 S
O348 C356 1.235 . S
O349 Eu300 2.419 1_655 S
O349 C364 1.249 1_655 S
O350 Eu311 2.558 . S
O350 C375 1.257 . S
O351 Eu300 2.380 1_554 S
O351 Eu311 2.612 1_455 S
O351 C367 1.276 . S
O352 Eu300 2.432 . S
O352 C374 1.264 1_556 S
O353 Eu311 2.339 1_455 S
O353 C374 1.254 . S
O354 Eu311 2.563 1_455 S
O354 C367 1.235 . S
O355 Eu311 2.419 1_455 S
O355 C375 1.249 1_455 S
C356 O345 1.276 1_556 S
C356 O348 1.235 . S
C357 C359 1.393 1_455 S
C357 C361 1.395 . S
C357 C364 1.492 . S
C358 C359 1.392 . S
C358 C360 1.386 . S
C359 C357 1.393 1_655 S
C359 C358 1.392 . S
C359 H376 0.930 . S
C360 C358 1.386 . S
C360 C362 1.395 1_655 S
C360 H377 0.930 . S
C361 C357 1.395 . S
C361 C362 1.379 . S
C361 H378 0.930 . S
C362 C360 1.395 1_455 S
C362 C361 1.379 . S
C362 H379 0.930 . S
C363 O346 1.264 1_556 S
C363 O347 1.254 . S
C364 Eu300 2.848 . S
C364 O344 1.257 . S
C364 O349 1.249 1_455 S
C364 C357 1.492 . S
C365 H330 0.931 . S
C365 C343 1.420 . S
C365 C366 1.351 . S
C366 H328 0.930 . S
C366 C334 1.423 . S
C366 C365 1.351 . S
C367 O351 1.276 . S
C367 O354 1.235 . S
C368 C369 1.413 . S
C368 C372 1.384 1_455 S
C368 C375 1.484 1_455 S
C369 C368 1.413 . S
C369 C370 1.392 . S
C369 H380 0.930 . S
C370 C369 1.392 . S
C370 C371 1.386 . S
C371 C370 1.386 . S
C371 C373 1.395 1_455 S
C371 H381 0.930 . S
C372 C368 1.384 1_655 S
C372 C373 1.379 . S
C372 H382 0.930 . S
C373 C371 1.395 1_655 S
C373 C372 1.379 . S
C373 H383 0.930 . S
C374 O352 1.264 1_554 S
C374 O353 1.254 . S
C375 Eu311 2.848 . S
C375 O350 1.257 . S
C375 O355 1.249 1_655 S
C375 C368 1.484 1_655 S
H376 C359 0.930 . S
H377 C360 0.930 . S
H378 C361 0.930 . S
H379 C362 0.930 . S
H380 C369 0.930 . S
H381 C371 0.930 . S
H382 C372 0.930 . S
H383 C373 0.930 . S
Eu384 N415 2.657 . S
Eu384 N422 2.609 . S
Eu384 O428 2.558 . S
Eu384 O429 2.612 . S
Eu384 O431 2.339 . S
Eu384 O432 2.563 . S
Eu384 O433 2.419 . S
Eu384 O435 2.380 . S
Eu384 O436 2.432 . S
Eu384 C448 2.848 . S
C385 C388 1.429 . S
C385 C389 1.411 . S
C385 N392 1.377 . S
C386 C388 1.420 . S
C386 C390 1.423 . S
C386 C398 1.392 . S
C387 C389 1.420 . S
C387 C390 1.351 . S
C387 H410 0.931 . S
C388 C385 1.429 . S
C388 C386 1.420 . S
C388 N396 1.362 . S
C389 C385 1.411 . S
C389 C387 1.420 . S
C389 C394 1.395 . S
C390 C386 1.423 . S
C390 C387 1.351 . S
C390 H402 0.930 . S
C391 C393 1.400 . S
C391 C394 1.386 . S
C391 H403 0.930 . S
N392 C385 1.377 . S
N392 C393 1.321 . S
N392 Eu395 2.609 . S
C393 C391 1.400 . S
C393 N392 1.321 . S
C393 H400 0.930 . S
C394 C389 1.395 . S
C394 C391 1.386 . S
C394 H413 0.930 . S
Eu395 N392 2.609 . S
Eu395 N396 2.657 . S
Eu395 O429 2.380 1_556 S
Eu395 O430 2.432 . S
Eu395 O434 2.558 . S
Eu395 O435 2.612 1_556 S
Eu395 O437 2.339 . S
Eu395 O438 2.563 . S
Eu395 O439 2.419 . S
Eu395 C459 2.848 . S
N396 C388 1.362 . S
N396 Eu395 2.657 . S
N396 C397 1.334 . S
C397 N396 1.334 . S
C397 C399 1.413 . S
C397 H404 0.929 . S
C398 C386 1.392 . S
C398 C399 1.367 . S
C398 H406 0.930 . S
C399 C397 1.413 . S
C399 C398 1.367 . S
C399 H401 0.930 . S
H400 C393 0.930 . S
H401 C399 0.930 . S
H402 C390 0.930 . S
H403 C391 0.930 . S
H404 C397 0.929 . S
H405 C419 0.930 . S
H406 C398 0.930 . S
H407 C425 0.930 . S
H408 C416 0.929 . S
H409 C423 0.930 . S
H410 C387 0.931 . S
H411 C417 0.930 . S
H412 C450 0.930 . S
H413 C394 0.930 . S
H414 C449 0.931 . S
N415 Eu384 2.657 . S
N415 C416 1.334 . S
N415 C420 1.362 . S
C416 H408 0.929 . S
C416 N415 1.334 . S
C416 C419 1.413 . S
C417 H411 0.930 . S
C417 C418 1.392 . S
C417 C419 1.367 . S
C418 C417 1.392 . S
C418 C420 1.420 . S
C418 C450 1.423 . S
C419 H405 0.930 . S
C419 C416 1.413 . S
C419 C417 1.367 . S
C420 N415 1.362 . S
C420 C418 1.420 . S
C420 C424 1.429 . S
H421 C426 0.930 . S
N422 Eu384 2.609 . S
N422 C424 1.377 . S
N422 C425 1.321 . S
C423 H409 0.930 . S
C423 C425 1.400 . S
C423 C426 1.386 . S
C424 C420 1.429 . S
C424 N422 1.377 . S
C424 C427 1.411 . S
C425 H407 0.930 . S
C425 N422 1.321 . S
C425 C423 1.400 . S
C426 H421 0.930 . S
C426 C423 1.386 . S
C426 C427 1.395 . S
C427 C424 1.411 . S
C427 C426 1.395 . S
C427 C449 1.420 . S
O428 Eu384 2.558 . S
O428 C448 1.257 . S
O429 Eu384 2.612 . S
O429 Eu395 2.380 1_554 S
O429 C440 1.276 . S
O430 Eu395 2.432 . S
O430 C447 1.264 1_556 S
O431 Eu384 2.339 . S
O431 C447 1.254 . S
O432 Eu384 2.563 . S
O432 C440 1.235 . S
O433 Eu384 2.419 . S
O433 C448 1.249 . S
O434 Eu395 2.558 . S
O434 C459 1.257 . S
O435 Eu384 2.380 . S
O435 Eu395 2.612 1_554 S
O435 C451 1.276 1_554 S
O436 Eu384 2.432 . S
O436 C458 1.264 1_554 S
O437 Eu395 2.339 . S
O437 C458 1.254 . S
O438 Eu395 2.563 . S
O438 C451 1.235 . S
O439 Eu395 2.419 . S
O439 C459 1.249 . S
C440 O429 1.276 . S
C440 O432 1.235 . S
C441 C443 1.393 . S
C441 C445 1.395 . S
C441 C448 1.492 . S
C442 C443 1.392 . S
C442 C444 1.386 . S
C443 C441 1.393 . S
C443 C442 1.392 . S
C443 H460 0.930 . S
C444 C442 1.386 . S
C444 C446 1.395 . S
C444 H461 0.930 . S
C445 C441 1.395 . S
C445 C446 1.379 . S
C445 H462 0.930 . S
C446 C444 1.395 . S
C446 C445 1.379 . S
C446 H463 0.930 . S
C447 O430 1.264 1_554 S
C447 O431 1.254 . S
C448 Eu384 2.848 . S
C448 O428 1.257 . S
C448 O433 1.249 . S
C448 C441 1.492 . S
C449 H414 0.931 . S
C449 C427 1.420 . S
C449 C450 1.351 . S
C450 H412 0.930 . S
C450 C418 1.423 . S
C450 C449 1.351 . S
C451 O435 1.276 1_556 S
C451 O438 1.235 . S
C452 C453 1.393 . S
C452 C456 1.395 . S
C452 C459 1.492 . S
C453 C452 1.393 . S
C453 C454 1.392 . S
C453 H464 0.930 . S
C454 C453 1.392 . S
C454 C455 1.386 . S
C455 C454 1.386 . S
C455 C457 1.395 . S
C455 H465 0.930 . S
C456 C452 1.395 . S
C456 C457 1.379 . S
C456 H466 0.930 . S
C457 C455 1.395 . S
C457 C456 1.379 . S
C457 H467 0.930 . S
C458 O436 1.264 1_556 S
C458 O437 1.254 . S
C459 Eu395 2.848 . S
C459 O434 1.257 . S
C459 O439 1.249 . S
C459 C452 1.492 . S
H460 C443 0.930 . S
H461 C444 0.930 . S
H462 C445 0.930 . S
H463 C446 0.930 . S
H464 C453 0.930 . S
H465 C455 0.930 . S
H466 C456 0.930 . S
H467 C457 0.930 . S
Eu468 N499 2.657 . S
Eu468 N506 2.609 . S
Eu468 O512 2.558 . S
Eu468 O513 2.612 . S
Eu468 O515 2.339 . S
Eu468 O516 2.563 . S
Eu468 O517 2.419 . S
Eu468 O519 2.380 . S
Eu468 O520 2.432 . S
Eu468 C532 2.848 . S
C469 C472 1.429 . S
C469 C473 1.411 . S
C469 N476 1.377 . S
C470 C472 1.420 . S
C470 C474 1.423 . S
C470 C482 1.392 . S
C471 C473 1.420 . S
C471 C474 1.351 . S
C471 H494 0.931 . S
C472 C469 1.429 . S
C472 C470 1.420 . S
C472 N480 1.362 . S
C473 C469 1.411 . S
C473 C471 1.420 . S
C473 C478 1.395 . S
C474 C470 1.423 . S
C474 C471 1.351 . S
C474 H486 0.930 . S
C475 C477 1.400 . S
C475 C478 1.386 . S
C475 H487 0.930 . S
N476 C469 1.377 . S
N476 C477 1.321 . S
N476 Eu479 2.609 . S
C477 C475 1.400 . S
C477 N476 1.321 . S
C477 H484 0.930 . S
C478 C473 1.395 . S
C478 C475 1.386 . S
C478 H497 0.930 . S
Eu479 N476 2.609 . S
Eu479 N480 2.657 . S
Eu479 O513 2.380 . S
Eu479 O514 2.432 . S
Eu479 O518 2.558 . S
Eu479 O519 2.612 . S
Eu479 O521 2.339 . S
Eu479 O522 2.563 . S
Eu479 O523 2.419 . S
Eu479 C543 2.848 . S
N480 C472 1.362 . S
N480 Eu479 2.657 . S
N480 C481 1.334 . S
C481 N480 1.334 . S
C481 C483 1.413 . S
C481 H488 0.929 . S
C482 C470 1.392 . S
C482 C483 1.367 . S
C482 H490 0.930 . S
C483 C481 1.413 . S
C483 C482 1.367 . S
C483 H485 0.930 . S
H484 C477 0.930 . S
H485 C483 0.930 . S
H486 C474 0.930 . S
H487 C475 0.930 . S
H488 C481 0.929 . S
H489 C503 0.930 . S
H490 C482 0.930 . S
H491 C509 0.930 . S
H492 C500 0.929 . S
H493 C507 0.930 . S
H494 C471 0.931 . S
H495 C501 0.930 . S
H496 C534 0.930 . S
H497 C478 0.930 . S
H498 C533 0.931 . S
N499 Eu468 2.657 . S
N499 C500 1.334 . S
N499 C504 1.362 . S
C500 H492 0.929 . S
C500 N499 1.334 . S
C500 C503 1.413 1_455 S
C501 H495 0.930 . S
C501 C502 1.392 . S
C501 C503 1.367 . S
C502 C501 1.392 . S
C502 C504 1.420 1_655 S
C502 C534 1.423 . S
C503 H489 0.930 . S
C503 C500 1.413 1_655 S
C503 C501 1.367 . S
C504 N499 1.362 . S
C504 C502 1.420 1_455 S
C504 C508 1.429 . S
H505 C510 0.930 . S
N506 Eu468 2.609 . S
N506 C508 1.377 . S
N506 C509 1.321 . S
C507 H493 0.930 . S
C507 C509 1.400 . S
C507 C510 1.386 . S
C508 C504 1.429 . S
C508 N506 1.377 . S
C508 C511 1.411 . S
C509 H491 0.930 . S
C509 N506 1.321 . S
C509 C507 1.400 . S
C510 H505 0.930 . S
C510 C507 1.386 . S
C510 C511 1.395 . S
C511 C508 1.411 . S
C511 C510 1.395 . S
C511 C533 1.420 1_455 S
O512 Eu468 2.558 . S
O512 C532 1.257 . S
O513 Eu468 2.612 . S
O513 Eu479 2.380 . S
O513 C524 1.276 . S
O514 Eu479 2.432 . S
O514 C531 1.264 . S
O515 Eu468 2.339 . S
O515 C531 1.254 . S
O516 Eu468 2.563 . S
O516 C524 1.235 . S
O517 Eu468 2.419 . S
O517 C532 1.249 . S
O518 Eu479 2.558 . S
O518 C543 1.257 . S
O519 Eu468 2.380 . S
O519 Eu479 2.612 . S
O519 C535 1.276 . S
O520 Eu468 2.432 . S
O520 C542 1.264 . S
O521 Eu479 2.339 . S
O521 C542 1.254 . S
O522 Eu479 2.563 . S
O522 C535 1.235 . S
O523 Eu479 2.419 . S
O523 C543 1.249 . S
C524 O513 1.276 . S
C524 O516 1.235 . S
C525 C527 1.393 . S
C525 C529 1.395 . S
C525 C532 1.492 . S
C526 C527 1.392 . S
C526 C528 1.386 . S
C527 C525 1.393 . S
C527 C526 1.392 . S
C527 H544 0.930 . S
C528 C526 1.386 . S
C528 C530 1.395 . S
C528 H545 0.930 . S
C529 C525 1.395 . S
C529 C530 1.379 . S
C529 H546 0.930 . S
C530 C528 1.395 . S
C530 C529 1.379 . S
C530 H547 0.930 . S
C531 O514 1.264 . S
C531 O515 1.254 . S
C532 Eu468 2.848 . S
C532 O512 1.257 . S
C532 O517 1.249 . S
C532 C525 1.492 . S
C533 H498 0.931 . S
C533 C511 1.420 1_655 S
C533 C534 1.351 . S
C534 H496 0.930 . S
C534 C502 1.423 . S
C534 C533 1.351 . S
C535 O519 1.276 . S
C535 O522 1.235 . S
C536 C537 1.393 . S
C536 C540 1.395 . S
C536 C543 1.492 . S
C537 C536 1.393 . S
C537 C538 1.392 . S
C537 H548 0.930 . S
C538 C537 1.392 . S
C538 C539 1.386 . S
C539 C538 1.386 . S
C539 C541 1.395 . S
C539 H549 0.930 . S
C540 C536 1.395 . S
C540 C541 1.379 . S
C540 H550 0.930 . S
C541 C539 1.395 . S
C541 C540 1.379 . S
C541 H551 0.930 . S
C542 O520 1.264 . S
C542 O521 1.254 . S
C543 Eu479 2.848 . S
C543 O518 1.257 . S
C543 O523 1.249 . S
C543 C536 1.492 . S
H544 C527 0.930 . S
H545 C528 0.930 . S
H546 C529 0.930 . S
H547 C530 0.930 . S
H548 C537 0.930 . S
H549 C539 0.930 . S
H550 C540 0.930 . S
H551 C541 0.930 . S
Eu552 N583 2.657 . S
Eu552 N590 2.609 . S
Eu552 O596 2.558 . S
Eu552 O597 2.612 . S
Eu552 O599 2.339 . S
Eu552 O600 2.563 . S
Eu552 O601 2.419 . S
Eu552 O603 2.380 . S
Eu552 O604 2.432 . S
Eu552 C616 2.848 . S
C553 C556 1.429 . S
C553 C557 1.411 . S
C553 N560 1.377 . S
C554 C556 1.420 . S
C554 C558 1.423 . S
C554 C566 1.392 . S
C555 C557 1.420 . S
C555 C558 1.351 . S
C555 H578 0.931 . S
C556 C553 1.429 . S
C556 C554 1.420 . S
C556 N564 1.362 . S
C557 C553 1.411 . S
C557 C555 1.420 . S
C557 C562 1.395 . S
C558 C554 1.423 . S
C558 C555 1.351 . S
C558 H570 0.930 . S
C559 C561 1.400 . S
C559 C562 1.386 . S
C559 H571 0.930 . S
N560 C553 1.377 . S
N560 C561 1.321 . S
N560 Eu563 2.609 . S
C561 C559 1.400 . S
C561 N560 1.321 . S
C561 H568 0.930 . S
C562 C557 1.395 . S
C562 C559 1.386 . S
C562 H581 0.930 . S
Eu563 N560 2.609 . S
Eu563 N564 2.657 . S
Eu563 O597 2.380 . S
Eu563 O598 2.432 . S
Eu563 O602 2.558 . S
Eu563 O603 2.612 . S
Eu563 O605 2.339 . S
Eu563 O606 2.563 . S
Eu563 O607 2.419 . S
Eu563 C627 2.848 . S
N564 C556 1.362 . S
N564 Eu563 2.657 . S
N564 C565 1.334 . S
C565 N564 1.334 . S
C565 C567 1.413 . S
C565 H572 0.929 . S
C566 C554 1.392 . S
C566 C567 1.367 . S
C566 H574 0.930 . S
C567 C565 1.413 . S
C567 C566 1.367 . S
C567 H569 0.930 . S
H568 C561 0.930 . S
H569 C567 0.930 . S
H570 C558 0.930 . S
H571 C559 0.930 . S
H572 C565 0.929 . S
H573 C587 0.930 . S
H574 C566 0.930 . S
H575 C593 0.930 . S
H576 C584 0.929 . S
H577 C591 0.930 . S
H578 C555 0.931 . S
H579 C585 0.930 . S
H580 C618 0.930 . S
H581 C562 0.930 . S
H582 C617 0.931 . S
N583 Eu552 2.657 . S
N583 C584 1.334 . S
N583 C588 1.362 . S
C584 H576 0.929 . S
C584 N583 1.334 . S
C584 C587 1.413 . S
C585 H579 0.930 . S
C585 C586 1.392 . S
C585 C587 1.367 . S
C586 C585 1.392 . S
C586 C588 1.420 . S
C586 C618 1.423 . S
C587 H573 0.930 . S
C587 C584 1.413 . S
C587 C585 1.367 . S
C588 N583 1.362 . S
C588 C586 1.420 . S
C588 C592 1.429 . S
H589 C594 0.930 . S
N590 Eu552 2.609 . S
N590 C592 1.377 . S
N590 C593 1.321 . S
C591 H577 0.930 . S
C591 C593 1.400 . S
C591 C594 1.386 . S
C592 C588 1.429 . S
C592 N590 1.377 . S
C592 C595 1.411 . S
C593 H575 0.930 . S
C593 N590 1.321 . S
C593 C591 1.400 . S
C594 H589 0.930 . S
C594 C591 1.386 . S
C594 C595 1.395 . S
C595 C592 1.411 . S
C595 C594 1.395 . S
C595 C617 1.420 . S
O596 Eu552 2.558 . S
O596 C616 1.257 . S
O597 Eu552 2.612 . S
O597 Eu563 2.380 . S
O597 C608 1.276 . S
O598 Eu563 2.432 . S
O598 C615 1.264 . S
O599 Eu552 2.339 . S
O599 C615 1.254 . S
O600 Eu552 2.563 . S
O600 C608 1.235 . S
O601 Eu552 2.419 . S
O601 C616 1.249 . S
O602 Eu563 2.558 . S
O602 C627 1.257 . S
O603 Eu552 2.380 . S
O603 Eu563 2.612 . S
O603 C619 1.276 . S
O604 Eu552 2.432 . S
O604 C626 1.264 . S
O605 Eu563 2.339 . S
O605 C626 1.254 . S
O606 Eu563 2.563 . S
O606 C619 1.235 . S
O607 Eu563 2.419 . S
O607 C627 1.249 . S
C608 O597 1.276 . S
C608 O600 1.235 . S
C609 C611 1.393 . S
C609 C613 1.395 . S
C609 C616 1.492 . S
C610 C611 1.392 . S
C610 C612 1.386 . S
C611 C609 1.393 . S
C611 C610 1.392 . S
C611 H628 0.930 . S
C612 C610 1.386 . S
C612 C614 1.395 . S
C612 H629 0.930 . S
C613 C609 1.395 . S
C613 C614 1.379 . S
C613 H630 0.930 . S
C614 C612 1.395 . S
C614 C613 1.379 . S
C614 H631 0.930 . S
C615 O598 1.264 . S
C615 O599 1.254 . S
C616 Eu552 2.848 . S
C616 O596 1.257 . S
C616 O601 1.249 . S
C616 C609 1.492 . S
C617 H582 0.931 . S
C617 C595 1.420 . S
C617 C618 1.351 . S
C618 H580 0.930 . S
C618 C586 1.423 . S
C618 C617 1.351 . S
C619 O603 1.276 . S
C619 O606 1.235 . S
C620 C621 1.393 . S
C620 C624 1.395 . S
C620 C627 1.492 . S
C621 C620 1.393 . S
C621 C622 1.392 . S
C621 H632 0.930 . S
C622 C621 1.392 . S
C622 C623 1.386 . S
C623 C622 1.386 . S
C623 C625 1.395 . S
C623 H633 0.930 . S
C624 C620 1.395 . S
C624 C625 1.379 . S
C624 H634 0.930 . S
C625 C623 1.395 . S
C625 C624 1.379 . S
C625 H635 0.930 . S
C626 O604 1.264 . S
C626 O605 1.254 . S
C627 Eu563 2.848 . S
C627 O602 1.257 . S
C627 O607 1.249 . S
C627 C620 1.492 . S
H628 C611 0.930 . S
H629 C612 0.930 . S
H630 C613 0.930 . S
H631 C614 0.930 . S
H632 C621 0.930 . S
H633 C623 0.930 . S
H634 C624 0.930 . S
H635 C625 0.930 . S
Eu636 N667 2.657 . S
Eu636 N674 2.609 . S
Eu636 O680 2.558 . S
Eu636 O681 2.612 . S
Eu636 O683 2.339 . S
Eu636 O684 2.563 . S
Eu636 O685 2.419 . S
Eu636 O687 2.380 . S
Eu636 O688 2.432 . S
Eu636 C700 2.848 . S
C637 C640 1.429 . S
C637 C641 1.411 . S
C637 N644 1.377 . S
C638 C640 1.420 . S
C638 C642 1.423 . S
C638 C650 1.392 . S
C639 C641 1.420 . S
C639 C642 1.351 . S
C639 H662 0.931 . S
C640 C637 1.429 . S
C640 C638 1.420 . S
C640 N648 1.362 . S
C641 C637 1.411 . S
C641 C639 1.420 . S
C641 C646 1.395 . S
C642 C638 1.423 . S
C642 C639 1.351 . S
C642 H654 0.930 . S
C643 C645 1.400 . S
C643 C646 1.386 . S
C643 H655 0.930 1_565 S
N644 C637 1.377 . S
N644 C645 1.321 . S
N644 Eu647 2.609 . S
C645 C643 1.400 . S
C645 N644 1.321 . S
C645 H652 0.930 . S
C646 C641 1.395 . S
C646 C643 1.386 . S
C646 H665 0.930 . S
Eu647 N644 2.609 . S
Eu647 N648 2.657 . S
Eu647 O681 2.380 . S
Eu647 O682 2.432 . S
Eu647 O686 2.558 . S
Eu647 O687 2.612 . S
Eu647 O689 2.339 . S
Eu647 O690 2.563 . S
Eu647 O691 2.419 . S
Eu647 C711 2.848 . S
N648 C640 1.362 . S
N648 Eu647 2.657 . S
N648 C649 1.334 . S
C649 N648 1.334 . S
C649 C651 1.413 . S
C649 H656 0.929 . S
C650 C638 1.392 . S
C650 C651 1.367 . S
C650 H658 0.930 . S
C651 C649 1.413 . S
C651 C650 1.367 . S
C651 H653 0.930 . S
H652 C645 0.930 . S
H653 C651 0.930 . S
H654 C642 0.930 . S
H655 C643 0.930 1_545 S
H656 C649 0.929 . S
H657 C671 0.930 . S
H658 C650 0.930 . S
H659 C677 0.930 . S
H660 C668 0.929 . S
H661 C675 0.930 . S
H662 C639 0.931 . S
H663 C669 0.930 . S
H664 C702 0.930 . S
H665 C646 0.930 . S
H666 C701 0.931 . S
N667 Eu636 2.657 . S
N667 C668 1.334 . S
N667 C672 1.362 . S
C668 H660 0.929 . S
C668 N667 1.334 . S
C668 C671 1.413 . S
C669 H663 0.930 . S
C669 C670 1.392 . S
C669 C671 1.367 . S
C670 C669 1.392 . S
C670 C672 1.420 . S
C670 C702 1.423 . S
C671 H657 0.930 . S
C671 C668 1.413 . S
C671 C669 1.367 . S
C672 N667 1.362 . S
C672 C670 1.420 . S
C672 C676 1.429 . S
H673 C678 0.930 . S
N674 Eu636 2.609 . S
N674 C676 1.377 . S
N674 C677 1.321 . S
C675 H661 0.930 . S
C675 C677 1.400 . S
C675 C678 1.386 . S
C676 C672 1.429 . S
C676 N674 1.377 . S
C676 C679 1.411 . S
C677 H659 0.930 . S
C677 N674 1.321 . S
C677 C675 1.400 . S
C678 H673 0.930 . S
C678 C675 1.386 . S
C678 C679 1.395 . S
C679 C676 1.411 . S
C679 C678 1.395 . S
C679 C701 1.420 . S
O680 Eu636 2.558 . S
O680 C700 1.257 . S
O681 Eu636 2.612 . S
O681 Eu647 2.380 . S
O681 C692 1.276 . S
O682 Eu647 2.432 . S
O682 C699 1.264 . S
O683 Eu636 2.339 . S
O683 C699 1.254 . S
O684 Eu636 2.563 . S
O684 C692 1.235 . S
O685 Eu636 2.419 . S
O685 C700 1.249 . S
O686 Eu647 2.558 . S
O686 C711 1.257 . S
O687 Eu636 2.380 . S
O687 Eu647 2.612 . S
O687 C703 1.276 . S
O688 Eu636 2.432 . S
O688 C710 1.264 . S
O689 Eu647 2.339 . S
O689 C710 1.254 . S
O690 Eu647 2.563 . S
O690 C703 1.235 . S
O691 Eu647 2.419 . S
O691 C711 1.249 . S
C692 O681 1.276 . S
C692 O684 1.235 . S
C693 C695 1.393 . S
C693 C697 1.395 . S
C693 C700 1.492 . S
C694 C695 1.392 . S
C694 C696 1.386 . S
C695 C693 1.393 . S
C695 C694 1.392 . S
C695 H712 0.930 . S
C696 C694 1.386 . S
C696 C698 1.395 . S
C696 H713 0.930 . S
C697 C693 1.395 . S
C697 C698 1.379 . S
C697 H714 0.930 . S
C698 C696 1.395 . S
C698 C697 1.379 . S
C698 H715 0.930 . S
C699 O682 1.264 . S
C699 O683 1.254 . S
C700 Eu636 2.848 . S
C700 O680 1.257 . S
C700 O685 1.249 . S
C700 C693 1.492 . S
C701 H666 0.931 . S
C701 C679 1.420 . S
C701 C702 1.351 . S
C702 H664 0.930 . S
C702 C670 1.423 . S
C702 C701 1.351 . S
C703 O687 1.276 . S
C703 O690 1.235 . S
C704 C705 1.393 . S
C704 C708 1.395 . S
C704 C711 1.492 . S
C705 C704 1.393 . S
C705 C706 1.392 . S
C705 H716 0.930 . S
C706 C705 1.392 . S
C706 C707 1.386 . S
C707 C706 1.386 . S
C707 C709 1.395 . S
C707 H717 0.930 . S
C708 C704 1.395 . S
C708 C709 1.379 . S
C708 H718 0.930 . S
C709 C707 1.395 . S
C709 C708 1.379 . S
C709 H719 0.930 . S
C710 O688 1.264 . S
C710 O689 1.254 . S
C711 Eu647 2.848 . S
C711 O686 1.257 . S
C711 O691 1.249 . S
C711 C704 1.492 . S
H712 C695 0.930 . S
H713 C696 0.930 . S
H714 C697 0.930 . S
H715 C698 0.930 . S
H716 C705 0.930 . S
H717 C707 0.930 . S
H718 C708 0.930 . S
H719 C709 0.930 . S
Eu720 N751 2.657 . S
Eu720 N758 2.609 . S
Eu720 O764 2.558 . S
Eu720 O765 2.612 . S
Eu720 O767 2.339 . S
Eu720 O768 2.563 . S
Eu720 O769 2.419 . S
Eu720 O771 2.380 . S
Eu720 O772 2.432 . S
Eu720 C784 2.848 . S
C721 C724 1.429 . S
C721 C725 1.411 . S
C721 N728 1.377 . S
C722 C724 1.420 . S
C722 C726 1.423 . S
C722 C734 1.392 . S
C723 C725 1.420 . S
C723 C726 1.351 . S
C723 H746 0.931 . S
C724 C721 1.429 . S
C724 C722 1.420 . S
C724 N732 1.362 . S
C725 C721 1.411 . S
C725 C723 1.420 . S
C725 C730 1.395 . S
C726 C722 1.423 . S
C726 C723 1.351 . S
C726 H738 0.930 . S
C727 C729 1.400 . S
C727 C730 1.386 . S
C727 H739 0.930 . S
N728 C721 1.377 . S
N728 C729 1.321 . S
N728 Eu731 2.609 . S
C729 C727 1.400 . S
C729 N728 1.321 . S
C729 H736 0.930 . S
C730 C725 1.395 . S
C730 C727 1.386 . S
C730 H749 0.930 . S
Eu731 N728 2.609 . S
Eu731 N732 2.657 . S
Eu731 O765 2.380 . S
Eu731 O766 2.432 . S
Eu731 O770 2.558 . S
Eu731 O771 2.612 . S
Eu731 O773 2.339 . S
Eu731 O774 2.563 . S
Eu731 O775 2.419 . S
Eu731 C795 2.848 . S
N732 C724 1.362 . S
N732 Eu731 2.657 . S
N732 C733 1.334 . S
C733 N732 1.334 . S
C733 C735 1.413 . S
C733 H740 0.929 . S
C734 C722 1.392 . S
C734 C735 1.367 . S
C734 H742 0.930 . S
C735 C733 1.413 . S
C735 C734 1.367 . S
C735 H737 0.930 . S
H736 C729 0.930 . S
H737 C735 0.930 . S
H738 C726 0.930 . S
H739 C727 0.930 . S
H740 C733 0.929 . S
H741 C755 0.930 . S
H742 C734 0.930 . S
H743 C761 0.930 . S
H744 C752 0.929 . S
H745 C759 0.930 . S
H746 C723 0.931 . S
H747 C753 0.930 . S
H748 C786 0.930 . S
H749 C730 0.930 . S
H750 C785 0.931 . S
N751 Eu720 2.657 . S
N751 C752 1.334 . S
N751 C756 1.362 . S
C752 H744 0.929 . S
C752 N751 1.334 . S
C752 C755 1.413 . S
C753 H747 0.930 . S
C753 C754 1.392 . S
C753 C755 1.367 . S
C754 C753 1.392 . S
C754 C756 1.420 . S
C754 C786 1.423 . S
C755 H741 0.930 . S
C755 C752 1.413 . S
C755 C753 1.367 . S
C756 N751 1.362 . S
C756 C754 1.420 . S
C756 C760 1.429 . S
H757 C762 0.930 . S
N758 Eu720 2.609 . S
N758 C760 1.377 . S
N758 C761 1.321 . S
C759 H745 0.930 . S
C759 C761 1.400 . S
C759 C762 1.386 . S
C760 C756 1.429 . S
C760 N758 1.377 . S
C760 C763 1.411 . S
C761 H743 0.930 . S
C761 N758 1.321 . S
C761 C759 1.400 . S
C762 H757 0.930 . S
C762 C759 1.386 . S
C762 C763 1.395 . S
C763 C760 1.411 . S
C763 C762 1.395 . S
C763 C785 1.420 . S
O764 Eu720 2.558 . S
O764 C784 1.257 . S
O765 Eu720 2.612 . S
O765 Eu731 2.380 . S
O765 C776 1.276 . S
O766 Eu731 2.432 . S
O766 C783 1.264 . S
O767 Eu720 2.339 . S
O767 C783 1.254 . S
O768 Eu720 2.563 . S
O768 C776 1.235 . S
O769 Eu720 2.419 . S
O769 C784 1.249 . S
O770 Eu731 2.558 . S
O770 C795 1.257 . S
O771 Eu720 2.380 . S
O771 Eu731 2.612 . S
O771 C787 1.276 . S
O772 Eu720 2.432 . S
O772 C794 1.264 . S
O773 Eu731 2.339 . S
O773 C794 1.254 . S
O774 Eu731 2.563 . S
O774 C787 1.235 . S
O775 Eu731 2.419 . S
O775 C795 1.249 . S
C776 O765 1.276 . S
C776 O768 1.235 . S
C777 C779 1.393 . S
C777 C781 1.395 . S
C777 C784 1.492 . S
C778 C779 1.392 . S
C778 C780 1.386 . S
C779 C777 1.393 . S
C779 C778 1.392 . S
C779 H796 0.930 . S
C780 C778 1.386 . S
C780 C782 1.395 . S
C780 H797 0.930 . S
C781 C777 1.395 . S
C781 C782 1.379 . S
C781 H798 0.930 . S
C782 C780 1.395 . S
C782 C781 1.379 . S
C782 H799 0.930 . S
C783 O766 1.264 . S
C783 O767 1.254 . S
C784 Eu720 2.848 . S
C784 O764 1.257 . S
C784 O769 1.249 . S
C784 C777 1.492 . S
C785 H750 0.931 . S
C785 C763 1.420 . S
C785 C786 1.351 . S
C786 H748 0.930 . S
C786 C754 1.423 . S
C786 C785 1.351 . S
C787 O771 1.276 . S
C787 O774 1.235 . S
C788 C789 1.393 . S
C788 C792 1.395 . S
C788 C795 1.492 . S
C789 C788 1.393 . S
C789 C790 1.392 . S
C789 H800 0.930 . S
C790 C789 1.392 . S
C790 C791 1.386 . S
C791 C790 1.386 . S
C791 C793 1.395 . S
C791 H801 0.930 . S
C792 C788 1.395 . S
C792 C793 1.379 . S
C792 H802 0.930 . S
C793 C791 1.395 . S
C793 C792 1.379 . S
C793 H803 0.930 . S
C794 O772 1.264 . S
C794 O773 1.254 . S
C795 Eu731 2.848 . S
C795 O770 1.257 . S
C795 O775 1.249 . S
C795 C788 1.492 . S
H796 C779 0.930 . S
H797 C780 0.930 . S
H798 C781 0.930 . S
H799 C782 0.930 . S
H800 C789 0.930 . S
H801 C791 0.930 . S
H802 C792 0.930 . S
H803 C793 0.930 . S
Eu804 N835 2.657 . S
Eu804 N842 2.609 . S
Eu804 O848 2.558 . S
Eu804 O849 2.612 . S
Eu804 O851 2.339 . S
Eu804 O852 2.563 . S
Eu804 O853 2.419 . S
Eu804 O855 2.380 . S
Eu804 O856 2.432 . S
Eu804 C868 2.848 . S
C805 C808 1.429 . S
C805 C809 1.411 . S
C805 N812 1.377 . S
C806 C808 1.420 . S
C806 C810 1.423 . S
C806 C818 1.392 . S
C807 C809 1.420 . S
C807 C810 1.351 . S
C807 H830 0.931 . S
C808 C805 1.429 . S
C808 C806 1.420 . S
C808 N816 1.362 . S
C809 C805 1.411 . S
C809 C807 1.420 . S
C809 C814 1.395 . S
C810 C806 1.423 . S
C810 C807 1.351 . S
C810 H822 0.930 . S
C811 C813 1.400 . S
C811 C814 1.386 . S
C811 H823 0.930 . S
N812 C805 1.377 . S
N812 C813 1.321 . S
N812 Eu815 2.609 . S
C813 C811 1.400 . S
C813 N812 1.321 . S
C813 H820 0.930 . S
C814 C809 1.395 . S
C814 C811 1.386 . S
C814 H833 0.930 . S
Eu815 N812 2.609 . S
Eu815 N816 2.657 . S
Eu815 O849 2.380 . S
Eu815 O850 2.432 . S
Eu815 O854 2.558 . S
Eu815 O855 2.612 . S
Eu815 O857 2.339 . S
Eu815 O858 2.563 . S
Eu815 O859 2.419 . S
Eu815 C879 2.848 . S
N816 C808 1.362 . S
N816 Eu815 2.657 . S
N816 C817 1.334 . S
C817 N816 1.334 . S
C817 C819 1.413 . S
C817 H824 0.929 . S
C818 C806 1.392 . S
C818 C819 1.367 . S
C818 H826 0.930 . S
C819 C817 1.413 . S
C819 C818 1.367 . S
C819 H821 0.930 . S
H820 C813 0.930 . S
H821 C819 0.930 . S
H822 C810 0.930 . S
H823 C811 0.930 . S
H824 C817 0.929 . S
H825 C839 0.930 . S
H826 C818 0.930 . S
H827 C845 0.930 . S
H828 C836 0.929 . S
H829 C843 0.930 . S
H830 C807 0.931 . S
H831 C837 0.930 . S
H832 C870 0.930 . S
H833 C814 0.930 . S
H834 C869 0.931 . S
N835 Eu804 2.657 . S
N835 C836 1.334 . S
N835 C840 1.362 . S
C836 H828 0.929 . S
C836 N835 1.334 . S
C836 C839 1.413 . S
C837 H831 0.930 . S
C837 C838 1.392 . S
C837 C839 1.367 . S
C838 C837 1.392 . S
C838 C840 1.420 . S
C838 C870 1.423 . S
C839 H825 0.930 . S
C839 C836 1.413 . S
C839 C837 1.367 . S
C840 N835 1.362 . S
C840 C838 1.420 . S
C840 C844 1.429 . S
H841 C846 0.930 . S
N842 Eu804 2.609 . S
N842 C844 1.377 . S
N842 C845 1.321 . S
C843 H829 0.930 . S
C843 C845 1.400 . S
C843 C846 1.386 . S
C844 C840 1.429 . S
C844 N842 1.377 . S
C844 C847 1.411 . S
C845 H827 0.930 . S
C845 N842 1.321 . S
C845 C843 1.400 . S
C846 H841 0.930 . S
C846 C843 1.386 . S
C846 C847 1.395 . S
C847 C844 1.411 . S
C847 C846 1.395 . S
C847 C869 1.420 . S
O848 Eu804 2.558 . S
O848 C868 1.257 . S
O849 Eu804 2.612 . S
O849 Eu815 2.380 . S
O849 C860 1.276 . S
O850 Eu815 2.432 . S
O850 C867 1.264 . S
O851 Eu804 2.339 . S
O851 C867 1.254 . S
O852 Eu804 2.563 . S
O852 C860 1.235 . S
O853 Eu804 2.419 . S
O853 C868 1.249 . S
O854 Eu815 2.558 . S
O854 C879 1.257 . S
O855 Eu804 2.380 . S
O855 Eu815 2.612 . S
O855 C871 1.276 . S
O856 Eu804 2.432 . S
O856 C878 1.264 . S
O857 Eu815 2.339 . S
O857 C878 1.254 . S
O858 Eu815 2.563 . S
O858 C871 1.235 . S
O859 Eu815 2.419 . S
O859 C879 1.249 . S
C860 O849 1.276 . S
C860 O852 1.235 . S
C861 C863 1.393 . S
C861 C865 1.395 . S
C861 C868 1.492 . S
C862 C863 1.392 . S
C862 C864 1.386 . S
C863 C861 1.393 . S
C863 C862 1.392 . S
C863 H880 0.930 . S
C864 C862 1.386 . S
C864 C866 1.395 . S
C864 H881 0.930 . S
C865 C861 1.395 . S
C865 C866 1.379 . S
C865 H882 0.930 . S
C866 C864 1.395 . S
C866 C865 1.379 . S
C866 H883 0.930 . S
C867 O850 1.264 . S
C867 O851 1.254 . S
C868 Eu804 2.848 . S
C868 O848 1.257 . S
C868 O853 1.249 . S
C868 C861 1.492 . S
C869 H834 0.931 . S
C869 C847 1.420 . S
C869 C870 1.351 . S
C870 H832 0.930 . S
C870 C838 1.423 . S
C870 C869 1.351 . S
C871 O855 1.276 . S
C871 O858 1.235 . S
C872 C873 1.393 . S
C872 C876 1.395 . S
C872 C879 1.492 . S
C873 C872 1.393 . S
C873 C874 1.392 . S
C873 H884 0.930 . S
C874 C873 1.392 . S
C874 C875 1.386 . S
C875 C874 1.386 . S
C875 C877 1.395 . S
C875 H885 0.930 . S
C876 C872 1.395 . S
C876 C877 1.379 . S
C876 H886 0.930 . S
C877 C875 1.395 . S
C877 C876 1.379 . S
C877 H887 0.930 . S
C878 O856 1.264 . S
C878 O857 1.254 . S
C879 Eu815 2.848 . S
C879 O854 1.257 . S
C879 O859 1.249 . S
C879 C872 1.492 . S
H880 C863 0.930 . S
H881 C864 0.930 . S
H882 C865 0.930 . S
H883 C866 0.930 . S
H884 C873 0.930 . S
H885 C875 0.930 . S
H886 C876 0.930 . S
H887 C877 0.930 . S
Eu888 N919 2.657 . S
Eu888 N926 2.609 . S
Eu888 O932 2.558 . S
Eu888 O933 2.612 . S
Eu888 O935 2.339 . S
Eu888 O936 2.563 . S
Eu888 O937 2.419 . S
Eu888 O939 2.380 . S
Eu888 O940 2.432 . S
Eu888 C952 2.848 . S
C889 C892 1.429 . S
C889 C893 1.411 . S
C889 N896 1.377 . S
C890 C892 1.420 . S
C890 C894 1.423 . S
C890 C902 1.392 . S
C891 C893 1.420 . S
C891 C894 1.351 . S
C891 H914 0.931 . S
C892 C889 1.429 . S
C892 C890 1.420 . S
C892 N900 1.362 . S
C893 C889 1.411 . S
C893 C891 1.420 . S
C893 C898 1.395 . S
C894 C890 1.423 . S
C894 C891 1.351 . S
C894 H906 0.930 . S
C895 C897 1.400 . S
C895 C898 1.386 . S
C895 H907 0.930 . S
N896 C889 1.377 . S
N896 C897 1.321 . S
N896 Eu899 2.609 . S
C897 C895 1.400 . S
C897 N896 1.321 . S
C897 H904 0.930 . S
C898 C893 1.395 . S
C898 C895 1.386 . S
C898 H917 0.930 . S
Eu899 N896 2.609 . S
Eu899 N900 2.657 . S
Eu899 O933 2.380 . S
Eu899 O934 2.432 . S
Eu899 O938 2.558 . S
Eu899 O939 2.612 . S
Eu899 O941 2.339 . S
Eu899 O942 2.563 . S
Eu899 O943 2.419 . S
Eu899 C963 2.848 . S
N900 C892 1.362 . S
N900 Eu899 2.657 . S
N900 C901 1.334 . S
C901 N900 1.334 . S
C901 C903 1.413 . S
C901 H908 0.929 . S
C902 C890 1.392 . S
C902 C903 1.367 . S
C902 H910 0.930 . S
C903 C901 1.413 . S
C903 C902 1.367 . S
C903 H905 0.930 . S
H904 C897 0.930 . S
H905 C903 0.930 . S
H906 C894 0.930 . S
H907 C895 0.930 . S
H908 C901 0.929 . S
H909 C923 0.930 . S
H910 C902 0.930 . S
H911 C929 0.930 . S
H912 C920 0.929 . S
H913 C927 0.930 . S
H914 C891 0.931 . S
H915 C921 0.930 . S
H916 C954 0.930 . S
H917 C898 0.930 . S
H918 C953 0.931 . S
N919 Eu888 2.657 . S
N919 C920 1.334 . S
N919 C924 1.362 . S
C920 H912 0.929 . S
C920 N919 1.334 . S
C920 C923 1.413 1_655 S
C921 H915 0.930 . S
C921 C922 1.392 . S
C921 C923 1.367 . S
C922 C921 1.392 . S
C922 C924 1.420 1_455 S
C922 C954 1.423 . S
C923 H909 0.930 . S
C923 C920 1.413 1_455 S
C923 C921 1.367 . S
C924 N919 1.362 . S
C924 C922 1.420 1_655 S
C924 C928 1.429 . S
H925 C930 0.930 . S
N926 Eu888 2.609 . S
N926 C928 1.377 . S
N926 C929 1.321 . S
C927 H913 0.930 . S
C927 C929 1.400 . S
C927 C930 1.386 . S
C928 C924 1.429 . S
C928 N926 1.377 . S
C928 C931 1.411 . S
C929 H911 0.930 . S
C929 N926 1.321 . S
C929 C927 1.400 . S
C930 H925 0.930 . S
C930 C927 1.386 . S
C930 C931 1.395 . S
C931 C928 1.411 . S
C931 C930 1.395 . S
C931 C953 1.420 1_655 S
O932 Eu888 2.558 . S
O932 C952 1.257 . S
O933 Eu888 2.612 . S
O933 Eu899 2.380 . S
O933 C944 1.276 . S
O934 Eu899 2.432 . S
O934 C951 1.264 . S
O935 Eu888 2.339 . S
O935 C951 1.254 . S
O936 Eu888 2.563 . S
O936 C944 1.235 . S
O937 Eu888 2.419 . S
O937 C952 1.249 . S
O938 Eu899 2.558 . S
O938 C963 1.257 . S
O939 Eu888 2.380 . S
O939 Eu899 2.612 . S
O939 C955 1.276 . S
O940 Eu888 2.432 . S
O940 C962 1.264 . S
O941 Eu899 2.339 . S
O941 C962 1.254 . S
O942 Eu899 2.563 . S
O942 C955 1.235 . S
O943 Eu899 2.419 . S
O943 C963 1.249 . S
C944 O933 1.276 . S
C944 O936 1.235 . S
C945 C947 1.393 . S
C945 C949 1.395 . S
C945 C952 1.492 . S
C946 C947 1.392 . S
C946 C948 1.386 . S
C947 C945 1.393 . S
C947 C946 1.392 . S
C947 H964 0.930 . S
C948 C946 1.386 . S
C948 C950 1.395 . S
C948 H965 0.930 . S
C949 C945 1.395 . S
C949 C950 1.379 . S
C949 H966 0.930 . S
C950 C948 1.395 . S
C950 C949 1.379 . S
C950 H967 0.930 . S
C951 O934 1.264 . S
C951 O935 1.254 . S
C952 Eu888 2.848 . S
C952 O932 1.257 . S
C952 O937 1.249 . S
C952 C945 1.492 . S
C953 H918 0.931 . S
C953 C931 1.420 1_455 S
C953 C954 1.351 . S
C954 H916 0.930 . S
C954 C922 1.423 . S
C954 C953 1.351 . S
C955 O939 1.276 . S
C955 O942 1.235 . S
C956 C957 1.393 . S
C956 C960 1.395 . S
C956 C963 1.492 . S
C957 C956 1.393 . S
C957 C958 1.392 . S
C957 H968 0.930 . S
C958 C957 1.392 . S
C958 C959 1.386 . S
C959 C958 1.386 . S
C959 C961 1.395 . S
C959 H969 0.930 . S
C960 C956 1.395 . S
C960 C961 1.379 . S
C960 H970 0.930 . S
C961 C959 1.395 . S
C961 C960 1.379 . S
C961 H971 0.930 . S
C962 O940 1.264 . S
C962 O941 1.254 . S
C963 Eu899 2.848 . S
C963 O938 1.257 . S
C963 O943 1.249 . S
C963 C956 1.492 . S
H964 C947 0.930 . S
H965 C948 0.930 . S
H966 C949 0.930 . S
H967 C950 0.930 . S
H968 C957 0.930 . S
H969 C959 0.930 . S
H970 C960 0.930 . S
H971 C961 0.930 . S
C972 C973 1.387 . S
C972 H976 0.950 . S
C972 C981 1.390 . S
C973 C972 1.387 . S
C973 C975 1.387 . S
H974 C981 0.950 . S
C975 C973 1.387 . S
C975 C977 1.390 . S
C975 H979 0.950 . S
H976 C972 0.950 . S
C977 C975 1.390 . S
C977 C978 1.387 . S
C977 H980 0.950 1_554 S
C978 C977 1.387 . S
C978 C981 1.387 . S
H979 C975 0.950 . S
H980 C977 0.950 1_556 S
C981 C972 1.390 . S
C981 H974 0.950 . S
C981 C978 1.387 . S
C982 C983 1.387 . S
C982 H986 0.950 . S
C982 C991 1.390 . S
C983 C982 1.387 . S
C983 C985 1.387 . S
H984 C991 0.950 . S
C985 C983 1.387 . S
C985 C987 1.390 . S
C985 H989 0.950 . S
H986 C982 0.950 . S
C987 C985 1.390 . S
C987 C988 1.387 . S
C987 H990 0.950 . S
C988 C987 1.387 . S
C988 C991 1.387 . S
H989 C985 0.950 . S
H990 C987 0.950 . S
C991 C982 1.390 . S
C991 H984 0.950 . S
C991 C988 1.387 . S
C992 C993 1.387 . S
C992 H996 0.950 . S
C992 C1001 1.390 . S
C993 C992 1.387 . S
C993 C995 1.387 . S
H994 C1001 0.950 . S
C995 C993 1.387 . S
C995 C997 1.390 . S
C995 H999 0.950 . S
H996 C992 0.950 . S
C997 C995 1.390 . S
C997 C998 1.387 . S
C997 H1000 0.950 . S
C998 C997 1.387 . S
C998 C1001 1.387 . S
H999 C995 0.950 . S
H1000 C997 0.950 . S
C1001 C992 1.390 . S
C1001 H994 0.950 . S
C1001 C998 1.387 . S
C1002 C1003 1.387 . S
C1002 H1006 0.950 . S
C1002 C1011 1.390 . S
C1003 C1002 1.387 . S
C1003 C1005 1.387 . S
H1004 C1011 0.950 . S
C1005 C1003 1.387 . S
C1005 C1007 1.390 1_556 S
C1005 H1009 0.950 1_556 S
H1006 C1002 0.950 . S
C1007 C1005 1.390 1_554 S
C1007 C1008 1.387 1_554 S
C1007 H1010 0.950 . S
C1008 C1007 1.387 1_556 S
C1008 C1011 1.387 . S
H1009 C1005 0.950 1_554 S
H1010 C1007 0.950 . S
C1011 C1002 1.390 . S
C1011 H1004 0.950 . S
C1011 C1008 1.387 . S
C1012 C1013 1.387 . S
C1012 H1016 0.950 . S
C1012 C1021 1.390 . S
C1013 C1012 1.387 . S
C1013 C1015 1.387 . S
H1014 C1021 0.950 . S
C1015 C1013 1.387 . S
C1015 C1017 1.390 . S
C1015 H1019 0.950 . S
H1016 C1012 0.950 . S
C1017 C1015 1.390 . S
C1017 C1018 1.387 . S
C1017 H1020 0.950 . S
C1018 C1017 1.387 . S
C1018 C1021 1.387 . S
H1019 C1015 0.950 . S
H1020 C1017 0.950 . S
C1021 C1012 1.390 . S
C1021 H1014 0.950 . S
C1021 C1018 1.387 . S
C1022 C1023 1.387 . S
C1022 H1026 0.950 1_556 S
C1022 C1031 1.390 1_556 S
C1023 C1022 1.387 . S
C1023 C1025 1.387 . S
H1024 C1031 0.950 . S
C1025 C1023 1.387 . S
C1025 C1027 1.390 . S
C1025 H1029 0.950 . S
H1026 C1022 0.950 1_554 S
C1027 C1025 1.390 . S
C1027 C1028 1.387 . S
C1027 H1030 0.950 . S
C1028 C1027 1.387 . S
C1028 C1031 1.387 1_556 S
H1029 C1025 0.950 . S
H1030 C1027 0.950 . S
C1031 C1022 1.390 1_554 S
C1031 H1024 0.950 . S
C1031 C1028 1.387 1_554 S
C1032 C1033 1.387 . S
C1032 H1036 0.950 . S
C1032 C1041 1.390 . S
C1033 C1032 1.387 . S
C1033 C1035 1.387 1_556 S
H1034 C1041 0.950 . S
C1035 C1033 1.387 1_554 S
C1035 C1037 1.390 . S
C1035 H1039 0.950 . S
H1036 C1032 0.950 . S
C1037 C1035 1.390 . S
C1037 C1038 1.387 1_554 S
C1037 H1040 0.950 . S
C1038 C1037 1.387 1_556 S
C1038 C1041 1.387 . S
H1039 C1035 0.950 . S
H1040 C1037 0.950 . S
C1041 C1032 1.390 . S
C1041 H1034 0.950 . S
C1041 C1038 1.387 . S
C1042 C1043 1.387 . S
C1042 H1046 0.950 . S
C1042 C1051 1.390 . S
C1043 C1042 1.387 . S
C1043 C1045 1.387 . S
H1044 C1051 0.950 . S
C1045 C1043 1.387 . S
C1045 C1047 1.396 . S
C1045 H1049 0.950 1_556 S
H1046 C1042 0.950 . S
C1047 C1045 1.396 . S
C1047 C1048 1.402 . S
C1047 H1050 0.930 1_556 S
C1048 C1047 1.402 . S
C1048 C1051 1.387 . S
H1049 C1045 0.950 1_554 S
H1050 C1047 0.930 1_554 S
C1051 C1042 1.390 . S
C1051 H1044 0.950 . S
C1051 C1048 1.387 . S
C1052 C1053 1.387 . S
C1052 H1056 0.950 . S
C1052 C1061 1.390 . S
C1053 C1052 1.387 . S
C1053 C1055 1.387 . S
H1054 C1061 0.950 . S
C1055 C1053 1.387 . S
C1055 C1057 1.390 . S
C1055 H1059 0.950 . S
H1056 C1052 0.950 . S
C1057 C1055 1.390 . S
C1057 C1058 1.387 . S
C1057 H1060 0.950 . S
C1058 C1057 1.387 . S
C1058 C1061 1.387 . S
H1059 C1055 0.950 . S
H1060 C1057 0.950 . S
C1061 C1052 1.390 . S
C1061 H1054 0.950 . S
C1061 C1058 1.387 . S
C1062 C1063 1.387 . S
C1062 H1066 0.950 . S
C1062 C1071 1.390 . S
C1063 C1062 1.387 . S
C1063 C1065 1.387 . S
H1064 C1071 0.950 . S
C1065 C1063 1.387 . S
C1065 C1067 1.390 . S
C1065 H1069 0.965 . S
H1066 C1062 0.950 . S
C1067 C1065 1.390 . S
C1067 C1068 1.387 . S
C1067 H1070 0.950 1_554 S
C1068 C1067 1.387 . S
C1068 C1071 1.387 . S
H1069 C1065 0.965 . S
H1070 C1067 0.950 1_556 S
C1071 C1062 1.390 . S
C1071 H1064 0.950 . S
C1071 C1068 1.387 . S
C1072 C1073 1.387 . S
C1072 H1076 0.950 . S
C1072 C1081 1.390 . S
C1073 C1072 1.387 . S
C1073 C1075 1.387 . S
H1074 C1081 0.950 . S
C1075 C1073 1.387 . S
C1075 C1077 1.390 . S
C1075 H1079 0.950 . S
H1076 C1072 0.950 . S
C1077 C1075 1.390 . S
C1077 C1078 1.387 . S
C1077 H1080 0.950 . S
C1078 C1077 1.387 . S
C1078 C1081 1.387 . S
H1079 C1075 0.950 . S
H1080 C1077 0.950 . S
C1081 C1072 1.390 . S
C1081 H1074 0.950 . S
C1081 C1078 1.387 . S
C1082 C1083 1.387 . S
C1082 H1086 0.950 . S
C1082 C1091 1.390 . S
C1083 C1082 1.387 . S
C1083 C1085 1.387 . S
H1084 C1091 0.950 . S
C1085 C1083 1.387 . S
C1085 C1087 1.390 . S
C1085 H1089 0.950 1_554 S
H1086 C1082 0.950 . S
C1087 C1085 1.390 . S
C1087 C1088 1.387 . S
C1087 H1090 0.950 1_554 S
C1088 C1087 1.387 . S
C1088 C1091 1.387 . S
H1089 C1085 0.950 1_556 S
H1090 C1087 0.950 1_556 S
C1091 C1082 1.390 . S
C1091 H1084 0.950 . S
C1091 C1088 1.387 . S
C1092 C1093 1.387 1_455 S
C1092 H1096 0.950 . S
C1092 C1101 1.390 . S
C1093 C1092 1.387 1_655 S
C1093 C1095 1.387 . S
H1094 C1101 0.950 . S
C1095 C1093 1.387 . S
C1095 C1097 1.390 . S
C1095 H1099 0.950 . S
H1096 C1092 0.950 . S
C1097 C1095 1.390 . S
C1097 C1098 1.387 1_655 S
C1097 H1100 0.950 . S
C1098 C1097 1.387 1_455 S
C1098 C1101 1.387 . S
H1099 C1095 0.950 . S
H1100 C1097 0.950 . S
C1101 C1092 1.390 . S
C1101 H1094 0.950 . S
C1101 C1098 1.387 . S
C1102 C1103 1.387 . S
C1102 H1106 0.950 . S
C1102 C1111 1.390 . S
C1103 C1102 1.387 . S
C1103 C1105 1.387 . S
H1104 C1111 0.950 . S
C1105 C1103 1.387 . S
C1105 C1107 1.390 . S
C1105 H1109 0.950 . S
H1106 C1102 0.950 . S
C1107 C1105 1.390 . S
C1107 C1108 1.387 . S
C1107 H1110 0.950 . S
C1108 C1107 1.387 . S
C1108 C1111 1.387 . S
H1109 C1105 0.950 . S
H1110 C1107 0.950 . S
C1111 C1102 1.390 . S
C1111 H1104 0.950 . S
C1111 C1108 1.387 . S
C1112 C1113 1.387 . S
C1112 H1116 0.950 . S
C1112 C1121 1.390 1_545 S
C1113 C1112 1.387 . S
C1113 C1115 1.387 . S
H1114 C1121 0.950 . S
C1115 C1113 1.387 . S
C1115 C1117 1.401 . S
C1115 H1119 0.950 . S
H1116 C1112 0.950 . S
C1117 C1115 1.401 . S
C1117 C1118 1.379 1_545 S
C1117 H1120 0.947 1_545 S
C1118 C1117 1.379 1_565 S
C1118 C1121 1.387 . S
H1119 C1115 0.950 . S
H1120 C1117 0.947 1_565 S
C1121 C1112 1.390 1_565 S
C1121 H1114 0.950 . S
C1121 C1118 1.387 . S
C1122 C1123 1.387 . S
C1122 H1126 0.950 . S
C1122 C1131 1.390 . S
C1123 C1122 1.387 . S
C1123 C1125 1.387 . S
H1124 C1131 0.950 . S
C1125 C1123 1.387 . S
C1125 C1127 1.390 . S
C1125 H1129 0.950 . S
H1126 C1122 0.950 . S
C1127 C1125 1.390 . S
C1127 C1128 1.387 . S
C1127 H1130 0.950 . S
C1128 C1127 1.387 . S
C1128 C1131 1.387 . S
H1129 C1125 0.950 . S
H1130 C1127 0.950 . S
C1131 C1122 1.390 . S
C1131 H1124 0.950 . S
C1131 C1128 1.387 . S
C1132 C1133 1.387 . S
C1132 H1136 0.950 . S
C1132 C1141 1.390 . S
C1133 C1132 1.387 . S
C1133 C1135 1.387 . S
H1134 C1141 0.950 . S
C1135 C1133 1.387 . S
C1135 C1137 1.390 . S
C1135 H1139 0.950 . S
H1136 C1132 0.950 . S
C1137 C1135 1.390 . S
C1137 C1138 1.387 . S
C1137 H1140 0.950 . S
C1138 C1137 1.387 . S
C1138 C1141 1.387 . S
H1139 C1135 0.950 . S
H1140 C1137 0.950 . S
C1141 C1132 1.390 . S
C1141 H1134 0.950 . S
C1141 C1138 1.387 . S
C1142 C1143 1.387 . S
C1142 H1146 0.950 . S
C1142 C1151 1.390 . S
C1143 C1142 1.387 . S
C1143 C1145 1.387 . S
H1144 C1151 0.950 . S
C1145 C1143 1.387 . S
C1145 C1147 1.390 . S
C1145 H1149 0.950 . S
H1146 C1142 0.950 . S
C1147 C1145 1.390 . S
C1147 C1148 1.387 . S
C1147 H1150 0.950 . S
C1148 C1147 1.387 . S
C1148 C1151 1.387 . S
H1149 C1145 0.950 . S
H1150 C1147 0.950 . S
C1151 C1142 1.390 . S
C1151 H1144 0.950 . S
C1151 C1148 1.387 . S
C1152 C1153 1.387 . S
C1152 H1156 0.950 . S
C1152 C1161 1.390 . S
C1153 C1152 1.387 . S
C1153 C1155 1.387 . S
H1154 C1161 0.950 . S
C1155 C1153 1.387 . S
C1155 C1157 1.390 . S
C1155 H1159 0.950 . S
H1156 C1152 0.950 . S
C1157 C1155 1.390 . S
C1157 C1158 1.387 . S
C1157 H1160 0.950 . S
C1158 C1157 1.387 . S
C1158 C1161 1.387 . S
H1159 C1155 0.950 . S
H1160 C1157 0.950 . S
C1161 C1152 1.390 . S
C1161 H1154 0.950 . S
C1161 C1158 1.387 . S
C1162 C1163 1.387 . S
C1162 H1166 0.950 . S
C1162 C1171 1.390 . S
C1163 C1162 1.387 . S
C1163 C1165 1.387 . S
H1164 C1171 0.950 . S
C1165 C1163 1.387 . S
C1165 C1167 1.390 . S
C1165 H1169 0.950 . S
H1166 C1162 0.950 . S
C1167 C1165 1.390 . S
C1167 C1168 1.387 . S
C1167 H1170 0.950 . S
C1168 C1167 1.387 . S
C1168 C1171 1.387 . S
H1169 C1165 0.950 . S
H1170 C1167 0.950 . S
C1171 C1162 1.390 . S
C1171 H1164 0.950 . S
C1171 C1168 1.387 . S
C1172 C1173 1.387 . S
C1172 H1176 0.950 . S
C1172 C1181 1.390 . S
C1173 C1172 1.387 . S
C1173 C1175 1.387 . S
H1174 C1181 0.950 . S
C1175 C1173 1.387 . S
C1175 C1177 1.390 . S
C1175 H1179 0.950 . S
H1176 C1172 0.950 . S
C1177 C1175 1.390 . S
C1177 C1178 1.387 . S
C1177 H1180 0.950 . S
C1178 C1177 1.387 . S
C1178 C1181 1.387 . S
H1179 C1175 0.950 . S
H1180 C1177 0.950 . S
C1181 C1172 1.390 . S
C1181 H1174 0.950 . S
C1181 C1178 1.387 . S
C1182 C1183 1.387 . S
C1182 H1186 0.950 . S
C1182 C1191 1.390 . S
C1183 C1182 1.387 . S
C1183 C1185 1.387 . S
H1184 C1191 0.950 . S
C1185 C1183 1.387 . S
C1185 C1187 1.390 . S
C1185 H1189 0.950 . S
H1186 C1182 0.950 . S
C1187 C1185 1.390 . S
C1187 C1188 1.387 . S
C1187 H1190 0.950 . S
C1188 C1187 1.387 . S
C1188 C1191 1.387 . S
H1189 C1185 0.950 . S
H1190 C1187 0.950 . S
C1191 C1182 1.390 . S
C1191 H1184 0.950 . S
C1191 C1188 1.387 . S
C1192 C1193 1.387 . S
C1192 H1196 0.950 . S
C1192 C1201 1.390 . S
C1193 C1192 1.387 . S
C1193 C1195 1.387 . S
H1194 C1201 0.950 . S
C1195 C1193 1.387 . S
C1195 C1197 1.390 . S
C1195 H1199 0.950 . S
H1196 C1192 0.950 . S
C1197 C1195 1.390 . S
C1197 C1198 1.387 . S
C1197 H1200 0.950 . S
C1198 C1197 1.387 . S
C1198 C1201 1.387 . S
H1199 C1195 0.950 . S
H1200 C1197 0.950 . S
C1201 C1192 1.390 . S
C1201 H1194 0.950 . S
C1201 C1198 1.387 . S
C1202 C1203 1.387 . S
C1202 H1206 0.950 . S
C1202 C1211 1.390 . S
C1203 C1202 1.387 . S
C1203 C1205 1.387 . S
H1204 C1211 0.950 . S
C1205 C1203 1.387 . S
C1205 C1207 1.390 . S
C1205 H1209 0.950 . S
H1206 C1202 0.950 . S
C1207 C1205 1.390 . S
C1207 C1208 1.387 . S
C1207 H1210 0.950 . S
C1208 C1207 1.387 . S
C1208 C1211 1.387 . S
H1209 C1205 0.950 . S
H1210 C1207 0.950 . S
C1211 C1202 1.390 . S
C1211 H1204 0.950 . S
C1211 C1208 1.387 . S
C1212 C1213 1.387 . S
C1212 H1216 0.950 . S
C1212 C1221 1.390 . S
C1213 C1212 1.387 . S
C1213 C1215 1.387 . S
H1214 C1221 0.950 . S
C1215 C1213 1.387 . S
C1215 C1217 1.390 . S
C1215 H1219 0.950 . S
H1216 C1212 0.950 . S
C1217 C1215 1.390 . S
C1217 C1218 1.387 . S
C1217 H1220 0.950 . S
C1218 C1217 1.387 . S
C1218 C1221 1.387 . S
H1219 C1215 0.950 . S
H1220 C1217 0.950 . S
C1221 C1212 1.390 . S
C1221 H1214 0.950 . S
C1221 C1218 1.387 . S
C1222 C1223 1.387 . S
C1222 H1226 0.950 . S
C1222 C1231 1.390 . S
C1223 C1222 1.387 . S
C1223 C1225 1.387 . S
H1224 C1231 0.950 . S
C1225 C1223 1.387 . S
C1225 C1227 1.390 . S
C1225 H1229 0.950 . S
H1226 C1222 0.950 . S
C1227 C1225 1.390 . S
C1227 C1228 1.387 . S
C1227 H1230 0.950 . S
C1228 C1227 1.387 . S
C1228 C1231 1.387 . S
H1229 C1225 0.950 . S
H1230 C1227 0.950 . S
C1231 C1222 1.390 . S
C1231 H1224 0.950 . S
C1231 C1228 1.387 . S
C1232 C1233 1.387 . S
C1232 H1236 0.950 . S
C1232 C1241 1.390 . S
C1233 C1232 1.387 . S
C1233 C1235 1.387 . S
H1234 C1241 0.950 . S
C1235 C1233 1.387 . S
C1235 C1237 1.390 . S
C1235 H1239 0.950 . S
H1236 C1232 0.950 . S
C1237 C1235 1.390 . S
C1237 C1238 1.387 . S
C1237 H1240 0.950 . S
C1238 C1237 1.387 . S
C1238 C1241 1.387 . S
H1239 C1235 0.950 . S
H1240 C1237 0.950 . S
C1241 C1232 1.390 . S
C1241 H1234 0.950 . S
C1241 C1238 1.387 . S
C1242 C1243 1.391 . S
C1242 H1246 0.948 1_565 S
C1242 C1251 1.388 1_565 S
C1243 C1242 1.391 . S
C1243 C1245 1.387 . S
H1244 C1251 0.950 . S
C1245 C1243 1.387 . S
C1245 C1247 1.390 . S
C1245 H1249 0.950 . S
H1246 C1242 0.948 1_545 S
C1247 C1245 1.390 . S
C1247 C1248 1.387 1_565 S
C1247 H1250 0.950 . S
C1248 C1247 1.387 1_545 S
C1248 C1251 1.387 . S
H1249 C1245 0.950 . S
H1250 C1247 0.950 . S
C1251 C1242 1.388 1_545 S
C1251 H1244 0.950 . S
C1251 C1248 1.387 . S
C1252 C1253 1.387 . S
C1252 H1256 0.950 . S
C1252 C1261 1.390 . S
C1253 C1252 1.387 . S
C1253 C1255 1.399 . S
H1254 C1261 0.950 . S
C1255 C1253 1.399 . S
C1255 C1257 1.368 1_455 S
C1255 H1259 0.972 1_455 S
H1256 C1252 0.950 . S
C1257 C1255 1.368 1_655 S
C1257 C1258 1.387 . S
C1257 H1260 0.950 . S
C1258 C1257 1.387 . S
C1258 C1261 1.387 1_655 S
H1259 C1255 0.972 1_655 S
H1260 C1257 0.950 . S
C1261 C1252 1.390 . S
C1261 H1254 0.950 . S
C1261 C1258 1.387 1_455 S
C1262 C1263 1.387 . S
C1262 H1266 0.950 . S
C1262 C1271 1.390 . S
C1263 C1262 1.387 . S
C1263 C1265 1.387 . S
H1264 C1271 0.950 . S
C1265 C1263 1.387 . S
C1265 C1267 1.390 . S
C1265 H1269 0.950 . S
H1266 C1262 0.950 . S
C1267 C1265 1.390 . S
C1267 C1268 1.387 . S
C1267 H1270 0.950 . S
C1268 C1267 1.387 . S
C1268 C1271 1.387 . S
H1269 C1265 0.950 . S
H1270 C1267 0.950 . S
C1271 C1262 1.390 . S
C1271 H1264 0.950 . S
C1271 C1268 1.387 . S
C1272 C1273 1.387 . S
C1272 H1276 0.950 . S
C1272 C1281 1.390 . S
C1273 C1272 1.387 . S
C1273 C1275 1.387 . S
H1274 C1281 0.950 . S
C1275 C1273 1.387 . S
C1275 C1277 1.390 . S
C1275 H1279 0.950 . S
H1276 C1272 0.950 . S
C1277 C1275 1.390 . S
C1277 C1278 1.387 . S
C1277 H1280 0.950 . S
C1278 C1277 1.387 . S
C1278 C1281 1.387 . S
H1279 C1275 0.950 . S
H1280 C1277 0.950 . S
C1281 C1272 1.390 . S
C1281 H1274 0.950 . S
C1281 C1278 1.387 . S
C1282 C1283 1.387 . S
C1282 H1286 0.950 . S
C1282 C1291 1.390 . S
C1283 C1282 1.387 . S
C1283 C1285 1.387 . S
H1284 C1291 0.950 . S
C1285 C1283 1.387 . S
C1285 C1287 1.390 . S
C1285 H1289 0.950 . S
H1286 C1282 0.950 . S
C1287 C1285 1.390 . S
C1287 C1288 1.387 . S
C1287 H1290 0.950 . S
C1288 C1287 1.387 . S
C1288 C1291 1.387 . S
H1289 C1285 0.950 . S
H1290 C1287 0.950 . S
C1291 C1282 1.390 . S
C1291 H1284 0.950 . S
C1291 C1288 1.387 . S
C1292 C1293 1.387 . S
C1292 H1296 0.950 . S
C1292 C1301 1.390 . S
C1293 C1292 1.387 . S
C1293 C1295 1.387 . S
H1294 C1301 0.950 . S
C1295 C1293 1.387 . S
C1295 C1297 1.390 . S
C1295 H1299 0.950 . S
H1296 C1292 0.950 . S
C1297 C1295 1.390 . S
C1297 C1298 1.387 . S
C1297 H1300 0.950 . S
C1298 C1297 1.387 . S
C1298 C1301 1.387 . S
H1299 C1295 0.950 . S
H1300 C1297 0.950 . S
C1301 C1292 1.390 . S
C1301 H1294 0.950 . S
C1301 C1298 1.387 . S
C1302 C1303 1.387 . S
C1302 H1306 0.950 . S
C1302 C1311 1.390 . S
C1303 C1302 1.387 . S
C1303 C1305 1.387 . S
H1304 C1311 0.950 . S
C1305 C1303 1.387 . S
C1305 C1307 1.390 . S
C1305 H1309 0.950 . S
H1306 C1302 0.950 . S
C1307 C1305 1.390 . S
C1307 C1308 1.387 . S
C1307 H1310 0.950 . S
C1308 C1307 1.387 . S
C1308 C1311 1.387 . S
H1309 C1305 0.950 . S
H1310 C1307 0.950 . S
C1311 C1302 1.390 . S
C1311 H1304 0.950 . S
C1311 C1308 1.387 . S
C1312 C1313 1.387 . S
C1312 H1316 0.950 . S
C1312 C1321 1.390 . S
C1313 C1312 1.387 . S
C1313 C1315 1.387 . S
H1314 C1321 0.950 . S
C1315 C1313 1.387 . S
C1315 C1317 1.390 . S
C1315 H1319 0.950 . S
H1316 C1312 0.950 . S
C1317 C1315 1.390 . S
C1317 C1318 1.387 . S
C1317 H1320 0.950 . S
C1318 C1317 1.387 . S
C1318 C1321 1.387 . S
H1319 C1315 0.950 . S
H1320 C1317 0.950 . S
C1321 C1312 1.390 . S
C1321 H1314 0.950 . S
C1321 C1318 1.387 . S
C1322 C1323 1.387 . S
C1322 H1326 0.950 . S
C1322 C1331 1.390 . S
C1323 C1322 1.387 . S
C1323 C1325 1.387 . S
H1324 C1331 0.950 . S
C1325 C1323 1.387 . S
C1325 C1327 1.390 . S
C1325 H1329 0.950 . S
H1326 C1322 0.950 . S
C1327 C1325 1.390 . S
C1327 C1328 1.387 . S
C1327 H1330 0.950 . S
C1328 C1327 1.387 . S
C1328 C1331 1.387 . S
H1329 C1325 0.950 . S
H1330 C1327 0.950 . S
C1331 C1322 1.390 . S
C1331 H1324 0.950 . S
C1331 C1328 1.387 . S
C1332 C1333 1.387 . S
C1332 H1336 0.950 . S
C1332 C1341 1.390 . S
C1333 C1332 1.387 . S
C1333 C1335 1.387 . S
H1334 C1341 0.950 . S
C1335 C1333 1.387 . S
C1335 C1337 1.390 . S
C1335 H1339 0.950 . S
H1336 C1332 0.950 . S
C1337 C1335 1.390 . S
C1337 C1338 1.387 . S
C1337 H1340 0.950 . S
C1338 C1337 1.387 . S
C1338 C1341 1.387 . S
H1339 C1335 0.950 . S
H1340 C1337 0.950 . S
C1341 C1332 1.390 . S
C1341 H1334 0.950 . S
C1341 C1338 1.387 . S
C1342 C1343 1.387 . S
C1342 H1346 0.950 . S
C1342 C1351 1.390 . S
C1343 C1342 1.387 . S
C1343 C1345 1.387 . S
H1344 C1351 0.950 . S
C1345 C1343 1.387 . S
C1345 C1347 1.390 . S
C1345 H1349 0.950 . S
H1346 C1342 0.950 . S
C1347 C1345 1.390 . S
C1347 C1348 1.387 . S
C1347 H1350 0.950 . S
C1348 C1347 1.387 . S
C1348 C1351 1.387 . S
H1349 C1345 0.950 . S
H1350 C1347 0.950 . S
C1351 C1342 1.390 . S
C1351 H1344 0.950 . S
C1351 C1348 1.387 . S
C1352 C1353 1.387 . S
C1352 H1356 0.950 . S
C1352 C1361 1.390 . S
C1353 C1352 1.387 . S
C1353 C1355 1.387 . S
H1354 C1361 0.950 . S
C1355 C1353 1.387 . S
C1355 C1357 1.390 . S
C1355 H1359 0.950 . S
H1356 C1352 0.950 . S
C1357 C1355 1.390 . S
C1357 C1358 1.387 . S
C1357 H1360 0.950 . S
C1358 C1357 1.387 . S
C1358 C1361 1.387 . S
H1359 C1355 0.950 . S
H1360 C1357 0.950 . S
C1361 C1352 1.390 . S
C1361 H1354 0.950 . S
C1361 C1358 1.387 . S
C1362 C1363 1.387 . S
C1362 H1366 0.950 . S
C1362 C1371 1.390 . S
C1363 C1362 1.387 . S
C1363 C1365 1.387 . S
H1364 C1371 0.950 . S
C1365 C1363 1.387 . S
C1365 C1367 1.390 . S
C1365 H1369 0.950 . S
H1366 C1362 0.950 . S
C1367 C1365 1.390 . S
C1367 C1368 1.387 . S
C1367 H1370 0.950 . S
C1368 C1367 1.387 . S
C1368 C1371 1.387 . S
H1369 C1365 0.950 . S
H1370 C1367 0.950 . S
C1371 C1362 1.390 . S
C1371 H1364 0.950 . S
C1371 C1368 1.387 . S
C1372 C1373 1.387 . S
C1372 H1376 0.950 . S
C1372 C1381 1.390 . S
C1373 C1372 1.387 . S
C1373 C1375 1.387 . S
H1374 C1381 0.950 . S
C1375 C1373 1.387 . S
C1375 C1377 1.390 . S
C1375 H1379 0.950 . S
H1376 C1372 0.950 . S
C1377 C1375 1.390 . S
C1377 C1378 1.387 . S
C1377 H1380 0.950 . S
C1378 C1377 1.387 . S
C1378 C1381 1.387 . S
H1379 C1375 0.950 . S
H1380 C1377 0.950 . S
C1381 C1372 1.390 . S
C1381 H1374 0.950 . S
C1381 C1378 1.387 . S
C1382 C1383 1.387 . S
C1382 H1386 0.950 . S
C1382 C1391 1.390 . S
C1383 C1382 1.387 . S
C1383 C1385 1.387 . S
H1384 C1391 0.950 . S
C1385 C1383 1.387 . S
C1385 C1387 1.390 . S
C1385 H1389 0.950 . S
H1386 C1382 0.950 . S
C1387 C1385 1.390 . S
C1387 C1388 1.387 . S
C1387 H1390 0.950 . S
C1388 C1387 1.387 . S
C1388 C1391 1.387 . S
H1389 C1385 0.950 . S
H1390 C1387 0.950 . S
C1391 C1382 1.390 . S
C1391 H1384 0.950 . S
C1391 C1388 1.387 . S
C1392 C1393 1.387 . S
C1392 H1396 0.950 . S
C1392 C1401 1.390 . S
C1393 C1392 1.387 . S
C1393 C1395 1.387 . S
H1394 C1401 0.950 . S
C1395 C1393 1.387 . S
C1395 C1397 1.390 . S
C1395 H1399 0.950 . S
H1396 C1392 0.950 . S
C1397 C1395 1.390 . S
C1397 C1398 1.387 . S
C1397 H1400 0.950 . S
C1398 C1397 1.387 . S
C1398 C1401 1.387 . S
H1399 C1395 0.950 . S
H1400 C1397 0.950 . S
C1401 C1392 1.390 . S
C1401 H1394 0.950 . S
C1401 C1398 1.387 . S
C1402 C1403 1.387 . S
C1402 H1406 0.950 . S
C1402 C1411 1.390 . S
C1403 C1402 1.387 . S
C1403 C1405 1.387 . S
H1404 C1411 0.950 . S
C1405 C1403 1.387 . S
C1405 C1407 1.390 . S
C1405 H1409 0.950 . S
H1406 C1402 0.950 . S
C1407 C1405 1.390 . S
C1407 C1408 1.387 . S
C1407 H1410 0.950 . S
C1408 C1407 1.387 . S
C1408 C1411 1.387 . S
H1409 C1405 0.950 . S
H1410 C1407 0.950 . S
C1411 C1402 1.390 . S
C1411 H1404 0.950 . S
C1411 C1408 1.387 . S
C1412 C1413 1.387 . S
C1412 H1416 0.950 . S
C1412 C1421 1.390 . S
C1413 C1412 1.387 . S
C1413 C1415 1.387 . S
H1414 C1421 0.950 . S
C1415 C1413 1.387 . S
C1415 C1417 1.390 . S
C1415 H1419 0.950 . S
H1416 C1412 0.950 . S
C1417 C1415 1.390 . S
C1417 C1418 1.387 . S
C1417 H1420 0.950 . S
C1418 C1417 1.387 . S
C1418 C1421 1.387 . S
H1419 C1415 0.950 . S
H1420 C1417 0.950 . S
C1421 C1412 1.390 . S
C1421 H1414 0.950 . S
C1421 C1418 1.387 . S
C1422 C1423 1.387 . S
C1422 H1426 0.950 . S
C1422 C1431 1.390 . S
C1423 C1422 1.387 . S
C1423 C1425 1.387 . S
H1424 C1431 0.950 . S
C1425 C1423 1.387 . S
C1425 C1427 1.390 . S
C1425 H1429 0.950 . S
H1426 C1422 0.950 . S
C1427 C1425 1.390 . S
C1427 C1428 1.387 . S
C1427 H1430 0.950 . S
C1428 C1427 1.387 . S
C1428 C1431 1.387 . S
H1429 C1425 0.950 . S
H1430 C1427 0.950 . S
C1431 C1422 1.390 . S
C1431 H1424 0.950 . S
C1431 C1428 1.387 . S
C1432 C1433 1.387 . S
C1432 H1436 0.950 . S
C1432 C1441 1.390 . S
C1433 C1432 1.387 . S
C1433 C1435 1.387 . S
H1434 C1441 0.950 . S
C1435 C1433 1.387 . S
C1435 C1437 1.390 . S
C1435 H1439 0.950 . S
H1436 C1432 0.950 . S
C1437 C1435 1.390 . S
C1437 C1438 1.387 . S
C1437 H1440 0.950 . S
C1438 C1437 1.387 . S
C1438 C1441 1.387 . S
H1439 C1435 0.950 . S
H1440 C1437 0.950 . S
C1441 C1432 1.390 . S
C1441 H1434 0.950 . S
C1441 C1438 1.387 . S
C1442 C1443 1.387 . S
C1442 H1446 0.950 . S
C1442 C1451 1.390 . S
C1443 C1442 1.387 . S
C1443 C1445 1.387 . S
H1444 C1451 0.950 . S
C1445 C1443 1.387 . S
C1445 C1447 1.390 . S
C1445 H1449 0.950 . S
H1446 C1442 0.950 . S
C1447 C1445 1.390 . S
C1447 C1448 1.387 . S
C1447 H1450 0.950 . S
C1448 C1447 1.387 . S
C1448 C1451 1.387 . S
H1449 C1445 0.950 . S
H1450 C1447 0.950 . S
C1451 C1442 1.390 . S
C1451 H1444 0.950 . S
C1451 C1448 1.387 . S
C1452 C1453 1.387 . S
C1452 H1456 0.950 . S
C1452 C1461 1.390 . S
C1453 C1452 1.387 . S
C1453 C1455 1.387 . S
H1454 C1461 0.950 . S
C1455 C1453 1.387 . S
C1455 C1457 1.390 . S
C1455 H1459 0.950 . S
H1456 C1452 0.950 . S
C1457 C1455 1.390 . S
C1457 C1458 1.387 . S
C1457 H1460 0.950 . S
C1458 C1457 1.387 . S
C1458 C1461 1.387 . S
H1459 C1455 0.950 . S
H1460 C1457 0.950 . S
C1461 C1452 1.390 . S
C1461 H1454 0.950 . S
C1461 C1458 1.387 . S
C1462 C1463 1.387 . S
C1462 H1466 0.950 . S
C1462 C1471 1.390 . S
C1463 C1462 1.387 . S
C1463 C1465 1.387 . S
H1464 C1471 0.950 . S
C1465 C1463 1.387 . S
C1465 C1467 1.390 . S
C1465 H1469 0.950 . S
H1466 C1462 0.950 . S
C1467 C1465 1.390 . S
C1467 C1468 1.387 . S
C1467 H1470 0.950 . S
C1468 C1467 1.387 . S
C1468 C1471 1.387 . S
H1469 C1465 0.950 . S
H1470 C1467 0.950 . S
C1471 C1462 1.390 . S
C1471 H1464 0.950 . S
C1471 C1468 1.387 . S
C1472 C1473 1.387 . S
C1472 H1476 0.950 . S
C1472 C1481 1.390 . S
C1473 C1472 1.387 . S
C1473 C1475 1.387 . S
H1474 C1481 0.950 . S
C1475 C1473 1.387 . S
C1475 C1477 1.390 . S
C1475 H1479 0.950 . S
H1476 C1472 0.950 . S
C1477 C1475 1.390 . S
C1477 C1478 1.387 . S
C1477 H1480 0.950 . S
C1478 C1477 1.387 . S
C1478 C1481 1.387 . S
H1479 C1475 0.950 . S
H1480 C1477 0.950 . S
C1481 C1472 1.390 . S
C1481 H1474 0.950 . S
C1481 C1478 1.387 . S
C1482 C1483 1.387 . S
C1482 H1486 0.950 . S
C1482 C1491 1.390 . S
C1483 C1482 1.387 . S
C1483 C1485 1.387 . S
H1484 C1491 0.950 . S
C1485 C1483 1.387 . S
C1485 C1487 1.390 . S
C1485 H1489 0.950 . S
H1486 C1482 0.950 . S
C1487 C1485 1.390 . S
C1487 C1488 1.387 . S
C1487 H1490 0.950 . S
C1488 C1487 1.387 . S
C1488 C1491 1.387 . S
H1489 C1485 0.950 . S
H1490 C1487 0.950 . S
C1491 C1482 1.390 . S
C1491 H1484 0.950 . S
C1491 C1488 1.387 . S
C1492 C1493 1.387 . S
C1492 H1496 0.950 . S
C1492 C1501 1.390 . S
C1493 C1492 1.387 . S
C1493 C1495 1.387 . S
H1494 C1501 0.950 . S
C1495 C1493 1.387 . S
C1495 C1497 1.390 . S
C1495 H1499 0.950 . S
H1496 C1492 0.950 . S
C1497 C1495 1.390 . S
C1497 C1498 1.387 . S
C1497 H1500 0.950 . S
C1498 C1497 1.387 . S
C1498 C1501 1.387 . S
H1499 C1495 0.950 . S
H1500 C1497 0.950 . S
C1501 C1492 1.390 . S
C1501 H1494 0.950 . S
C1501 C1498 1.387 . S
C1502 C1503 1.387 . S
C1502 H1506 0.950 . S
C1502 C1511 1.390 . S
C1503 C1502 1.387 . S
C1503 C1505 1.387 . S
H1504 C1511 0.950 . S
C1505 C1503 1.387 . S
C1505 C1507 1.390 . S
C1505 H1509 0.950 . S
H1506 C1502 0.950 . S
C1507 C1505 1.390 . S
C1507 C1508 1.387 . S
C1507 H1510 0.950 . S
C1508 C1507 1.387 . S
C1508 C1511 1.387 . S
H1509 C1505 0.950 . S
H1510 C1507 0.950 . S
C1511 C1502 1.390 . S
C1511 H1504 0.950 . S
C1511 C1508 1.387 . S
C973 C162 1.474 . S
C978 C283 1.420 . S
C983 C174 1.498 . S
C988 C367 1.452 . S
C993 C150 1.470 . S
C998 C447 1.470 . S
C1003 C138 1.459 . S
C1008 C363 1.464 . S
C1018 C451 1.412 . S
C1013 C114 1.466 . S
C1023 C126 1.439 . S
C1028 C279 1.437 . S
C1038 C272 1.461 . S
C1033 C136 1.508 . S
C1048 C356 1.484 . S
C1043 C112 1.529 . S
C1053 C124 1.523 . S
C1058 C458 1.484 . S
C1063 C160 1.499 . S
C1068 C374 1.459 . S
C1073 C172 1.488 . S
C1078 C440 1.441 . S
C1088 C290 1.440 . S
C1083 C148 1.481 . S
C1098 C535 1.422 . S
C1093 C18 1.474 . S
C1103 C30 1.499 . S
C1108 C619 1.449 . S
C1113 C6 1.470 . S
C1118 C699 1.471 . S
C1123 C210 1.459 . S
C1128 C615 1.464 . S
C1133 C186 1.466 . S
C1138 C703 1.408 . S
C1143 C198 1.438 . S
C1148 C531 1.438 . S
C1153 C208 1.508 . S
C1158 C524 1.462 . S
C1163 C184 1.528 . S
C1168 C608 1.487 . S
C1178 C710 1.481 . S
C1173 C196 1.520 . S
C1183 C16 1.500 1_565 S
C1188 C626 1.463 . S
C1198 C692 1.437 . S
C1193 C28 1.489 1_455 S
C1203 C4 1.482 . S
C1208 C542 1.441 . S
C1218 C787 1.420 . S
C1213 C90 1.475 . S
C1223 C102 1.499 . S
C1228 C871 1.449 . S
C1238 C951 1.471 . S
C1233 C78 1.470 . S
C1248 C867 1.464 . S
C1243 C66 1.459 . S
C1258 C955 1.409 . S
C1253 C42 1.466 . S
C1263 C54 1.438 . S
C1268 C783 1.438 . S
C1273 C64 1.508 1_655 S
C1278 C776 1.461 . S
C1283 C40 1.528 . S
C1288 C860 1.484 . S
C1298 C962 1.482 . S
C1293 C52 1.520 1_545 S
C1303 C88 1.499 . S
C1308 C878 1.459 . S
C1313 C100 1.489 . S
C1318 C944 1.437 . S
C1323 C76 1.482 . S
C1328 C794 1.441 . S
C1333 C189 1.582 . S
C1338 C286 1.482 . S
C1348 C370 1.491 . S
C1343 C201 1.625 . S
C1353 C213 1.580 . S
C1358 C442 1.388 . S
C1363 C81 1.590 . S
C1368 C358 1.382 . S
C1373 C93 1.592 . S
C1378 C454 1.466 . S
C1388 C274 1.380 . S
C1383 C105 1.549 . S
C1393 C45 1.582 . S
C1398 C538 1.483 . S
C1403 C57 1.625 . S
C1408 C622 1.491 . S
C1413 C69 1.579 . S
C1418 C694 1.391 . S
C1423 C153 1.592 . S
C1428 C610 1.384 . S
C1438 C706 1.467 . S
C1433 C165 1.590 . S
C1443 C177 1.548 . S
C1448 C526 1.378 . S
C1453 C117 1.584 . S
C1458 C790 1.481 . S
C1463 C129 1.625 . S
C1468 C874 1.491 . S
C1478 C946 1.388 . S
C1473 C141 1.580 . S
C1483 C9 1.591 . S
C1488 C862 1.382 . S
C1493 C21 1.591 . S
C1498 C958 1.464 . S
C1503 C33 1.549 . S
C1508 C778 1.381 . S
