# Generated by pormake.
# Topology anh, (6,3)-cn, num edge types: 1
# Building blocks:
#     Node 0, Type 0, BuildingBlock: BETDIP_clean_sbu_0, # of connection points: 6
#     Node 1, Type 0, BuildingBlock: BETDIP_clean_sbu_0, # of connection points: 6
#     Node 2, Type 0, BuildingBlock: BETDIP_clean_sbu_0, # of connection points: 6
#     Node 3, Type 1, BuildingBlock: BETDIP_clean_linker_0, # of connection points: 3
#     Node 4, Type 1, BuildingBlock: BETDIP_clean_linker_0, # of connection points: 3
#     Node 5, Type 1, BuildingBlock: BETDIP_clean_linker_0, # of connection points: 3
#     Node 6, Type 1, BuildingBlock: BETDIP_clean_linker_0, # of connection points: 3
#     Node 7, Type 1, BuildingBlock: BETDIP_clean_linker_0, # of connection points: 3
#     Node 8, Type 1, BuildingBlock: BETDIP_clean_linker_0, # of connection points: 3
#     Edge 9, Type (0, 1), BuildingBlock: UVAHIK_clean_linker_0, # of connection points: 2
#     Edge 10, Type (0, 1), BuildingBlock: UVAHIK_clean_linker_0, # of connection points: 2
#     Edge 11, Type (0, 1), BuildingBlock: UVAHIK_clean_linker_0, # of connection points: 2
#     Edge 12, Type (0, 1), BuildingBlock: UVAHIK_clean_linker_0, # of connection points: 2
#     Edge 13, Type (0, 1), BuildingBlock: UVAHIK_clean_linker_0, # of connection points: 2
#     Edge 14, Type (0, 1), BuildingBlock: UVAHIK_clean_linker_0, # of connection points: 2
#     Edge 15, Type (0, 1), BuildingBlock: UVAHIK_clean_linker_0, # of connection points: 2
#     Edge 16, Type (0, 1), BuildingBlock: UVAHIK_clean_linker_0, # of connection points: 2
#     Edge 17, Type (0, 1), BuildingBlock: UVAHIK_clean_linker_0, # of connection points: 2
#     Edge 18, Type (0, 1), BuildingBlock: UVAHIK_clean_linker_0, # of connection points: 2
#     Edge 19, Type (0, 1), BuildingBlock: UVAHIK_clean_linker_0, # of connection points: 2
#     Edge 20, Type (0, 1), BuildingBlock: UVAHIK_clean_linker_0, # of connection points: 2
#     Edge 21, Type (0, 1), BuildingBlock: UVAHIK_clean_linker_0, # of connection points: 2
#     Edge 22, Type (0, 1), BuildingBlock: UVAHIK_clean_linker_0, # of connection points: 2
#     Edge 23, Type (0, 1), BuildingBlock: UVAHIK_clean_linker_0, # of connection points: 2
#     Edge 24, Type (0, 1), BuildingBlock: UVAHIK_clean_linker_0, # of connection points: 2
#     Edge 25, Type (0, 1), BuildingBlock: UVAHIK_clean_linker_0, # of connection points: 2
#     Edge 26, Type (0, 1), BuildingBlock: UVAHIK_clean_linker_0, # of connection points: 2
# Relax obj value: 0.197
# Max RMSD: 0.180
# Mean RMSD: 0.128
data_MOF--net-anh--node1-BETDIP_clean_sbu_0--node2-BETDIP_clean_linker_0--edge1-UVAHIK_clean_linker_0
_symmetry_space_group_name_H-M    P1
_symmetry_Int_Tables_number       1
_symmetry_cell_setting            triclinic
loop_
_symmetry_equiv_pos_as_xyz
'x, y, z'
_cell_length_a     40.222837
_cell_length_b     40.407082
_cell_length_c     63.903088
_cell_angle_alpha  93.508592
_cell_angle_beta   89.421793
_cell_angle_gamma 119.54602
loop_
_atom_site_label
_atom_site_type_symbol
_atom_site_fract_x
_atom_site_fract_y
_atom_site_fract_z
_atom_type_partial_charge
Tb0 Tb 0.09935 0.63444 0.16421 0.0
Tb1 Tb 1.0632 0.55223 0.15434 0.0
C2 C 0.13717 0.70199 0.17935 0.0
C3 C 0.17517 0.73378 0.17564 0.0
C4 C 0.18581 0.7702 0.18461 0.0
C5 C 0.22097 0.80125 0.17996 0.0
C6 C 0.24591 0.79623 0.16622 0.0
C7 C 0.235 0.75953 0.15727 0.0
C8 C 0.19984 0.72856 0.16191 0.0
C9 C 0.08766 0.61308 0.12388 0.0
C10 C 0.15414 0.59642 0.1562 0.0
C11 C 1.02545 0.48597 0.1374 0.0
C12 C 0.98862 0.45178 0.14035 0.0
C13 C 0.97169 0.42438 0.12362 0.0
C14 C 0.93994 0.38903 0.12694 0.0
C15 C 0.92489 0.38048 0.14712 0.0
C16 C 0.94049 0.40911 0.16354 0.0
C17 C 0.97205 0.44455 0.16015 0.0
C18 C 0.07464 0.57141 0.19513 0.0
C19 C 1.00927 0.59132 0.1595 0.0
O20 O 0.13589 0.67292 0.18811 0.0
O21 O 0.11333 0.69143 0.1634 0.0
O22 O 0.09882 0.59994 0.13764 0.0
O23 O 0.0848 0.64149 0.13217 0.0
O24 O 0.15095 0.62597 0.16444 0.0
O25 O 0.12288 0.56565 0.14843 0.0
O26 O 1.02437 0.51535 0.13066 0.0
O27 O 1.05085 0.49556 0.1525 0.0
O28 O 1.06414 0.58661 0.18194 0.0
O29 O 0.07475 0.54213 0.18589 0.0
O30 O 1.01282 0.56176 0.15187 0.0
O31 O 1.03957 0.62158 0.16843 0.0
H32 H 0.16674 0.77468 0.195 0.0
H33 H 0.22847 0.82922 0.18695 0.0
H34 H 0.25385 0.75465 0.14692 0.0
H35 H 0.19176 0.70061 0.15465 0.0
H36 H 0.984 0.42971 0.1082 0.0
H37 H 0.92809 0.36788 0.11389 0.0
H38 H 0.92985 0.40345 0.1793 0.0
H39 H 0.98469 0.46558 0.17323 0.0
Tb40 Tb 0.59306 0.07083 0.50141 0.0
Tb41 Tb 0.54932 0.10383 0.48469 0.0
C42 C 0.61713 1.0386 0.52453 0.0
C43 C 0.61293 1.00066 0.5261 0.0
C44 C 0.62512 0.99255 0.54456 0.0
C45 C 0.62794 0.95955 0.54525 0.0
C46 C 0.61875 0.93419 0.52739 0.0
C47 C 0.60433 0.94133 0.50927 0.0
C48 C 0.60134 0.97431 0.50865 0.0
C49 C 0.59595 0.07355 0.46074 0.0
C50 C 0.50185 1.01434 0.48869 0.0
C51 C 0.52419 0.13859 0.46439 0.0
C52 C 0.53491 0.17876 0.46232 0.0
C53 C 0.57169 0.20581 0.45628 0.0
C54 C 0.58202 0.24431 0.45632 0.0
C55 C 0.55587 0.25636 0.46254 0.0
C56 C 0.51872 0.22909 0.46781 0.0
C57 C 0.5083 0.19062 0.46759 0.0
C58 C 0.55092 0.10283 0.52618 0.0
C59 C 0.64116 0.15916 0.49275 0.0
O60 O 0.5874 1.04261 0.52899 0.0
O61 O 0.63451 0.05596 0.50787 0.0
O62 O 0.56672 0.06538 0.47148 0.0
O63 O 0.62312 0.07588 0.47245 0.0
O64 O 0.53335 1.01902 0.49856 0.0
O65 O 0.50318 0.04389 0.47987 0.0
O66 O 0.5473 0.12711 0.45658 0.0
O67 O 0.51188 0.12566 0.48278 0.0
O68 O 0.57828 0.11117 0.51407 0.0
O69 O 0.52115 0.0961 0.51521 0.0
O70 O 0.60902 0.15348 0.48345 0.0
O71 O 0.64016 0.13141 0.50349 0.0
H72 H 0.63432 1.01269 0.55813 0.0
H73 H 0.63954 0.95516 0.55936 0.0
H74 H 0.59662 0.9221 0.49537 0.0
H75 H 0.59172 0.98013 0.49425 0.0
H76 H 0.5928 0.19747 0.4521 0.0
H77 H 0.61096 0.26485 0.45238 0.0
H78 H 0.49796 0.23765 0.47251 0.0
H79 H 0.47972 0.17022 0.47216 0.0
Tb80 Tb 0.54323 0.58857 0.82835 0.0
Tb81 Tb 0.62652 0.63317 0.82363 0.0
C82 C 0.47701 0.56227 0.84238 0.0
C83 C 0.44351 0.56762 0.84159 0.0
C84 C 0.41873 0.55672 0.85849 0.0
C85 C 0.38323 0.55472 0.85685 0.0
C86 C 0.37182 0.56353 0.83821 0.0
C87 C 0.39782 0.57683 0.82175 0.0
C88 C 0.43349 0.57893 0.82345 0.0
C89 C 0.56564 0.59467 0.78943 0.0
C90 C 0.58326 0.68121 0.82341 0.0
C91 C 0.69323 0.6556 0.81127 0.0
C92 C 0.71788 0.6382 0.81167 0.0
C93 C 0.73573 0.63487 0.79332 0.0
C94 C 0.75615 0.61509 0.79299 0.0
C95 C 0.75907 0.59835 0.81105 0.0
C96 C 0.74184 0.60259 0.82952 0.0
C97 C 0.72123 0.622 0.82979 0.0
C98 C 0.60382 0.62722 0.8628 0.0
C99 C 0.586 0.54024 0.82462 0.0
O100 O 0.50754 0.58883 0.8526 0.0
O101 O 0.48506 0.54938 0.82491 0.0
O102 O 0.57917 0.62003 0.80411 0.0
O103 O 0.53583 0.5649 0.79577 0.0
O104 O 0.55233 0.64868 0.82834 0.0
O105 O 0.61553 0.6809 0.81889 0.0
O106 O 0.66293 0.63735 0.79895 0.0
O107 O 0.68551 0.66675 0.82945 0.0
O108 O 0.59058 0.60106 0.84832 0.0
O109 O 0.63217 0.65745 0.85577 0.0
O110 O 0.61662 0.5731 0.82025 0.0
O111 O 0.55441 0.54037 0.83082 0.0
H112 H 0.42597 0.54777 0.87257 0.0
H113 H 0.3638 0.54388 0.86972 0.0
H114 H 0.39003 0.58424 0.8073 0.0
H115 H 0.45242 0.58765 0.81025 0.0
H116 H 0.73308 0.64676 0.7791 0.0
H117 H 0.76875 0.61206 0.77845 0.0
H118 H 0.74414 0.59079 0.84385 0.0
H119 H 0.70741 0.62374 0.84413 0.0
H120 H 0.64301 0.96405 0.1912 0.0
H121 H 0.68996 1.01356 0.2525 0.0
H122 H 0.59417 1.02084 0.22863 0.0
H123 H 0.75806 0.99754 0.22586 0.0
C124 C 0.7381 1.0054 0.21962 0.0
C125 C 0.64262 0.97964 0.20553 0.0
C126 C 0.61599 0.99241 0.2078 0.0
C127 C 0.67006 0.98856 0.22134 0.0
C128 C 0.66953 1.00831 0.24005 0.0
C129 C 0.64152 1.01922 0.24308 0.0
C130 C 0.61561 1.01214 0.22659 0.0
N131 N 0.69856 0.97791 0.21829 0.0
H132 H 0.78537 0.66416 0.5323 0.0
H133 H 0.79313 0.69626 0.59815 0.0
H134 H 0.69263 0.59664 0.57223 0.0
H135 H 0.85989 0.75741 0.53885 0.0
C136 C 0.83311 0.74357 0.54705 0.0
C137 C 0.77277 0.65908 0.54767 0.0
C138 C 0.73677 0.62727 0.5503 0.0
C139 C 0.79289 0.68408 0.56492 0.0
C140 C 0.77736 0.67673 0.58492 0.0
C141 C 0.74055 0.64593 0.58759 0.0
C142 C 0.72043 0.62134 0.57017 0.0
N143 N 0.82847 0.71725 0.56215 0.0
H144 H 0.95203 0.37612 0.86177 0.0
H145 H 0.97605 0.36902 0.92602 0.0
H146 H 0.95726 0.45981 0.90861 0.0
H147 H 0.97305 0.30347 0.86151 0.0
C148 C 0.98487 0.33177 0.86926 0.0
C149 C 0.95618 0.38748 0.87791 0.0
C150 C 0.95275 0.41988 0.88329 0.0
C151 C 0.96455 0.36924 0.89335 0.0
C152 C 0.96984 0.38356 0.91426 0.0
C153 C 0.96832 0.41696 0.91988 0.0
C154 C 0.95928 0.43456 0.90431 0.0
N155 N 0.96783 0.33637 0.88801 0.0
H156 H 0.10416 0.61847 0.48378 0.0
H157 H 1.04596 0.55774 0.42546 0.0
H158 H 0.14857 0.66535 0.42412 0.0
H159 H 0.99329 0.53905 0.44427 0.0
C160 C 1.00007 0.52866 0.45796 0.0
C161 C 0.10214 0.61643 0.46682 0.0
C162 C 0.13134 0.64694 0.45528 0.0
C163 C 1.06956 0.58387 0.45623 0.0
C164 C 1.06872 0.58219 0.43409 0.0
C165 C 0.09663 0.61146 0.42259 0.0
C166 C 0.1271 0.64328 0.43326 0.0
N167 N 1.03842 0.5529 0.46721 0.0
H168 H 0.58605 0.14316 0.8146 0.0
H169 H 0.57408 0.07578 0.75679 0.0
H170 H 0.58068 0.1842 0.7544 0.0
H171 H 0.53974 1.02645 0.77791 0.0
C172 C 0.56113 1.03428 0.79028 0.0
C173 C 0.58315 0.13924 0.79768 0.0
C174 C 0.58406 0.16918 0.78588 0.0
C175 C 0.57897 0.10433 0.78735 0.0
C176 C 0.57584 0.10067 0.76524 0.0
C177 C 0.57679 0.1294 0.75354 0.0
C178 C 0.58072 0.16284 0.76386 0.0
N179 N 0.57955 0.07396 0.79855 0.0
H180 H 0.55048 0.59697 0.14836 0.0
H181 H 0.60747 0.59475 0.09087 0.0
H182 H 0.50627 0.60418 0.08835 0.0
H183 H 0.66073 0.63278 0.11285 0.0
C184 C 0.65376 0.61245 0.12479 0.0
C185 C 0.55222 0.59756 0.13146 0.0
C186 C 0.52355 0.6008 0.11969 0.0
C187 C 0.5841 0.59675 0.12123 0.0
C188 C 0.58487 0.59678 0.09916 0.0
C189 C 0.55722 0.59972 0.08744 0.0
C190 C 0.5274 0.60212 0.09775 0.0
N191 N 0.61496 0.59563 0.13255 0.0
C192 C 0.19618 0.56696 0.14509 0.0
C193 C 0.19317 0.59816 0.15423 0.0
C194 C 0.23188 0.56791 0.14305 0.0
C195 C 0.34061 0.63546 0.14572 0.0
H196 H 0.34427 0.54133 0.14358 0.0
C197 C 0.48168 0.63227 0.12231 0.0
C198 C 0.48944 0.60382 0.12882 0.0
C199 C 0.44706 0.63215 0.12692 0.0
C200 C 0.34438 0.5682 0.1443 0.0
H201 H 0.22757 0.6553 0.16841 0.0
H202 H 0.28914 0.65698 0.16515 0.0
H203 H 0.28354 0.5401 0.14861 0.0
H204 H 0.46488 0.55276 0.14593 0.0
H205 H 0.40506 0.55281 0.15444 0.0
H206 H 0.40149 0.66366 0.14186 0.0
C207 C 0.26377 0.63149 0.15919 0.0
C208 C 0.30879 0.56746 0.14694 0.0
C209 C 0.22794 0.6305 0.16124 0.0
C210 C 0.46091 0.57566 0.14081 0.0
C211 C 0.42591 0.57541 0.1454 0.0
C212 C 0.37615 0.6362 0.14306 0.0
C213 C 0.26685 0.60017 0.15003 0.0
C214 C 0.30574 0.60106 0.14762 0.0
C215 C 0.41775 0.60343 0.13831 0.0
C216 C 0.37915 0.60258 0.14212 0.0
H217 H 0.17067 0.54138 0.13931 0.0
H218 H 0.23184 0.54315 0.13556 0.0
H219 H 0.34066 0.66227 0.14591 0.0
H220 H 0.50224 0.6544 0.11287 0.0
H221 H 0.44292 0.65419 0.1207 0.0
C222 C 0.67954 0.22895 0.48202 0.0
C223 C 0.67876 0.19744 0.49105 0.0
C224 C 0.71415 0.26396 0.47986 0.0
C225 C 0.82287 0.31929 0.495 0.0
H226 H 0.82438 0.387 0.45441 0.0
C227 C 0.96246 0.47289 0.48352 0.0
C228 C 0.96684 0.48977 0.46415 0.0
C229 C 0.92869 0.4377 0.4878 0.0
C230 C 0.82549 0.36873 0.46572 0.0
H231 H 0.71626 0.18009 0.50479 0.0
H232 H 0.77581 0.23971 0.50069 0.0
H233 H 0.76669 0.32765 0.4589 0.0
H234 H 0.93791 0.48038 0.43418 0.0
H235 H 0.88205 0.42082 0.441 0.0
H236 H 0.88252 0.36045 0.50122 0.0
C237 C 0.7495 0.23806 0.49552 0.0
C238 C 0.79116 0.33399 0.46866 0.0
C239 C 0.71474 0.20309 0.49785 0.0
C240 C 0.93633 0.46929 0.4494 0.0
C241 C 0.90327 0.43453 0.45351 0.0
C242 C 0.85749 0.35415 0.49195 0.0
C243 C 0.75048 0.26975 0.48636 0.0
C244 C 0.78846 0.3079 0.48338 0.0
C245 C 0.89774 0.41763 0.47292 0.0
C246 C 0.86005 0.37997 0.47707 0.0
H247 H 0.65307 0.22675 0.4766 0.0
H248 H 0.71187 0.28669 0.47315 0.0
H249 H 0.82335 0.30141 0.50677 0.0
H250 H 0.98463 0.48714 0.49556 0.0
H251 H 0.92669 0.42671 0.50305 0.0
C252 C 0.61361 0.75233 0.81572 0.0
C253 C 0.58145 0.71824 0.82161 0.0
C254 C 0.6123 0.78662 0.81378 0.0
C255 C 0.54259 0.82578 0.81016 0.0
H256 H 0.63465 0.92423 0.81654 0.0
C257 C 0.5414 0.96412 0.78728 0.0
C258 C 0.56604 1.00075 0.7969 0.0
C259 C 0.54411 0.9315 0.7914 0.0
C260 C 0.60836 0.89723 0.8148 0.0
H261 H 0.52229 0.69543 0.83017 0.0
H262 H 0.51996 0.75432 0.8271 0.0
H263 H 0.63734 0.86606 0.82154 0.0
H264 H 0.61394 1.03026 0.81882 0.0
H265 H 0.61873 0.97331 0.82625 0.0
H266 H 0.51341 0.85669 0.80387 0.0
C267 C 0.54653 0.75476 0.82359 0.0
C268 C 0.60996 0.86317 0.81745 0.0
C269 C 0.54787 0.72044 0.82554 0.0
C270 C 0.59403 1.003 0.81106 0.0
C271 C 0.59689 0.96992 0.81521 0.0
C272 C 0.54102 0.8597 0.80748 0.0
C273 C 0.5787 0.78899 0.81759 0.0
C274 C 0.57712 0.8263 0.81511 0.0
C275 C 0.57179 0.93308 0.80549 0.0
C276 C 0.57385 0.89653 0.80952 0.0
H277 H 0.64021 0.75263 0.81242 0.0
H278 H 0.63788 0.81124 0.80885 0.0
H279 H 0.51633 0.79888 0.80791 0.0
H280 H 0.5196 0.96049 0.7761 0.0
H281 H 0.52454 0.90489 0.78296 0.0
C282 C 0.93783 0.55983 0.1482 0.0
C283 C 0.97092 0.59093 0.15788 0.0
C284 C 0.90288 0.56046 0.14608 0.0
C285 C 0.86217 0.62881 0.14865 0.0
H286 H 0.76369 0.53642 0.14624 0.0
C287 C 0.7239 0.63211 0.12383 0.0
C288 C 0.68746 0.6074 0.1317 0.0
C289 C 0.75652 0.62883 0.12812 0.0
C290 C 0.79075 0.56275 0.14701 0.0
H291 H 0.99133 0.64718 0.17308 0.0
H292 H 0.93153 0.6482 0.16972 0.0
H293 H 0.82231 0.53316 0.15139 0.0
H294 H 0.65809 0.55874 0.15054 0.0
H295 H 0.71516 0.55287 0.1582 0.0
H296 H 0.831 0.65853 0.14457 0.0
C297 C 0.93231 0.62318 0.16333 0.0
C298 C 0.82494 0.56084 0.14976 0.0
C299 C 0.96711 0.6225 0.16548 0.0
C300 C 0.6853 0.57876 0.14425 0.0
C301 C 0.71835 0.57524 0.14849 0.0
C302 C 0.82818 0.63068 0.14582 0.0
C303 C 0.89916 0.59231 0.15345 0.0
C304 C 0.86172 0.59387 0.15062 0.0
C305 C 0.75497 0.60041 0.14055 0.0
C306 C 0.79143 0.59776 0.14475 0.0
H307 H 0.93894 0.53487 0.14197 0.0
H308 H 0.87891 0.536 0.13818 0.0
H309 H 0.88909 0.65521 0.1489 0.0
H310 H 0.72734 0.65436 0.11392 0.0
H311 H 0.78308 0.6485 0.1211 0.0
C312 C 0.46014 0.94174 0.49493 0.0
C313 C 0.46431 0.97542 0.48678 0.0
C314 C 0.42487 0.90632 0.49304 0.0
C315 C 0.31726 0.86365 0.4794 0.0
H316 H 0.31485 0.7666 0.47755 0.0
C317 C 0.17303 0.71986 0.45843 0.0
C318 C 0.16641 0.68398 0.4645 0.0
C319 C 0.20832 0.75409 0.46253 0.0
C320 C 0.31435 0.79317 0.47826 0.0
H321 H 0.43236 0.99603 0.46996 0.0
H322 H 0.37257 0.93591 0.46659 0.0
H323 H 0.37593 0.82598 0.48156 0.0
H324 H 0.19445 0.65792 0.47993 0.0
H325 H 0.25531 0.71723 0.48764 0.0
H326 H 0.25598 0.83127 0.4763 0.0
C327 C 0.39618 0.93639 0.47483 0.0
C328 C 0.35012 0.82793 0.48059 0.0
C329 C 0.43127 0.97154 0.47664 0.0
C330 C 0.19723 0.68452 0.47536 0.0
C331 C 0.23289 0.71901 0.47944 0.0
C332 C 0.28164 0.82904 0.47713 0.0
C333 C 0.39163 0.90256 0.48301 0.0
C334 C 0.35278 0.86437 0.48105 0.0
C335 C 0.23975 0.75491 0.4729 0.0
C336 C 0.27888 0.79256 0.47629 0.0
H337 H 0.48423 0.94265 0.5029 0.0
H338 H 0.42369 0.88192 0.49986 0.0
H339 H 0.31657 0.89012 0.48016 0.0
H340 H 0.15097 0.72133 0.44963 0.0
H341 H 0.21115 0.77987 0.45666 0.0
C342 C 0.62145 0.50146 0.81942 0.0
C343 C 0.58711 0.50251 0.82258 0.0
C344 C 0.6222 0.46647 0.81721 0.0
C345 C 0.55844 0.35652 0.82079 0.0
H346 H 0.64647 0.35587 0.79653 0.0
C347 C 0.56568 0.21172 0.81038 0.0
C348 C 0.5891 0.20794 0.79482 0.0
C349 C 0.56632 0.24717 0.81517 0.0
C350 C 0.62104 0.35458 0.80311 0.0
H351 H 0.52624 0.4654 0.82555 0.0
H352 H 0.52707 0.40556 0.8211 0.0
H353 H 0.64497 0.41478 0.80071 0.0
H354 H 0.63263 0.24091 0.77285 0.0
H355 H 0.63325 0.30046 0.78052 0.0
H356 H 0.53396 0.2958 0.82233 0.0
C357 C 0.55417 0.43163 0.82085 0.0
C358 C 0.62046 0.38953 0.80593 0.0
C359 C 0.55355 0.46663 0.82333 0.0
C360 C 0.61397 0.24175 0.78495 0.0
C361 C 0.61446 0.27678 0.78957 0.0
C362 C 0.55885 0.32141 0.81775 0.0
C363 C 0.58851 0.43024 0.81771 0.0
C364 C 0.58913 0.39184 0.81483 0.0
C365 C 0.59034 0.28077 0.80463 0.0
C366 C 0.59012 0.31917 0.8087 0.0
H367 H 0.64821 0.52793 0.81877 0.0
H368 H 0.64979 0.46835 0.81531 0.0
H369 H 0.53361 0.35554 0.82803 0.0
H370 H 0.54564 0.18687 0.81833 0.0
H371 H 0.54743 0.24785 0.82714 0.0
C372 C 0.64783 0.89755 0.51002 0.0
C373 C 0.62846 0.90316 0.5271 0.0
C374 C 0.663 0.87315 0.51112 0.0
C375 C 0.70003 0.83758 0.55087 0.0
H376 H 0.70859 0.77665 0.50406 0.0
C377 C 0.77991 0.75446 0.5601 0.0
C378 C 0.80434 0.75575 0.54391 0.0
C379 C 0.75393 0.76731 0.55729 0.0
C380 C 0.70662 0.79375 0.51722 0.0
H381 H 0.6071 0.88523 0.55804 0.0
H382 H 0.63338 0.84239 0.55993 0.0
H383 H 0.66886 0.80636 0.5003 0.0
H384 H 0.82145 0.7723 0.51233 0.0
H385 H 0.77646 0.79574 0.50749 0.0
H386 H 0.73839 0.826 0.56764 0.0
C387 C 0.63756 0.85752 0.54586 0.0
C388 C 0.6838 0.81066 0.51509 0.0
C389 C 0.62245 0.88197 0.54477 0.0
C390 C 0.80256 0.77058 0.52494 0.0
C391 C 0.77662 0.78367 0.52214 0.0
C392 C 0.72281 0.82079 0.55297 0.0
C393 C 0.6591 0.85381 0.52933 0.0
C394 C 0.68049 0.833 0.53187 0.0
C395 C 0.75223 0.78248 0.53838 0.0
C396 C 0.72662 0.79889 0.53616 0.0
H397 H 0.65334 0.91377 0.49628 0.0
H398 H 0.67971 0.87121 0.49819 0.0
H399 H 0.69885 0.8553 0.56394 0.0
H400 H 0.78153 0.74467 0.57522 0.0
H401 H 0.73546 0.76577 0.57009 0.0
C402 C 0.81382 0.58814 0.79994 0.0
C403 C 0.77955 0.57615 0.81079 0.0
C404 C 0.8342 0.56849 0.80106 0.0
C405 C 0.82669 0.47884 0.81964 0.0
H406 H 0.93644 0.54153 0.82729 0.0
C407 C 0.91289 0.41452 0.8518 0.0
C408 C 0.94059 0.43744 0.86735 0.0
C409 C 0.8976 0.43037 0.83871 0.0
C410 C 0.9058 0.52354 0.82531 0.0
H411 H 0.73867 0.53264 0.83021 0.0
H412 H 0.77492 0.49995 0.83317 0.0
H413 H 0.89919 0.57018 0.81659 0.0
H414 H 0.97644 0.49576 0.87986 0.0
H415 H 0.94796 0.52277 0.85836 0.0
H416 H 0.83261 0.43305 0.83024 0.0
C417 C 0.78597 0.52399 0.82342 0.0
C418 C 0.8844 0.53991 0.81879 0.0
C419 C 0.76544 0.54327 0.82208 0.0
C420 C 0.95428 0.47695 0.86855 0.0
C421 C 0.93839 0.49265 0.85581 0.0
C422 C 0.84792 0.46269 0.8266 0.0
C423 C 0.82092 0.53658 0.81318 0.0
C424 C 0.84438 0.51803 0.81657 0.0
C425 C 0.90897 0.4694 0.84113 0.0
C426 C 0.88765 0.48509 0.83021 0.0
H427 H 0.82555 0.61339 0.79111 0.0
H428 H 0.86067 0.5787 0.79269 0.0
H429 H 0.79608 0.46077 0.81749 0.0
H430 H 0.90154 0.38397 0.85033 0.0
H431 H 0.87583 0.41164 0.8272 0.0
C432 C 0.29918 0.83297 0.14179 0.0
C433 C 0.28398 0.82874 0.16199 0.0
C434 C 0.33676 0.86118 0.13844 0.0
C435 C 0.42063 0.94612 0.16454 0.0
H436 H 0.47853 0.90341 0.13692 0.0
C437 C 0.56402 0.94499 0.18348 0.0
C438 C 0.58651 0.98286 0.19137 0.0
C439 C 0.5314 0.9344 0.17123 0.0
C440 C 0.46283 0.91598 0.14453 0.0
H441 H 0.29566 0.85165 0.19432 0.0
H442 H 0.3609 0.9003 0.18861 0.0
H443 H 0.40931 0.87015 0.13276 0.0
H444 H 0.59526 1.04017 0.19089 0.0
H445 H 0.53858 1.02187 0.16904 0.0
H446 H 0.47351 0.98981 0.17806 0.0
C447 C 0.34381 0.88252 0.1752 0.0
C448 C 0.42311 0.89714 0.14194 0.0
C449 C 0.30636 0.85444 0.17853 0.0
C450 C 0.57785 1.01061 0.18526 0.0
C451 C 0.54543 1.00011 0.17279 0.0
C452 C 0.46024 0.9647 0.16734 0.0
C453 C 0.35978 0.88565 0.15523 0.0
C454 C 0.40146 0.91088 0.15293 0.0
C455 C 0.52082 0.96158 0.16647 0.0
C456 C 0.48153 0.94861 0.15835 0.0
H457 H 0.2823 0.81395 0.12866 0.0
H458 H 0.34812 0.86314 0.12284 0.0
H459 H 0.40477 0.95794 0.17276 0.0
H460 H 0.57002 0.92305 0.18805 0.0
H461 H 0.51301 0.90439 0.16693 0.0
C462 C 0.56107 0.31207 0.48428 0.0
C463 C 0.56827 0.29747 0.46537 0.0
C464 C 0.5752 0.35111 0.48797 0.0
C465 C 0.6513 0.44352 0.4709 0.0
H466 H 0.6016 0.48048 0.51048 0.0
C467 C 0.6794 0.58605 0.5272 0.0
C468 C 0.71746 0.5982 0.5329 0.0
C469 C 0.65939 0.55438 0.51311 0.0
C470 C 0.61575 0.4712 0.49901 0.0
H471 H 0.5946 0.31189 0.43512 0.0
H472 H 0.61839 0.38037 0.44121 0.0
H473 H 0.56735 0.41523 0.49615 0.0
H474 H 0.7651 0.58815 0.52793 0.0
H475 H 0.73006 0.53196 0.5043 0.0
H476 H 0.69933 0.49986 0.47329 0.0
C477 C 0.60263 0.36175 0.45345 0.0
C478 C 0.59621 0.43331 0.49106 0.0
C479 C 0.58892 0.32257 0.4499 0.0
C480 C 0.73581 0.57943 0.52358 0.0
C481 C 0.71564 0.54728 0.50989 0.0
C482 C 0.67057 0.48171 0.47849 0.0
C483 C 0.59646 0.3766 0.4727 0.0
C484 C 0.61436 0.41847 0.4777 0.0
C485 C 0.67677 0.5336 0.50492 0.0
C486 C 0.65373 0.49564 0.49341 0.0
H487 H 0.54577 0.2934 0.49662 0.0
H488 H 0.57064 0.36131 0.50319 0.0
H489 H 0.66632 0.43332 0.46061 0.0
H490 H 0.66483 0.60041 0.53414 0.0
H491 H 0.62989 0.54546 0.50926 0.0
C492 C 0.31145 0.55978 0.85197 0.0
C493 C 0.33143 0.5541 0.83525 0.0
C494 C 0.27173 0.54342 0.85076 0.0
C495 C 0.19104 0.45888 0.82537 0.0
H496 H 0.13169 0.49701 0.85583 0.0
C497 C 1.03113 0.36104 0.84065 0.0
C498 C 1.021 0.36302 0.86157 0.0
C499 C 1.06616 0.38912 0.83347 0.0
C500 C 0.14789 0.48602 0.84721 0.0
H501 H 0.32561 0.52944 0.80344 0.0
H502 H 0.25647 0.50181 0.80114 0.0
H503 H 0.19922 0.54022 0.84961 0.0
H504 H 1.0403 0.39542 0.8916 0.0
H505 H 0.1008 0.44429 0.8791 0.0
H506 H 0.14028 0.40443 0.82367 0.0
C507 C 0.27145 0.51822 0.81537 0.0
C508 C 0.18652 0.51075 0.84364 0.0
C509 C 0.31117 0.53449 0.81661 0.0
C510 C 1.04644 0.39369 0.87518 0.0
C511 C 0.08131 0.42177 0.86801 0.0
C512 C 0.15245 0.43422 0.82889 0.0
C513 C 0.25112 0.52113 0.83275 0.0
C514 C 0.20884 0.49717 0.83325 0.0
C515 C 0.0918 0.41961 0.84714 0.0
C516 C 0.13075 0.44722 0.84042 0.0
H517 H 0.32632 0.57526 0.86642 0.0
H518 H 0.25706 0.54617 0.86449 0.0
H519 H 0.20742 0.44725 0.81758 0.0
H520 H 1.01208 0.33754 0.8299 0.0
H521 H 0.0734 0.38672 0.81728 0.0
C522 C 0.86765 0.33333 0.16633 0.0
C523 C 0.89639 0.34081 0.15163 0.0
C524 C 0.84446 0.29635 0.17262 0.0
C525 C 0.81454 0.19493 0.1588 0.0
H526 H 0.80582 0.18539 0.21891 0.0
C527 C 0.7352 0.04879 0.19425 0.0
C528 C 0.75269 0.04371 0.21174 0.0
C529 C 0.74871 0.08493 0.18694 0.0
C530 C 0.80813 0.18763 0.2021 0.0
H531 H 0.92249 0.31499 0.13162 0.0
H532 H 0.88197 0.25086 0.14235 0.0
H533 H 0.83488 0.24849 0.20513 0.0
H534 H 0.79876 0.07184 0.23481 0.0
H535 H 0.82314 0.13538 0.22179 0.0
H536 H 0.78925 0.13429 0.15575 0.0
C537 C 0.877 0.27338 0.14887 0.0
C538 C 0.82426 0.2237 0.19419 0.0
C539 C 0.90021 0.31024 0.14266 0.0
C540 C 0.78459 0.07524 0.22146 0.0
C541 C 0.79823 0.11153 0.21412 0.0
C542 C 0.79841 0.15891 0.16669 0.0
C543 C 0.84946 0.26615 0.16424 0.0
C544 C 0.82823 0.22776 0.17247 0.0
C545 C 0.78039 0.11673 0.19677 0.0
C546 C 0.79555 0.15489 0.18844 0.0
H547 H 0.86364 0.35618 0.17331 0.0
H548 H 0.82307 0.29149 0.18429 0.0
H549 H 0.81692 0.19715 0.14198 0.0
H550 H 0.71147 1.02476 0.18593 0.0
H551 H 0.7343 0.08794 0.17357 0.0
C552 C 1.05315 0.60377 0.08977 0.0
C553 C 0.07662 0.59606 0.10232 0.0
C554 C 1.04089 0.58526 0.06981 0.0
C555 C 1.06545 0.53762 0.02698 0.0
H556 H 0.95705 0.48259 0.01295 0.0
C557 C 1.00787 0.43555 0.95318 0.0
C558 C 0.97772 0.43457 0.9417 0.0
C559 C 1.01886 0.45483 0.97296 0.0
C560 C 0.98747 0.49826 0.01644 0.0
H561 H 0.10635 0.56378 0.10394 0.0
H562 H 0.08574 0.53223 0.06897 0.0
H563 H 0.97938 0.51972 0.04647 0.0
H564 H 0.93441 0.4518 0.94259 0.0
H565 H 0.95469 0.48684 0.97655 0.0
H566 H 0.07398 0.51715 -0.00305 0.0
C567 C 0.07664 0.55232 0.07452 0.0
C568 C 1.00018 0.51946 0.03566 0.0
C569 C 0.08832 0.57027 0.09452 0.0
C570 C 0.95822 0.45253 0.95079 0.0
C571 C 0.96953 0.47222 0.97045 0.0
C572 C 1.05286 0.51692 0.00766 0.0
C573 C 1.05256 0.55937 0.06204 0.0
C574 C 1.03924 0.53899 0.04117 0.0
C575 C 1.00033 0.47405 0.9817 0.0
C576 C 1.01365 0.49659 0.0022 0.0
H577 H 1.04361 0.6234 0.09554 0.0
H578 H 1.02242 0.59123 0.06042 0.0
H579 H 0.09578 0.55278 0.0308 0.0
H580 H 1.0238 0.42237 0.94664 0.0
H581 H 1.04216 0.45487 0.98132 0.0
C582 C 0.56688 0.06048 0.42448 0.0
C583 C 0.59911 0.07714 0.43796 0.0
C584 C 0.57142 0.06079 0.40268 0.0
C585 C 0.64343 0.06794 0.36424 0.0
H586 H 0.57596 0.07419 0.32375 0.0
C587 C 0.66941 0.06102 0.27618 0.0
C588 C 0.63722 1.03488 0.26394 0.0
C589 C 0.66519 0.07233 0.29669 0.0
C590 C 0.59499 0.07238 0.33491 0.0
H591 H 0.66097 0.10987 0.43962 0.0
H592 H 0.66888 0.1116 0.40192 0.0
H593 H 0.56701 0.08246 0.36129 0.0
H594 H 0.57528 1.00104 0.26348 0.0
H595 H 0.56803 1.02089 0.29913 0.0
H596 H 0.67109 0.05737 0.33809 0.0
C597 C 0.64019 0.09695 0.40789 0.0
C598 C 0.58979 0.07698 0.35638 0.0
C599 C 0.63566 0.09612 0.42949 0.0
C600 C 0.60067 1.02164 0.27235 0.0
C601 C 0.59646 1.03301 0.29282 0.0
C602 C 0.64872 0.06356 0.34288 0.0
C603 C 0.60825 0.07819 0.39418 0.0
C604 C 0.61391 0.07466 0.37129 0.0
C605 C 0.62871 0.05775 0.30538 0.0
C606 C 0.62447 0.06549 0.32797 0.0
H607 H 0.53839 0.04583 0.43073 0.0
H608 H 0.54621 0.04601 0.39255 0.0
H609 H 0.66198 0.06501 0.37524 0.0
H610 H 0.69789 0.07222 0.27003 0.0
H611 H 0.69056 0.09193 0.3059 0.0
C612 C 0.57128 0.56636 0.75463 0.0
C613 C 0.58194 0.59851 0.76842 0.0
C614 C 0.5884 0.57013 0.7351 0.0
C615 C 0.67393 0.63688 0.70641 0.0
H616 H 0.61412 0.57607 0.65739 0.0
C617 C 0.74332 0.64089 0.62639 0.0
C618 C 0.72275 0.63952 0.60843 0.0
C619 C 0.72618 0.63438 0.64597 0.0
C620 C 0.63119 0.59353 0.67088 0.0
H621 H 0.61783 0.65982 0.77261 0.0
H622 H 0.64692 0.66667 0.7384 0.0
H623 H 0.58363 0.56828 0.6912 0.0
H624 H 0.6685 0.63114 0.59688 0.0
H625 H 0.63883 0.6207 0.63104 0.0
H626 H 0.7211 0.66325 0.68598 0.0
C627 C 0.62623 0.63837 0.74275 0.0
C628 C 0.6138 0.58866 0.69035 0.0
C629 C 0.60935 0.63453 0.76228 0.0
C630 C 0.68484 0.63183 0.61044 0.0
C631 C 0.66781 0.62568 0.63001 0.0
C632 C 0.69124 0.64196 0.68693 0.0
C633 C 0.61625 0.6062 0.72897 0.0
C634 C 0.6349 0.61046 0.70834 0.0
C635 C 0.68821 0.62676 0.64803 0.0
C636 C 0.67005 0.6205 0.66889 0.0
H637 H 0.55033 0.53824 0.75911 0.0
H638 H 0.58034 0.5447 0.725 0.0
H639 H 0.69124 0.65371 0.71999 0.0
H640 H 0.77247 0.64636 0.62523 0.0
H641 H 0.74256 0.63486 0.65944 0.0
C642 C 0.52021 0.08648 0.5613 0.0
C643 C 0.55344 0.104 0.54941 0.0
C644 C 0.52268 0.08775 0.58326 0.0
C645 C 0.58146 0.14554 0.62836 0.0
H646 H 0.53303 0.0534 0.6585 0.0
C647 C 0.60353 0.15227 0.71827 0.0
C648 C 0.57448 0.12502 0.73016 0.0
C649 C 0.60127 0.14874 0.6963 0.0
C650 C 0.5462 0.07962 0.65051 0.0
H651 H 0.61529 0.13662 0.55121 0.0
H652 H 0.61951 0.14007 0.58962 0.0
H653 H 0.52753 0.04919 0.62033 0.0
H654 H 0.52008 0.07284 0.7284 0.0
H655 H 0.51483 0.06749 0.69018 0.0
H656 H 0.5987 0.17638 0.65821 0.0
C657 C 0.5916 0.12496 0.58192 0.0
C658 C 0.54321 0.07705 0.62853 0.0
C659 C 0.58918 0.1229 0.55995 0.0
C660 C 0.54303 0.09412 0.7196 0.0
C661 C 0.54027 0.091 0.6976 0.0
C662 C 0.58373 0.14823 0.65034 0.0
C663 C 0.55839 0.10735 0.59383 0.0
C664 C 0.56104 0.10996 0.6172 0.0
C665 C 0.56936 0.11829 0.6855 0.0
C666 C 0.5664 0.1153 0.66187 0.0
H667 H 0.4923 0.07159 0.5536 0.0
H668 H 0.49661 0.07405 0.59203 0.0
H669 H 0.59513 0.17145 0.62007 0.0
H670 H 0.6283 0.1762 0.72602 0.0
H671 H 0.6249 0.1699 0.68785 0.0
C672 C 0.60524 0.65464 0.89908 0.0
C673 C 0.59484 0.62243 0.88537 0.0
C674 C 0.59907 0.65108 0.92063 0.0
C675 C 0.54934 0.579 0.96114 0.0
H676 H 0.61993 0.66321 -0.0012 0.0
C677 C 0.56185 0.57199 0.05183 0.0
C678 C 0.5599 0.601 0.06418 0.0
C679 C 0.56453 0.57339 0.02994 0.0
C680 C 0.59988 0.63953 0.98848 0.0
H681 H 0.5695 0.56104 0.88341 0.0
H682 H 0.56042 0.5547 0.92112 0.0
H683 H 0.62802 0.66745 0.96113 0.0
H684 H 0.55963 0.65434 0.06332 0.0
H685 H 0.56563 0.65745 0.02514 0.0
H686 H 0.52252 0.55062 0.98895 0.0
C687 C 0.57225 0.58283 0.91532 0.0
C688 C 0.60423 0.64199 0.96675 0.0
C689 C 0.57764 0.58638 0.89363 0.0
C690 C 0.56093 0.63153 0.05419 0.0
C691 C 0.56451 0.63337 0.03238 0.0
C692 C 0.54556 0.57625 0.98294 0.0
C693 C 0.58319 0.61521 0.92926 0.0
C694 C 0.57879 0.61196 0.95262 0.0
C695 C 0.56625 0.60428 0.01999 0.0
C696 C 0.57058 0.60664 -0.00316 0.0
H697 H 0.61818 0.68278 0.89313 0.0
H698 H 0.60683 0.67671 0.93047 0.0
H699 H 0.52867 0.55541 0.95104 0.0
H700 H 0.56099 0.54808 0.05911 0.0
H701 H 0.56601 0.55068 0.02082 0.0
C702 C 0.07573 0.61012 0.2281 0.0
C703 C 0.07607 0.57815 0.21833 0.0
C704 C 0.07728 0.61557 0.25014 0.0
C705 C 1.05657 0.56228 0.29811 0.0
H706 H 0.12748 0.65924 0.32659 0.0
C707 C 0.08598 0.57499 0.3875 0.0
C708 C 0.09385 0.60884 0.39913 0.0
C709 C 0.08327 0.57246 0.36553 0.0
C710 C 0.10701 0.63206 0.31899 0.0
H711 H 0.07849 0.52702 0.22404 0.0
H712 H 0.08052 0.53612 0.26209 0.0
H713 H 0.12277 0.65323 0.28831 0.0
H714 H 0.10462 0.66651 0.39664 0.0
H715 H 0.09901 0.66194 0.35844 0.0
H716 H 1.04019 0.541 0.32852 0.0
C717 C 0.07897 0.55699 0.25289 0.0
C718 C 0.10441 0.62866 0.29696 0.0
C719 C 0.07797 0.55188 0.23102 0.0
C720 C 0.09893 0.64012 0.38817 0.0
C721 C 0.09582 0.63749 0.36619 0.0
C722 C 1.05882 0.56575 0.32007 0.0
C723 C 0.07857 0.58881 0.2628 0.0
C724 C 0.07954 0.59356 0.28623 0.0
C725 C 0.08791 0.60359 0.35447 0.0
C726 C 0.08448 0.60053 0.33092 0.0
H727 H 0.07438 0.63091 0.21875 0.0
H728 H 0.07683 0.64035 0.25727 0.0
H729 H 1.03665 0.53496 0.29039 0.0
H730 H 0.08246 0.55053 0.39539 0.0
H731 H 0.07804 0.54611 0.35723 0.0
loop_
_geom_bond_atom_site_label_1
_geom_bond_atom_site_label_2
_geom_bond_distance
_geom_bond_site_symmetry_2
_ccdc_geom_bond_type
Tb0 C2 2.809 . S
Tb0 O20 2.484 . S
Tb0 O21 2.440 . S
Tb0 O22 2.658 . S
Tb0 O23 2.409 . S
Tb0 O24 2.378 . S
Tb0 O28 2.325 . S
Tb0 O31 2.341 1_455 S
Tb1 C11 2.809 1_455 S
Tb1 O22 2.325 . S
Tb1 O25 2.341 . S
Tb1 O26 2.484 1_455 S
Tb1 O27 2.440 1_455 S
Tb1 O28 2.658 . S
Tb1 O29 2.409 . S
Tb1 O30 2.378 1_455 S
C2 Tb0 2.809 . S
C2 C3 1.514 . S
C2 O20 1.248 . S
C2 O21 1.266 . S
C3 C2 1.514 . S
C3 C4 1.359 . S
C3 C8 1.348 . S
C4 C3 1.359 . S
C4 C5 1.380 . S
C4 H32 0.929 . S
C5 C4 1.380 . S
C5 C6 1.347 . S
C5 H33 0.931 . S
C6 C5 1.347 . S
C6 C7 1.369 . S
C7 C6 1.369 . S
C7 C8 1.408 . S
C7 H34 0.930 . S
C8 C3 1.348 . S
C8 C7 1.408 . S
C8 H35 0.930 . S
C9 O22 1.281 . S
C9 O23 1.254 . S
C10 O24 1.236 . S
C10 O25 1.266 . S
C11 Tb1 2.809 1_655 S
C11 C12 1.514 . S
C11 O26 1.248 . S
C11 O27 1.266 . S
C12 C11 1.514 . S
C12 C13 1.359 . S
C12 C17 1.348 . S
C13 C12 1.359 . S
C13 C14 1.380 . S
C13 H36 0.929 . S
C14 C13 1.380 . S
C14 C15 1.347 . S
C14 H37 0.931 . S
C15 C14 1.347 . S
C15 C16 1.369 . S
C16 C15 1.369 . S
C16 C17 1.408 . S
C16 H38 0.930 . S
C17 C12 1.348 . S
C17 C16 1.408 . S
C17 H39 0.930 . S
C18 O28 1.281 . S
C18 O29 1.254 . S
C19 O30 1.236 . S
C19 O31 1.266 . S
O20 Tb0 2.484 . S
O20 C2 1.248 . S
O21 Tb0 2.440 . S
O21 C2 1.266 . S
O22 Tb0 2.658 . S
O22 Tb1 2.325 . S
O22 C9 1.281 . S
O23 Tb0 2.409 . S
O23 C9 1.254 . S
O24 Tb0 2.378 . S
O24 C10 1.236 . S
O25 Tb1 2.341 . S
O25 C10 1.266 . S
O26 Tb1 2.484 1_655 S
O26 C11 1.248 . S
O27 Tb1 2.440 1_655 S
O27 C11 1.266 . S
O28 Tb0 2.325 . S
O28 Tb1 2.658 . S
O28 C18 1.281 . S
O29 Tb1 2.409 . S
O29 C18 1.254 . S
O30 Tb1 2.378 1_655 S
O30 C19 1.236 . S
O31 Tb0 2.341 1_655 S
O31 C19 1.266 . S
H32 C4 0.929 . S
H33 C5 0.931 . S
H34 C7 0.930 . S
H35 C8 0.930 . S
H36 C13 0.929 . S
H37 C14 0.931 . S
H38 C16 0.930 . S
H39 C17 0.930 . S
Tb40 C42 2.809 1_545 S
Tb40 O60 2.484 1_545 S
Tb40 O61 2.440 1_545 S
Tb40 O62 2.658 . S
Tb40 O63 2.409 . S
Tb40 O64 2.378 1_545 S
Tb40 O68 2.325 . S
Tb40 O71 2.341 . S
Tb41 C51 2.809 . S
Tb41 O62 2.325 . S
Tb41 O65 2.341 . S
Tb41 O66 2.484 . S
Tb41 O67 2.440 . S
Tb41 O68 2.658 . S
Tb41 O69 2.409 . S
Tb41 O70 2.378 . S
C42 Tb40 2.809 1_565 S
C42 C43 1.514 . S
C42 O60 1.248 . S
C42 O61 1.266 . S
C43 C42 1.514 . S
C43 C44 1.359 . S
C43 C48 1.348 . S
C44 C43 1.359 . S
C44 C45 1.380 . S
C44 H72 0.929 . S
C45 C44 1.380 . S
C45 C46 1.347 . S
C45 H73 0.931 . S
C46 C45 1.347 . S
C46 C47 1.369 . S
C47 C46 1.369 . S
C47 C48 1.408 . S
C47 H74 0.930 . S
C48 C43 1.348 . S
C48 C47 1.408 . S
C48 H75 0.930 . S
C49 O62 1.281 . S
C49 O63 1.254 . S
C50 O64 1.236 . S
C50 O65 1.266 1_565 S
C51 Tb41 2.809 . S
C51 C52 1.514 . S
C51 O66 1.248 . S
C51 O67 1.266 . S
C52 C51 1.514 . S
C52 C53 1.359 . S
C52 C57 1.348 . S
C53 C52 1.359 . S
C53 C54 1.380 . S
C53 H76 0.929 . S
C54 C53 1.380 . S
C54 C55 1.347 . S
C54 H77 0.931 . S
C55 C54 1.347 . S
C55 C56 1.369 . S
C56 C55 1.369 . S
C56 C57 1.408 . S
C56 H78 0.930 . S
C57 C52 1.348 . S
C57 C56 1.408 . S
C57 H79 0.930 . S
C58 O68 1.281 . S
C58 O69 1.254 . S
C59 O70 1.236 . S
C59 O71 1.266 . S
O60 Tb40 2.484 1_565 S
O60 C42 1.248 . S
O61 Tb40 2.440 1_565 S
O61 C42 1.266 . S
O62 Tb40 2.658 . S
O62 Tb41 2.325 . S
O62 C49 1.281 . S
O63 Tb40 2.409 . S
O63 C49 1.254 . S
O64 Tb40 2.378 1_565 S
O64 C50 1.236 . S
O65 Tb41 2.341 . S
O65 C50 1.266 1_545 S
O66 Tb41 2.484 . S
O66 C51 1.248 . S
O67 Tb41 2.440 . S
O67 C51 1.266 . S
O68 Tb40 2.325 . S
O68 Tb41 2.658 . S
O68 C58 1.281 . S
O69 Tb41 2.409 . S
O69 C58 1.254 . S
O70 Tb41 2.378 . S
O70 C59 1.236 . S
O71 Tb40 2.341 . S
O71 C59 1.266 . S
H72 C44 0.929 . S
H73 C45 0.931 . S
H74 C47 0.930 . S
H75 C48 0.930 . S
H76 C53 0.929 . S
H77 C54 0.931 . S
H78 C56 0.930 . S
H79 C57 0.930 . S
Tb80 C82 2.809 . S
Tb80 O100 2.484 . S
Tb80 O101 2.440 . S
Tb80 O102 2.658 . S
Tb80 O103 2.409 . S
Tb80 O104 2.378 . S
Tb80 O108 2.325 . S
Tb80 O111 2.341 . S
Tb81 C91 2.809 . S
Tb81 O102 2.325 . S
Tb81 O105 2.341 . S
Tb81 O106 2.484 . S
Tb81 O107 2.440 . S
Tb81 O108 2.658 . S
Tb81 O109 2.409 . S
Tb81 O110 2.378 . S
C82 Tb80 2.809 . S
C82 C83 1.514 . S
C82 O100 1.248 . S
C82 O101 1.266 . S
C83 C82 1.514 . S
C83 C84 1.359 . S
C83 C88 1.348 . S
C84 C83 1.359 . S
C84 C85 1.380 . S
C84 H112 0.929 . S
C85 C84 1.380 . S
C85 C86 1.347 . S
C85 H113 0.931 . S
C86 C85 1.347 . S
C86 C87 1.369 . S
C87 C86 1.369 . S
C87 C88 1.408 . S
C87 H114 0.930 . S
C88 C83 1.348 . S
C88 C87 1.408 . S
C88 H115 0.930 . S
C89 O102 1.281 . S
C89 O103 1.254 . S
C90 O104 1.236 . S
C90 O105 1.266 . S
C91 Tb81 2.809 . S
C91 C92 1.514 . S
C91 O106 1.248 . S
C91 O107 1.266 . S
C92 C91 1.514 . S
C92 C93 1.359 . S
C92 C97 1.348 . S
C93 C92 1.359 . S
C93 C94 1.380 . S
C93 H116 0.929 . S
C94 C93 1.380 . S
C94 C95 1.347 . S
C94 H117 0.931 . S
C95 C94 1.347 . S
C95 C96 1.369 . S
C96 C95 1.369 . S
C96 C97 1.408 . S
C96 H118 0.930 . S
C97 C92 1.348 . S
C97 C96 1.408 . S
C97 H119 0.930 . S
C98 O108 1.281 . S
C98 O109 1.254 . S
C99 O110 1.236 . S
C99 O111 1.266 . S
O100 Tb80 2.484 . S
O100 C82 1.248 . S
O101 Tb80 2.440 . S
O101 C82 1.266 . S
O102 Tb80 2.658 . S
O102 Tb81 2.325 . S
O102 C89 1.281 . S
O103 Tb80 2.409 . S
O103 C89 1.254 . S
O104 Tb80 2.378 . S
O104 C90 1.236 . S
O105 Tb81 2.341 . S
O105 C90 1.266 . S
O106 Tb81 2.484 . S
O106 C91 1.248 . S
O107 Tb81 2.440 . S
O107 C91 1.266 . S
O108 Tb80 2.325 . S
O108 Tb81 2.658 . S
O108 C98 1.281 . S
O109 Tb81 2.409 . S
O109 C98 1.254 . S
O110 Tb81 2.378 . S
O110 C99 1.236 . S
O111 Tb80 2.341 . S
O111 C99 1.266 . S
H112 C84 0.929 . S
H113 C85 0.931 . S
H114 C87 0.930 . S
H115 C88 0.930 . S
H116 C93 0.929 . S
H117 C94 0.931 . S
H118 C96 0.930 . S
H119 C97 0.930 . S
H120 C125 0.930 . S
H121 C128 0.930 . S
H122 C130 0.930 . S
H123 C124 1.016 . S
C124 H123 1.016 . S
C124 N131 1.286 . S
C125 H120 0.930 . S
C125 C126 1.397 . S
C125 C127 1.361 . S
C126 C125 1.397 . S
C126 C130 1.390 . S
C127 C125 1.361 . S
C127 C128 1.393 . S
C127 N131 1.413 . S
C128 H121 0.930 . S
C128 C127 1.393 . S
C128 C129 1.399 . S
C129 C128 1.399 . S
C129 C130 1.381 . S
C130 H122 0.930 . S
C130 C126 1.390 . S
C130 C129 1.381 . S
N131 C124 1.286 . S
N131 C127 1.413 . S
H132 C137 0.930 . S
H133 C140 0.930 . S
H134 C142 0.930 . S
H135 C136 1.016 . S
C136 H135 1.016 . S
C136 N143 1.286 . S
C137 H132 0.930 . S
C137 C138 1.397 . S
C137 C139 1.361 . S
C138 C137 1.397 . S
C138 C142 1.390 . S
C139 C137 1.361 . S
C139 C140 1.393 . S
C139 N143 1.413 . S
C140 H133 0.930 . S
C140 C139 1.393 . S
C140 C141 1.399 . S
C141 C140 1.399 . S
C141 C142 1.381 . S
C142 H134 0.930 . S
C142 C138 1.390 . S
C142 C141 1.381 . S
N143 C136 1.286 . S
N143 C139 1.413 . S
H144 C149 0.930 . S
H145 C152 0.930 . S
H146 C154 0.930 . S
H147 C148 1.016 . S
C148 H147 1.016 . S
C148 N155 1.286 . S
C149 H144 0.930 . S
C149 C150 1.397 . S
C149 C151 1.361 1_655 S
C150 C149 1.397 . S
C150 C154 1.390 . S
C151 C149 1.361 1_455 S
C151 C152 1.393 . S
C151 N155 1.413 . S
C152 H145 0.930 . S
C152 C151 1.393 . S
C152 C153 1.399 . S
C153 C152 1.399 . S
C153 C154 1.381 1_455 S
C154 H146 0.930 . S
C154 C150 1.390 . S
C154 C153 1.381 1_655 S
N155 C148 1.286 . S
N155 C151 1.413 . S
H156 C161 0.930 . S
H157 C164 0.930 1_655 S
H158 C166 0.930 . S
H159 C160 1.016 . S
C160 H159 1.016 . S
C160 N167 1.286 . S
C161 H156 0.930 . S
C161 C162 1.397 . S
C161 C163 1.361 . S
C162 C161 1.397 . S
C162 C166 1.390 . S
C163 C161 1.361 . S
C163 C164 1.393 . S
C163 N167 1.413 1_455 S
C164 H157 0.930 1_455 S
C164 C163 1.393 . S
C164 C165 1.399 . S
C165 C164 1.399 . S
C165 C166 1.381 . S
C166 H158 0.930 . S
C166 C162 1.390 . S
C166 C165 1.381 . S
N167 C160 1.286 . S
N167 C163 1.413 1_655 S
H168 C173 0.930 . S
H169 C176 0.930 . S
H170 C178 0.930 . S
H171 C172 1.016 . S
C172 H171 1.016 . S
C172 N179 1.286 . S
C173 H168 0.930 . S
C173 C174 1.397 . S
C173 C175 1.361 1_545 S
C174 C173 1.397 . S
C174 C178 1.390 . S
C175 C173 1.361 1_565 S
C175 C176 1.393 . S
C175 N179 1.413 . S
C176 H169 0.930 . S
C176 C175 1.393 . S
C176 C177 1.399 1_565 S
C177 C176 1.399 1_545 S
C177 C178 1.381 . S
C178 H170 0.930 . S
C178 C174 1.390 . S
C178 C177 1.381 . S
N179 C172 1.286 . S
N179 C175 1.413 . S
H180 C185 0.930 . S
H181 C188 0.930 . S
H182 C190 0.930 . S
H183 C184 1.016 . S
C184 H183 1.016 . S
C184 N191 1.286 . S
C185 H180 0.930 . S
C185 C186 1.397 . S
C185 C187 1.361 . S
C186 C185 1.397 . S
C186 C190 1.390 . S
C187 C185 1.361 . S
C187 C188 1.393 . S
C187 N191 1.413 . S
C188 H181 0.930 . S
C188 C187 1.393 . S
C188 C189 1.399 . S
C189 C188 1.399 . S
C189 C190 1.381 . S
C190 H182 0.930 . S
C190 C186 1.390 . S
C190 C189 1.381 . S
N191 C184 1.286 . S
N191 C187 1.413 . S
C192 C193 1.349 . S
C192 C194 1.327 . S
C192 H217 0.950 . S
C193 C192 1.349 . S
C193 C209 1.349 . S
C194 C192 1.327 . S
C194 C213 1.429 . S
C194 H218 0.950 . S
C195 C212 1.574 . S
C195 C214 1.368 . S
C195 H219 0.949 . S
H196 C200 0.949 . S
C197 C198 1.349 . S
C197 C199 1.327 . S
C197 H220 0.950 . S
C198 C197 1.349 . S
C198 C210 1.349 . S
C199 C197 1.327 . S
C199 C215 1.429 . S
C199 H221 0.950 . S
C200 H196 0.949 . S
C200 C208 1.574 . S
C200 C216 1.368 . S
H201 C209 0.950 . S
H202 C207 0.950 . S
H203 C208 0.949 . S
H204 C210 0.950 . S
H205 C211 0.950 . S
H206 C212 0.949 . S
C207 H202 0.950 . S
C207 C209 1.327 . S
C207 C213 1.429 . S
C208 C200 1.574 . S
C208 H203 0.949 . S
C208 C214 1.368 . S
C209 C193 1.349 . S
C209 H201 0.950 . S
C209 C207 1.327 . S
C210 C198 1.349 . S
C210 H204 0.950 . S
C210 C211 1.327 . S
C211 H205 0.950 . S
C211 C210 1.327 . S
C211 C215 1.429 . S
C212 C195 1.574 . S
C212 H206 0.949 . S
C212 C216 1.368 . S
C213 C194 1.429 . S
C213 C207 1.429 . S
C213 C214 1.523 . S
C214 C195 1.368 . S
C214 C208 1.368 . S
C214 C213 1.523 . S
C215 C199 1.429 . S
C215 C211 1.429 . S
C215 C216 1.523 . S
C216 C200 1.368 . S
C216 C212 1.368 . S
C216 C215 1.523 . S
H217 C192 0.950 . S
H218 C194 0.950 . S
H219 C195 0.949 . S
H220 C197 0.950 . S
H221 C199 0.950 . S
C222 C223 1.349 . S
C222 C224 1.327 . S
C222 H247 0.950 . S
C223 C222 1.349 . S
C223 C239 1.349 . S
C224 C222 1.327 . S
C224 C243 1.429 . S
C224 H248 0.950 . S
C225 C242 1.574 . S
C225 C244 1.368 . S
C225 H249 0.949 . S
H226 C230 0.949 . S
C227 C228 1.349 . S
C227 C229 1.327 . S
C227 H250 0.950 . S
C228 C227 1.349 . S
C228 C240 1.349 . S
C229 C227 1.327 . S
C229 C245 1.429 . S
C229 H251 0.950 . S
C230 H226 0.949 . S
C230 C238 1.574 . S
C230 C246 1.368 . S
H231 C239 0.950 . S
H232 C237 0.950 . S
H233 C238 0.949 . S
H234 C240 0.950 . S
H235 C241 0.950 . S
H236 C242 0.949 . S
C237 H232 0.950 . S
C237 C239 1.327 . S
C237 C243 1.429 . S
C238 C230 1.574 . S
C238 H233 0.949 . S
C238 C244 1.368 . S
C239 C223 1.349 . S
C239 H231 0.950 . S
C239 C237 1.327 . S
C240 C228 1.349 . S
C240 H234 0.950 . S
C240 C241 1.327 . S
C241 H235 0.950 . S
C241 C240 1.327 . S
C241 C245 1.429 . S
C242 C225 1.574 . S
C242 H236 0.949 . S
C242 C246 1.368 . S
C243 C224 1.429 . S
C243 C237 1.429 . S
C243 C244 1.523 . S
C244 C225 1.368 . S
C244 C238 1.368 . S
C244 C243 1.523 . S
C245 C229 1.429 . S
C245 C241 1.429 . S
C245 C246 1.523 . S
C246 C230 1.368 . S
C246 C242 1.368 . S
C246 C245 1.523 . S
H247 C222 0.950 . S
H248 C224 0.950 . S
H249 C225 0.949 . S
H250 C227 0.950 . S
H251 C229 0.950 . S
C252 C253 1.349 . S
C252 C254 1.327 . S
C252 H277 0.950 . S
C253 C252 1.349 . S
C253 C269 1.349 . S
C254 C252 1.327 . S
C254 C273 1.429 . S
C254 H278 0.950 . S
C255 C272 1.574 . S
C255 C274 1.368 . S
C255 H279 0.949 . S
H256 C260 0.949 . S
C257 C258 1.349 . S
C257 C259 1.327 . S
C257 H280 0.950 . S
C258 C257 1.349 . S
C258 C270 1.349 . S
C259 C257 1.327 . S
C259 C275 1.429 . S
C259 H281 0.950 . S
C260 H256 0.949 . S
C260 C268 1.574 . S
C260 C276 1.368 . S
H261 C269 0.950 . S
H262 C267 0.950 . S
H263 C268 0.949 . S
H264 C270 0.950 . S
H265 C271 0.950 . S
H266 C272 0.949 . S
C267 H262 0.950 . S
C267 C269 1.327 . S
C267 C273 1.429 . S
C268 C260 1.574 . S
C268 H263 0.949 . S
C268 C274 1.368 . S
C269 C253 1.349 . S
C269 H261 0.950 . S
C269 C267 1.327 . S
C270 C258 1.349 . S
C270 H264 0.950 . S
C270 C271 1.327 . S
C271 H265 0.950 . S
C271 C270 1.327 . S
C271 C275 1.429 . S
C272 C255 1.574 . S
C272 H266 0.949 . S
C272 C276 1.368 . S
C273 C254 1.429 . S
C273 C267 1.429 . S
C273 C274 1.523 . S
C274 C255 1.368 . S
C274 C268 1.368 . S
C274 C273 1.523 . S
C275 C259 1.429 . S
C275 C271 1.429 . S
C275 C276 1.523 . S
C276 C260 1.368 . S
C276 C272 1.368 . S
C276 C275 1.523 . S
H277 C252 0.950 . S
H278 C254 0.950 . S
H279 C255 0.949 . S
H280 C257 0.950 . S
H281 C259 0.950 . S
C282 C283 1.349 . S
C282 C284 1.327 . S
C282 H307 0.950 . S
C283 C282 1.349 . S
C283 C299 1.349 . S
C284 C282 1.327 . S
C284 C303 1.429 . S
C284 H308 0.950 . S
C285 C302 1.574 . S
C285 C304 1.368 . S
C285 H309 0.949 . S
H286 C290 0.949 . S
C287 C288 1.349 . S
C287 C289 1.327 . S
C287 H310 0.950 . S
C288 C287 1.349 . S
C288 C300 1.349 . S
C289 C287 1.327 . S
C289 C305 1.429 . S
C289 H311 0.950 . S
C290 H286 0.949 . S
C290 C298 1.574 . S
C290 C306 1.368 . S
H291 C299 0.950 . S
H292 C297 0.950 . S
H293 C298 0.949 . S
H294 C300 0.950 . S
H295 C301 0.950 . S
H296 C302 0.949 . S
C297 H292 0.950 . S
C297 C299 1.327 . S
C297 C303 1.429 . S
C298 C290 1.574 . S
C298 H293 0.949 . S
C298 C304 1.368 . S
C299 C283 1.349 . S
C299 H291 0.950 . S
C299 C297 1.327 . S
C300 C288 1.349 . S
C300 H294 0.950 . S
C300 C301 1.327 . S
C301 H295 0.950 . S
C301 C300 1.327 . S
C301 C305 1.429 . S
C302 C285 1.574 . S
C302 H296 0.949 . S
C302 C306 1.368 . S
C303 C284 1.429 . S
C303 C297 1.429 . S
C303 C304 1.523 . S
C304 C285 1.368 . S
C304 C298 1.368 . S
C304 C303 1.523 . S
C305 C289 1.429 . S
C305 C301 1.429 . S
C305 C306 1.523 . S
C306 C290 1.368 . S
C306 C302 1.368 . S
C306 C305 1.523 . S
H307 C282 0.950 . S
H308 C284 0.950 . S
H309 C285 0.949 . S
H310 C287 0.950 . S
H311 C289 0.950 . S
C312 C313 1.349 . S
C312 C314 1.327 . S
C312 H337 0.950 . S
C313 C312 1.349 . S
C313 C329 1.349 . S
C314 C312 1.327 . S
C314 C333 1.429 . S
C314 H338 0.950 . S
C315 C332 1.574 . S
C315 C334 1.368 . S
C315 H339 0.949 . S
H316 C320 0.949 . S
C317 C318 1.349 . S
C317 C319 1.327 . S
C317 H340 0.950 . S
C318 C317 1.349 . S
C318 C330 1.349 . S
C319 C317 1.327 . S
C319 C335 1.429 . S
C319 H341 0.950 . S
C320 H316 0.949 . S
C320 C328 1.574 . S
C320 C336 1.368 . S
H321 C329 0.950 . S
H322 C327 0.950 . S
H323 C328 0.949 . S
H324 C330 0.950 . S
H325 C331 0.950 . S
H326 C332 0.949 . S
C327 H322 0.950 . S
C327 C329 1.327 . S
C327 C333 1.429 . S
C328 C320 1.574 . S
C328 H323 0.949 . S
C328 C334 1.368 . S
C329 C313 1.349 . S
C329 H321 0.950 . S
C329 C327 1.327 . S
C330 C318 1.349 . S
C330 H324 0.950 . S
C330 C331 1.327 . S
C331 H325 0.950 . S
C331 C330 1.327 . S
C331 C335 1.429 . S
C332 C315 1.574 . S
C332 H326 0.949 . S
C332 C336 1.368 . S
C333 C314 1.429 . S
C333 C327 1.429 . S
C333 C334 1.523 . S
C334 C315 1.368 . S
C334 C328 1.368 . S
C334 C333 1.523 . S
C335 C319 1.429 . S
C335 C331 1.429 . S
C335 C336 1.523 . S
C336 C320 1.368 . S
C336 C332 1.368 . S
C336 C335 1.523 . S
H337 C312 0.950 . S
H338 C314 0.950 . S
H339 C315 0.949 . S
H340 C317 0.950 . S
H341 C319 0.950 . S
C342 C343 1.349 . S
C342 C344 1.327 . S
C342 H367 0.950 . S
C343 C342 1.349 . S
C343 C359 1.349 . S
C344 C342 1.327 . S
C344 C363 1.429 . S
C344 H368 0.950 . S
C345 C362 1.574 . S
C345 C364 1.368 . S
C345 H369 0.949 . S
H346 C350 0.949 . S
C347 C348 1.349 . S
C347 C349 1.327 . S
C347 H370 0.950 . S
C348 C347 1.349 . S
C348 C360 1.349 . S
C349 C347 1.327 . S
C349 C365 1.429 . S
C349 H371 0.950 . S
C350 H346 0.949 . S
C350 C358 1.574 . S
C350 C366 1.368 . S
H351 C359 0.950 . S
H352 C357 0.950 . S
H353 C358 0.949 . S
H354 C360 0.950 . S
H355 C361 0.950 . S
H356 C362 0.949 . S
C357 H352 0.950 . S
C357 C359 1.327 . S
C357 C363 1.429 . S
C358 C350 1.574 . S
C358 H353 0.949 . S
C358 C364 1.368 . S
C359 C343 1.349 . S
C359 H351 0.950 . S
C359 C357 1.327 . S
C360 C348 1.349 . S
C360 H354 0.950 . S
C360 C361 1.327 . S
C361 H355 0.950 . S
C361 C360 1.327 . S
C361 C365 1.429 . S
C362 C345 1.574 . S
C362 H356 0.949 . S
C362 C366 1.368 . S
C363 C344 1.429 . S
C363 C357 1.429 . S
C363 C364 1.523 . S
C364 C345 1.368 . S
C364 C358 1.368 . S
C364 C363 1.523 . S
C365 C349 1.429 . S
C365 C361 1.429 . S
C365 C366 1.523 . S
C366 C350 1.368 . S
C366 C362 1.368 . S
C366 C365 1.523 . S
H367 C342 0.950 . S
H368 C344 0.950 . S
H369 C345 0.949 . S
H370 C347 0.950 . S
H371 C349 0.950 . S
C372 C373 1.349 . S
C372 C374 1.327 . S
C372 H397 0.950 . S
C373 C372 1.349 . S
C373 C389 1.349 . S
C374 C372 1.327 . S
C374 C393 1.429 . S
C374 H398 0.950 . S
C375 C392 1.574 . S
C375 C394 1.368 . S
C375 H399 0.949 . S
H376 C380 0.949 . S
C377 C378 1.349 . S
C377 C379 1.327 . S
C377 H400 0.950 . S
C378 C377 1.349 . S
C378 C390 1.349 . S
C379 C377 1.327 . S
C379 C395 1.429 . S
C379 H401 0.950 . S
C380 H376 0.949 . S
C380 C388 1.574 . S
C380 C396 1.368 . S
H381 C389 0.950 . S
H382 C387 0.950 . S
H383 C388 0.949 . S
H384 C390 0.950 . S
H385 C391 0.950 . S
H386 C392 0.949 . S
C387 H382 0.950 . S
C387 C389 1.327 . S
C387 C393 1.429 . S
C388 C380 1.574 . S
C388 H383 0.949 . S
C388 C394 1.368 . S
C389 C373 1.349 . S
C389 H381 0.950 . S
C389 C387 1.327 . S
C390 C378 1.349 . S
C390 H384 0.950 . S
C390 C391 1.327 . S
C391 H385 0.950 . S
C391 C390 1.327 . S
C391 C395 1.429 . S
C392 C375 1.574 . S
C392 H386 0.949 . S
C392 C396 1.368 . S
C393 C374 1.429 . S
C393 C387 1.429 . S
C393 C394 1.523 . S
C394 C375 1.368 . S
C394 C388 1.368 . S
C394 C393 1.523 . S
C395 C379 1.429 . S
C395 C391 1.429 . S
C395 C396 1.523 . S
C396 C380 1.368 . S
C396 C392 1.368 . S
C396 C395 1.523 . S
H397 C372 0.950 . S
H398 C374 0.950 . S
H399 C375 0.949 . S
H400 C377 0.950 . S
H401 C379 0.950 . S
C402 C403 1.349 . S
C402 C404 1.327 . S
C402 H427 0.950 . S
C403 C402 1.349 . S
C403 C419 1.349 . S
C404 C402 1.327 . S
C404 C423 1.429 . S
C404 H428 0.950 . S
C405 C422 1.574 . S
C405 C424 1.368 . S
C405 H429 0.949 . S
H406 C410 0.949 . S
C407 C408 1.349 . S
C407 C409 1.327 . S
C407 H430 0.950 . S
C408 C407 1.349 . S
C408 C420 1.349 . S
C409 C407 1.327 . S
C409 C425 1.429 . S
C409 H431 0.950 . S
C410 H406 0.949 . S
C410 C418 1.574 . S
C410 C426 1.368 . S
H411 C419 0.950 . S
H412 C417 0.950 . S
H413 C418 0.949 . S
H414 C420 0.950 . S
H415 C421 0.950 . S
H416 C422 0.949 . S
C417 H412 0.950 . S
C417 C419 1.327 . S
C417 C423 1.429 . S
C418 C410 1.574 . S
C418 H413 0.949 . S
C418 C424 1.368 . S
C419 C403 1.349 . S
C419 H411 0.950 . S
C419 C417 1.327 . S
C420 C408 1.349 . S
C420 H414 0.950 . S
C420 C421 1.327 . S
C421 H415 0.950 . S
C421 C420 1.327 . S
C421 C425 1.429 . S
C422 C405 1.574 . S
C422 H416 0.949 . S
C422 C426 1.368 . S
C423 C404 1.429 . S
C423 C417 1.429 . S
C423 C424 1.523 . S
C424 C405 1.368 . S
C424 C418 1.368 . S
C424 C423 1.523 . S
C425 C409 1.429 . S
C425 C421 1.429 . S
C425 C426 1.523 . S
C426 C410 1.368 . S
C426 C422 1.368 . S
C426 C425 1.523 . S
H427 C402 0.950 . S
H428 C404 0.950 . S
H429 C405 0.949 . S
H430 C407 0.950 . S
H431 C409 0.950 . S
C432 C433 1.349 . S
C432 C434 1.327 . S
C432 H457 0.950 . S
C433 C432 1.349 . S
C433 C449 1.349 . S
C434 C432 1.327 . S
C434 C453 1.429 . S
C434 H458 0.950 . S
C435 C452 1.574 . S
C435 C454 1.368 . S
C435 H459 0.949 . S
H436 C440 0.949 . S
C437 C438 1.349 . S
C437 C439 1.327 1_545 S
C437 H460 0.950 . S
C438 C437 1.349 . S
C438 C450 1.349 . S
C439 C437 1.327 1_565 S
C439 C455 1.429 . S
C439 H461 0.950 . S
C440 H436 0.949 . S
C440 C448 1.574 . S
C440 C456 1.368 . S
H441 C449 0.950 . S
H442 C447 0.950 . S
H443 C448 0.949 . S
H444 C450 0.950 . S
H445 C451 0.950 . S
H446 C452 0.949 . S
C447 H442 0.950 . S
C447 C449 1.327 . S
C447 C453 1.429 . S
C448 C440 1.574 . S
C448 H443 0.949 . S
C448 C454 1.368 . S
C449 C433 1.349 . S
C449 H441 0.950 . S
C449 C447 1.327 . S
C450 C438 1.349 . S
C450 H444 0.950 . S
C450 C451 1.327 1_545 S
C451 H445 0.950 . S
C451 C450 1.327 1_565 S
C451 C455 1.429 . S
C452 C435 1.574 . S
C452 H446 0.949 . S
C452 C456 1.368 . S
C453 C434 1.429 . S
C453 C447 1.429 . S
C453 C454 1.523 . S
C454 C435 1.368 . S
C454 C448 1.368 . S
C454 C453 1.523 . S
C455 C439 1.429 . S
C455 C451 1.429 . S
C455 C456 1.523 . S
C456 C440 1.368 . S
C456 C452 1.368 . S
C456 C455 1.523 . S
H457 C432 0.950 . S
H458 C434 0.950 . S
H459 C435 0.949 . S
H460 C437 0.950 . S
H461 C439 0.950 . S
C462 C463 1.349 . S
C462 C464 1.327 . S
C462 H487 0.950 . S
C463 C462 1.349 . S
C463 C479 1.349 . S
C464 C462 1.327 . S
C464 C483 1.429 . S
C464 H488 0.950 . S
C465 C482 1.574 . S
C465 C484 1.368 . S
C465 H489 0.949 . S
H466 C470 0.949 . S
C467 C468 1.349 . S
C467 C469 1.327 . S
C467 H490 0.950 . S
C468 C467 1.349 . S
C468 C480 1.349 . S
C469 C467 1.327 . S
C469 C485 1.429 . S
C469 H491 0.950 . S
C470 H466 0.949 . S
C470 C478 1.574 . S
C470 C486 1.368 . S
H471 C479 0.950 . S
H472 C477 0.950 . S
H473 C478 0.949 . S
H474 C480 0.950 . S
H475 C481 0.950 . S
H476 C482 0.949 . S
C477 H472 0.950 . S
C477 C479 1.327 . S
C477 C483 1.429 . S
C478 C470 1.574 . S
C478 H473 0.949 . S
C478 C484 1.368 . S
C479 C463 1.349 . S
C479 H471 0.950 . S
C479 C477 1.327 . S
C480 C468 1.349 . S
C480 H474 0.950 . S
C480 C481 1.327 . S
C481 H475 0.950 . S
C481 C480 1.327 . S
C481 C485 1.429 . S
C482 C465 1.574 . S
C482 H476 0.949 . S
C482 C486 1.368 . S
C483 C464 1.429 . S
C483 C477 1.429 . S
C483 C484 1.523 . S
C484 C465 1.368 . S
C484 C478 1.368 . S
C484 C483 1.523 . S
C485 C469 1.429 . S
C485 C481 1.429 . S
C485 C486 1.523 . S
C486 C470 1.368 . S
C486 C482 1.368 . S
C486 C485 1.523 . S
H487 C462 0.950 . S
H488 C464 0.950 . S
H489 C465 0.949 . S
H490 C467 0.950 . S
H491 C469 0.950 . S
C492 C493 1.349 . S
C492 C494 1.327 . S
C492 H517 0.950 . S
C493 C492 1.349 . S
C493 C509 1.349 . S
C494 C492 1.327 . S
C494 C513 1.429 . S
C494 H518 0.950 . S
C495 C512 1.574 . S
C495 C514 1.368 . S
C495 H519 0.949 . S
H496 C500 0.949 . S
C497 C498 1.349 . S
C497 C499 1.327 . S
C497 H520 0.950 . S
C498 C497 1.349 . S
C498 C510 1.349 . S
C499 C497 1.327 . S
C499 C515 1.429 . S
C499 H521 0.950 . S
C500 H496 0.949 . S
C500 C508 1.574 . S
C500 C516 1.368 . S
H501 C509 0.950 . S
H502 C507 0.950 . S
H503 C508 0.949 . S
H504 C510 0.950 . S
H505 C511 0.950 . S
H506 C512 0.949 . S
C507 H502 0.950 . S
C507 C509 1.327 . S
C507 C513 1.429 . S
C508 C500 1.574 . S
C508 H503 0.949 . S
C508 C514 1.368 . S
C509 C493 1.349 . S
C509 H501 0.950 . S
C509 C507 1.327 . S
C510 C498 1.349 . S
C510 H504 0.950 . S
C510 C511 1.327 . S
C511 H505 0.950 . S
C511 C510 1.327 . S
C511 C515 1.429 . S
C512 C495 1.574 . S
C512 H506 0.949 . S
C512 C516 1.368 . S
C513 C494 1.429 . S
C513 C507 1.429 . S
C513 C514 1.523 . S
C514 C495 1.368 . S
C514 C508 1.368 . S
C514 C513 1.523 . S
C515 C499 1.429 . S
C515 C511 1.429 . S
C515 C516 1.523 . S
C516 C500 1.368 . S
C516 C512 1.368 . S
C516 C515 1.523 . S
H517 C492 0.950 . S
H518 C494 0.950 . S
H519 C495 0.949 . S
H520 C497 0.950 . S
H521 C499 0.950 . S
C522 C523 1.349 . S
C522 C524 1.327 . S
C522 H547 0.950 . S
C523 C522 1.349 . S
C523 C539 1.349 . S
C524 C522 1.327 . S
C524 C543 1.429 . S
C524 H548 0.950 . S
C525 C542 1.574 . S
C525 C544 1.368 . S
C525 H549 0.949 . S
H526 C530 0.949 . S
C527 C528 1.349 . S
C527 C529 1.327 . S
C527 H550 0.950 . S
C528 C527 1.349 . S
C528 C540 1.349 . S
C529 C527 1.327 . S
C529 C545 1.429 . S
C529 H551 0.950 . S
C530 H526 0.949 . S
C530 C538 1.574 . S
C530 C546 1.368 . S
H531 C539 0.950 . S
H532 C537 0.950 . S
H533 C538 0.949 . S
H534 C540 0.950 . S
H535 C541 0.950 . S
H536 C542 0.949 . S
C537 H532 0.950 . S
C537 C539 1.327 . S
C537 C543 1.429 . S
C538 C530 1.574 . S
C538 H533 0.949 . S
C538 C544 1.368 . S
C539 C523 1.349 . S
C539 H531 0.950 . S
C539 C537 1.327 . S
C540 C528 1.349 . S
C540 H534 0.950 . S
C540 C541 1.327 . S
C541 H535 0.950 . S
C541 C540 1.327 . S
C541 C545 1.429 . S
C542 C525 1.574 . S
C542 H536 0.949 . S
C542 C546 1.368 . S
C543 C524 1.429 . S
C543 C537 1.429 . S
C543 C544 1.523 . S
C544 C525 1.368 . S
C544 C538 1.368 . S
C544 C543 1.523 . S
C545 C529 1.429 . S
C545 C541 1.429 . S
C545 C546 1.523 . S
C546 C530 1.368 . S
C546 C542 1.368 . S
C546 C545 1.523 . S
H547 C522 0.950 . S
H548 C524 0.950 . S
H549 C525 0.949 . S
H550 C527 0.950 . S
H551 C529 0.950 . S
C552 C553 1.354 . S
C552 C554 1.327 1_455 S
C552 H577 0.944 1_455 S
C553 C552 1.354 . S
C553 C569 1.349 . S
C554 C552 1.327 1_655 S
C554 C573 1.429 1_655 S
C554 H578 0.950 . S
C555 C572 1.574 . S
C555 C574 1.368 . S
C555 H579 0.949 . S
H556 C560 0.949 1_556 S
C557 C558 1.349 . S
C557 C559 1.327 . S
C557 H580 0.950 . S
C558 C557 1.349 . S
C558 C570 1.349 1_455 S
C559 C557 1.327 . S
C559 C575 1.429 . S
C559 H581 0.950 . S
C560 H556 0.949 1_554 S
C560 C568 1.574 . S
C560 C576 1.368 1_654 S
H561 C569 0.950 . S
H562 C567 0.950 . S
H563 C568 0.949 . S
H564 C570 0.950 . S
H565 C571 0.950 . S
H566 C572 0.949 1_556 S
C567 H562 0.950 . S
C567 C569 1.327 . S
C567 C573 1.429 . S
C568 C560 1.574 . S
C568 H563 0.949 . S
C568 C574 1.368 1_655 S
C569 C553 1.349 . S
C569 H561 0.950 . S
C569 C567 1.327 . S
C570 C558 1.349 1_655 S
C570 H564 0.950 . S
C570 C571 1.327 . S
C571 H565 0.950 . S
C571 C570 1.327 . S
C571 C575 1.429 1_655 S
C572 C555 1.574 . S
C572 H566 0.949 1_554 S
C572 C576 1.368 1_554 S
C573 C554 1.429 1_455 S
C573 C567 1.429 . S
C573 C574 1.523 . S
C574 C555 1.368 . S
C574 C568 1.368 1_455 S
C574 C573 1.523 . S
C575 C559 1.429 . S
C575 C571 1.429 1_455 S
C575 C576 1.523 . S
C576 C560 1.368 1_456 S
C576 C572 1.368 1_556 S
C576 C575 1.523 . S
H577 C552 0.944 1_655 S
H578 C554 0.950 . S
H579 C555 0.949 . S
H580 C557 0.950 . S
H581 C559 0.950 . S
C582 C583 1.349 . S
C582 C584 1.327 . S
C582 H607 0.950 . S
C583 C582 1.349 . S
C583 C599 1.349 . S
C584 C582 1.327 . S
C584 C603 1.429 . S
C584 H608 0.950 . S
C585 C602 1.574 . S
C585 C604 1.368 . S
C585 H609 0.949 . S
H586 C590 0.949 . S
C587 C588 1.349 . S
C587 C589 1.327 . S
C587 H610 0.950 . S
C588 C587 1.349 . S
C588 C600 1.349 . S
C589 C587 1.327 . S
C589 C605 1.429 . S
C589 H611 0.950 . S
C590 H586 0.949 . S
C590 C598 1.574 . S
C590 C606 1.368 . S
H591 C599 0.950 . S
H592 C597 0.950 . S
H593 C598 0.949 . S
H594 C600 0.950 . S
H595 C601 0.950 . S
H596 C602 0.949 . S
C597 H592 0.950 . S
C597 C599 1.327 . S
C597 C603 1.429 . S
C598 C590 1.574 . S
C598 H593 0.949 . S
C598 C604 1.368 . S
C599 C583 1.349 . S
C599 H591 0.950 . S
C599 C597 1.327 . S
C600 C588 1.349 . S
C600 H594 0.950 . S
C600 C601 1.327 . S
C601 H595 0.950 . S
C601 C600 1.327 . S
C601 C605 1.429 . S
C602 C585 1.574 . S
C602 H596 0.949 . S
C602 C606 1.368 . S
C603 C584 1.429 . S
C603 C597 1.429 . S
C603 C604 1.523 . S
C604 C585 1.368 . S
C604 C598 1.368 . S
C604 C603 1.523 . S
C605 C589 1.429 . S
C605 C601 1.429 . S
C605 C606 1.523 . S
C606 C590 1.368 . S
C606 C602 1.368 . S
C606 C605 1.523 . S
H607 C582 0.950 . S
H608 C584 0.950 . S
H609 C585 0.949 . S
H610 C587 0.950 . S
H611 C589 0.950 . S
C612 C613 1.349 . S
C612 C614 1.327 . S
C612 H637 0.950 . S
C613 C612 1.349 . S
C613 C629 1.349 . S
C614 C612 1.327 . S
C614 C633 1.429 . S
C614 H638 0.950 . S
C615 C632 1.574 . S
C615 C634 1.368 . S
C615 H639 0.949 . S
H616 C620 0.949 . S
C617 C618 1.349 . S
C617 C619 1.327 . S
C617 H640 0.950 . S
C618 C617 1.349 . S
C618 C630 1.349 . S
C619 C617 1.327 . S
C619 C635 1.429 . S
C619 H641 0.950 . S
C620 H616 0.949 . S
C620 C628 1.574 . S
C620 C636 1.368 . S
H621 C629 0.950 . S
H622 C627 0.950 . S
H623 C628 0.949 . S
H624 C630 0.950 . S
H625 C631 0.950 . S
H626 C632 0.949 . S
C627 H622 0.950 . S
C627 C629 1.327 . S
C627 C633 1.429 . S
C628 C620 1.574 . S
C628 H623 0.949 . S
C628 C634 1.368 . S
C629 C613 1.349 . S
C629 H621 0.950 . S
C629 C627 1.327 . S
C630 C618 1.349 . S
C630 H624 0.950 . S
C630 C631 1.327 . S
C631 H625 0.950 . S
C631 C630 1.327 . S
C631 C635 1.429 . S
C632 C615 1.574 . S
C632 H626 0.949 . S
C632 C636 1.368 . S
C633 C614 1.429 . S
C633 C627 1.429 . S
C633 C634 1.523 . S
C634 C615 1.368 . S
C634 C628 1.368 . S
C634 C633 1.523 . S
C635 C619 1.429 . S
C635 C631 1.429 . S
C635 C636 1.523 . S
C636 C620 1.368 . S
C636 C632 1.368 . S
C636 C635 1.523 . S
H637 C612 0.950 . S
H638 C614 0.950 . S
H639 C615 0.949 . S
H640 C617 0.950 . S
H641 C619 0.950 . S
C642 C643 1.349 . S
C642 C644 1.327 . S
C642 H667 0.950 1_545 S
C643 C642 1.349 . S
C643 C659 1.349 . S
C644 C642 1.327 . S
C644 C663 1.429 . S
C644 H668 0.950 1_545 S
C645 C662 1.574 . S
C645 C664 1.368 . S
C645 H669 0.949 . S
H646 C650 0.949 . S
C647 C648 1.349 . S
C647 C649 1.327 . S
C647 H670 0.950 . S
C648 C647 1.349 . S
C648 C660 1.349 1_545 S
C649 C647 1.327 . S
C649 C665 1.429 . S
C649 H671 0.950 . S
C650 H646 0.949 . S
C650 C658 1.574 . S
C650 C666 1.368 1_565 S
H651 C659 0.950 . S
H652 C657 0.950 . S
H653 C658 0.948 . S
H654 C660 0.950 . S
H655 C661 0.950 . S
H656 C662 0.949 . S
C657 H652 0.950 . S
C657 C659 1.327 . S
C657 C663 1.429 . S
C658 C650 1.574 . S
C658 H653 0.948 . S
C658 C664 1.369 1_565 S
C659 C643 1.349 . S
C659 H651 0.950 . S
C659 C657 1.327 . S
C660 C648 1.349 1_565 S
C660 H654 0.950 . S
C660 C661 1.327 . S
C661 H655 0.950 . S
C661 C660 1.327 . S
C661 C665 1.429 1_565 S
C662 C645 1.574 . S
C662 H656 0.949 . S
C662 C666 1.368 . S
C663 C644 1.429 . S
C663 C657 1.429 . S
C663 C664 1.523 . S
C664 C645 1.368 . S
C664 C658 1.369 1_545 S
C664 C663 1.523 . S
C665 C649 1.429 . S
C665 C661 1.429 1_545 S
C665 C666 1.523 . S
C666 C650 1.368 1_545 S
C666 C662 1.368 . S
C666 C665 1.523 . S
H667 C642 0.950 1_565 S
H668 C644 0.950 1_565 S
H669 C645 0.949 . S
H670 C647 0.950 . S
H671 C649 0.950 . S
C672 C673 1.349 . S
C672 C674 1.327 . S
C672 H697 0.950 . S
C673 C672 1.349 . S
C673 C689 1.349 . S
C674 C672 1.327 . S
C674 C693 1.429 . S
C674 H698 0.950 . S
C675 C692 1.574 . S
C675 C694 1.368 . S
C675 H699 0.949 . S
H676 C680 0.958 . S
C677 C678 1.349 . S
C677 C679 1.327 . S
C677 H700 0.950 . S
C678 C677 1.349 . S
C678 C690 1.349 . S
C679 C677 1.327 . S
C679 C695 1.429 . S
C679 H701 0.950 . S
C680 H676 0.958 . S
C680 C688 1.574 . S
C680 C696 1.368 1_556 S
H681 C689 0.950 . S
H682 C687 0.950 . S
H683 C688 0.949 . S
H684 C690 0.950 . S
H685 C691 0.950 . S
H686 C692 0.949 1_554 S
C687 H682 0.950 . S
C687 C689 1.327 . S
C687 C693 1.429 . S
C688 C680 1.574 . S
C688 H683 0.949 . S
C688 C694 1.368 . S
C689 C673 1.349 . S
C689 H681 0.950 . S
C689 C687 1.327 . S
C690 C678 1.349 . S
C690 H684 0.950 . S
C690 C691 1.327 . S
C691 H685 0.950 . S
C691 C690 1.327 . S
C691 C695 1.429 . S
C692 C675 1.574 . S
C692 H686 0.949 1_556 S
C692 C696 1.368 1_556 S
C693 C674 1.429 . S
C693 C687 1.429 . S
C693 C694 1.523 . S
C694 C675 1.368 . S
C694 C688 1.368 . S
C694 C693 1.523 . S
C695 C679 1.429 . S
C695 C691 1.429 . S
C695 C696 1.523 . S
C696 C680 1.368 1_554 S
C696 C692 1.368 1_554 S
C696 C695 1.523 . S
H697 C672 0.950 . S
H698 C674 0.950 . S
H699 C675 0.949 . S
H700 C677 0.950 . S
H701 C679 0.950 . S
C702 C703 1.349 . S
C702 C704 1.327 . S
C702 H727 0.950 . S
C703 C702 1.349 . S
C703 C719 1.349 . S
C704 C702 1.327 . S
C704 C723 1.429 . S
C704 H728 0.950 . S
C705 C722 1.574 . S
C705 C724 1.368 . S
C705 H729 0.949 . S
H706 C710 0.949 . S
C707 C708 1.349 . S
C707 C709 1.327 . S
C707 H730 0.950 . S
C708 C707 1.349 . S
C708 C720 1.349 . S
C709 C707 1.327 . S
C709 C725 1.429 . S
C709 H731 0.950 . S
C710 H706 0.949 . S
C710 C718 1.574 . S
C710 C726 1.368 . S
H711 C719 0.950 . S
H712 C717 0.950 . S
H713 C718 0.949 . S
H714 C720 0.950 . S
H715 C721 0.950 . S
H716 C722 0.949 . S
C717 H712 0.950 . S
C717 C719 1.327 . S
C717 C723 1.429 . S
C718 C710 1.574 . S
C718 H713 0.949 . S
C718 C724 1.368 . S
C719 C703 1.349 . S
C719 H711 0.950 . S
C719 C717 1.327 . S
C720 C708 1.349 . S
C720 H714 0.950 . S
C720 C721 1.327 . S
C721 H715 0.950 . S
C721 C720 1.327 . S
C721 C725 1.429 . S
C722 C705 1.574 . S
C722 H716 0.949 . S
C722 C726 1.368 . S
C723 C704 1.429 . S
C723 C717 1.429 . S
C723 C724 1.523 . S
C724 C705 1.368 . S
C724 C718 1.368 . S
C724 C723 1.523 . S
C725 C709 1.429 . S
C725 C721 1.429 . S
C725 C726 1.523 . S
C726 C710 1.368 . S
C726 C722 1.368 . S
C726 C725 1.523 . S
H727 C702 0.950 . S
H728 C704 0.950 . S
H729 C705 0.949 . S
H730 C707 0.950 . S
H731 C709 0.950 . S
C193 C10 3.280 . S
C198 C186 3.291 . S
C223 C59 3.141 . S
C228 C160 3.058 . S
C253 C90 3.042 . S
C258 C172 2.987 . S
C283 C19 2.771 . S
C288 C184 2.668 . S
C318 C162 2.853 . S
C313 C50 2.875 . S
C348 C174 2.918 . S
C343 C99 2.954 . S
C373 C46 0.487 . S
C378 C136 0.509 . S
C403 C95 0.521 . S
C408 C150 0.498 . S
C433 C6 0.201 . S
C438 C126 0.261 . S
C468 C138 0.186 . S
C463 C55 0.208 . S
C498 C148 0.406 . S
C493 C86 0.159 . S
C523 C15 0.349 . S
C528 C124 0.349 . S
C558 C153 1.290 . S
C553 C9 1.263 . S
C583 C49 1.214 . S
C588 C129 1.261 . S
C613 C89 1.273 . S
C618 C141 1.297 . S
C648 C177 1.725 . S
C643 C58 1.683 . S
C678 C189 1.796 . S
C673 C98 1.714 . S
C703 C18 1.667 . S
C708 C165 1.771 . S
