# Generated by pormake.
# Topology anh, (6,3)-cn, num edge types: 1
# Building blocks:
#     Node 0, Type 0, BuildingBlock: BETFEN_clean_sbu_0, # of connection points: 6
#     Node 1, Type 0, BuildingBlock: BETFEN_clean_sbu_0, # of connection points: 6
#     Node 2, Type 0, BuildingBlock: BETFEN_clean_sbu_0, # of connection points: 6
#     Node 3, Type 1, BuildingBlock: PAMTOO_clean_linker_0, # of connection points: 3
#     Node 4, Type 1, BuildingBlock: PAMTOO_clean_linker_0, # of connection points: 3
#     Node 5, Type 1, BuildingBlock: PAMTOO_clean_linker_0, # of connection points: 3
#     Node 6, Type 1, BuildingBlock: PAMTOO_clean_linker_0, # of connection points: 3
#     Node 7, Type 1, BuildingBlock: PAMTOO_clean_linker_0, # of connection points: 3
#     Node 8, Type 1, BuildingBlock: PAMTOO_clean_linker_0, # of connection points: 3
#     Edge 9, Type (0, 1), BuildingBlock: KIFKEQ_clean_linker_1, # of connection points: 2
#     Edge 10, Type (0, 1), BuildingBlock: KIFKEQ_clean_linker_1, # of connection points: 2
#     Edge 11, Type (0, 1), BuildingBlock: KIFKEQ_clean_linker_1, # of connection points: 2
#     Edge 12, Type (0, 1), BuildingBlock: KIFKEQ_clean_linker_1, # of connection points: 2
#     Edge 13, Type (0, 1), BuildingBlock: KIFKEQ_clean_linker_1, # of connection points: 2
#     Edge 14, Type (0, 1), BuildingBlock: KIFKEQ_clean_linker_1, # of connection points: 2
#     Edge 15, Type (0, 1), BuildingBlock: KIFKEQ_clean_linker_1, # of connection points: 2
#     Edge 16, Type (0, 1), BuildingBlock: KIFKEQ_clean_linker_1, # of connection points: 2
#     Edge 17, Type (0, 1), BuildingBlock: KIFKEQ_clean_linker_1, # of connection points: 2
#     Edge 18, Type (0, 1), BuildingBlock: KIFKEQ_clean_linker_1, # of connection points: 2
#     Edge 19, Type (0, 1), BuildingBlock: KIFKEQ_clean_linker_1, # of connection points: 2
#     Edge 20, Type (0, 1), BuildingBlock: KIFKEQ_clean_linker_1, # of connection points: 2
#     Edge 21, Type (0, 1), BuildingBlock: KIFKEQ_clean_linker_1, # of connection points: 2
#     Edge 22, Type (0, 1), BuildingBlock: KIFKEQ_clean_linker_1, # of connection points: 2
#     Edge 23, Type (0, 1), BuildingBlock: KIFKEQ_clean_linker_1, # of connection points: 2
#     Edge 24, Type (0, 1), BuildingBlock: KIFKEQ_clean_linker_1, # of connection points: 2
#     Edge 25, Type (0, 1), BuildingBlock: KIFKEQ_clean_linker_1, # of connection points: 2
#     Edge 26, Type (0, 1), BuildingBlock: KIFKEQ_clean_linker_1, # of connection points: 2
# Relax obj value: 0.157
# Max RMSD: 0.179
# Mean RMSD: 0.117
data_MOF--net-anh--node1-BETFEN_clean_sbu_0--node2-PAMTOO_clean_linker_0--edge1-KIFKEQ_clean_linker_1
_symmetry_space_group_name_H-M    P1
_symmetry_Int_Tables_number       1
_symmetry_cell_setting            triclinic
loop_
_symmetry_equiv_pos_as_xyz
'x, y, z'
_cell_length_a     30.474094
_cell_length_b     31.984017
_cell_length_c     50.817335
_cell_angle_alpha  87.41845
_cell_angle_beta   92.915636
_cell_angle_gamma 103.33375
loop_
_atom_site_label
_atom_site_type_symbol
_atom_site_fract_x
_atom_site_fract_y
_atom_site_fract_z
_atom_type_partial_charge
Pr0 Pr 0.11209 0.53761 0.14887 0.0
Pr1 Pr 0.13571 0.63183 0.13737 0.0
C2 C 0.07785 0.45655 0.16695 0.0
C3 C 1.03433 0.4253 0.17044 0.0
C4 C 1.02799 0.38425 0.1602 0.0
C5 C 0.98807 0.35327 0.16422 0.0
C6 C 0.9536 0.36253 0.17879 0.0
C7 C 0.9597 0.40406 0.18861 0.0
C8 C 0.9996 0.43516 0.18444 0.0
C9 C 0.12643 0.55941 0.09577 0.0
C10 C 1.02788 0.58877 0.13615 0.0
C11 C 0.17198 0.71369 0.12149 0.0
C12 C 0.21332 0.74636 0.12796 0.0
C13 C 0.23822 0.74316 0.15167 0.0
C14 C 0.2768 0.77496 0.15799 0.0
C15 C 0.29141 0.81049 0.14062 0.0
C16 C 0.26666 0.813 0.11664 0.0
C17 C 0.22797 0.78127 0.11042 0.0
C18 C 0.12252 0.61009 0.19063 0.0
C19 C 0.22012 0.5794 0.14632 0.0
O20 O 0.08763 0.48976 0.18209 0.0
O21 O 0.0906 0.46582 0.14281 0.0
O22 O 0.10364 0.57683 0.11018 0.0
O23 O 0.14215 0.52956 0.10852 0.0
O24 O 0.05842 0.62074 0.12588 0.0
O25 O 0.04047 0.5558 0.14849 0.0
O26 O 0.1772 0.68037 0.10907 0.0
O27 O 0.14285 0.70345 0.14004 0.0
O28 O 0.14479 0.59258 0.17597 0.0
O29 O 0.10747 0.64042 0.17812 0.0
O30 O 0.19036 0.54633 0.15612 0.0
O31 O 0.20697 0.61365 0.13629 0.0
H32 H 0.0542 0.37595 0.14926 0.0
H33 H 0.9843 0.32199 0.15591 0.0
H34 H 0.93417 0.41229 0.20014 0.0
H35 H 1.00346 0.46664 0.19251 0.0
H36 H 0.22751 0.71628 0.16544 0.0
H37 H 0.29459 0.77211 0.17673 0.0
H38 H 0.27728 0.8394 0.10257 0.0
H39 H 0.20936 0.78409 0.09193 0.0
Pr40 Pr 0.63646 0.10011 0.51212 0.0
Pr41 Pr 0.52839 0.07463 0.50937 0.0
C42 C 0.72422 0.13504 0.50343 0.0
C43 C 0.75508 0.17694 0.49718 0.0
C44 C 0.79733 0.18795 0.51056 0.0
C45 C 0.82788 0.22669 0.50446 0.0
C46 C 0.81698 0.25536 0.48469 0.0
C47 C 0.77422 0.24443 0.47155 0.0
C48 C 0.74358 0.20572 0.47777 0.0
C49 C 0.59395 0.08404 0.55981 0.0
C50 C 0.57831 0.18218 0.5109 0.0
C51 C 0.44293 1.04031 0.52255 0.0
C52 C 0.41003 1.00073 0.5149 0.0
C53 C 0.42374 0.96975 0.50059 0.0
C54 C 0.39307 0.93157 0.49389 0.0
C55 C 0.34787 0.92354 0.50126 0.0
C56 C 0.33428 0.95494 0.51547 0.0
C57 C 0.3651 0.99312 0.52224 0.0
C58 C 0.55895 0.07746 0.45822 0.0
C59 C 0.58787 0.99329 0.51195 0.0
O60 O 0.69489 0.1179 0.48493 0.0
O61 O 0.70795 0.12954 0.527 0.0
O62 O 0.58184 0.10431 0.54004 0.0
O63 O 0.63122 0.07216 0.55595 0.0
O64 O 0.53963 0.15202 0.5121 0.0
O65 O 0.61759 0.17034 0.50953 0.0
O66 O 0.47818 1.03429 0.53682 0.0
O67 O 0.45318 0.07044 0.50401 0.0
O68 O 0.58298 0.08442 0.47916 0.0
O69 O 0.51654 0.06965 0.46344 0.0
O70 O 0.62601 1.02328 0.50871 0.0
O71 O 0.54907 1.00535 0.51444 0.0
H72 H 0.80688 0.16637 0.52569 0.0
H73 H 0.86001 0.2342 0.51536 0.0
H74 H 0.76469 0.26533 0.45603 0.0
H75 H 0.71112 0.19812 0.46719 0.0
H76 H 0.45835 0.97495 0.49478 0.0
H77 H 0.40505 0.90803 0.48331 0.0
H78 H 0.29968 0.95024 0.52116 0.0
H79 H 0.35386 1.01666 0.53325 0.0
Pr80 Pr 0.63658 0.5385 0.81324 0.0
Pr81 Pr 0.65716 0.63076 0.82917 0.0
C82 C 0.62442 0.46154 0.79113 0.0
C83 C 0.59103 0.42013 0.78924 0.0
C84 C 0.57896 0.39317 0.81158 0.0
C85 C 0.54779 0.3538 0.80915 0.0
C86 C 0.52791 0.34063 0.78439 0.0
C87 C 0.54001 0.36779 0.76211 0.0
C88 C 0.57136 0.40701 0.76452 0.0
C89 C 0.62891 0.54876 0.86699 0.0
C90 C 0.74561 0.5882 0.82218 0.0
C91 C 0.67593 0.70846 0.85054 0.0
C92 C 0.65153 0.74313 0.84865 0.0
C93 C 0.62452 0.74772 0.82603 0.0
C94 C 0.59728 0.77724 0.82507 0.0
C95 C 0.59598 0.8025 0.84683 0.0
C96 C 0.6239 0.79863 0.8693 0.0
C97 C 0.65139 0.76895 0.87023 0.0
C98 C 0.63446 0.61989 0.77534 0.0
C99 C 0.54999 0.58092 0.8225 0.0
O100 O 0.64617 0.47051 0.81382 0.0
O101 O 0.61347 0.4949 0.77897 0.0
O102 O 0.66029 0.56928 0.85306 0.0
O103 O 0.59997 0.52079 0.85337 0.0
O104 O 0.73168 0.62209 0.82923 0.0
O105 O 0.71649 0.55285 0.81467 0.0
O106 O 0.65517 0.67346 0.86316 0.0
O107 O 0.69384 0.70077 0.82887 0.0
O108 O 0.66031 0.60087 0.78882 0.0
O109 O 0.6203 0.64649 0.78946 0.0
O110 O 0.5643 0.554 0.8078 0.0
O111 O 0.57929 0.60922 0.83655 0.0
H112 H 0.59367 0.40231 0.83092 0.0
H113 H 0.53976 0.33343 0.82666 0.0
H114 H 0.5249 0.35901 0.74281 0.0
H115 H 0.5802 0.4272 0.74701 0.0
H116 H 0.62373 0.72784 0.80923 0.0
H117 H 0.57698 0.78011 0.80724 0.0
H118 H 0.62352 0.8176 0.88638 0.0
H119 H 0.67163 0.7654 0.88798 0.0
H120 H 0.69465 0.14805 0.27036 0.0
H121 H 0.58548 1.03786 0.25542 0.0
H122 H 0.65998 0.10527 0.1913 0.0
H123 H 0.56388 0.07762 0.17627 0.0
C124 C 0.55343 1.05472 0.19316 0.0
O125 O 0.59134 1.0433 0.20456 0.0
H126 H 0.53741 0.07123 0.20754 0.0
C127 C 0.67401 0.12552 0.25693 0.0
C128 C 0.68237 0.13023 0.22984 0.0
C129 C 0.63917 0.09235 0.26671 0.0
C130 C 0.61234 0.06397 0.2487 0.0
C131 C 0.61949 0.06909 0.22165 0.0
C132 C 0.65486 0.10164 0.2123 0.0
H133 H 0.59567 0.68697 0.57457 0.0
H134 H 0.60113 0.55434 0.57144 0.0
H135 H 0.5845 0.62683 0.49915 0.0
H136 H 0.53049 0.51165 0.50838 0.0
C137 C 0.55865 0.50758 0.52229 0.0
O138 O 0.59244 0.54652 0.52089 0.0
H139 H 0.54441 0.50377 0.5422 0.0
C140 C 0.59423 0.65913 0.56283 0.0
C141 C 0.59009 0.66355 0.53523 0.0
C142 C 0.59778 0.62021 0.57581 0.0
C143 C 0.59751 0.58389 0.56118 0.0
C144 C 0.59125 0.58426 0.53364 0.0
C145 C 0.58762 0.62494 0.52045 0.0
H146 H 0.05823 0.5928 0.89824 0.0
H147 H 0.19658 0.58819 0.89037 0.0
H148 H 0.11009 0.59129 0.8209 0.0
H149 H 0.19225 0.54175 0.81461 0.0
C150 C 0.20963 0.55493 0.83322 0.0
O151 O 0.19415 0.5909 0.83904 0.0
H152 H 0.20069 0.52931 0.8489 0.0
C153 C 0.0858 0.59228 0.88566 0.0
C154 C 0.07837 0.59264 0.85812 0.0
C155 C 0.12791 0.59033 0.8974 0.0
C156 C 0.16368 0.5889 0.88144 0.0
C157 C 0.15767 0.58918 0.8539 0.0
C158 C 0.11467 0.59047 0.84218 0.0
H159 H 1.03228 0.50279 0.38434 0.0
H160 H 0.13451 0.61906 0.39587 0.0
H161 H 0.06754 0.55048 0.46246 0.0
H162 H 0.09115 0.64442 0.47111 0.0
C163 C 0.1125 0.65355 0.45373 0.0
O164 O 0.12829 0.61846 0.4469 0.0
H165 H 0.09072 0.66333 0.43741 0.0
C166 C 0.05186 0.52675 0.39735 0.0
C167 C 0.04553 0.52217 0.42468 0.0
C168 C 0.08411 0.56128 0.38669 0.0
C169 C 0.11007 0.59177 0.40371 0.0
C170 C 0.1039 0.588 0.43091 0.0
C171 C 0.07213 0.55297 0.4414 0.0
H172 H 0.47724 1.00992 0.74739 0.0
H173 H 0.36333 1.05457 0.71356 0.0
H174 H 0.35694 0.99556 0.79107 0.0
H175 H 0.28638 1.04482 0.78658 0.0
C176 C 0.29703 0.05868 0.76683 0.0
O177 O 0.31213 1.02831 0.75338 0.0
H178 H 0.26642 0.06503 0.75611 0.0
C179 C 0.44403 1.01599 0.74928 0.0
C180 C 0.42059 1.00196 0.77237 0.0
C181 C 0.42398 1.03495 0.72784 0.0
C182 C 0.3797 1.04011 0.72979 0.0
C183 C 0.35571 1.02565 0.7525 0.0
C184 C 0.37603 1.00662 0.77369 0.0
H185 H 0.71029 0.58248 0.06117 0.0
H186 H 0.57091 0.57871 0.07249 0.0
H187 H 0.66444 0.58816 0.13968 0.0
H188 H 0.55936 0.53835 0.15119 0.0
C189 C 0.54643 0.55069 0.13226 0.0
O190 O 0.57878 0.58597 0.12345 0.0
H191 H 0.54104 0.52439 0.11799 0.0
C192 C 0.68369 0.58298 0.07447 0.0
C193 C 0.69372 0.58602 0.10175 0.0
C194 C 0.63979 0.58007 0.06387 0.0
C195 C 0.60475 0.58007 0.08066 0.0
C196 C 0.61317 0.58283 0.10799 0.0
C197 C 0.65772 0.58528 0.11863 0.0
H198 H 0.26138 0.51557 0.16583 0.0
H199 H 0.2902 0.63926 0.12472 0.0
H200 H 0.34003 0.51169 0.16293 0.0
H201 H 0.36904 0.63564 0.1221 0.0
H202 H 0.49568 0.59069 0.09687 0.0
H203 H 0.41826 0.59913 0.10073 0.0
H204 H 0.41564 0.54095 0.17915 0.0
H205 H 0.49246 0.53223 0.175 0.0
C206 C 0.28447 0.54215 0.15632 0.0
C207 C 0.26898 0.57774 0.14556 0.0
C208 C 0.32991 0.54004 0.15476 0.0
C209 C 0.3615 0.57336 0.14227 0.0
C210 C 0.34597 0.60904 0.1316 0.0
C211 C 0.30057 0.61125 0.13328 0.0
C212 C 0.47879 0.58051 0.11509 0.0
C213 C 0.50076 0.56152 0.13578 0.0
C214 C 0.43426 0.58526 0.11736 0.0
C215 C 0.41007 0.57059 0.14026 0.0
C216 C 0.43252 0.55216 0.16105 0.0
C217 C 0.47696 0.5476 0.15881 0.0
H218 H 0.80091 0.33491 0.47092 0.0
H219 H 0.90903 0.26818 0.48201 0.0
H220 H 0.85527 0.40041 0.45797 0.0
H221 H 0.96328 0.33384 0.46952 0.0
H222 H 0.0537 0.46992 0.46816 0.0
H223 H 0.99821 0.40706 0.48421 0.0
H224 H 0.90432 0.42751 0.42107 0.0
H225 H 0.95931 0.49063 0.40541 0.0
C226 C 0.83617 0.33404 0.47051 0.0
C227 C 0.85035 0.29598 0.4775 0.0
C228 C 0.8674 0.37171 0.46315 0.0
C229 C 0.91371 0.37247 0.46271 0.0
C230 C 0.92799 0.33464 0.47002 0.0
C231 C 0.89677 0.29692 0.47723 0.0
C232 C 1.021 0.46127 0.45792 0.0
C233 C 1.01105 0.4852 0.43542 0.0
C234 C 0.98935 0.42501 0.46696 0.0
C235 C 0.94682 0.41208 0.45387 0.0
C236 C 0.93655 0.43667 0.43176 0.0
C237 C 0.96827 0.47265 0.42262 0.0
H238 H 0.50907 0.78713 0.8275 0.0
H239 H 0.61324 0.88536 0.86364 0.0
H240 H 0.46325 0.83885 0.81796 0.0
H241 H 0.56593 0.93714 0.85555 0.0
H242 H 0.50844 1.02125 0.79108 0.0
H243 H 0.54701 0.97436 0.81725 0.0
H244 H 0.41916 0.88516 0.83001 0.0
H245 H 0.38103 0.93061 0.80201 0.0
C246 C 0.52183 0.81975 0.83384 0.0
C247 C 0.56528 0.83246 0.84565 0.0
C248 C 0.49513 0.84938 0.82879 0.0
C249 C 0.51095 0.8925 0.83572 0.0
C250 C 0.55302 0.90441 0.84948 0.0
C251 C 0.57999 0.87468 0.85434 0.0
C252 C 0.48849 0.99176 0.79964 0.0
C253 C 0.44186 0.97903 0.7937 0.0
C254 C 0.51057 0.96509 0.81506 0.0
C255 C 0.48639 0.92534 0.8253 0.0
C256 C 0.43904 0.91495 0.82179 0.0
C257 C 0.41702 0.94134 0.80599 0.0
H258 H 0.99045 0.65673 0.12071 0.0
H259 H 0.95342 0.52337 0.14645 0.0
H260 H 0.91121 0.65898 0.11652 0.0
H261 H 0.87365 0.52485 0.1411 0.0
H262 H 0.72972 0.54463 0.14399 0.0
H263 H 0.80968 0.54669 0.15476 0.0
H264 H 0.84713 0.63872 0.09025 0.0
H265 H 0.76849 0.63822 0.0807 0.0
C266 C 0.96538 0.62766 0.12527 0.0
C267 C 0.97876 0.5898 0.13372 0.0
C268 C 0.91951 0.62882 0.12272 0.0
C269 C 0.88508 0.59196 0.12813 0.0
C270 C 0.8986 0.55418 0.13699 0.0
C271 C 0.94464 0.55319 0.13986 0.0
C272 C 0.7552 0.56599 0.13256 0.0
C273 C 0.74227 0.59096 0.11131 0.0
C274 C 0.80124 0.56676 0.13845 0.0
C275 C 0.83573 0.59264 0.12333 0.0
C276 C 0.82243 0.61869 0.10275 0.0
C277 C 0.77681 0.61806 0.09702 0.0
H278 H 0.3406 0.87959 0.45537 0.0
H279 H 0.281 0.87432 0.53113 0.0
H280 H 0.28789 0.81258 0.44405 0.0
H281 H 0.22691 0.80843 0.51931 0.0
H282 H 0.16056 0.67007 0.50071 0.0
H283 H 0.21956 0.73343 0.51214 0.0
H284 H 0.20989 0.78496 0.4325 0.0
H285 H 0.15189 0.72103 0.42114 0.0
C286 C 0.31635 0.86415 0.46968 0.0
C287 C 0.3152 0.8826 0.4942 0.0
C288 C 0.2857 0.82587 0.46304 0.0
C289 C 0.25293 0.80491 0.48071 0.0
C290 C 0.25194 0.82324 0.50529 0.0
C291 C 0.28263 0.86149 0.51194 0.0
C292 C 0.17144 0.6949 0.48569 0.0
C293 C 0.15126 0.69106 0.46018 0.0
C294 C 0.20496 0.73136 0.49223 0.0
C295 C 0.21925 0.76475 0.47336 0.0
C296 C 0.20009 0.75992 0.44754 0.0
C297 C 0.16666 0.72342 0.44102 0.0
H298 H 0.51918 0.28311 0.74497 0.0
H299 H 0.46118 0.30339 0.8179 0.0
H300 H 0.46386 0.215 0.74048 0.0
H301 H 0.40658 0.23489 0.81359 0.0
H302 H 0.3496 0.08878 0.81035 0.0
H303 H 0.40624 0.15642 0.81451 0.0
H304 H 0.38013 0.1894 0.73274 0.0
H305 H 0.32338 0.12155 0.72874 0.0
C306 C 0.4945 0.27324 0.75995 0.0
C307 C 0.49463 0.29881 0.78179 0.0
C308 C 0.4629 0.23417 0.75739 0.0
C309 C 0.43098 0.21966 0.77669 0.0
C310 C 0.43121 0.24501 0.79859 0.0
C311 C 0.46257 0.28421 0.80107 0.0
C312 C 0.35586 0.11073 0.79339 0.0
C313 C 0.33178 0.1006 0.76936 0.0
C314 C 0.38814 0.14936 0.79574 0.0
C315 C 0.39733 0.17829 0.774 0.0
C316 C 0.37385 0.16763 0.74979 0.0
C317 C 0.34126 0.12913 0.74752 0.0
H318 H 0.65976 0.95263 0.50768 0.0
H319 H 0.51679 0.92051 0.51883 0.0
H320 H 0.66041 0.87631 0.50957 0.0
H321 H 0.51727 0.84407 0.52136 0.0
H322 H 0.66103 0.73521 0.53547 0.0
H323 H 0.66056 0.81116 0.52954 0.0
H324 H 0.51869 0.77669 0.50742 0.0
H325 H 0.5196 0.7003 0.51406 0.0
C326 C 0.62818 0.92952 0.51065 0.0
C327 C 0.58827 0.94449 0.5131 0.0
C328 C 0.6285 0.88473 0.51194 0.0
C329 C 0.5889 0.85162 0.51579 0.0
C330 C 0.54891 0.86681 0.51807 0.0
C331 C 0.54862 0.91163 0.51677 0.0
C332 C 0.62986 0.7435 0.52844 0.0
C333 C 0.59083 0.70999 0.52432 0.0
C334 C 0.6294 0.78803 0.52515 0.0
C335 C 0.58957 0.80249 0.51785 0.0
C336 C 0.55049 0.76876 0.51327 0.0
C337 C 0.55107 0.72402 0.51655 0.0
H338 H 0.78885 0.52153 0.81954 0.0
H339 H 0.81567 0.65896 0.82737 0.0
H340 H 0.86975 0.52449 0.82449 0.0
H341 H 0.89619 0.66229 0.83123 0.0
H342 H 1.02882 0.64824 0.87221 0.0
H343 H 0.95027 0.64711 0.86137 0.0
H344 H 0.94395 0.54423 0.80802 0.0
H345 H 1.02314 0.54436 0.82003 0.0
C346 C 0.81197 0.55249 0.82198 0.0
C347 C 0.79533 0.58992 0.82334 0.0
C348 C 0.85864 0.55427 0.82465 0.0
C349 C 0.89021 0.59361 0.82857 0.0
C350 C 0.87339 0.63115 0.82895 0.0
C351 C 0.82688 0.62929 0.82657 0.0
C352 C 1.0109 0.62553 0.85797 0.0
C353 C 1.0325 0.59617 0.84719 0.0
C354 C 0.96557 0.62508 0.85151 0.0
C355 C 0.93991 0.59547 0.83377 0.0
C356 C 0.96205 0.56715 0.82206 0.0
C357 C 1.00777 0.56758 0.82863 0.0
H358 H 0.37114 0.8024 0.16601 0.0
H359 H 0.30305 0.89742 0.13149 0.0
H360 H 0.43627 0.85952 0.17817 0.0
H361 H 0.36831 0.9542 0.14327 0.0
H362 H 0.50858 1.04213 0.14501 0.0
H363 H 0.44723 0.98211 0.13177 0.0
H364 H 0.45696 0.92037 0.20853 0.0
H365 H 0.51874 0.98056 0.22163 0.0
C366 C 0.36989 0.83541 0.16111 0.0
C367 C 0.33171 0.84516 0.14769 0.0
C368 C 0.4073 0.86815 0.16805 0.0
C369 C 0.4076 0.91142 0.16159 0.0
C370 C 0.36955 0.92116 0.14812 0.0
C371 C 0.3321 0.88852 0.14132 0.0
C372 C 0.49802 1.0154 0.15889 0.0
C373 C 0.51883 1.01561 0.1842 0.0
C374 C 0.46264 0.98121 0.15141 0.0
C375 C 0.44707 0.94648 0.16911 0.0
C376 C 0.46848 0.94635 0.19431 0.0
C377 C 0.50379 0.98073 0.20183 0.0
H378 H 0.50583 0.22306 0.50572 0.0
H379 H 0.6502 0.25434 0.51825 0.0
H380 H 0.50526 0.29939 0.50715 0.0
H381 H 0.6497 0.33089 0.52002 0.0
H382 H 0.62617 0.46663 0.54581 0.0
H383 H 0.63227 0.39129 0.54295 0.0
H384 H 0.52063 0.36899 0.48597 0.0
H385 H 0.51521 0.44352 0.48863 0.0
C386 C 0.53774 0.24594 0.50879 0.0
C387 C 0.57804 0.23085 0.51175 0.0
C388 C 0.5375 0.29061 0.5095 0.0
C389 C 0.57747 0.32326 0.51366 0.0
C390 C 0.61778 0.30806 0.51694 0.0
C391 C 0.61809 0.26339 0.51578 0.0
C392 C 0.60384 0.44622 0.53197 0.0
C393 C 0.57112 0.46321 0.51681 0.0
C394 C 0.60698 0.40217 0.53047 0.0
C395 C 0.57671 0.37208 0.51432 0.0
C396 C 0.54456 0.38949 0.49902 0.0
C397 C 0.54192 0.43334 0.50023 0.0
H398 H 0.50831 0.63048 0.85121 0.0
H399 H 0.47867 0.52762 0.7963 0.0
H400 H 0.42789 0.62789 0.85316 0.0
H401 H 0.39815 0.52448 0.79858 0.0
H402 H 0.25838 0.55287 0.78916 0.0
H403 H 0.33971 0.561 0.78619 0.0
H404 H 0.35804 0.58608 0.8693 0.0
H405 H 0.27648 0.57857 0.87197 0.0
C406 C 0.48471 0.60717 0.83956 0.0
C407 C 0.50042 0.57926 0.82357 0.0
C408 C 0.4383 0.60552 0.8408 0.0
C409 C 0.4059 0.57599 0.82604 0.0
C410 C 0.42173 0.54817 0.80998 0.0
C411 C 0.46814 0.54976 0.80879 0.0
C412 C 0.27986 0.56073 0.80672 0.0
C413 C 0.26082 0.56525 0.8308 0.0
C414 C 0.32663 0.56493 0.80511 0.0
C415 C 0.35601 0.57381 0.82754 0.0
C416 C 0.33695 0.57962 0.85149 0.0
C417 C 0.29008 0.57532 0.85308 0.0
H418 H 0.9473 0.27686 0.19033 0.0
H419 H 0.86595 0.37114 0.18015 0.0
H420 H 0.88028 0.22156 0.20037 0.0
H421 H 0.7989 0.31567 0.19071 0.0
H422 H 0.70429 0.21459 0.24341 0.0
H423 H 0.76847 0.2708 0.22954 0.0
H424 H 0.80864 0.18135 0.1798 0.0
H425 H 0.74492 0.12483 0.19414 0.0
C426 C 0.91508 0.28577 0.18987 0.0
C427 C 0.91219 0.3286 0.18436 0.0
C428 C 0.87661 0.25398 0.19568 0.0
C429 C 0.83423 0.26417 0.19631 0.0
C430 C 0.83116 0.30688 0.19068 0.0
C431 C 0.86964 0.33869 0.18469 0.0
C432 C 0.72687 0.20692 0.22954 0.0
C433 C 0.71973 0.16516 0.22004 0.0
C434 C 0.76338 0.23924 0.22139 0.0
C435 C 0.79378 0.23052 0.20364 0.0
C436 C 0.78611 0.18897 0.19372 0.0
C437 C 0.7494 0.15671 0.20174 0.0
H438 H 0.07432 0.5991 0.06251 0.0
H439 H 0.18734 0.53878 0.0645 0.0
H440 H 0.0777 0.60838 0.01474 0.0
H441 H 0.19285 0.55026 0.01697 0.0
H442 H 0.15695 0.53054 0.92926 0.0
H443 H 0.15855 0.52509 0.9773 0.0
H444 H 0.11518 0.64459 0.97902 0.0
H445 H 0.11121 0.64822 0.93095 0.0
C446 C 0.10036 0.58846 0.0527 0.0
C447 C 0.13031 0.56791 0.0671 0.0
C448 C 0.10261 0.59404 0.02528 0.0
C449 C 0.13552 0.57998 0.01171 0.0
C450 C 0.16635 0.56062 0.02646 0.0
C451 C 0.16348 0.5543 0.05378 0.0
C452 C 0.14823 0.55573 0.94004 0.0
C453 C 0.13382 0.58967 0.92652 0.0
C454 C 0.14929 0.55283 0.96762 0.0
C455 C 0.13675 0.58429 0.98231 0.0
C456 C 0.124 0.61914 0.96856 0.0
C457 C 0.12212 0.62154 0.941 0.0
H458 H 0.63936 0.06659 0.44058 0.0
H459 H 0.51404 0.09932 0.41485 0.0
H460 H 0.66052 0.06833 0.39452 0.0
H461 H 0.53583 0.10398 0.3695 0.0
H462 H 0.55712 0.06598 0.28954 0.0
H463 H 0.54117 0.06061 0.33573 0.0
H464 H 0.68292 0.10877 0.35578 0.0
H465 H 0.69959 0.10984 0.30943 0.0
C466 C 0.6168 0.07486 0.42507 0.0
C467 C 0.57493 0.08236 0.43113 0.0
C468 C 0.62886 0.07603 0.39869 0.0
C469 C 0.59955 0.08551 0.37802 0.0
C470 C 0.55866 0.09495 0.38456 0.0
C471 C 0.54629 0.09278 0.41067 0.0
C472 C 0.58523 0.07446 0.30368 0.0
C473 C 0.62974 0.08847 0.29543 0.0
C474 C 0.57591 0.07225 0.33037 0.0
C475 C 0.61058 0.08512 0.34972 0.0
C476 C 0.65525 0.09844 0.34159 0.0
C477 C 0.66473 0.09976 0.31483 0.0
H478 H 0.59923 0.6742 0.74226 0.0
H479 H 0.65483 0.56175 0.74284 0.0
H480 H 0.59071 0.67352 0.69444 0.0
H481 H 0.64393 0.55922 0.69497 0.0
H482 H 0.66177 0.592 0.60698 0.0
H483 H 0.67033 0.59117 0.65502 0.0
H484 H 0.54987 0.6402 0.65864 0.0
H485 H 0.5431 0.64296 0.61067 0.0
C486 C 0.60908 0.64894 0.73213 0.0
C487 C 0.62774 0.61807 0.7463 0.0
C488 C 0.60387 0.64827 0.70462 0.0
C489 C 0.61641 0.61619 0.69052 0.0
C490 C 0.63457 0.58492 0.70489 0.0
C491 C 0.64048 0.58606 0.73242 0.0
C492 C 0.63716 0.60247 0.61816 0.0
C493 C 0.60194 0.61779 0.60511 0.0
C494 C 0.64183 0.60179 0.64575 0.0
C495 C 0.61093 0.61579 0.66103 0.0
C496 C 0.57508 0.63016 0.64777 0.0
C497 C 0.57092 0.63151 0.62022 0.0
H498 H 0.6169 1.04656 0.60646 0.0
H499 H 0.51569 0.10656 0.5688 0.0
H500 H 0.57561 1.03662 0.64731 0.0
H501 H 0.4746 0.09652 0.60933 0.0
H502 H 0.38982 1.02284 0.67711 0.0
H503 H 0.43125 1.03526 0.63662 0.0
H504 H 0.55527 0.08306 0.68169 0.0
H505 H 0.5138 0.07165 0.72222 0.0
C506 C 0.58587 0.05751 0.60692 0.0
C507 C 0.56939 0.07713 0.58449 0.0
C508 C 0.56239 1.05206 0.63028 0.0
C509 C 0.52187 0.06578 0.63147 0.0
C510 C 0.50544 0.08522 0.60893 0.0
C511 C 0.52907 0.09104 0.58576 0.0
C512 C 0.42575 1.03683 0.67839 0.0
C513 C 0.44845 1.04615 0.70296 0.0
C514 C 0.44952 1.04368 0.65519 0.0
C515 C 0.49655 0.05974 0.65604 0.0
C516 C 0.51916 0.06991 0.6805 0.0
C517 C 0.49536 0.06343 0.70368 0.0
H518 H 0.69602 0.59191 0.89941 0.0
H519 H 0.55811 0.51856 0.89897 0.0
H520 H 0.69497 0.60027 0.94659 0.0
H521 H 0.55586 0.52879 0.94624 0.0
H522 H 0.58644 0.51512 0.03596 0.0
H523 H 0.58128 0.50815 -0.01191 0.0
H524 H 0.66857 0.63503 0.97917 0.0
H525 H 0.6755 0.64036 0.02695 0.0
C526 C 0.66523 0.57796 0.90944 0.0
C527 C 0.62723 0.55441 0.89558 0.0
C528 C 0.66439 0.5831 0.93653 0.0
C529 C 0.62518 0.56552 0.95046 0.0
C530 C 0.5869 0.54229 0.9364 0.0
C531 C 0.58803 0.53658 0.90927 0.0
C532 C 0.60402 0.54153 0.02358 0.0
C533 C 0.63155 0.57812 0.03496 0.0
C534 C 0.60101 0.53772 -0.00386 0.0
C535 C 0.625 0.57078 0.97955 0.0
C536 C 0.65067 0.60831 -0.00883 0.0
C537 C 0.65432 0.61169 0.01854 0.0
H538 H 0.16463 0.55934 0.22333 0.0
H539 H 0.06752 0.63872 0.22221 0.0
H540 H 0.15559 0.54529 0.2709 0.0
H541 H 0.05835 0.62458 0.26937 0.0
H542 H 1.01833 0.55322 0.3475 0.0
H543 H 1.02762 0.56197 0.29996 0.0
H544 H 0.17238 0.58872 0.31285 0.0
H545 H 0.16308 0.57963 0.36052 0.0
C546 C 0.14133 0.57364 0.23323 0.0
C547 C 0.1169 0.60023 0.21913 0.0
C548 C 0.13629 0.56577 0.26042 0.0
C549 C 0.1062 0.5838 0.27384 0.0
C550 C 0.08143 0.60989 0.25956 0.0
C551 C 0.08689 0.61817 0.23257 0.0
C552 C 0.05212 0.56059 0.34018 0.0
C553 C 0.08998 0.56583 0.35775 0.0
C554 C 0.05745 0.56587 0.31298 0.0
C555 C 0.10073 0.57609 0.30268 0.0
C556 C 0.13861 0.58054 0.3202 0.0
C557 C 0.1333 0.57575 0.34747 0.0
loop_
_geom_bond_atom_site_label_1
_geom_bond_atom_site_label_2
_geom_bond_distance
_geom_bond_site_symmetry_2
_ccdc_geom_bond_type
Pr0 C2 2.880 . S
Pr0 O20 2.562 . S
Pr0 O21 2.490 . S
Pr0 O22 2.695 1_655 S
Pr0 O23 2.512 . S
Pr0 O25 2.437 . S
Pr0 O28 2.436 . S
Pr0 O30 2.438 1_655 S
Pr1 C11 2.880 . S
Pr1 O22 2.436 . S
Pr1 O24 2.438 1_455 S
Pr1 O26 2.562 . S
Pr1 O27 2.490 . S
Pr1 O28 2.695 1_455 S
Pr1 O29 2.512 . S
Pr1 O31 2.437 . S
C2 Pr0 2.880 . S
C2 C3 1.491 . S
C2 O20 1.254 . S
C2 O21 1.225 . S
C3 C2 1.491 . S
C3 C4 1.392 . S
C3 C8 1.356 . S
C4 C3 1.392 . S
C4 C5 1.368 . S
C4 H32 0.929 . S
C5 C4 1.368 . S
C5 C6 1.386 . S
C5 H33 0.929 . S
C6 C5 1.386 . S
C6 C7 1.373 . S
C7 C6 1.373 . S
C7 C8 1.409 . S
C7 H34 0.931 . S
C8 C3 1.356 . S
C8 C7 1.409 . S
C8 H35 0.930 . S
C9 O22 1.270 . S
C9 O23 1.248 1_455 S
C10 O24 1.267 . S
C10 O25 1.278 . S
C11 Pr1 2.880 . S
C11 C12 1.491 . S
C11 O26 1.254 . S
C11 O27 1.225 . S
C12 C11 1.491 . S
C12 C13 1.392 . S
C12 C17 1.356 . S
C13 C12 1.392 . S
C13 C14 1.368 . S
C13 H36 0.929 . S
C14 C13 1.368 . S
C14 C15 1.386 . S
C14 H37 0.929 . S
C15 C14 1.386 . S
C15 C16 1.373 . S
C16 C15 1.373 . S
C16 C17 1.409 . S
C16 H38 0.931 . S
C17 C12 1.356 . S
C17 C16 1.409 . S
C17 H39 0.930 . S
C18 O28 1.270 1_455 S
C18 O29 1.248 . S
C19 O30 1.267 . S
C19 O31 1.278 . S
O20 Pr0 2.562 . S
O20 C2 1.254 . S
O21 Pr0 2.490 . S
O21 C2 1.225 . S
O22 Pr0 2.695 1_455 S
O22 Pr1 2.436 . S
O22 C9 1.270 . S
O23 Pr0 2.512 . S
O23 C9 1.248 1_655 S
O24 Pr1 2.438 1_655 S
O24 C10 1.267 . S
O25 Pr0 2.437 . S
O25 C10 1.278 . S
O26 Pr1 2.562 . S
O26 C11 1.254 . S
O27 Pr1 2.490 . S
O27 C11 1.225 . S
O28 Pr0 2.436 . S
O28 Pr1 2.695 1_655 S
O28 C18 1.270 1_655 S
O29 Pr1 2.512 . S
O29 C18 1.248 . S
O30 Pr0 2.438 1_455 S
O30 C19 1.267 . S
O31 Pr1 2.437 . S
O31 C19 1.278 . S
H32 C4 0.929 . S
H33 C5 0.929 . S
H34 C7 0.931 . S
H35 C8 0.930 . S
H36 C13 0.929 . S
H37 C14 0.929 . S
H38 C16 0.931 . S
H39 C17 0.930 . S
Pr40 C42 2.880 . S
Pr40 O60 2.562 . S
Pr40 O61 2.490 . S
Pr40 O62 2.695 . S
Pr40 O63 2.512 . S
Pr40 O65 2.437 . S
Pr40 O68 2.436 . S
Pr40 O70 2.438 1_545 S
Pr41 C51 2.880 . S
Pr41 O62 2.436 1_565 S
Pr41 O64 2.438 1_565 S
Pr41 O66 2.562 . S
Pr41 O67 2.490 . S
Pr41 O68 2.695 1_565 S
Pr41 O69 2.511 . S
Pr41 O71 2.437 . S
C42 Pr40 2.880 . S
C42 C43 1.491 . S
C42 O60 1.254 . S
C42 O61 1.225 . S
C43 C42 1.491 . S
C43 C44 1.392 . S
C43 C48 1.356 . S
C44 C43 1.392 . S
C44 C45 1.368 . S
C44 H72 0.929 . S
C45 C44 1.368 . S
C45 C46 1.386 . S
C45 H73 0.929 . S
C46 C45 1.386 . S
C46 C47 1.373 . S
C47 C46 1.373 . S
C47 C48 1.409 . S
C47 H74 0.931 . S
C48 C43 1.356 . S
C48 C47 1.409 . S
C48 H75 0.930 . S
C49 O62 1.270 . S
C49 O63 1.248 . S
C50 O64 1.267 . S
C50 O65 1.278 . S
C51 Pr41 2.880 . S
C51 C52 1.491 . S
C51 O66 1.254 . S
C51 O67 1.225 . S
C52 C51 1.491 . S
C52 C53 1.392 . S
C52 C57 1.356 . S
C53 C52 1.392 . S
C53 C54 1.368 . S
C53 H76 0.929 . S
C54 C53 1.368 . S
C54 C55 1.386 . S
C54 H77 0.929 . S
C55 C54 1.386 . S
C55 C56 1.373 . S
C56 C55 1.373 . S
C56 C57 1.409 . S
C56 H78 0.931 . S
C57 C52 1.356 . S
C57 C56 1.409 . S
C57 H79 0.930 . S
C58 O68 1.270 . S
C58 O69 1.244 1_545 S
C59 O70 1.267 . S
C59 O71 1.278 . S
O60 Pr40 2.562 . S
O60 C42 1.254 . S
O61 Pr40 2.490 . S
O61 C42 1.225 . S
O62 Pr40 2.695 . S
O62 Pr41 2.436 1_545 S
O62 C49 1.270 . S
O63 Pr40 2.512 . S
O63 C49 1.248 . S
O64 Pr41 2.438 1_545 S
O64 C50 1.267 . S
O65 Pr40 2.437 . S
O65 C50 1.278 . S
O66 Pr41 2.562 . S
O66 C51 1.254 . S
O67 Pr41 2.490 . S
O67 C51 1.225 . S
O68 Pr40 2.436 . S
O68 Pr41 2.695 1_545 S
O68 C58 1.270 . S
O69 Pr41 2.511 . S
O69 C58 1.244 1_565 S
O70 Pr40 2.438 1_565 S
O70 C59 1.267 . S
O71 Pr41 2.437 . S
O71 C59 1.278 . S
H72 C44 0.929 . S
H73 C45 0.929 . S
H74 C47 0.931 . S
H75 C48 0.930 . S
H76 C53 0.929 . S
H77 C54 0.929 . S
H78 C56 0.931 . S
H79 C57 0.930 . S
Pr80 C82 2.880 . S
Pr80 O100 2.562 . S
Pr80 O101 2.490 . S
Pr80 O102 2.695 . S
Pr80 O103 2.512 . S
Pr80 O105 2.437 . S
Pr80 O108 2.436 . S
Pr80 O110 2.438 . S
Pr81 C91 2.880 . S
Pr81 O102 2.436 . S
Pr81 O104 2.438 . S
Pr81 O106 2.562 . S
Pr81 O107 2.490 . S
Pr81 O108 2.695 . S
Pr81 O109 2.512 . S
Pr81 O111 2.437 . S
C82 Pr80 2.880 . S
C82 C83 1.491 . S
C82 O100 1.254 . S
C82 O101 1.225 . S
C83 C82 1.491 . S
C83 C84 1.392 . S
C83 C88 1.356 . S
C84 C83 1.392 . S
C84 C85 1.368 . S
C84 H112 0.929 . S
C85 C84 1.368 . S
C85 C86 1.386 . S
C85 H113 0.929 . S
C86 C85 1.386 . S
C86 C87 1.373 . S
C87 C86 1.373 . S
C87 C88 1.409 . S
C87 H114 0.931 . S
C88 C83 1.356 . S
C88 C87 1.409 . S
C88 H115 0.930 . S
C89 O102 1.270 . S
C89 O103 1.248 . S
C90 O104 1.267 . S
C90 O105 1.278 . S
C91 Pr81 2.880 . S
C91 C92 1.491 . S
C91 O106 1.254 . S
C91 O107 1.225 . S
C92 C91 1.491 . S
C92 C93 1.392 . S
C92 C97 1.356 . S
C93 C92 1.392 . S
C93 C94 1.368 . S
C93 H116 0.929 . S
C94 C93 1.368 . S
C94 C95 1.386 . S
C94 H117 0.929 . S
C95 C94 1.386 . S
C95 C96 1.373 . S
C96 C95 1.373 . S
C96 C97 1.409 . S
C96 H118 0.931 . S
C97 C92 1.356 . S
C97 C96 1.409 . S
C97 H119 0.930 . S
C98 O108 1.270 . S
C98 O109 1.248 . S
C99 O110 1.267 . S
C99 O111 1.278 . S
O100 Pr80 2.562 . S
O100 C82 1.254 . S
O101 Pr80 2.490 . S
O101 C82 1.225 . S
O102 Pr80 2.695 . S
O102 Pr81 2.436 . S
O102 C89 1.270 . S
O103 Pr80 2.512 . S
O103 C89 1.248 . S
O104 Pr81 2.438 . S
O104 C90 1.267 . S
O105 Pr80 2.437 . S
O105 C90 1.278 . S
O106 Pr81 2.562 . S
O106 C91 1.254 . S
O107 Pr81 2.490 . S
O107 C91 1.225 . S
O108 Pr80 2.436 . S
O108 Pr81 2.695 . S
O108 C98 1.270 . S
O109 Pr81 2.512 . S
O109 C98 1.248 . S
O110 Pr80 2.438 . S
O110 C99 1.267 . S
O111 Pr81 2.437 . S
O111 C99 1.278 . S
H112 C84 0.929 . S
H113 C85 0.929 . S
H114 C87 0.931 . S
H115 C88 0.930 . S
H116 C93 0.929 . S
H117 C94 0.929 . S
H118 C96 0.931 . S
H119 C97 0.930 . S
H120 C127 0.929 . S
H121 C130 0.930 1_565 S
H122 C132 0.929 . S
H123 C124 0.969 . S
C124 H123 0.969 . S
C124 O125 1.550 . S
C124 H126 0.973 . S
O125 C124 1.550 . S
O125 C131 1.412 1_565 S
H126 C124 0.973 . S
C127 H120 0.929 . S
C127 C128 1.400 . S
C127 C129 1.364 . S
C128 C127 1.400 . S
C128 C132 1.377 . S
C129 C127 1.364 . S
C129 C130 1.374 . S
C130 H121 0.930 1_545 S
C130 C129 1.374 . S
C130 C131 1.383 . S
C131 O125 1.412 1_545 S
C131 C130 1.383 . S
C131 C132 1.394 . S
C132 H122 0.929 . S
C132 C128 1.377 . S
C132 C131 1.394 . S
H133 C140 0.929 . S
H134 C143 0.930 . S
H135 C145 0.929 . S
H136 C137 0.969 . S
C137 H136 0.969 . S
C137 O138 1.550 . S
C137 H139 0.973 . S
O138 C137 1.550 . S
O138 C144 1.412 . S
H139 C137 0.973 . S
C140 H133 0.929 . S
C140 C141 1.400 . S
C140 C142 1.364 . S
C141 C140 1.400 . S
C141 C145 1.377 . S
C142 C140 1.364 . S
C142 C143 1.374 . S
C143 H134 0.930 . S
C143 C142 1.374 . S
C143 C144 1.383 . S
C144 O138 1.412 . S
C144 C143 1.383 . S
C144 C145 1.394 . S
C145 H135 0.929 . S
C145 C141 1.377 . S
C145 C144 1.394 . S
H146 C153 0.929 1_655 S
H147 C156 0.930 . S
H148 C158 0.929 . S
H149 C150 0.969 . S
C150 H149 0.969 . S
C150 O151 1.550 . S
C150 H152 0.973 . S
O151 C150 1.550 . S
O151 C157 1.412 . S
H152 C150 0.973 . S
C153 H146 0.929 1_455 S
C153 C154 1.400 . S
C153 C155 1.364 . S
C154 C153 1.400 . S
C154 C158 1.377 . S
C155 C153 1.364 . S
C155 C156 1.374 . S
C156 H147 0.930 . S
C156 C155 1.374 . S
C156 C157 1.383 . S
C157 O151 1.412 . S
C157 C156 1.383 . S
C157 C158 1.394 . S
C158 H148 0.929 . S
C158 C154 1.377 . S
C158 C157 1.394 . S
H159 C166 0.929 1_655 S
H160 C169 0.930 . S
H161 C171 0.929 . S
H162 C163 0.969 . S
C163 H162 0.969 . S
C163 O164 1.550 . S
C163 H165 0.973 . S
O164 C163 1.550 . S
O164 C170 1.412 . S
H165 C163 0.973 . S
C166 H159 0.929 1_455 S
C166 C167 1.400 . S
C166 C168 1.364 . S
C167 C166 1.400 . S
C167 C171 1.377 . S
C168 C166 1.364 . S
C168 C169 1.374 . S
C169 H160 0.930 . S
C169 C168 1.374 . S
C169 C170 1.383 . S
C170 O164 1.412 . S
C170 C169 1.383 . S
C170 C171 1.394 . S
C171 H161 0.929 . S
C171 C167 1.377 . S
C171 C170 1.394 . S
H172 C179 0.929 . S
H173 C182 0.930 . S
H174 C184 0.929 . S
H175 C176 0.969 . S
C176 H175 0.969 . S
C176 O177 1.550 . S
C176 H178 0.973 . S
O177 C176 1.550 . S
O177 C183 1.412 . S
H178 C176 0.973 . S
C179 H172 0.929 . S
C179 C180 1.400 . S
C179 C181 1.364 1_565 S
C180 C179 1.400 . S
C180 C184 1.377 . S
C181 C179 1.364 1_545 S
C181 C182 1.374 . S
C182 H173 0.930 . S
C182 C181 1.374 . S
C182 C183 1.383 . S
C183 O177 1.412 . S
C183 C182 1.383 . S
C183 C184 1.394 1_545 S
C184 H174 0.929 . S
C184 C180 1.377 . S
C184 C183 1.394 1_565 S
H185 C192 0.929 . S
H186 C195 0.930 . S
H187 C197 0.929 . S
H188 C189 0.969 . S
C189 H188 0.969 . S
C189 O190 1.550 . S
C189 H191 0.973 . S
O190 C189 1.550 . S
O190 C196 1.412 . S
H191 C189 0.973 . S
C192 H185 0.929 . S
C192 C193 1.400 . S
C192 C194 1.364 . S
C193 C192 1.400 . S
C193 C197 1.377 . S
C194 C192 1.364 . S
C194 C195 1.374 . S
C195 H186 0.930 . S
C195 C194 1.374 . S
C195 C196 1.383 . S
C196 O190 1.412 . S
C196 C195 1.383 . S
C196 C197 1.394 . S
C197 H187 0.929 . S
C197 C193 1.377 . S
C197 C196 1.394 . S
H198 C206 0.950 . S
H199 C211 0.950 . S
H200 C208 0.950 . S
H201 C210 0.950 . S
H202 C212 0.950 . S
H203 C214 0.950 . S
H204 C216 0.950 . S
H205 C217 0.950 . S
C206 H198 0.950 . S
C206 C207 1.386 . S
C206 C208 1.391 . S
C207 C206 1.386 . S
C207 C211 1.393 . S
C208 H200 0.950 . S
C208 C206 1.391 . S
C208 C209 1.400 . S
C209 C208 1.400 . S
C209 C210 1.398 . S
C209 C215 1.491 . S
C210 H201 0.950 . S
C210 C209 1.398 . S
C210 C211 1.391 . S
C211 H199 0.950 . S
C211 C207 1.393 . S
C211 C210 1.391 . S
C212 H202 0.950 . S
C212 C213 1.386 . S
C212 C214 1.391 . S
C213 C212 1.386 . S
C213 C217 1.393 . S
C214 H203 0.950 . S
C214 C212 1.391 . S
C214 C215 1.400 . S
C215 C209 1.491 . S
C215 C214 1.400 . S
C215 C216 1.398 . S
C216 H204 0.950 . S
C216 C215 1.398 . S
C216 C217 1.391 . S
C217 H205 0.950 . S
C217 C213 1.393 . S
C217 C216 1.391 . S
H218 C226 0.950 . S
H219 C231 0.950 . S
H220 C228 0.950 . S
H221 C230 0.950 . S
H222 C232 0.950 . S
H223 C234 0.950 . S
H224 C236 0.950 . S
H225 C237 0.950 . S
C226 H218 0.950 . S
C226 C227 1.386 . S
C226 C228 1.391 . S
C227 C226 1.386 . S
C227 C231 1.393 . S
C228 H220 0.950 . S
C228 C226 1.391 . S
C228 C229 1.400 . S
C229 C228 1.400 . S
C229 C230 1.398 . S
C229 C235 1.491 . S
C230 H221 0.950 . S
C230 C229 1.398 . S
C230 C231 1.391 . S
C231 H219 0.950 . S
C231 C227 1.393 . S
C231 C230 1.391 . S
C232 H222 0.950 . S
C232 C233 1.386 1_455 S
C232 C234 1.391 1_455 S
C233 C232 1.386 1_655 S
C233 C237 1.393 . S
C234 H223 0.950 . S
C234 C232 1.391 1_655 S
C234 C235 1.400 . S
C235 C229 1.491 . S
C235 C234 1.400 . S
C235 C236 1.398 . S
C236 H224 0.950 . S
C236 C235 1.398 . S
C236 C237 1.391 . S
C237 H225 0.950 . S
C237 C233 1.393 . S
C237 C236 1.391 . S
H238 C246 0.950 . S
H239 C251 0.950 . S
H240 C248 0.950 . S
H241 C250 0.950 . S
H242 C252 0.950 . S
H243 C254 0.950 . S
H244 C256 0.950 . S
H245 C257 0.950 . S
C246 H238 0.950 . S
C246 C247 1.386 . S
C246 C248 1.391 . S
C247 C246 1.386 . S
C247 C251 1.393 . S
C248 H240 0.950 . S
C248 C246 1.391 . S
C248 C249 1.400 . S
C249 C248 1.400 . S
C249 C250 1.398 . S
C249 C255 1.491 . S
C250 H241 0.950 . S
C250 C249 1.398 . S
C250 C251 1.391 . S
C251 H239 0.950 . S
C251 C247 1.393 . S
C251 C250 1.391 . S
C252 H242 0.950 . S
C252 C253 1.386 . S
C252 C254 1.391 . S
C253 C252 1.386 . S
C253 C257 1.393 . S
C254 H243 0.950 . S
C254 C252 1.391 . S
C254 C255 1.400 . S
C255 C249 1.491 . S
C255 C254 1.400 . S
C255 C256 1.398 . S
C256 H244 0.950 . S
C256 C255 1.398 . S
C256 C257 1.391 . S
C257 H245 0.950 . S
C257 C253 1.393 . S
C257 C256 1.391 . S
H258 C266 0.950 . S
H259 C271 0.950 . S
H260 C268 0.950 . S
H261 C270 0.950 . S
H262 C272 0.950 . S
H263 C274 0.950 . S
H264 C276 0.950 . S
H265 C277 0.950 . S
C266 H258 0.950 . S
C266 C267 1.386 . S
C266 C268 1.391 . S
C267 C266 1.386 . S
C267 C271 1.393 . S
C268 H260 0.950 . S
C268 C266 1.391 . S
C268 C269 1.400 . S
C269 C268 1.400 . S
C269 C270 1.398 . S
C269 C275 1.491 . S
C270 H261 0.950 . S
C270 C269 1.398 . S
C270 C271 1.391 . S
C271 H259 0.950 . S
C271 C267 1.393 . S
C271 C270 1.391 . S
C272 H262 0.950 . S
C272 C273 1.386 . S
C272 C274 1.391 . S
C273 C272 1.386 . S
C273 C277 1.393 . S
C274 H263 0.950 . S
C274 C272 1.391 . S
C274 C275 1.400 . S
C275 C269 1.491 . S
C275 C274 1.400 . S
C275 C276 1.398 . S
C276 H264 0.950 . S
C276 C275 1.398 . S
C276 C277 1.391 . S
C277 H265 0.950 . S
C277 C273 1.393 . S
C277 C276 1.391 . S
H278 C286 0.950 . S
H279 C291 0.950 . S
H280 C288 0.950 . S
H281 C290 0.950 . S
H282 C292 0.950 . S
H283 C294 0.950 . S
H284 C296 0.950 . S
H285 C297 0.950 . S
C286 H278 0.950 . S
C286 C287 1.386 . S
C286 C288 1.391 . S
C287 C286 1.386 . S
C287 C291 1.393 . S
C288 H280 0.950 . S
C288 C286 1.391 . S
C288 C289 1.400 . S
C289 C288 1.400 . S
C289 C290 1.398 . S
C289 C295 1.491 . S
C290 H281 0.950 . S
C290 C289 1.398 . S
C290 C291 1.391 . S
C291 H279 0.950 . S
C291 C287 1.393 . S
C291 C290 1.391 . S
C292 H282 0.950 . S
C292 C293 1.386 . S
C292 C294 1.391 . S
C293 C292 1.386 . S
C293 C297 1.393 . S
C294 H283 0.950 . S
C294 C292 1.391 . S
C294 C295 1.400 . S
C295 C289 1.491 . S
C295 C294 1.400 . S
C295 C296 1.398 . S
C296 H284 0.950 . S
C296 C295 1.398 . S
C296 C297 1.391 . S
C297 H285 0.950 . S
C297 C293 1.393 . S
C297 C296 1.391 . S
H298 C306 0.950 . S
H299 C311 0.950 . S
H300 C308 0.950 . S
H301 C310 0.950 . S
H302 C312 0.950 . S
H303 C314 0.950 . S
H304 C316 0.950 . S
H305 C317 0.950 . S
C306 H298 0.950 . S
C306 C307 1.386 . S
C306 C308 1.391 . S
C307 C306 1.386 . S
C307 C311 1.393 . S
C308 H300 0.950 . S
C308 C306 1.391 . S
C308 C309 1.400 . S
C309 C308 1.400 . S
C309 C310 1.398 . S
C309 C315 1.491 . S
C310 H301 0.950 . S
C310 C309 1.398 . S
C310 C311 1.391 . S
C311 H299 0.950 . S
C311 C307 1.393 . S
C311 C310 1.391 . S
C312 H302 0.950 . S
C312 C313 1.386 . S
C312 C314 1.391 . S
C313 C312 1.386 . S
C313 C317 1.393 . S
C314 H303 0.950 . S
C314 C312 1.391 . S
C314 C315 1.400 . S
C315 C309 1.491 . S
C315 C314 1.400 . S
C315 C316 1.398 . S
C316 H304 0.950 . S
C316 C315 1.398 . S
C316 C317 1.391 . S
C317 H305 0.950 . S
C317 C313 1.393 . S
C317 C316 1.391 . S
H318 C326 0.950 . S
H319 C331 0.950 . S
H320 C328 0.950 . S
H321 C330 0.950 . S
H322 C332 0.950 . S
H323 C334 0.950 . S
H324 C336 0.950 . S
H325 C337 0.950 . S
C326 H318 0.950 . S
C326 C327 1.386 . S
C326 C328 1.391 . S
C327 C326 1.386 . S
C327 C331 1.393 . S
C328 H320 0.950 . S
C328 C326 1.391 . S
C328 C329 1.400 . S
C329 C328 1.400 . S
C329 C330 1.398 . S
C329 C335 1.491 . S
C330 H321 0.950 . S
C330 C329 1.398 . S
C330 C331 1.391 . S
C331 H319 0.950 . S
C331 C327 1.393 . S
C331 C330 1.391 . S
C332 H322 0.950 . S
C332 C333 1.386 . S
C332 C334 1.391 . S
C333 C332 1.386 . S
C333 C337 1.393 . S
C334 H323 0.950 . S
C334 C332 1.391 . S
C334 C335 1.400 . S
C335 C329 1.491 . S
C335 C334 1.400 . S
C335 C336 1.398 . S
C336 H324 0.950 . S
C336 C335 1.398 . S
C336 C337 1.391 . S
C337 H325 0.950 . S
C337 C333 1.393 . S
C337 C336 1.391 . S
H338 C346 0.950 . S
H339 C351 0.950 . S
H340 C348 0.950 . S
H341 C350 0.950 . S
H342 C352 0.950 . S
H343 C354 0.950 . S
H344 C356 0.950 . S
H345 C357 0.950 . S
C346 H338 0.950 . S
C346 C347 1.386 . S
C346 C348 1.391 . S
C347 C346 1.386 . S
C347 C351 1.393 . S
C348 H340 0.950 . S
C348 C346 1.391 . S
C348 C349 1.400 . S
C349 C348 1.400 . S
C349 C350 1.398 . S
C349 C355 1.491 . S
C350 H341 0.950 . S
C350 C349 1.398 . S
C350 C351 1.391 . S
C351 H339 0.950 . S
C351 C347 1.393 . S
C351 C350 1.391 . S
C352 H342 0.950 . S
C352 C353 1.386 . S
C352 C354 1.391 . S
C353 C352 1.386 . S
C353 C357 1.393 . S
C354 H343 0.950 . S
C354 C352 1.391 . S
C354 C355 1.400 . S
C355 C349 1.491 . S
C355 C354 1.400 . S
C355 C356 1.398 . S
C356 H344 0.950 . S
C356 C355 1.398 . S
C356 C357 1.391 . S
C357 H345 0.950 . S
C357 C353 1.393 . S
C357 C356 1.391 . S
H358 C366 0.950 . S
H359 C371 0.950 . S
H360 C368 0.950 . S
H361 C370 0.950 . S
H362 C372 0.950 . S
H363 C374 0.950 . S
H364 C376 0.950 . S
H365 C377 0.950 . S
C366 H358 0.950 . S
C366 C367 1.386 . S
C366 C368 1.391 . S
C367 C366 1.386 . S
C367 C371 1.393 . S
C368 H360 0.950 . S
C368 C366 1.391 . S
C368 C369 1.400 . S
C369 C368 1.400 . S
C369 C370 1.398 . S
C369 C375 1.491 . S
C370 H361 0.950 . S
C370 C369 1.398 . S
C370 C371 1.391 . S
C371 H359 0.950 . S
C371 C367 1.393 . S
C371 C370 1.391 . S
C372 H362 0.950 . S
C372 C373 1.386 . S
C372 C374 1.391 . S
C373 C372 1.386 . S
C373 C377 1.393 . S
C374 H363 0.950 . S
C374 C372 1.391 . S
C374 C375 1.400 . S
C375 C369 1.491 . S
C375 C374 1.400 . S
C375 C376 1.398 . S
C376 H364 0.950 . S
C376 C375 1.398 . S
C376 C377 1.391 . S
C377 H365 0.950 . S
C377 C373 1.393 . S
C377 C376 1.391 . S
H378 C386 0.950 . S
H379 C391 0.950 . S
H380 C388 0.950 . S
H381 C390 0.950 . S
H382 C392 0.950 . S
H383 C394 0.950 . S
H384 C396 0.950 . S
H385 C397 0.950 . S
C386 H378 0.950 . S
C386 C387 1.386 . S
C386 C388 1.391 . S
C387 C386 1.386 . S
C387 C391 1.393 . S
C388 H380 0.950 . S
C388 C386 1.391 . S
C388 C389 1.400 . S
C389 C388 1.400 . S
C389 C390 1.398 . S
C389 C395 1.491 . S
C390 H381 0.950 . S
C390 C389 1.398 . S
C390 C391 1.391 . S
C391 H379 0.950 . S
C391 C387 1.393 . S
C391 C390 1.391 . S
C392 H382 0.950 . S
C392 C393 1.386 . S
C392 C394 1.391 . S
C393 C392 1.386 . S
C393 C397 1.393 . S
C394 H383 0.950 . S
C394 C392 1.391 . S
C394 C395 1.400 . S
C395 C389 1.491 . S
C395 C394 1.400 . S
C395 C396 1.398 . S
C396 H384 0.950 . S
C396 C395 1.398 . S
C396 C397 1.391 . S
C397 H385 0.950 . S
C397 C393 1.393 . S
C397 C396 1.391 . S
H398 C406 0.950 . S
H399 C411 0.950 . S
H400 C408 0.950 . S
H401 C410 0.950 . S
H402 C412 0.950 . S
H403 C414 0.950 . S
H404 C416 0.950 . S
H405 C417 0.950 . S
C406 H398 0.950 . S
C406 C407 1.386 . S
C406 C408 1.391 . S
C407 C406 1.386 . S
C407 C411 1.393 . S
C408 H400 0.950 . S
C408 C406 1.391 . S
C408 C409 1.400 . S
C409 C408 1.400 . S
C409 C410 1.398 . S
C409 C415 1.491 . S
C410 H401 0.950 . S
C410 C409 1.398 . S
C410 C411 1.391 . S
C411 H399 0.950 . S
C411 C407 1.393 . S
C411 C410 1.391 . S
C412 H402 0.950 . S
C412 C413 1.386 . S
C412 C414 1.391 . S
C413 C412 1.386 . S
C413 C417 1.393 . S
C414 H403 0.950 . S
C414 C412 1.391 . S
C414 C415 1.400 . S
C415 C409 1.491 . S
C415 C414 1.400 . S
C415 C416 1.398 . S
C416 H404 0.950 . S
C416 C415 1.398 . S
C416 C417 1.391 . S
C417 H405 0.950 . S
C417 C413 1.393 . S
C417 C416 1.391 . S
H418 C426 0.950 . S
H419 C431 0.950 . S
H420 C428 0.950 . S
H421 C430 0.950 . S
H422 C432 0.950 . S
H423 C434 0.950 . S
H424 C436 0.950 . S
H425 C437 0.950 . S
C426 H418 0.950 . S
C426 C427 1.386 . S
C426 C428 1.391 . S
C427 C426 1.386 . S
C427 C431 1.393 . S
C428 H420 0.950 . S
C428 C426 1.391 . S
C428 C429 1.400 . S
C429 C428 1.400 . S
C429 C430 1.398 . S
C429 C435 1.491 . S
C430 H421 0.950 . S
C430 C429 1.398 . S
C430 C431 1.391 . S
C431 H419 0.950 . S
C431 C427 1.393 . S
C431 C430 1.391 . S
C432 H422 0.950 . S
C432 C433 1.386 . S
C432 C434 1.391 . S
C433 C432 1.386 . S
C433 C437 1.393 . S
C434 H423 0.950 . S
C434 C432 1.391 . S
C434 C435 1.400 . S
C435 C429 1.491 . S
C435 C434 1.400 . S
C435 C436 1.398 . S
C436 H424 0.950 . S
C436 C435 1.398 . S
C436 C437 1.391 . S
C437 H425 0.950 . S
C437 C433 1.393 . S
C437 C436 1.391 . S
H438 C446 0.950 1_655 S
H439 C451 0.950 . S
H440 C448 0.950 . S
H441 C450 0.950 . S
H442 C452 0.950 . S
H443 C454 0.950 . S
H444 C456 0.950 . S
H445 C457 0.950 . S
C446 H438 0.950 1_455 S
C446 C447 1.386 . S
C446 C448 1.391 . S
C447 C446 1.386 . S
C447 C451 1.393 . S
C448 H440 0.950 . S
C448 C446 1.391 . S
C448 C449 1.400 . S
C449 C448 1.400 . S
C449 C450 1.398 . S
C449 C455 1.491 1_554 S
C450 H441 0.950 . S
C450 C449 1.398 . S
C450 C451 1.391 . S
C451 H439 0.950 . S
C451 C447 1.393 . S
C451 C450 1.391 . S
C452 H442 0.950 . S
C452 C453 1.386 . S
C452 C454 1.391 . S
C453 C452 1.386 . S
C453 C457 1.393 . S
C454 H443 0.950 . S
C454 C452 1.391 . S
C454 C455 1.400 . S
C455 C449 1.491 1_556 S
C455 C454 1.400 . S
C455 C456 1.398 . S
C456 H444 0.950 . S
C456 C455 1.398 . S
C456 C457 1.391 . S
C457 H445 0.950 . S
C457 C453 1.393 . S
C457 C456 1.391 . S
H458 C466 0.950 1_565 S
H459 C471 0.950 . S
H460 C468 0.950 1_565 S
H461 C470 0.950 . S
H462 C472 0.950 . S
H463 C474 0.950 . S
H464 C476 0.950 1_565 S
H465 C477 0.950 1_565 S
C466 H458 0.950 1_545 S
C466 C467 1.386 . S
C466 C468 1.391 . S
C467 C466 1.386 . S
C467 C471 1.393 . S
C468 H460 0.950 1_545 S
C468 C466 1.391 . S
C468 C469 1.400 . S
C469 C468 1.400 . S
C469 C470 1.398 . S
C469 C475 1.491 . S
C470 H461 0.950 . S
C470 C469 1.398 . S
C470 C471 1.391 . S
C471 H459 0.950 . S
C471 C467 1.393 . S
C471 C470 1.391 . S
C472 H462 0.950 . S
C472 C473 1.386 . S
C472 C474 1.391 . S
C473 C472 1.386 . S
C473 C477 1.393 . S
C474 H463 0.950 . S
C474 C472 1.391 . S
C474 C475 1.400 . S
C475 C469 1.491 . S
C475 C474 1.400 . S
C475 C476 1.398 . S
C476 H464 0.950 1_545 S
C476 C475 1.398 . S
C476 C477 1.391 . S
C477 H465 0.950 1_545 S
C477 C473 1.393 . S
C477 C476 1.391 . S
H478 C486 0.950 . S
H479 C491 0.950 . S
H480 C488 0.950 . S
H481 C490 0.950 . S
H482 C492 0.950 . S
H483 C494 0.950 . S
H484 C496 0.950 . S
H485 C497 0.950 . S
C486 H478 0.950 . S
C486 C487 1.386 . S
C486 C488 1.391 . S
C487 C486 1.386 . S
C487 C491 1.393 . S
C488 H480 0.950 . S
C488 C486 1.391 . S
C488 C489 1.400 . S
C489 C488 1.400 . S
C489 C490 1.398 . S
C489 C495 1.491 . S
C490 H481 0.950 . S
C490 C489 1.398 . S
C490 C491 1.391 . S
C491 H479 0.950 . S
C491 C487 1.393 . S
C491 C490 1.391 . S
C492 H482 0.950 . S
C492 C493 1.386 . S
C492 C494 1.391 . S
C493 C492 1.386 . S
C493 C497 1.393 . S
C494 H483 0.950 . S
C494 C492 1.391 . S
C494 C495 1.400 . S
C495 C489 1.491 . S
C495 C494 1.400 . S
C495 C496 1.398 . S
C496 H484 0.950 . S
C496 C495 1.398 . S
C496 C497 1.391 . S
C497 H485 0.950 . S
C497 C493 1.393 . S
C497 C496 1.391 . S
H498 C506 0.950 . S
H499 C511 0.950 . S
H500 C508 0.950 . S
H501 C510 0.950 . S
H502 C512 0.950 . S
H503 C514 0.950 . S
H504 C516 0.950 . S
H505 C517 0.950 . S
C506 H498 0.950 . S
C506 C507 1.386 . S
C506 C508 1.391 . S
C507 C506 1.386 . S
C507 C511 1.393 1_545 S
C508 H500 0.950 . S
C508 C506 1.391 . S
C508 C509 1.400 . S
C509 C508 1.400 . S
C509 C510 1.398 1_545 S
C509 C515 1.491 . S
C510 H501 0.950 . S
C510 C509 1.398 1_565 S
C510 C511 1.391 . S
C511 H499 0.950 . S
C511 C507 1.393 1_565 S
C511 C510 1.391 . S
C512 H502 0.950 . S
C512 C513 1.386 1_565 S
C512 C514 1.391 . S
C513 C512 1.386 1_545 S
C513 C517 1.393 . S
C514 H503 0.950 . S
C514 C512 1.391 . S
C514 C515 1.400 1_565 S
C515 C509 1.491 . S
C515 C514 1.400 1_545 S
C515 C516 1.398 . S
C516 H504 0.950 . S
C516 C515 1.398 . S
C516 C517 1.391 . S
C517 H505 0.950 . S
C517 C513 1.393 . S
C517 C516 1.391 . S
H518 C526 0.950 . S
H519 C531 0.950 . S
H520 C528 0.950 . S
H521 C530 0.950 . S
H522 C532 0.950 . S
H523 C534 0.950 . S
H524 C536 0.950 . S
H525 C537 0.950 . S
C526 H518 0.950 . S
C526 C527 1.386 . S
C526 C528 1.391 . S
C527 C526 1.386 . S
C527 C531 1.393 . S
C528 H520 0.950 . S
C528 C526 1.391 . S
C528 C529 1.400 . S
C529 C528 1.400 . S
C529 C530 1.398 . S
C529 C535 1.491 1_556 S
C530 H521 0.950 . S
C530 C529 1.398 . S
C530 C531 1.391 . S
C531 H519 0.950 . S
C531 C527 1.393 . S
C531 C530 1.391 . S
C532 H522 0.950 . S
C532 C533 1.386 . S
C532 C534 1.391 . S
C533 C532 1.386 . S
C533 C537 1.393 . S
C534 H523 0.950 . S
C534 C532 1.391 . S
C534 C535 1.400 . S
C535 C529 1.491 1_554 S
C535 C534 1.400 . S
C535 C536 1.398 . S
C536 H524 0.950 . S
C536 C535 1.398 . S
C536 C537 1.391 . S
C537 H525 0.950 . S
C537 C533 1.393 . S
C537 C536 1.391 . S
H538 C546 0.950 . S
H539 C551 0.950 . S
H540 C548 0.950 . S
H541 C550 0.950 . S
H542 C552 0.937 1_655 S
H543 C554 0.950 . S
H544 C556 0.950 . S
H545 C557 0.950 . S
C546 H538 0.950 . S
C546 C547 1.386 . S
C546 C548 1.391 . S
C547 C546 1.386 . S
C547 C551 1.393 1_455 S
C548 H540 0.950 . S
C548 C546 1.391 . S
C548 C549 1.400 . S
C549 C548 1.400 . S
C549 C550 1.398 1_455 S
C549 C555 1.491 . S
C550 H541 0.950 . S
C550 C549 1.398 1_655 S
C550 C551 1.391 . S
C551 H539 0.950 . S
C551 C547 1.393 1_655 S
C551 C550 1.391 . S
C552 H542 0.937 1_455 S
C552 C553 1.398 . S
C552 C554 1.391 1_455 S
C553 C552 1.398 . S
C553 C557 1.393 . S
C554 H543 0.950 . S
C554 C552 1.391 1_655 S
C554 C555 1.400 1_655 S
C555 C549 1.491 . S
C555 C554 1.400 1_455 S
C555 C556 1.398 . S
C556 H544 0.950 . S
C556 C555 1.398 . S
C556 C557 1.391 . S
C557 H545 0.950 . S
C557 C553 1.393 . S
C557 C556 1.391 . S
C207 C19 1.936 . S
C213 C189 1.786 . S
C227 C46 1.191 . S
C233 C167 1.182 1_655 S
C247 C95 0.359 . S
C253 C180 0.201 . S
C267 C10 1.868 . S
C273 C193 1.860 . S
C293 C163 1.277 . S
C287 C55 1.336 . S
C313 C176 0.672 . S
C307 C86 0.715 . S
C327 C59 3.027 . S
C333 C141 2.990 . S
C347 C90 1.887 . S
C353 C154 1.863 1_655 S
C367 C15 1.316 . S
C373 C124 1.254 . S
C393 C137 2.894 . S
C387 C50 3.052 . S
C413 C150 1.804 . S
C407 C99 1.957 . S
C427 C6 1.102 . S
C433 C128 1.112 . S
C453 C155 1.464 . S
C447 C9 1.430 . S
C467 C58 1.483 . S
C473 C129 1.594 . S
C487 C98 1.685 . S
C493 C142 1.737 . S
C513 C181 1.304 . S
C507 C49 1.297 . S
C533 C194 1.435 . S
C527 C89 1.387 . S
C547 C18 1.465 . S
C553 C168 1.542 . S
