# Generated by pormake.
# Topology eea, (3,6)-cn, num edge types: 1
# Building blocks:
#     Node 0, Type 0, BuildingBlock: KAKCAD_clean_linker_0, # of connection points: 3
#     Node 1, Type 0, BuildingBlock: KAKCAD_clean_linker_0, # of connection points: 3
#     Node 2, Type 0, BuildingBlock: KAKCAD_clean_linker_0, # of connection points: 3
#     Node 3, Type 0, BuildingBlock: KAKCAD_clean_linker_0, # of connection points: 3
#     Node 4, Type 0, BuildingBlock: KAKCAD_clean_linker_0, # of connection points: 3
#     Node 5, Type 0, BuildingBlock: KAKCAD_clean_linker_0, # of connection points: 3
#     Node 6, Type 0, BuildingBlock: KAKCAD_clean_linker_0, # of connection points: 3
#     Node 7, Type 0, BuildingBlock: KAKCAD_clean_linker_0, # of connection points: 3
#     Node 8, Type 0, BuildingBlock: KAKCAD_clean_linker_0, # of connection points: 3
#     Node 9, Type 0, BuildingBlock: KAKCAD_clean_linker_0, # of connection points: 3
#     Node 10, Type 0, BuildingBlock: KAKCAD_clean_linker_0, # of connection points: 3
#     Node 11, Type 0, BuildingBlock: KAKCAD_clean_linker_0, # of connection points: 3
#     Node 12, Type 0, BuildingBlock: KAKCAD_clean_linker_0, # of connection points: 3
#     Node 13, Type 0, BuildingBlock: KAKCAD_clean_linker_0, # of connection points: 3
#     Node 14, Type 0, BuildingBlock: KAKCAD_clean_linker_0, # of connection points: 3
#     Node 15, Type 0, BuildingBlock: KAKCAD_clean_linker_0, # of connection points: 3
#     Node 16, Type 0, BuildingBlock: KAKCAD_clean_linker_0, # of connection points: 3
#     Node 17, Type 0, BuildingBlock: KAKCAD_clean_linker_0, # of connection points: 3
#     Node 18, Type 1, BuildingBlock: CUKXOW_clean_sbu_0, # of connection points: 6
#     Node 19, Type 1, BuildingBlock: CUKXOW_clean_sbu_0, # of connection points: 6
#     Node 20, Type 1, BuildingBlock: CUKXOW_clean_sbu_0, # of connection points: 6
#     Node 21, Type 1, BuildingBlock: CUKXOW_clean_sbu_0, # of connection points: 6
#     Node 22, Type 1, BuildingBlock: CUKXOW_clean_sbu_0, # of connection points: 6
#     Node 23, Type 1, BuildingBlock: CUKXOW_clean_sbu_0, # of connection points: 6
#     Node 24, Type 1, BuildingBlock: CUKXOW_clean_sbu_0, # of connection points: 6
#     Node 25, Type 1, BuildingBlock: CUKXOW_clean_sbu_0, # of connection points: 6
#     Node 26, Type 1, BuildingBlock: CUKXOW_clean_sbu_0, # of connection points: 6
#     Edge 27, Type (0, 1), BuildingBlock: OJICUG_clean_linker_0, # of connection points: 2
#     Edge 28, Type (0, 1), BuildingBlock: OJICUG_clean_linker_0, # of connection points: 2
#     Edge 29, Type (0, 1), BuildingBlock: OJICUG_clean_linker_0, # of connection points: 2
#     Edge 30, Type (0, 1), BuildingBlock: OJICUG_clean_linker_0, # of connection points: 2
#     Edge 31, Type (0, 1), BuildingBlock: OJICUG_clean_linker_0, # of connection points: 2
#     Edge 32, Type (0, 1), BuildingBlock: OJICUG_clean_linker_0, # of connection points: 2
#     Edge 33, Type (0, 1), BuildingBlock: OJICUG_clean_linker_0, # of connection points: 2
#     Edge 34, Type (0, 1), BuildingBlock: OJICUG_clean_linker_0, # of connection points: 2
#     Edge 35, Type (0, 1), BuildingBlock: OJICUG_clean_linker_0, # of connection points: 2
#     Edge 36, Type (0, 1), BuildingBlock: OJICUG_clean_linker_0, # of connection points: 2
#     Edge 37, Type (0, 1), BuildingBlock: OJICUG_clean_linker_0, # of connection points: 2
#     Edge 38, Type (0, 1), BuildingBlock: OJICUG_clean_linker_0, # of connection points: 2
#     Edge 39, Type (0, 1), BuildingBlock: OJICUG_clean_linker_0, # of connection points: 2
#     Edge 40, Type (0, 1), BuildingBlock: OJICUG_clean_linker_0, # of connection points: 2
#     Edge 41, Type (0, 1), BuildingBlock: OJICUG_clean_linker_0, # of connection points: 2
#     Edge 42, Type (0, 1), BuildingBlock: OJICUG_clean_linker_0, # of connection points: 2
#     Edge 43, Type (0, 1), BuildingBlock: OJICUG_clean_linker_0, # of connection points: 2
#     Edge 44, Type (0, 1), BuildingBlock: OJICUG_clean_linker_0, # of connection points: 2
#     Edge 45, Type (0, 1), BuildingBlock: OJICUG_clean_linker_0, # of connection points: 2
#     Edge 46, Type (0, 1), BuildingBlock: OJICUG_clean_linker_0, # of connection points: 2
#     Edge 47, Type (0, 1), BuildingBlock: OJICUG_clean_linker_0, # of connection points: 2
#     Edge 48, Type (0, 1), BuildingBlock: OJICUG_clean_linker_0, # of connection points: 2
#     Edge 49, Type (0, 1), BuildingBlock: OJICUG_clean_linker_0, # of connection points: 2
#     Edge 50, Type (0, 1), BuildingBlock: OJICUG_clean_linker_0, # of connection points: 2
#     Edge 51, Type (0, 1), BuildingBlock: OJICUG_clean_linker_0, # of connection points: 2
#     Edge 52, Type (0, 1), BuildingBlock: OJICUG_clean_linker_0, # of connection points: 2
#     Edge 53, Type (0, 1), BuildingBlock: OJICUG_clean_linker_0, # of connection points: 2
#     Edge 54, Type (0, 1), BuildingBlock: OJICUG_clean_linker_0, # of connection points: 2
#     Edge 55, Type (0, 1), BuildingBlock: OJICUG_clean_linker_0, # of connection points: 2
#     Edge 56, Type (0, 1), BuildingBlock: OJICUG_clean_linker_0, # of connection points: 2
#     Edge 57, Type (0, 1), BuildingBlock: OJICUG_clean_linker_0, # of connection points: 2
#     Edge 58, Type (0, 1), BuildingBlock: OJICUG_clean_linker_0, # of connection points: 2
#     Edge 59, Type (0, 1), BuildingBlock: OJICUG_clean_linker_0, # of connection points: 2
#     Edge 60, Type (0, 1), BuildingBlock: OJICUG_clean_linker_0, # of connection points: 2
#     Edge 61, Type (0, 1), BuildingBlock: OJICUG_clean_linker_0, # of connection points: 2
#     Edge 62, Type (0, 1), BuildingBlock: OJICUG_clean_linker_0, # of connection points: 2
#     Edge 63, Type (0, 1), BuildingBlock: OJICUG_clean_linker_0, # of connection points: 2
#     Edge 64, Type (0, 1), BuildingBlock: OJICUG_clean_linker_0, # of connection points: 2
#     Edge 65, Type (0, 1), BuildingBlock: OJICUG_clean_linker_0, # of connection points: 2
#     Edge 66, Type (0, 1), BuildingBlock: OJICUG_clean_linker_0, # of connection points: 2
#     Edge 67, Type (0, 1), BuildingBlock: OJICUG_clean_linker_0, # of connection points: 2
#     Edge 68, Type (0, 1), BuildingBlock: OJICUG_clean_linker_0, # of connection points: 2
#     Edge 69, Type (0, 1), BuildingBlock: OJICUG_clean_linker_0, # of connection points: 2
#     Edge 70, Type (0, 1), BuildingBlock: OJICUG_clean_linker_0, # of connection points: 2
#     Edge 71, Type (0, 1), BuildingBlock: OJICUG_clean_linker_0, # of connection points: 2
#     Edge 72, Type (0, 1), BuildingBlock: OJICUG_clean_linker_0, # of connection points: 2
#     Edge 73, Type (0, 1), BuildingBlock: OJICUG_clean_linker_0, # of connection points: 2
#     Edge 74, Type (0, 1), BuildingBlock: OJICUG_clean_linker_0, # of connection points: 2
#     Edge 75, Type (0, 1), BuildingBlock: OJICUG_clean_linker_0, # of connection points: 2
#     Edge 76, Type (0, 1), BuildingBlock: OJICUG_clean_linker_0, # of connection points: 2
#     Edge 77, Type (0, 1), BuildingBlock: OJICUG_clean_linker_0, # of connection points: 2
#     Edge 78, Type (0, 1), BuildingBlock: OJICUG_clean_linker_0, # of connection points: 2
#     Edge 79, Type (0, 1), BuildingBlock: OJICUG_clean_linker_0, # of connection points: 2
#     Edge 80, Type (0, 1), BuildingBlock: OJICUG_clean_linker_0, # of connection points: 2
# Relax obj value: 0.017
# Max RMSD: 0.126
# Mean RMSD: 0.058
data_MOF--net-eea--node1-CUKXOW_clean_sbu_0--node2-KAKCAD_clean_linker_0--edge1-OJICUG_clean_linker_0
_symmetry_space_group_name_H-M    P1
_symmetry_Int_Tables_number       1
_symmetry_cell_setting            triclinic
loop_
_symmetry_equiv_pos_as_xyz
'x, y, z'
_cell_length_a     53.440022
_cell_length_b     50.185626
_cell_length_c     56.883807
_cell_angle_alpha  93.552169
_cell_angle_beta   93.168614
_cell_angle_gamma 120.08133
loop_
_atom_site_label
_atom_site_type_symbol
_atom_site_fract_x
_atom_site_fract_y
_atom_site_fract_z
_atom_type_partial_charge
C0 C 0.28857 0.17428 0.52729 0.0
C1 C 0.3119 0.16969 0.5333 0.0
C2 C 0.2766 0.16868 0.50381 0.0
C3 C 0.28755 0.1581 0.48589 0.0
C4 C 0.31152 0.15452 0.49178 0.0
C5 C 0.32369 0.16043 0.51525 0.0
C6 C 0.2728 0.14901 0.46145 0.0
C7 C 0.26399 0.16779 0.45062 0.0
C8 C 0.24854 0.15834 0.42801 0.0
C9 C 0.24175 0.12968 0.41634 0.0
C10 C 0.25021 0.11054 0.42697 0.0
C11 C 0.266 0.12053 0.44942 0.0
C12 C 0.24134 0.07947 0.41514 0.0
C13 C 0.21277 0.06003 0.40459 0.0
C14 C 0.26108 0.06873 0.41481 0.0
C15 C 0.25236 0.03908 0.40429 0.0
C16 C 0.22367 0.01949 0.39402 0.0
C17 C 0.23883 0.17795 0.41672 0.0
C18 C 0.22638 0.19217 0.42986 0.0
C19 C 0.24135 0.182 0.39256 0.0
C20 C 0.23153 0.19977 0.38175 0.0
C21 C 0.2189 0.21383 0.39485 0.0
C22 C 0.21647 0.20988 0.41903 0.0
C23 C 0.20402 0.03035 0.39419 0.0
H24 H 0.27919 0.18161 0.54085 0.0
H25 H 0.25802 0.17145 0.49984 0.0
H26 H 0.32053 0.14664 0.47827 0.0
H27 H 0.34154 0.15651 0.51941 0.0
H28 H 0.26944 0.18993 0.45972 0.0
H29 H 0.27184 0.10546 0.45804 0.0
H30 H 0.22946 0.12203 0.39906 0.0
H31 H 0.19698 0.06753 0.40479 0.0
H32 H 0.28328 0.08328 0.42268 0.0
H33 H 0.26792 0.03125 0.40463 0.0
H34 H 0.22389 0.18922 0.44846 0.0
H35 H 0.25106 0.17155 0.38202 0.0
H36 H 0.18185 0.01588 0.38624 0.0
H37 H 0.20715 0.2207 0.42965 0.0
H38 H 0.2335 0.20218 0.36305 0.0
C39 C 0.86535 0.17876 0.52787 0.0
C40 C 0.85258 0.15521 0.54293 0.0
C41 C 0.87244 0.17253 0.50563 0.0
C42 C 0.86693 0.14266 0.49814 0.0
C43 C 0.85547 0.11964 0.51374 0.0
C44 C 0.84833 0.12582 0.53581 0.0
C45 C 0.87178 0.13475 0.47385 0.0
C46 C 0.89715 0.15456 0.46356 0.0
C47 C 0.90205 0.14577 0.4411 0.0
C48 C 0.88111 0.11727 0.42877 0.0
C49 C 0.85548 0.0975 0.43862 0.0
C50 C 0.85095 0.10653 0.46106 0.0
C51 C 0.83381 0.06697 0.42585 0.0
C52 C 0.82613 0.06391 0.40138 0.0
C53 C 0.82079 0.04056 0.43814 0.0
C54 C 0.80063 0.01173 0.42626 0.0
C55 C 0.79303 0.00858 0.40177 0.0
C56 C 0.92932 0.16573 0.43056 0.0
C57 C 0.9392 0.19726 0.42924 0.0
C58 C 0.94514 0.15295 0.42102 0.0
C59 C 0.97008 0.17118 0.41 0.0
C60 C 0.97965 0.20259 0.40802 0.0
C61 C 0.96402 0.21548 0.41796 0.0
C62 C 0.8059 0.03501 0.38946 0.0
H63 H 0.86886 0.20164 0.53292 0.0
H64 H 0.88122 0.19072 0.49398 0.0
H65 H 0.85169 0.09663 0.50877 0.0
H66 H 0.8392 0.10742 0.54728 0.0
H67 H 0.91356 0.17619 0.47336 0.0
H68 H 0.83092 0.09161 0.46856 0.0
H69 H 0.88497 0.11035 0.41155 0.0
H70 H 0.8356 0.08389 0.39146 0.0
H71 H 0.82647 0.04206 0.45695 0.0
H72 H 0.79084 0.99191 0.43633 0.0
H73 H 0.92725 0.20759 0.43633 0.0
H74 H 0.93823 0.12879 0.42214 0.0
H75 H 0.80065 0.03329 0.37056 0.0
H76 H 0.97052 0.23946 0.41655 0.0
H77 H 0.98191 0.16061 0.40311 0.0
C78 C 0.88079 0.69405 0.53149 0.0
C79 C 0.85225 0.67265 0.53591 0.0
C80 C 0.88659 0.70509 0.50934 0.0
C81 C 0.86398 0.69493 0.4911 0.0
C82 C 0.83567 0.67239 0.49518 0.0
C83 C 0.82986 0.66134 0.51736 0.0
C84 C 0.86967 0.70905 0.46839 0.0
C85 C 0.89492 0.71561 0.45769 0.0
C86 C 0.90109 0.73038 0.43687 0.0
C87 C 0.88127 0.73779 0.42634 0.0
C88 C 0.85607 0.73195 0.43695 0.0
C89 C 0.85059 0.71761 0.45806 0.0
C90 C 0.83612 0.74184 0.42652 0.0
C91 C 0.84695 0.76859 0.41452 0.0
C92 C 0.8061 0.72487 0.4287 0.0
C93 C 0.78758 0.73458 0.41947 0.0
C94 C 0.79834 0.76106 0.40714 0.0
C95 C 0.92904 0.73978 0.42683 0.0
C96 C 0.95514 0.75378 0.44179 0.0
C97 C 0.93006 0.73626 0.40226 0.0
C98 C 0.95666 0.74692 0.39284 0.0
C99 C 0.98279 0.76132 0.40779 0.0
C100 C 0.98172 0.76443 0.43238 0.0
C101 C 0.82831 0.77777 0.40468 0.0
H102 H 0.89855 0.70295 0.54539 0.0
H103 H 0.90861 0.72255 0.50685 0.0
H104 H 0.81787 0.6638 0.48135 0.0
H105 H 0.80763 0.64502 0.52027 0.0
H106 H 0.90982 0.70918 0.46557 0.0
H107 H 0.83204 0.71417 0.46709 0.0
H108 H 0.88593 0.7488 0.4101 0.0
H109 H 0.86995 0.78281 0.41285 0.0
H110 H 0.79671 0.70389 0.43746 0.0
H111 H 0.76481 0.7213 0.42223 0.0
H112 H 0.95511 0.75731 0.46077 0.0
H113 H 0.91028 0.72523 0.39032 0.0
H114 H 0.83757 0.79793 0.39498 0.0
H115 H 0.00149 0.77578 0.44434 0.0
H116 H 0.95675 0.74373 0.37384 0.0
C117 C 0.15316 0.28985 0.47456 0.0
C118 C 0.15552 0.31819 0.47018 0.0
C119 C 0.14685 0.27894 0.4967 0.0
C120 C 0.14221 0.29587 0.51477 0.0
C121 C 0.14427 0.32412 0.5104 0.0
C122 C 0.15126 0.33542 0.48831 0.0
C123 C 0.13541 0.28368 0.53807 0.0
C124 C 0.15416 0.27604 0.55022 0.0
C125 C 0.14679 0.2612 0.57105 0.0
C126 C 0.12011 0.25404 0.57951 0.0
C127 C 0.10137 0.26209 0.56781 0.0
C128 C 0.10933 0.27736 0.54724 0.0
C129 C 0.07299 0.2533 0.57676 0.0
C130 C 0.05424 0.22258 0.58125 0.0
C131 C 0.06495 0.27559 0.58173 0.0
C132 C 0.03902 0.26747 0.59175 0.0
C133 C 0.02043 0.23679 0.5965 0.0
C134 C 0.16644 0.2523 0.58347 0.0
C135 C 0.18259 0.24251 0.57054 0.0
C136 C 0.16899 0.25313 0.60831 0.0
C137 C 0.18678 0.2439 0.61983 0.0
C138 C 0.20283 0.23399 0.60686 0.0
C139 C 0.20073 0.23382 0.58207 0.0
C140 C 0.02812 0.21436 0.59085 0.0
H141 H 0.15641 0.27622 0.46085 0.0
H142 H 0.14524 0.25703 0.49964 0.0
H143 H 0.14083 0.33755 0.52413 0.0
H144 H 0.15286 0.35728 0.48523 0.0
H145 H 0.17457 0.28178 0.54331 0.0
H146 H 0.09461 0.28285 0.53776 0.0
H147 H 0.11359 0.24179 0.59511 0.0
H148 H 0.05989 0.20494 0.57743 0.0
H149 H 0.07911 0.29943 0.57848 0.0
H150 H 0.0335 0.28515 0.59583 0.0
H151 H 0.18097 0.24105 0.5514 0.0
H152 H 0.1573 0.26099 0.61896 0.0
H153 H 0.01429 0.1906 0.59446 0.0
H154 H 0.21315 0.227 0.57141 0.0
H155 H 0.18754 0.24409 0.6389 0.0
C156 C 0.68153 0.84686 0.49396 0.0
C157 C 0.69231 0.83725 0.47525 0.0
C158 C 0.6944 0.85255 0.51713 0.0
C159 C 0.71823 0.84851 0.52226 0.0
C160 C 0.72816 0.83741 0.50384 0.0
C161 C 0.71537 0.83191 0.48054 0.0
C162 C 0.73371 0.85789 0.54648 0.0
C163 C 0.74155 0.83861 0.5578 0.0
C164 C 0.75647 0.84794 0.58068 0.0
C165 C 0.76349 0.87686 0.59206 0.0
C166 C 0.75631 0.8966 0.58086 0.0
C167 C 0.74125 0.88683 0.55814 0.0
C168 C 0.7655 0.92783 0.59264 0.0
C169 C 0.76307 0.93203 0.6169 0.0
C170 C 0.77769 0.95384 0.57986 0.0
C171 C 0.78752 0.98341 0.59112 0.0
C172 C 0.78538 0.98767 0.61544 0.0
C173 C 0.76533 0.82805 0.59276 0.0
C174 C 0.74655 0.79585 0.59168 0.0
C175 C 0.7926 0.84141 0.60601 0.0
C176 C 0.80078 0.82318 0.61809 0.0
C177 C 0.78207 0.79099 0.61705 0.0
C178 C 0.75483 0.77752 0.60369 0.0
C179 C 0.77288 0.9616 0.62817 0.0
H180 H 0.66334 0.85047 0.49066 0.0
H181 H 0.68596 0.86056 0.53105 0.0
H182 H 0.7466 0.83427 0.50727 0.0
H183 H 0.72435 0.82472 0.46656 0.0
H184 H 0.73618 0.81649 0.54873 0.0
H185 H 0.7356 0.90195 0.54939 0.0
H186 H 0.77499 0.88428 0.60965 0.0
H187 H 0.75353 0.91241 0.6272 0.0
H188 H 0.78015 0.95144 0.5612 0.0
H189 H 0.79667 0.00295 0.58073 0.0
H190 H 0.72529 0.78484 0.58181 0.0
H191 H 0.80782 0.86606 0.60697 0.0
H192 H 0.77108 0.96409 0.64695 0.0
H193 H 0.74003 0.75274 0.60224 0.0
H194 H 0.82178 0.83444 0.62839 0.0
C195 C 0.13107 0.8321 0.48021 0.0
C196 C 0.15999 0.84058 0.4771 0.0
C197 C 0.12322 0.83643 0.50264 0.0
C198 C 0.14412 0.84923 0.52245 0.0
C199 C 0.17268 0.85628 0.51944 0.0
C200 C 0.18052 0.85211 0.49707 0.0
C201 C 0.13689 0.85729 0.54582 0.0
C202 C 0.11032 0.83746 0.55479 0.0
C203 C 0.10378 0.84573 0.57681 0.0
C204 C 0.12376 0.87447 0.5894 0.0
C205 C 0.15021 0.8942 0.58078 0.0
C206 C 0.15675 0.88555 0.55916 0.0
C207 C 0.17101 0.92411 0.59437 0.0
C208 C 0.1645 0.94787 0.59668 0.0
C209 C 0.19741 0.92898 0.60507 0.0
C210 C 0.21712 0.95732 0.61799 0.0
C211 C 0.21108 0.98164 0.62003 0.0
C212 C 0.07639 0.82469 0.58708 0.0
C213 C 0.04954 0.80891 0.57306 0.0
C214 C 0.07685 0.82142 0.61146 0.0
C215 C 0.05111 0.80382 0.62174 0.0
C216 C 0.02417 0.78884 0.60792 0.0
C217 C 0.0237 0.79116 0.58337 0.0
C218 C 0.18444 0.97645 0.60916 0.0
H219 H 0.11476 0.82329 0.46515 0.0
H220 H 0.10109 0.83094 0.50428 0.0
H221 H 0.18919 0.86549 0.53437 0.0
H222 H 0.20283 0.85824 0.49538 0.0
H223 H 0.09515 0.81532 0.54498 0.0
H224 H 0.17707 0.9014 0.55245 0.0
H225 H 0.11882 0.88161 0.60606 0.0
H226 H 0.14422 0.94451 0.58842 0.0
H227 H 0.20264 0.91073 0.60361 0.0
H228 H 0.23701 0.96002 0.62645 0.0
H229 H 0.0484 0.81111 0.55426 0.0
H230 H 0.0972 0.83267 0.6227 0.0
H231 H 0.17912 0.99463 0.60978 0.0
H232 H 0.00327 0.78004 0.57224 0.0
H233 H 0.05233 0.80195 0.64059 0.0
C234 C 0.95379 0.50622 0.863 0.0
C235 C 0.97581 0.49919 0.86806 0.0
C236 C 0.94149 0.50204 0.83967 0.0
C237 C 0.95093 0.49068 0.82102 0.0
C238 C 0.97391 0.4852 0.82598 0.0
C239 C 0.98622 0.48946 0.84916 0.0
C240 C 0.93569 0.48232 0.79672 0.0
C241 C 0.92875 0.50245 0.7857 0.0
C242 C 0.91478 0.49427 0.7625 0.0
C243 C 0.90723 0.46544 0.75062 0.0
C244 C 0.91334 0.44479 0.7616 0.0
C245 C 0.92779 0.45356 0.78453 0.0
C246 C 0.90385 0.41368 0.74943 0.0
C247 C 0.89096 0.38738 0.76186 0.0
C248 C 0.9073 0.40994 0.72534 0.0
C249 C 0.89814 0.38054 0.71397 0.0
C250 C 0.88517 0.35424 0.72643 0.0
C251 C 0.90721 0.51519 0.75063 0.0
C252 C 0.89332 0.52875 0.76245 0.0
C253 C 0.91244 0.52037 0.72691 0.0
C254 C 0.90345 0.53823 0.71511 0.0
C255 C 0.88877 0.55102 0.72671 0.0
C256 C 0.88405 0.54635 0.75058 0.0
C257 C 0.88174 0.35803 0.7505 0.0
H258 H 0.94519 0.51363 0.87715 0.0
H259 H 0.92373 0.50635 0.83637 0.0
H260 H 0.98203 0.47702 0.81191 0.0
H261 H 0.00362 0.48458 0.85235 0.0
H262 H 0.93482 0.52472 0.79493 0.0
H263 H 0.93273 0.43777 0.79305 0.0
H264 H 0.89557 0.45859 0.73309 0.0
H265 H 0.88769 0.38942 0.78036 0.0
H266 H 0.91734 0.4298 0.71533 0.0
H267 H 0.90091 0.37836 0.69537 0.0
H268 H 0.88884 0.525 0.78067 0.0
H269 H 0.92331 0.51038 0.71741 0.0
H270 H 0.87218 0.33831 0.76069 0.0
H271 H 0.87311 0.55626 0.76007 0.0
H272 H 0.90731 0.54134 0.69672 0.0
C273 C 0.53055 0.51802 0.85761 0.0
C274 C 0.51768 0.49337 0.87174 0.0
C275 C 0.53723 0.51317 0.83478 0.0
C276 C 0.53116 0.48359 0.82571 0.0
C277 C 0.51964 0.45943 0.84035 0.0
C278 C 0.51297 0.46423 0.86302 0.0
C279 C 0.53526 0.47712 0.80074 0.0
C280 C 0.56066 0.49715 0.79049 0.0
C281 C 0.56478 0.48954 0.7673 0.0
C282 C 0.54284 0.46217 0.75422 0.0
C283 C 0.51739 0.44209 0.76412 0.0
C284 C 0.51373 0.44983 0.78728 0.0
C285 C 0.49557 0.41197 0.7509 0.0
C286 C 0.48612 0.41001 0.72694 0.0
C287 C 0.48489 0.38469 0.76211 0.0
C288 C 0.46575 0.356 0.74953 0.0
C289 C 0.45665 0.35392 0.7255 0.0
C290 C 0.59245 0.50904 0.7569 0.0
C291 C 0.60511 0.54136 0.75813 0.0
C292 C 0.60597 0.49506 0.74499 0.0
C293 C 0.63116 0.51282 0.7341 0.0
C294 C 0.64352 0.54508 0.73473 0.0
C295 C 0.63034 0.55919 0.74709 0.0
C296 C 0.46663 0.38122 0.71438 0.0
H297 H 0.53444 0.54074 0.86383 0.0
H298 H 0.54608 0.53224 0.82392 0.0
H299 H 0.51542 0.43656 0.83417 0.0
H300 H 0.50379 0.44495 0.87367 0.0
H301 H 0.57771 0.51786 0.80087 0.0
H302 H 0.49389 0.43447 0.79484 0.0
H303 H 0.54591 0.45605 0.73643 0.0
H304 H 0.4939 0.43071 0.71791 0.0
H305 H 0.49196 0.38542 0.78048 0.0
H306 H 0.45816 0.33534 0.75861 0.0
H307 H 0.59509 0.55274 0.76709 0.0
H308 H 0.59708 0.47027 0.74415 0.0
H309 H 0.46 0.38022 0.69586 0.0
H310 H 0.63912 0.58395 0.74781 0.0
H311 H 0.64108 0.50121 0.72532 0.0
C312 C 0.54466 0.03277 0.86836 0.0
C313 C 0.51535 0.01524 0.87288 0.0
C314 C 0.55205 0.04452 0.84655 0.0
C315 C 0.53033 0.03866 0.8285 0.0
C316 C 0.50104 0.01994 0.83264 0.0
C317 C 0.49364 0.00859 0.85457 0.0
C318 C 0.53806 0.05285 0.80577 0.0
C319 C 0.56282 0.05668 0.79538 0.0
C320 C 0.5702 0.07043 0.77412 0.0
C321 C 0.55195 0.07947 0.76289 0.0
C322 C 0.52719 0.07609 0.77293 0.0
C323 C 0.52082 0.06323 0.79461 0.0
C324 C 0.50807 0.08595 0.76078 0.0
C325 C 0.5196 0.1109 0.74682 0.0
C326 C 0.47796 0.07018 0.76272 0.0
C327 C 0.46004 0.07919 0.75121 0.0
C328 C 0.47146 0.10364 0.73675 0.0
C329 C 0.5974 0.07645 0.76385 0.0
C330 C 0.62347 0.08757 0.77847 0.0
C331 C 0.59794 0.07312 0.73919 0.0
C332 C 0.624 0.08195 0.72936 0.0
C333 C 0.65026 0.09387 0.7439 0.0
C334 C 0.64956 0.09607 0.76862 0.0
C335 C 0.50154 0.11924 0.73469 0.0
H336 H 0.56203 0.03787 0.88182 0.0
H337 H 0.57483 0.05894 0.84416 0.0
H338 H 0.48368 0.01432 0.81901 0.0
H339 H 0.47086 0.99542 0.85733 0.0
H340 H 0.57617 0.04856 0.80361 0.0
H341 H 0.50274 0.06198 0.8032 0.0
H342 H 0.5573 0.08949 0.7463 0.0
H343 H 0.54268 0.12425 0.74521 0.0
H344 H 0.46798 0.05054 0.77292 0.0
H345 H 0.43719 0.06691 0.75385 0.0
H346 H 0.62393 0.09065 0.79753 0.0
H347 H 0.57823 0.06411 0.72737 0.0
H348 H 0.51137 0.13782 0.7235 0.0
H349 H 0.66921 0.1046 0.78042 0.0
H350 H 0.62356 0.08021 0.71026 0.0
C351 C 0.82362 0.63472 0.8112 0.0
C352 C 0.81999 0.65955 0.8058 0.0
C353 C 0.81836 0.62378 0.83332 0.0
C354 C 0.8093 0.63739 0.85064 0.0
C355 C 0.80597 0.66255 0.84543 0.0
C356 C 0.81154 0.67376 0.82317 0.0
C357 C 0.80273 0.62428 0.87366 0.0
C358 C 0.82143 0.61592 0.88497 0.0
C359 C 0.81369 0.59901 0.90471 0.0
C360 C 0.7871 0.59126 0.91355 0.0
C361 C 0.76859 0.6004 0.90297 0.0
C362 C 0.77661 0.61713 0.88312 0.0
C363 C 0.74029 0.59116 0.91214 0.0
C364 C 0.72132 0.5601 0.91561 0.0
C365 C 0.73237 0.61334 0.918 0.0
C366 C 0.70626 0.60471 0.92781 0.0
C367 C 0.68741 0.57367 0.93147 0.0
C368 C 0.83297 0.58864 0.91547 0.0
C369 C 0.84818 0.57901 0.9011 0.0
C370 C 0.83642 0.58832 0.94011 0.0
C371 C 0.85476 0.57881 0.95012 0.0
C372 C 0.87037 0.56972 0.93577 0.0
C373 C 0.86679 0.5699 0.91112 0.0
C374 C 0.69502 0.55139 0.92502 0.0
H375 H 0.83034 0.62352 0.79817 0.0
H376 H 0.82075 0.60411 0.83666 0.0
H377 H 0.79909 0.67348 0.85852 0.0
H378 H 0.80854 0.6929 0.81933 0.0
H379 H 0.84201 0.62237 0.87808 0.0
H380 H 0.76179 0.62304 0.87432 0.0
H381 H 0.7805 0.57773 0.92851 0.0
H382 H 0.72688 0.54255 0.91106 0.0
H383 H 0.7467 0.63744 0.91552 0.0
H384 H 0.70076 0.62227 0.93252 0.0
H385 H 0.84565 0.57834 0.88202 0.0
H386 H 0.82525 0.59579 0.95174 0.0
H387 H 0.68094 0.52734 0.9278 0.0
H388 H 0.87866 0.56343 0.8995 0.0
H389 H 0.85656 0.57849 0.96914 0.0
C390 C 0.35285 0.15097 0.82424 0.0
C391 C 0.36601 0.17257 0.80783 0.0
C392 C 0.36487 0.15771 0.84788 0.0
C393 C 0.38993 0.18637 0.85554 0.0
C394 C 0.40282 0.208 0.83913 0.0
C395 C 0.39107 0.20114 0.81555 0.0
C396 C 0.40297 0.19393 0.88047 0.0
C397 C 0.40838 0.17301 0.89184 0.0
C398 C 0.42262 0.18106 0.9149 0.0
C399 C 0.43093 0.21017 0.9267 0.0
C400 C 0.42562 0.23133 0.91561 0.0
C401 C 0.41152 0.22293 0.89253 0.0
C402 C 0.43584 0.26268 0.92771 0.0
C403 C 0.43257 0.2667 0.9518 0.0
C404 C 0.44917 0.28889 0.91521 0.0
C405 C 0.45887 0.3184 0.92647 0.0
C406 C 0.45549 0.32246 0.95053 0.0
C407 C 0.43046 0.15997 0.9262 0.0
C408 C 0.42713 0.15552 0.95024 0.0
C409 C 0.4425 0.14515 0.91322 0.0
C410 C 0.45143 0.12671 0.92413 0.0
C411 C 0.44845 0.12256 0.94824 0.0
C412 C 0.43594 0.13694 0.96113 0.0
C413 C 0.44223 0.29627 0.96308 0.0
H414 H 0.33355 0.12875 0.81873 0.0
H415 H 0.35444 0.14068 0.86021 0.0
H416 H 0.42228 0.23015 0.84447 0.0
H417 H 0.40149 0.21838 0.80336 0.0
H418 H 0.40211 0.15073 0.88251 0.0
H419 H 0.40705 0.23897 0.88389 0.0
H420 H 0.44275 0.21692 0.94417 0.0
H421 H 0.42223 0.24695 0.96188 0.0
H422 H 0.45236 0.28663 0.89671 0.0
H423 H 0.46866 0.33803 0.91621 0.0
H424 H 0.41775 0.16648 0.96065 0.0
H425 H 0.44566 0.14839 0.89474 0.0
H426 H 0.4395 0.29864 0.98167 0.0
H427 H 0.43352 0.13435 0.97976 0.0
H428 H 0.46066 0.11563 0.91365 0.0
C429 C 0.79452 0.16944 0.80628 0.0
C430 C 0.82305 0.17588 0.80389 0.0
C431 C 0.78648 0.17454 0.8284 0.0
C432 C 0.80686 0.18633 0.84849 0.0
C433 C 0.83494 0.19142 0.84626 0.0
C434 C 0.84291 0.18618 0.82426 0.0
C435 C 0.79975 0.19542 0.8714 0.0
C436 C 0.77373 0.17563 0.88092 0.0
C437 C 0.76752 0.18454 0.9028 0.0
C438 C 0.78736 0.21382 0.91471 0.0
C439 C 0.81333 0.23385 0.90541 0.0
C440 C 0.81935 0.22443 0.88378 0.0
C441 C 0.83423 0.2645 0.91843 0.0
C442 C 0.82435 0.28301 0.92925 0.0
C443 C 0.86421 0.27533 0.92031 0.0
C444 C 0.88387 0.30402 0.93273 0.0
C445 C 0.874 0.32253 0.94357 0.0
C446 C 0.74058 0.16359 0.91359 0.0
C447 C 0.7137 0.14622 0.89975 0.0
C448 C 0.74147 0.16191 0.9382 0.0
C449 C 0.71604 0.14442 0.94884 0.0
C450 C 0.6891 0.12781 0.93512 0.0
C451 C 0.6882 0.12839 0.91041 0.0
C452 C 0.84401 0.3117 0.94168 0.0
H453 H 0.77874 0.1617 0.79092 0.0
H454 H 0.76473 0.17057 0.82959 0.0
H455 H 0.85094 0.19997 0.86153 0.0
H456 H 0.86484 0.19067 0.82317 0.0
H457 H 0.7588 0.15301 0.87165 0.0
H458 H 0.83909 0.24007 0.87622 0.0
H459 H 0.78266 0.22106 0.93142 0.0
H460 H 0.80141 0.27545 0.92792 0.0
H461 H 0.87249 0.26149 0.91238 0.0
H462 H 0.90686 0.31186 0.93358 0.0
H463 H 0.71221 0.14715 0.88078 0.0
H464 H 0.76188 0.17432 0.94935 0.0
H465 H 0.83569 0.32529 0.94997 0.0
H466 H 0.66767 0.11584 0.89943 0.0
H467 H 0.71744 0.14387 0.96786 0.0
C468 C 0.61728 0.83332 0.20054 0.0
C469 C 0.63914 0.82593 0.20505 0.0
C470 C 0.60484 0.82982 0.17739 0.0
C471 C 0.61391 0.81871 0.15832 0.0
C472 C 0.63652 0.81251 0.16274 0.0
C473 C 0.64903 0.81616 0.18578 0.0
C474 C 0.59889 0.81185 0.13406 0.0
C475 C 0.59266 0.83308 0.12409 0.0
C476 C 0.5787 0.82643 0.10097 0.0
C477 C 0.57061 0.79799 0.08806 0.0
C478 C 0.57624 0.77634 0.0979 0.0
C479 C 0.59054 0.78357 0.12084 0.0
C480 C 0.56658 0.74584 0.08452 0.0
C481 C 0.55309 0.71861 0.09585 0.0
C482 C 0.57066 0.74364 0.06042 0.0
C483 C 0.56162 0.71483 0.04797 0.0
C484 C 0.54807 0.68761 0.05933 0.0
C485 C 0.5721 0.8488 0.09026 0.0
C486 C 0.56082 0.86423 0.1035 0.0
C487 C 0.57616 0.85411 0.06641 0.0
C488 C 0.56862 0.87389 0.05591 0.0
C489 C 0.55679 0.88885 0.06899 0.0
C490 C 0.5532 0.88398 0.09297 0.0
C491 C 0.54392 0.68986 0.0834 0.0
H492 H 0.60899 0.84068 0.21497 0.0
H493 H 0.58733 0.83462 0.17452 0.0
H494 H 0.64435 0.80448 0.14835 0.0
H495 H 0.6663 0.81098 0.18851 0.0
H496 H 0.59933 0.85507 0.1341 0.0
H497 H 0.59504 0.76699 0.12851 0.0
H498 H 0.55899 0.79222 0.07057 0.0
H499 H 0.54935 0.71949 0.11433 0.0
H500 H 0.58117 0.76424 0.05125 0.0
H501 H 0.56497 0.71382 0.02941 0.0
H502 H 0.55723 0.86048 0.12186 0.0
H503 H 0.58512 0.84285 0.05579 0.0
H504 H 0.53389 0.66939 0.09276 0.0
H505 H 0.54446 0.89544 0.10363 0.0
H506 H 0.57147 0.87691 0.03737 0.0
C507 C 0.2037 0.84467 0.19883 0.0
C508 C 0.19101 0.82008 0.21304 0.0
C509 C 0.21108 0.83997 0.17628 0.0
C510 C 0.20585 0.8106 0.16757 0.0
C511 C 0.1944 0.7865 0.18225 0.0
C512 C 0.18709 0.79117 0.20467 0.0
C513 C 0.21086 0.80431 0.14291 0.0
C514 C 0.23657 0.82462 0.13323 0.0
C515 C 0.24158 0.81725 0.11033 0.0
C516 C 0.22029 0.78977 0.09696 0.0
C517 C 0.19437 0.76952 0.10623 0.0
C518 C 0.18982 0.77706 0.12915 0.0
C519 C 0.17254 0.73987 0.0924 0.0
C520 C 0.16498 0.73862 0.06811 0.0
C521 C 0.15946 0.71241 0.10345 0.0
C522 C 0.13949 0.6843 0.09051 0.0
C523 C 0.13211 0.68293 0.06618 0.0
C524 C 0.26932 0.83746 0.10042 0.0
C525 C 0.28047 0.86948 0.10089 0.0
C526 C 0.28431 0.82447 0.08961 0.0
C527 C 0.30957 0.84295 0.07903 0.0
C528 C 0.32037 0.87488 0.07879 0.0
C529 C 0.30565 0.88799 0.09008 0.0
C530 C 0.14487 0.71044 0.05514 0.0
H531 H 0.20694 0.8672 0.20476 0.0
H532 H 0.21983 0.85896 0.16535 0.0
H533 H 0.19078 0.7638 0.17628 0.0
H534 H 0.17809 0.77198 0.21541 0.0
H535 H 0.25315 0.84546 0.14381 0.0
H536 H 0.16963 0.7617 0.13626 0.0
H537 H 0.22415 0.78392 0.07939 0.0
H538 H 0.17452 0.75946 0.05916 0.0
H539 H 0.16502 0.71252 0.12207 0.0
H540 H 0.12974 0.66359 0.09961 0.0
H541 H 0.26922 0.88004 0.10898 0.0
H542 H 0.27648 0.79992 0.08935 0.0
H543 H 0.13971 0.71008 0.0364 0.0
H544 H 0.31314 0.91242 0.09005 0.0
H545 H 0.32066 0.83214 0.07107 0.0
C546 C 0.21222 0.37271 0.20516 0.0
C547 C 0.18284 0.35096 0.20689 0.0
C548 C 0.221 0.38627 0.18408 0.0
C549 C 0.20054 0.37826 0.1644 0.0
C550 C 0.17149 0.35536 0.16586 0.0
C551 C 0.16275 0.34193 0.18685 0.0
C552 C 0.2088 0.39492 0.14288 0.0
C553 C 0.23454 0.40146 0.13291 0.0
C554 C 0.24183 0.41692 0.11232 0.0
C555 C 0.22323 0.42623 0.1021 0.0
C556 C 0.19742 0.41973 0.11175 0.0
C557 C 0.19049 0.40426 0.13219 0.0
C558 C 0.17732 0.42839 0.10014 0.0
C559 C 0.18804 0.4574 0.09146 0.0
C560 C 0.14722 0.40738 0.09727 0.0
C561 C 0.12827 0.41513 0.08589 0.0
C562 C 0.13897 0.44409 0.07712 0.0
C563 C 0.26841 0.42297 0.10102 0.0
C564 C 0.29476 0.43243 0.11472 0.0
C565 C 0.26775 0.42015 0.07622 0.0
C566 C 0.29289 0.42759 0.06536 0.0
C567 C 0.3194 0.43757 0.07897 0.0
C568 C 0.31995 0.43957 0.10382 0.0
C569 C 0.16907 0.46517 0.08008 0.0
H570 H 0.22817 0.3802 0.22037 0.0
H571 H 0.24351 0.40394 0.18353 0.0
H572 H 0.15534 0.34815 0.15083 0.0
H573 H 0.14008 0.32475 0.1875 0.0
H574 H 0.24837 0.39363 0.14073 0.0
H575 H 0.17096 0.39995 0.14007 0.0
H576 H 0.22866 0.43832 0.08636 0.0
H577 H 0.21109 0.47423 0.09367 0.0
H578 H 0.13833 0.38466 0.10343 0.0
H579 H 0.10525 0.39818 0.08358 0.0
H580 H 0.2961 0.43498 0.13387 0.0
H581 H 0.24775 0.41232 0.06506 0.0
H582 H 0.17797 0.48784 0.07384 0.0
H583 H 0.33985 0.44671 0.1149 0.0
H584 H 0.29157 0.42612 0.04622 0.0
C585 C 0.48313 0.94675 0.1355 0.0
C586 C 0.48208 0.9736 0.13181 0.0
C587 C 0.47439 0.93255 0.15618 0.0
C588 C 0.4643 0.94478 0.17367 0.0
C589 C 0.462 0.97084 0.16961 0.0
C590 C 0.47085 0.98517 0.14885 0.0
C591 C 0.45754 0.93092 0.19641 0.0
C592 C 0.47673 0.92324 0.20781 0.0
C593 C 0.47035 0.9086 0.2287 0.0
C594 C 0.44431 0.90172 0.23819 0.0
C595 C 0.42525 0.90997 0.22739 0.0
C596 C 0.43206 0.92482 0.20659 0.0
C597 C 0.39819 0.90275 0.23801 0.0
C598 C 0.37937 0.87261 0.24362 0.0
C599 C 0.39179 0.92616 0.24376 0.0
C600 C 0.36741 0.9197 0.2556 0.0
C601 C 0.34879 0.88961 0.26147 0.0
C602 C 0.49097 0.90074 0.2406 0.0
C603 C 0.50647 0.89048 0.22723 0.0
C604 C 0.49563 0.90382 0.26544 0.0
C605 C 0.51524 0.8968 0.2766 0.0
C606 C 0.53101 0.8869 0.26322 0.0
C607 C 0.52637 0.88386 0.23838 0.0
C608 C 0.35478 0.86604 0.25508 0.0
H609 H 0.49094 0.93678 0.12244 0.0
H610 H 0.47579 0.91207 0.1586 0.0
H611 H 0.45436 0.98078 0.18284 0.0
H612 H 0.46985 0.00588 0.14651 0.0
H613 H 0.49701 0.92927 0.20053 0.0
H614 H 0.41708 0.93062 0.19794 0.0
H615 H 0.43879 0.88998 0.2541 0.0
H616 H 0.38384 0.85417 0.23928 0.0
H617 H 0.40611 0.94961 0.2397 0.0
H618 H 0.36313 0.9382 0.26023 0.0
H619 H 0.50316 0.88739 0.20807 0.0
H620 H 0.4844 0.91204 0.27633 0.0
H621 H 0.34085 0.8427 0.25952 0.0
H622 H 0.53834 0.87667 0.22746 0.0
H623 H 0.51784 0.89895 0.29575 0.0
C624 C 0.02949 0.49102 0.15085 0.0
C625 C 0.04144 0.51528 0.1363 0.0
C626 C 0.04161 0.49521 0.17422 0.0
C627 C 0.06584 0.52376 0.18345 0.0
C628 C 0.07848 0.54748 0.16855 0.0
C629 C 0.06647 0.54328 0.14528 0.0
C630 C 0.07732 0.52959 0.20877 0.0
C631 C 0.08195 0.5079 0.2198 0.0
C632 C 0.09413 0.51439 0.24349 0.0
C633 C 0.10091 0.54248 0.25624 0.0
C634 C 0.0963 0.56428 0.24551 0.0
C635 C 0.08442 0.55759 0.22182 0.0
C636 C 0.10498 0.59455 0.25875 0.0
C637 C 0.09877 0.5963 0.28231 0.0
C638 C 0.12008 0.62204 0.24797 0.0
C639 C 0.12896 0.65066 0.26049 0.0
C640 C 0.12288 0.65247 0.28407 0.0
C641 C 0.10129 0.49278 0.25471 0.0
C642 C 0.08156 0.46071 0.25215 0.0
C643 C 0.12815 0.50433 0.26821 0.0
C644 C 0.13514 0.48436 0.27896 0.0
C645 C 0.11546 0.4523 0.27648 0.0
C646 C 0.08853 0.44066 0.26303 0.0
C647 C 0.10754 0.62497 0.29482 0.0
H648 H 0.01014 0.46922 0.14449 0.0
H649 H 0.03139 0.47655 0.18533 0.0
H650 H 0.09757 0.56949 0.17498 0.0
H651 H 0.07665 0.56217 0.13436 0.0
H652 H 0.07725 0.48662 0.20967 0.0
H653 H 0.08041 0.57417 0.21356 0.0
H654 H 0.11037 0.54767 0.27446 0.0
H655 H 0.08698 0.57548 0.29102 0.0
H656 H 0.12545 0.62148 0.22993 0.0
H657 H 0.14041 0.67139 0.25161 0.0
H658 H 0.06064 0.45117 0.24195 0.0
H659 H 0.14399 0.52888 0.27027 0.0
H660 H 0.10268 0.62565 0.31301 0.0
H661 H 0.07303 0.41603 0.26063 0.0
H662 H 0.15595 0.49408 0.28938 0.0
C663 C 0.45708 0.50045 0.13812 0.0
C664 C 0.48565 0.50715 0.13555 0.0
C665 C 0.44887 0.50435 0.16047 0.0
C666 C 0.4691 0.51511 0.18063 0.0
C667 C 0.49719 0.52036 0.17816 0.0
C668 C 0.50535 0.5164 0.15592 0.0
C669 C 0.46189 0.52309 0.20392 0.0
C670 C 0.43552 0.50308 0.21293 0.0
C671 C 0.4293 0.51099 0.23517 0.0
C672 C 0.44947 0.53947 0.248 0.0
C673 C 0.47571 0.55977 0.23918 0.0
C674 C 0.48174 0.55135 0.21717 0.0
C675 C 0.49671 0.58985 0.25291 0.0
C676 C 0.48694 0.6081 0.26434 0.0
C677 C 0.52667 0.60058 0.25464 0.0
C678 C 0.54643 0.62899 0.26739 0.0
C679 C 0.53668 0.64734 0.27868 0.0
C680 C 0.40192 0.4899 0.24535 0.0
C681 C 0.37508 0.47459 0.23132 0.0
C682 C 0.40237 0.48626 0.26967 0.0
C683 C 0.37659 0.46884 0.2799 0.0
C684 C 0.3497 0.45436 0.26606 0.0
C685 C 0.34921 0.45692 0.24157 0.0
C686 C 0.50669 0.6365 0.27708 0.0
H687 H 0.44142 0.49346 0.12276 0.0
H688 H 0.42711 0.50027 0.16183 0.0
H689 H 0.51309 0.5281 0.19344 0.0
H690 H 0.52731 0.52106 0.15464 0.0
H691 H 0.4203 0.48106 0.20296 0.0
H692 H 0.50168 0.56728 0.20999 0.0
H693 H 0.44474 0.54591 0.265 0.0
H694 H 0.46402 0.60064 0.26316 0.0
H695 H 0.53486 0.58692 0.24625 0.0
H696 H 0.56941 0.63683 0.26803 0.0
H697 H 0.37398 0.4771 0.21258 0.0
H698 H 0.42271 0.49712 0.2809 0.0
H699 H 0.49845 0.64994 0.28576 0.0
H700 H 0.32876 0.44607 0.23048 0.0
H701 H 0.3777 0.46671 0.29871 0.0
Tb702 Tb 0.53607 0.02815 1.00212 0.0
C703 C 0.52041 0.96618 0.02387 0.0
Tb704 Tb 0.47146 0.98318 0.01121 0.0
O705 O 0.55027 0.03747 0.04003 0.0
O706 O 0.50786 0.02442 0.02783 0.0
O707 O 0.53902 0.9884 0.01175 0.0
C708 C 0.42269 0.94921 0.03134 0.0
O709 O 0.49431 0.96191 0.02738 0.0
C710 C 0.48315 0.98228 0.96698 0.0
C711 C 0.48676 0.04581 0.99137 0.0
O712 O 0.43141 0.93919 0.01379 0.0
O713 O 0.44126 0.97829 0.03731 0.0
O714 O 0.45717 0.97315 0.97301 0.0
O715 O 0.49977 0.98742 0.9854 0.0
O716 O 0.46805 0.02293 0.00293 0.0
O717 O 0.51297 0.05039 0.98764 0.0
C718 C 0.58516 0.05988 0.98188 0.0
O719 O 0.5756 0.07167 0.99751 0.0
O720 O 0.56726 0.03029 0.97783 0.0
C721 C 0.5245 0.02932 0.04618 0.0
Tb722 Tb 0.98393 0.51681 0.99808 0.0
C723 C 0.04765 0.56282 0.01832 0.0
Tb724 Tb 0.02418 0.49101 0.00874 0.0
O725 O 0.98225 0.52687 0.03574 0.0
O726 O 0.98937 0.49141 0.02424 0.0
O727 O 0.02606 0.55942 0.0033 0.0
C728 C 0.0601 0.47501 0.02933 0.0
O729 O 0.04896 0.5387 0.02512 0.0
C730 C 0.0172 0.4995 0.96443 0.0
C731 C 0.9597 0.44388 0.98884 0.0
O732 O 0.06521 0.4909 0.01123 0.0
O733 O 0.03474 0.46795 0.03565 0.0
O734 O 0.02296 0.47866 0.97104 0.0
O735 O 0.01859 0.51637 0.98241 0.0
O736 O 0.9839 0.44728 0.99981 0.0
O737 O 0.95568 0.46758 0.98567 0.0
C738 C 0.94877 0.53397 0.97766 0.0
O739 O 0.95595 0.51518 0.96765 0.0
O740 O 0.96136 0.54305 0.99907 0.0
C741 C 0.98924 0.50701 0.04236 0.0
Tb742 Tb 0.47033 0.49284 0.00817 0.0
C743 C 0.48985 0.44619 0.99079 0.0
Tb744 Tb 0.53402 0.51907 0.99801 0.0
O745 O 0.45534 0.4833 0.97031 0.0
O746 O 0.49713 0.5186 0.98226 0.0
O747 O 0.47176 0.45017 0.0037 0.0
C748 C 0.58251 0.5361 0.97689 0.0
O749 O 0.51447 0.46991 0.98523 0.0
C750 C 0.52336 0.50812 0.04204 0.0
C751 C 0.51441 0.56568 0.01541 0.0
O752 O 0.55641 0.51598 0.96773 0.0
O753 O 0.58136 0.54643 0.99803 0.0
O754 O 0.54859 0.52826 0.03606 0.0
O755 O 0.50712 0.493 0.02358 0.0
O756 O 0.5327 0.56186 0.00262 0.0
O757 O 0.48976 0.54189 0.02079 0.0
C758 C 0.42268 0.47588 0.03047 0.0
O759 O 0.44896 0.49619 0.03906 0.0
O760 O 0.42313 0.46542 0.00916 0.0
C761 C 0.48053 0.50306 0.96398 0.0
Tb762 Tb 0.1961 0.35311 0.33227 0.0
C763 C 0.18027 0.29036 0.35198 0.0
Tb764 Tb 0.13142 0.30849 0.3409 0.0
O765 O 0.21038 0.36277 0.37039 0.0
O766 O 0.16773 0.34892 0.35816 0.0
O767 O 0.19905 0.31312 0.34041 0.0
C768 C 0.08176 0.27552 0.36009 0.0
O769 O 0.15415 0.28603 0.35571 0.0
C770 C 0.14345 0.30784 0.29693 0.0
C771 C 0.1478 0.37114 0.32009 0.0
O772 O 0.09201 0.26444 0.34455 0.0
O773 O 0.09933 0.30512 0.36468 0.0
O774 O 0.11771 0.30011 0.30289 0.0
O775 O 0.15976 0.31214 0.31535 0.0
O776 O 0.12879 0.34857 0.33173 0.0
O777 O 0.17388 0.37529 0.31674 0.0
C778 C 0.24473 0.38594 0.31166 0.0
O779 O 0.23705 0.39628 0.32975 0.0
O780 O 0.22524 0.35723 0.30547 0.0
C781 C 0.18444 0.3538 0.3765 0.0
Tb782 Tb 0.6455 0.84116 0.33376 0.0
C783 C 0.70795 0.88703 0.35639 0.0
Tb784 Tb 0.68607 0.81611 0.34548 0.0
O785 O 0.64113 0.84993 0.37104 0.0
O786 O 0.65058 0.8159 0.36033 0.0
O787 O 0.68752 0.88369 0.34009 0.0
C788 C 0.72164 0.79955 0.36584 0.0
O789 O 0.70849 0.8628 0.36391 0.0
C790 C 0.6813 0.82607 0.3011 0.0
C791 C 0.62204 0.76865 0.32428 0.0
O792 O 0.72978 0.82403 0.35482 0.0
O793 O 0.69358 0.78442 0.36539 0.0
O794 O 0.68794 0.80594 0.30779 0.0
O795 O 0.68114 0.84173 0.31915 0.0
O796 O 0.64601 0.77228 0.33581 0.0
O797 O 0.61789 0.79217 0.32089 0.0
C798 C 0.61107 0.85732 0.31071 0.0
O799 O 0.61766 0.83722 0.30245 0.0
O800 O 0.62385 0.86836 0.33196 0.0
C801 C 0.64913 0.83102 0.37818 0.0
Tb802 Tb 0.14157 0.8226 0.34863 0.0
C803 C 0.15811 0.77391 0.32979 0.0
Tb804 Tb 0.20496 0.84652 0.33849 0.0
O805 O 0.12728 0.80983 0.31079 0.0
O806 O 0.16867 0.84681 0.3224 0.0
O807 O 0.13857 0.77816 0.34024 0.0
C808 C 0.25114 0.86015 0.31498 0.0
O809 O 0.18447 0.79704 0.32688 0.0
C810 C 0.19486 0.83753 0.38279 0.0
C811 C 0.18785 0.89431 0.35667 0.0
O812 O 0.22452 0.83937 0.30778 0.0
O813 O 0.25197 0.87315 0.33569 0.0
O814 O 0.22031 0.85647 0.37638 0.0
O815 O 0.17802 0.82221 0.36456 0.0
O816 O 0.2043 0.88953 0.34231 0.0
O817 O 0.16405 0.87107 0.36374 0.0
C818 C 0.0924 0.80621 0.36827 0.0
O819 O 0.0998 0.82083 0.34951 0.0
O820 O 0.11269 0.80103 0.37593 0.0
C821 C 0.15221 0.83016 0.30433 0.0
Tb822 Tb 0.86584 0.69316 0.66948 0.0
C823 C 0.84833 0.6248 0.68175 0.0
Tb824 Tb 0.80044 0.64381 0.67213 0.0
O825 O 0.86925 0.71468 0.70555 0.0
O826 O 0.83886 0.66876 0.69501 0.0
O827 O 0.86829 0.65126 0.6743 0.0
C828 C 0.74876 0.61462 0.68919 0.0
O829 O 0.82138 0.61861 0.68453 0.0
C830 C 0.81991 0.64671 0.63047 0.0
C831 C 0.81818 0.71237 0.66007 0.0
O832 O 0.75623 0.60397 0.67112 0.0
O833 O 0.77021 0.64177 0.69734 0.0
O834 O 0.79723 0.62206 0.63625 0.0
O835 O 0.82738 0.66819 0.64657 0.0
O836 O 0.79803 0.68574 0.66721 0.0
O837 O 0.84514 0.71857 0.65743 0.0
C838 C 0.91731 0.72222 0.65203 0.0
O839 O 0.91008 0.73293 0.67023 0.0
O840 O 0.89578 0.69505 0.64403 0.0
C841 C 0.84639 0.69012 0.71123 0.0
Tb842 Tb 0.31284 0.17616 0.66887 0.0
C843 C 0.37834 0.22971 0.68159 0.0
Tb844 Tb 0.36173 0.16019 0.67287 0.0
O845 O 0.29863 0.15871 0.70315 0.0
O846 O 0.34146 0.17616 0.69581 0.0
O847 O 0.3525 0.22209 0.67085 0.0
C848 C 0.39609 0.13999 0.68958 0.0
O849 O 0.38454 0.20837 0.6876 0.0
C850 C 0.35044 0.17265 0.6308 0.0
C851 C 0.29524 0.1058 0.66145 0.0
O852 O 0.40405 0.1631 0.67694 0.0
O853 O 0.36878 0.12806 0.69259 0.0
O854 O 0.37522 0.17528 0.63787 0.0
O855 O 0.33316 0.15984 0.64596 0.0
O856 O 0.32289 0.11383 0.66681 0.0
O857 O 0.2864 0.12623 0.66029 0.0
C858 C 0.27709 0.19435 0.65133 0.0
O859 O 0.28819 0.20025 0.67325 0.0
O860 O 0.28615 0.17845 0.6396 0.0
C861 C 0.32376 0.1622 0.71045 0.0
Tb862 Tb 0.80571 0.15826 0.67786 0.0
C863 C 0.824 0.11141 0.65844 0.0
Tb864 Tb 0.86916 0.18387 0.66633 0.0
O865 O 0.79 0.14989 0.6402 0.0
O866 O 0.83214 0.18415 0.65187 0.0
O867 O 0.80692 0.11556 0.6725 0.0
C868 C 0.91697 0.20076 0.64406 0.0
O869 O 0.84841 0.13497 0.65246 0.0
C870 C 0.85949 0.17228 0.71045 0.0
C871 C 0.85039 0.23077 0.68526 0.0
O872 O 0.89082 0.1795 0.6359 0.0
O873 O 0.91627 0.21233 0.66488 0.0
O874 O 0.88472 0.19192 0.70413 0.0
O875 O 0.84268 0.15777 0.69212 0.0
O876 O 0.86788 0.22666 0.6716 0.0
O877 O 0.826 0.20718 0.69126 0.0
C878 C 0.75708 0.13921 0.69922 0.0
O879 O 0.75857 0.1296 0.67796 0.0
O880 O 0.78297 0.16002 0.70843 0.0
C881 C 0.81512 0.16938 0.63365 0.0
C882 C 0.3672 0.92463 0.07592 0.0
C883 C 0.34658 0.89419 0.0665 0.0
H884 H 0.4074 0.96586 0.07211 0.0
C885 C 0.35124 0.88225 0.04518 0.0
H886 H 0.36459 0.93446 0.09245 0.0
C887 C 0.37598 0.90012 0.03374 0.0
C888 C 0.39643 0.93042 0.04322 0.0
H889 H 0.33562 0.85914 0.03714 0.0
H890 H 0.37901 0.89027 0.01741 0.0
C891 C 0.39181 0.94258 0.06435 0.0
C892 C 0.12607 0.4678 0.04438 0.0
C893 C 0.11878 0.45216 0.06484 0.0
H894 H 0.11307 0.48717 0.01701 0.0
C895 C 0.09196 0.44412 0.07343 0.0
H896 H 0.1464 0.47397 0.03715 0.0
C897 C 0.07285 0.45147 0.06179 0.0
C898 C 0.08019 0.46702 0.04136 0.0
H899 H 0.08586 0.43247 0.08932 0.0
H900 H 0.05239 0.44514 0.06887 0.0
C901 C 0.10695 0.47517 0.03276 0.0
C902 C 0.51168 0.63106 0.04985 0.0
C903 C 0.5385 0.65689 0.04635 0.0
H904 H 0.48292 0.58228 0.04267 0.0
C905 C 0.55649 0.65282 0.03118 0.0
H906 H 0.49711 0.63351 0.06111 0.0
C907 C 0.54831 0.62335 0.02046 0.0
C908 C 0.5219 0.59737 0.02461 0.0
H909 H 0.57737 0.67224 0.02825 0.0
H910 H 0.56306 0.62088 0.00944 0.0
C911 C 0.50347 0.60169 0.03911 0.0
C912 C 0.89154 0.37893 0.9538 0.0
C913 C 0.89502 0.35327 0.9564 0.0
H914 H 0.90905 0.42754 0.96202 0.0
C915 C 0.91915 0.35738 0.97085 0.0
H916 H 0.87336 0.37663 0.9426 0.0
C917 C 0.93973 0.38662 0.98193 0.0
C918 C 0.93664 0.41244 0.97884 0.0
H919 H 0.92221 0.33798 0.97354 0.0
H920 H 0.9583 0.38901 0.99262 0.0
C921 C 0.9121 0.40817 0.9649 0.0
C922 C 0.66093 0.58081 0.96393 0.0
C923 C 0.66028 0.56459 0.94267 0.0
H924 H 0.63674 0.58413 0.99165 0.0
C925 C 0.63376 0.53912 0.93258 0.0
H926 H 0.68116 0.60036 0.97216 0.0
C927 C 0.60834 0.53004 0.94358 0.0
C928 C 0.60915 0.54596 0.96505 0.0
H929 H 0.6327 0.52635 0.91612 0.0
H930 H 0.58814 0.51039 0.93543 0.0
C931 C 0.63561 0.57143 0.97513 0.0
C932 C 0.48527 0.1061 0.95526 0.0
C933 C 0.45863 0.10354 0.95991 0.0
H934 H 0.51515 0.09018 0.96162 0.0
C935 C 0.44175 0.08255 0.97562 0.0
H936 H 0.49897 0.12236 0.94349 0.0
C937 C 0.45107 0.06415 0.98613 0.0
C938 C 0.47757 0.06645 0.98127 0.0
H939 H 0.42101 0.07987 0.97941 0.0
H940 H 0.43731 0.04791 0.99789 0.0
C941 C 0.49466 0.08781 0.96584 0.0
C942 C 0.64129 0.07982 0.93823 0.0
C943 C 0.6621 0.11048 0.94676 0.0
H944 H 0.60066 0.03961 0.94294 0.0
C945 C 0.65719 0.12448 0.96678 0.0
H946 H 0.64459 0.06844 0.9229 0.0
C947 C 0.63202 0.10812 0.97811 0.0
C948 C 0.61153 0.07733 0.96982 0.0
H949 H 0.67274 0.14822 0.97357 0.0
H950 H 0.62875 0.11945 0.99348 0.0
C951 C 0.6163 0.06331 0.94977 0.0
C952 C 0.89362 0.53671 0.93496 0.0
C953 C 0.89056 0.56045 0.94646 0.0
H954 H 0.91471 0.50992 0.93575 0.0
C955 C 0.90717 0.57548 0.96821 0.0
H956 H 0.88089 0.52427 0.91838 0.0
C957 C 0.92606 0.56679 0.97832 0.0
C958 C 0.92905 0.54319 0.96676 0.0
H959 H 0.9059 0.59427 0.97736 0.0
H960 H 0.9385 0.57873 0.99512 0.0
C961 C 0.91283 0.52831 0.94494 0.0
C962 C 0.49165 0.37948 0.9575 0.0
C963 C 0.4653 0.3539 0.96224 0.0
H964 H 0.52021 0.42852 0.96289 0.0
C965 C 0.4479 0.35877 0.97758 0.0
H966 H 0.50577 0.37645 0.94605 0.0
C967 C 0.45626 0.38864 0.98739 0.0
C968 C 0.48224 0.41431 0.98211 0.0
H969 H 0.42734 0.33961 0.98143 0.0
H970 H 0.44198 0.39161 0.99867 0.0
C971 C 0.50003 0.40932 0.96731 0.0
C972 C 0.11339 0.62642 0.05642 0.0
C973 C 0.11147 0.65271 0.0525 0.0
H974 H 0.09512 0.57775 0.04863 0.0
C975 C 0.08931 0.64961 0.03603 0.0
H976 H 0.13053 0.62813 0.06866 0.0
C977 C 0.06891 0.62055 0.02434 0.0
C978 C 0.07039 0.59412 0.02886 0.0
H979 H 0.08721 0.66945 0.03272 0.0
H980 H 0.05164 0.61872 0.01222 0.0
C981 C 0.09314 0.59752 0.04478 0.0
C982 C 0.3733 0.47168 0.07699 0.0
C983 C 0.34633 0.44654 0.06714 0.0
H984 H 0.41865 0.50057 0.0731 0.0
C985 C 0.3451 0.43074 0.04537 0.0
H986 H 0.37511 0.48467 0.09355 0.0
C987 C 0.36992 0.44037 0.03344 0.0
C988 C 0.39661 0.4657 0.04317 0.0
H989 H 0.32493 0.41086 0.03747 0.0
H990 H 0.36821 0.42791 0.01663 0.0
C991 C 0.39822 0.48103 0.06518 0.0
C992 C 0.56471 0.92917 0.04145 0.0
C993 C 0.54764 0.90887 0.05749 0.0
H994 H 0.56959 0.96311 0.01824 0.0
C995 C 0.52147 0.90744 0.0622 0.0
H996 H 0.58515 0.9311 0.03763 0.0
C997 C 0.51254 0.92578 0.05109 0.0
C998 C 0.52959 0.94608 0.03503 0.0
H999 H 0.50762 0.8918 0.07424 0.0
H1000 H 0.4923 0.92413 0.05527 0.0
C1001 C 0.55582 0.94762 0.03039 0.0
C1002 C 0.02522 0.25284 0.40358 0.0
C1003 C 0.00564 0.2216 0.39542 0.0
H1004 H 0.06461 0.29438 0.39867 0.0
C1005 C 0.01118 0.20854 0.37516 0.0
H1006 H 0.02194 0.26356 0.4193 0.0
C1007 C 0.03588 0.22611 0.36361 0.0
C1008 C 0.05534 0.25719 0.37187 0.0
H1009 H 0.99633 0.18477 0.36806 0.0
H1010 H 0.03968 0.21539 0.34816 0.0
C1011 C 0.04975 0.27048 0.39185 0.0
C1012 C 0.74931 0.74921 0.38874 0.0
C1013 C 0.77847 0.7711 0.3968 0.0
H1014 H 0.70843 0.74125 0.37307 0.0
C1015 C 0.78845 0.80265 0.39469 0.0
H1016 H 0.7408 0.72469 0.38944 0.0
C1017 C 0.77005 0.81188 0.38437 0.0
C1018 C 0.74106 0.78993 0.37665 0.0
H1019 H 0.81041 0.8204 0.40118 0.0
H1020 H 0.77836 0.83625 0.38282 0.0
C1021 C 0.73073 0.75861 0.37912 0.0
C1022 C 0.23178 0.9817 0.36945 0.0
C1023 C 0.21407 0.98756 0.3837 0.0
H1024 H 0.23731 0.94776 0.34952 0.0
C1025 C 0.1873 0.96261 0.38841 0.0
H1026 H 0.2524 0.0005 0.36531 0.0
C1027 C 0.1786 0.9324 0.37936 0.0
C1028 C 0.19644 0.92647 0.3653 0.0
H1029 H 0.17332 0.96636 0.39955 0.0
H1030 H 0.15802 0.91369 0.38363 0.0
C1031 C 0.22303 0.95149 0.36028 0.0
C1032 C 0.58217 0.68227 0.30566 0.0
C1033 C 0.55778 0.67804 0.29152 0.0
H1034 H 0.62143 0.71402 0.32729 0.0
C1035 C 0.55406 0.70359 0.2892 0.0
H1036 H 0.58545 0.66295 0.30807 0.0
C1037 C 0.57453 0.73281 0.30034 0.0
C1038 C 0.59926 0.7372 0.31407 0.0
H1039 H 0.53571 0.70123 0.2782 0.0
H1040 H 0.57122 0.75206 0.29772 0.0
C1041 C 0.60269 0.71152 0.31681 0.0
C1042 C 0.29608 0.8571 0.26713 0.0
C1043 C 0.32357 0.88279 0.27479 0.0
H1044 H 0.25149 0.83006 0.27381 0.0
C1045 C 0.32705 0.90127 0.2957 0.0
H1046 H 0.29281 0.84262 0.25099 0.0
C1047 C 0.30352 0.89384 0.30894 0.0
C1048 C 0.2761 0.86807 0.30129 0.0
H1049 H 0.3481 0.92107 0.30207 0.0
H1050 H 0.30676 0.90824 0.32511 0.0
C1051 C 0.2725 0.84994 0.28017 0.0
C1052 C 0.15147 0.43576 0.28667 0.0
C1053 C 0.12341 0.43124 0.28765 0.0
H1054 H 0.18114 0.42058 0.29609 0.0
C1055 C 0.10334 0.40683 0.29956 0.0
H1056 H 0.16731 0.45407 0.27733 0.0
C1057 C 0.11127 0.38748 0.3104 0.0
C1058 C 0.13939 0.39208 0.30943 0.0
H1059 H 0.08162 0.40295 0.30078 0.0
H1060 H 0.0953 0.36887 0.31942 0.0
C1061 C 0.15935 0.41643 0.29739 0.0
C1062 C 0.31848 0.44968 0.29871 0.0
C1063 C 0.32234 0.43709 0.27736 0.0
H1064 H 0.29071 0.44343 0.32622 0.0
C1065 C 0.30014 0.40781 0.26717 0.0
H1066 H 0.33506 0.47238 0.30682 0.0
C1067 C 0.27486 0.39123 0.27835 0.0
C1068 C 0.27121 0.40375 0.29979 0.0
H1069 H 0.30256 0.39747 0.25081 0.0
H1070 H 0.2582 0.36856 0.27024 0.0
C1071 C 0.29308 0.43323 0.30976 0.0
C1072 C 0.55543 0.85522 0.26564 0.0
C1073 C 0.55212 0.87973 0.27514 0.0
H1074 H 0.57695 0.82916 0.26938 0.0
C1075 C 0.56904 0.89721 0.29625 0.0
H1076 H 0.54251 0.84095 0.24964 0.0
C1077 C 0.58831 0.88998 0.30777 0.0
C1078 C 0.59135 0.86543 0.29827 0.0
H1079 H 0.56758 0.91664 0.30384 0.0
H1080 H 0.60087 0.90367 0.32408 0.0
C1081 C 0.575 0.84829 0.27701 0.0
C1082 C 0.16035 0.70826 0.29535 0.0
C1083 C 0.13253 0.68303 0.29726 0.0
H1084 H 0.19035 0.75651 0.30427 0.0
C1085 C 0.11377 0.68749 0.31121 0.0
H1086 H 0.17546 0.70545 0.28503 0.0
C1087 C 0.12233 0.71682 0.32239 0.0
C1088 C 0.14989 0.74226 0.31993 0.0
H1089 H 0.09212 0.66852 0.31289 0.0
H1090 H 0.10709 0.71964 0.33251 0.0
C1091 C 0.16895 0.73751 0.30657 0.0
C1092 C 0.75024 0.97414 0.372 0.0
C1093 C 0.77188 0.97769 0.38924 0.0
H1094 H 0.71299 0.94273 0.34807 0.0
C1095 C 0.77289 0.95136 0.39486 0.0
H1096 H 0.74874 0.99396 0.36743 0.0
C1097 C 0.7524 0.92208 0.3839 0.0
C1098 C 0.7304 0.91839 0.36699 0.0
H1099 H 0.7896 0.95335 0.40775 0.0
H1100 H 0.75374 0.90231 0.38888 0.0
C1101 C 0.72968 0.94477 0.36099 0.0
C1102 C 0.01651 0.78912 0.37741 0.0
C1103 C 0.0111 0.77328 0.39778 0.0
H1104 H 0.04671 0.81223 0.35217 0.0
C1105 C 0.03298 0.76904 0.40858 0.0
H1106 H 1.00024 0.79315 0.3689 0.0
C1107 C 0.05956 0.78011 0.39909 0.0
C1108 C 0.06477 0.79566 0.37865 0.0
H1109 H 0.02939 0.75669 0.42416 0.0
H1110 H 0.07593 0.77627 0.40766 0.0
C1111 C 0.04314 0.80024 0.36794 0.0
C1112 C 0.182 0.23035 0.38829 0.0
C1113 C 0.2085 0.23275 0.38334 0.0
H1114 H 0.15216 0.24641 0.38216 0.0
C1115 C 0.22516 0.25355 0.36745 0.0
H1116 H 0.16852 0.21426 0.40025 0.0
C1117 C 0.21574 0.27185 0.35697 0.0
C1118 C 0.18939 0.2697 0.36208 0.0
H1119 H 0.24582 0.25618 0.36346 0.0
H1120 H 0.22934 0.28791 0.34504 0.0
C1121 C 0.17252 0.24859 0.37774 0.0
C1122 C 0.69226 0.59294 0.73282 0.0
C1123 C 0.67002 0.56369 0.7225 0.0
H1124 H 0.73456 0.63195 0.73031 0.0
C1125 C 0.67358 0.55198 0.70057 0.0
H1126 H 0.69047 0.60255 0.74979 0.0
C1127 C 0.69897 0.56872 0.68955 0.0
C1128 C 0.72127 0.59764 0.7001 0.0
H1129 H 0.65671 0.52981 0.69186 0.0
H1130 H 0.70123 0.55892 0.67284 0.0
C1131 C 0.71759 0.60975 0.72171 0.0
C1132 C 0.4629 0.14366 0.71891 0.0
C1133 C 0.45216 0.11283 0.72399 0.0
H1134 H 0.45368 0.17612 0.7035 0.0
C1135 C 0.42271 0.09095 0.71684 0.0
H1136 H 0.48511 0.16153 0.72453 0.0
C1137 C 0.40447 0.0998 0.70565 0.0
C1138 C 0.41547 0.13044 0.70057 0.0
H1139 H 0.41358 0.06684 0.71971 0.0
H1140 H 0.38182 0.08259 0.70072 0.0
C1141 C 0.44486 0.15221 0.70699 0.0
C1142 C 0.89282 0.31815 0.69913 0.0
C1143 C 0.87543 0.32292 0.71454 0.0
H1144 H 0.89861 0.28538 0.67775 0.0
C1145 C 0.84902 0.29734 0.71915 0.0
H1146 H 0.91341 0.33734 0.69537 0.0
C1147 C 0.84056 0.26757 0.70913 0.0
C1148 C 0.85831 0.26265 0.69423 0.0
H1149 H 0.8349 0.30029 0.73064 0.0
H1150 H 0.8203 0.24839 0.71343 0.0
C1151 C 0.88437 0.28833 0.6891 0.0
C1152 C 0.22376 0.0313 0.64453 0.0
C1153 C 0.23278 0.01254 0.63268 0.0
H1154 H 0.23639 0.07547 0.66291 0.0
C1155 C 0.26281 0.02416 0.63219 0.0
H1156 H 0.20095 0.02303 0.6459 0.0
C1157 C 0.28312 0.05388 0.64267 0.0
C1158 C 0.27393 0.073 0.65346 0.0
H1159 H 0.27078 0.01084 0.62294 0.0
H1160 H 0.30598 0.06238 0.64128 0.0
C1161 C 0.24408 0.0613 0.65454 0.0
C1162 C 0.9946 0.24571 0.62881 0.0
C1163 C 0.99358 0.22827 0.6081 0.0
H1164 H 0.97114 0.25034 0.65664 0.0
C1165 C 0.96702 0.202 0.59908 0.0
H1166 H 0.01486 0.2659 0.63625 0.0
C1167 C 0.94198 0.19329 0.61061 0.0
C1168 C 0.94319 0.21038 0.63158 0.0
H1169 H 0.96561 0.18826 0.58307 0.0
H1170 H 0.92177 0.17297 0.60328 0.0
C1171 C 0.96967 0.23672 0.64054 0.0
C1172 C 0.77169 0.7462 0.64065 0.0
C1173 C 0.79142 0.77161 0.62934 0.0
H1174 H 0.76464 0.70776 0.65955 0.0
C1175 C 0.8203 0.77824 0.62953 0.0
H1176 H 0.74939 0.74071 0.64115 0.0
C1177 C 0.82913 0.7597 0.64034 0.0
C1178 C 0.80928 0.73382 0.65111 0.0
H1179 H 0.83603 0.79731 0.62073 0.0
H1180 H 0.85143 0.76527 0.63961 0.0
C1181 C 0.78051 0.72748 0.65141 0.0
C1182 C 0.99308 0.7838 0.64089 0.0
C1183 C 0.99675 0.77152 0.61928 0.0
H1184 H 0.96507 0.77787 0.66816 0.0
C1185 C 0.97406 0.74271 0.6087 0.0
H1186 H 0.00996 0.80614 0.64935 0.0
C1187 C 0.94839 0.72654 0.61954 0.0
C1188 C 0.94481 0.73893 0.64108 0.0
H1189 H 0.97626 0.7325 0.59218 0.0
H1190 H 0.93125 0.70442 0.61095 0.0
C1191 C 0.96735 0.76771 0.65164 0.0
C1192 C 0.23643 0.23719 0.64147 0.0
C1193 C 0.22135 0.22342 0.61892 0.0
H1194 H 0.26575 0.23856 0.6696 0.0
C1195 C 0.22427 0.19942 0.60779 0.0
H1196 H 0.23507 0.25598 0.65051 0.0
C1197 C 0.24232 0.19009 0.61849 0.0
C1198 C 0.25745 0.20401 0.64082 0.0
H1199 H 0.21248 0.1876 0.59077 0.0
H1200 H 0.24433 0.1718 0.60926 0.0
C1201 C 0.25414 0.22739 0.6524 0.0
C1202 C 0.8222 0.04452 0.62203 0.0
C1203 C 0.79606 0.01918 0.62741 0.0
H1204 H 0.85168 0.09339 0.62772 0.0
C1205 C 0.77996 0.02426 0.644 0.0
H1206 H 0.83534 0.04133 0.6096 0.0
C1207 C 0.78944 0.05408 0.65457 0.0
C1208 C 0.81527 0.07952 0.64881 0.0
H1209 H 0.7596 0.00529 0.64837 0.0
H1210 H 0.77616 0.05721 0.6669 0.0
C1211 C 0.83169 0.07435 0.6326 0.0
C1212 C 0.4123 0.31636 0.69807 0.0
C1213 C 0.43766 0.32307 0.71213 0.0
H1214 H 0.37339 0.28141 0.6773 0.0
C1215 C 0.44439 0.29962 0.71425 0.0
H1216 H 0.40665 0.33409 0.69615 0.0
C1217 C 0.42567 0.26976 0.70342 0.0
C1218 C 0.39954 0.26246 0.69029 0.0
H1219 H 0.46404 0.30428 0.72463 0.0
H1220 H 0.43142 0.25222 0.70597 0.0
C1221 C 0.3933 0.28623 0.68732 0.0
C1222 C 0.70408 0.13102 0.74363 0.0
C1223 C 0.67821 0.10476 0.73316 0.0
H1224 H 0.74941 0.16242 0.74115 0.0
C1225 C 0.67905 0.08965 0.71178 0.0
H1226 H 0.70429 0.14356 0.75991 0.0
C1227 C 0.7047 0.10099 0.70081 0.0
C1228 C 0.73026 0.12738 0.71113 0.0
H1229 H 0.65986 0.06898 0.70343 0.0
H1230 H 0.70452 0.08898 0.68425 0.0
C1231 C 0.72989 0.14207 0.7328 0.0
C1232 C 0.84974 0.56329 0.71621 0.0
C1233 C 0.8779 0.56871 0.71389 0.0
H1234 H 0.81812 0.57619 0.70756 0.0
C1235 C 0.89559 0.59127 0.69946 0.0
H1236 H 0.83544 0.54571 0.72689 0.0
C1237 C 0.88567 0.60883 0.6883 0.0
C1238 C 0.85775 0.60397 0.69115 0.0
H1239 H 0.91742 0.596 0.69738 0.0
H1240 H 0.90014 0.62664 0.67786 0.0
C1241 C 0.83973 0.5806 0.7049 0.0
C1242 C 0.47892 0.00163 0.09755 0.0
C1243 C 0.49366 0.98983 0.11059 0.0
H1244 H 0.47775 0.02436 0.06707 0.0
C1245 C 0.51962 0.99321 0.10304 0.0
H1246 H 0.4589 0.99944 0.10295 0.0
C1247 C 0.53009 0.00706 0.08251 0.0
C1248 C 0.51475 0.0177 0.06902 0.0
H1249 H 0.53183 0.98496 0.11294 0.0
H1250 H 0.54974 0.00857 0.07683 0.0
C1251 C 0.48946 0.01552 0.07693 0.0
C1252 C 0.02469 0.53705 0.10476 0.0
C1253 C 0.02725 0.51228 0.11228 0.0
H1254 H 0.01061 0.5546 0.07684 0.0
C1255 C 0.01612 0.48502 0.09676 0.0
H1256 H 0.03246 0.55813 0.11641 0.0
C1257 C 0.00328 0.48293 0.07405 0.0
C1258 C 0.00141 0.50804 0.06651 0.0
H1259 H 0.01774 0.46553 0.10204 0.0
H1260 H 0.99469 0.46169 0.06244 0.0
C1261 C 0.01189 0.53493 0.08217 0.0
C1262 C 0.52286 0.53007 0.10661 0.0
C1263 C 0.49554 0.50633 0.1117 0.0
H1264 H 0.55298 0.54912 0.08064 0.0
C1265 C 0.47778 0.48246 0.09376 0.0
H1266 H 0.53691 0.54906 0.11989 0.0
C1267 C 0.48711 0.48252 0.07122 0.0
C1268 C 0.51415 0.50664 0.06614 0.0
H1269 H 0.45675 0.4637 0.09716 0.0
H1270 H 0.47305 0.46389 0.0577 0.0
C1271 C 0.53206 0.53019 0.0841 0.0
C1272 C 0.99127 0.47608 0.89944 0.0
C1273 C 0.98675 0.50002 0.8929 0.0
H1274 H 0.00436 0.45729 0.92705 0.0
C1275 C 0.99247 0.52416 0.91026 0.0
H1276 H 0.98654 0.4568 0.8867 0.0
C1277 C 0.00275 0.52439 0.93355 0.0
C1278 C 0.00715 0.50033 0.93992 0.0
H1279 H 0.98936 0.54303 0.90576 0.0
H1280 H 0.00724 0.54334 0.94655 0.0
C1281 C 0.00137 0.47627 0.92262 0.0
C1282 C 0.52549 0.52318 0.91154 0.0
C1283 C 0.50791 0.49725 0.89506 0.0
H1284 H 0.53049 0.54552 0.94639 0.0
C1285 C 0.48073 0.47438 0.90111 0.0
H1286 H 0.54656 0.54115 0.90743 0.0
C1287 C 0.47167 0.47686 0.92327 0.0
C1288 C 0.48958 0.50218 0.94 0.0
H1289 H 0.46641 0.45442 0.88868 0.0
H1290 H 0.45082 0.45852 0.92747 0.0
C1291 C 0.51639 0.5256 0.93384 0.0
C1292 C 0.48225 0.97766 0.90018 0.0
C1293 C 0.50755 0.00563 0.89697 0.0
H1294 H 0.45468 0.9485 0.92498 0.0
C1295 C 0.52484 0.02535 0.91714 0.0
H1296 H 0.46845 0.9617 0.88512 0.0
C1297 C 0.51714 0.01739 0.93975 0.0
C1298 C 0.49199 0.98969 0.94298 0.0
H1299 H 0.54389 0.04756 0.91556 0.0
H1300 H 0.53028 0.03381 0.95456 0.0
C1301 C 0.4744 0.96995 0.92298 0.0
C1302 C 0.18696 0.35702 0.44341 0.0
C1303 C 0.1618 0.32904 0.44646 0.0
H1304 H 0.21406 0.38656 0.41855 0.0
C1305 C 0.14349 0.31011 0.42646 0.0
H1306 H 0.20157 0.37183 0.45861 0.0
C1307 C 0.15037 0.31874 0.40381 0.0
C1308 C 0.1758 0.34624 0.40055 0.0
H1309 H 0.1241 0.28829 0.42836 0.0
H1310 H 0.13649 0.30296 0.38895 0.0
C1311 C 0.19411 0.36535 0.42058 0.0
C1312 C 0.67372 0.85681 0.44315 0.0
C1313 C 0.68059 0.83471 0.45031 0.0
H1314 H 0.65838 0.87276 0.41489 0.0
C1315 C 0.67663 0.81085 0.4334 0.0
H1316 H 0.67705 0.87588 0.45549 0.0
C1317 C 0.66602 0.80923 0.40992 0.0
C1318 C 0.65932 0.83146 0.40294 0.0
H1319 H 0.68144 0.79329 0.43835 0.0
H1320 H 0.66289 0.79052 0.3973 0.0
C1321 C 0.66314 0.85513 0.41981 0.0
C1322 C 0.15226 0.81313 0.43635 0.0
C1323 C 0.16918 0.83897 0.45306 0.0
H1324 H 0.14792 0.79179 0.40129 0.0
C1325 C 0.19503 0.86372 0.44657 0.0
H1326 H 0.13247 0.7935 0.44091 0.0
C1327 C 0.20352 0.86289 0.42386 0.0
C1328 C 0.18639 0.83733 0.4071 0.0
H1329 H 0.2084 0.88412 0.45891 0.0
H1330 H 0.22324 0.8826 0.41927 0.0
C1331 C 0.16096 0.81221 0.41366 0.0
C1332 C 0.65585 0.80318 0.23598 0.0
C1333 C 0.65066 0.82679 0.22972 0.0
H1334 H 0.66962 0.7846 0.26335 0.0
C1335 C 0.65616 0.85068 0.24724 0.0
H1336 H 0.65135 0.78411 0.22311 0.0
C1337 C 0.6666 0.85085 0.27044 0.0
C1338 C 0.6715 0.82704 0.27656 0.0
H1339 H 0.65263 0.86936 0.24298 0.0
H1340 H 0.67074 0.86952 0.28359 0.0
C1341 C 0.66621 0.80336 0.25909 0.0
C1342 C 0.19755 0.85037 0.25225 0.0
C1343 C 0.18073 0.82387 0.23611 0.0
H1344 H 0.20154 0.87328 0.28661 0.0
C1345 C 0.15385 0.80045 0.24222 0.0
H1346 H 0.2184 0.86874 0.24811 0.0
C1347 C 0.14437 0.803 0.26416 0.0
C1348 C 0.16154 0.82898 0.28055 0.0
H1349 H 0.14009 0.78003 0.23001 0.0
H1350 H 0.12382 0.78427 0.26848 0.0
C1351 C 0.188 0.85291 0.27429 0.0
C1352 C 0.14747 0.33772 0.2373 0.0
C1353 C 0.17266 0.33902 0.22981 0.0
H1354 H 0.11866 0.32691 0.26443 0.0
C1355 C 0.18789 0.32916 0.24441 0.0
H1356 H 0.13548 0.34556 0.2266 0.0
C1357 C 0.17804 0.31823 0.26607 0.0
C1358 C 0.15321 0.31757 0.27364 0.0
H1359 H 0.20715 0.32954 0.23895 0.0
H1360 H 0.18968 0.31008 0.27681 0.0
C1361 C 0.13783 0.32707 0.25895 0.0
C1362 C 0.84316 0.69997 0.7775 0.0
C1363 C 0.82398 0.66916 0.78159 0.0
H1364 H 0.86555 0.73104 0.75163 0.0
C1365 C 0.81032 0.64642 0.76227 0.0
H1366 H 0.85399 0.71787 0.79219 0.0
C1367 C 0.81693 0.65381 0.73943 0.0
C1368 C 0.83721 0.68419 0.73526 0.0
H1369 H 0.79522 0.62257 0.76493 0.0
H1370 H 0.80695 0.63527 0.72516 0.0
C1371 C 0.84983 0.70744 0.7544 0.0
C1372 C 0.37267 0.17256 0.76473 0.0
C1373 C 0.35395 0.16581 0.78265 0.0
H1374 H 0.3776 0.17619 0.72789 0.0
C1375 C 0.32428 0.1547 0.77635 0.0
H1376 H 0.39553 0.18067 0.76903 0.0
C1377 C 0.31392 0.15214 0.75264 0.0
C1378 C 0.33308 0.16047 0.73494 0.0
H1379 H 0.3094 0.14937 0.78985 0.0
H1380 H 0.29125 0.14479 0.74829 0.0
C1381 C 0.36234 0.16985 0.74116 0.0
C1382 C 0.81454 0.14939 0.76264 0.0
C1383 C 0.83272 0.17372 0.78015 0.0
H1384 H 0.80912 0.12947 0.72689 0.0
C1385 C 0.86018 0.19672 0.77466 0.0
H1386 H 0.7934 0.13113 0.76634 0.0
C1387 C 0.86909 0.19571 0.75218 0.0
C1388 C 0.85072 0.17179 0.73462 0.0
H1389 H 0.87456 0.21607 0.78756 0.0
H1390 H 0.89011 0.21413 0.74838 0.0
C1391 C 0.82355 0.14837 0.7401 0.0
C1392 C 0.302 0.15738 0.57478 0.0
C1393 C 0.32225 0.17207 0.55849 0.0
H1394 H 0.29512 0.14502 0.61004 0.0
C1395 C 0.35209 0.18753 0.56624 0.0
H1396 H 0.27889 0.14465 0.5692 0.0
C1397 C 0.36142 0.18831 0.58992 0.0
C1398 C 0.34105 0.17343 0.6061 0.0
H1399 H 0.36815 0.199 0.554 0.0
H1400 H 0.3845 0.20028 0.59551 0.0
C1401 C 0.3113 0.1578 0.59825 0.0
C1402 C 0.81507 0.1383 0.57166 0.0
C1403 C 0.8425 0.16049 0.5656 0.0
H1404 H 0.78489 0.12397 0.59784 0.0
C1405 C 0.86016 0.18697 0.58153 0.0
H1406 H 0.80076 0.11793 0.55957 0.0
C1407 C 0.85094 0.1905 0.6035 0.0
C1408 C 0.82395 0.16765 0.60979 0.0
H1409 H 0.88142 0.20442 0.57733 0.0
H1410 H 0.86515 0.21071 0.61576 0.0
C1411 C 0.80587 0.14188 0.59348 0.0
C1412 C 0.85776 0.68846 0.57914 0.0
C1413 C 0.84547 0.66478 0.56035 0.0
H1414 H 0.85889 0.70131 0.61571 0.0
C1415 C 0.82545 0.63442 0.56498 0.0
H1416 H 0.87275 0.71219 0.57612 0.0
C1417 C 0.8176 0.62807 0.58797 0.0
C1418 C 0.82951 0.65205 0.60655 0.0
H1419 H 0.81569 0.61569 0.55081 0.0
H1420 H 0.80185 0.60465 0.5911 0.0
C1421 C 0.84976 0.6822 0.6019 0.0
loop_
_geom_bond_atom_site_label_1
_geom_bond_atom_site_label_2
_geom_bond_distance
_geom_bond_site_symmetry_2
_ccdc_geom_bond_type
C0 C1 1.386 . S
C0 C2 1.397 . S
C0 H24 0.931 . S
C1 C0 1.386 . S
C1 C5 1.397 . S
C2 C0 1.397 . S
C2 C3 1.384 . S
C2 H25 0.930 . S
C3 C2 1.384 . S
C3 C4 1.377 . S
C3 C6 1.481 . S
C4 C3 1.377 . S
C4 C5 1.389 . S
C4 H26 0.929 . S
C5 C1 1.397 . S
C5 C4 1.389 . S
C5 H27 0.931 . S
C6 C3 1.481 . S
C6 C7 1.387 . S
C6 C11 1.390 . S
C7 C6 1.387 . S
C7 C8 1.401 . S
C7 H28 0.930 . S
C8 C7 1.401 . S
C8 C9 1.376 . S
C8 C17 1.511 . S
C9 C8 1.376 . S
C9 C10 1.392 . S
C9 H30 0.931 . S
C10 C9 1.392 . S
C10 C11 1.361 . S
C10 C12 1.500 . S
C11 C6 1.390 . S
C11 C10 1.361 . S
C11 H29 0.931 . S
C12 C10 1.500 . S
C12 C13 1.371 . S
C12 C14 1.365 . S
C13 C12 1.371 . S
C13 C23 1.386 . S
C13 H31 0.931 . S
C14 C12 1.365 . S
C14 C15 1.409 . S
C14 H32 0.929 . S
C15 C14 1.409 . S
C15 C16 1.380 . S
C15 H33 0.930 . S
C16 C15 1.380 . S
C16 C23 1.357 . S
C17 C8 1.511 . S
C17 C18 1.341 . S
C17 C19 1.371 . S
C18 C17 1.341 . S
C18 C22 1.394 . S
C18 H34 0.930 . S
C19 C17 1.371 . S
C19 C20 1.392 . S
C19 H35 0.931 . S
C20 C19 1.392 . S
C20 C21 1.331 . S
C20 H38 0.932 . S
C21 C20 1.331 . S
C21 C22 1.336 . S
C22 C18 1.394 . S
C22 C21 1.336 . S
C22 H37 0.929 . S
C23 C13 1.386 . S
C23 C16 1.357 . S
C23 H36 0.928 . S
H24 C0 0.931 . S
H25 C2 0.930 . S
H26 C4 0.929 . S
H27 C5 0.931 . S
H28 C7 0.930 . S
H29 C11 0.931 . S
H30 C9 0.931 . S
H31 C13 0.931 . S
H32 C14 0.929 . S
H33 C15 0.930 . S
H34 C18 0.930 . S
H35 C19 0.931 . S
H36 C23 0.928 . S
H37 C22 0.929 . S
H38 C20 0.932 . S
C39 C40 1.386 . S
C39 C41 1.397 . S
C39 H63 0.931 . S
C40 C39 1.386 . S
C40 C44 1.397 . S
C41 C39 1.397 . S
C41 C42 1.384 . S
C41 H64 0.930 . S
C42 C41 1.384 . S
C42 C43 1.377 . S
C42 C45 1.481 . S
C43 C42 1.377 . S
C43 C44 1.389 . S
C43 H65 0.929 . S
C44 C40 1.397 . S
C44 C43 1.389 . S
C44 H66 0.931 . S
C45 C42 1.481 . S
C45 C46 1.387 . S
C45 C50 1.390 . S
C46 C45 1.387 . S
C46 C47 1.401 . S
C46 H67 0.930 . S
C47 C46 1.401 . S
C47 C48 1.376 . S
C47 C56 1.511 . S
C48 C47 1.376 . S
C48 C49 1.392 . S
C48 H69 0.931 . S
C49 C48 1.392 . S
C49 C50 1.361 . S
C49 C51 1.500 . S
C50 C45 1.390 . S
C50 C49 1.361 . S
C50 H68 0.931 . S
C51 C49 1.500 . S
C51 C52 1.371 . S
C51 C53 1.365 . S
C52 C51 1.371 . S
C52 C62 1.386 . S
C52 H70 0.931 . S
C53 C51 1.365 . S
C53 C54 1.409 . S
C53 H71 0.929 . S
C54 C53 1.409 . S
C54 C55 1.380 . S
C54 H72 0.930 . S
C55 C54 1.380 . S
C55 C62 1.357 . S
C56 C47 1.511 . S
C56 C57 1.341 . S
C56 C58 1.371 . S
C57 C56 1.341 . S
C57 C61 1.394 . S
C57 H73 0.930 . S
C58 C56 1.371 . S
C58 C59 1.392 . S
C58 H74 0.931 . S
C59 C58 1.392 . S
C59 C60 1.331 . S
C59 H77 0.932 . S
C60 C59 1.331 . S
C60 C61 1.336 . S
C61 C57 1.394 . S
C61 C60 1.336 . S
C61 H76 0.929 . S
C62 C52 1.386 . S
C62 C55 1.357 . S
C62 H75 0.928 . S
H63 C39 0.931 . S
H64 C41 0.930 . S
H65 C43 0.929 . S
H66 C44 0.931 . S
H67 C46 0.930 . S
H68 C50 0.931 . S
H69 C48 0.931 . S
H70 C52 0.931 . S
H71 C53 0.929 . S
H72 C54 0.930 . S
H73 C57 0.930 . S
H74 C58 0.931 . S
H75 C62 0.928 . S
H76 C61 0.929 . S
H77 C59 0.932 . S
C78 C79 1.386 . S
C78 C80 1.397 . S
C78 H102 0.931 . S
C79 C78 1.386 . S
C79 C83 1.397 . S
C80 C78 1.397 . S
C80 C81 1.384 . S
C80 H103 0.930 . S
C81 C80 1.384 . S
C81 C82 1.377 . S
C81 C84 1.481 . S
C82 C81 1.377 . S
C82 C83 1.389 . S
C82 H104 0.929 . S
C83 C79 1.397 . S
C83 C82 1.389 . S
C83 H105 0.931 . S
C84 C81 1.481 . S
C84 C85 1.387 . S
C84 C89 1.390 . S
C85 C84 1.387 . S
C85 C86 1.401 . S
C85 H106 0.930 . S
C86 C85 1.401 . S
C86 C87 1.376 . S
C86 C95 1.511 . S
C87 C86 1.376 . S
C87 C88 1.392 . S
C87 H108 0.931 . S
C88 C87 1.392 . S
C88 C89 1.361 . S
C88 C90 1.500 . S
C89 C84 1.390 . S
C89 C88 1.361 . S
C89 H107 0.931 . S
C90 C88 1.500 . S
C90 C91 1.371 . S
C90 C92 1.365 . S
C91 C90 1.371 . S
C91 C101 1.386 . S
C91 H109 0.931 . S
C92 C90 1.365 . S
C92 C93 1.409 . S
C92 H110 0.929 . S
C93 C92 1.409 . S
C93 C94 1.380 . S
C93 H111 0.930 . S
C94 C93 1.380 . S
C94 C101 1.357 . S
C95 C86 1.511 . S
C95 C96 1.341 . S
C95 C97 1.371 . S
C96 C95 1.341 . S
C96 C100 1.394 . S
C96 H112 0.930 . S
C97 C95 1.371 . S
C97 C98 1.392 . S
C97 H113 0.931 . S
C98 C97 1.392 . S
C98 C99 1.331 . S
C98 H116 0.932 . S
C99 C98 1.331 . S
C99 C100 1.336 . S
C100 C96 1.394 . S
C100 C99 1.336 . S
C100 H115 0.961 . S
C101 C91 1.386 . S
C101 C94 1.357 . S
C101 H114 0.928 . S
H102 C78 0.931 . S
H103 C80 0.930 . S
H104 C82 0.929 . S
H105 C83 0.931 . S
H106 C85 0.930 . S
H107 C89 0.931 . S
H108 C87 0.931 . S
H109 C91 0.931 . S
H110 C92 0.929 . S
H111 C93 0.930 . S
H112 C96 0.930 . S
H113 C97 0.931 . S
H114 C101 0.928 . S
H115 C100 0.961 . S
H116 C98 0.932 . S
C117 C118 1.386 . S
C117 C119 1.397 . S
C117 H141 0.931 . S
C118 C117 1.386 . S
C118 C122 1.397 . S
C119 C117 1.397 . S
C119 C120 1.384 . S
C119 H142 0.930 . S
C120 C119 1.384 . S
C120 C121 1.377 . S
C120 C123 1.481 . S
C121 C120 1.377 . S
C121 C122 1.389 . S
C121 H143 0.929 . S
C122 C118 1.397 . S
C122 C121 1.389 . S
C122 H144 0.931 . S
C123 C120 1.481 . S
C123 C124 1.387 . S
C123 C128 1.390 . S
C124 C123 1.387 . S
C124 C125 1.401 . S
C124 H145 0.930 . S
C125 C124 1.401 . S
C125 C126 1.376 . S
C125 C134 1.511 . S
C126 C125 1.376 . S
C126 C127 1.392 . S
C126 H147 0.931 . S
C127 C126 1.392 . S
C127 C128 1.361 . S
C127 C129 1.500 . S
C128 C123 1.390 . S
C128 C127 1.361 . S
C128 H146 0.931 . S
C129 C127 1.500 . S
C129 C130 1.371 . S
C129 C131 1.365 . S
C130 C129 1.371 . S
C130 C140 1.386 . S
C130 H148 0.931 . S
C131 C129 1.365 . S
C131 C132 1.409 . S
C131 H149 0.929 . S
C132 C131 1.409 . S
C132 C133 1.380 . S
C132 H150 0.930 . S
C133 C132 1.380 . S
C133 C140 1.357 . S
C134 C125 1.511 . S
C134 C135 1.341 . S
C134 C136 1.371 . S
C135 C134 1.341 . S
C135 C139 1.394 . S
C135 H151 0.930 . S
C136 C134 1.371 . S
C136 C137 1.392 . S
C136 H152 0.931 . S
C137 C136 1.392 . S
C137 C138 1.331 . S
C137 H155 0.932 . S
C138 C137 1.331 . S
C138 C139 1.336 . S
C139 C135 1.394 . S
C139 C138 1.336 . S
C139 H154 0.929 . S
C140 C130 1.386 . S
C140 C133 1.357 . S
C140 H153 0.928 . S
H141 C117 0.931 . S
H142 C119 0.930 . S
H143 C121 0.929 . S
H144 C122 0.931 . S
H145 C124 0.930 . S
H146 C128 0.931 . S
H147 C126 0.931 . S
H148 C130 0.931 . S
H149 C131 0.929 . S
H150 C132 0.930 . S
H151 C135 0.930 . S
H152 C136 0.931 . S
H153 C140 0.928 . S
H154 C139 0.929 . S
H155 C137 0.932 . S
C156 C157 1.386 . S
C156 C158 1.397 . S
C156 H180 0.931 . S
C157 C156 1.386 . S
C157 C161 1.397 . S
C158 C156 1.397 . S
C158 C159 1.384 . S
C158 H181 0.930 . S
C159 C158 1.384 . S
C159 C160 1.377 . S
C159 C162 1.481 . S
C160 C159 1.377 . S
C160 C161 1.389 . S
C160 H182 0.929 . S
C161 C157 1.397 . S
C161 C160 1.389 . S
C161 H183 0.931 . S
C162 C159 1.481 . S
C162 C163 1.387 . S
C162 C167 1.390 . S
C163 C162 1.387 . S
C163 C164 1.401 . S
C163 H184 0.930 . S
C164 C163 1.401 . S
C164 C165 1.376 . S
C164 C173 1.511 . S
C165 C164 1.376 . S
C165 C166 1.392 . S
C165 H186 0.931 . S
C166 C165 1.392 . S
C166 C167 1.361 . S
C166 C168 1.500 . S
C167 C162 1.390 . S
C167 C166 1.361 . S
C167 H185 0.931 . S
C168 C166 1.500 . S
C168 C169 1.371 . S
C168 C170 1.365 . S
C169 C168 1.371 . S
C169 C179 1.386 . S
C169 H187 0.931 . S
C170 C168 1.365 . S
C170 C171 1.409 . S
C170 H188 0.929 . S
C171 C170 1.409 . S
C171 C172 1.380 . S
C171 H189 0.930 . S
C172 C171 1.380 . S
C172 C179 1.357 . S
C173 C164 1.511 . S
C173 C174 1.341 . S
C173 C175 1.371 . S
C174 C173 1.341 . S
C174 C178 1.394 . S
C174 H190 0.930 . S
C175 C173 1.371 . S
C175 C176 1.392 . S
C175 H191 0.931 . S
C176 C175 1.392 . S
C176 C177 1.331 . S
C176 H194 0.932 . S
C177 C176 1.331 . S
C177 C178 1.336 . S
C178 C174 1.394 . S
C178 C177 1.336 . S
C178 H193 0.929 . S
C179 C169 1.386 . S
C179 C172 1.357 . S
C179 H192 0.928 . S
H180 C156 0.931 . S
H181 C158 0.930 . S
H182 C160 0.929 . S
H183 C161 0.931 . S
H184 C163 0.930 . S
H185 C167 0.931 . S
H186 C165 0.931 . S
H187 C169 0.931 . S
H188 C170 0.929 . S
H189 C171 0.930 . S
H190 C174 0.930 . S
H191 C175 0.931 . S
H192 C179 0.928 . S
H193 C178 0.929 . S
H194 C176 0.932 . S
C195 C196 1.386 . S
C195 C197 1.397 . S
C195 H219 0.931 . S
C196 C195 1.386 . S
C196 C200 1.397 . S
C197 C195 1.397 . S
C197 C198 1.384 . S
C197 H220 0.930 . S
C198 C197 1.384 . S
C198 C199 1.377 . S
C198 C201 1.481 . S
C199 C198 1.377 . S
C199 C200 1.389 . S
C199 H221 0.929 . S
C200 C196 1.397 . S
C200 C199 1.389 . S
C200 H222 0.931 . S
C201 C198 1.481 . S
C201 C202 1.387 . S
C201 C206 1.390 . S
C202 C201 1.387 . S
C202 C203 1.401 . S
C202 H223 0.930 . S
C203 C202 1.401 . S
C203 C204 1.376 . S
C203 C212 1.511 . S
C204 C203 1.376 . S
C204 C205 1.392 . S
C204 H225 0.931 . S
C205 C204 1.392 . S
C205 C206 1.361 . S
C205 C207 1.500 . S
C206 C201 1.390 . S
C206 C205 1.361 . S
C206 H224 0.931 . S
C207 C205 1.500 . S
C207 C208 1.371 . S
C207 C209 1.365 . S
C208 C207 1.371 . S
C208 C218 1.386 . S
C208 H226 0.931 . S
C209 C207 1.365 . S
C209 C210 1.409 . S
C209 H227 0.929 . S
C210 C209 1.409 . S
C210 C211 1.380 . S
C210 H228 0.930 . S
C211 C210 1.380 . S
C211 C218 1.357 . S
C212 C203 1.511 . S
C212 C213 1.341 . S
C212 C214 1.371 . S
C213 C212 1.341 . S
C213 C217 1.394 . S
C213 H229 0.930 . S
C214 C212 1.371 . S
C214 C215 1.392 . S
C214 H230 0.931 . S
C215 C214 1.392 . S
C215 C216 1.331 . S
C215 H233 0.932 . S
C216 C215 1.331 . S
C216 C217 1.336 . S
C217 C213 1.394 . S
C217 C216 1.336 . S
C217 H232 0.929 . S
C218 C208 1.386 . S
C218 C211 1.357 . S
C218 H231 0.928 . S
H219 C195 0.931 . S
H220 C197 0.930 . S
H221 C199 0.929 . S
H222 C200 0.931 . S
H223 C202 0.930 . S
H224 C206 0.931 . S
H225 C204 0.931 . S
H226 C208 0.931 . S
H227 C209 0.929 . S
H228 C210 0.930 . S
H229 C213 0.930 . S
H230 C214 0.931 . S
H231 C218 0.928 . S
H232 C217 0.929 . S
H233 C215 0.932 . S
C234 C235 1.386 . S
C234 C236 1.397 . S
C234 H258 0.931 . S
C235 C234 1.386 . S
C235 C239 1.397 . S
C236 C234 1.397 . S
C236 C237 1.384 . S
C236 H259 0.930 . S
C237 C236 1.384 . S
C237 C238 1.377 . S
C237 C240 1.481 . S
C238 C237 1.377 . S
C238 C239 1.389 . S
C238 H260 0.929 . S
C239 C235 1.397 . S
C239 C238 1.389 . S
C239 H261 0.931 1_655 S
C240 C237 1.481 . S
C240 C241 1.387 . S
C240 C245 1.390 . S
C241 C240 1.387 . S
C241 C242 1.401 . S
C241 H262 0.930 . S
C242 C241 1.401 . S
C242 C243 1.376 . S
C242 C251 1.511 . S
C243 C242 1.376 . S
C243 C244 1.392 . S
C243 H264 0.931 . S
C244 C243 1.392 . S
C244 C245 1.361 . S
C244 C246 1.500 . S
C245 C240 1.390 . S
C245 C244 1.361 . S
C245 H263 0.931 . S
C246 C244 1.500 . S
C246 C247 1.371 . S
C246 C248 1.365 . S
C247 C246 1.371 . S
C247 C257 1.386 . S
C247 H265 0.931 . S
C248 C246 1.365 . S
C248 C249 1.409 . S
C248 H266 0.929 . S
C249 C248 1.409 . S
C249 C250 1.380 . S
C249 H267 0.930 . S
C250 C249 1.380 . S
C250 C257 1.357 . S
C251 C242 1.511 . S
C251 C252 1.341 . S
C251 C253 1.371 . S
C252 C251 1.341 . S
C252 C256 1.394 . S
C252 H268 0.930 . S
C253 C251 1.371 . S
C253 C254 1.392 . S
C253 H269 0.931 . S
C254 C253 1.392 . S
C254 C255 1.331 . S
C254 H272 0.932 . S
C255 C254 1.331 . S
C255 C256 1.336 . S
C256 C252 1.394 . S
C256 C255 1.336 . S
C256 H271 0.929 . S
C257 C247 1.386 . S
C257 C250 1.357 . S
C257 H270 0.928 . S
H258 C234 0.931 . S
H259 C236 0.930 . S
H260 C238 0.929 . S
H261 C239 0.931 1_455 S
H262 C241 0.930 . S
H263 C245 0.931 . S
H264 C243 0.931 . S
H265 C247 0.931 . S
H266 C248 0.929 . S
H267 C249 0.930 . S
H268 C252 0.930 . S
H269 C253 0.931 . S
H270 C257 0.928 . S
H271 C256 0.929 . S
H272 C254 0.932 . S
C273 C274 1.386 . S
C273 C275 1.397 . S
C273 H297 0.931 . S
C274 C273 1.386 . S
C274 C278 1.397 . S
C275 C273 1.397 . S
C275 C276 1.384 . S
C275 H298 0.930 . S
C276 C275 1.384 . S
C276 C277 1.377 . S
C276 C279 1.481 . S
C277 C276 1.377 . S
C277 C278 1.389 . S
C277 H299 0.929 . S
C278 C274 1.397 . S
C278 C277 1.389 . S
C278 H300 0.931 . S
C279 C276 1.481 . S
C279 C280 1.387 . S
C279 C284 1.390 . S
C280 C279 1.387 . S
C280 C281 1.401 . S
C280 H301 0.930 . S
C281 C280 1.401 . S
C281 C282 1.376 . S
C281 C290 1.511 . S
C282 C281 1.376 . S
C282 C283 1.392 . S
C282 H303 0.931 . S
C283 C282 1.392 . S
C283 C284 1.361 . S
C283 C285 1.500 . S
C284 C279 1.390 . S
C284 C283 1.361 . S
C284 H302 0.931 . S
C285 C283 1.500 . S
C285 C286 1.371 . S
C285 C287 1.365 . S
C286 C285 1.371 . S
C286 C296 1.386 . S
C286 H304 0.931 . S
C287 C285 1.365 . S
C287 C288 1.409 . S
C287 H305 0.929 . S
C288 C287 1.409 . S
C288 C289 1.380 . S
C288 H306 0.930 . S
C289 C288 1.380 . S
C289 C296 1.357 . S
C290 C281 1.511 . S
C290 C291 1.341 . S
C290 C292 1.371 . S
C291 C290 1.341 . S
C291 C295 1.394 . S
C291 H307 0.930 . S
C292 C290 1.371 . S
C292 C293 1.392 . S
C292 H308 0.931 . S
C293 C292 1.392 . S
C293 C294 1.331 . S
C293 H311 0.932 . S
C294 C293 1.331 . S
C294 C295 1.336 . S
C295 C291 1.394 . S
C295 C294 1.336 . S
C295 H310 0.929 . S
C296 C286 1.386 . S
C296 C289 1.357 . S
C296 H309 0.928 . S
H297 C273 0.931 . S
H298 C275 0.930 . S
H299 C277 0.929 . S
H300 C278 0.931 . S
H301 C280 0.930 . S
H302 C284 0.931 . S
H303 C282 0.931 . S
H304 C286 0.931 . S
H305 C287 0.929 . S
H306 C288 0.930 . S
H307 C291 0.930 . S
H308 C292 0.931 . S
H309 C296 0.928 . S
H310 C295 0.929 . S
H311 C293 0.932 . S
C312 C313 1.386 . S
C312 C314 1.397 . S
C312 H336 0.931 . S
C313 C312 1.386 . S
C313 C317 1.397 . S
C314 C312 1.397 . S
C314 C315 1.384 . S
C314 H337 0.930 . S
C315 C314 1.384 . S
C315 C316 1.377 . S
C315 C318 1.481 . S
C316 C315 1.377 . S
C316 C317 1.389 . S
C316 H338 0.929 . S
C317 C313 1.397 . S
C317 C316 1.389 . S
C317 H339 0.933 . S
C318 C315 1.481 . S
C318 C319 1.387 . S
C318 C323 1.390 . S
C319 C318 1.387 . S
C319 C320 1.401 . S
C319 H340 0.930 . S
C320 C319 1.401 . S
C320 C321 1.376 . S
C320 C329 1.511 . S
C321 C320 1.376 . S
C321 C322 1.392 . S
C321 H342 0.931 . S
C322 C321 1.392 . S
C322 C323 1.361 . S
C322 C324 1.500 . S
C323 C318 1.390 . S
C323 C322 1.361 . S
C323 H341 0.931 . S
C324 C322 1.500 . S
C324 C325 1.371 . S
C324 C326 1.365 . S
C325 C324 1.371 . S
C325 C335 1.386 . S
C325 H343 0.931 . S
C326 C324 1.365 . S
C326 C327 1.409 . S
C326 H344 0.929 . S
C327 C326 1.409 . S
C327 C328 1.380 . S
C327 H345 0.930 . S
C328 C327 1.380 . S
C328 C335 1.357 . S
C329 C320 1.511 . S
C329 C330 1.341 . S
C329 C331 1.371 . S
C330 C329 1.341 . S
C330 C334 1.394 . S
C330 H346 0.930 . S
C331 C329 1.371 . S
C331 C332 1.392 . S
C331 H347 0.931 . S
C332 C331 1.392 . S
C332 C333 1.331 . S
C332 H350 0.932 . S
C333 C332 1.331 . S
C333 C334 1.336 . S
C334 C330 1.394 . S
C334 C333 1.336 . S
C334 H349 0.929 . S
C335 C325 1.386 . S
C335 C328 1.357 . S
C335 H348 0.928 . S
H336 C312 0.931 . S
H337 C314 0.930 . S
H338 C316 0.929 . S
H339 C317 0.933 . S
H340 C319 0.930 . S
H341 C323 0.931 . S
H342 C321 0.931 . S
H343 C325 0.931 . S
H344 C326 0.929 . S
H345 C327 0.930 . S
H346 C330 0.930 . S
H347 C331 0.931 . S
H348 C335 0.928 . S
H349 C334 0.929 . S
H350 C332 0.932 . S
C351 C352 1.386 . S
C351 C353 1.397 . S
C351 H375 0.931 . S
C352 C351 1.386 . S
C352 C356 1.397 . S
C353 C351 1.397 . S
C353 C354 1.384 . S
C353 H376 0.930 . S
C354 C353 1.384 . S
C354 C355 1.377 . S
C354 C357 1.481 . S
C355 C354 1.377 . S
C355 C356 1.389 . S
C355 H377 0.929 . S
C356 C352 1.397 . S
C356 C355 1.389 . S
C356 H378 0.931 . S
C357 C354 1.481 . S
C357 C358 1.387 . S
C357 C362 1.390 . S
C358 C357 1.387 . S
C358 C359 1.401 . S
C358 H379 0.930 . S
C359 C358 1.401 . S
C359 C360 1.376 . S
C359 C368 1.511 . S
C360 C359 1.376 . S
C360 C361 1.392 . S
C360 H381 0.931 . S
C361 C360 1.392 . S
C361 C362 1.361 . S
C361 C363 1.500 . S
C362 C357 1.390 . S
C362 C361 1.361 . S
C362 H380 0.931 . S
C363 C361 1.500 . S
C363 C364 1.371 . S
C363 C365 1.365 . S
C364 C363 1.371 . S
C364 C374 1.386 . S
C364 H382 0.931 . S
C365 C363 1.365 . S
C365 C366 1.409 . S
C365 H383 0.929 . S
C366 C365 1.409 . S
C366 C367 1.380 . S
C366 H384 0.930 . S
C367 C366 1.380 . S
C367 C374 1.357 . S
C368 C359 1.511 . S
C368 C369 1.341 . S
C368 C370 1.371 . S
C369 C368 1.341 . S
C369 C373 1.394 . S
C369 H385 0.930 . S
C370 C368 1.371 . S
C370 C371 1.392 . S
C370 H386 0.931 . S
C371 C370 1.392 . S
C371 C372 1.331 . S
C371 H389 0.932 . S
C372 C371 1.331 . S
C372 C373 1.336 . S
C373 C369 1.394 . S
C373 C372 1.336 . S
C373 H388 0.929 . S
C374 C364 1.386 . S
C374 C367 1.357 . S
C374 H387 0.928 . S
H375 C351 0.931 . S
H376 C353 0.930 . S
H377 C355 0.929 . S
H378 C356 0.931 . S
H379 C358 0.930 . S
H380 C362 0.931 . S
H381 C360 0.931 . S
H382 C364 0.931 . S
H383 C365 0.929 . S
H384 C366 0.930 . S
H385 C369 0.930 . S
H386 C370 0.931 . S
H387 C374 0.928 . S
H388 C373 0.929 . S
H389 C371 0.932 . S
C390 C391 1.386 . S
C390 C392 1.397 . S
C390 H414 0.931 . S
C391 C390 1.386 . S
C391 C395 1.397 . S
C392 C390 1.397 . S
C392 C393 1.384 . S
C392 H415 0.930 . S
C393 C392 1.384 . S
C393 C394 1.377 . S
C393 C396 1.481 . S
C394 C393 1.377 . S
C394 C395 1.389 . S
C394 H416 0.929 . S
C395 C391 1.397 . S
C395 C394 1.389 . S
C395 H417 0.931 . S
C396 C393 1.481 . S
C396 C397 1.387 . S
C396 C401 1.390 . S
C397 C396 1.387 . S
C397 C398 1.401 . S
C397 H418 0.930 . S
C398 C397 1.401 . S
C398 C399 1.376 . S
C398 C407 1.511 . S
C399 C398 1.376 . S
C399 C400 1.392 . S
C399 H420 0.931 . S
C400 C399 1.392 . S
C400 C401 1.361 . S
C400 C402 1.500 . S
C401 C396 1.390 . S
C401 C400 1.361 . S
C401 H419 0.931 . S
C402 C400 1.500 . S
C402 C403 1.371 . S
C402 C404 1.365 . S
C403 C402 1.371 . S
C403 C413 1.386 . S
C403 H421 0.931 . S
C404 C402 1.365 . S
C404 C405 1.409 . S
C404 H422 0.929 . S
C405 C404 1.409 . S
C405 C406 1.380 . S
C405 H423 0.930 . S
C406 C405 1.380 . S
C406 C413 1.357 . S
C407 C398 1.511 . S
C407 C408 1.341 . S
C407 C409 1.371 . S
C408 C407 1.341 . S
C408 C412 1.394 . S
C408 H424 0.930 . S
C409 C407 1.371 . S
C409 C410 1.392 . S
C409 H425 0.931 . S
C410 C409 1.392 . S
C410 C411 1.331 . S
C410 H428 0.932 . S
C411 C410 1.331 . S
C411 C412 1.336 . S
C412 C408 1.394 . S
C412 C411 1.336 . S
C412 H427 0.929 . S
C413 C403 1.386 . S
C413 C406 1.357 . S
C413 H426 0.928 . S
H414 C390 0.931 . S
H415 C392 0.930 . S
H416 C394 0.929 . S
H417 C395 0.931 . S
H418 C397 0.930 . S
H419 C401 0.931 . S
H420 C399 0.931 . S
H421 C403 0.931 . S
H422 C404 0.929 . S
H423 C405 0.930 . S
H424 C408 0.930 . S
H425 C409 0.931 . S
H426 C413 0.928 . S
H427 C412 0.929 . S
H428 C410 0.932 . S
C429 C430 1.386 . S
C429 C431 1.397 . S
C429 H453 0.931 . S
C430 C429 1.386 . S
C430 C434 1.397 . S
C431 C429 1.397 . S
C431 C432 1.384 . S
C431 H454 0.930 . S
C432 C431 1.384 . S
C432 C433 1.377 . S
C432 C435 1.481 . S
C433 C432 1.377 . S
C433 C434 1.389 . S
C433 H455 0.929 . S
C434 C430 1.397 . S
C434 C433 1.389 . S
C434 H456 0.931 . S
C435 C432 1.481 . S
C435 C436 1.387 . S
C435 C440 1.390 . S
C436 C435 1.387 . S
C436 C437 1.401 . S
C436 H457 0.930 . S
C437 C436 1.401 . S
C437 C438 1.376 . S
C437 C446 1.511 . S
C438 C437 1.376 . S
C438 C439 1.392 . S
C438 H459 0.931 . S
C439 C438 1.392 . S
C439 C440 1.361 . S
C439 C441 1.500 . S
C440 C435 1.390 . S
C440 C439 1.361 . S
C440 H458 0.931 . S
C441 C439 1.500 . S
C441 C442 1.371 . S
C441 C443 1.365 . S
C442 C441 1.371 . S
C442 C452 1.386 . S
C442 H460 0.931 . S
C443 C441 1.365 . S
C443 C444 1.409 . S
C443 H461 0.929 . S
C444 C443 1.409 . S
C444 C445 1.380 . S
C444 H462 0.930 . S
C445 C444 1.380 . S
C445 C452 1.357 . S
C446 C437 1.511 . S
C446 C447 1.341 . S
C446 C448 1.371 . S
C447 C446 1.341 . S
C447 C451 1.394 . S
C447 H463 0.930 . S
C448 C446 1.371 . S
C448 C449 1.392 . S
C448 H464 0.931 . S
C449 C448 1.392 . S
C449 C450 1.331 . S
C449 H467 0.932 . S
C450 C449 1.331 . S
C450 C451 1.336 . S
C451 C447 1.394 . S
C451 C450 1.336 . S
C451 H466 0.929 . S
C452 C442 1.386 . S
C452 C445 1.357 . S
C452 H465 0.928 . S
H453 C429 0.931 . S
H454 C431 0.930 . S
H455 C433 0.929 . S
H456 C434 0.931 . S
H457 C436 0.930 . S
H458 C440 0.931 . S
H459 C438 0.931 . S
H460 C442 0.931 . S
H461 C443 0.929 . S
H462 C444 0.930 . S
H463 C447 0.930 . S
H464 C448 0.931 . S
H465 C452 0.928 . S
H466 C451 0.929 . S
H467 C449 0.932 . S
C468 C469 1.386 . S
C468 C470 1.397 . S
C468 H492 0.931 . S
C469 C468 1.386 . S
C469 C473 1.397 . S
C470 C468 1.397 . S
C470 C471 1.384 . S
C470 H493 0.930 . S
C471 C470 1.384 . S
C471 C472 1.377 . S
C471 C474 1.481 . S
C472 C471 1.377 . S
C472 C473 1.389 . S
C472 H494 0.929 . S
C473 C469 1.397 . S
C473 C472 1.389 . S
C473 H495 0.931 . S
C474 C471 1.481 . S
C474 C475 1.387 . S
C474 C479 1.390 . S
C475 C474 1.387 . S
C475 C476 1.401 . S
C475 H496 0.930 . S
C476 C475 1.401 . S
C476 C477 1.376 . S
C476 C485 1.511 . S
C477 C476 1.376 . S
C477 C478 1.392 . S
C477 H498 0.931 . S
C478 C477 1.392 . S
C478 C479 1.361 . S
C478 C480 1.500 . S
C479 C474 1.390 . S
C479 C478 1.361 . S
C479 H497 0.931 . S
C480 C478 1.500 . S
C480 C481 1.371 . S
C480 C482 1.365 . S
C481 C480 1.371 . S
C481 C491 1.386 . S
C481 H499 0.931 . S
C482 C480 1.365 . S
C482 C483 1.409 . S
C482 H500 0.929 . S
C483 C482 1.409 . S
C483 C484 1.380 . S
C483 H501 0.930 . S
C484 C483 1.380 . S
C484 C491 1.357 . S
C485 C476 1.511 . S
C485 C486 1.341 . S
C485 C487 1.371 . S
C486 C485 1.341 . S
C486 C490 1.394 . S
C486 H502 0.930 . S
C487 C485 1.371 . S
C487 C488 1.392 . S
C487 H503 0.931 . S
C488 C487 1.392 . S
C488 C489 1.331 . S
C488 H506 0.932 . S
C489 C488 1.331 . S
C489 C490 1.336 . S
C490 C486 1.394 . S
C490 C489 1.336 . S
C490 H505 0.929 . S
C491 C481 1.386 . S
C491 C484 1.357 . S
C491 H504 0.928 . S
H492 C468 0.931 . S
H493 C470 0.930 . S
H494 C472 0.929 . S
H495 C473 0.931 . S
H496 C475 0.930 . S
H497 C479 0.931 . S
H498 C477 0.931 . S
H499 C481 0.931 . S
H500 C482 0.929 . S
H501 C483 0.930 . S
H502 C486 0.930 . S
H503 C487 0.931 . S
H504 C491 0.928 . S
H505 C490 0.929 . S
H506 C488 0.932 . S
C507 C508 1.386 . S
C507 C509 1.397 . S
C507 H531 0.931 . S
C508 C507 1.386 . S
C508 C512 1.397 . S
C509 C507 1.397 . S
C509 C510 1.384 . S
C509 H532 0.930 . S
C510 C509 1.384 . S
C510 C511 1.377 . S
C510 C513 1.481 . S
C511 C510 1.377 . S
C511 C512 1.389 . S
C511 H533 0.929 . S
C512 C508 1.397 . S
C512 C511 1.389 . S
C512 H534 0.931 . S
C513 C510 1.481 . S
C513 C514 1.387 . S
C513 C518 1.390 . S
C514 C513 1.387 . S
C514 C515 1.401 . S
C514 H535 0.930 . S
C515 C514 1.401 . S
C515 C516 1.376 . S
C515 C524 1.511 . S
C516 C515 1.376 . S
C516 C517 1.392 . S
C516 H537 0.931 . S
C517 C516 1.392 . S
C517 C518 1.361 . S
C517 C519 1.500 . S
C518 C513 1.390 . S
C518 C517 1.361 . S
C518 H536 0.931 . S
C519 C517 1.500 . S
C519 C520 1.371 . S
C519 C521 1.365 . S
C520 C519 1.371 . S
C520 C530 1.386 . S
C520 H538 0.931 . S
C521 C519 1.365 . S
C521 C522 1.409 . S
C521 H539 0.929 . S
C522 C521 1.409 . S
C522 C523 1.380 . S
C522 H540 0.930 . S
C523 C522 1.380 . S
C523 C530 1.357 . S
C524 C515 1.511 . S
C524 C525 1.341 . S
C524 C526 1.371 . S
C525 C524 1.341 . S
C525 C529 1.394 . S
C525 H541 0.930 . S
C526 C524 1.371 . S
C526 C527 1.392 . S
C526 H542 0.931 . S
C527 C526 1.392 . S
C527 C528 1.331 . S
C527 H545 0.932 . S
C528 C527 1.331 . S
C528 C529 1.336 . S
C529 C525 1.394 . S
C529 C528 1.336 . S
C529 H544 0.929 . S
C530 C520 1.386 . S
C530 C523 1.357 . S
C530 H543 0.928 . S
H531 C507 0.931 . S
H532 C509 0.930 . S
H533 C511 0.929 . S
H534 C512 0.931 . S
H535 C514 0.930 . S
H536 C518 0.931 . S
H537 C516 0.931 . S
H538 C520 0.931 . S
H539 C521 0.929 . S
H540 C522 0.930 . S
H541 C525 0.930 . S
H542 C526 0.931 . S
H543 C530 0.928 . S
H544 C529 0.929 . S
H545 C527 0.932 . S
C546 C547 1.386 . S
C546 C548 1.397 . S
C546 H570 0.931 . S
C547 C546 1.386 . S
C547 C551 1.397 . S
C548 C546 1.397 . S
C548 C549 1.384 . S
C548 H571 0.930 . S
C549 C548 1.384 . S
C549 C550 1.377 . S
C549 C552 1.481 . S
C550 C549 1.377 . S
C550 C551 1.389 . S
C550 H572 0.929 . S
C551 C547 1.397 . S
C551 C550 1.389 . S
C551 H573 0.931 . S
C552 C549 1.481 . S
C552 C553 1.387 . S
C552 C557 1.390 . S
C553 C552 1.387 . S
C553 C554 1.401 . S
C553 H574 0.930 . S
C554 C553 1.401 . S
C554 C555 1.376 . S
C554 C563 1.511 . S
C555 C554 1.376 . S
C555 C556 1.392 . S
C555 H576 0.931 . S
C556 C555 1.392 . S
C556 C557 1.361 . S
C556 C558 1.500 . S
C557 C552 1.390 . S
C557 C556 1.361 . S
C557 H575 0.931 . S
C558 C556 1.500 . S
C558 C559 1.371 . S
C558 C560 1.365 . S
C559 C558 1.371 . S
C559 C569 1.386 . S
C559 H577 0.931 . S
C560 C558 1.365 . S
C560 C561 1.409 . S
C560 H578 0.929 . S
C561 C560 1.409 . S
C561 C562 1.380 . S
C561 H579 0.930 . S
C562 C561 1.380 . S
C562 C569 1.357 . S
C563 C554 1.511 . S
C563 C564 1.341 . S
C563 C565 1.371 . S
C564 C563 1.341 . S
C564 C568 1.394 . S
C564 H580 0.930 . S
C565 C563 1.371 . S
C565 C566 1.392 . S
C565 H581 0.931 . S
C566 C565 1.392 . S
C566 C567 1.331 . S
C566 H584 0.932 . S
C567 C566 1.331 . S
C567 C568 1.336 . S
C568 C564 1.394 . S
C568 C567 1.336 . S
C568 H583 0.929 . S
C569 C559 1.386 . S
C569 C562 1.357 . S
C569 H582 0.928 . S
H570 C546 0.931 . S
H571 C548 0.930 . S
H572 C550 0.929 . S
H573 C551 0.931 . S
H574 C553 0.930 . S
H575 C557 0.931 . S
H576 C555 0.931 . S
H577 C559 0.931 . S
H578 C560 0.929 . S
H579 C561 0.930 . S
H580 C564 0.930 . S
H581 C565 0.931 . S
H582 C569 0.928 . S
H583 C568 0.929 . S
H584 C566 0.932 . S
C585 C586 1.386 . S
C585 C587 1.397 . S
C585 H609 0.931 . S
C586 C585 1.386 . S
C586 C590 1.397 . S
C587 C585 1.397 . S
C587 C588 1.384 . S
C587 H610 0.930 . S
C588 C587 1.384 . S
C588 C589 1.377 . S
C588 C591 1.481 . S
C589 C588 1.377 . S
C589 C590 1.389 . S
C589 H611 0.929 . S
C590 C586 1.397 . S
C590 C589 1.389 . S
C590 H612 0.931 1_565 S
C591 C588 1.481 . S
C591 C592 1.387 . S
C591 C596 1.390 . S
C592 C591 1.387 . S
C592 C593 1.401 . S
C592 H613 0.930 . S
C593 C592 1.401 . S
C593 C594 1.376 . S
C593 C602 1.511 . S
C594 C593 1.376 . S
C594 C595 1.392 . S
C594 H615 0.931 . S
C595 C594 1.392 . S
C595 C596 1.361 . S
C595 C597 1.500 . S
C596 C591 1.390 . S
C596 C595 1.361 . S
C596 H614 0.931 . S
C597 C595 1.500 . S
C597 C598 1.371 . S
C597 C599 1.365 . S
C598 C597 1.371 . S
C598 C608 1.386 . S
C598 H616 0.931 . S
C599 C597 1.365 . S
C599 C600 1.409 . S
C599 H617 0.929 . S
C600 C599 1.409 . S
C600 C601 1.380 . S
C600 H618 0.930 . S
C601 C600 1.380 . S
C601 C608 1.357 . S
C602 C593 1.511 . S
C602 C603 1.341 . S
C602 C604 1.371 . S
C603 C602 1.341 . S
C603 C607 1.394 . S
C603 H619 0.930 . S
C604 C602 1.371 . S
C604 C605 1.392 . S
C604 H620 0.931 . S
C605 C604 1.392 . S
C605 C606 1.331 . S
C605 H623 0.932 . S
C606 C605 1.331 . S
C606 C607 1.336 . S
C607 C603 1.394 . S
C607 C606 1.336 . S
C607 H622 0.929 . S
C608 C598 1.386 . S
C608 C601 1.357 . S
C608 H621 0.928 . S
H609 C585 0.931 . S
H610 C587 0.930 . S
H611 C589 0.929 . S
H612 C590 0.931 1_545 S
H613 C592 0.930 . S
H614 C596 0.931 . S
H615 C594 0.931 . S
H616 C598 0.931 . S
H617 C599 0.929 . S
H618 C600 0.930 . S
H619 C603 0.930 . S
H620 C604 0.931 . S
H621 C608 0.928 . S
H622 C607 0.929 . S
H623 C605 0.932 . S
C624 C625 1.386 . S
C624 C626 1.397 . S
C624 H648 0.931 1_455 S
C625 C624 1.386 . S
C625 C629 1.397 . S
C626 C624 1.397 . S
C626 C627 1.384 . S
C626 H649 0.930 . S
C627 C626 1.384 . S
C627 C628 1.377 . S
C627 C630 1.481 . S
C628 C627 1.377 . S
C628 C629 1.389 . S
C628 H650 0.929 . S
C629 C625 1.397 . S
C629 C628 1.389 . S
C629 H651 0.931 . S
C630 C627 1.481 . S
C630 C631 1.387 . S
C630 C635 1.390 . S
C631 C630 1.387 . S
C631 C632 1.401 . S
C631 H652 0.930 . S
C632 C631 1.401 . S
C632 C633 1.376 . S
C632 C641 1.511 . S
C633 C632 1.376 . S
C633 C634 1.392 . S
C633 H654 0.931 . S
C634 C633 1.392 . S
C634 C635 1.361 . S
C634 C636 1.500 . S
C635 C630 1.390 . S
C635 C634 1.361 . S
C635 H653 0.931 . S
C636 C634 1.500 . S
C636 C637 1.371 . S
C636 C638 1.365 . S
C637 C636 1.371 . S
C637 C647 1.386 . S
C637 H655 0.931 . S
C638 C636 1.365 . S
C638 C639 1.409 . S
C638 H656 0.929 . S
C639 C638 1.409 . S
C639 C640 1.380 . S
C639 H657 0.930 . S
C640 C639 1.380 . S
C640 C647 1.357 . S
C641 C632 1.511 . S
C641 C642 1.341 . S
C641 C643 1.371 . S
C642 C641 1.341 . S
C642 C646 1.394 . S
C642 H658 0.930 . S
C643 C641 1.371 . S
C643 C644 1.392 . S
C643 H659 0.931 . S
C644 C643 1.392 . S
C644 C645 1.331 . S
C644 H662 0.932 . S
C645 C644 1.331 . S
C645 C646 1.336 . S
C646 C642 1.394 . S
C646 C645 1.336 . S
C646 H661 0.929 . S
C647 C637 1.386 . S
C647 C640 1.357 . S
C647 H660 0.928 . S
H648 C624 0.931 1_655 S
H649 C626 0.930 . S
H650 C628 0.929 . S
H651 C629 0.931 . S
H652 C631 0.930 . S
H653 C635 0.931 . S
H654 C633 0.931 . S
H655 C637 0.931 . S
H656 C638 0.929 . S
H657 C639 0.930 . S
H658 C642 0.930 . S
H659 C643 0.931 . S
H660 C647 0.928 . S
H661 C646 0.929 . S
H662 C644 0.932 . S
C663 C664 1.386 . S
C663 C665 1.397 . S
C663 H687 0.931 . S
C664 C663 1.386 . S
C664 C668 1.397 . S
C665 C663 1.397 . S
C665 C666 1.384 . S
C665 H688 0.930 . S
C666 C665 1.384 . S
C666 C667 1.377 . S
C666 C669 1.481 . S
C667 C666 1.377 . S
C667 C668 1.389 . S
C667 H689 0.929 . S
C668 C664 1.397 . S
C668 C667 1.389 . S
C668 H690 0.931 . S
C669 C666 1.481 . S
C669 C670 1.387 . S
C669 C674 1.390 . S
C670 C669 1.387 . S
C670 C671 1.401 . S
C670 H691 0.930 . S
C671 C670 1.401 . S
C671 C672 1.376 . S
C671 C680 1.511 . S
C672 C671 1.376 . S
C672 C673 1.392 . S
C672 H693 0.931 . S
C673 C672 1.392 . S
C673 C674 1.361 . S
C673 C675 1.500 . S
C674 C669 1.390 . S
C674 C673 1.361 . S
C674 H692 0.931 . S
C675 C673 1.500 . S
C675 C676 1.371 . S
C675 C677 1.365 . S
C676 C675 1.371 . S
C676 C686 1.386 . S
C676 H694 0.931 . S
C677 C675 1.365 . S
C677 C678 1.409 . S
C677 H695 0.929 . S
C678 C677 1.409 . S
C678 C679 1.380 . S
C678 H696 0.930 . S
C679 C678 1.380 . S
C679 C686 1.357 . S
C680 C671 1.511 . S
C680 C681 1.341 . S
C680 C682 1.371 . S
C681 C680 1.341 . S
C681 C685 1.394 . S
C681 H697 0.930 . S
C682 C680 1.371 . S
C682 C683 1.392 . S
C682 H698 0.931 . S
C683 C682 1.392 . S
C683 C684 1.331 . S
C683 H701 0.932 . S
C684 C683 1.331 . S
C684 C685 1.336 . S
C685 C681 1.394 . S
C685 C684 1.336 . S
C685 H700 0.929 . S
C686 C676 1.386 . S
C686 C679 1.357 . S
C686 H699 0.928 . S
H687 C663 0.931 . S
H688 C665 0.930 . S
H689 C667 0.929 . S
H690 C668 0.931 . S
H691 C670 0.930 . S
H692 C674 0.931 . S
H693 C672 0.931 . S
H694 C676 0.931 . S
H695 C677 0.929 . S
H696 C678 0.930 . S
H697 C681 0.930 . S
H698 C682 0.931 . S
H699 C686 0.928 . S
H700 C685 0.929 . S
H701 C683 0.932 . S
Tb702 O705 2.453 . S
Tb702 O706 2.596 1_545 S
Tb702 O707 2.374 1_545 S
Tb702 O715 2.343 1_554 S
Tb702 O717 2.353 . S
Tb702 O719 2.427 1_554 S
Tb702 O720 2.513 1_554 S
C703 O707 1.251 . S
C703 O709 1.254 1_554 S
Tb704 O706 2.343 1_556 S
Tb704 O709 2.357 . S
Tb704 O712 2.427 1_556 S
Tb704 O713 2.513 1_556 S
Tb704 O714 2.453 . S
Tb704 O715 2.596 1_565 S
Tb704 O716 2.374 1_565 S
O705 Tb702 2.453 . S
O705 C721 1.245 . S
O706 Tb702 2.596 1_565 S
O706 Tb704 2.343 1_554 S
O706 C721 1.259 1_565 S
O707 Tb702 2.374 1_565 S
O707 C703 1.251 . S
C708 O712 1.275 . S
C708 O713 1.246 . S
O709 C703 1.254 1_556 S
O709 Tb704 2.357 . S
C710 O714 1.245 . S
C710 O715 1.259 1_565 S
C711 O716 1.250 . S
C711 O717 1.263 1_556 S
O712 Tb704 2.427 1_554 S
O712 C708 1.275 . S
O713 Tb704 2.513 1_554 S
O713 C708 1.246 . S
O714 Tb704 2.453 . S
O714 C710 1.245 . S
O715 Tb702 2.343 1_556 S
O715 Tb704 2.596 1_545 S
O715 C710 1.259 1_545 S
O716 Tb704 2.374 1_545 S
O716 C711 1.250 . S
O717 Tb702 2.353 . S
O717 C711 1.263 1_554 S
C718 O719 1.275 . S
C718 O720 1.246 . S
O719 Tb702 2.427 1_556 S
O719 C718 1.275 . S
O720 Tb702 2.513 1_556 S
O720 C718 1.246 . S
C721 O705 1.245 . S
C721 O706 1.259 1_545 S
Tb722 O725 2.453 . S
Tb722 O726 2.596 1_655 S
Tb722 O727 2.374 1_655 S
Tb722 O735 2.343 1_554 S
Tb722 O737 2.353 . S
Tb722 O739 2.427 1_554 S
Tb722 O740 2.513 1_554 S
C723 O727 1.251 . S
C723 O729 1.263 . S
Tb724 O726 2.343 1_556 S
Tb724 O729 2.353 1_556 S
Tb724 O732 2.427 1_556 S
Tb724 O733 2.513 1_556 S
Tb724 O734 2.453 . S
Tb724 O735 2.596 1_455 S
Tb724 O736 2.374 1_455 S
O725 Tb722 2.453 . S
O725 C741 1.245 1_655 S
O726 Tb722 2.596 1_455 S
O726 Tb724 2.343 1_554 S
O726 C741 1.259 . S
O727 Tb722 2.374 1_455 S
O727 C723 1.251 . S
C728 O732 1.275 . S
C728 O733 1.246 . S
O729 C723 1.263 . S
O729 Tb724 2.353 1_554 S
C730 O734 1.236 1_655 S
C730 O735 1.263 . S
C731 O736 1.250 . S
C731 O737 1.263 1_556 S
O732 Tb724 2.427 1_554 S
O732 C728 1.275 . S
O733 Tb724 2.513 1_554 S
O733 C728 1.246 . S
O734 Tb724 2.453 . S
O734 C730 1.236 1_455 S
O735 Tb722 2.343 1_556 S
O735 Tb724 2.596 1_655 S
O735 C730 1.263 . S
O736 Tb724 2.374 1_655 S
O736 C731 1.250 . S
O737 Tb722 2.353 . S
O737 C731 1.263 1_554 S
C738 O739 1.275 . S
C738 O740 1.246 . S
O739 Tb722 2.427 1_556 S
O739 C738 1.275 . S
O740 Tb722 2.513 1_556 S
O740 C738 1.246 . S
C741 O725 1.245 1_455 S
C741 O726 1.259 . S
Tb742 O745 2.453 . S
Tb742 O746 2.596 . S
Tb742 O747 2.374 . S
Tb742 O755 2.343 1_556 S
Tb742 O757 2.353 1_556 S
Tb742 O759 2.427 1_556 S
Tb742 O760 2.513 1_556 S
C743 O747 1.251 . S
C743 O749 1.263 1_556 S
Tb744 O746 2.343 1_554 S
Tb744 O749 2.353 . S
Tb744 O752 2.427 1_554 S
Tb744 O753 2.513 1_554 S
Tb744 O754 2.453 . S
Tb744 O755 2.596 . S
Tb744 O756 2.374 . S
O745 Tb742 2.453 . S
O745 C761 1.245 . S
O746 Tb742 2.596 . S
O746 Tb744 2.343 1_556 S
O746 C761 1.259 . S
O747 Tb742 2.374 . S
O747 C743 1.251 . S
C748 O752 1.275 . S
C748 O753 1.246 . S
O749 C743 1.263 1_554 S
O749 Tb744 2.353 . S
C750 O754 1.245 . S
C750 O755 1.259 . S
C751 O756 1.250 . S
C751 O757 1.263 . S
O752 Tb744 2.427 1_556 S
O752 C748 1.275 . S
O753 Tb744 2.513 1_556 S
O753 C748 1.246 . S
O754 Tb744 2.453 . S
O754 C750 1.245 . S
O755 Tb742 2.343 1_554 S
O755 Tb744 2.596 . S
O755 C750 1.259 . S
O756 Tb744 2.374 . S
O756 C751 1.250 . S
O757 Tb742 2.353 1_554 S
O757 C751 1.263 . S
C758 O759 1.275 . S
C758 O760 1.246 . S
O759 Tb742 2.427 1_554 S
O759 C758 1.275 . S
O760 Tb742 2.513 1_554 S
O760 C758 1.246 . S
C761 O745 1.245 . S
C761 O746 1.259 . S
Tb762 O765 2.453 . S
Tb762 O766 2.596 . S
Tb762 O767 2.374 . S
Tb762 O775 2.343 . S
Tb762 O777 2.353 . S
Tb762 O779 2.427 . S
Tb762 O780 2.513 . S
C763 O767 1.251 . S
C763 O769 1.263 . S
Tb764 O766 2.343 . S
Tb764 O769 2.353 . S
Tb764 O772 2.427 . S
Tb764 O773 2.513 . S
Tb764 O774 2.453 . S
Tb764 O775 2.596 . S
Tb764 O776 2.374 . S
O765 Tb762 2.453 . S
O765 C781 1.245 . S
O766 Tb762 2.596 . S
O766 Tb764 2.343 . S
O766 C781 1.259 . S
O767 Tb762 2.374 . S
O767 C763 1.251 . S
C768 O772 1.275 . S
C768 O773 1.246 . S
O769 C763 1.263 . S
O769 Tb764 2.353 . S
C770 O774 1.245 . S
C770 O775 1.259 . S
C771 O776 1.250 . S
C771 O777 1.263 . S
O772 Tb764 2.427 . S
O772 C768 1.275 . S
O773 Tb764 2.513 . S
O773 C768 1.246 . S
O774 Tb764 2.453 . S
O774 C770 1.245 . S
O775 Tb762 2.343 . S
O775 Tb764 2.596 . S
O775 C770 1.259 . S
O776 Tb764 2.374 . S
O776 C771 1.250 . S
O777 Tb762 2.353 . S
O777 C771 1.263 . S
C778 O779 1.275 . S
C778 O780 1.246 . S
O779 Tb762 2.427 . S
O779 C778 1.275 . S
O780 Tb762 2.513 . S
O780 C778 1.246 . S
C781 O765 1.245 . S
C781 O766 1.259 . S
Tb782 O785 2.453 . S
Tb782 O786 2.596 . S
Tb782 O787 2.374 . S
Tb782 O795 2.343 . S
Tb782 O797 2.353 . S
Tb782 O799 2.427 . S
Tb782 O800 2.513 . S
C783 O787 1.251 . S
C783 O789 1.263 . S
Tb784 O786 2.343 . S
Tb784 O789 2.353 . S
Tb784 O792 2.427 . S
Tb784 O793 2.513 . S
Tb784 O794 2.453 . S
Tb784 O795 2.596 . S
Tb784 O796 2.374 . S
O785 Tb782 2.453 . S
O785 C801 1.245 . S
O786 Tb782 2.596 . S
O786 Tb784 2.343 . S
O786 C801 1.259 . S
O787 Tb782 2.374 . S
O787 C783 1.251 . S
C788 O792 1.275 . S
C788 O793 1.246 . S
O789 C783 1.263 . S
O789 Tb784 2.353 . S
C790 O794 1.245 . S
C790 O795 1.259 . S
C791 O796 1.250 . S
C791 O797 1.263 . S
O792 Tb784 2.427 . S
O792 C788 1.275 . S
O793 Tb784 2.513 . S
O793 C788 1.246 . S
O794 Tb784 2.453 . S
O794 C790 1.245 . S
O795 Tb782 2.343 . S
O795 Tb784 2.596 . S
O795 C790 1.259 . S
O796 Tb784 2.374 . S
O796 C791 1.250 . S
O797 Tb782 2.353 . S
O797 C791 1.263 . S
C798 O799 1.275 . S
C798 O800 1.246 . S
O799 Tb782 2.427 . S
O799 C798 1.275 . S
O800 Tb782 2.513 . S
O800 C798 1.246 . S
C801 O785 1.245 . S
C801 O786 1.259 . S
Tb802 O805 2.453 . S
Tb802 O806 2.596 . S
Tb802 O807 2.374 . S
Tb802 O815 2.343 . S
Tb802 O817 2.353 . S
Tb802 O819 2.427 . S
Tb802 O820 2.513 . S
C803 O807 1.251 . S
C803 O809 1.263 . S
Tb804 O806 2.343 . S
Tb804 O809 2.353 . S
Tb804 O812 2.427 . S
Tb804 O813 2.513 . S
Tb804 O814 2.453 . S
Tb804 O815 2.596 . S
Tb804 O816 2.374 . S
O805 Tb802 2.453 . S
O805 C821 1.245 . S
O806 Tb802 2.596 . S
O806 Tb804 2.343 . S
O806 C821 1.259 . S
O807 Tb802 2.374 . S
O807 C803 1.251 . S
C808 O812 1.275 . S
C808 O813 1.246 . S
O809 C803 1.263 . S
O809 Tb804 2.353 . S
C810 O814 1.245 . S
C810 O815 1.259 . S
C811 O816 1.250 . S
C811 O817 1.263 . S
O812 Tb804 2.427 . S
O812 C808 1.275 . S
O813 Tb804 2.513 . S
O813 C808 1.246 . S
O814 Tb804 2.453 . S
O814 C810 1.245 . S
O815 Tb802 2.343 . S
O815 Tb804 2.596 . S
O815 C810 1.259 . S
O816 Tb804 2.374 . S
O816 C811 1.250 . S
O817 Tb802 2.353 . S
O817 C811 1.263 . S
C818 O819 1.275 . S
C818 O820 1.246 . S
O819 Tb802 2.427 . S
O819 C818 1.275 . S
O820 Tb802 2.513 . S
O820 C818 1.246 . S
C821 O805 1.245 . S
C821 O806 1.259 . S
Tb822 O825 2.453 . S
Tb822 O826 2.596 . S
Tb822 O827 2.374 . S
Tb822 O835 2.343 . S
Tb822 O837 2.353 . S
Tb822 O839 2.427 . S
Tb822 O840 2.513 . S
C823 O827 1.251 . S
C823 O829 1.263 . S
Tb824 O826 2.343 . S
Tb824 O829 2.353 . S
Tb824 O832 2.427 . S
Tb824 O833 2.513 . S
Tb824 O834 2.453 . S
Tb824 O835 2.596 . S
Tb824 O836 2.374 . S
O825 Tb822 2.453 . S
O825 C841 1.245 . S
O826 Tb822 2.596 . S
O826 Tb824 2.343 . S
O826 C841 1.259 . S
O827 Tb822 2.374 . S
O827 C823 1.251 . S
C828 O832 1.275 . S
C828 O833 1.246 . S
O829 C823 1.263 . S
O829 Tb824 2.353 . S
C830 O834 1.245 . S
C830 O835 1.259 . S
C831 O836 1.250 . S
C831 O837 1.263 . S
O832 Tb824 2.427 . S
O832 C828 1.275 . S
O833 Tb824 2.513 . S
O833 C828 1.246 . S
O834 Tb824 2.453 . S
O834 C830 1.245 . S
O835 Tb822 2.343 . S
O835 Tb824 2.596 . S
O835 C830 1.259 . S
O836 Tb824 2.374 . S
O836 C831 1.250 . S
O837 Tb822 2.353 . S
O837 C831 1.263 . S
C838 O839 1.275 . S
C838 O840 1.246 . S
O839 Tb822 2.427 . S
O839 C838 1.275 . S
O840 Tb822 2.513 . S
O840 C838 1.246 . S
C841 O825 1.245 . S
C841 O826 1.259 . S
Tb842 O845 2.453 . S
Tb842 O846 2.596 . S
Tb842 O847 2.374 . S
Tb842 O855 2.343 . S
Tb842 O857 2.353 . S
Tb842 O859 2.427 . S
Tb842 O860 2.513 . S
C843 O847 1.251 . S
C843 O849 1.263 . S
Tb844 O846 2.343 . S
Tb844 O849 2.353 . S
Tb844 O852 2.427 . S
Tb844 O853 2.513 . S
Tb844 O854 2.453 . S
Tb844 O855 2.596 . S
Tb844 O856 2.374 . S
O845 Tb842 2.453 . S
O845 C861 1.245 . S
O846 Tb842 2.596 . S
O846 Tb844 2.343 . S
O846 C861 1.259 . S
O847 Tb842 2.374 . S
O847 C843 1.251 . S
C848 O852 1.275 . S
C848 O853 1.246 . S
O849 C843 1.263 . S
O849 Tb844 2.353 . S
C850 O854 1.245 . S
C850 O855 1.259 . S
C851 O856 1.250 . S
C851 O857 1.263 . S
O852 Tb844 2.427 . S
O852 C848 1.275 . S
O853 Tb844 2.513 . S
O853 C848 1.246 . S
O854 Tb844 2.453 . S
O854 C850 1.245 . S
O855 Tb842 2.343 . S
O855 Tb844 2.596 . S
O855 C850 1.259 . S
O856 Tb844 2.374 . S
O856 C851 1.250 . S
O857 Tb842 2.353 . S
O857 C851 1.263 . S
C858 O859 1.275 . S
C858 O860 1.246 . S
O859 Tb842 2.427 . S
O859 C858 1.275 . S
O860 Tb842 2.513 . S
O860 C858 1.246 . S
C861 O845 1.245 . S
C861 O846 1.259 . S
Tb862 O865 2.453 . S
Tb862 O866 2.596 . S
Tb862 O867 2.374 . S
Tb862 O875 2.343 . S
Tb862 O877 2.353 . S
Tb862 O879 2.427 . S
Tb862 O880 2.513 . S
C863 O867 1.251 . S
C863 O869 1.263 . S
Tb864 O866 2.343 . S
Tb864 O869 2.353 . S
Tb864 O872 2.427 . S
Tb864 O873 2.513 . S
Tb864 O874 2.453 . S
Tb864 O875 2.596 . S
Tb864 O876 2.374 . S
O865 Tb862 2.453 . S
O865 C881 1.245 . S
O866 Tb862 2.596 . S
O866 Tb864 2.343 . S
O866 C881 1.259 . S
O867 Tb862 2.374 . S
O867 C863 1.251 . S
C868 O872 1.275 . S
C868 O873 1.246 . S
O869 C863 1.263 . S
O869 Tb864 2.353 . S
C870 O874 1.245 . S
C870 O875 1.259 . S
C871 O876 1.250 . S
C871 O877 1.263 . S
O872 Tb864 2.427 . S
O872 C868 1.275 . S
O873 Tb864 2.513 . S
O873 C868 1.246 . S
O874 Tb864 2.453 . S
O874 C870 1.245 . S
O875 Tb862 2.343 . S
O875 Tb864 2.596 . S
O875 C870 1.259 . S
O876 Tb864 2.374 . S
O876 C871 1.250 . S
O877 Tb862 2.353 . S
O877 C871 1.263 . S
C878 O879 1.275 . S
C878 O880 1.246 . S
O879 Tb862 2.427 . S
O879 C878 1.275 . S
O880 Tb862 2.513 . S
O880 C878 1.246 . S
C881 O865 1.245 . S
C881 O866 1.259 . S
C882 C883 1.387 . S
C882 H886 0.950 . S
C882 C891 1.390 . S
C883 C882 1.387 . S
C883 C885 1.387 . S
H884 C891 0.950 . S
C885 C883 1.387 . S
C885 C887 1.390 . S
C885 H889 0.950 . S
H886 C882 0.950 . S
C887 C885 1.390 . S
C887 C888 1.387 . S
C887 H890 0.950 . S
C888 C887 1.387 . S
C888 C891 1.387 . S
H889 C885 0.950 . S
H890 C887 0.950 . S
C891 C882 1.390 . S
C891 H884 0.950 . S
C891 C888 1.387 . S
C892 C893 1.387 . S
C892 H896 0.950 . S
C892 C901 1.390 . S
C893 C892 1.387 . S
C893 C895 1.387 . S
H894 C901 0.950 . S
C895 C893 1.387 . S
C895 C897 1.390 . S
C895 H899 0.950 . S
H896 C892 0.950 . S
C897 C895 1.390 . S
C897 C898 1.387 . S
C897 H900 0.950 . S
C898 C897 1.387 . S
C898 C901 1.387 . S
H899 C895 0.950 . S
H900 C897 0.950 . S
C901 C892 1.390 . S
C901 H894 0.950 . S
C901 C898 1.387 . S
C902 C903 1.387 . S
C902 H906 0.950 . S
C902 C911 1.390 . S
C903 C902 1.387 . S
C903 C905 1.387 . S
H904 C911 0.950 1_556 S
C905 C903 1.387 . S
C905 C907 1.390 . S
C905 H909 0.950 . S
H906 C902 0.950 . S
C907 C905 1.390 . S
C907 C908 1.387 . S
C907 H910 0.950 . S
C908 C907 1.387 . S
C908 C911 1.387 . S
H909 C905 0.950 . S
H910 C907 0.950 . S
C911 C902 1.390 . S
C911 H904 0.950 1_554 S
C911 C908 1.387 . S
C912 C913 1.387 . S
C912 H916 0.950 . S
C912 C921 1.390 . S
C913 C912 1.387 . S
C913 C915 1.387 . S
H914 C921 0.950 . S
C915 C913 1.387 . S
C915 C917 1.390 . S
C915 H919 0.950 . S
H916 C912 0.950 . S
C917 C915 1.390 . S
C917 C918 1.387 . S
C917 H920 0.950 . S
C918 C917 1.387 . S
C918 C921 1.387 . S
H919 C915 0.950 . S
H920 C917 0.950 . S
C921 C912 1.390 . S
C921 H914 0.950 . S
C921 C918 1.387 . S
C922 C923 1.387 . S
C922 H926 0.950 . S
C922 C931 1.390 . S
C923 C922 1.387 . S
C923 C925 1.387 . S
H924 C931 0.950 . S
C925 C923 1.387 . S
C925 C927 1.390 . S
C925 H929 0.950 . S
H926 C922 0.950 . S
C927 C925 1.390 . S
C927 C928 1.387 . S
C927 H930 0.950 . S
C928 C927 1.387 . S
C928 C931 1.387 . S
H929 C925 0.950 . S
H930 C927 0.950 . S
C931 C922 1.390 . S
C931 H924 0.950 . S
C931 C928 1.387 . S
C932 C933 1.387 . S
C932 H936 0.950 . S
C932 C941 1.390 . S
C933 C932 1.387 . S
C933 C935 1.387 . S
H934 C941 0.950 1_554 S
C935 C933 1.387 . S
C935 C937 1.390 . S
C935 H939 0.950 . S
H936 C932 0.950 . S
C937 C935 1.390 . S
C937 C938 1.387 . S
C937 H940 0.950 . S
C938 C937 1.387 . S
C938 C941 1.387 . S
H939 C935 0.950 . S
H940 C937 0.950 . S
C941 C932 1.390 . S
C941 H934 0.950 1_556 S
C941 C938 1.387 . S
C942 C943 1.387 . S
C942 H946 0.950 . S
C942 C951 1.390 . S
C943 C942 1.387 . S
C943 C945 1.387 . S
H944 C951 0.950 . S
C945 C943 1.387 . S
C945 C947 1.390 . S
C945 H949 0.950 . S
H946 C942 0.950 . S
C947 C945 1.390 . S
C947 C948 1.387 . S
C947 H950 0.950 . S
C948 C947 1.387 . S
C948 C951 1.387 . S
H949 C945 0.950 . S
H950 C947 0.950 . S
C951 C942 1.390 . S
C951 H944 0.950 . S
C951 C948 1.387 . S
C952 C953 1.387 . S
C952 H956 0.950 . S
C952 C961 1.390 . S
C953 C952 1.387 . S
C953 C955 1.387 . S
H954 C961 0.950 . S
C955 C953 1.387 . S
C955 C957 1.390 . S
C955 H959 0.950 . S
H956 C952 0.950 . S
C957 C955 1.390 . S
C957 C958 1.387 . S
C957 H960 0.950 . S
C958 C957 1.387 . S
C958 C961 1.387 . S
H959 C955 0.950 . S
H960 C957 0.950 . S
C961 C952 1.390 . S
C961 H954 0.950 . S
C961 C958 1.387 . S
C962 C963 1.387 . S
C962 H966 0.950 1_556 S
C962 C971 1.390 . S
C963 C962 1.387 . S
C963 C965 1.387 . S
H964 C971 0.950 1_554 S
C965 C963 1.387 . S
C965 C967 1.390 . S
C965 H969 0.950 . S
H966 C962 0.950 1_554 S
C967 C965 1.390 . S
C967 C968 1.387 . S
C967 H970 0.950 . S
C968 C967 1.387 . S
C968 C971 1.387 . S
H969 C965 0.950 . S
H970 C967 0.950 . S
C971 C962 1.390 . S
C971 H964 0.950 1_556 S
C971 C968 1.387 . S
C972 C973 1.387 . S
C972 H976 0.950 . S
C972 C981 1.390 . S
C973 C972 1.387 . S
C973 C975 1.387 . S
H974 C981 0.950 . S
C975 C973 1.387 . S
C975 C977 1.390 . S
C975 H979 0.950 . S
H976 C972 0.950 . S
C977 C975 1.390 . S
C977 C978 1.387 . S
C977 H980 0.950 . S
C978 C977 1.387 . S
C978 C981 1.387 . S
H979 C975 0.950 . S
H980 C977 0.950 . S
C981 C972 1.390 . S
C981 H974 0.950 . S
C981 C978 1.387 . S
C982 C983 1.387 . S
C982 H986 0.950 . S
C982 C991 1.390 . S
C983 C982 1.387 . S
C983 C985 1.387 . S
H984 C991 0.950 . S
C985 C983 1.387 . S
C985 C987 1.390 . S
C985 H989 0.950 . S
H986 C982 0.950 . S
C987 C985 1.390 . S
C987 C988 1.387 . S
C987 H990 0.950 . S
C988 C987 1.387 . S
C988 C991 1.387 . S
H989 C985 0.950 . S
H990 C987 0.950 . S
C991 C982 1.390 . S
C991 H984 0.950 . S
C991 C988 1.387 . S
C992 C993 1.387 . S
C992 H996 0.950 . S
C992 C1001 1.390 . S
C993 C992 1.387 . S
C993 C995 1.387 . S
H994 C1001 0.950 . S
C995 C993 1.387 . S
C995 C997 1.390 . S
C995 H999 0.950 . S
H996 C992 0.950 . S
C997 C995 1.390 . S
C997 C998 1.387 . S
C997 H1000 0.950 . S
C998 C997 1.387 . S
C998 C1001 1.387 . S
H999 C995 0.950 . S
H1000 C997 0.950 . S
C1001 C992 1.390 . S
C1001 H994 0.950 . S
C1001 C998 1.387 . S
C1002 C1003 1.387 . S
C1002 H1006 0.950 . S
C1002 C1011 1.390 . S
C1003 C1002 1.387 . S
C1003 C1005 1.387 . S
H1004 C1011 0.950 . S
C1005 C1003 1.387 . S
C1005 C1007 1.390 . S
C1005 H1009 0.950 1_455 S
H1006 C1002 0.950 . S
C1007 C1005 1.390 . S
C1007 C1008 1.387 . S
C1007 H1010 0.950 . S
C1008 C1007 1.387 . S
C1008 C1011 1.387 . S
H1009 C1005 0.950 1_655 S
H1010 C1007 0.950 . S
C1011 C1002 1.390 . S
C1011 H1004 0.950 . S
C1011 C1008 1.387 . S
C1012 C1013 1.387 . S
C1012 H1016 0.950 . S
C1012 C1021 1.390 . S
C1013 C1012 1.387 . S
C1013 C1015 1.387 . S
H1014 C1021 0.950 . S
C1015 C1013 1.387 . S
C1015 C1017 1.390 . S
C1015 H1019 0.950 . S
H1016 C1012 0.950 . S
C1017 C1015 1.390 . S
C1017 C1018 1.387 . S
C1017 H1020 0.950 . S
C1018 C1017 1.387 . S
C1018 C1021 1.387 . S
H1019 C1015 0.950 . S
H1020 C1017 0.950 . S
C1021 C1012 1.390 . S
C1021 H1014 0.950 . S
C1021 C1018 1.387 . S
C1022 C1023 1.387 . S
C1022 H1026 0.950 . S
C1022 C1031 1.390 . S
C1023 C1022 1.387 . S
C1023 C1025 1.387 . S
H1024 C1031 0.950 . S
C1025 C1023 1.387 . S
C1025 C1027 1.390 . S
C1025 H1029 0.950 . S
H1026 C1022 0.950 . S
C1027 C1025 1.390 . S
C1027 C1028 1.387 . S
C1027 H1030 0.950 . S
C1028 C1027 1.387 . S
C1028 C1031 1.387 . S
H1029 C1025 0.950 . S
H1030 C1027 0.950 . S
C1031 C1022 1.390 . S
C1031 H1024 0.950 . S
C1031 C1028 1.387 . S
C1032 C1033 1.387 . S
C1032 H1036 0.950 . S
C1032 C1041 1.390 . S
C1033 C1032 1.387 . S
C1033 C1035 1.387 . S
H1034 C1041 0.950 . S
C1035 C1033 1.387 . S
C1035 C1037 1.390 . S
C1035 H1039 0.950 . S
H1036 C1032 0.950 . S
C1037 C1035 1.390 . S
C1037 C1038 1.387 . S
C1037 H1040 0.950 . S
C1038 C1037 1.387 . S
C1038 C1041 1.387 . S
H1039 C1035 0.950 . S
H1040 C1037 0.950 . S
C1041 C1032 1.390 . S
C1041 H1034 0.950 . S
C1041 C1038 1.387 . S
C1042 C1043 1.387 . S
C1042 H1046 0.950 . S
C1042 C1051 1.390 . S
C1043 C1042 1.387 . S
C1043 C1045 1.387 . S
H1044 C1051 0.950 . S
C1045 C1043 1.387 . S
C1045 C1047 1.390 . S
C1045 H1049 0.950 . S
H1046 C1042 0.950 . S
C1047 C1045 1.390 . S
C1047 C1048 1.387 . S
C1047 H1050 0.950 . S
C1048 C1047 1.387 . S
C1048 C1051 1.387 . S
H1049 C1045 0.950 . S
H1050 C1047 0.950 . S
C1051 C1042 1.390 . S
C1051 H1044 0.950 . S
C1051 C1048 1.387 . S
C1052 C1053 1.387 . S
C1052 H1056 0.950 . S
C1052 C1061 1.390 . S
C1053 C1052 1.387 . S
C1053 C1055 1.387 . S
H1054 C1061 0.950 . S
C1055 C1053 1.387 . S
C1055 C1057 1.390 . S
C1055 H1059 0.950 . S
H1056 C1052 0.950 . S
C1057 C1055 1.390 . S
C1057 C1058 1.387 . S
C1057 H1060 0.950 . S
C1058 C1057 1.387 . S
C1058 C1061 1.387 . S
H1059 C1055 0.950 . S
H1060 C1057 0.950 . S
C1061 C1052 1.390 . S
C1061 H1054 0.950 . S
C1061 C1058 1.387 . S
C1062 C1063 1.387 . S
C1062 H1066 0.950 . S
C1062 C1071 1.390 . S
C1063 C1062 1.387 . S
C1063 C1065 1.387 . S
H1064 C1071 0.950 . S
C1065 C1063 1.387 . S
C1065 C1067 1.390 . S
C1065 H1069 0.950 . S
H1066 C1062 0.950 . S
C1067 C1065 1.390 . S
C1067 C1068 1.387 . S
C1067 H1070 0.950 . S
C1068 C1067 1.387 . S
C1068 C1071 1.387 . S
H1069 C1065 0.950 . S
H1070 C1067 0.950 . S
C1071 C1062 1.390 . S
C1071 H1064 0.950 . S
C1071 C1068 1.387 . S
C1072 C1073 1.387 . S
C1072 H1076 0.950 . S
C1072 C1081 1.390 . S
C1073 C1072 1.387 . S
C1073 C1075 1.387 . S
H1074 C1081 0.950 . S
C1075 C1073 1.387 . S
C1075 C1077 1.390 . S
C1075 H1079 0.950 . S
H1076 C1072 0.950 . S
C1077 C1075 1.390 . S
C1077 C1078 1.387 . S
C1077 H1080 0.950 . S
C1078 C1077 1.387 . S
C1078 C1081 1.387 . S
H1079 C1075 0.950 . S
H1080 C1077 0.950 . S
C1081 C1072 1.390 . S
C1081 H1074 0.950 . S
C1081 C1078 1.387 . S
C1082 C1083 1.387 . S
C1082 H1086 0.950 . S
C1082 C1091 1.390 . S
C1083 C1082 1.387 . S
C1083 C1085 1.387 . S
H1084 C1091 0.950 . S
C1085 C1083 1.387 . S
C1085 C1087 1.390 . S
C1085 H1089 0.950 . S
H1086 C1082 0.950 . S
C1087 C1085 1.390 . S
C1087 C1088 1.387 . S
C1087 H1090 0.950 . S
C1088 C1087 1.387 . S
C1088 C1091 1.387 . S
H1089 C1085 0.950 . S
H1090 C1087 0.950 . S
C1091 C1082 1.390 . S
C1091 H1084 0.950 . S
C1091 C1088 1.387 . S
C1092 C1093 1.387 . S
C1092 H1096 0.950 . S
C1092 C1101 1.390 . S
C1093 C1092 1.387 . S
C1093 C1095 1.387 . S
H1094 C1101 0.950 . S
C1095 C1093 1.387 . S
C1095 C1097 1.390 . S
C1095 H1099 0.950 . S
H1096 C1092 0.950 . S
C1097 C1095 1.390 . S
C1097 C1098 1.387 . S
C1097 H1100 0.950 . S
C1098 C1097 1.387 . S
C1098 C1101 1.387 . S
H1099 C1095 0.950 . S
H1100 C1097 0.950 . S
C1101 C1092 1.390 . S
C1101 H1094 0.950 . S
C1101 C1098 1.387 . S
C1102 C1103 1.387 . S
C1102 H1106 0.950 . S
C1102 C1111 1.390 . S
C1103 C1102 1.387 . S
C1103 C1105 1.387 . S
H1104 C1111 0.950 . S
C1105 C1103 1.387 . S
C1105 C1107 1.390 . S
C1105 H1109 0.950 . S
H1106 C1102 0.950 . S
C1107 C1105 1.390 . S
C1107 C1108 1.387 . S
C1107 H1110 0.950 . S
C1108 C1107 1.387 . S
C1108 C1111 1.387 . S
H1109 C1105 0.950 . S
H1110 C1107 0.950 . S
C1111 C1102 1.390 . S
C1111 H1104 0.950 . S
C1111 C1108 1.387 . S
C1112 C1113 1.387 . S
C1112 H1116 0.950 . S
C1112 C1121 1.390 . S
C1113 C1112 1.387 . S
C1113 C1115 1.387 . S
H1114 C1121 0.950 . S
C1115 C1113 1.387 . S
C1115 C1117 1.390 . S
C1115 H1119 0.950 . S
H1116 C1112 0.950 . S
C1117 C1115 1.390 . S
C1117 C1118 1.387 . S
C1117 H1120 0.950 . S
C1118 C1117 1.387 . S
C1118 C1121 1.387 . S
H1119 C1115 0.950 . S
H1120 C1117 0.950 . S
C1121 C1112 1.390 . S
C1121 H1114 0.950 . S
C1121 C1118 1.387 . S
C1122 C1123 1.387 . S
C1122 H1126 0.950 . S
C1122 C1131 1.390 . S
C1123 C1122 1.387 . S
C1123 C1125 1.387 . S
H1124 C1131 0.950 . S
C1125 C1123 1.387 . S
C1125 C1127 1.390 . S
C1125 H1129 0.950 . S
H1126 C1122 0.950 . S
C1127 C1125 1.390 . S
C1127 C1128 1.387 . S
C1127 H1130 0.950 . S
C1128 C1127 1.387 . S
C1128 C1131 1.387 . S
H1129 C1125 0.950 . S
H1130 C1127 0.950 . S
C1131 C1122 1.390 . S
C1131 H1124 0.950 . S
C1131 C1128 1.387 . S
C1132 C1133 1.387 . S
C1132 H1136 0.950 . S
C1132 C1141 1.390 . S
C1133 C1132 1.387 . S
C1133 C1135 1.387 . S
H1134 C1141 0.950 . S
C1135 C1133 1.387 . S
C1135 C1137 1.390 . S
C1135 H1139 0.950 . S
H1136 C1132 0.950 . S
C1137 C1135 1.390 . S
C1137 C1138 1.387 . S
C1137 H1140 0.950 . S
C1138 C1137 1.387 . S
C1138 C1141 1.387 . S
H1139 C1135 0.950 . S
H1140 C1137 0.950 . S
C1141 C1132 1.390 . S
C1141 H1134 0.950 . S
C1141 C1138 1.387 . S
C1142 C1143 1.387 . S
C1142 H1146 0.950 . S
C1142 C1151 1.390 . S
C1143 C1142 1.387 . S
C1143 C1145 1.387 . S
H1144 C1151 0.950 . S
C1145 C1143 1.387 . S
C1145 C1147 1.390 . S
C1145 H1149 0.950 . S
H1146 C1142 0.950 . S
C1147 C1145 1.390 . S
C1147 C1148 1.387 . S
C1147 H1150 0.950 . S
C1148 C1147 1.387 . S
C1148 C1151 1.387 . S
H1149 C1145 0.950 . S
H1150 C1147 0.950 . S
C1151 C1142 1.390 . S
C1151 H1144 0.950 . S
C1151 C1148 1.387 . S
C1152 C1153 1.387 . S
C1152 H1156 0.950 . S
C1152 C1161 1.390 . S
C1153 C1152 1.387 . S
C1153 C1155 1.387 . S
H1154 C1161 0.950 . S
C1155 C1153 1.387 . S
C1155 C1157 1.390 . S
C1155 H1159 0.950 . S
H1156 C1152 0.950 . S
C1157 C1155 1.390 . S
C1157 C1158 1.387 . S
C1157 H1160 0.950 . S
C1158 C1157 1.387 . S
C1158 C1161 1.387 . S
H1159 C1155 0.950 . S
H1160 C1157 0.950 . S
C1161 C1152 1.390 . S
C1161 H1154 0.950 . S
C1161 C1158 1.387 . S
C1162 C1163 1.387 . S
C1162 H1166 0.950 1_655 S
C1162 C1171 1.390 . S
C1163 C1162 1.387 . S
C1163 C1165 1.387 . S
H1164 C1171 0.950 . S
C1165 C1163 1.387 . S
C1165 C1167 1.390 . S
C1165 H1169 0.950 . S
H1166 C1162 0.950 1_455 S
C1167 C1165 1.390 . S
C1167 C1168 1.387 . S
C1167 H1170 0.950 . S
C1168 C1167 1.387 . S
C1168 C1171 1.387 . S
H1169 C1165 0.950 . S
H1170 C1167 0.950 . S
C1171 C1162 1.390 . S
C1171 H1164 0.950 . S
C1171 C1168 1.387 . S
C1172 C1173 1.387 . S
C1172 H1176 0.950 . S
C1172 C1181 1.390 . S
C1173 C1172 1.387 . S
C1173 C1175 1.387 . S
H1174 C1181 0.950 . S
C1175 C1173 1.387 . S
C1175 C1177 1.390 . S
C1175 H1179 0.950 . S
H1176 C1172 0.950 . S
C1177 C1175 1.390 . S
C1177 C1178 1.387 . S
C1177 H1180 0.950 . S
C1178 C1177 1.387 . S
C1178 C1181 1.387 . S
H1179 C1175 0.950 . S
H1180 C1177 0.950 . S
C1181 C1172 1.390 . S
C1181 H1174 0.950 . S
C1181 C1178 1.387 . S
C1182 C1183 1.395 . S
C1182 H1186 0.950 1_655 S
C1182 C1191 1.390 . S
C1183 C1182 1.395 . S
C1183 C1185 1.393 . S
H1184 C1191 0.950 . S
C1185 C1183 1.393 . S
C1185 C1187 1.390 . S
C1185 H1189 0.950 . S
H1186 C1182 0.950 1_455 S
C1187 C1185 1.390 . S
C1187 C1188 1.387 . S
C1187 H1190 0.950 . S
C1188 C1187 1.387 . S
C1188 C1191 1.387 . S
H1189 C1185 0.950 . S
H1190 C1187 0.950 . S
C1191 C1182 1.390 . S
C1191 H1184 0.950 . S
C1191 C1188 1.387 . S
C1192 C1193 1.387 . S
C1192 H1196 0.950 . S
C1192 C1201 1.390 . S
C1193 C1192 1.387 . S
C1193 C1195 1.387 . S
H1194 C1201 0.950 . S
C1195 C1193 1.387 . S
C1195 C1197 1.390 . S
C1195 H1199 0.950 . S
H1196 C1192 0.950 . S
C1197 C1195 1.390 . S
C1197 C1198 1.387 . S
C1197 H1200 0.950 . S
C1198 C1197 1.387 . S
C1198 C1201 1.387 . S
H1199 C1195 0.950 . S
H1200 C1197 0.950 . S
C1201 C1192 1.390 . S
C1201 H1194 0.950 . S
C1201 C1198 1.387 . S
C1202 C1203 1.387 . S
C1202 H1206 0.950 . S
C1202 C1211 1.390 . S
C1203 C1202 1.387 . S
C1203 C1205 1.387 . S
H1204 C1211 0.950 . S
C1205 C1203 1.387 . S
C1205 C1207 1.390 . S
C1205 H1209 0.950 . S
H1206 C1202 0.950 . S
C1207 C1205 1.390 . S
C1207 C1208 1.387 . S
C1207 H1210 0.950 . S
C1208 C1207 1.387 . S
C1208 C1211 1.387 . S
H1209 C1205 0.950 . S
H1210 C1207 0.950 . S
C1211 C1202 1.390 . S
C1211 H1204 0.950 . S
C1211 C1208 1.387 . S
C1212 C1213 1.387 . S
C1212 H1216 0.950 . S
C1212 C1221 1.390 . S
C1213 C1212 1.387 . S
C1213 C1215 1.387 . S
H1214 C1221 0.950 . S
C1215 C1213 1.387 . S
C1215 C1217 1.390 . S
C1215 H1219 0.950 . S
H1216 C1212 0.950 . S
C1217 C1215 1.390 . S
C1217 C1218 1.387 . S
C1217 H1220 0.950 . S
C1218 C1217 1.387 . S
C1218 C1221 1.387 . S
H1219 C1215 0.950 . S
H1220 C1217 0.950 . S
C1221 C1212 1.390 . S
C1221 H1214 0.950 . S
C1221 C1218 1.387 . S
C1222 C1223 1.387 . S
C1222 H1226 0.950 . S
C1222 C1231 1.390 . S
C1223 C1222 1.387 . S
C1223 C1225 1.387 . S
H1224 C1231 0.950 . S
C1225 C1223 1.387 . S
C1225 C1227 1.390 . S
C1225 H1229 0.950 . S
H1226 C1222 0.950 . S
C1227 C1225 1.390 . S
C1227 C1228 1.387 . S
C1227 H1230 0.950 . S
C1228 C1227 1.387 . S
C1228 C1231 1.387 . S
H1229 C1225 0.950 . S
H1230 C1227 0.950 . S
C1231 C1222 1.390 . S
C1231 H1224 0.950 . S
C1231 C1228 1.387 . S
C1232 C1233 1.387 . S
C1232 H1236 0.950 . S
C1232 C1241 1.390 . S
C1233 C1232 1.387 . S
C1233 C1235 1.387 . S
H1234 C1241 0.950 . S
C1235 C1233 1.387 . S
C1235 C1237 1.390 . S
C1235 H1239 0.950 . S
H1236 C1232 0.950 . S
C1237 C1235 1.390 . S
C1237 C1238 1.387 . S
C1237 H1240 0.950 . S
C1238 C1237 1.387 . S
C1238 C1241 1.387 . S
H1239 C1235 0.950 . S
H1240 C1237 0.950 . S
C1241 C1232 1.390 . S
C1241 H1234 0.950 . S
C1241 C1238 1.387 . S
C1242 C1243 1.387 . S
C1242 H1246 0.950 . S
C1242 C1251 1.390 . S
C1243 C1242 1.387 . S
C1243 C1245 1.387 . S
H1244 C1251 0.950 1_545 S
C1245 C1243 1.387 . S
C1245 C1247 1.390 . S
C1245 H1249 0.950 . S
H1246 C1242 0.950 . S
C1247 C1245 1.390 . S
C1247 C1248 1.387 . S
C1247 H1250 0.950 . S
C1248 C1247 1.387 . S
C1248 C1251 1.387 . S
H1249 C1245 0.950 . S
H1250 C1247 0.950 . S
C1251 C1242 1.390 . S
C1251 H1244 0.950 1_565 S
C1251 C1248 1.387 . S
C1252 C1253 1.387 . S
C1252 H1256 0.950 . S
C1252 C1261 1.390 . S
C1253 C1252 1.387 . S
C1253 C1255 1.387 . S
H1254 C1261 0.950 . S
C1255 C1253 1.387 . S
C1255 C1257 1.390 . S
C1255 H1259 0.950 . S
H1256 C1252 0.950 . S
C1257 C1255 1.390 . S
C1257 C1258 1.387 . S
C1257 H1260 0.950 . S
C1258 C1257 1.387 . S
C1258 C1261 1.387 . S
H1259 C1255 0.950 . S
H1260 C1257 0.950 . S
C1261 C1252 1.390 . S
C1261 H1254 0.950 . S
C1261 C1258 1.387 . S
C1262 C1263 1.387 . S
C1262 H1266 0.950 . S
C1262 C1271 1.390 . S
C1263 C1262 1.387 . S
C1263 C1265 1.387 . S
H1264 C1271 0.950 . S
C1265 C1263 1.387 . S
C1265 C1267 1.390 . S
C1265 H1269 0.950 . S
H1266 C1262 0.950 . S
C1267 C1265 1.390 . S
C1267 C1268 1.387 . S
C1267 H1270 0.950 . S
C1268 C1267 1.387 . S
C1268 C1271 1.387 . S
H1269 C1265 0.950 . S
H1270 C1267 0.950 . S
C1271 C1262 1.390 . S
C1271 H1264 0.950 . S
C1271 C1268 1.387 . S
C1272 C1273 1.387 . S
C1272 H1276 0.950 . S
C1272 C1281 1.390 . S
C1273 C1272 1.387 . S
C1273 C1275 1.387 1_655 S
H1274 C1281 0.950 . S
C1275 C1273 1.387 1_455 S
C1275 C1277 1.390 . S
C1275 H1279 0.950 . S
H1276 C1272 0.950 . S
C1277 C1275 1.390 . S
C1277 C1278 1.387 1_455 S
C1277 H1280 0.950 . S
C1278 C1277 1.387 1_655 S
C1278 C1281 1.387 . S
H1279 C1275 0.950 . S
H1280 C1277 0.950 . S
C1281 C1272 1.390 . S
C1281 H1274 0.950 . S
C1281 C1278 1.387 . S
C1282 C1283 1.387 . S
C1282 H1286 0.950 . S
C1282 C1291 1.390 . S
C1283 C1282 1.387 . S
C1283 C1285 1.387 . S
H1284 C1291 0.950 . S
C1285 C1283 1.387 . S
C1285 C1287 1.390 . S
C1285 H1289 0.950 . S
H1286 C1282 0.950 . S
C1287 C1285 1.390 . S
C1287 C1288 1.387 . S
C1287 H1290 0.950 . S
C1288 C1287 1.387 . S
C1288 C1291 1.387 . S
H1289 C1285 0.950 . S
H1290 C1287 0.950 . S
C1291 C1282 1.390 . S
C1291 H1284 0.950 . S
C1291 C1288 1.387 . S
C1292 C1293 1.387 1_565 S
C1292 H1296 0.950 . S
C1292 C1301 1.390 . S
C1293 C1292 1.387 1_545 S
C1293 C1295 1.387 . S
H1294 C1301 0.950 . S
C1295 C1293 1.387 . S
C1295 C1297 1.390 . S
C1295 H1299 0.950 . S
H1296 C1292 0.950 . S
C1297 C1295 1.390 . S
C1297 C1298 1.387 . S
C1297 H1300 0.950 . S
C1298 C1297 1.387 . S
C1298 C1301 1.387 1_545 S
H1299 C1295 0.950 . S
H1300 C1297 0.950 . S
C1301 C1292 1.390 . S
C1301 H1294 0.950 . S
C1301 C1298 1.387 1_565 S
C1302 C1303 1.387 . S
C1302 H1306 0.950 . S
C1302 C1311 1.390 . S
C1303 C1302 1.387 . S
C1303 C1305 1.387 . S
H1304 C1311 0.950 . S
C1305 C1303 1.387 . S
C1305 C1307 1.390 . S
C1305 H1309 0.950 . S
H1306 C1302 0.950 . S
C1307 C1305 1.390 . S
C1307 C1308 1.387 . S
C1307 H1310 0.950 . S
C1308 C1307 1.387 . S
C1308 C1311 1.387 . S
H1309 C1305 0.950 . S
H1310 C1307 0.950 . S
C1311 C1302 1.390 . S
C1311 H1304 0.950 . S
C1311 C1308 1.387 . S
C1312 C1313 1.387 . S
C1312 H1316 0.950 . S
C1312 C1321 1.390 . S
C1313 C1312 1.387 . S
C1313 C1315 1.387 . S
H1314 C1321 0.950 . S
C1315 C1313 1.387 . S
C1315 C1317 1.390 . S
C1315 H1319 0.950 . S
H1316 C1312 0.950 . S
C1317 C1315 1.390 . S
C1317 C1318 1.387 . S
C1317 H1320 0.950 . S
C1318 C1317 1.387 . S
C1318 C1321 1.387 . S
H1319 C1315 0.950 . S
H1320 C1317 0.950 . S
C1321 C1312 1.390 . S
C1321 H1314 0.950 . S
C1321 C1318 1.387 . S
C1322 C1323 1.387 . S
C1322 H1326 0.950 . S
C1322 C1331 1.390 . S
C1323 C1322 1.387 . S
C1323 C1325 1.387 . S
H1324 C1331 0.950 . S
C1325 C1323 1.387 . S
C1325 C1327 1.390 . S
C1325 H1329 0.950 . S
H1326 C1322 0.950 . S
C1327 C1325 1.390 . S
C1327 C1328 1.387 . S
C1327 H1330 0.950 . S
C1328 C1327 1.387 . S
C1328 C1331 1.387 . S
H1329 C1325 0.950 . S
H1330 C1327 0.950 . S
C1331 C1322 1.390 . S
C1331 H1324 0.950 . S
C1331 C1328 1.387 . S
C1332 C1333 1.387 . S
C1332 H1336 0.950 . S
C1332 C1341 1.390 . S
C1333 C1332 1.387 . S
C1333 C1335 1.387 . S
H1334 C1341 0.950 . S
C1335 C1333 1.387 . S
C1335 C1337 1.390 . S
C1335 H1339 0.950 . S
H1336 C1332 0.950 . S
C1337 C1335 1.390 . S
C1337 C1338 1.387 . S
C1337 H1340 0.950 . S
C1338 C1337 1.387 . S
C1338 C1341 1.387 . S
H1339 C1335 0.950 . S
H1340 C1337 0.950 . S
C1341 C1332 1.390 . S
C1341 H1334 0.950 . S
C1341 C1338 1.387 . S
C1342 C1343 1.387 . S
C1342 H1346 0.950 . S
C1342 C1351 1.390 . S
C1343 C1342 1.387 . S
C1343 C1345 1.387 . S
H1344 C1351 0.950 . S
C1345 C1343 1.387 . S
C1345 C1347 1.390 . S
C1345 H1349 0.950 . S
H1346 C1342 0.950 . S
C1347 C1345 1.390 . S
C1347 C1348 1.387 . S
C1347 H1350 0.950 . S
C1348 C1347 1.387 . S
C1348 C1351 1.387 . S
H1349 C1345 0.950 . S
H1350 C1347 0.950 . S
C1351 C1342 1.390 . S
C1351 H1344 0.950 . S
C1351 C1348 1.387 . S
C1352 C1353 1.387 . S
C1352 H1356 0.950 . S
C1352 C1361 1.390 . S
C1353 C1352 1.387 . S
C1353 C1355 1.387 . S
H1354 C1361 0.950 . S
C1355 C1353 1.387 . S
C1355 C1357 1.390 . S
C1355 H1359 0.950 . S
H1356 C1352 0.950 . S
C1357 C1355 1.390 . S
C1357 C1358 1.387 . S
C1357 H1360 0.950 . S
C1358 C1357 1.387 . S
C1358 C1361 1.387 . S
H1359 C1355 0.950 . S
H1360 C1357 0.950 . S
C1361 C1352 1.390 . S
C1361 H1354 0.950 . S
C1361 C1358 1.387 . S
C1362 C1363 1.387 . S
C1362 H1366 0.950 . S
C1362 C1371 1.390 . S
C1363 C1362 1.387 . S
C1363 C1365 1.387 . S
H1364 C1371 0.950 . S
C1365 C1363 1.387 . S
C1365 C1367 1.390 . S
C1365 H1369 0.950 . S
H1366 C1362 0.950 . S
C1367 C1365 1.390 . S
C1367 C1368 1.387 . S
C1367 H1370 0.950 . S
C1368 C1367 1.387 . S
C1368 C1371 1.387 . S
H1369 C1365 0.950 . S
H1370 C1367 0.950 . S
C1371 C1362 1.390 . S
C1371 H1364 0.950 . S
C1371 C1368 1.387 . S
C1372 C1373 1.387 . S
C1372 H1376 0.950 . S
C1372 C1381 1.390 . S
C1373 C1372 1.387 . S
C1373 C1375 1.387 . S
H1374 C1381 0.950 . S
C1375 C1373 1.387 . S
C1375 C1377 1.390 . S
C1375 H1379 0.950 . S
H1376 C1372 0.950 . S
C1377 C1375 1.390 . S
C1377 C1378 1.387 . S
C1377 H1380 0.950 . S
C1378 C1377 1.387 . S
C1378 C1381 1.387 . S
H1379 C1375 0.950 . S
H1380 C1377 0.950 . S
C1381 C1372 1.390 . S
C1381 H1374 0.950 . S
C1381 C1378 1.387 . S
C1382 C1383 1.387 . S
C1382 H1386 0.950 . S
C1382 C1391 1.390 . S
C1383 C1382 1.387 . S
C1383 C1385 1.387 . S
H1384 C1391 0.950 . S
C1385 C1383 1.387 . S
C1385 C1387 1.390 . S
C1385 H1389 0.950 . S
H1386 C1382 0.950 . S
C1387 C1385 1.390 . S
C1387 C1388 1.387 . S
C1387 H1390 0.950 . S
C1388 C1387 1.387 . S
C1388 C1391 1.387 . S
H1389 C1385 0.950 . S
H1390 C1387 0.950 . S
C1391 C1382 1.390 . S
C1391 H1384 0.950 . S
C1391 C1388 1.387 . S
C1392 C1393 1.387 . S
C1392 H1396 0.950 . S
C1392 C1401 1.390 . S
C1393 C1392 1.387 . S
C1393 C1395 1.387 . S
H1394 C1401 0.950 . S
C1395 C1393 1.387 . S
C1395 C1397 1.390 . S
C1395 H1399 0.950 . S
H1396 C1392 0.950 . S
C1397 C1395 1.390 . S
C1397 C1398 1.387 . S
C1397 H1400 0.950 . S
C1398 C1397 1.387 . S
C1398 C1401 1.387 . S
H1399 C1395 0.950 . S
H1400 C1397 0.950 . S
C1401 C1392 1.390 . S
C1401 H1394 0.950 . S
C1401 C1398 1.387 . S
C1402 C1403 1.387 . S
C1402 H1406 0.950 . S
C1402 C1411 1.390 . S
C1403 C1402 1.387 . S
C1403 C1405 1.387 . S
H1404 C1411 0.950 . S
C1405 C1403 1.387 . S
C1405 C1407 1.390 . S
C1405 H1409 0.950 . S
H1406 C1402 0.950 . S
C1407 C1405 1.390 . S
C1407 C1408 1.387 . S
C1407 H1410 0.950 . S
C1408 C1407 1.387 . S
C1408 C1411 1.387 . S
H1409 C1405 0.950 . S
H1410 C1407 0.950 . S
C1411 C1402 1.390 . S
C1411 H1404 0.950 . S
C1411 C1408 1.387 . S
C1412 C1413 1.387 . S
C1412 H1416 0.950 . S
C1412 C1421 1.390 . S
C1413 C1412 1.387 . S
C1413 C1415 1.387 . S
H1414 C1421 0.950 . S
C1415 C1413 1.387 . S
C1415 C1417 1.390 . S
C1415 H1419 0.950 . S
H1416 C1412 0.950 . S
C1417 C1415 1.390 . S
C1417 C1418 1.387 . S
C1417 H1420 0.950 . S
C1418 C1417 1.387 . S
C1418 C1421 1.387 . S
H1419 C1415 0.950 . S
H1420 C1417 0.950 . S
C1421 C1412 1.390 . S
C1421 H1414 0.950 . S
C1421 C1418 1.387 . S
C883 C528 1.586 . S
C888 C708 1.560 . S
C893 C562 1.534 . S
C898 C728 1.499 . S
C903 C484 1.580 . S
C908 C751 1.572 . S
C913 C445 1.499 . S
C918 C731 1.491 . S
C928 C748 1.486 . S
C923 C367 1.499 . S
C933 C411 1.518 . S
C938 C711 1.506 . S
C948 C718 1.572 . S
C943 C450 1.586 . S
C958 C738 1.486 . S
C953 C372 1.516 . S
C963 C406 1.579 . S
C968 C743 1.574 . S
C973 C523 1.497 . S
C978 C723 1.492 . S
C983 C567 1.478 . S
C988 C758 1.471 . S
C998 C703 1.523 . S
C993 C489 1.523 . S
C1008 C768 1.560 . S
C1003 C60 1.586 1_455 S
C1013 C94 1.534 . S
C1018 C788 1.500 . S
C1023 C16 1.582 1_565 S
C1028 C811 1.574 . S
C1033 C679 1.501 . S
C1038 C791 1.493 . S
C1043 C601 1.500 . S
C1048 C808 1.486 . S
C1053 C645 1.518 . S
C1058 C771 1.506 . S
C1063 C684 1.588 . S
C1068 C778 1.575 . S
C1073 C606 1.516 . S
C1078 C798 1.487 . S
C1088 C803 1.575 . S
C1083 C640 1.579 . S
C1093 C55 1.495 1_565 S
C1098 C783 1.491 . S
C1108 C818 1.472 . S
C1103 C99 1.478 1_455 S
C1113 C21 1.523 . S
C1118 C763 1.523 . S
C1128 C828 1.561 . S
C1123 C294 1.586 . S
C1133 C328 1.534 . S
C1138 C848 1.498 . S
C1148 C871 1.575 . S
C1143 C250 1.582 . S
C1158 C851 1.492 . S
C1153 C211 1.499 1_545 S
C1168 C868 1.486 . S
C1163 C133 1.499 1_655 S
C1173 C177 1.519 . S
C1178 C831 1.508 . S
C1183 C216 1.577 1_655 S
C1188 C838 1.575 . S
C1193 C138 1.517 . S
C1198 C858 1.487 . S
C1208 C863 1.574 . S
C1203 C172 1.578 1_545 S
C1213 C289 1.496 . S
C1218 C843 1.491 . S
C1223 C333 1.478 . S
C1228 C878 1.471 . S
C1233 C255 1.524 . S
C1238 C823 1.524 . S
C1243 C586 1.343 . S
C1248 C721 1.314 1_565 S
C1258 C741 1.583 . S
C1253 C625 1.653 . S
C1263 C664 1.519 . S
C1268 C750 1.473 . S
C1273 C235 1.660 . S
C1278 C730 1.596 . S
C1283 C274 1.508 . S
C1288 C761 1.456 . S
C1298 C710 1.309 1_545 S
C1293 C313 1.340 . S
C1303 C118 1.344 . S
C1308 C781 1.315 . S
C1313 C157 1.652 . S
C1318 C801 1.581 . S
C1323 C196 1.520 . S
C1328 C810 1.475 . S
C1333 C469 1.659 . S
C1338 C790 1.593 . S
C1348 C821 1.457 . S
C1343 C508 1.508 . S
C1353 C547 1.340 . S
C1358 C770 1.307 . S
C1363 C352 1.344 . S
C1368 C841 1.315 . S
C1373 C391 1.652 . S
C1378 C861 1.582 . S
C1388 C870 1.475 . S
C1383 C430 1.520 . S
C1393 C1 1.660 . S
C1398 C850 1.594 . S
C1403 C40 1.510 . S
C1408 C881 1.460 . S
C1413 C79 1.340 . S
C1418 C830 1.307 . S
