# Generated by pormake.
# Topology ftw, (4,12)-cn, num edge types: 1
# Building blocks:
#     Node 0, Type 0, BuildingBlock: AZAVOO_clean_linker_0, # of connection points: 4
#     Node 1, Type 0, BuildingBlock: AZAVOO_clean_linker_0, # of connection points: 4
#     Node 2, Type 0, BuildingBlock: AZAVOO_clean_linker_0, # of connection points: 4
#     Node 3, Type 1, BuildingBlock: QEWDON_clean_sbu_0, # of connection points: 12
#     Edge 4, Type (0, 1), BuildingBlock: MIFKUJ_clean_linker_0, # of connection points: 2
#     Edge 5, Type (0, 1), BuildingBlock: MIFKUJ_clean_linker_0, # of connection points: 2
#     Edge 6, Type (0, 1), BuildingBlock: MIFKUJ_clean_linker_0, # of connection points: 2
#     Edge 7, Type (0, 1), BuildingBlock: MIFKUJ_clean_linker_0, # of connection points: 2
#     Edge 8, Type (0, 1), BuildingBlock: MIFKUJ_clean_linker_0, # of connection points: 2
#     Edge 9, Type (0, 1), BuildingBlock: MIFKUJ_clean_linker_0, # of connection points: 2
#     Edge 10, Type (0, 1), BuildingBlock: MIFKUJ_clean_linker_0, # of connection points: 2
#     Edge 11, Type (0, 1), BuildingBlock: MIFKUJ_clean_linker_0, # of connection points: 2
#     Edge 12, Type (0, 1), BuildingBlock: MIFKUJ_clean_linker_0, # of connection points: 2
#     Edge 13, Type (0, 1), BuildingBlock: MIFKUJ_clean_linker_0, # of connection points: 2
#     Edge 14, Type (0, 1), BuildingBlock: MIFKUJ_clean_linker_0, # of connection points: 2
#     Edge 15, Type (0, 1), BuildingBlock: MIFKUJ_clean_linker_0, # of connection points: 2
# Relax obj value: 0.071
# Max RMSD: 0.223
# Mean RMSD: 0.192
data_MOF--net-ftw--node1-QEWDON_clean_sbu_0--node2-AZAVOO_clean_linker_0--edge1-MIFKUJ_clean_linker_0
_symmetry_space_group_name_H-M    P1
_symmetry_Int_Tables_number       1
_symmetry_cell_setting            triclinic
loop_
_symmetry_equiv_pos_as_xyz
'x, y, z'
_cell_length_a     33.857844
_cell_length_b     33.723086
_cell_length_c     35.378008
_cell_angle_alpha  91.258513
_cell_angle_beta   88.929926
_cell_angle_gamma 91.310872
loop_
_atom_site_label
_atom_site_type_symbol
_atom_site_fract_x
_atom_site_fract_y
_atom_site_fract_z
_atom_type_partial_charge
H0 H 0.02734 0.24045 0.46418 0.0
H1 H 0.96306 0.57837 0.75379 0.0
H2 H 0.06742 0.45044 0.44491 0.0
H3 H 0.06963 0.40846 0.38833 0.0
H4 H 0.95286 0.44638 0.35959 0.0
H5 H 0.95017 0.48648 0.4181 0.0
H6 H 0.05652 0.40401 0.51666 0.0
H7 H 0.05498 0.33335 0.49933 0.0
H8 H 0.9386 0.34566 0.45322 0.0
H9 H 0.9403 0.41616 0.47122 0.0
H10 H 0.05549 0.44955 0.59065 0.0
H11 H 0.04993 0.40075 0.64105 0.0
H12 H 0.92768 0.37811 0.61303 0.0
H13 H 0.9335 0.42705 0.5629 0.0
H14 H 0.06087 0.54455 0.59114 0.0
H15 H 0.0602 0.57027 0.65635 0.0
H16 H 0.93701 0.53506 0.66794 0.0
H17 H 0.93793 0.5101 0.60243 0.0
H18 H 0.06424 0.59115 0.5188 0.0
H19 H 0.07232 0.65358 0.55479 0.0
H20 H 0.94947 0.64594 0.58994 0.0
H21 H 0.94156 0.58436 0.55309 0.0
H22 H 0.06027 0.54182 0.43068 0.0
H23 H 0.05963 0.58996 0.3798 0.0
H24 H 0.94492 0.62866 0.41887 0.0
H25 H 0.9453 0.57983 0.46911 0.0
O26 O 0.02713 0.26834 0.47121 0.0
O27 O 0.96744 0.27632 0.44768 0.0
O28 O 0.02734 0.5864 0.72031 0.0
O29 O 0.96423 0.56813 0.72804 0.0
C30 C 0.00342 0.48633 0.47536 0.0
C31 C 5e-05 0.45834 0.50464 0.0
C32 C -0.00181 0.47125 0.54275 0.0
C33 C -0.00055 0.51212 0.5518 0.0
C34 C 0.00088 0.54032 0.52264 0.0
C35 C 0.00264 0.52752 0.48422 0.0
C36 C 0.00851 0.47121 0.43582 0.0
C37 C 0.04273 0.45048 0.42585 0.0
C38 C 0.04392 0.42647 0.39326 0.0
C39 C 0.01113 0.42328 0.3694 0.0
C40 C 0.97826 0.44715 0.37774 0.0
C41 C 0.97687 0.47071 0.41083 0.0
C42 C -0.00151 0.41513 0.49526 0.0
C43 C 0.03058 0.39128 0.50315 0.0
C44 C 0.02968 0.35098 0.49306 0.0
C45 C 0.99669 0.33386 0.47483 0.0
C46 C 0.96447 0.35789 0.4672 0.0
C47 C 0.96536 0.39814 0.47744 0.0
C48 C 0.99486 0.44181 0.57328 0.0
C49 C 0.02755 0.43402 0.5955 0.0
C50 C 0.02439 0.40603 0.62403 0.0
C51 C 0.98836 0.38565 0.63096 0.0
C52 C 0.95569 0.39364 0.60859 0.0
C53 C 0.95897 0.42139 0.5799 0.0
C54 C -0.00057 0.52557 0.5921 0.0
C55 C 0.0338 0.54239 0.60785 0.0
C56 C 0.03333 0.55703 0.64509 0.0
C57 C -0.00149 0.55478 0.66735 0.0
C58 C 0.96429 0.5373 0.65159 0.0
C59 C 0.96476 0.52286 0.61425 0.0
C60 C 0.00239 0.58313 0.53353 0.0
C61 C 0.03872 0.60391 0.53294 0.0
C62 C 0.04338 0.63925 0.55398 0.0
C63 C 0.01175 0.65432 0.57592 0.0
C64 C 0.97442 0.63537 0.57332 0.0
C65 C 0.96979 0.60014 0.5522 0.0
C66 C 0.00278 0.55712 0.45361 0.0
C67 C 0.03486 0.56044 0.42808 0.0
C68 C 0.03444 0.58793 0.39905 0.0
C69 C 0.00219 0.61304 0.39535 0.0
C70 C 0.97031 0.60996 0.42122 0.0
C71 C 0.97051 0.58209 0.4499 0.0
C72 C 0.99604 0.29115 0.46372 0.0
C73 C -0.00227 0.57074 0.7068 0.0
H74 H 0.58707 0.93759 0.26744 0.0
H75 H 0.24778 0.0319 0.55471 0.0
H76 H 0.58121 0.91979 0.47156 0.0
H77 H 0.63997 0.91791 0.43044 0.0
H78 H 0.65697 0.04439 0.44674 0.0
H79 H 0.59807 0.04593 0.48808 0.0
H80 H 0.51225 0.92233 0.41701 0.0
H81 H 0.53918 0.91735 0.35239 0.0
H82 H 0.57489 0.04124 0.35877 0.0
H83 H 0.54744 0.04585 0.42316 0.0
H84 H 0.42371 0.92759 0.45294 0.0
H85 H 0.3766 0.92625 0.40113 0.0
H86 H 0.41132 0.04682 0.37469 0.0
H87 H 0.45874 0.04744 0.42602 0.0
H88 H 0.41527 0.93136 0.54247 0.0
H89 H 0.34525 0.93413 0.56056 0.0
H90 H 0.34202 0.05438 0.52085 0.0
H91 H 0.41221 0.05136 0.50336 0.0
H92 H 0.48492 0.93194 0.59304 0.0
H93 H 0.44669 0.93268 0.65264 0.0
H94 H 0.42134 0.05622 0.63695 0.0
H95 H 0.46011 0.05527 0.57808 0.0
H96 H 0.57802 0.92842 0.55225 0.0
H97 H 0.62555 0.92807 0.6035 0.0
H98 H 0.5972 0.04934 0.63288 0.0
H99 H 0.54943 0.04918 0.58171 0.0
O100 O 0.57556 0.94049 0.29256 0.0
O101 O 0.59336 0.00426 0.29736 0.0
O102 O 0.27871 0.9681 0.56778 0.0
O103 O 0.27543 0.02993 0.54762 0.0
C104 C 0.54301 0.98608 0.49403 0.0
C105 C 0.51475 0.98643 0.46494 0.0
C106 C 0.47411 0.98801 0.47396 0.0
C107 C 0.46161 0.98991 0.51219 0.0
C108 C 0.48976 0.99076 0.54144 0.0
C109 C 0.53066 0.98857 0.53246 0.0
C110 C 0.58533 0.98299 0.48277 0.0
C111 C 0.59869 0.94677 0.46773 0.0
C112 C 0.6319 0.94587 0.44376 0.0
C113 C 0.6525 0.98116 0.43467 0.0
C114 C 0.64169 0.01673 0.45321 0.0
C115 C 0.60824 0.01763 0.47712 0.0
C116 C 0.52803 0.9844 0.42469 0.0
C117 C 0.52548 0.94844 0.40417 0.0
C118 C 0.54105 0.94566 0.36737 0.0
C119 C 0.55938 0.97885 0.35047 0.0
C120 C 0.56106 0.01509 0.37094 0.0
C121 C 0.54538 0.01783 0.40768 0.0
C122 C 0.44468 0.98758 0.44319 0.0
C123 C 0.42098 0.9537 0.43596 0.0
C124 C 0.39399 0.95307 0.40643 0.0
C125 C 0.3902 0.98638 0.38354 0.0
C126 C 0.41389 0.02038 0.39121 0.0
C127 C 0.44085 0.02093 0.42069 0.0
C128 C 0.41874 0.99118 0.52172 0.0
C129 C 0.39935 0.95826 0.53773 0.0
C130 C 0.35937 0.95992 0.54799 0.0
C131 C 0.33803 0.99452 0.54219 0.0
C132 C 0.35756 0.02731 0.52573 0.0
C133 C 0.39759 0.02564 0.5156 0.0
C134 C 0.47533 0.99356 0.58131 0.0
C135 C 0.47219 0.95945 0.60321 0.0
C136 C 0.44989 0.95982 0.63695 0.0
C137 C 0.43053 0.99439 0.64937 0.0
C138 C 0.43608 0.02919 0.62851 0.0
C139 C 0.45827 0.02875 0.59483 0.0
C140 C 0.56025 0.98883 0.56311 0.0
C141 C 0.58229 0.955 0.56959 0.0
C142 C 0.60955 0.95493 0.59886 0.0
C143 C 0.61536 0.98873 0.62239 0.0
C144 C 0.59321 0.02264 0.61569 0.0
C145 C 0.566 0.02268 0.58634 0.0
C146 C 0.57709 0.97549 0.31187 0.0
C147 C 0.29563 0.99655 0.55333 0.0
H148 H 0.27543 0.30638 0.97964 0.0
H149 H 0.71907 0.39423 0.09647 0.0
H150 H 0.3981 0.49582 0.98538 0.0
H151 H 0.32733 0.4901 0.97241 0.0
H152 H 0.30259 0.47476 0.09144 0.0
H153 H 0.37336 0.48012 0.10407 0.0
H154 H 0.41362 0.41356 0.98056 0.0
H155 H 0.35761 0.36816 0.9685 0.0
H156 H 0.34589 0.34735 0.08843 0.0
H157 H 0.40185 0.39309 0.10004 0.0
H158 H 0.49132 0.38372 0.98748 0.0
H159 H 0.51804 0.31716 0.97974 0.0
H160 H 0.52797 0.31037 0.10119 0.0
H161 H 0.49914 0.37585 0.10845 0.0
H162 H 0.56498 0.45721 1.00111 0.0
H163 H 0.63472 0.43957 1.00232 0.0
H164 H 0.6218 0.41309 0.12105 0.0
H165 H 0.55225 0.43119 0.11944 0.0
H166 H 0.53022 0.54761 0.00944 0.0
H167 H 0.58854 0.59084 0.0141 0.0
H168 H 0.60496 0.55264 0.12868 0.0
H169 H 0.54425 0.51254 0.1247 0.0
H170 H 0.45932 0.55964 1.00089 0.0
H171 H 0.43863 0.62846 1.0043 0.0
H172 H 0.4132 0.61671 0.12394 0.0
H173 H 0.43658 0.54855 0.1204 0.0
O174 O 0.29843 0.32301 0.9849 0.0
O175 O 0.29512 0.31131 0.04652 0.0
O176 O 0.69697 0.41638 0.03435 0.0
O177 O 0.69164 0.40146 0.09519 0.0
C178 C 0.43228 0.47769 0.05117 0.0
C179 C 0.44263 0.43732 0.04862 0.0
C180 C 0.48219 0.42659 0.05277 0.0
C181 C 0.51153 0.45625 0.05913 0.0
C182 C 0.50117 0.49663 0.06185 0.0
C183 C 0.46142 0.50736 0.05791 0.0
C184 C 0.39064 0.48814 0.0456 0.0
C185 C 0.37721 0.49308 0.00881 0.0
C186 C 0.33691 0.48963 1.00144 0.0
C187 C 0.30967 0.48167 0.0309 0.0
C188 C 0.32294 0.48127 0.06829 0.0
C189 C 0.3633 0.4843 0.07557 0.0
C190 C 0.4117 0.40645 0.04113 0.0
C191 C 0.39918 0.39876 1.0041 0.0
C192 C 0.3671 0.37296 0.99734 0.0
C193 C 0.34712 0.35429 0.02753 0.0
C194 C 0.36055 0.36131 0.06455 0.0
C195 C 0.3926 0.38722 0.07127 0.0
C196 C 0.49358 0.38455 0.04849 0.0
C197 C 0.49844 0.36734 0.01236 0.0
C198 C 0.51409 0.32949 0.00804 0.0
C199 C 0.52562 0.30844 0.03981 0.0
C200 C 0.51901 0.32532 0.07608 0.0
C201 C 0.50286 0.36292 0.08034 0.0
C202 C 0.55367 0.44523 0.06012 0.0
C203 C 0.57734 0.44755 0.0273 0.0
C204 C 0.61711 0.43747 0.0281 0.0
C205 C 0.63382 0.42483 0.0618 0.0
C206 C 0.60988 0.42262 0.09464 0.0
C207 C 0.57015 0.43282 0.0938 0.0
C208 C 0.53274 0.52732 0.06686 0.0
C209 C 0.54551 0.54989 0.03603 0.0
C210 C 0.57948 0.57389 0.03853 0.0
C211 C 0.60216 0.57474 0.07153 0.0
C212 C 0.58825 0.5532 0.10293 0.0
C213 C 0.55362 0.53004 0.10069 0.0
C214 C 0.45003 0.54946 0.0605 0.0
C215 C 0.45 0.57228 0.02793 0.0
C216 C 0.4376 0.61147 0.02992 0.0
C217 C 0.42393 0.62833 0.0644 0.0
C218 C 0.42412 0.60514 0.09705 0.0
C219 C 0.43721 0.56608 0.09509 0.0
C220 C 0.31206 0.32815 0.02037 0.0
C221 C 0.67604 0.41401 0.06279 0.0
Zn222 Zn 0.06436 0.08937 0.97366 0.0
Zn223 Zn 0.04772 0.08682 0.06464 0.0
O224 O 0.04968 0.05316 0.01713 0.0
H225 H 0.03828 0.02675 0.01423 0.0
C226 C 0.91898 0.10938 0.92953 0.0
O227 O 0.88817 0.11624 0.95162 0.0
Zn228 Zn 0.96393 0.90566 0.06745 0.0
Zn229 Zn 0.9348 0.90216 0.98027 0.0
O230 O 0.953 0.9397 0.02287 0.0
H231 H 0.96424 0.96594 0.01914 0.0
Zn232 Zn 0.92115 0.04444 0.98079 0.0
O233 O 0.95434 0.04596 0.02796 0.0
Zn234 Zn 0.91787 0.03753 0.07252 0.0
H235 H 0.94135 0.04566 1.0039 0.0
Zn236 Zn 0.10939 0.93924 0.96988 0.0
O237 O 0.06828 0.93889 0.01248 0.0
H238 H 0.04008 0.9403 0.00922 0.0
Zn239 Zn 0.09805 0.95344 0.05943 0.0
C240 C 0.06548 0.91098 0.90175 0.0
O241 O 0.03842 0.93538 0.91462 0.0
O242 O 0.06234 0.14871 0.98892 0.0
O243 O 0.05786 0.14477 0.05175 0.0
O244 O 0.92289 0.84509 0.99788 0.0
O245 O 0.94609 0.84881 0.05629 0.0
O246 O 0.86215 0.04892 0.99451 0.0
O247 O 0.86081 0.04719 0.05747 0.0
C248 C 0.10106 0.03304 0.09746 0.0
O249 O 0.16621 0.93603 0.9895 0.0
O250 O 0.15705 0.94715 0.05122 0.0
O251 O 0.90355 0.92242 0.93411 0.0
C252 C 0.06147 0.165 0.02175 0.0
O253 O 0.11146 0.0736 0.93788 0.0
C254 C 0.91951 0.95883 0.1155 0.0
O255 O 0.93975 0.07931 0.93562 0.0
C256 C 0.92984 0.82915 0.02935 0.0
O257 O 0.09716 0.90762 0.92005 0.0
C258 C 0.96936 0.0905 0.11358 0.0
O259 O 0.08982 0.06872 0.09998 0.0
O260 O 0.08504 0.0097 0.07333 0.0
C261 C 0.84337 0.05076 0.026 0.0
O262 O 0.93283 0.92399 0.11335 0.0
O263 O 0.92611 0.98138 0.08766 0.0
C264 C 0.04645 0.90318 0.10419 0.0
O265 O 0.93437 0.07587 0.11433 0.0
O266 O 0.99273 0.07837 0.08736 0.0
C267 C 0.17973 0.93986 0.02282 0.0
O268 O 0.08148 0.9172 0.10146 0.0
O269 O 0.022 0.91269 0.07914 0.0
C270 C 0.87377 0.94466 0.93773 0.0
O271 O 0.86267 0.95679 0.97176 0.0
C272 C 0.11506 0.03921 0.92293 0.0
O273 O 0.0879 0.01178 0.92993 0.0
H274 H 0.07264 0.39671 0.32393 0.0
H275 H 0.0717 0.34048 0.2791 0.0
H276 H 0.94639 0.32451 0.29811 0.0
H277 H 0.94715 0.37885 0.34478 0.0
H278 H 0.03644 0.25671 0.29927 0.0
H279 H 0.91618 0.30573 0.19868 0.0
H280 H 0.88838 0.36709 0.1747 0.0
H281 H -0.00081 0.42867 0.19193 0.0
H282 H 0.02779 0.36766 0.21545 0.0
H283 H 0.92357 0.12087 0.1708 0.0
H284 H 0.93821 0.17757 0.21262 0.0
H285 H 0.05348 0.19109 0.16024 0.0
H286 H 0.03991 0.13276 0.11951 0.0
H287 H 0.97486 0.26123 0.17331 0.0
H288 H 0.08045 0.17493 0.22391 0.0
H289 H 0.09842 0.11057 0.25011 0.0
H290 H 0.00854 0.12264 0.33643 0.0
H291 H 0.98934 0.18647 0.3102 0.0
C292 C 0.04484 0.38115 0.31895 0.0
C293 C 0.00999 0.3925 0.33836 0.0
C294 C 0.04442 0.3491 0.29317 0.0
C295 C 0.00902 0.32842 0.2855 0.0
C296 C 0.97398 0.34031 0.30364 0.0
C297 C 0.97446 0.3718 0.33001 0.0
C298 C 0.00866 0.29376 0.25914 0.0
C299 C 0.02371 0.2579 0.2714 0.0
C300 C 0.99085 0.29511 0.22339 0.0
C301 C 0.97398 0.33214 0.20931 0.0
C302 C 0.93463 0.33235 0.19731 0.0
C303 C 0.91873 0.36709 0.18377 0.0
C304 C 0.94195 0.4018 0.18194 0.0
C305 C 0.98115 0.40183 0.19356 0.0
C306 C -0.00282 0.36719 0.20714 0.0
C307 C 0.95231 0.13545 0.16835 0.0
C308 C 0.98033 0.12268 0.14103 0.0
C309 C 0.96053 0.16791 0.19231 0.0
C310 C 0.99681 0.18842 0.18942 0.0
C311 C 0.0253 0.17544 0.16291 0.0
C312 C 0.01735 0.14238 0.13933 0.0
C313 C 0.00368 0.2246 0.21296 0.0
C314 C 0.98874 0.26046 0.20066 0.0
C315 C 0.02099 0.22315 0.24889 0.0
C316 C 0.03319 0.18519 0.26483 0.0
C317 C 0.06425 0.16363 0.24819 0.0
C318 C 0.07473 0.12733 0.2631 0.0
C319 C 0.05464 0.11257 0.29484 0.0
C320 C 0.02405 0.13408 0.31181 0.0
C321 C 0.01335 0.17028 0.29694 0.0
H322 H 0.06283 0.08449 0.30632 0.0
H323 H 0.92959 0.42866 0.17142 0.0
H324 H 0.72565 0.01826 0.43111 0.0
H325 H 0.77202 0.01966 0.37696 0.0
H326 H 0.69003 0.9479 0.31139 0.0
H327 H 0.64433 0.94572 0.36542 0.0
H328 H 0.75968 0.92107 0.30012 0.0
H329 H 0.70372 0.04965 0.29863 0.0
H330 H 0.6846 0.11508 0.32449 0.0
H331 H 0.80647 0.14586 0.34365 0.0
H332 H 0.82629 0.08036 0.31838 0.0
H333 H 0.85955 0.01246 0.12232 0.0
H334 H 0.81496 0.02186 0.17721 0.0
H335 H 0.88449 0.94213 0.24097 0.0
H336 H 0.92809 0.9319 0.18622 0.0
H337 H 0.81797 0.04615 0.25012 0.0
H338 H 0.82642 0.88057 0.29038 0.0
H339 H 0.83892 0.8157 0.2593 0.0
H340 H 0.79972 0.85982 0.1538 0.0
H341 H 0.78652 0.92477 0.18428 0.0
C342 C 0.71768 0.00275 0.40513 0.0
C343 C 0.68158 0.9815 0.40267 0.0
C344 C 0.74406 0.00373 0.37413 0.0
C345 C 0.73447 0.98412 0.33988 0.0
C346 C 0.69833 0.96302 0.33749 0.0
C347 C 0.67226 0.96167 0.36849 0.0
C348 C 0.76217 0.98476 0.30665 0.0
C349 C 0.77242 0.94848 0.28933 0.0
C350 C 0.77824 0.0205 0.29183 0.0
C351 C 0.76645 0.05994 0.30695 0.0
C352 C 0.72642 0.07025 0.30862 0.0
C353 C 0.71546 0.10737 0.32313 0.0
C354 C 0.74429 0.13457 0.33579 0.0
C355 C 0.78416 0.12474 0.33388 0.0
C356 C 0.79528 0.08763 0.31944 0.0
C357 C 0.86571 -0.00231 0.14829 0.0
C358 C 0.89696 0.97112 0.14983 0.0
C359 C 0.84019 0.00297 0.17964 0.0
C360 C 0.84581 0.9819 0.21293 0.0
C361 C 0.87893 0.9579 0.21532 0.0
C362 C 0.90393 0.95222 0.18402 0.0
C363 C 0.81586 0.98246 0.24425 0.0
C364 C 0.80523 0.01884 0.26112 0.0
C365 C 0.79844 0.94686 0.25805 0.0
C366 C 0.80583 0.90767 0.23958 0.0
C367 C 0.82032 0.87638 0.26059 0.0
C368 C 0.82758 0.83961 0.24307 0.0
C369 C 0.82025 0.83369 0.20459 0.0
C370 C 0.80552 0.86449 0.18357 0.0
C371 C 0.79819 0.9013 0.20094 0.0
H372 H 0.8259 0.80522 0.19109 0.0
H373 H 0.73575 0.1633 0.34701 0.0
H374 H 0.98313 0.69141 0.40068 0.0
H375 H 0.98501 0.7401 0.35035 0.0
H376 H 0.02134 0.64918 0.27011 0.0
H377 H 0.02053 0.60078 0.32059 0.0
H378 H 0.06448 0.70999 0.25924 0.0
H379 H 0.9257 0.68972 0.27274 0.0
H380 H 0.8604 0.68551 0.30459 0.0
H381 H 0.87034 0.80854 0.33771 0.0
H382 H 0.93598 0.81336 0.30652 0.0
H383 H 0.97843 0.85809 0.1162 0.0
H384 H 0.96676 0.80782 0.16401 0.0
H385 H 0.07863 0.83975 0.21405 0.0
H386 H 0.09123 0.88816 0.16512 0.0
H387 H 0.95804 0.80453 0.23569 0.0
H388 H 0.12285 0.76246 0.24979 0.0
H389 H 0.18367 0.75808 0.21053 0.0
H390 H 0.11433 0.74724 0.11031 0.0
H391 H 0.05309 0.75108 0.14896 0.0
C392 C 0.99116 0.6818 0.37221 0.0
C393 C 0.00182 0.64232 0.36458 0.0
C394 C 0.99206 0.70961 0.34339 0.0
C395 C 0.00292 0.69836 0.3062 0.0
C396 C 0.013 0.65874 0.29852 0.0
C397 C 0.01261 0.63108 0.32739 0.0
C398 C 0.00594 0.72819 0.27572 0.0
C399 C 0.0411 0.73057 0.25414 0.0
C400 C 0.97522 0.75467 0.26832 0.0
C401 C 0.93601 0.75176 0.28766 0.0
C402 C 0.91417 0.71577 0.28716 0.0
C403 C 0.87704 0.7133 0.30503 0.0
C404 C 0.8613 0.7467 0.32328 0.0
C405 C 0.88264 0.78265 0.32369 0.0
C406 C 0.91979 0.78528 0.30587 0.0
C407 C 0.00056 0.85423 0.13708 0.0
C408 C 0.03612 0.87641 0.13588 0.0
C409 C 0.99379 0.82562 0.16473 0.0
C410 C 0.02234 0.81905 0.19212 0.0
C411 C 0.05669 0.84315 0.19253 0.0
C412 C 0.06371 0.87112 0.16456 0.0
C413 C 0.0168 0.7866 0.21977 0.0
C414 C 0.98131 0.78384 0.24084 0.0
C415 C 0.04668 0.75881 0.22588 0.0
C416 C 0.08339 0.75729 0.2023 0.0
C417 C 0.12058 0.75903 0.21938 0.0
C418 C 0.15512 0.75658 0.19725 0.0
C419 C 0.15283 0.75214 0.15799 0.0
C420 C 0.11603 0.75056 0.14074 0.0
C421 C 0.0814 0.75296 0.16274 0.0
H422 H 0.1796 0.75007 0.14093 0.0
H423 H 0.83251 0.74474 0.33702 0.0
H424 H 0.31505 0.95372 0.38189 0.0
H425 H 0.26778 0.95522 0.33052 0.0
H426 H 0.35309 0.0197 0.26222 0.0
H427 H 0.40071 0.01785 0.31314 0.0
H428 H 0.28184 0.05439 0.26355 0.0
H429 H 0.3293 0.92112 0.23795 0.0
H430 H 0.34487 0.85279 0.25528 0.0
H431 H 0.22485 0.83298 0.29293 0.0
H432 H 0.20864 0.90123 0.27579 0.0
H433 H 0.17764 0.05752 0.09525 0.0
H434 H 0.22913 0.0424 0.14012 0.0
H435 H 0.14648 0.96641 0.20052 0.0
H436 H 0.0957 0.97988 0.15411 0.0
H437 H 0.21591 0.93644 0.20415 0.0
H438 H 0.16625 0.06758 0.22533 0.0
H439 H 0.1499 0.13571 0.20793 0.0
H440 H 0.2722 0.16173 0.18343 0.0
H441 H 0.28926 0.09351 0.19956 0.0
C442 C 0.32404 0.96766 0.35572 0.0
C443 C 0.36173 0.98582 0.35181 0.0
C444 C 0.29693 0.96849 0.32634 0.0
C445 C 0.30694 0.98735 0.29236 0.0
C446 C 0.34465 0.00506 0.2882 0.0
C447 C 0.37178 0.00417 0.31748 0.0
C448 C 0.27751 0.99063 0.26191 0.0
C449 C 0.26782 0.0286 0.25017 0.0
C450 C 0.25819 0.95709 0.24536 0.0
C451 C 0.26786 0.91624 0.25583 0.0
C452 C 0.30632 0.90221 0.2501 0.0
C453 C 0.31522 0.8635 0.25981 0.0
C454 C 0.28589 0.83859 0.27528 0.0
C455 C 0.24756 0.85233 0.28103 0.0
C456 C 0.23847 0.89098 0.27123 0.0
C457 C 0.17087 0.03703 0.11775 0.0
C458 C 0.13294 0.01993 0.12155 0.0
C459 C 0.20012 0.02861 0.14355 0.0
C460 C 0.19142 0.00428 0.17455 0.0
C461 C 0.15393 0.98554 0.17712 0.0
C462 C 0.12493 0.9932 0.15067 0.0
C463 C 0.2205 0.00036 0.20532 0.0
C464 C 0.22993 0.96232 0.21737 0.0
C465 C 0.23927 0.03401 0.22258 0.0
C466 C 0.22899 0.07526 0.21335 0.0
C467 C 0.18964 0.08773 0.21601 0.0
C468 C 0.18023 0.12635 0.20639 0.0
C469 C 0.20996 0.15298 0.19466 0.0
C470 C 0.24919 0.14105 0.1925 0.0
C471 C 0.25875 0.1024 0.20182 0.0
H472 H 0.20259 0.18286 0.18727 0.0
H473 H 0.29284 0.80862 0.28275 0.0
H474 H 0.96395 0.71664 0.59583 0.0
H475 H 0.97206 0.76355 0.64911 0.0
H476 H 0.08301 0.71091 0.67503 0.0
H477 H 0.07443 0.66319 0.62293 0.0
H478 H 0.03794 0.71785 0.73669 0.0
H479 H 0.07811 0.80353 0.63511 0.0
H480 H 0.07066 0.83745 0.57469 0.0
H481 H 0.9677 0.89563 0.61905 0.0
H482 H 0.97423 0.86163 0.6796 0.0
H483 H 0.11508 0.85718 0.86848 0.0
H484 H 0.10427 0.81707 0.81119 0.0
H485 H 0.99131 0.871 0.79741 0.0
H486 H 0.00194 0.91155 0.8548 0.0
H487 H 0.03337 0.86447 0.73001 0.0
H488 H 0.99366 0.78044 0.8316 0.0
H489 H 0.0004 0.74672 0.89221 0.0
H490 H 0.10136 0.68523 0.84776 0.0
H491 H 0.09556 0.71902 0.78703 0.0
C492 C 0.9902 0.71527 0.61273 0.0
C493 C 0.01864 0.68627 0.60492 0.0
C494 C 0.99494 0.74229 0.64302 0.0
C495 C 0.02829 0.74094 0.66598 0.0
C496 C 0.05709 0.7126 0.65769 0.0
C497 C 0.05236 0.68561 0.62753 0.0
C498 C 0.03235 0.76743 0.69991 0.0
C499 C 0.03748 0.74994 0.73508 0.0
C500 C 0.03037 0.80925 0.69811 0.0
C501 C 0.02642 0.8297 0.66173 0.0
C502 C 0.05368 0.82329 0.63187 0.0
C503 C 0.04967 0.84258 0.59763 0.0
C504 C 0.01866 0.86859 0.593 0.0
C505 C 0.99167 0.87543 0.62265 0.0
C506 C 0.99553 0.85618 0.65695 0.0
C507 C 0.08792 0.86061 0.85332 0.0
C508 C 0.05923 0.88738 0.86643 0.0
C509 C 0.08177 0.83758 0.82058 0.0
C510 C 0.04678 0.84071 0.80029 0.0
C511 C 0.01848 0.86807 0.81271 0.0
C512 C 0.02455 0.8911 0.84559 0.0
C513 C 0.03969 0.81483 0.76649 0.0
C514 C 0.0338 0.83239 0.73149 0.0
C515 C 0.04084 0.773 0.76839 0.0
C516 C 0.0444 0.75257 0.80488 0.0
C517 C 0.0175 0.75998 0.83485 0.0
C518 C 0.02111 0.74081 0.86921 0.0
C519 C 0.05135 0.71393 0.87386 0.0
C520 C 0.07798 0.7061 0.84413 0.0
C521 C 0.07453 0.72523 0.80972 0.0
H522 H 0.05409 0.6991 0.90048 0.0
H523 H 0.01561 0.8835 0.56647 0.0
H524 H 0.41973 0.05123 0.70509 0.0
H525 H 0.36815 0.05279 0.75427 0.0
H526 H 0.3253 0.93727 0.71695 0.0
H527 H 0.37588 0.9362 0.66675 0.0
H528 H 0.26566 0.98523 0.7267 0.0
H529 H 0.37473 0.95043 0.80095 0.0
H530 H 0.44219 0.95525 0.82594 0.0
H531 H 0.41862 0.07096 0.87294 0.0
H532 H 0.35116 0.06709 0.84777 0.0
H533 H 0.12919 0.97087 0.88203 0.0
H534 H 0.18492 0.9573 0.8391 0.0
H535 H 0.23362 0.07437 0.86258 0.0
H536 H 0.17841 0.08789 0.90606 0.0
H537 H 0.29058 0.01895 0.86149 0.0
H538 H 0.18241 0.05402 0.78155 0.0
H539 H 0.11456 0.04675 0.75772 0.0
H540 H 0.13678 0.92639 0.72292 0.0
H541 H 0.2047 0.93287 0.74688 0.0
C542 C 0.39943 0.02608 0.70742 0.0
C543 C 0.40205 0.99356 0.68198 0.0
C544 C 0.37013 0.02684 0.73581 0.0
C545 C 0.34298 0.99497 0.73962 0.0
C546 C 0.34595 0.96216 0.71469 0.0
C547 C 0.3752 0.96141 0.68623 0.0
C548 C 0.31035 0.99687 0.76838 0.0
C549 C 0.27122 0.9919 0.75629 0.0
C550 C 0.3174 0.00609 0.80696 0.0
C551 C 0.35797 0.0086 0.82216 0.0
C552 C 0.38402 0.97705 0.81634 0.0
C553 C 0.42225 0.97958 0.8306 0.0
C554 C 0.43471 0.01342 0.85094 0.0
C555 C 0.40894 0.04477 0.85714 0.0
C556 C 0.37068 0.04241 0.84292 0.0
C557 C 0.15187 0.99363 0.8783 0.0
C558 C 0.14922 0.0305 0.89744 0.0
C559 C 0.18365 0.98589 0.85358 0.0
C560 C 0.21327 0.01498 0.8473 0.0
C561 C 0.21112 0.05149 0.86696 0.0
C562 C 0.17939 0.05923 0.89169 0.0
C563 C 0.24609 0.00793 0.81963 0.0
C564 C 0.28519 0.01194 0.83194 0.0
C565 C 0.23904 -0.00252 0.78133 0.0
C566 C 0.19849 0.99382 0.7663 0.0
C567 C 0.17275 0.02595 0.76898 0.0
C568 C 0.13431 0.02198 0.75542 0.0
C569 C 0.12134 0.9861 0.7389 0.0
C570 C 0.14686 0.95416 0.73575 0.0
C571 C 0.18535 0.95798 0.74926 0.0
H572 H 0.09155 0.98307 0.72848 0.0
H573 H 0.46432 0.01533 0.86196 0.0
H574 H 0.92891 0.37851 0.68363 0.0
H575 H 0.92245 0.33038 0.73419 0.0
H576 H 0.03291 0.27894 0.69862 0.0
H577 H 0.03937 0.32691 0.64757 0.0
H578 H 0.97362 0.22215 0.71313 0.0
H579 H 0.03238 0.33539 0.77508 0.0
H580 H 0.03978 0.40599 0.79378 0.0
H581 H 0.92593 0.40164 0.84926 0.0
H582 H 0.9176 0.33111 0.83043 0.0
H583 H 0.98245 0.10647 0.8802 0.0
H584 H -0.00103 0.15243 0.82933 0.0
H585 H 0.89484 0.21917 0.85737 0.0
H586 H 0.87853 0.17397 0.90849 0.0
H587 H 0.95806 0.26752 0.84685 0.0
H588 H 0.89739 0.15561 0.78081 0.0
H589 H 0.89005 0.08495 0.76219 0.0
H590 H 0.00786 0.08666 0.71511 0.0
H591 H 0.01602 0.15732 0.73366 0.0
C592 C 0.95171 0.35681 0.68643 0.0
C593 C 0.98465 0.35647 0.66168 0.0
C594 C 0.94813 0.32951 0.71547 0.0
C595 C 0.97737 0.30132 0.72031 0.0
C596 C 0.01009 0.30055 0.6954 0.0
C597 C 0.01386 0.32809 0.66647 0.0
C598 C 0.97345 0.27269 0.75144 0.0
C599 C 0.97087 0.23198 0.74245 0.0
C600 C 0.96932 0.28562 0.78959 0.0
C601 C 0.97423 0.32803 0.80105 0.0
C602 C 0.00877 0.34957 0.79099 0.0
C603 C 0.01317 0.38956 0.80167 0.0
C604 C 0.9833 0.40831 0.82261 0.0
C605 C 0.94902 0.38708 0.833 0.0
C606 C 0.94447 0.34708 0.82238 0.0
C607 C 0.96307 0.13092 0.87549 0.0
C608 C 0.92916 0.13655 0.89837 0.0
C609 C 0.97248 0.15708 0.84634 0.0
C610 C 0.94799 0.18909 0.83941 0.0
C611 C 0.91422 0.19475 0.86229 0.0
C612 C 0.90489 0.16878 0.89144 0.0
C613 C 0.95739 0.217 0.80851 0.0
C614 C 0.96109 0.25763 0.81757 0.0
C615 C 0.96251 0.20397 0.77047 0.0
C616 C 0.95746 0.16164 0.75892 0.0
C617 C 0.92182 0.14086 0.76668 0.0
C618 C 0.91749 0.10083 0.75611 0.0
C619 C 0.94851 0.0813 0.73762 0.0
C620 C 0.98388 0.10182 0.72948 0.0
C621 C 0.98835 0.14187 0.73994 0.0
H622 H 0.94512 0.05029 0.7295 0.0
H623 H 0.98676 0.43928 0.83086 0.0
H624 H 0.68881 0.95592 0.62229 0.0
H625 H 0.73447 0.95271 0.67476 0.0
H626 H 0.65321 0.01776 0.74648 0.0
H627 H 0.60716 0.02086 0.69415 0.0
H628 H 0.72933 0.04323 0.75775 0.0
H629 H 0.65852 0.9182 0.75273 0.0
H630 H 0.63293 0.85647 0.72252 0.0
H631 H 0.75143 0.82057 0.69663 0.0
H632 H 0.77772 0.88239 0.72622 0.0
H633 H 0.80724 0.98945 0.93567 0.0
H634 H 0.76587 0.00104 0.88124 0.0
H635 H 0.84545 0.9337 0.8096 0.0
H636 H 0.8866 0.92143 0.86395 0.0
H637 H 0.77069 0.91069 0.79808 0.0
H638 H 0.84187 0.03535 0.80543 0.0
H639 H 0.86685 0.09629 0.83759 0.0
H640 H 0.74783 0.13234 0.86074 0.0
H641 H 0.72222 0.07149 0.82879 0.0
C642 C 0.68048 0.96939 0.64925 0.0
C643 C 0.64405 0.98835 0.65397 0.0
C644 C 0.70674 0.96767 0.67923 0.0
C645 C 0.69714 0.9846 0.71478 0.0
C646 C 0.66134 0.00454 0.71934 0.0
C647 C 0.63505 0.00632 0.68932 0.0
C648 C 0.72377 0.98016 0.74746 0.0
C649 C 0.73808 0.01425 0.76682 0.0
C650 C 0.73578 0.9424 0.759 0.0
C651 C 0.72006 0.90511 0.74135 0.0
C652 C 0.67911 0.89728 0.74033 0.0
C653 C 0.66448 0.86226 0.72336 0.0
C654 C 0.69053 0.83466 0.70757 0.0
C655 C 0.73128 0.842 0.70882 0.0
C656 C 0.74606 0.87701 0.72571 0.0
C657 C 0.81613 0.97732 0.90829 0.0
C658 C 0.8502 0.95433 0.90426 0.0
C659 C 0.7925 0.98415 0.87711 0.0
C660 C 0.80262 0.96843 0.84118 0.0
C661 C 0.83698 0.94607 0.83701 0.0
C662 C 0.86057 0.93919 0.86814 0.0
C663 C 0.77656 0.97373 0.80826 0.0
C664 C 0.76221 0.93973 0.78891 0.0
C665 C 0.7646 0.01155 0.79683 0.0
C666 C 0.78008 0.04866 0.81511 0.0
C667 C 0.82102 0.05617 0.81754 0.0
C668 C 0.83532 0.09073 0.83566 0.0
C669 C 0.80895 0.11812 0.85128 0.0
C670 C 0.76824 0.1111 0.84864 0.0
C671 C 0.75382 0.07663 0.83047 0.0
H672 H 0.82004 0.14482 0.86532 0.0
H673 H 0.67915 0.80756 0.69445 0.0
H674 H 0.29188 0.42175 0.98202 0.0
H675 H 0.22986 0.38492 0.97719 0.0
H676 H 0.17492 0.4675 0.05588 0.0
H677 H 0.2384 0.50351 0.06223 0.0
H678 H 0.15813 0.40025 0.0782 0.0
H679 H 0.14242 0.45374 0.95971 0.0
H680 H 0.1589 0.47806 0.89602 0.0
H681 H 0.18816 0.36014 0.85881 0.0
H682 H 0.17249 0.33514 0.92239 0.0
H683 H 0.03179 0.2242 0.97995 0.0
H684 H 0.05207 0.29451 0.98185 0.0
H685 H 0.13478 0.27009 0.06957 0.0
H686 H 0.11156 0.20148 0.07023 0.0
H687 H 0.11277 0.32777 0.96298 0.0
H688 H 0.16589 0.34335 0.12026 0.0
H689 H 0.14215 0.32171 0.18292 0.0
H690 H 0.0236 0.31191 0.14212 0.0
H691 H 0.04632 0.33449 0.07969 0.0
C692 C 0.26627 0.4329 0.99731 0.0
C693 C 0.26979 0.46565 0.02227 0.0
C694 C 0.23058 0.41188 0.99439 0.0
C695 C 0.19722 0.42367 0.01565 0.0
C696 C 0.20013 0.45783 0.03908 0.0
C697 C 0.23626 0.47847 0.04262 0.0
C698 C 0.16183 0.39677 0.01731 0.0
C699 C 0.14763 0.38489 0.05295 0.0
C700 C 0.14652 0.37784 0.98443 0.0
C701 C 0.15622 0.39255 0.94596 0.0
C702 C 0.15258 0.433 0.93803 0.0
C703 C 0.16176 0.44691 0.90191 0.0
C704 C 0.17455 0.42066 0.87339 0.0
C705 C 0.17818 0.38043 0.88092 0.0
C706 C 0.16904 0.36635 0.91699 0.0
C707 C 0.05337 0.23446 1.00039 0.0
C708 C 0.06987 0.20782 0.02525 0.0
C709 C 0.06514 0.27451 1.00136 0.0
C710 C 0.09457 0.28821 0.02634 0.0
C711 C 0.11082 0.2612 0.05118 0.0
C712 C 0.09787 0.22171 0.05131 0.0
C713 C 0.11157 0.32927 0.02399 0.0
C714 C 0.1221 0.34391 0.98822 0.0
C715 C 0.12211 0.35179 0.05673 0.0
C716 C 0.10788 0.34056 0.09513 0.0
C717 C 0.13464 0.3372 0.1248 0.0
C718 C 0.12137 0.32461 0.16032 0.0
C719 C 0.08142 0.31531 0.16656 0.0
C720 C 0.05456 0.31903 0.1374 0.0
C721 C 0.0676 0.33181 0.10193 0.0
H722 H 0.07138 0.30524 0.19399 0.0
H723 H 0.18164 0.4315 0.84544 0.0
H724 H 0.38149 0.66492 0.01052 0.0
H725 H 0.35613 0.73187 0.01233 0.0
H726 H 0.40253 0.75145 0.12395 0.0
H727 H 0.43007 0.6848 0.12181 0.0
H728 H 0.31851 0.77188 0.11265 0.0
H729 H 0.44818 0.79916 0.06297 0.0
H730 H 0.50619 0.78798 0.02127 0.0
H731 H 0.43601 0.80723 0.92379 0.0
H732 H 0.37739 0.8179 0.96485 0.0
H733 H 0.22212 0.94945 0.08802 0.0
H734 H 0.28157 0.91369 0.1035 0.0
H735 H 0.2882 0.8667 0.98914 0.0
H736 H 0.23045 0.90364 0.97306 0.0
H737 H 0.35905 0.87036 0.01629 0.0
H738 H 0.22929 0.82166 0.06175 0.0
H739 H 0.16768 0.83231 0.09865 0.0
H740 H 0.2345 0.85001 0.1997 0.0
H741 H 0.2966 0.84037 0.16333 0.0
C742 C 0.38722 0.68354 0.03521 0.0
C743 C 0.40829 0.66934 0.06586 0.0
C744 C 0.37238 0.72178 0.03627 0.0
C745 C 0.37778 0.74661 0.06813 0.0
C746 C 0.39817 0.73264 0.09909 0.0
C747 C 0.41364 0.69445 0.09785 0.0
C748 C 0.36089 0.78671 0.06876 0.0
C749 C 0.32803 0.79399 0.09239 0.0
C750 C 0.37304 0.81515 0.0419 0.0
C751 C 0.40833 0.80918 0.01704 0.0
C752 C 0.44504 0.80076 0.03263 0.0
C753 C 0.47805 0.79454 0.0091 0.0
C754 C 0.47478 0.79686 0.9699 0.0
C755 C 0.4385 0.80547 0.95416 0.0
C756 C 0.40539 0.81167 0.97756 0.0
C757 C 0.23709 0.9326 0.06585 0.0
C758 C 0.2209 0.92844 0.02958 0.0
C759 C 0.27101 0.91207 0.07478 0.0
C760 C 0.28846 0.88631 0.04787 0.0
C761 C 0.27505 0.88599 0.01056 0.0
C762 C 0.24175 0.90708 1.00141 0.0
C763 C 0.31573 0.85493 0.05913 0.0
C764 C 0.35042 0.84905 0.03761 0.0
C765 C 0.30484 0.82737 0.08744 0.0
C766 C 0.26753 0.83069 0.10979 0.0
C767 C 0.2308 0.82783 0.09187 0.0
C768 C 0.19585 0.83396 0.11265 0.0
C769 C 0.19725 0.84226 0.15147 0.0
C770 C 0.23355 0.84395 0.16964 0.0
C771 C 0.26863 0.83818 0.14896 0.0
H772 H 0.17017 0.84702 0.16753 0.0
H773 H 0.50037 0.79202 0.95173 0.0
H774 H 0.52064 0.24242 0.08422 0.0
H775 H 0.56376 0.18513 0.08154 0.0
H776 H 0.62248 0.23124 0.98211 0.0
H777 H 0.5808 0.28917 0.98526 0.0
H778 H 0.6099 0.14714 0.97958 0.0
H779 H 0.6617 0.25233 0.06209 0.0
H780 H 0.65747 0.29961 0.11612 0.0
H781 H 0.63715 0.20307 0.19177 0.0
H782 H 0.64065 0.15525 0.13801 0.0
H783 H 0.80545 0.08593 0.96911 0.0
H784 H 0.7413 0.11617 0.97187 0.0
H785 H 0.72131 0.07228 0.08456 0.0
H786 H 0.7874 0.044 0.08288 0.0
H787 H 0.70421 0.1445 0.0851 0.0
H788 H 0.66871 0.03795 1.00072 0.0
H789 H 0.67671 0.99326 0.94514 0.0
H790 H 0.66707 0.09186 0.87139 0.0
H791 H 0.66031 0.1373 0.9264 0.0
C792 C 0.54259 0.24033 0.06166 0.0
C793 C 0.54743 0.27074 0.03519 0.0
C794 C 0.56694 0.20738 0.06 0.0
C795 C 0.59635 0.20411 0.03172 0.0
C796 C 0.59972 0.2331 1.00398 0.0
C797 C 0.57571 0.26621 0.00581 0.0
C798 C 0.62647 0.17309 0.03318 0.0
C799 C 0.63057 0.14627 1.00259 0.0
C800 C 0.6527 0.1716 0.06369 0.0
C801 C 0.6509 0.20028 0.09602 0.0
C802 C 0.65598 0.24123 0.09021 0.0
C803 C 0.65377 0.26811 0.12077 0.0
C804 C 0.6469 0.25436 0.15734 0.0
C805 C 0.64236 0.21368 0.16341 0.0
C806 C 0.64444 0.18668 0.13291 0.0
C807 C 0.78721 0.08196 0.9943 0.0
C808 C 0.80161 0.06264 0.02588 0.0
C809 C 0.75016 0.09907 0.9957 0.0
C810 C 0.72586 0.096 0.02816 0.0
C811 C 0.73941 0.07501 0.05913 0.0
C812 C 0.7771 0.05874 0.05813 0.0
C813 C 0.68851 0.11841 0.03101 0.0
C814 C 0.68303 0.14402 0.06245 0.0
C815 C 0.66112 0.1187 1.00112 0.0
C816 C 0.66411 0.09112 0.96783 0.0
C817 C 0.66852 0.05016 0.97266 0.0
C818 C 0.67297 0.02468 0.94122 0.0
C819 C 0.6726 0.03971 0.90474 0.0
C820 C 0.66757 0.08022 0.89963 0.0
C821 C 0.6634 0.10587 0.93096 0.0
H822 H 0.67615 0.01996 0.88043 0.0
H823 H 0.64522 0.27522 0.18098 0.0
H824 H 0.6379 0.6137 0.13164 0.0
H825 H 0.703 0.64611 0.13251 0.0
H826 H 0.719 0.61859 0.01356 0.0
H827 H 0.65595 0.58297 0.01324 0.0
H828 H 0.78451 0.60903 0.04491 0.0
H829 H 0.68853 0.7128 0.05215 0.0
H830 H 0.63256 0.75035 0.07895 0.0
H831 H 0.69552 0.77081 0.18207 0.0
H832 H 0.75165 0.73288 0.15606 0.0
H833 H 0.89753 0.77532 0.97907 0.0
H834 H 0.853 0.71984 0.99462 0.0
H835 H 0.87603 0.73895 0.11317 0.0
H836 H 0.92101 0.7941 0.09801 0.0
H837 H 0.79698 0.74793 0.09281 0.0
H838 H 0.89858 0.65312 0.07649 0.0
H839 H 0.95433 0.62023 0.04394 0.0
H840 H 0.87993 0.58814 0.95067 0.0
H841 H 0.82385 0.62134 0.98238 0.0
C842 C 0.65547 0.61394 0.10577 0.0
C843 C 0.64121 0.59598 0.07225 0.0
C844 C 0.69259 0.63297 0.10622 0.0
C845 C 0.71572 0.63546 0.07294 0.0
C846 C 0.70175 0.61721 0.03962 0.0
C847 C 0.66517 0.59743 0.03934 0.0
C848 C 0.75409 0.6577 0.07218 0.0
C849 C 0.78714 0.63949 0.05522 0.0
C850 C 0.75797 0.69712 0.08654 0.0
C851 C 0.72401 0.71946 0.10238 0.0
C852 C 0.69025 0.72495 0.08068 0.0
C853 C 0.65854 0.74637 0.09571 0.0
C854 C 0.66041 0.7628 0.13226 0.0
C855 C 0.69404 0.75793 0.15382 0.0
C856 C 0.7258 0.73646 0.13897 0.0
C857 C 0.8942 0.76691 0.00835 0.0
C858 C 0.91223 0.7896 0.03731 0.0
C859 C 0.86884 0.73508 0.01718 0.0
C860 C 0.86109 0.7256 0.05505 0.0
C861 C 0.88168 0.74593 0.08378 0.0
C862 C 0.90742 0.77743 0.07498 0.0
C863 C 0.82679 0.69962 0.0646 0.0
C864 C 0.7945 0.71719 0.08322 0.0
C865 C 0.82339 0.66009 0.05092 0.0
C866 C 0.85703 0.63995 0.03177 0.0
C867 C 0.89416 0.63933 0.04891 0.0
C868 C 0.92582 0.62057 0.03063 0.0
C869 C 0.92069 0.60216 0.99524 0.0
C870 C 0.88386 0.60241 0.97809 0.0
C871 C 0.85211 0.62114 0.99624 0.0
H872 H 0.94524 0.58765 0.98113 0.0
H873 H 0.63585 0.77942 0.14381 0.0
loop_
_geom_bond_atom_site_label_1
_geom_bond_atom_site_label_2
_geom_bond_distance
_geom_bond_site_symmetry_2
_ccdc_geom_bond_type
H0 O26 0.856 . S
H1 O29 0.854 . S
H2 C37 0.930 . S
H3 C38 0.930 . S
H4 C40 0.930 . S
H5 C41 0.930 . S
H6 C43 0.931 . S
H7 C44 0.930 . S
H8 C46 0.930 . S
H9 C47 0.929 . S
H10 C49 0.930 . S
H11 C50 0.931 . S
H12 C52 0.930 . S
H13 C53 0.929 . S
H14 C55 0.931 . S
H15 C56 0.930 . S
H16 C58 0.930 . S
H17 C59 0.932 . S
H18 C61 0.930 . S
H19 C62 0.929 . S
H20 C64 0.931 . S
H21 C65 0.930 . S
H22 C67 0.929 . S
H23 C68 0.931 . S
H24 C70 0.930 . S
H25 C71 0.929 . S
O26 H0 0.856 . S
O26 C72 1.300 1_455 S
O27 C72 1.209 . S
O28 C73 1.199 1_455 S
O29 H1 0.854 . S
O29 C73 1.297 . S
C30 C31 1.404 1_455 S
C30 C35 1.397 . S
C30 C36 1.493 . S
C31 C30 1.404 1_655 S
C31 C32 1.396 . S
C31 C42 1.492 . S
C32 C31 1.396 . S
C32 C33 1.397 . S
C32 C48 1.509 . S
C33 C32 1.397 . S
C33 C34 1.412 1_655 S
C33 C54 1.485 . S
C34 C33 1.412 1_455 S
C34 C35 1.388 . S
C34 C60 1.490 . S
C35 C30 1.397 . S
C35 C34 1.388 . S
C35 C66 1.519 . S
C36 C30 1.493 . S
C36 C37 1.363 . S
C36 C41 1.390 1_455 S
C37 H2 0.930 . S
C37 C36 1.363 . S
C37 C38 1.372 . S
C38 H3 0.930 . S
C38 C37 1.372 . S
C38 C39 1.383 . S
C39 C38 1.383 . S
C39 C40 1.395 1_455 S
C40 H4 0.930 . S
C40 C39 1.395 1_655 S
C40 C41 1.362 . S
C41 H5 0.930 . S
C41 C36 1.390 1_655 S
C41 C40 1.362 . S
C42 C31 1.492 . S
C42 C43 1.377 1_655 S
C42 C47 1.397 . S
C43 H6 0.931 . S
C43 C42 1.377 1_455 S
C43 C44 1.376 . S
C44 H7 0.930 . S
C44 C43 1.376 . S
C44 C45 1.376 1_455 S
C45 C44 1.376 1_655 S
C45 C46 1.378 . S
C45 C72 1.486 . S
C46 H8 0.930 . S
C46 C45 1.378 . S
C46 C47 1.376 . S
C47 H9 0.929 . S
C47 C42 1.397 . S
C47 C46 1.376 . S
C48 C32 1.509 . S
C48 C49 1.391 1_655 S
C48 C53 1.386 . S
C49 H10 0.930 . S
C49 C48 1.391 1_455 S
C49 C50 1.375 . S
C50 H11 0.931 . S
C50 C49 1.375 . S
C50 C51 1.375 1_455 S
C51 C50 1.375 1_655 S
C51 C52 1.361 . S
C52 H12 0.930 . S
C52 C51 1.361 . S
C52 C53 1.399 . S
C53 H13 0.929 . S
C53 C48 1.386 . S
C53 C52 1.399 . S
C54 C33 1.485 . S
C54 C55 1.394 1_655 S
C54 C59 1.360 . S
C55 H14 0.931 . S
C55 C54 1.394 1_455 S
C55 C56 1.372 . S
C56 H15 0.930 . S
C56 C55 1.372 . S
C56 C57 1.397 1_455 S
C57 C56 1.397 1_655 S
C57 C58 1.390 . S
C57 C73 1.476 . S
C58 H16 0.930 . S
C58 C57 1.390 . S
C58 C59 1.366 . S
C59 H17 0.932 . S
C59 C54 1.360 . S
C59 C58 1.366 . S
C60 C34 1.490 . S
C60 C61 1.380 . S
C60 C65 1.386 1_455 S
C61 H18 0.930 . S
C61 C60 1.380 . S
C61 C62 1.381 . S
C62 H19 0.929 . S
C62 C61 1.381 . S
C62 C63 1.371 . S
C63 C62 1.371 . S
C63 C64 1.380 1_455 S
C64 H20 0.931 . S
C64 C63 1.380 1_655 S
C64 C65 1.387 . S
C65 H21 0.930 . S
C65 C60 1.386 1_655 S
C65 C64 1.387 . S
C66 C35 1.519 . S
C66 C67 1.377 . S
C66 C71 1.361 1_455 S
C67 H22 0.929 . S
C67 C66 1.377 . S
C67 C68 1.386 . S
C68 H23 0.931 . S
C68 C67 1.386 . S
C68 C69 1.363 1_455 S
C69 C68 1.363 1_655 S
C69 C70 1.385 . S
C70 H24 0.930 . S
C70 C69 1.385 . S
C70 C71 1.396 . S
C71 H25 0.929 . S
C71 C66 1.361 1_655 S
C71 C70 1.396 . S
C72 O26 1.300 1_655 S
C72 O27 1.209 . S
C72 C45 1.486 . S
C73 O28 1.199 1_655 S
C73 O29 1.297 . S
C73 C57 1.476 . S
H74 O100 0.856 . S
H75 O103 0.854 . S
H76 C111 0.930 . S
H77 C112 0.930 . S
H78 C114 0.930 . S
H79 C115 0.930 . S
H80 C117 0.931 . S
H81 C118 0.930 . S
H82 C120 0.930 . S
H83 C121 0.929 . S
H84 C123 0.930 . S
H85 C124 0.931 . S
H86 C126 0.930 . S
H87 C127 0.929 . S
H88 C129 0.931 . S
H89 C130 0.930 . S
H90 C132 0.930 . S
H91 C133 0.932 . S
H92 C135 0.930 . S
H93 C136 0.929 . S
H94 C138 0.931 . S
H95 C139 0.930 . S
H96 C141 0.929 . S
H97 C142 0.931 . S
H98 C144 0.930 . S
H99 C145 0.929 . S
O100 H74 0.856 . S
O100 C146 1.300 1_565 S
O101 C146 1.209 . S
O102 C147 1.199 1_565 S
O103 H75 0.854 . S
O103 C147 1.297 . S
C104 C105 1.404 . S
C104 C109 1.397 . S
C104 C110 1.491 1_545 S
C105 C104 1.404 . S
C105 C106 1.396 . S
C105 C116 1.492 . S
C106 C105 1.396 . S
C106 C107 1.397 . S
C106 C122 1.509 . S
C107 C106 1.397 . S
C107 C108 1.412 . S
C107 C128 1.485 . S
C108 C107 1.412 . S
C108 C109 1.388 . S
C108 C134 1.488 1_545 S
C109 C104 1.397 . S
C109 C108 1.388 . S
C109 C140 1.519 . S
C110 C104 1.491 1_565 S
C110 C111 1.367 . S
C110 C115 1.387 1_565 S
C111 H76 0.930 . S
C111 C110 1.367 . S
C111 C112 1.372 . S
C112 H77 0.930 . S
C112 C111 1.372 . S
C112 C113 1.383 . S
C113 C112 1.383 . S
C113 C114 1.395 1_565 S
C114 H78 0.930 . S
C114 C113 1.395 1_545 S
C114 C115 1.362 . S
C115 H79 0.930 . S
C115 C110 1.387 1_545 S
C115 C114 1.362 . S
C116 C105 1.492 . S
C116 C117 1.377 1_545 S
C116 C121 1.397 . S
C117 H80 0.931 . S
C117 C116 1.377 1_565 S
C117 C118 1.376 . S
C118 H81 0.930 . S
C118 C117 1.376 . S
C118 C119 1.376 1_565 S
C119 C118 1.376 1_545 S
C119 C120 1.378 . S
C119 C146 1.486 . S
C120 H82 0.930 . S
C120 C119 1.378 . S
C120 C121 1.376 . S
C121 H83 0.929 . S
C121 C116 1.397 . S
C121 C120 1.376 . S
C122 C106 1.509 . S
C122 C123 1.391 1_545 S
C122 C127 1.386 . S
C123 H84 0.930 . S
C123 C122 1.391 1_565 S
C123 C124 1.375 . S
C124 H85 0.931 . S
C124 C123 1.375 . S
C124 C125 1.375 1_565 S
C125 C124 1.375 1_545 S
C125 C126 1.361 . S
C126 H86 0.930 . S
C126 C125 1.361 . S
C126 C127 1.399 . S
C127 H87 0.929 . S
C127 C122 1.386 . S
C127 C126 1.399 . S
C128 C107 1.485 . S
C128 C129 1.394 1_545 S
C128 C133 1.360 . S
C129 H88 0.931 . S
C129 C128 1.394 1_565 S
C129 C130 1.372 . S
C130 H89 0.930 . S
C130 C129 1.372 . S
C130 C131 1.397 1_565 S
C131 C130 1.397 1_545 S
C131 C132 1.390 . S
C131 C147 1.476 . S
C132 H90 0.930 . S
C132 C131 1.390 . S
C132 C133 1.366 . S
C133 H91 0.932 . S
C133 C128 1.360 . S
C133 C132 1.366 . S
C134 C108 1.488 1_565 S
C134 C135 1.398 . S
C134 C139 1.371 1_565 S
C135 H92 0.930 . S
C135 C134 1.398 . S
C135 C136 1.381 . S
C136 H93 0.929 . S
C136 C135 1.381 . S
C136 C137 1.371 . S
C137 C136 1.371 . S
C137 C138 1.380 1_565 S
C138 H94 0.931 . S
C138 C137 1.380 1_545 S
C138 C139 1.387 . S
C139 H95 0.930 . S
C139 C134 1.371 1_545 S
C139 C138 1.387 . S
C140 C109 1.519 . S
C140 C141 1.377 1_545 S
C140 C145 1.361 . S
C141 H96 0.929 . S
C141 C140 1.377 1_565 S
C141 C142 1.386 . S
C142 H97 0.931 . S
C142 C141 1.386 . S
C142 C143 1.363 1_565 S
C143 C142 1.363 1_545 S
C143 C144 1.385 . S
C144 H98 0.930 . S
C144 C143 1.385 . S
C144 C145 1.396 . S
C145 H99 0.929 . S
C145 C140 1.361 . S
C145 C144 1.396 . S
C146 O100 1.300 1_545 S
C146 O101 1.209 . S
C146 C119 1.486 . S
C147 O102 1.199 1_545 S
C147 O103 1.297 . S
C147 C131 1.476 . S
H148 O174 0.856 . S
H149 O177 0.854 . S
H150 C185 0.930 . S
H151 C186 0.930 . S
H152 C188 0.930 . S
H153 C189 0.930 . S
H154 C191 0.931 . S
H155 C192 0.934 . S
H156 C194 0.930 . S
H157 C195 0.929 . S
H158 C197 0.941 . S
H159 C198 0.931 1_556 S
H160 C200 0.930 . S
H161 C201 0.929 . S
H162 C203 0.931 . S
H163 C204 0.930 . S
H164 C206 0.930 . S
H165 C207 0.932 . S
H166 C209 0.930 . S
H167 C210 0.929 . S
H168 C212 0.931 . S
H169 C213 0.930 . S
H170 C215 0.929 . S
H171 C216 0.931 . S
H172 C218 0.930 . S
H173 C219 0.929 . S
O174 H148 0.856 . S
O174 C220 1.300 . S
O175 C220 1.209 . S
O176 C221 1.199 . S
O177 H149 0.854 . S
O177 C221 1.297 . S
C178 C179 1.404 . S
C178 C183 1.397 . S
C178 C184 1.492 . S
C179 C178 1.404 . S
C179 C180 1.396 . S
C179 C190 1.492 . S
C180 C179 1.396 . S
C180 C181 1.397 . S
C180 C196 1.509 . S
C181 C180 1.397 . S
C181 C182 1.412 . S
C181 C202 1.485 . S
C182 C181 1.412 . S
C182 C183 1.388 . S
C182 C208 1.490 . S
C183 C178 1.397 . S
C183 C182 1.388 . S
C183 C214 1.519 . S
C184 C178 1.492 . S
C184 C185 1.363 1_554 S
C184 C189 1.390 . S
C185 H150 0.930 . S
C185 C184 1.363 1_556 S
C185 C186 1.372 . S
C186 H151 0.930 . S
C186 C185 1.372 . S
C186 C187 1.383 1_556 S
C187 C186 1.383 1_554 S
C187 C188 1.395 . S
C188 H152 0.930 . S
C188 C187 1.395 . S
C188 C189 1.362 . S
C189 H153 0.930 . S
C189 C184 1.390 . S
C189 C188 1.362 . S
C190 C179 1.492 . S
C190 C191 1.377 1_554 S
C190 C195 1.397 . S
C191 H154 0.931 . S
C191 C190 1.377 1_556 S
C191 C192 1.376 . S
C192 H155 0.934 . S
C192 C191 1.376 . S
C192 C193 1.372 1_556 S
C193 C192 1.372 1_554 S
C193 C194 1.378 . S
C193 C220 1.486 . S
C194 H156 0.930 . S
C194 C193 1.378 . S
C194 C195 1.376 . S
C195 H157 0.929 . S
C195 C190 1.397 . S
C195 C194 1.376 . S
C196 C180 1.509 . S
C196 C197 1.382 1_554 S
C196 C201 1.386 . S
C197 H158 0.941 . S
C197 C196 1.382 1_556 S
C197 C198 1.373 1_556 S
C198 H159 0.931 1_554 S
C198 C197 1.373 1_554 S
C198 C199 1.375 . S
C199 C198 1.375 . S
C199 C200 1.361 . S
C200 H160 0.930 . S
C200 C199 1.361 . S
C200 C201 1.399 . S
C201 H161 0.929 . S
C201 C196 1.386 . S
C201 C200 1.399 . S
C202 C181 1.485 . S
C202 C203 1.394 1_554 S
C202 C207 1.360 . S
C203 H162 0.931 . S
C203 C202 1.394 1_556 S
C203 C204 1.372 . S
C204 H163 0.930 . S
C204 C203 1.372 . S
C204 C205 1.397 1_556 S
C205 C204 1.397 1_554 S
C205 C206 1.390 . S
C205 C221 1.476 . S
C206 H164 0.930 . S
C206 C205 1.390 . S
C206 C207 1.366 . S
C207 H165 0.932 . S
C207 C202 1.360 . S
C207 C206 1.366 . S
C208 C182 1.490 . S
C208 C209 1.380 1_554 S
C208 C213 1.386 . S
C209 H166 0.930 . S
C209 C208 1.380 1_556 S
C209 C210 1.381 . S
C210 H167 0.929 . S
C210 C209 1.381 . S
C210 C211 1.371 1_556 S
C211 C210 1.371 1_554 S
C211 C212 1.380 . S
C212 H168 0.931 . S
C212 C211 1.380 . S
C212 C213 1.387 . S
C213 H169 0.930 . S
C213 C208 1.386 . S
C213 C212 1.387 . S
C214 C183 1.519 . S
C214 C215 1.377 1_554 S
C214 C219 1.361 . S
C215 H170 0.929 . S
C215 C214 1.377 1_556 S
C215 C216 1.386 . S
C216 H171 0.931 . S
C216 C215 1.386 . S
C216 C217 1.363 1_556 S
C217 C216 1.363 1_554 S
C217 C218 1.385 . S
C218 H172 0.930 . S
C218 C217 1.385 . S
C218 C219 1.396 . S
C219 H173 0.929 . S
C219 C214 1.361 . S
C219 C218 1.396 . S
C220 O174 1.300 . S
C220 O175 1.209 . S
C220 C193 1.486 . S
C221 O176 1.199 . S
C221 O177 1.297 . S
C221 C205 1.476 . S
Zn222 O224 1.933 1_556 S
Zn222 O242 1.985 . S
Zn222 O253 1.955 . S
Zn223 O224 1.911 . S
Zn223 O243 1.970 . S
Zn223 O259 1.945 . S
Zn223 O266 1.981 . S
O224 Zn222 1.933 1_554 S
O224 Zn223 1.911 . S
O224 H225 0.841 . S
H225 O224 0.841 . S
C226 O227 1.246 . S
C226 O255 1.276 1_455 S
O227 C226 1.246 . S
Zn228 O230 1.911 . S
Zn228 O245 1.970 . S
Zn228 O262 1.945 . S
Zn228 O269 1.981 . S
Zn229 O230 1.933 1_556 S
Zn229 O244 1.985 . S
Zn229 O251 1.955 . S
O230 Zn228 1.911 . S
O230 Zn229 1.933 1_554 S
O230 H231 0.841 . S
H231 O230 0.841 . S
Zn232 O233 1.933 1_556 S
Zn232 O246 1.985 . S
Zn232 O255 1.955 . S
O233 Zn232 1.933 1_554 S
O233 Zn234 1.911 . S
O233 H235 0.841 . S
Zn234 O233 1.911 . S
Zn234 O247 1.970 . S
Zn234 O263 1.981 . S
Zn234 O265 1.945 . S
H235 O233 0.841 . S
Zn236 O237 1.933 1_556 S
Zn236 O249 1.985 . S
Zn236 O257 1.955 . S
O237 Zn236 1.933 1_554 S
O237 H238 0.841 . S
O237 Zn239 1.911 . S
H238 O237 0.841 . S
Zn239 O237 1.911 . S
Zn239 O250 1.970 . S
Zn239 O260 1.981 . S
Zn239 O268 1.945 . S
C240 O241 1.246 . S
C240 O257 1.276 1_655 S
O241 C240 1.246 . S
O242 Zn222 1.985 . S
O242 C252 1.245 1_556 S
O243 Zn223 1.970 . S
O243 C252 1.263 . S
O244 Zn229 1.985 . S
O244 C256 1.245 1_556 S
O245 Zn228 1.970 . S
O245 C256 1.263 . S
O246 Zn232 1.985 . S
O246 C261 1.245 1_556 S
O247 Zn234 1.970 . S
O247 C261 1.263 . S
C248 O259 1.262 . S
C248 O260 1.245 1_545 S
O249 Zn236 1.985 . S
O249 C267 1.245 1_556 S
O250 Zn239 1.970 . S
O250 C267 1.263 . S
O251 Zn229 1.955 . S
O251 C270 1.276 1_565 S
C252 O242 1.245 1_554 S
C252 O243 1.263 . S
O253 Zn222 1.955 . S
O253 C272 1.285 . S
C254 O262 1.262 1_545 S
C254 O263 1.245 . S
O255 C226 1.276 1_655 S
O255 Zn232 1.955 . S
C256 O244 1.245 1_554 S
C256 O245 1.263 . S
O257 Zn236 1.955 . S
O257 C240 1.276 1_455 S
C258 O265 1.237 1_455 S
C258 O266 1.258 . S
O259 Zn223 1.945 . S
O259 C248 1.262 . S
O260 Zn239 1.981 . S
O260 C248 1.245 1_565 S
C261 O246 1.245 1_554 S
C261 O247 1.263 . S
O262 Zn228 1.945 . S
O262 C254 1.262 1_565 S
O263 Zn234 1.981 . S
O263 C254 1.245 . S
C264 O268 1.262 1_655 S
C264 O269 1.245 . S
O265 Zn234 1.945 . S
O265 C258 1.237 1_655 S
O266 Zn223 1.981 . S
O266 C258 1.258 . S
C267 O249 1.245 1_554 S
C267 O250 1.263 . S
O268 Zn239 1.945 . S
O268 C264 1.262 1_455 S
O269 Zn228 1.981 . S
O269 C264 1.245 . S
C270 O251 1.276 1_545 S
C270 O271 1.246 . S
O271 C270 1.246 . S
C272 O253 1.285 . S
C272 O273 1.241 1_545 S
O273 C272 1.241 1_565 S
H274 C292 0.951 . S
H275 C294 0.951 . S
H276 C296 0.950 . S
H277 C297 0.950 . S
H278 C299 0.955 . S
H279 C302 0.950 . S
H280 C303 0.950 . S
H281 C305 0.950 . S
H282 C306 0.950 . S
H283 C307 0.951 . S
H284 C309 0.951 . S
H285 C311 0.950 . S
H286 C312 0.950 . S
H287 C314 0.950 . S
H288 C317 0.950 . S
H289 C318 0.950 . S
H290 C320 0.950 . S
H291 C321 0.950 . S
C292 H274 0.951 . S
C292 C293 1.366 . S
C292 C294 1.388 . S
C293 C292 1.366 . S
C293 C297 1.385 1_455 S
C294 H275 0.951 . S
C294 C292 1.388 . S
C294 C295 1.366 . S
C295 C294 1.366 . S
C295 C296 1.414 1_455 S
C295 C298 1.499 . S
C296 H276 0.950 . S
C296 C295 1.414 1_655 S
C296 C297 1.374 . S
C297 H277 0.950 . S
C297 C293 1.385 1_655 S
C297 C296 1.374 . S
C298 C295 1.499 . S
C298 C299 1.373 . S
C298 C300 1.389 . S
C299 H278 0.955 . S
C299 C298 1.373 . S
C299 C315 1.377 . S
C300 C298 1.389 . S
C300 C301 1.524 . S
C300 C314 1.377 . S
C301 C300 1.524 . S
C301 C302 1.397 1_455 S
C301 C306 1.363 . S
C302 H279 0.950 . S
C302 C301 1.397 1_655 S
C302 C303 1.334 . S
C303 H280 0.950 . S
C303 C302 1.334 . S
C303 C304 1.287 1_655 S
C304 C303 1.287 1_455 S
C304 C305 1.524 . S
C304 H323 0.913 . S
C305 H281 0.950 . S
C305 C304 1.524 . S
C305 C306 1.415 . S
C306 H282 0.950 . S
C306 C301 1.363 . S
C306 C305 1.415 . S
C307 H283 0.951 . S
C307 C308 1.366 1_655 S
C307 C309 1.388 . S
C308 C307 1.366 1_455 S
C308 C312 1.385 . S
C309 H284 0.951 . S
C309 C307 1.388 . S
C309 C310 1.366 1_655 S
C310 C309 1.366 1_455 S
C310 C311 1.414 . S
C310 C313 1.499 . S
C311 H285 0.950 . S
C311 C310 1.414 . S
C311 C312 1.374 . S
C312 H286 0.950 . S
C312 C308 1.385 . S
C312 C311 1.374 . S
C313 C310 1.499 . S
C313 C314 1.373 . S
C313 C315 1.389 . S
C314 H287 0.950 . S
C314 C300 1.377 . S
C314 C313 1.373 . S
C315 C299 1.377 . S
C315 C313 1.389 . S
C315 C316 1.524 . S
C316 C315 1.524 . S
C316 C317 1.397 . S
C316 C321 1.363 1_455 S
C317 H288 0.950 . S
C317 C316 1.397 . S
C317 C318 1.334 . S
C318 H289 0.950 . S
C318 C317 1.334 . S
C318 C319 1.287 . S
C319 C318 1.287 . S
C319 C320 1.524 1_455 S
C319 H322 0.999 . S
C320 H290 0.950 . S
C320 C319 1.524 1_655 S
C320 C321 1.415 . S
C321 H291 0.950 . S
C321 C316 1.363 1_655 S
C321 C320 1.415 . S
H322 C319 0.999 . S
H323 C304 0.913 . S
H324 C342 0.951 . S
H325 C344 0.953 . S
H326 C346 0.950 . S
H327 C347 0.950 . S
H328 C349 0.950 . S
H329 C352 0.950 . S
H330 C353 0.950 . S
H331 C355 0.950 . S
H332 C356 0.950 . S
H333 C357 0.951 . S
H334 C359 0.951 1_565 S
H335 C361 0.950 . S
H336 C362 0.950 . S
H337 C364 0.950 . S
H338 C367 0.950 . S
H339 C368 0.950 . S
H340 C370 0.950 . S
H341 C371 0.950 . S
C342 H324 0.951 . S
C342 C343 1.366 . S
C342 C344 1.388 . S
C343 C342 1.366 . S
C343 C347 1.385 . S
C344 H325 0.953 . S
C344 C342 1.388 . S
C344 C345 1.366 . S
C345 C344 1.366 . S
C345 C346 1.414 . S
C345 C348 1.499 . S
C346 H326 0.950 . S
C346 C345 1.414 . S
C346 C347 1.374 . S
C347 H327 0.950 . S
C347 C343 1.385 . S
C347 C346 1.374 . S
C348 C345 1.499 . S
C348 C349 1.373 . S
C348 C350 1.389 1_565 S
C349 H328 0.950 . S
C349 C348 1.373 . S
C349 C365 1.377 . S
C350 C348 1.389 1_545 S
C350 C351 1.524 . S
C350 C364 1.377 . S
C351 C350 1.524 . S
C351 C352 1.397 . S
C351 C356 1.363 . S
C352 H329 0.950 . S
C352 C351 1.397 . S
C352 C353 1.334 . S
C353 H330 0.950 . S
C353 C352 1.334 . S
C353 C354 1.287 . S
C354 C353 1.287 . S
C354 C355 1.524 . S
C354 H373 0.913 . S
C355 H331 0.950 . S
C355 C354 1.524 . S
C355 C356 1.415 . S
C356 H332 0.950 . S
C356 C351 1.363 . S
C356 C355 1.415 . S
C357 H333 0.951 . S
C357 C358 1.366 . S
C357 C359 1.388 . S
C358 C357 1.366 . S
C358 C362 1.385 . S
C359 H334 0.951 1_545 S
C359 C357 1.388 . S
C359 C360 1.366 . S
C360 C359 1.366 . S
C360 C361 1.414 . S
C360 C363 1.498 1_545 S
C361 H335 0.950 . S
C361 C360 1.414 . S
C361 C362 1.374 . S
C362 H336 0.950 . S
C362 C358 1.385 . S
C362 C361 1.374 . S
C363 C360 1.498 1_565 S
C363 C364 1.371 1_565 S
C363 C365 1.392 . S
C364 H337 0.950 . S
C364 C350 1.377 . S
C364 C363 1.371 1_545 S
C365 C349 1.377 . S
C365 C363 1.392 . S
C365 C366 1.524 . S
C366 C365 1.524 . S
C366 C367 1.397 . S
C366 C371 1.363 . S
C367 H338 0.950 . S
C367 C366 1.397 . S
C367 C368 1.334 . S
C368 H339 0.950 . S
C368 C367 1.334 . S
C368 C369 1.287 . S
C369 C368 1.287 . S
C369 C370 1.524 . S
C369 H372 0.999 . S
C370 H340 0.950 . S
C370 C369 1.524 . S
C370 C371 1.415 . S
C371 H341 0.950 . S
C371 C366 1.363 . S
C371 C370 1.415 . S
H372 C369 0.999 . S
H373 C354 0.913 . S
H374 C392 0.951 . S
H375 C394 0.951 . S
H376 C396 0.950 . S
H377 C397 0.950 . S
H378 C399 0.950 . S
H379 C402 0.950 . S
H380 C403 0.950 . S
H381 C405 0.950 . S
H382 C406 0.950 . S
H383 C407 0.951 . S
H384 C409 0.951 . S
H385 C411 0.950 . S
H386 C412 0.950 . S
H387 C414 0.950 . S
H388 C417 0.950 . S
H389 C418 0.950 . S
H390 C420 0.950 . S
H391 C421 0.950 . S
C392 H374 0.951 . S
C392 C393 1.366 . S
C392 C394 1.388 . S
C393 C392 1.366 . S
C393 C397 1.385 . S
C394 H375 0.951 . S
C394 C392 1.388 . S
C394 C395 1.366 . S
C395 C394 1.366 . S
C395 C396 1.414 . S
C395 C398 1.499 . S
C396 H376 0.950 . S
C396 C395 1.414 . S
C396 C397 1.374 . S
C397 H377 0.950 . S
C397 C393 1.385 . S
C397 C396 1.374 . S
C398 C395 1.499 . S
C398 C399 1.373 1_655 S
C398 C400 1.389 . S
C399 H378 0.950 . S
C399 C398 1.373 1_455 S
C399 C415 1.377 . S
C400 C398 1.389 . S
C400 C401 1.524 . S
C400 C414 1.377 . S
C401 C400 1.524 . S
C401 C402 1.397 . S
C401 C406 1.363 . S
C402 H379 0.950 . S
C402 C401 1.397 . S
C402 C403 1.334 . S
C403 H380 0.950 . S
C403 C402 1.334 . S
C403 C404 1.287 . S
C404 C403 1.287 . S
C404 C405 1.524 . S
C404 H423 0.913 . S
C405 H381 0.950 . S
C405 C404 1.524 . S
C405 C406 1.415 . S
C406 H382 0.950 . S
C406 C401 1.363 . S
C406 C405 1.415 . S
C407 H383 0.951 . S
C407 C408 1.366 . S
C407 C409 1.388 . S
C408 C407 1.366 . S
C408 C412 1.385 . S
C409 H384 0.951 . S
C409 C407 1.388 . S
C409 C410 1.366 . S
C410 C409 1.366 . S
C410 C411 1.414 . S
C410 C413 1.499 . S
C411 H385 0.950 . S
C411 C410 1.414 . S
C411 C412 1.374 . S
C412 H386 0.950 . S
C412 C408 1.385 . S
C412 C411 1.374 . S
C413 C410 1.499 . S
C413 C414 1.373 . S
C413 C415 1.389 1_655 S
C414 H387 0.950 . S
C414 C400 1.377 . S
C414 C413 1.373 . S
C415 C399 1.377 . S
C415 C413 1.389 1_455 S
C415 C416 1.524 . S
C416 C415 1.524 . S
C416 C417 1.397 . S
C416 C421 1.363 . S
C417 H388 0.950 . S
C417 C416 1.397 . S
C417 C418 1.334 . S
C418 H389 0.950 . S
C418 C417 1.334 . S
C418 C419 1.287 . S
C419 C418 1.287 . S
C419 C420 1.524 . S
C419 H422 0.999 . S
C420 H390 0.950 . S
C420 C419 1.524 . S
C420 C421 1.415 . S
C421 H391 0.950 . S
C421 C416 1.363 . S
C421 C420 1.415 . S
H422 C419 0.999 . S
H423 C404 0.913 . S
H424 C442 0.951 . S
H425 C444 0.951 . S
H426 C446 0.950 . S
H427 C447 0.950 . S
H428 C449 0.950 . S
H429 C452 0.950 . S
H430 C453 0.950 . S
H431 C455 0.950 . S
H432 C456 0.950 . S
H433 C457 0.951 . S
H434 C459 0.951 . S
H435 C461 0.950 . S
H436 C462 0.950 . S
H437 C464 0.950 . S
H438 C467 0.950 . S
H439 C468 0.950 . S
H440 C470 0.950 . S
H441 C471 0.950 . S
C442 H424 0.951 . S
C442 C443 1.366 1_565 S
C442 C444 1.388 . S
C443 C442 1.366 1_545 S
C443 C447 1.385 . S
C444 H425 0.951 . S
C444 C442 1.388 . S
C444 C445 1.366 1_565 S
C445 C444 1.366 1_545 S
C445 C446 1.414 . S
C445 C448 1.499 . S
C446 H426 0.950 . S
C446 C445 1.414 . S
C446 C447 1.374 . S
C447 H427 0.950 . S
C447 C443 1.385 . S
C447 C446 1.374 . S
C448 C445 1.499 . S
C448 C449 1.373 . S
C448 C450 1.389 1_545 S
C449 H428 0.950 . S
C449 C448 1.373 . S
C449 C465 1.377 . S
C450 C448 1.389 1_565 S
C450 C451 1.524 . S
C450 C464 1.377 . S
C451 C450 1.524 . S
C451 C452 1.397 . S
C451 C456 1.363 . S
C452 H429 0.950 . S
C452 C451 1.397 . S
C452 C453 1.334 . S
C453 H430 0.950 . S
C453 C452 1.334 . S
C453 C454 1.287 . S
C454 C453 1.287 . S
C454 C455 1.524 . S
C454 H473 0.913 . S
C455 H431 0.950 . S
C455 C454 1.524 . S
C455 C456 1.415 . S
C456 H432 0.950 . S
C456 C451 1.363 . S
C456 C455 1.415 . S
C457 H433 0.951 . S
C457 C458 1.366 1_545 S
C457 C459 1.388 . S
C458 C457 1.366 1_565 S
C458 C462 1.385 . S
C459 H434 0.951 . S
C459 C457 1.388 . S
C459 C460 1.366 . S
C460 C459 1.366 . S
C460 C461 1.414 1_545 S
C460 C463 1.499 . S
C461 H435 0.950 . S
C461 C460 1.414 1_565 S
C461 C462 1.374 . S
C462 H436 0.950 . S
C462 C458 1.385 . S
C462 C461 1.374 . S
C463 C460 1.499 . S
C463 C464 1.373 1_545 S
C463 C465 1.389 . S
C464 H437 0.950 . S
C464 C450 1.377 . S
C464 C463 1.373 1_565 S
C465 C449 1.377 . S
C465 C463 1.389 . S
C465 C466 1.524 . S
C466 C465 1.524 . S
C466 C467 1.397 . S
C466 C471 1.363 . S
C467 H438 0.950 . S
C467 C466 1.397 . S
C467 C468 1.334 . S
C468 H439 0.950 . S
C468 C467 1.334 . S
C468 C469 1.287 . S
C469 C468 1.287 . S
C469 C470 1.524 . S
C469 H472 0.999 . S
C470 H440 0.950 . S
C470 C469 1.524 . S
C470 C471 1.415 . S
C471 H441 0.950 . S
C471 C466 1.363 . S
C471 C470 1.415 . S
H472 C469 0.999 . S
H473 C454 0.913 . S
H474 C492 0.951 . S
H475 C494 0.951 . S
H476 C496 0.950 . S
H477 C497 0.950 . S
H478 C499 0.950 . S
H479 C502 0.950 1_455 S
H480 C503 0.950 . S
H481 C505 0.950 . S
H482 C506 0.950 . S
H483 C507 0.951 . S
H484 C509 0.951 . S
H485 C511 0.950 . S
H486 C512 0.950 . S
H487 C514 0.950 . S
H488 C517 0.950 1_655 S
H489 C518 0.950 . S
H490 C520 0.950 . S
H491 C521 0.950 . S
C492 H474 0.951 . S
C492 C493 1.366 1_655 S
C492 C494 1.388 . S
C493 C492 1.366 1_455 S
C493 C497 1.385 . S
C494 H475 0.951 . S
C494 C492 1.388 . S
C494 C495 1.366 1_655 S
C495 C494 1.366 1_455 S
C495 C496 1.414 . S
C495 C498 1.499 . S
C496 H476 0.950 . S
C496 C495 1.414 . S
C496 C497 1.374 . S
C497 H477 0.950 . S
C497 C493 1.385 . S
C497 C496 1.374 . S
C498 C495 1.499 . S
C498 C499 1.373 . S
C498 C500 1.389 1_455 S
C499 H478 0.950 . S
C499 C498 1.373 . S
C499 C515 1.377 . S
C500 C498 1.389 1_655 S
C500 C501 1.524 . S
C500 C514 1.377 . S
C501 C500 1.524 . S
C501 C502 1.397 . S
C501 C506 1.363 . S
C502 H479 0.950 1_655 S
C502 C501 1.397 . S
C502 C503 1.334 . S
C503 H480 0.950 . S
C503 C502 1.334 . S
C503 C504 1.287 . S
C504 C503 1.287 . S
C504 C505 1.524 . S
C504 H523 0.913 . S
C505 H481 0.950 . S
C505 C504 1.524 . S
C505 C506 1.415 . S
C506 H482 0.950 . S
C506 C501 1.363 . S
C506 C505 1.415 . S
C507 H483 0.951 . S
C507 C508 1.366 1_455 S
C507 C509 1.388 . S
C508 C507 1.366 1_655 S
C508 C512 1.385 . S
C509 H484 0.951 . S
C509 C507 1.388 . S
C509 C510 1.366 1_455 S
C510 C509 1.366 1_655 S
C510 C511 1.414 . S
C510 C513 1.499 . S
C511 H485 0.950 . S
C511 C510 1.414 . S
C511 C512 1.374 . S
C512 H486 0.950 . S
C512 C508 1.385 . S
C512 C511 1.374 . S
C513 C510 1.499 . S
C513 C514 1.373 . S
C513 C515 1.389 1_655 S
C514 H487 0.950 . S
C514 C500 1.377 . S
C514 C513 1.373 . S
C515 C499 1.377 . S
C515 C513 1.389 1_455 S
C515 C516 1.524 . S
C516 C515 1.524 . S
C516 C517 1.397 . S
C516 C521 1.363 . S
C517 H488 0.950 1_455 S
C517 C516 1.397 . S
C517 C518 1.334 . S
C518 H489 0.950 . S
C518 C517 1.334 . S
C518 C519 1.287 . S
C519 C518 1.287 . S
C519 C520 1.524 . S
C519 H522 0.999 . S
C520 H490 0.950 . S
C520 C519 1.524 . S
C520 C521 1.415 . S
C521 H491 0.950 . S
C521 C516 1.363 . S
C521 C520 1.415 . S
H522 C519 0.999 . S
H523 C504 0.913 . S
H524 C542 0.951 . S
H525 C544 0.951 . S
H526 C546 0.950 . S
H527 C547 0.950 . S
H528 C549 0.950 . S
H529 C552 0.950 . S
H530 C553 0.950 . S
H531 C555 0.950 . S
H532 C556 0.950 . S
H533 C557 0.951 . S
H534 C559 0.951 . S
H535 C561 0.950 . S
H536 C562 0.950 . S
H537 C564 0.950 1_545 S
H538 C567 0.950 . S
H539 C568 0.950 . S
H540 C570 0.950 . S
H541 C571 0.950 . S
C542 H524 0.951 . S
C542 C543 1.366 1_545 S
C542 C544 1.388 . S
C543 C542 1.366 1_565 S
C543 C547 1.385 . S
C544 H525 0.951 . S
C544 C542 1.388 . S
C544 C545 1.366 1_545 S
C545 C544 1.366 1_565 S
C545 C546 1.414 . S
C545 C548 1.499 . S
C546 H526 0.950 . S
C546 C545 1.414 . S
C546 C547 1.374 . S
C547 H527 0.950 . S
C547 C543 1.385 . S
C547 C546 1.374 . S
C548 C545 1.499 . S
C548 C549 1.373 . S
C548 C550 1.389 . S
C549 H528 0.950 . S
C549 C548 1.373 . S
C549 C565 1.377 . S
C550 C548 1.389 . S
C550 C551 1.524 . S
C550 C564 1.377 . S
C551 C550 1.524 . S
C551 C552 1.395 . S
C551 C556 1.364 1_565 S
C552 H529 0.950 . S
C552 C551 1.395 . S
C552 C553 1.334 . S
C553 H530 0.950 . S
C553 C552 1.334 . S
C553 C554 1.291 . S
C554 C553 1.291 . S
C554 C555 1.520 1_565 S
C554 H573 0.913 1_565 S
C555 H531 0.950 . S
C555 C554 1.520 1_545 S
C555 C556 1.415 . S
C556 H532 0.950 . S
C556 C551 1.364 1_545 S
C556 C555 1.415 . S
C557 H533 0.951 . S
C557 C558 1.366 . S
C557 C559 1.388 . S
C558 C557 1.366 . S
C558 C562 1.385 1_565 S
C559 H534 0.951 . S
C559 C557 1.388 . S
C559 C560 1.366 . S
C560 C559 1.366 . S
C560 C561 1.414 1_565 S
C560 C563 1.499 . S
C561 H535 0.950 . S
C561 C560 1.414 1_545 S
C561 C562 1.374 . S
C562 H536 0.950 . S
C562 C558 1.385 1_545 S
C562 C561 1.374 . S
C563 C560 1.499 . S
C563 C564 1.373 . S
C563 C565 1.389 . S
C564 H537 0.950 1_565 S
C564 C550 1.377 . S
C564 C563 1.373 . S
C565 C549 1.377 . S
C565 C563 1.389 . S
C565 C566 1.524 . S
C566 C565 1.524 . S
C566 C567 1.397 1_565 S
C566 C571 1.363 . S
C567 H538 0.950 . S
C567 C566 1.397 1_545 S
C567 C568 1.334 . S
C568 H539 0.950 . S
C568 C567 1.334 . S
C568 C569 1.287 1_545 S
C569 C568 1.287 1_565 S
C569 C570 1.524 . S
C569 H572 0.999 . S
C570 H540 0.950 . S
C570 C569 1.524 . S
C570 C571 1.415 . S
C571 H541 0.950 . S
C571 C566 1.363 . S
C571 C570 1.415 . S
H572 C569 0.999 . S
H573 C554 0.913 1_545 S
H574 C592 0.951 . S
H575 C594 0.951 . S
H576 C596 0.950 . S
H577 C597 0.950 . S
H578 C599 0.950 . S
H579 C602 0.950 . S
H580 C603 0.950 . S
H581 C605 0.950 . S
H582 C606 0.950 1_655 S
H583 C607 0.951 . S
H584 C609 0.951 . S
H585 C611 0.950 . S
H586 C612 0.950 . S
H587 C614 0.950 . S
H588 C617 0.950 . S
H589 C618 0.950 . S
H590 C620 0.950 . S
H591 C621 0.932 1_455 S
C592 H574 0.951 . S
C592 C593 1.366 . S
C592 C594 1.388 . S
C593 C592 1.366 . S
C593 C597 1.385 1_655 S
C594 H575 0.951 . S
C594 C592 1.388 . S
C594 C595 1.366 . S
C595 C594 1.366 . S
C595 C596 1.414 1_655 S
C595 C598 1.499 . S
C596 H576 0.950 . S
C596 C595 1.414 1_455 S
C596 C597 1.374 . S
C597 H577 0.950 . S
C597 C593 1.385 1_455 S
C597 C596 1.374 . S
C598 C595 1.499 . S
C598 C599 1.373 . S
C598 C600 1.389 1_655 S
C599 H578 0.950 . S
C599 C598 1.373 . S
C599 C615 1.377 . S
C600 C598 1.389 1_455 S
C600 C601 1.524 . S
C600 C614 1.377 . S
C601 C600 1.524 . S
C601 C602 1.397 . S
C601 C606 1.363 . S
C602 H579 0.950 . S
C602 C601 1.397 . S
C602 C603 1.334 . S
C603 H580 0.950 . S
C603 C602 1.334 . S
C603 C604 1.287 . S
C604 C603 1.287 . S
C604 C605 1.524 . S
C604 H623 0.913 . S
C605 H581 0.950 . S
C605 C604 1.524 . S
C605 C606 1.415 . S
C606 H582 0.950 1_455 S
C606 C601 1.363 . S
C606 C605 1.415 . S
C607 H583 0.951 . S
C607 C608 1.366 . S
C607 C609 1.388 . S
C608 C607 1.366 . S
C608 C612 1.385 1_455 S
C609 H584 0.951 . S
C609 C607 1.388 . S
C609 C610 1.366 . S
C610 C609 1.366 . S
C610 C611 1.414 1_455 S
C610 C613 1.500 . S
C611 H585 0.950 . S
C611 C610 1.414 1_655 S
C611 C612 1.374 . S
C612 H586 0.950 . S
C612 C608 1.385 1_655 S
C612 C611 1.374 . S
C613 C610 1.500 . S
C613 C614 1.376 . S
C613 C615 1.386 1_455 S
C614 H587 0.950 . S
C614 C600 1.377 . S
C614 C613 1.376 . S
C615 C599 1.377 . S
C615 C613 1.386 1_655 S
C615 C616 1.524 . S
C616 C615 1.524 . S
C616 C617 1.397 . S
C616 C621 1.363 . S
C617 H588 0.950 . S
C617 C616 1.397 . S
C617 C618 1.334 . S
C618 H589 0.950 . S
C618 C617 1.334 . S
C618 C619 1.287 . S
C619 C618 1.287 . S
C619 C620 1.524 . S
C619 H622 0.999 . S
C620 H590 0.950 . S
C620 C619 1.524 . S
C620 C621 1.415 . S
C621 H591 0.932 1_655 S
C621 C616 1.363 . S
C621 C620 1.415 . S
H622 C619 0.999 . S
H623 C604 0.913 . S
H624 C642 0.951 . S
H625 C644 0.951 . S
H626 C646 0.950 . S
H627 C647 0.950 . S
H628 C649 0.950 . S
H629 C652 0.950 . S
H630 C653 0.950 . S
H631 C655 0.950 . S
H632 C656 0.950 . S
H633 C657 0.951 . S
H634 C659 0.951 . S
H635 C661 0.950 . S
H636 C662 0.950 . S
H637 C664 0.950 . S
H638 C667 0.950 . S
H639 C668 0.950 . S
H640 C670 0.950 . S
H641 C671 0.950 . S
C642 H624 0.951 . S
C642 C643 1.366 1_565 S
C642 C644 1.388 . S
C643 C642 1.366 1_545 S
C643 C647 1.385 . S
C644 H625 0.951 . S
C644 C642 1.388 . S
C644 C645 1.366 1_565 S
C645 C644 1.366 1_545 S
C645 C646 1.414 . S
C645 C648 1.499 . S
C646 H626 0.950 . S
C646 C645 1.414 . S
C646 C647 1.374 . S
C647 H627 0.950 . S
C647 C643 1.385 . S
C647 C646 1.374 . S
C648 C645 1.499 . S
C648 C649 1.373 . S
C648 C650 1.389 1_545 S
C649 H628 0.950 . S
C649 C648 1.373 . S
C649 C665 1.377 . S
C650 C648 1.389 1_565 S
C650 C651 1.524 . S
C650 C664 1.377 . S
C651 C650 1.524 . S
C651 C652 1.397 . S
C651 C656 1.363 . S
C652 H629 0.950 . S
C652 C651 1.397 . S
C652 C653 1.334 . S
C653 H630 0.950 . S
C653 C652 1.334 . S
C653 C654 1.287 . S
C654 C653 1.287 . S
C654 C655 1.524 . S
C654 H673 0.913 . S
C655 H631 0.950 . S
C655 C654 1.524 . S
C655 C656 1.415 . S
C656 H632 0.950 . S
C656 C651 1.363 . S
C656 C655 1.415 . S
C657 H633 0.951 . S
C657 C658 1.366 . S
C657 C659 1.388 . S
C658 C657 1.366 . S
C658 C662 1.385 1_545 S
C659 H634 0.951 . S
C659 C657 1.388 . S
C659 C660 1.366 . S
C660 C659 1.366 . S
C660 C661 1.414 1_545 S
C660 C663 1.499 . S
C661 H635 0.950 . S
C661 C660 1.414 1_565 S
C661 C662 1.374 . S
C662 H636 0.950 . S
C662 C658 1.385 1_565 S
C662 C661 1.374 . S
C663 C660 1.499 . S
C663 C664 1.373 1_545 S
C663 C665 1.389 . S
C664 H637 0.950 . S
C664 C650 1.377 . S
C664 C663 1.373 1_565 S
C665 C649 1.377 . S
C665 C663 1.389 . S
C665 C666 1.524 . S
C666 C665 1.524 . S
C666 C667 1.397 . S
C666 C671 1.363 . S
C667 H638 0.950 . S
C667 C666 1.397 . S
C667 C668 1.334 . S
C668 H639 0.950 . S
C668 C667 1.334 . S
C668 C669 1.287 . S
C669 C668 1.287 . S
C669 C670 1.524 . S
C669 H672 0.999 . S
C670 H640 0.950 . S
C670 C669 1.524 . S
C670 C671 1.415 . S
C671 H641 0.950 . S
C671 C666 1.363 . S
C671 C670 1.415 . S
H672 C669 0.999 . S
H673 C654 0.913 . S
H674 C692 0.953 . S
H675 C694 0.951 1_556 S
H676 C696 0.950 . S
H677 C697 0.950 . S
H678 C699 0.950 . S
H679 C702 0.950 . S
H680 C703 0.950 . S
H681 C705 0.950 . S
H682 C706 0.950 . S
H683 C707 0.951 . S
H684 C709 0.951 . S
H685 C711 0.950 . S
H686 C712 0.950 . S
H687 C714 0.950 . S
H688 C717 0.950 . S
H689 C718 0.950 . S
H690 C720 0.950 . S
H691 C721 0.950 . S
C692 H674 0.953 . S
C692 C693 1.364 1_556 S
C692 C694 1.387 1_556 S
C693 C692 1.364 1_554 S
C693 C697 1.385 . S
C694 H675 0.951 1_554 S
C694 C692 1.387 1_554 S
C694 C695 1.366 . S
C695 C694 1.366 . S
C695 C696 1.414 . S
C695 C698 1.499 . S
C696 H676 0.950 . S
C696 C695 1.414 . S
C696 C697 1.374 . S
C697 H677 0.950 . S
C697 C693 1.385 . S
C697 C696 1.374 . S
C698 C695 1.499 . S
C698 C699 1.373 . S
C698 C700 1.389 1_554 S
C699 H678 0.950 . S
C699 C698 1.373 . S
C699 C715 1.377 . S
C700 C698 1.389 1_556 S
C700 C701 1.524 . S
C700 C714 1.377 . S
C701 C700 1.524 . S
C701 C702 1.397 . S
C701 C706 1.363 . S
C702 H679 0.950 . S
C702 C701 1.397 . S
C702 C703 1.334 . S
C703 H680 0.950 . S
C703 C702 1.334 . S
C703 C704 1.287 . S
C704 C703 1.287 . S
C704 C705 1.524 . S
C704 H723 0.913 . S
C705 H681 0.950 . S
C705 C704 1.524 . S
C705 C706 1.415 . S
C706 H682 0.950 . S
C706 C701 1.363 . S
C706 C705 1.415 . S
C707 H683 0.951 . S
C707 C708 1.366 . S
C707 C709 1.388 . S
C708 C707 1.366 . S
C708 C712 1.385 . S
C709 H684 0.951 . S
C709 C707 1.388 . S
C709 C710 1.366 . S
C710 C709 1.366 . S
C710 C711 1.414 . S
C710 C713 1.499 . S
C711 H685 0.950 . S
C711 C710 1.414 . S
C711 C712 1.374 . S
C712 H686 0.950 . S
C712 C708 1.385 . S
C712 C711 1.374 . S
C713 C710 1.499 . S
C713 C714 1.373 1_554 S
C713 C715 1.389 . S
C714 H687 0.950 . S
C714 C700 1.377 . S
C714 C713 1.373 1_556 S
C715 C699 1.377 . S
C715 C713 1.389 . S
C715 C716 1.524 . S
C716 C715 1.524 . S
C716 C717 1.397 . S
C716 C721 1.363 . S
C717 H688 0.950 . S
C717 C716 1.397 . S
C717 C718 1.334 . S
C718 H689 0.950 . S
C718 C717 1.334 . S
C718 C719 1.287 . S
C719 C718 1.287 . S
C719 C720 1.524 . S
C719 H722 0.999 . S
C720 H690 0.950 . S
C720 C719 1.524 . S
C720 C721 1.415 . S
C721 H691 0.950 . S
C721 C716 1.363 . S
C721 C720 1.415 . S
H722 C719 0.999 . S
H723 C704 0.913 . S
H724 C742 0.951 1_556 S
H725 C744 0.951 1_556 S
H726 C746 0.950 . S
H727 C747 0.950 . S
H728 C749 0.950 . S
H729 C752 0.950 . S
H730 C753 0.950 . S
H731 C755 0.950 . S
H732 C756 0.950 . S
H733 C757 0.951 . S
H734 C759 0.951 . S
H735 C761 0.950 . S
H736 C762 0.950 . S
H737 C764 0.950 . S
H738 C767 0.950 . S
H739 C768 0.950 . S
H740 C770 0.950 . S
H741 C771 0.950 . S
C742 H724 0.951 1_554 S
C742 C743 1.366 . S
C742 C744 1.388 . S
C743 C742 1.366 . S
C743 C747 1.385 . S
C744 H725 0.951 1_554 S
C744 C742 1.388 . S
C744 C745 1.366 . S
C745 C744 1.366 . S
C745 C746 1.414 . S
C745 C748 1.499 . S
C746 H726 0.950 . S
C746 C745 1.414 . S
C746 C747 1.374 . S
C747 H727 0.950 . S
C747 C743 1.385 . S
C747 C746 1.374 . S
C748 C745 1.499 . S
C748 C749 1.373 . S
C748 C750 1.389 1_554 S
C749 H728 0.950 . S
C749 C748 1.373 . S
C749 C765 1.377 . S
C750 C748 1.389 1_556 S
C750 C751 1.524 . S
C750 C764 1.377 . S
C751 C750 1.524 . S
C751 C752 1.397 . S
C751 C756 1.363 . S
C752 H729 0.950 . S
C752 C751 1.397 . S
C752 C753 1.334 . S
C753 H730 0.950 . S
C753 C752 1.334 . S
C753 C754 1.287 . S
C754 C753 1.287 . S
C754 C755 1.524 . S
C754 H773 0.913 . S
C755 H731 0.950 . S
C755 C754 1.524 . S
C755 C756 1.415 . S
C756 H732 0.950 . S
C756 C751 1.363 . S
C756 C755 1.415 . S
C757 H733 0.951 . S
C757 C758 1.366 . S
C757 C759 1.388 . S
C758 C757 1.366 . S
C758 C762 1.385 1_554 S
C759 H734 0.951 . S
C759 C757 1.388 . S
C759 C760 1.366 . S
C760 C759 1.366 . S
C760 C761 1.414 1_554 S
C760 C763 1.499 . S
C761 H735 0.950 . S
C761 C760 1.414 1_556 S
C761 C762 1.374 . S
C762 H736 0.950 . S
C762 C758 1.385 1_556 S
C762 C761 1.374 . S
C763 C760 1.499 . S
C763 C764 1.373 1_554 S
C763 C765 1.389 . S
C764 H737 0.950 . S
C764 C750 1.377 . S
C764 C763 1.373 1_556 S
C765 C749 1.377 . S
C765 C763 1.389 . S
C765 C766 1.524 . S
C766 C765 1.524 . S
C766 C767 1.397 . S
C766 C771 1.363 . S
C767 H738 0.950 . S
C767 C766 1.397 . S
C767 C768 1.334 . S
C768 H739 0.950 . S
C768 C767 1.334 . S
C768 C769 1.287 . S
C769 C768 1.287 . S
C769 C770 1.524 . S
C769 H772 0.999 . S
C770 H740 0.950 . S
C770 C769 1.524 . S
C770 C771 1.415 . S
C771 H741 0.950 . S
C771 C766 1.363 . S
C771 C770 1.415 . S
H772 C769 0.999 . S
H773 C754 0.913 . S
H774 C792 0.951 . S
H775 C794 0.951 . S
H776 C796 0.950 1_556 S
H777 C797 0.940 1_556 S
H778 C799 0.950 . S
H779 C802 0.950 . S
H780 C803 0.950 . S
H781 C805 0.950 . S
H782 C806 0.950 . S
H783 C807 0.951 . S
H784 C809 0.951 . S
H785 C811 0.950 . S
H786 C812 0.950 . S
H787 C814 0.950 . S
H788 C817 0.950 . S
H789 C818 0.950 . S
H790 C820 0.950 . S
H791 C821 0.950 . S
C792 H774 0.951 . S
C792 C793 1.366 . S
C792 C794 1.388 . S
C793 C792 1.366 . S
C793 C797 1.385 . S
C794 H775 0.951 . S
C794 C792 1.388 . S
C794 C795 1.366 . S
C795 C794 1.366 . S
C795 C796 1.414 . S
C795 C798 1.499 . S
C796 H776 0.950 1_554 S
C796 C795 1.414 . S
C796 C797 1.374 . S
C797 H777 0.940 1_554 S
C797 C793 1.385 . S
C797 C796 1.374 . S
C798 C795 1.499 . S
C798 C799 1.373 1_554 S
C798 C800 1.389 . S
C799 H778 0.950 . S
C799 C798 1.373 1_556 S
C799 C815 1.377 . S
C800 C798 1.389 . S
C800 C801 1.524 . S
C800 C814 1.377 . S
C801 C800 1.524 . S
C801 C802 1.397 . S
C801 C806 1.363 . S
C802 H779 0.950 . S
C802 C801 1.397 . S
C802 C803 1.334 . S
C803 H780 0.950 . S
C803 C802 1.334 . S
C803 C804 1.287 . S
C804 C803 1.287 . S
C804 C805 1.524 . S
C804 H823 0.913 . S
C805 H781 0.950 . S
C805 C804 1.524 . S
C805 C806 1.415 . S
C806 H782 0.950 . S
C806 C801 1.363 . S
C806 C805 1.415 . S
C807 H783 0.951 . S
C807 C808 1.366 1_556 S
C807 C809 1.388 . S
C808 C807 1.366 1_554 S
C808 C812 1.385 . S
C809 H784 0.951 . S
C809 C807 1.388 . S
C809 C810 1.366 1_556 S
C810 C809 1.366 1_554 S
C810 C811 1.414 . S
C810 C813 1.499 . S
C811 H785 0.950 . S
C811 C810 1.414 . S
C811 C812 1.374 . S
C812 H786 0.950 . S
C812 C808 1.385 . S
C812 C811 1.374 . S
C813 C810 1.499 . S
C813 C814 1.373 . S
C813 C815 1.389 1_554 S
C814 H787 0.950 . S
C814 C800 1.377 . S
C814 C813 1.373 . S
C815 C799 1.377 . S
C815 C813 1.389 1_556 S
C815 C816 1.524 . S
C816 C815 1.524 . S
C816 C817 1.397 . S
C816 C821 1.363 . S
C817 H788 0.950 . S
C817 C816 1.397 . S
C817 C818 1.334 . S
C818 H789 0.950 . S
C818 C817 1.334 . S
C818 C819 1.287 . S
C819 C818 1.287 . S
C819 C820 1.524 . S
C819 H822 0.999 . S
C820 H790 0.950 . S
C820 C819 1.524 . S
C820 C821 1.415 . S
C821 H791 0.950 . S
C821 C816 1.363 . S
C821 C820 1.415 . S
H822 C819 0.999 . S
H823 C804 0.913 . S
H824 C842 0.951 . S
H825 C844 0.951 . S
H826 C846 0.950 . S
H827 C847 0.950 . S
H828 C849 0.950 . S
H829 C852 0.950 1_556 S
H830 C853 0.950 . S
H831 C855 0.950 . S
H832 C856 0.950 . S
H833 C857 0.951 . S
H834 C859 0.951 . S
H835 C861 0.950 . S
H836 C862 0.950 . S
H837 C864 0.950 . S
H838 C867 0.950 . S
H839 C868 0.950 1_554 S
H840 C870 0.950 . S
H841 C871 0.950 . S
C842 H824 0.951 . S
C842 C843 1.366 . S
C842 C844 1.388 . S
C843 C842 1.366 . S
C843 C847 1.385 1_554 S
C844 H825 0.951 . S
C844 C842 1.388 . S
C844 C845 1.366 . S
C845 C844 1.366 . S
C845 C846 1.414 1_554 S
C845 C848 1.499 . S
C846 H826 0.950 . S
C846 C845 1.414 1_556 S
C846 C847 1.374 . S
C847 H827 0.950 . S
C847 C843 1.385 1_556 S
C847 C846 1.374 . S
C848 C845 1.499 . S
C848 C849 1.373 1_554 S
C848 C850 1.389 . S
C849 H828 0.950 . S
C849 C848 1.373 1_556 S
C849 C865 1.377 . S
C850 C848 1.389 . S
C850 C851 1.524 . S
C850 C864 1.377 . S
C851 C850 1.524 . S
C851 C852 1.397 . S
C851 C856 1.363 . S
C852 H829 0.950 1_554 S
C852 C851 1.397 . S
C852 C853 1.334 . S
C853 H830 0.950 . S
C853 C852 1.334 . S
C853 C854 1.287 . S
C854 C853 1.287 . S
C854 C855 1.524 . S
C854 H873 0.913 . S
C855 H831 0.950 . S
C855 C854 1.524 . S
C855 C856 1.415 . S
C856 H832 0.950 . S
C856 C851 1.363 . S
C856 C855 1.415 . S
C857 H833 0.951 . S
C857 C858 1.366 1_556 S
C857 C859 1.388 . S
C858 C857 1.366 1_554 S
C858 C862 1.385 . S
C859 H834 0.951 . S
C859 C857 1.388 . S
C859 C860 1.366 1_556 S
C860 C859 1.366 1_554 S
C860 C861 1.414 . S
C860 C863 1.499 . S
C861 H835 0.950 . S
C861 C860 1.414 . S
C861 C862 1.374 . S
C862 H836 0.950 . S
C862 C858 1.385 . S
C862 C861 1.374 . S
C863 C860 1.499 . S
C863 C864 1.373 . S
C863 C865 1.389 1_554 S
C864 H837 0.950 . S
C864 C850 1.377 . S
C864 C863 1.373 . S
C865 C849 1.377 . S
C865 C863 1.389 1_556 S
C865 C866 1.524 . S
C866 C865 1.524 . S
C866 C867 1.397 1_556 S
C866 C871 1.363 . S
C867 H838 0.950 . S
C867 C866 1.397 1_554 S
C867 C868 1.334 1_554 S
C868 H839 0.950 1_556 S
C868 C867 1.334 1_556 S
C868 C869 1.287 . S
C869 C868 1.287 . S
C869 C870 1.524 . S
C869 H872 0.999 . S
C870 H840 0.950 . S
C870 C869 1.524 . S
C870 C871 1.415 . S
C871 H841 0.950 . S
C871 C866 1.363 . S
C871 C870 1.415 . S
H872 C869 0.999 . S
H873 C854 0.913 . S
C308 C258 1.698 . S
C293 C39 1.708 . S
C358 C254 1.863 . S
C343 C113 1.829 . S
C408 C264 2.236 . S
C393 C69 2.334 . S
C458 C248 0.912 1_565 S
C443 C125 0.943 . S
C493 C63 1.897 . S
C508 C240 1.905 . S
C558 C272 1.792 1_565 S
C543 C137 1.835 . S
C593 C51 1.075 . S
C608 C226 1.018 . S
C643 C143 2.484 . S
C658 C270 2.378 . S
C693 C187 0.973 . S
C708 C252 1.004 . S
C743 C217 1.594 . S
C758 C267 1.564 . S
C808 C261 0.318 . S
C793 C199 0.169 . S
C858 C256 1.058 . S
C843 C211 1.039 . S
