# Generated by pormake.
# Topology eea, (3,6)-cn, num edge types: 1
# Building blocks:
#     Node 0, Type 0, BuildingBlock: PAMTOO_clean_linker_0, # of connection points: 3
#     Node 1, Type 0, BuildingBlock: PAMTOO_clean_linker_0, # of connection points: 3
#     Node 2, Type 0, BuildingBlock: PAMTOO_clean_linker_0, # of connection points: 3
#     Node 3, Type 0, BuildingBlock: PAMTOO_clean_linker_0, # of connection points: 3
#     Node 4, Type 0, BuildingBlock: PAMTOO_clean_linker_0, # of connection points: 3
#     Node 5, Type 0, BuildingBlock: PAMTOO_clean_linker_0, # of connection points: 3
#     Node 6, Type 0, BuildingBlock: PAMTOO_clean_linker_0, # of connection points: 3
#     Node 7, Type 0, BuildingBlock: PAMTOO_clean_linker_0, # of connection points: 3
#     Node 8, Type 0, BuildingBlock: PAMTOO_clean_linker_0, # of connection points: 3
#     Node 9, Type 0, BuildingBlock: PAMTOO_clean_linker_0, # of connection points: 3
#     Node 10, Type 0, BuildingBlock: PAMTOO_clean_linker_0, # of connection points: 3
#     Node 11, Type 0, BuildingBlock: PAMTOO_clean_linker_0, # of connection points: 3
#     Node 12, Type 0, BuildingBlock: PAMTOO_clean_linker_0, # of connection points: 3
#     Node 13, Type 0, BuildingBlock: PAMTOO_clean_linker_0, # of connection points: 3
#     Node 14, Type 0, BuildingBlock: PAMTOO_clean_linker_0, # of connection points: 3
#     Node 15, Type 0, BuildingBlock: PAMTOO_clean_linker_0, # of connection points: 3
#     Node 16, Type 0, BuildingBlock: PAMTOO_clean_linker_0, # of connection points: 3
#     Node 17, Type 0, BuildingBlock: PAMTOO_clean_linker_0, # of connection points: 3
#     Node 18, Type 1, BuildingBlock: KUMBUR_clean_sbu_0, # of connection points: 6
#     Node 19, Type 1, BuildingBlock: KUMBUR_clean_sbu_0, # of connection points: 6
#     Node 20, Type 1, BuildingBlock: KUMBUR_clean_sbu_0, # of connection points: 6
#     Node 21, Type 1, BuildingBlock: KUMBUR_clean_sbu_0, # of connection points: 6
#     Node 22, Type 1, BuildingBlock: KUMBUR_clean_sbu_0, # of connection points: 6
#     Node 23, Type 1, BuildingBlock: KUMBUR_clean_sbu_0, # of connection points: 6
#     Node 24, Type 1, BuildingBlock: KUMBUR_clean_sbu_0, # of connection points: 6
#     Node 25, Type 1, BuildingBlock: KUMBUR_clean_sbu_0, # of connection points: 6
#     Node 26, Type 1, BuildingBlock: KUMBUR_clean_sbu_0, # of connection points: 6
#     Edge 27, Type (0, 1), None
#     Edge 28, Type (0, 1), None
#     Edge 29, Type (0, 1), None
#     Edge 30, Type (0, 1), None
#     Edge 31, Type (0, 1), None
#     Edge 32, Type (0, 1), None
#     Edge 33, Type (0, 1), None
#     Edge 34, Type (0, 1), None
#     Edge 35, Type (0, 1), None
#     Edge 36, Type (0, 1), None
#     Edge 37, Type (0, 1), None
#     Edge 38, Type (0, 1), None
#     Edge 39, Type (0, 1), None
#     Edge 40, Type (0, 1), None
#     Edge 41, Type (0, 1), None
#     Edge 42, Type (0, 1), None
#     Edge 43, Type (0, 1), None
#     Edge 44, Type (0, 1), None
#     Edge 45, Type (0, 1), None
#     Edge 46, Type (0, 1), None
#     Edge 47, Type (0, 1), None
#     Edge 48, Type (0, 1), None
#     Edge 49, Type (0, 1), None
#     Edge 50, Type (0, 1), None
#     Edge 51, Type (0, 1), None
#     Edge 52, Type (0, 1), None
#     Edge 53, Type (0, 1), None
#     Edge 54, Type (0, 1), None
#     Edge 55, Type (0, 1), None
#     Edge 56, Type (0, 1), None
#     Edge 57, Type (0, 1), None
#     Edge 58, Type (0, 1), None
#     Edge 59, Type (0, 1), None
#     Edge 60, Type (0, 1), None
#     Edge 61, Type (0, 1), None
#     Edge 62, Type (0, 1), None
#     Edge 63, Type (0, 1), None
#     Edge 64, Type (0, 1), None
#     Edge 65, Type (0, 1), None
#     Edge 66, Type (0, 1), None
#     Edge 67, Type (0, 1), None
#     Edge 68, Type (0, 1), None
#     Edge 69, Type (0, 1), None
#     Edge 70, Type (0, 1), None
#     Edge 71, Type (0, 1), None
#     Edge 72, Type (0, 1), None
#     Edge 73, Type (0, 1), None
#     Edge 74, Type (0, 1), None
#     Edge 75, Type (0, 1), None
#     Edge 76, Type (0, 1), None
#     Edge 77, Type (0, 1), None
#     Edge 78, Type (0, 1), None
#     Edge 79, Type (0, 1), None
#     Edge 80, Type (0, 1), None
# Relax obj value: 0.026
# Max RMSD: 0.238
# Mean RMSD: 0.164
data_MOF--net-eea--node1-KUMBUR_clean_sbu_0--node2-PAMTOO_clean_linker_0--edge1-none
_symmetry_space_group_name_H-M    P1
_symmetry_Int_Tables_number       1
_symmetry_cell_setting            triclinic
loop_
_symmetry_equiv_pos_as_xyz
'x, y, z'
_cell_length_a     22.703081
_cell_length_b     24.051385
_cell_length_c     36.179979
_cell_angle_alpha  91.782053
_cell_angle_beta   89.566685
_cell_angle_gamma 120.08564
loop_
_atom_site_label
_atom_site_type_symbol
_atom_site_fract_x
_atom_site_fract_y
_atom_site_fract_z
_atom_type_partial_charge
H0 H 0.35603 0.08533 0.43629 0.0
H1 H 0.30086 0.23129 0.43679 0.0
H2 H 0.19935 0.06834 0.36198 0.0
H3 H 0.24543 0.21504 0.3339 0.0
C4 C 0.24069 0.23169 0.36223 0.0
O5 O 0.21085 0.17942 0.38469 0.0
H6 H 0.29235 0.26754 0.37289 0.0
C7 C 0.326 0.10404 0.42459 0.0
C8 C 0.27752 0.06919 0.39618 0.0
C9 C 0.33569 0.16309 0.43859 0.0
C10 C 0.29514 0.18658 0.42539 0.0
C11 C 0.24732 0.15346 0.39733 0.0
C12 C 0.2385 0.09489 0.38252 0.0
H13 H 0.96641 0.26906 0.43819 0.0
H14 H 0.8572 0.0646 0.44305 0.0
H15 H 0.99186 0.15414 0.35185 0.0
H16 H 0.85829 0.03163 0.32651 0.0
C17 C 0.8401 0.01611 0.35499 0.0
O18 O 0.8961 0.04309 0.37871 0.0
H19 H 0.80454 0.03358 0.36304 0.0
C20 C 0.9567 0.22338 0.42622 0.0
C21 C 0.98776 0.22056 0.39247 0.0
C22 C 0.91325 0.16823 0.44569 0.0
C23 C 0.89411 0.1078 0.42949 0.0
C24 C 0.9202 0.10254 0.39501 0.0
C25 C 0.96949 0.15888 0.37737 0.0
H26 H 0.76538 0.70271 0.42557 0.0
H27 H 0.97363 0.78839 0.45681 0.0
H28 H 0.91744 0.85513 0.36082 0.0
H29 H 0.04006 0.79369 0.3657 0.0
C30 C 0.06056 0.82504 0.39027 0.0
O31 O 1.02338 0.85628 0.39761 0.0
H32 H 0.05248 0.79173 0.41287 0.0
C33 C 0.81771 0.7384 0.4199 0.0
C34 C 0.83309 0.78019 0.39037 0.0
C35 C 0.86686 0.7427 0.44443 0.0
C36 C 0.9354 0.78611 0.4381 0.0
C37 C 0.95518 0.82261 0.40593 0.0
C38 C 0.90341 0.82252 0.38316 0.0
H39 H 0.07572 0.31244 0.61461 0.0
H40 H 0.20227 0.23356 0.59002 0.0
H41 H 0.08114 0.1795 0.68954 0.0
H42 H 0.27293 0.24304 0.6795 0.0
C43 C 0.25674 0.20856 0.65617 0.0
O44 O 0.18542 0.17526 0.6523 0.0
H45 H 0.27967 0.23897 0.63182 0.0
C46 C 0.09321 0.28017 0.62283 0.0
C47 C 0.069 0.24522 0.65532 0.0
C48 C 0.13991 0.27582 0.59954 0.0
C49 C 0.16582 0.23632 0.60836 0.0
C50 C 0.15002 0.20533 0.64236 0.0
C51 C 0.09853 0.2073 0.66513 0.0
H52 H 0.7279 0.76179 0.60946 0.0
H53 H 0.79936 0.9623 0.59822 0.0
H54 H 0.85918 0.89903 0.69348 0.0
H55 H 0.82302 0.99753 0.71307 0.0
C56 C 0.8268 0.01725 0.68519 0.0
O57 O 0.86254 0.99798 0.66219 0.0
H58 H 0.77417 0.99847 0.67433 0.0
C59 C 0.75926 0.81069 0.61985 0.0
C60 C 0.79535 0.82361 0.65372 0.0
C61 C 0.7623 0.86035 0.599 0.0
C62 C 0.79912 0.92375 0.61309 0.0
C63 C 0.8327 0.93738 0.64744 0.0
C64 C 0.83218 0.88766 0.66727 0.0
H65 H 0.26735 0.94821 0.60872 0.0
H66 H 0.05925 0.79808 0.61228 0.0
H67 H 0.12768 0.96566 0.68335 0.0
H68 H 0.97478 0.828 0.70977 0.0
C69 C 0.98992 0.80702 0.68662 0.0
O70 O 1.02129 0.85408 0.66071 0.0
H71 H 0.02549 0.792 0.69728 0.0
C72 C 0.21775 0.92899 0.62124 0.0
C73 C 0.20614 0.96426 0.64977 0.0
C74 C 0.16562 0.86871 0.60819 0.0
C75 C 0.10048 0.84367 0.62289 0.0
C76 C 0.08673 0.87789 0.65005 0.0
C77 C 0.1395 0.93809 0.66374 0.0
H78 H 1.02238 0.41841 0.76977 0.0
H79 H 0.96705 0.56427 0.77016 0.0
H80 H 0.86582 0.40134 0.69531 0.0
H81 H 0.91191 0.54804 0.66721 0.0
C82 C 0.90716 0.56469 0.69554 0.0
O83 O 0.87721 0.5124 0.71798 0.0
H84 H 0.95882 0.60048 0.70622 0.0
C85 C 0.99233 0.43709 0.75804 0.0
C86 C 0.9439 0.4022 0.72961 0.0
C87 C 1.00195 0.49612 0.77202 0.0
C88 C 0.96139 0.51956 0.75877 0.0
C89 C 0.91364 0.48643 0.73069 0.0
C90 C 0.90489 0.42788 0.71589 0.0
H91 H 0.63313 0.60231 0.77149 0.0
H92 H 0.52393 0.39785 0.77638 0.0
H93 H 0.65855 0.48735 0.68517 0.0
H94 H 0.52497 0.36489 0.65983 0.0
C95 C 0.50677 0.34937 0.68831 0.0
O96 O 0.56277 0.37632 0.71203 0.0
H97 H 0.47124 0.36686 0.69636 0.0
C98 C 0.62342 0.55662 0.75953 0.0
C99 C 0.65446 0.55379 0.72578 0.0
C100 C 0.58 0.50149 0.77901 0.0
C101 C 0.56083 0.44104 0.76282 0.0
C102 C 0.5869 0.43577 0.72833 0.0
C103 C 0.63619 0.4921 0.71069 0.0
H104 H 0.43196 0.0361 0.75896 0.0
H105 H 0.64024 0.1218 0.79005 0.0
H106 H 0.58383 0.18825 0.694 0.0
H107 H 0.70669 0.12477 0.69998 0.0
C108 C 0.72731 0.15789 0.7239 0.0
O109 O 0.68989 0.18914 0.73051 0.0
H110 H 0.71977 0.12632 0.74738 0.0
C111 C 0.48428 0.07174 0.75323 0.0
C112 C 0.4996 0.11341 0.72364 0.0
C113 C 0.53349 0.07611 0.77773 0.0
C114 C 0.60203 0.11944 0.7713 0.0
C115 C 0.62173 0.15566 0.73901 0.0
C116 C 0.56989 0.15562 0.71633 0.0
H117 H 0.74317 0.64664 0.94818 0.0
H118 H 0.86964 0.56771 0.92329 0.0
H119 H 0.74791 0.51267 0.02258 0.0
H120 H 0.93792 0.57454 1.01353 0.0
C121 C 0.92308 0.54147 0.98962 0.0
O122 O 0.85191 0.50828 0.98512 0.0
H123 H 0.94733 0.57346 0.966 0.0
C124 C 0.76058 0.61427 0.95628 0.0
C125 C 0.73612 0.57894 0.98863 0.0
C126 C 0.80731 0.61002 0.93295 0.0
C127 C 0.83307 0.57033 0.9416 0.0
C128 C 0.81686 0.5388 0.97542 0.0
C129 C 0.7654 0.54071 0.99826 0.0
H130 H 0.39409 0.09481 0.94276 0.0
H131 H 0.46563 0.29537 0.93159 0.0
H132 H 0.52521 0.23194 0.02688 0.0
H133 H 0.48997 0.33106 0.04639 0.0
C134 C 0.49338 0.35065 0.01851 0.0
O135 O 0.52888 0.33101 0.99555 0.0
H136 H 0.44112 0.33234 1.0072 0.0
C137 C 0.4254 0.1437 0.95318 0.0
C138 C 0.46141 0.15657 0.98708 0.0
C139 C 0.42849 0.19339 0.93235 0.0
C140 C 0.46531 0.25678 0.94646 0.0
C141 C 0.49882 0.27037 0.98084 0.0
C142 C 0.49822 0.22061 1.00066 0.0
H143 H 0.93424 0.28132 0.94215 0.0
H144 H 0.72625 0.131 0.94577 0.0
H145 H 0.79464 0.29834 0.01703 0.0
H146 H 0.64246 0.16009 0.04325 0.0
C147 C 0.65697 0.13897 0.01991 0.0
O148 O 0.68836 0.18675 0.99442 0.0
H149 H 0.69198 0.12285 0.03002 0.0
C150 C 0.88467 0.262 0.95472 0.0
C151 C 0.87305 0.29716 0.98331 0.0
C152 C 0.83258 0.20172 0.94164 0.0
C153 C 0.76746 0.1766 0.95638 0.0
C154 C 0.75375 0.21067 0.98366 0.0
C155 C 0.80647 0.27085 0.99737 0.0
H156 H 0.68901 0.75174 0.10311 0.0
H157 H 0.63376 0.89767 0.10341 0.0
H158 H 0.53235 0.73456 0.0287 0.0
H159 H 0.57835 0.88108 1.00042 0.0
C160 C 0.5737 0.89776 0.02875 0.0
O161 O 0.54378 0.84566 0.05132 0.0
H162 H 0.62587 0.93355 0.03877 0.0
C163 C 0.65894 0.7704 0.09139 0.0
C164 C 0.61049 0.73548 0.06298 0.0
C165 C 0.66859 0.82947 0.10534 0.0
C166 C 0.62804 0.85291 0.09208 0.0
C167 C 0.58021 0.81971 0.06404 0.0
C168 C 0.57144 0.76112 0.04927 0.0
H169 H 0.29967 0.93531 0.10484 0.0
H170 H 0.19041 0.73085 0.10966 0.0
H171 H 0.32504 0.8204 0.01846 0.0
H172 H 0.19151 0.69797 0.9931 0.0
C173 C 0.17329 0.68249 0.02159 0.0
O174 O 0.22928 0.70938 0.04531 0.0
H175 H 0.1378 0.70002 0.02963 0.0
C176 C 0.28995 0.88963 0.09286 0.0
C177 C 0.32097 0.8868 0.0591 0.0
C178 C 0.2465 0.83448 0.11232 0.0
C179 C 0.22733 0.77404 0.09611 0.0
C180 C 0.25342 0.7688 0.06163 0.0
C181 C 0.3027 0.82514 0.04399 0.0
H182 H 0.09889 0.36983 0.09253 0.0
H183 H 0.3073 0.45541 0.12329 0.0
H184 H 0.25057 0.52128 0.0271 0.0
H185 H 0.37354 0.45808 0.03308 0.0
C186 C 0.39409 0.4911 0.05704 0.0
O187 O 0.35673 0.52241 0.06364 0.0
H188 H 0.38642 0.45943 0.08049 0.0
C189 C 0.15119 0.40538 0.08669 0.0
C190 C 0.16642 0.44682 0.05699 0.0
C191 C 0.2005 0.4098 0.11113 0.0
C192 C 0.26901 0.45301 0.10458 0.0
C193 C 0.28861 0.48902 0.07221 0.0
C194 C 0.23669 0.48887 0.04954 0.0
H195 H 0.40844 0.97827 0.28095 0.0
H196 H 0.53527 0.89959 0.25674 0.0
H197 H 0.41462 0.84643 0.35645 0.0
H198 H 0.60619 0.90965 0.34634 0.0
C199 C 0.59001 0.8752 0.323 0.0
O200 O 0.51868 0.84181 0.31918 0.0
H201 H 0.61285 0.90564 0.29865 0.0
C202 C 0.42601 0.94613 0.28929 0.0
C203 C 0.40207 0.91158 0.32193 0.0
C204 C 0.47272 0.94169 0.26607 0.0
C205 C 0.4988 0.90239 0.27503 0.0
C206 C 0.48317 0.87172 0.30914 0.0
C207 C 0.43178 0.87388 0.3319 0.0
H208 H 0.06137 0.42862 0.27609 0.0
H209 H 0.13263 0.6291 0.26492 0.0
H210 H 0.19225 0.5658 0.36025 0.0
H211 H 0.15566 0.66432 0.37968 0.0
C212 C 0.15971 0.68406 0.35178 0.0
O213 O 0.19562 0.66476 0.32893 0.0
H214 H 0.10719 0.66533 0.34077 0.0
C215 C 0.09265 0.4775 0.28651 0.0
C216 C 0.12862 0.49041 0.32042 0.0
C217 C 0.09568 0.52717 0.26566 0.0
C218 C 0.1324 0.59055 0.27978 0.0
C219 C 0.16587 0.60417 0.31417 0.0
C220 C 0.16534 0.55445 0.33401 0.0
H221 H 0.60084 0.61496 0.27544 0.0
H222 H 0.39278 0.46474 0.27899 0.0
H223 H 0.46109 0.63231 0.35006 0.0
H224 H 0.30828 0.49473 0.37647 0.0
C225 C 0.32333 0.4737 0.35331 0.0
O226 O 0.35475 0.52073 0.32739 0.0
H227 H 0.35884 0.45858 0.36396 0.0
C228 C 0.55123 0.59571 0.28796 0.0
C229 C 0.53959 0.63096 0.31649 0.0
C230 C 0.49913 0.53542 0.27489 0.0
C231 C 0.43399 0.51034 0.28959 0.0
C232 C 0.4202 0.54454 0.31675 0.0
C233 C 0.47294 0.60475 0.33045 0.0
Tb234 Tb 0.47317 0.98848 0.97396 0.0
C235 C 0.56377 0.16701 0.11561 0.0
C236 C 0.66656 0.1797 0.14359 0.0
C237 C 0.62468 0.25097 0.16288 0.0
C238 C 0.61141 0.14768 0.11843 0.0
C239 C 0.56935 0.21849 0.13821 0.0
C240 C 0.67324 0.23176 0.16547 0.0
C241 C 0.45802 0.19304 0.11655 0.0
N242 N 0.50697 0.12951 0.09494 0.0
C243 C 0.45329 0.14063 0.09625 0.0
C244 C 0.51607 0.23191 0.13784 0.0
Tb245 Tb 0.49566 0.03528 0.07061 0.0
N246 N 0.60137 0.095 0.09829 0.0
C247 C 0.64813 0.07493 0.1004 0.0
C248 C 0.71335 0.15842 0.14616 0.0
C249 C 0.70476 0.10658 0.12393 0.0
H250 H 0.40642 0.10871 0.0816 0.0
H251 H 0.74099 0.08995 0.1255 0.0
H252 H 0.71516 0.25677 0.18496 0.0
H253 H 0.4157 0.20183 0.11698 0.0
H254 H 0.64254 0.03384 0.08477 0.0
H255 H 0.20027 0.84563 0.96086 0.0
H256 H 0.75657 0.18203 0.16494 0.0
H257 H 0.59796 0.97312 0.93742 0.0
H258 H 0.30908 0.93995 0.9806 0.0
H259 H 0.6089 0.89898 0.89293 0.0
H260 H 0.62895 0.28912 0.18133 0.0
H261 H 0.20018 0.75789 0.9234 0.0
H262 H 0.26753 0.72064 0.88617 0.0
H263 H 0.51741 0.26988 0.15532 0.0
H264 H 0.37866 0.73542 0.86684 0.0
N265 N 0.36955 0.9007 0.96063 0.0
C266 C 0.30949 0.89953 0.96704 0.0
C267 C 0.24788 0.79732 0.93404 0.0
C268 C 0.30992 0.80137 0.92503 0.0
C269 C 0.24773 0.84682 0.95508 0.0
C270 C 0.37056 0.85316 0.93991 0.0
H271 H 0.5058 0.80142 0.86925 0.0
N272 N 0.49023 0.91521 0.94137 0.0
C273 C 0.55921 0.88779 0.90294 0.0
C274 C 0.43314 0.86153 0.92904 0.0
C275 C 0.55287 0.92938 0.92838 0.0
C276 C 0.50091 0.83273 0.88969 0.0
C277 C 0.43689 0.81923 0.90255 0.0
O278 O 0.52926 0.04585 0.92963 0.0
O279 O 0.53726 0.04864 0.01796 0.0
O280 O 0.50123 0.11325 0.03612 0.0
O281 O 0.42614 0.04455 0.99177 0.0
O282 O 0.58535 0.05952 0.97003 0.0
O283 O 0.42078 1.00581 0.93219 0.0
O284 O 0.42715 1.00497 0.11487 0.0
O285 O 0.43057 0.96006 0.03035 0.0
O286 O 0.49795 0.92139 0.9969 0.0
O287 O 0.54123 0.97394 0.05447 0.0
O288 O 0.38774 0.99965 0.06288 0.0
O289 O 0.5053 0.97988 0.11185 0.0
C290 C 0.59402 0.08179 1.00346 0.0
C291 C 0.47019 0.013 0.8729 0.0
C292 C 0.50943 0.03198 0.80902 0.0
C293 C 0.5121 0.05519 0.8456 0.0
C294 C 0.46879 0.96579 0.80079 0.0
C295 C 0.42485 0.94855 0.86269 0.0
C296 C 0.42616 0.92453 0.82742 0.0
C297 C 0.4613 0.10281 1.00679 0.0
C298 C 0.47502 0.03579 0.91186 0.0
C299 C 0.3767 0.76743 0.88792 0.0
C300 C 0.31344 0.75863 0.89914 0.0
C301 C 0.37311 0.94964 0.04238 0.0
C302 C 0.47745 1.00266 0.17117 0.0
C303 C 0.47685 0.96137 0.19811 0.0
C304 C 0.49742 0.98506 0.23464 0.0
C305 C 0.52531 0.05109 0.24287 0.0
C306 C 0.4953 0.06574 0.18199 0.0
C307 C 0.5228 0.09094 0.21679 0.0
C308 C 0.53296 0.93092 0.02756 0.0
C309 C 0.4581 0.98028 0.1323 0.0
H310 H 0.54361 0.10608 0.85231 0.0
H311 H 0.46596 0.94698 0.77284 0.0
H312 H 0.38755 0.91672 0.88167 0.0
H313 H 0.392 0.8743 0.82029 0.0
H314 H 0.4562 0.9107 0.19137 0.0
H315 H 0.54185 0.07019 0.27078 0.0
H316 H 0.48595 0.09505 0.16405 0.0
H317 H 0.5385 0.14042 0.22422 0.0
Tb318 Tb 0.064 0.48609 0.96755 0.0
C319 C 0.85994 0.40934 0.07961 0.0
C320 C 0.82599 0.48872 0.07614 0.0
C321 C 0.74015 0.37567 0.0807 0.0
C322 C 0.87649 0.47169 0.07566 0.0
C323 C 0.79217 0.36067 0.08393 0.0
C324 C 0.75728 0.43984 0.07631 0.0
C325 C 0.83394 0.28821 0.09623 0.0
N326 N 0.91171 0.39696 0.08009 0.0
C327 C 0.90064 0.3388 0.09188 0.0
C328 C 0.77937 0.2988 0.09076 0.0
Tb329 Tb 1.01515 0.47786 0.06014 0.0
N330 N 0.94319 0.51627 0.07388 0.0
C331 C 0.96376 0.5799 0.08012 0.0
C332 C 0.84665 0.5541 0.07703 0.0
C333 C 0.91555 0.59989 0.0814 0.0
H334 H 0.94259 0.32984 0.09422 0.0
H335 H 0.93169 0.65052 0.08387 0.0
H336 H 0.71726 0.45124 0.07412 0.0
H337 H 0.82479 0.24077 0.10217 0.0
H338 H 1.01697 0.61605 0.08157 0.0
H339 H 0.04146 0.2477 0.98646 0.0
H340 H 0.81 0.56967 0.07512 0.0
H341 H 0.19921 0.61626 0.93489 0.0
H342 H 1.02015 0.33332 1.00268 0.0
H343 H 0.28896 0.63782 0.88966 0.0
H344 H 0.6871 0.33863 0.08246 0.0
H345 H 0.122 0.26013 0.93709 0.0
H346 H 0.21066 0.33158 0.89397 0.0
H347 H 0.72781 0.25932 0.09123 0.0
H348 H 0.27619 0.43717 0.86601 0.0
N349 N 0.08505 0.39889 0.96145 0.0
C350 C 0.05501 0.34222 0.9805 0.0
C351 C 0.11226 0.29903 0.94375 0.0
C352 C 0.14683 0.35735 0.92609 0.0
C353 C 0.06711 0.29198 0.97159 0.0
C354 C 0.13249 0.40689 0.93579 0.0
H355 H 0.30606 0.55163 0.86475 0.0
N356 N 0.16304 0.51537 0.93572 0.0
C357 C 0.25611 0.58988 0.89854 0.0
C358 C 0.17193 0.46705 0.92192 0.0
C359 C 0.20508 0.5768 0.92447 0.0
C360 C 0.26547 0.54074 0.88425 0.0
C361 C 0.22408 0.47863 0.89635 0.0
O362 O 0.07318 0.56172 0.93516 0.0
O363 O 1.00972 0.513 1.00781 0.0
O364 O 0.93357 0.39033 0.02793 0.0
O365 O 0.97722 0.39083 0.9694 0.0
O366 O 0.96036 0.47237 0.9604 0.0
O367 O 0.03344 0.46503 0.91212 0.0
O368 O 0.04618 0.45116 0.1084 0.0
O369 O 0.09895 0.4877 0.0246 0.0
O370 O 0.14188 0.57759 0.99381 0.0
O371 O 0.08322 0.58086 0.04605 0.0
O372 O 0.04821 0.40861 0.05445 0.0
O373 O 0.06083 0.54465 0.10494 0.0
C374 C 0.95506 0.49858 0.99067 0.0
C375 C 0.07293 0.54774 0.86877 0.0
C376 C 0.05063 0.53241 0.80234 0.0
C377 C 0.03696 0.50824 0.83802 0.0
C378 C 0.10341 0.59564 0.79715 0.0
C379 C 0.12405 0.61155 0.86325 0.0
C380 C 0.14047 0.6347 0.82749 0.0
C381 C 0.93026 0.36288 0.99467 0.0
C382 C 0.04798 0.52363 0.90593 0.0
C383 C 0.23576 0.42874 0.88513 0.0
C384 C 0.19798 0.36852 0.90059 0.0
C385 C 0.10464 0.44216 0.03755 0.0
C386 C 0.03764 0.50034 0.16422 0.0
C387 C 0.08013 0.5162 0.19582 0.0
C388 C 0.05309 0.51157 0.2317 0.0
C389 C 0.98366 0.49099 0.23554 0.0
C390 C 0.9685 0.48035 0.16903 0.0
C391 C 0.9418 0.4757 0.2044 0.0
C392 C 0.13386 0.6097 0.02202 0.0
C393 C 0.06501 0.5048 0.12636 0.0
H394 H 0.99456 0.46018 0.84211 0.0
H395 H 0.11403 0.61548 0.76982 0.0
H396 H 0.14976 0.64406 0.88647 0.0
H397 H 0.17995 0.68393 0.82343 0.0
H398 H 0.13364 0.53171 0.19256 0.0
H399 H 0.96189 0.48697 0.26276 0.0
H400 H 0.93501 0.4684 0.14546 0.0
H401 H 0.88835 0.46016 0.20769 0.0
Tb402 Tb 0.58963 0.54263 0.07874 0.0
C403 C 0.47502 0.62646 0.96758 0.0
C404 C 0.35658 0.54759 0.9721 0.0
C405 C 0.39133 0.66066 0.96723 0.0
C406 C 0.42513 0.56429 0.97198 0.0
C407 C 0.4591 0.67523 0.96299 0.0
C408 C 0.34021 0.59677 0.97261 0.0
C409 C 0.57746 0.74662 0.94874 0.0
N410 N 0.53974 0.63828 0.96624 0.0
C411 C 0.59054 0.69631 0.95412 0.0
C412 C 0.51183 0.73655 0.95454 0.0
Tb413 Tb 0.55686 0.55677 0.9856 0.0
N414 N 0.44413 0.5194 0.97291 0.0
C415 C 0.39695 0.45614 0.96579 0.0
C416 C 0.30748 0.48225 0.97069 0.0
C417 C 0.32758 0.43645 0.96517 0.0
H418 H 0.64201 0.70516 0.95157 0.0
H419 H 0.2899 0.38595 0.96214 0.0
H420 H 0.28832 0.58578 0.97595 0.0
H421 H 0.61831 0.79357 0.94136 0.0
H422 H 0.41147 0.41993 0.96263 0.0
H423 H 0.83523 0.77095 0.07239 0.0
H424 H 0.25418 0.46668 0.97264 0.0
H425 H 0.56483 0.40054 0.10608 0.0
H426 H 0.72255 0.69378 0.05034 0.0
H427 H 0.61841 0.36387 0.14935 0.0
H428 H 0.37779 0.69779 0.96553 0.0
H429 H 0.8891 0.74456 0.12252 0.0
H430 H 0.88722 0.6614 0.16205 0.0
H431 H 0.50237 0.77609 0.95256 0.0
H432 H 0.82806 0.55092 0.18385 0.0
N433 N 0.70503 0.62063 0.08905 0.0
C434 C 0.74233 0.67942 0.07273 0.0
C435 C 0.83792 0.70969 0.11334 0.0
C436 C 0.80321 0.64861 0.12796 0.0
C437 C 0.80785 0.72457 0.08502 0.0
C438 C 0.73657 0.60453 0.11491 0.0
H439 H 0.7285 0.43951 0.17885 0.0
N440 N 0.64476 0.49898 0.1091 0.0
C441 C 0.64359 0.41374 0.1428 0.0
C442 C 0.70517 0.54148 0.12534 0.0
C443 C 0.61395 0.4353 0.11753 0.0
C444 C 0.70541 0.45683 0.15963 0.0
C445 C 0.73758 0.52141 0.15059 0.0
O446 O 0.51326 0.4713 0.11158 0.0
O447 O 0.51022 0.52045 0.03761 0.0
O448 O 0.57066 0.64389 0.01822 0.0
O449 O 0.61304 0.64076 0.07607 0.0
O450 O 0.50384 0.56134 0.08506 0.0
O451 O 0.58294 0.56671 0.13427 0.0
O452 O 0.61092 0.58613 0.93512 0.0
O453 O 0.62643 0.54356 0.02172 0.0
O454 O 0.56785 0.45185 0.0507 0.0
O455 O 0.5119 0.45337 0.99753 0.0
O456 O 0.66444 0.62401 0.99357 0.0
O457 O 0.53888 0.48861 0.94241 0.0
C458 C 0.47116 0.53569 0.0548 0.0
C459 C 0.52468 0.48517 0.17821 0.0
C460 C 0.51031 0.49907 0.24441 0.0
C461 C 0.52683 0.52407 0.20878 0.0
C462 C 0.49499 0.43561 0.24963 0.0
C463 C 0.50704 0.42115 0.18398 0.0
C464 C 0.49411 0.39722 0.21962 0.0
C465 C 0.59802 0.6704 0.05112 0.0
C466 C 0.53096 0.5102 0.14064 0.0
C467 C 0.80212 0.56573 0.16492 0.0
C468 C 0.83531 0.6289 0.15307 0.0
C469 C 0.68253 0.588 1.0097 0.0
C470 C 0.54951 0.52533 0.88153 0.0
C471 C 0.57896 0.51504 0.84918 0.0
C472 C 0.5484 0.50796 0.81398 0.0
C473 C 0.48861 0.51124 0.81162 0.0
C474 C 0.49021 0.52931 0.87794 0.0
C475 C 0.45988 0.52193 0.84335 0.0
C476 C 0.52837 0.42257 0.02152 0.0
C477 C 0.57886 0.52995 0.91898 0.0
H478 H 0.53665 0.57241 0.20445 0.0
H479 H 0.48159 0.41517 0.27676 0.0
H480 H 0.50104 0.38882 0.16105 0.0
H481 H 0.48067 0.34788 0.22379 0.0
H482 H 0.62531 0.5128 0.85134 0.0
H483 H 0.46463 0.50644 0.78501 0.0
H484 H 0.467 0.53796 0.90188 0.0
H485 H 0.41397 0.52483 0.84112 0.0
Tb486 Tb 0.14021 0.32229 0.30739 0.0
C487 C 0.23021 0.50075 0.44903 0.0
C488 C 0.33311 0.51369 0.47702 0.0
C489 C 0.29085 0.58465 0.49636 0.0
C490 C 0.27801 0.48161 0.45183 0.0
C491 C 0.23559 0.55211 0.47166 0.0
C492 C 0.33958 0.56564 0.49894 0.0
C493 C 0.12425 0.52647 0.4499 0.0
N494 N 0.1735 0.46319 0.42831 0.0
C495 C 0.11973 0.47418 0.42956 0.0
C496 C 0.18218 0.56535 0.47126 0.0
Tb497 Tb 0.1625 0.36905 0.40403 0.0
N498 N 0.26819 0.42907 0.43164 0.0
C499 C 0.31513 0.40921 0.43369 0.0
C500 C 0.38008 0.49262 0.47955 0.0
C501 C 0.37171 0.44092 0.45726 0.0
H502 H 0.07296 0.44226 0.41483 0.0
H503 H 0.40809 0.42446 0.45879 0.0
H504 H 0.38146 0.59071 0.51844 0.0
H505 H 0.08184 0.53514 0.45029 0.0
H506 H 0.30969 0.36824 0.41799 0.0
H507 H 0.86733 0.17923 0.29413 0.0
H508 H 0.42327 0.51629 0.49835 0.0
H509 H 0.26513 0.30713 0.27097 0.0
H510 H 0.97607 0.27366 0.31388 0.0
H511 H 0.27627 0.23298 0.22655 0.0
H512 H 0.29496 0.6227 0.51485 0.0
H513 H 0.86742 0.09146 0.2568 0.0
H514 H 0.93491 0.0542 0.2197 0.0
H515 H 0.18334 0.60322 0.48878 0.0
H516 H 0.04613 0.06908 0.20047 0.0
N517 N 0.03664 0.23447 0.29402 0.0
C518 C 0.97655 0.23324 0.30037 0.0
C519 C 0.91508 0.13096 0.26743 0.0
C520 C 0.97717 0.13506 0.25848 0.0
C521 C 0.91483 0.18047 0.2884 0.0
C522 C 0.03776 0.18693 0.27335 0.0
H523 H 0.17328 0.1353 0.20288 0.0
N524 N 0.15741 0.24909 0.27487 0.0
C525 C 0.22655 0.22174 0.23653 0.0
C526 C 0.10039 0.19536 0.26253 0.0
C527 C 0.2201 0.26333 0.26192 0.0
C528 C 0.16831 0.16662 0.22327 0.0
C529 C 0.10424 0.15304 0.23609 0.0
O530 O 0.19631 0.37963 0.26306 0.0
O531 O 0.20437 0.38212 0.35147 0.0
O532 O 0.16832 0.44709 0.36952 0.0
O533 O 0.09321 0.37837 0.3252 0.0
O534 O 0.25226 0.39381 0.30346 0.0
O535 O 0.08781 0.33955 0.26559 0.0
O536 O 0.09396 0.33847 0.44828 0.0
O537 O 0.09741 0.29387 0.36375 0.0
O538 O 0.16485 0.25511 0.33038 0.0
O539 O 0.20806 0.3077 0.38794 0.0
O540 O 0.05456 0.33342 0.39627 0.0
O541 O 0.17255 0.31398 0.44532 0.0
C542 C 0.26128 0.41518 0.33709 0.0
C543 C 0.1373 0.34673 0.20632 0.0
C544 C 0.17656 0.36572 0.14244 0.0
C545 C 0.17916 0.38894 0.17902 0.0
C546 C 0.13603 0.29951 0.13423 0.0
C547 C 0.09206 0.28226 0.19612 0.0
C548 C 0.09344 0.25824 0.16086 0.0
C549 C 0.12848 0.43666 0.34017 0.0
C550 C 0.14208 0.36953 0.24527 0.0
C551 C 0.0441 0.10113 0.22149 0.0
C552 C 0.98078 0.09227 0.23266 0.0
C553 C 0.03992 0.28342 0.37575 0.0
C554 C 0.1444 0.33656 0.50462 0.0
C555 C 0.14406 0.29543 0.53158 0.0
C556 C 0.16447 0.31919 0.56812 0.0
C557 C 0.19202 0.38519 0.57631 0.0
C558 C 0.16187 0.39955 0.5154 0.0
C559 C 0.18927 0.42487 0.5502 0.0
C560 C 0.19936 0.26427 0.3612 0.0
C561 C 0.12518 0.31409 0.46575 0.0
H562 H 0.21058 0.43985 0.18571 0.0
H563 H 0.13324 0.28069 0.10629 0.0
H564 H 0.05477 0.25041 0.2151 0.0
H565 H 0.05935 0.20798 0.15374 0.0
H566 H 0.12369 0.24479 0.52486 0.0
H567 H 0.20847 0.40436 0.60422 0.0
H568 H 0.15231 0.42869 0.49743 0.0
H569 H 0.20469 0.4743 0.55761 0.0
Tb570 Tb 0.73094 0.81976 0.30088 0.0
C571 C 0.52667 0.74263 0.41299 0.0
C572 C 0.4925 0.82189 0.40967 0.0
C573 C 0.40683 0.70878 0.41426 0.0
C574 C 0.54309 0.80496 0.40905 0.0
C575 C 0.45894 0.69387 0.41733 0.0
C576 C 0.42383 0.77293 0.40994 0.0
C577 C 0.50089 0.62146 0.42935 0.0
N578 N 0.57851 0.73033 0.41337 0.0
C579 C 0.56755 0.67214 0.42504 0.0
C580 C 0.44626 0.63198 0.42399 0.0
Tb581 Tb 0.68187 0.81138 0.39345 0.0
N582 N 0.60974 0.84962 0.4071 0.0
C583 C 0.63022 0.91326 0.41318 0.0
C584 C 0.51303 0.88724 0.41053 0.0
C585 C 0.58194 0.93313 0.41459 0.0
H586 H 0.60955 0.66325 0.4273 0.0
H587 H 0.59799 0.98374 0.41701 0.0
H588 H 0.38374 0.78427 0.40785 0.0
H589 H 0.49183 0.57401 0.43518 0.0
H590 H 0.68341 0.94949 0.41447 0.0
H591 H 0.70783 0.58115 0.31975 0.0
H592 H 0.47629 0.90272 0.40882 0.0
H593 H 0.86634 0.94984 0.26827 0.0
H594 H 0.68673 0.66691 0.33598 0.0
H595 H 0.95608 0.97127 0.22303 0.0
H596 H 0.35382 0.67169 0.41606 0.0
H597 H 0.78829 0.59344 0.27035 0.0
H598 H 0.87701 0.6648 0.22723 0.0
H599 H 0.39473 0.59244 0.42442 0.0
H600 H 0.94271 0.77038 0.19928 0.0
N601 N 0.75178 0.73244 0.29478 0.0
C602 C 0.72161 0.67577 0.31382 0.0
C603 C 0.77867 0.63241 0.27703 0.0
C604 C 0.81334 0.69073 0.25939 0.0
C605 C 0.73356 0.62544 0.30488 0.0
C606 C 0.79917 0.74036 0.2691 0.0
H607 H 0.97289 0.88493 0.19808 0.0
N608 N 0.82997 0.84892 0.26908 0.0
C609 C 0.92312 0.92334 0.2319 0.0
C610 C 0.83872 0.80052 0.25525 0.0
C611 C 0.87211 0.91033 0.25783 0.0
C612 C 0.93233 0.87411 0.21759 0.0
C613 C 0.89082 0.812 0.22966 0.0
O614 O 0.74035 0.89542 0.26844 0.0
O615 O 0.67657 0.84657 0.34115 0.0
O616 O 0.60019 0.72403 0.36116 0.0
O617 O 0.64398 0.72454 0.30267 0.0
O618 O 0.62756 0.80644 0.29358 0.0
O619 O 0.70034 0.79865 0.24546 0.0
O620 O 0.7131 0.78482 0.44169 0.0
O621 O 0.76576 0.82125 0.35796 0.0
O622 O 0.80877 0.91127 0.32716 0.0
O623 O 0.75009 0.91441 0.37942 0.0
O624 O 0.71492 0.74213 0.38778 0.0
O625 O 0.72707 0.87809 0.43832 0.0
C626 C 0.62207 0.83237 0.32391 0.0
C627 C 0.7399 0.88127 0.20204 0.0
C628 C 0.71735 0.86581 0.13563 0.0
C629 C 0.70375 0.84173 0.17133 0.0
C630 C 0.77022 0.92897 0.13037 0.0
C631 C 0.79114 0.94501 0.19645 0.0
C632 C 0.80747 0.96805 0.16067 0.0
C633 C 0.5969 0.69663 0.32789 0.0
C634 C 0.71503 0.85728 0.23923 0.0
C635 C 0.90232 0.76203 0.21841 0.0
C636 C 0.86444 0.7018 0.23386 0.0
C637 C 0.77138 0.77567 0.37091 0.0
C638 C 0.70417 0.83365 0.49757 0.0
C639 C 0.74672 0.8496 0.52916 0.0
C640 C 0.71966 0.84472 0.56505 0.0
C641 C 0.65016 0.82381 0.56892 0.0
C642 C 0.63497 0.81336 0.50241 0.0
C643 C 0.60825 0.80845 0.5378 0.0
C644 C 0.80074 0.94331 0.3554 0.0
C645 C 0.73158 0.83835 0.4597 0.0
H646 H 0.66128 0.79373 0.17548 0.0
H647 H 0.78079 0.94873 0.10302 0.0
H648 H 0.81703 0.97754 0.21964 0.0
H649 H 0.84704 0.01723 0.15655 0.0
H650 H 0.80028 0.86536 0.52587 0.0
H651 H 0.62836 0.81958 0.59615 0.0
H652 H 0.60144 0.80136 0.47885 0.0
H653 H 0.55475 0.79267 0.54111 0.0
Tb654 Tb 0.25586 0.87613 0.41205 0.0
C655 C 0.14136 0.95981 0.30097 0.0
C656 C 1.02297 0.88079 0.30547 0.0
C657 C 0.05755 0.99387 0.30083 0.0
C658 C 0.09153 0.89758 0.30527 0.0
C659 C 0.12534 0.00853 0.2965 0.0
C660 C 1.00651 0.92992 0.30615 0.0
C661 C 0.2436 0.08003 0.2821 0.0
N662 N 0.20609 0.9717 0.29955 0.0
C663 C 0.25678 0.02976 0.28738 0.0
C664 C 0.17798 0.06989 0.28804 0.0
Tb665 Tb 0.22334 0.89023 0.31886 0.0
N666 N 0.11063 0.85276 0.30602 0.0
C667 C 0.06355 0.78953 0.2987 0.0
C668 C 0.97394 0.81543 0.30396 0.0
C669 C 0.99415 0.76974 0.29813 0.0
H670 H 0.30827 0.03868 0.28476 0.0
H671 H 0.95653 0.71923 0.29501 0.0
H672 H 0.95461 0.91886 0.30956 0.0
H673 H 0.28438 0.12701 0.27471 0.0
H674 H 0.07818 0.75341 0.29536 0.0
H675 H 0.50184 0.10411 0.40562 0.0
H676 H 0.92064 0.79979 0.30607 0.0
H677 H 0.23089 0.73395 0.43937 0.0
H678 H 0.38915 0.02705 0.38355 0.0
H679 H 0.28425 0.69718 0.4827 0.0
H680 H 0.04393 0.03096 0.29923 0.0
H681 H 0.55544 0.07772 0.45589 0.0
H682 H 0.55327 0.99456 0.49554 0.0
H683 H 0.16844 0.1094 0.28616 0.0
H684 H 0.4939 0.8841 0.51738 0.0
N685 N 0.37134 0.95398 0.42237 0.0
C686 C 0.40881 0.01269 0.40599 0.0
C687 C 0.50426 0.0429 0.4467 0.0
C688 C 0.4694 0.98186 0.46137 0.0
C689 C 0.47434 0.05777 0.4183 0.0
C690 C 0.40275 0.93786 0.44829 0.0
H691 H 0.39426 0.77273 0.51231 0.0
N692 N 0.31086 0.83238 0.44246 0.0
C693 C 0.30949 0.74706 0.47617 0.0
C694 C 0.37123 0.87481 0.45874 0.0
C695 C 0.27998 0.76868 0.45086 0.0
C696 C 0.37126 0.7901 0.49306 0.0
C697 C 0.40353 0.85469 0.48403 0.0
O698 O 0.17932 0.80477 0.44481 0.0
O699 O 0.17658 0.8541 0.3709 0.0
O700 O 0.23756 0.97755 0.35144 0.0
O701 O 0.27961 0.97432 0.40937 0.0
O702 O 0.17032 0.89529 0.41823 0.0
O703 O 0.249 0.90011 0.46757 0.0
O704 O 0.27714 0.91981 0.26834 0.0
O705 O 0.29263 0.87681 0.35506 0.0
O706 O 0.23396 0.78532 0.38402 0.0
O707 O 0.17818 0.78677 0.33074 0.0
O708 O 0.33098 0.95725 0.32689 0.0
O709 O 0.20596 0.82211 0.27574 0.0
C710 C 0.13761 0.86956 0.38799 0.0
C711 C 0.19076 0.81848 0.51144 0.0
C712 C 0.1767 0.83236 0.57767 0.0
C713 C 0.19314 0.8574 0.54205 0.0
C714 C 0.16125 0.76885 0.58283 0.0
C715 C 0.17296 0.75441 0.51715 0.0
C716 C 0.16013 0.73044 0.55278 0.0
C717 C 0.26486 1.00405 0.38436 0.0
C718 C 0.197 0.8436 0.4739 0.0
C719 C 0.46805 0.89895 0.4984 0.0
C720 C 0.50137 0.96212 0.48653 0.0
C721 C 0.34883 0.92109 0.34304 0.0
C722 C 0.21603 0.85855 0.21481 0.0
C723 C 0.24555 0.84829 0.18248 0.0
C724 C 0.21486 0.84091 0.14728 0.0
C725 C 0.15487 0.84384 0.14491 0.0
C726 C 0.15656 0.86224 0.2112 0.0
C727 C 0.1261 0.85453 0.17662 0.0
C728 C 0.19398 0.7559 0.35504 0.0
C729 C 0.24558 0.86356 0.25225 0.0
H730 H 0.20305 0.90577 0.53777 0.0
H731 H 0.14789 0.74838 0.60997 0.0
H732 H 0.16678 0.72207 0.49418 0.0
H733 H 0.14658 0.68105 0.5569 0.0
H734 H 0.29205 0.84632 0.18464 0.0
H735 H 0.13079 0.8388 0.1183 0.0
H736 H 0.13336 0.87096 0.23511 0.0
H737 H 0.08005 0.8572 0.17438 0.0
Tb738 Tb 0.80688 0.6555 0.6407 0.0
C739 C 0.89713 0.83394 0.78233 0.0
C740 C 0.99997 0.84672 0.81029 0.0
C741 C 0.9579 0.91781 0.82966 0.0
C742 C 0.94485 0.81471 0.78512 0.0
C743 C 0.90262 0.88536 0.80496 0.0
C744 C 1.00654 0.89869 0.83223 0.0
C745 C 0.79136 0.85993 0.78319 0.0
N746 N 0.84041 0.79648 0.76159 0.0
C747 C 0.78672 0.80759 0.76285 0.0
C748 C 0.84932 0.89874 0.80455 0.0
Tb749 Tb 0.82922 0.70225 0.73733 0.0
N750 N 0.93497 0.76218 0.76489 0.0
C751 C 0.98187 0.74226 0.76689 0.0
C752 C 0.04689 0.82557 0.81279 0.0
C753 C 0.03846 0.77389 0.79045 0.0
H754 H 0.73992 0.77571 0.74814 0.0
H755 H 0.07481 0.75739 0.79194 0.0
H756 H 0.04844 0.9237 0.85172 0.0
H757 H 0.74902 0.86871 0.78358 0.0
H758 H 0.97639 0.70132 0.75114 0.0
H759 H 0.53403 0.51225 0.62744 0.0
H760 H 0.0901 0.84918 0.83158 0.0
H761 H 0.93189 0.64048 0.60427 0.0
H762 H 0.64271 0.60672 0.64721 0.0
H763 H 0.94312 0.56643 0.55982 0.0
H764 H 0.96209 0.9559 0.84814 0.0
H765 H 0.5342 0.42458 0.59005 0.0
H766 H 0.60178 0.38746 0.55291 0.0
H767 H 0.85058 0.93665 0.82206 0.0
H768 H 0.71303 0.40244 0.53367 0.0
N769 N 0.70336 0.56763 0.62732 0.0
C770 C 0.64324 0.56633 0.63368 0.0
C771 C 0.58185 0.46409 0.60069 0.0
C772 C 0.64397 0.46826 0.59173 0.0
C773 C 0.58154 0.51354 0.62169 0.0
C774 C 0.70453 0.52014 0.60662 0.0
H775 H 0.84018 0.46874 0.5361 0.0
N776 N 0.82418 0.58238 0.60814 0.0
C777 C 0.89339 0.55514 0.56979 0.0
C778 C 0.76718 0.52865 0.59577 0.0
C779 C 0.88689 0.59667 0.5952 0.0
C780 C 0.83517 0.50002 0.5565 0.0
C781 C 0.77108 0.48639 0.56932 0.0
O782 O 0.86287 0.71274 0.59631 0.0
O783 O 0.87109 0.71524 0.68478 0.0
O784 O 0.83505 0.78029 0.70282 0.0
O785 O 0.75989 0.71157 0.65853 0.0
O786 O 0.9189 0.72718 0.63673 0.0
O787 O 0.75439 0.67277 0.59896 0.0
O788 O 0.76064 0.67175 0.78157 0.0
O789 O 0.7641 0.62708 0.69706 0.0
O790 O 0.83152 0.5883 0.66364 0.0
O791 O 0.87457 0.64071 0.72127 0.0
O792 O 0.72128 0.66665 0.72958 0.0
O793 O 0.83932 0.64737 0.77873 0.0
C794 C 0.92795 0.74844 0.67039 0.0
C795 C 0.80361 0.67977 0.53963 0.0
C796 C 0.84271 0.69858 0.47572 0.0
C797 C 0.84555 0.72185 0.51231 0.0
C798 C 0.80187 0.6324 0.46753 0.0
C799 C 0.75809 0.61535 0.52946 0.0
C800 C 0.75923 0.59124 0.49419 0.0
C801 C 0.7952 0.76986 0.67347 0.0
C802 C 0.80858 0.70266 0.57858 0.0
C803 C 0.71097 0.43446 0.55471 0.0
C804 C 0.64763 0.42553 0.56588 0.0
C805 C 0.70663 0.61664 0.70906 0.0
C806 C 0.81118 0.67023 0.83796 0.0
C807 C 0.81127 0.62938 0.86497 0.0
C808 C 0.83164 0.65333 0.90149 0.0
C809 C 0.85879 0.71931 0.90959 0.0
C810 C 0.82822 0.73315 0.84866 0.0
C811 C 0.85562 0.7587 0.88343 0.0
C812 C 0.86591 0.59735 0.69449 0.0
C813 C 0.79195 0.64754 0.79912 0.0
H814 H 0.87722 0.77274 0.51899 0.0
H815 H 0.79891 0.61353 0.43958 0.0
H816 H 0.72077 0.58361 0.54847 0.0
H817 H 0.72492 0.54103 0.48708 0.0
H818 H 0.79122 0.57877 0.85831 0.0
H819 H 0.87521 0.73863 0.93748 0.0
H820 H 0.81836 0.76205 0.83065 0.0
H821 H 0.87071 0.80808 0.89077 0.0
Tb822 Tb 0.3976 0.15301 0.63418 0.0
C823 C 0.1932 0.07594 0.74623 0.0
C824 C 0.15905 0.15519 0.74281 0.0
C825 C 0.07337 0.0421 0.74744 0.0
C826 C 0.20963 0.13826 0.74225 0.0
C827 C 0.12546 0.02719 0.75057 0.0
C828 C 0.09037 0.10623 0.74307 0.0
C829 C 0.1674 0.95478 0.76265 0.0
N830 N 0.24504 0.06363 0.74664 0.0
C831 C 0.23406 1.00545 0.75833 0.0
C832 C 0.11277 0.96531 0.75727 0.0
Tb833 Tb 0.34841 0.14466 0.72674 0.0
N834 N 0.27628 0.18292 0.74031 0.0
C835 C 0.29677 0.24656 0.74636 0.0
C836 C 0.17958 0.22054 0.74363 0.0
C837 C 0.24848 0.26644 0.74771 0.0
H838 H 0.27606 0.99655 0.76061 0.0
H839 H 0.26454 0.31705 0.7501 0.0
H840 H 0.05029 0.11756 0.74093 0.0
H841 H 0.15833 0.90733 0.7685 0.0
H842 H 0.34996 0.28279 0.74766 0.0
H843 H 0.37436 0.91437 0.65308 0.0
H844 H 0.14285 0.23603 0.74187 0.0
H845 H 0.53306 0.2831 0.60162 0.0
H846 H 0.35324 1.00014 0.66926 0.0
H847 H 0.62297 0.30457 0.55649 0.0
H848 H 1.02035 1.005 0.74923 0.0
H849 H 0.45506 0.92672 0.60381 0.0
H850 H 0.54397 0.99812 0.56078 0.0
H851 H 0.06124 0.92578 0.75772 0.0
H852 H 0.60977 0.10372 0.53287 0.0
N853 N 0.41843 0.06569 0.62811 0.0
C854 C 0.38817 0.009 0.64712 0.0
C855 C 0.44541 0.96568 0.61046 0.0
C856 C 0.48016 0.02402 0.59283 0.0
C857 C 0.40016 0.95867 0.63824 0.0
C858 C 0.46593 0.07364 0.6025 0.0
H859 H 0.6399 0.21826 0.53162 0.0
N860 N 0.4967 0.18218 0.60244 0.0
C861 C 0.58997 0.25663 0.56534 0.0
C862 C 0.50552 0.1338 0.58866 0.0
C863 C 0.53887 0.2436 0.59121 0.0
C864 C 0.59926 0.20742 0.55108 0.0
C865 C 0.55773 0.14531 0.56314 0.0
O866 O 0.40705 0.22869 0.60173 0.0
O867 O 0.3432 0.17986 0.67441 0.0
O868 O 0.26675 0.05733 0.69444 0.0
O869 O 0.31058 0.05782 0.63596 0.0
O870 O 0.29423 0.13971 0.62683 0.0
O871 O 0.36715 0.13195 0.57873 0.0
O872 O 0.37962 0.11812 0.77499 0.0
O873 O 0.4323 0.15449 0.69126 0.0
O874 O 0.47541 0.24451 0.66047 0.0
O875 O 0.41671 0.24768 0.71272 0.0
O876 O 0.38143 0.07538 0.72111 0.0
O877 O 0.39351 0.21135 0.77162 0.0
C878 C 0.28872 0.16567 0.65714 0.0
C879 C 0.40681 0.21464 0.53534 0.0
C880 C 0.38441 0.19932 0.46891 0.0
C881 C 0.37071 0.17517 0.5046 0.0
C882 C 0.43733 0.26248 0.4637 0.0
C883 C 0.45808 0.27838 0.5298 0.0
C884 C 0.47452 0.30149 0.49403 0.0
C885 C 0.26347 0.02992 0.66117 0.0
C886 C 0.38183 0.19059 0.57251 0.0
C887 C 0.56931 0.09536 0.55195 0.0
C888 C 0.53138 0.03512 0.56738 0.0
C889 C 0.43788 0.10889 0.70422 0.0
C890 C 0.37057 0.16688 0.83087 0.0
C891 C 0.41305 0.18274 0.86248 0.0
C892 C 0.38592 0.17783 0.89836 0.0
C893 C 0.31643 0.15698 0.90219 0.0
C894 C 0.30137 0.14665 0.83567 0.0
C895 C 0.27459 0.14171 0.87105 0.0
C896 C 0.46738 0.27656 0.68871 0.0
C897 C 0.39804 0.17163 0.79301 0.0
H898 H 0.3282 0.12718 0.50871 0.0
H899 H 0.44798 0.28229 0.43637 0.0
H900 H 0.48392 0.31087 0.55301 0.0
H901 H 0.51412 0.35067 0.48996 0.0
H902 H 0.4666 0.19846 0.85923 0.0
H903 H 0.29459 0.15274 0.92941 0.0
H904 H 0.2679 0.13473 0.81209 0.0
H905 H 0.22109 0.12598 0.87433 0.0
Tb906 Tb 0.92277 0.20931 0.74546 0.0
C907 C 0.80815 0.29307 0.63432 0.0
C908 C 0.68971 0.21428 0.63899 0.0
C909 C 0.72454 0.32736 0.63408 0.0
C910 C 0.75824 0.23092 0.63878 0.0
C911 C 0.79227 0.34186 0.62975 0.0
C912 C 0.67341 0.2635 0.63953 0.0
C913 C 0.91058 0.41316 0.61536 0.0
N914 N 0.87284 0.30484 0.63292 0.0
C915 C 0.92363 0.36283 0.62074 0.0
C916 C 0.845 0.40315 0.62124 0.0
Tb917 Tb 0.88994 0.22333 0.65231 0.0
N918 N 0.77719 0.186 0.63972 0.0
C919 C 0.72996 0.12273 0.63268 0.0
C920 C 0.64057 0.14894 0.63764 0.0
C921 C 0.6606 0.10309 0.63212 0.0
H922 H 0.97508 0.37165 0.61814 0.0
H923 H 0.62288 0.05259 0.62915 0.0
H924 H 0.62155 0.25257 0.64296 0.0
H925 H 0.95143 0.46008 0.60795 0.0
H926 H 0.74444 0.08649 0.62953 0.0
H927 H 0.16847 0.43752 0.73894 0.0
H928 H 0.58729 0.13342 0.63964 0.0
H929 H 0.89804 0.06725 0.77281 0.0
H930 H 0.05576 0.36034 0.71694 0.0
H931 H 0.9516 0.03062 0.81611 0.0
H932 H 0.71103 0.36452 0.63241 0.0
H933 H 0.22234 0.41123 0.78911 0.0
H934 H 0.22044 0.32814 0.82872 0.0
H935 H 0.83557 0.44271 0.61928 0.0
H936 H 0.16127 0.21769 0.85057 0.0
N937 N 0.03821 0.2873 0.75572 0.0
C938 C 0.07554 0.34603 0.73935 0.0
C939 C 0.17115 0.37635 0.77996 0.0
C940 C 0.13642 0.31531 0.79463 0.0
C941 C 0.14108 0.39118 0.75161 0.0
C942 C 0.06975 0.27124 0.78161 0.0
H943 H 0.06169 0.10628 0.84561 0.0
N944 N 0.97794 0.1657 0.77584 0.0
C945 C 0.97677 0.08048 0.80956 0.0
C946 C 0.03834 0.2082 0.79207 0.0
C947 C 0.94714 0.10202 0.78427 0.0
C948 C 0.03859 0.12359 0.82638 0.0
C949 C 0.07077 0.18816 0.81732 0.0
O950 O 0.84635 0.13793 0.77825 0.0
O951 O 0.84334 0.1872 0.70436 0.0
O952 O 0.90398 0.31057 0.68488 0.0
O953 O 0.94628 0.30745 0.74276 0.0
O954 O 0.83713 0.22821 0.75179 0.0
O955 O 0.91603 0.23329 0.801 0.0
O956 O 0.94393 0.25266 0.60181 0.0
O957 O 0.95944 0.21006 0.68844 0.0
O958 O 0.90095 0.11853 0.71744 0.0
O959 O 0.84516 0.11991 0.66414 0.0
O960 O 0.99754 0.2905 0.66024 0.0
O961 O 0.87184 0.15516 0.60911 0.0
C962 C 0.80435 0.20252 0.72156 0.0
C963 C 0.85783 0.15163 0.84488 0.0
C964 C 0.84369 0.16544 0.9111 0.0
C965 C 0.86014 0.1905 0.87549 0.0
C966 C 0.82832 0.10194 0.91625 0.0
C967 C 0.8401 0.08757 0.85057 0.0
C968 C 0.82727 0.06358 0.88619 0.0
C969 C 0.93135 0.3371 0.71778 0.0
C970 C 0.86405 0.17676 0.80734 0.0
C971 C 0.13532 0.23248 0.83163 0.0
C972 C 0.16853 0.29564 0.81975 0.0
C973 C 1.01555 0.25445 0.67639 0.0
C974 C 0.88253 0.19186 0.54821 0.0
C975 C 0.91212 0.18175 0.51587 0.0
C976 C 0.8816 0.17465 0.48066 0.0
C977 C 0.8217 0.17776 0.47828 0.0
C978 C 0.82312 0.19566 0.54461 0.0
C979 C 0.79284 0.18828 0.51001 0.0
C980 C 0.861 0.08909 0.68845 0.0
C981 C 0.91185 0.19648 0.58567 0.0
H982 H 0.87 0.23887 0.87122 0.0
H983 H 0.81498 0.08144 0.94338 0.0
H984 H 0.83395 0.05526 0.8276 0.0
H985 H 0.81377 0.0142 0.8903 0.0
H986 H 0.95854 0.17962 0.51804 0.0
H987 H 0.79774 0.17294 0.45166 0.0
H988 H 0.79979 0.20415 0.56855 0.0
H989 H 0.74684 0.19104 0.50777 0.0
loop_
_geom_bond_atom_site_label_1
_geom_bond_atom_site_label_2
_geom_bond_distance
_geom_bond_site_symmetry_2
_ccdc_geom_bond_type
H0 C7 0.929 . S
H1 C10 0.930 . S
H2 C12 0.929 . S
H3 C4 0.969 . S
C4 H3 0.969 . S
C4 O5 1.550 . S
C4 H6 0.973 . S
O5 C4 1.550 . S
O5 C11 1.412 . S
H6 C4 0.973 . S
C7 H0 0.929 . S
C7 C8 1.400 . S
C7 C9 1.364 . S
C8 C7 1.400 . S
C8 C12 1.377 . S
C9 C7 1.364 . S
C9 C10 1.374 . S
C10 H1 0.930 . S
C10 C9 1.374 . S
C10 C11 1.383 . S
C11 O5 1.412 . S
C11 C10 1.383 . S
C11 C12 1.394 . S
C12 H2 0.929 . S
C12 C8 1.377 . S
C12 C11 1.394 . S
H13 C20 0.929 . S
H14 C23 0.930 . S
H15 C25 0.929 . S
H16 C17 0.969 . S
C17 H16 0.969 . S
C17 O18 1.550 1_565 S
C17 H19 0.973 . S
O18 C17 1.550 1_545 S
O18 C24 1.412 . S
H19 C17 0.973 . S
C20 H13 0.929 . S
C20 C21 1.400 . S
C20 C22 1.364 . S
C21 C20 1.400 . S
C21 C25 1.377 . S
C22 C20 1.364 . S
C22 C23 1.374 . S
C23 H14 0.930 . S
C23 C22 1.374 . S
C23 C24 1.383 . S
C24 O18 1.412 . S
C24 C23 1.383 . S
C24 C25 1.394 . S
C25 H15 0.929 . S
C25 C21 1.377 . S
C25 C24 1.394 . S
H26 C33 0.929 . S
H27 C36 0.930 . S
H28 C38 0.929 . S
H29 C30 0.969 . S
C30 H29 0.969 . S
C30 O31 1.550 1_455 S
C30 H32 0.973 . S
O31 C30 1.550 1_655 S
O31 C37 1.412 . S
H32 C30 0.973 . S
C33 H26 0.929 . S
C33 C34 1.400 . S
C33 C35 1.364 . S
C34 C33 1.400 . S
C34 C38 1.377 . S
C35 C33 1.364 . S
C35 C36 1.374 . S
C36 H27 0.930 . S
C36 C35 1.374 . S
C36 C37 1.383 . S
C37 O31 1.412 . S
C37 C36 1.383 . S
C37 C38 1.394 . S
C38 H28 0.929 . S
C38 C34 1.377 . S
C38 C37 1.394 . S
H39 C46 0.929 . S
H40 C49 0.930 . S
H41 C51 0.929 . S
H42 C43 0.969 . S
C43 H42 0.969 . S
C43 O44 1.550 . S
C43 H45 0.973 . S
O44 C43 1.550 . S
O44 C50 1.412 . S
H45 C43 0.973 . S
C46 H39 0.929 . S
C46 C47 1.400 . S
C46 C48 1.364 . S
C47 C46 1.400 . S
C47 C51 1.377 . S
C48 C46 1.364 . S
C48 C49 1.374 . S
C49 H40 0.930 . S
C49 C48 1.374 . S
C49 C50 1.383 . S
C50 O44 1.412 . S
C50 C49 1.383 . S
C50 C51 1.394 . S
C51 H41 0.929 . S
C51 C47 1.377 . S
C51 C50 1.394 . S
H52 C59 0.929 . S
H53 C62 0.930 . S
H54 C64 0.929 . S
H55 C56 0.969 . S
C56 H55 0.969 . S
C56 O57 1.550 1_545 S
C56 H58 0.973 . S
O57 C56 1.550 1_565 S
O57 C63 1.412 . S
H58 C56 0.973 . S
C59 H52 0.929 . S
C59 C60 1.400 . S
C59 C61 1.364 . S
C60 C59 1.400 . S
C60 C64 1.377 . S
C61 C59 1.364 . S
C61 C62 1.374 . S
C62 H53 0.930 . S
C62 C61 1.374 . S
C62 C63 1.383 . S
C63 O57 1.412 . S
C63 C62 1.383 . S
C63 C64 1.394 . S
C64 H54 0.929 . S
C64 C60 1.377 . S
C64 C63 1.394 . S
H65 C72 0.929 . S
H66 C75 0.930 . S
H67 C77 0.929 . S
H68 C69 0.969 . S
C69 H68 0.969 . S
C69 O70 1.550 1_655 S
C69 H71 0.973 . S
O70 C69 1.550 1_455 S
O70 C76 1.412 . S
H71 C69 0.973 . S
C72 H65 0.929 . S
C72 C73 1.400 . S
C72 C74 1.364 . S
C73 C72 1.400 . S
C73 C77 1.377 . S
C74 C72 1.364 . S
C74 C75 1.374 . S
C75 H66 0.930 . S
C75 C74 1.374 . S
C75 C76 1.383 . S
C76 O70 1.412 . S
C76 C75 1.383 . S
C76 C77 1.394 . S
C77 H67 0.929 . S
C77 C73 1.377 . S
C77 C76 1.394 . S
H78 C85 0.929 . S
H79 C88 0.930 . S
H80 C90 0.929 . S
H81 C82 0.969 . S
C82 H81 0.969 . S
C82 O83 1.550 . S
C82 H84 0.973 . S
O83 C82 1.550 . S
O83 C89 1.412 . S
H84 C82 0.973 . S
C85 H78 0.929 . S
C85 C86 1.400 . S
C85 C87 1.364 . S
C86 C85 1.400 . S
C86 C90 1.377 . S
C87 C85 1.364 . S
C87 C88 1.374 . S
C88 H79 0.930 . S
C88 C87 1.374 . S
C88 C89 1.383 . S
C89 O83 1.412 . S
C89 C88 1.383 . S
C89 C90 1.394 . S
C90 H80 0.929 . S
C90 C86 1.377 . S
C90 C89 1.394 . S
H91 C98 0.929 . S
H92 C101 0.930 . S
H93 C103 0.929 . S
H94 C95 0.969 . S
C95 H94 0.969 . S
C95 O96 1.550 . S
C95 H97 0.973 . S
O96 C95 1.550 . S
O96 C102 1.412 . S
H97 C95 0.973 . S
C98 H91 0.929 . S
C98 C99 1.400 . S
C98 C100 1.364 . S
C99 C98 1.400 . S
C99 C103 1.377 . S
C100 C98 1.364 . S
C100 C101 1.374 . S
C101 H92 0.930 . S
C101 C100 1.374 . S
C101 C102 1.383 . S
C102 O96 1.412 . S
C102 C101 1.383 . S
C102 C103 1.394 . S
C103 H93 0.929 . S
C103 C99 1.377 . S
C103 C102 1.394 . S
H104 C111 0.929 . S
H105 C114 0.930 . S
H106 C116 0.929 . S
H107 C108 0.969 . S
C108 H107 0.969 . S
C108 O109 1.550 . S
C108 H110 0.973 . S
O109 C108 1.550 . S
O109 C115 1.412 . S
H110 C108 0.973 . S
C111 H104 0.929 . S
C111 C112 1.400 . S
C111 C113 1.364 . S
C112 C111 1.400 . S
C112 C116 1.377 . S
C113 C111 1.364 . S
C113 C114 1.374 . S
C114 H105 0.930 . S
C114 C113 1.374 . S
C114 C115 1.383 . S
C115 O109 1.412 . S
C115 C114 1.383 . S
C115 C116 1.394 . S
C116 H106 0.929 . S
C116 C112 1.377 . S
C116 C115 1.394 . S
H117 C124 0.929 . S
H118 C127 0.930 . S
H119 C129 0.929 1_554 S
H120 C121 0.969 . S
C121 H120 0.969 . S
C121 O122 1.550 . S
C121 H123 0.973 . S
O122 C121 1.550 . S
O122 C128 1.412 . S
H123 C121 0.973 . S
C124 H117 0.929 . S
C124 C125 1.400 . S
C124 C126 1.364 . S
C125 C124 1.400 . S
C125 C129 1.377 . S
C126 C124 1.364 . S
C126 C127 1.374 . S
C127 H118 0.930 . S
C127 C126 1.374 . S
C127 C128 1.383 . S
C128 O122 1.412 . S
C128 C127 1.383 . S
C128 C129 1.394 . S
C129 H119 0.929 1_556 S
C129 C125 1.377 . S
C129 C128 1.394 . S
H130 C137 0.929 . S
H131 C140 0.930 . S
H132 C142 0.929 1_554 S
H133 C134 0.969 . S
C134 H133 0.969 . S
C134 O135 1.550 . S
C134 H136 0.973 . S
O135 C134 1.550 . S
O135 C141 1.412 . S
H136 C134 0.973 . S
C137 H130 0.929 . S
C137 C138 1.400 . S
C137 C139 1.364 . S
C138 C137 1.400 . S
C138 C142 1.377 . S
C139 C137 1.364 . S
C139 C140 1.374 . S
C140 H131 0.930 . S
C140 C139 1.374 . S
C140 C141 1.383 . S
C141 O135 1.412 . S
C141 C140 1.383 . S
C141 C142 1.394 . S
C142 H132 0.929 1_556 S
C142 C138 1.377 . S
C142 C141 1.394 . S
H143 C150 0.929 . S
H144 C153 0.930 . S
H145 C155 0.929 1_554 S
H146 C147 0.969 . S
C147 H146 0.969 . S
C147 O148 1.550 . S
C147 H149 0.973 . S
O148 C147 1.550 . S
O148 C154 1.412 . S
H149 C147 0.973 . S
C150 H143 0.929 . S
C150 C151 1.400 . S
C150 C152 1.364 . S
C151 C150 1.400 . S
C151 C155 1.377 . S
C152 C150 1.364 . S
C152 C153 1.374 . S
C153 H144 0.930 . S
C153 C152 1.374 . S
C153 C154 1.383 . S
C154 O148 1.412 . S
C154 C153 1.383 . S
C154 C155 1.394 . S
C155 H145 0.929 1_556 S
C155 C151 1.377 . S
C155 C154 1.394 . S
H156 C163 0.929 . S
H157 C166 0.930 . S
H158 C168 0.933 . S
H159 C160 0.969 . S
C160 H159 0.969 . S
C160 O161 1.550 . S
C160 H162 0.973 . S
O161 C160 1.550 . S
O161 C167 1.412 . S
H162 C160 0.973 . S
C163 H156 0.929 . S
C163 C164 1.400 . S
C163 C165 1.364 . S
C164 C163 1.400 . S
C164 C168 1.377 . S
C165 C163 1.364 . S
C165 C166 1.374 . S
C166 H157 0.930 . S
C166 C165 1.374 . S
C166 C167 1.383 . S
C167 O161 1.412 . S
C167 C166 1.383 . S
C167 C168 1.394 . S
C168 H158 0.933 . S
C168 C164 1.377 . S
C168 C167 1.394 . S
H169 C176 0.929 . S
H170 C179 0.930 . S
H171 C181 0.929 . S
H172 C173 0.969 . S
C173 H172 0.969 . S
C173 O174 1.550 . S
C173 H175 0.973 . S
O174 C173 1.550 . S
O174 C180 1.412 . S
H175 C173 0.973 . S
C176 H169 0.929 . S
C176 C177 1.400 . S
C176 C178 1.364 . S
C177 C176 1.400 . S
C177 C181 1.377 . S
C178 C176 1.364 . S
C178 C179 1.374 . S
C179 H170 0.930 . S
C179 C178 1.374 . S
C179 C180 1.383 . S
C180 O174 1.412 . S
C180 C179 1.383 . S
C180 C181 1.394 . S
C181 H171 0.929 . S
C181 C177 1.377 . S
C181 C180 1.394 . S
H182 C189 0.929 . S
H183 C192 0.930 . S
H184 C194 0.929 . S
H185 C186 0.969 . S
C186 H185 0.969 . S
C186 O187 1.550 . S
C186 H188 0.973 . S
O187 C186 1.550 . S
O187 C193 1.412 . S
H188 C186 0.973 . S
C189 H182 0.929 . S
C189 C190 1.400 . S
C189 C191 1.364 . S
C190 C189 1.400 . S
C190 C194 1.377 . S
C191 C189 1.364 . S
C191 C192 1.374 . S
C192 H183 0.930 . S
C192 C191 1.374 . S
C192 C193 1.383 . S
C193 O187 1.412 . S
C193 C192 1.383 . S
C193 C194 1.394 . S
C194 H184 0.929 . S
C194 C190 1.377 . S
C194 C193 1.394 . S
H195 C202 0.929 . S
H196 C205 0.930 . S
H197 C207 0.929 . S
H198 C199 0.969 . S
C199 H198 0.969 . S
C199 O200 1.550 . S
C199 H201 0.973 . S
O200 C199 1.550 . S
O200 C206 1.412 . S
H201 C199 0.973 . S
C202 H195 0.929 . S
C202 C203 1.400 . S
C202 C204 1.364 . S
C203 C202 1.400 . S
C203 C207 1.377 . S
C204 C202 1.364 . S
C204 C205 1.374 . S
C205 H196 0.930 . S
C205 C204 1.374 . S
C205 C206 1.383 . S
C206 O200 1.412 . S
C206 C205 1.383 . S
C206 C207 1.394 . S
C207 H197 0.929 . S
C207 C203 1.377 . S
C207 C206 1.394 . S
H208 C215 0.929 . S
H209 C218 0.930 . S
H210 C220 0.929 . S
H211 C212 0.969 . S
C212 H211 0.969 . S
C212 O213 1.550 . S
C212 H214 0.973 . S
O213 C212 1.550 . S
O213 C219 1.412 . S
H214 C212 0.973 . S
C215 H208 0.929 . S
C215 C216 1.400 . S
C215 C217 1.364 . S
C216 C215 1.400 . S
C216 C220 1.377 . S
C217 C215 1.364 . S
C217 C218 1.374 . S
C218 H209 0.930 . S
C218 C217 1.374 . S
C218 C219 1.383 . S
C219 O213 1.412 . S
C219 C218 1.383 . S
C219 C220 1.394 . S
C220 H210 0.929 . S
C220 C216 1.377 . S
C220 C219 1.394 . S
H221 C228 0.929 . S
H222 C231 0.930 . S
H223 C233 0.929 . S
H224 C225 0.969 . S
C225 H224 0.969 . S
C225 O226 1.550 . S
C225 H227 0.973 . S
O226 C225 1.550 . S
O226 C232 1.412 . S
H227 C225 0.973 . S
C228 H221 0.929 . S
C228 C229 1.400 . S
C228 C230 1.364 . S
C229 C228 1.400 . S
C229 C233 1.377 . S
C230 C228 1.364 . S
C230 C231 1.374 . S
C231 H222 0.930 . S
C231 C230 1.374 . S
C231 C232 1.383 . S
C232 O226 1.412 . S
C232 C231 1.383 . S
C232 C233 1.394 . S
C233 H223 0.929 . S
C233 C229 1.377 . S
C233 C232 1.394 . S
Tb234 N265 2.660 . S
Tb234 N272 2.600 . S
Tb234 O278 2.546 . S
Tb234 O279 2.603 1_566 S
Tb234 O281 2.320 1_565 S
Tb234 O282 2.552 1_565 S
Tb234 O283 2.413 1_565 S
Tb234 O285 2.362 1_556 S
Tb234 O286 2.421 . S
Tb234 C298 2.833 . S
C235 C238 1.432 . S
C235 C239 1.414 . S
C235 N242 1.359 . S
C236 C238 1.417 . S
C236 C240 1.432 . S
C236 C248 1.410 . S
C237 C239 1.444 . S
C237 C240 1.317 . S
C237 H260 0.929 . S
C238 C235 1.432 . S
C238 C236 1.417 . S
C238 N246 1.360 . S
C239 C235 1.414 . S
C239 C237 1.444 . S
C239 C244 1.385 . S
C240 C236 1.432 . S
C240 C237 1.317 . S
C240 H252 0.930 . S
C241 C243 1.392 . S
C241 C244 1.370 . S
C241 H253 0.931 . S
N242 C235 1.359 . S
N242 C243 1.327 . S
N242 Tb245 2.600 . S
C243 C241 1.392 . S
C243 N242 1.327 . S
C243 H250 0.930 . S
C244 C239 1.385 . S
C244 C241 1.370 . S
C244 H263 0.930 . S
Tb245 N242 2.600 . S
Tb245 N246 2.660 . S
Tb245 O279 2.371 . S
Tb245 O280 2.421 . S
Tb245 O284 2.546 . S
Tb245 O285 2.610 1_545 S
Tb245 O287 2.320 1_545 S
Tb245 O288 2.552 1_545 S
Tb245 O289 2.413 1_545 S
Tb245 C309 2.833 . S
N246 C238 1.360 . S
N246 Tb245 2.660 . S
N246 C247 1.305 . S
C247 N246 1.305 . S
C247 C249 1.407 . S
C247 H254 0.930 . S
C248 C236 1.410 . S
C248 C249 1.345 . S
C248 H256 0.930 . S
C249 C247 1.407 . S
C249 C248 1.345 . S
C249 H251 0.930 . S
H250 C243 0.930 . S
H251 C249 0.930 . S
H252 C240 0.930 . S
H253 C241 0.931 . S
H254 C247 0.930 . S
H255 C269 0.930 . S
H256 C248 0.930 . S
H257 C275 0.930 . S
H258 C266 0.930 . S
H259 C273 0.931 . S
H260 C237 0.929 . S
H261 C267 0.930 . S
H262 C300 0.930 . S
H263 C244 0.930 . S
H264 C299 0.929 . S
N265 Tb234 2.660 . S
N265 C266 1.305 . S
N265 C270 1.360 . S
C266 H258 0.930 . S
C266 N265 1.305 . S
C266 C269 1.407 . S
C267 H261 0.930 . S
C267 C268 1.410 . S
C267 C269 1.345 . S
C268 C267 1.410 . S
C268 C270 1.417 . S
C268 C300 1.432 . S
C269 H255 0.930 . S
C269 C266 1.407 . S
C269 C267 1.345 . S
C270 N265 1.360 . S
C270 C268 1.417 . S
C270 C274 1.432 . S
H271 C276 0.930 . S
N272 Tb234 2.600 . S
N272 C274 1.359 . S
N272 C275 1.327 . S
C273 H259 0.931 . S
C273 C275 1.392 . S
C273 C276 1.370 . S
C274 C270 1.432 . S
C274 N272 1.359 . S
C274 C277 1.414 . S
C275 H257 0.930 . S
C275 N272 1.327 . S
C275 C273 1.392 . S
C276 H271 0.930 . S
C276 C273 1.370 . S
C276 C277 1.385 . S
C277 C274 1.414 . S
C277 C276 1.385 . S
C277 C299 1.444 . S
O278 Tb234 2.546 . S
O278 C298 1.251 . S
O279 Tb234 2.603 1_544 S
O279 Tb245 2.371 . S
O279 C290 1.275 1_554 S
O280 Tb245 2.421 . S
O280 C297 1.262 1_554 S
O281 Tb234 2.320 1_545 S
O281 C297 1.260 . S
O282 Tb234 2.552 1_545 S
O282 C290 1.243 . S
O283 Tb234 2.413 1_545 S
O283 C298 1.256 1_545 S
O284 Tb245 2.546 . S
O284 C309 1.251 . S
O285 Tb234 2.362 1_554 S
O285 Tb245 2.610 1_565 S
O285 C301 1.283 . S
O286 Tb234 2.421 . S
O286 C308 1.262 1_556 S
O287 Tb245 2.320 1_565 S
O287 C308 1.260 . S
O288 Tb245 2.552 1_565 S
O288 C301 1.243 . S
O289 Tb245 2.413 1_565 S
O289 C309 1.256 1_565 S
C290 O279 1.275 1_556 S
C290 O282 1.243 . S
C291 C293 1.374 1_565 S
C291 C295 1.400 . S
C291 C298 1.501 . S
C292 C293 1.400 . S
C292 C294 1.384 . S
C293 C291 1.374 1_545 S
C293 C292 1.400 . S
C293 H310 0.930 . S
C294 C292 1.384 . S
C294 C296 1.392 1_545 S
C294 H311 0.931 . S
C295 C291 1.400 . S
C295 C296 1.401 . S
C295 H312 0.930 . S
C296 C294 1.392 1_565 S
C296 C295 1.401 . S
C296 H313 0.930 . S
C297 O280 1.262 1_556 S
C297 O281 1.260 . S
C298 Tb234 2.833 . S
C298 O278 1.251 . S
C298 O283 1.256 1_565 S
C298 C291 1.501 . S
C299 H264 0.929 . S
C299 C277 1.444 . S
C299 C300 1.317 . S
C300 H262 0.930 . S
C300 C268 1.432 . S
C300 C299 1.317 . S
C301 O285 1.283 . S
C301 O288 1.243 . S
C302 C303 1.382 1_545 S
C302 C306 1.393 . S
C302 C309 1.500 . S
C303 C302 1.382 1_565 S
C303 C304 1.400 . S
C303 H314 0.930 . S
C304 C303 1.400 . S
C304 C305 1.384 . S
C305 C304 1.384 . S
C305 C307 1.392 1_565 S
C305 H315 0.931 . S
C306 C302 1.393 . S
C306 C307 1.401 . S
C306 H316 0.930 . S
C307 C305 1.392 1_545 S
C307 C306 1.401 . S
C307 H317 0.930 . S
C308 O286 1.262 1_554 S
C308 O287 1.260 . S
C309 Tb245 2.833 . S
C309 O284 1.251 . S
C309 O289 1.256 1_545 S
C309 C302 1.500 . S
H310 C293 0.930 . S
H311 C294 0.931 . S
H312 C295 0.930 . S
H313 C296 0.930 . S
H314 C303 0.930 . S
H315 C305 0.931 . S
H316 C306 0.930 . S
H317 C307 0.930 . S
Tb318 N349 2.660 . S
Tb318 N356 2.600 . S
Tb318 O362 2.546 . S
Tb318 O363 2.623 1_455 S
Tb318 O365 2.320 1_455 S
Tb318 O366 2.552 1_455 S
Tb318 O367 2.413 . S
Tb318 O369 2.362 1_556 S
Tb318 O370 2.421 . S
Tb318 C382 2.833 . S
C319 C322 1.432 . S
C319 C323 1.414 . S
C319 N326 1.359 . S
C320 C322 1.417 . S
C320 C324 1.432 . S
C320 C332 1.410 . S
C321 C323 1.444 . S
C321 C324 1.317 . S
C321 H344 0.929 . S
C322 C319 1.432 . S
C322 C320 1.417 . S
C322 N330 1.360 . S
C323 C319 1.414 . S
C323 C321 1.444 . S
C323 C328 1.385 . S
C324 C320 1.432 . S
C324 C321 1.317 . S
C324 H336 0.930 . S
C325 C327 1.392 . S
C325 C328 1.370 . S
C325 H337 0.931 . S
N326 C319 1.359 . S
N326 C327 1.327 . S
N326 Tb329 2.600 . S
C327 C325 1.392 . S
C327 N326 1.327 . S
C327 H334 0.930 . S
C328 C323 1.385 . S
C328 C325 1.370 . S
C328 H347 0.930 . S
Tb329 N326 2.600 . S
Tb329 N330 2.660 . S
Tb329 O363 2.342 1_554 S
Tb329 O364 2.421 . S
Tb329 O368 2.546 . S
Tb329 O369 2.610 1_655 S
Tb329 O371 2.320 1_655 S
Tb329 O372 2.552 1_655 S
Tb329 O373 2.413 1_655 S
Tb329 C393 2.833 . S
N330 C322 1.360 . S
N330 Tb329 2.660 . S
N330 C331 1.305 . S
C331 N330 1.305 . S
C331 C333 1.407 . S
C331 H338 0.930 . S
C332 C320 1.410 . S
C332 C333 1.345 . S
C332 H340 0.930 . S
C333 C331 1.407 . S
C333 C332 1.345 . S
C333 H335 0.930 . S
H334 C327 0.930 . S
H335 C333 0.930 . S
H336 C324 0.930 . S
H337 C325 0.931 . S
H338 C331 0.930 . S
H339 C353 0.930 . S
H340 C332 0.930 . S
H341 C359 0.930 . S
H342 C350 0.930 . S
H343 C357 0.931 . S
H344 C321 0.929 . S
H345 C351 0.930 . S
H346 C384 0.930 . S
H347 C328 0.930 . S
H348 C383 0.929 . S
N349 Tb318 2.660 . S
N349 C350 1.305 . S
N349 C354 1.360 . S
C350 H342 0.930 . S
C350 N349 1.305 . S
C350 C353 1.407 . S
C351 H345 0.930 . S
C351 C352 1.410 . S
C351 C353 1.345 . S
C352 C351 1.410 . S
C352 C354 1.417 . S
C352 C384 1.432 . S
C353 H339 0.930 . S
C353 C350 1.407 . S
C353 C351 1.345 . S
C354 N349 1.360 . S
C354 C352 1.417 . S
C354 C358 1.432 . S
H355 C360 0.930 . S
N356 Tb318 2.600 . S
N356 C358 1.359 . S
N356 C359 1.327 . S
C357 H343 0.931 . S
C357 C359 1.392 . S
C357 C360 1.370 . S
C358 C354 1.432 . S
C358 N356 1.359 . S
C358 C361 1.414 . S
C359 H341 0.930 . S
C359 N356 1.327 . S
C359 C357 1.392 . S
C360 H355 0.930 . S
C360 C357 1.370 . S
C360 C361 1.385 . S
C361 C358 1.414 . S
C361 C360 1.385 . S
C361 C383 1.444 . S
O362 Tb318 2.546 . S
O362 C382 1.251 . S
O363 Tb318 2.623 1_655 S
O363 Tb329 2.342 1_556 S
O363 C374 1.299 . S
O364 Tb329 2.421 . S
O364 C381 1.262 1_554 S
O365 Tb318 2.320 1_655 S
O365 C381 1.260 . S
O366 Tb318 2.552 1_655 S
O366 C374 1.243 . S
O367 Tb318 2.413 . S
O367 C382 1.256 . S
O368 Tb329 2.546 . S
O368 C393 1.251 . S
O369 Tb318 2.362 1_554 S
O369 Tb329 2.610 1_455 S
O369 C385 1.283 . S
O370 Tb318 2.421 . S
O370 C392 1.262 1_556 S
O371 Tb329 2.320 1_455 S
O371 C392 1.260 . S
O372 Tb329 2.552 1_455 S
O372 C385 1.243 . S
O373 Tb329 2.413 1_455 S
O373 C393 1.256 1_455 S
C374 O363 1.299 . S
C374 O366 1.243 . S
C375 C377 1.382 1_455 S
C375 C379 1.393 . S
C375 C382 1.500 . S
C376 C377 1.400 . S
C376 C378 1.384 . S
C377 C375 1.382 1_655 S
C377 C376 1.400 . S
C377 H394 0.930 . S
C378 C376 1.384 . S
C378 C380 1.392 1_655 S
C378 H395 0.931 . S
C379 C375 1.393 . S
C379 C380 1.401 . S
C379 H396 0.930 . S
C380 C378 1.392 1_455 S
C380 C379 1.401 . S
C380 H397 0.930 . S
C381 O364 1.262 1_556 S
C381 O365 1.260 . S
C382 Tb318 2.833 . S
C382 O362 1.251 . S
C382 O367 1.256 . S
C382 C375 1.500 . S
C383 H348 0.929 . S
C383 C361 1.444 . S
C383 C384 1.317 . S
C384 H346 0.930 . S
C384 C352 1.432 . S
C384 C383 1.317 . S
C385 O369 1.283 . S
C385 O372 1.243 . S
C386 C387 1.382 1_655 S
C386 C390 1.393 . S
C386 C393 1.500 . S
C387 C386 1.382 1_455 S
C387 C388 1.400 . S
C387 H398 0.930 . S
C388 C387 1.400 . S
C388 C389 1.384 . S
C389 C388 1.384 . S
C389 C391 1.392 1_455 S
C389 H399 0.931 . S
C390 C386 1.393 . S
C390 C391 1.401 . S
C390 H400 0.930 . S
C391 C389 1.392 1_655 S
C391 C390 1.401 . S
C391 H401 0.930 . S
C392 O370 1.262 1_554 S
C392 O371 1.260 . S
C393 Tb329 2.833 . S
C393 O368 1.251 . S
C393 O373 1.256 1_655 S
C393 C386 1.500 . S
H394 C377 0.930 . S
H395 C378 0.931 . S
H396 C379 0.930 . S
H397 C380 0.930 . S
H398 C387 0.930 . S
H399 C389 0.931 . S
H400 C390 0.930 . S
H401 C391 0.930 . S
Tb402 N433 2.660 . S
Tb402 N440 2.600 . S
Tb402 O446 2.546 . S
Tb402 O447 2.610 . S
Tb402 O449 2.320 . S
Tb402 O450 2.552 . S
Tb402 O451 2.413 . S
Tb402 O453 2.378 . S
Tb402 O454 2.421 . S
Tb402 C466 2.833 . S
C403 C406 1.432 . S
C403 C407 1.414 . S
C403 N410 1.359 . S
C404 C406 1.417 . S
C404 C408 1.432 . S
C404 C416 1.410 . S
C405 C407 1.444 . S
C405 C408 1.317 . S
C405 H428 0.929 . S
C406 C403 1.432 . S
C406 C404 1.417 . S
C406 N414 1.360 . S
C407 C403 1.414 . S
C407 C405 1.444 . S
C407 C412 1.385 . S
C408 C404 1.432 . S
C408 C405 1.317 . S
C408 H420 0.930 . S
C409 C411 1.392 . S
C409 C412 1.370 . S
C409 H421 0.931 . S
N410 C403 1.359 . S
N410 C411 1.327 . S
N410 Tb413 2.600 . S
C411 C409 1.392 . S
C411 N410 1.327 . S
C411 H418 0.930 . S
C412 C407 1.385 . S
C412 C409 1.370 . S
C412 H431 0.930 . S
Tb413 N410 2.600 . S
Tb413 N414 2.660 . S
Tb413 O447 2.362 1_556 S
Tb413 O448 2.421 . S
Tb413 O452 2.546 . S
Tb413 O453 2.599 1_556 S
Tb413 O455 2.320 . S
Tb413 O456 2.552 . S
Tb413 O457 2.413 . S
Tb413 C477 2.833 . S
N414 C406 1.360 . S
N414 Tb413 2.660 . S
N414 C415 1.305 . S
C415 N414 1.305 . S
C415 C417 1.407 . S
C415 H422 0.930 . S
C416 C404 1.410 . S
C416 C417 1.345 . S
C416 H424 0.930 . S
C417 C415 1.407 . S
C417 C416 1.345 . S
C417 H419 0.930 . S
H418 C411 0.930 . S
H419 C417 0.930 . S
H420 C408 0.930 . S
H421 C409 0.931 . S
H422 C415 0.930 . S
H423 C437 0.930 . S
H424 C416 0.930 . S
H425 C443 0.930 . S
H426 C434 0.930 . S
H427 C441 0.931 . S
H428 C405 0.929 . S
H429 C435 0.930 . S
H430 C468 0.930 . S
H431 C412 0.930 . S
H432 C467 0.929 . S
N433 Tb402 2.660 . S
N433 C434 1.305 . S
N433 C438 1.360 . S
C434 H426 0.930 . S
C434 N433 1.305 . S
C434 C437 1.407 . S
C435 H429 0.930 . S
C435 C436 1.410 . S
C435 C437 1.345 . S
C436 C435 1.410 . S
C436 C438 1.417 . S
C436 C468 1.432 . S
C437 H423 0.930 . S
C437 C434 1.407 . S
C437 C435 1.345 . S
C438 N433 1.360 . S
C438 C436 1.417 . S
C438 C442 1.432 . S
H439 C444 0.930 . S
N440 Tb402 2.600 . S
N440 C442 1.359 . S
N440 C443 1.327 . S
C441 H427 0.931 . S
C441 C443 1.392 . S
C441 C444 1.370 . S
C442 C438 1.432 . S
C442 N440 1.359 . S
C442 C445 1.414 . S
C443 H425 0.930 . S
C443 N440 1.327 . S
C443 C441 1.392 . S
C444 H439 0.930 . S
C444 C441 1.370 . S
C444 C445 1.385 . S
C445 C442 1.414 . S
C445 C444 1.385 . S
C445 C467 1.444 . S
O446 Tb402 2.546 . S
O446 C466 1.251 . S
O447 Tb402 2.610 . S
O447 Tb413 2.362 1_554 S
O447 C458 1.283 . S
O448 Tb413 2.421 . S
O448 C465 1.262 1_556 S
O449 Tb402 2.320 . S
O449 C465 1.260 . S
O450 Tb402 2.552 . S
O450 C458 1.243 . S
O451 Tb402 2.413 . S
O451 C466 1.256 . S
O452 Tb413 2.546 . S
O452 C477 1.251 . S
O453 Tb402 2.378 . S
O453 Tb413 2.599 1_554 S
O453 C469 1.270 1_554 S
O454 Tb402 2.421 . S
O454 C476 1.262 1_554 S
O455 Tb413 2.320 . S
O455 C476 1.260 . S
O456 Tb413 2.552 . S
O456 C469 1.243 . S
O457 Tb413 2.413 . S
O457 C477 1.256 . S
C458 O447 1.283 . S
C458 O450 1.243 . S
C459 C461 1.382 . S
C459 C463 1.393 . S
C459 C466 1.500 . S
C460 C461 1.400 . S
C460 C462 1.384 . S
C461 C459 1.382 . S
C461 C460 1.400 . S
C461 H478 0.930 . S
C462 C460 1.384 . S
C462 C464 1.392 . S
C462 H479 0.931 . S
C463 C459 1.393 . S
C463 C464 1.401 . S
C463 H480 0.930 . S
C464 C462 1.392 . S
C464 C463 1.401 . S
C464 H481 0.930 . S
C465 O448 1.262 1_554 S
C465 O449 1.260 . S
C466 Tb402 2.833 . S
C466 O446 1.251 . S
C466 O451 1.256 . S
C466 C459 1.500 . S
C467 H432 0.929 . S
C467 C445 1.444 . S
C467 C468 1.317 . S
C468 H430 0.930 . S
C468 C436 1.432 . S
C468 C467 1.317 . S
C469 O453 1.270 1_556 S
C469 O456 1.243 . S
C470 C471 1.382 . S
C470 C474 1.393 . S
C470 C477 1.500 . S
C471 C470 1.382 . S
C471 C472 1.400 . S
C471 H482 0.930 . S
C472 C471 1.400 . S
C472 C473 1.384 . S
C473 C472 1.384 . S
C473 C475 1.392 . S
C473 H483 0.931 . S
C474 C470 1.393 . S
C474 C475 1.401 . S
C474 H484 0.930 . S
C475 C473 1.392 . S
C475 C474 1.401 . S
C475 H485 0.930 . S
C476 O454 1.262 1_556 S
C476 O455 1.260 . S
C477 Tb413 2.833 . S
C477 O452 1.251 . S
C477 O457 1.256 . S
C477 C470 1.500 . S
H478 C461 0.930 . S
H479 C462 0.931 . S
H480 C463 0.930 . S
H481 C464 0.930 . S
H482 C471 0.930 . S
H483 C473 0.931 . S
H484 C474 0.930 . S
H485 C475 0.930 . S
Tb486 N517 2.660 1_455 S
Tb486 N524 2.600 . S
Tb486 O530 2.546 . S
Tb486 O531 2.610 . S
Tb486 O533 2.320 . S
Tb486 O534 2.552 . S
Tb486 O535 2.413 . S
Tb486 O537 2.362 . S
Tb486 O538 2.421 . S
Tb486 C550 2.833 . S
C487 C490 1.432 . S
C487 C491 1.414 . S
C487 N494 1.359 . S
C488 C490 1.417 . S
C488 C492 1.432 . S
C488 C500 1.410 . S
C489 C491 1.444 . S
C489 C492 1.317 . S
C489 H512 0.929 . S
C490 C487 1.432 . S
C490 C488 1.417 . S
C490 N498 1.360 . S
C491 C487 1.414 . S
C491 C489 1.444 . S
C491 C496 1.385 . S
C492 C488 1.432 . S
C492 C489 1.317 . S
C492 H504 0.930 . S
C493 C495 1.392 . S
C493 C496 1.370 . S
C493 H505 0.931 . S
N494 C487 1.359 . S
N494 C495 1.327 . S
N494 Tb497 2.600 . S
C495 C493 1.392 . S
C495 N494 1.327 . S
C495 H502 0.930 . S
C496 C491 1.385 . S
C496 C493 1.370 . S
C496 H515 0.930 . S
Tb497 N494 2.600 . S
Tb497 N498 2.660 . S
Tb497 O531 2.362 . S
Tb497 O532 2.421 . S
Tb497 O536 2.546 . S
Tb497 O537 2.610 . S
Tb497 O539 2.320 . S
Tb497 O540 2.552 . S
Tb497 O541 2.413 . S
Tb497 C561 2.833 . S
N498 C490 1.360 . S
N498 Tb497 2.660 . S
N498 C499 1.305 . S
C499 N498 1.305 . S
C499 C501 1.407 . S
C499 H506 0.930 . S
C500 C488 1.410 . S
C500 C501 1.345 . S
C500 H508 0.930 . S
C501 C499 1.407 . S
C501 C500 1.345 . S
C501 H503 0.930 . S
H502 C495 0.930 . S
H503 C501 0.930 . S
H504 C492 0.930 . S
H505 C493 0.931 . S
H506 C499 0.930 . S
H507 C521 0.930 . S
H508 C500 0.930 . S
H509 C527 0.930 . S
H510 C518 0.930 . S
H511 C525 0.931 . S
H512 C489 0.929 . S
H513 C519 0.930 . S
H514 C552 0.930 . S
H515 C496 0.930 . S
H516 C551 0.929 . S
N517 Tb486 2.660 1_655 S
N517 C518 1.305 . S
N517 C522 1.360 . S
C518 H510 0.930 . S
C518 N517 1.305 . S
C518 C521 1.407 . S
C519 H513 0.930 . S
C519 C520 1.410 . S
C519 C521 1.345 . S
C520 C519 1.410 . S
C520 C522 1.417 . S
C520 C552 1.432 . S
C521 H507 0.930 . S
C521 C518 1.407 . S
C521 C519 1.345 . S
C522 N517 1.360 . S
C522 C520 1.417 . S
C522 C526 1.432 . S
H523 C528 0.930 . S
N524 Tb486 2.600 . S
N524 C526 1.359 1_455 S
N524 C527 1.327 . S
C525 H511 0.931 . S
C525 C527 1.392 . S
C525 C528 1.370 1_455 S
C526 C522 1.432 . S
C526 N524 1.359 1_655 S
C526 C529 1.414 . S
C527 H509 0.930 . S
C527 N524 1.327 . S
C527 C525 1.392 . S
C528 H523 0.930 . S
C528 C525 1.370 1_655 S
C528 C529 1.385 . S
C529 C526 1.414 . S
C529 C528 1.385 . S
C529 C551 1.444 . S
O530 Tb486 2.546 . S
O530 C550 1.251 . S
O531 Tb486 2.610 . S
O531 Tb497 2.362 . S
O531 C542 1.283 . S
O532 Tb497 2.421 . S
O532 C549 1.262 . S
O533 Tb486 2.320 . S
O533 C549 1.260 . S
O534 Tb486 2.552 . S
O534 C542 1.243 . S
O535 Tb486 2.413 . S
O535 C550 1.256 . S
O536 Tb497 2.546 . S
O536 C561 1.251 . S
O537 Tb486 2.362 . S
O537 Tb497 2.610 . S
O537 C553 1.283 . S
O538 Tb486 2.421 . S
O538 C560 1.262 . S
O539 Tb497 2.320 . S
O539 C560 1.260 . S
O540 Tb497 2.552 . S
O540 C553 1.243 . S
O541 Tb497 2.413 . S
O541 C561 1.256 . S
C542 O531 1.283 . S
C542 O534 1.243 . S
C543 C545 1.382 . S
C543 C547 1.393 . S
C543 C550 1.500 . S
C544 C545 1.400 . S
C544 C546 1.384 . S
C545 C543 1.382 . S
C545 C544 1.400 . S
C545 H562 0.930 . S
C546 C544 1.384 . S
C546 C548 1.392 . S
C546 H563 0.931 . S
C547 C543 1.393 . S
C547 C548 1.401 . S
C547 H564 0.930 . S
C548 C546 1.392 . S
C548 C547 1.401 . S
C548 H565 0.930 . S
C549 O532 1.262 . S
C549 O533 1.260 . S
C550 Tb486 2.833 . S
C550 O530 1.251 . S
C550 O535 1.256 . S
C550 C543 1.500 . S
C551 H516 0.929 . S
C551 C529 1.444 . S
C551 C552 1.317 . S
C552 H514 0.930 . S
C552 C520 1.432 . S
C552 C551 1.317 . S
C553 O537 1.283 . S
C553 O540 1.243 . S
C554 C555 1.382 . S
C554 C558 1.393 . S
C554 C561 1.500 . S
C555 C554 1.382 . S
C555 C556 1.400 . S
C555 H566 0.930 . S
C556 C555 1.400 . S
C556 C557 1.384 . S
C557 C556 1.384 . S
C557 C559 1.392 . S
C557 H567 0.931 . S
C558 C554 1.393 . S
C558 C559 1.401 . S
C558 H568 0.930 . S
C559 C557 1.392 . S
C559 C558 1.401 . S
C559 H569 0.930 . S
C560 O538 1.262 . S
C560 O539 1.260 . S
C561 Tb497 2.833 . S
C561 O536 1.251 . S
C561 O541 1.256 . S
C561 C554 1.500 . S
H562 C545 0.930 . S
H563 C546 0.931 . S
H564 C547 0.930 . S
H565 C548 0.930 . S
H566 C555 0.930 . S
H567 C557 0.931 . S
H568 C558 0.930 . S
H569 C559 0.930 . S
Tb570 N601 2.660 . S
Tb570 N608 2.600 . S
Tb570 O614 2.546 . S
Tb570 O615 2.610 . S
Tb570 O617 2.320 . S
Tb570 O618 2.552 . S
Tb570 O619 2.413 . S
Tb570 O621 2.362 . S
Tb570 O622 2.421 . S
Tb570 C634 2.833 . S
C571 C574 1.432 . S
C571 C575 1.414 . S
C571 N578 1.359 . S
C572 C574 1.417 . S
C572 C576 1.432 . S
C572 C584 1.410 . S
C573 C575 1.444 . S
C573 C576 1.317 . S
C573 H596 0.929 . S
C574 C571 1.432 . S
C574 C572 1.417 . S
C574 N582 1.360 . S
C575 C571 1.414 . S
C575 C573 1.444 . S
C575 C580 1.385 . S
C576 C572 1.432 . S
C576 C573 1.317 . S
C576 H588 0.930 . S
C577 C579 1.392 . S
C577 C580 1.370 . S
C577 H589 0.931 . S
N578 C571 1.359 . S
N578 C579 1.327 . S
N578 Tb581 2.600 . S
C579 C577 1.392 . S
C579 N578 1.327 . S
C579 H586 0.930 . S
C580 C575 1.385 . S
C580 C577 1.370 . S
C580 H599 0.930 . S
Tb581 N578 2.600 . S
Tb581 N582 2.660 . S
Tb581 O615 2.362 . S
Tb581 O616 2.421 . S
Tb581 O620 2.546 . S
Tb581 O621 2.610 . S
Tb581 O623 2.320 . S
Tb581 O624 2.552 . S
Tb581 O625 2.413 . S
Tb581 C645 2.833 . S
N582 C574 1.360 . S
N582 Tb581 2.660 . S
N582 C583 1.305 . S
C583 N582 1.305 . S
C583 C585 1.407 . S
C583 H590 0.930 . S
C584 C572 1.410 . S
C584 C585 1.345 . S
C584 H592 0.930 . S
C585 C583 1.407 . S
C585 C584 1.345 . S
C585 H587 0.930 . S
H586 C579 0.930 . S
H587 C585 0.930 . S
H588 C576 0.930 . S
H589 C577 0.931 . S
H590 C583 0.930 . S
H591 C605 0.930 . S
H592 C584 0.930 . S
H593 C611 0.930 . S
H594 C602 0.930 . S
H595 C609 0.931 1_545 S
H596 C573 0.929 . S
H597 C603 0.930 . S
H598 C636 0.930 . S
H599 C580 0.930 . S
H600 C635 0.929 . S
N601 Tb570 2.660 . S
N601 C602 1.305 . S
N601 C606 1.360 . S
C602 H594 0.930 . S
C602 N601 1.305 . S
C602 C605 1.407 . S
C603 H597 0.930 . S
C603 C604 1.410 . S
C603 C605 1.345 . S
C604 C603 1.410 . S
C604 C606 1.417 . S
C604 C636 1.432 . S
C605 H591 0.930 . S
C605 C602 1.407 . S
C605 C603 1.345 . S
C606 N601 1.360 . S
C606 C604 1.417 . S
C606 C610 1.432 . S
H607 C612 0.930 . S
N608 Tb570 2.600 . S
N608 C610 1.359 . S
N608 C611 1.327 . S
C609 H595 0.931 1_565 S
C609 C611 1.392 . S
C609 C612 1.370 . S
C610 C606 1.432 . S
C610 N608 1.359 . S
C610 C613 1.414 . S
C611 H593 0.930 . S
C611 N608 1.327 . S
C611 C609 1.392 . S
C612 H607 0.930 . S
C612 C609 1.370 . S
C612 C613 1.385 . S
C613 C610 1.414 . S
C613 C612 1.385 . S
C613 C635 1.444 . S
O614 Tb570 2.546 . S
O614 C634 1.251 . S
O615 Tb570 2.610 . S
O615 Tb581 2.362 . S
O615 C626 1.283 . S
O616 Tb581 2.421 . S
O616 C633 1.262 . S
O617 Tb570 2.320 . S
O617 C633 1.260 . S
O618 Tb570 2.552 . S
O618 C626 1.243 . S
O619 Tb570 2.413 . S
O619 C634 1.256 . S
O620 Tb581 2.546 . S
O620 C645 1.251 . S
O621 Tb570 2.362 . S
O621 Tb581 2.610 . S
O621 C637 1.283 . S
O622 Tb570 2.421 . S
O622 C644 1.262 . S
O623 Tb581 2.320 . S
O623 C644 1.260 . S
O624 Tb581 2.552 . S
O624 C637 1.243 . S
O625 Tb581 2.413 . S
O625 C645 1.256 . S
C626 O615 1.283 . S
C626 O618 1.243 . S
C627 C629 1.382 . S
C627 C631 1.393 . S
C627 C634 1.500 . S
C628 C629 1.400 . S
C628 C630 1.384 . S
C629 C627 1.382 . S
C629 C628 1.400 . S
C629 H646 0.930 . S
C630 C628 1.384 . S
C630 C632 1.392 . S
C630 H647 0.931 . S
C631 C627 1.393 . S
C631 C632 1.401 . S
C631 H648 0.930 . S
C632 C630 1.392 . S
C632 C631 1.401 . S
C632 H649 0.930 . S
C633 O616 1.262 . S
C633 O617 1.260 . S
C634 Tb570 2.833 . S
C634 O614 1.251 . S
C634 O619 1.256 . S
C634 C627 1.500 . S
C635 H600 0.929 . S
C635 C613 1.444 . S
C635 C636 1.317 . S
C636 H598 0.930 . S
C636 C604 1.432 . S
C636 C635 1.317 . S
C637 O621 1.283 . S
C637 O624 1.243 . S
C638 C639 1.382 . S
C638 C642 1.393 . S
C638 C645 1.500 . S
C639 C638 1.382 . S
C639 C640 1.400 . S
C639 H650 0.930 . S
C640 C639 1.400 . S
C640 C641 1.384 . S
C641 C640 1.384 . S
C641 C643 1.392 . S
C641 H651 0.931 . S
C642 C638 1.393 . S
C642 C643 1.401 . S
C642 H652 0.930 . S
C643 C641 1.392 . S
C643 C642 1.401 . S
C643 H653 0.930 . S
C644 O622 1.262 . S
C644 O623 1.260 . S
C645 Tb581 2.833 . S
C645 O620 1.251 . S
C645 O625 1.256 . S
C645 C638 1.500 . S
H646 C629 0.930 . S
H647 C630 0.931 . S
H648 C631 0.930 . S
H649 C632 0.930 . S
H650 C639 0.930 . S
H651 C641 0.931 . S
H652 C642 0.930 . S
H653 C643 0.930 . S
Tb654 N685 2.660 . S
Tb654 N692 2.600 . S
Tb654 O698 2.546 . S
Tb654 O699 2.610 . S
Tb654 O701 2.320 . S
Tb654 O702 2.552 . S
Tb654 O703 2.413 . S
Tb654 O705 2.362 . S
Tb654 O706 2.421 . S
Tb654 C718 2.833 . S
C655 C658 1.432 . S
C655 C659 1.414 . S
C655 N662 1.359 . S
C656 C658 1.417 1_655 S
C656 C660 1.432 . S
C656 C668 1.410 . S
C657 C659 1.444 1_655 S
C657 C660 1.317 . S
C657 H680 0.929 . S
C658 C655 1.432 . S
C658 C656 1.417 1_455 S
C658 N666 1.360 . S
C659 C655 1.414 . S
C659 C657 1.444 1_455 S
C659 C664 1.385 1_565 S
C660 C656 1.432 . S
C660 C657 1.317 . S
C660 H672 0.930 . S
C661 C663 1.392 . S
C661 C664 1.370 . S
C661 H673 0.931 . S
N662 C655 1.359 . S
N662 C663 1.327 1_565 S
N662 Tb665 2.600 . S
C663 C661 1.392 . S
C663 N662 1.327 1_545 S
C663 H670 0.930 . S
C664 C659 1.385 1_545 S
C664 C661 1.370 . S
C664 H683 0.930 . S
Tb665 N662 2.600 . S
Tb665 N666 2.660 . S
Tb665 O699 2.362 . S
Tb665 O700 2.421 . S
Tb665 O704 2.546 . S
Tb665 O705 2.610 . S
Tb665 O707 2.320 . S
Tb665 O708 2.552 . S
Tb665 O709 2.413 . S
Tb665 C729 2.833 . S
N666 C658 1.360 . S
N666 Tb665 2.660 . S
N666 C667 1.305 . S
C667 N666 1.305 . S
C667 C669 1.407 1_455 S
C667 H674 0.930 . S
C668 C656 1.410 . S
C668 C669 1.345 . S
C668 H676 0.930 . S
C669 C667 1.407 1_655 S
C669 C668 1.345 . S
C669 H671 0.930 . S
H670 C663 0.930 . S
H671 C669 0.930 . S
H672 C660 0.930 . S
H673 C661 0.931 . S
H674 C667 0.930 . S
H675 C689 0.930 . S
H676 C668 0.930 . S
H677 C695 0.930 . S
H678 C686 0.930 1_545 S
H679 C693 0.931 . S
H680 C657 0.929 . S
H681 C687 0.930 . S
H682 C720 0.930 . S
H683 C664 0.930 . S
H684 C719 0.929 . S
N685 Tb654 2.660 . S
N685 C686 1.305 . S
N685 C690 1.360 . S
C686 H678 0.930 1_565 S
C686 N685 1.305 . S
C686 C689 1.407 1_565 S
C687 H681 0.930 . S
C687 C688 1.410 1_545 S
C687 C689 1.345 . S
C688 C687 1.410 1_565 S
C688 C690 1.417 . S
C688 C720 1.432 . S
C689 H675 0.930 . S
C689 C686 1.407 1_545 S
C689 C687 1.345 . S
C690 N685 1.360 . S
C690 C688 1.417 . S
C690 C694 1.432 . S
H691 C696 0.930 . S
N692 Tb654 2.600 . S
N692 C694 1.359 . S
N692 C695 1.327 . S
C693 H679 0.931 . S
C693 C695 1.392 . S
C693 C696 1.370 . S
C694 C690 1.432 . S
C694 N692 1.359 . S
C694 C697 1.414 . S
C695 H677 0.930 . S
C695 N692 1.327 . S
C695 C693 1.392 . S
C696 H691 0.930 . S
C696 C693 1.370 . S
C696 C697 1.385 . S
C697 C694 1.414 . S
C697 C696 1.385 . S
C697 C719 1.444 . S
O698 Tb654 2.546 . S
O698 C718 1.251 . S
O699 Tb654 2.610 . S
O699 Tb665 2.362 . S
O699 C710 1.283 . S
O700 Tb665 2.421 . S
O700 C717 1.262 1_565 S
O701 Tb654 2.320 . S
O701 C717 1.260 1_565 S
O702 Tb654 2.552 . S
O702 C710 1.243 . S
O703 Tb654 2.413 . S
O703 C718 1.256 . S
O704 Tb665 2.546 . S
O704 C729 1.251 . S
O705 Tb654 2.362 . S
O705 Tb665 2.610 . S
O705 C721 1.283 . S
O706 Tb654 2.421 . S
O706 C728 1.262 . S
O707 Tb665 2.320 . S
O707 C728 1.260 . S
O708 Tb665 2.552 . S
O708 C721 1.243 . S
O709 Tb665 2.413 . S
O709 C729 1.256 . S
C710 O699 1.283 . S
C710 O702 1.243 . S
C711 C713 1.382 . S
C711 C715 1.393 . S
C711 C718 1.500 . S
C712 C713 1.400 . S
C712 C714 1.384 . S
C713 C711 1.382 . S
C713 C712 1.400 . S
C713 H730 0.930 . S
C714 C712 1.384 . S
C714 C716 1.392 . S
C714 H731 0.931 . S
C715 C711 1.393 . S
C715 C716 1.401 . S
C715 H732 0.930 . S
C716 C714 1.392 . S
C716 C715 1.401 . S
C716 H733 0.930 . S
C717 O700 1.262 1_545 S
C717 O701 1.260 1_545 S
C718 Tb654 2.833 . S
C718 O698 1.251 . S
C718 O703 1.256 . S
C718 C711 1.500 . S
C719 H684 0.929 . S
C719 C697 1.444 . S
C719 C720 1.317 . S
C720 H682 0.930 . S
C720 C688 1.432 . S
C720 C719 1.317 . S
C721 O705 1.283 . S
C721 O708 1.243 . S
C722 C723 1.382 . S
C722 C726 1.393 . S
C722 C729 1.500 . S
C723 C722 1.382 . S
C723 C724 1.400 . S
C723 H734 0.930 . S
C724 C723 1.400 . S
C724 C725 1.384 . S
C725 C724 1.384 . S
C725 C727 1.392 . S
C725 H735 0.931 . S
C726 C722 1.393 . S
C726 C727 1.401 . S
C726 H736 0.930 . S
C727 C725 1.392 . S
C727 C726 1.401 . S
C727 H737 0.930 . S
C728 O706 1.262 . S
C728 O707 1.260 . S
C729 Tb665 2.833 . S
C729 O704 1.251 . S
C729 O709 1.256 . S
C729 C722 1.500 . S
H730 C713 0.930 . S
H731 C714 0.931 . S
H732 C715 0.930 . S
H733 C716 0.930 . S
H734 C723 0.930 . S
H735 C725 0.931 . S
H736 C726 0.930 . S
H737 C727 0.930 . S
Tb738 N769 2.660 . S
Tb738 N776 2.600 . S
Tb738 O782 2.546 . S
Tb738 O783 2.610 . S
Tb738 O785 2.320 . S
Tb738 O786 2.552 . S
Tb738 O787 2.413 . S
Tb738 O789 2.362 . S
Tb738 O790 2.421 . S
Tb738 C802 2.833 . S
C739 C742 1.432 . S
C739 C743 1.414 . S
C739 N746 1.359 . S
C740 C742 1.417 1_455 S
C740 C744 1.432 . S
C740 C752 1.410 . S
C741 C743 1.444 1_455 S
C741 C744 1.317 . S
C741 H764 0.929 . S
C742 C739 1.432 . S
C742 C740 1.417 1_655 S
C742 N750 1.360 . S
C743 C739 1.414 . S
C743 C741 1.444 1_655 S
C743 C748 1.385 . S
C744 C740 1.432 . S
C744 C741 1.317 . S
C744 H756 0.930 . S
C745 C747 1.392 . S
C745 C748 1.370 . S
C745 H757 0.931 . S
N746 C739 1.359 . S
N746 C747 1.327 . S
N746 Tb749 2.600 . S
C747 C745 1.392 . S
C747 N746 1.327 . S
C747 H754 0.930 . S
C748 C743 1.385 . S
C748 C745 1.370 . S
C748 H767 0.930 . S
Tb749 N746 2.600 . S
Tb749 N750 2.660 . S
Tb749 O783 2.362 . S
Tb749 O784 2.421 . S
Tb749 O788 2.546 . S
Tb749 O789 2.610 . S
Tb749 O791 2.320 . S
Tb749 O792 2.552 . S
Tb749 O793 2.413 . S
Tb749 C813 2.833 . S
N750 C742 1.360 . S
N750 Tb749 2.660 . S
N750 C751 1.305 . S
C751 N750 1.305 . S
C751 C753 1.407 1_655 S
C751 H758 0.930 . S
C752 C740 1.410 . S
C752 C753 1.345 . S
C752 H760 0.930 . S
C753 C751 1.407 1_455 S
C753 C752 1.345 . S
C753 H755 0.930 . S
H754 C747 0.930 . S
H755 C753 0.930 . S
H756 C744 0.930 . S
H757 C745 0.931 . S
H758 C751 0.930 . S
H759 C773 0.930 . S
H760 C752 0.930 . S
H761 C779 0.930 . S
H762 C770 0.930 . S
H763 C777 0.931 . S
H764 C741 0.929 . S
H765 C771 0.930 . S
H766 C804 0.930 . S
H767 C748 0.930 . S
H768 C803 0.929 . S
N769 Tb738 2.660 . S
N769 C770 1.305 . S
N769 C774 1.360 . S
C770 H762 0.930 . S
C770 N769 1.305 . S
C770 C773 1.407 . S
C771 H765 0.930 . S
C771 C772 1.410 . S
C771 C773 1.345 . S
C772 C771 1.410 . S
C772 C774 1.417 . S
C772 C804 1.432 . S
C773 H759 0.930 . S
C773 C770 1.407 . S
C773 C771 1.345 . S
C774 N769 1.360 . S
C774 C772 1.417 . S
C774 C778 1.432 . S
H775 C780 0.930 . S
N776 Tb738 2.600 . S
N776 C778 1.359 . S
N776 C779 1.327 . S
C777 H763 0.931 . S
C777 C779 1.392 . S
C777 C780 1.370 . S
C778 C774 1.432 . S
C778 N776 1.359 . S
C778 C781 1.414 . S
C779 H761 0.930 . S
C779 N776 1.327 . S
C779 C777 1.392 . S
C780 H775 0.930 . S
C780 C777 1.370 . S
C780 C781 1.385 . S
C781 C778 1.414 . S
C781 C780 1.385 . S
C781 C803 1.444 . S
O782 Tb738 2.546 . S
O782 C802 1.251 . S
O783 Tb738 2.610 . S
O783 Tb749 2.362 . S
O783 C794 1.283 . S
O784 Tb749 2.421 . S
O784 C801 1.262 . S
O785 Tb738 2.320 . S
O785 C801 1.260 . S
O786 Tb738 2.552 . S
O786 C794 1.243 . S
O787 Tb738 2.413 . S
O787 C802 1.256 . S
O788 Tb749 2.546 . S
O788 C813 1.251 . S
O789 Tb738 2.362 . S
O789 Tb749 2.610 . S
O789 C805 1.283 . S
O790 Tb738 2.421 . S
O790 C812 1.262 . S
O791 Tb749 2.320 . S
O791 C812 1.260 . S
O792 Tb749 2.552 . S
O792 C805 1.243 . S
O793 Tb749 2.413 . S
O793 C813 1.256 . S
C794 O783 1.283 . S
C794 O786 1.243 . S
C795 C797 1.382 . S
C795 C799 1.393 . S
C795 C802 1.500 . S
C796 C797 1.400 . S
C796 C798 1.384 . S
C797 C795 1.382 . S
C797 C796 1.400 . S
C797 H814 0.930 . S
C798 C796 1.384 . S
C798 C800 1.392 . S
C798 H815 0.931 . S
C799 C795 1.393 . S
C799 C800 1.401 . S
C799 H816 0.930 . S
C800 C798 1.392 . S
C800 C799 1.401 . S
C800 H817 0.930 . S
C801 O784 1.262 . S
C801 O785 1.260 . S
C802 Tb738 2.833 . S
C802 O782 1.251 . S
C802 O787 1.256 . S
C802 C795 1.500 . S
C803 H768 0.929 . S
C803 C781 1.444 . S
C803 C804 1.317 . S
C804 H766 0.930 . S
C804 C772 1.432 . S
C804 C803 1.317 . S
C805 O789 1.283 . S
C805 O792 1.243 . S
C806 C807 1.382 . S
C806 C810 1.393 . S
C806 C813 1.500 . S
C807 C806 1.382 . S
C807 C808 1.400 . S
C807 H818 0.930 . S
C808 C807 1.400 . S
C808 C809 1.384 . S
C809 C808 1.384 . S
C809 C811 1.392 . S
C809 H819 0.931 . S
C810 C806 1.393 . S
C810 C811 1.401 . S
C810 H820 0.930 . S
C811 C809 1.392 . S
C811 C810 1.401 . S
C811 H821 0.930 . S
C812 O790 1.262 . S
C812 O791 1.260 . S
C813 Tb749 2.833 . S
C813 O788 1.251 . S
C813 O793 1.256 . S
C813 C806 1.500 . S
H814 C797 0.930 . S
H815 C798 0.931 . S
H816 C799 0.930 . S
H817 C800 0.930 . S
H818 C807 0.930 . S
H819 C809 0.931 . S
H820 C810 0.930 . S
H821 C811 0.930 . S
Tb822 N853 2.660 . S
Tb822 N860 2.600 . S
Tb822 O866 2.546 . S
Tb822 O867 2.610 . S
Tb822 O869 2.320 . S
Tb822 O870 2.552 . S
Tb822 O871 2.413 . S
Tb822 O873 2.362 . S
Tb822 O874 2.421 . S
Tb822 C886 2.833 . S
C823 C826 1.432 . S
C823 C827 1.414 . S
C823 N830 1.359 . S
C824 C826 1.417 . S
C824 C828 1.432 . S
C824 C836 1.410 . S
C825 C827 1.444 . S
C825 C828 1.317 . S
C825 H848 0.929 . S
C826 C823 1.432 . S
C826 C824 1.417 . S
C826 N834 1.360 . S
C827 C823 1.414 . S
C827 C825 1.444 . S
C827 C832 1.385 1_545 S
C828 C824 1.432 . S
C828 C825 1.317 . S
C828 H840 0.930 . S
C829 C831 1.392 . S
C829 C832 1.370 . S
C829 H841 0.931 . S
N830 C823 1.359 . S
N830 C831 1.327 1_545 S
N830 Tb833 2.600 . S
C831 C829 1.392 . S
C831 N830 1.327 1_565 S
C831 H838 0.930 . S
C832 C827 1.385 1_565 S
C832 C829 1.370 . S
C832 H851 0.930 . S
Tb833 N830 2.600 . S
Tb833 N834 2.660 . S
Tb833 O867 2.362 . S
Tb833 O868 2.421 . S
Tb833 O872 2.546 . S
Tb833 O873 2.610 . S
Tb833 O875 2.320 . S
Tb833 O876 2.552 . S
Tb833 O877 2.413 . S
Tb833 C897 2.833 . S
N834 C826 1.360 . S
N834 Tb833 2.660 . S
N834 C835 1.305 . S
C835 N834 1.305 . S
C835 C837 1.407 . S
C835 H842 0.930 . S
C836 C824 1.410 . S
C836 C837 1.345 . S
C836 H844 0.930 . S
C837 C835 1.407 . S
C837 C836 1.345 . S
C837 H839 0.930 . S
H838 C831 0.930 . S
H839 C837 0.930 . S
H840 C828 0.930 . S
H841 C829 0.931 . S
H842 C835 0.930 . S
H843 C857 0.930 . S
H844 C836 0.930 . S
H845 C863 0.930 . S
H846 C854 0.930 1_565 S
H847 C861 0.931 . S
H848 C825 0.929 . S
H849 C855 0.930 1_565 S
H850 C888 0.930 . S
H851 C832 0.930 . S
H852 C887 0.929 . S
N853 Tb822 2.660 . S
N853 C854 1.305 . S
N853 C858 1.360 . S
C854 H846 0.930 1_545 S
C854 N853 1.305 . S
C854 C857 1.407 1_545 S
C855 H849 0.930 1_545 S
C855 C856 1.410 . S
C855 C857 1.345 1_545 S
C856 C855 1.410 . S
C856 C858 1.417 . S
C856 C888 1.432 . S
C857 H843 0.930 . S
C857 C854 1.407 1_565 S
C857 C855 1.345 1_565 S
C858 N853 1.360 . S
C858 C856 1.417 . S
C858 C862 1.432 . S
H859 C864 0.930 . S
N860 Tb822 2.600 . S
N860 C862 1.359 . S
N860 C863 1.327 . S
C861 H847 0.931 . S
C861 C863 1.392 . S
C861 C864 1.370 . S
C862 C858 1.432 . S
C862 N860 1.359 . S
C862 C865 1.414 . S
C863 H845 0.930 . S
C863 N860 1.327 . S
C863 C861 1.392 . S
C864 H859 0.930 . S
C864 C861 1.370 . S
C864 C865 1.385 . S
C865 C862 1.414 . S
C865 C864 1.385 . S
C865 C887 1.444 . S
O866 Tb822 2.546 . S
O866 C886 1.251 . S
O867 Tb822 2.610 . S
O867 Tb833 2.362 . S
O867 C878 1.283 . S
O868 Tb833 2.421 . S
O868 C885 1.262 . S
O869 Tb822 2.320 . S
O869 C885 1.260 . S
O870 Tb822 2.552 . S
O870 C878 1.243 . S
O871 Tb822 2.413 . S
O871 C886 1.256 . S
O872 Tb833 2.546 . S
O872 C897 1.251 . S
O873 Tb822 2.362 . S
O873 Tb833 2.610 . S
O873 C889 1.283 . S
O874 Tb822 2.421 . S
O874 C896 1.262 . S
O875 Tb833 2.320 . S
O875 C896 1.260 . S
O876 Tb833 2.552 . S
O876 C889 1.243 . S
O877 Tb833 2.413 . S
O877 C897 1.256 . S
C878 O867 1.283 . S
C878 O870 1.243 . S
C879 C881 1.382 . S
C879 C883 1.393 . S
C879 C886 1.500 . S
C880 C881 1.400 . S
C880 C882 1.384 . S
C881 C879 1.382 . S
C881 C880 1.400 . S
C881 H898 0.930 . S
C882 C880 1.384 . S
C882 C884 1.392 . S
C882 H899 0.931 . S
C883 C879 1.393 . S
C883 C884 1.401 . S
C883 H900 0.930 . S
C884 C882 1.392 . S
C884 C883 1.401 . S
C884 H901 0.930 . S
C885 O868 1.262 . S
C885 O869 1.260 . S
C886 Tb822 2.833 . S
C886 O866 1.251 . S
C886 O871 1.256 . S
C886 C879 1.500 . S
C887 H852 0.929 . S
C887 C865 1.444 . S
C887 C888 1.317 . S
C888 H850 0.930 . S
C888 C856 1.432 . S
C888 C887 1.317 . S
C889 O873 1.283 . S
C889 O876 1.243 . S
C890 C891 1.382 . S
C890 C894 1.393 . S
C890 C897 1.500 . S
C891 C890 1.382 . S
C891 C892 1.400 . S
C891 H902 0.930 . S
C892 C891 1.400 . S
C892 C893 1.384 . S
C893 C892 1.384 . S
C893 C895 1.392 . S
C893 H903 0.931 . S
C894 C890 1.393 . S
C894 C895 1.401 . S
C894 H904 0.930 . S
C895 C893 1.392 . S
C895 C894 1.401 . S
C895 H905 0.930 . S
C896 O874 1.262 . S
C896 O875 1.260 . S
C897 Tb833 2.833 . S
C897 O872 1.251 . S
C897 O877 1.256 . S
C897 C890 1.500 . S
H898 C881 0.930 . S
H899 C882 0.931 . S
H900 C883 0.930 . S
H901 C884 0.930 . S
H902 C891 0.930 . S
H903 C893 0.931 . S
H904 C894 0.930 . S
H905 C895 0.930 . S
Tb906 N937 2.660 1_655 S
Tb906 N944 2.600 . S
Tb906 O950 2.546 . S
Tb906 O951 2.610 . S
Tb906 O953 2.320 . S
Tb906 O954 2.552 . S
Tb906 O955 2.413 . S
Tb906 O957 2.362 . S
Tb906 O958 2.421 . S
Tb906 C970 2.833 . S
C907 C910 1.432 . S
C907 C911 1.414 . S
C907 N914 1.359 . S
C908 C910 1.417 . S
C908 C912 1.432 . S
C908 C920 1.410 . S
C909 C911 1.444 . S
C909 C912 1.317 . S
C909 H932 0.929 . S
C910 C907 1.432 . S
C910 C908 1.417 . S
C910 N918 1.360 . S
C911 C907 1.414 . S
C911 C909 1.444 . S
C911 C916 1.385 . S
C912 C908 1.432 . S
C912 C909 1.317 . S
C912 H924 0.930 . S
C913 C915 1.392 . S
C913 C916 1.370 . S
C913 H925 0.931 . S
N914 C907 1.359 . S
N914 C915 1.327 . S
N914 Tb917 2.600 . S
C915 C913 1.392 . S
C915 N914 1.327 . S
C915 H922 0.930 . S
C916 C911 1.385 . S
C916 C913 1.370 . S
C916 H935 0.930 . S
Tb917 N914 2.600 . S
Tb917 N918 2.660 . S
Tb917 O951 2.362 . S
Tb917 O952 2.421 . S
Tb917 O956 2.546 . S
Tb917 O957 2.610 . S
Tb917 O959 2.320 . S
Tb917 O960 2.552 . S
Tb917 O961 2.413 . S
Tb917 C981 2.833 . S
N918 C910 1.360 . S
N918 Tb917 2.660 . S
N918 C919 1.305 . S
C919 N918 1.305 . S
C919 C921 1.407 . S
C919 H926 0.930 . S
C920 C908 1.410 . S
C920 C921 1.345 . S
C920 H928 0.930 . S
C921 C919 1.407 . S
C921 C920 1.345 . S
C921 H923 0.930 . S
H922 C915 0.930 . S
H923 C921 0.930 . S
H924 C912 0.930 . S
H925 C913 0.931 . S
H926 C919 0.930 . S
H927 C941 0.930 . S
H928 C920 0.930 . S
H929 C947 0.930 . S
H930 C938 0.930 . S
H931 C945 0.931 . S
H932 C909 0.929 . S
H933 C939 0.930 . S
H934 C972 0.930 . S
H935 C916 0.930 . S
H936 C971 0.929 . S
N937 Tb906 2.660 1_455 S
N937 C938 1.305 . S
N937 C942 1.360 . S
C938 H930 0.930 . S
C938 N937 1.305 . S
C938 C941 1.407 . S
C939 H933 0.930 . S
C939 C940 1.410 . S
C939 C941 1.345 . S
C940 C939 1.410 . S
C940 C942 1.417 . S
C940 C972 1.432 . S
C941 H927 0.930 . S
C941 C938 1.407 . S
C941 C939 1.345 . S
C942 N937 1.360 . S
C942 C940 1.417 . S
C942 C946 1.432 . S
H943 C948 0.930 . S
N944 Tb906 2.600 . S
N944 C946 1.359 1_655 S
N944 C947 1.327 . S
C945 H931 0.931 . S
C945 C947 1.392 . S
C945 C948 1.370 1_655 S
C946 C942 1.432 . S
C946 N944 1.359 1_455 S
C946 C949 1.414 . S
C947 H929 0.930 . S
C947 N944 1.327 . S
C947 C945 1.392 . S
C948 H943 0.930 . S
C948 C945 1.370 1_455 S
C948 C949 1.385 . S
C949 C946 1.414 . S
C949 C948 1.385 . S
C949 C971 1.444 . S
O950 Tb906 2.546 . S
O950 C970 1.251 . S
O951 Tb906 2.610 . S
O951 Tb917 2.362 . S
O951 C962 1.283 . S
O952 Tb917 2.421 . S
O952 C969 1.262 . S
O953 Tb906 2.320 . S
O953 C969 1.260 . S
O954 Tb906 2.552 . S
O954 C962 1.243 . S
O955 Tb906 2.413 . S
O955 C970 1.256 . S
O956 Tb917 2.546 . S
O956 C981 1.251 . S
O957 Tb906 2.362 . S
O957 Tb917 2.610 . S
O957 C973 1.283 . S
O958 Tb906 2.421 . S
O958 C980 1.262 . S
O959 Tb917 2.320 . S
O959 C980 1.260 . S
O960 Tb917 2.552 . S
O960 C973 1.243 . S
O961 Tb917 2.413 . S
O961 C981 1.256 . S
C962 O951 1.283 . S
C962 O954 1.243 . S
C963 C965 1.382 . S
C963 C967 1.393 . S
C963 C970 1.500 . S
C964 C965 1.400 . S
C964 C966 1.384 . S
C965 C963 1.382 . S
C965 C964 1.400 . S
C965 H982 0.930 . S
C966 C964 1.384 . S
C966 C968 1.392 . S
C966 H983 0.931 . S
C967 C963 1.393 . S
C967 C968 1.401 . S
C967 H984 0.930 . S
C968 C966 1.392 . S
C968 C967 1.401 . S
C968 H985 0.930 . S
C969 O952 1.262 . S
C969 O953 1.260 . S
C970 Tb906 2.833 . S
C970 O950 1.251 . S
C970 O955 1.256 . S
C970 C963 1.500 . S
C971 H936 0.929 . S
C971 C949 1.444 . S
C971 C972 1.317 . S
C972 H934 0.930 . S
C972 C940 1.432 . S
C972 C971 1.317 . S
C973 O957 1.283 . S
C973 O960 1.243 . S
C974 C975 1.382 . S
C974 C978 1.393 . S
C974 C981 1.500 . S
C975 C974 1.382 . S
C975 C976 1.400 . S
C975 H986 0.930 . S
C976 C975 1.400 . S
C976 C977 1.384 . S
C977 C976 1.384 . S
C977 C979 1.392 . S
C977 H987 0.931 . S
C978 C974 1.393 . S
C978 C979 1.401 . S
C978 H988 0.930 . S
C979 C977 1.392 . S
C979 C978 1.401 . S
C979 H989 0.930 . S
C980 O958 1.262 . S
C980 O959 1.260 . S
C981 Tb917 2.833 . S
C981 O956 1.251 . S
C981 O961 1.256 . S
C981 C974 1.500 . S
H982 C965 0.930 . S
H983 C966 0.931 . S
H984 C967 0.930 . S
H985 C968 0.930 . S
H986 C975 0.930 . S
H987 C977 0.931 . S
H988 C978 0.930 . S
H989 C979 0.930 . S
C177 C301 1.458 . S
C190 C385 1.541 . S
C164 C465 1.592 . S
C151 C381 1.630 . S
C469 C125 1.479 . S
C138 C297 1.554 . S
C290 C147 1.406 . S
C374 C121 1.419 . S
C134 C476 1.434 . S
C173 C392 1.389 . S
C186 C458 1.348 . S
C308 C160 1.381 . S
C553 C21 1.458 1_455 S
C34 C637 1.541 . S
C8 C717 1.591 . S
C229 C633 1.629 . S
C203 C721 1.479 . S
C216 C549 1.554 . S
C225 C542 1.406 . S
C199 C626 1.419 . S
C728 C212 1.434 . S
C17 C644 1.390 . S
C710 C30 1.348 . S
C4 C560 1.381 . S
C805 C99 1.458 . S
C112 C889 1.541 . S
C969 C86 1.592 . S
C885 C73 1.629 1_545 S
C973 C47 1.479 1_655 S
C60 C801 1.554 . S
C69 C794 1.407 . S
C43 C878 1.419 . S
C980 C56 1.434 . S
C95 C896 1.389 . S
C108 C962 1.348 . S
C82 C812 1.381 . S
C204 C304 1.709 . S
C388 C217 1.667 . S
C230 C460 1.439 . S
C87 C376 1.366 . S
C100 C472 1.612 . S
C292 C113 1.437 . S
C48 C556 1.709 . S
C61 C640 1.667 . S
C74 C712 1.438 . S
C165 C628 1.367 . S
C724 C178 1.612 . S
C191 C544 1.437 . S
C126 C808 1.710 . S
C139 C892 1.667 . S
C964 C152 1.439 . S
C9 C880 1.367 . S
C22 C976 1.612 . S
C35 C796 1.437 . S
