# Generated by pormake.
# Topology tsx, (6,3)-cn, num edge types: 1
# Building blocks:
#     Node 0, Type 0, BuildingBlock: JUFBIX_clean_sbu_0, # of connection points: 6
#     Node 1, Type 0, BuildingBlock: JUFBIX_clean_sbu_0, # of connection points: 6
#     Node 2, Type 1, BuildingBlock: ESEHIV_clean_linker_0, # of connection points: 3
#     Node 3, Type 1, BuildingBlock: ESEHIV_clean_linker_0, # of connection points: 3
#     Node 4, Type 1, BuildingBlock: ESEHIV_clean_linker_0, # of connection points: 3
#     Node 5, Type 1, BuildingBlock: ESEHIV_clean_linker_0, # of connection points: 3
#     Edge 6, Type (0, 1), BuildingBlock: FUNLAD_clean_linker_0, # of connection points: 2
#     Edge 7, Type (0, 1), BuildingBlock: FUNLAD_clean_linker_0, # of connection points: 2
#     Edge 8, Type (0, 1), BuildingBlock: FUNLAD_clean_linker_0, # of connection points: 2
#     Edge 9, Type (0, 1), BuildingBlock: FUNLAD_clean_linker_0, # of connection points: 2
#     Edge 10, Type (0, 1), BuildingBlock: FUNLAD_clean_linker_0, # of connection points: 2
#     Edge 11, Type (0, 1), BuildingBlock: FUNLAD_clean_linker_0, # of connection points: 2
#     Edge 12, Type (0, 1), BuildingBlock: FUNLAD_clean_linker_0, # of connection points: 2
#     Edge 13, Type (0, 1), BuildingBlock: FUNLAD_clean_linker_0, # of connection points: 2
#     Edge 14, Type (0, 1), BuildingBlock: FUNLAD_clean_linker_0, # of connection points: 2
#     Edge 15, Type (0, 1), BuildingBlock: FUNLAD_clean_linker_0, # of connection points: 2
#     Edge 16, Type (0, 1), BuildingBlock: FUNLAD_clean_linker_0, # of connection points: 2
#     Edge 17, Type (0, 1), BuildingBlock: FUNLAD_clean_linker_0, # of connection points: 2
# Relax obj value: 0.160
# Max RMSD: 0.167
# Mean RMSD: 0.135
data_MOF--net-tsx--node1-JUFBIX_clean_sbu_0--node2-ESEHIV_clean_linker_0--edge1-FUNLAD_clean_linker_0
_symmetry_space_group_name_H-M    P1
_symmetry_Int_Tables_number       1
_symmetry_cell_setting            triclinic
loop_
_symmetry_equiv_pos_as_xyz
'x, y, z'
_cell_length_a     21.724475
_cell_length_b     25.676266
_cell_length_c     39.554002
_cell_angle_alpha  92.54654
_cell_angle_beta   89.368408
_cell_angle_gamma 98.506438
loop_
_atom_site_label
_atom_site_type_symbol
_atom_site_fract_x
_atom_site_fract_y
_atom_site_fract_z
_atom_type_partial_charge
Co0 Co 0.05385 0.97947 0.00846 0.0
C1 C 0.99316 0.0088 0.95141 0.0
Co2 Co 0.9756 0.02423 0.01915 0.0
C3 C 0.13826 0.90061 0.00828 0.0
C4 C 0.16502 0.96182 0.97367 0.0
N5 N 0.12114 0.94517 0.99671 0.0
N6 N 0.19146 0.88922 0.99348 0.0
C7 C 0.20812 0.92774 0.97166 0.0
H8 H 0.11262 0.87743 0.02744 0.0
H9 H 0.16554 0.99659 0.95913 0.0
C10 C 0.03633 0.99596 0.0763 0.0
N11 N 0.90866 0.05856 0.0314 0.0
C12 C 0.89063 0.10232 0.01928 0.0
C13 C 0.86835 0.04481 0.05678 0.0
N14 N 0.84111 0.11658 0.03643 0.0
C15 C 0.82704 0.08039 0.06 0.0
C16 C 0.9423 0.91455 0.01412 0.0
O17 O 0.07002 0.97387 0.05528 0.0
O18 O 0.99366 0.01955 0.06538 0.0
O19 O 0.92264 0.95842 0.0196 0.0
O20 O 0.99991 0.91413 0.0083 0.0
O21 O 0.95857 0.02894 0.97286 0.0
H22 H 0.86936 0.01125 0.07226 0.0
H23 H 0.91427 0.12396 -0.00115 0.0
O24 O 0.0368 0.98556 0.96176 0.0
O25 O 0.10712 0.04559 0.00878 0.0
O26 O 0.02903 0.08952 0.01845 0.0
C27 C 0.08684 0.08939 0.01327 0.0
H28 H 0.2481 0.93065 0.95491 0.0
H29 H 0.78921 0.07947 0.07812 0.0
Co30 Co 0.54698 0.48876 0.51366 0.0
C31 C 0.50459 0.51651 0.45148 0.0
Co32 Co 0.46244 0.52737 0.51673 0.0
C33 C 0.63132 0.41081 0.51868 0.0
C34 C 0.6737 0.48159 0.49604 0.0
N35 N 0.61972 0.45863 0.50963 0.0
N36 N 0.69056 0.40354 0.51157 0.0
C37 C 0.71724 0.44807 0.49738 0.0
H38 H 0.59714 0.38197 0.53032 0.0
H39 H 0.68086 0.52006 0.48533 0.0
C40 C 0.50445 0.49996 0.57895 0.0
N41 N 0.39052 0.55777 0.52095 0.0
C42 C 0.37895 0.60327 0.5083 0.0
C43 C 0.33962 0.54063 0.53941 0.0
N44 N 0.32295 0.61555 0.51832 0.0
C45 C 0.29805 0.57597 0.53784 0.0
C46 C 0.43844 0.41808 0.50859 0.0
O47 O 0.54738 0.48291 0.56149 0.0
O48 O 0.46306 0.52058 0.56412 0.0
O49 O 0.41437 0.46021 0.51145 0.0
O50 O 0.4974 0.42089 0.50889 0.0
O51 O 0.46253 0.53394 0.46938 0.0
H52 H 0.33379 0.50534 0.55378 0.0
H53 H 0.41144 0.627 0.49224 0.0
O54 O 0.5459 0.49497 0.46583 0.0
O55 O 0.59515 0.5573 0.51864 0.0
O56 O 0.51078 0.5945 0.52192 0.0
C57 C 0.56967 0.59874 0.52179 0.0
H58 H 0.7644 0.45523 0.48769 0.0
H59 H 0.25384 0.5734 0.55098 0.0
H60 H 0.97055 0.07658 0.39241 0.0
H61 H 0.07141 0.94473 0.39445 0.0
H62 H 0.01803 0.0185 0.48764 0.0
C63 C 0.99169 0.04865 0.40653 0.0
C64 C 0.99057 0.05216 0.44206 0.0
C65 C 0.02046 0.00989 0.38911 0.0
C66 C 0.04912 0.97494 0.40761 0.0
C67 C 0.04778 0.97763 0.44306 0.0
C68 C 0.01787 0.01586 0.4603 0.0
H69 H 0.91337 0.97556 0.63778 0.0
H70 H 0.06828 0.10012 0.63308 0.0
H71 H 0.98232 0.0296 0.5414 0.0
C72 C 0.94471 0.00273 0.62309 0.0
C73 C 0.94148 0.99904 0.58762 0.0
C74 C 0.99032 0.03895 0.63974 0.0
C75 C 0.03332 0.0716 0.62042 0.0
C76 C 0.03123 0.06816 0.58489 0.0
C77 C 0.9845 0.03236 0.5687 0.0
H78 H 0.48501 0.56985 0.89856 0.0
H79 H 0.56254 0.42529 0.89402 0.0
H80 H 0.51265 0.49236 0.99027 0.0
C81 C 0.49991 0.53723 0.91117 0.0
C82 C 0.49525 0.53554 0.94656 0.0
C83 C 0.52403 0.49758 0.892 0.0
C84 C 0.54363 0.45596 0.90869 0.0
C85 C 0.5397 0.45358 0.94408 0.0
C86 C 0.51535 0.49362 0.963 0.0
H87 H 0.41848 0.45534 0.13588 0.0
H88 H 0.58175 0.57192 0.13357 0.0
H89 H 0.47968 0.52445 0.04196 0.0
C90 C 0.45116 0.48239 0.12183 0.0
C91 C 0.44328 0.48598 0.08684 0.0
C92 C 0.50078 0.5134 0.13887 0.0
C93 C 0.54328 0.54787 0.1205 0.0
C94 C 0.53643 0.5518 0.08546 0.0
C95 C 0.48588 0.52107 0.06882 0.0
C96 C 0.10804 0.18817 0.01518 0.0
C97 C 0.13035 0.13947 0.01286 0.0
C98 C 0.14943 0.23543 0.01598 0.0
C99 C 0.21421 0.23495 0.01491 0.0
C100 C 0.23618 0.18622 0.01138 0.0
C101 C 0.19484 0.13904 0.0104 0.0
C102 C 0.26061 0.28374 0.01856 0.0
C103 C 0.24749 0.32959 0.03272 0.0
C104 C 0.29638 0.37426 0.04279 0.0
C105 C 0.28447 0.40727 0.07057 0.0
C106 C 0.33149 0.4453 0.0839 0.0
C107 C 0.39133 0.45155 0.06946 0.0
H108 H 0.36538 0.35961 0.00461 0.0
C109 C 0.40218 0.42133 0.04011 0.0
C110 C 0.3551 0.38297 0.02684 0.0
H111 H 0.44783 0.42554 0.02837 0.0
H112 H 0.05853 0.18985 0.01654 0.0
H113 H 0.13016 0.27195 0.01747 0.0
H114 H 0.2857 0.18451 0.0102 0.0
H115 H 0.2136 0.10221 0.00829 0.0
H116 H 0.30867 0.2798 0.01265 0.0
H117 H 0.20048 0.33255 0.04125 0.0
H118 H 0.23944 0.40204 0.08304 0.0
H119 H 0.32156 0.4688 0.10617 0.0
C120 C 0.28847 0.84981 0.9931 0.0
C121 C 0.22396 0.84509 -0.00123 0.0
C122 C 0.31975 0.80629 0.99496 0.0
C123 C 0.28743 0.75659 0.00288 0.0
C124 C 0.22312 0.75217 0.00947 0.0
C125 C 0.19175 0.79599 0.00767 0.0
C126 C 0.31799 0.70804 0.00106 0.0
C127 C 0.38025 0.70902 0.00215 0.0
C128 C 0.41163 0.66301 0.99201 0.0
C129 C 0.46896 0.67261 0.97502 0.0
C130 C 0.49739 0.63093 0.96161 0.0
C131 C 0.46985 0.5786 0.96559 0.0
H132 H 0.3418 0.60176 0.01107 0.0
C133 C 0.41446 0.56857 0.98441 0.0
C134 C 0.38523 0.6105 0.99737 0.0
H135 H 0.39246 0.52842 0.98778 0.0
H136 H 0.31486 0.88716 0.98657 0.0
H137 H 0.36875 0.81179 0.98869 0.0
H138 H 0.19675 0.71441 0.01528 0.0
H139 H 0.14196 0.79091 0.01193 0.0
H140 H 0.28814 0.67064 0.99635 0.0
H141 H 0.41037 0.74613 0.00709 0.0
H142 H 0.49062 0.71261 0.97081 0.0
H143 H 0.54025 0.63958 0.94731 0.0
C144 C 0.83509 0.86606 0.02249 0.0
C145 C 0.89837 0.86479 0.01535 0.0
C146 C 0.79371 0.81941 0.02536 0.0
C147 C 0.81451 0.77016 0.02084 0.0
C148 C 0.87766 0.76892 0.01332 0.0
C149 C 0.91917 0.8157 0.01047 0.0
C150 C 0.77307 0.71985 0.02684 0.0
C151 C 0.7104 0.71468 0.02583 0.0
C152 C 0.66803 0.66798 0.03769 0.0
C153 C 0.60414 0.66359 0.03064 0.0
C154 C 0.56145 0.62438 0.04492 0.0
C155 C 0.58181 0.58897 0.0668 0.0
H156 H 0.73684 0.63315 0.06542 0.0
C157 C 0.64583 0.59191 0.07283 0.0
C158 C 0.68849 0.631 0.05858 0.0
H159 H 0.66282 0.56477 0.08941 0.0
H160 H 0.81756 0.90321 0.02662 0.0
H161 H 0.74608 0.82249 0.03234 0.0
H162 H 0.89516 0.73162 0.0101 0.0
H163 H 0.96768 0.81336 0.00501 0.0
H164 H 0.7956 0.68642 0.03277 0.0
H165 H 0.68848 0.74673 0.01677 0.0
H166 H 0.58694 0.69178 0.01497 0.0
H167 H 0.51229 0.62336 0.04017 0.0
C168 C 0.80244 0.17833 -0.00157 0.0
C169 C 0.80929 0.16093 0.03114 0.0
C170 C 0.768 0.21923 0.99323 0.0
C171 C 0.74018 0.24381 0.02075 0.0
C172 C 0.7492 0.22778 0.05353 0.0
C173 C 0.78281 0.18642 0.05865 0.0
C174 C 0.70224 0.28658 0.01598 0.0
C175 C 0.66581 0.28698 0.9887 0.0
C176 C 0.62775 0.32911 0.98206 0.0
C177 C 0.58083 0.31832 0.95756 0.0
C178 C 0.54917 0.35812 0.94698 0.0
C179 C 0.56395 0.40993 0.96049 0.0
H180 H 0.67633 0.39067 0.01579 0.0
C181 C 0.60812 0.42037 0.98652 0.0
C182 C 0.64003 0.38039 0.99715 0.0
H183 H 0.62074 0.46009 0.99716 0.0
H184 H 0.82238 0.15944 0.9768 0.0
H185 H 0.76349 0.23168 0.9677 0.0
H186 H 0.72903 0.24653 0.07517 0.0
H187 H 0.78824 0.17439 0.0842 0.0
H188 H 0.7018 0.31635 0.0363 0.0
H189 H 0.66268 0.25401 0.97028 0.0
H190 H 0.57 0.27924 0.94565 0.0
H191 H 0.51479 0.34884 0.92715 0.0
C192 C 0.67306 0.65647 0.52649 0.0
C193 C 0.60784 0.65133 0.52529 0.0
C194 C 0.7089 0.7062 0.53061 0.0
C195 C 0.68019 0.75197 0.5333 0.0
C196 C 0.61503 0.74669 0.53189 0.0
C197 C 0.57922 0.69701 0.52782 0.0
C198 C 0.71599 0.80529 0.5402 0.0
C199 C 0.77731 0.81774 0.53373 0.0
C200 C 0.81513 0.86863 0.54487 0.0
C201 C 0.87518 0.8816 0.53128 0.0
C202 C 0.91524 0.92555 0.54401 0.0
C203 C 0.89616 0.95736 0.57075 0.0
H204 H 0.75009 0.89315 0.58264 0.0
C205 C 0.83525 0.94583 0.58339 0.0
C206 C 0.79525 0.90186 0.57077 0.0
H207 H 0.81913 0.96991 0.60385 0.0
H208 H 0.69649 0.62201 0.5248 0.0
H209 H 0.75879 0.70818 0.53268 0.0
H210 H 0.59162 0.78113 0.53423 0.0
H211 H 0.52903 0.69445 0.52695 0.0
H212 H 0.69021 0.83513 0.551 0.0
H213 H 0.80162 0.78927 0.52006 0.0
H214 H 0.89198 0.85662 0.51151 0.0
H215 H 0.96221 0.93309 0.53413 0.0
C216 C 0.78307 0.36219 0.52303 0.0
C217 C 0.71935 0.35717 0.51566 0.0
C218 C 0.81346 0.3179 0.52273 0.0
C219 C 0.78097 0.26745 0.51429 0.0
C220 C 0.71635 0.2621 0.50912 0.0
C221 C 0.68575 0.30653 0.50982 0.0
C222 C 0.81343 0.22041 0.50884 0.0
C223 C 0.87362 0.22442 0.49907 0.0
C224 C 0.90477 0.17903 0.48722 0.0
C225 C 0.95529 0.18887 0.4648 0.0
C226 C 0.98373 0.14763 0.45086 0.0
C227 C 0.96314 0.09554 0.45947 0.0
H228 H 0.84779 0.11798 0.51483 0.0
C229 C 0.91461 0.08548 0.48315 0.0
C230 C 0.88538 0.12692 0.49687 0.0
H231 H 0.89833 0.04554 0.49034 0.0
H232 H 0.80969 0.40068 0.52849 0.0
H233 H 0.86259 0.3237 0.52856 0.0
H234 H 0.6899 0.22372 0.50302 0.0
H235 H 0.63655 0.30155 0.50411 0.0
H236 H 0.78526 0.1818 0.50916 0.0
H237 H 0.89998 0.26323 0.49589 0.0
H238 H 0.97176 0.22858 0.45721 0.0
H239 H 0.0216 0.1564 0.43297 0.0
C240 C 0.42141 0.31916 0.50942 0.0
C241 C 0.39734 0.36672 0.50711 0.0
C242 C 0.38118 0.27155 0.51194 0.0
C243 C 0.31627 0.27048 0.51196 0.0
C244 C 0.29248 0.31804 0.50836 0.0
C245 C 0.33252 0.36539 0.50582 0.0
C246 C 0.2752 0.2208 0.51994 0.0
C247 C 0.21311 0.21288 0.51491 0.0
C248 C 0.16924 0.17029 0.53039 0.0
C249 C 0.10665 0.16238 0.52016 0.0
C250 C 0.06196 0.12822 0.53724 0.0
C251 C 0.07892 0.10126 0.56496 0.0
H252 H 0.2335 0.1471 0.56693 0.0
C253 C 0.14177 0.10757 0.57444 0.0
C254 C 0.1864 0.1418 0.55752 0.0
H255 H 0.15633 0.08673 0.59547 0.0
H256 H 0.47117 0.3189 0.51051 0.0
H257 H 0.40088 0.23567 0.51498 0.0
H258 H 0.24309 0.31979 0.50922 0.0
H259 H 0.31236 0.40133 0.50407 0.0
H260 H 0.29709 0.19106 0.53185 0.0
H261 H 0.1924 0.24029 0.50009 0.0
H262 H 0.09182 0.18411 0.49963 0.0
H263 H 0.01378 0.12461 0.52968 0.0
C264 C 0.23184 0.6625 0.51372 0.0
C265 C 0.29642 0.66215 0.511 0.0
C266 C 0.2061 0.70763 0.50682 0.0
C267 C 0.24444 0.75361 0.49706 0.0
C268 C 0.30877 0.75316 0.49405 0.0
C269 C 0.33457 0.70816 0.50115 0.0
C270 C 0.2188 0.80153 0.48778 0.0
C271 C 0.16456 0.81449 0.49995 0.0
C272 C 0.13663 0.86011 0.48832 0.0
C273 C 0.07198 0.85931 0.49164 0.0
C274 C 0.04311 0.89892 0.47817 0.0
C275 C 0.07855 0.94023 0.46153 0.0
H276 H 0.2224 0.90681 0.47119 0.0
C277 C 0.14333 0.94266 0.45955 0.0
C278 C 0.1723 0.90329 0.4731 0.0
H279 H 0.17136 0.97452 0.44686 0.0
H280 H 0.20083 0.62757 0.52054 0.0
H281 H 0.15606 0.70569 0.50825 0.0
H282 H 0.33933 0.78791 0.48633 0.0
H283 H 0.3845 0.70981 0.49919 0.0
H284 H 0.24592 0.82638 0.46987 0.0
H285 H 0.13779 0.78943 0.51793 0.0
H286 H 0.04338 0.82686 0.50347 0.0
H287 H 0.99292 0.89606 0.47936 0.0
C288 C 0.01536 0.02765 0.13501 0.0
C289 C 0.04552 0.99481 0.11317 0.0
C290 C 0.02123 0.02609 0.16993 0.0
C291 C 0.05655 0.99086 0.18402 0.0
C292 C 0.08847 0.9592 0.16223 0.0
C293 C 0.08295 0.96105 0.12705 0.0
C294 C 0.0616 0.98743 0.22127 0.0
C295 C 0.01617 0.99891 0.24263 0.0
C296 C 0.01913 0.99924 0.28017 0.0
C297 C 0.96484 0.00541 0.29861 0.0
C298 C 0.96529 0.00868 0.33389 0.0
C299 C 0.02014 0.00578 0.35164 0.0
H300 H 0.11748 0.99257 0.28503 0.0
C301 C 0.07449 0.99914 0.33338 0.0
C302 C 0.07419 0.99617 0.29799 0.0
H303 H 0.11763 0.99741 0.34647 0.0
H304 H 0.98713 0.0549 0.12515 0.0
H305 H 0.99833 0.05301 0.18569 0.0
H306 H 0.11681 0.93233 0.17244 0.0
H307 H 0.10706 0.93552 0.11081 0.0
H308 H 0.10261 0.9736 0.23081 0.0
H309 H 0.97332 0.00815 0.23209 0.0
H310 H 0.92177 0.00806 0.28567 0.0
H311 H 0.92252 0.01317 0.34731 0.0
C312 C 0.02121 0.98972 0.89117 0.0
C313 C 0.98431 0.0137 0.91478 0.0
C314 C 0.01473 0.99583 0.85658 0.0
C315 C 0.97159 0.02664 0.84483 0.0
C316 C 0.93362 0.04948 0.86839 0.0
C317 C 0.94001 0.04327 0.90304 0.0
C318 C 0.9638 0.0344 0.80822 0.0
C319 C 0.00962 0.03124 0.7853 0.0
C320 C 1.00281 0.03668 0.74831 0.0
C321 C 0.05682 0.04284 0.72816 0.0
C322 C 0.05291 0.04479 0.69305 0.0
C323 C 0.99471 0.04055 0.67721 0.0
H324 H 0.90146 0.02717 0.74668 0.0
C325 C 0.94063 0.03531 0.69735 0.0
C326 C 0.94449 0.03309 0.73246 0.0
H327 H 0.8951 0.03235 0.68591 0.0
H328 H 0.05528 0.96616 0.89937 0.0
H329 H 0.04312 0.97574 0.83924 0.0
H330 H 0.89945 0.0728 0.86 0.0
H331 H 0.91068 0.0621 0.9206 0.0
H332 H 0.91971 0.04501 0.80051 0.0
H333 H 0.05522 0.02531 0.79396 0.0
H334 H 0.10234 0.0453 0.73957 0.0
H335 H 0.09546 0.04801 0.67827 0.0
C336 C 0.55161 0.48111 0.63399 0.0
C337 C 0.50215 0.4965 0.61617 0.0
C338 C 0.54935 0.47937 0.66932 0.0
C339 C 0.49739 0.49293 0.68743 0.0
C340 C 0.44754 0.50708 0.66947 0.0
C341 C 0.44999 0.50921 0.63431 0.0
C342 C 0.49241 0.49188 0.72487 0.0
C343 C 0.54191 0.49867 0.74567 0.0
C344 C 0.5362 0.49938 0.78318 0.0
C345 C 0.58581 0.48704 0.80222 0.0
C346 C 0.5821 0.48681 0.8375 0.0
C347 C 0.52877 0.49939 0.85458 0.0
H348 H 0.44503 0.52495 0.78683 0.0
C349 C 0.47971 0.51305 0.83562 0.0
C350 C 0.4834 0.51326 0.80034 0.0
H351 H 0.43799 0.5229 0.84803 0.0
H352 H 0.59222 0.4707 0.62069 0.0
H353 H 0.58789 0.46667 0.68215 0.0
H354 H 0.40674 0.51722 0.68273 0.0
H355 H 0.41083 0.52084 0.62136 0.0
H356 H 0.44574 0.4868 0.73548 0.0
H357 H 0.5886 0.50345 0.73507 0.0
H358 H 0.6274 0.47699 0.78973 0.0
H359 H 0.62121 0.47708 0.85142 0.0
C360 C 0.54752 0.49721 0.39399 0.0
C361 C 0.50546 0.52134 0.41437 0.0
C362 C 0.5479 0.50147 0.35888 0.0
C363 C 0.50616 0.53002 0.34346 0.0
C364 C 0.46506 0.55496 0.3639 0.0
C365 C 0.46434 0.55039 0.39896 0.0
C366 C 0.50515 0.53568 0.3063 0.0
C367 C 0.52152 0.49918 0.28381 0.0
C368 C 0.51755 0.50393 0.24667 0.0
C369 C 0.50679 0.4579 0.2258 0.0
C370 C 0.50147 0.4609 0.19079 0.0
C371 C 0.50778 0.51011 0.17592 0.0
H372 H 0.53524 0.58953 0.2469 0.0
C373 C 0.52019 0.55621 0.1967 0.0
C374 C 0.52505 0.55321 0.23172 0.0
H375 H 0.52521 0.59467 0.18592 0.0
H376 H 0.58016 0.47492 0.40513 0.0
H377 H 0.58156 0.48306 0.34404 0.0
H378 H 0.43285 0.5776 0.35269 0.0
H379 H 0.43168 0.5698 0.41397 0.0
H380 H 0.48637 0.56943 0.29728 0.0
H381 H 0.53425 0.46283 0.29274 0.0
H382 H 0.50157 0.41946 0.23665 0.0
H383 H 0.49281 0.42471 0.17533 0.0
loop_
_geom_bond_atom_site_label_1
_geom_bond_atom_site_label_2
_geom_bond_distance
_geom_bond_site_symmetry_2
_ccdc_geom_bond_type
Co0 N5 2.057 . S
Co0 O17 2.021 . S
Co0 O20 2.062 1_455 S
Co0 O24 2.117 1_554 S
Co0 O25 2.020 1_565 S
C1 O21 1.259 1_455 S
C1 O24 1.258 1_545 S
Co2 N11 2.057 . S
Co2 O18 2.117 . S
Co2 O19 2.020 1_545 S
Co2 O21 2.021 1_554 S
Co2 O26 2.062 1_655 S
C3 N5 1.316 . S
C3 N6 1.347 . S
C3 H8 0.931 . S
C4 N5 1.375 1_556 S
C4 C7 1.350 . S
C4 H9 0.930 . S
N5 Co0 2.057 . S
N5 C3 1.316 . S
N5 C4 1.375 1_554 S
N6 C3 1.347 . S
N6 C7 1.373 1_554 S
C7 C4 1.350 . S
C7 N6 1.373 1_556 S
C7 H28 0.931 . S
H8 C3 0.931 . S
H9 C4 0.930 . S
C10 O17 1.259 1_545 S
C10 O18 1.258 1_455 S
N11 Co2 2.057 . S
N11 C12 1.316 . S
N11 C13 1.375 . S
C12 N11 1.316 . S
C12 N14 1.347 . S
C12 H23 0.931 1_554 S
C13 N11 1.375 . S
C13 C15 1.350 . S
C13 H22 0.930 . S
N14 C12 1.347 . S
N14 C15 1.373 . S
C15 C13 1.350 . S
C15 N14 1.373 . S
C15 H29 0.931 . S
C16 O19 1.256 . S
C16 O20 1.255 . S
O17 Co0 2.021 . S
O17 C10 1.259 1_565 S
O18 Co2 2.117 . S
O18 C10 1.258 1_655 S
O19 Co2 2.020 1_565 S
O19 C16 1.256 . S
O20 Co0 2.062 1_655 S
O20 C16 1.255 . S
O21 C1 1.259 1_655 S
O21 Co2 2.021 1_556 S
H22 C13 0.930 . S
H23 C12 0.931 1_556 S
O24 Co0 2.117 1_556 S
O24 C1 1.258 1_565 S
O25 Co0 2.020 1_545 S
O25 C27 1.256 . S
O26 Co2 2.062 1_455 S
O26 C27 1.255 . S
C27 O25 1.256 . S
C27 O26 1.255 . S
H28 C7 0.931 . S
H29 C15 0.931 . S
Co30 N35 2.057 . S
Co30 O47 2.021 . S
Co30 O50 2.062 . S
Co30 O54 2.117 . S
Co30 O55 2.020 . S
C31 O51 1.259 . S
C31 O54 1.258 . S
Co32 N41 2.057 . S
Co32 O48 2.117 . S
Co32 O49 2.020 . S
Co32 O51 2.021 . S
Co32 O56 2.062 . S
C33 N35 1.316 . S
C33 N36 1.347 . S
C33 H38 0.931 . S
C34 N35 1.375 . S
C34 C37 1.350 . S
C34 H39 0.930 . S
N35 Co30 2.057 . S
N35 C33 1.316 . S
N35 C34 1.375 . S
N36 C33 1.347 . S
N36 C37 1.373 . S
C37 C34 1.350 . S
C37 N36 1.373 . S
C37 H58 0.931 . S
H38 C33 0.931 . S
H39 C34 0.930 . S
C40 O47 1.259 . S
C40 O48 1.258 . S
N41 Co32 2.057 . S
N41 C42 1.316 . S
N41 C43 1.375 . S
C42 N41 1.316 . S
C42 N44 1.347 . S
C42 H53 0.931 . S
C43 N41 1.375 . S
C43 C45 1.350 . S
C43 H52 0.930 . S
N44 C42 1.347 . S
N44 C45 1.373 . S
C45 C43 1.350 . S
C45 N44 1.373 . S
C45 H59 0.931 . S
C46 O49 1.256 . S
C46 O50 1.255 . S
O47 Co30 2.021 . S
O47 C40 1.259 . S
O48 Co32 2.117 . S
O48 C40 1.258 . S
O49 Co32 2.020 . S
O49 C46 1.256 . S
O50 Co30 2.062 . S
O50 C46 1.255 . S
O51 C31 1.259 . S
O51 Co32 2.021 . S
H52 C43 0.930 . S
H53 C42 0.931 . S
O54 Co30 2.117 . S
O54 C31 1.258 . S
O55 Co30 2.020 . S
O55 C57 1.256 . S
O56 Co32 2.062 . S
O56 C57 1.255 . S
C57 O55 1.256 . S
C57 O56 1.255 . S
H58 C37 0.931 . S
H59 C45 0.931 . S
H60 C63 0.931 . S
H61 C66 0.928 . S
H62 C68 0.931 . S
C63 H60 0.931 . S
C63 C64 1.413 . S
C63 C65 1.359 1_545 S
C64 C63 1.413 . S
C64 C68 1.421 1_655 S
C65 C63 1.359 1_565 S
C65 C66 1.373 1_655 S
C66 H61 0.928 . S
C66 C65 1.373 1_455 S
C66 C67 1.404 . S
C67 C66 1.404 . S
C67 C68 1.399 1_565 S
C68 H62 0.931 . S
C68 C64 1.421 1_455 S
C68 C67 1.399 1_545 S
H69 C72 0.931 . S
H70 C75 0.928 . S
H71 C77 0.930 . S
C72 H69 0.931 . S
C72 C73 1.413 . S
C72 C74 1.360 1_665 S
C73 C72 1.413 . S
C73 C77 1.429 1_665 S
C74 C72 1.360 1_445 S
C74 C75 1.372 . S
C75 H70 0.928 . S
C75 C74 1.372 . S
C75 C76 1.404 . S
C76 C75 1.404 . S
C76 C77 1.391 . S
C77 H71 0.930 . S
C77 C73 1.429 1_445 S
C77 C76 1.391 . S
H78 C81 0.931 . S
H79 C84 0.928 . S
H80 C86 0.930 . S
C81 H78 0.931 . S
C81 C82 1.413 . S
C81 C83 1.360 . S
C82 C81 1.413 . S
C82 C86 1.429 . S
C83 C81 1.360 . S
C83 C84 1.372 . S
C84 H79 0.928 . S
C84 C83 1.372 . S
C84 C85 1.404 . S
C85 C84 1.404 . S
C85 C86 1.391 . S
C86 H80 0.930 . S
C86 C82 1.429 . S
C86 C85 1.391 . S
H87 C90 0.931 . S
H88 C93 0.928 . S
H89 C95 0.930 . S
C90 H87 0.931 . S
C90 C91 1.413 . S
C90 C92 1.360 . S
C91 C90 1.413 . S
C91 C95 1.429 . S
C92 C90 1.360 . S
C92 C93 1.372 . S
C93 H88 0.928 . S
C93 C92 1.372 . S
C93 C94 1.404 . S
C94 C93 1.404 . S
C94 C95 1.391 . S
C95 H89 0.930 . S
C95 C91 1.429 . S
C95 C94 1.391 . S
C96 C97 1.386 . S
C96 C98 1.383 . S
C96 H112 0.951 . S
C97 C96 1.386 . S
C97 C101 1.383 1_554 S
C98 C96 1.383 . S
C98 C99 1.402 . S
C98 H113 0.951 . S
C99 C98 1.402 . S
C99 C100 1.375 1_554 S
C99 C102 1.481 . S
C100 C99 1.375 1_556 S
C100 C101 1.367 . S
C100 H114 0.951 . S
C101 C97 1.383 1_556 S
C101 C100 1.367 . S
C101 H115 0.950 . S
C102 C99 1.481 . S
C102 C103 1.297 . S
C102 H116 0.950 . S
C103 C102 1.297 . S
C103 C104 1.479 . S
C103 H117 0.950 . S
C104 C103 1.479 . S
C104 C105 1.375 . S
C104 C110 1.404 . S
C105 C104 1.375 . S
C105 C106 1.369 . S
C105 H118 0.950 . S
C106 C105 1.369 . S
C106 C107 1.392 . S
C106 H119 0.951 . S
C107 C106 1.392 . S
C107 C109 1.384 . S
H108 C110 0.949 . S
C109 C107 1.384 . S
C109 C110 1.385 . S
C109 H111 0.950 . S
C110 C104 1.404 . S
C110 H108 0.949 . S
C110 C109 1.385 . S
H111 C109 0.950 . S
H112 C96 0.951 . S
H113 C98 0.951 . S
H114 C100 0.951 . S
H115 C101 0.950 . S
H116 C102 0.950 . S
H117 C103 0.950 . S
H118 C105 0.950 . S
H119 C106 0.951 . S
C120 C121 1.386 . S
C120 C122 1.383 . S
C120 H136 0.951 . S
C121 C120 1.386 . S
C121 C125 1.383 . S
C122 C120 1.383 . S
C122 C123 1.402 . S
C122 H137 0.951 . S
C123 C122 1.402 . S
C123 C124 1.375 . S
C123 C126 1.481 1_554 S
C124 C123 1.375 . S
C124 C125 1.367 . S
C124 H138 0.951 . S
C125 C121 1.383 . S
C125 C124 1.367 . S
C125 H139 0.950 . S
C126 C123 1.481 1_556 S
C126 C127 1.297 . S
C126 H140 0.950 . S
C127 C126 1.297 . S
C127 C128 1.479 . S
C127 H141 0.950 1_556 S
C128 C127 1.479 . S
C128 C129 1.375 . S
C128 C134 1.404 . S
C129 C128 1.375 . S
C129 C130 1.369 . S
C129 H142 0.950 . S
C130 C129 1.369 . S
C130 C131 1.392 . S
C130 H143 0.951 . S
C131 C130 1.392 . S
C131 C133 1.384 . S
H132 C134 0.949 . S
C133 C131 1.384 . S
C133 C134 1.385 . S
C133 H135 0.950 . S
C134 C128 1.404 . S
C134 H132 0.949 . S
C134 C133 1.385 . S
H135 C133 0.950 . S
H136 C120 0.951 . S
H137 C122 0.951 . S
H138 C124 0.951 . S
H139 C125 0.950 . S
H140 C126 0.950 . S
H141 C127 0.950 1_554 S
H142 C129 0.950 . S
H143 C130 0.951 . S
C144 C145 1.386 . S
C144 C146 1.383 . S
C144 H160 0.948 1_554 S
C145 C144 1.386 . S
C145 C149 1.383 . S
C146 C144 1.383 . S
C146 C147 1.402 . S
C146 H161 0.951 . S
C147 C146 1.402 . S
C147 C148 1.375 . S
C147 C150 1.481 . S
C148 C147 1.375 . S
C148 C149 1.367 . S
C148 H162 0.951 . S
C149 C145 1.383 . S
C149 C148 1.367 . S
C149 H163 0.950 . S
C150 C147 1.481 . S
C150 C151 1.297 . S
C150 H164 0.950 . S
C151 C150 1.297 . S
C151 C152 1.479 . S
C151 H165 0.950 . S
C152 C151 1.479 . S
C152 C153 1.375 . S
C152 C158 1.404 . S
C153 C152 1.375 . S
C153 C154 1.369 . S
C153 H166 0.950 . S
C154 C153 1.369 . S
C154 C155 1.392 . S
C154 H167 0.951 . S
C155 C154 1.392 . S
C155 C157 1.384 . S
H156 C158 0.949 . S
C157 C155 1.384 . S
C157 C158 1.385 . S
C157 H159 0.950 . S
C158 C152 1.404 . S
C158 H156 0.949 . S
C158 C157 1.385 . S
H159 C157 0.950 . S
H160 C144 0.948 1_556 S
H161 C146 0.951 . S
H162 C148 0.951 . S
H163 C149 0.950 . S
H164 C150 0.950 . S
H165 C151 0.950 . S
H166 C153 0.950 . S
H167 C154 0.951 . S
C168 C169 1.386 1_556 S
C168 C170 1.383 . S
C168 H184 0.951 . S
C169 C168 1.386 1_554 S
C169 C173 1.383 . S
C170 C168 1.383 . S
C170 C171 1.402 1_556 S
C170 H185 0.951 . S
C171 C170 1.402 1_554 S
C171 C172 1.375 . S
C171 C174 1.481 . S
C172 C171 1.375 . S
C172 C173 1.367 . S
C172 H186 0.951 . S
C173 C169 1.383 . S
C173 C172 1.367 . S
C173 H187 0.950 . S
C174 C171 1.481 . S
C174 C175 1.297 1_554 S
C174 H188 0.950 . S
C175 C174 1.297 1_556 S
C175 C176 1.479 . S
C175 H189 0.950 . S
C176 C175 1.479 . S
C176 C177 1.375 . S
C176 C182 1.404 . S
C177 C176 1.375 . S
C177 C178 1.369 . S
C177 H190 0.950 . S
C178 C177 1.369 . S
C178 C179 1.392 . S
C178 H191 0.951 . S
C179 C178 1.392 . S
C179 C181 1.384 . S
H180 C182 0.949 1_554 S
C181 C179 1.384 . S
C181 C182 1.385 . S
C181 H183 0.950 1_556 S
C182 C176 1.404 . S
C182 H180 0.949 1_556 S
C182 C181 1.385 . S
H183 C181 0.950 1_554 S
H184 C168 0.951 . S
H185 C170 0.951 . S
H186 C172 0.951 . S
H187 C173 0.950 . S
H188 C174 0.950 . S
H189 C175 0.950 . S
H190 C177 0.950 . S
H191 C178 0.951 . S
C192 C193 1.386 . S
C192 C194 1.383 . S
C192 H208 0.951 . S
C193 C192 1.386 . S
C193 C197 1.383 . S
C194 C192 1.383 . S
C194 C195 1.402 . S
C194 H209 0.951 . S
C195 C194 1.402 . S
C195 C196 1.375 . S
C195 C198 1.481 . S
C196 C195 1.375 . S
C196 C197 1.367 . S
C196 H210 0.951 . S
C197 C193 1.383 . S
C197 C196 1.367 . S
C197 H211 0.950 . S
C198 C195 1.481 . S
C198 C199 1.297 . S
C198 H212 0.950 . S
C199 C198 1.297 . S
C199 C200 1.479 . S
C199 H213 0.950 . S
C200 C199 1.479 . S
C200 C201 1.375 . S
C200 C206 1.404 . S
C201 C200 1.375 . S
C201 C202 1.369 . S
C201 H214 0.950 . S
C202 C201 1.369 . S
C202 C203 1.392 . S
C202 H215 0.951 . S
C203 C202 1.392 . S
C203 C205 1.384 . S
H204 C206 0.949 . S
C205 C203 1.384 . S
C205 C206 1.385 . S
C205 H207 0.950 . S
C206 C200 1.404 . S
C206 H204 0.949 . S
C206 C205 1.385 . S
H207 C205 0.950 . S
H208 C192 0.951 . S
H209 C194 0.951 . S
H210 C196 0.951 . S
H211 C197 0.950 . S
H212 C198 0.950 . S
H213 C199 0.950 . S
H214 C201 0.950 . S
H215 C202 0.951 . S
C216 C217 1.386 . S
C216 C218 1.383 . S
C216 H232 0.951 . S
C217 C216 1.386 . S
C217 C221 1.383 . S
C218 C216 1.383 . S
C218 C219 1.402 . S
C218 H233 0.951 . S
C219 C218 1.402 . S
C219 C220 1.375 . S
C219 C222 1.481 . S
C220 C219 1.375 . S
C220 C221 1.367 . S
C220 H234 0.951 . S
C221 C217 1.383 . S
C221 C220 1.367 . S
C221 H235 0.950 . S
C222 C219 1.481 . S
C222 C223 1.297 . S
C222 H236 0.950 . S
C223 C222 1.297 . S
C223 C224 1.479 . S
C223 H237 0.950 . S
C224 C223 1.479 . S
C224 C225 1.375 . S
C224 C230 1.404 . S
C225 C224 1.375 . S
C225 C226 1.369 . S
C225 H238 0.950 . S
C226 C225 1.369 . S
C226 C227 1.392 . S
C226 H239 0.951 . S
C227 C226 1.392 . S
C227 C229 1.384 . S
H228 C230 0.949 . S
C229 C227 1.384 . S
C229 C230 1.385 . S
C229 H231 0.950 . S
C230 C224 1.404 . S
C230 H228 0.949 . S
C230 C229 1.385 . S
H231 C229 0.950 . S
H232 C216 0.951 . S
H233 C218 0.951 . S
H234 C220 0.951 . S
H235 C221 0.950 . S
H236 C222 0.950 . S
H237 C223 0.950 . S
H238 C225 0.950 . S
H239 C226 0.951 . S
C240 C241 1.386 . S
C240 C242 1.383 . S
C240 H256 0.951 . S
C241 C240 1.386 . S
C241 C245 1.383 . S
C242 C240 1.383 . S
C242 C243 1.402 . S
C242 H257 0.951 . S
C243 C242 1.402 . S
C243 C244 1.375 . S
C243 C246 1.481 . S
C244 C243 1.375 . S
C244 C245 1.367 . S
C244 H258 0.951 . S
C245 C241 1.383 . S
C245 C244 1.367 . S
C245 H259 0.950 . S
C246 C243 1.481 . S
C246 C247 1.297 . S
C246 H260 0.950 . S
C247 C246 1.297 . S
C247 C248 1.479 . S
C247 H261 0.950 . S
C248 C247 1.479 . S
C248 C249 1.375 . S
C248 C254 1.404 . S
C249 C248 1.375 . S
C249 C250 1.369 . S
C249 H262 0.950 . S
C250 C249 1.369 . S
C250 C251 1.392 . S
C250 H263 0.951 . S
C251 C250 1.392 . S
C251 C253 1.384 . S
H252 C254 0.949 . S
C253 C251 1.384 . S
C253 C254 1.385 . S
C253 H255 0.950 . S
C254 C248 1.404 . S
C254 H252 0.949 . S
C254 C253 1.385 . S
H255 C253 0.950 . S
H256 C240 0.951 . S
H257 C242 0.951 . S
H258 C244 0.951 . S
H259 C245 0.950 . S
H260 C246 0.950 . S
H261 C247 0.950 . S
H262 C249 0.950 . S
H263 C250 0.951 . S
C264 C265 1.386 . S
C264 C266 1.383 . S
C264 H280 0.951 . S
C265 C264 1.386 . S
C265 C269 1.383 . S
C266 C264 1.383 . S
C266 C267 1.402 . S
C266 H281 0.951 . S
C267 C266 1.402 . S
C267 C268 1.375 . S
C267 C270 1.481 . S
C268 C267 1.375 . S
C268 C269 1.367 . S
C268 H282 0.951 . S
C269 C265 1.383 . S
C269 C268 1.367 . S
C269 H283 0.950 . S
C270 C267 1.481 . S
C270 C271 1.297 . S
C270 H284 0.950 . S
C271 C270 1.297 . S
C271 C272 1.479 . S
C271 H285 0.950 . S
C272 C271 1.479 . S
C272 C273 1.375 . S
C272 C278 1.404 . S
C273 C272 1.375 . S
C273 C274 1.369 . S
C273 H286 0.950 . S
C274 C273 1.369 . S
C274 C275 1.392 . S
C274 H287 0.951 . S
C275 C274 1.392 . S
C275 C277 1.384 . S
H276 C278 0.949 . S
C277 C275 1.384 . S
C277 C278 1.385 . S
C277 H279 0.950 . S
C278 C272 1.404 . S
C278 H276 0.949 . S
C278 C277 1.385 . S
H279 C277 0.950 . S
H280 C264 0.951 . S
H281 C266 0.951 . S
H282 C268 0.951 . S
H283 C269 0.950 . S
H284 C270 0.950 . S
H285 C271 0.950 . S
H286 C273 0.950 . S
H287 C274 0.951 . S
C288 C289 1.386 1_655 S
C288 C290 1.383 . S
C288 H304 0.951 . S
C289 C288 1.386 1_455 S
C289 C293 1.383 1_545 S
C290 C288 1.383 . S
C290 C291 1.402 1_645 S
C290 H305 0.951 . S
C291 C290 1.402 1_465 S
C291 C292 1.375 . S
C291 C294 1.481 . S
C292 C291 1.375 . S
C292 C293 1.367 . S
C292 H306 0.951 . S
C293 C289 1.383 1_565 S
C293 C292 1.367 . S
C293 H307 0.950 . S
C294 C291 1.481 . S
C294 C295 1.297 1_455 S
C294 H308 0.950 . S
C295 C294 1.297 1_655 S
C295 C296 1.479 . S
C295 H309 0.950 . S
C296 C295 1.479 . S
C296 C297 1.375 1_565 S
C296 C302 1.404 1_655 S
C297 C296 1.375 1_545 S
C297 C298 1.369 . S
C297 H310 0.950 . S
C298 C297 1.369 . S
C298 C299 1.392 1_545 S
C298 H311 0.951 . S
C299 C298 1.392 1_565 S
C299 C301 1.384 1_655 S
H300 C302 0.949 . S
C301 C299 1.384 1_455 S
C301 C302 1.385 . S
C301 H303 0.950 . S
C302 C296 1.404 1_455 S
C302 H300 0.949 . S
C302 C301 1.385 . S
H303 C301 0.950 . S
H304 C288 0.951 . S
H305 C290 0.951 . S
H306 C292 0.951 . S
H307 C293 0.950 . S
H308 C294 0.950 . S
H309 C295 0.950 . S
H310 C297 0.950 . S
H311 C298 0.951 . S
C312 C313 1.386 . S
C312 C314 1.383 . S
C312 H328 0.951 . S
C313 C312 1.386 . S
C313 C317 1.383 1_445 S
C314 C312 1.383 . S
C314 C315 1.402 1_545 S
C314 H329 0.951 . S
C315 C314 1.402 1_565 S
C315 C316 1.375 1_455 S
C315 C318 1.481 . S
C316 C315 1.375 1_655 S
C316 C317 1.367 . S
C316 H330 0.951 . S
C317 C313 1.383 1_665 S
C317 C316 1.367 . S
C317 H331 0.950 . S
C318 C315 1.481 . S
C318 C319 1.297 1_565 S
C318 H332 0.950 1_455 S
C319 C318 1.297 1_545 S
C319 C320 1.479 . S
C319 H333 0.950 . S
C320 C319 1.479 . S
C320 C321 1.375 . S
C320 C326 1.404 1_445 S
C321 C320 1.375 . S
C321 C322 1.369 . S
C321 H334 0.950 . S
C322 C321 1.369 . S
C322 C323 1.392 . S
C322 H335 0.951 . S
C323 C322 1.392 . S
C323 C325 1.384 1_445 S
H324 C326 0.949 . S
C325 C323 1.384 1_665 S
C325 C326 1.385 . S
C325 H327 0.950 . S
C326 C320 1.404 1_665 S
C326 H324 0.949 . S
C326 C325 1.385 . S
H327 C325 0.950 . S
H328 C312 0.951 . S
H329 C314 0.951 . S
H330 C316 0.951 . S
H331 C317 0.950 . S
H332 C318 0.950 1_655 S
H333 C319 0.950 . S
H334 C321 0.950 . S
H335 C322 0.951 . S
C336 C337 1.386 . S
C336 C338 1.383 . S
C336 H352 0.951 . S
C337 C336 1.386 . S
C337 C341 1.383 . S
C338 C336 1.383 . S
C338 C339 1.402 . S
C338 H353 0.951 . S
C339 C338 1.402 . S
C339 C340 1.375 . S
C339 C342 1.481 . S
C340 C339 1.375 . S
C340 C341 1.367 . S
C340 H354 0.951 . S
C341 C337 1.383 . S
C341 C340 1.367 . S
C341 H355 0.950 . S
C342 C339 1.481 . S
C342 C343 1.297 . S
C342 H356 0.950 . S
C343 C342 1.297 . S
C343 C344 1.479 . S
C343 H357 0.950 . S
C344 C343 1.479 . S
C344 C345 1.375 . S
C344 C350 1.404 . S
C345 C344 1.375 . S
C345 C346 1.369 . S
C345 H358 0.950 . S
C346 C345 1.369 . S
C346 C347 1.392 . S
C346 H359 0.951 . S
C347 C346 1.392 . S
C347 C349 1.384 . S
H348 C350 0.949 . S
C349 C347 1.384 . S
C349 C350 1.385 . S
C349 H351 0.950 . S
C350 C344 1.404 . S
C350 H348 0.949 . S
C350 C349 1.385 . S
H351 C349 0.950 . S
H352 C336 0.951 . S
H353 C338 0.951 . S
H354 C340 0.951 . S
H355 C341 0.950 . S
H356 C342 0.950 . S
H357 C343 0.950 . S
H358 C345 0.950 . S
H359 C346 0.951 . S
C360 C361 1.386 . S
C360 C362 1.383 . S
C360 H376 0.951 . S
C361 C360 1.386 . S
C361 C365 1.383 . S
C362 C360 1.383 . S
C362 C363 1.402 . S
C362 H377 0.951 . S
C363 C362 1.402 . S
C363 C364 1.375 . S
C363 C366 1.481 . S
C364 C363 1.375 . S
C364 C365 1.367 . S
C364 H378 0.951 . S
C365 C361 1.383 . S
C365 C364 1.367 . S
C365 H379 0.950 . S
C366 C363 1.481 . S
C366 C367 1.297 . S
C366 H380 0.950 . S
C367 C366 1.297 . S
C367 C368 1.479 . S
C367 H381 0.950 . S
C368 C367 1.479 . S
C368 C369 1.375 . S
C368 C374 1.404 . S
C369 C368 1.375 . S
C369 C370 1.369 . S
C369 H382 0.950 . S
C370 C369 1.369 . S
C370 C371 1.392 . S
C370 H383 0.951 . S
C371 C370 1.392 . S
C371 C373 1.384 . S
H372 C374 0.949 . S
C373 C371 1.384 . S
C373 C374 1.385 . S
C373 H375 0.950 . S
C374 C368 1.404 . S
C374 H372 0.949 . S
C374 C373 1.385 . S
H375 C373 0.950 . S
H376 C360 0.951 . S
H377 C362 0.951 . S
H378 C364 0.951 . S
H379 C365 0.950 . S
H380 C366 0.950 . S
H381 C367 0.950 . S
H382 C369 0.950 . S
H383 C370 0.951 . S
C107 C91 1.332 . S
C97 C27 1.365 . S
C121 N6 1.301 . S
C131 C82 1.346 . S
C145 C16 1.356 . S
C155 C94 1.368 . S
C169 N14 1.312 . S
C179 C85 1.323 . S
C193 C57 1.347 . S
C203 C73 1.345 . S
C217 N36 1.304 . S
C227 C64 1.332 . S
C251 C76 1.337 . S
C241 C46 1.340 . S
C275 C67 1.339 . S
C265 N44 1.337 . S
C289 C10 1.382 . S
C299 C65 1.383 . S
C313 C1 1.531 . S
C323 C74 1.526 . S
C347 C83 1.383 . S
C337 C40 1.396 . S
C361 C31 1.524 . S
C371 C92 1.524 . S
