# Generated by pormake.
# Topology ctn, (3,4)-cn, num edge types: 1
# Building blocks:
#     Node 0, Type 0, BuildingBlock: PAMTOO_clean_linker_0, # of connection points: 3
#     Node 1, Type 0, BuildingBlock: PAMTOO_clean_linker_0, # of connection points: 3
#     Node 2, Type 0, BuildingBlock: PAMTOO_clean_linker_0, # of connection points: 3
#     Node 3, Type 0, BuildingBlock: PAMTOO_clean_linker_0, # of connection points: 3
#     Node 4, Type 0, BuildingBlock: PAMTOO_clean_linker_0, # of connection points: 3
#     Node 5, Type 0, BuildingBlock: PAMTOO_clean_linker_0, # of connection points: 3
#     Node 6, Type 0, BuildingBlock: PAMTOO_clean_linker_0, # of connection points: 3
#     Node 7, Type 0, BuildingBlock: PAMTOO_clean_linker_0, # of connection points: 3
#     Node 8, Type 0, BuildingBlock: PAMTOO_clean_linker_0, # of connection points: 3
#     Node 9, Type 0, BuildingBlock: PAMTOO_clean_linker_0, # of connection points: 3
#     Node 10, Type 0, BuildingBlock: PAMTOO_clean_linker_0, # of connection points: 3
#     Node 11, Type 0, BuildingBlock: PAMTOO_clean_linker_0, # of connection points: 3
#     Node 12, Type 0, BuildingBlock: PAMTOO_clean_linker_0, # of connection points: 3
#     Node 13, Type 0, BuildingBlock: PAMTOO_clean_linker_0, # of connection points: 3
#     Node 14, Type 0, BuildingBlock: PAMTOO_clean_linker_0, # of connection points: 3
#     Node 15, Type 0, BuildingBlock: PAMTOO_clean_linker_0, # of connection points: 3
#     Node 16, Type 1, BuildingBlock: NAHDIM_clean_sbu_0, # of connection points: 4
#     Node 17, Type 1, BuildingBlock: NAHDIM_clean_sbu_0, # of connection points: 4
#     Node 18, Type 1, BuildingBlock: NAHDIM_clean_sbu_0, # of connection points: 4
#     Node 19, Type 1, BuildingBlock: NAHDIM_clean_sbu_0, # of connection points: 4
#     Node 20, Type 1, BuildingBlock: NAHDIM_clean_sbu_0, # of connection points: 4
#     Node 21, Type 1, BuildingBlock: NAHDIM_clean_sbu_0, # of connection points: 4
#     Node 22, Type 1, BuildingBlock: NAHDIM_clean_sbu_0, # of connection points: 4
#     Node 23, Type 1, BuildingBlock: NAHDIM_clean_sbu_0, # of connection points: 4
#     Node 24, Type 1, BuildingBlock: NAHDIM_clean_sbu_0, # of connection points: 4
#     Node 25, Type 1, BuildingBlock: NAHDIM_clean_sbu_0, # of connection points: 4
#     Node 26, Type 1, BuildingBlock: NAHDIM_clean_sbu_0, # of connection points: 4
#     Node 27, Type 1, BuildingBlock: NAHDIM_clean_sbu_0, # of connection points: 4
#     Edge 28, Type (0, 1), BuildingBlock: XUDNAN_clean_linker_2, # of connection points: 2
#     Edge 29, Type (0, 1), BuildingBlock: XUDNAN_clean_linker_2, # of connection points: 2
#     Edge 30, Type (0, 1), BuildingBlock: XUDNAN_clean_linker_2, # of connection points: 2
#     Edge 31, Type (0, 1), BuildingBlock: XUDNAN_clean_linker_2, # of connection points: 2
#     Edge 32, Type (0, 1), BuildingBlock: XUDNAN_clean_linker_2, # of connection points: 2
#     Edge 33, Type (0, 1), BuildingBlock: XUDNAN_clean_linker_2, # of connection points: 2
#     Edge 34, Type (0, 1), BuildingBlock: XUDNAN_clean_linker_2, # of connection points: 2
#     Edge 35, Type (0, 1), BuildingBlock: XUDNAN_clean_linker_2, # of connection points: 2
#     Edge 36, Type (0, 1), BuildingBlock: XUDNAN_clean_linker_2, # of connection points: 2
#     Edge 37, Type (0, 1), BuildingBlock: XUDNAN_clean_linker_2, # of connection points: 2
#     Edge 38, Type (0, 1), BuildingBlock: XUDNAN_clean_linker_2, # of connection points: 2
#     Edge 39, Type (0, 1), BuildingBlock: XUDNAN_clean_linker_2, # of connection points: 2
#     Edge 40, Type (0, 1), BuildingBlock: XUDNAN_clean_linker_2, # of connection points: 2
#     Edge 41, Type (0, 1), BuildingBlock: XUDNAN_clean_linker_2, # of connection points: 2
#     Edge 42, Type (0, 1), BuildingBlock: XUDNAN_clean_linker_2, # of connection points: 2
#     Edge 43, Type (0, 1), BuildingBlock: XUDNAN_clean_linker_2, # of connection points: 2
#     Edge 44, Type (0, 1), BuildingBlock: XUDNAN_clean_linker_2, # of connection points: 2
#     Edge 45, Type (0, 1), BuildingBlock: XUDNAN_clean_linker_2, # of connection points: 2
#     Edge 46, Type (0, 1), BuildingBlock: XUDNAN_clean_linker_2, # of connection points: 2
#     Edge 47, Type (0, 1), BuildingBlock: XUDNAN_clean_linker_2, # of connection points: 2
#     Edge 48, Type (0, 1), BuildingBlock: XUDNAN_clean_linker_2, # of connection points: 2
#     Edge 49, Type (0, 1), BuildingBlock: XUDNAN_clean_linker_2, # of connection points: 2
#     Edge 50, Type (0, 1), BuildingBlock: XUDNAN_clean_linker_2, # of connection points: 2
#     Edge 51, Type (0, 1), BuildingBlock: XUDNAN_clean_linker_2, # of connection points: 2
#     Edge 52, Type (0, 1), BuildingBlock: XUDNAN_clean_linker_2, # of connection points: 2
#     Edge 53, Type (0, 1), BuildingBlock: XUDNAN_clean_linker_2, # of connection points: 2
#     Edge 54, Type (0, 1), BuildingBlock: XUDNAN_clean_linker_2, # of connection points: 2
#     Edge 55, Type (0, 1), BuildingBlock: XUDNAN_clean_linker_2, # of connection points: 2
#     Edge 56, Type (0, 1), BuildingBlock: XUDNAN_clean_linker_2, # of connection points: 2
#     Edge 57, Type (0, 1), BuildingBlock: XUDNAN_clean_linker_2, # of connection points: 2
#     Edge 58, Type (0, 1), BuildingBlock: XUDNAN_clean_linker_2, # of connection points: 2
#     Edge 59, Type (0, 1), BuildingBlock: XUDNAN_clean_linker_2, # of connection points: 2
#     Edge 60, Type (0, 1), BuildingBlock: XUDNAN_clean_linker_2, # of connection points: 2
#     Edge 61, Type (0, 1), BuildingBlock: XUDNAN_clean_linker_2, # of connection points: 2
#     Edge 62, Type (0, 1), BuildingBlock: XUDNAN_clean_linker_2, # of connection points: 2
#     Edge 63, Type (0, 1), BuildingBlock: XUDNAN_clean_linker_2, # of connection points: 2
#     Edge 64, Type (0, 1), BuildingBlock: XUDNAN_clean_linker_2, # of connection points: 2
#     Edge 65, Type (0, 1), BuildingBlock: XUDNAN_clean_linker_2, # of connection points: 2
#     Edge 66, Type (0, 1), BuildingBlock: XUDNAN_clean_linker_2, # of connection points: 2
#     Edge 67, Type (0, 1), BuildingBlock: XUDNAN_clean_linker_2, # of connection points: 2
#     Edge 68, Type (0, 1), BuildingBlock: XUDNAN_clean_linker_2, # of connection points: 2
#     Edge 69, Type (0, 1), BuildingBlock: XUDNAN_clean_linker_2, # of connection points: 2
#     Edge 70, Type (0, 1), BuildingBlock: XUDNAN_clean_linker_2, # of connection points: 2
#     Edge 71, Type (0, 1), BuildingBlock: XUDNAN_clean_linker_2, # of connection points: 2
#     Edge 72, Type (0, 1), BuildingBlock: XUDNAN_clean_linker_2, # of connection points: 2
#     Edge 73, Type (0, 1), BuildingBlock: XUDNAN_clean_linker_2, # of connection points: 2
#     Edge 74, Type (0, 1), BuildingBlock: XUDNAN_clean_linker_2, # of connection points: 2
#     Edge 75, Type (0, 1), BuildingBlock: XUDNAN_clean_linker_2, # of connection points: 2
# Relax obj value: 0.063
# Max RMSD: 0.181
# Mean RMSD: 0.112
data_MOF--net-ctn--node1-NAHDIM_clean_sbu_0--node2-PAMTOO_clean_linker_0--edge1-XUDNAN_clean_linker_2
_symmetry_space_group_name_H-M    P1
_symmetry_Int_Tables_number       1
_symmetry_cell_setting            triclinic
loop_
_symmetry_equiv_pos_as_xyz
'x, y, z'
_cell_length_a     53.311863
_cell_length_b     54.126494
_cell_length_c     54.490838
_cell_angle_alpha  86.090566
_cell_angle_beta   92.311505
_cell_angle_gamma 99.85047
loop_
_atom_site_label
_atom_site_type_symbol
_atom_site_fract_x
_atom_site_fract_y
_atom_site_fract_z
_atom_type_partial_charge
H0 H 0.02862 0.11641 0.06429 0.0
H1 H 0.04667 0.04216 0.08074 0.0
H2 H 0.07994 0.08798 0.01906 0.0
H3 H 0.06631 0.03448 0.00974 0.0
C4 C 0.06897 0.02604 0.02867 0.0
O5 O 0.07777 0.04476 0.04436 0.0
H6 H 0.0502 0.01556 0.03475 0.0
C7 C 0.03857 0.10134 0.0603 0.0
C8 C 0.05454 0.10476 0.04012 0.0
C9 C 0.03536 0.07882 0.07521 0.0
C10 C 0.04827 0.05948 0.06928 0.0
C11 C 0.06418 0.06276 0.04898 0.0
C12 C 0.06721 0.08535 0.03438 0.0
H13 H 0.30848 0.68523 0.27604 0.0
H14 H 0.27767 0.70464 0.20424 0.0
H15 H 0.32251 0.76176 0.24551 0.0
H16 H 0.2809 0.78148 0.21325 0.0
C17 C 0.277 0.76501 0.2017 0.0
O18 O 0.29731 0.75219 0.20422 0.0
H19 H 0.25915 0.75277 0.20797 0.0
C20 C 0.30591 0.69911 0.26126 0.0
C21 C 0.31716 0.72437 0.26344 0.0
C22 C 0.29147 0.69175 0.23998 0.0
C23 C 0.2887 0.70989 0.22079 0.0
C24 C 0.29967 0.73504 0.22298 0.0
C25 C 0.31374 0.74227 0.24425 0.0
H26 H 0.97643 0.51005 0.10051 0.0
H27 H 0.95694 0.48729 0.02682 0.0
H28 H 0.01096 0.45252 0.071 0.0
H29 H 0.02498 0.46122 0.02124 0.0
C30 C 0.00608 0.46084 0.01169 0.0
O31 O 0.98701 0.4538 0.02842 0.0
H32 H 0.00531 0.48012 0.00347 0.0
C33 C 0.97879 0.49866 0.08544 0.0
C34 C 0.99557 0.48117 0.08853 0.0
C35 C 0.96447 0.50097 0.06334 0.0
C36 C 0.96734 0.48559 0.04417 0.0
C37 C 0.98408 0.46823 0.04705 0.0
C38 C 0.99791 0.46589 0.0692 0.0
H39 H 0.70572 0.85003 0.24941 0.0
H40 H 0.68722 0.77338 0.22856 0.0
H41 H 0.75117 0.82228 0.19726 0.0
H42 H 0.71356 0.79162 0.1644 0.0
C43 C 0.71297 0.77331 0.17522 0.0
O44 O 0.72447 0.77715 0.19811 0.0
H45 H 0.69267 0.76461 0.17742 0.0
C46 C 0.70998 0.83471 0.23936 0.0
C47 C 0.73056 0.83896 0.22336 0.0
C48 C 0.69387 0.81117 0.24106 0.0
C49 C 0.69927 0.79168 0.2274 0.0
C50 C 0.7199 0.79574 0.21175 0.0
C51 C 0.73544 0.81929 0.20972 0.0
H52 H 0.1025 0.96257 0.50789 0.0
H53 H 0.0276 0.94204 0.47487 0.0
H54 H 0.07789 0.00646 0.44542 0.0
H55 H 0.02257 0.00919 0.45525 0.0
C56 C 0.01433 0.99207 0.44551 0.0
O57 O 0.03312 0.97855 0.44084 0.0
H58 H 1.00006 0.98039 0.45769 0.0
C59 C 0.08797 0.96605 0.49422 0.0
C60 C 0.09319 0.98662 0.47691 0.0
C61 C 0.06436 0.94978 0.49386 0.0
C62 C 0.04611 0.95397 0.47539 0.0
C63 C 0.05112 0.9743 0.45802 0.0
C64 C 0.07455 0.99053 0.45874 0.0
H65 H 0.19055 0.77437 0.81063 0.0
H66 H 0.21318 0.71992 0.76562 0.0
H67 H 0.25119 0.73464 0.8353 0.0
H68 H 0.28679 0.72362 0.7992 0.0
C69 C 0.27243 0.71545 0.78532 0.0
O70 O 0.24912 0.70863 0.79624 0.0
H71 H 0.27138 0.73004 0.77004 0.0
C72 C 0.20293 0.76106 0.80738 0.0
C73 C 0.22139 0.75639 0.82541 0.0
C74 C 0.19951 0.74785 0.78581 0.0
C75 C 0.21523 0.7301 0.78223 0.0
C76 C 0.23395 0.72557 0.79996 0.0
C77 C 0.23678 0.73844 0.82162 0.0
H78 H 0.94389 0.55321 0.52081 0.0
H79 H 0.98175 0.5229 0.46431 0.0
H80 H 0.01674 0.59141 0.49477 0.0
H81 H 0.02907 0.58925 0.43928 0.0
C82 C 0.02116 0.56887 0.43914 0.0
O83 O 0.02102 0.55861 0.46306 0.0
H84 H 1.00149 0.56681 0.43093 0.0
C85 C 0.95984 0.5545 0.50883 0.0
C86 C 0.98006 0.57506 0.50986 0.0
C87 C 0.96032 0.53529 0.49273 0.0
C88 C 0.98104 0.53717 0.47716 0.0
C89 C 1.00099 0.55753 0.47776 0.0
C90 C 1.0006 0.57628 0.49409 0.0
H91 H 0.7731 0.81467 0.8592 0.0
H92 H 0.82175 0.77923 0.81689 0.0
H93 H 0.79015 0.84181 0.78441 0.0
H94 H 0.85404 0.82682 0.79049 0.0
C95 C 0.84365 0.82149 0.77297 0.0
O96 O 0.81931 0.80874 0.77733 0.0
H97 H 0.84216 0.83907 0.76162 0.0
C98 C 0.78255 0.81346 0.84219 0.0
C99 C 0.77951 0.83057 0.82204 0.0
C100 C 0.79791 0.79496 0.84064 0.0
C101 C 0.81009 0.79352 0.81854 0.0
C102 C 0.80723 0.81033 0.79838 0.0
C103 C 0.7919 0.82871 0.80007 0.0
H104 H 0.27831 0.31699 0.34543 0.0
H105 H 0.33982 0.28201 0.32291 0.0
H106 H 0.31012 0.33569 0.27372 0.0
H107 H 0.32693 0.29596 0.24616 0.0
C108 C 0.33731 0.28775 0.26194 0.0
O109 O 0.34331 0.30528 0.27942 0.0
H110 H 0.32459 0.2707 0.26961 0.0
C111 C 0.29215 0.31498 0.332 0.0
C112 C 0.29214 0.32859 0.30905 0.0
C113 C 0.30909 0.29786 0.33719 0.0
C114 C 0.3264 0.29485 0.31927 0.0
C115 C 0.32664 0.30844 0.2965 0.0
C116 C 0.30963 0.32526 0.29143 0.0
H117 H 0.47479 0.01061 0.59364 0.0
H118 H 0.45755 0.98709 0.51995 0.0
H119 H 0.50652 0.94932 0.56751 0.0
H120 H 0.52049 0.96828 0.51444 0.0
C121 C 0.50314 0.9564 0.50684 0.0
O122 O 0.48446 0.95091 0.52414 0.0
H123 H 0.49597 0.96723 0.49077 0.0
C124 C 0.47691 0.9983 0.57927 0.0
C125 C 0.4922 0.97952 0.58368 0.0
C126 C 0.46448 1.00135 0.55623 0.0
C127 C 0.4672 0.98524 0.53771 0.0
C128 C 0.48218 0.9665 0.54196 0.0
C129 C 0.49462 0.96368 0.56478 0.0
H130 H 0.20209 0.33802 0.7531 0.0
H131 H 0.19367 0.26543 0.72273 0.0
H132 H 0.25981 0.32021 0.70738 0.0
H133 H 0.236 0.29501 0.66417 0.0
C134 C 0.22833 0.27629 0.67313 0.0
O135 O 0.23516 0.27587 0.69783 0.0
H136 H 0.20721 0.2733 0.67079 0.0
C137 C 0.20942 0.32472 0.74254 0.0
C138 C 0.23307 0.33202 0.73122 0.0
C139 C 0.19492 0.30068 0.73991 0.0
C140 C 0.20414 0.28415 0.72501 0.0
C141 C 0.22712 0.29155 0.71292 0.0
C142 C 0.24169 0.3152 0.71629 0.0
H143 H 0.80878 0.18434 0.77772 0.0
H144 H 0.77047 0.19719 0.70818 0.0
H145 H 0.8355 0.24986 0.73034 0.0
H146 H 0.7947 0.27322 0.70474 0.0
C147 C 0.78587 0.25737 0.69357 0.0
O148 O 0.80093 0.23893 0.69574 0.0
H149 H 0.76654 0.24983 0.70051 0.0
C150 C 0.80699 0.19593 0.76094 0.0
C151 C 0.82465 0.21809 0.7564 0.0
C152 C 0.78727 0.18823 0.7438 0.0
C153 C 0.78563 0.20268 0.72158 0.0
C154 C 0.80301 0.22484 0.7169 0.0
C155 C 0.82245 0.23248 0.73418 0.0
H156 H 0.51682 0.59412 0.56074 0.0
H157 H 0.54885 0.52802 0.58329 0.0
H158 H 0.56586 0.56523 0.51267 0.0
H159 H 0.55958 0.51037 0.51289 0.0
C160 C 0.56644 0.50624 0.53205 0.0
O161 O 0.5744 0.5284 0.5433 0.0
H162 H 0.5504 0.49465 0.54221 0.0
C163 C 0.52788 0.57996 0.5566 0.0
C164 C 0.54086 0.58222 0.53431 0.0
C165 C 0.53072 0.5605 0.57441 0.0
C166 C 0.54613 0.54288 0.56958 0.0
C167 C 0.55852 0.54458 0.54726 0.0
C168 C 0.55583 0.56408 0.52972 0.0
H169 H 0.59945 0.47583 0.00905 0.0
H170 H 0.53487 0.44207 0.96546 0.0
H171 H 0.57635 0.51428 0.94236 0.0
H172 H 0.5208 0.50897 0.93832 0.0
C173 C 0.51597 0.48919 0.93299 0.0
O174 O 0.53807 0.47926 0.93192 0.0
H175 H 0.50337 0.47818 0.94706 0.0
C176 C 0.58694 0.47629 0.9929 0.0
C177 C 0.5905 0.49739 0.97612 0.0
C178 C 0.56683 0.45618 0.98938 0.0
C179 C 0.5507 0.45714 0.9684 0.0
C180 C 0.55415 0.47811 0.95161 0.0
C181 C 0.57398 0.49811 0.95544 0.0
H182 H 0.69443 0.28038 0.30179 0.0
H183 H 0.71401 0.21786 0.2657 0.0
H184 H 0.74481 0.23404 0.33756 0.0
H185 H 0.78168 0.22146 0.304 0.0
C186 C 0.76876 0.20801 0.29272 0.0
O187 O 0.74425 0.20504 0.30104 0.0
H188 H 0.76908 0.21572 0.27324 0.0
C189 C 0.70465 0.26475 0.30147 0.0
C190 C 0.7197 0.25891 0.32213 0.0
C191 C 0.70218 0.25001 0.28084 0.0
C192 C 0.71585 0.22991 0.28097 0.0
C193 C 0.73144 0.22452 0.30116 0.0
C194 C 0.73308 0.23875 0.3218 0.0
H195 H 0.43128 0.05081 0.01917 0.0
H196 H 0.46659 0.02461 0.95847 0.0
H197 H 0.5026 0.09127 0.99193 0.0
H198 H 0.51492 0.09007 0.93396 0.0
C199 C 0.50581 0.06998 0.93427 0.0
O200 O 0.50619 0.05997 0.95826 0.0
H201 H 0.48593 0.069 0.92681 0.0
C202 C 0.44652 0.05307 0.00623 0.0
C203 C 0.46676 0.0735 0.00772 0.0
C204 C 0.44624 0.03512 0.98866 0.0
C205 C 0.46636 0.03806 0.97225 0.0
C206 C 0.48636 0.05838 0.97331 0.0
C207 C 0.48651 0.07612 0.99086 0.0
C208 C 0.20382 0.92695 0.00302 0.0
O209 O 0.21575 0.93512 0.98264 0.0
O210 O 0.23056 0.86772 0.98134 0.0
Zn211 Zn 0.23991 0.89109 0.00896 0.0
O212 O 0.27219 0.91564 1.00146 0.0
C213 C 0.25139 0.84729 0.03781 0.0
O214 O 0.25195 0.83871 0.01592 0.0
O215 O 0.21088 0.90892 0.01619 0.0
C216 C 0.29137 0.90641 0.9957 0.0
O217 O 0.28883 0.882 0.99407 0.0
C218 C 0.23369 0.87247 0.9584 0.0
O219 O 0.24236 0.89557 0.95006 0.0
O220 O 0.24687 0.86944 0.03956 0.0
C221 C 0.18046 0.45649 0.29584 0.0
O222 O 0.18473 0.47096 0.31449 0.0
O223 O 0.12745 0.49359 0.3072 0.0
Zn224 Zn 0.14569 0.49061 0.27597 0.0
O225 O 0.17064 0.52245 0.26838 0.0
C226 C 0.11086 0.50048 0.23427 0.0
O227 O 0.11876 0.52438 0.23769 0.0
O228 O 0.16483 0.46138 0.27868 0.0
C229 C 0.1834 0.52521 0.24889 0.0
O230 O 0.17991 0.50713 0.23356 0.0
C231 C 0.12194 0.51482 0.31148 0.0
O232 O 0.12872 0.53407 0.29574 0.0
O233 O 0.11965 0.48394 0.24817 0.0
C234 C 0.82528 0.59829 0.02907 0.0
O235 O 0.80634 0.58497 0.01712 0.0
O236 O 0.80255 0.66332 0.99667 0.0
Zn237 Zn 0.79353 0.63831 0.02593 0.0
O238 O 0.76121 0.61398 0.01767 0.0
C239 C 0.78672 0.67964 0.05614 0.0
O240 O 0.79207 0.69403 0.03601 0.0
O241 O 0.82349 0.62045 0.03435 0.0
C242 C 0.74003 0.62037 0.02217 0.0
O243 O 0.74009 0.64157 0.03256 0.0
C244 C 0.78575 0.67273 0.98363 0.0
O245 O 0.7617 0.66623 0.98916 0.0
O246 O 0.78696 0.6562 0.05596 0.0
C247 C 0.85051 0.05957 0.27942 0.0
O248 O 0.85249 0.04045 0.29516 0.0
O249 O 0.9072 0.03191 0.28149 0.0
Zn250 Zn 0.88314 0.03517 0.25244 0.0
O251 O 0.85966 0.0025 0.24658 0.0
C252 C 0.91422 0.03349 0.20942 0.0
O253 O 0.90841 0.00897 0.21312 0.0
O254 O 0.86197 0.06136 0.2592 0.0
C255 C 0.84707 1.00062 0.2263 0.0
O256 O 0.85024 0.01967 0.2098 0.0
C257 C 0.90695 0.01304 0.29674 0.0
O258 O 0.8895 0.99299 0.29424 0.0
O259 O 0.90505 0.04754 0.22323 0.0
C260 C 0.33267 0.10855 0.54049 0.0
O261 O 0.31629 0.10211 0.55813 0.0
O262 O 0.30079 0.17044 0.49721 0.0
Zn263 Zn 0.29588 0.13968 0.52077 0.0
O264 O 0.26686 0.11489 0.50707 0.0
C265 C 0.29596 0.17217 0.56031 0.0
O266 O 0.3129 0.18658 0.54647 0.0
O267 O 0.32799 0.12434 0.52325 0.0
C268 C 0.2502 0.10133 0.52046 0.0
O269 O 0.25197 0.10291 0.54444 0.0
C270 C 0.30301 0.16909 0.47423 0.0
O271 O 0.3028 0.14702 0.46549 0.0
O272 O 0.28653 0.15039 0.55358 0.0
C273 C 0.34906 0.57257 0.73846 0.0
O274 O 0.34195 0.55654 0.72143 0.0
O275 O 0.40582 0.53182 0.77948 0.0
Zn276 Zn 0.38416 0.53879 0.74927 0.0
O277 O 0.35629 0.50853 0.748 0.0
C278 C 0.42969 0.5531 0.72282 0.0
O279 O 0.43733 0.56058 0.74473 0.0
O280 O 0.36776 0.56937 0.75286 0.0
C281 C 0.35061 0.49364 0.73081 0.0
O282 O 0.3632 0.49784 0.71029 0.0
C283 C 0.41381 0.51091 0.78063 0.0
O284 O 0.40772 0.49593 0.76254 0.0
O285 O 0.40648 0.54328 0.71936 0.0
C286 C 0.71191 0.42294 0.50151 0.0
O287 O 0.71659 0.42474 0.47791 0.0
O288 O 0.74065 0.37102 0.47789 0.0
Zn289 Zn 0.75268 0.39244 0.50646 0.0
O290 O 0.78535 0.41653 0.4993 0.0
C291 C 0.76174 0.34613 0.5327 0.0
O292 O 0.75974 0.33795 0.51045 0.0
O293 O 0.72501 0.41068 0.51629 0.0
C294 C 0.80488 0.40699 0.49533 0.0
O295 O 0.80244 0.38245 0.49483 0.0
C296 C 0.74489 0.37549 0.45509 0.0
O297 O 0.75775 0.39734 0.44731 0.0
O298 O 0.75969 0.36884 0.53552 0.0
C299 C 0.66701 0.95806 0.80656 0.0
O300 O 0.66538 0.97627 0.82088 0.0
O301 O 0.60929 0.98652 0.80572 0.0
Zn302 Zn 0.63257 0.98388 0.7778 0.0
O303 O 0.65626 0.01708 0.77433 0.0
C304 C 0.60202 0.99304 0.73349 0.0
O305 O 0.60739 0.01656 0.73931 0.0
O306 O 0.65399 0.95681 0.78648 0.0
C307 C 0.6693 0.02713 0.75614 0.0
O308 O 0.66832 0.01529 0.73578 0.0
C309 C 0.60336 0.00791 0.80872 0.0
O310 O 0.61197 0.02697 0.79338 0.0
O311 O 0.61108 0.97628 0.74688 0.0
C312 C 0.04648 0.2565 0.93313 0.0
O313 O 0.05782 0.27987 0.93498 0.0
O314 O 0.98792 0.26719 0.87506 0.0
Zn315 Zn 0.02275 0.2786 0.89069 0.0
O316 O 0.02184 0.31054 0.90796 0.0
C317 C 0.04975 0.26616 0.85052 0.0
O318 O 0.03234 0.24586 0.85292 0.0
O319 O 0.03043 0.25134 0.91556 0.0
C320 C 0.00952 0.32706 0.89827 0.0
O321 O 0.9985 0.32368 0.87649 0.0
C322 C 0.98216 0.27225 0.85261 0.0
O323 O 0.99941 0.28559 0.83834 0.0
O324 O 0.04981 0.28368 0.86496 0.0
C325 C 0.50772 0.72642 0.42495 0.0
O326 O 0.48403 0.72983 0.42649 0.0
O327 O 0.47655 0.76056 0.37572 0.0
Zn328 Zn 0.51235 0.77028 0.38988 0.0
O329 O 0.51445 0.80053 0.41026 0.0
C330 C 0.55954 0.78785 0.36334 0.0
O331 O 0.56935 0.79395 0.38504 0.0
O332 O 0.52257 0.74116 0.41069 0.0
C333 C 0.52768 0.8028 0.43018 0.0
O334 O 0.54104 0.78528 0.43758 0.0
C335 C 0.45867 0.77243 0.37981 0.0
O336 O 0.46323 0.79118 0.39433 0.0
O337 O 0.53612 0.77815 0.36138 0.0
C338 C 0.0079 0.79716 0.59982 0.0
O339 O 0.99064 0.78111 0.58865 0.0
O340 O 0.97653 0.76665 0.66424 0.0
Zn341 Zn 0.00633 0.76122 0.64478 0.0
O342 O 0.99798 0.72845 0.62787 0.0
C343 C 0.04859 0.74389 0.67517 0.0
O344 O 0.04021 0.72113 0.66814 0.0
O345 O 0.01574 0.79163 0.6215 0.0
C346 C 0.00767 0.72427 0.60792 0.0
O347 O 0.02429 0.74199 0.59713 0.0
C348 C 0.96621 0.75023 0.6802 0.0
O349 O 0.97479 0.72887 0.6837 0.0
O350 O 0.03692 0.76175 0.66782 0.0
C351 C 0.52437 0.29754 0.09021 0.0
O352 O 0.52244 0.27816 0.07657 0.0
O353 O 0.48744 0.26193 0.15702 0.0
Zn354 Zn 0.51522 0.26055 0.13287 0.0
O355 O 0.50452 0.23125 0.11112 0.0
C356 C 0.55657 0.26938 0.16909 0.0
O357 O 0.54296 0.28514 0.17697 0.0
O358 O 0.52157 0.29389 0.11331 0.0
C359 C 0.49839 0.20965 0.12204 0.0
O360 O 0.49929 0.2077 0.14619 0.0
C361 C 0.48664 0.25165 0.17876 0.0
O362 O 0.50453 0.23886 0.1866 0.0
O363 O 0.54836 0.2566 0.15081 0.0
H364 H 0.2262 0.80711 0.83014 0.0
H365 H 0.22192 0.73579 0.87251 0.0
H366 H 0.22365 0.75775 0.91107 0.0
H367 H 0.27079 0.84293 0.87183 0.0
H368 H 0.25647 0.8708 0.8671 0.0
H369 H 0.25475 0.84941 0.84294 0.0
H370 H 0.20558 0.84523 0.84111 0.0
H371 H 0.20713 0.86648 0.86538 0.0
H372 H 0.18796 0.83567 0.86869 0.0
H373 H 0.22387 0.78711 0.9447 0.0
H374 H 0.22676 0.82223 0.97168 0.0
H375 H 0.23297 0.87504 0.90764 0.0
C376 C 0.22566 0.79617 0.84758 0.0
C377 C 0.22387 0.76977 0.84845 0.0
C378 C 0.22347 0.75605 0.87153 0.0
C379 C 0.22428 0.76833 0.89346 0.0
C380 C 0.22579 0.79436 0.89197 0.0
C381 C 0.22683 0.80818 0.86966 0.0
C382 C 0.22909 0.83603 0.87324 0.0
C383 C 0.25428 0.85065 0.86318 0.0
C384 C 0.20606 0.84646 0.8614 0.0
C385 C 0.22895 0.83569 0.90107 0.0
C386 C 0.2268 0.81142 0.91146 0.0
C387 C 0.22575 0.80621 0.93679 0.0
C388 C 0.22732 0.82633 0.95196 0.0
C389 C 0.23021 0.85146 0.94182 0.0
C390 C 0.23088 0.85609 0.91598 0.0
H391 H 0.05202 0.58973 0.40142 0.0
H392 H 0.02398 0.51838 0.44026 0.0
H393 H 0.04808 0.49687 0.41295 0.0
H394 H 0.04748 0.56632 0.34166 0.0
H395 H 0.07581 0.58658 0.33083 0.0
H396 H 0.05761 0.59644 0.35436 0.0
H397 H 0.0979 0.60312 0.383 0.0
H398 H 0.11623 0.59332 0.35952 0.0
H399 H 0.11535 0.57762 0.38981 0.0
H400 H 0.07484 0.48315 0.3808 0.0
H401 H 0.10061 0.47807 0.34533 0.0
H402 H 0.11006 0.55839 0.327 0.0
C403 C 0.05132 0.56964 0.40439 0.0
C404 C 0.03684 0.55581 0.42342 0.0
C405 C 0.03558 0.52941 0.42623 0.0
C406 C 0.04912 0.51704 0.41077 0.0
C407 C 0.06351 0.53129 0.39237 0.0
C408 C 0.06458 0.557 0.38905 0.0
C409 C 0.0805 0.56783 0.36723 0.0
C410 C 0.06438 0.58 0.34735 0.0
C411 C 0.10388 0.58658 0.37539 0.0
C412 C 0.08815 0.5442 0.35873 0.0
C413 C 0.07831 0.52333 0.37353 0.0
C414 C 0.08268 0.49938 0.36911 0.0
C415 C 0.09735 0.49668 0.34893 0.0
C416 C 0.10735 0.51781 0.33335 0.0
C417 C 0.10271 0.54184 0.33851 0.0
H418 H 0.76146 0.76945 0.87153 0.0
H419 H 0.84241 0.78046 0.85815 0.0
H420 H 0.84834 0.75056 0.89339 0.0
H421 H 0.76692 0.76486 0.93796 0.0
H422 H 0.73898 0.74103 0.94134 0.0
H423 H 0.74128 0.76349 0.91523 0.0
H424 H 0.73353 0.7271 0.88581 0.0
H425 H 0.73126 0.70454 0.91182 0.0
H426 H 0.75394 0.70365 0.88837 0.0
H427 H 0.84534 0.71936 0.93025 0.0
H428 H 0.8335 0.68881 0.96542 0.0
H429 H 0.75451 0.69831 0.9544 0.0
C430 C 0.78047 0.76577 0.87616 0.0
C431 C 0.80148 0.77728 0.86209 0.0
C432 C 0.826 0.77165 0.86852 0.0
C433 C 0.82957 0.7548 0.88858 0.0
C434 C 0.80844 0.74371 0.90201 0.0
C435 C 0.78436 0.74894 0.89605 0.0
C436 C 0.76475 0.73422 0.91319 0.0
C437 C 0.75225 0.75196 0.92779 0.0
C438 C 0.74469 0.71632 0.89894 0.0
C439 C 0.78155 0.71988 0.92971 0.0
C440 C 0.80669 0.72565 0.92303 0.0
C441 C 0.8257 0.7147 0.93564 0.0
C442 C 0.81879 0.69737 0.9556 0.0
C443 C 0.79308 0.69111 0.96267 0.0
C444 C 0.77432 0.70261 0.94947 0.0
H445 H 0.97418 0.96486 0.42062 0.0
H446 H 0.02657 0.03558 0.41665 0.0
H447 H 0.0054 0.04825 0.37763 0.0
H448 H 0.97061 0.95607 0.35485 0.0
H449 H 0.93727 0.94255 0.35479 0.0
H450 H 0.95698 0.93886 0.38199 0.0
H451 H 0.92616 0.9583 0.40752 0.0
H452 H 0.90639 0.96208 0.38041 0.0
H453 H 0.91879 0.98884 0.39786 0.0
H454 H 0.97769 0.0537 0.34013 0.0
H455 H 0.94593 0.05149 0.30589 0.0
H456 H 0.91149 0.97687 0.33397 0.0
C457 C 0.9811 0.98299 0.41145 0.0
C458 C 1.00163 0.99952 0.42169 0.0
C459 C 0.01059 0.02291 0.40915 0.0
C460 C 0.99875 0.03019 0.38702 0.0
C461 C 0.9782 0.01368 0.37762 0.0
C462 C 0.96952 0.99051 0.38933 0.0
C463 C 0.94696 0.97641 0.3754 0.0
C464 C 0.95335 0.95203 0.36621 0.0
C465 C 0.92317 0.97111 0.39124 0.0
C466 C 0.94407 0.99543 0.35421 0.0
C467 C 0.96235 0.01673 0.35581 0.0
C468 C 0.96336 0.03707 0.3386 0.0
C469 C 0.94517 0.03563 0.31923 0.0
C470 C 0.92618 0.01399 0.31719 0.0
C471 C 0.92577 0.99363 0.33495 0.0
H472 H 0.26692 0.28111 0.64016 0.0
H473 H 0.21161 0.2256 0.67882 0.0
H474 H 0.22545 0.19191 0.65671 0.0
H475 H 0.258 0.25499 0.58284 0.0
H476 H 0.29099 0.26232 0.57468 0.0
H477 H 0.27855 0.28143 0.59536 0.0
H478 H 0.3134 0.27355 0.62811 0.0
H479 H 0.326 0.2544 0.60746 0.0
H480 H 0.3168 0.24175 0.63786 0.0
H481 H 0.24276 0.16504 0.62755 0.0
H482 H 0.26228 0.14702 0.59404 0.0
H483 H 0.30652 0.22037 0.57485 0.0
C484 C 0.25804 0.2618 0.64421 0.0
C485 C 0.2382 0.25579 0.6611 0.0
C486 C 0.22686 0.23041 0.6659 0.0
C487 C 0.23462 0.21124 0.65348 0.0
C488 C 0.25391 0.21782 0.63651 0.0
C489 C 0.26557 0.24249 0.63199 0.0
C490 C 0.28478 0.24479 0.61189 0.0
C491 C 0.27764 0.26189 0.5899 0.0
C492 C 0.31185 0.25417 0.62194 0.0
C493 C 0.28168 0.21768 0.60536 0.0
C494 C 0.26395 0.20236 0.61988 0.0
C495 C 0.25692 0.17681 0.61629 0.0
C496 C 0.26808 0.16675 0.59719 0.0
C497 C 0.28604 0.18223 0.58188 0.0
C498 C 0.29311 0.20794 0.58638 0.0
H499 H 0.48043 0.5585 0.58541 0.0
H500 H 0.55606 0.56084 0.61857 0.0
H501 H 0.5383 0.55978 0.65989 0.0
H502 H 0.45674 0.59666 0.62818 0.0
H503 H 0.42524 0.57816 0.62892 0.0
H504 H 0.44387 0.57984 0.6018 0.0
H505 H 0.43877 0.53129 0.60399 0.0
H506 H 0.42013 0.52945 0.6311 0.0
H507 H 0.44816 0.5149 0.63185 0.0
H508 H 0.51297 0.55961 0.69717 0.0
H509 H 0.48102 0.55741 0.729 0.0
H510 H 0.42088 0.55253 0.67249 0.0
C511 C 0.49316 0.55888 0.60144 0.0
C512 C 0.5196 0.5598 0.59895 0.0
C513 C 0.53574 0.56002 0.62021 0.0
C514 C 0.52585 0.55951 0.64369 0.0
C515 C 0.49972 0.5585 0.6456 0.0
C516 C 0.4835 0.55794 0.62513 0.0
C517 C 0.45605 0.55597 0.63254 0.0
C518 C 0.44482 0.57903 0.62225 0.0
C519 C 0.43982 0.53144 0.62439 0.0
C520 C 0.45944 0.55566 0.66034 0.0
C521 C 0.48485 0.55739 0.66737 0.0
C522 C 0.49299 0.55811 0.69194 0.0
C523 C 0.47468 0.55692 0.70987 0.0
C524 C 0.44846 0.55472 0.70324 0.0
C525 C 0.44077 0.55401 0.67811 0.0
H526 H 0.78609 0.30573 0.6744 0.0
H527 H 0.77769 0.2289 0.65323 0.0
H528 H 0.77169 0.24341 0.60968 0.0
H529 H 0.73818 0.32392 0.63238 0.0
H530 H 0.75507 0.35535 0.62593 0.0
H531 H 0.75979 0.33906 0.65524 0.0
H532 H 0.8084 0.34593 0.6485 0.0
H533 H 0.80383 0.36227 0.61918 0.0
H534 H 0.82001 0.33553 0.62102 0.0
H535 H 0.76666 0.26624 0.56865 0.0
H536 H 0.76102 0.29551 0.53296 0.0
H537 H 0.77138 0.35751 0.581 0.0
C538 C 0.78329 0.29205 0.66051 0.0
C539 C 0.78309 0.26631 0.66698 0.0
C540 C 0.77857 0.24879 0.64849 0.0
C541 C 0.77508 0.25684 0.62377 0.0
C542 C 0.77576 0.28241 0.61795 0.0
C543 C 0.7796 0.29976 0.63579 0.0
C544 C 0.7786 0.32603 0.62472 0.0
C545 C 0.7566 0.33671 0.63519 0.0
C546 C 0.80424 0.34346 0.62859 0.0
C547 C 0.77359 0.32076 0.59787 0.0
C548 C 0.77215 0.2955 0.59436 0.0
C549 C 0.76773 0.28606 0.57116 0.0
C550 C 0.76458 0.30286 0.551 0.0
C551 C 0.76571 0.32881 0.55416 0.0
C552 C 0.77034 0.33779 0.57797 0.0
H553 H 0.51815 0.01664 0.6118 0.0
H554 H 0.49789 0.93561 0.60975 0.0
H555 H 0.52357 0.93033 0.64782 0.0
H556 H 0.582 0.0182 0.63323 0.0
H557 H 0.58226 0.04359 0.65305 0.0
H558 H 0.56154 0.04118 0.62608 0.0
H559 H 0.52253 0.04115 0.65296 0.0
H560 H 0.54317 0.04378 0.68001 0.0
H561 H 0.51652 0.01839 0.67869 0.0
H562 H 0.55291 0.93373 0.68502 0.0
H563 H 0.58233 0.94562 0.72001 0.0
H564 H 0.58269 0.02445 0.69862 0.0
C565 C 0.51874 0.99779 0.61958 0.0
C566 C 0.50607 0.97653 0.60767 0.0
C567 C 0.50771 0.95218 0.6183 0.0
C568 C 0.52215 0.94898 0.64 0.0
C569 C 0.53475 0.9703 0.65099 0.0
C570 C 0.53304 0.99424 0.64129 0.0
C571 C 0.54877 0.01399 0.65658 0.0
C572 C 0.56989 0.03019 0.64132 0.0
C573 C 0.53173 0.03029 0.66772 0.0
C574 C 0.55975 0.99739 0.67626 0.0
C575 C 0.55144 0.97226 0.67266 0.0
C576 C 0.55943 0.95335 0.68813 0.0
C577 C 0.57621 0.96031 0.70792 0.0
C578 C 0.5848 0.98596 0.71214 0.0
C579 C 0.57641 0.00468 0.696 0.0
H580 H 0.87462 0.23926 0.74818 0.0
H581 H 0.8212 0.21511 0.80668 0.0
H582 H 0.85561 0.22634 0.83755 0.0
H583 H 0.92812 0.21769 0.77768 0.0
H584 H 0.95093 0.24421 0.76659 0.0
H585 H 0.92205 0.23453 0.74896 0.0
H586 H 0.91097 0.27928 0.74937 0.0
H587 H 0.9399 0.28916 0.7669 0.0
H588 H 0.90969 0.29314 0.77836 0.0
H589 H 0.89611 0.23867 0.86211 0.0
H590 H 0.93955 0.25324 0.87863 0.0
H591 H 0.96608 0.27122 0.8042 0.0
C592 C 0.87002 0.23665 0.76746 0.0
C593 C 0.84518 0.22607 0.77495 0.0
C594 C 0.84015 0.22269 0.80043 0.0
C595 C 0.85954 0.22917 0.81814 0.0
C596 C 0.88383 0.23926 0.81011 0.0
C597 C 0.8891 0.24319 0.78539 0.0
C598 C 0.91685 0.25431 0.78168 0.0
C599 C 0.93027 0.23662 0.76792 0.0
C600 C 0.91949 0.28053 0.76829 0.0
C601 C 0.92638 0.25582 0.80818 0.0
C602 C 0.90705 0.24696 0.82429 0.0
C603 C 0.91137 0.24583 0.84969 0.0
C604 C 0.93612 0.25407 0.85889 0.0
C605 C 0.95617 0.26347 0.84272 0.0
C606 C 0.95112 0.26435 0.81704 0.0
H607 H 0.48631 0.93076 0.4657 0.0
H608 H 0.53494 0.92773 0.53111 0.0
H609 H 0.54665 0.88805 0.51875 0.0
H610 H 0.46318 0.86405 0.46538 0.0
H611 H 0.46285 0.86359 0.43232 0.0
H612 H 0.45831 0.89157 0.44645 0.0
H613 H 0.49602 0.91729 0.42231 0.0
H614 H 0.5007 0.88938 0.40814 0.0
H615 H 0.52669 0.90738 0.42478 0.0
H616 H 0.55336 0.84912 0.49887 0.0
H617 H 0.55405 0.81319 0.47348 0.0
H618 H 0.50086 0.8417 0.42093 0.0
C619 C 0.49949 0.92173 0.47731 0.0
C620 C 0.51013 0.93236 0.49913 0.0
C621 C 0.52696 0.91992 0.51416 0.0
C622 C 0.53364 0.89743 0.5073 0.0
C623 C 0.52313 0.8876 0.48546 0.0
C624 C 0.50635 0.89929 0.47072 0.0
C625 C 0.49772 0.88477 0.44822 0.0
C626 C 0.4688 0.87544 0.4481 0.0
C627 C 0.50577 0.90066 0.42446 0.0
C628 C 0.51237 0.86316 0.45251 0.0
C629 C 0.52688 0.86512 0.4741 0.0
C630 C 0.54205 0.84737 0.48194 0.0
C631 C 0.54233 0.82703 0.46736 0.0
C632 C 0.52755 0.8246 0.44518 0.0
C633 C 0.51242 0.843 0.43774 0.0
H634 H 0.18235 0.31344 0.78554 0.0
H635 H 0.15139 0.27039 0.72347 0.0
H636 H 0.11128 0.2567 0.7452 0.0
H637 H 0.1534 0.27156 0.83328 0.0
H638 H 0.14679 0.29603 0.85165 0.0
H639 H 0.17341 0.30203 0.83151 0.0
H640 H 0.15584 0.34002 0.81008 0.0
H641 H 0.12921 0.33421 0.83022 0.0
H642 H 0.12377 0.33558 0.79732 0.0
H643 H 0.07502 0.24646 0.77428 0.0
H644 H 0.04417 0.24263 0.80752 0.0
H645 H 0.09729 0.29524 0.84895 0.0
C646 C 0.1671 0.30144 0.77624 0.0
C647 C 0.17032 0.2929 0.75274 0.0
C648 C 0.1498 0.2768 0.74164 0.0
C649 C 0.1268 0.26906 0.75376 0.0
C650 C 0.12438 0.27782 0.77685 0.0
C651 C 0.14386 0.29387 0.78786 0.0
C652 C 0.1362 0.30095 0.81259 0.0
C653 C 0.15348 0.29211 0.83349 0.0
C654 C 0.13626 0.32938 0.81254 0.0
C655 C 0.1094 0.28621 0.81384 0.0
C656 C 0.10305 0.27282 0.79312 0.0
C657 C 0.07969 0.25704 0.79048 0.0
C658 C 0.06234 0.25492 0.80948 0.0
C659 C 0.0683 0.26876 0.8307 0.0
C660 C 0.09211 0.28469 0.83279 0.0
H661 H 0.50003 0.6056 0.51964 0.0
H662 H 0.58101 0.60941 0.5094 0.0
H663 H 0.58097 0.64606 0.48009 0.0
H664 H 0.48356 0.6236 0.45695 0.0
H665 H 0.4606 0.64224 0.46523 0.0
H666 H 0.46671 0.6159 0.48522 0.0
H667 H 0.47739 0.64499 0.52138 0.0
H668 H 0.47128 0.67142 0.50151 0.0
H669 H 0.50151 0.67262 0.51782 0.0
H670 H 0.57256 0.68226 0.45216 0.0
H671 H 0.55626 0.71625 0.42744 0.0
H672 H 0.48085 0.68999 0.45613 0.0
C673 C 0.51776 0.61421 0.51131 0.0
C674 C 0.54046 0.60438 0.51665 0.0
C675 C 0.56325 0.61618 0.50523 0.0
C676 C 0.56348 0.63715 0.48867 0.0
C677 C 0.54082 0.64626 0.48374 0.0
C678 C 0.51837 0.63526 0.49471 0.0
C679 C 0.49673 0.649 0.48625 0.0
C680 C 0.47566 0.63165 0.4726 0.0
C681 C 0.48611 0.66017 0.50804 0.0
C682 C 0.51059 0.66944 0.46887 0.0
C683 C 0.53599 0.66743 0.4677 0.0
C684 C 0.55271 0.68405 0.45291 0.0
C685 C 0.54324 0.7033 0.43891 0.0
C686 C 0.51727 0.70583 0.43981 0.0
C687 C 0.50079 0.6886 0.45504 0.0
H688 H 0.87498 0.83515 0.73365 0.0
H689 H 0.84764 0.77197 0.78437 0.0
H690 H 0.87465 0.74631 0.76513 0.0
H691 H 0.87933 0.79914 0.68017 0.0
H692 H 0.90813 0.81899 0.66987 0.0
H693 H 0.88556 0.83185 0.68679 0.0
H694 H 0.92111 0.84732 0.71875 0.0
H695 H 0.94376 0.83445 0.70198 0.0
H696 H 0.93909 0.82515 0.73409 0.0
H697 H 0.90586 0.72807 0.7413 0.0
H698 H 0.93927 0.7187 0.715 0.0
H699 H 0.94647 0.79396 0.67991 0.0
C700 C 0.87438 0.81578 0.74039 0.0
C701 C 0.85875 0.80532 0.7601 0.0
C702 C 0.85904 0.78015 0.76895 0.0
C703 C 0.87436 0.76547 0.75817 0.0
C704 C 0.88946 0.77631 0.73868 0.0
C705 C 0.8896 0.80089 0.72987 0.0
C706 C 0.90831 0.80834 0.70937 0.0
C707 C 0.8945 0.81496 0.68511 0.0
C708 C 0.92931 0.8301 0.71649 0.0
C709 C 0.91879 0.78416 0.70814 0.0
C710 C 0.90762 0.76589 0.72514 0.0
C711 C 0.91465 0.74219 0.72783 0.0
C712 C 0.93367 0.73705 0.71281 0.0
C713 C 0.94549 0.75554 0.69534 0.0
C714 C 0.93775 0.77934 0.69297 0.0
H715 H 0.03733 0.90192 0.489 0.0
H716 H 0.07757 0.95095 0.54293 0.0
H717 H 0.06791 0.91706 0.57534 0.0
H718 H 0.98648 0.87311 0.52868 0.0
H719 H 0.98399 0.84253 0.51669 0.0
H720 H 0.99478 0.87035 0.49735 0.0
H721 H 0.03595 0.85332 0.48886 0.0
H722 H 0.02531 0.82545 0.50818 0.0
H723 H 0.05582 0.84446 0.51438 0.0
H724 H 0.05422 0.8783 0.60187 0.0
H725 H 0.0364 0.83704 0.62137 0.0
H726 H 1.00308 0.8133 0.55093 0.0
C727 C 0.04399 0.90563 0.50764 0.0
C728 C 0.05847 0.92911 0.51329 0.0
C729 C 0.06697 0.933 0.53795 0.0
C730 C 0.0614 0.91392 0.55656 0.0
C731 C 0.04714 0.89108 0.55034 0.0
C732 C 0.03842 0.88684 0.52654 0.0
C733 C 0.0231 0.86063 0.52496 0.0
C734 C 0.99545 0.86173 0.51642 0.0
C735 C 0.03581 0.84505 0.5081 0.0
C736 C 0.0246 0.85084 0.55162 0.0
C737 C 0.03867 0.86874 0.56586 0.0
C738 C 0.04311 0.86414 0.59095 0.0
C739 C 0.03291 0.84059 0.60183 0.0
C740 C 0.01828 0.82191 0.5877 0.0
C741 C 0.01404 0.82721 0.56225 0.0
H742 H 0.16576 0.71278 0.76152 0.0
H743 H 0.18698 0.79306 0.76894 0.0
H744 H 0.15117 0.80059 0.74092 0.0
H745 H 0.14613 0.71693 0.69634 0.0
H746 H 0.12006 0.69106 0.69991 0.0
H747 H 0.14807 0.69205 0.71971 0.0
H748 H 0.11994 0.68816 0.75792 0.0
H749 H 0.09188 0.68736 0.73826 0.0
H750 H 0.099 0.7106 0.76083 0.0
H751 H 0.11218 0.7994 0.71392 0.0
H752 H 0.07309 0.78984 0.68829 0.0
H753 H 0.07718 0.71024 0.69753 0.0
C754 C 0.16314 0.73197 0.7569 0.0
C755 C 0.17914 0.75235 0.76747 0.0
C756 C 0.1748 0.77715 0.76129 0.0
C757 C 0.15459 0.78162 0.74531 0.0
C758 C 0.13893 0.76111 0.73556 0.0
C759 C 0.14302 0.73678 0.74095 0.0
C760 C 0.12292 0.71808 0.72844 0.0
C761 C 0.13502 0.70369 0.71 0.0
C762 C 0.10753 0.69999 0.7475 0.0
C763 C 0.10676 0.73571 0.71539 0.0
C764 C 0.1164 0.76044 0.71976 0.0
C765 C 0.10453 0.78013 0.71022 0.0
C766 C 0.08226 0.77446 0.69573 0.0
C767 C 0.07203 0.74927 0.69083 0.0
C768 C 0.08455 0.72968 0.70083 0.0
H769 H 0.99868 0.6259 0.50382 0.0
H770 H 0.9625 0.56887 0.55715 0.0
H771 H 0.96405 0.60107 0.58727 0.0
H772 H 0.04263 0.65814 0.54693 0.0
H773 H 0.04149 0.68887 0.53238 0.0
H774 H 0.0358 0.6617 0.51433 0.0
H775 H 0.99227 0.67301 0.49903 0.0
H776 H 0.99783 0.70023 0.51703 0.0
H777 H 0.96935 0.67722 0.52116 0.0
H778 H 0.9703 0.63943 0.61205 0.0
H779 H 0.98204 0.68073 0.62989 0.0
H780 H 0.01663 0.71203 0.56134 0.0
C781 C 0.99115 0.62004 0.52183 0.0
C782 C 0.98027 0.5947 0.52788 0.0
C783 C 0.9704 0.58814 0.5517 0.0
C784 C 0.97137 0.6063 0.56907 0.0
C785 C 0.98245 0.63096 0.56252 0.0
C786 C 0.99226 0.63783 0.5395 0.0
C787 C 1.00406 0.6654 0.5374 0.0
C788 C 0.03269 0.66871 0.53247 0.0
C789 C 0.99003 0.67981 0.51747 0.0
C790 C 0.99949 0.67294 0.56289 0.0
C791 C 0.98678 0.65286 0.57702 0.0
C792 C 0.98028 0.65528 0.60115 0.0
C793 C 0.98701 0.67883 0.61112 0.0
C794 C 1.00033 0.6996 0.59706 0.0
C795 C 0.00659 0.6965 0.57262 0.0
H796 H 0.75696 0.86873 0.25798 0.0
H797 H 0.73938 0.86577 0.17974 0.0
H798 H 0.76665 0.90714 0.17217 0.0
H799 H 0.75956 0.93612 0.26154 0.0
H800 H 0.78607 0.93938 0.28336 0.0
H801 H 0.76409 0.91014 0.28281 0.0
H802 H 0.8016 0.88649 0.27713 0.0
H803 H 0.82367 0.91565 0.27754 0.0
H804 H 0.8226 0.89617 0.25185 0.0
H805 H 0.79575 0.94838 0.17294 0.0
H806 H 0.82622 0.98666 0.18178 0.0
H807 H 0.82681 0.96238 0.25939 0.0
C808 C 0.75869 0.87702 0.23934 0.0
C809 C 0.74607 0.86424 0.21941 0.0
C810 C 0.749 0.87534 0.19519 0.0
C811 C 0.76437 0.8988 0.19074 0.0
C812 C 0.77683 0.91082 0.2107 0.0
C813 C 0.77429 0.90033 0.23451 0.0
C814 C 0.79066 0.91683 0.25248 0.0
C815 C 0.7741 0.92617 0.27115 0.0
C816 C 0.81083 0.90295 0.26551 0.0
C817 C 0.80278 0.93816 0.23502 0.0
C818 C 0.79435 0.93437 0.21104 0.0
C819 C 0.80255 0.95156 0.19163 0.0
C820 C 0.81984 0.97325 0.19685 0.0
C821 C 0.82896 0.97747 0.22123 0.0
C822 C 0.82032 0.95959 0.24053 0.0
H823 H 0.79313 0.18673 0.25805 0.0
H824 H 0.76658 0.17422 0.33275 0.0
H825 H 0.78333 0.13415 0.33708 0.0
H826 H 0.77983 0.12163 0.24198 0.0
H827 H 0.80809 0.12431 0.22425 0.0
H828 H 0.79304 0.15136 0.22676 0.0
H829 H 0.83556 0.17618 0.24333 0.0
H830 H 0.85073 0.14921 0.2409 0.0
H831 H 0.85138 0.16345 0.26993 0.0
H832 H 0.80354 0.09589 0.33337 0.0
H833 H 0.82689 0.06274 0.32249 0.0
H834 H 0.84104 0.10071 0.25034 0.0
C835 C 0.7906 0.17537 0.27519 0.0
C836 C 0.77809 0.18319 0.29492 0.0
C837 C 0.77568 0.16822 0.3173 0.0
C838 C 0.78516 0.14551 0.31992 0.0
C839 C 0.79722 0.13822 0.30004 0.0
C840 C 0.80005 0.15273 0.27814 0.0
C841 C 0.81453 0.14106 0.25991 0.0
C842 C 0.79787 0.13418 0.23687 0.0
C843 C 0.83953 0.15852 0.25313 0.0
C844 C 0.81954 0.11779 0.27503 0.0
C845 C 0.80928 0.11643 0.29807 0.0
C846 C 0.81163 0.09673 0.31537 0.0
C847 C 0.82493 0.07797 0.309 0.0
C848 C 0.83583 0.0791 0.28557 0.0
C849 C 0.83294 0.09928 0.26839 0.0
H850 H 0.39468 0.0327 0.99507 0.0
H851 H 0.45125 0.98666 0.98132 0.0
H852 H 0.41753 0.94948 0.97989 0.0
H853 H 0.35725 0.98669 0.03545 0.0
H854 H 0.32721 0.99489 0.02449 0.0
H855 H 0.35565 0.01825 0.0234 0.0
H856 H 0.34775 0.02681 0.9766 0.0
H857 H 0.31932 0.00339 0.97753 0.0
H858 H 0.34408 1.00112 0.95664 0.0
H859 H 0.37818 0.91719 0.98051 0.0
H860 H 0.33562 0.89135 0.98449 0.0
H861 H 0.3043 0.9577 0.99914 0.0
C862 C 0.40002 0.01479 0.99187 0.0
C863 C 0.42567 0.01274 0.98804 0.0
C864 C 0.43173 0.98891 0.98376 0.0
C865 C 0.41272 0.96761 0.98306 0.0
C866 C 0.38769 0.97033 0.98679 0.0
C867 C 0.38126 0.99324 0.99123 0.0
C868 C 0.35293 0.99079 0.99525 0.0
C869 C 0.34798 0.99808 0.02119 0.0
C870 C 0.34028 0.00646 0.97531 0.0
C871 C 0.34451 0.96287 0.99252 0.0
C872 C 0.36489 0.95151 0.98751 0.0
C873 C 0.36205 0.92586 0.98441 0.0
C874 C 0.33776 0.91134 0.9867 0.0
C875 C 0.31657 0.92245 0.99215 0.0
C876 C 0.32007 0.94863 0.99492 0.0
H877 H 0.27886 0.36403 0.3377 0.0
H878 H 0.26303 0.33154 0.26693 0.0
H879 H 0.23207 0.35999 0.25643 0.0
H880 H 0.21431 0.37291 0.34847 0.0
H881 H 0.22423 0.40244 0.36235 0.0
H882 H 0.24469 0.37905 0.36464 0.0
H883 H 0.28121 0.41145 0.34538 0.0
H884 H 0.26088 0.43492 0.34303 0.0
H885 H 0.27581 0.42744 0.31603 0.0
H886 H 0.20313 0.39186 0.25346 0.0
H887 H 0.17895 0.42621 0.25748 0.0
H888 H 0.2138 0.4388 0.33 0.0
C889 C 0.26869 0.36279 0.32009 0.0
C890 C 0.27335 0.3456 0.30309 0.0
C891 C 0.25994 0.34474 0.2801 0.0
C892 C 0.24222 0.36072 0.27404 0.0
C893 C 0.23817 0.37751 0.29114 0.0
C894 C 0.25105 0.37875 0.31366 0.0
C895 C 0.24361 0.39904 0.32837 0.0
C896 C 0.23095 0.38767 0.35238 0.0
C897 C 0.26675 0.41942 0.3335 0.0
C898 C 0.2246 0.40905 0.31055 0.0
C899 C 0.22166 0.39622 0.28927 0.0
C900 C 0.20525 0.40204 0.27004 0.0
C901 C 0.19157 0.4216 0.27253 0.0
C902 C 0.19445 0.43527 0.29405 0.0
C903 C 0.21116 0.42875 0.31332 0.0
H904 H 0.11873 0.00531 0.51821 0.0
H905 H 0.12331 0.00791 0.4387 0.0
H906 H 0.16416 0.03732 0.44112 0.0
H907 H 0.14454 0.0699 0.52554 0.0
H908 H 0.16183 0.06371 0.55377 0.0
H909 H 0.13307 0.04285 0.54568 0.0
H910 H 0.1575 0.00521 0.54939 0.0
H911 H 0.18635 0.02596 0.5575 0.0
H912 H 0.18568 0.00655 0.53181 0.0
H913 H 0.2046 0.06649 0.45237 0.0
H914 H 0.24117 0.0936 0.47144 0.0
H915 H 0.21019 0.07129 0.54364 0.0
C916 C 0.12843 0.01184 0.5013 0.0
C917 C 0.11783 0.00424 0.47824 0.0
C918 C 0.13093 0.01364 0.45654 0.0
C919 C 0.15421 0.03024 0.45774 0.0
C920 C 0.16412 0.03726 0.48079 0.0
C921 C 0.15163 0.02837 0.50216 0.0
C922 C 0.16619 0.03898 0.5246 0.0
C923 C 0.15047 0.0548 0.53819 0.0
C924 C 0.17442 0.01792 0.54183 0.0
C925 C 0.18886 0.05525 0.51252 0.0
C926 C 0.18734 0.054 0.48725 0.0
C927 C 0.206 0.06759 0.47215 0.0
C928 C 0.22671 0.08293 0.48317 0.0
C929 C 0.2286 0.08458 0.50906 0.0
C930 C 0.20939 0.07042 0.52383 0.0
H931 H 0.76824 0.14999 0.71381 0.0
H932 H 0.76295 0.17532 0.78702 0.0
H933 H 0.73185 0.13722 0.79765 0.0
H934 H 0.7014 0.12235 0.70621 0.0
H935 H 0.70799 0.09623 0.69017 0.0
H936 H 0.72942 0.12584 0.68799 0.0
H937 H 0.76691 0.10347 0.70329 0.0
H938 H 0.7456 0.07381 0.70559 0.0
H939 H 0.76458 0.08478 0.73205 0.0
H940 H 0.70208 0.0966 0.8007 0.0
H941 H 0.67533 0.05529 0.79629 0.0
H942 H 0.69961 0.05558 0.72106 0.0
C943 C 0.76031 0.14759 0.73198 0.0
C944 C 0.76806 0.16555 0.74965 0.0
C945 C 0.75751 0.16164 0.77333 0.0
C946 C 0.73974 0.14015 0.77949 0.0
C947 C 0.7327 0.12272 0.76177 0.0
C948 C 0.74259 0.12613 0.7385 0.0
C949 C 0.73211 0.10412 0.72314 0.0
C950 C 0.71682 0.11265 0.70054 0.0
C951 C 0.75359 0.09076 0.71558 0.0
C952 C 0.7149 0.0878 0.74149 0.0
C953 C 0.7155 0.099 0.7636 0.0
C954 C 0.7014 0.08763 0.78348 0.0
C955 C 0.68626 0.06412 0.78076 0.0
C956 C 0.68535 0.05212 0.75832 0.0
C957 C 0.69988 0.06423 0.73844 0.0
H958 H 0.42627 0.01203 0.58408 0.0
H959 H 0.46684 0.0353 0.51674 0.0
H960 H 0.43903 0.06692 0.50661 0.0
H961 H 0.36491 0.01626 0.55877 0.0
H962 H 0.35344 0.02778 0.58573 0.0
H963 H 0.37786 0.00847 0.58882 0.0
H964 H 0.40727 0.043 0.61204 0.0
H965 H 0.38288 0.06241 0.6091 0.0
H966 H 0.41428 0.07444 0.59798 0.0
H967 H 0.40579 0.09457 0.50283 0.0
H968 H 0.36863 0.11581 0.50504 0.0
H969 H 0.34878 0.07411 0.57447 0.0
C970 C 0.42954 0.02413 0.56745 0.0
C971 C 0.44875 0.02135 0.55121 0.0
C972 C 0.45216 0.03711 0.52935 0.0
C973 C 0.43655 0.05517 0.52351 0.0
C974 C 0.41753 0.0572 0.5397 0.0
C975 C 0.41392 0.04212 0.56121 0.0
C976 C 0.39116 0.0472 0.57468 0.0
C977 C 0.37063 0.02352 0.57713 0.0
C978 C 0.3994 0.05737 0.59995 0.0
C979 C 0.38237 0.06725 0.55722 0.0
C980 C 0.39801 0.07289 0.53729 0.0
C981 C 0.39347 0.09041 0.51842 0.0
C982 C 0.37228 0.10238 0.51984 0.0
C983 C 0.35573 0.09668 0.53993 0.0
C984 C 0.36106 0.07898 0.55891 0.0
H985 H 0.5957 0.49958 0.49312 0.0
H986 H 0.58656 0.48142 0.57129 0.0
H987 H 0.62316 0.45861 0.57221 0.0
H988 H 0.61234 0.4405 0.47863 0.0
H989 H 0.63521 0.45449 0.45607 0.0
H990 H 0.60852 0.46949 0.46171 0.0
H991 H 0.6394 0.51045 0.47094 0.0
H992 H 0.66619 0.49555 0.46539 0.0
H993 H 0.66427 0.50949 0.49422 0.0
H994 H 0.66059 0.43798 0.56454 0.0
H995 H 0.69595 0.42012 0.54889 0.0
H996 H 0.68052 0.45136 0.47538 0.0
C997 C 0.60139 0.49066 0.51037 0.0
C998 C 0.58826 0.49192 0.53214 0.0
C999 C 0.59633 0.48035 0.55444 0.0
C1000 C 0.61706 0.46746 0.55512 0.0
C1001 C 0.62953 0.46641 0.5333 0.0
C1002 C 0.62199 0.47765 0.51133 0.0
C1003 C 0.63857 0.4736 0.49051 0.0
C1004 C 0.62271 0.45862 0.47055 0.0
C1005 C 0.65296 0.49877 0.47963 0.0
C1006 C 0.65658 0.45828 0.50419 0.0
C1007 C 0.65108 0.45444 0.52887 0.0
C1008 C 0.66508 0.44085 0.54525 0.0
C1009 C 0.68516 0.4308 0.53616 0.0
C1010 C 0.69105 0.4343 0.51088 0.0
C1011 C 0.67653 0.44832 0.49478 0.0
H1012 H 0.73256 0.30987 0.32652 0.0
H1013 H 0.70873 0.23928 0.36839 0.0
H1014 H 0.71036 0.2619 0.40647 0.0
H1015 H 0.77749 0.33662 0.37192 0.0
H1016 H 0.77108 0.36816 0.36609 0.0
H1017 H 0.76638 0.34671 0.34182 0.0
H1018 H 0.71966 0.35384 0.33552 0.0
H1019 H 0.72421 0.3753 0.35981 0.0
H1020 H 0.69882 0.34861 0.36129 0.0
H1021 H 0.71493 0.29168 0.43978 0.0
H1022 H 0.72495 0.32651 0.46722 0.0
H1023 H 0.74786 0.37817 0.40443 0.0
C1024 C 0.72745 0.29931 0.34372 0.0
C1025 C 0.72041 0.27288 0.34464 0.0
C1026 C 0.71424 0.25953 0.36743 0.0
C1027 C 0.71499 0.27221 0.38907 0.0
C1028 C 0.72215 0.29824 0.38763 0.0
C1029 C 0.72848 0.31167 0.36562 0.0
C1030 C 0.73689 0.3394 0.36952 0.0
C1031 C 0.76461 0.34823 0.36189 0.0
C1032 C 0.71881 0.35522 0.35571 0.0
C1033 C 0.73444 0.33938 0.39716 0.0
C1034 C 0.7256 0.31545 0.40713 0.0
C1035 C 0.72186 0.31051 0.43222 0.0
C1036 C 0.72759 0.33048 0.44766 0.0
C1037 C 0.73726 0.35513 0.43804 0.0
C1038 C 0.74051 0.35958 0.41238 0.0
H1039 H 0.53705 0.08857 0.89605 0.0
H1040 H 0.50452 0.01875 0.93519 0.0
H1041 H 0.52618 0.99509 0.90774 0.0
H1042 H 0.53078 0.06475 0.83596 0.0
H1043 H 0.56023 0.08318 0.82539 0.0
H1044 H 0.54279 0.09455 0.84862 0.0
H1045 H 0.58277 0.09873 0.87773 0.0
H1046 H 0.60034 0.08741 0.85456 0.0
H1047 H 0.59813 0.07181 0.88489 0.0
H1048 H 0.55185 0.97913 0.87594 0.0
H1049 H 0.57822 0.97216 0.84151 0.0
H1050 H 0.59279 0.05248 0.82276 0.0
C1051 C 0.53474 0.06833 0.89897 0.0
C1052 C 0.51969 0.05553 0.91813 0.0
C1053 C 0.51646 0.02896 0.92097 0.0
C1054 C 0.52863 0.01537 0.90544 0.0
C1055 C 0.54364 0.02861 0.88693 0.0
C1056 C 0.54662 0.05449 0.88356 0.0
C1057 C 0.56324 0.06418 0.86193 0.0
C1058 C 0.54836 0.07744 0.84179 0.0
C1059 C 0.58756 0.08155 0.87029 0.0
C1060 C 0.56918 0.03973 0.85367 0.0
C1061 C 0.55781 0.01941 0.86834 0.0
C1062 C 0.5608 0.99491 0.86429 0.0
C1063 C 0.57581 0.99113 0.84472 0.0
C1064 C 0.5875 0.01173 0.82938 0.0
C1065 C 0.58403 0.03628 0.83403 0.0
H1066 H 0.31137 0.24767 0.34458 0.0
H1067 H 0.30484 0.31352 0.38347 0.0
H1068 H 0.30335 0.28795 0.42295 0.0
H1069 H 0.26899 0.20362 0.38168 0.0
H1070 H 0.28729 0.17866 0.38055 0.0
H1071 H 0.28829 0.20229 0.35554 0.0
H1072 H 0.33746 0.21244 0.36048 0.0
H1073 H 0.33663 0.18883 0.38552 0.0
H1074 H 0.35178 0.22068 0.38999 0.0
H1075 H 0.30258 0.25502 0.45816 0.0
H1076 H 0.30131 0.21712 0.4863 0.0
H1077 H 0.30834 0.17291 0.42413 0.0
C1078 C 0.30991 0.25679 0.36142 0.0
C1079 C 0.30832 0.28262 0.36097 0.0
C1080 C 0.30589 0.29372 0.38338 0.0
C1081 C 0.30518 0.27939 0.40588 0.0
C1082 C 0.30684 0.25398 0.40564 0.0
C1083 C 0.30908 0.24277 0.38399 0.0
C1084 C 0.31002 0.21504 0.38867 0.0
C1085 C 0.28729 0.19896 0.37585 0.0
C1086 C 0.33549 0.2089 0.38069 0.0
C1087 C 0.3079 0.21234 0.41637 0.0
C1088 C 0.30619 0.23503 0.42583 0.0
C1089 C 0.30393 0.23717 0.45095 0.0
C1090 C 0.30324 0.21552 0.46679 0.0
C1091 C 0.30472 0.192 0.45745 0.0
C1092 C 0.30719 0.19056 0.43189 0.0
H1093 H 0.49419 0.52629 0.90753 0.0
H1094 H 0.50501 0.44904 0.90401 0.0
H1095 H 0.48068 0.44644 0.86434 0.0
H1096 H 0.43008 0.51734 0.88322 0.0
H1097 H 0.4336 0.54741 0.86618 0.0
H1098 H 0.45263 0.54348 0.89378 0.0
H1099 H 0.49374 0.55924 0.86954 0.0
H1100 H 0.47483 0.56327 0.84187 0.0
H1101 H 0.49925 0.54395 0.84236 0.0
H1102 H 0.45524 0.45229 0.82532 0.0
H1103 H 0.42927 0.46556 0.78999 0.0
H1104 H 0.43404 0.5389 0.81931 0.0
C1105 C 0.49163 0.50894 0.89823 0.0
C1106 C 0.50193 0.48801 0.90845 0.0
C1107 C 0.49768 0.4654 0.89615 0.0
C1108 C 0.48387 0.46376 0.8737 0.0
C1109 C 0.47418 0.48481 0.86398 0.0
C1110 C 0.47778 0.50695 0.87587 0.0
C1111 C 0.46477 0.52659 0.86179 0.0
C1112 C 0.44404 0.53414 0.87716 0.0
C1113 C 0.48432 0.54962 0.85339 0.0
C1114 C 0.45326 0.51203 0.84013 0.0
C1115 C 0.45902 0.48801 0.84172 0.0
C1116 C 0.45059 0.47104 0.82387 0.0
C1117 C 0.43586 0.47878 0.80386 0.0
C1118 C 0.42956 0.50326 0.80187 0.0
C1119 C 0.43845 0.52005 0.82031 0.0
H1120 H 0.73535 0.78209 0.13003 0.0
H1121 H 0.71929 0.72535 0.18995 0.0
H1122 H 0.73892 0.6958 0.16714 0.0
H1123 H 0.72058 0.74096 0.08187 0.0
H1124 H 0.74534 0.75706 0.06216 0.0
H1125 H 0.73179 0.77414 0.08398 0.0
H1126 H 0.77676 0.78922 0.10286 0.0
H1127 H 0.79047 0.77217 0.08106 0.0
H1128 H 0.79632 0.76637 0.11359 0.0
H1129 H 0.75824 0.67194 0.13678 0.0
H1130 H 0.77523 0.6552 0.10106 0.0
H1131 H 0.77849 0.72774 0.06092 0.0
C1132 C 0.73629 0.76354 0.13845 0.0
C1133 C 0.72611 0.75596 0.16182 0.0
C1134 C 0.72727 0.73146 0.17215 0.0
C1135 C 0.73836 0.71464 0.15935 0.0
C1136 C 0.74815 0.72265 0.13625 0.0
C1137 C 0.74723 0.74653 0.12591 0.0
C1138 C 0.75803 0.75012 0.10038 0.0
C1139 C 0.73772 0.7559 0.08096 0.0
C1140 C 0.78181 0.77069 0.09943 0.0
C1141 C 0.76484 0.72441 0.09782 0.0
C1142 C 0.75915 0.70889 0.11875 0.0
C1143 C 0.76295 0.68399 0.12037 0.0
C1144 C 0.77261 0.67465 0.09996 0.0
C1145 C 0.77829 0.69016 0.07819 0.0
C1146 C 0.77456 0.71544 0.07733 0.0
H1147 H 1.00279 0.03675 0.09345 0.0
H1148 H 0.03153 0.11479 0.10725 0.0
H1149 H 1.00302 0.1117 0.1421 0.0
H1150 H 0.93815 0.03612 0.10853 0.0
H1151 H 0.93378 0.00513 0.12376 0.0
H1152 H 0.95638 0.01321 0.0996 0.0
H1153 H 0.99218 1.0007 0.12897 0.0
H1154 H 0.96965 0.99239 0.15317 0.0
H1155 H 0.99824 0.01483 0.15812 0.0
H1156 H 0.97054 0.101 0.17437 0.0
H1157 H 0.93833 0.08222 0.20444 0.0
H1158 H 0.93202 0.01036 0.17173 0.0
C1159 C 1.00332 0.05311 0.10396 0.0
C1160 C 0.01918 0.07615 0.09724 0.0
C1161 C 0.01912 0.09712 0.1115 0.0
C1162 C 1.0031 0.09553 0.13148 0.0
C1163 C 0.98742 0.07275 0.13728 0.0
C1164 C 0.98759 0.0518 0.12419 0.0
C1165 C 0.96905 0.0295 0.13465 0.0
C1166 C 0.9481 0.02047 0.11549 0.0
C1167 C 0.98313 0.00809 0.1443 0.0
C1168 C 0.95839 0.04128 0.15555 0.0
C1169 C 0.96916 0.0663 0.15657 0.0
C1170 C 0.96207 0.08138 0.17389 0.0
C1171 C 0.94367 0.07054 0.19084 0.0
C1172 C 0.93268 0.0448 0.19052 0.0
C1173 C 0.94015 0.03005 0.17254 0.0
H1174 H 0.27251 0.81225 0.18136 0.0
H1175 H 0.27221 0.73572 0.16231 0.0
H1176 H 0.26607 0.74854 0.1183 0.0
H1177 H 0.22373 0.82531 0.13695 0.0
H1178 H 0.23838 0.85749 0.13024 0.0
H1179 H 0.24318 0.84238 0.16014 0.0
H1180 H 0.29206 0.85306 0.15524 0.0
H1181 H 0.28741 0.86818 0.12531 0.0
H1182 H 0.30603 0.84326 0.12872 0.0
H1183 H 0.26076 0.76973 0.07663 0.0
H1184 H 0.25468 0.79742 0.03986 0.0
H1185 H 0.25718 0.86019 0.08601 0.0
C1186 C 0.27124 0.79827 0.16787 0.0
C1187 C 0.27324 0.7731 0.17503 0.0
C1188 C 0.27107 0.75517 0.157 0.0
C1189 C 0.26756 0.76226 0.13205 0.0
C1190 C 0.26597 0.7873 0.12553 0.0
C1191 C 0.26757 0.80502 0.14288 0.0
C1192 C 0.2648 0.83057 0.13097 0.0
C1193 C 0.24111 0.83945 0.14012 0.0
C1194 C 0.28902 0.84991 0.13532 0.0
C1195 C 0.26146 0.82447 0.10419 0.0
C1196 C 0.26231 0.79943 0.10148 0.0
C1197 C 0.25998 0.78935 0.07851 0.0
C1198 C 0.25657 0.80527 0.05772 0.0
C1199 C 0.25539 0.83097 0.06003 0.0
C1200 C 0.25789 0.84062 0.08363 0.0
H1201 H 0.02175 0.51932 0.11509 0.0
H1202 H 1.0041 0.43806 0.11439 0.0
H1203 H 0.03084 0.43425 0.15208 0.0
H1204 H 0.08656 0.52293 0.13499 0.0
H1205 H 0.08661 0.54872 0.15425 0.0
H1206 H 0.06528 0.54512 0.12778 0.0
H1207 H 0.02683 0.54485 0.15546 0.0
H1208 H 0.04805 0.54853 0.18202 0.0
H1209 H 0.0219 0.52258 0.18168 0.0
H1210 H 0.06026 0.43922 0.18912 0.0
H1211 H 0.09053 0.45252 0.22301 0.0
H1212 H 0.08907 0.53068 0.19986 0.0
C1213 C 0.02322 0.50073 0.12307 0.0
C1214 C 0.01082 0.47897 0.11179 0.0
C1215 C 0.01362 0.45498 0.12256 0.0
C1216 C 0.02865 0.45263 0.14404 0.0
C1217 C 0.04078 0.47444 0.15454 0.0
C1218 C 0.03823 0.49804 0.14447 0.0
C1219 C 0.05386 0.51846 0.15905 0.0
C1220 C 0.07429 0.53476 0.14306 0.0
C1221 C 0.03663 0.53455 0.17022 0.0
C1222 C 0.06573 0.50265 0.17881 0.0
C1223 C 0.05784 0.47731 0.1759 0.0
C1224 C 0.0665 0.459 0.19164 0.0
C1225 C 0.08373 0.46678 0.21084 0.0
C1226 C 0.09221 0.49266 0.21416 0.0
C1227 C 0.08294 0.51076 0.1979 0.0
H1228 H 0.35876 0.70529 0.28201 0.0
H1229 H 0.31247 0.76187 0.29299 0.0
H1230 H 0.34187 0.77795 0.32678 0.0
H1231 H 0.37871 0.69429 0.34727 0.0
H1232 H 0.41046 0.69109 0.3394 0.0
H1233 H 0.38406 0.68203 0.31833 0.0
H1234 H 0.40718 0.71185 0.28402 0.0
H1235 H 0.43355 0.72109 0.30496 0.0
H1236 H 0.41739 0.74459 0.28941 0.0
H1237 H 0.37776 0.78973 0.3571 0.0
H1238 H 0.41835 0.79751 0.38091 0.0
H1239 H 0.44229 0.73412 0.34923 0.0
C1240 C 0.35453 0.72063 0.29202 0.0
C1241 C 0.33326 0.7322 0.28523 0.0
C1242 C 0.32864 0.75272 0.29812 0.0
C1243 C 0.34516 0.7619 0.31734 0.0
C1244 C 0.36627 0.75039 0.32331 0.0
C1245 C 0.37103 0.73022 0.31104 0.0
C1246 C 0.39621 0.72269 0.31961 0.0
C1247 C 0.39211 0.69593 0.33189 0.0
C1248 C 0.41467 0.72522 0.29823 0.0
C1249 C 0.4051 0.74209 0.33825 0.0
C1250 C 0.38738 0.75765 0.34035 0.0
C1251 C 0.39169 0.77754 0.35577 0.0
C1252 C 0.41484 0.78181 0.36921 0.0
C1253 C 0.43354 0.76644 0.36697 0.0
C1254 C 0.42837 0.74616 0.35145 0.0
H1255 H 0.02691 0.41781 0.01013 0.0
H1256 H 0.97779 0.46263 0.96876 0.0
H1257 H 0.97334 0.43332 0.93524 0.0
H1258 H 0.06008 0.40256 0.95881 0.0
H1259 H 0.06172 0.37094 0.97065 0.0
H1260 H 0.06058 0.39508 0.99156 0.0
H1261 H 0.0209 0.36818 0.01169 0.0
H1262 H 0.02198 0.34391 0.99092 0.0
H1263 H 0.99333 0.35713 0.99269 0.0
H1264 H 0.97535 0.39999 0.90592 0.0
H1265 H 0.98199 0.36385 0.88327 0.0
H1266 H 0.02969 0.34026 0.94388 0.0
C1267 C 0.01525 0.42137 0.99397 0.0
C1268 C 1.003 0.44262 0.99169 0.0
C1269 C 0.98755 0.44659 0.97056 0.0
C1270 C 0.98494 0.43007 0.95151 0.0
C1271 C 0.9977 0.40957 0.95405 0.0
C1272 C 0.01242 0.40504 0.9748 0.0
C1273 C 0.0241 0.38161 0.97291 0.0
C1274 C 0.05336 0.38794 0.97351 0.0
C1275 C 0.0145 0.36152 0.99326 0.0
C1276 C 0.01379 0.37376 0.94778 0.0
C1277 C 0.99862 0.39016 0.93724 0.0
C1278 C 0.98712 0.38698 0.91401 0.0
C1279 C 0.99107 0.36639 0.90126 0.0
C1280 C 0.00637 0.34917 0.91175 0.0
C1281 C 0.0179 0.35305 0.93533 0.0
H1282 H 0.68884 0.82282 0.2889 0.0
H1283 H 0.64602 0.79056 0.22601 0.0
H1284 H 0.60687 0.78264 0.25001 0.0
H1285 H 0.65704 0.77917 0.33434 0.0
H1286 H 0.65733 0.80197 0.35701 0.0
H1287 H 0.68184 0.80637 0.33457 0.0
H1288 H 0.67097 0.85019 0.3209 0.0
H1289 H 0.64642 0.84593 0.34333 0.0
H1290 H 0.63874 0.85298 0.31138 0.0
H1291 H 0.57266 0.7774 0.28071 0.0
H1292 H 0.54554 0.77391 0.31677 0.0
H1293 H 0.61034 0.80882 0.36041 0.0
C1294 C 0.67114 0.81433 0.28018 0.0
C1295 C 0.67043 0.80724 0.25563 0.0
C1296 C 0.64701 0.7959 0.24488 0.0
C1297 C 0.62466 0.79146 0.2583 0.0
C1298 C 0.62601 0.79841 0.28251 0.0
C1299 C 0.64861 0.80954 0.29342 0.0
C1300 C 0.64489 0.81426 0.32006 0.0
C1301 C 0.66124 0.79956 0.33752 0.0
C1302 C 0.65059 0.84252 0.32415 0.0
C1303 C 0.61674 0.80389 0.32239 0.0
C1304 C 0.60622 0.79503 0.30044 0.0
C1305 C 0.58064 0.78432 0.29801 0.0
C1306 C 0.56539 0.78243 0.31863 0.0
C1307 C 0.57576 0.79107 0.34147 0.0
C1308 C 0.60179 0.80206 0.34324 0.0
H1309 H 0.03767 0.11626 0.99332 0.0
H1310 H 0.08014 0.14848 0.05625 0.0
H1311 H 0.0847 0.19074 0.03473 0.0
H1312 H 0.07228 0.15828 0.94531 0.0
H1313 H 0.04388 0.16022 0.92669 0.0
H1314 H 0.04611 0.1323 0.94608 0.0
H1315 H 0.00444 0.13662 0.96704 0.0
H1316 H 1.00215 0.16461 0.94784 0.0
H1317 H 1.00221 0.16548 0.98085 0.0
H1318 H 0.08302 0.22942 0.0073 0.0
H1319 H 0.07434 0.26243 0.97619 0.0
H1320 H 0.03133 0.20541 0.93153 0.0
C1321 C 0.04835 0.13223 0.00223 0.0
C1322 C 0.05893 0.12934 0.02618 0.0
C1323 C 0.0722 0.15053 0.03774 0.0
C1324 C 0.07486 0.1745 0.02569 0.0
C1325 C 0.06393 0.17689 0.00217 0.0
C1326 C 0.0509 0.15637 0.99054 0.0
C1327 C 0.03959 0.16439 0.96591 0.0
C1328 C 0.05116 0.15313 0.94475 0.0
C1329 C 0.01037 0.15736 0.9654 0.0
C1330 C 0.04806 0.1926 0.96566 0.0
C1331 C 0.0623 0.19936 0.98663 0.0
C1332 C 0.07198 0.22436 0.99074 0.0
C1333 C 0.06693 0.24298 0.97296 0.0
C1334 C 0.05213 0.23654 0.95144 0.0
C1335 C 0.04267 0.21096 0.9478 0.0
H1336 H 0.36068 0.29928 0.21737 0.0
H1337 H 0.36784 0.25922 0.28823 0.0
H1338 H 0.40712 0.24582 0.27495 0.0
H1339 H 0.38135 0.25415 0.1811 0.0
H1340 H 0.39839 0.27736 0.15977 0.0
H1341 H 0.37131 0.2842 0.1751 0.0
H1342 H 0.39899 0.32401 0.19178 0.0
H1343 H 0.42615 0.31731 0.17645 0.0
H1344 H 0.428 0.32119 0.20911 0.0
H1345 H 0.44509 0.23636 0.25359 0.0
H1346 H 0.47935 0.2317 0.22599 0.0
H1347 H 0.44715 0.27788 0.16886 0.0
C1348 C 0.37059 0.28771 0.23004 0.0
C1349 C 0.3613 0.28007 0.25375 0.0
C1350 C 0.37473 0.26507 0.26995 0.0
C1351 C 0.39698 0.25743 0.26257 0.0
C1352 C 0.40552 0.26505 0.23895 0.0
C1353 C 0.39278 0.27989 0.22294 0.0
C1354 C 0.40584 0.28531 0.19851 0.0
C1355 C 0.38817 0.27461 0.17738 0.0
C1356 C 0.41531 0.31364 0.19369 0.0
C1357 C 0.42786 0.27109 0.20322 0.0
C1358 C 0.42736 0.25958 0.22667 0.0
C1359 C 0.4457 0.24532 0.2352 0.0
C1360 C 0.46507 0.24277 0.21936 0.0
C1361 C 0.46597 0.25439 0.19523 0.0
C1362 C 0.44703 0.26873 0.18716 0.0
H1363 H 0.55443 0.40557 0.98238 0.0
H1364 H 0.56727 0.45909 0.03926 0.0
H1365 H 0.55779 0.42436 0.07101 0.0
H1366 H 0.50192 0.36436 0.01072 0.0
H1367 H 0.51129 0.33604 1.00137 0.0
H1368 H 0.51946 0.36506 0.98301 0.0
H1369 H 0.5671 0.36054 0.98626 0.0
H1370 H 0.55908 0.33147 0.00458 0.0
H1371 H 0.58212 0.35666 0.01619 0.0
H1372 H 0.54603 0.38423 0.09647 0.0
H1373 H 0.53427 0.34095 0.11435 0.0
H1374 H 0.52915 0.31305 0.04111 0.0
C1375 C 0.55519 0.40996 1.00151 0.0
C1376 C 0.56173 0.43504 0.00835 0.0
C1377 C 0.56271 0.44 0.03361 0.0
C1378 C 0.55718 0.42042 0.05176 0.0
C1379 C 0.55074 0.39595 0.0444 0.0
C1380 C 0.54982 0.3906 0.01992 0.0
C1381 C 0.54249 0.3626 0.01704 0.0
C1382 C 0.51729 0.35668 0.00216 0.0
C1383 C 0.56398 0.35221 0.00533 0.0
C1384 C 0.53936 0.35308 0.04374 0.0
C1385 C 0.54414 0.37268 0.05917 0.0
C1386 C 0.54231 0.36871 0.08459 0.0
C1387 C 0.53556 0.34402 0.09456 0.0
C1388 C 0.5308 0.32354 0.07916 0.0
C1389 C 0.5327 0.32825 0.05339 0.0
H1390 H 0.6555 0.26534 0.28223 0.0
H1391 H 0.70833 0.24483 0.23161 0.0
H1392 H 0.67704 0.24801 0.19751 0.0
H1393 H 0.59916 0.23314 0.25643 0.0
H1394 H 0.5803 0.2571 0.26056 0.0
H1395 H 0.6071 0.25404 0.28101 0.0
H1396 H 0.62658 0.30063 0.27067 0.0
H1397 H 0.59967 0.30394 0.25035 0.0
H1398 H 0.63153 0.31172 0.23899 0.0
H1399 H 0.63857 0.24982 0.1696 0.0
H1400 H 0.59725 0.25446 0.14906 0.0
H1401 H 0.57115 0.27737 0.21702 0.0
C1402 C 0.66086 0.26209 0.26393 0.0
C1403 C 0.68442 0.25457 0.2598 0.0
C1404 C 0.69025 0.25006 0.23548 0.0
C1405 C 0.67266 0.252 0.2159 0.0
C1406 C 0.64946 0.25891 0.22078 0.0
C1407 C 0.64371 0.26433 0.24409 0.0
C1408 C 0.61738 0.27128 0.24441 0.0
C1409 C 0.59997 0.25278 0.26162 0.0
C1410 C 0.61889 0.29851 0.25152 0.0
C1411 C 0.60906 0.26847 0.2177 0.0
C1412 C 0.62777 0.26115 0.20441 0.0
C1413 C 0.62392 0.25594 0.17971 0.0
C1414 C 0.60038 0.25849 0.16825 0.0
C1415 C 0.58117 0.26649 0.18141 0.0
C1416 C 0.58567 0.27161 0.20642 0.0
H1417 H 0.48235 0.12502 0.00537 0.0
H1418 H 0.45501 0.06148 0.05597 0.0
H1419 H 0.45845 0.08978 0.08989 0.0
H1420 H 0.52876 0.15637 0.04699 0.0
H1421 H 0.52377 0.18754 0.0366 0.0
H1422 H 0.51787 0.16259 0.01579 0.0
H1423 H 0.47181 0.17107 0.0075 0.0
H1424 H 0.47758 0.19606 0.02829 0.0
H1425 H 0.45122 0.17068 0.03302 0.0
H1426 H 0.46652 0.12415 0.11868 0.0
H1427 H 0.47839 0.1628 0.14076 0.0
H1428 H 0.50101 0.20464 0.07206 0.0
C1429 C 0.47705 0.11706 0.02358 0.0
C1430 C 0.46813 0.09099 0.02788 0.0
C1431 C 0.46133 0.0814 0.05201 0.0
C1432 C 0.46339 0.09731 0.07148 0.0
C1433 C 0.47229 0.12282 0.06661 0.0
C1434 C 0.47899 0.13271 0.04329 0.0
C1435 C 0.48862 0.16078 0.04329 0.0
C1436 C 0.51641 0.16719 0.03519 0.0
C1437 C 0.47127 0.17551 0.02706 0.0
C1438 C 0.48652 0.16502 0.07032 0.0
C1439 C 0.477 0.14282 0.08336 0.0
C1440 C 0.47387 0.14168 0.10866 0.0
C1441 C 0.48073 0.16378 0.12105 0.0
C1442 C 0.49061 0.18681 0.10817 0.0
C1443 C 0.49336 0.18739 0.0824 0.0
H1444 H 0.26292 0.36403 0.6981 0.0
H1445 H 0.23937 0.35647 0.77406 0.0
H1446 H 0.26523 0.39767 0.78135 0.0
H1447 H 0.32777 0.39176 0.71133 0.0
H1448 H 0.33046 0.41243 0.68385 0.0
H1449 H 0.30896 0.38288 0.6841 0.0
H1450 H 0.27164 0.40619 0.67043 0.0
H1451 H 0.29301 0.43583 0.67022 0.0
H1452 H 0.26486 0.43091 0.68837 0.0
H1453 H 0.29391 0.43917 0.78081 0.0
H1454 H 0.32509 0.47778 0.773 0.0
H1455 H 0.33186 0.45793 0.69791 0.0
C1456 C 0.26327 0.37092 0.71632 0.0
C1457 C 0.2488 0.35699 0.73543 0.0
C1458 C 0.24974 0.36694 0.75893 0.0
C1459 C 0.26452 0.39029 0.76332 0.0
C1460 C 0.27846 0.40347 0.74411 0.0
C1461 C 0.27812 0.39414 0.72112 0.0
C1462 C 0.29555 0.41181 0.70391 0.0
C1463 C 0.31695 0.39895 0.6953 0.0
C1464 C 0.28035 0.42177 0.68194 0.0
C1465 C 0.30584 0.43245 0.72091 0.0
C1466 C 0.29555 0.4273 0.74395 0.0
C1467 C 0.30211 0.44344 0.76285 0.0
C1468 C 0.31984 0.46536 0.75819 0.0
C1469 C 0.33099 0.47093 0.73483 0.0
C1470 C 0.32371 0.45424 0.71594 0.0
H1471 H 0.31187 0.69054 0.80093 0.0
H1472 H 0.25028 0.68976 0.74644 0.0
H1473 H 0.26322 0.65324 0.72832 0.0
H1474 H 0.35791 0.67477 0.76096 0.0
H1475 H 0.37164 0.65527 0.78411 0.0
H1476 H 0.35726 0.68097 0.793 0.0
H1477 H 0.32745 0.65038 0.82203 0.0
H1478 H 0.34181 0.6246 0.81331 0.0
H1479 H 0.30783 0.62318 0.80988 0.0
H1480 H 0.28324 0.61732 0.71596 0.0
H1481 H 0.30824 0.58382 0.71055 0.0
H1482 H 0.35709 0.60808 0.77315 0.0
C1483 C 0.30112 0.6826 0.78522 0.0
C1484 C 0.28014 0.69289 0.77492 0.0
C1485 C 0.26644 0.68206 0.75444 0.0
C1486 C 0.27366 0.66139 0.74407 0.0
C1487 C 0.29461 0.65181 0.75448 0.0
C1488 C 0.30811 0.662 0.77463 0.0
C1489 C 0.32993 0.6482 0.78222 0.0
C1490 C 0.35571 0.66586 0.77993 0.0
C1491 C 0.32654 0.63586 0.80841 0.0
C1492 C 0.32663 0.62868 0.76317 0.0
C1493 C 0.30615 0.63111 0.74735 0.0
C1494 C 0.29931 0.61523 0.72825 0.0
C1495 C 0.31367 0.59626 0.72532 0.0
C1496 C 0.33467 0.59329 0.7414 0.0
C1497 C 0.3412 0.60985 0.76051 0.0
H1498 H 0.90833 0.53329 0.49602 0.0
H1499 H 0.96581 0.4863 0.48939 0.0
H1500 H 0.93222 0.44904 0.48785 0.0
H1501 H 0.86774 0.4889 0.53592 0.0
H1502 H 0.83857 0.49679 0.52218 0.0
H1503 H 0.86711 0.52005 0.52215 0.0
H1504 H 0.8628 0.52669 0.47473 0.0
H1505 H 0.83432 0.50334 0.4746 0.0
H1506 H 0.86069 0.50012 0.45606 0.0
H1507 H 0.89285 0.41686 0.48699 0.0
H1508 H 0.84998 0.3913 0.48865 0.0
H1509 H 0.81758 0.45852 0.49707 0.0
C1510 C 0.91388 0.51515 0.49443 0.0
C1511 C 0.93978 0.51285 0.49255 0.0
C1512 C 0.94613 0.48872 0.49032 0.0
C1513 C 0.92719 0.46737 0.48957 0.0
C1514 C 0.90191 0.47034 0.49121 0.0
C1515 C 0.89517 0.49355 0.49375 0.0
C1516 C 0.86653 0.49135 0.49555 0.0
C1517 C 0.85959 0.49977 0.52043 0.0
C1518 C 0.85544 0.50626 0.47395 0.0
C1519 C 0.8583 0.46327 0.49368 0.0
C1520 C 0.87905 0.45159 0.49107 0.0
C1521 C 0.87643 0.42577 0.48905 0.0
C1522 C 0.85195 0.41141 0.48998 0.0
C1523 C 0.83036 0.42285 0.493 0.0
C1524 C 0.83366 0.44919 0.4947 0.0
H1525 H 0.74539 0.84716 0.788 0.0
H1526 H 0.7787 0.85969 0.86107 0.0
H1527 H 0.75291 0.89282 0.86523 0.0
H1528 H 0.74368 0.91223 0.77002 0.0
H1529 H 0.71373 0.90571 0.75317 0.0
H1530 H 0.73453 0.88265 0.75604 0.0
H1531 H 0.69798 0.84974 0.77454 0.0
H1532 H 0.67709 0.87272 0.77181 0.0
H1533 H 0.68221 0.85676 0.80124 0.0
H1534 H 0.72415 0.92495 0.86138 0.0
H1535 H 0.69423 0.95409 0.84979 0.0
H1536 H 0.67943 0.92109 0.77909 0.0
C1537 C 0.74737 0.85697 0.80482 0.0
C1538 C 0.764 0.85068 0.82428 0.0
C1539 C 0.76581 0.86385 0.84607 0.0
C1540 C 0.75134 0.88281 0.84857 0.0
C1541 C 0.7351 0.88845 0.82911 0.0
C1542 C 0.73301 0.87596 0.80765 0.0
C1543 C 0.71415 0.8858 0.78951 0.0
C1544 C 0.72731 0.89728 0.76578 0.0
C1545 C 0.69152 0.86502 0.78396 0.0
C1546 C 0.70604 0.90582 0.80412 0.0
C1547 C 0.71839 0.90701 0.82691 0.0
C1548 C 0.71432 0.92418 0.84361 0.0
C1549 C 0.69727 0.94067 0.83683 0.0
C1550 C 0.6844 0.9399 0.81355 0.0
C1551 C 0.68884 0.9221 0.79707 0.0
H1552 H 0.64119 0.49775 0.98798 0.0
H1553 H 0.58451 0.54635 0.97559 0.0
H1554 H 0.6169 0.583 0.9854 0.0
H1555 H 0.67437 0.52853 0.03869 0.0
H1556 H 0.70557 0.5249 0.0295 0.0
H1557 H 0.67811 0.50245 0.02108 0.0
H1558 H 0.68958 0.51054 0.97515 0.0
H1559 H 0.71712 0.53298 0.98344 0.0
H1560 H 0.69378 0.54216 0.96137 0.0
H1561 H 0.6543 0.61369 0.99883 0.0
H1562 H 0.69555 0.63757 0.01226 0.0
H1563 H 0.72916 0.56983 0.01404 0.0
C1564 C 0.6357 0.51615 0.98729 0.0
C1565 C 0.6104 0.51931 0.98102 0.0
C1566 C 0.60386 0.54363 0.98013 0.0
C1567 C 0.62208 0.5645 0.98577 0.0
C1568 C 0.6468 0.56076 0.992 0.0
C1569 C 0.65377 0.53728 0.99254 0.0
C1570 C 0.68175 0.53858 0.99965 0.0
C1571 C 0.68514 0.52267 0.02366 0.0
C1572 C 0.69642 0.5306 0.97865 0.0
C1573 C 0.68932 0.56642 0.00333 0.0
C1574 C 0.66877 0.57876 0.99896 0.0
C1575 C 0.67061 0.60431 0.00208 0.0
C1576 C 0.6941 0.61767 0.00982 0.0
C1577 C 0.71556 0.60556 0.01409 0.0
C1578 C 0.71313 0.5796 0.01066 0.0
H1579 H 0.26192 0.66127 0.27371 0.0
H1580 H 0.29225 0.66294 0.20084 0.0
H1581 H 0.26899 0.6199 0.19572 0.0
H1582 H 0.26303 0.59484 0.29058 0.0
H1583 H 0.23348 0.59056 0.30652 0.0
H1584 H 0.25384 0.6208 0.30501 0.0
H1585 H 0.21636 0.64124 0.28607 0.0
H1586 H 0.19594 0.61106 0.28738 0.0
H1587 H 0.2001 0.62942 0.25852 0.0
H1588 H 0.24133 0.57738 0.19798 0.0
H1589 H 0.21085 0.5384 0.20723 0.0
H1590 H 0.19779 0.56476 0.27838 0.0
C1591 C 0.264 0.65236 0.25688 0.0
C1592 C 0.27896 0.66532 0.2377 0.0
C1593 C 0.2808 0.65331 0.2157 0.0
C1594 C 0.26774 0.62888 0.21267 0.0
C1595 C 0.25285 0.61675 0.23178 0.0
C1596 C 0.2509 0.62806 0.25346 0.0
C1597 C 0.23269 0.61135 0.27067 0.0
C1598 C 0.2466 0.60395 0.29461 0.0
C1599 C 0.20993 0.62403 0.27596 0.0
C1600 C 0.22458 0.58897 0.2552 0.0
C1601 C 0.23655 0.5924 0.23291 0.0
C1602 C 0.2319 0.57443 0.21541 0.0
C1603 C 0.21453 0.55236 0.22084 0.0
C1604 C 0.2019 0.54849 0.24351 0.0
C1605 C 0.2071 0.56711 0.26087 0.0
H1606 H 0.91639 0.49462 0.04167 0.0
H1607 H 0.97228 0.54924 0.07802 0.0
H1608 H 0.94269 0.5798 0.07348 0.0
H1609 H 0.8936 0.53869 0.99707 0.0
H1610 H 0.86097 0.52295 0.99801 0.0
H1611 H 0.88648 0.50528 0.00432 0.0
H1612 H 0.86712 0.48862 0.04635 0.0
H1613 H 0.84158 0.50628 0.0402 0.0
H1614 H 0.86109 0.51064 0.06787 0.0
H1615 H 0.90711 0.60447 0.06496 0.0
H1616 H 0.86811 0.62162 0.05297 0.0
H1617 H 0.83548 0.5512 0.02156 0.0
C1618 C 0.92252 0.51308 0.04848 0.0
C1619 C 0.94668 0.51947 0.06028 0.0
C1620 C 0.95376 0.54374 0.06924 0.0
C1621 C 0.93714 0.5613 0.06662 0.0
C1622 C 0.91348 0.55435 0.05497 0.0
C1623 C 0.90617 0.53084 0.04602 0.0
C1624 C 0.87964 0.52811 0.03428 0.0
C1625 C 0.88022 0.52349 0.00679 0.0
C1626 C 0.86128 0.50717 0.048 0.0
C1627 C 0.8732 0.55379 0.03799 0.0
C1628 C 0.89298 0.56861 0.04998 0.0
C1629 C 0.8915 0.59305 0.05554 0.0
C1630 C 0.86922 0.60261 0.04865 0.0
C1631 C 0.84867 0.5878 0.03629 0.0
C1632 C 0.85081 0.56304 0.03095 0.0
H1633 H 0.10481 0.02334 0.9942 0.0
H1634 H 0.07583 0.98926 0.06395 0.0
H1635 H 0.10705 0.96008 0.06502 0.0
H1636 H 0.11582 0.96617 0.9691 0.0
H1637 H 0.14459 0.98087 0.9541 0.0
H1638 H 0.12002 0.99897 0.9589 0.0
H1639 H 0.15268 0.03108 0.98193 0.0
H1640 H 0.17735 0.01308 0.97721 0.0
H1641 H 0.17081 0.02024 0.0079 0.0
H1642 H 0.14122 0.93471 0.05833 0.0
H1643 H 0.17631 0.91502 0.0448 0.0
H1644 H 0.18317 0.96566 0.97917 0.0
C1645 C 0.10501 0.00962 0.0096 0.0
C1646 C 0.08776 0.00818 0.02887 0.0
C1647 C 0.08875 0.99032 0.04893 0.0
C1648 C 0.10639 0.97376 0.04967 0.0
C1649 C 0.12297 0.97545 0.03025 0.0
C1650 C 0.12247 0.99292 0.0106 0.0
C1651 C 0.14244 0.99085 0.99215 0.0
C1652 C 0.12996 0.98379 0.96708 0.0
C1653 C 0.16198 0.01526 0.98966 0.0
C1654 C 0.1543 0.96951 0.00452 0.0
C1655 C 0.14276 0.96089 0.02646 0.0
C1656 C 0.1504 0.9413 0.04119 0.0
C1657 C 0.17037 0.93022 0.03331 0.0
C1658 C 0.18256 0.93875 0.0109 0.0
C1659 C 0.1743 0.95868 0.99638 0.0
loop_
_geom_bond_atom_site_label_1
_geom_bond_atom_site_label_2
_geom_bond_distance
_geom_bond_site_symmetry_2
_ccdc_geom_bond_type
H0 C7 0.929 1_655 S
H1 C10 0.930 . S
H2 C12 0.929 1_556 S
H3 C4 0.969 1_565 S
C4 H3 0.969 1_545 S
C4 O5 1.550 . S
C4 H6 0.973 . S
O5 C4 1.550 . S
O5 C11 1.412 . S
H6 C4 0.973 . S
C7 H0 0.929 1_455 S
C7 C8 1.400 . S
C7 C9 1.364 . S
C8 C7 1.400 . S
C8 C12 1.377 . S
C9 C7 1.364 . S
C9 C10 1.374 . S
C10 H1 0.930 . S
C10 C9 1.374 . S
C10 C11 1.383 . S
C11 O5 1.412 . S
C11 C10 1.383 . S
C11 C12 1.394 . S
C12 H2 0.929 1_554 S
C12 C8 1.377 . S
C12 C11 1.394 . S
H13 C20 0.929 . S
H14 C23 0.930 . S
H15 C25 0.929 . S
H16 C17 0.969 . S
C17 H16 0.969 . S
C17 O18 1.550 . S
C17 H19 0.973 . S
O18 C17 1.550 . S
O18 C24 1.412 . S
H19 C17 0.973 . S
C20 H13 0.929 . S
C20 C21 1.400 . S
C20 C22 1.364 . S
C21 C20 1.400 . S
C21 C25 1.377 . S
C22 C20 1.364 . S
C22 C23 1.374 . S
C23 H14 0.930 . S
C23 C22 1.374 . S
C23 C24 1.383 . S
C24 O18 1.412 . S
C24 C23 1.383 . S
C24 C25 1.394 . S
C25 H15 0.929 . S
C25 C21 1.377 . S
C25 C24 1.394 . S
H26 C33 0.929 . S
H27 C36 0.930 . S
H28 C38 0.929 1_455 S
H29 C30 0.969 . S
C30 H29 0.969 . S
C30 O31 1.550 . S
C30 H32 0.973 . S
O31 C30 1.550 . S
O31 C37 1.412 . S
H32 C30 0.973 . S
C33 H26 0.929 . S
C33 C34 1.400 . S
C33 C35 1.364 . S
C34 C33 1.400 . S
C34 C38 1.377 . S
C35 C33 1.364 . S
C35 C36 1.374 . S
C36 H27 0.930 . S
C36 C35 1.374 . S
C36 C37 1.383 . S
C37 O31 1.412 . S
C37 C36 1.383 . S
C37 C38 1.394 . S
C38 H28 0.929 1_655 S
C38 C34 1.377 . S
C38 C37 1.394 . S
H39 C46 0.929 . S
H40 C49 0.930 . S
H41 C51 0.929 . S
H42 C43 0.969 . S
C43 H42 0.969 . S
C43 O44 1.550 . S
C43 H45 0.973 . S
O44 C43 1.550 . S
O44 C50 1.412 . S
H45 C43 0.973 . S
C46 H39 0.929 . S
C46 C47 1.400 . S
C46 C48 1.364 . S
C47 C46 1.400 . S
C47 C51 1.377 . S
C48 C46 1.364 . S
C48 C49 1.374 . S
C49 H40 0.930 . S
C49 C48 1.374 . S
C49 C50 1.383 . S
C50 O44 1.412 . S
C50 C49 1.383 . S
C50 C51 1.394 . S
C51 H41 0.929 . S
C51 C47 1.377 . S
C51 C50 1.394 . S
H52 C59 0.929 . S
H53 C62 0.930 . S
H54 C64 0.929 . S
H55 C56 0.969 1_655 S
C56 H55 0.969 1_455 S
C56 O57 1.550 . S
C56 H58 0.973 . S
O57 C56 1.550 . S
O57 C63 1.412 . S
H58 C56 0.973 . S
C59 H52 0.929 . S
C59 C60 1.400 . S
C59 C61 1.364 . S
C60 C59 1.400 . S
C60 C64 1.377 1_565 S
C61 C59 1.364 . S
C61 C62 1.374 . S
C62 H53 0.930 . S
C62 C61 1.374 . S
C62 C63 1.383 . S
C63 O57 1.412 . S
C63 C62 1.383 . S
C63 C64 1.394 1_565 S
C64 H54 0.929 . S
C64 C60 1.377 1_545 S
C64 C63 1.394 1_545 S
H65 C72 0.929 . S
H66 C75 0.930 . S
H67 C77 0.929 . S
H68 C69 0.969 . S
C69 H68 0.969 . S
C69 O70 1.550 . S
C69 H71 0.973 . S
O70 C69 1.550 . S
O70 C76 1.412 . S
H71 C69 0.973 . S
C72 H65 0.929 . S
C72 C73 1.400 . S
C72 C74 1.364 . S
C73 C72 1.400 . S
C73 C77 1.377 . S
C74 C72 1.364 . S
C74 C75 1.374 . S
C75 H66 0.930 . S
C75 C74 1.374 . S
C75 C76 1.383 . S
C76 O70 1.412 . S
C76 C75 1.383 . S
C76 C77 1.394 . S
C77 H67 0.929 . S
C77 C73 1.377 . S
C77 C76 1.394 . S
H78 C85 0.929 . S
H79 C88 0.930 . S
H80 C90 0.929 1_455 S
H81 C82 0.969 . S
C82 H81 0.969 . S
C82 O83 1.550 . S
C82 H84 0.973 . S
O83 C82 1.550 . S
O83 C89 1.412 1_455 S
H84 C82 0.973 . S
C85 H78 0.929 . S
C85 C86 1.400 . S
C85 C87 1.364 . S
C86 C85 1.400 . S
C86 C90 1.377 . S
C87 C85 1.364 . S
C87 C88 1.374 . S
C88 H79 0.930 . S
C88 C87 1.374 . S
C88 C89 1.383 . S
C89 O83 1.412 1_655 S
C89 C88 1.383 . S
C89 C90 1.394 . S
C90 H80 0.929 1_655 S
C90 C86 1.377 . S
C90 C89 1.394 . S
H91 C98 0.929 . S
H92 C101 0.930 . S
H93 C103 0.929 . S
H94 C95 0.969 . S
C95 H94 0.969 . S
C95 O96 1.550 . S
C95 H97 0.973 . S
O96 C95 1.550 . S
O96 C102 1.412 . S
H97 C95 0.973 . S
C98 H91 0.929 . S
C98 C99 1.400 . S
C98 C100 1.364 . S
C99 C98 1.400 . S
C99 C103 1.377 . S
C100 C98 1.364 . S
C100 C101 1.374 . S
C101 H92 0.930 . S
C101 C100 1.374 . S
C101 C102 1.383 . S
C102 O96 1.412 . S
C102 C101 1.383 . S
C102 C103 1.394 . S
C103 H93 0.929 . S
C103 C99 1.377 . S
C103 C102 1.394 . S
H104 C111 0.929 . S
H105 C114 0.930 . S
H106 C116 0.929 . S
H107 C108 0.969 . S
C108 H107 0.969 . S
C108 O109 1.550 . S
C108 H110 0.973 . S
O109 C108 1.550 . S
O109 C115 1.412 . S
H110 C108 0.973 . S
C111 H104 0.929 . S
C111 C112 1.400 . S
C111 C113 1.364 . S
C112 C111 1.400 . S
C112 C116 1.377 . S
C113 C111 1.364 . S
C113 C114 1.374 . S
C114 H105 0.930 . S
C114 C113 1.374 . S
C114 C115 1.383 . S
C115 O109 1.412 . S
C115 C114 1.383 . S
C115 C116 1.394 . S
C116 H106 0.929 . S
C116 C112 1.377 . S
C116 C115 1.394 . S
H117 C124 0.929 . S
H118 C127 0.930 . S
H119 C129 0.929 . S
H120 C121 0.969 . S
C121 H120 0.969 . S
C121 O122 1.550 . S
C121 H123 0.973 . S
O122 C121 1.550 . S
O122 C128 1.412 . S
H123 C121 0.973 . S
C124 H117 0.929 . S
C124 C125 1.400 . S
C124 C126 1.364 . S
C125 C124 1.400 . S
C125 C129 1.377 . S
C126 C124 1.364 . S
C126 C127 1.374 . S
C127 H118 0.930 . S
C127 C126 1.374 . S
C127 C128 1.383 . S
C128 O122 1.412 . S
C128 C127 1.383 . S
C128 C129 1.394 . S
C129 H119 0.929 . S
C129 C125 1.377 . S
C129 C128 1.394 . S
H130 C137 0.929 . S
H131 C140 0.930 . S
H132 C142 0.929 . S
H133 C134 0.969 . S
C134 H133 0.969 . S
C134 O135 1.550 . S
C134 H136 0.973 . S
O135 C134 1.550 . S
O135 C141 1.412 . S
H136 C134 0.973 . S
C137 H130 0.929 . S
C137 C138 1.400 . S
C137 C139 1.364 . S
C138 C137 1.400 . S
C138 C142 1.377 . S
C139 C137 1.364 . S
C139 C140 1.374 . S
C140 H131 0.930 . S
C140 C139 1.374 . S
C140 C141 1.383 . S
C141 O135 1.412 . S
C141 C140 1.383 . S
C141 C142 1.394 . S
C142 H132 0.929 . S
C142 C138 1.377 . S
C142 C141 1.394 . S
H143 C150 0.929 . S
H144 C153 0.930 . S
H145 C155 0.929 . S
H146 C147 0.969 . S
C147 H146 0.969 . S
C147 O148 1.550 . S
C147 H149 0.973 . S
O148 C147 1.550 . S
O148 C154 1.412 . S
H149 C147 0.973 . S
C150 H143 0.929 . S
C150 C151 1.400 . S
C150 C152 1.364 . S
C151 C150 1.400 . S
C151 C155 1.377 . S
C152 C150 1.364 . S
C152 C153 1.374 . S
C153 H144 0.930 . S
C153 C152 1.374 . S
C153 C154 1.383 . S
C154 O148 1.412 . S
C154 C153 1.383 . S
C154 C155 1.394 . S
C155 H145 0.929 . S
C155 C151 1.377 . S
C155 C154 1.394 . S
H156 C163 0.929 . S
H157 C166 0.930 . S
H158 C168 0.929 . S
H159 C160 0.969 . S
C160 H159 0.969 . S
C160 O161 1.550 . S
C160 H162 0.973 . S
O161 C160 1.550 . S
O161 C167 1.412 . S
H162 C160 0.973 . S
C163 H156 0.929 . S
C163 C164 1.400 . S
C163 C165 1.364 . S
C164 C163 1.400 . S
C164 C168 1.377 . S
C165 C163 1.364 . S
C165 C166 1.374 . S
C166 H157 0.930 . S
C166 C165 1.374 . S
C166 C167 1.383 . S
C167 O161 1.412 . S
C167 C166 1.383 . S
C167 C168 1.394 . S
C168 H158 0.929 . S
C168 C164 1.377 . S
C168 C167 1.394 . S
H169 C176 0.929 . S
H170 C179 0.930 . S
H171 C181 0.929 . S
H172 C173 0.969 . S
C173 H172 0.969 . S
C173 O174 1.550 . S
C173 H175 0.973 . S
O174 C173 1.550 . S
O174 C180 1.412 . S
H175 C173 0.973 . S
C176 H169 0.929 . S
C176 C177 1.400 . S
C176 C178 1.364 . S
C177 C176 1.400 . S
C177 C181 1.377 . S
C178 C176 1.364 . S
C178 C179 1.374 . S
C179 H170 0.930 . S
C179 C178 1.374 . S
C179 C180 1.383 . S
C180 O174 1.412 . S
C180 C179 1.383 . S
C180 C181 1.394 . S
C181 H171 0.929 . S
C181 C177 1.377 . S
C181 C180 1.394 . S
H182 C189 0.929 . S
H183 C192 0.930 . S
H184 C194 0.929 . S
H185 C186 0.969 . S
C186 H185 0.969 . S
C186 O187 1.550 . S
C186 H188 0.973 . S
O187 C186 1.550 . S
O187 C193 1.412 . S
H188 C186 0.973 . S
C189 H182 0.929 . S
C189 C190 1.400 . S
C189 C191 1.364 . S
C190 C189 1.400 . S
C190 C194 1.377 . S
C191 C189 1.364 . S
C191 C192 1.374 . S
C192 H183 0.930 . S
C192 C191 1.374 . S
C192 C193 1.383 . S
C193 O187 1.412 . S
C193 C192 1.383 . S
C193 C194 1.394 . S
C194 H184 0.929 . S
C194 C190 1.377 . S
C194 C193 1.394 . S
H195 C202 0.929 . S
H196 C205 0.930 . S
H197 C207 0.929 . S
H198 C199 0.969 . S
C199 H198 0.969 . S
C199 O200 1.550 . S
C199 H201 0.973 . S
O200 C199 1.550 . S
O200 C206 1.412 . S
H201 C199 0.973 . S
C202 H195 0.929 . S
C202 C203 1.400 . S
C202 C204 1.364 1_554 S
C203 C202 1.400 . S
C203 C207 1.377 1_554 S
C204 C202 1.364 1_556 S
C204 C205 1.374 . S
C205 H196 0.930 . S
C205 C204 1.374 . S
C205 C206 1.383 . S
C206 O200 1.412 . S
C206 C205 1.383 . S
C206 C207 1.394 . S
C207 H197 0.929 . S
C207 C203 1.377 1_556 S
C207 C206 1.394 . S
C208 O209 1.182 . S
C208 O215 1.170 1_556 S
O209 C208 1.182 . S
O210 Zn211 1.899 1_556 S
O210 C218 1.284 . S
Zn211 O210 1.899 1_554 S
Zn211 O212 2.032 1_554 S
Zn211 O215 2.086 . S
Zn211 O220 1.977 . S
O212 Zn211 2.032 1_556 S
O212 C216 1.280 . S
C213 O214 1.203 . S
C213 O220 1.267 . S
O214 C213 1.203 . S
O215 C208 1.170 1_554 S
O215 Zn211 2.086 . S
C216 O212 1.280 . S
C216 O217 1.206 1_556 S
O217 C216 1.206 1_554 S
C218 O210 1.284 . S
C218 O219 1.273 . S
O219 C218 1.273 . S
O220 Zn211 1.977 . S
O220 C213 1.267 . S
C221 O222 1.160 . S
C221 O228 1.185 . S
O222 C221 1.160 . S
O223 Zn224 1.899 . S
O223 C231 1.284 . S
Zn224 O223 1.899 . S
Zn224 O225 2.032 . S
Zn224 O228 2.086 . S
Zn224 O233 1.977 . S
O225 Zn224 2.032 . S
O225 C229 1.278 . S
C226 O227 1.203 . S
C226 O233 1.267 . S
O227 C226 1.203 . S
O228 C221 1.185 . S
O228 Zn224 2.086 . S
C229 O225 1.278 . S
C229 O230 1.211 . S
O230 C229 1.211 . S
C231 O223 1.284 . S
C231 O232 1.273 . S
O232 C231 1.273 . S
O233 Zn224 1.977 . S
O233 C226 1.267 . S
C234 O235 1.160 . S
C234 O241 1.185 . S
O235 C234 1.160 . S
O236 Zn237 1.899 . S
O236 C244 1.284 1_554 S
Zn237 O236 1.899 . S
Zn237 O238 2.032 . S
Zn237 O241 2.086 . S
Zn237 O246 1.977 . S
O238 Zn237 2.032 . S
O238 C242 1.278 . S
C239 O240 1.203 . S
C239 O246 1.267 . S
O240 C239 1.203 . S
O241 C234 1.185 . S
O241 Zn237 2.086 . S
C242 O238 1.278 . S
C242 O243 1.211 . S
O243 C242 1.211 . S
C244 O236 1.284 1_556 S
C244 O245 1.273 . S
O245 C244 1.273 . S
O246 Zn237 1.977 . S
O246 C239 1.267 . S
C247 O248 1.160 . S
C247 O254 1.185 . S
O248 C247 1.160 . S
O249 Zn250 1.899 . S
O249 C257 1.284 . S
Zn250 O249 1.899 . S
Zn250 O251 2.032 . S
Zn250 O254 2.086 . S
Zn250 O259 1.977 . S
O251 Zn250 2.032 . S
O251 C255 1.278 1_545 S
C252 O253 1.203 . S
C252 O259 1.267 . S
O253 C252 1.203 . S
O254 C247 1.185 . S
O254 Zn250 2.086 . S
C255 O251 1.278 1_565 S
C255 O256 1.211 . S
O256 C255 1.211 . S
C257 O249 1.284 . S
C257 O258 1.273 1_545 S
O258 C257 1.273 1_565 S
O259 Zn250 1.977 . S
O259 C252 1.267 . S
C260 O261 1.160 . S
C260 O267 1.185 . S
O261 C260 1.160 . S
O262 Zn263 1.899 . S
O262 C270 1.284 . S
Zn263 O262 1.899 . S
Zn263 O264 2.032 . S
Zn263 O267 2.086 . S
Zn263 O272 1.977 . S
O264 Zn263 2.032 . S
O264 C268 1.278 . S
C265 O266 1.203 . S
C265 O272 1.267 . S
O266 C265 1.203 . S
O267 C260 1.185 . S
O267 Zn263 2.086 . S
C268 O264 1.278 . S
C268 O269 1.211 . S
O269 C268 1.211 . S
C270 O262 1.284 . S
C270 O271 1.273 . S
O271 C270 1.273 . S
O272 Zn263 1.977 . S
O272 C265 1.267 . S
C273 O274 1.160 . S
C273 O280 1.185 . S
O274 C273 1.160 . S
O275 Zn276 1.899 . S
O275 C283 1.284 . S
Zn276 O275 1.899 . S
Zn276 O277 2.032 . S
Zn276 O280 2.086 . S
Zn276 O285 1.977 . S
O277 Zn276 2.032 . S
O277 C281 1.278 . S
C278 O279 1.203 . S
C278 O285 1.267 . S
O279 C278 1.203 . S
O280 C273 1.185 . S
O280 Zn276 2.086 . S
C281 O277 1.278 . S
C281 O282 1.211 . S
O282 C281 1.211 . S
C283 O275 1.284 . S
C283 O284 1.273 . S
O284 C283 1.273 . S
O285 Zn276 1.977 . S
O285 C278 1.267 . S
C286 O287 1.160 . S
C286 O293 1.185 . S
O287 C286 1.160 . S
O288 Zn289 1.899 . S
O288 C296 1.284 . S
Zn289 O288 1.899 . S
Zn289 O290 2.032 . S
Zn289 O293 2.086 . S
Zn289 O298 1.977 . S
O290 Zn289 2.032 . S
O290 C294 1.278 . S
C291 O292 1.203 . S
C291 O298 1.267 . S
O292 C291 1.203 . S
O293 C286 1.185 . S
O293 Zn289 2.086 . S
C294 O290 1.278 . S
C294 O295 1.211 . S
O295 C294 1.211 . S
C296 O288 1.284 . S
C296 O297 1.273 . S
O297 C296 1.273 . S
O298 Zn289 1.977 . S
O298 C291 1.267 . S
C299 O300 1.160 . S
C299 O306 1.185 . S
O300 C299 1.160 . S
O301 Zn302 1.899 . S
O301 C309 1.284 1_565 S
Zn302 O301 1.899 . S
Zn302 O303 2.032 1_565 S
Zn302 O306 2.086 . S
Zn302 O311 1.977 . S
O303 Zn302 2.032 1_545 S
O303 C307 1.278 . S
C304 O305 1.203 1_565 S
C304 O311 1.267 . S
O305 C304 1.203 1_545 S
O306 C299 1.185 . S
O306 Zn302 2.086 . S
C307 O303 1.278 . S
C307 O308 1.211 . S
O308 C307 1.211 . S
C309 O301 1.284 1_545 S
C309 O310 1.273 . S
O310 C309 1.273 . S
O311 Zn302 1.977 . S
O311 C304 1.267 . S
C312 O313 1.160 . S
C312 O319 1.185 1_655 S
O313 C312 1.160 . S
O314 Zn315 1.899 1_655 S
O314 C322 1.284 . S
Zn315 O314 1.899 1_455 S
Zn315 O316 2.032 1_455 S
Zn315 O319 2.086 . S
Zn315 O324 1.977 . S
O316 Zn315 2.032 1_655 S
O316 C320 1.278 1_655 S
C317 O318 1.203 . S
C317 O324 1.267 . S
O318 C317 1.203 . S
O319 C312 1.185 1_455 S
O319 Zn315 2.086 . S
C320 O316 1.278 1_455 S
C320 O321 1.211 . S
O321 C320 1.211 . S
C322 O314 1.284 . S
C322 O323 1.273 . S
O323 C322 1.273 . S
O324 Zn315 1.977 . S
O324 C317 1.267 . S
C325 O326 1.160 . S
C325 O332 1.185 . S
O326 C325 1.160 . S
O327 Zn328 1.899 . S
O327 C335 1.284 . S
Zn328 O327 1.899 . S
Zn328 O329 2.032 . S
Zn328 O332 2.086 . S
Zn328 O337 1.977 . S
O329 Zn328 2.032 . S
O329 C333 1.278 . S
C330 O331 1.203 . S
C330 O337 1.267 . S
O331 C330 1.203 . S
O332 C325 1.185 . S
O332 Zn328 2.086 . S
C333 O329 1.278 . S
C333 O334 1.211 . S
O334 C333 1.211 . S
C335 O327 1.284 . S
C335 O336 1.273 . S
O336 C335 1.273 . S
O337 Zn328 1.977 . S
O337 C330 1.267 . S
C338 O339 1.160 . S
C338 O345 1.185 . S
O339 C338 1.160 . S
O340 Zn341 1.899 . S
O340 C348 1.284 1_455 S
Zn341 O340 1.899 . S
Zn341 O342 2.032 . S
Zn341 O345 2.086 . S
Zn341 O350 1.977 . S
O342 Zn341 2.032 . S
O342 C346 1.278 . S
C343 O344 1.203 . S
C343 O350 1.267 . S
O344 C343 1.203 . S
O345 C338 1.185 . S
O345 Zn341 2.086 . S
C346 O342 1.278 . S
C346 O347 1.211 . S
O347 C346 1.211 . S
C348 O340 1.284 1_655 S
C348 O349 1.273 . S
O349 C348 1.273 . S
O350 Zn341 1.977 . S
O350 C343 1.267 . S
C351 O352 1.160 . S
C351 O358 1.185 . S
O352 C351 1.160 . S
O353 Zn354 1.899 . S
O353 C361 1.284 . S
Zn354 O353 1.899 . S
Zn354 O355 2.032 . S
Zn354 O358 2.086 . S
Zn354 O363 1.977 . S
O355 Zn354 2.032 . S
O355 C359 1.278 . S
C356 O357 1.203 . S
C356 O363 1.267 . S
O357 C356 1.203 . S
O358 C351 1.185 . S
O358 Zn354 2.086 . S
C359 O355 1.278 . S
C359 O360 1.211 . S
O360 C359 1.211 . S
C361 O353 1.284 . S
C361 O362 1.273 . S
O362 C361 1.273 . S
O363 Zn354 1.977 . S
O363 C356 1.267 . S
H364 C376 0.930 . S
H365 C378 0.930 . S
H366 C379 0.930 . S
H367 C383 0.959 . S
H368 C383 0.959 . S
H369 C383 0.961 . S
H370 C384 0.960 . S
H371 C384 0.961 . S
H372 C384 0.959 . S
H373 C387 0.929 . S
H374 C388 0.931 . S
H375 C390 0.930 . S
C376 H364 0.930 . S
C376 C377 1.399 . S
C376 C381 1.399 . S
C377 C376 1.399 . S
C377 C378 1.376 . S
C378 H365 0.930 . S
C378 C377 1.376 . S
C378 C379 1.388 . S
C379 H366 0.930 . S
C379 C378 1.388 . S
C379 C380 1.390 . S
C380 C379 1.390 . S
C380 C381 1.394 . S
C380 C386 1.465 . S
C381 C376 1.399 . S
C381 C380 1.394 . S
C381 C382 1.516 . S
C382 C381 1.516 . S
C382 C383 1.502 . S
C382 C384 1.561 . S
C382 C385 1.526 . S
C383 H367 0.959 . S
C383 H368 0.959 . S
C383 H369 0.961 . S
C383 C382 1.502 . S
C384 H370 0.960 . S
C384 H371 0.961 . S
C384 H372 0.959 . S
C384 C382 1.561 . S
C385 C382 1.526 . S
C385 C386 1.396 . S
C385 C390 1.390 . S
C386 C380 1.465 . S
C386 C385 1.396 . S
C386 C387 1.399 . S
C387 H373 0.929 . S
C387 C386 1.399 . S
C387 C388 1.385 . S
C388 H374 0.931 . S
C388 C387 1.385 . S
C388 C389 1.389 . S
C389 C388 1.389 . S
C389 C390 1.387 . S
C390 H375 0.930 . S
C390 C385 1.390 . S
C390 C389 1.387 . S
H391 C403 0.930 . S
H392 C405 0.930 . S
H393 C406 0.930 . S
H394 C410 0.959 . S
H395 C410 0.959 . S
H396 C410 0.961 . S
H397 C411 0.960 . S
H398 C411 0.961 . S
H399 C411 0.959 . S
H400 C414 0.929 . S
H401 C415 0.931 . S
H402 C417 0.930 . S
C403 H391 0.930 . S
C403 C404 1.399 . S
C403 C408 1.399 . S
C404 C403 1.399 . S
C404 C405 1.376 . S
C405 H392 0.930 . S
C405 C404 1.376 . S
C405 C406 1.388 . S
C406 H393 0.930 . S
C406 C405 1.388 . S
C406 C407 1.390 . S
C407 C406 1.390 . S
C407 C408 1.394 . S
C407 C413 1.465 . S
C408 C403 1.399 . S
C408 C407 1.394 . S
C408 C409 1.516 . S
C409 C408 1.516 . S
C409 C410 1.502 . S
C409 C411 1.561 . S
C409 C412 1.526 . S
C410 H394 0.959 . S
C410 H395 0.959 . S
C410 H396 0.961 . S
C410 C409 1.502 . S
C411 H397 0.960 . S
C411 H398 0.961 . S
C411 H399 0.959 . S
C411 C409 1.561 . S
C412 C409 1.526 . S
C412 C413 1.396 . S
C412 C417 1.390 . S
C413 C407 1.465 . S
C413 C412 1.396 . S
C413 C414 1.399 . S
C414 H400 0.929 . S
C414 C413 1.399 . S
C414 C415 1.385 . S
C415 H401 0.931 . S
C415 C414 1.385 . S
C415 C416 1.389 . S
C416 C415 1.389 . S
C416 C417 1.387 . S
C417 H402 0.930 . S
C417 C412 1.390 . S
C417 C416 1.387 . S
H418 C430 0.930 . S
H419 C432 0.930 . S
H420 C433 0.930 . S
H421 C437 0.959 . S
H422 C437 0.959 . S
H423 C437 0.961 . S
H424 C438 0.960 . S
H425 C438 0.961 . S
H426 C438 0.959 . S
H427 C441 0.929 . S
H428 C442 0.931 . S
H429 C444 0.930 . S
C430 H418 0.930 . S
C430 C431 1.399 . S
C430 C435 1.399 . S
C431 C430 1.399 . S
C431 C432 1.376 . S
C432 H419 0.930 . S
C432 C431 1.376 . S
C432 C433 1.388 . S
C433 H420 0.930 . S
C433 C432 1.388 . S
C433 C434 1.390 . S
C434 C433 1.390 . S
C434 C435 1.394 . S
C434 C440 1.465 . S
C435 C430 1.399 . S
C435 C434 1.394 . S
C435 C436 1.516 . S
C436 C435 1.516 . S
C436 C437 1.502 . S
C436 C438 1.561 . S
C436 C439 1.526 . S
C437 H421 0.959 . S
C437 H422 0.959 . S
C437 H423 0.961 . S
C437 C436 1.502 . S
C438 H424 0.960 . S
C438 H425 0.961 . S
C438 H426 0.959 . S
C438 C436 1.561 . S
C439 C436 1.526 . S
C439 C440 1.396 . S
C439 C444 1.390 . S
C440 C434 1.465 . S
C440 C439 1.396 . S
C440 C441 1.399 . S
C441 H427 0.929 . S
C441 C440 1.399 . S
C441 C442 1.385 . S
C442 H428 0.931 . S
C442 C441 1.385 . S
C442 C443 1.389 . S
C443 C442 1.389 . S
C443 C444 1.387 . S
C444 H429 0.930 . S
C444 C439 1.390 . S
C444 C443 1.387 . S
H445 C457 0.930 . S
H446 C459 0.935 . S
H447 C460 0.930 . S
H448 C464 0.959 . S
H449 C464 0.959 . S
H450 C464 0.961 . S
H451 C465 0.960 . S
H452 C465 0.961 . S
H453 C465 0.959 . S
H454 C468 0.929 . S
H455 C469 0.931 . S
H456 C471 0.960 . S
C457 H445 0.930 . S
C457 C458 1.399 . S
C457 C462 1.399 . S
C458 C457 1.399 . S
C458 C459 1.376 1_565 S
C459 H446 0.935 . S
C459 C458 1.376 1_545 S
C459 C460 1.388 . S
C460 H447 0.930 . S
C460 C459 1.388 . S
C460 C461 1.390 . S
C461 C460 1.390 . S
C461 C462 1.394 1_545 S
C461 C467 1.465 . S
C462 C457 1.399 . S
C462 C461 1.394 1_565 S
C462 C463 1.516 . S
C463 C462 1.516 . S
C463 C464 1.502 . S
C463 C465 1.561 . S
C463 C466 1.526 . S
C464 H448 0.959 . S
C464 H449 0.959 . S
C464 H450 0.961 . S
C464 C463 1.502 . S
C465 H451 0.960 . S
C465 H452 0.961 . S
C465 H453 0.959 . S
C465 C463 1.561 . S
C466 C463 1.526 . S
C466 C467 1.396 1_565 S
C466 C471 1.393 . S
C467 C461 1.465 . S
C467 C466 1.396 1_545 S
C467 C468 1.399 . S
C468 H454 0.929 . S
C468 C467 1.399 . S
C468 C469 1.385 . S
C469 H455 0.931 . S
C469 C468 1.385 . S
C469 C470 1.389 . S
C470 C469 1.389 . S
C470 C471 1.353 1_545 S
C471 H456 0.960 . S
C471 C466 1.393 . S
C471 C470 1.353 1_565 S
H472 C484 0.930 . S
H473 C486 0.930 . S
H474 C487 0.930 . S
H475 C491 0.959 . S
H476 C491 0.959 . S
H477 C491 0.961 . S
H478 C492 0.960 . S
H479 C492 0.961 . S
H480 C492 0.959 . S
H481 C495 0.929 . S
H482 C496 0.931 . S
H483 C498 0.930 . S
C484 H472 0.930 . S
C484 C485 1.399 . S
C484 C489 1.399 . S
C485 C484 1.399 . S
C485 C486 1.376 . S
C486 H473 0.930 . S
C486 C485 1.376 . S
C486 C487 1.388 . S
C487 H474 0.930 . S
C487 C486 1.388 . S
C487 C488 1.390 . S
C488 C487 1.390 . S
C488 C489 1.394 . S
C488 C494 1.465 . S
C489 C484 1.399 . S
C489 C488 1.394 . S
C489 C490 1.516 . S
C490 C489 1.516 . S
C490 C491 1.502 . S
C490 C492 1.561 . S
C490 C493 1.526 . S
C491 H475 0.959 . S
C491 H476 0.959 . S
C491 H477 0.961 . S
C491 C490 1.502 . S
C492 H478 0.960 . S
C492 H479 0.961 . S
C492 H480 0.959 . S
C492 C490 1.561 . S
C493 C490 1.526 . S
C493 C494 1.396 . S
C493 C498 1.390 . S
C494 C488 1.465 . S
C494 C493 1.396 . S
C494 C495 1.399 . S
C495 H481 0.929 . S
C495 C494 1.399 . S
C495 C496 1.385 . S
C496 H482 0.931 . S
C496 C495 1.385 . S
C496 C497 1.389 . S
C497 C496 1.389 . S
C497 C498 1.387 . S
C498 H483 0.930 . S
C498 C493 1.390 . S
C498 C497 1.387 . S
H499 C511 0.930 . S
H500 C513 0.930 . S
H501 C514 0.930 . S
H502 C518 0.959 . S
H503 C518 0.959 . S
H504 C518 0.961 . S
H505 C519 0.960 . S
H506 C519 0.961 . S
H507 C519 0.959 . S
H508 C522 0.929 . S
H509 C523 0.931 . S
H510 C525 0.930 . S
C511 H499 0.930 . S
C511 C512 1.399 . S
C511 C516 1.399 . S
C512 C511 1.399 . S
C512 C513 1.376 . S
C513 H500 0.930 . S
C513 C512 1.376 . S
C513 C514 1.388 . S
C514 H501 0.930 . S
C514 C513 1.388 . S
C514 C515 1.390 . S
C515 C514 1.390 . S
C515 C516 1.394 . S
C515 C521 1.465 . S
C516 C511 1.399 . S
C516 C515 1.394 . S
C516 C517 1.516 . S
C517 C516 1.516 . S
C517 C518 1.502 . S
C517 C519 1.561 . S
C517 C520 1.526 . S
C518 H502 0.959 . S
C518 H503 0.959 . S
C518 H504 0.961 . S
C518 C517 1.502 . S
C519 H505 0.960 . S
C519 H506 0.961 . S
C519 H507 0.959 . S
C519 C517 1.561 . S
C520 C517 1.526 . S
C520 C521 1.396 . S
C520 C525 1.390 . S
C521 C515 1.465 . S
C521 C520 1.396 . S
C521 C522 1.399 . S
C522 H508 0.929 . S
C522 C521 1.399 . S
C522 C523 1.385 . S
C523 H509 0.931 . S
C523 C522 1.385 . S
C523 C524 1.389 . S
C524 C523 1.389 . S
C524 C525 1.387 . S
C525 H510 0.930 . S
C525 C520 1.390 . S
C525 C524 1.387 . S
H526 C538 0.930 . S
H527 C540 0.930 . S
H528 C541 0.930 . S
H529 C545 0.959 . S
H530 C545 0.959 . S
H531 C545 0.961 . S
H532 C546 0.960 . S
H533 C546 0.961 . S
H534 C546 0.959 . S
H535 C549 0.929 . S
H536 C550 0.931 . S
H537 C552 0.930 . S
C538 H526 0.930 . S
C538 C539 1.399 . S
C538 C543 1.399 . S
C539 C538 1.399 . S
C539 C540 1.376 . S
C540 H527 0.930 . S
C540 C539 1.376 . S
C540 C541 1.388 . S
C541 H528 0.930 . S
C541 C540 1.388 . S
C541 C542 1.390 . S
C542 C541 1.390 . S
C542 C543 1.394 . S
C542 C548 1.465 . S
C543 C538 1.399 . S
C543 C542 1.394 . S
C543 C544 1.516 . S
C544 C543 1.516 . S
C544 C545 1.502 . S
C544 C546 1.561 . S
C544 C547 1.526 . S
C545 H529 0.959 . S
C545 H530 0.959 . S
C545 H531 0.961 . S
C545 C544 1.502 . S
C546 H532 0.960 . S
C546 H533 0.961 . S
C546 H534 0.959 . S
C546 C544 1.561 . S
C547 C544 1.526 . S
C547 C548 1.396 . S
C547 C552 1.390 . S
C548 C542 1.465 . S
C548 C547 1.396 . S
C548 C549 1.399 . S
C549 H535 0.929 . S
C549 C548 1.399 . S
C549 C550 1.385 . S
C550 H536 0.931 . S
C550 C549 1.385 . S
C550 C551 1.389 . S
C551 C550 1.389 . S
C551 C552 1.387 . S
C552 H537 0.930 . S
C552 C547 1.390 . S
C552 C551 1.387 . S
H553 C565 0.930 1_545 S
H554 C567 0.930 . S
H555 C568 0.930 . S
H556 C572 0.959 . S
H557 C572 0.959 . S
H558 C572 0.961 . S
H559 C573 0.960 . S
H560 C573 0.961 . S
H561 C573 0.959 . S
H562 C576 0.929 . S
H563 C577 0.931 . S
H564 C579 0.930 . S
C565 H553 0.930 1_565 S
C565 C566 1.399 . S
C565 C570 1.399 . S
C566 C565 1.399 . S
C566 C567 1.376 . S
C567 H554 0.930 . S
C567 C566 1.376 . S
C567 C568 1.388 . S
C568 H555 0.930 . S
C568 C567 1.388 . S
C568 C569 1.390 . S
C569 C568 1.390 . S
C569 C570 1.394 . S
C569 C575 1.465 . S
C570 C565 1.399 . S
C570 C569 1.394 . S
C570 C571 1.516 1_565 S
C571 C570 1.516 1_545 S
C571 C572 1.502 . S
C571 C573 1.561 . S
C571 C574 1.526 1_545 S
C572 H556 0.959 . S
C572 H557 0.959 . S
C572 H558 0.961 . S
C572 C571 1.502 . S
C573 H559 0.960 . S
C573 H560 0.961 . S
C573 H561 0.959 . S
C573 C571 1.561 . S
C574 C571 1.526 1_565 S
C574 C575 1.396 . S
C574 C579 1.390 1_565 S
C575 C569 1.465 . S
C575 C574 1.396 . S
C575 C576 1.399 . S
C576 H562 0.929 . S
C576 C575 1.399 . S
C576 C577 1.385 . S
C577 H563 0.931 . S
C577 C576 1.385 . S
C577 C578 1.389 . S
C578 C577 1.389 . S
C578 C579 1.387 1_565 S
C579 H564 0.930 . S
C579 C574 1.390 1_545 S
C579 C578 1.387 1_545 S
H580 C592 0.930 . S
H581 C594 0.930 . S
H582 C595 0.930 . S
H583 C599 0.959 . S
H584 C599 0.959 . S
H585 C599 0.961 . S
H586 C600 0.960 . S
H587 C600 0.961 . S
H588 C600 0.959 . S
H589 C603 0.929 . S
H590 C604 0.931 . S
H591 C606 0.930 . S
C592 H580 0.930 . S
C592 C593 1.399 . S
C592 C597 1.399 . S
C593 C592 1.399 . S
C593 C594 1.376 . S
C594 H581 0.930 . S
C594 C593 1.376 . S
C594 C595 1.388 . S
C595 H582 0.930 . S
C595 C594 1.388 . S
C595 C596 1.390 . S
C596 C595 1.390 . S
C596 C597 1.394 . S
C596 C602 1.465 . S
C597 C592 1.399 . S
C597 C596 1.394 . S
C597 C598 1.516 . S
C598 C597 1.516 . S
C598 C599 1.502 . S
C598 C600 1.561 . S
C598 C601 1.526 . S
C599 H583 0.959 . S
C599 H584 0.959 . S
C599 H585 0.961 . S
C599 C598 1.502 . S
C600 H586 0.960 . S
C600 H587 0.961 . S
C600 H588 0.959 . S
C600 C598 1.561 . S
C601 C598 1.526 . S
C601 C602 1.396 . S
C601 C606 1.390 . S
C602 C596 1.465 . S
C602 C601 1.396 . S
C602 C603 1.399 . S
C603 H589 0.929 . S
C603 C602 1.399 . S
C603 C604 1.385 . S
C604 H590 0.931 . S
C604 C603 1.385 . S
C604 C605 1.389 . S
C605 C604 1.389 . S
C605 C606 1.387 . S
C606 H591 0.930 . S
C606 C601 1.390 . S
C606 C605 1.387 . S
H607 C619 0.930 . S
H608 C621 0.930 . S
H609 C622 0.930 . S
H610 C626 0.959 . S
H611 C626 0.959 . S
H612 C626 0.961 . S
H613 C627 0.960 . S
H614 C627 0.961 . S
H615 C627 0.959 . S
H616 C630 0.929 . S
H617 C631 0.931 . S
H618 C633 0.930 . S
C619 H607 0.930 . S
C619 C620 1.399 . S
C619 C624 1.399 . S
C620 C619 1.399 . S
C620 C621 1.376 . S
C621 H608 0.930 . S
C621 C620 1.376 . S
C621 C622 1.388 . S
C622 H609 0.930 . S
C622 C621 1.388 . S
C622 C623 1.390 . S
C623 C622 1.390 . S
C623 C624 1.394 . S
C623 C629 1.465 . S
C624 C619 1.399 . S
C624 C623 1.394 . S
C624 C625 1.516 . S
C625 C624 1.516 . S
C625 C626 1.502 . S
C625 C627 1.561 . S
C625 C628 1.526 . S
C626 H610 0.959 . S
C626 H611 0.959 . S
C626 H612 0.961 . S
C626 C625 1.502 . S
C627 H613 0.960 . S
C627 H614 0.961 . S
C627 H615 0.959 . S
C627 C625 1.561 . S
C628 C625 1.526 . S
C628 C629 1.396 . S
C628 C633 1.390 . S
C629 C623 1.465 . S
C629 C628 1.396 . S
C629 C630 1.399 . S
C630 H616 0.929 . S
C630 C629 1.399 . S
C630 C631 1.385 . S
C631 H617 0.931 . S
C631 C630 1.385 . S
C631 C632 1.389 . S
C632 C631 1.389 . S
C632 C633 1.387 . S
C633 H618 0.930 . S
C633 C628 1.390 . S
C633 C632 1.387 . S
H634 C646 0.930 . S
H635 C648 0.930 . S
H636 C649 0.930 . S
H637 C653 0.959 . S
H638 C653 0.959 . S
H639 C653 0.961 . S
H640 C654 0.960 . S
H641 C654 0.961 . S
H642 C654 0.959 . S
H643 C657 0.929 . S
H644 C658 0.931 . S
H645 C660 0.930 . S
C646 H634 0.930 . S
C646 C647 1.399 . S
C646 C651 1.399 . S
C647 C646 1.399 . S
C647 C648 1.376 . S
C648 H635 0.930 . S
C648 C647 1.376 . S
C648 C649 1.388 . S
C649 H636 0.930 . S
C649 C648 1.388 . S
C649 C650 1.390 . S
C650 C649 1.390 . S
C650 C651 1.394 . S
C650 C656 1.465 . S
C651 C646 1.399 . S
C651 C650 1.394 . S
C651 C652 1.516 . S
C652 C651 1.516 . S
C652 C653 1.502 . S
C652 C654 1.561 . S
C652 C655 1.526 . S
C653 H637 0.959 . S
C653 H638 0.959 . S
C653 H639 0.961 . S
C653 C652 1.502 . S
C654 H640 0.960 . S
C654 H641 0.961 . S
C654 H642 0.959 . S
C654 C652 1.561 . S
C655 C652 1.526 . S
C655 C656 1.396 . S
C655 C660 1.390 . S
C656 C650 1.465 . S
C656 C655 1.396 . S
C656 C657 1.399 . S
C657 H643 0.929 . S
C657 C656 1.399 . S
C657 C658 1.385 . S
C658 H644 0.931 . S
C658 C657 1.385 . S
C658 C659 1.389 . S
C659 C658 1.389 . S
C659 C660 1.387 . S
C660 H645 0.930 . S
C660 C655 1.390 . S
C660 C659 1.387 . S
H661 C673 0.930 . S
H662 C675 0.930 . S
H663 C676 0.930 . S
H664 C680 0.959 . S
H665 C680 0.959 . S
H666 C680 0.961 . S
H667 C681 0.960 . S
H668 C681 0.961 . S
H669 C681 0.959 . S
H670 C684 0.929 . S
H671 C685 0.931 . S
H672 C687 0.930 . S
C673 H661 0.930 . S
C673 C674 1.399 . S
C673 C678 1.399 . S
C674 C673 1.399 . S
C674 C675 1.376 . S
C675 H662 0.930 . S
C675 C674 1.376 . S
C675 C676 1.388 . S
C676 H663 0.930 . S
C676 C675 1.388 . S
C676 C677 1.390 . S
C677 C676 1.390 . S
C677 C678 1.394 . S
C677 C683 1.465 . S
C678 C673 1.399 . S
C678 C677 1.394 . S
C678 C679 1.516 . S
C679 C678 1.516 . S
C679 C680 1.502 . S
C679 C681 1.561 . S
C679 C682 1.526 . S
C680 H664 0.959 . S
C680 H665 0.959 . S
C680 H666 0.961 . S
C680 C679 1.502 . S
C681 H667 0.960 . S
C681 H668 0.961 . S
C681 H669 0.959 . S
C681 C679 1.561 . S
C682 C679 1.526 . S
C682 C683 1.396 . S
C682 C687 1.390 . S
C683 C677 1.465 . S
C683 C682 1.396 . S
C683 C684 1.399 . S
C684 H670 0.929 . S
C684 C683 1.399 . S
C684 C685 1.385 . S
C685 H671 0.931 . S
C685 C684 1.385 . S
C685 C686 1.389 . S
C686 C685 1.389 . S
C686 C687 1.387 . S
C687 H672 0.930 . S
C687 C682 1.390 . S
C687 C686 1.387 . S
H688 C700 0.930 . S
H689 C702 0.930 . S
H690 C703 0.930 . S
H691 C707 0.959 . S
H692 C707 0.959 . S
H693 C707 0.961 . S
H694 C708 0.960 . S
H695 C708 0.961 . S
H696 C708 0.959 . S
H697 C711 0.929 . S
H698 C712 0.931 . S
H699 C714 0.930 . S
C700 H688 0.930 . S
C700 C701 1.399 . S
C700 C705 1.399 . S
C701 C700 1.399 . S
C701 C702 1.376 . S
C702 H689 0.930 . S
C702 C701 1.376 . S
C702 C703 1.388 . S
C703 H690 0.930 . S
C703 C702 1.388 . S
C703 C704 1.390 . S
C704 C703 1.390 . S
C704 C705 1.394 . S
C704 C710 1.465 . S
C705 C700 1.399 . S
C705 C704 1.394 . S
C705 C706 1.516 . S
C706 C705 1.516 . S
C706 C707 1.502 . S
C706 C708 1.561 . S
C706 C709 1.526 . S
C707 H691 0.959 . S
C707 H692 0.959 . S
C707 H693 0.961 . S
C707 C706 1.502 . S
C708 H694 0.960 . S
C708 H695 0.961 . S
C708 H696 0.959 . S
C708 C706 1.561 . S
C709 C706 1.526 . S
C709 C710 1.396 . S
C709 C714 1.390 . S
C710 C704 1.465 . S
C710 C709 1.396 . S
C710 C711 1.399 . S
C711 H697 0.929 . S
C711 C710 1.399 . S
C711 C712 1.385 . S
C712 H698 0.931 . S
C712 C711 1.385 . S
C712 C713 1.389 . S
C713 C712 1.389 . S
C713 C714 1.387 . S
C714 H699 0.930 . S
C714 C709 1.390 . S
C714 C713 1.387 . S
H715 C727 0.930 . S
H716 C729 0.930 . S
H717 C730 0.930 . S
H718 C734 0.959 . S
H719 C734 0.959 . S
H720 C734 0.961 . S
H721 C735 0.960 . S
H722 C735 0.961 . S
H723 C735 0.959 . S
H724 C738 0.929 . S
H725 C739 0.931 . S
H726 C741 0.930 . S
C727 H715 0.930 . S
C727 C728 1.399 . S
C727 C732 1.399 . S
C728 C727 1.399 . S
C728 C729 1.376 . S
C729 H716 0.930 . S
C729 C728 1.376 . S
C729 C730 1.388 . S
C730 H717 0.930 . S
C730 C729 1.388 . S
C730 C731 1.390 . S
C731 C730 1.390 . S
C731 C732 1.394 . S
C731 C737 1.465 . S
C732 C727 1.399 . S
C732 C731 1.394 . S
C732 C733 1.516 . S
C733 C732 1.516 . S
C733 C734 1.502 1_455 S
C733 C735 1.561 . S
C733 C736 1.526 . S
C734 H718 0.959 . S
C734 H719 0.959 . S
C734 H720 0.961 . S
C734 C733 1.502 1_655 S
C735 H721 0.960 . S
C735 H722 0.961 . S
C735 H723 0.959 . S
C735 C733 1.561 . S
C736 C733 1.526 . S
C736 C737 1.396 . S
C736 C741 1.390 . S
C737 C731 1.465 . S
C737 C736 1.396 . S
C737 C738 1.399 . S
C738 H724 0.929 . S
C738 C737 1.399 . S
C738 C739 1.385 . S
C739 H725 0.931 . S
C739 C738 1.385 . S
C739 C740 1.389 . S
C740 C739 1.389 . S
C740 C741 1.387 . S
C741 H726 0.930 . S
C741 C736 1.390 . S
C741 C740 1.387 . S
H742 C754 0.930 . S
H743 C756 0.930 . S
H744 C757 0.930 . S
H745 C761 0.959 . S
H746 C761 0.959 . S
H747 C761 0.961 . S
H748 C762 0.960 . S
H749 C762 0.961 . S
H750 C762 0.959 . S
H751 C765 0.929 . S
H752 C766 0.931 . S
H753 C768 0.930 . S
C754 H742 0.930 . S
C754 C755 1.399 . S
C754 C759 1.399 . S
C755 C754 1.399 . S
C755 C756 1.376 . S
C756 H743 0.930 . S
C756 C755 1.376 . S
C756 C757 1.388 . S
C757 H744 0.930 . S
C757 C756 1.388 . S
C757 C758 1.390 . S
C758 C757 1.390 . S
C758 C759 1.394 . S
C758 C764 1.465 . S
C759 C754 1.399 . S
C759 C758 1.394 . S
C759 C760 1.516 . S
C760 C759 1.516 . S
C760 C761 1.502 . S
C760 C762 1.561 . S
C760 C763 1.526 . S
C761 H745 0.959 . S
C761 H746 0.959 . S
C761 H747 0.961 . S
C761 C760 1.502 . S
C762 H748 0.960 . S
C762 H749 0.961 . S
C762 H750 0.959 . S
C762 C760 1.561 . S
C763 C760 1.526 . S
C763 C764 1.396 . S
C763 C768 1.390 . S
C764 C758 1.465 . S
C764 C763 1.396 . S
C764 C765 1.399 . S
C765 H751 0.929 . S
C765 C764 1.399 . S
C765 C766 1.385 . S
C766 H752 0.931 . S
C766 C765 1.385 . S
C766 C767 1.389 . S
C767 C766 1.389 . S
C767 C768 1.387 . S
C768 H753 0.930 . S
C768 C763 1.390 . S
C768 C767 1.387 . S
H769 C781 0.930 1_455 S
H770 C783 0.930 . S
H771 C784 0.930 . S
H772 C788 0.959 . S
H773 C788 0.959 . S
H774 C788 0.961 . S
H775 C789 0.960 . S
H776 C789 0.961 1_455 S
H777 C789 0.959 . S
H778 C792 0.929 . S
H779 C793 0.931 . S
H780 C795 0.930 . S
C781 H769 0.930 1_655 S
C781 C782 1.399 . S
C781 C786 1.399 . S
C782 C781 1.399 . S
C782 C783 1.376 . S
C783 H770 0.930 . S
C783 C782 1.376 . S
C783 C784 1.388 . S
C784 H771 0.930 . S
C784 C783 1.388 . S
C784 C785 1.390 . S
C785 C784 1.390 . S
C785 C786 1.394 . S
C785 C791 1.465 . S
C786 C781 1.399 . S
C786 C785 1.394 . S
C786 C787 1.516 1_655 S
C787 C786 1.516 1_455 S
C787 C788 1.502 . S
C787 C789 1.561 1_455 S
C787 C790 1.526 . S
C788 H772 0.959 . S
C788 H773 0.959 . S
C788 H774 0.961 . S
C788 C787 1.502 . S
C789 H775 0.960 . S
C789 H776 0.961 1_655 S
C789 H777 0.959 . S
C789 C787 1.561 1_655 S
C790 C787 1.526 . S
C790 C791 1.396 1_455 S
C790 C795 1.390 . S
C791 C785 1.465 . S
C791 C790 1.396 1_655 S
C791 C792 1.399 . S
C792 H778 0.929 . S
C792 C791 1.399 . S
C792 C793 1.385 . S
C793 H779 0.931 . S
C793 C792 1.385 . S
C793 C794 1.389 1_655 S
C794 C793 1.389 1_455 S
C794 C795 1.387 . S
C795 H780 0.930 . S
C795 C790 1.390 . S
C795 C794 1.387 . S
H796 C808 0.930 . S
H797 C810 0.930 . S
H798 C811 0.930 . S
H799 C815 0.959 . S
H800 C815 0.959 . S
H801 C815 0.961 . S
H802 C816 0.960 . S
H803 C816 0.961 . S
H804 C816 0.959 . S
H805 C819 0.929 . S
H806 C820 0.931 . S
H807 C822 0.930 . S
C808 H796 0.930 . S
C808 C809 1.399 . S
C808 C813 1.399 . S
C809 C808 1.399 . S
C809 C810 1.376 . S
C810 H797 0.930 . S
C810 C809 1.376 . S
C810 C811 1.388 . S
C811 H798 0.930 . S
C811 C810 1.388 . S
C811 C812 1.390 . S
C812 C811 1.390 . S
C812 C813 1.394 . S
C812 C818 1.465 . S
C813 C808 1.399 . S
C813 C812 1.394 . S
C813 C814 1.516 . S
C814 C813 1.516 . S
C814 C815 1.502 . S
C814 C816 1.561 . S
C814 C817 1.526 . S
C815 H799 0.959 . S
C815 H800 0.959 . S
C815 H801 0.961 . S
C815 C814 1.502 . S
C816 H802 0.960 . S
C816 H803 0.961 . S
C816 H804 0.959 . S
C816 C814 1.561 . S
C817 C814 1.526 . S
C817 C818 1.396 . S
C817 C822 1.390 . S
C818 C812 1.465 . S
C818 C817 1.396 . S
C818 C819 1.399 . S
C819 H805 0.929 . S
C819 C818 1.399 . S
C819 C820 1.385 . S
C820 H806 0.931 . S
C820 C819 1.385 . S
C820 C821 1.389 . S
C821 C820 1.389 . S
C821 C822 1.387 . S
C822 H807 0.930 . S
C822 C817 1.390 . S
C822 C821 1.387 . S
H823 C835 0.930 . S
H824 C837 0.930 . S
H825 C838 0.930 . S
H826 C842 0.959 . S
H827 C842 0.959 . S
H828 C842 0.961 . S
H829 C843 0.960 . S
H830 C843 0.961 . S
H831 C843 0.959 . S
H832 C846 0.929 . S
H833 C847 0.931 . S
H834 C849 0.930 . S
C835 H823 0.930 . S
C835 C836 1.399 . S
C835 C840 1.399 . S
C836 C835 1.399 . S
C836 C837 1.376 . S
C837 H824 0.930 . S
C837 C836 1.376 . S
C837 C838 1.388 . S
C838 H825 0.930 . S
C838 C837 1.388 . S
C838 C839 1.390 . S
C839 C838 1.390 . S
C839 C840 1.394 . S
C839 C845 1.465 . S
C840 C835 1.399 . S
C840 C839 1.394 . S
C840 C841 1.516 . S
C841 C840 1.516 . S
C841 C842 1.502 . S
C841 C843 1.561 . S
C841 C844 1.526 . S
C842 H826 0.959 . S
C842 H827 0.959 . S
C842 H828 0.961 . S
C842 C841 1.502 . S
C843 H829 0.960 . S
C843 H830 0.961 . S
C843 H831 0.959 . S
C843 C841 1.561 . S
C844 C841 1.526 . S
C844 C845 1.396 . S
C844 C849 1.390 . S
C845 C839 1.465 . S
C845 C844 1.396 . S
C845 C846 1.399 . S
C846 H832 0.929 . S
C846 C845 1.399 . S
C846 C847 1.385 . S
C847 H833 0.931 . S
C847 C846 1.385 . S
C847 C848 1.389 . S
C848 C847 1.389 . S
C848 C849 1.387 . S
C849 H834 0.930 . S
C849 C844 1.390 . S
C849 C848 1.387 . S
H850 C862 0.930 . S
H851 C864 0.930 . S
H852 C865 0.930 . S
H853 C869 0.959 . S
H854 C869 0.959 . S
H855 C869 0.961 . S
H856 C870 0.960 1_545 S
H857 C870 0.961 . S
H858 C870 0.959 . S
H859 C873 0.929 . S
H860 C874 0.931 . S
H861 C876 0.930 . S
C862 H850 0.930 . S
C862 C863 1.399 . S
C862 C867 1.399 . S
C863 C862 1.399 . S
C863 C864 1.376 1_556 S
C864 H851 0.930 . S
C864 C863 1.376 1_554 S
C864 C865 1.388 1_545 S
C865 H852 0.930 . S
C865 C864 1.388 1_565 S
C865 C866 1.390 . S
C866 C865 1.390 . S
C866 C867 1.394 1_564 S
C866 C872 1.465 . S
C867 C862 1.399 . S
C867 C866 1.394 1_546 S
C867 C868 1.520 . S
C868 C867 1.520 . S
C868 C869 1.534 . S
C868 C870 1.544 1_545 S
C868 C871 1.504 1_545 S
C869 H853 0.959 . S
C869 H854 0.959 . S
C869 H855 0.961 . S
C869 C868 1.534 . S
C870 H856 0.960 1_565 S
C870 H857 0.961 . S
C870 H858 0.959 . S
C870 C868 1.544 1_565 S
C871 C868 1.504 1_565 S
C871 C872 1.396 1_556 S
C871 C876 1.390 . S
C872 C866 1.465 . S
C872 C871 1.396 1_554 S
C872 C873 1.399 . S
C873 H859 0.929 . S
C873 C872 1.399 . S
C873 C874 1.385 . S
C874 H860 0.931 . S
C874 C873 1.385 . S
C874 C875 1.389 1_554 S
C875 C874 1.389 1_556 S
C875 C876 1.387 . S
C876 H861 0.930 . S
C876 C871 1.390 . S
C876 C875 1.387 . S
H877 C889 0.930 . S
H878 C891 0.930 . S
H879 C892 0.930 . S
H880 C896 0.959 . S
H881 C896 0.959 . S
H882 C896 0.961 . S
H883 C897 0.960 . S
H884 C897 0.961 . S
H885 C897 0.959 . S
H886 C900 0.929 . S
H887 C901 0.931 . S
H888 C903 0.930 . S
C889 H877 0.930 . S
C889 C890 1.399 . S
C889 C894 1.399 . S
C890 C889 1.399 . S
C890 C891 1.376 . S
C891 H878 0.930 . S
C891 C890 1.376 . S
C891 C892 1.388 . S
C892 H879 0.930 . S
C892 C891 1.388 . S
C892 C893 1.390 . S
C893 C892 1.390 . S
C893 C894 1.394 . S
C893 C899 1.465 . S
C894 C889 1.399 . S
C894 C893 1.394 . S
C894 C895 1.516 . S
C895 C894 1.516 . S
C895 C896 1.502 . S
C895 C897 1.561 . S
C895 C898 1.526 . S
C896 H880 0.959 . S
C896 H881 0.959 . S
C896 H882 0.961 . S
C896 C895 1.502 . S
C897 H883 0.960 . S
C897 H884 0.961 . S
C897 H885 0.959 . S
C897 C895 1.561 . S
C898 C895 1.526 . S
C898 C899 1.396 . S
C898 C903 1.390 . S
C899 C893 1.465 . S
C899 C898 1.396 . S
C899 C900 1.399 . S
C900 H886 0.929 . S
C900 C899 1.399 . S
C900 C901 1.385 . S
C901 H887 0.931 . S
C901 C900 1.385 . S
C901 C902 1.389 . S
C902 C901 1.389 . S
C902 C903 1.387 . S
C903 H888 0.930 . S
C903 C898 1.390 . S
C903 C902 1.387 . S
H904 C916 0.930 . S
H905 C918 0.930 . S
H906 C919 0.930 . S
H907 C923 0.959 . S
H908 C923 0.959 . S
H909 C923 0.961 . S
H910 C924 0.960 . S
H911 C924 0.961 . S
H912 C924 0.959 . S
H913 C927 0.929 . S
H914 C928 0.931 . S
H915 C930 0.930 . S
C916 H904 0.930 . S
C916 C917 1.399 . S
C916 C921 1.399 . S
C917 C916 1.399 . S
C917 C918 1.376 . S
C918 H905 0.930 . S
C918 C917 1.376 . S
C918 C919 1.388 . S
C919 H906 0.930 . S
C919 C918 1.388 . S
C919 C920 1.390 . S
C920 C919 1.390 . S
C920 C921 1.394 . S
C920 C926 1.465 . S
C921 C916 1.399 . S
C921 C920 1.394 . S
C921 C922 1.516 . S
C922 C921 1.516 . S
C922 C923 1.502 . S
C922 C924 1.561 . S
C922 C925 1.526 . S
C923 H907 0.959 . S
C923 H908 0.959 . S
C923 H909 0.961 . S
C923 C922 1.502 . S
C924 H910 0.960 . S
C924 H911 0.961 . S
C924 H912 0.959 . S
C924 C922 1.561 . S
C925 C922 1.526 . S
C925 C926 1.396 . S
C925 C930 1.390 . S
C926 C920 1.465 . S
C926 C925 1.396 . S
C926 C927 1.399 . S
C927 H913 0.929 . S
C927 C926 1.399 . S
C927 C928 1.385 . S
C928 H914 0.931 . S
C928 C927 1.385 . S
C928 C929 1.389 . S
C929 C928 1.389 . S
C929 C930 1.387 . S
C930 H915 0.930 . S
C930 C925 1.390 . S
C930 C929 1.387 . S
H931 C943 0.930 . S
H932 C945 0.930 . S
H933 C946 0.930 . S
H934 C950 0.959 . S
H935 C950 0.959 . S
H936 C950 0.961 . S
H937 C951 0.960 . S
H938 C951 0.961 . S
H939 C951 0.959 . S
H940 C954 0.929 . S
H941 C955 0.931 . S
H942 C957 0.930 . S
C943 H931 0.930 . S
C943 C944 1.399 . S
C943 C948 1.399 . S
C944 C943 1.399 . S
C944 C945 1.376 . S
C945 H932 0.930 . S
C945 C944 1.376 . S
C945 C946 1.388 . S
C946 H933 0.930 . S
C946 C945 1.388 . S
C946 C947 1.390 . S
C947 C946 1.390 . S
C947 C948 1.394 . S
C947 C953 1.465 . S
C948 C943 1.399 . S
C948 C947 1.394 . S
C948 C949 1.516 . S
C949 C948 1.516 . S
C949 C950 1.502 . S
C949 C951 1.561 . S
C949 C952 1.526 . S
C950 H934 0.959 . S
C950 H935 0.959 . S
C950 H936 0.961 . S
C950 C949 1.502 . S
C951 H937 0.960 . S
C951 H938 0.961 . S
C951 H939 0.959 . S
C951 C949 1.561 . S
C952 C949 1.526 . S
C952 C953 1.396 . S
C952 C957 1.390 . S
C953 C947 1.465 . S
C953 C952 1.396 . S
C953 C954 1.399 . S
C954 H940 0.929 . S
C954 C953 1.399 . S
C954 C955 1.385 . S
C955 H941 0.931 . S
C955 C954 1.385 . S
C955 C956 1.389 . S
C956 C955 1.389 . S
C956 C957 1.387 . S
C957 H942 0.930 . S
C957 C952 1.390 . S
C957 C956 1.387 . S
H958 C970 0.930 1_565 S
H959 C972 0.930 . S
H960 C973 0.930 . S
H961 C977 0.959 1_565 S
H962 C977 0.959 . S
H963 C977 0.961 1_565 S
H964 C978 0.960 . S
H965 C978 0.961 . S
H966 C978 0.959 . S
H967 C981 0.929 . S
H968 C982 0.931 . S
H969 C984 0.930 . S
C970 H958 0.930 1_545 S
C970 C971 1.399 . S
C970 C975 1.399 . S
C971 C970 1.399 . S
C971 C972 1.376 . S
C972 H959 0.930 . S
C972 C971 1.376 . S
C972 C973 1.388 . S
C973 H960 0.930 . S
C973 C972 1.388 . S
C973 C974 1.390 . S
C974 C973 1.390 . S
C974 C975 1.394 . S
C974 C980 1.465 . S
C975 C970 1.399 . S
C975 C974 1.394 . S
C975 C976 1.516 . S
C976 C975 1.516 . S
C976 C977 1.502 . S
C976 C978 1.561 . S
C976 C979 1.526 . S
C977 H961 0.959 1_545 S
C977 H962 0.959 . S
C977 H963 0.961 1_545 S
C977 C976 1.502 . S
C978 H964 0.960 . S
C978 H965 0.961 . S
C978 H966 0.959 . S
C978 C976 1.561 . S
C979 C976 1.526 . S
C979 C980 1.396 . S
C979 C984 1.390 . S
C980 C974 1.465 . S
C980 C979 1.396 . S
C980 C981 1.399 . S
C981 H967 0.929 . S
C981 C980 1.399 . S
C981 C982 1.385 . S
C982 H968 0.931 . S
C982 C981 1.385 . S
C982 C983 1.389 . S
C983 C982 1.389 . S
C983 C984 1.387 . S
C984 H969 0.930 . S
C984 C979 1.390 . S
C984 C983 1.387 . S
H985 C997 0.930 . S
H986 C999 0.930 . S
H987 C1000 0.930 . S
H988 C1004 0.959 . S
H989 C1004 0.959 . S
H990 C1004 0.961 . S
H991 C1005 0.960 . S
H992 C1005 0.961 . S
H993 C1005 0.959 . S
H994 C1008 0.929 . S
H995 C1009 0.931 . S
H996 C1011 0.930 . S
C997 H985 0.930 . S
C997 C998 1.399 . S
C997 C1002 1.399 . S
C998 C997 1.399 . S
C998 C999 1.376 . S
C999 H986 0.930 . S
C999 C998 1.376 . S
C999 C1000 1.388 . S
C1000 H987 0.930 . S
C1000 C999 1.388 . S
C1000 C1001 1.390 . S
C1001 C1000 1.390 . S
C1001 C1002 1.394 . S
C1001 C1007 1.465 . S
C1002 C997 1.399 . S
C1002 C1001 1.394 . S
C1002 C1003 1.516 . S
C1003 C1002 1.516 . S
C1003 C1004 1.502 . S
C1003 C1005 1.561 . S
C1003 C1006 1.526 . S
C1004 H988 0.959 . S
C1004 H989 0.959 . S
C1004 H990 0.961 . S
C1004 C1003 1.502 . S
C1005 H991 0.960 . S
C1005 H992 0.961 . S
C1005 H993 0.959 . S
C1005 C1003 1.561 . S
C1006 C1003 1.526 . S
C1006 C1007 1.396 . S
C1006 C1011 1.390 . S
C1007 C1001 1.465 . S
C1007 C1006 1.396 . S
C1007 C1008 1.399 . S
C1008 H994 0.929 . S
C1008 C1007 1.399 . S
C1008 C1009 1.385 . S
C1009 H995 0.931 . S
C1009 C1008 1.385 . S
C1009 C1010 1.389 . S
C1010 C1009 1.389 . S
C1010 C1011 1.387 . S
C1011 H996 0.930 . S
C1011 C1006 1.390 . S
C1011 C1010 1.387 . S
H1012 C1024 0.930 . S
H1013 C1026 0.930 . S
H1014 C1027 0.930 . S
H1015 C1031 0.959 . S
H1016 C1031 0.959 . S
H1017 C1031 0.961 . S
H1018 C1032 0.960 . S
H1019 C1032 0.961 . S
H1020 C1032 0.959 . S
H1021 C1035 0.929 . S
H1022 C1036 0.931 . S
H1023 C1038 0.930 . S
C1024 H1012 0.930 . S
C1024 C1025 1.399 . S
C1024 C1029 1.399 . S
C1025 C1024 1.399 . S
C1025 C1026 1.376 . S
C1026 H1013 0.930 . S
C1026 C1025 1.376 . S
C1026 C1027 1.388 . S
C1027 H1014 0.930 . S
C1027 C1026 1.388 . S
C1027 C1028 1.390 . S
C1028 C1027 1.390 . S
C1028 C1029 1.394 . S
C1028 C1034 1.465 . S
C1029 C1024 1.399 . S
C1029 C1028 1.394 . S
C1029 C1030 1.516 . S
C1030 C1029 1.516 . S
C1030 C1031 1.502 . S
C1030 C1032 1.561 . S
C1030 C1033 1.526 . S
C1031 H1015 0.959 . S
C1031 H1016 0.959 . S
C1031 H1017 0.961 . S
C1031 C1030 1.502 . S
C1032 H1018 0.960 . S
C1032 H1019 0.961 . S
C1032 H1020 0.959 . S
C1032 C1030 1.561 . S
C1033 C1030 1.526 . S
C1033 C1034 1.396 . S
C1033 C1038 1.390 . S
C1034 C1028 1.465 . S
C1034 C1033 1.396 . S
C1034 C1035 1.399 . S
C1035 H1021 0.929 . S
C1035 C1034 1.399 . S
C1035 C1036 1.385 . S
C1036 H1022 0.931 . S
C1036 C1035 1.385 . S
C1036 C1037 1.389 . S
C1037 C1036 1.389 . S
C1037 C1038 1.387 . S
C1038 H1023 0.930 . S
C1038 C1033 1.390 . S
C1038 C1037 1.387 . S
H1039 C1051 0.930 . S
H1040 C1053 0.930 . S
H1041 C1054 0.930 1_565 S
H1042 C1058 0.959 . S
H1043 C1058 0.959 . S
H1044 C1058 0.961 . S
H1045 C1059 0.960 . S
H1046 C1059 0.961 . S
H1047 C1059 0.959 . S
H1048 C1062 0.929 . S
H1049 C1063 0.931 . S
H1050 C1065 0.930 . S
C1051 H1039 0.930 . S
C1051 C1052 1.399 . S
C1051 C1056 1.399 . S
C1052 C1051 1.399 . S
C1052 C1053 1.376 . S
C1053 H1040 0.930 . S
C1053 C1052 1.376 . S
C1053 C1054 1.388 . S
C1054 H1041 0.930 1_545 S
C1054 C1053 1.388 . S
C1054 C1055 1.390 . S
C1055 C1054 1.390 . S
C1055 C1056 1.394 . S
C1055 C1061 1.465 . S
C1056 C1051 1.399 . S
C1056 C1055 1.394 . S
C1056 C1057 1.516 . S
C1057 C1056 1.516 . S
C1057 C1058 1.502 . S
C1057 C1059 1.561 . S
C1057 C1060 1.526 . S
C1058 H1042 0.959 . S
C1058 H1043 0.959 . S
C1058 H1044 0.961 . S
C1058 C1057 1.502 . S
C1059 H1045 0.960 . S
C1059 H1046 0.961 . S
C1059 H1047 0.959 . S
C1059 C1057 1.561 . S
C1060 C1057 1.526 . S
C1060 C1061 1.396 . S
C1060 C1065 1.390 . S
C1061 C1055 1.465 . S
C1061 C1060 1.396 . S
C1061 C1062 1.399 1_545 S
C1062 H1048 0.929 . S
C1062 C1061 1.399 1_565 S
C1062 C1063 1.385 . S
C1063 H1049 0.931 . S
C1063 C1062 1.385 . S
C1063 C1064 1.389 1_565 S
C1064 C1063 1.389 1_545 S
C1064 C1065 1.387 . S
C1065 H1050 0.930 . S
C1065 C1060 1.390 . S
C1065 C1064 1.387 . S
H1066 C1078 0.930 . S
H1067 C1080 0.930 . S
H1068 C1081 0.930 . S
H1069 C1085 0.959 . S
H1070 C1085 0.959 . S
H1071 C1085 0.961 . S
H1072 C1086 0.960 . S
H1073 C1086 0.961 . S
H1074 C1086 0.959 . S
H1075 C1089 0.929 . S
H1076 C1090 0.931 . S
H1077 C1092 0.930 . S
C1078 H1066 0.930 . S
C1078 C1079 1.399 . S
C1078 C1083 1.399 . S
C1079 C1078 1.399 . S
C1079 C1080 1.376 . S
C1080 H1067 0.930 . S
C1080 C1079 1.376 . S
C1080 C1081 1.388 . S
C1081 H1068 0.930 . S
C1081 C1080 1.388 . S
C1081 C1082 1.390 . S
C1082 C1081 1.390 . S
C1082 C1083 1.394 . S
C1082 C1088 1.465 . S
C1083 C1078 1.399 . S
C1083 C1082 1.394 . S
C1083 C1084 1.516 . S
C1084 C1083 1.516 . S
C1084 C1085 1.502 . S
C1084 C1086 1.561 . S
C1084 C1087 1.526 . S
C1085 H1069 0.959 . S
C1085 H1070 0.959 . S
C1085 H1071 0.961 . S
C1085 C1084 1.502 . S
C1086 H1072 0.960 . S
C1086 H1073 0.961 . S
C1086 H1074 0.959 . S
C1086 C1084 1.561 . S
C1087 C1084 1.526 . S
C1087 C1088 1.396 . S
C1087 C1092 1.390 . S
C1088 C1082 1.465 . S
C1088 C1087 1.396 . S
C1088 C1089 1.399 . S
C1089 H1075 0.929 . S
C1089 C1088 1.399 . S
C1089 C1090 1.385 . S
C1090 H1076 0.931 . S
C1090 C1089 1.385 . S
C1090 C1091 1.389 . S
C1091 C1090 1.389 . S
C1091 C1092 1.387 . S
C1092 H1077 0.930 . S
C1092 C1087 1.390 . S
C1092 C1091 1.387 . S
H1093 C1105 0.930 . S
H1094 C1107 0.930 . S
H1095 C1108 0.930 . S
H1096 C1112 0.959 . S
H1097 C1112 0.959 . S
H1098 C1112 0.961 . S
H1099 C1113 0.960 . S
H1100 C1113 0.961 . S
H1101 C1113 0.959 . S
H1102 C1116 0.929 . S
H1103 C1117 0.931 . S
H1104 C1119 0.930 . S
C1105 H1093 0.930 . S
C1105 C1106 1.399 . S
C1105 C1110 1.399 . S
C1106 C1105 1.399 . S
C1106 C1107 1.376 . S
C1107 H1094 0.930 . S
C1107 C1106 1.376 . S
C1107 C1108 1.388 . S
C1108 H1095 0.930 . S
C1108 C1107 1.388 . S
C1108 C1109 1.390 . S
C1109 C1108 1.390 . S
C1109 C1110 1.394 . S
C1109 C1115 1.465 . S
C1110 C1105 1.399 . S
C1110 C1109 1.394 . S
C1110 C1111 1.516 . S
C1111 C1110 1.516 . S
C1111 C1112 1.502 . S
C1111 C1113 1.561 . S
C1111 C1114 1.526 . S
C1112 H1096 0.959 . S
C1112 H1097 0.959 . S
C1112 H1098 0.961 . S
C1112 C1111 1.502 . S
C1113 H1099 0.960 . S
C1113 H1100 0.961 . S
C1113 H1101 0.959 . S
C1113 C1111 1.561 . S
C1114 C1111 1.526 . S
C1114 C1115 1.396 . S
C1114 C1119 1.390 . S
C1115 C1109 1.465 . S
C1115 C1114 1.396 . S
C1115 C1116 1.399 . S
C1116 H1102 0.929 . S
C1116 C1115 1.399 . S
C1116 C1117 1.385 . S
C1117 H1103 0.931 . S
C1117 C1116 1.385 . S
C1117 C1118 1.389 . S
C1118 C1117 1.389 . S
C1118 C1119 1.387 . S
C1119 H1104 0.930 . S
C1119 C1114 1.390 . S
C1119 C1118 1.387 . S
H1120 C1132 0.930 . S
H1121 C1134 0.930 . S
H1122 C1135 0.930 . S
H1123 C1139 0.959 . S
H1124 C1139 0.959 . S
H1125 C1139 0.961 . S
H1126 C1140 0.960 . S
H1127 C1140 0.961 . S
H1128 C1140 0.959 . S
H1129 C1143 0.929 . S
H1130 C1144 0.931 . S
H1131 C1146 0.930 . S
C1132 H1120 0.930 . S
C1132 C1133 1.399 . S
C1132 C1137 1.399 . S
C1133 C1132 1.399 . S
C1133 C1134 1.376 . S
C1134 H1121 0.930 . S
C1134 C1133 1.376 . S
C1134 C1135 1.388 . S
C1135 H1122 0.930 . S
C1135 C1134 1.388 . S
C1135 C1136 1.390 . S
C1136 C1135 1.390 . S
C1136 C1137 1.394 . S
C1136 C1142 1.465 . S
C1137 C1132 1.399 . S
C1137 C1136 1.394 . S
C1137 C1138 1.516 . S
C1138 C1137 1.516 . S
C1138 C1139 1.502 . S
C1138 C1140 1.561 . S
C1138 C1141 1.526 . S
C1139 H1123 0.959 . S
C1139 H1124 0.959 . S
C1139 H1125 0.961 . S
C1139 C1138 1.502 . S
C1140 H1126 0.960 . S
C1140 H1127 0.961 . S
C1140 H1128 0.959 . S
C1140 C1138 1.561 . S
C1141 C1138 1.526 . S
C1141 C1142 1.396 . S
C1141 C1146 1.390 . S
C1142 C1136 1.465 . S
C1142 C1141 1.396 . S
C1142 C1143 1.399 . S
C1143 H1129 0.929 . S
C1143 C1142 1.399 . S
C1143 C1144 1.385 . S
C1144 H1130 0.931 . S
C1144 C1143 1.385 . S
C1144 C1145 1.389 . S
C1145 C1144 1.389 . S
C1145 C1146 1.387 . S
C1146 H1131 0.930 . S
C1146 C1141 1.390 . S
C1146 C1145 1.387 . S
H1147 C1159 0.930 . S
H1148 C1161 0.930 . S
H1149 C1162 0.934 . S
H1150 C1166 0.959 . S
H1151 C1166 0.959 1_565 S
H1152 C1166 0.961 1_565 S
H1153 C1167 0.960 . S
H1154 C1167 0.961 . S
H1155 C1167 0.959 . S
H1156 C1170 0.929 . S
H1157 C1171 0.931 . S
H1158 C1173 0.930 . S
C1159 H1147 0.930 . S
C1159 C1160 1.399 . S
C1159 C1164 1.399 . S
C1160 C1159 1.399 . S
C1160 C1161 1.376 1_655 S
C1161 H1148 0.930 . S
C1161 C1160 1.376 1_455 S
C1161 C1162 1.388 1_455 S
C1162 H1149 0.934 . S
C1162 C1161 1.388 1_655 S
C1162 C1163 1.390 . S
C1163 C1162 1.390 . S
C1163 C1164 1.394 . S
C1163 C1169 1.465 . S
C1164 C1159 1.399 . S
C1164 C1163 1.394 . S
C1164 C1165 1.516 . S
C1165 C1164 1.516 . S
C1165 C1166 1.502 . S
C1165 C1167 1.561 1_545 S
C1165 C1168 1.526 . S
C1166 H1150 0.959 . S
C1166 H1151 0.959 1_545 S
C1166 H1152 0.961 1_545 S
C1166 C1165 1.502 . S
C1167 H1153 0.960 . S
C1167 H1154 0.961 . S
C1167 H1155 0.959 . S
C1167 C1165 1.561 1_565 S
C1168 C1165 1.526 . S
C1168 C1169 1.396 . S
C1168 C1173 1.390 . S
C1169 C1163 1.465 . S
C1169 C1168 1.396 . S
C1169 C1170 1.399 . S
C1170 H1156 0.929 . S
C1170 C1169 1.399 . S
C1170 C1171 1.385 . S
C1171 H1157 0.931 . S
C1171 C1170 1.385 . S
C1171 C1172 1.389 . S
C1172 C1171 1.389 . S
C1172 C1173 1.387 . S
C1173 H1158 0.930 . S
C1173 C1168 1.390 . S
C1173 C1172 1.387 . S
H1174 C1186 0.930 . S
H1175 C1188 0.930 . S
H1176 C1189 0.930 . S
H1177 C1193 0.959 . S
H1178 C1193 0.959 . S
H1179 C1193 0.961 . S
H1180 C1194 0.960 . S
H1181 C1194 0.961 . S
H1182 C1194 0.959 . S
H1183 C1197 0.929 . S
H1184 C1198 0.931 . S
H1185 C1200 0.930 . S
C1186 H1174 0.930 . S
C1186 C1187 1.399 . S
C1186 C1191 1.399 . S
C1187 C1186 1.399 . S
C1187 C1188 1.376 . S
C1188 H1175 0.930 . S
C1188 C1187 1.376 . S
C1188 C1189 1.388 . S
C1189 H1176 0.930 . S
C1189 C1188 1.388 . S
C1189 C1190 1.390 . S
C1190 C1189 1.390 . S
C1190 C1191 1.394 . S
C1190 C1196 1.465 . S
C1191 C1186 1.399 . S
C1191 C1190 1.394 . S
C1191 C1192 1.516 . S
C1192 C1191 1.516 . S
C1192 C1193 1.502 . S
C1192 C1194 1.561 . S
C1192 C1195 1.526 . S
C1193 H1177 0.959 . S
C1193 H1178 0.959 . S
C1193 H1179 0.961 . S
C1193 C1192 1.502 . S
C1194 H1180 0.960 . S
C1194 H1181 0.961 . S
C1194 H1182 0.959 . S
C1194 C1192 1.561 . S
C1195 C1192 1.526 . S
C1195 C1196 1.396 . S
C1195 C1200 1.390 . S
C1196 C1190 1.465 . S
C1196 C1195 1.396 . S
C1196 C1197 1.399 . S
C1197 H1183 0.929 . S
C1197 C1196 1.399 . S
C1197 C1198 1.385 . S
C1198 H1184 0.931 . S
C1198 C1197 1.385 . S
C1198 C1199 1.389 . S
C1199 C1198 1.389 . S
C1199 C1200 1.387 . S
C1200 H1185 0.930 . S
C1200 C1195 1.390 . S
C1200 C1199 1.387 . S
H1201 C1213 0.930 . S
H1202 C1215 0.930 1_655 S
H1203 C1216 0.930 . S
H1204 C1220 0.959 . S
H1205 C1220 0.959 . S
H1206 C1220 0.961 . S
H1207 C1221 0.960 . S
H1208 C1221 0.961 . S
H1209 C1221 0.959 . S
H1210 C1224 0.929 . S
H1211 C1225 0.931 . S
H1212 C1227 0.930 . S
C1213 H1201 0.930 . S
C1213 C1214 1.399 . S
C1213 C1218 1.399 . S
C1214 C1213 1.399 . S
C1214 C1215 1.376 . S
C1215 H1202 0.930 1_455 S
C1215 C1214 1.376 . S
C1215 C1216 1.388 . S
C1216 H1203 0.930 . S
C1216 C1215 1.388 . S
C1216 C1217 1.390 . S
C1217 C1216 1.390 . S
C1217 C1218 1.394 . S
C1217 C1223 1.465 . S
C1218 C1213 1.399 . S
C1218 C1217 1.394 . S
C1218 C1219 1.516 . S
C1219 C1218 1.516 . S
C1219 C1220 1.502 . S
C1219 C1221 1.561 . S
C1219 C1222 1.526 . S
C1220 H1204 0.959 . S
C1220 H1205 0.959 . S
C1220 H1206 0.961 . S
C1220 C1219 1.502 . S
C1221 H1207 0.960 . S
C1221 H1208 0.961 . S
C1221 H1209 0.959 . S
C1221 C1219 1.561 . S
C1222 C1219 1.526 . S
C1222 C1223 1.396 . S
C1222 C1227 1.390 . S
C1223 C1217 1.465 . S
C1223 C1222 1.396 . S
C1223 C1224 1.399 . S
C1224 H1210 0.929 . S
C1224 C1223 1.399 . S
C1224 C1225 1.385 . S
C1225 H1211 0.931 . S
C1225 C1224 1.385 . S
C1225 C1226 1.389 . S
C1226 C1225 1.389 . S
C1226 C1227 1.387 . S
C1227 H1212 0.930 . S
C1227 C1222 1.390 . S
C1227 C1226 1.387 . S
H1228 C1240 0.930 . S
H1229 C1242 0.930 . S
H1230 C1243 0.930 . S
H1231 C1247 0.959 . S
H1232 C1247 0.959 . S
H1233 C1247 0.961 . S
H1234 C1248 0.960 . S
H1235 C1248 0.961 . S
H1236 C1248 0.959 . S
H1237 C1251 0.929 . S
H1238 C1252 0.931 . S
H1239 C1254 0.930 . S
C1240 H1228 0.930 . S
C1240 C1241 1.399 . S
C1240 C1245 1.399 . S
C1241 C1240 1.399 . S
C1241 C1242 1.376 . S
C1242 H1229 0.930 . S
C1242 C1241 1.376 . S
C1242 C1243 1.388 . S
C1243 H1230 0.930 . S
C1243 C1242 1.388 . S
C1243 C1244 1.390 . S
C1244 C1243 1.390 . S
C1244 C1245 1.394 . S
C1244 C1250 1.465 . S
C1245 C1240 1.399 . S
C1245 C1244 1.394 . S
C1245 C1246 1.516 . S
C1246 C1245 1.516 . S
C1246 C1247 1.502 . S
C1246 C1248 1.561 . S
C1246 C1249 1.526 . S
C1247 H1231 0.959 . S
C1247 H1232 0.959 . S
C1247 H1233 0.961 . S
C1247 C1246 1.502 . S
C1248 H1234 0.960 . S
C1248 H1235 0.961 . S
C1248 H1236 0.959 . S
C1248 C1246 1.561 . S
C1249 C1246 1.526 . S
C1249 C1250 1.396 . S
C1249 C1254 1.390 . S
C1250 C1244 1.465 . S
C1250 C1249 1.396 . S
C1250 C1251 1.399 . S
C1251 H1237 0.929 . S
C1251 C1250 1.399 . S
C1251 C1252 1.385 . S
C1252 H1238 0.931 . S
C1252 C1251 1.385 . S
C1252 C1253 1.389 . S
C1253 C1252 1.389 . S
C1253 C1254 1.387 . S
C1254 H1239 0.930 . S
C1254 C1249 1.390 . S
C1254 C1253 1.387 . S
H1255 C1267 0.930 . S
H1256 C1269 0.930 . S
H1257 C1270 0.930 . S
H1258 C1274 0.959 . S
H1259 C1274 0.959 . S
H1260 C1274 0.961 1_554 S
H1261 C1275 0.960 . S
H1262 C1275 0.961 . S
H1263 C1275 0.955 1_556 S
H1264 C1278 0.929 . S
H1265 C1279 0.931 . S
H1266 C1281 0.944 . S
C1267 H1255 0.930 . S
C1267 C1268 1.399 . S
C1267 C1272 1.399 1_554 S
C1268 C1267 1.399 . S
C1268 C1269 1.376 1_554 S
C1269 H1256 0.930 . S
C1269 C1268 1.376 1_556 S
C1269 C1270 1.388 . S
C1270 H1257 0.930 . S
C1270 C1269 1.388 . S
C1270 C1271 1.390 . S
C1271 C1270 1.390 . S
C1271 C1272 1.394 . S
C1271 C1277 1.465 . S
C1272 C1267 1.399 1_556 S
C1272 C1271 1.394 . S
C1272 C1273 1.516 . S
C1273 C1272 1.516 . S
C1273 C1274 1.502 1_655 S
C1273 C1275 1.561 1_556 S
C1273 C1276 1.526 . S
C1274 H1258 0.959 . S
C1274 H1259 0.959 . S
C1274 H1260 0.961 1_556 S
C1274 C1273 1.502 1_455 S
C1275 H1261 0.960 . S
C1275 H1262 0.961 . S
C1275 H1263 0.955 1_554 S
C1275 C1273 1.561 1_554 S
C1276 C1273 1.526 . S
C1276 C1277 1.396 . S
C1276 C1281 1.380 1_655 S
C1277 C1271 1.465 . S
C1277 C1276 1.396 . S
C1277 C1278 1.399 . S
C1278 H1264 0.929 . S
C1278 C1277 1.399 . S
C1278 C1279 1.385 . S
C1279 H1265 0.931 . S
C1279 C1278 1.385 . S
C1279 C1280 1.389 . S
C1280 C1279 1.389 . S
C1280 C1281 1.382 1_655 S
C1281 H1266 0.944 . S
C1281 C1276 1.380 1_455 S
C1281 C1280 1.382 1_455 S
H1282 C1294 0.930 . S
H1283 C1296 0.930 . S
H1284 C1297 0.930 . S
H1285 C1301 0.959 . S
H1286 C1301 0.959 . S
H1287 C1301 0.961 . S
H1288 C1302 0.960 . S
H1289 C1302 0.961 . S
H1290 C1302 0.959 . S
H1291 C1305 0.929 . S
H1292 C1306 0.931 . S
H1293 C1308 0.930 . S
C1294 H1282 0.930 . S
C1294 C1295 1.399 . S
C1294 C1299 1.399 . S
C1295 C1294 1.399 . S
C1295 C1296 1.376 . S
C1296 H1283 0.930 . S
C1296 C1295 1.376 . S
C1296 C1297 1.388 . S
C1297 H1284 0.930 . S
C1297 C1296 1.388 . S
C1297 C1298 1.390 . S
C1298 C1297 1.390 . S
C1298 C1299 1.394 . S
C1298 C1304 1.465 . S
C1299 C1294 1.399 . S
C1299 C1298 1.394 . S
C1299 C1300 1.516 . S
C1300 C1299 1.516 . S
C1300 C1301 1.502 . S
C1300 C1302 1.561 . S
C1300 C1303 1.526 . S
C1301 H1285 0.959 . S
C1301 H1286 0.959 . S
C1301 H1287 0.961 . S
C1301 C1300 1.502 . S
C1302 H1288 0.960 . S
C1302 H1289 0.961 . S
C1302 H1290 0.959 . S
C1302 C1300 1.561 . S
C1303 C1300 1.526 . S
C1303 C1304 1.396 . S
C1303 C1308 1.390 . S
C1304 C1298 1.465 . S
C1304 C1303 1.396 . S
C1304 C1305 1.399 . S
C1305 H1291 0.929 . S
C1305 C1304 1.399 . S
C1305 C1306 1.385 . S
C1306 H1292 0.931 . S
C1306 C1305 1.385 . S
C1306 C1307 1.389 . S
C1307 C1306 1.389 . S
C1307 C1308 1.387 . S
C1308 H1293 0.930 . S
C1308 C1303 1.390 . S
C1308 C1307 1.387 . S
H1309 C1321 0.930 . S
H1310 C1323 0.930 1_655 S
H1311 C1324 0.930 . S
H1312 C1328 0.959 . S
H1313 C1328 0.959 . S
H1314 C1328 0.961 . S
H1315 C1329 0.960 1_455 S
H1316 C1329 0.961 1_455 S
H1317 C1329 0.959 . S
H1318 C1332 0.929 . S
H1319 C1333 0.931 . S
H1320 C1335 0.930 . S
C1321 H1309 0.930 . S
C1321 C1322 1.399 1_556 S
C1321 C1326 1.399 . S
C1322 C1321 1.399 1_554 S
C1322 C1323 1.376 . S
C1323 H1310 0.930 1_455 S
C1323 C1322 1.376 . S
C1323 C1324 1.388 1_455 S
C1324 H1311 0.930 . S
C1324 C1323 1.388 1_655 S
C1324 C1325 1.390 1_654 S
C1325 C1324 1.390 1_456 S
C1325 C1326 1.394 . S
C1325 C1331 1.465 . S
C1326 C1321 1.399 . S
C1326 C1325 1.394 . S
C1326 C1327 1.516 . S
C1327 C1326 1.516 . S
C1327 C1328 1.502 . S
C1327 C1329 1.561 1_455 S
C1327 C1330 1.526 . S
C1328 H1312 0.959 . S
C1328 H1313 0.959 . S
C1328 H1314 0.961 . S
C1328 C1327 1.502 . S
C1329 H1315 0.960 1_655 S
C1329 H1316 0.961 1_655 S
C1329 H1317 0.959 . S
C1329 C1327 1.561 1_655 S
C1330 C1327 1.526 . S
C1330 C1331 1.396 . S
C1330 C1335 1.390 . S
C1331 C1325 1.465 . S
C1331 C1330 1.396 . S
C1331 C1332 1.399 1_455 S
C1332 H1318 0.929 . S
C1332 C1331 1.399 1_655 S
C1332 C1333 1.385 . S
C1333 H1319 0.931 . S
C1333 C1332 1.385 . S
C1333 C1334 1.389 1_655 S
C1334 C1333 1.389 1_455 S
C1334 C1335 1.387 . S
C1335 H1320 0.930 . S
C1335 C1330 1.390 . S
C1335 C1334 1.387 . S
H1336 C1348 0.930 . S
H1337 C1350 0.930 . S
H1338 C1351 0.930 . S
H1339 C1355 0.959 . S
H1340 C1355 0.959 . S
H1341 C1355 0.961 . S
H1342 C1356 0.960 . S
H1343 C1356 0.961 . S
H1344 C1356 0.959 . S
H1345 C1359 0.929 . S
H1346 C1360 0.931 . S
H1347 C1362 0.930 . S
C1348 H1336 0.930 . S
C1348 C1349 1.399 . S
C1348 C1353 1.399 . S
C1349 C1348 1.399 . S
C1349 C1350 1.376 . S
C1350 H1337 0.930 . S
C1350 C1349 1.376 . S
C1350 C1351 1.388 . S
C1351 H1338 0.930 . S
C1351 C1350 1.388 . S
C1351 C1352 1.390 . S
C1352 C1351 1.390 . S
C1352 C1353 1.394 . S
C1352 C1358 1.465 . S
C1353 C1348 1.399 . S
C1353 C1352 1.394 . S
C1353 C1354 1.516 . S
C1354 C1353 1.516 . S
C1354 C1355 1.502 . S
C1354 C1356 1.561 . S
C1354 C1357 1.526 . S
C1355 H1339 0.959 . S
C1355 H1340 0.959 . S
C1355 H1341 0.961 . S
C1355 C1354 1.502 . S
C1356 H1342 0.960 . S
C1356 H1343 0.961 . S
C1356 H1344 0.959 . S
C1356 C1354 1.561 . S
C1357 C1354 1.526 . S
C1357 C1358 1.396 . S
C1357 C1362 1.390 . S
C1358 C1352 1.465 . S
C1358 C1357 1.396 . S
C1358 C1359 1.399 . S
C1359 H1345 0.929 . S
C1359 C1358 1.399 . S
C1359 C1360 1.385 . S
C1360 H1346 0.931 . S
C1360 C1359 1.385 . S
C1360 C1361 1.389 . S
C1361 C1360 1.389 . S
C1361 C1362 1.387 . S
C1362 H1347 0.930 . S
C1362 C1357 1.390 . S
C1362 C1361 1.387 . S
H1363 C1375 0.930 . S
H1364 C1377 0.930 . S
H1365 C1378 0.930 . S
H1366 C1382 0.959 . S
H1367 C1382 0.959 . S
H1368 C1382 0.961 1_556 S
H1369 C1383 0.960 1_556 S
H1370 C1383 0.961 . S
H1371 C1383 0.959 . S
H1372 C1386 0.929 . S
H1373 C1387 0.931 . S
H1374 C1389 0.930 . S
C1375 H1363 0.930 . S
C1375 C1376 1.399 . S
C1375 C1380 1.399 1_556 S
C1376 C1375 1.399 . S
C1376 C1377 1.376 1_556 S
C1377 H1364 0.930 . S
C1377 C1376 1.376 1_554 S
C1377 C1378 1.388 . S
C1378 H1365 0.930 . S
C1378 C1377 1.388 . S
C1378 C1379 1.390 . S
C1379 C1378 1.390 . S
C1379 C1380 1.394 . S
C1379 C1385 1.465 . S
C1380 C1375 1.399 1_554 S
C1380 C1379 1.394 . S
C1380 C1381 1.516 . S
C1381 C1380 1.516 . S
C1381 C1382 1.502 . S
C1381 C1383 1.561 . S
C1381 C1384 1.526 . S
C1382 H1366 0.959 . S
C1382 H1367 0.959 . S
C1382 H1368 0.961 1_554 S
C1382 C1381 1.502 . S
C1383 H1369 0.960 1_554 S
C1383 H1370 0.961 . S
C1383 H1371 0.959 . S
C1383 C1381 1.561 . S
C1384 C1381 1.526 . S
C1384 C1385 1.396 . S
C1384 C1389 1.390 . S
C1385 C1379 1.465 . S
C1385 C1384 1.396 . S
C1385 C1386 1.399 . S
C1386 H1372 0.929 . S
C1386 C1385 1.399 . S
C1386 C1387 1.385 . S
C1387 H1373 0.931 . S
C1387 C1386 1.385 . S
C1387 C1388 1.389 . S
C1388 C1387 1.389 . S
C1388 C1389 1.387 . S
C1389 H1374 0.930 . S
C1389 C1384 1.390 . S
C1389 C1388 1.387 . S
H1390 C1402 0.930 . S
H1391 C1404 0.930 . S
H1392 C1405 0.930 . S
H1393 C1409 0.959 . S
H1394 C1409 0.959 . S
H1395 C1409 0.961 . S
H1396 C1410 0.960 . S
H1397 C1410 0.961 . S
H1398 C1410 0.959 . S
H1399 C1413 0.929 . S
H1400 C1414 0.931 . S
H1401 C1416 0.930 . S
C1402 H1390 0.930 . S
C1402 C1403 1.399 . S
C1402 C1407 1.399 . S
C1403 C1402 1.399 . S
C1403 C1404 1.376 . S
C1404 H1391 0.930 . S
C1404 C1403 1.376 . S
C1404 C1405 1.388 . S
C1405 H1392 0.930 . S
C1405 C1404 1.388 . S
C1405 C1406 1.390 . S
C1406 C1405 1.390 . S
C1406 C1407 1.394 . S
C1406 C1412 1.465 . S
C1407 C1402 1.399 . S
C1407 C1406 1.394 . S
C1407 C1408 1.516 . S
C1408 C1407 1.516 . S
C1408 C1409 1.502 . S
C1408 C1410 1.561 . S
C1408 C1411 1.526 . S
C1409 H1393 0.959 . S
C1409 H1394 0.959 . S
C1409 H1395 0.961 . S
C1409 C1408 1.502 . S
C1410 H1396 0.960 . S
C1410 H1397 0.961 . S
C1410 H1398 0.959 . S
C1410 C1408 1.561 . S
C1411 C1408 1.526 . S
C1411 C1412 1.396 . S
C1411 C1416 1.390 . S
C1412 C1406 1.465 . S
C1412 C1411 1.396 . S
C1412 C1413 1.399 . S
C1413 H1399 0.929 . S
C1413 C1412 1.399 . S
C1413 C1414 1.385 . S
C1414 H1400 0.931 . S
C1414 C1413 1.385 . S
C1414 C1415 1.389 . S
C1415 C1414 1.389 . S
C1415 C1416 1.387 . S
C1416 H1401 0.930 . S
C1416 C1411 1.390 . S
C1416 C1415 1.387 . S
H1417 C1429 0.930 . S
H1418 C1431 0.930 . S
H1419 C1432 0.930 . S
H1420 C1436 0.959 . S
H1421 C1436 0.959 . S
H1422 C1436 0.961 . S
H1423 C1437 0.960 . S
H1424 C1437 0.961 . S
H1425 C1437 0.959 . S
H1426 C1440 0.929 . S
H1427 C1441 0.931 . S
H1428 C1443 0.930 . S
C1429 H1417 0.930 . S
C1429 C1430 1.399 . S
C1429 C1434 1.399 . S
C1430 C1429 1.399 . S
C1430 C1431 1.376 . S
C1431 H1418 0.930 . S
C1431 C1430 1.376 . S
C1431 C1432 1.388 . S
C1432 H1419 0.930 . S
C1432 C1431 1.388 . S
C1432 C1433 1.390 . S
C1433 C1432 1.390 . S
C1433 C1434 1.394 . S
C1433 C1439 1.465 . S
C1434 C1429 1.399 . S
C1434 C1433 1.394 . S
C1434 C1435 1.516 . S
C1435 C1434 1.516 . S
C1435 C1436 1.502 . S
C1435 C1437 1.561 . S
C1435 C1438 1.526 . S
C1436 H1420 0.959 . S
C1436 H1421 0.959 . S
C1436 H1422 0.961 . S
C1436 C1435 1.502 . S
C1437 H1423 0.960 . S
C1437 H1424 0.961 . S
C1437 H1425 0.959 . S
C1437 C1435 1.561 . S
C1438 C1435 1.526 . S
C1438 C1439 1.396 . S
C1438 C1443 1.390 . S
C1439 C1433 1.465 . S
C1439 C1438 1.396 . S
C1439 C1440 1.399 . S
C1440 H1426 0.929 . S
C1440 C1439 1.399 . S
C1440 C1441 1.385 . S
C1441 H1427 0.931 . S
C1441 C1440 1.385 . S
C1441 C1442 1.389 . S
C1442 C1441 1.389 . S
C1442 C1443 1.387 . S
C1443 H1428 0.930 . S
C1443 C1438 1.390 . S
C1443 C1442 1.387 . S
H1444 C1456 0.930 . S
H1445 C1458 0.930 . S
H1446 C1459 0.930 . S
H1447 C1463 0.959 . S
H1448 C1463 0.959 . S
H1449 C1463 0.961 . S
H1450 C1464 0.960 . S
H1451 C1464 0.961 . S
H1452 C1464 0.959 . S
H1453 C1467 0.929 . S
H1454 C1468 0.931 . S
H1455 C1470 0.930 . S
C1456 H1444 0.930 . S
C1456 C1457 1.399 . S
C1456 C1461 1.399 . S
C1457 C1456 1.399 . S
C1457 C1458 1.376 . S
C1458 H1445 0.930 . S
C1458 C1457 1.376 . S
C1458 C1459 1.388 . S
C1459 H1446 0.930 . S
C1459 C1458 1.388 . S
C1459 C1460 1.390 . S
C1460 C1459 1.390 . S
C1460 C1461 1.394 . S
C1460 C1466 1.465 . S
C1461 C1456 1.399 . S
C1461 C1460 1.394 . S
C1461 C1462 1.516 . S
C1462 C1461 1.516 . S
C1462 C1463 1.502 . S
C1462 C1464 1.561 . S
C1462 C1465 1.526 . S
C1463 H1447 0.959 . S
C1463 H1448 0.959 . S
C1463 H1449 0.961 . S
C1463 C1462 1.502 . S
C1464 H1450 0.960 . S
C1464 H1451 0.961 . S
C1464 H1452 0.959 . S
C1464 C1462 1.561 . S
C1465 C1462 1.526 . S
C1465 C1466 1.396 . S
C1465 C1470 1.390 . S
C1466 C1460 1.465 . S
C1466 C1465 1.396 . S
C1466 C1467 1.399 . S
C1467 H1453 0.929 . S
C1467 C1466 1.399 . S
C1467 C1468 1.385 . S
C1468 H1454 0.931 . S
C1468 C1467 1.385 . S
C1468 C1469 1.389 . S
C1469 C1468 1.389 . S
C1469 C1470 1.387 . S
C1470 H1455 0.930 . S
C1470 C1465 1.390 . S
C1470 C1469 1.387 . S
H1471 C1483 0.930 . S
H1472 C1485 0.930 . S
H1473 C1486 0.930 . S
H1474 C1490 0.959 . S
H1475 C1490 0.959 . S
H1476 C1490 0.961 . S
H1477 C1491 0.960 . S
H1478 C1491 0.961 . S
H1479 C1491 0.959 . S
H1480 C1494 0.929 . S
H1481 C1495 0.931 . S
H1482 C1497 0.930 . S
C1483 H1471 0.930 . S
C1483 C1484 1.399 . S
C1483 C1488 1.399 . S
C1484 C1483 1.399 . S
C1484 C1485 1.376 . S
C1485 H1472 0.930 . S
C1485 C1484 1.376 . S
C1485 C1486 1.388 . S
C1486 H1473 0.930 . S
C1486 C1485 1.388 . S
C1486 C1487 1.390 . S
C1487 C1486 1.390 . S
C1487 C1488 1.394 . S
C1487 C1493 1.465 . S
C1488 C1483 1.399 . S
C1488 C1487 1.394 . S
C1488 C1489 1.516 . S
C1489 C1488 1.516 . S
C1489 C1490 1.502 . S
C1489 C1491 1.561 . S
C1489 C1492 1.526 . S
C1490 H1474 0.959 . S
C1490 H1475 0.959 . S
C1490 H1476 0.961 . S
C1490 C1489 1.502 . S
C1491 H1477 0.960 . S
C1491 H1478 0.961 . S
C1491 H1479 0.959 . S
C1491 C1489 1.561 . S
C1492 C1489 1.526 . S
C1492 C1493 1.396 . S
C1492 C1497 1.390 . S
C1493 C1487 1.465 . S
C1493 C1492 1.396 . S
C1493 C1494 1.399 . S
C1494 H1480 0.929 . S
C1494 C1493 1.399 . S
C1494 C1495 1.385 . S
C1495 H1481 0.931 . S
C1495 C1494 1.385 . S
C1495 C1496 1.389 . S
C1496 C1495 1.389 . S
C1496 C1497 1.387 . S
C1497 H1482 0.930 . S
C1497 C1492 1.390 . S
C1497 C1496 1.387 . S
H1498 C1510 0.930 . S
H1499 C1512 0.930 . S
H1500 C1513 0.930 . S
H1501 C1517 0.959 . S
H1502 C1517 0.959 . S
H1503 C1517 0.961 . S
H1504 C1518 0.960 . S
H1505 C1518 0.961 . S
H1506 C1518 0.959 . S
H1507 C1521 0.929 . S
H1508 C1522 0.931 . S
H1509 C1524 0.930 . S
C1510 H1498 0.930 . S
C1510 C1511 1.399 . S
C1510 C1515 1.399 . S
C1511 C1510 1.399 . S
C1511 C1512 1.376 . S
C1512 H1499 0.930 . S
C1512 C1511 1.376 . S
C1512 C1513 1.388 . S
C1513 H1500 0.930 . S
C1513 C1512 1.388 . S
C1513 C1514 1.390 . S
C1514 C1513 1.390 . S
C1514 C1515 1.394 . S
C1514 C1520 1.465 . S
C1515 C1510 1.399 . S
C1515 C1514 1.394 . S
C1515 C1516 1.516 . S
C1516 C1515 1.516 . S
C1516 C1517 1.502 . S
C1516 C1518 1.561 . S
C1516 C1519 1.526 . S
C1517 H1501 0.959 . S
C1517 H1502 0.959 . S
C1517 H1503 0.961 . S
C1517 C1516 1.502 . S
C1518 H1504 0.960 . S
C1518 H1505 0.961 . S
C1518 H1506 0.959 . S
C1518 C1516 1.561 . S
C1519 C1516 1.526 . S
C1519 C1520 1.396 . S
C1519 C1524 1.390 . S
C1520 C1514 1.465 . S
C1520 C1519 1.396 . S
C1520 C1521 1.399 . S
C1521 H1507 0.929 . S
C1521 C1520 1.399 . S
C1521 C1522 1.385 . S
C1522 H1508 0.931 . S
C1522 C1521 1.385 . S
C1522 C1523 1.389 . S
C1523 C1522 1.389 . S
C1523 C1524 1.387 . S
C1524 H1509 0.930 . S
C1524 C1519 1.390 . S
C1524 C1523 1.387 . S
H1525 C1537 0.930 . S
H1526 C1539 0.930 . S
H1527 C1540 0.930 . S
H1528 C1544 0.959 . S
H1529 C1544 0.959 . S
H1530 C1544 0.961 . S
H1531 C1545 0.960 . S
H1532 C1545 0.961 . S
H1533 C1545 0.959 . S
H1534 C1548 0.929 . S
H1535 C1549 0.931 . S
H1536 C1551 0.930 . S
C1537 H1525 0.930 . S
C1537 C1538 1.399 . S
C1537 C1542 1.399 . S
C1538 C1537 1.399 . S
C1538 C1539 1.376 . S
C1539 H1526 0.930 . S
C1539 C1538 1.376 . S
C1539 C1540 1.388 . S
C1540 H1527 0.930 . S
C1540 C1539 1.388 . S
C1540 C1541 1.390 . S
C1541 C1540 1.390 . S
C1541 C1542 1.394 . S
C1541 C1547 1.465 . S
C1542 C1537 1.399 . S
C1542 C1541 1.394 . S
C1542 C1543 1.516 . S
C1543 C1542 1.516 . S
C1543 C1544 1.502 . S
C1543 C1545 1.561 . S
C1543 C1546 1.526 . S
C1544 H1528 0.959 . S
C1544 H1529 0.959 . S
C1544 H1530 0.961 . S
C1544 C1543 1.502 . S
C1545 H1531 0.960 . S
C1545 H1532 0.961 . S
C1545 H1533 0.959 . S
C1545 C1543 1.561 . S
C1546 C1543 1.526 . S
C1546 C1547 1.396 . S
C1546 C1551 1.390 . S
C1547 C1541 1.465 . S
C1547 C1546 1.396 . S
C1547 C1548 1.399 . S
C1548 H1534 0.929 . S
C1548 C1547 1.399 . S
C1548 C1549 1.385 . S
C1549 H1535 0.931 . S
C1549 C1548 1.385 . S
C1549 C1550 1.389 . S
C1550 C1549 1.389 . S
C1550 C1551 1.387 . S
C1551 H1536 0.930 . S
C1551 C1546 1.390 . S
C1551 C1550 1.387 . S
H1552 C1564 0.930 . S
H1553 C1566 0.930 1_554 S
H1554 C1567 0.930 . S
H1555 C1571 0.959 . S
H1556 C1571 0.959 . S
H1557 C1571 0.961 . S
H1558 C1572 0.960 . S
H1559 C1572 0.961 . S
H1560 C1572 0.959 . S
H1561 C1575 0.929 . S
H1562 C1576 0.931 . S
H1563 C1578 0.930 . S
C1564 H1552 0.930 . S
C1564 C1565 1.399 . S
C1564 C1569 1.399 . S
C1565 C1564 1.399 . S
C1565 C1566 1.376 . S
C1566 H1553 0.930 1_556 S
C1566 C1565 1.376 . S
C1566 C1567 1.388 1_556 S
C1567 H1554 0.930 . S
C1567 C1566 1.388 1_554 S
C1567 C1568 1.382 1_554 S
C1568 C1567 1.382 1_556 S
C1568 C1569 1.411 . S
C1568 C1574 1.458 1_556 S
C1569 C1564 1.399 . S
C1569 C1568 1.411 . S
C1569 C1570 1.516 . S
C1570 C1569 1.516 . S
C1570 C1571 1.502 . S
C1570 C1572 1.561 . S
C1570 C1573 1.526 . S
C1571 H1555 0.959 . S
C1571 H1556 0.959 . S
C1571 H1557 0.961 . S
C1571 C1570 1.502 . S
C1572 H1558 0.960 . S
C1572 H1559 0.961 . S
C1572 H1560 0.959 . S
C1572 C1570 1.561 . S
C1573 C1570 1.526 . S
C1573 C1574 1.396 1_556 S
C1573 C1578 1.390 . S
C1574 C1568 1.458 1_554 S
C1574 C1573 1.396 1_554 S
C1574 C1575 1.399 . S
C1575 H1561 0.929 . S
C1575 C1574 1.399 . S
C1575 C1576 1.385 . S
C1576 H1562 0.931 . S
C1576 C1575 1.385 . S
C1576 C1577 1.389 . S
C1577 C1576 1.389 . S
C1577 C1578 1.387 1_554 S
C1578 H1563 0.930 . S
C1578 C1573 1.390 . S
C1578 C1577 1.387 1_556 S
H1579 C1591 0.930 . S
H1580 C1593 0.930 . S
H1581 C1594 0.930 . S
H1582 C1598 0.959 . S
H1583 C1598 0.959 . S
H1584 C1598 0.961 . S
H1585 C1599 0.960 . S
H1586 C1599 0.961 . S
H1587 C1599 0.959 . S
H1588 C1602 0.929 . S
H1589 C1603 0.931 . S
H1590 C1605 0.930 . S
C1591 H1579 0.930 . S
C1591 C1592 1.399 . S
C1591 C1596 1.399 . S
C1592 C1591 1.399 . S
C1592 C1593 1.376 . S
C1593 H1580 0.930 . S
C1593 C1592 1.376 . S
C1593 C1594 1.388 . S
C1594 H1581 0.930 . S
C1594 C1593 1.388 . S
C1594 C1595 1.390 . S
C1595 C1594 1.390 . S
C1595 C1596 1.394 . S
C1595 C1601 1.465 . S
C1596 C1591 1.399 . S
C1596 C1595 1.394 . S
C1596 C1597 1.516 . S
C1597 C1596 1.516 . S
C1597 C1598 1.502 . S
C1597 C1599 1.561 . S
C1597 C1600 1.526 . S
C1598 H1582 0.959 . S
C1598 H1583 0.959 . S
C1598 H1584 0.961 . S
C1598 C1597 1.502 . S
C1599 H1585 0.960 . S
C1599 H1586 0.961 . S
C1599 H1587 0.959 . S
C1599 C1597 1.561 . S
C1600 C1597 1.526 . S
C1600 C1601 1.396 . S
C1600 C1605 1.390 . S
C1601 C1595 1.465 . S
C1601 C1600 1.396 . S
C1601 C1602 1.399 . S
C1602 H1588 0.929 . S
C1602 C1601 1.399 . S
C1602 C1603 1.385 . S
C1603 H1589 0.931 . S
C1603 C1602 1.385 . S
C1603 C1604 1.389 . S
C1604 C1603 1.389 . S
C1604 C1605 1.387 . S
C1605 H1590 0.930 . S
C1605 C1600 1.390 . S
C1605 C1604 1.387 . S
H1606 C1618 0.930 . S
H1607 C1620 0.930 . S
H1608 C1621 0.930 . S
H1609 C1625 0.959 . S
H1610 C1625 0.959 . S
H1611 C1625 0.961 . S
H1612 C1626 0.960 . S
H1613 C1626 0.961 . S
H1614 C1626 0.959 . S
H1615 C1629 0.929 . S
H1616 C1630 0.931 . S
H1617 C1632 0.930 . S
C1618 H1606 0.930 . S
C1618 C1619 1.399 . S
C1618 C1623 1.399 . S
C1619 C1618 1.399 . S
C1619 C1620 1.376 . S
C1620 H1607 0.930 . S
C1620 C1619 1.376 . S
C1620 C1621 1.388 . S
C1621 H1608 0.930 . S
C1621 C1620 1.388 . S
C1621 C1622 1.390 . S
C1622 C1621 1.390 . S
C1622 C1623 1.394 . S
C1622 C1628 1.465 . S
C1623 C1618 1.399 . S
C1623 C1622 1.394 . S
C1623 C1624 1.516 . S
C1624 C1623 1.516 . S
C1624 C1625 1.502 . S
C1624 C1626 1.561 . S
C1624 C1627 1.526 . S
C1625 H1609 0.959 . S
C1625 H1610 0.959 . S
C1625 H1611 0.961 . S
C1625 C1624 1.502 . S
C1626 H1612 0.960 . S
C1626 H1613 0.961 . S
C1626 H1614 0.959 . S
C1626 C1624 1.561 . S
C1627 C1624 1.526 . S
C1627 C1628 1.396 . S
C1627 C1632 1.390 . S
C1628 C1622 1.465 . S
C1628 C1627 1.396 . S
C1628 C1629 1.399 . S
C1629 H1615 0.929 . S
C1629 C1628 1.399 . S
C1629 C1630 1.385 . S
C1630 H1616 0.931 . S
C1630 C1629 1.385 . S
C1630 C1631 1.389 . S
C1631 C1630 1.389 . S
C1631 C1632 1.387 . S
C1632 H1617 0.930 . S
C1632 C1627 1.390 . S
C1632 C1631 1.387 . S
H1633 C1645 0.930 1_556 S
H1634 C1647 0.930 . S
H1635 C1648 0.930 . S
H1636 C1652 0.959 . S
H1637 C1652 0.959 . S
H1638 C1652 0.961 . S
H1639 C1653 0.960 . S
H1640 C1653 0.961 1_565 S
H1641 C1653 0.959 . S
H1642 C1656 0.929 . S
H1643 C1657 0.931 . S
H1644 C1659 0.930 . S
C1645 H1633 0.930 1_554 S
C1645 C1646 1.399 . S
C1645 C1650 1.399 . S
C1646 C1645 1.399 . S
C1646 C1647 1.376 . S
C1647 H1634 0.930 . S
C1647 C1646 1.376 . S
C1647 C1648 1.388 . S
C1648 H1635 0.930 . S
C1648 C1647 1.388 . S
C1648 C1649 1.390 . S
C1649 C1648 1.390 . S
C1649 C1650 1.394 . S
C1649 C1655 1.465 . S
C1650 C1645 1.399 . S
C1650 C1649 1.394 . S
C1650 C1651 1.516 1_554 S
C1651 C1650 1.516 1_556 S
C1651 C1652 1.502 . S
C1651 C1653 1.561 1_565 S
C1651 C1654 1.526 1_556 S
C1652 H1636 0.959 . S
C1652 H1637 0.959 . S
C1652 H1638 0.961 . S
C1652 C1651 1.502 . S
C1653 H1639 0.960 . S
C1653 H1640 0.961 1_545 S
C1653 H1641 0.959 . S
C1653 C1651 1.561 1_545 S
C1654 C1651 1.526 1_554 S
C1654 C1655 1.396 . S
C1654 C1659 1.390 1_554 S
C1655 C1649 1.465 . S
C1655 C1654 1.396 . S
C1655 C1656 1.399 . S
C1656 H1642 0.929 . S
C1656 C1655 1.399 . S
C1656 C1657 1.385 . S
C1657 H1643 0.931 . S
C1657 C1656 1.385 . S
C1657 C1658 1.389 . S
C1658 C1657 1.389 . S
C1658 C1659 1.387 1_554 S
C1659 H1644 0.930 . S
C1659 C1654 1.390 1_556 S
C1659 C1658 1.387 1_556 S
C389 C218 1.666 . S
C377 C73 1.668 . S
C416 C231 1.376 . S
C404 C82 1.349 . S
C431 C100 1.809 . S
C443 C244 1.795 . S
C470 C257 1.364 . S
C458 C56 1.304 1_655 S
C497 C265 1.333 . S
C485 C134 1.341 . S
C524 C278 1.584 . S
C512 C165 1.624 . S
C539 C147 1.214 . S
C551 C291 1.175 . S
C578 C304 1.797 . S
C566 C125 1.815 . S
C593 C151 1.323 . S
C605 C322 1.330 . S
C632 C333 1.445 . S
C620 C121 1.407 . S
C647 C139 1.727 . S
C659 C317 1.682 . S
C686 C325 1.303 . S
C674 C164 1.289 . S
C701 C95 1.286 . S
C713 C348 1.373 . S
C728 C61 1.465 . S
C740 C338 1.469 . S
C755 C74 1.428 . S
C767 C343 1.403 . S
C782 C86 1.794 . S
C794 C346 1.755 . S
C809 C47 1.335 . S
C821 C255 1.289 . S
C836 C186 1.253 . S
C848 C247 1.202 . S
C875 C216 1.480 . S
C863 C204 1.572 . S
C902 C221 1.878 . S
C890 C112 1.875 . S
C917 C60 1.420 1_545 S
C929 C268 1.406 . S
C956 C307 1.443 . S
C944 C152 1.423 . S
C983 C260 1.806 . S
C971 C126 1.872 1_545 S
C1010 C286 1.258 . S
C998 C160 1.239 . S
C1037 C296 1.653 . S
C1025 C190 1.668 . S
C1052 C199 1.349 . S
C1064 C309 1.375 . S
C1079 C113 1.810 . S
C1091 C270 1.798 . S
C1118 C283 1.331 . S
C1106 C173 1.348 . S
C1133 C43 1.379 . S
C1145 C239 1.378 . S
C1172 C252 1.603 . S
C1160 C9 1.613 1_655 S
C1199 C213 1.173 . S
C1187 C17 1.223 . S
C1226 C226 1.797 . S
C1214 C34 1.815 1_455 S
C1241 C21 1.325 . S
C1253 C335 1.312 . S
C1268 C30 1.415 . S
C1280 C320 1.461 1_655 S
C1295 C48 1.727 . S
C1307 C330 1.686 . S
C1322 C8 1.297 . S
C1334 C312 1.283 1_455 S
C1361 C361 1.377 . S
C1349 C108 1.305 . S
C1388 C351 1.469 . S
C1376 C178 1.465 . S
C1415 C356 1.432 . S
C1403 C191 1.443 . S
C1430 C203 1.794 . S
C1442 C359 1.754 . S
C1457 C138 1.354 . S
C1469 C281 1.349 . S
C1496 C273 1.259 . S
C1484 C69 1.221 . S
C1523 C294 1.480 . S
C1511 C87 1.571 . S
C1550 C299 1.847 . S
C1538 C99 1.880 . S
C1565 C177 1.412 . S
C1577 C242 1.362 . S
C1604 C229 1.383 . S
C1592 C22 1.456 . S
C1619 C35 1.866 . S
C1631 C234 1.813 . S
C1658 C208 1.253 1_554 S
C1646 C4 1.245 1_565 S
