# Generated by pormake.
# Topology llj, (12,3)-cn, num edge types: 1
# Building blocks:
#     Node 0, Type 0, BuildingBlock: QEWDON_clean_sbu_0, # of connection points: 12
#     Node 1, Type 0, BuildingBlock: QEWDON_clean_sbu_0, # of connection points: 12
#     Node 2, Type 1, BuildingBlock: ESEHIV_clean_linker_0, # of connection points: 3
#     Node 3, Type 1, BuildingBlock: ESEHIV_clean_linker_0, # of connection points: 3
#     Node 4, Type 1, BuildingBlock: ESEHIV_clean_linker_0, # of connection points: 3
#     Node 5, Type 1, BuildingBlock: ESEHIV_clean_linker_0, # of connection points: 3
#     Node 6, Type 1, BuildingBlock: ESEHIV_clean_linker_0, # of connection points: 3
#     Node 7, Type 1, BuildingBlock: ESEHIV_clean_linker_0, # of connection points: 3
#     Node 8, Type 1, BuildingBlock: ESEHIV_clean_linker_0, # of connection points: 3
#     Node 9, Type 1, BuildingBlock: ESEHIV_clean_linker_0, # of connection points: 3
#     Edge 10, Type (0, 1), BuildingBlock: UVAHIK_clean_linker_0, # of connection points: 2
#     Edge 11, Type (0, 1), BuildingBlock: UVAHIK_clean_linker_0, # of connection points: 2
#     Edge 12, Type (0, 1), BuildingBlock: UVAHIK_clean_linker_0, # of connection points: 2
#     Edge 13, Type (0, 1), BuildingBlock: UVAHIK_clean_linker_0, # of connection points: 2
#     Edge 14, Type (0, 1), BuildingBlock: UVAHIK_clean_linker_0, # of connection points: 2
#     Edge 15, Type (0, 1), BuildingBlock: UVAHIK_clean_linker_0, # of connection points: 2
#     Edge 16, Type (0, 1), BuildingBlock: UVAHIK_clean_linker_0, # of connection points: 2
#     Edge 17, Type (0, 1), BuildingBlock: UVAHIK_clean_linker_0, # of connection points: 2
#     Edge 18, Type (0, 1), BuildingBlock: UVAHIK_clean_linker_0, # of connection points: 2
#     Edge 19, Type (0, 1), BuildingBlock: UVAHIK_clean_linker_0, # of connection points: 2
#     Edge 20, Type (0, 1), BuildingBlock: UVAHIK_clean_linker_0, # of connection points: 2
#     Edge 21, Type (0, 1), BuildingBlock: UVAHIK_clean_linker_0, # of connection points: 2
#     Edge 22, Type (0, 1), BuildingBlock: UVAHIK_clean_linker_0, # of connection points: 2
#     Edge 23, Type (0, 1), BuildingBlock: UVAHIK_clean_linker_0, # of connection points: 2
#     Edge 24, Type (0, 1), BuildingBlock: UVAHIK_clean_linker_0, # of connection points: 2
#     Edge 25, Type (0, 1), BuildingBlock: UVAHIK_clean_linker_0, # of connection points: 2
#     Edge 26, Type (0, 1), BuildingBlock: UVAHIK_clean_linker_0, # of connection points: 2
#     Edge 27, Type (0, 1), BuildingBlock: UVAHIK_clean_linker_0, # of connection points: 2
#     Edge 28, Type (0, 1), BuildingBlock: UVAHIK_clean_linker_0, # of connection points: 2
#     Edge 29, Type (0, 1), BuildingBlock: UVAHIK_clean_linker_0, # of connection points: 2
#     Edge 30, Type (0, 1), BuildingBlock: UVAHIK_clean_linker_0, # of connection points: 2
#     Edge 31, Type (0, 1), BuildingBlock: UVAHIK_clean_linker_0, # of connection points: 2
#     Edge 32, Type (0, 1), BuildingBlock: UVAHIK_clean_linker_0, # of connection points: 2
#     Edge 33, Type (0, 1), BuildingBlock: UVAHIK_clean_linker_0, # of connection points: 2
# Relax obj value: 0.011
# Max RMSD: 0.052
# Mean RMSD: 0.048
data_MOF--net-llj--node1-QEWDON_clean_sbu_0--node2-ESEHIV_clean_linker_0--edge1-UVAHIK_clean_linker_0
_symmetry_space_group_name_H-M    P1
_symmetry_Int_Tables_number       1
_symmetry_cell_setting            triclinic
loop_
_symmetry_equiv_pos_as_xyz
'x, y, z'
_cell_length_a     45.544382
_cell_length_b     45.552965
_cell_length_c     31.828992
_cell_angle_alpha  90.012892
_cell_angle_beta   90.094569
_cell_angle_gamma 90.420347
loop_
_atom_site_label
_atom_site_type_symbol
_atom_site_fract_x
_atom_site_fract_y
_atom_site_fract_z
_atom_type_partial_charge
Zn0 Zn 0.94227 0.05272 0.96818 0.0
Zn1 Zn 0.94233 0.04777 0.06731 0.0
O2 O 0.96911 0.0495 0.01824 0.0
H3 H 0.98737 0.03901 0.01659 0.0
C4 C 0.91683 0.97954 0.92118 0.0
O5 O 0.91693 0.99259 0.95799 0.0
Zn6 Zn 0.058 0.95018 0.07191 0.0
Zn7 Zn 0.06224 0.94271 0.97297 0.0
O8 O 0.03351 0.94916 0.02021 0.0
H9 H 0.01566 0.96022 0.01662 0.0
Zn10 Zn 0.94224 0.93548 0.97368 0.0
O11 O 0.9525 0.96475 0.01936 0.0
Zn12 Zn 0.95303 0.94151 0.07225 0.0
H13 H 0.96415 0.98218 0.01424 0.0
Zn14 Zn 0.05437 0.05684 0.97363 0.0
O15 O 0.04504 0.03029 0.02245 0.0
H16 H 0.0339 0.0123 0.01954 0.0
Zn17 Zn 0.04645 0.05578 0.07331 0.0
C18 C 0.08189 0.01205 0.92474 0.0
O19 O 0.08504 0.00132 0.96278 0.0
O20 O 0.90173 0.06858 0.98307 0.0
O21 O 0.90228 0.06509 0.05274 0.0
O22 O 0.10144 0.92551 0.99289 0.0
O23 O 0.09652 0.92877 0.06231 0.0
O24 O 0.92261 0.89789 -0.00367 0.0
O25 O 0.92892 0.90374 0.06525 0.0
C26 C 0.98857 0.07324 0.1174 0.0
O27 O 0.07557 0.09453 0.99136 0.0
O28 O 0.07021 0.09365 0.06081 0.0
O29 O 0.04428 0.92634 0.91804 0.0
C30 C 0.88938 0.07206 0.01854 0.0
O31 O 0.96131 0.06666 0.91295 0.0
C32 C 0.00851 0.92801 0.11721 0.0
O33 O 0.92651 0.95353 0.91841 0.0
C34 C 0.11103 0.92101 0.02992 0.0
O35 O 0.06904 0.03645 0.92002 0.0
C36 C 0.93385 0.99301 0.11591 0.0
O37 O 0.96077 0.07037 0.11589 0.0
O38 O 0.00352 0.06227 0.08759 0.0
C39 C 0.91883 0.88917 0.03401 0.0
O40 O 0.03614 0.93126 0.12035 0.0
O41 O 0.99596 0.93552 0.08336 0.0
C42 C 0.06851 0.00574 0.11827 0.0
O43 O 0.93692 0.9655 0.12042 0.0
O44 O 0.93975 0.00465 0.08074 0.0
C45 C 0.08014 0.10578 0.02744 0.0
O46 O 0.06478 0.03325 0.12164 0.0
O47 O 0.06282 0.99333 0.08354 0.0
C48 C 0.01784 0.91736 0.91954 0.0
O49 O 0.00349 0.91898 0.95522 0.0
C50 C 0.98729 0.07681 0.91536 0.0
O51 O 0.00034 0.07793 0.95214 0.0
Zn52 Zn 0.43236 0.55376 0.4618 0.0
Zn53 Zn 0.43815 0.55713 0.5579 0.0
O54 O 0.4625 0.56319 0.50672 0.0
H55 H 0.47909 0.57641 0.5036 0.0
C56 C 0.41855 0.47567 0.42078 0.0
O57 O 0.41303 0.48589 0.45854 0.0
Zn58 Zn 0.5607 0.44098 0.55913 0.0
Zn59 Zn 0.56772 0.44445 0.46212 0.0
O60 O 0.5372 0.4364 0.5068 0.0
H61 H 0.51973 0.42443 0.50317 0.0
Zn62 Zn 0.45517 0.44034 0.47213 0.0
O63 O 0.46157 0.4727 0.51495 0.0
Zn64 Zn 0.46139 0.45144 0.56948 0.0
H65 H 0.46949 0.49195 0.509 0.0
Zn66 Zn 0.54862 0.54295 0.47011 0.0
O67 O 0.53172 0.52061 0.51913 0.0
H68 H 0.52075 0.50242 0.51764 0.0
Zn69 Zn 0.53744 0.54613 0.56957 0.0
C70 C 0.5879 0.50538 0.42201 0.0
O71 O 0.60295 0.50608 0.45725 0.0
O72 O 0.39109 0.56745 0.47798 0.0
O73 O 0.3961 0.57003 0.54737 0.0
O74 O 0.60902 0.43056 0.47979 0.0
O75 O 0.60204 0.42656 0.54878 0.0
O76 O 0.43571 0.4037 0.49785 0.0
O77 O 0.43603 0.41462 0.56602 0.0
C78 C 0.48384 0.57733 0.60935 0.0
O79 O 0.57293 0.57878 0.48764 0.0
O80 O 0.566 0.58007 0.55681 0.0
O81 O 0.55291 0.43546 0.40213 0.0
C82 C 0.38064 0.57302 0.51417 0.0
O83 O 0.44619 0.56041 0.40095 0.0
C84 C 0.51367 0.42305 0.6063 0.0
O85 O 0.4367 0.45483 0.41675 0.0
C86 C 0.61829 0.42387 0.51637 0.0
O87 O 0.56383 0.51924 0.41964 0.0
C88 C 0.43986 0.50398 0.6093 0.0
O89 O 0.45632 0.58045 0.60506 0.0
O90 O 0.49688 0.56101 0.58293 0.0
C91 C 0.42868 0.39776 0.53566 0.0
O92 O 0.54087 0.41743 0.60488 0.0
O93 O 0.50326 0.44085 0.57965 0.0
C94 C 0.55959 0.49449 0.61144 0.0
O95 O 0.44684 0.47746 0.61578 0.0
O96 O 0.44092 0.51425 0.57227 0.0
C97 C 0.57781 0.59032 0.52344 0.0
O98 O 0.55233 0.52106 0.61749 0.0
O99 O 0.55877 0.48401 0.57446 0.0
C100 C 0.52952 0.44799 0.39014 0.0
O101 O 0.51679 0.46679 0.41544 0.0
C102 C 0.46689 0.54449 0.3875 0.0
O103 O 0.47751 0.52398 0.41214 0.0
H104 H 0.39446 0.34903 0.99418 0.0
H105 H 0.33109 0.31314 0.08099 0.0
H106 H 0.31831 0.30346 0.94779 0.0
C107 C 0.37404 0.3375 0.00045 0.0
C108 C 0.35732 0.3272 0.96644 0.0
C109 C 0.36492 0.33278 0.04209 0.0
C110 C 0.33891 0.31664 0.04924 0.0
C111 C 0.32208 0.30602 0.01537 0.0
C112 C 0.33139 0.31137 0.97401 0.0
H113 H 0.64253 0.37472 0.0131 0.0
H114 H 0.68259 0.3047 0.08265 0.0
H115 H 0.67567 0.29905 0.94818 0.0
C116 C 0.65308 0.35348 0.01388 0.0
C117 C 0.6578 0.33827 0.97613 0.0
C118 C 0.66184 0.34156 0.05253 0.0
C119 C 0.67594 0.31432 0.05301 0.0
C120 C 0.68101 0.29893 0.01558 0.0
C121 C 0.67145 0.31073 0.97721 0.0
H122 H 0.59622 0.65992 0.00318 0.0
H123 H 0.66772 0.71177 0.95524 0.0
H124 H 0.66752 0.68485 0.08495 0.0
C125 C 0.61703 0.67105 0.00831 0.0
C126 C 0.63025 0.67028 0.04816 0.0
C127 C 0.63049 0.68568 0.97467 0.0
C128 C 0.65724 0.70042 0.9812 0.0
C129 C 0.67053 0.70049 0.02112 0.0
C130 C 0.65709 0.68513 0.05433 0.0
H131 H 0.34846 0.60489 0.01562 0.0
H132 H 0.29789 0.66646 0.087 0.0
H133 H 0.31069 0.67955 0.95431 0.0
C134 C 0.33533 0.62459 0.01712 0.0
C135 C 0.331 0.64117 0.98053 0.0
C136 C 0.32332 0.63338 0.05565 0.0
C137 C 0.30684 0.65931 0.05726 0.0
C138 C 0.30226 0.67631 0.02097 0.0
C139 C 0.31416 0.6668 0.98259 0.0
H140 H 0.8953 0.83214 0.51193 0.0
H141 H 0.82919 0.79049 0.58794 0.0
H142 H 0.81961 0.79276 0.45324 0.0
C143 C 0.87464 0.82027 0.51448 0.0
C144 C 0.85886 0.81317 0.47802 0.0
C145 C 0.864 0.81239 0.55418 0.0
C146 C 0.83757 0.79658 0.55726 0.0
C147 C 0.82129 0.78962 0.52102 0.0
C148 C 0.83186 0.79833 0.4814 0.0
H149 H 0.14546 0.88208 0.51953 0.0
H150 H 0.18717 0.81265 0.58858 0.0
H151 H 0.17573 0.8053 0.45485 0.0
C152 C 0.15631 0.86099 0.52039 0.0
C153 C 0.16011 0.84543 0.4828 0.0
C154 C 0.16574 0.84935 0.55888 0.0
C155 C 0.17917 0.82173 0.55927 0.0
C156 C 0.18245 0.8056 0.52203 0.0
C157 C 0.17259 0.81738 0.48383 0.0
H158 H 0.09764 0.17832 0.50954 0.0
H159 H 0.16756 0.22688 0.44978 0.0
H160 H 0.16844 0.21313 0.58363 0.0
C161 C 0.11792 0.19088 0.51144 0.0
C162 C 0.13138 0.19478 0.55058 0.0
C163 C 0.13057 0.20258 0.47484 0.0
C164 C 0.15734 0.21806 0.47784 0.0
C165 C 0.17126 0.22167 0.51701 0.0
C166 C 0.15794 0.21027 0.55328 0.0
H167 H 0.85395 0.11267 0.5165 0.0
H168 H 0.81298 0.18125 0.58741 0.0
H169 H 0.82289 0.18972 0.45342 0.0
C170 C 0.84333 0.13386 0.51766 0.0
C171 C 0.8398 0.14999 0.48049 0.0
C172 C 0.83359 0.14486 0.55632 0.0
C173 C 0.8202 0.17252 0.55756 0.0
C174 C 0.8162 0.189 0.52062 0.0
C175 C 0.82595 0.17739 0.48216 0.0
C176 C 0.11365 0.14254 0.99401 0.0
C177 C 0.0995 0.13205 0.03029 0.0
C178 C 0.13428 0.1652 -0.00354 0.0
C179 C 0.18462 0.20193 0.07155 0.0
H180 H 0.19719 0.25297 0.97579 0.0
C181 C 0.2943 0.26357 0.04579 0.0
C182 C 0.29434 0.28991 0.02304 0.0
C183 C 0.26828 0.24746 0.05083 0.0
C184 C 0.19385 0.23941 0.0033 0.0
H185 H 0.09511 0.13817 0.09757 0.0
H186 H 0.13065 0.17859 0.10171 0.0
H187 H 0.15438 0.22132 0.97761 0.0
H188 H 0.2674 0.321 0.98947 0.0
H189 H 0.22165 0.29386 -6e-05 0.0
H190 H 0.22362 0.22085 0.09791 0.0
C191 C 0.12626 0.16866 0.07141 0.0
C192 C 0.16941 0.22076 0.004 0.0
C193 C 0.10571 0.14564 0.06902 0.0
C194 C 0.26786 0.3005 0.00671 0.0
C195 C 0.24172 0.28478 0.01252 0.0
C196 C 0.20886 0.22101 0.07122 0.0
C197 C 0.14116 0.17843 0.03519 0.0
C198 C 0.1649 0.20112 0.0375 0.0
C199 C 0.24161 0.2577 0.03393 0.0
C200 C 0.21425 0.2395 0.03657 0.0
H201 H 0.10959 0.13259 0.9636 0.0
H202 H 0.14562 0.17155 0.96796 0.0
H203 H 0.18204 0.18707 0.09785 0.0
H204 H 0.31459 0.25498 0.05849 0.0
H205 H 0.26936 0.22654 0.06684 0.0
C206 C 0.84932 0.09997 0.98342 0.0
C207 C 0.86049 0.08664 0.01985 0.0
C208 C 0.82404 0.11693 0.98516 0.0
C209 C 0.78207 0.16056 0.06134 0.0
H210 H 0.73406 0.17501 0.9629 0.0
C211 C 0.72432 0.27003 0.03836 0.0
C212 C 0.69739 0.2711 0.01703 0.0
C213 C 0.73978 0.24384 0.04103 0.0
C214 C 0.7468 0.17098 0.99103 0.0
H215 H 0.85263 0.0789 0.08613 0.0
H216 H 0.80777 0.10781 0.08893 0.0
H217 H 0.76676 0.13313 0.96398 0.0
H218 H 0.66528 0.24585 0.98188 0.0
H219 H 0.69196 0.19953 0.98743 0.0
H220 H 0.76163 0.19793 0.08881 0.0
C221 C 0.81915 0.10591 0.05923 0.0
C222 C 0.76593 0.14715 0.99142 0.0
C223 C 0.84478 0.0892 0.05761 0.0
C224 C 0.68615 0.24551 -0.00175 0.0
C225 C 0.70146 0.21907 0.00143 0.0
C226 C 0.7626 0.18405 0.06123 0.0
C227 C 0.80895 0.12071 0.02326 0.0
C228 C 0.78466 0.14233 0.02592 0.0
C229 C 0.72847 0.21792 0.02296 0.0
C230 C 0.7456 0.19028 0.02544 0.0
H231 H 0.86083 0.09845 0.95374 0.0
H232 H 0.8173 0.12829 0.95691 0.0
H233 H 0.79615 0.15775 0.08846 0.0
H234 H 0.7336 0.28962 0.05262 0.0
H235 H 0.76089 0.24411 0.05674 0.0
C236 C 0.89296 0.84402 0.00818 0.0
C237 C 0.8998 0.86322 0.04144 0.0
C238 C 0.87146 0.82228 0.01302 0.0
C239 C 0.80325 0.81092 0.06834 0.0
H240 H 0.80645 0.73228 0.02182 0.0
C241 C 0.70073 0.74635 0.01525 0.0
C242 C 0.69824 0.71698 0.02823 0.0
C243 C 0.72663 0.76217 0.02234 0.0
C244 C 0.80534 0.75407 0.03531 0.0
H245 H 0.89069 0.8735 0.10669 0.0
H246 H 0.85266 0.83573 0.11482 0.0
H247 H 0.85134 0.76215 0.02596 0.0
H248 H 0.72088 0.68098 0.05837 0.0
H249 H 0.76662 0.70861 0.07005 0.0
H250 H 0.7571 0.80332 0.07617 0.0
C251 C 0.86401 0.83762 0.08505 0.0
C252 C 0.83094 0.77117 0.03752 0.0
C253 C 0.88586 0.85912 0.08041 0.0
C254 C 0.72223 0.70365 0.04824 0.0
C255 C 0.74836 0.71936 0.05474 0.0
C256 C 0.77762 0.79401 0.06556 0.0
C257 C 0.85611 0.8195 0.05105 0.0
C258 C 0.83004 0.79991 0.0535 0.0
C259 C 0.75072 0.74882 0.04203 0.0
C260 C 0.77834 0.76562 0.04841 0.0
H261 H 0.90345 0.84647 0.97785 0.0
H262 H 0.86571 0.80874 0.98622 0.0
H263 H 0.80185 0.83311 0.08038 0.0
H264 H 0.68248 0.75717 1e-05 0.0
H265 H 0.72799 0.78476 0.01186 0.0
C266 C 0.14116 0.8851 0.07011 0.0
C267 C 0.13784 0.90343 0.03501 0.0
C268 C 0.16344 0.86419 0.07109 0.0
C269 C 0.21 0.82298 -0.00355 0.0
H270 H 0.24214 0.79012 0.0989 0.0
C271 C 0.29459 0.72884 -0.00056 0.0
C272 C 0.28582 0.70438 0.02351 0.0
C273 C 0.27933 0.75525 0.00205 0.0
C274 C 0.23331 0.79919 0.07011 0.0
H275 H 0.15674 0.91634 0.97533 0.0
H276 H 0.19661 0.8811 0.97802 0.0
H277 H 0.21267 0.83465 0.10236 0.0
H278 H 0.2538 0.6887 0.06898 0.0
H279 H 0.22795 0.73525 0.07454 0.0
H280 H 0.23115 0.78765 0.96434 0.0
C281 C 0.18124 0.88173 0.00391 0.0
C282 C 0.21633 0.82459 0.07201 0.0
C283 C 0.15857 0.90215 0.00251 0.0
C284 C 0.26157 0.70716 0.05056 0.0
C285 C 0.24668 0.73375 0.05372 0.0
C286 C 0.22743 0.79797 0.99453 0.0
C287 C 0.18323 0.86162 0.03735 0.0
C288 C 0.20398 0.83653 0.03526 0.0
C289 C 0.25537 0.75793 0.02935 0.0
C290 C 0.23878 0.7856 0.03137 0.0
H291 H 0.1254 0.88555 0.09557 0.0
H292 H 0.16398 0.84902 0.09724 0.0
H293 H 0.2004 0.83097 0.96754 0.0
H294 H 0.3135 0.72778 0.97895 0.0
H295 H 0.28646 0.77371 0.9831 0.0
C296 C 0.61562 0.6229 0.49075 0.0
C297 C 0.59867 0.61533 0.52602 0.0
C298 C 0.63642 0.6454 0.49298 0.0
C299 C 0.68179 0.68701 0.5687 0.0
H300 H 0.69944 0.7329 0.46921 0.0
C301 C 0.79233 0.74694 0.54818 0.0
C302 C 0.79343 0.773 0.52473 0.0
C303 C 0.76621 0.73087 0.55124 0.0
C304 C 0.6946 0.72074 0.49762 0.0
H305 H 0.5898 0.62603 0.59117 0.0
H306 H 0.62584 0.66603 0.59481 0.0
H307 H 0.65681 0.70075 0.46963 0.0
H308 H 0.7681 0.8033 0.48717 0.0
H309 H 0.7221 0.77581 0.49352 0.0
H310 H 0.71918 0.70764 0.59708 0.0
C311 C 0.62336 0.65407 0.5656 0.0
C312 C 0.67032 0.70189 0.49762 0.0
C313 C 0.60262 0.63125 0.56348 0.0
C314 C 0.76783 0.78304 0.505 0.0
C315 C 0.74155 0.76722 0.50859 0.0
C316 C 0.70587 0.70621 0.56892 0.0
C317 C 0.64067 0.66125 0.5304 0.0
C318 C 0.66409 0.68414 0.53269 0.0
C319 C 0.74046 0.74075 0.53142 0.0
C320 C 0.71305 0.72275 0.53297 0.0
H321 H 0.61337 0.611 0.46144 0.0
H322 H 0.64975 0.64975 0.46551 0.0
H323 H 0.67777 0.67363 0.59624 0.0
H324 H 0.81189 0.73864 0.56338 0.0
H325 H 0.76648 0.71032 0.56829 0.0
C326 C 0.33734 0.58968 0.55623 0.0
C327 C 0.35123 0.58631 0.51717 0.0
C328 C 0.31186 0.60642 0.5596 0.0
C329 C 0.25682 0.64861 0.49581 0.0
H330 H 0.26005 0.70103 0.59158 0.0
C331 C 0.18364 0.75176 0.50643 0.0
C332 C 0.1972 0.7769 0.52326 0.0
C333 C 0.19741 0.72448 0.50919 0.0
C334 C 0.25891 0.68671 0.56446 0.0
H335 H 0.3482 0.59619 0.4506 0.0
H336 H 0.30496 0.62626 0.45665 0.0
H337 H 0.2922 0.65906 0.58927 0.0
H338 H 0.23586 0.79373 0.555 0.0
H339 H 0.26053 0.74667 0.55825 0.0
H340 H 0.22532 0.67786 0.46942 0.0
C341 C 0.313 0.61553 0.48469 0.0
C342 C 0.277 0.66216 0.5635 0.0
C343 C 0.3381 0.5984 0.48122 0.0
C344 C 0.22485 0.77452 0.54227 0.0
C345 C 0.2388 0.74746 0.54446 0.0
C346 C 0.23911 0.67352 0.49641 0.0
C347 C 0.30007 0.62059 0.52411 0.0
C348 C 0.27691 0.64328 0.52853 0.0
C349 C 0.22519 0.722 0.5283 0.0
C350 C 0.24068 0.6934 0.53015 0.0
H351 H 0.34671 0.58023 0.58442 0.0
H352 H 0.30206 0.60914 0.59031 0.0
H353 H 0.25556 0.63417 0.46883 0.0
H354 H 0.16217 0.75314 0.49189 0.0
H355 H 0.18616 0.70535 0.49675 0.0
C356 C 0.39109 0.37177 0.57961 0.0
C357 C 0.40858 0.37273 0.54328 0.0
C358 C 0.36789 0.35162 0.58263 0.0
C359 C 0.3351 0.2845 0.53674 0.0
H360 H 0.2609 0.32316 0.55762 0.0
C361 C 0.22295 0.22375 0.54326 0.0
C362 C 0.20001 0.23676 0.52048 0.0
C363 C 0.24967 0.23847 0.54857 0.0
C364 C 0.28147 0.31211 0.55174 0.0
H365 H 0.41729 0.35158 0.48353 0.0
H366 H 0.37712 0.31627 0.48913 0.0
H367 H 0.30683 0.35054 0.56613 0.0
H368 H 0.18698 0.2751 0.48503 0.0
H369 H 0.23382 0.30108 0.49458 0.0
H370 H 0.30959 0.24619 0.52161 0.0
C371 C 0.3811 0.33123 0.51502 0.0
C372 C 0.30773 0.32763 0.55714 0.0
C373 C 0.40401 0.35157 0.51174 0.0
C374 C 0.20439 0.26459 0.50257 0.0
C375 C 0.23102 0.2795 0.50835 0.0
C376 C 0.30881 0.26886 0.53184 0.0
C377 C 0.36214 0.33181 0.54972 0.0
C378 C 0.33477 0.31411 0.54907 0.0
C379 C 0.25382 0.26662 0.53161 0.0
C380 C 0.28175 0.28269 0.53861 0.0
H381 H 0.39414 0.38769 0.60455 0.0
H382 H 0.35376 0.35224 0.60996 0.0
H383 H 0.35567 0.2736 0.53033 0.0
H384 H 0.22014 0.20218 0.55709 0.0
H385 H 0.26686 0.22811 0.56673 0.0
C386 C 0.65346 0.39317 0.55706 0.0
C387 C 0.64708 0.40942 0.52072 0.0
C388 C 0.67804 0.37512 0.55851 0.0
C389 C 0.72636 0.3352 0.48542 0.0
H390 H 0.76243 0.30978 0.58957 0.0
C391 C 0.81115 0.24118 0.49558 0.0
C392 C 0.80185 0.21824 0.5222 0.0
C393 C 0.797 0.26828 0.49614 0.0
C394 C 0.75264 0.31686 0.56027 0.0
H395 H 0.66295 0.42167 0.4589 0.0
H396 H 0.7066 0.39113 0.46211 0.0
H397 H 0.73103 0.35299 0.58943 0.0
H398 H 0.77028 0.20617 0.57045 0.0
H399 H 0.7465 0.25387 0.57245 0.0
H400 H 0.74823 0.29898 0.45646 0.0
C401 C 0.69197 0.39135 0.48888 0.0
C402 C 0.73453 0.34147 0.56013 0.0
C403 C 0.66706 0.40906 0.48713 0.0
C404 C 0.77849 0.22339 0.55008 0.0
C405 C 0.76476 0.25067 0.55119 0.0
C406 C 0.74494 0.31097 0.48547 0.0
C407 C 0.69716 0.37326 0.52394 0.0
C408 C 0.72035 0.3504 0.52296 0.0
C409 C 0.77371 0.2732 0.52395 0.0
C410 C 0.75751 0.30113 0.52308 0.0
H411 H 0.63854 0.39296 0.58353 0.0
H412 H 0.68095 0.36136 0.5859 0.0
H413 H 0.71555 0.34097 0.45629 0.0
H414 H 0.82944 0.2383 0.47432 0.0
H415 H 0.80428 0.28545 0.47494 0.0
C416 C 0.03303 0.09342 0.15427 0.0
C417 C 0.00265 0.08831 0.15359 0.0
C418 C 0.04634 0.10785 0.18791 0.0
C419 C 0.03257 0.15873 0.27438 0.0
H420 H 0.10447 0.12633 0.31975 0.0
C421 C 0.0856 0.19782 0.42985 0.0
C422 C 0.11634 0.19679 0.43368 0.0
C423 C 0.07169 0.18772 0.39347 0.0
C424 C 0.08472 0.13601 0.30699 0.0
H425 H 0.96217 0.09456 0.18839 0.0
H426 H 0.98553 0.11997 0.2475 0.0
H427 H 0.0795 0.10136 0.26223 0.0
H428 H 0.1567 0.18618 0.40123 0.0
H429 H 0.13249 0.16944 0.33707 0.0
H430 H 0.03789 0.1935 0.3191 0.0
C431 C -0.00099 0.11282 0.22149 0.0
C432 C 0.07032 0.12157 0.27421 0.0
C433 C 0.9857 0.09817 0.1877 0.0
C434 C 0.13299 0.18731 0.39923 0.0
C435 C 0.11908 0.17734 0.36271 0.0
C436 C 0.0471 0.17332 0.3071 0.0
C437 C 0.02952 0.11768 0.22189 0.0
C438 C 0.04413 0.13277 0.25754 0.0
C439 C 0.08824 0.17654 0.35995 0.0
C440 C 0.07337 0.16211 0.32379 0.0
H441 H 0.04672 0.08656 0.12884 0.0
H442 H 0.06984 0.11165 0.18702 0.0
H443 H 0.01258 0.16801 0.26175 0.0
H444 H 0.07219 0.2055 0.45563 0.0
H445 H 0.04793 0.18736 0.39253 0.0
C446 C 0.93906 0.00866 0.19043 0.0
C447 C 0.92499 0.01132 0.15144 0.0
C448 C 0.93094 0.02668 0.2239 0.0
C449 C 0.8687 0.06688 0.26496 0.0
H450 H 0.92651 0.10777 0.33327 0.0
C451 C 0.83405 0.14042 0.40313 0.0
C452 C 0.85077 0.13806 0.4401 0.0
C453 C 0.8439 0.12788 0.3657 0.0
C454 C 0.9101 0.09627 0.31475 0.0
H455 H 0.89093 0.0336 0.11679 0.0
H456 H 0.8765 0.06514 0.17535 0.0
H457 H 0.94242 0.07949 0.27233 0.0
H458 H 0.8915 0.12168 0.46633 0.0
H459 H 0.90803 0.09881 0.40175 0.0
H460 H 0.83645 0.08259 0.30789 0.0
C461 C 0.89406 0.04954 0.17992 0.0
C462 C 0.91925 0.08018 0.27985 0.0
C463 C 0.90247 0.03181 0.14639 0.0
C464 C 0.87784 0.12347 0.43858 0.0
C465 C 0.88755 0.11074 0.40133 0.0
C466 C 0.85958 0.08268 0.30009 0.0
C467 C 0.90825 0.04715 0.21895 0.0
C468 C 0.89862 0.06519 0.25487 0.0
C469 C 0.87059 0.11255 0.3645 0.0
C470 C 0.88019 0.09737 0.32563 0.0
H471 H 0.95652 0.9929 0.19483 0.0
H472 H 0.94198 0.02424 0.25386 0.0
H473 H 0.85241 0.05524 0.24639 0.0
H474 H 0.81302 0.15136 0.4033 0.0
H475 H 0.83048 0.13004 0.33777 0.0
C476 C 0.97026 0.89509 0.14708 0.0
C477 C 0.99126 0.91732 0.15299 0.0
C478 C 0.9542 0.88426 0.18106 0.0
C479 C 0.95722 0.87896 0.29675 0.0
H480 H 0.87595 0.85438 0.28441 0.0
C481 C 0.90002 0.81378 0.42673 0.0
C482 C 0.8711 0.82146 0.43675 0.0
C483 C 0.9132 0.82446 0.39028 0.0
C484 C 0.89855 0.86136 0.28849 0.0
H485 H 0.01222 0.94593 0.19843 0.0
H486 H 0.98372 0.9276 0.25807 0.0
H487 H 0.9013 0.8773 0.22537 0.0
H488 H 0.8328 0.84537 0.41619 0.0
H489 H 0.85604 0.86477 0.35258 0.0
H490 H 0.95431 0.86401 0.36012 0.0
C491 C 0.97985 0.91809 0.22736 0.0
C492 C 0.9132 0.8742 0.25449 0.0
C493 C 0.99609 0.92869 0.19333 0.0
C494 C 0.85511 0.83905 0.40887 0.0
C495 C 0.86843 0.85009 0.37251 0.0
C496 C 0.94255 0.86637 0.33074 0.0
C497 C 0.95886 0.89555 0.22169 0.0
C498 C 0.94279 0.88299 0.25817 0.0
C499 C 0.89788 0.84343 0.36332 0.0
C500 C 0.91312 0.85715 0.32696 0.0
H501 H 0.9671 0.88532 0.11641 0.0
H502 H 0.93878 0.86645 0.17564 0.0
H503 H 0.98009 0.88508 0.30061 0.0
H504 H 0.91264 0.79992 0.44761 0.0
H505 H 0.93561 0.81821 0.3836 0.0
C506 C 0.09791 0.96633 0.15147 0.0
C507 C 0.07666 0.98824 0.15507 0.0
C508 C 0.10547 0.94932 0.18621 0.0
C509 C 0.10347 0.95022 0.30197 0.0
H510 H 0.12307 0.86794 0.28969 0.0
C511 C 0.16101 0.8881 0.43405 0.0
C512 C 0.15168 0.85931 0.44267 0.0
C513 C 0.15148 0.90243 0.39794 0.0
C514 C 0.11738 0.89081 0.29373 0.0
H515 H 0.04648 0.00988 0.19717 0.0
H516 H 0.05918 0.9798 0.25806 0.0
H517 H 0.10522 0.89535 0.2291 0.0
H518 H 0.12582 0.82251 0.42002 0.0
H519 H 0.10853 0.84782 0.35685 0.0
H520 H 0.11484 0.94561 0.36669 0.0
C521 C 0.07042 0.97595 0.22864 0.0
C522 C 0.10749 0.90661 0.25891 0.0
C523 C 0.06309 0.99312 0.19389 0.0
C524 C 0.13335 0.8447 0.41387 0.0
C525 C 0.12354 0.85918 0.37778 0.0
C526 C 0.11314 0.93441 0.33676 0.0
C527 C 0.09181 0.95392 0.22524 0.0
C528 C 0.10073 0.93659 0.26256 0.0
C529 C 0.13214 0.8884 0.36981 0.0
C530 C 0.12061 0.90463 0.33295 0.0
H531 H 0.10927 0.96298 0.12209 0.0
H532 H 0.12253 0.93307 0.1827 0.0
H533 H 0.09878 0.97333 0.30587 0.0
H534 H 0.17556 0.89963 0.45549 0.0
H535 H 0.15919 0.92462 0.3922 0.0
C536 C 0.10218 0.96662 0.89244 0.0
C537 C 0.09274 0.99573 0.88798 0.0
C538 C 0.11151 0.95072 0.85759 0.0
C539 C 0.14473 0.95723 0.75562 0.0
H540 H 0.10454 0.88429 0.72855 0.0
C541 C 0.16335 0.89668 0.59919 0.0
C542 C 0.16103 0.86588 0.59851 0.0
C543 C 0.15677 0.91236 0.63557 0.0
C544 C 0.11644 0.90428 0.73605 0.0
H545 H 0.08654 0.03141 0.8437 0.0
H546 H 0.10387 0.00372 0.78279 0.0
H547 H 0.08985 0.91212 0.79032 0.0
H548 H 0.15085 0.82743 0.63621 0.0
H549 H 0.14112 0.85462 0.7002 0.0
H550 H 0.17196 0.9492 0.70234 0.0
C551 C 0.10352 0.99321 0.81332 0.0
C552 C 0.10783 0.92027 0.77122 0.0
C553 C 0.09355 0.00894 0.84809 0.0
C554 C 0.15311 0.8511 0.6356 0.0
C555 C 0.14702 0.86677 0.67219 0.0
C556 C 0.15375 0.94098 0.72084 0.0
C557 C 0.11227 0.96392 0.81784 0.0
C558 C 0.12177 0.94693 0.78104 0.0
C559 C 0.14821 0.89762 0.67242 0.0
C560 C 0.13956 0.91439 0.71042 0.0
H561 H 0.10209 0.95596 0.92276 0.0
H562 H 0.11837 0.92817 0.8617 0.0
H563 H 0.15592 0.97767 0.76301 0.0
H564 H 0.16999 0.90878 0.57147 0.0
H565 H 0.15768 0.9361 0.63434 0.0
C566 C 0.98715 0.09161 0.83975 0.0
C567 C 0.00253 0.08765 0.87757 0.0
C568 C 0.00153 0.10266 0.80438 0.0
C569 C 0.06888 0.1434 0.77321 0.0
H570 H 0.04684 0.1164 0.662 0.0
C571 C 0.11222 0.19981 0.62358 0.0
C572 C 0.11786 0.1821 0.58854 0.0
C573 C 0.09848 0.18796 0.65894 0.0
C574 C 0.05357 0.12394 0.69283 0.0
H575 H 0.04506 0.09162 0.90787 0.0
H576 H 0.07043 0.10951 0.84581 0.0
H577 H 0.02302 0.0952 0.72316 0.0
H578 H 0.11457 0.13816 0.56296 0.0
H579 H 0.09157 0.11706 0.62524 0.0
H580 H 0.10035 0.17118 0.74302 0.0
C581 C 0.04709 0.10503 0.84366 0.0
C582 C 0.03954 0.11209 0.72794 0.0
C583 C 0.03261 0.09448 0.87918 0.0
C584 C 0.11008 0.15227 0.58957 0.0
C585 C 0.09677 0.14029 0.62513 0.0
C586 C 0.0832 0.15494 0.73815 0.0
C587 C 0.03168 0.10955 0.80592 0.0
C588 C 0.04692 0.12177 0.76856 0.0
C589 C 0.09055 0.15804 0.66012 0.0
C590 C 0.07563 0.14545 0.69751 0.0
H591 H 0.96388 0.08667 0.83764 0.0
H592 H 0.98883 0.1063 0.77608 0.0
H593 H 0.07485 0.15172 0.80395 0.0
H594 H 0.11785 0.22296 0.62321 0.0
H595 H 0.09359 0.2024 0.68499 0.0
C596 C 0.90216 0.98079 0.84517 0.0
C597 C 0.9065 0.99541 0.88361 0.0
C598 C 0.89275 0.99629 0.80975 0.0
C599 C 0.89415 0.06928 0.7637 0.0
H600 H 0.82671 0.04374 0.69837 0.0
C601 C 0.84743 0.14167 0.63257 0.0
C602 C 0.83833 0.12767 0.59538 0.0
C603 C 0.85393 0.12526 0.66839 0.0
C604 C 0.84582 0.05098 0.71592 0.0
H605 H 0.90425 0.03755 0.91499 0.0
H606 H 0.88856 0.06461 0.85317 0.0
H607 H 0.84271 0.01465 0.75859 0.0
H608 H 0.82756 0.08548 0.56737 0.0
H609 H 0.84018 0.05682 0.62911 0.0
H610 H 0.89799 0.10509 0.72082 0.0
C611 C 0.89231 0.04122 0.85049 0.0
C612 C 0.85489 0.03434 0.75039 0.0
C613 C 0.90122 0.0257 0.88591 0.0
C614 C 0.83506 0.09694 0.59525 0.0
C615 C 0.8419 0.08051 0.63091 0.0
C616 C 0.88536 0.0857 0.72899 0.0
C617 C 0.88803 0.02669 0.81212 0.0
C618 C 0.879 0.0435 0.77469 0.0
C619 C 0.85182 0.09444 0.66774 0.0
C620 C 0.86096 0.07689 0.70481 0.0
H621 H 0.90602 0.95743 0.84245 0.0
H622 H 0.88968 0.98467 0.78035 0.0
H623 H 0.91305 0.07658 0.78174 0.0
H624 H 0.85039 0.16526 0.63374 0.0
H625 H 0.86092 0.13679 0.69648 0.0
C626 C 0.97322 0.89833 0.88271 0.0
C627 C 0.00334 0.9051 0.8819 0.0
C628 C 0.9593 0.88685 0.84723 0.0
C629 C 0.96768 0.87972 0.73223 0.0
H630 H 0.90484 0.82257 0.74548 0.0
C631 C 0.88987 0.85072 0.59644 0.0
C632 C 0.88027 0.82152 0.59223 0.0
C633 C 0.90573 0.85954 0.63177 0.0
C634 C 0.92259 0.83823 0.74113 0.0
H635 H 0.04265 0.9048 0.8435 0.0
H636 H 0.01853 0.88388 0.78187 0.0
H637 H 0.9318 0.83961 0.80695 0.0
H638 H 0.87967 0.77857 0.62135 0.0
H639 H 0.90805 0.79378 0.68301 0.0
H640 H 0.95909 0.87769 0.66631 0.0
C641 C 0.00548 0.8881 0.8096 0.0
C642 C 0.93778 0.84833 0.77647 0.0
C643 C 0.01935 0.89993 0.84499 0.0
C644 C 0.88666 0.80128 0.62412 0.0
C645 C 0.90284 0.81003 0.65937 0.0
C646 C 0.95269 0.86941 0.69687 0.0
C647 C 0.97526 0.88148 0.81029 0.0
C648 C 0.96023 0.86951 0.7725 0.0
C649 C 0.91263 0.83927 0.66353 0.0
C650 C 0.92968 0.84886 0.70094 0.0
H651 H 0.96027 0.90208 0.91067 0.0
H652 H 0.9359 0.88258 0.84865 0.0
H653 H 0.98467 0.89621 0.728 0.0
H654 H 0.88481 0.86685 0.57253 0.0
H655 H 0.91227 0.88237 0.63438 0.0
C656 C 0.48341 0.60862 0.67386 0.0
C657 C 0.4994 0.59215 0.64445 0.0
C658 C 0.49763 0.62257 0.70731 0.0
C659 C 0.57013 0.64926 0.74351 0.0
H660 H 0.53542 0.64185 0.85414 0.0
C661 C 0.63293 0.67339 0.89817 0.0
C662 C 0.61686 0.68398 0.9325 0.0
C663 C 0.61872 0.66661 0.86036 0.0
C664 C 0.54518 0.64467 0.82339 0.0
H665 H 0.54288 0.57725 0.62797 0.0
H666 H 0.56776 0.60164 0.686 0.0
H667 H 0.51028 0.62079 0.79376 0.0
H668 H 0.57403 0.69811 0.95346 0.0
H669 H 0.5493 0.68707 0.88721 0.0
H670 H 0.60523 0.67293 0.77338 0.0
C671 C 0.54423 0.60409 0.68274 0.0
C672 C 0.53077 0.63249 0.78877 0.0
C673 C 0.52994 0.58998 0.64943 0.0
C674 C 0.5868 0.6896 0.92754 0.0
C675 C 0.57265 0.68309 0.88972 0.0
C676 C 0.58454 0.66159 0.77821 0.0
C677 C 0.5282 0.62045 0.71214 0.0
C678 C 0.54317 0.63445 0.7485 0.0
C679 C 0.58822 0.67052 0.85619 0.0
C680 C 0.5723 0.65927 0.81862 0.0
H681 H 0.45979 0.61067 0.67124 0.0
H682 H 0.48467 0.63516 0.7293 0.0
H683 H 0.58004 0.65142 0.71273 0.0
H684 H 0.65611 0.66868 0.90137 0.0
H685 H 0.63135 0.6568 0.8353 0.0
C686 C 0.4069 0.54005 0.6435 0.0
C687 C 0.43217 0.52274 0.64497 0.0
C688 C 0.39853 0.55643 0.67851 0.0
C689 C 0.40758 0.557 0.7934 0.0
H690 H 0.36945 0.63267 0.78545 0.0
C691 C 0.37359 0.62126 0.94019 0.0
C692 C 0.34466 0.6318 0.94047 0.0
C693 C 0.38604 0.61077 0.90319 0.0
C694 C 0.37997 0.61149 0.78803 0.0
H695 H 0.46908 0.50928 0.68308 0.0
H696 H 0.45497 0.53845 0.74415 0.0
H697 H 0.3892 0.60972 0.72212 0.0
H698 H 0.30639 0.64035 0.90187 0.0
H699 H 0.32834 0.62216 0.83689 0.0
H700 H 0.39833 0.5587 0.85916 0.0
C701 C 0.44121 0.53902 0.71638 0.0
C702 C 0.39124 0.59834 0.75184 0.0
C703 C 0.44937 0.52242 0.68151 0.0
C704 C 0.32879 0.63257 0.90257 0.0
C705 C 0.34134 0.62218 0.86541 0.0
C706 C 0.39654 0.57023 0.82951 0.0
C707 C 0.41537 0.55576 0.71559 0.0
C708 C 0.40498 0.57082 0.7541 0.0
C709 C 0.36992 0.61075 0.86556 0.0
C710 C 0.38246 0.59749 0.82717 0.0
H711 H 0.39299 0.53995 0.61592 0.0
H712 H 0.37824 0.56865 0.67703 0.0
H713 H 0.41742 0.53552 0.79621 0.0
H714 H 0.38662 0.62101 0.96869 0.0
H715 H 0.40829 0.60253 0.90405 0.0
C716 C 0.49129 0.37941 0.64157 0.0
C717 C 0.49474 0.40993 0.63846 0.0
C718 C 0.47257 0.36737 0.67196 0.0
C719 C 0.41197 0.38761 0.74446 0.0
H720 H 0.43792 0.32031 0.8088 0.0
C721 C 0.3734 0.36305 0.91196 0.0
C722 C 0.36697 0.33393 0.92316 0.0
C723 C 0.38479 0.36958 0.87241 0.0
C724 C 0.43013 0.33878 0.7906 0.0
H725 H 0.48324 0.45179 0.66544 0.0
H726 H 0.45078 0.43107 0.71872 0.0
H727 H 0.46667 0.33692 0.74852 0.0
H728 H 0.36674 0.28878 0.90186 0.0
H729 H 0.38733 0.30019 0.83234 0.0
H730 H 0.37619 0.39026 0.78784 0.0
C731 C 0.46141 0.4163 0.69694 0.0
C732 C 0.44657 0.34831 0.75606 0.0
C733 C 0.47993 0.42824 0.66649 0.0
C734 C 0.37145 0.31143 0.89375 0.0
C735 C 0.38333 0.31792 0.85423 0.0
C736 C 0.39571 0.37825 0.77915 0.0
C737 C 0.45733 0.38572 0.69993 0.0
C738 C 0.43809 0.37332 0.73327 0.0
C739 C 0.39031 0.34706 0.84339 0.0
C740 C 0.40502 0.35419 0.80316 0.0
H741 H 0.5027 0.36498 0.62013 0.0
H742 H 0.46984 0.34375 0.67332 0.0
H743 H 0.40441 0.4065 0.72696 0.0
H744 H 0.37002 0.38076 0.93414 0.0
H745 H 0.39027 0.39219 0.86508 0.0
C746 C 0.59122 0.4568 0.64481 0.0
C747 C 0.5672 0.47575 0.64733 0.0
C748 C 0.59912 0.43959 0.67923 0.0
C749 C 0.59258 0.43758 0.7943 0.0
H750 H 0.62329 0.35889 0.78146 0.0
C751 C 0.65488 0.38142 0.92791 0.0
C752 C 0.64866 0.3517 0.93583 0.0
C753 C 0.6444 0.39495 0.89165 0.0
C754 C 0.61452 0.38073 0.78562 0.0
H755 H 0.53223 0.49158 0.68714 0.0
H756 H 0.5457 0.46119 0.74743 0.0
H757 H 0.6039 0.38472 0.7203 0.0
H758 H 0.62731 0.31257 0.91152 0.0
H759 H 0.60869 0.33633 0.84796 0.0
H760 H 0.60275 0.43354 0.85957 0.0
C761 C 0.55873 0.45983 0.71908 0.0
C762 C 0.60368 0.39564 0.75053 0.0
C763 C 0.55098 0.47718 0.68467 0.0
C764 C 0.63254 0.33548 0.90603 0.0
C765 C 0.6219 0.34909 0.86971 0.0
C766 C 0.60334 0.42268 0.82931 0.0
C767 C 0.58312 0.44107 0.71691 0.0
C768 C 0.59286 0.42436 0.75442 0.0
C769 C 0.62732 0.37912 0.8625 0.0
C770 C 0.61478 0.39424 0.82532 0.0
H771 H 0.6045 0.45606 0.61671 0.0
H772 H 0.61836 0.42587 0.67674 0.0
H773 H 0.58473 0.45978 0.79839 0.0
H774 H 0.66775 0.39429 0.94996 0.0
H775 H 0.64962 0.41791 0.88653 0.0
C776 C 0.62338 0.47044 0.38871 0.0
C777 C 0.59821 0.48803 0.38577 0.0
C778 C 0.632 0.45308 0.35466 0.0
C779 C 0.60203 0.41727 0.26099 0.0
H780 H 0.68153 0.41955 0.21775 0.0
C781 C 0.62923 0.372 0.09816 0.0
C782 C 0.65597 0.3574 0.09236 0.0
C783 C 0.62344 0.38662 0.13568 0.0
C784 C 0.65936 0.41826 0.22985 0.0
H785 H 0.56299 0.5017 0.34457 0.0
H786 H 0.57771 0.47144 0.28571 0.0
H787 H 0.66945 0.44707 0.28129 0.0
H788 H 0.69781 0.34706 0.12135 0.0
H789 H 0.68722 0.3717 0.18754 0.0
H790 H 0.59173 0.38841 0.21018 0.0
C791 C 0.59065 0.47085 0.3143 0.0
C792 C 0.65248 0.43405 0.26615 0.0
C793 C 0.58229 0.48834 0.34798 0.0
C794 C 0.67682 0.35779 0.12501 0.0
C795 C 0.67091 0.37223 0.16275 0.0
C796 C 0.60892 0.40125 0.22512 0.0
C797 C 0.61543 0.4529 0.31739 0.0
C798 C 0.62361 0.43412 0.2815 0.0
C799 C 0.6441 0.38673 0.16856 0.0
C800 C 0.63751 0.40203 0.20857 0.0
H801 H 0.63618 0.46978 0.41739 0.0
H802 H 0.65121 0.43936 0.35776 0.0
H803 H 0.57969 0.41668 0.27249 0.0
H804 H 0.61253 0.37186 0.0739 0.0
H805 H 0.60277 0.39802 0.13875 0.0
C806 C 0.46983 0.57327 0.32062 0.0
C807 C 0.48143 0.55168 0.34734 0.0
C808 C 0.48565 0.58284 0.28557 0.0
C809 C 0.56105 0.59218 0.25135 0.0
H810 H 0.52757 0.60556 0.14096 0.0
C811 C 0.61499 0.66566 0.12388 0.0
C812 C 0.61564 0.65404 0.08295 0.0
C813 C 0.59949 0.65118 0.15573 0.0
C814 C 0.53721 0.6018 0.1716 0.0
H815 H 0.51759 0.52192 0.35694 0.0
H816 H 0.54558 0.53903 0.29589 0.0
H817 H 0.49759 0.58255 0.19579 0.0
H818 H 0.60172 0.61727 0.04408 0.0
H819 H 0.57408 0.59258 0.09938 0.0
H820 H 0.60048 0.61195 0.22745 0.0
C821 C 0.52438 0.54862 0.30241 0.0
C822 C 0.52005 0.5888 0.20293 0.0
C823 C 0.50838 0.53879 0.33712 0.0
C824 C 0.60109 0.62724 0.07495 0.0
C825 C 0.58534 0.61301 0.1066 0.0
C826 C 0.57807 0.60557 0.22022 0.0
C827 C 0.51347 0.5712 0.27692 0.0
C828 C 0.53182 0.58387 0.24307 0.0
C829 C 0.58415 0.62498 0.14715 0.0
C830 C 0.5663 0.6105 0.18008 0.0
H831 H 0.449 0.5835 0.32756 0.0
H832 H 0.47675 0.60029 0.26639 0.0
H833 H 0.57054 0.5889 0.28221 0.0
H834 H 0.62567 0.68638 0.13104 0.0
H835 H 0.59875 0.66094 0.18674 0.0
C836 C 0.406 0.47577 0.34416 0.0
C837 C 0.40531 0.48961 0.38358 0.0
C838 C 0.39511 0.49006 0.30859 0.0
C839 C 0.38533 0.56264 0.26602 0.0
H840 H 0.32635 0.52853 0.19243 0.0
C841 C 0.33489 0.63028 0.13271 0.0
C842 C 0.32916 0.61607 0.09434 0.0
C843 C 0.34223 0.61412 0.1684 0.0
C844 C 0.34314 0.53823 0.21227 0.0
H845 H 0.39145 0.52851 0.41708 0.0
H846 H 0.37324 0.55379 0.35488 0.0
H847 H 0.34374 0.50078 0.25319 0.0
H848 H 0.32546 0.57349 0.06403 0.0
H849 H 0.33983 0.54549 0.12555 0.0
H850 H 0.38582 0.59957 0.22488 0.0
C851 C 0.38228 0.53198 0.35151 0.0
C852 C 0.35296 0.52235 0.24707 0.0
C853 C 0.39264 0.51749 0.38706 0.0
C854 C 0.33029 0.58523 0.09284 0.0
C855 C 0.3381 0.5691 0.12838 0.0
C856 C 0.37595 0.57829 0.23092 0.0
C857 C 0.38369 0.5185 0.31198 0.0
C858 C 0.37392 0.53459 0.27436 0.0
C859 C 0.34453 0.58337 0.16651 0.0
C860 C 0.35452 0.56644 0.20377 0.0
H861 H 0.41502 0.45397 0.34086 0.0
H862 H 0.3963 0.47924 0.27833 0.0
H863 H 0.40179 0.57233 0.28646 0.0
H864 H 0.33452 0.65398 0.13505 0.0
H865 H 0.34637 0.62586 0.19742 0.0
C866 C 0.52694 0.41671 0.32559 0.0
C867 C 0.51558 0.43979 0.34983 0.0
C868 C 0.51206 0.40688 0.28976 0.0
C869 C 0.43831 0.39965 0.24973 0.0
H870 H 0.47389 0.38599 0.14088 0.0
C871 C 0.38493 0.33038 0.11606 0.0
C872 C 0.38233 0.34539 0.07757 0.0
C873 C 0.40162 0.34232 0.14891 0.0
C874 C 0.46379 0.38967 0.1712 0.0
H875 H 0.48073 0.47192 0.354 0.0
H876 H 0.45493 0.45468 0.29109 0.0
H877 H 0.50335 0.40765 0.19781 0.0
H878 H 0.3947 0.38535 0.04439 0.0
H879 H 0.42481 0.40522 0.10099 0.0
H880 H 0.39896 0.38106 0.22345 0.0
C881 C 0.47494 0.44387 0.30065 0.0
C882 C 0.48058 0.40197 0.20362 0.0
C883 C 0.48982 0.45378 0.3364 0.0
C884 C 0.39678 0.37266 0.07299 0.0
C885 C 0.4139 0.38423 0.10546 0.0
C886 C 0.42172 0.38677 0.21761 0.0
C887 C 0.4855 0.41987 0.27774 0.0
C888 C 0.46789 0.40724 0.24304 0.0
C889 C 0.41643 0.3692 0.14366 0.0
C890 C 0.43428 0.38185 0.17805 0.0
H891 H 0.54681 0.40557 0.33501 0.0
H892 H 0.52068 0.38837 0.27247 0.0
H893 H 0.42815 0.40327 0.28003 0.0
H894 H 0.3745 0.3092 0.12065 0.0
H895 H 0.40339 0.33032 0.17818 0.0
loop_
_geom_bond_atom_site_label_1
_geom_bond_atom_site_label_2
_geom_bond_distance
_geom_bond_site_symmetry_2
_ccdc_geom_bond_type
Zn0 O2 1.933 1_556 S
Zn0 O20 1.985 . S
Zn0 O31 1.955 . S
Zn1 O2 1.911 . S
Zn1 O21 1.970 . S
Zn1 O37 1.945 . S
Zn1 O44 1.981 . S
O2 Zn0 1.933 1_554 S
O2 Zn1 1.911 . S
O2 H3 0.841 1_655 S
H3 O2 0.841 1_455 S
C4 O5 1.246 . S
C4 O33 1.276 1_545 S
O5 C4 1.246 . S
Zn6 O8 1.911 . S
Zn6 O23 1.970 . S
Zn6 O40 1.945 . S
Zn6 O47 1.981 . S
Zn7 O8 1.933 1_556 S
Zn7 O22 1.985 . S
Zn7 O29 1.955 . S
O8 Zn6 1.911 . S
O8 Zn7 1.933 1_554 S
O8 H9 0.841 1_455 S
H9 O8 0.841 1_655 S
Zn10 O11 1.933 1_556 S
Zn10 O24 1.985 . S
Zn10 O33 1.955 . S
O11 Zn10 1.933 1_554 S
O11 Zn12 1.911 . S
O11 H13 0.841 1_565 S
Zn12 O11 1.911 . S
Zn12 O25 1.970 . S
Zn12 O41 1.981 . S
Zn12 O43 1.945 . S
H13 O11 0.841 1_545 S
Zn14 O15 1.933 1_556 S
Zn14 O27 1.985 . S
Zn14 O35 1.955 . S
O15 Zn14 1.933 1_554 S
O15 H16 0.841 1_545 S
O15 Zn17 1.911 . S
H16 O15 0.841 1_565 S
Zn17 O15 1.911 . S
Zn17 O28 1.970 . S
Zn17 O38 1.981 . S
Zn17 O46 1.945 . S
C18 O19 1.246 . S
C18 O35 1.276 1_565 S
O19 C18 1.246 . S
O20 Zn0 1.985 . S
O20 C30 1.245 1_556 S
O21 Zn1 1.970 . S
O21 C30 1.263 . S
O22 Zn7 1.985 . S
O22 C34 1.245 1_556 S
O23 Zn6 1.970 . S
O23 C34 1.263 . S
O24 Zn10 1.985 . S
O24 C39 1.245 1_556 S
O25 Zn12 1.970 . S
O25 C39 1.263 . S
C26 O37 1.262 1_455 S
C26 O38 1.245 . S
O27 Zn14 1.985 . S
O27 C45 1.245 1_556 S
O28 Zn17 1.970 . S
O28 C45 1.263 . S
O29 Zn7 1.955 . S
O29 C48 1.276 1_455 S
C30 O20 1.245 1_554 S
C30 O21 1.263 . S
O31 Zn0 1.955 . S
O31 C50 1.276 1_655 S
C32 O40 1.262 1_655 S
C32 O41 1.245 . S
O33 C4 1.276 1_565 S
O33 Zn10 1.955 . S
C34 O22 1.245 1_554 S
C34 O23 1.263 . S
O35 Zn14 1.955 . S
O35 C18 1.276 1_545 S
C36 O43 1.262 1_545 S
C36 O44 1.245 . S
O37 Zn1 1.945 . S
O37 C26 1.262 1_655 S
O38 Zn17 1.981 . S
O38 C26 1.245 . S
C39 O24 1.245 1_554 S
C39 O25 1.263 . S
O40 Zn6 1.945 . S
O40 C32 1.262 1_455 S
O41 Zn12 1.981 . S
O41 C32 1.245 . S
C42 O46 1.262 1_565 S
C42 O47 1.245 . S
O43 Zn12 1.945 . S
O43 C36 1.262 1_565 S
O44 Zn1 1.981 . S
O44 C36 1.245 . S
C45 O27 1.245 1_554 S
C45 O28 1.263 . S
O46 Zn17 1.945 . S
O46 C42 1.262 1_545 S
O47 Zn6 1.981 . S
O47 C42 1.245 . S
C48 O29 1.276 1_655 S
C48 O49 1.246 . S
O49 C48 1.246 . S
C50 O31 1.276 1_455 S
C50 O51 1.246 . S
O51 C50 1.246 . S
Zn52 O54 1.933 . S
Zn52 O72 1.985 . S
Zn52 O83 1.955 . S
Zn53 O54 1.911 . S
Zn53 O73 1.970 . S
Zn53 O89 1.945 . S
Zn53 O96 1.981 . S
O54 Zn52 1.933 . S
O54 Zn53 1.911 . S
O54 H55 0.841 . S
H55 O54 0.841 . S
C56 O57 1.246 . S
C56 O85 1.276 . S
O57 C56 1.246 . S
Zn58 O60 1.911 . S
Zn58 O75 1.970 . S
Zn58 O92 1.945 . S
Zn58 O99 1.981 . S
Zn59 O60 1.933 . S
Zn59 O74 1.985 . S
Zn59 O81 1.955 . S
O60 Zn58 1.911 . S
O60 Zn59 1.933 . S
O60 H61 0.841 . S
H61 O60 0.841 . S
Zn62 O63 1.933 . S
Zn62 O76 1.985 . S
Zn62 O85 1.955 . S
O63 Zn62 1.933 . S
O63 Zn64 1.911 . S
O63 H65 0.841 . S
Zn64 O63 1.911 . S
Zn64 O77 1.970 . S
Zn64 O93 1.981 . S
Zn64 O95 1.945 . S
H65 O63 0.841 . S
Zn66 O67 1.933 . S
Zn66 O79 1.985 . S
Zn66 O87 1.955 . S
O67 Zn66 1.933 . S
O67 H68 0.841 . S
O67 Zn69 1.911 . S
H68 O67 0.841 . S
Zn69 O67 1.911 . S
Zn69 O80 1.970 . S
Zn69 O90 1.981 . S
Zn69 O98 1.945 . S
C70 O71 1.246 . S
C70 O87 1.276 . S
O71 C70 1.246 . S
O72 Zn52 1.985 . S
O72 C82 1.245 . S
O73 Zn53 1.970 . S
O73 C82 1.263 . S
O74 Zn59 1.985 . S
O74 C86 1.245 . S
O75 Zn58 1.970 . S
O75 C86 1.263 . S
O76 Zn62 1.985 . S
O76 C91 1.245 . S
O77 Zn64 1.970 . S
O77 C91 1.263 . S
C78 O89 1.262 . S
C78 O90 1.245 . S
O79 Zn66 1.985 . S
O79 C97 1.245 . S
O80 Zn69 1.970 . S
O80 C97 1.263 . S
O81 Zn59 1.955 . S
O81 C100 1.276 . S
C82 O72 1.245 . S
C82 O73 1.263 . S
O83 Zn52 1.955 . S
O83 C102 1.276 . S
C84 O92 1.262 . S
C84 O93 1.245 . S
O85 C56 1.276 . S
O85 Zn62 1.955 . S
C86 O74 1.245 . S
C86 O75 1.263 . S
O87 Zn66 1.955 . S
O87 C70 1.276 . S
C88 O95 1.262 . S
C88 O96 1.245 . S
O89 Zn53 1.945 . S
O89 C78 1.262 . S
O90 Zn69 1.981 . S
O90 C78 1.245 . S
C91 O76 1.245 . S
C91 O77 1.263 . S
O92 Zn58 1.945 . S
O92 C84 1.262 . S
O93 Zn64 1.981 . S
O93 C84 1.245 . S
C94 O98 1.262 . S
C94 O99 1.245 . S
O95 Zn64 1.945 . S
O95 C88 1.262 . S
O96 Zn53 1.981 . S
O96 C88 1.245 . S
C97 O79 1.245 . S
C97 O80 1.263 . S
O98 Zn69 1.945 . S
O98 C94 1.262 . S
O99 Zn58 1.981 . S
O99 C94 1.245 . S
C100 O81 1.276 . S
C100 O101 1.246 . S
O101 C100 1.246 . S
C102 O83 1.276 . S
C102 O103 1.246 . S
O103 C102 1.246 . S
H104 C107 0.931 . S
H105 C110 0.928 . S
H106 C112 0.930 . S
C107 H104 0.931 . S
C107 C108 1.413 1_554 S
C107 C109 1.360 . S
C108 C107 1.413 1_556 S
C108 C112 1.429 . S
C109 C107 1.360 . S
C109 C110 1.372 . S
C110 H105 0.928 . S
C110 C109 1.372 . S
C110 C111 1.404 . S
C111 C110 1.404 . S
C111 C112 1.391 1_554 S
C112 H106 0.930 . S
C112 C108 1.429 . S
C112 C111 1.391 1_556 S
H113 C116 0.931 . S
H114 C119 0.928 . S
H115 C121 0.930 . S
C116 H113 0.931 . S
C116 C117 1.413 1_554 S
C116 C118 1.360 . S
C117 C116 1.413 1_556 S
C117 C121 1.429 . S
C118 C116 1.360 . S
C118 C119 1.372 . S
C119 H114 0.928 . S
C119 C118 1.372 . S
C119 C120 1.404 . S
C120 C119 1.404 . S
C120 C121 1.391 1_554 S
C121 H115 0.930 . S
C121 C117 1.429 . S
C121 C120 1.391 1_556 S
H122 C125 0.931 . S
H123 C128 0.928 . S
H124 C130 0.930 . S
C125 H122 0.931 . S
C125 C126 1.413 . S
C125 C127 1.360 1_554 S
C126 C125 1.413 . S
C126 C130 1.429 . S
C127 C125 1.360 1_556 S
C127 C128 1.372 . S
C128 H123 0.928 . S
C128 C127 1.372 . S
C128 C129 1.404 1_556 S
C129 C128 1.404 1_554 S
C129 C130 1.391 . S
C130 H124 0.930 . S
C130 C126 1.429 . S
C130 C129 1.391 . S
H131 C134 0.931 . S
H132 C137 0.928 . S
H133 C139 0.930 . S
C134 H131 0.931 . S
C134 C135 1.413 1_554 S
C134 C136 1.360 . S
C135 C134 1.413 1_556 S
C135 C139 1.429 . S
C136 C134 1.360 . S
C136 C137 1.372 . S
C137 H132 0.928 . S
C137 C136 1.372 . S
C137 C138 1.404 . S
C138 C137 1.404 . S
C138 C139 1.391 1_554 S
C139 H133 0.930 . S
C139 C135 1.429 . S
C139 C138 1.391 1_556 S
H140 C143 0.931 . S
H141 C146 0.928 . S
H142 C148 0.930 . S
C143 H140 0.931 . S
C143 C144 1.413 . S
C143 C145 1.360 . S
C144 C143 1.413 . S
C144 C148 1.429 . S
C145 C143 1.360 . S
C145 C146 1.372 . S
C146 H141 0.928 . S
C146 C145 1.372 . S
C146 C147 1.404 . S
C147 C146 1.404 . S
C147 C148 1.391 . S
C148 H142 0.930 . S
C148 C144 1.429 . S
C148 C147 1.391 . S
H149 C152 0.931 . S
H150 C155 0.928 . S
H151 C157 0.930 . S
C152 H149 0.931 . S
C152 C153 1.413 . S
C152 C154 1.360 . S
C153 C152 1.413 . S
C153 C157 1.429 . S
C154 C152 1.360 . S
C154 C155 1.372 . S
C155 H150 0.928 . S
C155 C154 1.372 . S
C155 C156 1.404 . S
C156 C155 1.404 . S
C156 C157 1.391 . S
C157 H151 0.930 . S
C157 C153 1.429 . S
C157 C156 1.391 . S
H158 C161 0.931 . S
H159 C164 0.928 . S
H160 C166 0.930 . S
C161 H158 0.931 . S
C161 C162 1.413 . S
C161 C163 1.360 . S
C162 C161 1.413 . S
C162 C166 1.429 . S
C163 C161 1.360 . S
C163 C164 1.372 . S
C164 H159 0.928 . S
C164 C163 1.372 . S
C164 C165 1.404 . S
C165 C164 1.404 . S
C165 C166 1.391 . S
C166 H160 0.930 . S
C166 C162 1.429 . S
C166 C165 1.391 . S
H167 C170 0.931 . S
H168 C173 0.928 . S
H169 C175 0.930 . S
C170 H167 0.931 . S
C170 C171 1.413 . S
C170 C172 1.360 . S
C171 C170 1.413 . S
C171 C175 1.429 . S
C172 C170 1.360 . S
C172 C173 1.372 . S
C173 H168 0.928 . S
C173 C172 1.372 . S
C173 C174 1.404 . S
C174 C173 1.404 . S
C174 C175 1.391 . S
C175 H169 0.930 . S
C175 C171 1.429 . S
C175 C174 1.391 . S
C176 C177 1.349 1_556 S
C176 C178 1.327 . S
C176 H201 0.950 . S
C177 C176 1.349 1_554 S
C177 C193 1.349 . S
C178 C176 1.327 . S
C178 C197 1.429 1_556 S
C178 H202 0.950 . S
C179 C196 1.574 . S
C179 C198 1.368 . S
C179 H203 0.949 . S
H180 C184 0.949 . S
C181 C182 1.349 . S
C181 C183 1.327 . S
C181 H204 0.950 . S
C182 C181 1.349 . S
C182 C194 1.349 1_554 S
C183 C181 1.327 . S
C183 C199 1.429 . S
C183 H205 0.950 . S
C184 H180 0.949 . S
C184 C192 1.574 . S
C184 C200 1.368 1_556 S
H185 C193 0.950 . S
H186 C191 0.950 . S
H187 C192 0.949 . S
H188 C194 0.950 . S
H189 C195 0.950 . S
H190 C196 0.949 . S
C191 H186 0.950 . S
C191 C193 1.327 . S
C191 C197 1.429 . S
C192 C184 1.574 . S
C192 H187 0.949 . S
C192 C198 1.368 1_556 S
C193 C177 1.349 . S
C193 H185 0.950 . S
C193 C191 1.327 . S
C194 C182 1.349 1_556 S
C194 H188 0.950 . S
C194 C195 1.327 . S
C195 H189 0.950 . S
C195 C194 1.327 . S
C195 C199 1.429 1_556 S
C196 C179 1.574 . S
C196 H190 0.949 . S
C196 C200 1.368 . S
C197 C178 1.429 1_554 S
C197 C191 1.429 . S
C197 C198 1.523 . S
C198 C179 1.368 . S
C198 C192 1.368 1_554 S
C198 C197 1.523 . S
C199 C183 1.429 . S
C199 C195 1.429 1_554 S
C199 C200 1.523 . S
C200 C184 1.368 1_554 S
C200 C196 1.368 . S
C200 C199 1.523 . S
H201 C176 0.950 . S
H202 C178 0.950 . S
H203 C179 0.949 . S
H204 C181 0.950 . S
H205 C183 0.950 . S
C206 C207 1.349 1_556 S
C206 C208 1.327 . S
C206 H231 0.950 . S
C207 C206 1.349 1_554 S
C207 C223 1.349 . S
C208 C206 1.327 . S
C208 C227 1.429 1_556 S
C208 H232 0.950 . S
C209 C226 1.574 . S
C209 C228 1.368 . S
C209 H233 0.949 . S
H210 C214 0.949 . S
C211 C212 1.349 . S
C211 C213 1.327 . S
C211 H234 0.950 . S
C212 C211 1.349 . S
C212 C224 1.349 1_554 S
C213 C211 1.327 . S
C213 C229 1.429 . S
C213 H235 0.950 . S
C214 H210 0.949 . S
C214 C222 1.574 . S
C214 C230 1.368 1_556 S
H215 C223 0.950 . S
H216 C221 0.950 . S
H217 C222 0.949 . S
H218 C224 0.950 . S
H219 C225 0.950 . S
H220 C226 0.949 . S
C221 H216 0.950 . S
C221 C223 1.327 . S
C221 C227 1.429 . S
C222 C214 1.574 . S
C222 H217 0.949 . S
C222 C228 1.368 1_556 S
C223 C207 1.349 . S
C223 H215 0.950 . S
C223 C221 1.327 . S
C224 C212 1.349 1_556 S
C224 H218 0.950 . S
C224 C225 1.327 . S
C225 H219 0.950 . S
C225 C224 1.327 . S
C225 C229 1.429 1_556 S
C226 C209 1.574 . S
C226 H220 0.949 . S
C226 C230 1.368 . S
C227 C208 1.429 1_554 S
C227 C221 1.429 . S
C227 C228 1.523 . S
C228 C209 1.368 . S
C228 C222 1.368 1_554 S
C228 C227 1.523 . S
C229 C213 1.429 . S
C229 C225 1.429 1_554 S
C229 C230 1.523 . S
C230 C214 1.368 1_554 S
C230 C226 1.368 . S
C230 C229 1.523 . S
H231 C206 0.950 . S
H232 C208 0.950 . S
H233 C209 0.949 . S
H234 C211 0.950 . S
H235 C213 0.950 . S
C236 C237 1.349 1_556 S
C236 C238 1.327 . S
C236 H261 0.950 . S
C237 C236 1.349 1_554 S
C237 C253 1.349 . S
C238 C236 1.327 . S
C238 C257 1.429 1_556 S
C238 H262 0.950 . S
C239 C256 1.574 . S
C239 C258 1.368 . S
C239 H263 0.949 . S
H240 C244 0.949 . S
C241 C242 1.349 . S
C241 C243 1.327 . S
C241 H264 0.950 . S
C242 C241 1.349 . S
C242 C254 1.349 1_554 S
C243 C241 1.327 . S
C243 C259 1.429 . S
C243 H265 0.950 . S
C244 H240 0.949 . S
C244 C252 1.574 . S
C244 C260 1.368 1_556 S
H245 C253 0.950 . S
H246 C251 0.950 . S
H247 C252 0.949 . S
H248 C254 0.950 . S
H249 C255 0.950 . S
H250 C256 0.949 . S
C251 H246 0.950 . S
C251 C253 1.327 . S
C251 C257 1.429 . S
C252 C244 1.574 . S
C252 H247 0.949 . S
C252 C258 1.368 1_556 S
C253 C237 1.349 . S
C253 H245 0.950 . S
C253 C251 1.327 . S
C254 C242 1.349 1_556 S
C254 H248 0.950 . S
C254 C255 1.327 . S
C255 H249 0.950 . S
C255 C254 1.327 . S
C255 C259 1.429 1_556 S
C256 C239 1.574 . S
C256 H250 0.949 . S
C256 C260 1.368 . S
C257 C238 1.429 1_554 S
C257 C251 1.429 . S
C257 C258 1.523 . S
C258 C239 1.368 . S
C258 C252 1.368 1_554 S
C258 C257 1.523 . S
C259 C243 1.429 . S
C259 C255 1.429 1_554 S
C259 C260 1.523 . S
C260 C244 1.368 1_554 S
C260 C256 1.368 . S
C260 C259 1.523 . S
H261 C236 0.950 . S
H262 C238 0.950 . S
H263 C239 0.949 . S
H264 C241 0.950 . S
H265 C243 0.950 . S
C266 C267 1.349 . S
C266 C268 1.327 . S
C266 H291 0.950 . S
C267 C266 1.349 . S
C267 C283 1.349 1_554 S
C268 C266 1.327 . S
C268 C287 1.429 . S
C268 H292 0.950 . S
C269 C286 1.574 . S
C269 C288 1.368 1_556 S
C269 H293 0.949 . S
H270 C274 0.949 . S
C271 C272 1.349 1_556 S
C271 C273 1.327 . S
C271 H294 0.950 . S
C272 C271 1.349 1_554 S
C272 C284 1.349 . S
C273 C271 1.327 . S
C273 C289 1.429 1_556 S
C273 H295 0.950 . S
C274 H270 0.949 . S
C274 C282 1.574 . S
C274 C290 1.368 . S
H275 C283 0.950 . S
H276 C281 0.950 . S
H277 C282 0.949 . S
H278 C284 0.950 . S
H279 C285 0.950 . S
H280 C286 0.949 . S
C281 H276 0.950 . S
C281 C283 1.327 . S
C281 C287 1.429 1_556 S
C282 C274 1.574 . S
C282 H277 0.949 . S
C282 C288 1.368 . S
C283 C267 1.349 1_556 S
C283 H275 0.950 . S
C283 C281 1.327 . S
C284 C272 1.349 . S
C284 H278 0.950 . S
C284 C285 1.327 . S
C285 H279 0.950 . S
C285 C284 1.327 . S
C285 C289 1.429 . S
C286 C269 1.574 . S
C286 H280 0.949 . S
C286 C290 1.368 1_556 S
C287 C268 1.429 . S
C287 C281 1.429 1_554 S
C287 C288 1.523 . S
C288 C269 1.368 1_554 S
C288 C282 1.368 . S
C288 C287 1.523 . S
C289 C273 1.429 1_554 S
C289 C285 1.429 . S
C289 C290 1.523 . S
C290 C274 1.368 . S
C290 C286 1.368 1_554 S
C290 C289 1.523 . S
H291 C266 0.950 . S
H292 C268 0.950 . S
H293 C269 0.949 . S
H294 C271 0.950 . S
H295 C273 0.950 . S
C296 C297 1.349 . S
C296 C298 1.327 . S
C296 H321 0.950 . S
C297 C296 1.349 . S
C297 C313 1.349 . S
C298 C296 1.327 . S
C298 C317 1.429 . S
C298 H322 0.950 . S
C299 C316 1.574 . S
C299 C318 1.368 . S
C299 H323 0.949 . S
H300 C304 0.949 . S
C301 C302 1.349 . S
C301 C303 1.327 . S
C301 H324 0.950 . S
C302 C301 1.349 . S
C302 C314 1.349 . S
C303 C301 1.327 . S
C303 C319 1.429 . S
C303 H325 0.950 . S
C304 H300 0.949 . S
C304 C312 1.574 . S
C304 C320 1.368 . S
H305 C313 0.950 . S
H306 C311 0.950 . S
H307 C312 0.949 . S
H308 C314 0.950 . S
H309 C315 0.950 . S
H310 C316 0.949 . S
C311 H306 0.950 . S
C311 C313 1.327 . S
C311 C317 1.429 . S
C312 C304 1.574 . S
C312 H307 0.949 . S
C312 C318 1.368 . S
C313 C297 1.349 . S
C313 H305 0.950 . S
C313 C311 1.327 . S
C314 C302 1.349 . S
C314 H308 0.950 . S
C314 C315 1.327 . S
C315 H309 0.950 . S
C315 C314 1.327 . S
C315 C319 1.429 . S
C316 C299 1.574 . S
C316 H310 0.949 . S
C316 C320 1.368 . S
C317 C298 1.429 . S
C317 C311 1.429 . S
C317 C318 1.523 . S
C318 C299 1.368 . S
C318 C312 1.368 . S
C318 C317 1.523 . S
C319 C303 1.429 . S
C319 C315 1.429 . S
C319 C320 1.523 . S
C320 C304 1.368 . S
C320 C316 1.368 . S
C320 C319 1.523 . S
H321 C296 0.950 . S
H322 C298 0.950 . S
H323 C299 0.949 . S
H324 C301 0.950 . S
H325 C303 0.950 . S
C326 C327 1.349 . S
C326 C328 1.327 . S
C326 H351 0.950 . S
C327 C326 1.349 . S
C327 C343 1.349 . S
C328 C326 1.327 . S
C328 C347 1.429 . S
C328 H352 0.950 . S
C329 C346 1.574 . S
C329 C348 1.368 . S
C329 H353 0.949 . S
H330 C334 0.949 . S
C331 C332 1.349 . S
C331 C333 1.327 . S
C331 H354 0.950 . S
C332 C331 1.349 . S
C332 C344 1.349 . S
C333 C331 1.327 . S
C333 C349 1.429 . S
C333 H355 0.950 . S
C334 H330 0.949 . S
C334 C342 1.574 . S
C334 C350 1.368 . S
H335 C343 0.950 . S
H336 C341 0.950 . S
H337 C342 0.949 . S
H338 C344 0.950 . S
H339 C345 0.950 . S
H340 C346 0.949 . S
C341 H336 0.950 . S
C341 C343 1.327 . S
C341 C347 1.429 . S
C342 C334 1.574 . S
C342 H337 0.949 . S
C342 C348 1.368 . S
C343 C327 1.349 . S
C343 H335 0.950 . S
C343 C341 1.327 . S
C344 C332 1.349 . S
C344 H338 0.950 . S
C344 C345 1.327 . S
C345 H339 0.950 . S
C345 C344 1.327 . S
C345 C349 1.429 . S
C346 C329 1.574 . S
C346 H340 0.949 . S
C346 C350 1.368 . S
C347 C328 1.429 . S
C347 C341 1.429 . S
C347 C348 1.523 . S
C348 C329 1.368 . S
C348 C342 1.368 . S
C348 C347 1.523 . S
C349 C333 1.429 . S
C349 C345 1.429 . S
C349 C350 1.523 . S
C350 C334 1.368 . S
C350 C346 1.368 . S
C350 C349 1.523 . S
H351 C326 0.950 . S
H352 C328 0.950 . S
H353 C329 0.949 . S
H354 C331 0.950 . S
H355 C333 0.950 . S
C356 C357 1.349 . S
C356 C358 1.327 . S
C356 H381 0.950 . S
C357 C356 1.349 . S
C357 C373 1.349 . S
C358 C356 1.327 . S
C358 C377 1.429 . S
C358 H382 0.950 . S
C359 C376 1.574 . S
C359 C378 1.368 . S
C359 H383 0.949 . S
H360 C364 0.949 . S
C361 C362 1.349 . S
C361 C363 1.327 . S
C361 H384 0.950 . S
C362 C361 1.349 . S
C362 C374 1.349 . S
C363 C361 1.327 . S
C363 C379 1.429 . S
C363 H385 0.950 . S
C364 H360 0.949 . S
C364 C372 1.574 . S
C364 C380 1.368 . S
H365 C373 0.950 . S
H366 C371 0.950 . S
H367 C372 0.949 . S
H368 C374 0.950 . S
H369 C375 0.950 . S
H370 C376 0.949 . S
C371 H366 0.950 . S
C371 C373 1.327 . S
C371 C377 1.429 . S
C372 C364 1.574 . S
C372 H367 0.949 . S
C372 C378 1.368 . S
C373 C357 1.349 . S
C373 H365 0.950 . S
C373 C371 1.327 . S
C374 C362 1.349 . S
C374 H368 0.950 . S
C374 C375 1.327 . S
C375 H369 0.950 . S
C375 C374 1.327 . S
C375 C379 1.429 . S
C376 C359 1.574 . S
C376 H370 0.949 . S
C376 C380 1.368 . S
C377 C358 1.429 . S
C377 C371 1.429 . S
C377 C378 1.523 . S
C378 C359 1.368 . S
C378 C372 1.368 . S
C378 C377 1.523 . S
C379 C363 1.429 . S
C379 C375 1.429 . S
C379 C380 1.523 . S
C380 C364 1.368 . S
C380 C376 1.368 . S
C380 C379 1.523 . S
H381 C356 0.950 . S
H382 C358 0.950 . S
H383 C359 0.949 . S
H384 C361 0.950 . S
H385 C363 0.950 . S
C386 C387 1.349 . S
C386 C388 1.327 . S
C386 H411 0.950 . S
C387 C386 1.349 . S
C387 C403 1.349 . S
C388 C386 1.327 . S
C388 C407 1.429 . S
C388 H412 0.950 . S
C389 C406 1.574 . S
C389 C408 1.368 . S
C389 H413 0.949 . S
H390 C394 0.949 . S
C391 C392 1.349 . S
C391 C393 1.327 . S
C391 H414 0.950 . S
C392 C391 1.349 . S
C392 C404 1.349 . S
C393 C391 1.327 . S
C393 C409 1.429 . S
C393 H415 0.950 . S
C394 H390 0.949 . S
C394 C402 1.574 . S
C394 C410 1.368 . S
H395 C403 0.950 . S
H396 C401 0.950 . S
H397 C402 0.949 . S
H398 C404 0.950 . S
H399 C405 0.950 . S
H400 C406 0.949 . S
C401 H396 0.950 . S
C401 C403 1.327 . S
C401 C407 1.429 . S
C402 C394 1.574 . S
C402 H397 0.949 . S
C402 C408 1.368 . S
C403 C387 1.349 . S
C403 H395 0.950 . S
C403 C401 1.327 . S
C404 C392 1.349 . S
C404 H398 0.950 . S
C404 C405 1.327 . S
C405 H399 0.950 . S
C405 C404 1.327 . S
C405 C409 1.429 . S
C406 C389 1.574 . S
C406 H400 0.949 . S
C406 C410 1.368 . S
C407 C388 1.429 . S
C407 C401 1.429 . S
C407 C408 1.523 . S
C408 C389 1.368 . S
C408 C402 1.368 . S
C408 C407 1.523 . S
C409 C393 1.429 . S
C409 C405 1.429 . S
C409 C410 1.523 . S
C410 C394 1.368 . S
C410 C406 1.368 . S
C410 C409 1.523 . S
H411 C386 0.950 . S
H412 C388 0.950 . S
H413 C389 0.949 . S
H414 C391 0.950 . S
H415 C393 0.950 . S
C416 C417 1.349 . S
C416 C418 1.327 . S
C416 H441 0.950 . S
C417 C416 1.349 . S
C417 C433 1.349 . S
C418 C416 1.327 . S
C418 C437 1.429 . S
C418 H442 0.950 . S
C419 C436 1.574 . S
C419 C438 1.368 . S
C419 H443 0.949 . S
H420 C424 0.949 . S
C421 C422 1.349 . S
C421 C423 1.327 . S
C421 H444 0.950 . S
C422 C421 1.349 . S
C422 C434 1.349 . S
C423 C421 1.327 . S
C423 C439 1.429 . S
C423 H445 0.950 . S
C424 H420 0.949 . S
C424 C432 1.574 . S
C424 C440 1.368 . S
H425 C433 0.950 1_655 S
H426 C431 0.950 . S
H427 C432 0.949 . S
H428 C434 0.950 . S
H429 C435 0.950 . S
H430 C436 0.949 . S
C431 H426 0.950 . S
C431 C433 1.327 . S
C431 C437 1.429 . S
C432 C424 1.574 . S
C432 H427 0.949 . S
C432 C438 1.368 . S
C433 C417 1.349 . S
C433 H425 0.950 1_455 S
C433 C431 1.327 . S
C434 C422 1.349 . S
C434 H428 0.950 . S
C434 C435 1.327 . S
C435 H429 0.950 . S
C435 C434 1.327 . S
C435 C439 1.429 . S
C436 C419 1.574 . S
C436 H430 0.949 . S
C436 C440 1.368 . S
C437 C418 1.429 . S
C437 C431 1.429 . S
C437 C438 1.523 . S
C438 C419 1.368 . S
C438 C432 1.368 . S
C438 C437 1.523 . S
C439 C423 1.429 . S
C439 C435 1.429 . S
C439 C440 1.523 . S
C440 C424 1.368 . S
C440 C436 1.368 . S
C440 C439 1.523 . S
H441 C416 0.950 . S
H442 C418 0.950 . S
H443 C419 0.949 . S
H444 C421 0.950 . S
H445 C423 0.950 . S
C446 C447 1.349 . S
C446 C448 1.327 . S
C446 H471 0.950 . S
C447 C446 1.349 . S
C447 C463 1.349 . S
C448 C446 1.327 . S
C448 C467 1.429 . S
C448 H472 0.950 . S
C449 C466 1.574 . S
C449 C468 1.368 . S
C449 H473 0.949 . S
H450 C454 0.949 . S
C451 C452 1.349 . S
C451 C453 1.327 . S
C451 H474 0.950 . S
C452 C451 1.349 . S
C452 C464 1.349 . S
C453 C451 1.327 . S
C453 C469 1.429 . S
C453 H475 0.950 . S
C454 H450 0.949 . S
C454 C462 1.574 . S
C454 C470 1.368 . S
H455 C463 0.950 . S
H456 C461 0.950 . S
H457 C462 0.949 . S
H458 C464 0.950 . S
H459 C465 0.950 . S
H460 C466 0.949 . S
C461 H456 0.950 . S
C461 C463 1.327 . S
C461 C467 1.429 . S
C462 C454 1.574 . S
C462 H457 0.949 . S
C462 C468 1.368 . S
C463 C447 1.349 . S
C463 H455 0.950 . S
C463 C461 1.327 . S
C464 C452 1.349 . S
C464 H458 0.950 . S
C464 C465 1.327 . S
C465 H459 0.950 . S
C465 C464 1.327 . S
C465 C469 1.429 . S
C466 C449 1.574 . S
C466 H460 0.949 . S
C466 C470 1.368 . S
C467 C448 1.429 . S
C467 C461 1.429 . S
C467 C468 1.523 . S
C468 C449 1.368 . S
C468 C462 1.368 . S
C468 C467 1.523 . S
C469 C453 1.429 . S
C469 C465 1.429 . S
C469 C470 1.523 . S
C470 C454 1.368 . S
C470 C466 1.368 . S
C470 C469 1.523 . S
H471 C446 0.950 . S
H472 C448 0.950 . S
H473 C449 0.949 . S
H474 C451 0.950 . S
H475 C453 0.950 . S
C476 C477 1.349 . S
C476 C478 1.327 . S
C476 H501 0.950 . S
C477 C476 1.349 . S
C477 C493 1.349 . S
C478 C476 1.327 . S
C478 C497 1.429 . S
C478 H502 0.950 . S
C479 C496 1.574 . S
C479 C498 1.368 . S
C479 H503 0.949 . S
H480 C484 0.949 . S
C481 C482 1.349 . S
C481 C483 1.327 . S
C481 H504 0.950 . S
C482 C481 1.349 . S
C482 C494 1.349 . S
C483 C481 1.327 . S
C483 C499 1.429 . S
C483 H505 0.950 . S
C484 H480 0.949 . S
C484 C492 1.574 . S
C484 C500 1.368 . S
H485 C493 0.950 1_455 S
H486 C491 0.950 . S
H487 C492 0.949 . S
H488 C494 0.950 . S
H489 C495 0.950 . S
H490 C496 0.949 . S
C491 H486 0.950 . S
C491 C493 1.327 . S
C491 C497 1.429 . S
C492 C484 1.574 . S
C492 H487 0.949 . S
C492 C498 1.368 . S
C493 C477 1.349 . S
C493 H485 0.950 1_655 S
C493 C491 1.327 . S
C494 C482 1.349 . S
C494 H488 0.950 . S
C494 C495 1.327 . S
C495 H489 0.950 . S
C495 C494 1.327 . S
C495 C499 1.429 . S
C496 C479 1.574 . S
C496 H490 0.949 . S
C496 C500 1.368 . S
C497 C478 1.429 . S
C497 C491 1.429 . S
C497 C498 1.523 . S
C498 C479 1.368 . S
C498 C492 1.368 . S
C498 C497 1.523 . S
C499 C483 1.429 . S
C499 C495 1.429 . S
C499 C500 1.523 . S
C500 C484 1.368 . S
C500 C496 1.368 . S
C500 C499 1.523 . S
H501 C476 0.950 . S
H502 C478 0.950 . S
H503 C479 0.949 . S
H504 C481 0.950 . S
H505 C483 0.950 . S
C506 C507 1.349 . S
C506 C508 1.327 . S
C506 H531 0.950 . S
C507 C506 1.349 . S
C507 C523 1.349 . S
C508 C506 1.327 . S
C508 C527 1.429 . S
C508 H532 0.950 . S
C509 C526 1.574 . S
C509 C528 1.368 . S
C509 H533 0.949 . S
H510 C514 0.949 . S
C511 C512 1.349 . S
C511 C513 1.327 . S
C511 H534 0.950 . S
C512 C511 1.349 . S
C512 C524 1.349 . S
C513 C511 1.327 . S
C513 C529 1.429 . S
C513 H535 0.950 . S
C514 H510 0.949 . S
C514 C522 1.574 . S
C514 C530 1.368 . S
H515 C523 0.947 1_545 S
H516 C521 0.950 . S
H517 C522 0.949 . S
H518 C524 0.950 . S
H519 C525 0.950 . S
H520 C526 0.949 . S
C521 H516 0.950 . S
C521 C523 1.327 . S
C521 C527 1.429 . S
C522 C514 1.574 . S
C522 H517 0.949 . S
C522 C528 1.368 . S
C523 C507 1.349 . S
C523 H515 0.947 1_565 S
C523 C521 1.327 . S
C524 C512 1.349 . S
C524 H518 0.950 . S
C524 C525 1.327 . S
C525 H519 0.950 . S
C525 C524 1.327 . S
C525 C529 1.429 . S
C526 C509 1.574 . S
C526 H520 0.949 . S
C526 C530 1.368 . S
C527 C508 1.429 . S
C527 C521 1.429 . S
C527 C528 1.523 . S
C528 C509 1.368 . S
C528 C522 1.368 . S
C528 C527 1.523 . S
C529 C513 1.429 . S
C529 C525 1.429 . S
C529 C530 1.523 . S
C530 C514 1.368 . S
C530 C526 1.368 . S
C530 C529 1.523 . S
H531 C506 0.950 . S
H532 C508 0.950 . S
H533 C509 0.949 . S
H534 C511 0.950 . S
H535 C513 0.950 . S
C536 C537 1.349 . S
C536 C538 1.327 . S
C536 H561 0.950 . S
C537 C536 1.349 . S
C537 C553 1.349 . S
C538 C536 1.327 . S
C538 C557 1.429 . S
C538 H562 0.950 . S
C539 C556 1.574 . S
C539 C558 1.368 . S
C539 H563 0.949 . S
H540 C544 0.949 . S
C541 C542 1.349 . S
C541 C543 1.327 . S
C541 H564 0.950 . S
C542 C541 1.349 . S
C542 C554 1.349 . S
C543 C541 1.327 . S
C543 C559 1.429 . S
C543 H565 0.950 . S
C544 H540 0.949 . S
C544 C552 1.574 . S
C544 C560 1.368 . S
H545 C553 0.950 1_545 S
H546 C551 0.950 . S
H547 C552 0.949 . S
H548 C554 0.950 . S
H549 C555 0.950 . S
H550 C556 0.949 . S
C551 H546 0.950 . S
C551 C553 1.327 . S
C551 C557 1.429 . S
C552 C544 1.574 . S
C552 H547 0.949 . S
C552 C558 1.368 . S
C553 C537 1.349 . S
C553 H545 0.950 1_565 S
C553 C551 1.327 . S
C554 C542 1.349 . S
C554 H548 0.950 . S
C554 C555 1.327 . S
C555 H549 0.950 . S
C555 C554 1.327 . S
C555 C559 1.429 . S
C556 C539 1.574 . S
C556 H550 0.949 . S
C556 C560 1.368 . S
C557 C538 1.429 . S
C557 C551 1.429 . S
C557 C558 1.523 . S
C558 C539 1.368 . S
C558 C552 1.368 . S
C558 C557 1.523 . S
C559 C543 1.429 . S
C559 C555 1.429 . S
C559 C560 1.523 . S
C560 C544 1.368 . S
C560 C556 1.368 . S
C560 C559 1.523 . S
H561 C536 0.950 . S
H562 C538 0.950 . S
H563 C539 0.949 . S
H564 C541 0.950 . S
H565 C543 0.950 . S
C566 C567 1.349 . S
C566 C568 1.327 . S
C566 H591 0.950 . S
C567 C566 1.349 . S
C567 C583 1.349 . S
C568 C566 1.327 . S
C568 C587 1.429 . S
C568 H592 0.950 . S
C569 C586 1.574 . S
C569 C588 1.368 . S
C569 H593 0.949 . S
H570 C574 0.949 . S
C571 C572 1.349 . S
C571 C573 1.327 . S
C571 H594 0.950 . S
C572 C571 1.349 . S
C572 C584 1.349 . S
C573 C571 1.327 . S
C573 C589 1.429 . S
C573 H595 0.950 . S
C574 H570 0.949 . S
C574 C582 1.574 . S
C574 C590 1.368 . S
H575 C583 0.950 . S
H576 C581 0.950 . S
H577 C582 0.949 . S
H578 C584 0.950 . S
H579 C585 0.950 . S
H580 C586 0.949 . S
C581 H576 0.950 . S
C581 C583 1.327 . S
C581 C587 1.429 . S
C582 C574 1.574 . S
C582 H577 0.949 . S
C582 C588 1.368 . S
C583 C567 1.349 . S
C583 H575 0.950 . S
C583 C581 1.327 . S
C584 C572 1.349 . S
C584 H578 0.950 . S
C584 C585 1.327 . S
C585 H579 0.950 . S
C585 C584 1.327 . S
C585 C589 1.429 . S
C586 C569 1.574 . S
C586 H580 0.949 . S
C586 C590 1.368 . S
C587 C568 1.429 . S
C587 C581 1.429 . S
C587 C588 1.523 . S
C588 C569 1.368 . S
C588 C582 1.368 . S
C588 C587 1.523 . S
C589 C573 1.429 . S
C589 C585 1.429 . S
C589 C590 1.523 . S
C590 C574 1.368 . S
C590 C586 1.368 . S
C590 C589 1.523 . S
H591 C566 0.950 . S
H592 C568 0.950 . S
H593 C569 0.949 . S
H594 C571 0.950 . S
H595 C573 0.950 . S
C596 C597 1.349 . S
C596 C598 1.327 . S
C596 H621 0.950 1_545 S
C597 C596 1.349 . S
C597 C613 1.349 . S
C598 C596 1.327 . S
C598 C617 1.429 . S
C598 H622 0.950 . S
C599 C616 1.574 . S
C599 C618 1.368 . S
C599 H623 0.949 . S
H600 C604 0.949 . S
C601 C602 1.349 . S
C601 C603 1.327 . S
C601 H624 0.950 . S
C602 C601 1.349 . S
C602 C614 1.349 . S
C603 C601 1.327 . S
C603 C619 1.429 . S
C603 H625 0.950 . S
C604 H600 0.949 . S
C604 C612 1.574 . S
C604 C620 1.368 . S
H605 C613 0.950 . S
H606 C611 0.950 . S
H607 C612 0.949 . S
H608 C614 0.950 . S
H609 C615 0.950 . S
H610 C616 0.949 . S
C611 H606 0.950 . S
C611 C613 1.327 . S
C611 C617 1.429 . S
C612 C604 1.574 . S
C612 H607 0.949 . S
C612 C618 1.368 . S
C613 C597 1.349 . S
C613 H605 0.950 . S
C613 C611 1.327 . S
C614 C602 1.349 . S
C614 H608 0.950 . S
C614 C615 1.327 . S
C615 H609 0.950 . S
C615 C614 1.327 . S
C615 C619 1.429 . S
C616 C599 1.574 . S
C616 H610 0.949 . S
C616 C620 1.368 . S
C617 C598 1.429 . S
C617 C611 1.429 . S
C617 C618 1.523 . S
C618 C599 1.368 . S
C618 C612 1.368 . S
C618 C617 1.523 . S
C619 C603 1.429 . S
C619 C615 1.429 . S
C619 C620 1.523 . S
C620 C604 1.368 . S
C620 C616 1.368 . S
C620 C619 1.523 . S
H621 C596 0.950 1_565 S
H622 C598 0.950 . S
H623 C599 0.949 . S
H624 C601 0.950 . S
H625 C603 0.950 . S
C626 C627 1.349 . S
C626 C628 1.327 . S
C626 H651 0.950 . S
C627 C626 1.349 . S
C627 C643 1.349 . S
C628 C626 1.327 . S
C628 C647 1.429 . S
C628 H652 0.950 . S
C629 C646 1.574 . S
C629 C648 1.368 . S
C629 H653 0.949 . S
H630 C634 0.949 . S
C631 C632 1.349 . S
C631 C633 1.327 . S
C631 H654 0.950 . S
C632 C631 1.349 . S
C632 C644 1.349 . S
C633 C631 1.327 . S
C633 C649 1.429 . S
C633 H655 0.950 . S
C634 H630 0.949 . S
C634 C642 1.574 . S
C634 C650 1.368 . S
H635 C643 0.950 . S
H636 C641 0.950 . S
H637 C642 0.949 . S
H638 C644 0.950 . S
H639 C645 0.950 . S
H640 C646 0.949 . S
C641 H636 0.950 . S
C641 C643 1.327 . S
C641 C647 1.429 . S
C642 C634 1.574 . S
C642 H637 0.949 . S
C642 C648 1.368 . S
C643 C627 1.349 . S
C643 H635 0.950 . S
C643 C641 1.327 . S
C644 C632 1.349 . S
C644 H638 0.950 . S
C644 C645 1.327 . S
C645 H639 0.950 . S
C645 C644 1.327 . S
C645 C649 1.429 . S
C646 C629 1.574 . S
C646 H640 0.949 . S
C646 C650 1.368 . S
C647 C628 1.429 . S
C647 C641 1.429 . S
C647 C648 1.523 . S
C648 C629 1.368 . S
C648 C642 1.368 . S
C648 C647 1.523 . S
C649 C633 1.429 . S
C649 C645 1.429 . S
C649 C650 1.523 . S
C650 C634 1.368 . S
C650 C646 1.368 . S
C650 C649 1.523 . S
H651 C626 0.950 . S
H652 C628 0.950 . S
H653 C629 0.949 . S
H654 C631 0.950 . S
H655 C633 0.950 . S
C656 C657 1.349 . S
C656 C658 1.327 . S
C656 H681 0.950 . S
C657 C656 1.349 . S
C657 C673 1.349 . S
C658 C656 1.327 . S
C658 C677 1.429 . S
C658 H682 0.950 . S
C659 C676 1.574 . S
C659 C678 1.368 . S
C659 H683 0.949 . S
H660 C664 0.949 . S
C661 C662 1.349 . S
C661 C663 1.327 . S
C661 H684 0.950 . S
C662 C661 1.349 . S
C662 C674 1.349 . S
C663 C661 1.327 . S
C663 C679 1.429 . S
C663 H685 0.950 . S
C664 H660 0.949 . S
C664 C672 1.574 . S
C664 C680 1.368 . S
H665 C673 0.950 . S
H666 C671 0.950 . S
H667 C672 0.949 . S
H668 C674 0.950 . S
H669 C675 0.950 . S
H670 C676 0.949 . S
C671 H666 0.950 . S
C671 C673 1.327 . S
C671 C677 1.429 . S
C672 C664 1.574 . S
C672 H667 0.949 . S
C672 C678 1.368 . S
C673 C657 1.349 . S
C673 H665 0.950 . S
C673 C671 1.327 . S
C674 C662 1.349 . S
C674 H668 0.950 . S
C674 C675 1.327 . S
C675 H669 0.950 . S
C675 C674 1.327 . S
C675 C679 1.429 . S
C676 C659 1.574 . S
C676 H670 0.949 . S
C676 C680 1.368 . S
C677 C658 1.429 . S
C677 C671 1.429 . S
C677 C678 1.523 . S
C678 C659 1.368 . S
C678 C672 1.368 . S
C678 C677 1.523 . S
C679 C663 1.429 . S
C679 C675 1.429 . S
C679 C680 1.523 . S
C680 C664 1.368 . S
C680 C676 1.368 . S
C680 C679 1.523 . S
H681 C656 0.950 . S
H682 C658 0.950 . S
H683 C659 0.949 . S
H684 C661 0.950 . S
H685 C663 0.950 . S
C686 C687 1.349 . S
C686 C688 1.327 . S
C686 H711 0.950 . S
C687 C686 1.349 . S
C687 C703 1.349 . S
C688 C686 1.327 . S
C688 C707 1.429 . S
C688 H712 0.950 . S
C689 C706 1.574 . S
C689 C708 1.368 . S
C689 H713 0.949 . S
H690 C694 0.949 . S
C691 C692 1.349 . S
C691 C693 1.327 . S
C691 H714 0.950 . S
C692 C691 1.349 . S
C692 C704 1.349 . S
C693 C691 1.327 . S
C693 C709 1.429 . S
C693 H715 0.950 . S
C694 H690 0.949 . S
C694 C702 1.574 . S
C694 C710 1.368 . S
H695 C703 0.950 . S
H696 C701 0.950 . S
H697 C702 0.949 . S
H698 C704 0.950 . S
H699 C705 0.950 . S
H700 C706 0.949 . S
C701 H696 0.950 . S
C701 C703 1.327 . S
C701 C707 1.429 . S
C702 C694 1.574 . S
C702 H697 0.949 . S
C702 C708 1.368 . S
C703 C687 1.349 . S
C703 H695 0.950 . S
C703 C701 1.327 . S
C704 C692 1.349 . S
C704 H698 0.950 . S
C704 C705 1.327 . S
C705 H699 0.950 . S
C705 C704 1.327 . S
C705 C709 1.429 . S
C706 C689 1.574 . S
C706 H700 0.949 . S
C706 C710 1.368 . S
C707 C688 1.429 . S
C707 C701 1.429 . S
C707 C708 1.523 . S
C708 C689 1.368 . S
C708 C702 1.368 . S
C708 C707 1.523 . S
C709 C693 1.429 . S
C709 C705 1.429 . S
C709 C710 1.523 . S
C710 C694 1.368 . S
C710 C706 1.368 . S
C710 C709 1.523 . S
H711 C686 0.950 . S
H712 C688 0.950 . S
H713 C689 0.949 . S
H714 C691 0.950 . S
H715 C693 0.950 . S
C716 C717 1.349 . S
C716 C718 1.327 . S
C716 H741 0.950 . S
C717 C716 1.349 . S
C717 C733 1.349 . S
C718 C716 1.327 . S
C718 C737 1.429 . S
C718 H742 0.950 . S
C719 C736 1.574 . S
C719 C738 1.368 . S
C719 H743 0.949 . S
H720 C724 0.949 . S
C721 C722 1.349 . S
C721 C723 1.327 . S
C721 H744 0.950 . S
C722 C721 1.349 . S
C722 C734 1.349 . S
C723 C721 1.327 . S
C723 C739 1.429 . S
C723 H745 0.950 . S
C724 H720 0.949 . S
C724 C732 1.574 . S
C724 C740 1.368 . S
H725 C733 0.950 . S
H726 C731 0.950 . S
H727 C732 0.949 . S
H728 C734 0.950 . S
H729 C735 0.950 . S
H730 C736 0.949 . S
C731 H726 0.950 . S
C731 C733 1.327 . S
C731 C737 1.429 . S
C732 C724 1.574 . S
C732 H727 0.949 . S
C732 C738 1.368 . S
C733 C717 1.349 . S
C733 H725 0.950 . S
C733 C731 1.327 . S
C734 C722 1.349 . S
C734 H728 0.950 . S
C734 C735 1.327 . S
C735 H729 0.950 . S
C735 C734 1.327 . S
C735 C739 1.429 . S
C736 C719 1.574 . S
C736 H730 0.949 . S
C736 C740 1.368 . S
C737 C718 1.429 . S
C737 C731 1.429 . S
C737 C738 1.523 . S
C738 C719 1.368 . S
C738 C732 1.368 . S
C738 C737 1.523 . S
C739 C723 1.429 . S
C739 C735 1.429 . S
C739 C740 1.523 . S
C740 C724 1.368 . S
C740 C736 1.368 . S
C740 C739 1.523 . S
H741 C716 0.950 . S
H742 C718 0.950 . S
H743 C719 0.949 . S
H744 C721 0.950 . S
H745 C723 0.950 . S
C746 C747 1.349 . S
C746 C748 1.327 . S
C746 H771 0.950 . S
C747 C746 1.349 . S
C747 C763 1.349 . S
C748 C746 1.327 . S
C748 C767 1.429 . S
C748 H772 0.950 . S
C749 C766 1.574 . S
C749 C768 1.368 . S
C749 H773 0.949 . S
H750 C754 0.949 . S
C751 C752 1.349 . S
C751 C753 1.327 . S
C751 H774 0.950 . S
C752 C751 1.349 . S
C752 C764 1.349 . S
C753 C751 1.327 . S
C753 C769 1.429 . S
C753 H775 0.950 . S
C754 H750 0.949 . S
C754 C762 1.574 . S
C754 C770 1.368 . S
H755 C763 0.950 . S
H756 C761 0.950 . S
H757 C762 0.949 . S
H758 C764 0.950 . S
H759 C765 0.950 . S
H760 C766 0.949 . S
C761 H756 0.950 . S
C761 C763 1.327 . S
C761 C767 1.429 . S
C762 C754 1.574 . S
C762 H757 0.949 . S
C762 C768 1.368 . S
C763 C747 1.349 . S
C763 H755 0.950 . S
C763 C761 1.327 . S
C764 C752 1.349 . S
C764 H758 0.950 . S
C764 C765 1.327 . S
C765 H759 0.950 . S
C765 C764 1.327 . S
C765 C769 1.429 . S
C766 C749 1.574 . S
C766 H760 0.949 . S
C766 C770 1.368 . S
C767 C748 1.429 . S
C767 C761 1.429 . S
C767 C768 1.523 . S
C768 C749 1.368 . S
C768 C762 1.368 . S
C768 C767 1.523 . S
C769 C753 1.429 . S
C769 C765 1.429 . S
C769 C770 1.523 . S
C770 C754 1.368 . S
C770 C766 1.368 . S
C770 C769 1.523 . S
H771 C746 0.950 . S
H772 C748 0.950 . S
H773 C749 0.949 . S
H774 C751 0.950 . S
H775 C753 0.950 . S
C776 C777 1.349 . S
C776 C778 1.327 . S
C776 H801 0.950 . S
C777 C776 1.349 . S
C777 C793 1.349 . S
C778 C776 1.327 . S
C778 C797 1.429 . S
C778 H802 0.950 . S
C779 C796 1.574 . S
C779 C798 1.368 . S
C779 H803 0.949 . S
H780 C784 0.949 . S
C781 C782 1.349 . S
C781 C783 1.327 . S
C781 H804 0.950 . S
C782 C781 1.349 . S
C782 C794 1.349 . S
C783 C781 1.327 . S
C783 C799 1.429 . S
C783 H805 0.950 . S
C784 H780 0.949 . S
C784 C792 1.574 . S
C784 C800 1.368 . S
H785 C793 0.950 . S
H786 C791 0.950 . S
H787 C792 0.949 . S
H788 C794 0.950 . S
H789 C795 0.950 . S
H790 C796 0.949 . S
C791 H786 0.950 . S
C791 C793 1.327 . S
C791 C797 1.429 . S
C792 C784 1.574 . S
C792 H787 0.949 . S
C792 C798 1.368 . S
C793 C777 1.349 . S
C793 H785 0.950 . S
C793 C791 1.327 . S
C794 C782 1.349 . S
C794 H788 0.950 . S
C794 C795 1.327 . S
C795 H789 0.950 . S
C795 C794 1.327 . S
C795 C799 1.429 . S
C796 C779 1.574 . S
C796 H790 0.949 . S
C796 C800 1.368 . S
C797 C778 1.429 . S
C797 C791 1.429 . S
C797 C798 1.523 . S
C798 C779 1.368 . S
C798 C792 1.368 . S
C798 C797 1.523 . S
C799 C783 1.429 . S
C799 C795 1.429 . S
C799 C800 1.523 . S
C800 C784 1.368 . S
C800 C796 1.368 . S
C800 C799 1.523 . S
H801 C776 0.950 . S
H802 C778 0.950 . S
H803 C779 0.949 . S
H804 C781 0.950 . S
H805 C783 0.950 . S
C806 C807 1.349 . S
C806 C808 1.327 . S
C806 H831 0.950 . S
C807 C806 1.349 . S
C807 C823 1.349 . S
C808 C806 1.327 . S
C808 C827 1.429 . S
C808 H832 0.950 . S
C809 C826 1.574 . S
C809 C828 1.368 . S
C809 H833 0.949 . S
H810 C814 0.949 . S
C811 C812 1.349 . S
C811 C813 1.327 . S
C811 H834 0.950 . S
C812 C811 1.349 . S
C812 C824 1.349 . S
C813 C811 1.327 . S
C813 C829 1.429 . S
C813 H835 0.950 . S
C814 H810 0.949 . S
C814 C822 1.574 . S
C814 C830 1.368 . S
H815 C823 0.950 . S
H816 C821 0.950 . S
H817 C822 0.949 . S
H818 C824 0.950 . S
H819 C825 0.950 . S
H820 C826 0.949 . S
C821 H816 0.950 . S
C821 C823 1.327 . S
C821 C827 1.429 . S
C822 C814 1.574 . S
C822 H817 0.949 . S
C822 C828 1.368 . S
C823 C807 1.349 . S
C823 H815 0.950 . S
C823 C821 1.327 . S
C824 C812 1.349 . S
C824 H818 0.950 . S
C824 C825 1.327 . S
C825 H819 0.950 . S
C825 C824 1.327 . S
C825 C829 1.429 . S
C826 C809 1.574 . S
C826 H820 0.949 . S
C826 C830 1.368 . S
C827 C808 1.429 . S
C827 C821 1.429 . S
C827 C828 1.523 . S
C828 C809 1.368 . S
C828 C822 1.368 . S
C828 C827 1.523 . S
C829 C813 1.429 . S
C829 C825 1.429 . S
C829 C830 1.523 . S
C830 C814 1.368 . S
C830 C826 1.368 . S
C830 C829 1.523 . S
H831 C806 0.950 . S
H832 C808 0.950 . S
H833 C809 0.949 . S
H834 C811 0.950 . S
H835 C813 0.950 . S
C836 C837 1.349 . S
C836 C838 1.327 . S
C836 H861 0.950 . S
C837 C836 1.349 . S
C837 C853 1.349 . S
C838 C836 1.327 . S
C838 C857 1.429 . S
C838 H862 0.950 . S
C839 C856 1.574 . S
C839 C858 1.368 . S
C839 H863 0.949 . S
H840 C844 0.949 . S
C841 C842 1.349 . S
C841 C843 1.327 . S
C841 H864 0.950 . S
C842 C841 1.349 . S
C842 C854 1.349 . S
C843 C841 1.327 . S
C843 C859 1.429 . S
C843 H865 0.950 . S
C844 H840 0.949 . S
C844 C852 1.574 . S
C844 C860 1.368 . S
H845 C853 0.950 . S
H846 C851 0.950 . S
H847 C852 0.949 . S
H848 C854 0.950 . S
H849 C855 0.950 . S
H850 C856 0.949 . S
C851 H846 0.950 . S
C851 C853 1.327 . S
C851 C857 1.429 . S
C852 C844 1.574 . S
C852 H847 0.949 . S
C852 C858 1.368 . S
C853 C837 1.349 . S
C853 H845 0.950 . S
C853 C851 1.327 . S
C854 C842 1.349 . S
C854 H848 0.950 . S
C854 C855 1.327 . S
C855 H849 0.950 . S
C855 C854 1.327 . S
C855 C859 1.429 . S
C856 C839 1.574 . S
C856 H850 0.949 . S
C856 C860 1.368 . S
C857 C838 1.429 . S
C857 C851 1.429 . S
C857 C858 1.523 . S
C858 C839 1.368 . S
C858 C852 1.368 . S
C858 C857 1.523 . S
C859 C843 1.429 . S
C859 C855 1.429 . S
C859 C860 1.523 . S
C860 C844 1.368 . S
C860 C856 1.368 . S
C860 C859 1.523 . S
H861 C836 0.950 . S
H862 C838 0.950 . S
H863 C839 0.949 . S
H864 C841 0.950 . S
H865 C843 0.950 . S
C866 C867 1.349 . S
C866 C868 1.327 . S
C866 H891 0.950 . S
C867 C866 1.349 . S
C867 C883 1.349 . S
C868 C866 1.327 . S
C868 C887 1.429 . S
C868 H892 0.950 . S
C869 C886 1.574 . S
C869 C888 1.368 . S
C869 H893 0.949 . S
H870 C874 0.949 . S
C871 C872 1.349 . S
C871 C873 1.327 . S
C871 H894 0.950 . S
C872 C871 1.349 . S
C872 C884 1.349 . S
C873 C871 1.327 . S
C873 C889 1.429 . S
C873 H895 0.950 . S
C874 H870 0.949 . S
C874 C882 1.574 . S
C874 C890 1.368 . S
H875 C883 0.950 . S
H876 C881 0.950 . S
H877 C882 0.949 . S
H878 C884 0.950 . S
H879 C885 0.950 . S
H880 C886 0.949 . S
C881 H876 0.950 . S
C881 C883 1.327 . S
C881 C887 1.429 . S
C882 C874 1.574 . S
C882 H877 0.949 . S
C882 C888 1.368 . S
C883 C867 1.349 . S
C883 H875 0.950 . S
C883 C881 1.327 . S
C884 C872 1.349 . S
C884 H878 0.950 . S
C884 C885 1.327 . S
C885 H879 0.950 . S
C885 C884 1.327 . S
C885 C889 1.429 . S
C886 C869 1.574 . S
C886 H880 0.949 . S
C886 C890 1.368 . S
C887 C868 1.429 . S
C887 C881 1.429 . S
C887 C888 1.523 . S
C888 C869 1.368 . S
C888 C882 1.368 . S
C888 C887 1.523 . S
C889 C873 1.429 . S
C889 C885 1.429 . S
C889 C890 1.523 . S
C890 C874 1.368 . S
C890 C886 1.368 . S
C890 C889 1.523 . S
H891 C866 0.950 . S
H892 C868 0.950 . S
H893 C869 0.949 . S
H894 C871 0.950 . S
H895 C873 0.950 . S
C177 C45 1.558 . S
C182 C111 1.568 . S
C207 C30 1.558 . S
C212 C120 1.568 . S
C237 C39 1.558 . S
C242 C129 1.564 . S
C272 C138 1.568 . S
C267 C34 1.558 . S
C297 C97 1.558 . S
C302 C147 1.568 . S
C332 C156 1.568 . S
C327 C82 1.558 . S
C362 C165 1.564 . S
C357 C91 1.558 . S
C392 C174 1.568 . S
C387 C86 1.558 . S
C422 C163 1.454 . S
C417 C26 1.419 . S
C452 C171 1.455 . S
C447 C36 1.417 . S
C482 C144 1.457 . S
C477 C32 1.419 . S
C512 C153 1.455 . S
C507 C42 1.417 . S
C537 C18 1.492 . S
C542 C154 1.545 . S
C572 C162 1.538 . S
C567 C50 1.489 . S
C597 C4 1.492 . S
C602 C172 1.544 . S
C627 C48 1.490 . S
C632 C145 1.543 . S
C662 C127 1.454 . S
C657 C78 1.419 . S
C687 C88 1.417 . S
C692 C135 1.455 . S
C722 C108 1.457 . S
C717 C84 1.419 . S
C752 C117 1.455 . S
C747 C94 1.417 . S
C782 C118 1.545 . S
C777 C70 1.492 . S
C812 C126 1.538 . S
C807 C102 1.489 . S
C837 C56 1.492 . S
C842 C136 1.545 . S
C867 C100 1.490 . S
C872 C109 1.543 . S
