# Generated by pormake.
# Topology tsx, (6,3)-cn, num edge types: 1
# Building blocks:
#     Node 0, Type 0, BuildingBlock: MIDCAF_clean_sbu_0, # of connection points: 6
#     Node 1, Type 0, BuildingBlock: MIDCAF_clean_sbu_0, # of connection points: 6
#     Node 2, Type 1, BuildingBlock: VETTIZ_charged_linker_0, # of connection points: 3
#     Node 3, Type 1, BuildingBlock: VETTIZ_charged_linker_0, # of connection points: 3
#     Node 4, Type 1, BuildingBlock: VETTIZ_charged_linker_0, # of connection points: 3
#     Node 5, Type 1, BuildingBlock: VETTIZ_charged_linker_0, # of connection points: 3
#     Edge 6, Type (0, 1), BuildingBlock: CIFDUS_clean_linker_0, # of connection points: 2
#     Edge 7, Type (0, 1), BuildingBlock: CIFDUS_clean_linker_0, # of connection points: 2
#     Edge 8, Type (0, 1), BuildingBlock: CIFDUS_clean_linker_0, # of connection points: 2
#     Edge 9, Type (0, 1), BuildingBlock: CIFDUS_clean_linker_0, # of connection points: 2
#     Edge 10, Type (0, 1), BuildingBlock: CIFDUS_clean_linker_0, # of connection points: 2
#     Edge 11, Type (0, 1), BuildingBlock: CIFDUS_clean_linker_0, # of connection points: 2
#     Edge 12, Type (0, 1), BuildingBlock: CIFDUS_clean_linker_0, # of connection points: 2
#     Edge 13, Type (0, 1), BuildingBlock: CIFDUS_clean_linker_0, # of connection points: 2
#     Edge 14, Type (0, 1), BuildingBlock: CIFDUS_clean_linker_0, # of connection points: 2
#     Edge 15, Type (0, 1), BuildingBlock: CIFDUS_clean_linker_0, # of connection points: 2
#     Edge 16, Type (0, 1), BuildingBlock: CIFDUS_clean_linker_0, # of connection points: 2
#     Edge 17, Type (0, 1), BuildingBlock: CIFDUS_clean_linker_0, # of connection points: 2
# Relax obj value: 0.121
# Max RMSD: 0.183
# Mean RMSD: 0.115
data_MOF--net-tsx--node1-MIDCAF_clean_sbu_0--node2-VETTIZ_charged_linker_0--edge1-CIFDUS_clean_linker_0
_symmetry_space_group_name_H-M    P1
_symmetry_Int_Tables_number       1
_symmetry_cell_setting            triclinic
loop_
_symmetry_equiv_pos_as_xyz
'x, y, z'
_cell_length_a     20.663739
_cell_length_b     22.399011
_cell_length_c     42.948865
_cell_angle_alpha  92.668348
_cell_angle_beta   98.499708
_cell_angle_gamma 90.857418
loop_
_atom_site_label
_atom_site_type_symbol
_atom_site_fract_x
_atom_site_fract_y
_atom_site_fract_z
_atom_type_partial_charge
Zn0 Zn 0.01701 0.94813 0.9816 0.0
Zn1 Zn 0.20187 0.0055 0.04641 0.0
Zn2 Zn 0.09718 -0.00627 0.01415 0.0
C3 C 0.18182 0.10672 0.00829 0.0
C4 C 0.19912 0.89507 0.01185 0.0
O5 O 0.0198 0.95792 0.0394 0.0
O6 O 1.00667 0.87808 0.0072 0.0
C7 C 0.98772 0.07038 0.9871 0.0
O8 O 0.12375 0.08363 0.001 0.0
O9 O 0.22584 0.07844 0.02486 0.0
O10 O 0.23375 0.92399 0.03453 0.0
O11 O 0.14537 0.91654 -0.00073 0.0
O12 O 0.95724 0.02077 0.98682 0.0
O13 O 0.05084 0.06982 0.98993 0.0
O14 O 0.09381 0.03744 0.96847 0.0
O15 O 0.06975 0.9484 0.94593 0.0
C16 C 0.09074 0.0013 0.94403 0.0
O17 O 0.06713 -0.00067 0.06 0.0
O18 O 0.165 0.01987 0.08698 0.0
C19 C 0.99675 0.90431 0.03272 0.0
C20 C 0.10391 0.01301 0.08612 0.0
Zn21 Zn 0.68086 0.49287 0.54118 0.0
Zn22 Zn 0.49809 0.44569 0.47328 0.0
Zn23 Zn 0.57927 0.48473 0.50772 0.0
C24 C 0.56834 0.50433 0.43714 0.0
C25 C 0.47336 0.56736 0.48529 0.0
O26 O 0.546 0.48557 0.55311 0.0
O27 O 0.64225 0.50832 0.5811 0.0
C28 C 0.67381 0.38331 0.5046 0.0
O29 O 0.57567 0.53428 0.4638 0.0
O30 O 0.54506 0.4515 0.4356 0.0
O31 O 0.44134 0.51824 0.48293 0.0
O32 O 0.53628 0.5653 0.48725 0.0
O33 O 0.7063 0.40932 0.52888 0.0
O34 O 0.6237 0.40821 0.49038 0.0
O35 O 0.61045 0.57477 0.49596 0.0
O36 O 0.7115 0.56405 0.52021 0.0
C37 C 0.66995 0.59451 0.50345 0.0
O38 O 0.50019 0.44617 0.53092 0.0
O39 O 0.48443 0.37151 0.49533 0.0
C40 C 0.58129 0.49955 0.57962 0.0
C41 C 0.47492 0.39413 0.52178 0.0
C42 C 0.16984 0.84888 0.45043 0.0
C43 C 0.22066 0.82138 0.43693 0.0
C44 C 0.23083 0.83596 0.40645 0.0
C45 C 0.14035 0.90366 0.40312 0.0
C46 C 0.13068 0.89029 0.43321 0.0
C47 C 0.07561 0.92542 0.44399 0.0
H48 H 0.85583 0.14518 0.41468 0.0
C49 C 0.09205 0.94812 0.39147 0.0
C50 C 0.05422 0.9618 0.41535 0.0
H51 H 0.89133 0.04331 0.49818 0.0
H52 H 0.96981 0.98329 0.47451 0.0
H53 H 0.99755 0.16128 0.40355 0.0
H54 H 0.8505 0.02873 0.36611 0.0
H55 H 0.89254 0.04598 0.33497 0.0
H56 H 0.84903 0.10383 0.35328 0.0
H57 H 0.93034 0.17694 0.37375 0.0
H58 H 1.00594 0.14772 0.36377 0.0
C59 C 0.10434 0.96542 0.47324 0.0
C60 C 0.02128 0.88094 0.45002 0.0
C61 C 0.08007 0.01405 0.27943 0.0
C62 C 0.04196 0.05613 0.2623 0.0
C63 C 0.99879 0.09154 0.27714 0.0
C64 C 0.99191 0.08348 0.30865 0.0
C65 C 0.02917 0.03999 0.32539 0.0
C66 C 0.07334 0.0071 0.31093 0.0
C67 C 0.11113 0.96515 0.33274 0.0
C68 C 0.07996 0.97613 0.36229 0.0
C69 C 0.03191 0.01958 0.35773 0.0
C70 C 0.18438 0.98518 0.33769 0.0
C71 C 0.09746 0.90057 0.31851 0.0
C72 C 0.87917 0.10914 0.42775 0.0
C73 C 0.86782 0.09922 0.45852 0.0
C74 C 0.90043 0.05239 0.4747 0.0
C75 C 0.94581 0.01777 0.46093 0.0
C76 C 0.95855 0.03017 0.43059 0.0
C77 C 0.92407 0.07426 0.41433 0.0
C78 C 0.94207 0.08078 0.38212 0.0
C79 C 0.99443 0.03443 0.3819 0.0
C80 C 1.00457 0.00509 0.41039 0.0
C81 C 0.97006 0.14502 0.38038 0.0
C82 C 0.88059 0.06449 0.35765 0.0
H83 H 0.20098 0.88527 0.36634 0.0
H84 H 0.16111 0.83868 0.47389 0.0
H85 H 0.01674 0.84229 0.43254 0.0
H86 H 0.97232 0.90083 0.44731 0.0
H87 H 0.03224 0.86312 0.47389 0.0
H88 H 0.15201 0.98596 0.46986 0.0
H89 H 0.11296 0.93882 0.4946 0.0
H90 H 0.07307 0.00327 0.47787 0.0
H91 H 0.11452 0.98721 0.26848 0.0
H92 H 0.96947 0.12444 0.26413 0.0
H93 H 0.95758 0.11116 0.31865 0.0
H94 H 0.19056 0.03313 0.3328 0.0
H95 H 0.21235 0.95876 0.32189 0.0
H96 H 0.20806 0.98188 0.36241 0.0
H97 H 0.04465 0.89378 0.309 0.0
H98 H 0.10857 0.86614 0.33595 0.0
H99 H 0.12586 0.89138 0.29884 0.0
H100 H 0.26885 0.81462 0.39534 0.0
C101 C 0.19103 0.87676 0.38952 0.0
C102 C 0.16776 0.14541 0.57007 0.0
C103 C 0.21404 0.18607 0.58728 0.0
C104 C 0.21393 0.19573 0.61991 0.0
C105 C 0.12441 0.12423 0.61796 0.0
C106 C 0.12342 0.11508 0.58589 0.0
C107 C 0.07094 0.07011 0.57161 0.0
H108 H 0.81374 0.89092 0.59327 0.0
C109 C 0.07305 0.08584 0.62749 0.0
C110 C 0.04004 0.05492 0.6004 0.0
H111 H 0.88683 0.91862 0.50572 0.0
H112 H 0.97248 0.9851 0.53342 0.0
H113 H 0.94561 0.87078 0.63021 0.0
H114 H 0.83168 0.02954 0.62389 0.0
H115 H 0.86144 0.01962 0.66397 0.0
H116 H 0.80956 0.9626 0.64165 0.0
H117 H 0.88469 0.8844 0.65519 0.0
H118 H 0.96847 0.91024 0.66646 0.0
C119 C 0.10494 0.0156 0.55835 0.0
C120 C 0.02273 0.10086 0.54665 0.0
C121 C 0.06455 0.0666 0.74388 0.0
C122 C 0.02835 0.02829 0.75998 0.0
C123 C 0.97538 -0.00546 0.7431 0.0
C124 C 0.96082 -0.00357 0.71029 0.0
C125 C 1.00033 0.03172 0.69414 0.0
C126 C 0.05021 0.06706 0.71098 0.0
C127 C 0.08898 0.09943 0.68981 0.0
C128 C 0.05592 0.07565 0.65757 0.0
C129 C 1.00389 0.03639 0.66024 0.0
C130 C 0.16114 0.07969 0.69693 0.0
C131 C 0.07896 0.16751 0.695 0.0
C132 C 0.8468 0.91268 0.57977 0.0
C133 C 0.84214 0.90079 0.54708 0.0
C134 C 0.88873 0.92757 0.53084 0.0
C135 C 0.93829 0.96623 0.54693 0.0
C136 C 0.9415 0.97819 0.57958 0.0
C137 C 0.89656 0.95081 0.59542 0.0
C138 C 0.91026 0.964 0.6304 0.0
C139 C 0.96874 0.0065 0.63289 0.0
C140 C 0.98697 0.01506 0.60309 0.0
C141 C 0.92781 0.90454 0.64661 0.0
C142 C 0.85012 -0.00468 0.64079 0.0
H143 H 0.17222 0.17474 0.66009 0.0
H144 H 0.16589 0.13753 0.54488 0.0
H145 H 0.01664 0.14858 0.55382 0.0
H146 H 0.97312 0.0807 0.54382 0.0
H147 H 0.0403 0.09938 0.5234 0.0
H148 H 0.14662 0.00188 0.57582 0.0
H149 H 0.12472 0.0267 0.53661 0.0
H150 H 0.0724 0.97582 0.55316 0.0
H151 H 0.10589 0.09246 0.75637 0.0
H152 H 0.94666 0.96505 0.75528 0.0
H153 H 0.92076 0.96882 0.6987 0.0
H154 H 0.16351 0.0312 0.70145 0.0
H155 H 0.18749 0.1046 0.71813 0.0
H156 H 0.18887 0.08505 0.67715 0.0
H157 H 0.03143 0.17667 0.70335 0.0
H158 H 0.07655 0.19157 0.67293 0.0
H159 H 0.11826 0.18811 0.71287 0.0
H160 H 0.24952 0.22586 0.63388 0.0
C161 C 0.16922 0.16549 0.63522 0.0
C162 C 0.68236 0.35006 0.94903 0.0
C163 C 0.72866 0.31851 0.93409 0.0
C164 C 0.73265 0.328 0.90224 0.0
C165 C 0.64476 0.39852 0.90038 0.0
C166 C 0.64144 0.39033 0.93183 0.0
C167 C 0.59079 0.42938 0.94398 0.0
H168 H 0.37273 0.65122 0.91629 0.0
C169 C 0.59587 0.44288 0.88908 0.0
C170 C 0.56443 0.46186 0.91454 0.0
H171 H 0.4244 0.5611 0.00292 0.0
H172 H 0.4962 0.49616 0.97755 0.0
H173 H 0.50907 0.66057 0.8971 0.0
H174 H 0.35557 0.52781 0.87219 0.0
H175 H 0.38968 0.53911 0.83783 0.0
H176 H 0.35197 0.60063 0.85639 0.0
H177 H 0.4374 0.6734 0.86935 0.0
H178 H 0.50917 0.64005 0.85717 0.0
C179 C 0.62624 0.47258 0.97048 0.0
C180 C 0.53782 0.38858 0.95461 0.0
C181 C 0.56314 0.49384 0.77381 0.0
C182 C 0.52435 0.53587 0.7569 0.0
C183 C 0.48456 0.57354 0.77263 0.0
C184 C 0.48251 0.56865 0.80485 0.0
C185 C 0.52134 0.52615 0.82155 0.0
C186 C 0.56141 0.49019 0.8061 0.0
C187 C 0.60221 0.45026 0.82801 0.0
C188 C 0.57798 0.46648 0.85897 0.0
C189 C 0.53051 0.51058 0.85491 0.0
C190 C 0.67538 0.46815 0.82886 0.0
C191 C 0.58474 0.38456 0.81669 0.0
C192 C 0.39823 0.61674 0.92978 0.0
C193 C 0.39376 0.61191 0.96186 0.0
C194 C 0.42866 0.56671 0.97844 0.0
C195 C 0.46984 0.52895 0.96367 0.0
C196 C 0.47558 0.53603 0.93187 0.0
C197 C 0.43876 0.57843 0.91535 0.0
C198 C 0.44926 0.57898 0.88158 0.0
C199 C 0.49967 0.53087 0.88064 0.0
C200 C 0.5156 0.50606 0.91019 0.0
C201 C 0.47724 0.64145 0.87567 0.0
C202 C 0.3834 0.56117 0.86068 0.0
H203 H 0.69603 0.37211 0.86109 0.0
H204 H 0.6785 0.34385 0.97356 0.0
H205 H 0.52925 0.34719 0.93909 0.0
H206 H 0.4896 0.40979 0.95295 0.0
H207 H 0.55276 0.37494 0.97913 0.0
H208 H 0.67325 0.48946 0.96412 0.0
H209 H 0.63759 0.44967 -0.00702 0.0
H210 H 0.59816 0.51288 0.97467 0.0
H211 H 0.59532 0.46542 0.76226 0.0
H212 H 0.4548 0.60648 0.75988 0.0
H213 H 0.45103 0.59843 0.81552 0.0
H214 H 0.68134 0.51504 0.82209 0.0
H215 H 0.69889 0.43891 0.81239 0.0
H216 H 0.70372 0.46706 0.85281 0.0
H217 H 0.53085 0.37822 0.81015 0.0
H218 H 0.59933 0.35241 0.83499 0.0
H219 H 0.60774 0.37185 0.79561 0.0
H220 H 0.76726 0.30365 0.89014 0.0
C221 C 0.69093 0.36755 0.88533 0.0
C222 C 0.69564 0.65701 0.08131 0.0
C223 C 0.73722 0.69953 0.09993 0.0
C224 C 0.72711 0.71305 0.13118 0.0
C225 C 0.63678 0.6413 0.12517 0.0
C226 C 0.64587 0.6286 0.09437 0.0
C227 C 0.59726 0.5823 0.07801 0.0
H228 H 0.34089 0.39305 0.08467 0.0
C229 C 0.58157 0.6038 0.13172 0.0
C230 C 0.55725 0.56984 0.10409 0.0
H231 H 0.44336 0.42059 0.00566 0.0
H232 H 0.51261 0.49666 0.03643 0.0
H233 H 0.46543 0.39099 0.13383 0.0
H234 H 0.33762 0.53743 0.10975 0.0
H235 H 0.35467 0.53564 0.15115 0.0
H236 H 0.31305 0.47276 0.12868 0.0
H237 H 0.38738 0.39673 0.14719 0.0
H238 H 0.46015 0.43252 0.16894 0.0
C239 C 0.63561 0.52679 0.06897 0.0
C240 C 0.55583 0.61064 0.04966 0.0
C241 C 0.53003 0.60296 0.24329 0.0
C242 C 0.48585 0.56947 0.2577 0.0
C243 C 0.43915 0.53175 0.23861 0.0
C244 C 0.43836 0.52575 0.20588 0.0
C245 C 0.48499 0.55748 0.19206 0.0
C246 C 0.52895 0.5961 0.21069 0.0
C247 C 0.57568 0.62552 0.19226 0.0
C248 C 0.55393 0.59683 0.15964 0.0
C249 C 0.50074 0.5571 0.15954 0.0
C250 C 0.64608 0.60776 0.20604 0.0
C251 C 0.56361 0.69374 0.19341 0.0
C252 C 0.37698 0.41669 0.0737 0.0
C253 C 0.38616 0.40137 0.04252 0.0
C254 C 0.43534 0.43173 0.02956 0.0
C255 C 0.47558 0.47565 0.04749 0.0
C256 C 0.4669 0.48935 0.07884 0.0
C257 C 0.41799 0.46031 0.09141 0.0
C258 C 0.41854 0.47811 0.1257 0.0
C259 C 0.47489 0.52352 0.13141 0.0
C260 C 0.50305 0.52988 0.10385 0.0
C261 C 0.43315 0.42192 0.14513 0.0
C262 C 0.35247 0.50726 0.1293 0.0
H263 H 0.67234 0.69647 0.16781 0.0
H264 H 0.70136 0.64633 0.05703 0.0
H265 H 0.55118 0.65963 0.05404 0.0
H266 H 0.50504 0.5929 0.0455 0.0
H267 H 0.57798 0.6037 0.02776 0.0
H268 H 0.67619 0.51781 0.08814 0.0
H269 H 0.65746 0.5337 0.04724 0.0
H270 H 0.60534 0.48535 0.06553 0.0
H271 H 0.56585 0.63299 0.25719 0.0
H272 H 0.40475 0.50505 0.2491 0.0
H273 H 0.40253 0.49553 0.19272 0.0
H274 H 0.64683 0.56052 0.21303 0.0
H275 H 0.6653 0.63635 0.22732 0.0
H276 H 0.68099 0.60978 0.189 0.0
H277 H 0.51191 0.70335 0.19596 0.0
H278 H 0.57118 0.71475 0.17138 0.0
H279 H 0.59531 0.71697 0.21363 0.0
H280 H 0.75877 0.74508 0.14612 0.0
C281 C 0.67706 0.68441 0.14382 0.0
H282 H 0.29136 0.14586 0.98844 0.0
H283 H 0.11033 0.20608 0.01608 0.0
H284 H 0.15612 0.30799 0.02581 0.0
H285 H 0.2551 0.3741 0.03635 0.0
H286 H 0.43658 0.31101 0.00982 0.0
H287 H 0.38326 0.21652 0.98949 0.0
C288 C 0.26118 0.18192 -0.00461 0.0
C289 C 0.19787 0.16874 0.00172 0.0
C290 C 0.28861 0.23959 0.00191 0.0
C291 C 0.15898 0.21544 0.01073 0.0
C292 C 0.18563 0.27346 0.01684 0.0
C293 C 0.28252 0.33996 0.0256 0.0
C294 C 0.34997 0.34924 0.02507 0.0
C295 C 0.25157 0.2852 0.01415 0.0
C296 C 0.3847 0.30513 0.01056 0.0
C297 C 0.35432 0.25086 -0.00095 0.0
H298 H 0.30049 0.83097 0.03902 0.0
H299 H 0.14837 0.82886 0.95838 0.0
H300 H 0.19106 0.7365 0.93746 0.0
H301 H 0.27631 0.6607 0.94034 0.0
H302 H 0.4308 0.66652 0.02 0.0
H303 H 0.38104 0.75188 0.04357 0.0
C304 C 0.27643 0.81026 0.01691 0.0
C305 C 0.2219 0.83722 6e-05 0.0
C306 C 0.30134 0.75752 0.00499 0.0
C307 C 0.19072 0.80925 0.97171 0.0
C308 C 0.2151 0.75646 0.95974 0.0
C309 C 0.29893 0.68052 0.96292 0.0
C310 C 0.35756 0.65741 0.97824 0.0
C311 C 0.27111 0.73086 0.9759 0.0
C312 C 0.3854 0.68279 0.00783 0.0
C313 C 0.35737 0.73216 0.02117 0.0
H314 H 0.9698 0.78645 0.03254 0.0
H315 H 0.92501 0.95612 0.07515 0.0
H316 H 0.84194 0.90698 0.10097 0.0
H317 H 0.77631 0.81685 0.10768 0.0
H318 H 0.8207 0.64819 0.0636 0.0
H319 H 0.90873 0.69638 0.0413 0.0
C320 C 0.94229 0.81267 0.04772 0.0
C321 C 0.95356 0.87475 0.05203 0.0
C322 C 0.89375 0.7845 0.06166 0.0
C323 C 0.91769 0.90813 0.07179 0.0
C324 C 0.86983 0.88014 0.08628 0.0
C325 C 0.8058 0.79052 0.09352 0.0
C326 C 0.79157 0.72908 0.08708 0.0
C327 C 0.85657 0.81851 0.08084 0.0
C328 C 0.82976 0.69573 0.0684 0.0
C329 C 0.88045 0.72313 0.05586 0.0
H330 H 0.86195 0.09165 -0.00583 0.0
H331 H 0.03119 0.17247 0.96366 0.0
H332 H 0.96684 0.25901 0.94662 0.0
H333 H 0.86013 0.30793 0.93672 0.0
H334 H 0.69164 0.22781 0.96815 0.0
H335 H 0.75821 0.14516 0.98901 0.0
C336 C 0.88483 0.12842 0.98397 0.0
C337 C 0.95095 0.12533 0.97974 0.0
C338 C 0.84765 0.1781 0.97443 0.0
C339 C 0.98031 0.17368 0.96703 0.0
C340 C 0.94348 0.22309 0.9572 0.0
C341 C 0.83829 0.27259 0.94843 0.0
C342 C 0.77103 0.27355 0.95069 0.0
C343 C 0.87681 0.22521 0.96023 0.0
C344 C 0.74335 0.2281 0.96628 0.0
C345 C 0.78127 0.18066 0.97797 0.0
H346 H 0.62242 0.70192 0.51885 0.0
H347 H 0.77044 0.61831 0.47212 0.0
H348 H 0.83375 0.71214 0.47676 0.0
H349 H 0.85787 0.81018 0.50441 0.0
H350 H 0.71315 0.89204 0.55433 0.0
H351 H 0.63787 0.8074 0.5382 0.0
C352 C 0.667 0.70527 0.50842 0.0
C353 C 0.6918 0.65369 0.49506 0.0
C354 C 0.70485 0.75867 0.51272 0.0
C355 C 0.75035 0.65784 0.48226 0.0
C356 C 0.78697 0.71126 0.48531 0.0
C357 C 0.80911 0.81043 0.51091 0.0
C358 C 0.79176 0.85678 0.53112 0.0
C359 C 0.7665 0.76093 0.50209 0.0
C360 C 0.72832 0.85621 0.53939 0.0
C361 C 0.68514 0.80785 0.53012 0.0
H362 H 0.76427 0.31235 0.53513 0.0
H363 H 0.6299 0.32227 0.44851 0.0
H364 H 0.672 0.22897 0.42828 0.0
H365 H 0.754 0.1503 0.43348 0.0
H366 H 0.89212 0.14531 0.51912 0.0
H367 H 0.83957 0.22958 0.54198 0.0
C368 C 0.74389 0.29406 0.51186 0.0
C369 C 0.69495 0.32474 0.49309 0.0
C370 C 0.76857 0.24097 0.50035 0.0
C371 C 0.66815 0.29979 0.46327 0.0
C372 C 0.69214 0.24648 0.45172 0.0
C373 C 0.77233 0.16744 0.45723 0.0
C374 C 0.8276 0.14193 0.47438 0.0
C375 C 0.74345 0.21753 0.46978 0.0
C376 C 0.84956 0.1636 0.50543 0.0
C377 C 0.82002 0.21241 0.5184 0.0
H378 H 0.43522 0.27836 0.51364 0.0
H379 H 0.41086 0.4405 0.56859 0.0
H380 H 0.32752 0.39029 0.59366 0.0
H381 H 0.25807 0.30172 0.59785 0.0
H382 H 0.28258 0.14017 0.54229 0.0
H383 H 0.3678 0.18975 0.51855 0.0
C384 C 0.41203 0.3027 0.53127 0.0
C385 C 0.42972 0.36291 0.53952 0.0
C386 C 0.36324 0.27406 0.54491 0.0
C387 C 0.39903 0.39381 0.56229 0.0
C388 C 0.35088 0.36531 0.57635 0.0
C389 C 0.28245 0.27713 0.58076 0.0
C390 C 0.26381 0.21724 0.57185 0.0
C391 C 0.33211 0.30564 0.56754 0.0
C392 C 0.29512 0.1865 0.54922 0.0
C393 C 0.34435 0.21463 0.53587 0.0
H394 H 0.3472 0.58784 0.49147 0.0
H395 H 0.52095 0.67341 0.46801 0.0
H396 H 0.4588 0.76277 0.45386 0.0
H397 H 0.35285 0.81254 0.44359 0.0
H398 H 0.17921 0.72617 0.46655 0.0
H399 H 0.24382 0.64148 0.48611 0.0
C400 C 0.37157 0.62627 0.48351 0.0
C401 C 0.43826 0.62381 0.48034 0.0
C402 C 0.33556 0.67723 0.47534 0.0
C403 C 0.46956 0.67419 0.47052 0.0
C404 C 0.43401 0.72517 0.46233 0.0
C405 C 0.32939 0.77536 0.45317 0.0
C406 C 0.26133 0.77517 0.45334 0.0
C407 C 0.36668 0.72658 0.46395 0.0
C408 C 0.23156 0.72738 0.46631 0.0
C409 C 0.26837 0.67877 0.47723 0.0
H410 H 0.1123 0.10602 0.12851 0.0
H411 H 0.03983 0.92465 0.11031 0.0
H412 H 1.00809 0.92375 0.16298 0.0
H413 H 1.01171 0.97156 0.21591 0.0
H414 H 0.08396 0.15302 0.23449 0.0
H415 H 0.10528 0.15757 0.17992 0.0
C416 C 0.08842 0.06689 0.13606 0.0
C417 C 0.07705 0.01579 0.11576 0.0
C418 C 0.07125 0.06669 0.16643 0.0
C419 C 0.04687 0.96491 0.12546 0.0
C420 C 0.02968 0.96419 0.15563 0.0
C421 C 0.03129 0.01221 0.20771 0.0
C422 C 0.04693 0.06173 0.22881 0.0
C423 C 0.04304 0.01435 0.17652 0.0
C424 C 0.07174 0.11455 0.21833 0.0
C425 C 0.0841 0.11699 0.18731 0.0
H426 H 0.10816 0.93104 0.89407 0.0
H427 H 0.0867 0.11582 0.9228 0.0
H428 H 0.07042 0.14225 0.86732 0.0
H429 H 0.04803 0.10939 0.81034 0.0
H430 H 0.06032 0.9222 0.78388 0.0
H431 H 0.09346 0.89975 0.83884 0.0
C432 C 0.10082 0.97736 0.88829 0.0
C433 C 0.09753 0.02129 0.91239 0.0
C434 C 0.08842 -0.00861 0.85669 0.0
C435 C 0.08924 0.08119 0.9046 0.0
C436 C 0.0792 0.09611 0.87289 0.0
C437 C 0.05845 0.06392 0.81681 0.0
C438 C 0.05071 0.0172 0.79339 0.0
C439 C 0.07621 0.05112 0.8487 0.0
C440 C 0.06469 0.95847 0.80172 0.0
C441 C 0.08404 0.94572 0.83304 0.0
H442 H 0.58415 0.59188 0.62196 0.0
H443 H 0.521 0.40796 0.60347 0.0
H444 H 0.49251 0.4039 0.65673 0.0
H445 H 0.49706 0.45017 0.71028 0.0
H446 H 0.55918 0.63457 0.72856 0.0
H447 H 0.57671 0.64152 0.67365 0.0
C448 C 0.56273 0.5515 0.62954 0.0
C449 C 0.55346 0.50055 0.60904 0.0
C450 C 0.54737 0.54951 0.66018 0.0
C451 C 0.52659 0.44804 0.61881 0.0
C452 C 0.51125 0.44555 0.64932 0.0
C453 C 0.51367 0.49192 0.70197 0.0
C454 C 0.52753 0.54165 0.72315 0.0
C455 C 0.52307 0.49557 0.67045 0.0
C456 C 0.54834 0.59587 0.71242 0.0
C457 C 0.55852 0.59974 0.68117 0.0
H458 H 0.46217 0.53925 0.40048 0.0
H459 H 0.67174 0.5315 0.4072 0.0
H460 H 0.66482 0.55752 0.35183 0.0
H461 H 0.59737 0.5683 0.30021 0.0
H462 H 0.38694 0.57217 0.29354 0.0
H463 H 0.39564 0.56135 0.35033 0.0
C464 C 0.5063 0.54499 0.3899 0.0
C465 C 0.56736 0.53407 0.40748 0.0
C466 C 0.5015 0.55792 0.35807 0.0
C467 C 0.62445 0.54058 0.39391 0.0
C468 C 0.6203 0.55478 0.36228 0.0
C469 C 0.55346 0.56822 0.31127 0.0
C470 C 0.49147 0.57039 0.2926 0.0
C471 C 0.55885 0.56148 0.34388 0.0
C472 C 0.43509 0.56945 0.30728 0.0
C473 C 0.44005 0.56358 0.33975 0.0
loop_
_geom_bond_atom_site_label_1
_geom_bond_atom_site_label_2
_geom_bond_distance
_geom_bond_site_symmetry_2
_ccdc_geom_bond_type
Zn0 O6 1.919 1_546 S
Zn0 O12 1.898 . S
Zn0 O15 1.905 1_545 S
Zn1 O9 1.905 . S
Zn1 O10 1.898 1_545 S
Zn1 O18 1.920 1_545 S
Zn2 O5 2.080 1_445 S
Zn2 O8 2.114 . S
Zn2 O11 2.120 1_545 S
Zn2 O13 2.120 1_455 S
Zn2 O14 2.114 1_554 S
Zn2 O17 2.080 . S
C3 O8 1.166 . S
C3 O9 1.182 . S
C4 O10 1.167 . S
C4 O11 1.299 . S
O5 Zn2 2.080 1_665 S
O5 C19 1.305 . S
O6 Zn0 1.919 1_564 S
O6 C19 1.235 . S
C7 O12 1.190 . S
C7 O13 1.279 1_556 S
O8 Zn2 2.114 . S
O8 C3 1.166 . S
O9 Zn1 1.905 . S
O9 C3 1.182 . S
O10 Zn1 1.898 1_565 S
O10 C4 1.167 . S
O11 Zn2 2.120 1_565 S
O11 C4 1.299 . S
O12 Zn0 1.898 . S
O12 C7 1.190 . S
O13 Zn2 2.120 1_655 S
O13 C7 1.279 1_554 S
O14 Zn2 2.114 1_556 S
O14 C16 1.166 1_545 S
O15 Zn0 1.905 1_565 S
O15 C16 1.182 1_655 S
C16 O14 1.166 1_565 S
C16 O15 1.182 1_455 S
O17 Zn2 2.080 . S
O17 C20 1.305 1_545 S
O18 Zn1 1.920 1_565 S
O18 C20 1.234 . S
C19 O5 1.305 . S
C19 O6 1.235 . S
C20 O17 1.305 1_565 S
C20 O18 1.234 . S
Zn21 O27 1.920 . S
Zn21 O33 1.898 . S
Zn21 O36 1.905 . S
Zn22 O30 1.905 . S
Zn22 O31 1.898 . S
Zn22 O39 1.920 . S
Zn23 O26 2.080 . S
Zn23 O29 2.114 . S
Zn23 O32 2.120 . S
Zn23 O34 2.120 . S
Zn23 O35 2.114 . S
Zn23 O38 2.080 . S
C24 O29 1.166 . S
C24 O30 1.182 . S
C25 O31 1.167 . S
C25 O32 1.299 . S
O26 Zn23 2.080 . S
O26 C40 1.305 . S
O27 Zn21 1.920 . S
O27 C40 1.234 . S
C28 O33 1.167 . S
C28 O34 1.299 . S
O29 Zn23 2.114 . S
O29 C24 1.166 . S
O30 Zn22 1.905 . S
O30 C24 1.182 . S
O31 Zn22 1.898 . S
O31 C25 1.167 . S
O32 Zn23 2.120 . S
O32 C25 1.299 . S
O33 Zn21 1.898 . S
O33 C28 1.167 . S
O34 Zn23 2.120 . S
O34 C28 1.299 . S
O35 Zn23 2.114 . S
O35 C37 1.166 . S
O36 Zn21 1.905 . S
O36 C37 1.182 . S
C37 O35 1.166 . S
C37 O36 1.182 . S
O38 Zn23 2.080 . S
O38 C41 1.305 . S
O39 Zn22 1.920 . S
O39 C41 1.234 . S
C40 O26 1.305 . S
C40 O27 1.234 . S
C41 O38 1.305 . S
C41 O39 1.234 . S
C42 C43 1.391 . S
C42 C46 1.391 . S
C42 H84 0.948 . S
C43 C42 1.391 . S
C43 C44 1.391 . S
C44 C43 1.391 . S
C44 H100 0.947 . S
C44 C101 1.392 . S
C45 C46 1.391 . S
C45 C49 1.397 . S
C45 C101 1.419 . S
C46 C42 1.391 . S
C46 C45 1.391 . S
C46 C47 1.399 . S
C47 C46 1.399 . S
C47 C50 1.396 1_565 S
C47 C59 1.453 1_565 S
C47 C60 1.684 . S
H48 C72 0.948 . S
C49 C45 1.397 . S
C49 C50 1.394 1_565 S
C49 C68 1.726 . S
C50 C47 1.396 1_545 S
C50 C49 1.394 1_545 S
C50 C80 1.723 . S
H51 C74 0.947 . S
H52 C75 0.948 1_455 S
H53 C81 0.982 1_455 S
H54 C82 0.979 . S
H55 C82 0.980 . S
H56 C82 0.983 . S
H57 C81 0.979 . S
H58 C81 0.977 . S
C59 C47 1.453 1_545 S
C59 H88 0.982 . S
C59 H89 0.979 . S
C59 H90 0.977 . S
C60 C47 1.684 . S
C60 H85 0.979 . S
C60 H86 0.980 1_565 S
C60 H87 0.983 . S
C61 C62 1.396 . S
C61 C66 1.391 . S
C61 H91 0.943 1_545 S
C62 C61 1.396 . S
C62 C63 1.391 . S
C63 C62 1.391 . S
C63 C64 1.392 . S
C63 H92 0.947 1_455 S
C64 C63 1.392 . S
C64 C65 1.419 . S
C64 H93 0.948 1_455 S
C65 C64 1.419 . S
C65 C66 1.391 . S
C65 C69 1.397 . S
C66 C61 1.391 . S
C66 C65 1.391 . S
C66 C67 1.399 1_545 S
C67 C66 1.399 1_565 S
C67 C68 1.405 . S
C67 C70 1.453 . S
C67 C71 1.684 . S
C68 C49 1.726 . S
C68 C67 1.405 . S
C68 C69 1.382 1_565 S
C69 C65 1.397 . S
C69 C68 1.382 1_545 S
C69 C79 1.723 . S
C70 C67 1.453 . S
C70 H94 0.982 1_565 S
C70 H95 0.979 . S
C70 H96 0.977 . S
C71 C67 1.684 . S
C71 H97 0.979 . S
C71 H98 0.980 . S
C71 H99 0.983 . S
C72 H48 0.948 . S
C72 C73 1.391 . S
C72 C77 1.391 . S
C73 C72 1.391 . S
C73 C74 1.391 . S
C74 H51 0.947 . S
C74 C73 1.391 . S
C74 C75 1.392 . S
C75 H52 0.948 1_655 S
C75 C74 1.392 . S
C75 C76 1.422 . S
C76 C75 1.422 . S
C76 C77 1.403 . S
C76 C80 1.385 1_655 S
C77 C72 1.391 . S
C77 C76 1.403 . S
C77 C78 1.399 . S
C78 C77 1.399 . S
C78 C79 1.396 1_655 S
C78 C81 1.453 . S
C78 C82 1.684 . S
C79 C69 1.723 . S
C79 C78 1.396 1_455 S
C79 C80 1.394 . S
C80 C50 1.723 . S
C80 C76 1.385 1_455 S
C80 C79 1.394 . S
C81 H53 0.982 1_655 S
C81 H57 0.979 . S
C81 H58 0.977 . S
C81 C78 1.453 . S
C82 H54 0.979 . S
C82 H55 0.980 . S
C82 H56 0.983 . S
C82 C78 1.684 . S
H83 C101 0.948 . S
H84 C42 0.948 . S
H85 C60 0.979 . S
H86 C60 0.980 1_545 S
H87 C60 0.983 . S
H88 C59 0.982 . S
H89 C59 0.979 . S
H90 C59 0.977 . S
H91 C61 0.943 1_565 S
H92 C63 0.947 1_655 S
H93 C64 0.948 1_655 S
H94 C70 0.982 1_545 S
H95 C70 0.979 . S
H96 C70 0.977 . S
H97 C71 0.979 . S
H98 C71 0.980 . S
H99 C71 0.983 . S
H100 C44 0.947 . S
C101 C44 1.392 . S
C101 C45 1.419 . S
C101 H83 0.948 . S
C102 C103 1.391 . S
C102 C106 1.391 . S
C102 H144 0.948 . S
C103 C102 1.391 . S
C103 C104 1.391 . S
C104 C103 1.391 . S
C104 H160 0.947 . S
C104 C161 1.392 . S
C105 C106 1.391 . S
C105 C109 1.397 . S
C105 C161 1.419 . S
C106 C102 1.391 . S
C106 C105 1.391 . S
C106 C107 1.399 . S
C107 C106 1.399 . S
C107 C110 1.396 . S
C107 C119 1.453 . S
C107 C120 1.684 1_455 S
H108 C132 0.948 . S
C109 C105 1.397 . S
C109 C110 1.394 . S
C109 C128 1.723 . S
C110 C107 1.396 . S
C110 C109 1.394 . S
C110 C140 1.723 1_445 S
H111 C134 0.947 . S
H112 C135 0.948 . S
H113 C141 0.982 . S
H114 C142 0.979 . S
H115 C142 0.980 . S
H116 C142 0.983 . S
H117 C141 0.979 . S
H118 C141 0.977 . S
C119 C107 1.453 . S
C119 H148 0.982 1_545 S
C119 H149 0.979 . S
C119 H150 0.977 1_545 S
C120 C107 1.684 1_655 S
C120 H145 0.979 . S
C120 H146 0.980 . S
C120 H147 0.983 1_655 S
C121 C122 1.391 1_455 S
C121 C126 1.391 . S
C121 H151 0.948 . S
C122 C121 1.391 1_655 S
C122 C123 1.391 1_545 S
C123 C122 1.391 1_565 S
C123 C124 1.392 . S
C123 H152 0.947 . S
C124 C123 1.392 . S
C124 C125 1.419 1_565 S
C124 H153 0.948 . S
C125 C124 1.419 1_545 S
C125 C126 1.391 1_655 S
C125 C129 1.397 . S
C126 C121 1.391 . S
C126 C125 1.391 1_455 S
C126 C127 1.399 . S
C127 C126 1.399 . S
C127 C128 1.396 . S
C127 C130 1.453 . S
C127 C131 1.684 . S
C128 C109 1.723 . S
C128 C127 1.396 . S
C128 C129 1.394 1_455 S
C129 C125 1.397 . S
C129 C128 1.394 1_655 S
C129 C139 1.723 1_545 S
C130 C127 1.453 . S
C130 H154 0.982 . S
C130 H155 0.979 . S
C130 H156 0.977 . S
C131 C127 1.684 . S
C131 H157 0.979 . S
C131 H158 0.980 . S
C131 H159 0.983 . S
C132 H108 0.948 . S
C132 C133 1.391 . S
C132 C137 1.391 . S
C133 C132 1.391 . S
C133 C134 1.391 . S
C134 H111 0.947 . S
C134 C133 1.391 . S
C134 C135 1.392 . S
C135 H112 0.948 . S
C135 C134 1.392 . S
C135 C136 1.419 . S
C136 C135 1.419 . S
C136 C137 1.391 . S
C136 C140 1.397 . S
C137 C132 1.391 . S
C137 C136 1.391 . S
C137 C138 1.399 . S
C138 C137 1.399 . S
C138 C139 1.396 . S
C138 C141 1.453 . S
C138 C142 1.684 . S
C139 C129 1.723 1_565 S
C139 C138 1.396 . S
C139 C140 1.394 . S
C140 C110 1.723 1_665 S
C140 C136 1.397 . S
C140 C139 1.394 . S
C141 H113 0.982 . S
C141 H117 0.979 . S
C141 H118 0.977 . S
C141 C138 1.453 . S
C142 H114 0.979 . S
C142 H115 0.980 . S
C142 H116 0.983 . S
C142 C138 1.684 . S
H143 C161 0.948 . S
H144 C102 0.948 . S
H145 C120 0.979 . S
H146 C120 0.980 . S
H147 C120 0.983 1_455 S
H148 C119 0.982 1_565 S
H149 C119 0.979 . S
H150 C119 0.977 1_565 S
H151 C121 0.948 . S
H152 C123 0.947 . S
H153 C124 0.948 . S
H154 C130 0.982 . S
H155 C130 0.979 . S
H156 C130 0.977 . S
H157 C131 0.979 . S
H158 C131 0.980 . S
H159 C131 0.983 . S
H160 C104 0.947 . S
C161 C104 1.392 . S
C161 C105 1.419 . S
C161 H143 0.948 . S
C162 C163 1.391 . S
C162 C166 1.391 . S
C162 H204 0.948 1_556 S
C163 C162 1.391 . S
C163 C164 1.391 . S
C164 C163 1.391 . S
C164 H220 0.947 . S
C164 C221 1.392 . S
C165 C166 1.391 . S
C165 C169 1.397 . S
C165 C221 1.419 . S
C166 C162 1.391 . S
C166 C165 1.391 . S
C166 C167 1.399 . S
C167 C166 1.399 . S
C167 C170 1.396 . S
C167 C179 1.453 . S
C167 C180 1.711 . S
H168 C192 0.948 . S
C169 C165 1.397 . S
C169 C170 1.394 . S
C169 C188 1.723 . S
C170 C167 1.396 . S
C170 C169 1.394 . S
C170 C200 1.723 . S
H171 C194 0.947 1_554 S
H172 C195 0.948 . S
H173 C201 0.982 . S
H174 C202 0.979 . S
H175 C202 0.980 . S
H176 C202 0.983 . S
H177 C201 0.979 . S
H178 C201 0.977 . S
C179 C167 1.453 . S
C179 H208 0.982 . S
C179 H209 0.979 1_556 S
C179 H210 0.977 . S
C180 C167 1.711 . S
C180 H205 0.989 . S
C180 H206 0.973 1_556 S
C180 H207 0.954 1_556 S
C181 C182 1.391 . S
C181 C186 1.391 . S
C181 H211 0.948 . S
C182 C181 1.391 . S
C182 C183 1.391 . S
C183 C182 1.391 . S
C183 C184 1.392 . S
C183 H212 0.947 . S
C184 C183 1.392 . S
C184 C185 1.419 . S
C184 H213 0.948 . S
C185 C184 1.419 . S
C185 C186 1.391 . S
C185 C189 1.397 . S
C186 C181 1.391 . S
C186 C185 1.391 . S
C186 C187 1.399 . S
C187 C186 1.399 . S
C187 C188 1.396 . S
C187 C190 1.453 . S
C187 C191 1.684 . S
C188 C169 1.723 . S
C188 C187 1.396 . S
C188 C189 1.394 . S
C189 C185 1.397 . S
C189 C188 1.394 . S
C189 C199 1.723 . S
C190 C187 1.453 . S
C190 H214 0.982 . S
C190 H215 0.979 . S
C190 H216 0.977 . S
C191 C187 1.684 . S
C191 H217 0.979 . S
C191 H218 0.980 . S
C191 H219 0.983 . S
C192 H168 0.948 . S
C192 C193 1.391 . S
C192 C197 1.391 . S
C193 C192 1.391 . S
C193 C194 1.391 . S
C194 H171 0.947 1_556 S
C194 C193 1.391 . S
C194 C195 1.392 . S
C195 H172 0.948 . S
C195 C194 1.392 . S
C195 C196 1.419 . S
C196 C195 1.419 . S
C196 C197 1.391 . S
C196 C200 1.397 . S
C197 C192 1.391 . S
C197 C196 1.391 . S
C197 C198 1.399 . S
C198 C197 1.399 . S
C198 C199 1.396 . S
C198 C201 1.453 . S
C198 C202 1.684 . S
C199 C189 1.723 . S
C199 C198 1.396 . S
C199 C200 1.394 . S
C200 C170 1.723 . S
C200 C196 1.397 . S
C200 C199 1.394 . S
C201 H173 0.982 . S
C201 H177 0.979 . S
C201 H178 0.977 . S
C201 C198 1.453 . S
C202 H174 0.979 . S
C202 H175 0.980 . S
C202 H176 0.983 . S
C202 C198 1.684 . S
H203 C221 0.948 . S
H204 C162 0.948 1_554 S
H205 C180 0.989 . S
H206 C180 0.973 1_554 S
H207 C180 0.954 1_554 S
H208 C179 0.982 . S
H209 C179 0.979 1_554 S
H210 C179 0.977 . S
H211 C181 0.948 . S
H212 C183 0.947 . S
H213 C184 0.948 . S
H214 C190 0.982 . S
H215 C190 0.979 . S
H216 C190 0.977 . S
H217 C191 0.979 . S
H218 C191 0.980 . S
H219 C191 0.983 . S
H220 C164 0.947 . S
C221 C164 1.392 . S
C221 C165 1.419 . S
C221 H203 0.948 . S
C222 C223 1.391 . S
C222 C226 1.391 . S
C222 H264 0.948 . S
C223 C222 1.391 . S
C223 C224 1.391 . S
C224 C223 1.391 . S
C224 H280 0.947 . S
C224 C281 1.392 . S
C225 C226 1.391 . S
C225 C229 1.397 . S
C225 C281 1.419 . S
C226 C222 1.391 . S
C226 C225 1.391 . S
C226 C227 1.399 . S
C227 C226 1.399 . S
C227 C230 1.396 . S
C227 C239 1.453 . S
C227 C240 1.684 . S
H228 C252 0.948 . S
C229 C225 1.397 . S
C229 C230 1.394 . S
C229 C248 1.723 . S
C230 C227 1.396 . S
C230 C229 1.394 . S
C230 C260 1.723 . S
H231 C254 0.947 . S
H232 C255 0.948 . S
H233 C261 0.982 . S
H234 C262 0.979 . S
H235 C262 0.980 . S
H236 C262 0.983 . S
H237 C261 0.979 . S
H238 C261 0.977 . S
C239 C227 1.453 . S
C239 H268 0.982 . S
C239 H269 0.979 . S
C239 H270 0.977 . S
C240 C227 1.684 . S
C240 H265 0.979 . S
C240 H266 0.980 . S
C240 H267 0.983 . S
C241 C242 1.391 . S
C241 C246 1.391 . S
C241 H271 0.948 . S
C242 C241 1.391 . S
C242 C243 1.391 . S
C243 C242 1.391 . S
C243 C244 1.392 . S
C243 H272 0.947 . S
C244 C243 1.392 . S
C244 C245 1.419 . S
C244 H273 0.948 . S
C245 C244 1.419 . S
C245 C246 1.391 . S
C245 C249 1.397 . S
C246 C241 1.391 . S
C246 C245 1.391 . S
C246 C247 1.399 . S
C247 C246 1.399 . S
C247 C248 1.396 . S
C247 C250 1.453 . S
C247 C251 1.684 . S
C248 C229 1.723 . S
C248 C247 1.396 . S
C248 C249 1.394 . S
C249 C245 1.397 . S
C249 C248 1.394 . S
C249 C259 1.723 . S
C250 C247 1.453 . S
C250 H274 0.982 . S
C250 H275 0.979 . S
C250 H276 0.977 . S
C251 C247 1.684 . S
C251 H277 0.979 . S
C251 H278 0.980 . S
C251 H279 0.983 . S
C252 H228 0.948 . S
C252 C253 1.391 . S
C252 C257 1.391 . S
C253 C252 1.391 . S
C253 C254 1.391 . S
C254 H231 0.947 . S
C254 C253 1.391 . S
C254 C255 1.392 . S
C255 H232 0.948 . S
C255 C254 1.392 . S
C255 C256 1.419 . S
C256 C255 1.419 . S
C256 C257 1.391 . S
C256 C260 1.397 . S
C257 C252 1.391 . S
C257 C256 1.391 . S
C257 C258 1.399 . S
C258 C257 1.399 . S
C258 C259 1.396 . S
C258 C261 1.453 . S
C258 C262 1.684 . S
C259 C249 1.723 . S
C259 C258 1.396 . S
C259 C260 1.394 . S
C260 C230 1.723 . S
C260 C256 1.397 . S
C260 C259 1.394 . S
C261 H233 0.982 . S
C261 H237 0.979 . S
C261 H238 0.977 . S
C261 C258 1.453 . S
C262 H234 0.979 . S
C262 H235 0.980 . S
C262 H236 0.983 . S
C262 C258 1.684 . S
H263 C281 0.948 . S
H264 C222 0.948 . S
H265 C240 0.979 . S
H266 C240 0.980 . S
H267 C240 0.983 . S
H268 C239 0.982 . S
H269 C239 0.979 . S
H270 C239 0.977 . S
H271 C241 0.948 . S
H272 C243 0.947 . S
H273 C244 0.948 . S
H274 C250 0.982 . S
H275 C250 0.979 . S
H276 C250 0.977 . S
H277 C251 0.979 . S
H278 C251 0.980 . S
H279 C251 0.983 . S
H280 C224 0.947 . S
C281 C224 1.392 . S
C281 C225 1.419 . S
C281 H263 0.948 . S
H282 C288 0.930 . S
H283 C291 0.930 . S
H284 C292 0.930 . S
H285 C293 0.930 . S
H286 C296 0.930 . S
H287 C297 0.930 . S
C288 H282 0.930 . S
C288 C289 1.355 . S
C288 C290 1.415 . S
C289 C288 1.355 . S
C289 C291 1.419 . S
C290 C288 1.415 . S
C290 C295 1.425 . S
C290 C297 1.409 . S
C291 H283 0.930 . S
C291 C289 1.419 . S
C291 C292 1.362 . S
C292 H284 0.930 . S
C292 C291 1.362 . S
C292 C295 1.409 . S
C293 H285 0.930 . S
C293 C294 1.355 . S
C293 C295 1.415 . S
C294 C293 1.355 . S
C294 C296 1.419 . S
C295 C290 1.425 . S
C295 C292 1.409 . S
C295 C293 1.415 . S
C296 H286 0.930 . S
C296 C294 1.419 . S
C296 C297 1.362 . S
C297 H287 0.930 . S
C297 C290 1.409 . S
C297 C296 1.362 . S
H298 C304 0.930 . S
H299 C307 0.930 . S
H300 C308 0.930 . S
H301 C309 0.929 . S
H302 C312 0.930 . S
H303 C313 0.930 . S
C304 H298 0.930 . S
C304 C305 1.354 1_556 S
C304 C306 1.415 . S
C305 C304 1.354 1_554 S
C305 C307 1.420 . S
C306 C304 1.415 . S
C306 C311 1.417 1_556 S
C306 C313 1.409 . S
C307 H299 0.930 . S
C307 C305 1.420 . S
C307 C308 1.362 . S
C308 H300 0.930 . S
C308 C307 1.362 . S
C308 C311 1.417 . S
C309 H301 0.929 . S
C309 C310 1.355 1_554 S
C309 C311 1.414 . S
C310 C309 1.355 1_556 S
C310 C312 1.419 . S
C311 C306 1.417 1_554 S
C311 C308 1.417 . S
C311 C309 1.414 . S
C312 H302 0.930 . S
C312 C310 1.419 . S
C312 C313 1.362 . S
C313 H303 0.930 . S
C313 C306 1.409 . S
C313 C312 1.362 . S
H314 C320 0.930 . S
H315 C323 0.930 . S
H316 C324 0.930 . S
H317 C325 0.930 . S
H318 C328 0.930 . S
H319 C329 0.930 . S
C320 H314 0.930 . S
C320 C321 1.355 . S
C320 C322 1.415 . S
C321 C320 1.355 . S
C321 C323 1.419 . S
C322 C320 1.415 . S
C322 C327 1.425 . S
C322 C329 1.409 . S
C323 H315 0.930 . S
C323 C321 1.419 . S
C323 C324 1.362 . S
C324 H316 0.930 . S
C324 C323 1.362 . S
C324 C327 1.409 . S
C325 H317 0.930 . S
C325 C326 1.355 . S
C325 C327 1.415 . S
C326 C325 1.355 . S
C326 C328 1.419 . S
C327 C322 1.425 . S
C327 C324 1.409 . S
C327 C325 1.415 . S
C328 H318 0.930 . S
C328 C326 1.419 . S
C328 C329 1.362 . S
C329 H319 0.930 . S
C329 C322 1.409 . S
C329 C328 1.362 . S
H330 C336 0.930 . S
H331 C339 0.914 1_455 S
H332 C340 0.930 . S
H333 C341 0.930 . S
H334 C344 0.930 . S
H335 C345 0.930 1_554 S
C336 H330 0.930 . S
C336 C337 1.355 . S
C336 C338 1.415 1_554 S
C337 C336 1.355 . S
C337 C339 1.419 1_554 S
C338 C336 1.415 1_556 S
C338 C343 1.425 . S
C338 C345 1.409 . S
C339 H331 0.914 1_655 S
C339 C337 1.419 1_556 S
C339 C340 1.362 . S
C340 H332 0.930 . S
C340 C339 1.362 . S
C340 C343 1.409 . S
C341 H333 0.930 . S
C341 C342 1.355 . S
C341 C343 1.415 . S
C342 C341 1.355 . S
C342 C344 1.419 . S
C343 C338 1.425 . S
C343 C340 1.409 . S
C343 C341 1.415 . S
C344 H334 0.930 . S
C344 C342 1.419 . S
C344 C345 1.362 . S
C345 H335 0.930 1_556 S
C345 C338 1.409 . S
C345 C344 1.362 . S
H346 C352 0.930 . S
H347 C355 0.930 . S
H348 C356 0.930 . S
H349 C357 0.930 . S
H350 C360 0.930 . S
H351 C361 0.930 . S
C352 H346 0.930 . S
C352 C353 1.355 . S
C352 C354 1.415 . S
C353 C352 1.355 . S
C353 C355 1.419 . S
C354 C352 1.415 . S
C354 C359 1.425 . S
C354 C361 1.409 . S
C355 H347 0.930 . S
C355 C353 1.419 . S
C355 C356 1.362 . S
C356 H348 0.930 . S
C356 C355 1.362 . S
C356 C359 1.409 . S
C357 H349 0.930 . S
C357 C358 1.355 . S
C357 C359 1.415 . S
C358 C357 1.355 . S
C358 C360 1.419 . S
C359 C354 1.425 . S
C359 C356 1.409 . S
C359 C357 1.415 . S
C360 H350 0.930 . S
C360 C358 1.419 . S
C360 C361 1.362 . S
C361 H351 0.930 . S
C361 C354 1.409 . S
C361 C360 1.362 . S
H362 C368 0.930 . S
H363 C371 0.930 . S
H364 C372 0.930 . S
H365 C373 0.930 . S
H366 C376 0.930 . S
H367 C377 0.930 . S
C368 H362 0.930 . S
C368 C369 1.355 . S
C368 C370 1.415 . S
C369 C368 1.355 . S
C369 C371 1.419 . S
C370 C368 1.415 . S
C370 C375 1.425 . S
C370 C377 1.409 . S
C371 H363 0.930 . S
C371 C369 1.419 . S
C371 C372 1.362 . S
C372 H364 0.930 . S
C372 C371 1.362 . S
C372 C375 1.409 . S
C373 H365 0.930 . S
C373 C374 1.355 . S
C373 C375 1.415 . S
C374 C373 1.355 . S
C374 C376 1.419 . S
C375 C370 1.425 . S
C375 C372 1.409 . S
C375 C373 1.415 . S
C376 H366 0.930 . S
C376 C374 1.419 . S
C376 C377 1.362 . S
C377 H367 0.930 . S
C377 C370 1.409 . S
C377 C376 1.362 . S
H378 C384 0.930 . S
H379 C387 0.930 . S
H380 C388 0.930 . S
H381 C389 0.930 . S
H382 C392 0.930 . S
H383 C393 0.930 . S
C384 H378 0.930 . S
C384 C385 1.355 . S
C384 C386 1.415 . S
C385 C384 1.355 . S
C385 C387 1.419 . S
C386 C384 1.415 . S
C386 C391 1.425 . S
C386 C393 1.409 . S
C387 H379 0.930 . S
C387 C385 1.419 . S
C387 C388 1.362 . S
C388 H380 0.930 . S
C388 C387 1.362 . S
C388 C391 1.409 . S
C389 H381 0.930 . S
C389 C390 1.355 . S
C389 C391 1.415 . S
C390 C389 1.355 . S
C390 C392 1.419 . S
C391 C386 1.425 . S
C391 C388 1.409 . S
C391 C389 1.415 . S
C392 H382 0.930 . S
C392 C390 1.419 . S
C392 C393 1.362 . S
C393 H383 0.930 . S
C393 C386 1.409 . S
C393 C392 1.362 . S
H394 C400 0.930 . S
H395 C403 0.930 . S
H396 C404 0.930 . S
H397 C405 0.930 . S
H398 C408 0.930 . S
H399 C409 0.930 . S
C400 H394 0.930 . S
C400 C401 1.355 . S
C400 C402 1.415 . S
C401 C400 1.355 . S
C401 C403 1.419 . S
C402 C400 1.415 . S
C402 C407 1.425 . S
C402 C409 1.409 . S
C403 H395 0.930 . S
C403 C401 1.419 . S
C403 C404 1.362 . S
C404 H396 0.930 . S
C404 C403 1.362 . S
C404 C407 1.409 . S
C405 H397 0.930 . S
C405 C406 1.355 . S
C405 C407 1.415 . S
C406 C405 1.355 . S
C406 C408 1.419 . S
C407 C402 1.425 . S
C407 C404 1.409 . S
C407 C405 1.415 . S
C408 H398 0.930 . S
C408 C406 1.419 . S
C408 C409 1.362 . S
C409 H399 0.930 . S
C409 C402 1.409 . S
C409 C408 1.362 . S
H410 C416 0.930 . S
H411 C419 0.930 . S
H412 C420 0.930 . S
H413 C421 0.930 . S
H414 C424 0.930 . S
H415 C425 0.930 . S
C416 H410 0.930 . S
C416 C417 1.355 1_545 S
C416 C418 1.415 . S
C417 C416 1.355 1_565 S
C417 C419 1.419 . S
C418 C416 1.415 . S
C418 C423 1.425 1_545 S
C418 C425 1.409 . S
C419 H411 0.930 . S
C419 C417 1.419 . S
C419 C420 1.362 . S
C420 H412 0.930 . S
C420 C419 1.362 . S
C420 C423 1.409 . S
C421 H413 0.930 . S
C421 C422 1.355 1_565 S
C421 C423 1.415 . S
C422 C421 1.355 1_545 S
C422 C424 1.419 . S
C423 C418 1.425 1_565 S
C423 C420 1.409 . S
C423 C421 1.415 . S
C424 H414 0.930 . S
C424 C422 1.419 . S
C424 C425 1.362 . S
C425 H415 0.930 . S
C425 C418 1.409 . S
C425 C424 1.362 . S
H426 C432 0.930 . S
H427 C435 0.930 . S
H428 C436 0.930 . S
H429 C437 0.930 . S
H430 C440 0.930 . S
H431 C441 0.930 . S
C432 H426 0.930 . S
C432 C433 1.355 . S
C432 C434 1.415 . S
C433 C432 1.355 . S
C433 C435 1.419 1_465 S
C434 C432 1.415 . S
C434 C439 1.425 1_465 S
C434 C441 1.409 . S
C435 H427 0.930 . S
C435 C433 1.419 1_645 S
C435 C436 1.362 . S
C436 H428 0.930 . S
C436 C435 1.362 . S
C436 C439 1.409 . S
C437 H429 0.930 . S
C437 C438 1.355 1_655 S
C437 C439 1.415 . S
C438 C437 1.355 1_455 S
C438 C440 1.419 1_545 S
C439 C434 1.425 1_645 S
C439 C436 1.409 . S
C439 C437 1.415 . S
C440 H430 0.930 . S
C440 C438 1.419 1_565 S
C440 C441 1.362 . S
C441 H431 0.930 . S
C441 C434 1.409 . S
C441 C440 1.362 . S
H442 C448 0.930 . S
H443 C451 0.930 . S
H444 C452 0.930 . S
H445 C453 0.930 . S
H446 C456 0.930 . S
H447 C457 0.930 . S
C448 H442 0.930 . S
C448 C449 1.355 . S
C448 C450 1.415 . S
C449 C448 1.355 . S
C449 C451 1.419 . S
C450 C448 1.415 . S
C450 C455 1.425 . S
C450 C457 1.409 . S
C451 H443 0.930 . S
C451 C449 1.419 . S
C451 C452 1.362 . S
C452 H444 0.930 . S
C452 C451 1.362 . S
C452 C455 1.409 . S
C453 H445 0.930 . S
C453 C454 1.355 . S
C453 C455 1.415 . S
C454 C453 1.355 . S
C454 C456 1.419 . S
C455 C450 1.425 . S
C455 C452 1.409 . S
C455 C453 1.415 . S
C456 H446 0.930 . S
C456 C454 1.419 . S
C456 C457 1.362 . S
C457 H447 0.930 . S
C457 C450 1.409 . S
C457 C456 1.362 . S
H458 C464 0.930 . S
H459 C467 0.930 . S
H460 C468 0.930 . S
H461 C469 0.930 . S
H462 C472 0.930 . S
H463 C473 0.930 . S
C464 H458 0.930 . S
C464 C465 1.355 . S
C464 C466 1.415 . S
C465 C464 1.355 . S
C465 C467 1.419 . S
C466 C464 1.415 . S
C466 C471 1.425 . S
C466 C473 1.409 . S
C467 H459 0.930 . S
C467 C465 1.419 . S
C467 C468 1.362 . S
C468 H460 0.930 . S
C468 C467 1.362 . S
C468 C471 1.409 . S
C469 H461 0.930 . S
C469 C470 1.355 . S
C469 C471 1.415 . S
C470 C469 1.355 . S
C470 C472 1.419 . S
C471 C466 1.425 . S
C471 C468 1.409 . S
C471 C469 1.415 . S
C472 H462 0.930 . S
C472 C470 1.419 . S
C472 C473 1.362 . S
C473 H463 0.930 . S
C473 C466 1.409 . S
C473 C472 1.362 . S
C294 C253 1.303 . S
C289 C3 1.178 . S
C305 C4 1.497 . S
C310 C193 1.628 . S
C321 C19 1.481 . S
C326 C223 1.553 . S
C337 C7 1.202 1_554 S
C342 C163 1.227 . S
C353 C37 1.145 . S
C358 C133 1.281 . S
C369 C28 1.536 . S
C374 C73 1.631 . S
C390 C103 1.517 . S
C385 C41 1.476 . S
C406 C43 1.241 . S
C401 C25 1.187 . S
C417 C20 1.297 . S
C422 C62 1.439 . S
C433 C16 1.305 . S
C438 C122 1.478 1_455 S
C454 C182 1.429 . S
C449 C40 1.274 . S
C465 C24 1.368 . S
C470 C242 1.514 . S
