# Generated by pormake.
# Topology cml, (3,6)-cn, num edge types: 1
# Building blocks:
#     Node 0, Type 0, BuildingBlock: PAMTOO_clean_linker_0, # of connection points: 3
#     Node 1, Type 0, BuildingBlock: PAMTOO_clean_linker_0, # of connection points: 3
#     Node 2, Type 0, BuildingBlock: PAMTOO_clean_linker_0, # of connection points: 3
#     Node 3, Type 0, BuildingBlock: PAMTOO_clean_linker_0, # of connection points: 3
#     Node 4, Type 0, BuildingBlock: PAMTOO_clean_linker_0, # of connection points: 3
#     Node 5, Type 0, BuildingBlock: PAMTOO_clean_linker_0, # of connection points: 3
#     Node 6, Type 0, BuildingBlock: PAMTOO_clean_linker_0, # of connection points: 3
#     Node 7, Type 0, BuildingBlock: PAMTOO_clean_linker_0, # of connection points: 3
#     Node 8, Type 1, BuildingBlock: OJICUG_clean_sbu_0, # of connection points: 6
#     Node 9, Type 1, BuildingBlock: OJICUG_clean_sbu_0, # of connection points: 6
#     Node 10, Type 1, BuildingBlock: OJICUG_clean_sbu_0, # of connection points: 6
#     Node 11, Type 1, BuildingBlock: OJICUG_clean_sbu_0, # of connection points: 6
#     Edge 12, Type (0, 1), BuildingBlock: KIFKEQ_clean_linker_1, # of connection points: 2
#     Edge 13, Type (0, 1), BuildingBlock: KIFKEQ_clean_linker_1, # of connection points: 2
#     Edge 14, Type (0, 1), BuildingBlock: KIFKEQ_clean_linker_1, # of connection points: 2
#     Edge 15, Type (0, 1), BuildingBlock: KIFKEQ_clean_linker_1, # of connection points: 2
#     Edge 16, Type (0, 1), BuildingBlock: KIFKEQ_clean_linker_1, # of connection points: 2
#     Edge 17, Type (0, 1), BuildingBlock: KIFKEQ_clean_linker_1, # of connection points: 2
#     Edge 18, Type (0, 1), BuildingBlock: KIFKEQ_clean_linker_1, # of connection points: 2
#     Edge 19, Type (0, 1), BuildingBlock: KIFKEQ_clean_linker_1, # of connection points: 2
#     Edge 20, Type (0, 1), BuildingBlock: KIFKEQ_clean_linker_1, # of connection points: 2
#     Edge 21, Type (0, 1), BuildingBlock: KIFKEQ_clean_linker_1, # of connection points: 2
#     Edge 22, Type (0, 1), BuildingBlock: KIFKEQ_clean_linker_1, # of connection points: 2
#     Edge 23, Type (0, 1), BuildingBlock: KIFKEQ_clean_linker_1, # of connection points: 2
#     Edge 24, Type (0, 1), BuildingBlock: KIFKEQ_clean_linker_1, # of connection points: 2
#     Edge 25, Type (0, 1), BuildingBlock: KIFKEQ_clean_linker_1, # of connection points: 2
#     Edge 26, Type (0, 1), BuildingBlock: KIFKEQ_clean_linker_1, # of connection points: 2
#     Edge 27, Type (0, 1), BuildingBlock: KIFKEQ_clean_linker_1, # of connection points: 2
#     Edge 28, Type (0, 1), BuildingBlock: KIFKEQ_clean_linker_1, # of connection points: 2
#     Edge 29, Type (0, 1), BuildingBlock: KIFKEQ_clean_linker_1, # of connection points: 2
#     Edge 30, Type (0, 1), BuildingBlock: KIFKEQ_clean_linker_1, # of connection points: 2
#     Edge 31, Type (0, 1), BuildingBlock: KIFKEQ_clean_linker_1, # of connection points: 2
#     Edge 32, Type (0, 1), BuildingBlock: KIFKEQ_clean_linker_1, # of connection points: 2
#     Edge 33, Type (0, 1), BuildingBlock: KIFKEQ_clean_linker_1, # of connection points: 2
#     Edge 34, Type (0, 1), BuildingBlock: KIFKEQ_clean_linker_1, # of connection points: 2
#     Edge 35, Type (0, 1), BuildingBlock: KIFKEQ_clean_linker_1, # of connection points: 2
# Relax obj value: 0.007
# Max RMSD: 0.054
# Mean RMSD: 0.044
data_MOF--net-cml--node1-OJICUG_clean_sbu_0--node2-PAMTOO_clean_linker_0--edge1-KIFKEQ_clean_linker_1
_symmetry_space_group_name_H-M    P1
_symmetry_Int_Tables_number       1
_symmetry_cell_setting            triclinic
loop_
_symmetry_equiv_pos_as_xyz
'x, y, z'
_cell_length_a     41.236633
_cell_length_b     40.828418
_cell_length_c     35.62953
_cell_angle_alpha  89.950326
_cell_angle_beta   88.408688
_cell_angle_gamma 90.263867
loop_
_atom_site_label
_atom_site_type_symbol
_atom_site_fract_x
_atom_site_fract_y
_atom_site_fract_z
_atom_type_partial_charge
H0 H 0.33724 0.42087 0.04164 0.0
H1 H 0.27719 0.40405 0.94624 0.0
H2 H 0.27052 0.33985 0.04176 0.0
H3 H 0.26594 0.30794 0.96992 0.0
C4 C 0.2524 0.32662 0.95394 0.0
O5 O 0.24655 0.35375 0.97616 0.0
H6 H 0.26747 0.334 0.92892 0.0
C7 C 0.31885 0.40683 0.0275 0.0
C8 C 0.30534 0.37931 0.04563 0.0
C9 C 0.30958 0.41588 0.99127 0.0
C10 C 0.28497 0.39771 0.97409 0.0
C11 C 0.2707 0.37058 0.99248 0.0
C12 C 0.28122 0.36113 0.02798 0.0
H13 H 0.66868 0.56368 0.53883 0.0
H14 H 0.73866 0.64187 0.53934 0.0
H15 H 0.74005 0.57285 0.44855 0.0
H16 H 0.80513 0.59273 0.47247 0.0
C17 C 0.79914 0.61744 0.48377 0.0
O18 O 0.7675 0.6249 0.47592 0.0
H19 H 0.80245 0.61709 0.51468 0.0
C20 C 0.68976 0.57565 0.52603 0.0
C21 C 0.70267 0.5644 0.49149 0.0
C22 C 0.70264 0.60337 0.54349 0.0
C23 C 0.72867 0.62023 0.52628 0.0
C24 C 0.74223 0.60884 0.4923 0.0
C25 C 0.72928 0.58114 0.47493 0.0
H26 H 0.66077 0.42994 0.03356 0.0
H27 H 0.73582 0.35708 0.03227 0.0
H28 H 0.71736 0.41184 0.93243 0.0
H29 H 0.73197 0.34313 0.91784 0.0
C30 C 0.74582 0.3375 0.9434 0.0
O31 O 0.75272 0.36626 0.96185 0.0
H32 H 0.73067 0.32109 0.96177 0.0
C33 C 0.68017 0.41707 0.01881 0.0
C34 C 0.68684 0.42414 0.98078 0.0
C35 C 0.6974 0.39281 0.03774 0.0
C36 C 0.72228 0.37602 0.01837 0.0
C37 C 0.72948 0.38322 0.9806 0.0
C38 C 0.71197 0.40725 0.96191 0.0
H39 H 0.35001 0.59139 0.52762 0.0
H40 H 0.28373 0.59577 0.43611 0.0
H41 H 0.27384 0.66263 0.52866 0.0
H42 H 0.21365 0.62742 0.50014 0.0
C43 C 0.21871 0.63234 0.46978 0.0
O44 O 0.24989 0.64419 0.46453 0.0
H45 H 0.2161 0.60889 0.45428 0.0
C46 C 0.32955 0.60234 0.51394 0.0
C47 C 0.3136 0.62858 0.53158 0.0
C48 C 0.31916 0.58997 0.47945 0.0
C49 C 0.29201 0.60431 0.46298 0.0
C50 C 0.27556 0.63022 0.4809 0.0
C51 C 0.28632 0.6423 0.51523 0.0
H52 H 0.8381 0.92453 0.03221 0.0
H53 H 0.76647 0.90668 0.94927 0.0
H54 H 0.77876 0.83742 0.03864 0.0
H55 H 0.76564 0.80702 0.96817 0.0
C56 C 0.75122 0.82635 0.95441 0.0
O57 O 0.74528 0.85163 0.97935 0.0
H58 H 0.76549 0.83582 0.92969 0.0
C59 C 0.81891 0.90926 0.02137 0.0
C60 C 0.81091 0.8795 0.03925 0.0
C61 C 0.80325 0.91923 0.98893 0.0
C62 C 0.77861 0.89945 0.97453 0.0
C63 C 0.76946 0.87028 0.99291 0.0
C64 C 0.78551 0.8604 0.02526 0.0
H65 H 0.16635 0.06832 0.54116 0.0
H66 H 0.23807 0.14485 0.5425 0.0
H67 H 0.23556 0.07894 0.44887 0.0
H68 H 0.30071 0.09582 0.46753 0.0
C69 C 0.29652 0.11957 0.48211 0.0
O70 O 0.26495 0.12936 0.4775 0.0
H71 H 0.30121 0.11604 0.51248 0.0
C72 C 0.18731 0.08027 0.52809 0.0
C73 C 0.19918 0.06982 0.49276 0.0
C74 C 0.2012 0.10716 0.54615 0.0
C75 C 0.22728 0.1239 0.52889 0.0
C76 C 0.23968 0.11339 0.49399 0.0
C77 C 0.22562 0.08662 0.47589 0.0
H78 H 0.16738 0.93547 0.03986 0.0
H79 H 0.23606 0.85677 0.03613 0.0
H80 H 0.2322 0.92387 0.94369 0.0
H81 H 0.23983 0.85547 0.92105 0.0
C82 C 0.2522 0.84584 0.94612 0.0
O83 O 0.25989 0.87157 0.96933 0.0
H84 H 0.23546 0.82843 0.96106 0.0
C85 C 0.18748 0.92324 0.02561 0.0
C86 C 0.19809 0.93363 0.98968 0.0
C87 C 0.20115 0.89577 0.04258 0.0
C88 C 0.22572 0.8784 0.02358 0.0
C89 C 0.23675 0.88872 0.98798 0.0
C90 C 0.22327 0.91635 0.97126 0.0
H91 H 0.84034 0.08371 0.5432 0.0
H92 H 0.78135 0.09284 0.44558 0.0
H93 H 0.77072 0.16116 0.53661 0.0
H94 H 0.71014 0.13167 0.50744 0.0
C95 C 0.71657 0.1327 0.4769 0.0
O96 O 0.74836 0.14277 0.47159 0.0
H97 H 0.71365 0.10765 0.46513 0.0
C98 C 0.82183 0.09616 0.52764 0.0
C99 C 0.80695 0.1238 0.54359 0.0
C100 C 0.81338 0.0848 0.49197 0.0
C101 C 0.78847 0.10092 0.47311 0.0
C102 C 0.77279 0.12803 0.48949 0.0
C103 C 0.78248 0.13985 0.5244 0.0
Sc104 Sc 0.00221 0.80649 0.30676 0.0
Sc105 Sc 0.999 0.89269 0.31175 0.0
Sc106 Sc 0.00141 0.8465 0.39477 0.0
O107 O 0.0008 0.84848 0.33775 0.0
C108 C 0.95394 0.78739 0.37531 0.0
C109 C 0.95301 0.84968 0.26017 0.0
C110 C 0.95092 0.90469 0.38132 0.0
C111 C 0.04993 0.85397 0.25965 0.0
C112 C 0.05067 0.78895 0.3722 0.0
C113 C 0.04787 0.90727 0.37796 0.0
O114 O 0.96547 0.78326 0.34212 0.0
O115 O 0.96353 0.87667 0.2728 0.0
O116 O 0.96428 0.8835 0.402 0.0
O117 O 0.03947 0.82551 0.26849 0.0
O118 O 0.03871 0.80976 0.39511 0.0
O119 O 0.03461 0.91449 0.34728 0.0
O120 O 0.04034 0.7853 0.33915 0.0
O121 O 0.03782 0.88006 0.27338 0.0
O122 O 0.03931 0.88268 0.39781 0.0
O123 O 0.96409 0.82211 0.27024 0.0
O124 O 0.96404 0.8096 0.39721 0.0
O125 O 0.95988 0.90981 0.34744 0.0
Sc126 Sc 0.99981 0.19429 0.80784 0.0
Sc127 Sc 0.9947 0.10812 0.8117 0.0
Sc128 Sc 0.99608 0.15343 0.89543 0.0
O129 O 0.99685 0.15199 0.83831 0.0
C130 C 0.04764 0.21008 0.87448 0.0
C131 C 0.04693 0.14688 0.76072 0.0
C132 C 0.04238 0.09291 0.87878 0.0
C133 C 0.94968 0.15231 0.76063 0.0
C134 C 0.94972 0.21258 0.87475 0.0
C135 C 0.94502 0.09572 0.87999 0.0
O136 O 0.03816 0.21407 0.84114 0.0
O137 O 0.03404 0.12079 0.77379 0.0
O138 O 0.03342 0.11706 0.89895 0.0
O139 O 0.96174 0.17956 0.77071 0.0
O140 O 0.95877 0.19007 0.8968 0.0
O141 O 0.95495 0.09074 0.84646 0.0
O142 O 0.9629 0.21752 0.84249 0.0
O143 O 0.95951 0.12499 0.77293 0.0
O144 O 0.95811 0.11665 0.90135 0.0
O145 O 0.03709 0.17533 0.76998 0.0
O146 O 0.03419 0.18982 0.8972 0.0
O147 O 0.02976 0.08605 0.84757 0.0
Sc148 Sc 0.50328 0.3039 0.30443 0.0
Sc149 Sc 0.50358 0.38999 0.30774 0.0
Sc150 Sc 0.50132 0.34502 0.39156 0.0
O151 O 0.5026 0.34623 0.3346 0.0
C152 C 0.45318 0.28708 0.37234 0.0
C153 C 0.4564 0.3476 0.25632 0.0
C154 C 0.45391 0.4052 0.37442 0.0
C155 C 0.55399 0.34902 0.25844 0.0
C156 C 0.54975 0.28594 0.37101 0.0
C157 C 0.55046 0.40351 0.37616 0.0
O158 O 0.46701 0.28106 0.34072 0.0
O159 O 0.46969 0.37419 0.26651 0.0
O160 O 0.46666 0.38466 0.39648 0.0
O161 O 0.54005 0.32162 0.2648 0.0
O162 O 0.53605 0.30575 0.39391 0.0
O163 O 0.53751 0.41152 0.34555 0.0
O164 O 0.5418 0.28358 0.33686 0.0
O165 O 0.5445 0.37569 0.27329 0.0
O166 O 0.54141 0.37867 0.3953 0.0
O167 O 0.46465 0.31979 0.26895 0.0
O168 O 0.4615 0.3108 0.39316 0.0
O169 O 0.46304 0.40844 0.34027 0.0
Sc170 Sc 0.50015 0.69608 0.80286 0.0
Sc171 Sc 0.49218 0.61009 0.80497 0.0
Sc172 Sc 0.49509 0.65403 0.88964 0.0
O173 O 0.49579 0.65342 0.83251 0.0
C174 C 0.54806 0.70958 0.87025 0.0
C175 C 0.54521 0.64851 0.75413 0.0
C176 C 0.53987 0.59238 0.87099 0.0
C177 C 0.44822 0.6561 0.7554 0.0
C178 C 0.45045 0.71493 0.8697 0.0
C179 C 0.4433 0.59731 0.87447 0.0
O180 O 0.53801 0.7151 0.83745 0.0
O181 O 0.5302 0.62291 0.76528 0.0
O182 O 0.53003 0.61526 0.89262 0.0
O183 O 0.46283 0.68239 0.76428 0.0
O184 O 0.45971 0.69256 0.8918 0.0
O185 O 0.45373 0.59159 0.84126 0.0
O186 O 0.46294 0.71934 0.837 0.0
O187 O 0.45554 0.62827 0.76868 0.0
O188 O 0.45565 0.61919 0.89513 0.0
O189 O 0.53783 0.67704 0.76573 0.0
O190 O 0.53493 0.68837 0.89203 0.0
O191 O 0.52865 0.58755 0.83854 0.0
H192 H 0.2343 0.30907 0.88315 0.0
H193 H 0.19997 0.30925 -0.00142 0.0
H194 H 0.18433 0.28203 0.86461 0.0
H195 H 0.14936 0.28314 0.98012 0.0
H196 H 0.08089 0.20263 0.93948 0.0
H197 H 0.12932 0.23171 0.95855 0.0
H198 H 0.12743 0.29016 0.85748 0.0
H199 H 0.07948 0.26042 0.83783 0.0
C200 C 0.21578 0.30372 0.90446 0.0
C201 C 0.22075 0.31162 0.94221 0.0
C202 C 0.18706 0.28837 0.89386 0.0
C203 C 0.16264 0.28049 0.92081 0.0
C204 C 0.16771 0.28851 0.95864 0.0
C205 C 0.19652 0.30372 0.96922 0.0
C206 C 0.09065 0.22179 0.92136 0.0
C207 C 0.07622 0.22907 0.88703 0.0
C208 C 0.11841 0.23863 0.93243 0.0
C209 C 0.13241 0.26332 0.90957 0.0
C210 C 0.11767 0.27095 0.87553 0.0
C211 C 0.08999 0.254 0.86436 0.0
H212 H 0.8006 0.68244 0.50028 0.0
H213 H 0.84665 0.61007 0.42889 0.0
H214 H 0.83559 0.72499 0.47247 0.0
H215 H 0.88248 0.6522 0.40182 0.0
H216 H 0.92171 0.73982 0.33664 0.0
H217 H 0.88282 0.69979 0.36175 0.0
H218 H 0.89129 0.74193 0.4723 0.0
H219 H 0.92933 0.78243 0.44716 0.0
C220 C 0.8184 0.67575 0.47872 0.0
C221 C 0.82111 0.64315 0.46672 0.0
C222 C 0.83851 0.69998 0.46292 0.0
C223 C 0.86188 0.692 0.43494 0.0
C224 C 0.86443 0.65927 0.42289 0.0
C225 C 0.84416 0.63509 0.43858 0.0
C226 C 0.9151 0.74071 0.36625 0.0
C227 C 0.92877 0.76432 0.38987 0.0
C228 C 0.89295 0.71762 0.38069 0.0
C229 C 0.88408 0.71753 0.41908 0.0
C230 C 0.89725 0.74154 0.44251 0.0
C231 C 0.91923 0.76471 0.42807 0.0
H232 H 0.77033 0.32142 0.87344 0.0
H233 H 0.79092 0.3149 0.99124 0.0
H234 H 0.82058 0.29244 0.85785 0.0
H235 H 0.84183 0.28682 0.97586 0.0
H236 H 0.90881 0.20384 0.93574 0.0
H237 H 0.86038 0.23486 0.95242 0.0
H238 H 0.87865 0.29888 0.85743 0.0
H239 H 0.92667 0.26729 0.84004 0.0
C240 C 0.78582 0.31393 0.89593 0.0
C241 C 0.77693 0.32025 0.9335 0.0
C242 C 0.81469 0.29759 0.88706 0.0
C243 C 0.83528 0.28738 0.91561 0.0
C244 C 0.82634 0.29397 0.95323 0.0
C245 C 0.79739 0.31016 0.96207 0.0
C246 C 0.90269 0.22467 0.91852 0.0
C247 C 0.92161 0.23296 0.88644 0.0
C248 C 0.87495 0.24256 0.92821 0.0
C249 C 0.86556 0.26929 0.90619 0.0
C250 C 0.88489 0.27807 0.87462 0.0
C251 C 0.91256 0.26007 0.8648 0.0
H252 H 0.17082 0.66554 0.50877 0.0
H253 H 0.21314 0.65373 0.3976 0.0
H254 H 0.13135 0.70385 0.48434 0.0
H255 H 0.17432 0.69295 0.373 0.0
H256 H 0.07654 0.73489 0.33703 0.0
H257 H 0.11769 0.69796 0.36021 0.0
H258 H 0.12651 0.75789 0.45934 0.0
H259 H 0.08479 0.79427 0.43674 0.0
C260 C 0.17177 0.6714 0.47911 0.0
C261 C 0.19492 0.65672 0.45499 0.0
C262 C 0.14933 0.69353 0.4651 0.0
C263 C 0.14965 0.7016 0.42666 0.0
C264 C 0.17307 0.687 0.40263 0.0
C265 C 0.19542 0.66475 0.41666 0.0
C266 C 0.08735 0.7403 0.36369 0.0
C267 C 0.07713 0.76748 0.3851 0.0
C268 C 0.1111 0.71918 0.37692 0.0
C269 C 0.12535 0.72481 0.41178 0.0
C270 C 0.11564 0.75242 0.43273 0.0
C271 C 0.0918 0.77342 0.41963 0.0
H272 H 0.73307 0.81141 0.88295 0.0
H273 H 0.69929 0.80619 -0.00154 0.0
H274 H 0.68365 0.78405 0.86326 0.0
H275 H 0.64919 0.77975 0.97888 0.0
H276 H 0.58207 0.69974 0.93432 0.0
H277 H 0.63012 0.72884 0.95462 0.0
H278 H 0.6266 0.79129 0.85686 0.0
H279 H 0.5791 0.76158 0.83595 0.0
C280 C 0.71476 0.80484 0.90405 0.0
C281 C 0.71972 0.81138 0.94215 0.0
C282 C 0.68635 0.78929 0.8928 0.0
C283 C 0.66225 0.77979 0.91943 0.0
C284 C 0.66731 0.7864 0.95761 0.0
C285 C 0.69582 0.80183 0.96885 0.0
C286 C 0.59144 0.71975 0.91717 0.0
C287 C 0.57667 0.72819 0.88339 0.0
C288 C 0.61895 0.7366 0.92896 0.0
C289 C 0.63235 0.76246 0.90741 0.0
C290 C 0.61731 0.77118 0.87389 0.0
C291 C 0.5899 0.75423 0.86199 0.0
H292 H 0.30465 0.1358 0.40834 0.0
H293 H 0.33807 0.16073 0.51838 0.0
H294 H 0.34 0.17806 0.38045 0.0
H295 H 0.37426 0.20222 0.4907 0.0
H296 H 0.41333 0.29403 0.43462 0.0
H297 H 0.374 0.2547 0.46013 0.0
H298 H 0.39656 0.18876 0.36834 0.0
H299 H 0.43513 0.22837 0.34223 0.0
C300 C 0.31983 0.15024 0.4264 0.0
C301 C 0.31897 0.14497 0.46532 0.0
C302 C 0.34012 0.1743 0.41053 0.0
C303 C 0.36 0.1935 0.43334 0.0
C304 C 0.35893 0.18821 0.47239 0.0
C305 C 0.33849 0.16427 0.48823 0.0
C306 C 0.40972 0.27126 0.41969 0.0
C307 C 0.42754 0.26434 0.38644 0.0
C308 C 0.38732 0.24861 0.43447 0.0
C309 C 0.38232 0.21845 0.41646 0.0
C310 C 0.39953 0.21189 0.38272 0.0
C311 C 0.42179 0.2346 0.36783 0.0
H312 H 0.29741 0.82032 0.99203 0.0
H313 H 0.27461 0.83031 0.87514 0.0
H314 H 0.34683 0.79064 0.97443 0.0
H315 H 0.32332 0.79962 0.85734 0.0
H316 H 0.42827 0.77056 0.83607 0.0
H317 H 0.38153 0.80346 0.85512 0.0
H318 H 0.36296 0.73875 0.94944 0.0
H319 H 0.41013 0.70649 0.93115 0.0
C320 C 0.30311 0.8161 0.96256 0.0
C321 C 0.28257 0.82783 0.93489 0.0
C322 C 0.3312 0.79893 0.95245 0.0
C323 C 0.33907 0.79279 0.91445 0.0
C324 C 0.3183 0.80444 0.88681 0.0
C325 C 0.29031 0.8218 0.89695 0.0
C326 C 0.41433 0.76347 0.86101 0.0
C327 C 0.42298 0.73587 0.88207 0.0
C328 C 0.38741 0.78222 0.87179 0.0
C329 C 0.36843 0.77368 0.90373 0.0
C330 C 0.37732 0.74633 0.92502 0.0
C331 C 0.40434 0.72772 0.9144 0.0
H332 H 0.70845 0.19759 0.4926 0.0
H333 H 0.67405 0.12096 0.42038 0.0
H334 H 0.67016 0.2359 0.46532 0.0
H335 H 0.63514 0.15876 0.39371 0.0
H336 H 0.58767 0.24231 0.33109 0.0
H337 H 0.62986 0.20675 0.35472 0.0
H338 H 0.61257 0.24502 0.46647 0.0
H339 H 0.57107 0.28104 0.44286 0.0
C340 C 0.69271 0.18909 0.47075 0.0
C341 C 0.69415 0.15646 0.45852 0.0
C342 C 0.67065 0.21086 0.45531 0.0
C343 C 0.64943 0.20039 0.42741 0.0
C344 C 0.65136 0.16779 0.41478 0.0
C345 C 0.6735 0.14607 0.43017 0.0
C346 C 0.59293 0.24324 0.36068 0.0
C347 C 0.57585 0.26456 0.38503 0.0
C348 C 0.61704 0.22272 0.37427 0.0
C349 C 0.62463 0.22299 0.41252 0.0
C350 C 0.60774 0.2445 0.43675 0.0
C351 C 0.58372 0.26504 0.4232 0.0
H352 H 0.37394 0.43205 0.99326 0.0
H353 H 0.28418 0.46241 0.94402 0.0
H354 H 0.40143 0.47931 0.96564 0.0
H355 H 0.3127 0.5091 0.91453 0.0
H356 H 0.40078 0.55785 0.83735 0.0
H357 H 0.36481 0.51572 0.86471 0.0
H358 H 0.39328 0.54409 0.97566 0.0
H359 H 0.42879 0.58647 0.94871 0.0
C360 C 0.35991 0.44888 0.97681 0.0
C361 C 0.32654 0.44365 0.97165 0.0
C362 C 0.3758 0.47587 0.96082 0.0
C363 C 0.35903 0.49801 0.93849 0.0
C364 C 0.32606 0.49236 0.93185 0.0
C365 C 0.30986 0.46553 0.94853 0.0
C366 C 0.3989 0.55552 0.86763 0.0
C367 C 0.41788 0.57536 0.89084 0.0
C368 C 0.37822 0.53152 0.8832 0.0
C369 C 0.37656 0.5266 0.92218 0.0
C370 C 0.39432 0.54736 0.94547 0.0
C371 C 0.41454 0.57169 0.93 0.0
H372 H 0.69248 0.55736 0.41619 0.0
H373 H 0.6768 0.50845 0.52284 0.0
H374 H 0.66078 0.51525 0.38567 0.0
H375 H 0.64305 0.46786 0.49292 0.0
H376 H 0.59594 0.38776 0.42762 0.0
H377 H 0.63815 0.4231 0.4522 0.0
H378 H 0.6054 0.50241 0.38238 0.0
H379 H 0.5644 0.46671 0.35673 0.0
C380 C 0.68263 0.53744 0.4331 0.0
C381 C 0.68686 0.53659 0.4721 0.0
C382 C 0.66397 0.51352 0.41567 0.0
C383 C 0.64877 0.48843 0.43687 0.0
C384 C 0.65443 0.48666 0.47555 0.0
C385 C 0.67344 0.51029 0.49287 0.0
C386 C 0.59795 0.4127 0.4174 0.0
C387 C 0.57673 0.42449 0.39038 0.0
C388 C 0.62208 0.43302 0.43156 0.0
C389 C 0.62523 0.46572 0.41941 0.0
C390 C 0.60425 0.47724 0.39192 0.0
C391 C 0.58047 0.45681 0.37739 0.0
H392 H 0.62132 0.43241 0.98821 0.0
H393 H 0.70607 0.47001 0.9279 0.0
H394 H 0.58835 0.4747 0.96032 0.0
H395 H 0.67224 0.51159 0.89854 0.0
H396 H 0.58001 0.55175 0.83003 0.0
H397 H 0.61787 0.51123 0.85428 0.0
H398 H 0.59232 0.54042 0.96758 0.0
H399 H 0.55501 0.58111 0.94376 0.0
C400 C 0.63299 0.44973 0.96911 0.0
C401 C 0.66653 0.44824 0.96095 0.0
C402 C 0.61402 0.47377 0.95299 0.0
C403 C 0.62795 0.49645 0.92774 0.0
C404 C 0.66108 0.49425 0.91804 0.0
C405 C 0.68032 0.47043 0.93472 0.0
C406 C 0.58271 0.54969 0.8601 0.0
C407 C 0.56439 0.56948 0.88501 0.0
C408 C 0.60445 0.52669 0.87385 0.0
C409 C 0.6077 0.52277 0.91267 0.0
C410 C 0.58999 0.54298 0.9375 0.0
C411 C 0.56875 0.5663 0.92382 0.0
H412 H 0.38464 0.57884 0.47767 0.0
H413 H 0.29427 0.53827 0.43941 0.0
H414 H 0.41343 0.53124 0.45327 0.0
H415 H 0.32387 0.49128 0.4131 0.0
H416 H 0.40878 0.43983 0.33598 0.0
H417 H 0.37333 0.48328 0.36051 0.0
H418 H 0.40914 0.46719 0.4716 0.0
H419 H 0.44412 0.42344 0.44751 0.0
C420 C 0.37081 0.55978 0.46422 0.0
C421 C 0.33693 0.56224 0.4612 0.0
C422 C 0.38741 0.5326 0.4501 0.0
C423 C 0.37074 0.50752 0.43183 0.0
C424 C 0.33717 0.51037 0.42722 0.0
C425 C 0.32034 0.53738 0.44205 0.0
C426 C 0.40869 0.4452 0.36575 0.0
C427 C 0.42939 0.42832 0.38978 0.0
C428 C 0.38833 0.46994 0.37973 0.0
C429 C 0.3888 0.47861 0.41779 0.0
C430 C 0.40855 0.461 0.44206 0.0
C431 C 0.42842 0.43588 0.42827 0.0
H432 H 0.8072 0.98083 0.01752 0.0
H433 H 0.82664 0.92465 0.91709 0.0
H434 H 0.8357 0.02781 0.98966 0.0
H435 H 0.85656 0.97083 0.88962 0.0
H436 H 0.89975 0.0622 0.84047 0.0
H437 H 0.85886 0.02385 0.86458 0.0
H438 H 0.8899 0.04238 0.97759 0.0
H439 H 0.92967 0.08179 0.9535 0.0
C440 C 0.81722 0.97882 0.98918 0.0
C441 C 0.8148 0.94925 0.96937 0.0
C442 C 0.83388 0.00556 0.97334 0.0
C443 C 0.84904 0.0031 0.93757 0.0
C444 C 0.84499 0.97393 0.91702 0.0
C445 C 0.82786 0.94736 0.9327 0.0
C446 C 0.89754 0.05835 0.87053 0.0
C447 C 0.91814 0.07488 0.89506 0.0
C448 C 0.87418 0.03619 0.88436 0.0
C449 C 0.87112 0.0296 0.92306 0.0
C450 C 0.89105 0.04706 0.94767 0.0
C451 C 0.91409 0.06959 0.93386 0.0
H452 H 0.18707 0.0643 0.41768 0.0
H453 H 0.17395 0.01337 0.52345 0.0
H454 H 0.15534 0.02228 0.38695 0.0
H455 H 0.14021 0.97287 0.49346 0.0
H456 H 0.09468 0.89238 0.42796 0.0
H457 H 0.13624 0.92864 0.45213 0.0
H458 H 0.10035 0.0076 0.38397 0.0
H459 H 0.05995 0.97091 0.35859 0.0
C460 C 0.17772 0.044 0.43434 0.0
C461 C 0.18277 0.04248 0.47317 0.0
C462 C 0.15906 0.02012 0.41681 0.0
C463 C 0.14471 0.99437 0.43775 0.0
C464 C 0.15099 0.99213 0.47626 0.0
C465 C 0.16997 0.01572 0.49365 0.0
C466 C 0.09586 0.91744 0.41799 0.0
C467 C 0.07391 0.92884 0.39156 0.0
C468 C 0.11961 0.9383 0.43195 0.0
C469 C 0.12162 0.97119 0.42024 0.0
C470 C 0.1 0.98233 0.3932 0.0
C471 C 0.0766 0.96134 0.37883 0.0
H472 H 0.17383 0.99009 0.02099 0.0
H473 H 0.18335 0.93864 0.91529 0.0
H474 H 0.13853 0.0297 0.99234 0.0
H475 H 0.15028 0.97987 0.8858 0.0
H476 H 0.05412 0.0292 0.86028 0.0
H477 H 0.0953 0.99336 0.88494 0.0
H478 H 0.13209 0.07344 0.95112 0.0
H479 H 0.08968 0.10877 0.9278 0.0
C480 C 0.16878 0.98746 0.99148 0.0
C481 C 0.18104 0.96077 0.97068 0.0
C482 C 0.14887 0.01055 0.97483 0.0
C483 C 0.14115 0.00788 0.93674 0.0
C484 C 0.15504 0.98231 0.9154 0.0
C485 C 0.17454 0.95891 0.93221 0.0
C486 C 0.0711 0.03916 0.87998 0.0
C487 C 0.06849 0.07169 0.89237 0.0
C488 C 0.09496 0.01868 0.89393 0.0
C489 C 0.11716 0.03041 0.92011 0.0
C490 C 0.11506 0.06332 0.9316 0.0
C491 C 0.09082 0.08364 0.91814 0.0
H492 H 0.78954 0.03517 0.44778 0.0
H493 H 0.878 0.07079 0.49633 0.0
H494 H 0.81945 0.9886 0.42099 0.0
H495 H 0.90699 0.02366 0.47125 0.0
H496 H 0.93963 0.91831 0.4556 0.0
H497 H 0.9035 0.95999 0.48229 0.0
H498 H 0.86917 0.98198 0.37183 0.0
H499 H 0.90557 0.94056 0.34484 0.0
C500 C 0.81525 0.03321 0.45272 0.0
C501 C 0.83119 0.05666 0.47467 0.0
C502 C 0.83225 0.00643 0.4376 0.0
C503 C 0.86533 0.00236 0.44465 0.0
C504 C 0.88131 0.02586 0.46614 0.0
C505 C 0.86457 0.05281 0.48063 0.0
C506 C 0.92399 0.93158 0.43704 0.0
C507 C 0.92569 0.92633 0.39806 0.0
C508 C 0.90345 0.95553 0.45232 0.0
C509 C 0.8838 0.97427 0.42902 0.0
C510 C 0.88402 0.96776 0.39036 0.0
C511 C 0.90497 0.94418 0.37496 0.0
H512 H 0.3052 0.41441 0.11021 0.0
H513 H 0.33609 0.32246 0.06217 0.0
H514 H 0.33713 0.40378 0.16551 0.0
H515 H 0.36928 0.31215 0.11681 0.0
H516 H 0.41792 0.29786 0.22956 0.0
H517 H 0.37531 0.30213 0.18337 0.0
H518 H 0.39408 0.40604 0.17353 0.0
H519 H 0.43559 0.40204 0.21987 0.0
C520 C 0.31837 0.39158 0.11199 0.0
C521 C 0.31835 0.36927 0.0821 0.0
C522 C 0.33695 0.3856 0.14339 0.0
C523 C 0.35643 0.35746 0.14525 0.0
C524 C 0.35452 0.334 0.11643 0.0
C525 C 0.33553 0.33984 0.08514 0.0
C526 C 0.41279 0.32162 0.21764 0.0
C527 C 0.43027 0.34958 0.22852 0.0
C528 C 0.3884 0.32405 0.19111 0.0
C529 C 0.38099 0.35447 0.17494 0.0
C530 C 0.39847 0.38232 0.18599 0.0
C531 C 0.42263 0.37995 0.21243 0.0
H532 H 0.67293 0.66171 0.55735 0.0
H533 H 0.69787 0.57002 0.60901 0.0
H534 H 0.63828 0.67533 0.61201 0.0
H535 H 0.66457 0.58395 0.66431 0.0
H536 H 0.56441 0.59212 0.71956 0.0
H537 H 0.60718 0.5847 0.67275 0.0
H538 H 0.63115 0.6877 0.67858 0.0
H539 H 0.58722 0.69548 0.7253 0.0
C540 C 0.67175 0.64504 0.58102 0.0
C541 C 0.68764 0.61476 0.57912 0.0
C542 C 0.65202 0.65279 0.61233 0.0
C543 C 0.64817 0.63043 0.64223 0.0
C544 C 0.66631 0.60132 0.64134 0.0
C545 C 0.68557 0.59342 0.60992 0.0
C546 C 0.57878 0.61329 0.71116 0.0
C547 C 0.57223 0.64444 0.72624 0.0
C548 C 0.60364 0.60894 0.68446 0.0
C549 C 0.62291 0.63553 0.67217 0.0
C550 C 0.61664 0.66674 0.68735 0.0
C551 C 0.59153 0.67116 0.71415 0.0
H552 H 0.68958 0.33122 0.06728 0.0
H553 H 0.68122 0.43369 0.09572 0.0
H554 H 0.66228 0.31657 0.12659 0.0
H555 H 0.65215 0.41941 0.15341 0.0
H556 H 0.60553 0.39061 0.2603 0.0
H557 H 0.64902 0.39713 0.21327 0.0
H558 H 0.60803 0.3182 0.14863 0.0
H559 H 0.56572 0.31059 0.19695 0.0
C560 C 0.6825 0.35059 0.08653 0.0
C561 C 0.68703 0.38364 0.07656 0.0
C562 C 0.66641 0.34223 0.1203 0.0
C563 C 0.65434 0.36676 0.14458 0.0
C564 C 0.66115 0.39972 0.13574 0.0
C565 C 0.67751 0.40801 0.10231 0.0
C566 C 0.60617 0.37438 0.23625 0.0
C567 C 0.58204 0.35043 0.2319 0.0
C568 C 0.63102 0.37816 0.2092 0.0
C569 C 0.63184 0.35862 0.17669 0.0
C570 C 0.60853 0.33351 0.1734 0.0
C571 C 0.58405 0.32927 0.20094 0.0
H572 H 0.36887 0.6633 0.53885 0.0
H573 H 0.28863 0.62135 0.60266 0.0
H574 H 0.39669 0.67545 0.59689 0.0
H575 H 0.31645 0.63337 0.6612 0.0
H576 H 0.43401 0.707 0.7084 0.0
H577 H 0.39584 0.70678 0.65719 0.0
H578 H 0.36658 0.60821 0.68678 0.0
H579 H 0.40444 0.60835 0.73797 0.0
C580 C 0.35688 0.65759 0.56552 0.0
C581 C 0.32669 0.64163 0.56661 0.0
C582 C 0.37269 0.66457 0.59872 0.0
C583 C 0.3588 0.65525 0.6336 0.0
C584 C 0.32778 0.64066 0.63469 0.0
C585 C 0.31178 0.63401 0.60138 0.0
C586 C 0.41909 0.68546 0.70437 0.0
C587 C 0.42261 0.65754 0.72704 0.0
C588 C 0.39729 0.68534 0.67498 0.0
C589 C 0.37831 0.65745 0.6679 0.0
C590 C 0.38062 0.63019 0.69175 0.0
C591 C 0.40258 0.63018 0.72089 0.0
H592 H 0.87643 0.8827 0.04565 0.0
H593 H 0.78926 0.85123 0.10576 0.0
H594 H 0.90792 0.87243 0.10117 0.0
H595 H 0.82151 0.83982 0.16135 0.0
H596 H 0.91681 0.79903 0.23132 0.0
H597 H 0.8798 0.80176 0.17846 0.0
H598 H 0.89729 0.90568 0.16916 0.0
H599 H 0.93351 0.90345 0.22171 0.0
C600 C 0.86399 0.87338 0.07065 0.0
C601 C 0.83018 0.86856 0.07159 0.0
C602 C 0.8821 0.8673 0.10228 0.0
C603 C 0.86699 0.85569 0.13542 0.0
C604 C 0.83359 0.84875 0.13594 0.0
C605 C 0.81524 0.85524 0.1042 0.0
C606 C 0.91243 0.82251 0.21827 0.0
C607 C 0.92835 0.85097 0.23064 0.0
C608 C 0.89119 0.82402 0.18822 0.0
C609 C 0.88602 0.85388 0.16985 0.0
C610 C 0.9011 0.88236 0.18288 0.0
C611 C 0.9218 0.88099 0.21304 0.0
H612 H 0.16989 0.16423 0.56138 0.0
H613 H 0.19991 0.07362 0.61165 0.0
H614 H 0.1364 0.17649 0.61732 0.0
H615 H 0.16788 0.08631 0.66836 0.0
H616 H 0.06892 0.09078 0.72773 0.0
H617 H 0.11128 0.0847 0.68014 0.0
H618 H 0.13006 0.18891 0.68317 0.0
H619 H 0.08645 0.19525 0.73049 0.0
C620 C 0.1701 0.14756 0.58505 0.0
C621 C 0.18711 0.11796 0.58245 0.0
C622 C 0.15103 0.15454 0.6171 0.0
C623 C 0.14898 0.13209 0.6471 0.0
C624 C 0.16822 0.10371 0.6454 0.0
C625 C 0.18679 0.09654 0.61318 0.0
C626 C 0.08212 0.11248 0.71858 0.0
C627 C 0.0741 0.14355 0.73291 0.0
C628 C 0.10676 0.10892 0.69142 0.0
C629 C 0.12437 0.13627 0.67799 0.0
C630 C 0.1168 0.16737 0.69271 0.0
C631 C 0.09187 0.17098 0.71988 0.0
H632 H 0.20165 0.92842 0.10864 0.0
H633 H 0.16963 0.83854 0.05787 0.0
H634 H 0.17065 0.91499 0.16598 0.0
H635 H 0.13712 0.82559 0.11443 0.0
H636 H 0.08823 0.80565 0.22797 0.0
H637 H 0.13139 0.81233 0.18004 0.0
H638 H 0.1144 0.91674 0.17914 0.0
H639 H 0.07257 0.91032 0.2273 0.0
C640 C 0.18832 0.9055 0.11018 0.0
C641 C 0.18776 0.88452 0.07912 0.0
C642 C 0.17033 0.8979 0.14276 0.0
C643 C 0.15077 0.86956 0.14454 0.0
C644 C 0.15201 0.84751 0.11418 0.0
C645 C 0.17052 0.85489 0.08176 0.0
C646 C 0.09397 0.83003 0.21769 0.0
C647 C 0.07685 0.85742 0.23149 0.0
C648 C 0.11864 0.83385 0.19018 0.0
C649 C 0.12658 0.8651 0.17587 0.0
C650 C 0.10963 0.89238 0.19008 0.0
C651 C 0.08527 0.88863 0.21758 0.0
H652 H 0.79468 0.09729 0.61219 0.0
H653 H 0.84657 0.17565 0.55562 0.0
H654 H 0.82381 0.10861 0.6696 0.0
H655 H 0.87687 0.18639 0.6124 0.0
H656 H 0.9186 0.09892 0.73258 0.0
H657 H 0.8785 0.09719 0.68443 0.0
H658 H 0.88015 0.20287 0.67747 0.0
H659 H 0.92137 0.20465 0.72547 0.0
C660 C 0.81178 0.11751 0.61253 0.0
C661 C 0.81841 0.13576 0.57989 0.0
C662 C 0.82875 0.12379 0.64515 0.0
C663 C 0.85317 0.14801 0.64543 0.0
C664 C 0.85811 0.16774 0.61333 0.0
C665 C 0.84082 0.16165 0.58081 0.0
C666 C 0.91038 0.12191 0.72111 0.0
C667 C 0.92352 0.15193 0.73282 0.0
C668 C 0.88699 0.12092 0.69364 0.0
C669 C 0.87586 0.14991 0.67714 0.0
C670 C 0.88837 0.18007 0.6894 0.0
C671 C 0.91194 0.18108 0.71698 0.0
loop_
_geom_bond_atom_site_label_1
_geom_bond_atom_site_label_2
_geom_bond_distance
_geom_bond_site_symmetry_2
_ccdc_geom_bond_type
H0 C7 0.929 . S
H1 C10 0.930 . S
H2 C12 0.929 . S
H3 C4 0.969 . S
C4 H3 0.969 . S
C4 O5 1.550 1_556 S
C4 H6 0.973 . S
O5 C4 1.550 1_554 S
O5 C11 1.412 . S
H6 C4 0.973 . S
C7 H0 0.929 . S
C7 C8 1.400 . S
C7 C9 1.364 1_554 S
C8 C7 1.400 . S
C8 C12 1.377 . S
C9 C7 1.364 1_556 S
C9 C10 1.374 . S
C10 H1 0.930 . S
C10 C9 1.374 . S
C10 C11 1.383 1_556 S
C11 O5 1.412 . S
C11 C10 1.383 1_554 S
C11 C12 1.394 . S
C12 H2 0.929 . S
C12 C8 1.377 . S
C12 C11 1.394 . S
H13 C20 0.929 . S
H14 C23 0.930 . S
H15 C25 0.929 . S
H16 C17 0.969 . S
C17 H16 0.969 . S
C17 O18 1.550 . S
C17 H19 0.973 . S
O18 C17 1.550 . S
O18 C24 1.412 . S
H19 C17 0.973 . S
C20 H13 0.929 . S
C20 C21 1.400 . S
C20 C22 1.364 . S
C21 C20 1.400 . S
C21 C25 1.377 . S
C22 C20 1.364 . S
C22 C23 1.374 . S
C23 H14 0.930 . S
C23 C22 1.374 . S
C23 C24 1.383 . S
C24 O18 1.412 . S
C24 C23 1.383 . S
C24 C25 1.394 . S
C25 H15 0.929 . S
C25 C21 1.377 . S
C25 C24 1.394 . S
H26 C33 0.929 . S
H27 C36 0.930 . S
H28 C38 0.929 . S
H29 C30 0.969 . S
C30 H29 0.969 . S
C30 O31 1.550 . S
C30 H32 0.973 1_556 S
O31 C30 1.550 . S
O31 C37 1.412 . S
H32 C30 0.973 1_554 S
C33 H26 0.929 . S
C33 C34 1.400 1_554 S
C33 C35 1.364 . S
C34 C33 1.400 1_556 S
C34 C38 1.377 . S
C35 C33 1.364 . S
C35 C36 1.374 . S
C36 H27 0.930 . S
C36 C35 1.374 . S
C36 C37 1.383 1_554 S
C37 O31 1.412 . S
C37 C36 1.383 1_556 S
C37 C38 1.394 . S
C38 H28 0.929 . S
C38 C34 1.377 . S
C38 C37 1.394 . S
H39 C46 0.929 . S
H40 C49 0.930 . S
H41 C51 0.929 . S
H42 C43 0.969 . S
C43 H42 0.969 . S
C43 O44 1.550 . S
C43 H45 0.973 . S
O44 C43 1.550 . S
O44 C50 1.412 . S
H45 C43 0.973 . S
C46 H39 0.929 . S
C46 C47 1.400 . S
C46 C48 1.364 . S
C47 C46 1.400 . S
C47 C51 1.377 . S
C48 C46 1.364 . S
C48 C49 1.374 . S
C49 H40 0.930 . S
C49 C48 1.374 . S
C49 C50 1.383 . S
C50 O44 1.412 . S
C50 C49 1.383 . S
C50 C51 1.394 . S
C51 H41 0.929 . S
C51 C47 1.377 . S
C51 C50 1.394 . S
H52 C59 0.929 . S
H53 C62 0.930 . S
H54 C64 0.929 . S
H55 C56 0.969 . S
C56 H55 0.969 . S
C56 O57 1.550 1_556 S
C56 H58 0.973 . S
O57 C56 1.550 1_554 S
O57 C63 1.412 . S
H58 C56 0.973 . S
C59 H52 0.929 . S
C59 C60 1.400 . S
C59 C61 1.364 1_554 S
C60 C59 1.400 . S
C60 C64 1.377 . S
C61 C59 1.364 1_556 S
C61 C62 1.374 . S
C62 H53 0.930 . S
C62 C61 1.374 . S
C62 C63 1.383 1_556 S
C63 O57 1.412 . S
C63 C62 1.383 1_554 S
C63 C64 1.394 . S
C64 H54 0.929 . S
C64 C60 1.377 . S
C64 C63 1.394 . S
H65 C72 0.929 . S
H66 C75 0.930 . S
H67 C77 0.929 . S
H68 C69 0.969 . S
C69 H68 0.969 . S
C69 O70 1.550 . S
C69 H71 0.973 . S
O70 C69 1.550 . S
O70 C76 1.412 . S
H71 C69 0.973 . S
C72 H65 0.929 . S
C72 C73 1.400 . S
C72 C74 1.364 . S
C73 C72 1.400 . S
C73 C77 1.377 . S
C74 C72 1.364 . S
C74 C75 1.374 . S
C75 H66 0.930 . S
C75 C74 1.374 . S
C75 C76 1.383 . S
C76 O70 1.412 . S
C76 C75 1.383 . S
C76 C77 1.394 . S
C77 H67 0.929 . S
C77 C73 1.377 . S
C77 C76 1.394 . S
H78 C85 0.929 . S
H79 C88 0.930 . S
H80 C90 0.929 . S
H81 C82 0.969 . S
C82 H81 0.969 . S
C82 O83 1.550 . S
C82 H84 0.973 1_556 S
O83 C82 1.550 . S
O83 C89 1.412 . S
H84 C82 0.973 1_554 S
C85 H78 0.929 . S
C85 C86 1.400 1_554 S
C85 C87 1.364 . S
C86 C85 1.400 1_556 S
C86 C90 1.377 . S
C87 C85 1.364 . S
C87 C88 1.374 . S
C88 H79 0.930 . S
C88 C87 1.374 . S
C88 C89 1.383 1_554 S
C89 O83 1.412 . S
C89 C88 1.383 1_556 S
C89 C90 1.394 . S
C90 H80 0.929 . S
C90 C86 1.377 . S
C90 C89 1.394 . S
H91 C98 0.929 . S
H92 C101 0.930 . S
H93 C103 0.929 . S
H94 C95 0.969 . S
C95 H94 0.969 . S
C95 O96 1.550 . S
C95 H97 0.973 . S
O96 C95 1.550 . S
O96 C102 1.412 . S
H97 C95 0.973 . S
C98 H91 0.929 . S
C98 C99 1.400 . S
C98 C100 1.364 . S
C99 C98 1.400 . S
C99 C103 1.377 . S
C100 C98 1.364 . S
C100 C101 1.374 . S
C101 H92 0.930 . S
C101 C100 1.374 . S
C101 C102 1.383 . S
C102 O96 1.412 . S
C102 C101 1.383 . S
C102 C103 1.394 . S
C103 H93 0.929 . S
C103 C99 1.377 . S
C103 C102 1.394 . S
Sc104 O107 2.025 . S
Sc104 O114 2.105 1_455 S
Sc104 O117 2.105 . S
Sc104 O120 2.105 . S
Sc104 O123 2.105 1_455 S
Sc105 O107 2.025 . S
Sc105 O115 2.105 1_455 S
Sc105 O119 2.105 . S
Sc105 O121 2.105 . S
Sc105 O125 2.105 1_455 S
Sc106 O107 2.025 . S
Sc106 O116 2.083 1_455 S
Sc106 O118 2.126 . S
Sc106 O122 2.126 . S
Sc106 O124 2.083 1_455 S
O107 Sc104 2.025 . S
O107 Sc105 2.025 . S
O107 Sc106 2.025 . S
C108 O114 1.268 . S
C108 O124 1.268 . S
C109 O115 1.268 . S
C109 O123 1.268 . S
C110 O116 1.268 . S
C110 O125 1.268 . S
C111 O117 1.268 . S
C111 O121 1.268 . S
C112 O118 1.268 . S
C112 O120 1.268 . S
C113 O119 1.268 . S
C113 O122 1.268 . S
O114 Sc104 2.105 1_655 S
O114 C108 1.268 . S
O115 Sc105 2.105 1_655 S
O115 C109 1.268 . S
O116 Sc106 2.083 1_655 S
O116 C110 1.268 . S
O117 Sc104 2.105 . S
O117 C111 1.268 . S
O118 Sc106 2.126 . S
O118 C112 1.268 . S
O119 Sc105 2.105 . S
O119 C113 1.268 . S
O120 Sc104 2.105 . S
O120 C112 1.268 . S
O121 Sc105 2.105 . S
O121 C111 1.268 . S
O122 Sc106 2.126 . S
O122 C113 1.268 . S
O123 Sc104 2.105 1_655 S
O123 C109 1.268 . S
O124 Sc106 2.083 1_655 S
O124 C108 1.268 . S
O125 Sc105 2.105 1_655 S
O125 C110 1.268 . S
Sc126 O129 2.025 . S
Sc126 O136 2.105 . S
Sc126 O139 2.105 1_455 S
Sc126 O142 2.105 1_455 S
Sc126 O145 2.105 . S
Sc127 O129 2.025 . S
Sc127 O137 2.105 . S
Sc127 O141 2.105 1_455 S
Sc127 O143 2.105 1_455 S
Sc127 O147 2.105 . S
Sc128 O129 2.025 . S
Sc128 O138 2.126 . S
Sc128 O140 2.083 1_455 S
Sc128 O144 2.083 1_455 S
Sc128 O146 2.126 . S
O129 Sc126 2.025 . S
O129 Sc127 2.025 . S
O129 Sc128 2.025 . S
C130 O136 1.268 . S
C130 O146 1.268 . S
C131 O137 1.268 . S
C131 O145 1.268 . S
C132 O138 1.268 . S
C132 O147 1.268 . S
C133 O139 1.268 . S
C133 O143 1.268 . S
C134 O140 1.268 . S
C134 O142 1.268 . S
C135 O141 1.268 . S
C135 O144 1.268 . S
O136 Sc126 2.105 . S
O136 C130 1.268 . S
O137 Sc127 2.105 . S
O137 C131 1.268 . S
O138 Sc128 2.126 . S
O138 C132 1.268 . S
O139 Sc126 2.105 1_655 S
O139 C133 1.268 . S
O140 Sc128 2.083 1_655 S
O140 C134 1.268 . S
O141 Sc127 2.105 1_655 S
O141 C135 1.268 . S
O142 Sc126 2.105 1_655 S
O142 C134 1.268 . S
O143 Sc127 2.105 1_655 S
O143 C133 1.268 . S
O144 Sc128 2.083 1_655 S
O144 C135 1.268 . S
O145 Sc126 2.105 . S
O145 C131 1.268 . S
O146 Sc128 2.126 . S
O146 C130 1.268 . S
O147 Sc127 2.105 . S
O147 C132 1.268 . S
Sc148 O151 2.025 . S
Sc148 O158 2.105 . S
Sc148 O161 2.105 . S
Sc148 O164 2.105 . S
Sc148 O167 2.105 . S
Sc149 O151 2.025 . S
Sc149 O159 2.105 . S
Sc149 O163 2.105 . S
Sc149 O165 2.105 . S
Sc149 O169 2.105 . S
Sc150 O151 2.025 . S
Sc150 O160 2.105 . S
Sc150 O162 2.105 . S
Sc150 O166 2.105 . S
Sc150 O168 2.105 . S
O151 Sc148 2.025 . S
O151 Sc149 2.025 . S
O151 Sc150 2.025 . S
C152 O158 1.268 . S
C152 O168 1.268 . S
C153 O159 1.268 . S
C153 O167 1.268 . S
C154 O160 1.268 . S
C154 O169 1.268 . S
C155 O161 1.268 . S
C155 O165 1.268 . S
C156 O162 1.268 . S
C156 O164 1.268 . S
C157 O163 1.268 . S
C157 O166 1.268 . S
O158 Sc148 2.105 . S
O158 C152 1.268 . S
O159 Sc149 2.105 . S
O159 C153 1.268 . S
O160 Sc150 2.105 . S
O160 C154 1.268 . S
O161 Sc148 2.105 . S
O161 C155 1.268 . S
O162 Sc150 2.105 . S
O162 C156 1.268 . S
O163 Sc149 2.105 . S
O163 C157 1.268 . S
O164 Sc148 2.105 . S
O164 C156 1.268 . S
O165 Sc149 2.105 . S
O165 C155 1.268 . S
O166 Sc150 2.105 . S
O166 C157 1.268 . S
O167 Sc148 2.105 . S
O167 C153 1.268 . S
O168 Sc150 2.105 . S
O168 C152 1.268 . S
O169 Sc149 2.105 . S
O169 C154 1.268 . S
Sc170 O173 2.025 . S
Sc170 O180 2.105 . S
Sc170 O183 2.105 . S
Sc170 O186 2.105 . S
Sc170 O189 2.105 . S
Sc171 O173 2.025 . S
Sc171 O181 2.105 . S
Sc171 O185 2.105 . S
Sc171 O187 2.105 . S
Sc171 O191 2.105 . S
Sc172 O173 2.025 . S
Sc172 O182 2.105 . S
Sc172 O184 2.105 . S
Sc172 O188 2.105 . S
Sc172 O190 2.105 . S
O173 Sc170 2.025 . S
O173 Sc171 2.025 . S
O173 Sc172 2.025 . S
C174 O180 1.268 . S
C174 O190 1.268 . S
C175 O181 1.268 . S
C175 O189 1.268 . S
C176 O182 1.268 . S
C176 O191 1.268 . S
C177 O183 1.268 . S
C177 O187 1.268 . S
C178 O184 1.268 . S
C178 O186 1.268 . S
C179 O185 1.268 . S
C179 O188 1.268 . S
O180 Sc170 2.105 . S
O180 C174 1.268 . S
O181 Sc171 2.105 . S
O181 C175 1.268 . S
O182 Sc172 2.105 . S
O182 C176 1.268 . S
O183 Sc170 2.105 . S
O183 C177 1.268 . S
O184 Sc172 2.105 . S
O184 C178 1.268 . S
O185 Sc171 2.105 . S
O185 C179 1.268 . S
O186 Sc170 2.105 . S
O186 C178 1.268 . S
O187 Sc171 2.105 . S
O187 C177 1.268 . S
O188 Sc172 2.105 . S
O188 C179 1.268 . S
O189 Sc170 2.105 . S
O189 C175 1.268 . S
O190 Sc172 2.105 . S
O190 C174 1.268 . S
O191 Sc171 2.105 . S
O191 C176 1.268 . S
H192 C200 0.950 . S
H193 C205 0.950 1_554 S
H194 C202 0.950 . S
H195 C204 0.950 . S
H196 C206 0.950 . S
H197 C208 0.950 . S
H198 C210 0.950 . S
H199 C211 0.950 . S
C200 H192 0.950 . S
C200 C201 1.386 . S
C200 C202 1.391 . S
C201 C200 1.386 . S
C201 C205 1.393 . S
C202 H194 0.950 . S
C202 C200 1.391 . S
C202 C203 1.400 . S
C203 C202 1.400 . S
C203 C204 1.398 . S
C203 C209 1.491 . S
C204 H195 0.950 . S
C204 C203 1.398 . S
C204 C205 1.391 . S
C205 H193 0.950 1_556 S
C205 C201 1.393 . S
C205 C204 1.391 . S
C206 H196 0.950 . S
C206 C207 1.386 . S
C206 C208 1.391 . S
C207 C206 1.386 . S
C207 C211 1.393 . S
C208 H197 0.950 . S
C208 C206 1.391 . S
C208 C209 1.400 . S
C209 C203 1.491 . S
C209 C208 1.400 . S
C209 C210 1.398 . S
C210 H198 0.950 . S
C210 C209 1.398 . S
C210 C211 1.391 . S
C211 H199 0.950 . S
C211 C207 1.393 . S
C211 C210 1.391 . S
H212 C220 0.950 . S
H213 C225 0.950 . S
H214 C222 0.950 . S
H215 C224 0.950 . S
H216 C226 0.950 . S
H217 C228 0.950 . S
H218 C230 0.950 . S
H219 C231 0.950 . S
C220 H212 0.950 . S
C220 C221 1.386 . S
C220 C222 1.391 . S
C221 C220 1.386 . S
C221 C225 1.393 . S
C222 H214 0.950 . S
C222 C220 1.391 . S
C222 C223 1.400 . S
C223 C222 1.400 . S
C223 C224 1.398 . S
C223 C229 1.491 . S
C224 H215 0.950 . S
C224 C223 1.398 . S
C224 C225 1.391 . S
C225 H213 0.950 . S
C225 C221 1.393 . S
C225 C224 1.391 . S
C226 H216 0.950 . S
C226 C227 1.386 . S
C226 C228 1.391 . S
C227 C226 1.386 . S
C227 C231 1.393 . S
C228 H217 0.950 . S
C228 C226 1.391 . S
C228 C229 1.400 . S
C229 C223 1.491 . S
C229 C228 1.400 . S
C229 C230 1.398 . S
C230 H218 0.950 . S
C230 C229 1.398 . S
C230 C231 1.391 . S
C231 H219 0.950 . S
C231 C227 1.393 . S
C231 C230 1.391 . S
H232 C240 0.950 . S
H233 C245 0.950 1_554 S
H234 C242 0.950 . S
H235 C244 0.950 . S
H236 C246 0.950 . S
H237 C248 0.950 . S
H238 C250 0.950 . S
H239 C251 0.950 . S
C240 H232 0.950 . S
C240 C241 1.386 . S
C240 C242 1.391 . S
C241 C240 1.386 . S
C241 C245 1.393 . S
C242 H234 0.950 . S
C242 C240 1.391 . S
C242 C243 1.400 . S
C243 C242 1.400 . S
C243 C244 1.398 . S
C243 C249 1.491 . S
C244 H235 0.950 . S
C244 C243 1.398 . S
C244 C245 1.391 . S
C245 H233 0.950 1_556 S
C245 C241 1.393 . S
C245 C244 1.391 . S
C246 H236 0.950 . S
C246 C247 1.386 . S
C246 C248 1.391 . S
C247 C246 1.386 . S
C247 C251 1.393 . S
C248 H237 0.950 . S
C248 C246 1.391 . S
C248 C249 1.400 . S
C249 C243 1.491 . S
C249 C248 1.400 . S
C249 C250 1.398 . S
C250 H238 0.950 . S
C250 C249 1.398 . S
C250 C251 1.391 . S
C251 H239 0.950 . S
C251 C247 1.393 . S
C251 C250 1.391 . S
H252 C260 0.950 . S
H253 C265 0.950 . S
H254 C262 0.950 . S
H255 C264 0.950 . S
H256 C266 0.950 . S
H257 C268 0.950 . S
H258 C270 0.950 . S
H259 C271 0.950 . S
C260 H252 0.950 . S
C260 C261 1.386 . S
C260 C262 1.391 . S
C261 C260 1.386 . S
C261 C265 1.393 . S
C262 H254 0.950 . S
C262 C260 1.391 . S
C262 C263 1.400 . S
C263 C262 1.400 . S
C263 C264 1.398 . S
C263 C269 1.491 . S
C264 H255 0.950 . S
C264 C263 1.398 . S
C264 C265 1.391 . S
C265 H253 0.950 . S
C265 C261 1.393 . S
C265 C264 1.391 . S
C266 H256 0.950 . S
C266 C267 1.386 . S
C266 C268 1.391 . S
C267 C266 1.386 . S
C267 C271 1.393 . S
C268 H257 0.950 . S
C268 C266 1.391 . S
C268 C269 1.400 . S
C269 C263 1.491 . S
C269 C268 1.400 . S
C269 C270 1.398 . S
C270 H258 0.950 . S
C270 C269 1.398 . S
C270 C271 1.391 . S
C271 H259 0.950 . S
C271 C267 1.393 . S
C271 C270 1.391 . S
H272 C280 0.950 . S
H273 C285 0.950 1_554 S
H274 C282 0.950 . S
H275 C284 0.950 . S
H276 C286 0.950 . S
H277 C288 0.950 . S
H278 C290 0.950 . S
H279 C291 0.950 . S
C280 H272 0.950 . S
C280 C281 1.386 . S
C280 C282 1.391 . S
C281 C280 1.386 . S
C281 C285 1.393 . S
C282 H274 0.950 . S
C282 C280 1.391 . S
C282 C283 1.400 . S
C283 C282 1.400 . S
C283 C284 1.398 . S
C283 C289 1.491 . S
C284 H275 0.950 . S
C284 C283 1.398 . S
C284 C285 1.391 . S
C285 H273 0.950 1_556 S
C285 C281 1.393 . S
C285 C284 1.391 . S
C286 H276 0.950 . S
C286 C287 1.386 . S
C286 C288 1.391 . S
C287 C286 1.386 . S
C287 C291 1.393 . S
C288 H277 0.950 . S
C288 C286 1.391 . S
C288 C289 1.400 . S
C289 C283 1.491 . S
C289 C288 1.400 . S
C289 C290 1.398 . S
C290 H278 0.950 . S
C290 C289 1.398 . S
C290 C291 1.391 . S
C291 H279 0.950 . S
C291 C287 1.393 . S
C291 C290 1.391 . S
H292 C300 0.950 . S
H293 C305 0.950 . S
H294 C302 0.950 . S
H295 C304 0.950 . S
H296 C306 0.950 . S
H297 C308 0.950 . S
H298 C310 0.950 . S
H299 C311 0.950 . S
C300 H292 0.950 . S
C300 C301 1.386 . S
C300 C302 1.391 . S
C301 C300 1.386 . S
C301 C305 1.393 . S
C302 H294 0.950 . S
C302 C300 1.391 . S
C302 C303 1.400 . S
C303 C302 1.400 . S
C303 C304 1.398 . S
C303 C309 1.491 . S
C304 H295 0.950 . S
C304 C303 1.398 . S
C304 C305 1.391 . S
C305 H293 0.950 . S
C305 C301 1.393 . S
C305 C304 1.391 . S
C306 H296 0.950 . S
C306 C307 1.386 . S
C306 C308 1.391 . S
C307 C306 1.386 . S
C307 C311 1.393 . S
C308 H297 0.950 . S
C308 C306 1.391 . S
C308 C309 1.400 . S
C309 C303 1.491 . S
C309 C308 1.400 . S
C309 C310 1.398 . S
C310 H298 0.950 . S
C310 C309 1.398 . S
C310 C311 1.391 . S
C311 H299 0.950 . S
C311 C307 1.393 . S
C311 C310 1.391 . S
H312 C320 0.950 . S
H313 C325 0.950 . S
H314 C322 0.950 . S
H315 C324 0.950 . S
H316 C326 0.950 . S
H317 C328 0.950 . S
H318 C330 0.950 . S
H319 C331 0.950 . S
C320 H312 0.950 . S
C320 C321 1.386 . S
C320 C322 1.391 . S
C321 C320 1.386 . S
C321 C325 1.393 . S
C322 H314 0.950 . S
C322 C320 1.391 . S
C322 C323 1.400 . S
C323 C322 1.400 . S
C323 C324 1.398 . S
C323 C329 1.491 . S
C324 H315 0.950 . S
C324 C323 1.398 . S
C324 C325 1.391 . S
C325 H313 0.950 . S
C325 C321 1.393 . S
C325 C324 1.391 . S
C326 H316 0.950 . S
C326 C327 1.386 . S
C326 C328 1.391 . S
C327 C326 1.386 . S
C327 C331 1.393 . S
C328 H317 0.950 . S
C328 C326 1.391 . S
C328 C329 1.400 . S
C329 C323 1.491 . S
C329 C328 1.400 . S
C329 C330 1.398 . S
C330 H318 0.950 . S
C330 C329 1.398 . S
C330 C331 1.391 . S
C331 H319 0.950 . S
C331 C327 1.393 . S
C331 C330 1.391 . S
H332 C340 0.950 . S
H333 C345 0.950 . S
H334 C342 0.950 . S
H335 C344 0.950 . S
H336 C346 0.950 . S
H337 C348 0.950 . S
H338 C350 0.950 . S
H339 C351 0.950 . S
C340 H332 0.950 . S
C340 C341 1.386 . S
C340 C342 1.391 . S
C341 C340 1.386 . S
C341 C345 1.393 . S
C342 H334 0.950 . S
C342 C340 1.391 . S
C342 C343 1.400 . S
C343 C342 1.400 . S
C343 C344 1.398 . S
C343 C349 1.491 . S
C344 H335 0.950 . S
C344 C343 1.398 . S
C344 C345 1.391 . S
C345 H333 0.950 . S
C345 C341 1.393 . S
C345 C344 1.391 . S
C346 H336 0.950 . S
C346 C347 1.386 . S
C346 C348 1.391 . S
C347 C346 1.386 . S
C347 C351 1.393 . S
C348 H337 0.950 . S
C348 C346 1.391 . S
C348 C349 1.400 . S
C349 C343 1.491 . S
C349 C348 1.400 . S
C349 C350 1.398 . S
C350 H338 0.950 . S
C350 C349 1.398 . S
C350 C351 1.391 . S
C351 H339 0.950 . S
C351 C347 1.393 . S
C351 C350 1.391 . S
H352 C360 0.950 1_554 S
H353 C365 0.950 . S
H354 C362 0.950 . S
H355 C364 0.950 . S
H356 C366 0.950 . S
H357 C368 0.950 . S
H358 C370 0.950 . S
H359 C371 0.950 . S
C360 H352 0.950 1_556 S
C360 C361 1.386 . S
C360 C362 1.391 . S
C361 C360 1.386 . S
C361 C365 1.393 . S
C362 H354 0.950 . S
C362 C360 1.391 . S
C362 C363 1.400 . S
C363 C362 1.400 . S
C363 C364 1.398 . S
C363 C369 1.491 . S
C364 H355 0.950 . S
C364 C363 1.398 . S
C364 C365 1.391 . S
C365 H353 0.950 . S
C365 C361 1.393 . S
C365 C364 1.391 . S
C366 H356 0.950 . S
C366 C367 1.386 . S
C366 C368 1.391 . S
C367 C366 1.386 . S
C367 C371 1.393 . S
C368 H357 0.950 . S
C368 C366 1.391 . S
C368 C369 1.400 . S
C369 C363 1.491 . S
C369 C368 1.400 . S
C369 C370 1.398 . S
C370 H358 0.950 . S
C370 C369 1.398 . S
C370 C371 1.391 . S
C371 H359 0.950 . S
C371 C367 1.393 . S
C371 C370 1.391 . S
H372 C380 0.950 . S
H373 C385 0.950 . S
H374 C382 0.950 . S
H375 C384 0.950 . S
H376 C386 0.950 . S
H377 C388 0.950 . S
H378 C390 0.950 . S
H379 C391 0.950 . S
C380 H372 0.950 . S
C380 C381 1.386 . S
C380 C382 1.391 . S
C381 C380 1.386 . S
C381 C385 1.393 . S
C382 H374 0.950 . S
C382 C380 1.391 . S
C382 C383 1.400 . S
C383 C382 1.400 . S
C383 C384 1.398 . S
C383 C389 1.491 . S
C384 H375 0.950 . S
C384 C383 1.398 . S
C384 C385 1.391 . S
C385 H373 0.950 . S
C385 C381 1.393 . S
C385 C384 1.391 . S
C386 H376 0.950 . S
C386 C387 1.386 . S
C386 C388 1.391 . S
C387 C386 1.386 . S
C387 C391 1.393 . S
C388 H377 0.950 . S
C388 C386 1.391 . S
C388 C389 1.400 . S
C389 C383 1.491 . S
C389 C388 1.400 . S
C389 C390 1.398 . S
C390 H378 0.950 . S
C390 C389 1.398 . S
C390 C391 1.391 . S
C391 H379 0.950 . S
C391 C387 1.393 . S
C391 C390 1.391 . S
H392 C400 0.950 1_554 S
H393 C405 0.950 . S
H394 C402 0.950 . S
H395 C404 0.950 . S
H396 C406 0.950 . S
H397 C408 0.950 . S
H398 C410 0.950 . S
H399 C411 0.950 . S
C400 H392 0.950 1_556 S
C400 C401 1.386 . S
C400 C402 1.391 . S
C401 C400 1.386 . S
C401 C405 1.393 . S
C402 H394 0.950 . S
C402 C400 1.391 . S
C402 C403 1.400 . S
C403 C402 1.400 . S
C403 C404 1.398 . S
C403 C409 1.491 . S
C404 H395 0.950 . S
C404 C403 1.398 . S
C404 C405 1.391 . S
C405 H393 0.950 . S
C405 C401 1.393 . S
C405 C404 1.391 . S
C406 H396 0.950 . S
C406 C407 1.386 . S
C406 C408 1.391 . S
C407 C406 1.386 . S
C407 C411 1.393 . S
C408 H397 0.950 . S
C408 C406 1.391 . S
C408 C409 1.400 . S
C409 C403 1.491 . S
C409 C408 1.400 . S
C409 C410 1.398 . S
C410 H398 0.950 . S
C410 C409 1.398 . S
C410 C411 1.391 . S
C411 H399 0.950 . S
C411 C407 1.393 . S
C411 C410 1.391 . S
H412 C420 0.950 . S
H413 C425 0.950 . S
H414 C422 0.950 . S
H415 C424 0.950 . S
H416 C426 0.950 . S
H417 C428 0.950 . S
H418 C430 0.950 . S
H419 C431 0.950 . S
C420 H412 0.950 . S
C420 C421 1.386 . S
C420 C422 1.391 . S
C421 C420 1.386 . S
C421 C425 1.393 . S
C422 H414 0.950 . S
C422 C420 1.391 . S
C422 C423 1.400 . S
C423 C422 1.400 . S
C423 C424 1.398 . S
C423 C429 1.491 . S
C424 H415 0.950 . S
C424 C423 1.398 . S
C424 C425 1.391 . S
C425 H413 0.950 . S
C425 C421 1.393 . S
C425 C424 1.391 . S
C426 H416 0.950 . S
C426 C427 1.386 . S
C426 C428 1.391 . S
C427 C426 1.386 . S
C427 C431 1.393 . S
C428 H417 0.950 . S
C428 C426 1.391 . S
C428 C429 1.400 . S
C429 C423 1.491 . S
C429 C428 1.400 . S
C429 C430 1.398 . S
C430 H418 0.950 . S
C430 C429 1.398 . S
C430 C431 1.391 . S
C431 H419 0.950 . S
C431 C427 1.393 . S
C431 C430 1.391 . S
H432 C440 0.950 1_554 S
H433 C445 0.950 . S
H434 C442 0.950 1_545 S
H435 C444 0.950 . S
H436 C446 0.950 . S
H437 C448 0.950 1_565 S
H438 C450 0.950 . S
H439 C451 0.950 . S
C440 H432 0.950 1_556 S
C440 C441 1.386 . S
C440 C442 1.391 . S
C441 C440 1.386 . S
C441 C445 1.393 . S
C442 H434 0.950 1_565 S
C442 C440 1.391 . S
C442 C443 1.400 . S
C443 C442 1.400 . S
C443 C444 1.398 . S
C443 C449 1.491 1_565 S
C444 H435 0.950 . S
C444 C443 1.398 . S
C444 C445 1.391 . S
C445 H433 0.950 . S
C445 C441 1.393 . S
C445 C444 1.391 . S
C446 H436 0.950 . S
C446 C447 1.386 . S
C446 C448 1.391 . S
C447 C446 1.386 . S
C447 C451 1.393 . S
C448 H437 0.950 1_545 S
C448 C446 1.391 . S
C448 C449 1.400 . S
C449 C443 1.491 1_545 S
C449 C448 1.400 . S
C449 C450 1.398 . S
C450 H438 0.950 . S
C450 C449 1.398 . S
C450 C451 1.391 . S
C451 H439 0.950 . S
C451 C447 1.393 . S
C451 C450 1.391 . S
H452 C460 0.950 . S
H453 C465 0.950 . S
H454 C462 0.950 . S
H455 C464 0.950 . S
H456 C466 0.950 . S
H457 C468 0.950 . S
H458 C470 0.950 1_545 S
H459 C471 0.950 . S
C460 H452 0.950 . S
C460 C461 1.386 . S
C460 C462 1.391 . S
C461 C460 1.386 . S
C461 C465 1.393 . S
C462 H454 0.950 . S
C462 C460 1.391 . S
C462 C463 1.400 . S
C463 C462 1.400 . S
C463 C464 1.398 1_545 S
C463 C469 1.491 1_545 S
C464 H455 0.950 . S
C464 C463 1.398 1_565 S
C464 C465 1.391 1_565 S
C465 H453 0.950 . S
C465 C461 1.393 . S
C465 C464 1.391 1_545 S
C466 H456 0.950 . S
C466 C467 1.386 . S
C466 C468 1.391 . S
C467 C466 1.386 . S
C467 C471 1.393 . S
C468 H457 0.950 . S
C468 C466 1.391 . S
C468 C469 1.400 . S
C469 C463 1.491 1_565 S
C469 C468 1.400 . S
C469 C470 1.398 . S
C470 H458 0.950 1_565 S
C470 C469 1.398 . S
C470 C471 1.391 . S
C471 H459 0.950 . S
C471 C467 1.393 . S
C471 C470 1.391 . S
H472 C480 0.950 . S
H473 C485 0.950 . S
H474 C482 0.950 . S
H475 C484 0.950 . S
H476 C486 0.950 . S
H477 C488 0.950 1_565 S
H478 C490 0.950 . S
H479 C491 0.950 . S
C480 H472 0.950 . S
C480 C481 1.386 . S
C480 C482 1.391 1_565 S
C481 C480 1.386 . S
C481 C485 1.393 . S
C482 H474 0.950 . S
C482 C480 1.391 1_545 S
C482 C483 1.400 1_545 S
C483 C482 1.400 1_565 S
C483 C484 1.398 . S
C483 C489 1.491 1_565 S
C484 H475 0.950 . S
C484 C483 1.398 . S
C484 C485 1.391 . S
C485 H473 0.950 . S
C485 C481 1.393 . S
C485 C484 1.391 . S
C486 H476 0.950 . S
C486 C487 1.386 . S
C486 C488 1.391 . S
C487 C486 1.386 . S
C487 C491 1.393 . S
C488 H477 0.950 1_545 S
C488 C486 1.391 . S
C488 C489 1.400 . S
C489 C483 1.491 1_545 S
C489 C488 1.400 . S
C489 C490 1.398 . S
C490 H478 0.950 . S
C490 C489 1.398 . S
C490 C491 1.391 . S
C491 H479 0.950 . S
C491 C487 1.393 . S
C491 C490 1.391 . S
H492 C500 0.950 . S
H493 C505 0.950 . S
H494 C502 0.950 . S
H495 C504 0.950 . S
H496 C506 0.950 . S
H497 C508 0.950 . S
H498 C510 0.950 . S
H499 C511 0.950 . S
C500 H492 0.950 . S
C500 C501 1.386 . S
C500 C502 1.391 . S
C501 C500 1.386 . S
C501 C505 1.393 . S
C502 H494 0.950 . S
C502 C500 1.391 . S
C502 C503 1.400 . S
C503 C502 1.400 . S
C503 C504 1.398 . S
C503 C509 1.491 1_545 S
C504 H495 0.950 . S
C504 C503 1.398 . S
C504 C505 1.391 . S
C505 H493 0.950 . S
C505 C501 1.393 . S
C505 C504 1.391 . S
C506 H496 0.950 . S
C506 C507 1.386 . S
C506 C508 1.391 . S
C507 C506 1.386 . S
C507 C511 1.393 . S
C508 H497 0.950 . S
C508 C506 1.391 . S
C508 C509 1.400 . S
C509 C503 1.491 1_565 S
C509 C508 1.400 . S
C509 C510 1.398 . S
C510 H498 0.950 . S
C510 C509 1.398 . S
C510 C511 1.391 . S
C511 H499 0.950 . S
C511 C507 1.393 . S
C511 C510 1.391 . S
H512 C520 0.950 . S
H513 C525 0.950 . S
H514 C522 0.950 . S
H515 C524 0.950 . S
H516 C526 0.950 . S
H517 C528 0.950 . S
H518 C530 0.950 . S
H519 C531 0.950 . S
C520 H512 0.950 . S
C520 C521 1.386 . S
C520 C522 1.391 . S
C521 C520 1.386 . S
C521 C525 1.393 . S
C522 H514 0.950 . S
C522 C520 1.391 . S
C522 C523 1.400 . S
C523 C522 1.400 . S
C523 C524 1.398 . S
C523 C529 1.491 . S
C524 H515 0.950 . S
C524 C523 1.398 . S
C524 C525 1.391 . S
C525 H513 0.950 . S
C525 C521 1.393 . S
C525 C524 1.391 . S
C526 H516 0.950 . S
C526 C527 1.386 . S
C526 C528 1.391 . S
C527 C526 1.386 . S
C527 C531 1.393 . S
C528 H517 0.950 . S
C528 C526 1.391 . S
C528 C529 1.400 . S
C529 C523 1.491 . S
C529 C528 1.400 . S
C529 C530 1.398 . S
C530 H518 0.950 . S
C530 C529 1.398 . S
C530 C531 1.391 . S
C531 H519 0.950 . S
C531 C527 1.393 . S
C531 C530 1.391 . S
H532 C540 0.950 . S
H533 C545 0.950 . S
H534 C542 0.950 . S
H535 C544 0.950 . S
H536 C546 0.950 . S
H537 C548 0.950 . S
H538 C550 0.950 . S
H539 C551 0.950 . S
C540 H532 0.950 . S
C540 C541 1.386 . S
C540 C542 1.391 . S
C541 C540 1.386 . S
C541 C545 1.393 . S
C542 H534 0.950 . S
C542 C540 1.391 . S
C542 C543 1.400 . S
C543 C542 1.400 . S
C543 C544 1.398 . S
C543 C549 1.491 . S
C544 H535 0.950 . S
C544 C543 1.398 . S
C544 C545 1.391 . S
C545 H533 0.950 . S
C545 C541 1.393 . S
C545 C544 1.391 . S
C546 H536 0.950 . S
C546 C547 1.386 . S
C546 C548 1.391 . S
C547 C546 1.386 . S
C547 C551 1.393 . S
C548 H537 0.950 . S
C548 C546 1.391 . S
C548 C549 1.400 . S
C549 C543 1.491 . S
C549 C548 1.400 . S
C549 C550 1.398 . S
C550 H538 0.950 . S
C550 C549 1.398 . S
C550 C551 1.391 . S
C551 H539 0.950 . S
C551 C547 1.393 . S
C551 C550 1.391 . S
H552 C560 0.950 . S
H553 C565 0.950 . S
H554 C562 0.950 . S
H555 C564 0.950 . S
H556 C566 0.950 . S
H557 C568 0.950 . S
H558 C570 0.950 . S
H559 C571 0.950 . S
C560 H552 0.950 . S
C560 C561 1.386 . S
C560 C562 1.391 . S
C561 C560 1.386 . S
C561 C565 1.393 . S
C562 H554 0.950 . S
C562 C560 1.391 . S
C562 C563 1.400 . S
C563 C562 1.400 . S
C563 C564 1.398 . S
C563 C569 1.491 . S
C564 H555 0.950 . S
C564 C563 1.398 . S
C564 C565 1.391 . S
C565 H553 0.950 . S
C565 C561 1.393 . S
C565 C564 1.391 . S
C566 H556 0.950 . S
C566 C567 1.386 . S
C566 C568 1.391 . S
C567 C566 1.386 . S
C567 C571 1.393 . S
C568 H557 0.950 . S
C568 C566 1.391 . S
C568 C569 1.400 . S
C569 C563 1.491 . S
C569 C568 1.400 . S
C569 C570 1.398 . S
C570 H558 0.950 . S
C570 C569 1.398 . S
C570 C571 1.391 . S
C571 H559 0.950 . S
C571 C567 1.393 . S
C571 C570 1.391 . S
H572 C580 0.950 . S
H573 C585 0.950 . S
H574 C582 0.950 . S
H575 C584 0.950 . S
H576 C586 0.950 . S
H577 C588 0.950 . S
H578 C590 0.950 . S
H579 C591 0.950 . S
C580 H572 0.950 . S
C580 C581 1.386 . S
C580 C582 1.391 . S
C581 C580 1.386 . S
C581 C585 1.393 . S
C582 H574 0.950 . S
C582 C580 1.391 . S
C582 C583 1.400 . S
C583 C582 1.400 . S
C583 C584 1.398 . S
C583 C589 1.491 . S
C584 H575 0.950 . S
C584 C583 1.398 . S
C584 C585 1.391 . S
C585 H573 0.950 . S
C585 C581 1.393 . S
C585 C584 1.391 . S
C586 H576 0.950 . S
C586 C587 1.386 . S
C586 C588 1.391 . S
C587 C586 1.386 . S
C587 C591 1.393 . S
C588 H577 0.950 . S
C588 C586 1.391 . S
C588 C589 1.400 . S
C589 C583 1.491 . S
C589 C588 1.400 . S
C589 C590 1.398 . S
C590 H578 0.950 . S
C590 C589 1.398 . S
C590 C591 1.391 . S
C591 H579 0.950 . S
C591 C587 1.393 . S
C591 C590 1.391 . S
H592 C600 0.950 . S
H593 C605 0.950 . S
H594 C602 0.950 . S
H595 C604 0.950 . S
H596 C606 0.950 . S
H597 C608 0.950 . S
H598 C610 0.950 . S
H599 C611 0.950 . S
C600 H592 0.950 . S
C600 C601 1.386 . S
C600 C602 1.391 . S
C601 C600 1.386 . S
C601 C605 1.393 . S
C602 H594 0.950 . S
C602 C600 1.391 . S
C602 C603 1.400 . S
C603 C602 1.400 . S
C603 C604 1.398 . S
C603 C609 1.491 . S
C604 H595 0.950 . S
C604 C603 1.398 . S
C604 C605 1.391 . S
C605 H593 0.950 . S
C605 C601 1.393 . S
C605 C604 1.391 . S
C606 H596 0.950 . S
C606 C607 1.386 . S
C606 C608 1.391 . S
C607 C606 1.386 . S
C607 C611 1.393 . S
C608 H597 0.950 . S
C608 C606 1.391 . S
C608 C609 1.400 . S
C609 C603 1.491 . S
C609 C608 1.400 . S
C609 C610 1.398 . S
C610 H598 0.950 . S
C610 C609 1.398 . S
C610 C611 1.391 . S
C611 H599 0.950 . S
C611 C607 1.393 . S
C611 C610 1.391 . S
H612 C620 0.950 . S
H613 C625 0.950 . S
H614 C622 0.950 . S
H615 C624 0.950 . S
H616 C626 0.950 . S
H617 C628 0.950 . S
H618 C630 0.950 . S
H619 C631 0.950 . S
C620 H612 0.950 . S
C620 C621 1.386 . S
C620 C622 1.391 . S
C621 C620 1.386 . S
C621 C625 1.393 . S
C622 H614 0.950 . S
C622 C620 1.391 . S
C622 C623 1.400 . S
C623 C622 1.400 . S
C623 C624 1.398 . S
C623 C629 1.491 . S
C624 H615 0.950 . S
C624 C623 1.398 . S
C624 C625 1.391 . S
C625 H613 0.950 . S
C625 C621 1.393 . S
C625 C624 1.391 . S
C626 H616 0.950 . S
C626 C627 1.386 . S
C626 C628 1.391 . S
C627 C626 1.386 . S
C627 C631 1.393 . S
C628 H617 0.950 . S
C628 C626 1.391 . S
C628 C629 1.400 . S
C629 C623 1.491 . S
C629 C628 1.400 . S
C629 C630 1.398 . S
C630 H618 0.950 . S
C630 C629 1.398 . S
C630 C631 1.391 . S
C631 H619 0.950 . S
C631 C627 1.393 . S
C631 C630 1.391 . S
H632 C640 0.950 . S
H633 C645 0.950 . S
H634 C642 0.950 . S
H635 C644 0.950 . S
H636 C646 0.950 . S
H637 C648 0.950 . S
H638 C650 0.950 . S
H639 C651 0.950 . S
C640 H632 0.950 . S
C640 C641 1.386 . S
C640 C642 1.391 . S
C641 C640 1.386 . S
C641 C645 1.393 . S
C642 H634 0.950 . S
C642 C640 1.391 . S
C642 C643 1.400 . S
C643 C642 1.400 . S
C643 C644 1.398 . S
C643 C649 1.491 . S
C644 H635 0.950 . S
C644 C643 1.398 . S
C644 C645 1.391 . S
C645 H633 0.950 . S
C645 C641 1.393 . S
C645 C644 1.391 . S
C646 H636 0.950 . S
C646 C647 1.386 . S
C646 C648 1.391 . S
C647 C646 1.386 . S
C647 C651 1.393 . S
C648 H637 0.950 . S
C648 C646 1.391 . S
C648 C649 1.400 . S
C649 C643 1.491 . S
C649 C648 1.400 . S
C649 C650 1.398 . S
C650 H638 0.950 . S
C650 C649 1.398 . S
C650 C651 1.391 . S
C651 H639 0.950 . S
C651 C647 1.393 . S
C651 C650 1.391 . S
H652 C660 0.950 . S
H653 C665 0.950 . S
H654 C662 0.950 . S
H655 C664 0.950 . S
H656 C666 0.950 . S
H657 C668 0.950 . S
H658 C670 0.950 . S
H659 C671 0.950 . S
C660 H652 0.950 . S
C660 C661 1.386 . S
C660 C662 1.391 . S
C661 C660 1.386 . S
C661 C665 1.393 . S
C662 H654 0.950 . S
C662 C660 1.391 . S
C662 C663 1.400 . S
C663 C662 1.400 . S
C663 C664 1.398 . S
C663 C669 1.491 . S
C664 H655 0.950 . S
C664 C663 1.398 . S
C664 C665 1.391 . S
C665 H653 0.950 . S
C665 C661 1.393 . S
C665 C664 1.391 . S
C666 H656 0.950 . S
C666 C667 1.386 . S
C666 C668 1.391 . S
C667 C666 1.386 . S
C667 C671 1.393 . S
C668 H657 0.950 . S
C668 C666 1.391 . S
C668 C669 1.400 . S
C669 C663 1.491 . S
C669 C668 1.400 . S
C669 C670 1.398 . S
C670 H658 0.950 . S
C670 C669 1.398 . S
C670 C671 1.391 . S
C671 H659 0.950 . S
C671 C667 1.393 . S
C671 C670 1.391 . S
C201 C4 1.539 . S
C207 C130 1.583 . S
C227 C108 1.458 . S
C221 C17 1.441 . S
C247 C134 1.466 . S
C241 C30 1.419 . S
C267 C112 1.578 . S
C261 C43 1.582 . S
C287 C174 1.580 . S
C281 C56 1.531 . S
C307 C152 1.458 . S
C301 C69 1.441 . S
C321 C82 1.394 . S
C327 C178 1.453 . S
C347 C156 1.580 . S
C341 C95 1.572 . S
C361 C9 1.543 . S
C367 C179 1.560 . S
C387 C157 1.422 . S
C381 C21 1.441 . S
C401 C34 1.437 . S
C407 C176 1.424 . S
C421 C48 1.541 . S
C427 C154 1.557 . S
C447 C135 1.566 . S
C441 C61 1.532 . S
C461 C73 1.438 . S
C467 C113 1.426 . S
C487 C132 1.428 . S
C481 C86 1.431 . S
C507 C110 1.564 . S
C501 C100 1.540 . S
C527 C153 1.481 . S
C521 C8 1.496 . S
C547 C175 1.500 . S
C541 C22 1.472 . S
C561 C35 1.485 . S
C567 C155 1.489 . S
C587 C177 1.488 . S
C581 C47 1.494 . S
C607 C109 1.487 . S
C601 C60 1.491 . S
C621 C74 1.473 . S
C627 C131 1.500 . S
C641 C87 1.470 . S
C647 C111 1.499 . S
C661 C99 1.492 . S
C667 C133 1.490 . S
