# Generated by pormake.
# Topology wbl, (4,4)-cn, num edge types: 1
# Building blocks:
#     Node 0, Type 0, BuildingBlock: MIFKUJ_clean_linker_1, # of connection points: 4
#     Node 1, Type 0, BuildingBlock: MIFKUJ_clean_linker_1, # of connection points: 4
#     Node 2, Type 0, BuildingBlock: MIFKUJ_clean_linker_1, # of connection points: 4
#     Node 3, Type 0, BuildingBlock: MIFKUJ_clean_linker_1, # of connection points: 4
#     Node 4, Type 0, BuildingBlock: MIFKUJ_clean_linker_1, # of connection points: 4
#     Node 5, Type 0, BuildingBlock: MIFKUJ_clean_linker_1, # of connection points: 4
#     Node 6, Type 0, BuildingBlock: MIFKUJ_clean_linker_1, # of connection points: 4
#     Node 7, Type 0, BuildingBlock: MIFKUJ_clean_linker_1, # of connection points: 4
#     Node 8, Type 1, BuildingBlock: GALJAG_clean_sbu_0, # of connection points: 4
#     Node 9, Type 1, BuildingBlock: GALJAG_clean_sbu_0, # of connection points: 4
#     Node 10, Type 1, BuildingBlock: GALJAG_clean_sbu_0, # of connection points: 4
#     Node 11, Type 1, BuildingBlock: GALJAG_clean_sbu_0, # of connection points: 4
#     Node 12, Type 1, BuildingBlock: GALJAG_clean_sbu_0, # of connection points: 4
#     Node 13, Type 1, BuildingBlock: GALJAG_clean_sbu_0, # of connection points: 4
#     Node 14, Type 1, BuildingBlock: GALJAG_clean_sbu_0, # of connection points: 4
#     Node 15, Type 1, BuildingBlock: GALJAG_clean_sbu_0, # of connection points: 4
#     Edge 16, Type (0, 1), BuildingBlock: ZUJKAS_clean_linker_0, # of connection points: 2
#     Edge 17, Type (0, 1), BuildingBlock: ZUJKAS_clean_linker_0, # of connection points: 2
#     Edge 18, Type (0, 1), BuildingBlock: ZUJKAS_clean_linker_0, # of connection points: 2
#     Edge 19, Type (0, 1), BuildingBlock: ZUJKAS_clean_linker_0, # of connection points: 2
#     Edge 20, Type (0, 1), BuildingBlock: ZUJKAS_clean_linker_0, # of connection points: 2
#     Edge 21, Type (0, 1), BuildingBlock: ZUJKAS_clean_linker_0, # of connection points: 2
#     Edge 22, Type (0, 1), BuildingBlock: ZUJKAS_clean_linker_0, # of connection points: 2
#     Edge 23, Type (0, 1), BuildingBlock: ZUJKAS_clean_linker_0, # of connection points: 2
#     Edge 24, Type (0, 1), BuildingBlock: ZUJKAS_clean_linker_0, # of connection points: 2
#     Edge 25, Type (0, 1), BuildingBlock: ZUJKAS_clean_linker_0, # of connection points: 2
#     Edge 26, Type (0, 1), BuildingBlock: ZUJKAS_clean_linker_0, # of connection points: 2
#     Edge 27, Type (0, 1), BuildingBlock: ZUJKAS_clean_linker_0, # of connection points: 2
#     Edge 28, Type (0, 1), BuildingBlock: ZUJKAS_clean_linker_0, # of connection points: 2
#     Edge 29, Type (0, 1), BuildingBlock: ZUJKAS_clean_linker_0, # of connection points: 2
#     Edge 30, Type (0, 1), BuildingBlock: ZUJKAS_clean_linker_0, # of connection points: 2
#     Edge 31, Type (0, 1), BuildingBlock: ZUJKAS_clean_linker_0, # of connection points: 2
#     Edge 32, Type (0, 1), BuildingBlock: ZUJKAS_clean_linker_0, # of connection points: 2
#     Edge 33, Type (0, 1), BuildingBlock: ZUJKAS_clean_linker_0, # of connection points: 2
#     Edge 34, Type (0, 1), BuildingBlock: ZUJKAS_clean_linker_0, # of connection points: 2
#     Edge 35, Type (0, 1), BuildingBlock: ZUJKAS_clean_linker_0, # of connection points: 2
#     Edge 36, Type (0, 1), BuildingBlock: ZUJKAS_clean_linker_0, # of connection points: 2
#     Edge 37, Type (0, 1), BuildingBlock: ZUJKAS_clean_linker_0, # of connection points: 2
#     Edge 38, Type (0, 1), BuildingBlock: ZUJKAS_clean_linker_0, # of connection points: 2
#     Edge 39, Type (0, 1), BuildingBlock: ZUJKAS_clean_linker_0, # of connection points: 2
#     Edge 40, Type (0, 1), BuildingBlock: ZUJKAS_clean_linker_0, # of connection points: 2
#     Edge 41, Type (0, 1), BuildingBlock: ZUJKAS_clean_linker_0, # of connection points: 2
#     Edge 42, Type (0, 1), BuildingBlock: ZUJKAS_clean_linker_0, # of connection points: 2
#     Edge 43, Type (0, 1), BuildingBlock: ZUJKAS_clean_linker_0, # of connection points: 2
#     Edge 44, Type (0, 1), BuildingBlock: ZUJKAS_clean_linker_0, # of connection points: 2
#     Edge 45, Type (0, 1), BuildingBlock: ZUJKAS_clean_linker_0, # of connection points: 2
#     Edge 46, Type (0, 1), BuildingBlock: ZUJKAS_clean_linker_0, # of connection points: 2
#     Edge 47, Type (0, 1), BuildingBlock: ZUJKAS_clean_linker_0, # of connection points: 2
# Relax obj value: 0.140
# Max RMSD: 0.144
# Mean RMSD: 0.131
data_MOF--net-wbl--node1-GALJAG_clean_sbu_0--node2-MIFKUJ_clean_linker_1--edge1-ZUJKAS_clean_linker_0
_symmetry_space_group_name_H-M    P1
_symmetry_Int_Tables_number       1
_symmetry_cell_setting            triclinic
loop_
_symmetry_equiv_pos_as_xyz
'x, y, z'
_cell_length_a     55.891142
_cell_length_b     56.047896
_cell_length_c     102.52035
_cell_angle_alpha  90.088007
_cell_angle_beta   90.007922
_cell_angle_gamma 89.994978
loop_
_atom_site_label
_atom_site_type_symbol
_atom_site_fract_x
_atom_site_fract_y
_atom_site_fract_z
_atom_type_partial_charge
H0 H 0.00833 0.05493 0.36398 0.0
H1 H 0.98521 0.07995 0.37889 0.0
H2 H 0.92009 0.04577 0.36591 0.0
H3 H 0.94336 0.02093 0.35089 0.0
H4 H 0.01164 0.00713 0.36498 0.0
H5 H 0.98711 0.06544 0.33354 0.0
H6 H 0.9581 0.09042 0.32205 0.0
H7 H 0.92287 0.02711 0.30749 0.0
H8 H 0.95157 0.00223 0.3193 0.0
H9 H 0.00583 0.94955 0.3181 0.0
H10 H 0.03173 0.92361 0.30493 0.0
H11 H 0.09378 0.96162 0.31911 0.0
H12 H 0.0679 0.9876 0.33202 0.0
H13 H -0.00029 0.99832 0.31727 0.0
H14 H 0.02319 0.94025 0.34938 0.0
H15 H 0.04816 0.91558 0.36355 0.0
H16 H 0.08569 0.97873 0.37659 0.0
H17 H 0.06018 0.00328 0.36267 0.0
C18 C 0.97758 0.0361 0.35632 0.0
C19 C 0.98905 0.05298 0.36427 0.0
C20 C 0.97582 0.06719 0.37282 0.0
C21 C 0.95083 0.0647 0.37367 0.0
C22 C 0.93928 0.04829 0.36539 0.0
C23 C 0.95255 0.03407 0.35682 0.0
C24 C 0.99203 0.01954 0.34824 0.0
C25 C 0.00928 0.00549 0.35451 0.0
C26 C 0.98842 0.01684 0.33466 0.0
C27 C 0.97128 0.03199 0.32741 0.0
C28 C 0.97304 0.05696 0.32793 0.0
C29 C 0.95661 0.0712 0.32126 0.0
C30 C 0.93816 0.06072 0.3139 0.0
C31 C 0.93669 0.0357 0.31322 0.0
C32 C 0.95316 0.02147 0.31988 0.0
C33 C 0.03498 0.97034 0.32611 0.0
C34 C 0.02502 0.95227 0.31832 0.0
C35 C 0.03981 0.93741 0.31088 0.0
C36 C 0.06476 0.94064 0.31098 0.0
C37 C 0.07461 0.95887 0.31872 0.0
C38 C 0.05987 0.97359 0.3262 0.0
C39 C 0.01949 0.98615 0.33402 0.0
C40 C 0.00206 1e-05 0.32773 0.0
C41 C 0.02294 0.98876 0.3476 0.0
C42 C 0.03982 0.97358 0.35501 0.0
C43 C 0.03705 0.9487 0.35515 0.0
C44 C 0.05141 0.93462 0.36323 0.0
C45 C 0.06881 0.94519 0.3713 0.0
C46 C 0.07214 0.97005 0.37071 0.0
C47 C 0.05768 0.98411 0.36271 0.0
H48 H 0.00292 0.45087 0.56787 0.0
H49 H 0.98023 0.42176 0.55506 0.0
H50 H 0.91423 0.45077 0.57029 0.0
H51 H 0.93698 0.48024 0.58276 0.0
H52 H 0.00375 0.49892 0.56747 0.0
H53 H 0.98564 0.43848 0.59937 0.0
H54 H 0.96244 0.41159 0.61331 0.0
H55 H 0.9215 0.47163 0.62752 0.0
H56 H 0.9445 0.49831 0.61346 0.0
H57 H 0.99302 0.55361 0.61497 0.0
H58 H 0.01531 0.57886 0.63015 0.0
H59 H 0.08167 0.54914 0.61579 0.0
H60 H 0.05923 0.52421 0.6005 0.0
H61 H 0.99255 0.50573 0.61532 0.0
H62 H 0.01008 0.56609 0.58413 0.0
H63 H 0.03438 0.59418 0.57165 0.0
H64 H 0.07603 0.53557 0.5563 0.0
H65 H 0.0518 0.50748 0.56901 0.0
C66 C 0.97165 0.46751 0.57639 0.0
C67 C 0.98356 0.45103 0.56838 0.0
C68 C 0.97059 0.43433 0.56114 0.0
C69 C 0.94545 0.43391 0.56172 0.0
C70 C 0.93356 0.45077 0.56955 0.0
C71 C 0.94655 0.46744 0.57679 0.0
C72 C 0.98546 0.48485 0.58428 0.0
C73 C 0.00157 0.50017 0.57796 0.0
C74 C 0.98214 0.48695 0.5979 0.0
C75 C 0.96672 0.47036 0.60536 0.0
C76 C 0.97137 0.44575 0.60531 0.0
C77 C 0.95823 0.43045 0.61334 0.0
C78 C 0.94018 0.43952 0.62151 0.0
C79 C 0.93509 0.46408 0.62122 0.0
C80 C 0.94832 0.47936 0.61327 0.0
C81 C 0.02445 0.53705 0.60661 0.0
C82 C 0.01239 0.55277 0.61499 0.0
C83 C 0.02515 0.5671 0.6237 0.0
C84 C 0.05027 0.56585 0.62427 0.0
C85 C 0.06236 0.55073 0.61551 0.0
C86 C 0.04956 0.53644 0.60677 0.0
C87 C 0.01071 0.51991 0.59852 0.0
C88 C 0.9947 0.50452 0.60482 0.0
C89 C 0.01409 0.51781 0.5849 0.0
C90 C 0.02928 0.53475 0.57757 0.0
C91 C 0.02458 0.55931 0.57818 0.0
C92 C 0.03833 0.57529 0.57095 0.0
C93 C 0.05702 0.56702 0.56296 0.0
C94 C 0.06184 0.54243 0.56244 0.0
C95 C 0.04796 0.5264 0.56963 0.0
H96 H 0.50621 0.5559 0.86456 0.0
H97 H 0.48285 0.58137 0.87911 0.0
H98 H 0.418 0.54641 0.86634 0.0
H99 H 0.44153 0.52115 0.85165 0.0
H100 H 0.50936 0.5079 0.86615 0.0
H101 H 0.48464 0.56563 0.83457 0.0
H102 H 0.4554 0.59003 0.82294 0.0
H103 H 0.42279 0.52609 0.80738 0.0
H104 H 0.45149 0.50178 0.81948 0.0
H105 H 0.50642 0.4494 0.81944 0.0
H106 H 0.53354 0.42422 0.80653 0.0
H107 H 0.59388 0.46434 0.82115 0.0
H108 H 0.56683 0.48949 0.83382 0.0
H109 H 0.49918 0.49837 0.81836 0.0
H110 H 0.52287 0.44087 0.85065 0.0
H111 H 0.54774 0.41674 0.86516 0.0
H112 H 0.5828 0.48074 0.87897 0.0
H113 H 0.55748 0.50473 0.86466 0.0
C114 C 0.47561 0.53665 0.85703 0.0
C115 C 0.48693 0.55388 0.86482 0.0
C116 C 0.47357 0.56834 0.87317 0.0
C117 C 0.44859 0.56575 0.87398 0.0
C118 C 0.43718 0.54899 0.86586 0.0
C119 C 0.4506 0.53452 0.85747 0.0
C120 C 0.49024 0.51992 0.84916 0.0
C121 C 0.50736 0.50608 0.85566 0.0
C122 C 0.48707 0.517 0.83556 0.0
C123 C 0.46998 0.53187 0.82808 0.0
C124 C 0.47106 0.55687 0.82874 0.0
C125 C 0.45451 0.57081 0.82196 0.0
C126 C 0.43669 0.56001 0.81427 0.0
C127 C 0.43604 0.53496 0.81338 0.0
C128 C 0.45254 0.52104 0.82021 0.0
C129 C 0.53466 0.47116 0.82765 0.0
C130 C 0.5255 0.45273 0.81982 0.0
C131 C 0.54098 0.43831 0.81253 0.0
C132 C 0.56579 0.4424 0.81281 0.0
C133 C 0.57483 0.46095 0.82062 0.0
C134 C 0.55942 0.47519 0.82795 0.0
C135 C 0.51849 0.48662 0.83537 0.0
C136 C 0.50111 0.50019 0.82884 0.0
C137 C 0.52144 0.48941 0.84897 0.0
C138 C 0.53831 0.47458 0.85661 0.0
C139 C 0.5362 0.44963 0.85666 0.0
C140 C 0.55048 0.43586 0.86494 0.0
C141 C 0.56713 0.44683 0.87332 0.0
C142 C 0.56983 0.47177 0.87284 0.0
C143 C 0.55547 0.4855 0.86462 0.0
H144 H 0.49775 0.95101 0.06817 0.0
H145 H 0.47303 0.92341 0.05558 0.0
H146 H 0.40932 0.95801 0.07024 0.0
H147 H 0.43423 0.98544 0.08293 0.0
H148 H 0.50139 -0.00085 0.06703 0.0
H149 H 0.47743 0.94058 0.09971 0.0
H150 H 0.45183 0.91759 0.11446 0.0
H151 H 0.41991 0.9831 0.12837 0.0
H152 H 0.44565 0.0059 0.11373 0.0
H153 H 0.49985 0.0538 0.11512 0.0
H154 H 0.52613 0.07759 0.12906 0.0
H155 H 0.5878 0.0428 0.11217 0.0
H156 H 0.56135 0.01864 0.09843 0.0
H157 H 0.4941 0.00669 0.11508 0.0
H158 H 0.51553 0.06549 0.08472 0.0
H159 H 0.54219 0.09204 0.07278 0.0
H160 H 0.57531 0.03119 0.0542 0.0
H161 H 0.54862 0.0045 0.06637 0.0
C162 C 0.46783 0.9701 0.07658 0.0
C163 C 0.47846 0.95268 0.06864 0.0
C164 C 0.46429 0.93701 0.0614 0.0
C165 C 0.43919 0.93854 0.06189 0.0
C166 C 0.42859 0.95616 0.06978 0.0
C167 C 0.44279 0.97184 0.07703 0.0
C168 C 0.48307 0.98663 0.08421 0.0
C169 C 0.50003 0.00055 0.07756 0.0
C170 C 0.48062 0.9892 0.09787 0.0
C171 C 0.46344 0.97495 0.10564 0.0
C172 C 0.4646 0.94993 0.10577 0.0
C173 C 0.44996 0.93682 0.1142 0.0
C174 C 0.43401 0.94855 0.12267 0.0
C175 C 0.43231 0.97356 0.12214 0.0
C176 C 0.44692 0.98661 0.11374 0.0
C177 C 0.52864 0.03449 0.10573 0.0
C178 C 0.51904 0.05139 0.11437 0.0
C179 C 0.53409 0.06513 0.12224 0.0
C180 C 0.55905 0.06209 0.12169 0.0
C181 C 0.56864 0.04541 0.11287 0.0
C182 C 0.55357 0.03174 0.10496 0.0
C183 C 0.51252 0.01901 0.09794 0.0
C184 C 0.49545 0.00529 0.10454 0.0
C185 C 0.5145 0.01701 0.08423 0.0
C186 C 0.53038 0.03298 0.07663 0.0
C187 C 0.5287 0.0578 0.0782 0.0
C188 C 0.54395 0.07296 0.07137 0.0
C189 C 0.56102 0.06365 0.06268 0.0
C190 C 0.5623 0.03883 0.06083 0.0
C191 C 0.54709 0.0236 0.06777 0.0
H192 H 0.99886 0.55774 0.89239 0.0
H193 H 0.02505 0.58127 0.87832 0.0
H194 H 0.0866 0.54442 0.89395 0.0
H195 H 0.0602 0.52059 0.90785 0.0
H196 H 0.994 0.50968 0.891 0.0
H197 H 0.01524 0.56727 0.92354 0.0
H198 H 0.04362 0.59157 0.93592 0.0
H199 H 0.07547 0.52751 0.95166 0.0
H200 H 0.04739 0.50328 0.93898 0.0
H201 H 0.99338 0.45293 0.93833 0.0
H202 H 0.96627 0.42647 0.95029 0.0
H203 H 0.90566 0.46218 0.93288 0.0
H204 H 0.93274 0.48846 0.921 0.0
H205 H 0.99903 0.5003 0.93902 0.0
H206 H 0.9775 0.44271 0.90627 0.0
H207 H 0.95383 0.41877 0.89102 0.0
H208 H 0.9228 0.4832 0.87526 0.0
H209 H 0.94655 0.507 0.89047 0.0
C210 C 0.02759 0.53748 0.90118 0.0
C211 C 0.01802 0.55494 0.89289 0.0
C212 C 0.03303 0.56849 0.88493 0.0
C213 C 0.05789 0.56468 0.88502 0.0
C214 C 0.0675 0.54762 0.8936 0.0
C215 C 0.05246 0.53414 0.90162 0.0
C216 C 0.01139 0.52153 0.90857 0.0
C217 C 0.99478 0.50792 0.90153 0.0
C218 C 0.01298 0.51873 0.92224 0.0
C219 C 0.02943 0.53347 0.93021 0.0
C220 C 0.02838 0.55847 0.92963 0.0
C221 C 0.04445 0.57233 0.93681 0.0
C222 C 0.06182 0.56144 0.94473 0.0
C223 C 0.06247 0.5364 0.94551 0.0
C224 C 0.04636 0.52254 0.93835 0.0
C225 C 0.96508 0.47245 0.92865 0.0
C226 C 0.97424 0.45503 0.93711 0.0
C227 C 0.95875 0.43997 0.94395 0.0
C228 C 0.93384 0.44212 0.94245 0.0
C229 C 0.92476 0.45974 0.93404 0.0
C230 C 0.94022 0.4748 0.92725 0.0
C231 C 0.98144 0.48851 0.92143 0.0
C232 C 0.99813 0.50211 0.9285 0.0
C233 C 0.97987 0.49136 0.90775 0.0
C234 C 0.96377 0.47665 0.89951 0.0
C235 C 0.96525 0.45164 0.8997 0.0
C236 C 0.9517 0.43798 0.89099 0.0
C237 C 0.93658 0.44912 0.88187 0.0
C238 C 0.93457 0.47412 0.88202 0.0
C239 C 0.94807 0.48774 0.89073 0.0
H240 H 0.50123 0.55029 0.18722 0.0
H241 H 0.47667 0.5785 0.19956 0.0
H242 H 0.4128 0.54696 0.18317 0.0
H243 H 0.43746 0.51835 0.17115 0.0
H244 H 0.50339 0.50195 0.18775 0.0
H245 H 0.48191 0.56266 0.1562 0.0
H246 H 0.45646 0.58741 0.14229 0.0
H247 H 0.42587 0.5237 0.12527 0.0
H248 H 0.45047 0.49923 0.13958 0.0
H249 H 0.49985 0.44903 0.13922 0.0
H250 H 0.52467 0.42414 0.12509 0.0
H251 H 0.58827 0.45354 0.14291 0.0
H252 H 0.56329 0.4789 0.15681 0.0
H253 H 0.49754 0.49616 0.13957 0.0
H254 H 0.51222 0.43574 0.17073 0.0
H255 H 0.53546 0.40723 0.18351 0.0
H256 H 0.57542 0.4653 0.2007 0.0
H257 H 0.55217 0.49387 0.1877 0.0
C258 C 0.47119 0.53244 0.17815 0.0
C259 C 0.48193 0.54937 0.18636 0.0
C260 C 0.46788 0.56557 0.19333 0.0
C261 C 0.4428 0.56505 0.19227 0.0
C262 C 0.43206 0.5477 0.18426 0.0
C263 C 0.44613 0.53151 0.17728 0.0
C264 C 0.48626 0.51577 0.1705 0.0
C265 C 0.50236 0.50095 0.17719 0.0
C266 C 0.48429 0.51383 0.15678 0.0
C267 C 0.46798 0.52908 0.14899 0.0
C268 C 0.46935 0.55407 0.14966 0.0
C269 C 0.45497 0.56819 0.1416 0.0
C270 C 0.43911 0.55756 0.13264 0.0
C271 C 0.43755 0.53253 0.13219 0.0
C272 C 0.4518 0.51847 0.14028 0.0
C273 C 0.5297 0.46578 0.14909 0.0
C274 C 0.51914 0.45 0.14015 0.0
C275 C 0.53336 0.43563 0.13216 0.0
C276 C 0.55845 0.43686 0.13289 0.0
C277 C 0.569 0.45234 0.14205 0.0
C278 C 0.55474 0.46667 0.15007 0.0
C279 C 0.51453 0.48231 0.1568 0.0
C280 C 0.49855 0.4972 0.15013 0.0
C281 C 0.51619 0.48396 0.17053 0.0
C282 C 0.53064 0.46688 0.1782 0.0
C283 C 0.5261 0.44234 0.17718 0.0
C284 C 0.53923 0.4261 0.18457 0.0
C285 C 0.55716 0.43409 0.19314 0.0
C286 C 0.56179 0.45868 0.19411 0.0
C287 C 0.54848 0.47497 0.18676 0.0
H288 H 0.50153 0.94718 0.39035 0.0
H289 H 0.47667 0.92194 0.37656 0.0
H290 H 0.41329 0.94978 0.3954 0.0
H291 H 0.43838 0.97592 0.40877 0.0
H292 H 0.50256 0.99405 0.39022 0.0
H293 H 0.48574 0.93378 0.42223 0.0
H294 H 0.45913 0.90812 0.43495 0.0
H295 H 0.42692 0.97056 0.45243 0.0
H296 H 0.45347 0.99609 0.43965 0.0
H297 H 0.50493 0.04834 0.43857 0.0
H298 H 0.53211 0.07543 0.45014 0.0
H299 H 0.59229 0.04303 0.43047 0.0
H300 H 0.5652 0.01598 0.41907 0.0
H301 H 0.50096 0.00082 0.43844 0.0
H302 H 0.51891 0.06098 0.40648 0.0
H303 H 0.54204 0.08624 0.39164 0.0
H304 H 0.57206 0.02328 0.37362 0.0
H305 H 0.54912 0.99815 0.38851 0.0
C306 C 0.47186 0.96341 0.40062 0.0
C307 C 0.48229 0.94774 0.39157 0.0
C308 C 0.46801 0.93311 0.38378 0.0
C309 C 0.44293 0.93376 0.38487 0.0
C310 C 0.43253 0.949 0.39421 0.0
C311 C 0.44686 0.96378 0.40197 0.0
C312 C 0.4872 0.9804 0.40794 0.0
C313 C 0.50248 0.99527 0.40078 0.0
C314 C 0.48653 0.98252 0.42169 0.0
C315 C 0.47132 0.96686 0.42985 0.0
C316 C 0.47289 0.94193 0.42878 0.0
C317 C 0.45773 0.9273 0.43606 0.0
C318 C 0.4409 0.93734 0.44466 0.0
C319 C 0.43988 0.96228 0.446 0.0
C320 C 0.45497 0.9769 0.43867 0.0
C321 C 0.53301 0.0304 0.42781 0.0
C322 C 0.52399 0.04707 0.43679 0.0
C323 C 0.5395 0.0625 0.44339 0.0
C324 C 0.56428 0.06151 0.44109 0.0
C325 C 0.57324 0.04457 0.43223 0.0
C326 C 0.55778 0.02908 0.42572 0.0
C327 C 0.51662 0.01418 0.42069 0.0
C328 C 0.50109 -0.00045 0.42788 0.0
C329 C 0.51716 0.01214 0.40694 0.0
C330 C 0.53231 0.02766 0.39862 0.0
C331 C 0.53079 0.05263 0.39949 0.0
C332 C 0.54401 0.06705 0.39101 0.0
C333 C 0.55873 0.0567 0.38143 0.0
C334 C 0.56061 0.03173 0.38079 0.0
C335 C 0.54754 0.01736 0.3893 0.0
H336 H 0.99679 0.04857 0.68802 0.0
H337 H 0.97121 0.07589 0.70032 0.0
H338 H 0.90854 0.04003 0.68524 0.0
H339 H 0.93427 0.01284 0.67291 0.0
H340 H 0.00184 0.00046 0.68884 0.0
H341 H 0.97734 0.05891 0.65626 0.0
H342 H 0.9512 0.08193 0.64181 0.0
H343 H 0.91878 0.01642 0.62822 0.0
H344 H 0.94518 0.99361 0.6425 0.0
H345 H -0.00067 0.9456 0.64106 0.0
H346 H 0.02511 0.9213 0.6271 0.0
H347 H 0.08738 0.95645 0.6431 0.0
H348 H 0.06142 0.98108 0.65687 0.0
H349 H 0.99387 0.993 0.64081 0.0
H350 H 0.01539 0.93436 0.67143 0.0
H351 H 0.04243 0.90784 0.68313 0.0
H352 H 0.07729 0.96885 0.7006 0.0
H353 H 0.05004 0.99547 0.68874 0.0
C354 C 0.96743 0.02888 0.67943 0.0
C355 C 0.97754 0.04653 0.68743 0.0
C356 C 0.96289 0.06205 0.69449 0.0
C357 C 0.93783 0.06014 0.69374 0.0
C358 C 0.92776 0.04218 0.68588 0.0
C359 C 0.94244 0.02664 0.67883 0.0
C360 C 0.98308 0.01281 0.67175 0.0
C361 C 0.00034 -0.0009 0.67831 0.0
C362 C 0.98056 0.01035 0.65809 0.0
C363 C 0.9632 0.02456 0.65042 0.0
C364 C 0.96433 0.04958 0.65031 0.0
C365 C 0.94935 0.0627 0.64206 0.0
C366 C 0.93306 0.05098 0.63377 0.0
C367 C 0.93144 0.02596 0.63429 0.0
C368 C 0.94643 0.0129 0.64249 0.0
C369 C 0.02845 0.9651 0.65001 0.0
C370 C 0.01854 0.94798 0.6416 0.0
C371 C 0.03331 0.93397 0.63372 0.0
C372 C 0.05828 0.93694 0.63403 0.0
C373 C 0.0682 0.95388 0.6426 0.0
C374 C 0.05341 0.96783 0.65052 0.0
C375 C 0.01261 0.98075 0.65786 0.0
C376 C 0.99538 0.9944 0.65133 0.0
C377 C 0.01485 0.9828 0.67155 0.0
C378 C 0.03097 0.9669 0.67904 0.0
C379 C 0.02899 0.94207 0.67768 0.0
C380 C 0.0445 0.92693 0.68435 0.0
C381 C 0.0622 0.93628 0.69265 0.0
C382 C 0.0638 0.96115 0.69428 0.0
C383 C 0.04828 0.97635 0.68752 0.0
In384 In 0.30699 0.69357 0.00291 0.0
O385 O 0.30059 0.73092 0.01116 0.0
O386 O 0.33082 0.72569 0.99894 0.0
C387 C 0.26032 0.68202 0.00012 0.0
C388 C 0.32319 0.6725 0.02489 0.0
C389 C 0.32834 0.67846 0.98074 0.0
O390 O 0.2688 0.70156 0.99616 0.0
O391 O 0.27522 0.66867 0.00574 0.0
O392 O 0.33841 0.67749 0.99175 0.0
O393 O 0.30757 0.68727 0.98089 0.0
C394 C 0.31892 0.73991 0.00593 0.0
O395 O 0.32215 0.66176 0.01408 0.0
O396 O 0.31583 0.69375 0.02465 0.0
In397 In 0.30885 0.8086 0.25271 0.0
O398 O 0.30137 0.77047 0.24582 0.0
O399 O 0.33507 0.77769 0.25449 0.0
C400 C 0.26268 0.82147 0.25586 0.0
C401 C 0.32328 0.83009 0.23046 0.0
C402 C 0.32935 0.82226 0.27539 0.0
O403 O 0.27021 0.8009 0.25873 0.0
O404 O 0.27833 0.83528 0.25124 0.0
O405 O 0.33979 0.82397 0.26452 0.0
O406 O 0.30865 0.81335 0.27486 0.0
C407 C 0.3216 0.76256 0.24912 0.0
O408 O 0.32634 0.83922 0.24158 0.0
O409 O 0.31271 0.81021 0.23052 0.0
In410 In 0.19136 0.80988 0.5026 0.0
O411 O 0.17072 0.8379 0.51411 0.0
O412 O 0.1892 0.81129 0.52486 0.0
C413 C 0.17259 0.82396 0.47962 0.0
C414 C 0.17718 0.76417 0.50559 0.0
C415 C 0.23715 0.82426 0.49983 0.0
O416 O 0.16325 0.82907 0.49047 0.0
O417 O 0.1913 0.81143 0.48032 0.0
O418 O 0.23054 0.80322 0.49731 0.0
O419 O 0.2208 0.83775 0.504 0.0
C420 C 0.17588 0.82946 0.52515 0.0
O421 O 0.19775 0.77122 0.50888 0.0
O422 O 0.16413 0.78 0.50055 0.0
In423 In 0.19203 0.69321 0.75403 0.0
O424 O 0.17826 0.66178 0.76591 0.0
O425 O 0.17955 0.6957 0.77518 0.0
C426 C 0.17138 0.67543 0.73226 0.0
C427 C 0.23847 0.68211 0.75807 0.0
C428 C 0.18078 0.73952 0.75032 0.0
O429 O 0.16106 0.67567 0.74319 0.0
O430 O 0.19219 0.68414 0.73227 0.0
O431 O 0.19942 0.73025 0.74555 0.0
O432 O 0.16823 0.72557 0.7571 0.0
C433 C 0.17453 0.67381 0.77612 0.0
O434 O 0.22914 0.70093 0.76252 0.0
O435 O 0.2246 0.66942 0.7513 0.0
In436 In 0.8086 0.18921 0.50358 0.0
O437 O 0.80261 0.22788 0.50996 0.0
O438 O 0.8362 0.21882 0.50166 0.0
C439 C 0.76202 0.17796 0.5002 0.0
C440 C 0.82191 0.16846 0.52619 0.0
C441 C 0.82938 0.17318 0.48144 0.0
O442 O 0.77094 0.19713 0.49598 0.0
O443 O 0.77645 0.16482 0.50633 0.0
O444 O 0.83845 0.1701 0.49258 0.0
O445 O 0.80989 0.18452 0.48144 0.0
C446 C 0.82326 0.23476 0.50671 0.0
O447 O 0.82431 0.1584 0.51525 0.0
O448 O 0.81253 0.18892 0.52576 0.0
In449 In 0.80942 0.30711 0.7524 0.0
O450 O 0.84167 0.3165 0.73984 0.0
O451 O 0.8071 0.32289 0.73193 0.0
C452 C 0.82976 0.32598 0.77399 0.0
C453 C 0.8176 0.26019 0.74838 0.0
C454 C 0.76376 0.32103 0.75647 0.0
O455 O 0.83229 0.3349 0.76279 0.0
O456 O 0.81705 0.3074 0.77432 0.0
O457 O 0.77074 0.30006 0.75884 0.0
O458 O 0.77961 0.33456 0.75184 0.0
C459 C 0.82946 0.32392 0.73032 0.0
O460 O 0.80252 0.27183 0.7418 0.0
O461 O 0.82786 0.27203 0.75722 0.0
In462 In 0.69366 0.3061 0.00262 0.0
O463 O 0.7003 0.26798 0.00967 0.0
O464 O 0.66871 0.2747 0.99882 0.0
C465 C 0.74007 0.319 0.00054 0.0
C466 C 0.67673 0.32618 0.02473 0.0
C467 C 0.67423 0.3224 0.98022 0.0
O468 O 0.73202 0.3 0.9956 0.0
O469 O 0.72487 0.33113 0.00674 0.0
O470 O 0.66365 0.32375 0.99106 0.0
O471 O 0.69451 0.31255 0.98063 0.0
C472 C 0.68118 0.25972 0.00496 0.0
O473 O 0.67504 0.33608 0.01373 0.0
O474 O 0.68723 0.30626 0.02462 0.0
In475 In 0.69338 0.18944 0.25257 0.0
O476 O 0.6676 0.1658 0.2638 0.0
O477 O 0.68848 0.19033 0.27476 0.0
C478 C 0.6798 0.16892 0.22993 0.0
C479 C 0.73987 0.17824 0.25659 0.0
C480 C 0.67676 0.23408 0.2487 0.0
O481 O 0.67492 0.16024 0.24095 0.0
O482 O 0.69198 0.18788 0.23027 0.0
O483 O 0.69803 0.22821 0.24609 0.0
O484 O 0.66415 0.21758 0.25343 0.0
C485 C 0.67286 0.17407 0.27487 0.0
O486 O 0.73114 0.19809 0.25987 0.0
O487 O 0.72534 0.16436 0.25106 0.0
H488 H 0.06293 0.89202 0.30842 0.0
H489 H 0.09117 0.86627 0.29666 0.0
H490 H 0.13073 0.92828 0.28428 0.0
H491 H 0.10246 0.95409 0.2958 0.0
H492 H 0.12224 0.89147 0.26426 0.0
H493 H 0.16101 0.85676 0.3106 0.0
H494 H 0.12909 0.85486 0.30859 0.0
H495 H 0.14308 0.88354 0.31009 0.0
C496 C 0.07745 0.90015 0.30303 0.0
C497 C 0.08065 0.92505 0.30313 0.0
C498 C 0.09361 0.88544 0.2964 0.0
C499 C 0.11312 0.89542 0.28974 0.0
C500 C 0.11581 0.92027 0.28941 0.0
H501 H 0.2439 0.86563 0.25183 0.0
H502 H 0.20483 0.88035 0.25869 0.0
C503 C 0.09977 0.93496 0.29607 0.0
C504 C 0.13157 0.88014 0.28366 0.0
H505 H 0.17926 0.84475 0.29111 0.0
C506 C 0.13455 0.88099 0.27008 0.0
C507 C 0.14746 0.86643 0.29131 0.0
C508 C 0.14523 0.86533 0.30597 0.0
C509 C 0.15349 0.86892 0.26396 0.0
C510 C 0.17013 0.85619 0.27169 0.0
C511 C 0.16649 0.85452 0.28521 0.0
C512 C 0.19262 0.84638 0.26621 0.0
C513 C 0.15561 0.87014 0.24931 0.0
C514 C 0.19891 0.82243 0.26828 0.0
C515 C 0.22143 0.81401 0.26449 0.0
C516 C 0.23804 0.82948 0.25864 0.0
C517 C 0.23144 0.85326 0.25625 0.0
C518 C 0.209 0.86166 0.26007 0.0
H519 H 0.13785 0.87292 0.24468 0.0
H520 H 0.16712 0.88549 0.24663 0.0
H521 H 0.16371 0.85362 0.24526 0.0
H522 H 0.1866 0.8104 0.27311 0.0
H523 H 0.22605 0.79561 0.26648 0.0
H524 H 0.04036 0.60387 0.54824 0.0
H525 H 0.06372 0.6338 0.53651 0.0
H526 H 0.12903 0.59903 0.54839 0.0
H527 H 0.10569 0.56886 0.56011 0.0
H528 H 0.09591 0.66416 0.54813 0.0
H529 H 0.1404 0.61052 0.50946 0.0
H530 H 0.11501 0.59964 0.51859 0.0
H531 H 0.14432 0.59953 0.52578 0.0
C532 C 0.0597 0.60253 0.5483 0.0
C533 C 0.07123 0.58413 0.55514 0.0
C534 C 0.073 0.61954 0.54154 0.0
C535 C 0.09808 0.61849 0.54148 0.0
C536 C 0.10968 0.59987 0.54808 0.0
H537 H 0.20017 0.72824 0.51858 0.0
H538 H 0.18245 0.69089 0.52648 0.0
C539 C 0.09634 0.58272 0.55481 0.0
C540 C 0.11189 0.63805 0.53539 0.0
H541 H 0.15238 0.65106 0.51145 0.0
C542 C 0.10822 0.66127 0.5401 0.0
C543 C 0.12805 0.63418 0.52497 0.0
C544 C 0.1321 0.60966 0.5193 0.0
C545 C 0.12015 0.68079 0.53463 0.0
C546 C 0.13604 0.67699 0.52412 0.0
C547 C 0.14012 0.65378 0.51952 0.0
C548 C 0.14789 0.6973 0.51768 0.0
C549 C 0.11569 0.70542 0.54009 0.0
C550 C 0.13444 0.71273 0.50983 0.0
C551 C 0.14443 0.73398 0.50533 0.0
C552 C 0.16804 0.74013 0.50864 0.0
C553 C 0.18192 0.72397 0.5159 0.0
C554 C 0.17188 0.70265 0.52039 0.0
H555 H 0.10608 0.70485 0.54956 0.0
H556 H 0.13286 0.71509 0.54145 0.0
H557 H 0.10469 0.71577 0.53308 0.0
H558 H 0.11589 0.70878 0.50764 0.0
H559 H 0.13334 0.74602 0.4997 0.0
H560 H 0.38878 0.55129 0.81201 0.0
H561 H 0.35869 0.57569 0.80108 0.0
H562 H 0.41287 0.6271 0.79079 0.0
H563 H 0.44335 0.6023 0.80129 0.0
H564 H 0.34606 0.62213 0.80701 0.0
H565 H 0.37895 0.61482 0.75598 0.0
H566 H 0.38905 0.5952 0.7688 0.0
H567 H 0.40059 0.62504 0.76769 0.0
C568 C 0.39441 0.56757 0.80723 0.0
C569 C 0.4185 0.57477 0.80746 0.0
C570 C 0.37715 0.58158 0.80107 0.0
C571 C 0.3836 0.60305 0.79501 0.0
C572 C 0.40759 0.61039 0.79523 0.0
H573 H 0.27106 0.70502 0.77358 0.0
H574 H 0.30884 0.68881 0.78189 0.0
C575 C 0.42492 0.59633 0.80137 0.0
C576 C 0.36491 0.61798 0.78885 0.0
H577 H 0.34556 0.63982 0.75961 0.0
C578 C 0.346 0.62615 0.79666 0.0
C579 C 0.36488 0.62303 0.77533 0.0
C580 C 0.38432 0.61394 0.7664 0.0
C581 C 0.32676 0.63883 0.7913 0.0
C582 C 0.32671 0.64392 0.77779 0.0
C583 C 0.34583 0.63611 0.76999 0.0
C584 C 0.3059 0.65537 0.77143 0.0
C585 C 0.30617 0.64575 0.80006 0.0
C586 C 0.29244 0.64243 0.76229 0.0
C587 C 0.27105 0.65171 0.75745 0.0
C588 C 0.26275 0.6741 0.76166 0.0
C589 C 0.27695 0.68764 0.77023 0.0
C590 C 0.29843 0.67837 0.77504 0.0
H591 H 0.30669 0.63614 0.80953 0.0
H592 H 0.30707 0.66517 0.80213 0.0
H593 H 0.28876 0.64199 0.79526 0.0
H594 H 0.29795 0.62469 0.75934 0.0
H595 H 0.26054 0.6409 0.75081 0.0
H596 H 0.39818 0.91603 0.06977 0.0
H597 H 0.37518 0.88589 0.05785 0.0
H598 H 0.42348 0.89201 0.02524 0.0
H599 H 0.44636 0.92247 0.03697 0.0
H600 H 0.3533 0.88739 0.03118 0.0
H601 H 0.42594 0.82036 0.03737 0.0
H602 H 0.42404 0.84698 0.04726 0.0
H603 H 0.43457 0.84878 0.03075 0.0
C604 C 0.40368 0.91129 0.05997 0.0
C605 C 0.42424 0.92149 0.05436 0.0
C606 C 0.39055 0.89403 0.0532 0.0
C607 C 0.39783 0.88663 0.04075 0.0
C608 C 0.4178 0.89734 0.03492 0.0
H609 H 0.35596 0.76371 0.99459 0.0
H610 H 0.37333 0.80172 0.0015 0.0
C611 C 0.4309 0.91461 0.04166 0.0
C612 C 0.38532 0.86677 0.03417 0.0
H613 H 0.3922 0.80853 0.02532 0.0
C614 C 0.36175 0.87014 0.02984 0.0
C615 C 0.39651 0.84438 0.03245 0.0
C616 C 0.4216 0.8397 0.03726 0.0
C617 C 0.34905 0.8516 0.02373 0.0
C618 C 0.36011 0.82905 0.0222 0.0
C619 C 0.38379 0.82586 0.02643 0.0
C620 C 0.34736 0.80809 0.01677 0.0
C621 C 0.32406 0.85641 0.01883 0.0
C622 C 0.32672 0.79928 0.0229 0.0
C623 C 0.31664 0.77765 0.0189 0.0
C624 C 0.32728 0.76432 0.00884 0.0
C625 C 0.3474 0.77359 0.00239 0.0
C626 C 0.35735 0.79529 0.00633 0.0
H627 H 0.32117 0.87574 0.017 0.0
H628 H 0.32036 0.84641 0.00969 0.0
H629 H 0.31097 0.85067 0.02633 0.0
H630 H 0.31903 0.80855 0.03118 0.0
H631 H 0.30122 0.77085 0.0241 0.0
H632 H 0.05429 0.60272 0.9585 0.0
H633 H 0.08441 0.6278 0.96925 0.0
H634 H 0.1396 0.57824 0.95783 0.0
H635 H 0.1098 0.55339 0.94686 0.0
H636 H 0.11828 0.61521 0.98956 0.0
H637 H 0.16205 0.64398 0.94363 0.0
H638 H 0.13249 0.63097 0.94402 0.0
H639 H 0.15853 0.61223 0.94507 0.0
C640 C 0.07287 0.59725 0.95824 0.0
C641 C 0.07971 0.57614 0.95179 0.0
C642 C 0.08999 0.6115 0.96444 0.0
C643 C 0.1142 0.60498 0.96417 0.0
C644 C 0.12101 0.5837 0.95798 0.0
H645 H 0.23917 0.64014 0.00702 0.0
H646 H 0.20075 0.62466 0.99948 0.0
C647 C 0.10394 0.56943 0.95183 0.0
C648 C 0.13254 0.62038 0.97026 0.0
H649 H 0.18352 0.65124 0.96334 0.0
C650 C 0.13241 0.62336 0.98385 0.0
C651 C 0.15065 0.6313 0.96273 0.0
C652 C 0.1509 0.6297 0.94804 0.0
C653 C 0.1507 0.63607 0.99019 0.0
C654 C 0.16963 0.64574 0.98271 0.0
C655 C 0.16906 0.6437 0.96907 0.0
C656 C 0.1911 0.65652 0.98878 0.0
C657 C 0.14971 0.63884 0.00481 0.0
C658 C 0.19844 0.6796 0.98529 0.0
C659 C 0.22051 0.68844 0.98951 0.0
C660 C 0.23566 0.67423 0.99721 0.0
C661 C 0.22784 0.65152 0.00113 0.0
C662 C 0.2058 0.64271 0.9969 0.0
H663 H 0.13106 0.63743 0.00848 0.0
H664 H 0.16033 0.62438 0.0094 0.0
H665 H 0.1573 0.65623 0.00795 0.0
H666 H 0.18742 0.69047 0.97896 0.0
H667 H 0.2261 0.70599 0.98633 0.0
H668 H 0.45121 0.6128 0.1946 0.0
H669 H 0.42674 0.64255 0.20581 0.0
H670 H 0.37599 0.588 0.21645 0.0
H671 H 0.40074 0.5579 0.20549 0.0
H672 H 0.37814 0.65353 0.20015 0.0
H673 H 0.3911 0.62298 0.25131 0.0
H674 H 0.4107 0.61396 0.23819 0.0
H675 H 0.38155 0.60084 0.2397 0.0
C676 C 0.43503 0.60704 0.19949 0.0
C677 C 0.42798 0.58297 0.19923 0.0
C678 C 0.421 0.62408 0.20581 0.0
C679 C 0.39971 0.6174 0.21205 0.0
C680 C 0.39254 0.59343 0.21183 0.0
H681 H 0.29724 0.72786 0.23585 0.0
H682 H 0.31333 0.68998 0.22769 0.0
C683 C 0.40656 0.57633 0.20546 0.0
C684 C 0.38482 0.63587 0.21841 0.0
H685 H 0.36614 0.65639 0.24808 0.0
C686 C 0.37529 0.65407 0.21061 0.0
C687 C 0.38134 0.63649 0.23206 0.0
C688 C 0.39181 0.61766 0.24087 0.0
C689 C 0.36278 0.67326 0.21614 0.0
C690 C 0.35942 0.67402 0.22981 0.0
C691 C 0.36856 0.65557 0.23759 0.0
C692 C 0.34839 0.69497 0.23622 0.0
C693 C 0.35416 0.69308 0.20735 0.0
C694 C 0.36246 0.7097 0.24419 0.0
C695 C 0.35332 0.73122 0.24891 0.0
C696 C 0.32992 0.73833 0.24574 0.0
C697 C 0.31539 0.7229 0.23838 0.0
C698 C 0.32456 0.70133 0.23367 0.0
H699 H 0.36217 0.69197 0.19745 0.0
H700 H 0.33443 0.69191 0.20632 0.0
H701 H 0.35853 0.71079 0.2116 0.0
H702 H 0.38088 0.70504 0.2463 0.0
H703 H 0.3649 0.74269 0.25461 0.0
H704 H 0.42675 0.94085 0.47016 0.0
H705 H 0.39538 0.91786 0.4811 0.0
H706 H 0.38479 0.87628 0.44614 0.0
H707 H 0.41576 0.89947 0.43506 0.0
H708 H 0.34303 0.8978 0.45638 0.0
H709 H 0.39321 0.84791 0.49438 0.0
H710 H 0.39941 0.87936 0.49361 0.0
H711 H 0.40749 0.86049 0.48015 0.0
C712 C 0.41786 0.92667 0.46485 0.0
C713 C 0.42367 0.92198 0.45174 0.0
C714 C 0.40015 0.9134 0.47115 0.0
C715 C 0.38801 0.89522 0.46446 0.0
C716 C 0.39415 0.89012 0.45149 0.0
H717 H 0.27474 0.79941 0.48947 0.0
H718 H 0.31292 0.81584 0.48182 0.0
C719 C 0.4119 0.9033 0.4452 0.0
C720 C 0.36735 0.88311 0.47054 0.0
H721 H 0.35066 0.84742 0.49594 0.0
C722 C 0.34471 0.88667 0.46498 0.0
C723 C 0.36969 0.86858 0.48173 0.0
C724 C 0.39377 0.86363 0.48779 0.0
C725 C 0.32421 0.87641 0.47046 0.0
C726 C 0.32644 0.86238 0.48183 0.0
C727 C 0.34911 0.85838 0.48728 0.0
C728 C 0.30516 0.85186 0.48809 0.0
C729 C 0.30025 0.88062 0.46407 0.0
C730 C 0.28865 0.86664 0.49447 0.0
C731 C 0.26693 0.85736 0.49885 0.0
C732 C 0.26139 0.83316 0.49688 0.0
C733 C 0.27852 0.81814 0.49109 0.0
C734 C 0.30031 0.82745 0.48674 0.0
H735 H 0.30212 0.88831 0.45413 0.0
H736 H 0.29001 0.86369 0.46337 0.0
H737 H 0.28968 0.89325 0.4701 0.0
H738 H 0.29222 0.88552 0.49564 0.0
H739 H 0.25412 0.86934 0.50333 0.0
H740 H 0.08509 0.89725 0.68282 0.0
H741 H 0.10853 0.86768 0.69479 0.0
H742 H 0.10016 0.90859 0.73014 0.0
H743 H 0.07638 0.93827 0.71824 0.0
H744 H 0.1487 0.88757 0.72499 0.0
H745 H 0.07309 0.82346 0.72176 0.0
H746 H 0.08191 0.83656 0.70651 0.0
H747 H 0.0694 0.85508 0.71909 0.0
C748 C 0.08828 0.9 0.69314 0.0
C749 C 0.0786 0.91989 0.69964 0.0
C750 C 0.10175 0.88317 0.69993 0.0
C751 C 0.10576 0.88587 0.71335 0.0
C752 C 0.09719 0.90626 0.71977 0.0
H753 H 0.14324 0.76365 0.76089 0.0
H754 H 0.12679 0.80187 0.75378 0.0
C755 C 0.08368 0.92317 0.71296 0.0
C756 C 0.11745 0.8665 0.72073 0.0
H757 H 0.11014 0.80822 0.72927 0.0
C758 C 0.14028 0.87024 0.72605 0.0
C759 C 0.10618 0.84411 0.72223 0.0
C760 C 0.0812 0.83951 0.71721 0.0
C761 C 0.15252 0.85176 0.73247 0.0
C762 C 0.14164 0.82903 0.73344 0.0
C763 C 0.1185 0.82563 0.72847 0.0
C764 C 0.15398 0.80813 0.73915 0.0
C765 C 0.17688 0.85671 0.73818 0.0
C766 C 0.17503 0.79921 0.73347 0.0
C767 C 0.18454 0.77739 0.73757 0.0
C768 C 0.17296 0.76405 0.74729 0.0
C769 C 0.15249 0.77351 0.75334 0.0
C770 C 0.14309 0.79534 0.7493 0.0
H771 H 0.17955 0.87607 0.74003 0.0
H772 H 0.17952 0.84686 0.74746 0.0
H773 H 0.19081 0.85079 0.73118 0.0
H774 H 0.18344 0.80852 0.72544 0.0
H775 H 0.20028 0.77047 0.7327 0.0
H776 H 0.60293 0.45744 0.79774 0.0
H777 H 0.63275 0.43293 0.78658 0.0
H778 H 0.59641 0.36918 0.79929 0.0
H779 H 0.56635 0.3937 0.81047 0.0
H780 H 0.66203 0.40065 0.79955 0.0
H781 H 0.60968 0.35565 0.76045 0.0
H782 H 0.59897 0.38192 0.76885 0.0
H783 H 0.59771 0.35332 0.77668 0.0
C784 C 0.60119 0.4382 0.79807 0.0
C785 C 0.58243 0.42746 0.80504 0.0
C786 C 0.61815 0.42424 0.79165 0.0
C787 C 0.61669 0.39927 0.79204 0.0
C788 C 0.5976 0.38843 0.79867 0.0
H789 H 0.72779 0.29711 0.76906 0.0
H790 H 0.69013 0.31409 0.77726 0.0
C791 C 0.5805 0.40244 0.80507 0.0
C792 C 0.63638 0.38486 0.78645 0.0
H793 H 0.65034 0.34432 0.7627 0.0
C794 C 0.65945 0.3883 0.79152 0.0
C795 C 0.63289 0.36863 0.77604 0.0
C796 C 0.60853 0.3647 0.77008 0.0
C797 C 0.6792 0.37625 0.78632 0.0
C798 C 0.67584 0.3605 0.77571 0.0
C799 C 0.65274 0.35648 0.77084 0.0
C800 C 0.69654 0.34919 0.76926 0.0
C801 C 0.70365 0.3806 0.79211 0.0
C802 C 0.71209 0.3632 0.76178 0.0
C803 C 0.73349 0.35364 0.75713 0.0
C804 C 0.73968 0.32988 0.75989 0.0
C805 C 0.72347 0.31549 0.76681 0.0
C806 C 0.70199 0.32511 0.77147 0.0
H807 H 0.7026 0.38959 0.80176 0.0
H808 H 0.71352 0.36352 0.79325 0.0
H809 H 0.71413 0.39215 0.78544 0.0
H810 H 0.70806 0.38181 0.75995 0.0
H811 H 0.74555 0.36514 0.75176 0.0
H812 H 0.57285 0.06294 0.03675 0.0
H813 H 0.59662 0.09254 0.02482 0.0
H814 H 0.60929 0.13085 0.06069 0.0
H815 H 0.5856 0.10147 0.07262 0.0
H816 H 0.59057 0.15878 0.04085 0.0
H817 H 0.66904 0.10659 0.02357 0.0
H818 H 0.64023 0.09394 0.01994 0.0
H819 H 0.64982 0.09645 0.0366 0.0
C820 C 0.58112 0.07743 0.04211 0.0
C821 C 0.57724 0.08003 0.05559 0.0
C822 C 0.59472 0.09427 0.03529 0.0
C823 C 0.60483 0.11377 0.0419 0.0
C824 C 0.60162 0.11592 0.05542 0.0
H825 H 0.70123 0.22666 0.02115 0.0
H826 H 0.68316 0.18921 0.0285 0.0
C827 C 0.588 0.09921 0.0622 0.0
C828 C 0.61695 0.13315 0.03469 0.0
H829 H 0.66576 0.14644 0.01602 0.0
C830 C 0.60698 0.15608 0.03539 0.0
C831 C 0.63838 0.12952 0.02764 0.0
C832 C 0.65018 0.10535 0.02693 0.0
C833 C 0.61798 0.17559 0.02936 0.0
C834 C 0.63929 0.17198 0.02218 0.0
C835 C 0.64927 0.14904 0.02141 0.0
C836 C 0.65199 0.19225 0.0161 0.0
C837 C 0.60705 0.20005 0.03105 0.0
C838 C 0.64088 0.20578 0.00632 0.0
C839 C 0.65104 0.22723 0.00218 0.0
C840 C 0.6726 0.23534 0.00768 0.0
C841 C 0.68456 0.22089 0.01678 0.0
C842 C 0.6743 0.19949 0.02097 0.0
H843 H 0.59384 0.20051 0.03914 0.0
H844 H 0.62108 0.21361 0.03303 0.0
H845 H 0.59766 0.20517 0.02194 0.0
H846 H 0.62382 0.20026 0.0023 0.0
H847 H 0.64154 0.2379 0.99507 0.0
H848 H 0.94593 0.10137 0.29969 0.0
H849 H 0.91592 0.12661 0.28902 0.0
H850 H 0.86011 0.07911 0.30198 0.0
H851 H 0.88982 0.05415 0.31289 0.0
H852 H 0.8821 0.11372 0.26935 0.0
H853 H 0.83814 0.14561 0.3146 0.0
H854 H 0.86742 0.13197 0.31457 0.0
H855 H 0.84099 0.11373 0.31379 0.0
C856 C 0.92723 0.09644 0.30036 0.0
C857 C 0.92021 0.07582 0.30717 0.0
C858 C 0.91017 0.11079 0.29421 0.0
C859 C 0.88583 0.10487 0.29489 0.0
C860 C 0.8788 0.08416 0.30153 0.0
H861 H 0.7616 0.13602 0.25091 0.0
H862 H 0.79997 0.1216 0.25908 0.0
C863 C 0.89581 0.06979 0.30764 0.0
C864 C 0.86762 0.12003 0.28852 0.0
H865 H 0.8164 0.15106 0.29474 0.0
C866 C 0.86789 0.12218 0.27489 0.0
C867 C 0.8494 0.13139 0.2958 0.0
C868 C 0.84903 0.1308 0.31051 0.0
C869 C 0.8496 0.13437 0.26828 0.0
C870 C 0.83051 0.14434 0.27552 0.0
C871 C 0.83097 0.14325 0.28919 0.0
C872 C 0.80894 0.15435 0.26917 0.0
C873 C 0.85076 0.13622 0.25362 0.0
C874 C 0.80121 0.17756 0.27215 0.0
C875 C 0.77916 0.18581 0.26756 0.0
C876 C 0.76443 0.17087 0.26002 0.0
C877 C 0.7726 0.14796 0.25667 0.0
C878 C 0.79462 0.13975 0.26125 0.0
H879 H 0.86948 0.13488 0.25005 0.0
H880 H 0.84046 0.1213 0.24924 0.0
H881 H 0.84294 0.15328 0.25014 0.0
H882 H 0.81194 0.18904 0.27833 0.0
H883 H 0.77328 0.20353 0.27031 0.0
H884 H 0.95564 0.38648 0.55947 0.0
H885 H 0.93233 0.35583 0.54821 0.0
H886 H 0.88042 0.40877 0.53681 0.0
H887 H 0.90398 0.43973 0.54779 0.0
H888 H 0.88402 0.34411 0.55397 0.0
H889 H 0.89616 0.37262 0.50243 0.0
H890 H 0.91558 0.3826 0.51542 0.0
H891 H 0.88625 0.39523 0.51367 0.0
C892 C 0.93949 0.39169 0.55437 0.0
C893 C 0.93169 0.41553 0.55448 0.0
C894 C 0.92613 0.37415 0.54802 0.0
C895 C 0.90481 0.38012 0.54159 0.0
C896 C 0.89701 0.4039 0.54157 0.0
H897 H 0.80037 0.2708 0.51967 0.0
H898 H 0.8179 0.30842 0.52727 0.0
C899 C 0.91036 0.42148 0.54795 0.0
C900 C 0.89027 0.36111 0.53548 0.0
H901 H 0.87072 0.33965 0.50617 0.0
C902 C 0.88096 0.34318 0.54354 0.0
C903 C 0.8865 0.35999 0.52186 0.0
C904 C 0.89675 0.3785 0.51278 0.0
C905 C 0.86819 0.32389 0.53831 0.0
C906 C 0.86437 0.32273 0.52469 0.0
C907 C 0.87348 0.34079 0.51663 0.0
C908 C 0.8526 0.30187 0.51863 0.0
C909 C 0.85963 0.30445 0.54736 0.0
C910 C 0.86604 0.28632 0.5108 0.0
C911 C 0.85609 0.26492 0.50643 0.0
C912 C 0.8325 0.25878 0.50978 0.0
C913 C 0.81863 0.27502 0.517 0.0
C914 C 0.82862 0.29644 0.52138 0.0
H915 H 0.86797 0.30578 0.55718 0.0
H916 H 0.83995 0.3059 0.54857 0.0
H917 H 0.86364 0.28657 0.54324 0.0
H918 H 0.88456 0.29026 0.50855 0.0
H919 H 0.86717 0.2528 0.50082 0.0
H920 H 0.56451 0.07338 0.46701 0.0
H921 H 0.59446 0.09726 0.47863 0.0
H922 H 0.63158 0.10994 0.44241 0.0
H923 H 0.60178 0.08614 0.43076 0.0
H924 H 0.6603 0.09136 0.4619 0.0
H925 H 0.60857 0.16937 0.47997 0.0
H926 H 0.59586 0.14071 0.48368 0.0
H927 H 0.59792 0.15025 0.467 0.0
C928 C 0.57879 0.08169 0.4615 0.0
C929 C 0.58093 0.07777 0.448 0.0
C930 C 0.59583 0.09536 0.46814 0.0
C931 C 0.6151 0.1055 0.46136 0.0
C932 C 0.61681 0.10226 0.44782 0.0
H933 H 0.73011 0.19947 0.48381 0.0
H934 H 0.69244 0.18268 0.47571 0.0
C935 C 0.59987 0.08857 0.44119 0.0
C936 C 0.63477 0.11754 0.46843 0.0
H937 H 0.64848 0.1654 0.48771 0.0
C938 C 0.65772 0.10755 0.46754 0.0
C939 C 0.6313 0.13871 0.47571 0.0
C940 C 0.60714 0.15057 0.4766 0.0
C941 C 0.67736 0.11815 0.47372 0.0
C942 C 0.67388 0.13907 0.4812 0.0
C943 C 0.65096 0.14919 0.48207 0.0
C944 C 0.69423 0.15101 0.4877 0.0
C945 C 0.70181 0.10713 0.47194 0.0
C946 C 0.7071 0.13918 0.49749 0.0
C947 C 0.72865 0.14861 0.50206 0.0
C948 C 0.73752 0.17013 0.49698 0.0
C949 C 0.72373 0.1828 0.48786 0.0
C950 C 0.70221 0.17328 0.48324 0.0
H951 H 0.70222 0.09438 0.46363 0.0
H952 H 0.71555 0.12109 0.47025 0.0
H953 H 0.70675 0.09723 0.48091 0.0
H954 H 0.701 0.12212 0.50118 0.0
H955 H 0.73879 0.13856 0.50919 0.0
H956 H 0.94355 0.07696 0.71863 0.0
H957 H 0.91955 0.10724 0.72981 0.0
H958 H 0.87321 0.11225 0.6963 0.0
H959 H 0.89721 0.08217 0.685 0.0
H960 H 0.91292 0.1536 0.72056 0.0
H961 H 0.82579 0.10752 0.72685 0.0
H962 H 0.85322 0.0917 0.72334 0.0
H963 H 0.83738 0.10676 0.71051 0.0
C964 C 0.9282 0.08444 0.71366 0.0
C965 C 0.92231 0.07721 0.70091 0.0
C966 C 0.91442 0.1016 0.72009 0.0
C967 C 0.89443 0.11171 0.71395 0.0
C968 C 0.88823 0.10424 0.70133 0.0
H969 H 0.80406 0.23379 0.72721 0.0
H970 H 0.82154 0.19601 0.71987 0.0
C971 C 0.902 0.08708 0.69488 0.0
C972 C 0.88138 0.13158 0.72027 0.0
H973 H 0.82626 0.14946 0.73084 0.0
C974 C 0.89403 0.15262 0.72295 0.0
C975 C 0.85671 0.13025 0.72325 0.0
C976 C 0.84247 0.10778 0.72095 0.0
C977 C 0.88257 0.17265 0.72824 0.0
C978 C 0.85787 0.17139 0.7312 0.0
C979 C 0.84521 0.15029 0.72861 0.0
C980 C 0.84491 0.19222 0.73657 0.0
C981 C 0.89686 0.19524 0.73021 0.0
C982 C 0.85157 0.20202 0.74863 0.0
C983 C 0.84174 0.22362 0.7528 0.0
C984 C 0.8249 0.23563 0.74503 0.0
C985 C 0.81704 0.22495 0.73338 0.0
C986 C 0.827 0.20339 0.72918 0.0
H987 H 0.91387 0.19499 0.72461 0.0
H988 H 0.88637 0.21115 0.72721 0.0
H989 H 0.90136 0.19716 0.7407 0.0
H990 H 0.86503 0.19339 0.75459 0.0
H991 H 0.84798 0.23133 0.76188 0.0
H992 H 0.89355 0.42023 0.93331 0.0
H993 H 0.86434 0.3971 0.94573 0.0
H994 H 0.90729 0.40501 0.9804 0.0
H995 H 0.93659 0.42845 0.96806 0.0
H996 H 0.88729 0.35741 0.97599 0.0
H997 H 0.8201 0.43015 0.97302 0.0
H998 H 0.83241 0.42139 0.95755 0.0
H999 H 0.85145 0.43482 0.96964 0.0
C1000 C 0.89678 0.41709 0.94358 0.0
C1001 C 0.91722 0.42642 0.94975 0.0
C1002 C 0.88014 0.40381 0.95064 0.0
C1003 C 0.88355 0.39969 0.964 0.0
C1004 C 0.90437 0.40809 0.9701 0.0
H1005 H 0.76183 0.35773 0.01137 0.0
H1006 H 0.79964 0.37592 0.00468 0.0
C1007 C 0.92109 0.4214 0.96303 0.0
C1008 C 0.86476 0.38753 0.97163 0.0
H1009 H 0.8062 0.39251 0.98046 0.0
C1010 C 0.8696 0.3651 0.9771 0.0
C1011 C 0.84189 0.39787 0.97324 0.0
C1012 C 0.83613 0.42248 0.96817 0.0
C1013 C 0.85173 0.35228 0.98372 0.0
C1014 C 0.82848 0.36211 0.98471 0.0
C1015 C 0.824 0.38493 0.97965 0.0
C1016 C 0.80805 0.34881 0.99034 0.0
C1017 C 0.85791 0.3284 0.98957 0.0
C1018 C 0.80053 0.32722 0.98472 0.0
C1019 C 0.779 0.3167 0.98859 0.0
C1020 C 0.76451 0.3278 0.99801 0.0
C1021 C 0.77261 0.34881 0.00406 0.0
C1022 C 0.7942 0.35922 0.00025 0.0
H1023 H 0.87737 0.32696 0.99165 0.0
H1024 H 0.84785 0.32526 0.99875 0.0
H1025 H 0.85317 0.31409 0.98254 0.0
H1026 H 0.81063 0.31915 0.97686 0.0
H1027 H 0.77313 0.30057 0.98372 0.0
H1028 H 0.53961 0.39659 0.20701 0.0
H1029 H 0.56226 0.36578 0.21849 0.0
H1030 H 0.62825 0.40101 0.20827 0.0
H1031 H 0.60561 0.43208 0.19684 0.0
H1032 H 0.5946 0.33609 0.20667 0.0
H1033 H 0.63814 0.38642 0.24693 0.0
H1034 H 0.61327 0.39826 0.23773 0.0
H1035 H 0.6429 0.39859 0.23093 0.0
C1036 C 0.55894 0.39786 0.2073 0.0
C1037 C 0.57087 0.41663 0.20099 0.0
C1038 C 0.57184 0.38033 0.2139 0.0
C1039 C 0.59691 0.38123 0.21433 0.0
C1040 C 0.60889 0.40026 0.2083 0.0
H1041 H 0.69946 0.27176 0.23712 0.0
H1042 H 0.68112 0.30899 0.22946 0.0
C1043 C 0.59596 0.41793 0.20174 0.0
C1044 C 0.61036 0.36111 0.22012 0.0
H1045 H 0.65021 0.34606 0.24402 0.0
C1046 C 0.60669 0.33828 0.21486 0.0
C1047 C 0.62626 0.36408 0.23074 0.0
C1048 C 0.63029 0.38811 0.23701 0.0
C1049 C 0.61842 0.31829 0.21995 0.0
C1050 C 0.63406 0.32119 0.23066 0.0
C1051 C 0.63812 0.34402 0.23582 0.0
C1052 C 0.64582 0.30038 0.2367 0.0
C1053 C 0.61408 0.29417 0.21382 0.0
C1054 C 0.63211 0.28369 0.24358 0.0
C1055 C 0.64246 0.2625 0.24794 0.0
C1056 C 0.66672 0.25769 0.24548 0.0
C1057 C 0.68071 0.27498 0.23912 0.0
C1058 C 0.67031 0.29623 0.23477 0.0
H1059 H 0.60531 0.29565 0.20413 0.0
H1060 H 0.63118 0.28428 0.21266 0.0
H1061 H 0.60227 0.28352 0.22028 0.0
H1062 H 0.61319 0.28673 0.24521 0.0
H1063 H 0.63126 0.24958 0.25287 0.0
H1064 H 0.08751 0.90011 0.36816 0.0
H1065 H 0.10756 0.8756 0.38468 0.0
H1066 H 0.10082 0.93281 0.41259 0.0
H1067 H 0.08035 0.95715 0.39636 0.0
H1068 H 0.14805 0.90974 0.41082 0.0
H1069 H 0.07176 0.84684 0.41731 0.0
H1070 H 0.08214 0.85221 0.40095 0.0
H1071 H 0.06807 0.87584 0.40993 0.0
C1072 C 0.09021 0.90744 0.37783 0.0
C1073 C 0.08231 0.93062 0.38092 0.0
C1074 C 0.10172 0.89344 0.38722 0.0
C1075 C 0.1055 0.90241 0.39983 0.0
C1076 C 0.09812 0.92564 0.40287 0.0
H1077 H 0.13141 0.84898 0.47587 0.0
H1078 H 0.11633 0.86567 0.45543 0.0
C1079 C 0.08655 0.93958 0.39355 0.0
C1080 C 0.11664 0.88759 0.41009 0.0
H1081 H 0.10526 0.84145 0.43088 0.0
C1082 C 0.1389 0.89459 0.41511 0.0
C1083 C 0.10445 0.86803 0.41568 0.0
C1084 C 0.08021 0.86024 0.4108 0.0
C1085 C 0.14911 0.88283 0.42582 0.0
C1086 C 0.13673 0.86353 0.43157 0.0
C1087 C 0.11471 0.85618 0.42636 0.0
C1088 C 0.14542 0.85207 0.44365 0.0
C1089 C 0.17254 0.89175 0.43128 0.0
C1090 C 0.16655 0.83858 0.44371 0.0
C1091 C 0.1752 0.82897 0.45538 0.0
C1092 C 0.16282 0.83277 0.46715 0.0
C1093 C 0.14136 0.84582 0.46697 0.0
C1094 C 0.1327 0.85532 0.45531 0.0
H1095 H 0.17793 0.90911 0.42696 0.0
H1096 H 0.17132 0.89385 0.44204 0.0
H1097 H 0.1868 0.87852 0.42919 0.0
H1098 H 0.17646 0.8357 0.43477 0.0
H1099 H 0.19176 0.81893 0.45523 0.0
H1100 H 0.09309 0.58964 0.62213 0.0
H1101 H 0.11592 0.60896 0.63965 0.0
H1102 H 0.0602 0.59135 0.66708 0.0
H1103 H 0.03771 0.57145 0.64982 0.0
H1104 H 0.10266 0.64704 0.65669 0.0
H1105 H 0.1209 0.56338 0.68374 0.0
H1106 H 0.11062 0.56357 0.66704 0.0
H1107 H 0.08978 0.56794 0.6802 0.0
C1108 C 0.08578 0.58979 0.63191 0.0
C1109 C 0.06361 0.57895 0.63458 0.0
C1110 C 0.09877 0.60094 0.64188 0.0
C1111 C 0.08989 0.60122 0.65468 0.0
C1112 C 0.06753 0.59096 0.6573 0.0
H1113 H 0.12768 0.65419 0.73034 0.0
H1114 H 0.10908 0.63706 0.71086 0.0
C1115 C 0.05457 0.57985 0.64738 0.0
C1116 C 0.1039 0.61213 0.66539 0.0
H1117 H 0.12872 0.59976 0.69503 0.0
C1118 C 0.10862 0.63671 0.66502 0.0
C1119 C 0.11169 0.59853 0.6762 0.0
C1120 C 0.10822 0.57185 0.6768 0.0
C1121 C 0.12011 0.64825 0.67546 0.0
C1122 C 0.12726 0.63473 0.68643 0.0
C1123 C 0.12306 0.61007 0.68663 0.0
C1124 C 0.13846 0.64587 0.69801 0.0
C1125 C 0.12378 0.67489 0.6749 0.0
C1126 C 0.16119 0.65637 0.69721 0.0
C1127 C 0.1719 0.66614 0.70834 0.0
C1128 C 0.16003 0.66549 0.72043 0.0
C1129 C 0.13724 0.65499 0.72116 0.0
C1130 C 0.1266 0.6452 0.71006 0.0
H1131 H 0.11311 0.68329 0.667 0.0
H1132 H 0.11884 0.68331 0.68434 0.0
H1133 H 0.14296 0.67872 0.67306 0.0
H1134 H 0.17078 0.65672 0.68803 0.0
H1135 H 0.18951 0.67405 0.70749 0.0
H1136 H 0.46106 0.57514 0.89919 0.0
H1137 H 0.43838 0.59728 0.91554 0.0
H1138 H 0.38207 0.60951 0.88759 0.0
H1139 H 0.40482 0.58744 0.87104 0.0
H1140 H 0.42191 0.64502 0.9146 0.0
H1141 H 0.34719 0.57988 0.91915 0.0
H1142 H 0.37516 0.57241 0.91135 0.0
H1143 H 0.35355 0.59045 0.90297 0.0
C1144 C 0.44397 0.58275 0.89644 0.0
C1145 C 0.43477 0.57959 0.88379 0.0
C1146 C 0.43099 0.59529 0.90583 0.0
C1147 C 0.40848 0.60481 0.90281 0.0
C1148 C 0.39925 0.60193 0.89017 0.0
H1149 H 0.30933 0.67676 0.9562 0.0
H1150 H 0.32816 0.66095 0.93639 0.0
C1151 C 0.41226 0.58933 0.88074 0.0
C1152 C 0.39491 0.61777 0.91299 0.0
H1153 H 0.34537 0.61422 0.93237 0.0
C1154 C 0.4051 0.63839 0.91844 0.0
C1155 C 0.37294 0.6091 0.91792 0.0
C1156 C 0.36156 0.58665 0.91265 0.0
C1157 C 0.39408 0.65039 0.92884 0.0
C1158 C 0.37253 0.64127 0.93406 0.0
C1159 C 0.36193 0.62111 0.92834 0.0
C1160 C 0.36143 0.65161 0.94589 0.0
C1161 C 0.40563 0.67269 0.93418 0.0
C1162 C 0.37384 0.65137 0.95779 0.0
C1163 C 0.36316 0.66033 0.96909 0.0
C1164 C 0.33981 0.66959 0.9687 0.0
C1165 C 0.32739 0.66981 0.95677 0.0
C1166 C 0.33809 0.66079 0.94547 0.0
H1167 H 0.41778 0.68103 0.92692 0.0
H1168 H 0.39194 0.686 0.93715 0.0
H1169 H 0.41642 0.66802 0.94289 0.0
H1170 H 0.39169 0.64391 0.95837 0.0
H1171 H 0.37312 0.6598 0.97815 0.0
H1172 H 0.42698 0.96044 0.14818 0.0
H1173 H 0.40501 0.93823 0.16474 0.0
H1174 H 0.38815 0.88375 0.13644 0.0
H1175 H 0.41016 0.90601 0.1197 0.0
H1176 H 0.35683 0.92441 0.16488 0.0
H1177 H 0.41788 0.84601 0.16673 0.0
H1178 H 0.42621 0.87368 0.15897 0.0
H1179 H 0.40613 0.85343 0.15093 0.0
C1180 C 0.41841 0.94386 0.14541 0.0
C1181 C 0.42025 0.93502 0.1326 0.0
C1182 C 0.40596 0.93113 0.15491 0.0
C1183 C 0.39517 0.90925 0.15185 0.0
C1184 C 0.39673 0.90041 0.13906 0.0
H1185 H 0.32119 0.81252 0.2056 0.0
H1186 H 0.33651 0.83123 0.18567 0.0
C1187 C 0.40927 0.91314 0.12952 0.0
C1188 C 0.38227 0.89597 0.16216 0.0
H1189 H 0.38442 0.84545 0.1807 0.0
C1190 C 0.36276 0.90707 0.16829 0.0
C1191 C 0.39001 0.87333 0.16654 0.0
C1192 C 0.41131 0.8609 0.16055 0.0
C1193 C 0.35101 0.89632 0.17884 0.0
C1194 C 0.35923 0.87405 0.18349 0.0
C1195 C 0.37822 0.86255 0.1771 0.0
C1196 C 0.34925 0.86304 0.19542 0.0
C1197 C 0.32995 0.90892 0.18496 0.0
C1198 C 0.35156 0.87466 0.20749 0.0
C1199 C 0.34289 0.86404 0.21886 0.0
C1200 C 0.33184 0.84155 0.21836 0.0
C1201 C 0.32954 0.82992 0.20626 0.0
C1202 C 0.33829 0.84054 0.19489 0.0
H1203 H 0.32181 0.92203 0.17816 0.0
H1204 H 0.316 0.89598 0.18802 0.0
H1205 H 0.33609 0.91876 0.19375 0.0
H1206 H 0.36039 0.89183 0.20814 0.0
H1207 H 0.34504 0.87337 0.22804 0.0
H1208 H 0.05679 0.6119 0.87818 0.0
H1209 H 0.0794 0.63132 0.86065 0.0
H1210 H 0.11628 0.56534 0.85276 0.0
H1211 H 0.09365 0.54568 0.87014 0.0
H1212 H 0.13885 0.62661 0.85573 0.0
H1213 H 0.07373 0.59331 0.81871 0.0
H1214 H 0.06473 0.59957 0.83529 0.0
H1215 H 0.08292 0.57401 0.83185 0.0
C1216 C 0.06986 0.60159 0.87278 0.0
C1217 C 0.07339 0.57724 0.87551 0.0
C1218 C 0.08281 0.61273 0.86284 0.0
C1219 C 0.09939 0.59968 0.85547 0.0
C1220 C 0.10358 0.57564 0.85842 0.0
H1221 H 0.16705 0.62667 0.78113 0.0
H1222 H 0.15031 0.60895 0.80091 0.0
C1223 C 0.09073 0.56451 0.86838 0.0
C1224 C 0.1111 0.61067 0.84409 0.0
H1225 H 0.10632 0.61574 0.81106 0.0
C1226 C 0.13182 0.62433 0.84594 0.0
C1227 C 0.10183 0.60742 0.83141 0.0
C1228 C 0.07954 0.59285 0.82907 0.0
C1229 C 0.14373 0.63475 0.83531 0.0
C1230 C 0.13427 0.63177 0.82259 0.0
C1231 C 0.11352 0.61802 0.82081 0.0
C1232 C 0.14555 0.64263 0.81094 0.0
C1233 C 0.16659 0.64835 0.83777 0.0
C1234 C 0.14834 0.66746 0.80999 0.0
C1235 C 0.15807 0.67761 0.79873 0.0
C1236 C 0.16484 0.66312 0.78816 0.0
C1237 C 0.16197 0.63828 0.78911 0.0
C1238 C 0.15243 0.62814 0.8004 0.0
H1239 H 0.1749 0.64323 0.8472 0.0
H1240 H 0.17976 0.64526 0.82984 0.0
H1241 H 0.16256 0.66772 0.83817 0.0
H1242 H 0.1426 0.67903 0.81786 0.0
H1243 H 0.15993 0.69683 0.79822 0.0
H1244 H 0.39296 0.55088 0.12431 0.0
H1245 H 0.37219 0.57205 0.10683 0.0
H1246 H 0.43254 0.61934 0.10258 0.0
H1247 H 0.45393 0.59757 0.11959 0.0
H1248 H 0.35844 0.61863 0.10329 0.0
H1249 H 0.42547 0.59176 0.06612 0.0
H1250 H 0.42465 0.57888 0.08222 0.0
H1251 H 0.43799 0.60771 0.07969 0.0
C1252 C 0.40188 0.56572 0.11963 0.0
C1253 C 0.42527 0.57228 0.12323 0.0
C1254 C 0.38989 0.57793 0.10971 0.0
C1255 C 0.40103 0.59693 0.10323 0.0
C1256 C 0.42383 0.60438 0.10727 0.0
H1257 H 0.33229 0.69378 0.04833 0.0
H1258 H 0.35034 0.67564 0.06767 0.0
C1259 C 0.43591 0.59209 0.11712 0.0
C1260 C 0.38913 0.6083 0.09192 0.0
H1261 H 0.39559 0.61898 0.05935 0.0
C1262 C 0.36652 0.61873 0.09367 0.0
C1263 C 0.39956 0.608 0.07934 0.0
C1264 C 0.42314 0.59579 0.07666 0.0
C1265 C 0.35414 0.62909 0.08319 0.0
C1266 C 0.36491 0.62943 0.0707 0.0
C1267 C 0.38744 0.61885 0.06895 0.0
C1268 C 0.35308 0.64032 0.05921 0.0
C1269 C 0.32942 0.63905 0.08554 0.0
C1270 C 0.34908 0.62663 0.04794 0.0
C1271 C 0.33909 0.63702 0.03683 0.0
C1272 C 0.3329 0.66131 0.0368 0.0
C1273 C 0.33672 0.67496 0.04812 0.0
C1274 C 0.34688 0.66459 0.0592 0.0
H1275 H 0.32119 0.63145 0.09448 0.0
H1276 H 0.33065 0.65866 0.08685 0.0
H1277 H 0.31743 0.63539 0.07713 0.0
H1278 H 0.35383 0.60789 0.04773 0.0
H1279 H 0.33636 0.62606 0.02824 0.0
H1280 H 0.45059 0.88836 0.3757 0.0
H1281 H 0.42902 0.86793 0.35822 0.0
H1282 H 0.379 0.92637 0.35606 0.0
H1283 H 0.40115 0.94752 0.37305 0.0
H1284 H 0.38285 0.85248 0.35478 0.0
H1285 H 0.40524 0.92361 0.3192 0.0
H1286 H 0.41884 0.92202 0.33512 0.0
H1287 H 0.38924 0.93416 0.33324 0.0
C1288 C 0.43503 0.89693 0.37149 0.0
C1289 C 0.42787 0.91978 0.37564 0.0
C1290 C 0.42261 0.88511 0.36158 0.0
C1291 C 0.40274 0.89587 0.35565 0.0
C1292 C 0.39463 0.91799 0.36031 0.0
H1293 H 0.30791 0.82705 0.29919 0.0
H1294 H 0.3253 0.84392 0.31909 0.0
C1295 C 0.40715 0.92992 0.37015 0.0
C1296 C 0.39134 0.88448 0.34416 0.0
H1297 H 0.3793 0.89312 0.31188 0.0
C1298 C 0.38203 0.86133 0.34539 0.0
C1299 C 0.3907 0.89594 0.33187 0.0
C1300 C 0.40174 0.9202 0.3297 0.0
C1301 C 0.37194 0.84936 0.33467 0.0
C1302 C 0.37073 0.86109 0.32247 0.0
C1303 C 0.3801 0.88421 0.32125 0.0
C1304 C 0.36037 0.84966 0.31069 0.0
C1305 C 0.36329 0.82407 0.33643 0.0
C1306 C 0.37416 0.84765 0.29929 0.0
C1307 C 0.36417 0.83838 0.28788 0.0
C1308 C 0.3402 0.83086 0.28766 0.0
C1309 C 0.32649 0.83253 0.29912 0.0
C1310 C 0.33645 0.84202 0.31052 0.0
H1311 H 0.37148 0.81555 0.34513 0.0
H1312 H 0.34361 0.82418 0.33783 0.0
H1313 H 0.36742 0.81301 0.32772 0.0
H1314 H 0.39263 0.8535 0.2992 0.0
H1315 H 0.37516 0.8373 0.2792 0.0
H1316 H 0.05564 0.88948 0.62788 0.0
H1317 H 0.07866 0.868 0.61127 0.0
H1318 H 0.1182 0.93221 0.60276 0.0
H1319 H 0.09538 0.95371 0.61935 0.0
H1320 H 0.07886 0.8782 0.58553 0.0
H1321 H 0.17136 0.88315 0.60466 0.0
H1322 H 0.14548 0.88942 0.61464 0.0
H1323 H 0.15725 0.91186 0.60386 0.0
C1324 C 0.06942 0.89893 0.62255 0.0
C1325 C 0.07371 0.92327 0.62492 0.0
C1326 C 0.08261 0.88663 0.61312 0.0
C1327 C 0.10037 0.89842 0.6059 0.0
C1328 C 0.10503 0.92259 0.60844 0.0
H1329 H 0.14772 0.8688 0.52795 0.0
H1330 H 0.13 0.88432 0.54804 0.0
C1331 C 0.09193 0.93487 0.61791 0.0
C1332 C 0.11244 0.88612 0.59492 0.0
H1333 H 0.16726 0.87347 0.58193 0.0
C1334 C 0.09819 0.87693 0.58482 0.0
C1335 C 0.13764 0.88421 0.59407 0.0
C1336 C 0.15382 0.89247 0.60495 0.0
C1337 C 0.10845 0.86665 0.57368 0.0
C1338 C 0.13365 0.866 0.57249 0.0
C1339 C 0.14794 0.87433 0.58279 0.0
C1340 C 0.14541 0.85718 0.56048 0.0
C1341 C 0.09221 0.85659 0.56328 0.0
C1342 C 0.16062 0.83729 0.56089 0.0
C1343 C 0.17092 0.82847 0.54943 0.0
C1344 C 0.16623 0.8395 0.53739 0.0
C1345 C 0.15153 0.85982 0.53707 0.0
C1346 C 0.14129 0.86863 0.54852 0.0
H1347 H 0.07419 0.85235 0.56722 0.0
H1348 H 0.08995 0.86999 0.55542 0.0
H1349 H 0.09991 0.84016 0.5589 0.0
H1350 H 0.16412 0.82831 0.57005 0.0
H1351 H 0.18223 0.8128 0.54996 0.0
H1352 H 0.58762 0.40255 0.87025 0.0
H1353 H 0.60783 0.37853 0.88692 0.0
H1354 H 0.59722 0.43477 0.91506 0.0
H1355 H 0.57669 0.45865 0.89864 0.0
H1356 H 0.64475 0.41475 0.91436 0.0
H1357 H 0.57289 0.34632 0.91833 0.0
H1358 H 0.5842 0.35234 0.90223 0.0
H1359 H 0.56797 0.37505 0.91084 0.0
C1360 C 0.58949 0.40975 0.88001 0.0
C1361 C 0.58053 0.43254 0.8831 0.0
C1362 C 0.60106 0.39602 0.8895 0.0
C1363 C 0.60381 0.40485 0.90222 0.0
C1364 C 0.59531 0.4277 0.90528 0.0
H1365 H 0.63072 0.34358 0.97705 0.0
H1366 H 0.61471 0.36202 0.95726 0.0
C1367 C 0.58371 0.44138 0.89584 0.0
C1368 C 0.61524 0.39032 0.91252 0.0
H1369 H 0.60658 0.34158 0.93189 0.0
C1370 C 0.63657 0.39862 0.91813 0.0
C1371 C 0.60432 0.36945 0.91745 0.0
C1372 C 0.58099 0.36024 0.91201 0.0
C1373 C 0.64714 0.38676 0.9287 0.0
C1374 C 0.63616 0.36595 0.93369 0.0
C1375 C 0.615 0.35746 0.92796 0.0
C1376 C 0.64557 0.35364 0.94536 0.0
C1377 C 0.66948 0.39705 0.93478 0.0
C1378 C 0.66803 0.34248 0.94513 0.0
C1379 C 0.67722 0.33193 0.95642 0.0
C1380 C 0.66404 0.33235 0.9681 0.0
C1381 C 0.6413 0.34304 0.9682 0.0
C1382 C 0.63212 0.35353 0.95691 0.0
H1383 H 0.67308 0.41551 0.93137 0.0
H1384 H 0.66802 0.3972 0.94558 0.0
H1385 H 0.68505 0.38576 0.93211 0.0
H1386 H 0.67852 0.34212 0.93625 0.0
H1387 H 0.69476 0.32374 0.95604 0.0
H1388 H 0.59673 0.04463 0.1357 0.0
H1389 H 0.61998 0.06526 0.15248 0.0
H1390 H 0.58018 0.12985 0.14531 0.0
H1391 H 0.55679 0.10931 0.1285 0.0
H1392 H 0.64854 0.10683 0.1525 0.0
H1393 H 0.56823 0.11614 0.1841 0.0
H1394 H 0.56872 0.09703 0.16993 0.0
H1395 H 0.56527 0.12873 0.16808 0.0
C1396 C 0.59321 0.06334 0.13753 0.0
C1397 C 0.57478 0.0753 0.13086 0.0
C1398 C 0.60646 0.07508 0.14714 0.0
C1399 C 0.60152 0.09894 0.15027 0.0
C1400 C 0.58393 0.11127 0.14321 0.0
H1401 H 0.68387 0.18655 0.20514 0.0
H1402 H 0.66614 0.17009 0.18518 0.0
C1403 C 0.57059 0.09953 0.13363 0.0
C1404 C 0.61385 0.1104 0.16142 0.0
H1405 H 0.60404 0.13332 0.19181 0.0
C1406 C 0.63885 0.11273 0.16108 0.0
C1407 C 0.60114 0.11776 0.17266 0.0
C1408 C 0.57439 0.11464 0.17383 0.0
C1409 C 0.65151 0.12224 0.17173 0.0
C1410 C 0.63874 0.12981 0.18291 0.0
C1411 C 0.61375 0.12759 0.18319 0.0
C1412 C 0.65088 0.13918 0.19469 0.0
C1413 C 0.67845 0.12344 0.17111 0.0
C1414 C 0.64802 0.12735 0.20664 0.0
C1415 C 0.65793 0.13677 0.21802 0.0
C1416 C 0.67086 0.15826 0.21768 0.0
C1417 C 0.67411 0.16989 0.20567 0.0
C1418 C 0.6641 0.16046 0.19426 0.0
H1419 H 0.68577 0.11203 0.16318 0.0
H1420 H 0.684 0.14212 0.16919 0.0
H1421 H 0.68653 0.11782 0.18051 0.0
H1422 H 0.63784 0.11093 0.20718 0.0
H1423 H 0.65513 0.12741 0.22713 0.0
H1424 H 0.9071 0.08663 0.37107 0.0
H1425 H 0.88458 0.10822 0.38792 0.0
H1426 H 0.94095 0.09444 0.41563 0.0
H1427 H 0.96339 0.07285 0.39898 0.0
H1428 H 0.86821 0.09134 0.41199 0.0
H1429 H 0.93139 0.16642 0.4189 0.0
H1430 H 0.93262 0.14684 0.40491 0.0
H1431 H 0.94561 0.13781 0.42019 0.0
C1432 C 0.91467 0.08823 0.38076 0.0
C1433 C 0.93716 0.07825 0.38365 0.0
C1434 C 0.90185 0.10063 0.39034 0.0
C1435 C 0.91134 0.10333 0.40293 0.0
C1436 C 0.93361 0.09314 0.40587 0.0
H1437 H 0.87213 0.15018 0.47914 0.0
H1438 H 0.89047 0.13435 0.45927 0.0
C1439 C 0.94642 0.08081 0.39633 0.0
C1440 C 0.89772 0.11593 0.41324 0.0
H1441 H 0.9024 0.16053 0.43582 0.0
C1442 C 0.87547 0.1067 0.41709 0.0
C1443 C 0.90725 0.13599 0.41983 0.0
C1444 C 0.93042 0.14751 0.41567 0.0
C1445 C 0.86303 0.1163 0.42778 0.0
C1446 C 0.87304 0.13577 0.43466 0.0
C1447 C 0.89489 0.14549 0.43055 0.0
C1448 C 0.86172 0.14559 0.44656 0.0
C1449 C 0.8398 0.10496 0.43198 0.0
C1450 C 0.8396 0.15736 0.44593 0.0
C1451 C 0.82909 0.16648 0.45727 0.0
C1452 C 0.84058 0.16397 0.4694 0.0
C1453 C 0.86283 0.15235 0.46995 0.0
C1454 C 0.87334 0.14332 0.45862 0.0
H1455 H 0.8367 0.08752 0.42709 0.0
H1456 H 0.83958 0.10222 0.4427 0.0
H1457 H 0.82474 0.11701 0.42947 0.0
H1458 H 0.83053 0.15957 0.43667 0.0
H1459 H 0.81196 0.17541 0.45655 0.0
H1460 H 0.96026 0.40611 0.63743 0.0
H1461 H 0.94066 0.38323 0.65471 0.0
H1462 H 0.87296 0.41525 0.64473 0.0
H1463 H 0.89239 0.43803 0.62731 0.0
H1464 H 0.91448 0.40694 0.67578 0.0
H1465 H 0.85893 0.34186 0.64813 0.0
H1466 H 0.88485 0.35627 0.64113 0.0
H1467 H 0.85735 0.37247 0.64293 0.0
C1468 C 0.9411 0.40786 0.63871 0.0
C1469 C 0.92784 0.42385 0.63101 0.0
C1470 C 0.92998 0.39489 0.64862 0.0
C1471 C 0.90538 0.39745 0.6509 0.0
C1472 C 0.89193 0.41282 0.643 0.0
H1473 H 0.80721 0.34597 0.70992 0.0
H1474 H 0.82593 0.36343 0.69056 0.0
C1475 C 0.90307 0.42594 0.63313 0.0
C1476 C 0.89423 0.38561 0.66225 0.0
H1477 H 0.853 0.34368 0.67099 0.0
C1478 C 0.90114 0.393 0.67476 0.0
C1479 C 0.87669 0.36766 0.66082 0.0
C1480 C 0.86904 0.35889 0.64754 0.0
C1481 C 0.89068 0.38315 0.68596 0.0
C1482 C 0.87331 0.36495 0.68457 0.0
C1483 C 0.86638 0.35757 0.67202 0.0
C1484 C 0.86198 0.35355 0.69604 0.0
C1485 C 0.89787 0.39284 0.69913 0.0
C1486 C 0.876 0.3418 0.70541 0.0
C1487 C 0.86539 0.33203 0.71652 0.0
C1488 C 0.84053 0.33353 0.71836 0.0
C1489 C 0.82642 0.34462 0.70878 0.0
C1490 C 0.83708 0.35456 0.69771 0.0
H1491 H 0.90595 0.4109 0.69835 0.0
H1492 H 0.88227 0.39385 0.70582 0.0
H1493 H 0.91141 0.38084 0.70355 0.0
H1494 H 0.89518 0.34028 0.70415 0.0
H1495 H 0.87668 0.32336 0.72368 0.0
H1496 H 0.58434 0.0978 0.38555 0.0
H1497 H 0.60423 0.12267 0.36905 0.0
H1498 H 0.58084 0.07432 0.33889 0.0
H1499 H 0.56085 0.04962 0.3552 0.0
H1500 H 0.64078 0.10603 0.34961 0.0
H1501 H 0.558 0.1428 0.32746 0.0
H1502 H 0.55882 0.13056 0.34375 0.0
H1503 H 0.55786 0.11103 0.32985 0.0
C1504 C 0.58337 0.09259 0.37539 0.0
C1505 C 0.5711 0.07176 0.37165 0.0
C1506 C 0.59478 0.10672 0.36601 0.0
C1507 C 0.59374 0.10038 0.35279 0.0
C1508 C 0.58161 0.07959 0.34905 0.0
H1509 H 0.64038 0.13822 0.27712 0.0
H1510 H 0.62213 0.12282 0.29704 0.0
C1511 C 0.57039 0.06541 0.35839 0.0
C1512 C 0.60557 0.11511 0.34274 0.0
H1513 H 0.59392 0.14694 0.31514 0.0
C1514 C 0.63064 0.11535 0.34217 0.0
C1515 C 0.59217 0.12717 0.33311 0.0
C1516 C 0.56521 0.12812 0.33358 0.0
C1517 C 0.64269 0.12628 0.33174 0.0
C1518 C 0.62923 0.13759 0.32183 0.0
C1519 C 0.60418 0.13818 0.32274 0.0
C1520 C 0.64056 0.14732 0.30991 0.0
C1521 C 0.66961 0.12457 0.33107 0.0
C1522 C 0.65684 0.16635 0.31055 0.0
C1523 C 0.66741 0.17515 0.29916 0.0
C1524 C 0.66169 0.16514 0.28697 0.0
C1525 C 0.64517 0.14629 0.28637 0.0
C1526 C 0.6347 0.13749 0.29774 0.0
H1527 H 0.67683 0.11123 0.33804 0.0
H1528 H 0.67551 0.11968 0.32108 0.0
H1529 H 0.6775 0.14219 0.33351 0.0
H1530 H 0.66127 0.17446 0.31984 0.0
H1531 H 0.68001 0.18978 0.29989 0.0
H1532 H 0.92433 0.03895 0.60843 0.0
H1533 H 0.90168 0.06132 0.59221 0.0
H1534 H 0.88729 0.1163 0.62061 0.0
H1535 H 0.90983 0.09382 0.63705 0.0
H1536 H 0.85313 0.07657 0.59318 0.0
H1537 H 0.91699 0.15252 0.58939 0.0
H1538 H 0.92504 0.12455 0.59692 0.0
H1539 H 0.9063 0.14537 0.60546 0.0
C1540 C 0.91611 0.05565 0.61131 0.0
C1541 C 0.91882 0.06457 0.62406 0.0
C1542 C 0.90329 0.06847 0.602 0.0
C1543 C 0.89302 0.09053 0.60518 0.0
C1544 C 0.89542 0.09946 0.61791 0.0
H1545 H 0.82141 0.18784 0.55067 0.0
H1546 H 0.8362 0.16968 0.57088 0.0
C1547 C 0.90829 0.08661 0.62728 0.0
C1548 C 0.87991 0.10398 0.59504 0.0
H1549 H 0.8832 0.15343 0.57572 0.0
C1550 C 0.85956 0.09348 0.58943 0.0
C1551 C 0.88833 0.12607 0.59022 0.0
C1552 C 0.91045 0.13782 0.59571 0.0
C1553 C 0.84768 0.10424 0.57892 0.0
C1554 C 0.85664 0.12584 0.57378 0.0
C1555 C 0.87644 0.13683 0.5797 0.0
C1556 C 0.84673 0.1365 0.56173 0.0
C1557 C 0.82573 0.0923 0.57336 0.0
C1558 C 0.84797 0.1239 0.54991 0.0
C1559 C 0.83961 0.1342 0.53839 0.0
C1560 C 0.82996 0.15735 0.53848 0.0
C1561 C 0.82867 0.16993 0.55033 0.0
C1562 C 0.83712 0.15962 0.56186 0.0
H1563 H 0.81724 0.08018 0.58057 0.0
H1564 H 0.81232 0.10569 0.57016 0.0
H1565 H 0.83096 0.08146 0.56475 0.0
H1566 H 0.85578 0.10623 0.54956 0.0
H1567 H 0.84095 0.12412 0.5294 0.0
H1568 H 0.93265 0.45941 0.85599 0.0
H1569 H 0.91341 0.43567 0.83898 0.0
H1570 H 0.89405 0.38251 0.86744 0.0
H1571 H 0.91291 0.40648 0.88466 0.0
H1572 H 0.92578 0.38707 0.83241 0.0
H1573 H 0.8306 0.39744 0.84748 0.0
H1574 H 0.85381 0.4175 0.85298 0.0
H1575 H 0.8515 0.38816 0.85983 0.0
C1576 C 0.92395 0.44287 0.85869 0.0
C1577 C 0.92414 0.4349 0.87169 0.0
C1578 C 0.91313 0.42926 0.84894 0.0
C1579 C 0.90216 0.40748 0.85199 0.0
C1580 C 0.90219 0.39943 0.86494 0.0
H1581 H 0.82685 0.31004 0.79914 0.0
H1582 H 0.84506 0.328 0.81858 0.0
C1583 C 0.91311 0.41304 0.87473 0.0
C1584 C 0.89149 0.39298 0.84142 0.0
H1585 H 0.83825 0.37379 0.82892 0.0
C1586 C 0.90666 0.38405 0.83167 0.0
C1587 C 0.86658 0.38896 0.84057 0.0
C1588 C 0.84955 0.3986 0.8507 0.0
C1589 C 0.89753 0.37144 0.82095 0.0
C1590 C 0.87252 0.36813 0.81983 0.0
C1591 C 0.8574 0.37644 0.82979 0.0
C1592 C 0.86167 0.3571 0.80811 0.0
C1593 C 0.91475 0.36173 0.81092 0.0
C1594 C 0.86473 0.36772 0.79584 0.0
C1595 C 0.85443 0.35752 0.78475 0.0
C1596 C 0.84071 0.3366 0.78575 0.0
C1597 C 0.83742 0.32612 0.79807 0.0
C1598 C 0.84777 0.33635 0.80918 0.0
H1599 H 0.933 0.3595 0.81504 0.0
H1600 H 0.90858 0.34426 0.80706 0.0
H1601 H 0.91598 0.37443 0.80266 0.0
H1602 H 0.87496 0.38403 0.79485 0.0
H1603 H 0.85714 0.36609 0.7754 0.0
H1604 H 0.55258 0.3905 0.12504 0.0
H1605 H 0.57502 0.36915 0.10816 0.0
H1606 H 0.62016 0.43073 0.10269 0.0
H1607 H 0.59783 0.45218 0.1195 0.0
H1608 H 0.57841 0.3828 0.08257 0.0
H1609 H 0.6688 0.37663 0.10456 0.0
H1610 H 0.64246 0.38375 0.11401 0.0
H1611 H 0.657 0.40641 0.10446 0.0
C1612 C 0.56741 0.39942 0.12031 0.0
C1613 C 0.57343 0.42303 0.1236 0.0
C1614 C 0.58027 0.38717 0.11071 0.0
C1615 C 0.59943 0.39825 0.10428 0.0
C1616 C 0.60581 0.42164 0.10774 0.0
H1617 H 0.65343 0.3687 0.02716 0.0
H1618 H 0.63508 0.38545 0.04681 0.0
C1619 C 0.593 0.43388 0.11735 0.0
C1620 C 0.61146 0.38612 0.09323 0.0
H1621 H 0.66602 0.36857 0.08168 0.0
C1622 C 0.59754 0.3795 0.08242 0.0
C1623 C 0.63637 0.38164 0.09311 0.0
C1624 C 0.65202 0.38726 0.10471 0.0
C1625 C 0.60794 0.3691 0.07135 0.0
C1626 C 0.63299 0.36561 0.07099 0.0
C1627 C 0.64685 0.37156 0.08194 0.0
C1628 C 0.64506 0.35594 0.05927 0.0
C1629 C 0.59199 0.36183 0.06014 0.0
C1630 C 0.6574 0.33417 0.05987 0.0
C1631 C 0.66801 0.32461 0.04867 0.0
C1632 C 0.66655 0.33676 0.03671 0.0
C1633 C 0.65471 0.35886 0.03622 0.0
C1634 C 0.64413 0.36839 0.04741 0.0
H1635 H 0.57306 0.35983 0.06327 0.0
H1636 H 0.59266 0.37578 0.05248 0.0
H1637 H 0.59806 0.34474 0.05576 0.0
H1638 H 0.65841 0.32437 0.06896 0.0
H1639 H 0.67708 0.30758 0.04935 0.0
loop_
_geom_bond_atom_site_label_1
_geom_bond_atom_site_label_2
_geom_bond_distance
_geom_bond_site_symmetry_2
_ccdc_geom_bond_type
H0 C19 0.949 . S
H1 C20 0.950 . S
H2 C22 0.950 . S
H3 C23 0.950 . S
H4 C25 0.950 . S
H5 C28 0.950 . S
H6 C29 0.950 . S
H7 C31 0.951 . S
H8 C32 0.949 1_565 S
H9 C34 0.949 . S
H10 C35 0.950 . S
H11 C37 0.950 . S
H12 C38 0.950 . S
H13 C40 0.950 . S
H14 C43 0.950 . S
H15 C44 0.950 . S
H16 C46 0.951 . S
H17 C47 0.949 1_545 S
C18 C19 1.376 . S
C18 C23 1.386 . S
C18 C24 1.483 . S
C19 H0 0.949 . S
C19 C18 1.376 . S
C19 C20 1.397 . S
C20 H1 0.950 . S
C20 C19 1.397 . S
C20 C21 1.391 . S
C21 C20 1.391 . S
C21 C22 1.405 . S
C22 H2 0.950 . S
C22 C21 1.405 . S
C22 C23 1.367 . S
C23 H3 0.950 . S
C23 C18 1.386 . S
C23 C22 1.367 . S
C24 C18 1.483 . S
C24 C25 1.382 1_655 S
C24 C26 1.403 . S
C25 H4 0.950 . S
C25 C24 1.382 1_455 S
C25 C41 1.411 1_545 S
C26 C24 1.403 . S
C26 C27 1.489 . S
C26 C40 1.414 1_545 S
C27 C26 1.489 . S
C27 C28 1.383 . S
C27 C32 1.382 . S
C28 H5 0.950 . S
C28 C27 1.383 . S
C28 C29 1.395 . S
C29 H6 0.950 . S
C29 C28 1.395 . S
C29 C30 1.288 . S
C30 C29 1.288 . S
C30 C31 1.392 . S
C31 H7 0.951 . S
C31 C30 1.392 . S
C31 C32 1.392 . S
C32 H8 0.949 1_545 S
C32 C27 1.382 . S
C32 C31 1.392 . S
C33 C34 1.376 . S
C33 C38 1.386 . S
C33 C39 1.483 . S
C34 H9 0.949 . S
C34 C33 1.376 . S
C34 C35 1.397 . S
C35 H10 0.950 . S
C35 C34 1.397 . S
C35 C36 1.391 . S
C36 C35 1.391 . S
C36 C37 1.405 . S
C37 H11 0.950 . S
C37 C36 1.405 . S
C37 C38 1.367 . S
C38 H12 0.950 . S
C38 C33 1.386 . S
C38 C37 1.367 . S
C39 C33 1.483 . S
C39 C40 1.379 1_455 S
C39 C41 1.403 . S
C40 H13 0.950 . S
C40 C26 1.414 1_565 S
C40 C39 1.379 1_655 S
C41 C25 1.411 1_565 S
C41 C39 1.403 . S
C41 C42 1.489 . S
C42 C41 1.489 . S
C42 C43 1.383 . S
C42 C47 1.382 . S
C43 H14 0.950 . S
C43 C42 1.383 . S
C43 C44 1.395 . S
C44 H15 0.950 . S
C44 C43 1.395 . S
C44 C45 1.288 . S
C45 C44 1.288 . S
C45 C46 1.392 . S
C46 H16 0.951 . S
C46 C45 1.392 . S
C46 C47 1.392 . S
C47 H17 0.949 1_565 S
C47 C42 1.382 . S
C47 C46 1.392 . S
H48 C67 0.949 1_455 S
H49 C68 0.950 . S
H50 C70 0.950 . S
H51 C71 0.950 . S
H52 C73 0.950 . S
H53 C76 0.950 . S
H54 C77 0.950 . S
H55 C79 0.951 . S
H56 C80 0.949 . S
H57 C82 0.949 1_655 S
H58 C83 0.950 . S
H59 C85 0.950 . S
H60 C86 0.950 . S
H61 C88 0.950 . S
H62 C91 0.950 . S
H63 C92 0.950 . S
H64 C94 0.951 . S
H65 C95 0.949 . S
C66 C67 1.376 . S
C66 C71 1.386 . S
C66 C72 1.483 . S
C67 H48 0.949 1_655 S
C67 C66 1.376 . S
C67 C68 1.397 . S
C68 H49 0.950 . S
C68 C67 1.397 . S
C68 C69 1.391 . S
C69 C68 1.391 . S
C69 C70 1.405 . S
C70 H50 0.950 . S
C70 C69 1.405 . S
C70 C71 1.367 . S
C71 H51 0.950 . S
C71 C66 1.386 . S
C71 C70 1.367 . S
C72 C66 1.483 . S
C72 C73 1.382 1_655 S
C72 C74 1.403 . S
C73 H52 0.950 . S
C73 C72 1.382 1_455 S
C73 C89 1.411 . S
C74 C72 1.403 . S
C74 C75 1.489 . S
C74 C88 1.411 . S
C75 C74 1.489 . S
C75 C76 1.383 . S
C75 C80 1.382 . S
C76 H53 0.950 . S
C76 C75 1.383 . S
C76 C77 1.395 . S
C77 H54 0.950 . S
C77 C76 1.395 . S
C77 C78 1.288 . S
C78 C77 1.288 . S
C78 C79 1.392 . S
C79 H55 0.951 . S
C79 C78 1.392 . S
C79 C80 1.392 . S
C80 H56 0.949 . S
C80 C75 1.382 . S
C80 C79 1.392 . S
C81 C82 1.376 . S
C81 C86 1.386 . S
C81 C87 1.483 . S
C82 H57 0.949 1_455 S
C82 C81 1.376 . S
C82 C83 1.397 . S
C83 H58 0.950 . S
C83 C82 1.397 . S
C83 C84 1.391 . S
C84 C83 1.391 . S
C84 C85 1.405 . S
C85 H59 0.950 . S
C85 C84 1.405 . S
C85 C86 1.367 . S
C86 H60 0.950 . S
C86 C81 1.386 . S
C86 C85 1.367 . S
C87 C81 1.483 . S
C87 C88 1.382 1_455 S
C87 C89 1.403 . S
C88 H61 0.950 . S
C88 C74 1.411 . S
C88 C87 1.382 1_655 S
C89 C73 1.411 . S
C89 C87 1.403 . S
C89 C90 1.489 . S
C90 C89 1.489 . S
C90 C91 1.383 . S
C90 C95 1.382 . S
C91 H62 0.950 . S
C91 C90 1.383 . S
C91 C92 1.395 . S
C92 H63 0.950 . S
C92 C91 1.395 . S
C92 C93 1.288 . S
C93 C92 1.288 . S
C93 C94 1.392 . S
C94 H64 0.951 . S
C94 C93 1.392 . S
C94 C95 1.392 . S
C95 H65 0.949 . S
C95 C90 1.382 . S
C95 C94 1.392 . S
H96 C115 0.949 . S
H97 C116 0.950 . S
H98 C118 0.950 . S
H99 C119 0.950 . S
H100 C121 0.950 . S
H101 C124 0.950 . S
H102 C125 0.950 . S
H103 C127 0.951 . S
H104 C128 0.949 . S
H105 C130 0.949 . S
H106 C131 0.950 . S
H107 C133 0.950 . S
H108 C134 0.950 . S
H109 C136 0.950 . S
H110 C139 0.950 . S
H111 C140 0.950 . S
H112 C142 0.951 . S
H113 C143 0.949 . S
C114 C115 1.376 . S
C114 C119 1.386 . S
C114 C120 1.483 . S
C115 H96 0.949 . S
C115 C114 1.376 . S
C115 C116 1.397 . S
C116 H97 0.950 . S
C116 C115 1.397 . S
C116 C117 1.391 . S
C117 C116 1.391 . S
C117 C118 1.405 . S
C118 H98 0.950 . S
C118 C117 1.405 . S
C118 C119 1.367 . S
C119 H99 0.950 . S
C119 C114 1.386 . S
C119 C118 1.367 . S
C120 C114 1.483 . S
C120 C121 1.382 . S
C120 C122 1.403 . S
C121 H100 0.950 . S
C121 C120 1.382 . S
C121 C137 1.411 . S
C122 C120 1.403 . S
C122 C123 1.489 . S
C122 C136 1.411 . S
C123 C122 1.489 . S
C123 C124 1.383 . S
C123 C128 1.382 . S
C124 H101 0.950 . S
C124 C123 1.383 . S
C124 C125 1.395 . S
C125 H102 0.950 . S
C125 C124 1.395 . S
C125 C126 1.288 . S
C126 C125 1.288 . S
C126 C127 1.392 . S
C127 H103 0.951 . S
C127 C126 1.392 . S
C127 C128 1.392 . S
C128 H104 0.949 . S
C128 C123 1.382 . S
C128 C127 1.392 . S
C129 C130 1.376 . S
C129 C134 1.386 . S
C129 C135 1.483 . S
C130 H105 0.949 . S
C130 C129 1.376 . S
C130 C131 1.397 . S
C131 H106 0.950 . S
C131 C130 1.397 . S
C131 C132 1.391 . S
C132 C131 1.391 . S
C132 C133 1.405 . S
C133 H107 0.950 . S
C133 C132 1.405 . S
C133 C134 1.367 . S
C134 H108 0.950 . S
C134 C129 1.386 . S
C134 C133 1.367 . S
C135 C129 1.483 . S
C135 C136 1.382 . S
C135 C137 1.403 . S
C136 H109 0.950 . S
C136 C122 1.411 . S
C136 C135 1.382 . S
C137 C121 1.411 . S
C137 C135 1.403 . S
C137 C138 1.489 . S
C138 C137 1.489 . S
C138 C139 1.383 . S
C138 C143 1.382 . S
C139 H110 0.950 . S
C139 C138 1.383 . S
C139 C140 1.395 . S
C140 H111 0.950 . S
C140 C139 1.395 . S
C140 C141 1.288 . S
C141 C140 1.288 . S
C141 C142 1.392 . S
C142 H112 0.951 . S
C142 C141 1.392 . S
C142 C143 1.392 . S
C143 H113 0.949 . S
C143 C138 1.382 . S
C143 C142 1.392 . S
H144 C163 0.949 . S
H145 C164 0.950 . S
H146 C166 0.950 . S
H147 C167 0.950 . S
H148 C169 0.950 . S
H149 C172 0.950 . S
H150 C173 0.950 . S
H151 C175 0.951 . S
H152 C176 0.949 . S
H153 C178 0.949 . S
H154 C179 0.950 . S
H155 C181 0.950 . S
H156 C182 0.950 . S
H157 C184 0.950 . S
H158 C187 0.950 . S
H159 C188 0.950 . S
H160 C190 0.951 . S
H161 C191 0.949 . S
C162 C163 1.376 . S
C162 C167 1.386 . S
C162 C168 1.483 . S
C163 H144 0.949 . S
C163 C162 1.376 . S
C163 C164 1.397 . S
C164 H145 0.950 . S
C164 C163 1.397 . S
C164 C165 1.391 . S
C165 C164 1.391 . S
C165 C166 1.405 . S
C166 H146 0.950 . S
C166 C165 1.405 . S
C166 C167 1.367 . S
C167 H147 0.950 . S
C167 C162 1.386 . S
C167 C166 1.367 . S
C168 C162 1.483 . S
C168 C169 1.382 . S
C168 C170 1.403 . S
C169 H148 0.950 . S
C169 C168 1.382 . S
C169 C185 1.411 1_565 S
C170 C168 1.403 . S
C170 C171 1.489 . S
C170 C184 1.411 1_565 S
C171 C170 1.489 . S
C171 C172 1.383 . S
C171 C176 1.382 . S
C172 H149 0.950 . S
C172 C171 1.383 . S
C172 C173 1.395 . S
C173 H150 0.950 . S
C173 C172 1.395 . S
C173 C174 1.288 . S
C174 C173 1.288 . S
C174 C175 1.392 . S
C175 H151 0.951 . S
C175 C174 1.392 . S
C175 C176 1.392 . S
C176 H152 0.949 . S
C176 C171 1.382 . S
C176 C175 1.392 . S
C177 C178 1.376 . S
C177 C182 1.386 . S
C177 C183 1.483 . S
C178 H153 0.949 . S
C178 C177 1.376 . S
C178 C179 1.397 . S
C179 H154 0.950 . S
C179 C178 1.397 . S
C179 C180 1.391 . S
C180 C179 1.391 . S
C180 C181 1.405 . S
C181 H155 0.950 . S
C181 C180 1.405 . S
C181 C182 1.367 . S
C182 H156 0.950 . S
C182 C177 1.386 . S
C182 C181 1.367 . S
C183 C177 1.483 . S
C183 C184 1.382 . S
C183 C185 1.403 . S
C184 H157 0.950 . S
C184 C170 1.411 1_545 S
C184 C183 1.382 . S
C185 C169 1.411 1_545 S
C185 C183 1.403 . S
C185 C186 1.489 . S
C186 C185 1.489 . S
C186 C187 1.383 . S
C186 C191 1.382 . S
C187 H158 0.950 . S
C187 C186 1.383 . S
C187 C188 1.395 . S
C188 H159 0.950 . S
C188 C187 1.395 . S
C188 C189 1.288 . S
C189 C188 1.288 . S
C189 C190 1.392 . S
C190 H160 0.951 . S
C190 C189 1.392 . S
C190 C191 1.392 . S
C191 H161 0.949 . S
C191 C186 1.382 . S
C191 C190 1.392 . S
H192 C211 0.949 . S
H193 C212 0.950 . S
H194 C214 0.950 . S
H195 C215 0.950 . S
H196 C217 0.950 . S
H197 C220 0.950 . S
H198 C221 0.950 . S
H199 C223 0.951 . S
H200 C224 0.949 . S
H201 C226 0.949 . S
H202 C227 0.950 . S
H203 C229 0.950 . S
H204 C230 0.950 . S
H205 C232 0.950 . S
H206 C235 0.950 . S
H207 C236 0.950 . S
H208 C238 0.951 . S
H209 C239 0.949 . S
C210 C211 1.376 . S
C210 C215 1.386 . S
C210 C216 1.483 . S
C211 H192 0.949 . S
C211 C210 1.376 . S
C211 C212 1.397 . S
C212 H193 0.950 . S
C212 C211 1.397 . S
C212 C213 1.391 . S
C213 C212 1.391 . S
C213 C214 1.405 . S
C214 H194 0.950 . S
C214 C213 1.405 . S
C214 C215 1.367 . S
C215 H195 0.950 . S
C215 C210 1.386 . S
C215 C214 1.367 . S
C216 C210 1.483 . S
C216 C217 1.382 1_455 S
C216 C218 1.403 . S
C217 H196 0.950 . S
C217 C216 1.382 1_655 S
C217 C233 1.411 . S
C218 C216 1.403 . S
C218 C219 1.489 . S
C218 C232 1.411 . S
C219 C218 1.489 . S
C219 C220 1.383 . S
C219 C224 1.382 . S
C220 H197 0.950 . S
C220 C219 1.383 . S
C220 C221 1.395 . S
C221 H198 0.950 . S
C221 C220 1.395 . S
C221 C222 1.288 . S
C222 C221 1.288 . S
C222 C223 1.392 . S
C223 H199 0.951 . S
C223 C222 1.392 . S
C223 C224 1.392 . S
C224 H200 0.949 . S
C224 C219 1.382 . S
C224 C223 1.392 . S
C225 C226 1.376 . S
C225 C230 1.386 . S
C225 C231 1.483 . S
C226 H201 0.949 . S
C226 C225 1.376 . S
C226 C227 1.397 . S
C227 H202 0.950 . S
C227 C226 1.397 . S
C227 C228 1.391 . S
C228 C227 1.391 . S
C228 C229 1.405 . S
C229 H203 0.950 . S
C229 C228 1.405 . S
C229 C230 1.367 . S
C230 H204 0.950 . S
C230 C225 1.386 . S
C230 C229 1.367 . S
C231 C225 1.483 . S
C231 C232 1.382 1_655 S
C231 C233 1.403 . S
C232 H205 0.950 . S
C232 C218 1.411 . S
C232 C231 1.382 1_455 S
C233 C217 1.411 . S
C233 C231 1.403 . S
C233 C234 1.489 . S
C234 C233 1.489 . S
C234 C235 1.383 . S
C234 C239 1.382 . S
C235 H206 0.950 . S
C235 C234 1.383 . S
C235 C236 1.395 . S
C236 H207 0.950 . S
C236 C235 1.395 . S
C236 C237 1.288 . S
C237 C236 1.288 . S
C237 C238 1.392 . S
C238 H208 0.951 . S
C238 C237 1.392 . S
C238 C239 1.392 . S
C239 H209 0.949 . S
C239 C234 1.382 . S
C239 C238 1.392 . S
H240 C259 0.949 . S
H241 C260 0.950 . S
H242 C262 0.950 . S
H243 C263 0.950 . S
H244 C265 0.950 . S
H245 C268 0.950 . S
H246 C269 0.950 . S
H247 C271 0.951 . S
H248 C272 0.949 . S
H249 C274 0.949 . S
H250 C275 0.950 . S
H251 C277 0.950 . S
H252 C278 0.950 . S
H253 C280 0.950 . S
H254 C283 0.950 . S
H255 C284 0.950 . S
H256 C286 0.951 . S
H257 C287 0.949 . S
C258 C259 1.376 . S
C258 C263 1.386 . S
C258 C264 1.483 . S
C259 H240 0.949 . S
C259 C258 1.376 . S
C259 C260 1.397 . S
C260 H241 0.950 . S
C260 C259 1.397 . S
C260 C261 1.391 . S
C261 C260 1.391 . S
C261 C262 1.405 . S
C262 H242 0.950 . S
C262 C261 1.405 . S
C262 C263 1.367 . S
C263 H243 0.950 . S
C263 C258 1.386 . S
C263 C262 1.367 . S
C264 C258 1.483 . S
C264 C265 1.382 . S
C264 C266 1.403 . S
C265 H244 0.950 . S
C265 C264 1.382 . S
C265 C281 1.411 . S
C266 C264 1.403 . S
C266 C267 1.489 . S
C266 C280 1.411 . S
C267 C266 1.489 . S
C267 C268 1.383 . S
C267 C272 1.382 . S
C268 H245 0.950 . S
C268 C267 1.383 . S
C268 C269 1.395 . S
C269 H246 0.950 . S
C269 C268 1.395 . S
C269 C270 1.288 . S
C270 C269 1.288 . S
C270 C271 1.392 . S
C271 H247 0.951 . S
C271 C270 1.392 . S
C271 C272 1.392 . S
C272 H248 0.949 . S
C272 C267 1.382 . S
C272 C271 1.392 . S
C273 C274 1.376 . S
C273 C278 1.386 . S
C273 C279 1.483 . S
C274 H249 0.949 . S
C274 C273 1.376 . S
C274 C275 1.397 . S
C275 H250 0.950 . S
C275 C274 1.397 . S
C275 C276 1.391 . S
C276 C275 1.391 . S
C276 C277 1.405 . S
C277 H251 0.950 . S
C277 C276 1.405 . S
C277 C278 1.367 . S
C278 H252 0.950 . S
C278 C273 1.386 . S
C278 C277 1.367 . S
C279 C273 1.483 . S
C279 C280 1.382 . S
C279 C281 1.403 . S
C280 H253 0.950 . S
C280 C266 1.411 . S
C280 C279 1.382 . S
C281 C265 1.411 . S
C281 C279 1.403 . S
C281 C282 1.489 . S
C282 C281 1.489 . S
C282 C283 1.383 . S
C282 C287 1.382 . S
C283 H254 0.950 . S
C283 C282 1.383 . S
C283 C284 1.395 . S
C284 H255 0.950 . S
C284 C283 1.395 . S
C284 C285 1.288 . S
C285 C284 1.288 . S
C285 C286 1.392 . S
C286 H256 0.951 . S
C286 C285 1.392 . S
C286 C287 1.392 . S
C287 H257 0.949 . S
C287 C282 1.382 . S
C287 C286 1.392 . S
H288 C307 0.949 . S
H289 C308 0.950 . S
H290 C310 0.950 . S
H291 C311 0.950 . S
H292 C313 0.950 . S
H293 C316 0.950 . S
H294 C317 0.950 . S
H295 C319 0.951 . S
H296 C320 0.949 1_545 S
H297 C322 0.949 . S
H298 C323 0.950 . S
H299 C325 0.950 . S
H300 C326 0.950 . S
H301 C328 0.950 . S
H302 C331 0.950 . S
H303 C332 0.950 . S
H304 C334 0.951 . S
H305 C335 0.949 1_565 S
C306 C307 1.376 . S
C306 C311 1.386 . S
C306 C312 1.483 . S
C307 H288 0.949 . S
C307 C306 1.376 . S
C307 C308 1.397 . S
C308 H289 0.950 . S
C308 C307 1.397 . S
C308 C309 1.391 . S
C309 C308 1.391 . S
C309 C310 1.405 . S
C310 H290 0.950 . S
C310 C309 1.405 . S
C310 C311 1.367 . S
C311 H291 0.950 . S
C311 C306 1.386 . S
C311 C310 1.367 . S
C312 C306 1.483 . S
C312 C313 1.382 . S
C312 C314 1.403 . S
C313 H292 0.950 . S
C313 C312 1.382 . S
C313 C329 1.411 1_565 S
C314 C312 1.403 . S
C314 C315 1.489 . S
C314 C328 1.411 1_565 S
C315 C314 1.489 . S
C315 C316 1.383 . S
C315 C320 1.382 . S
C316 H293 0.950 . S
C316 C315 1.383 . S
C316 C317 1.395 . S
C317 H294 0.950 . S
C317 C316 1.395 . S
C317 C318 1.288 . S
C318 C317 1.288 . S
C318 C319 1.392 . S
C319 H295 0.951 . S
C319 C318 1.392 . S
C319 C320 1.392 . S
C320 H296 0.949 1_565 S
C320 C315 1.382 . S
C320 C319 1.392 . S
C321 C322 1.376 . S
C321 C326 1.386 . S
C321 C327 1.483 . S
C322 H297 0.949 . S
C322 C321 1.376 . S
C322 C323 1.397 . S
C323 H298 0.950 . S
C323 C322 1.397 . S
C323 C324 1.391 . S
C324 C323 1.391 . S
C324 C325 1.405 . S
C325 H299 0.950 . S
C325 C324 1.405 . S
C325 C326 1.367 . S
C326 H300 0.950 . S
C326 C321 1.386 . S
C326 C325 1.367 . S
C327 C321 1.483 . S
C327 C328 1.382 . S
C327 C329 1.403 . S
C328 H301 0.950 . S
C328 C314 1.411 1_545 S
C328 C327 1.382 . S
C329 C313 1.411 1_545 S
C329 C327 1.403 . S
C329 C330 1.489 . S
C330 C329 1.489 . S
C330 C331 1.383 . S
C330 C335 1.382 . S
C331 H302 0.950 . S
C331 C330 1.383 . S
C331 C332 1.395 . S
C332 H303 0.950 . S
C332 C331 1.395 . S
C332 C333 1.288 . S
C333 C332 1.288 . S
C333 C334 1.392 . S
C334 H304 0.951 . S
C334 C333 1.392 . S
C334 C335 1.392 . S
C335 H305 0.949 1_545 S
C335 C330 1.382 . S
C335 C334 1.392 . S
H336 C355 0.949 1_455 S
H337 C356 0.950 . S
H338 C358 0.950 . S
H339 C359 0.950 . S
H340 C361 0.950 . S
H341 C364 0.950 . S
H342 C365 0.950 . S
H343 C367 0.951 . S
H344 C368 0.949 . S
H345 C370 0.949 1_655 S
H346 C371 0.950 . S
H347 C373 0.950 . S
H348 C374 0.950 . S
H349 C376 0.950 . S
H350 C379 0.950 . S
H351 C380 0.950 . S
H352 C382 0.951 . S
H353 C383 0.949 . S
C354 C355 1.376 . S
C354 C359 1.386 . S
C354 C360 1.483 . S
C355 H336 0.949 1_655 S
C355 C354 1.376 . S
C355 C356 1.397 . S
C356 H337 0.950 . S
C356 C355 1.397 . S
C356 C357 1.391 . S
C357 C356 1.391 . S
C357 C358 1.405 . S
C358 H338 0.950 . S
C358 C357 1.405 . S
C358 C359 1.367 . S
C359 H339 0.950 . S
C359 C354 1.386 . S
C359 C358 1.367 . S
C360 C354 1.483 . S
C360 C361 1.382 1_655 S
C360 C362 1.403 . S
C361 H340 0.950 . S
C361 C360 1.382 1_455 S
C361 C377 1.411 1_545 S
C362 C360 1.403 . S
C362 C363 1.489 . S
C362 C376 1.411 1_545 S
C363 C362 1.489 . S
C363 C364 1.383 . S
C363 C368 1.382 . S
C364 H341 0.950 . S
C364 C363 1.383 . S
C364 C365 1.395 . S
C365 H342 0.950 . S
C365 C364 1.395 . S
C365 C366 1.288 . S
C366 C365 1.288 . S
C366 C367 1.392 . S
C367 H343 0.951 . S
C367 C366 1.392 . S
C367 C368 1.392 . S
C368 H344 0.949 . S
C368 C363 1.382 . S
C368 C367 1.392 . S
C369 C370 1.376 . S
C369 C374 1.386 . S
C369 C375 1.483 . S
C370 H345 0.949 1_455 S
C370 C369 1.376 . S
C370 C371 1.397 . S
C371 H346 0.950 . S
C371 C370 1.397 . S
C371 C372 1.391 . S
C372 C371 1.391 . S
C372 C373 1.405 . S
C373 H347 0.950 . S
C373 C372 1.405 . S
C373 C374 1.367 . S
C374 H348 0.950 . S
C374 C369 1.386 . S
C374 C373 1.367 . S
C375 C369 1.483 . S
C375 C376 1.382 1_455 S
C375 C377 1.403 . S
C376 H349 0.950 . S
C376 C362 1.411 1_565 S
C376 C375 1.382 1_655 S
C377 C361 1.411 1_565 S
C377 C375 1.403 . S
C377 C378 1.489 . S
C378 C377 1.489 . S
C378 C379 1.383 . S
C378 C383 1.382 . S
C379 H350 0.950 . S
C379 C378 1.383 . S
C379 C380 1.395 . S
C380 H351 0.950 . S
C380 C379 1.395 . S
C380 C381 1.288 . S
C381 C380 1.288 . S
C381 C382 1.392 . S
C382 H352 0.951 . S
C382 C381 1.392 . S
C382 C383 1.392 . S
C383 H353 0.949 . S
C383 C378 1.382 . S
C383 C382 1.392 . S
In384 O385 2.294 . S
In384 O386 2.326 . S
In384 O390 2.266 1_554 S
In384 O391 2.326 1_554 S
In384 O392 2.266 1_554 S
In384 O393 2.326 1_554 S
In384 O395 2.294 . S
In384 O396 2.326 . S
O385 In384 2.294 . S
O385 C394 1.240 . S
O386 In384 2.326 . S
O386 C394 1.252 . S
C387 O390 1.252 . S
C387 O391 1.260 . S
C388 O395 1.240 . S
C388 O396 1.252 . S
C389 O392 1.252 . S
C389 O393 1.260 . S
O390 In384 2.266 1_556 S
O390 C387 1.252 . S
O391 In384 2.326 1_556 S
O391 C387 1.260 . S
O392 In384 2.266 1_556 S
O392 C389 1.252 . S
O393 In384 2.326 1_556 S
O393 C389 1.260 . S
C394 O385 1.240 . S
C394 O386 1.252 . S
O395 In384 2.294 . S
O395 C388 1.240 . S
O396 In384 2.326 . S
O396 C388 1.252 . S
In397 O398 2.294 . S
In397 O399 2.326 . S
In397 O403 2.266 . S
In397 O404 2.326 . S
In397 O405 2.266 . S
In397 O406 2.326 . S
In397 O408 2.294 . S
In397 O409 2.326 . S
O398 In397 2.294 . S
O398 C407 1.240 . S
O399 In397 2.326 . S
O399 C407 1.252 . S
C400 O403 1.252 . S
C400 O404 1.260 . S
C401 O408 1.240 . S
C401 O409 1.252 . S
C402 O405 1.252 . S
C402 O406 1.260 . S
O403 In397 2.266 . S
O403 C400 1.252 . S
O404 In397 2.326 . S
O404 C400 1.260 . S
O405 In397 2.266 . S
O405 C402 1.252 . S
O406 In397 2.326 . S
O406 C402 1.260 . S
C407 O398 1.240 . S
C407 O399 1.252 . S
O408 In397 2.294 . S
O408 C401 1.240 . S
O409 In397 2.326 . S
O409 C401 1.252 . S
In410 O411 2.294 . S
In410 O412 2.326 . S
In410 O416 2.266 . S
In410 O417 2.326 . S
In410 O418 2.266 . S
In410 O419 2.326 . S
In410 O421 2.294 . S
In410 O422 2.326 . S
O411 In410 2.294 . S
O411 C420 1.240 . S
O412 In410 2.326 . S
O412 C420 1.252 . S
C413 O416 1.252 . S
C413 O417 1.260 . S
C414 O421 1.240 . S
C414 O422 1.252 . S
C415 O418 1.252 . S
C415 O419 1.260 . S
O416 In410 2.266 . S
O416 C413 1.252 . S
O417 In410 2.326 . S
O417 C413 1.260 . S
O418 In410 2.266 . S
O418 C415 1.252 . S
O419 In410 2.326 . S
O419 C415 1.260 . S
C420 O411 1.240 . S
C420 O412 1.252 . S
O421 In410 2.294 . S
O421 C414 1.240 . S
O422 In410 2.326 . S
O422 C414 1.252 . S
In423 O424 2.294 . S
In423 O425 2.326 . S
In423 O429 2.266 . S
In423 O430 2.326 . S
In423 O431 2.266 . S
In423 O432 2.326 . S
In423 O434 2.294 . S
In423 O435 2.326 . S
O424 In423 2.294 . S
O424 C433 1.240 . S
O425 In423 2.326 . S
O425 C433 1.252 . S
C426 O429 1.252 . S
C426 O430 1.260 . S
C427 O434 1.240 . S
C427 O435 1.252 . S
C428 O431 1.252 . S
C428 O432 1.260 . S
O429 In423 2.266 . S
O429 C426 1.252 . S
O430 In423 2.326 . S
O430 C426 1.260 . S
O431 In423 2.266 . S
O431 C428 1.252 . S
O432 In423 2.326 . S
O432 C428 1.260 . S
C433 O424 1.240 . S
C433 O425 1.252 . S
O434 In423 2.294 . S
O434 C427 1.240 . S
O435 In423 2.326 . S
O435 C427 1.252 . S
In436 O437 2.294 . S
In436 O438 2.326 . S
In436 O442 2.266 . S
In436 O443 2.326 . S
In436 O444 2.266 . S
In436 O445 2.326 . S
In436 O447 2.294 . S
In436 O448 2.326 . S
O437 In436 2.294 . S
O437 C446 1.240 . S
O438 In436 2.326 . S
O438 C446 1.252 . S
C439 O442 1.252 . S
C439 O443 1.260 . S
C440 O447 1.240 . S
C440 O448 1.252 . S
C441 O444 1.252 . S
C441 O445 1.260 . S
O442 In436 2.266 . S
O442 C439 1.252 . S
O443 In436 2.326 . S
O443 C439 1.260 . S
O444 In436 2.266 . S
O444 C441 1.252 . S
O445 In436 2.326 . S
O445 C441 1.260 . S
C446 O437 1.240 . S
C446 O438 1.252 . S
O447 In436 2.294 . S
O447 C440 1.240 . S
O448 In436 2.326 . S
O448 C440 1.252 . S
In449 O450 2.294 . S
In449 O451 2.326 . S
In449 O455 2.266 . S
In449 O456 2.326 . S
In449 O457 2.266 . S
In449 O458 2.326 . S
In449 O460 2.294 . S
In449 O461 2.326 . S
O450 In449 2.294 . S
O450 C459 1.240 . S
O451 In449 2.326 . S
O451 C459 1.252 . S
C452 O455 1.252 . S
C452 O456 1.260 . S
C453 O460 1.240 . S
C453 O461 1.252 . S
C454 O457 1.252 . S
C454 O458 1.260 . S
O455 In449 2.266 . S
O455 C452 1.252 . S
O456 In449 2.326 . S
O456 C452 1.260 . S
O457 In449 2.266 . S
O457 C454 1.252 . S
O458 In449 2.326 . S
O458 C454 1.260 . S
C459 O450 1.240 . S
C459 O451 1.252 . S
O460 In449 2.294 . S
O460 C453 1.240 . S
O461 In449 2.326 . S
O461 C453 1.252 . S
In462 O463 2.294 . S
In462 O464 2.326 . S
In462 O468 2.266 1_554 S
In462 O469 2.326 1_554 S
In462 O470 2.266 1_554 S
In462 O471 2.326 1_554 S
In462 O473 2.294 . S
In462 O474 2.326 . S
O463 In462 2.294 . S
O463 C472 1.240 . S
O464 In462 2.326 . S
O464 C472 1.252 . S
C465 O468 1.252 . S
C465 O469 1.260 . S
C466 O473 1.240 . S
C466 O474 1.252 . S
C467 O470 1.252 . S
C467 O471 1.260 . S
O468 In462 2.266 1_556 S
O468 C465 1.252 . S
O469 In462 2.326 1_556 S
O469 C465 1.260 . S
O470 In462 2.266 1_556 S
O470 C467 1.252 . S
O471 In462 2.326 1_556 S
O471 C467 1.260 . S
C472 O463 1.240 . S
C472 O464 1.252 . S
O473 In462 2.294 . S
O473 C466 1.240 . S
O474 In462 2.326 . S
O474 C466 1.252 . S
In475 O476 2.294 . S
In475 O477 2.326 . S
In475 O481 2.266 . S
In475 O482 2.326 . S
In475 O483 2.266 . S
In475 O484 2.326 . S
In475 O486 2.294 . S
In475 O487 2.326 . S
O476 In475 2.294 . S
O476 C485 1.240 . S
O477 In475 2.326 . S
O477 C485 1.252 . S
C478 O481 1.252 . S
C478 O482 1.260 . S
C479 O486 1.240 . S
C479 O487 1.252 . S
C480 O483 1.252 . S
C480 O484 1.260 . S
O481 In475 2.266 . S
O481 C478 1.252 . S
O482 In475 2.326 . S
O482 C478 1.260 . S
O483 In475 2.266 . S
O483 C480 1.252 . S
O484 In475 2.326 . S
O484 C480 1.260 . S
C485 O476 1.240 . S
C485 O477 1.252 . S
O486 In475 2.294 . S
O486 C479 1.240 . S
O487 In475 2.326 . S
O487 C479 1.252 . S
H488 C496 0.929 . S
H489 C498 0.930 . S
H490 C500 0.930 . S
H491 C503 0.929 . S
H492 C506 0.930 . S
H493 C508 0.960 . S
H494 C508 0.960 . S
H495 C508 0.960 . S
C496 H488 0.929 . S
C496 C497 1.377 . S
C496 C498 1.384 . S
C497 C496 1.377 . S
C497 C503 1.390 . S
C498 H489 0.930 . S
C498 C496 1.384 . S
C498 C499 1.372 . S
C499 C498 1.372 . S
C499 C500 1.400 . S
C499 C504 1.490 . S
C500 H490 0.930 . S
C500 C499 1.400 . S
C500 C503 1.386 . S
H501 C517 0.930 . S
H502 C518 0.931 . S
C503 H491 0.929 . S
C503 C497 1.390 . S
C503 C500 1.386 . S
C504 C499 1.490 . S
C504 C506 1.395 . S
C504 C507 1.403 . S
H505 C511 0.930 . S
C506 H492 0.930 . S
C506 C504 1.395 . S
C506 C509 1.403 . S
C507 C504 1.403 . S
C507 C508 1.524 . S
C507 C511 1.400 . S
C508 H493 0.960 . S
C508 H494 0.960 . S
C508 H495 0.960 . S
C508 C507 1.524 . S
C509 C506 1.403 . S
C509 C510 1.392 . S
C509 C513 1.495 . S
C510 C509 1.392 . S
C510 C511 1.385 . S
C510 C512 1.478 . S
C511 H505 0.930 . S
C511 C507 1.400 . S
C511 C510 1.385 . S
C512 C510 1.478 . S
C512 C514 1.381 . S
C512 C518 1.383 . S
C513 C509 1.495 . S
C513 H519 0.959 . S
C513 H520 0.961 . S
C513 H521 0.960 . S
C514 C512 1.381 . S
C514 C515 1.394 . S
C514 H522 0.930 . S
C515 C514 1.394 . S
C515 C516 1.383 . S
C515 H523 0.929 . S
C516 C515 1.383 . S
C516 C517 1.377 . S
C517 H501 0.930 . S
C517 C516 1.377 . S
C517 C518 1.379 . S
C518 H502 0.931 . S
C518 C512 1.383 . S
C518 C517 1.379 . S
H519 C513 0.959 . S
H520 C513 0.961 . S
H521 C513 0.960 . S
H522 C514 0.930 . S
H523 C515 0.929 . S
H524 C532 0.929 . S
H525 C534 0.930 . S
H526 C536 0.930 . S
H527 C539 0.929 . S
H528 C542 0.930 . S
H529 C544 0.960 . S
H530 C544 0.960 . S
H531 C544 0.960 . S
C532 H524 0.929 . S
C532 C533 1.377 . S
C532 C534 1.384 . S
C533 C532 1.377 . S
C533 C539 1.390 . S
C534 H525 0.930 . S
C534 C532 1.384 . S
C534 C535 1.372 . S
C535 C534 1.372 . S
C535 C536 1.400 . S
C535 C540 1.490 . S
C536 H526 0.930 . S
C536 C535 1.400 . S
C536 C539 1.386 . S
H537 C553 0.930 . S
H538 C554 0.931 . S
C539 H527 0.929 . S
C539 C533 1.390 . S
C539 C536 1.386 . S
C540 C535 1.490 . S
C540 C542 1.395 . S
C540 C543 1.403 . S
H541 C547 0.930 . S
C542 H528 0.930 . S
C542 C540 1.395 . S
C542 C545 1.403 . S
C543 C540 1.403 . S
C543 C544 1.524 . S
C543 C547 1.400 . S
C544 H529 0.960 . S
C544 H530 0.960 . S
C544 H531 0.960 . S
C544 C543 1.524 . S
C545 C542 1.403 . S
C545 C546 1.392 . S
C545 C549 1.495 . S
C546 C545 1.392 . S
C546 C547 1.385 . S
C546 C548 1.478 . S
C547 H541 0.930 . S
C547 C543 1.400 . S
C547 C546 1.385 . S
C548 C546 1.478 . S
C548 C550 1.381 . S
C548 C554 1.383 . S
C549 C545 1.495 . S
C549 H555 0.959 . S
C549 H556 0.961 . S
C549 H557 0.960 . S
C550 C548 1.381 . S
C550 C551 1.394 . S
C550 H558 0.930 . S
C551 C550 1.394 . S
C551 C552 1.383 . S
C551 H559 0.929 . S
C552 C551 1.383 . S
C552 C553 1.377 . S
C553 H537 0.930 . S
C553 C552 1.377 . S
C553 C554 1.379 . S
C554 H538 0.931 . S
C554 C548 1.383 . S
C554 C553 1.379 . S
H555 C549 0.959 . S
H556 C549 0.961 . S
H557 C549 0.960 . S
H558 C550 0.930 . S
H559 C551 0.929 . S
H560 C568 0.929 . S
H561 C570 0.930 . S
H562 C572 0.930 . S
H563 C575 0.929 . S
H564 C578 0.930 . S
H565 C580 0.960 . S
H566 C580 0.960 . S
H567 C580 0.960 . S
C568 H560 0.929 . S
C568 C569 1.377 . S
C568 C570 1.384 . S
C569 C568 1.377 . S
C569 C575 1.390 . S
C570 H561 0.930 . S
C570 C568 1.384 . S
C570 C571 1.372 . S
C571 C570 1.372 . S
C571 C572 1.400 . S
C571 C576 1.490 . S
C572 H562 0.930 . S
C572 C571 1.400 . S
C572 C575 1.386 . S
H573 C589 0.930 . S
H574 C590 0.931 . S
C575 H563 0.929 . S
C575 C569 1.390 . S
C575 C572 1.386 . S
C576 C571 1.490 . S
C576 C578 1.395 . S
C576 C579 1.403 . S
H577 C583 0.930 . S
C578 H564 0.930 . S
C578 C576 1.395 . S
C578 C581 1.403 . S
C579 C576 1.403 . S
C579 C580 1.524 . S
C579 C583 1.400 . S
C580 H565 0.960 . S
C580 H566 0.960 . S
C580 H567 0.960 . S
C580 C579 1.524 . S
C581 C578 1.403 . S
C581 C582 1.392 . S
C581 C585 1.495 . S
C582 C581 1.392 . S
C582 C583 1.385 . S
C582 C584 1.478 . S
C583 H577 0.930 . S
C583 C579 1.400 . S
C583 C582 1.385 . S
C584 C582 1.478 . S
C584 C586 1.381 . S
C584 C590 1.383 . S
C585 C581 1.495 . S
C585 H591 0.959 . S
C585 H592 0.961 . S
C585 H593 0.960 . S
C586 C584 1.381 . S
C586 C587 1.394 . S
C586 H594 0.930 . S
C587 C586 1.394 . S
C587 C588 1.383 . S
C587 H595 0.929 . S
C588 C587 1.383 . S
C588 C589 1.377 . S
C589 H573 0.930 . S
C589 C588 1.377 . S
C589 C590 1.379 . S
C590 H574 0.931 . S
C590 C584 1.383 . S
C590 C589 1.379 . S
H591 C585 0.959 . S
H592 C585 0.961 . S
H593 C585 0.960 . S
H594 C586 0.930 . S
H595 C587 0.929 . S
H596 C604 0.929 . S
H597 C606 0.930 . S
H598 C608 0.930 . S
H599 C611 0.929 . S
H600 C614 0.930 . S
H601 C616 0.960 . S
H602 C616 0.960 . S
H603 C616 0.960 . S
C604 H596 0.929 . S
C604 C605 1.377 . S
C604 C606 1.384 . S
C605 C604 1.377 . S
C605 C611 1.390 . S
C606 H597 0.930 . S
C606 C604 1.384 . S
C606 C607 1.372 . S
C607 C606 1.372 . S
C607 C608 1.400 . S
C607 C612 1.490 . S
C608 H598 0.930 . S
C608 C607 1.400 . S
C608 C611 1.386 . S
H609 C625 0.930 . S
H610 C626 0.931 . S
C611 H599 0.929 . S
C611 C605 1.390 . S
C611 C608 1.386 . S
C612 C607 1.490 . S
C612 C614 1.395 . S
C612 C615 1.403 . S
H613 C619 0.930 . S
C614 H600 0.930 . S
C614 C612 1.395 . S
C614 C617 1.403 . S
C615 C612 1.403 . S
C615 C616 1.524 . S
C615 C619 1.400 . S
C616 H601 0.960 . S
C616 H602 0.960 . S
C616 H603 0.960 . S
C616 C615 1.524 . S
C617 C614 1.403 . S
C617 C618 1.392 . S
C617 C621 1.495 . S
C618 C617 1.392 . S
C618 C619 1.385 . S
C618 C620 1.478 . S
C619 H613 0.930 . S
C619 C615 1.400 . S
C619 C618 1.385 . S
C620 C618 1.478 . S
C620 C622 1.381 . S
C620 C626 1.383 . S
C621 C617 1.495 . S
C621 H627 0.959 . S
C621 H628 0.961 . S
C621 H629 0.960 . S
C622 C620 1.381 . S
C622 C623 1.394 . S
C622 H630 0.930 . S
C623 C622 1.394 . S
C623 C624 1.383 . S
C623 H631 0.929 . S
C624 C623 1.383 . S
C624 C625 1.377 . S
C625 H609 0.930 . S
C625 C624 1.377 . S
C625 C626 1.379 . S
C626 H610 0.931 . S
C626 C620 1.383 . S
C626 C625 1.379 . S
H627 C621 0.959 . S
H628 C621 0.961 . S
H629 C621 0.960 . S
H630 C622 0.930 . S
H631 C623 0.929 . S
H632 C640 0.929 . S
H633 C642 0.930 . S
H634 C644 0.930 . S
H635 C647 0.929 . S
H636 C650 0.930 . S
H637 C652 0.960 . S
H638 C652 0.960 . S
H639 C652 0.960 . S
C640 H632 0.929 . S
C640 C641 1.377 . S
C640 C642 1.384 . S
C641 C640 1.377 . S
C641 C647 1.390 . S
C642 H633 0.930 . S
C642 C640 1.384 . S
C642 C643 1.372 . S
C643 C642 1.372 . S
C643 C644 1.400 . S
C643 C648 1.490 . S
C644 H634 0.930 . S
C644 C643 1.400 . S
C644 C647 1.386 . S
H645 C661 0.930 . S
H646 C662 0.931 . S
C647 H635 0.929 . S
C647 C641 1.390 . S
C647 C644 1.386 . S
C648 C643 1.490 . S
C648 C650 1.395 . S
C648 C651 1.403 . S
H649 C655 0.930 . S
C650 H636 0.930 . S
C650 C648 1.395 . S
C650 C653 1.403 . S
C651 C648 1.403 . S
C651 C652 1.524 . S
C651 C655 1.400 . S
C652 H637 0.960 . S
C652 H638 0.960 . S
C652 H639 0.960 . S
C652 C651 1.524 . S
C653 C650 1.403 . S
C653 C654 1.392 . S
C653 C657 1.489 1_556 S
C654 C653 1.392 . S
C654 C655 1.385 . S
C654 C656 1.478 . S
C655 H649 0.930 . S
C655 C651 1.400 . S
C655 C654 1.385 . S
C656 C654 1.478 . S
C656 C658 1.381 . S
C656 C662 1.383 . S
C657 C653 1.489 1_554 S
C657 H663 0.961 . S
C657 H664 0.965 . S
C657 H665 0.958 1_554 S
C658 C656 1.381 . S
C658 C659 1.394 . S
C658 H666 0.930 . S
C659 C658 1.394 . S
C659 C660 1.383 . S
C659 H667 0.929 . S
C660 C659 1.383 . S
C660 C661 1.377 . S
C661 H645 0.930 . S
C661 C660 1.377 . S
C661 C662 1.379 . S
C662 H646 0.931 . S
C662 C656 1.383 . S
C662 C661 1.379 . S
H663 C657 0.961 . S
H664 C657 0.965 . S
H665 C657 0.958 1_556 S
H666 C658 0.930 . S
H667 C659 0.929 . S
H668 C676 0.929 . S
H669 C678 0.930 . S
H670 C680 0.930 . S
H671 C683 0.929 . S
H672 C686 0.930 . S
H673 C688 0.960 . S
H674 C688 0.960 . S
H675 C688 0.960 . S
C676 H668 0.929 . S
C676 C677 1.377 . S
C676 C678 1.384 . S
C677 C676 1.377 . S
C677 C683 1.390 . S
C678 H669 0.930 . S
C678 C676 1.384 . S
C678 C679 1.372 . S
C679 C678 1.372 . S
C679 C680 1.400 . S
C679 C684 1.490 . S
C680 H670 0.930 . S
C680 C679 1.400 . S
C680 C683 1.386 . S
H681 C697 0.930 . S
H682 C698 0.931 . S
C683 H671 0.929 . S
C683 C677 1.390 . S
C683 C680 1.386 . S
C684 C679 1.490 . S
C684 C686 1.395 . S
C684 C687 1.403 . S
H685 C691 0.930 . S
C686 H672 0.930 . S
C686 C684 1.395 . S
C686 C689 1.403 . S
C687 C684 1.403 . S
C687 C688 1.524 . S
C687 C691 1.400 . S
C688 H673 0.960 . S
C688 H674 0.960 . S
C688 H675 0.960 . S
C688 C687 1.524 . S
C689 C686 1.403 . S
C689 C690 1.392 . S
C689 C693 1.495 . S
C690 C689 1.392 . S
C690 C691 1.385 . S
C690 C692 1.478 . S
C691 H685 0.930 . S
C691 C687 1.400 . S
C691 C690 1.385 . S
C692 C690 1.478 . S
C692 C694 1.381 . S
C692 C698 1.383 . S
C693 C689 1.495 . S
C693 H699 0.959 . S
C693 H700 0.961 . S
C693 H701 0.960 . S
C694 C692 1.381 . S
C694 C695 1.394 . S
C694 H702 0.930 . S
C695 C694 1.394 . S
C695 C696 1.383 . S
C695 H703 0.929 . S
C696 C695 1.383 . S
C696 C697 1.377 . S
C697 H681 0.930 . S
C697 C696 1.377 . S
C697 C698 1.379 . S
C698 H682 0.931 . S
C698 C692 1.383 . S
C698 C697 1.379 . S
H699 C693 0.959 . S
H700 C693 0.961 . S
H701 C693 0.960 . S
H702 C694 0.930 . S
H703 C695 0.929 . S
H704 C712 0.929 . S
H705 C714 0.930 . S
H706 C716 0.930 . S
H707 C719 0.929 . S
H708 C722 0.930 . S
H709 C724 0.960 . S
H710 C724 0.960 . S
H711 C724 0.960 . S
C712 H704 0.929 . S
C712 C713 1.377 . S
C712 C714 1.384 . S
C713 C712 1.377 . S
C713 C719 1.390 . S
C714 H705 0.930 . S
C714 C712 1.384 . S
C714 C715 1.372 . S
C715 C714 1.372 . S
C715 C716 1.400 . S
C715 C720 1.490 . S
C716 H706 0.930 . S
C716 C715 1.400 . S
C716 C719 1.386 . S
H717 C733 0.930 . S
H718 C734 0.931 . S
C719 H707 0.929 . S
C719 C713 1.390 . S
C719 C716 1.386 . S
C720 C715 1.490 . S
C720 C722 1.395 . S
C720 C723 1.403 . S
H721 C727 0.930 . S
C722 H708 0.930 . S
C722 C720 1.395 . S
C722 C725 1.403 . S
C723 C720 1.403 . S
C723 C724 1.524 . S
C723 C727 1.400 . S
C724 H709 0.960 . S
C724 H710 0.960 . S
C724 H711 0.960 . S
C724 C723 1.524 . S
C725 C722 1.403 . S
C725 C726 1.392 . S
C725 C729 1.495 . S
C726 C725 1.392 . S
C726 C727 1.385 . S
C726 C728 1.478 . S
C727 H721 0.930 . S
C727 C723 1.400 . S
C727 C726 1.385 . S
C728 C726 1.478 . S
C728 C730 1.381 . S
C728 C734 1.383 . S
C729 C725 1.495 . S
C729 H735 0.959 . S
C729 H736 0.961 . S
C729 H737 0.960 . S
C730 C728 1.381 . S
C730 C731 1.394 . S
C730 H738 0.930 . S
C731 C730 1.394 . S
C731 C732 1.383 . S
C731 H739 0.929 . S
C732 C731 1.383 . S
C732 C733 1.377 . S
C733 H717 0.930 . S
C733 C732 1.377 . S
C733 C734 1.379 . S
C734 H718 0.931 . S
C734 C728 1.383 . S
C734 C733 1.379 . S
H735 C729 0.959 . S
H736 C729 0.961 . S
H737 C729 0.960 . S
H738 C730 0.930 . S
H739 C731 0.929 . S
H740 C748 0.929 . S
H741 C750 0.930 . S
H742 C752 0.930 . S
H743 C755 0.929 . S
H744 C758 0.930 . S
H745 C760 0.960 . S
H746 C760 0.960 . S
H747 C760 0.960 . S
C748 H740 0.929 . S
C748 C749 1.377 . S
C748 C750 1.384 . S
C749 C748 1.377 . S
C749 C755 1.390 . S
C750 H741 0.930 . S
C750 C748 1.384 . S
C750 C751 1.372 . S
C751 C750 1.372 . S
C751 C752 1.400 . S
C751 C756 1.490 . S
C752 H742 0.930 . S
C752 C751 1.400 . S
C752 C755 1.386 . S
H753 C769 0.930 . S
H754 C770 0.931 . S
C755 H743 0.929 . S
C755 C749 1.390 . S
C755 C752 1.386 . S
C756 C751 1.490 . S
C756 C758 1.395 . S
C756 C759 1.403 . S
H757 C763 0.930 . S
C758 H744 0.930 . S
C758 C756 1.395 . S
C758 C761 1.403 . S
C759 C756 1.403 . S
C759 C760 1.524 . S
C759 C763 1.400 . S
C760 H745 0.960 . S
C760 H746 0.960 . S
C760 H747 0.960 . S
C760 C759 1.524 . S
C761 C758 1.403 . S
C761 C762 1.392 . S
C761 C765 1.495 . S
C762 C761 1.392 . S
C762 C763 1.385 . S
C762 C764 1.478 . S
C763 H757 0.930 . S
C763 C759 1.400 . S
C763 C762 1.385 . S
C764 C762 1.478 . S
C764 C766 1.381 . S
C764 C770 1.383 . S
C765 C761 1.495 . S
C765 H771 0.959 . S
C765 H772 0.961 . S
C765 H773 0.960 . S
C766 C764 1.381 . S
C766 C767 1.394 . S
C766 H774 0.930 . S
C767 C766 1.394 . S
C767 C768 1.383 . S
C767 H775 0.929 . S
C768 C767 1.383 . S
C768 C769 1.377 . S
C769 H753 0.930 . S
C769 C768 1.377 . S
C769 C770 1.379 . S
C770 H754 0.931 . S
C770 C764 1.383 . S
C770 C769 1.379 . S
H771 C765 0.959 . S
H772 C765 0.961 . S
H773 C765 0.960 . S
H774 C766 0.930 . S
H775 C767 0.929 . S
H776 C784 0.929 . S
H777 C786 0.930 . S
H778 C788 0.930 . S
H779 C791 0.929 . S
H780 C794 0.930 . S
H781 C796 0.960 . S
H782 C796 0.960 . S
H783 C796 0.960 . S
C784 H776 0.929 . S
C784 C785 1.377 . S
C784 C786 1.384 . S
C785 C784 1.377 . S
C785 C791 1.390 . S
C786 H777 0.930 . S
C786 C784 1.384 . S
C786 C787 1.372 . S
C787 C786 1.372 . S
C787 C788 1.400 . S
C787 C792 1.490 . S
C788 H778 0.930 . S
C788 C787 1.400 . S
C788 C791 1.386 . S
H789 C805 0.930 . S
H790 C806 0.931 . S
C791 H779 0.929 . S
C791 C785 1.390 . S
C791 C788 1.386 . S
C792 C787 1.490 . S
C792 C794 1.395 . S
C792 C795 1.403 . S
H793 C799 0.930 . S
C794 H780 0.930 . S
C794 C792 1.395 . S
C794 C797 1.403 . S
C795 C792 1.403 . S
C795 C796 1.524 . S
C795 C799 1.400 . S
C796 H781 0.960 . S
C796 H782 0.960 . S
C796 H783 0.960 . S
C796 C795 1.524 . S
C797 C794 1.403 . S
C797 C798 1.392 . S
C797 C801 1.495 . S
C798 C797 1.392 . S
C798 C799 1.385 . S
C798 C800 1.478 . S
C799 H793 0.930 . S
C799 C795 1.400 . S
C799 C798 1.385 . S
C800 C798 1.478 . S
C800 C802 1.381 . S
C800 C806 1.383 . S
C801 C797 1.495 . S
C801 H807 0.959 . S
C801 H808 0.961 . S
C801 H809 0.960 . S
C802 C800 1.381 . S
C802 C803 1.394 . S
C802 H810 0.930 . S
C803 C802 1.394 . S
C803 C804 1.383 . S
C803 H811 0.929 . S
C804 C803 1.383 . S
C804 C805 1.377 . S
C805 H789 0.930 . S
C805 C804 1.377 . S
C805 C806 1.379 . S
C806 H790 0.931 . S
C806 C800 1.383 . S
C806 C805 1.379 . S
H807 C801 0.959 . S
H808 C801 0.961 . S
H809 C801 0.960 . S
H810 C802 0.930 . S
H811 C803 0.929 . S
H812 C820 0.929 . S
H813 C822 0.930 . S
H814 C824 0.930 . S
H815 C827 0.929 . S
H816 C830 0.930 . S
H817 C832 0.960 . S
H818 C832 0.960 . S
H819 C832 0.960 . S
C820 H812 0.929 . S
C820 C821 1.377 . S
C820 C822 1.384 . S
C821 C820 1.377 . S
C821 C827 1.390 . S
C822 H813 0.930 . S
C822 C820 1.384 . S
C822 C823 1.372 . S
C823 C822 1.372 . S
C823 C824 1.400 . S
C823 C828 1.490 . S
C824 H814 0.930 . S
C824 C823 1.400 . S
C824 C827 1.386 . S
H825 C841 0.930 . S
H826 C842 0.931 . S
C827 H815 0.929 . S
C827 C821 1.390 . S
C827 C824 1.386 . S
C828 C823 1.490 . S
C828 C830 1.395 . S
C828 C831 1.403 . S
H829 C835 0.930 . S
C830 H816 0.930 . S
C830 C828 1.395 . S
C830 C833 1.403 . S
C831 C828 1.403 . S
C831 C832 1.524 . S
C831 C835 1.400 . S
C832 H817 0.960 . S
C832 H818 0.960 . S
C832 H819 0.960 . S
C832 C831 1.524 . S
C833 C830 1.403 . S
C833 C834 1.392 . S
C833 C837 1.495 . S
C834 C833 1.392 . S
C834 C835 1.385 . S
C834 C836 1.478 . S
C835 H829 0.930 . S
C835 C831 1.400 . S
C835 C834 1.385 . S
C836 C834 1.478 . S
C836 C838 1.381 . S
C836 C842 1.383 . S
C837 C833 1.495 . S
C837 H843 0.959 . S
C837 H844 0.961 . S
C837 H845 0.960 . S
C838 C836 1.381 . S
C838 C839 1.394 . S
C838 H846 0.930 . S
C839 C838 1.394 . S
C839 C840 1.383 . S
C839 H847 0.929 1_554 S
C840 C839 1.383 . S
C840 C841 1.377 . S
C841 H825 0.930 . S
C841 C840 1.377 . S
C841 C842 1.379 . S
C842 H826 0.931 . S
C842 C836 1.383 . S
C842 C841 1.379 . S
H843 C837 0.959 . S
H844 C837 0.961 . S
H845 C837 0.960 . S
H846 C838 0.930 . S
H847 C839 0.929 1_556 S
H848 C856 0.929 . S
H849 C858 0.930 . S
H850 C860 0.930 . S
H851 C863 0.929 . S
H852 C866 0.930 . S
H853 C868 0.960 . S
H854 C868 0.960 . S
H855 C868 0.960 . S
C856 H848 0.929 . S
C856 C857 1.377 . S
C856 C858 1.384 . S
C857 C856 1.377 . S
C857 C863 1.390 . S
C858 H849 0.930 . S
C858 C856 1.384 . S
C858 C859 1.372 . S
C859 C858 1.372 . S
C859 C860 1.400 . S
C859 C864 1.490 . S
C860 H850 0.930 . S
C860 C859 1.400 . S
C860 C863 1.386 . S
H861 C877 0.930 . S
H862 C878 0.931 . S
C863 H851 0.929 . S
C863 C857 1.390 . S
C863 C860 1.386 . S
C864 C859 1.490 . S
C864 C866 1.395 . S
C864 C867 1.403 . S
H865 C871 0.930 . S
C866 H852 0.930 . S
C866 C864 1.395 . S
C866 C869 1.403 . S
C867 C864 1.403 . S
C867 C868 1.524 . S
C867 C871 1.400 . S
C868 H853 0.960 . S
C868 H854 0.960 . S
C868 H855 0.960 . S
C868 C867 1.524 . S
C869 C866 1.403 . S
C869 C870 1.392 . S
C869 C873 1.495 . S
C870 C869 1.392 . S
C870 C871 1.385 . S
C870 C872 1.478 . S
C871 H865 0.930 . S
C871 C867 1.400 . S
C871 C870 1.385 . S
C872 C870 1.478 . S
C872 C874 1.381 . S
C872 C878 1.383 . S
C873 C869 1.495 . S
C873 H879 0.959 . S
C873 H880 0.961 . S
C873 H881 0.960 . S
C874 C872 1.381 . S
C874 C875 1.394 . S
C874 H882 0.930 . S
C875 C874 1.394 . S
C875 C876 1.383 . S
C875 H883 0.929 . S
C876 C875 1.383 . S
C876 C877 1.377 . S
C877 H861 0.930 . S
C877 C876 1.377 . S
C877 C878 1.379 . S
C878 H862 0.931 . S
C878 C872 1.383 . S
C878 C877 1.379 . S
H879 C873 0.959 . S
H880 C873 0.961 . S
H881 C873 0.960 . S
H882 C874 0.930 . S
H883 C875 0.929 . S
H884 C892 0.929 . S
H885 C894 0.930 . S
H886 C896 0.930 . S
H887 C899 0.929 . S
H888 C902 0.930 . S
H889 C904 0.960 . S
H890 C904 0.960 . S
H891 C904 0.960 . S
C892 H884 0.929 . S
C892 C893 1.377 . S
C892 C894 1.384 . S
C893 C892 1.377 . S
C893 C899 1.390 . S
C894 H885 0.930 . S
C894 C892 1.384 . S
C894 C895 1.372 . S
C895 C894 1.372 . S
C895 C896 1.400 . S
C895 C900 1.490 . S
C896 H886 0.930 . S
C896 C895 1.400 . S
C896 C899 1.386 . S
H897 C913 0.930 . S
H898 C914 0.931 . S
C899 H887 0.929 . S
C899 C893 1.390 . S
C899 C896 1.386 . S
C900 C895 1.490 . S
C900 C902 1.395 . S
C900 C903 1.403 . S
H901 C907 0.930 . S
C902 H888 0.930 . S
C902 C900 1.395 . S
C902 C905 1.403 . S
C903 C900 1.403 . S
C903 C904 1.524 . S
C903 C907 1.400 . S
C904 H889 0.960 . S
C904 H890 0.960 . S
C904 H891 0.960 . S
C904 C903 1.524 . S
C905 C902 1.403 . S
C905 C906 1.392 . S
C905 C909 1.495 . S
C906 C905 1.392 . S
C906 C907 1.385 . S
C906 C908 1.478 . S
C907 H901 0.930 . S
C907 C903 1.400 . S
C907 C906 1.385 . S
C908 C906 1.478 . S
C908 C910 1.381 . S
C908 C914 1.383 . S
C909 C905 1.495 . S
C909 H915 0.959 . S
C909 H916 0.961 . S
C909 H917 0.960 . S
C910 C908 1.381 . S
C910 C911 1.394 . S
C910 H918 0.930 . S
C911 C910 1.394 . S
C911 C912 1.383 . S
C911 H919 0.929 . S
C912 C911 1.383 . S
C912 C913 1.377 . S
C913 H897 0.930 . S
C913 C912 1.377 . S
C913 C914 1.379 . S
C914 H898 0.931 . S
C914 C908 1.383 . S
C914 C913 1.379 . S
H915 C909 0.959 . S
H916 C909 0.961 . S
H917 C909 0.960 . S
H918 C910 0.930 . S
H919 C911 0.929 . S
H920 C928 0.929 . S
H921 C930 0.930 . S
H922 C932 0.930 . S
H923 C935 0.929 . S
H924 C938 0.930 . S
H925 C940 0.960 . S
H926 C940 0.960 . S
H927 C940 0.960 . S
C928 H920 0.929 . S
C928 C929 1.377 . S
C928 C930 1.384 . S
C929 C928 1.377 . S
C929 C935 1.390 . S
C930 H921 0.930 . S
C930 C928 1.384 . S
C930 C931 1.372 . S
C931 C930 1.372 . S
C931 C932 1.400 . S
C931 C936 1.490 . S
C932 H922 0.930 . S
C932 C931 1.400 . S
C932 C935 1.386 . S
H933 C949 0.930 . S
H934 C950 0.931 . S
C935 H923 0.929 . S
C935 C929 1.390 . S
C935 C932 1.386 . S
C936 C931 1.490 . S
C936 C938 1.395 . S
C936 C939 1.403 . S
H937 C943 0.930 . S
C938 H924 0.930 . S
C938 C936 1.395 . S
C938 C941 1.403 . S
C939 C936 1.403 . S
C939 C940 1.524 . S
C939 C943 1.400 . S
C940 H925 0.960 . S
C940 H926 0.960 . S
C940 H927 0.960 . S
C940 C939 1.524 . S
C941 C938 1.403 . S
C941 C942 1.392 . S
C941 C945 1.495 . S
C942 C941 1.392 . S
C942 C943 1.385 . S
C942 C944 1.478 . S
C943 H937 0.930 . S
C943 C939 1.400 . S
C943 C942 1.385 . S
C944 C942 1.478 . S
C944 C946 1.381 . S
C944 C950 1.383 . S
C945 C941 1.495 . S
C945 H951 0.959 . S
C945 H952 0.961 . S
C945 H953 0.960 . S
C946 C944 1.381 . S
C946 C947 1.394 . S
C946 H954 0.930 . S
C947 C946 1.394 . S
C947 C948 1.383 . S
C947 H955 0.929 . S
C948 C947 1.383 . S
C948 C949 1.377 . S
C949 H933 0.930 . S
C949 C948 1.377 . S
C949 C950 1.379 . S
C950 H934 0.931 . S
C950 C944 1.383 . S
C950 C949 1.379 . S
H951 C945 0.959 . S
H952 C945 0.961 . S
H953 C945 0.960 . S
H954 C946 0.930 . S
H955 C947 0.929 . S
H956 C964 0.929 . S
H957 C966 0.930 . S
H958 C968 0.930 . S
H959 C971 0.929 . S
H960 C974 0.930 . S
H961 C976 0.960 . S
H962 C976 0.960 . S
H963 C976 0.960 . S
C964 H956 0.929 . S
C964 C965 1.377 . S
C964 C966 1.384 . S
C965 C964 1.377 . S
C965 C971 1.390 . S
C966 H957 0.930 . S
C966 C964 1.384 . S
C966 C967 1.372 . S
C967 C966 1.372 . S
C967 C968 1.400 . S
C967 C972 1.490 . S
C968 H958 0.930 . S
C968 C967 1.400 . S
C968 C971 1.386 . S
H969 C985 0.930 . S
H970 C986 0.931 . S
C971 H959 0.929 . S
C971 C965 1.390 . S
C971 C968 1.386 . S
C972 C967 1.490 . S
C972 C974 1.395 . S
C972 C975 1.403 . S
H973 C979 0.930 . S
C974 H960 0.930 . S
C974 C972 1.395 . S
C974 C977 1.403 . S
C975 C972 1.403 . S
C975 C976 1.524 . S
C975 C979 1.400 . S
C976 H961 0.960 . S
C976 H962 0.960 . S
C976 H963 0.960 . S
C976 C975 1.524 . S
C977 C974 1.403 . S
C977 C978 1.392 . S
C977 C981 1.495 . S
C978 C977 1.392 . S
C978 C979 1.385 . S
C978 C980 1.478 . S
C979 H973 0.930 . S
C979 C975 1.400 . S
C979 C978 1.385 . S
C980 C978 1.478 . S
C980 C982 1.381 . S
C980 C986 1.383 . S
C981 C977 1.495 . S
C981 H987 0.959 . S
C981 H988 0.961 . S
C981 H989 0.960 . S
C982 C980 1.381 . S
C982 C983 1.394 . S
C982 H990 0.930 . S
C983 C982 1.394 . S
C983 C984 1.383 . S
C983 H991 0.929 . S
C984 C983 1.383 . S
C984 C985 1.377 . S
C985 H969 0.930 . S
C985 C984 1.377 . S
C985 C986 1.379 . S
C986 H970 0.931 . S
C986 C980 1.383 . S
C986 C985 1.379 . S
H987 C981 0.959 . S
H988 C981 0.961 . S
H989 C981 0.960 . S
H990 C982 0.930 . S
H991 C983 0.929 . S
H992 C1000 0.929 . S
H993 C1002 0.930 . S
H994 C1004 0.930 . S
H995 C1007 0.929 . S
H996 C1010 0.930 . S
H997 C1012 0.960 . S
H998 C1012 0.960 . S
H999 C1012 0.960 . S
C1000 H992 0.929 . S
C1000 C1001 1.377 . S
C1000 C1002 1.384 . S
C1001 C1000 1.377 . S
C1001 C1007 1.390 . S
C1002 H993 0.930 . S
C1002 C1000 1.384 . S
C1002 C1003 1.372 . S
C1003 C1002 1.372 . S
C1003 C1004 1.400 . S
C1003 C1008 1.490 . S
C1004 H994 0.930 . S
C1004 C1003 1.400 . S
C1004 C1007 1.386 . S
H1005 C1021 0.930 1_554 S
H1006 C1022 0.896 1_554 S
C1007 H995 0.929 . S
C1007 C1001 1.390 . S
C1007 C1004 1.386 . S
C1008 C1003 1.490 . S
C1008 C1010 1.395 . S
C1008 C1011 1.403 . S
H1009 C1015 0.930 . S
C1010 H996 0.930 . S
C1010 C1008 1.395 . S
C1010 C1013 1.403 . S
C1011 C1008 1.403 . S
C1011 C1012 1.524 . S
C1011 C1015 1.400 . S
C1012 H997 0.960 . S
C1012 H998 0.960 . S
C1012 H999 0.960 . S
C1012 C1011 1.524 . S
C1013 C1010 1.403 . S
C1013 C1014 1.392 . S
C1013 C1017 1.495 . S
C1014 C1013 1.392 . S
C1014 C1015 1.385 . S
C1014 C1016 1.478 . S
C1015 H1009 0.930 . S
C1015 C1011 1.400 . S
C1015 C1014 1.385 . S
C1016 C1014 1.478 . S
C1016 C1018 1.381 . S
C1016 C1022 1.383 . S
C1017 C1013 1.495 . S
C1017 H1023 0.959 . S
C1017 H1024 0.961 . S
C1017 H1025 0.960 . S
C1018 C1016 1.381 . S
C1018 C1019 1.394 . S
C1018 H1026 0.930 . S
C1019 C1018 1.394 . S
C1019 C1020 1.383 . S
C1019 H1027 0.929 . S
C1020 C1019 1.383 . S
C1020 C1021 1.376 . S
C1021 H1005 0.930 1_556 S
C1021 C1020 1.376 . S
C1021 C1022 1.379 . S
C1022 H1006 0.896 1_556 S
C1022 C1016 1.383 . S
C1022 C1021 1.379 . S
H1023 C1017 0.959 . S
H1024 C1017 0.961 . S
H1025 C1017 0.960 . S
H1026 C1018 0.930 . S
H1027 C1019 0.929 . S
H1028 C1036 0.929 . S
H1029 C1038 0.930 . S
H1030 C1040 0.930 . S
H1031 C1043 0.929 . S
H1032 C1046 0.930 . S
H1033 C1048 0.960 . S
H1034 C1048 0.960 . S
H1035 C1048 0.960 . S
C1036 H1028 0.929 . S
C1036 C1037 1.377 . S
C1036 C1038 1.384 . S
C1037 C1036 1.377 . S
C1037 C1043 1.390 . S
C1038 H1029 0.930 . S
C1038 C1036 1.384 . S
C1038 C1039 1.372 . S
C1039 C1038 1.372 . S
C1039 C1040 1.400 . S
C1039 C1044 1.490 . S
C1040 H1030 0.930 . S
C1040 C1039 1.400 . S
C1040 C1043 1.386 . S
H1041 C1057 0.930 . S
H1042 C1058 0.931 . S
C1043 H1031 0.929 . S
C1043 C1037 1.390 . S
C1043 C1040 1.386 . S
C1044 C1039 1.490 . S
C1044 C1046 1.395 . S
C1044 C1047 1.403 . S
H1045 C1051 0.930 . S
C1046 H1032 0.930 . S
C1046 C1044 1.395 . S
C1046 C1049 1.403 . S
C1047 C1044 1.403 . S
C1047 C1048 1.524 . S
C1047 C1051 1.400 . S
C1048 H1033 0.960 . S
C1048 H1034 0.960 . S
C1048 H1035 0.960 . S
C1048 C1047 1.524 . S
C1049 C1046 1.403 . S
C1049 C1050 1.392 . S
C1049 C1053 1.495 . S
C1050 C1049 1.392 . S
C1050 C1051 1.385 . S
C1050 C1052 1.478 . S
C1051 H1045 0.930 . S
C1051 C1047 1.400 . S
C1051 C1050 1.385 . S
C1052 C1050 1.478 . S
C1052 C1054 1.381 . S
C1052 C1058 1.383 . S
C1053 C1049 1.495 . S
C1053 H1059 0.959 . S
C1053 H1060 0.961 . S
C1053 H1061 0.960 . S
C1054 C1052 1.381 . S
C1054 C1055 1.394 . S
C1054 H1062 0.930 . S
C1055 C1054 1.394 . S
C1055 C1056 1.383 . S
C1055 H1063 0.929 . S
C1056 C1055 1.383 . S
C1056 C1057 1.377 . S
C1057 H1041 0.930 . S
C1057 C1056 1.377 . S
C1057 C1058 1.379 . S
C1058 H1042 0.931 . S
C1058 C1052 1.383 . S
C1058 C1057 1.379 . S
H1059 C1053 0.959 . S
H1060 C1053 0.961 . S
H1061 C1053 0.960 . S
H1062 C1054 0.930 . S
H1063 C1055 0.929 . S
H1064 C1072 0.929 . S
H1065 C1074 0.930 . S
H1066 C1076 0.930 . S
H1067 C1079 0.929 . S
H1068 C1082 0.930 . S
H1069 C1084 0.960 . S
H1070 C1084 0.960 . S
H1071 C1084 0.960 . S
C1072 H1064 0.929 . S
C1072 C1073 1.377 . S
C1072 C1074 1.384 . S
C1073 C1072 1.377 . S
C1073 C1079 1.390 . S
C1074 H1065 0.930 . S
C1074 C1072 1.384 . S
C1074 C1075 1.372 . S
C1075 C1074 1.372 . S
C1075 C1076 1.400 . S
C1075 C1080 1.490 . S
C1076 H1066 0.930 . S
C1076 C1075 1.400 . S
C1076 C1079 1.386 . S
H1077 C1093 0.930 . S
H1078 C1094 0.931 . S
C1079 H1067 0.929 . S
C1079 C1073 1.390 . S
C1079 C1076 1.386 . S
C1080 C1075 1.490 . S
C1080 C1082 1.395 . S
C1080 C1083 1.403 . S
H1081 C1087 0.930 . S
C1082 H1068 0.930 . S
C1082 C1080 1.395 . S
C1082 C1085 1.403 . S
C1083 C1080 1.403 . S
C1083 C1084 1.524 . S
C1083 C1087 1.400 . S
C1084 H1069 0.960 . S
C1084 H1070 0.960 . S
C1084 H1071 0.960 . S
C1084 C1083 1.524 . S
C1085 C1082 1.403 . S
C1085 C1086 1.392 . S
C1085 C1089 1.495 . S
C1086 C1085 1.392 . S
C1086 C1087 1.385 . S
C1086 C1088 1.478 . S
C1087 H1081 0.930 . S
C1087 C1083 1.400 . S
C1087 C1086 1.385 . S
C1088 C1086 1.478 . S
C1088 C1090 1.381 . S
C1088 C1094 1.383 . S
C1089 C1085 1.495 . S
C1089 H1095 0.959 . S
C1089 H1096 0.961 . S
C1089 H1097 0.960 . S
C1090 C1088 1.381 . S
C1090 C1091 1.394 . S
C1090 H1098 0.930 . S
C1091 C1090 1.394 . S
C1091 C1092 1.383 . S
C1091 H1099 0.929 . S
C1092 C1091 1.383 . S
C1092 C1093 1.377 . S
C1093 H1077 0.930 . S
C1093 C1092 1.377 . S
C1093 C1094 1.379 . S
C1094 H1078 0.931 . S
C1094 C1088 1.383 . S
C1094 C1093 1.379 . S
H1095 C1089 0.959 . S
H1096 C1089 0.961 . S
H1097 C1089 0.960 . S
H1098 C1090 0.930 . S
H1099 C1091 0.929 . S
H1100 C1108 0.929 . S
H1101 C1110 0.930 . S
H1102 C1112 0.930 . S
H1103 C1115 0.929 . S
H1104 C1118 0.930 . S
H1105 C1120 0.960 . S
H1106 C1120 0.960 . S
H1107 C1120 0.960 . S
C1108 H1100 0.929 . S
C1108 C1109 1.377 . S
C1108 C1110 1.384 . S
C1109 C1108 1.377 . S
C1109 C1115 1.390 . S
C1110 H1101 0.930 . S
C1110 C1108 1.384 . S
C1110 C1111 1.372 . S
C1111 C1110 1.372 . S
C1111 C1112 1.400 . S
C1111 C1116 1.490 . S
C1112 H1102 0.930 . S
C1112 C1111 1.400 . S
C1112 C1115 1.386 . S
H1113 C1129 0.930 . S
H1114 C1130 0.931 . S
C1115 H1103 0.929 . S
C1115 C1109 1.390 . S
C1115 C1112 1.386 . S
C1116 C1111 1.490 . S
C1116 C1118 1.395 . S
C1116 C1119 1.403 . S
H1117 C1123 0.930 . S
C1118 H1104 0.930 . S
C1118 C1116 1.395 . S
C1118 C1121 1.403 . S
C1119 C1116 1.403 . S
C1119 C1120 1.524 . S
C1119 C1123 1.400 . S
C1120 H1105 0.960 . S
C1120 H1106 0.960 . S
C1120 H1107 0.960 . S
C1120 C1119 1.524 . S
C1121 C1118 1.403 . S
C1121 C1122 1.392 . S
C1121 C1125 1.495 . S
C1122 C1121 1.392 . S
C1122 C1123 1.385 . S
C1122 C1124 1.478 . S
C1123 H1117 0.930 . S
C1123 C1119 1.400 . S
C1123 C1122 1.385 . S
C1124 C1122 1.478 . S
C1124 C1126 1.381 . S
C1124 C1130 1.383 . S
C1125 C1121 1.495 . S
C1125 H1131 0.959 . S
C1125 H1132 0.961 . S
C1125 H1133 0.960 . S
C1126 C1124 1.381 . S
C1126 C1127 1.394 . S
C1126 H1134 0.930 . S
C1127 C1126 1.394 . S
C1127 C1128 1.383 . S
C1127 H1135 0.929 . S
C1128 C1127 1.383 . S
C1128 C1129 1.377 . S
C1129 H1113 0.930 . S
C1129 C1128 1.377 . S
C1129 C1130 1.379 . S
C1130 H1114 0.931 . S
C1130 C1124 1.383 . S
C1130 C1129 1.379 . S
H1131 C1125 0.959 . S
H1132 C1125 0.961 . S
H1133 C1125 0.960 . S
H1134 C1126 0.930 . S
H1135 C1127 0.929 . S
H1136 C1144 0.929 . S
H1137 C1146 0.930 . S
H1138 C1148 0.930 . S
H1139 C1151 0.929 . S
H1140 C1154 0.930 . S
H1141 C1156 0.960 . S
H1142 C1156 0.960 . S
H1143 C1156 0.960 . S
C1144 H1136 0.929 . S
C1144 C1145 1.377 . S
C1144 C1146 1.384 . S
C1145 C1144 1.377 . S
C1145 C1151 1.390 . S
C1146 H1137 0.930 . S
C1146 C1144 1.384 . S
C1146 C1147 1.372 . S
C1147 C1146 1.372 . S
C1147 C1148 1.400 . S
C1147 C1152 1.490 . S
C1148 H1138 0.930 . S
C1148 C1147 1.400 . S
C1148 C1151 1.386 . S
H1149 C1165 0.930 . S
H1150 C1166 0.931 . S
C1151 H1139 0.929 . S
C1151 C1145 1.390 . S
C1151 C1148 1.386 . S
C1152 C1147 1.490 . S
C1152 C1154 1.395 . S
C1152 C1155 1.403 . S
H1153 C1159 0.930 . S
C1154 H1140 0.930 . S
C1154 C1152 1.395 . S
C1154 C1157 1.403 . S
C1155 C1152 1.403 . S
C1155 C1156 1.524 . S
C1155 C1159 1.400 . S
C1156 H1141 0.960 . S
C1156 H1142 0.960 . S
C1156 H1143 0.960 . S
C1156 C1155 1.524 . S
C1157 C1154 1.403 . S
C1157 C1158 1.392 . S
C1157 C1161 1.495 . S
C1158 C1157 1.392 . S
C1158 C1159 1.385 . S
C1158 C1160 1.478 . S
C1159 H1153 0.930 . S
C1159 C1155 1.400 . S
C1159 C1158 1.385 . S
C1160 C1158 1.478 . S
C1160 C1162 1.381 . S
C1160 C1166 1.383 . S
C1161 C1157 1.495 . S
C1161 H1167 0.959 . S
C1161 H1168 0.961 . S
C1161 H1169 0.960 . S
C1162 C1160 1.381 . S
C1162 C1163 1.394 . S
C1162 H1170 0.930 . S
C1163 C1162 1.394 . S
C1163 C1164 1.383 . S
C1163 H1171 0.929 . S
C1164 C1163 1.383 . S
C1164 C1165 1.377 . S
C1165 H1149 0.930 . S
C1165 C1164 1.377 . S
C1165 C1166 1.379 . S
C1166 H1150 0.931 . S
C1166 C1160 1.383 . S
C1166 C1165 1.379 . S
H1167 C1161 0.959 . S
H1168 C1161 0.961 . S
H1169 C1161 0.960 . S
H1170 C1162 0.930 . S
H1171 C1163 0.929 . S
H1172 C1180 0.929 . S
H1173 C1182 0.930 . S
H1174 C1184 0.930 . S
H1175 C1187 0.929 . S
H1176 C1190 0.930 . S
H1177 C1192 0.960 . S
H1178 C1192 0.960 . S
H1179 C1192 0.960 . S
C1180 H1172 0.929 . S
C1180 C1181 1.377 . S
C1180 C1182 1.384 . S
C1181 C1180 1.377 . S
C1181 C1187 1.390 . S
C1182 H1173 0.930 . S
C1182 C1180 1.384 . S
C1182 C1183 1.372 . S
C1183 C1182 1.372 . S
C1183 C1184 1.400 . S
C1183 C1188 1.490 . S
C1184 H1174 0.930 . S
C1184 C1183 1.400 . S
C1184 C1187 1.386 . S
H1185 C1201 0.930 . S
H1186 C1202 0.931 . S
C1187 H1175 0.929 . S
C1187 C1181 1.390 . S
C1187 C1184 1.386 . S
C1188 C1183 1.490 . S
C1188 C1190 1.395 . S
C1188 C1191 1.403 . S
H1189 C1195 0.930 . S
C1190 H1176 0.930 . S
C1190 C1188 1.395 . S
C1190 C1193 1.403 . S
C1191 C1188 1.403 . S
C1191 C1192 1.524 . S
C1191 C1195 1.400 . S
C1192 H1177 0.960 . S
C1192 H1178 0.960 . S
C1192 H1179 0.960 . S
C1192 C1191 1.524 . S
C1193 C1190 1.403 . S
C1193 C1194 1.392 . S
C1193 C1197 1.495 . S
C1194 C1193 1.392 . S
C1194 C1195 1.385 . S
C1194 C1196 1.478 . S
C1195 H1189 0.930 . S
C1195 C1191 1.400 . S
C1195 C1194 1.385 . S
C1196 C1194 1.478 . S
C1196 C1198 1.381 . S
C1196 C1202 1.383 . S
C1197 C1193 1.495 . S
C1197 H1203 0.959 . S
C1197 H1204 0.961 . S
C1197 H1205 0.960 . S
C1198 C1196 1.381 . S
C1198 C1199 1.394 . S
C1198 H1206 0.930 . S
C1199 C1198 1.394 . S
C1199 C1200 1.383 . S
C1199 H1207 0.929 . S
C1200 C1199 1.383 . S
C1200 C1201 1.377 . S
C1201 H1185 0.930 . S
C1201 C1200 1.377 . S
C1201 C1202 1.379 . S
C1202 H1186 0.931 . S
C1202 C1196 1.383 . S
C1202 C1201 1.379 . S
H1203 C1197 0.959 . S
H1204 C1197 0.961 . S
H1205 C1197 0.960 . S
H1206 C1198 0.930 . S
H1207 C1199 0.929 . S
H1208 C1216 0.929 . S
H1209 C1218 0.930 . S
H1210 C1220 0.930 . S
H1211 C1223 0.929 . S
H1212 C1226 0.930 . S
H1213 C1228 0.960 . S
H1214 C1228 0.960 . S
H1215 C1228 0.960 . S
C1216 H1208 0.929 . S
C1216 C1217 1.377 . S
C1216 C1218 1.384 . S
C1217 C1216 1.377 . S
C1217 C1223 1.390 . S
C1218 H1209 0.930 . S
C1218 C1216 1.384 . S
C1218 C1219 1.372 . S
C1219 C1218 1.372 . S
C1219 C1220 1.400 . S
C1219 C1224 1.490 . S
C1220 H1210 0.930 . S
C1220 C1219 1.400 . S
C1220 C1223 1.386 . S
H1221 C1237 0.930 . S
H1222 C1238 0.931 . S
C1223 H1211 0.929 . S
C1223 C1217 1.390 . S
C1223 C1220 1.386 . S
C1224 C1219 1.490 . S
C1224 C1226 1.395 . S
C1224 C1227 1.403 . S
H1225 C1231 0.930 . S
C1226 H1212 0.930 . S
C1226 C1224 1.395 . S
C1226 C1229 1.403 . S
C1227 C1224 1.403 . S
C1227 C1228 1.524 . S
C1227 C1231 1.400 . S
C1228 H1213 0.960 . S
C1228 H1214 0.960 . S
C1228 H1215 0.960 . S
C1228 C1227 1.524 . S
C1229 C1226 1.403 . S
C1229 C1230 1.392 . S
C1229 C1233 1.495 . S
C1230 C1229 1.392 . S
C1230 C1231 1.385 . S
C1230 C1232 1.478 . S
C1231 H1225 0.930 . S
C1231 C1227 1.400 . S
C1231 C1230 1.385 . S
C1232 C1230 1.478 . S
C1232 C1234 1.381 . S
C1232 C1238 1.383 . S
C1233 C1229 1.495 . S
C1233 H1239 0.959 . S
C1233 H1240 0.961 . S
C1233 H1241 0.960 . S
C1234 C1232 1.381 . S
C1234 C1235 1.394 . S
C1234 H1242 0.930 . S
C1235 C1234 1.394 . S
C1235 C1236 1.383 . S
C1235 H1243 0.929 . S
C1236 C1235 1.383 . S
C1236 C1237 1.377 . S
C1237 H1221 0.930 . S
C1237 C1236 1.377 . S
C1237 C1238 1.379 . S
C1238 H1222 0.931 . S
C1238 C1232 1.383 . S
C1238 C1237 1.379 . S
H1239 C1233 0.959 . S
H1240 C1233 0.961 . S
H1241 C1233 0.960 . S
H1242 C1234 0.930 . S
H1243 C1235 0.929 . S
H1244 C1252 0.929 . S
H1245 C1254 0.930 . S
H1246 C1256 0.930 . S
H1247 C1259 0.929 . S
H1248 C1262 0.930 . S
H1249 C1264 0.960 . S
H1250 C1264 0.960 . S
H1251 C1264 0.960 . S
C1252 H1244 0.929 . S
C1252 C1253 1.377 . S
C1252 C1254 1.384 . S
C1253 C1252 1.377 . S
C1253 C1259 1.390 . S
C1254 H1245 0.930 . S
C1254 C1252 1.384 . S
C1254 C1255 1.372 . S
C1255 C1254 1.372 . S
C1255 C1256 1.400 . S
C1255 C1260 1.490 . S
C1256 H1246 0.930 . S
C1256 C1255 1.400 . S
C1256 C1259 1.386 . S
H1257 C1273 0.930 . S
H1258 C1274 0.931 . S
C1259 H1247 0.929 . S
C1259 C1253 1.390 . S
C1259 C1256 1.386 . S
C1260 C1255 1.490 . S
C1260 C1262 1.395 . S
C1260 C1263 1.403 . S
H1261 C1267 0.930 . S
C1262 H1248 0.930 . S
C1262 C1260 1.395 . S
C1262 C1265 1.403 . S
C1263 C1260 1.403 . S
C1263 C1264 1.524 . S
C1263 C1267 1.400 . S
C1264 H1249 0.960 . S
C1264 H1250 0.960 . S
C1264 H1251 0.960 . S
C1264 C1263 1.524 . S
C1265 C1262 1.403 . S
C1265 C1266 1.392 . S
C1265 C1269 1.495 . S
C1266 C1265 1.392 . S
C1266 C1267 1.385 . S
C1266 C1268 1.478 . S
C1267 H1261 0.930 . S
C1267 C1263 1.400 . S
C1267 C1266 1.385 . S
C1268 C1266 1.478 . S
C1268 C1270 1.381 . S
C1268 C1274 1.383 . S
C1269 C1265 1.495 . S
C1269 H1275 0.959 . S
C1269 H1276 0.961 . S
C1269 H1277 0.960 . S
C1270 C1268 1.381 . S
C1270 C1271 1.394 . S
C1270 H1278 0.930 . S
C1271 C1270 1.394 . S
C1271 C1272 1.383 . S
C1271 H1279 0.929 . S
C1272 C1271 1.383 . S
C1272 C1273 1.377 . S
C1273 H1257 0.930 . S
C1273 C1272 1.377 . S
C1273 C1274 1.379 . S
C1274 H1258 0.931 . S
C1274 C1268 1.383 . S
C1274 C1273 1.379 . S
H1275 C1269 0.959 . S
H1276 C1269 0.961 . S
H1277 C1269 0.960 . S
H1278 C1270 0.930 . S
H1279 C1271 0.929 . S
H1280 C1288 0.929 . S
H1281 C1290 0.930 . S
H1282 C1292 0.930 . S
H1283 C1295 0.929 . S
H1284 C1298 0.930 . S
H1285 C1300 0.960 . S
H1286 C1300 0.960 . S
H1287 C1300 0.960 . S
C1288 H1280 0.929 . S
C1288 C1289 1.377 . S
C1288 C1290 1.384 . S
C1289 C1288 1.377 . S
C1289 C1295 1.390 . S
C1290 H1281 0.930 . S
C1290 C1288 1.384 . S
C1290 C1291 1.372 . S
C1291 C1290 1.372 . S
C1291 C1292 1.400 . S
C1291 C1296 1.490 . S
C1292 H1282 0.930 . S
C1292 C1291 1.400 . S
C1292 C1295 1.386 . S
H1293 C1309 0.930 . S
H1294 C1310 0.931 . S
C1295 H1283 0.929 . S
C1295 C1289 1.390 . S
C1295 C1292 1.386 . S
C1296 C1291 1.490 . S
C1296 C1298 1.395 . S
C1296 C1299 1.403 . S
H1297 C1303 0.930 . S
C1298 H1284 0.930 . S
C1298 C1296 1.395 . S
C1298 C1301 1.403 . S
C1299 C1296 1.403 . S
C1299 C1300 1.524 . S
C1299 C1303 1.400 . S
C1300 H1285 0.960 . S
C1300 H1286 0.960 . S
C1300 H1287 0.960 . S
C1300 C1299 1.524 . S
C1301 C1298 1.403 . S
C1301 C1302 1.392 . S
C1301 C1305 1.495 . S
C1302 C1301 1.392 . S
C1302 C1303 1.385 . S
C1302 C1304 1.478 . S
C1303 H1297 0.930 . S
C1303 C1299 1.400 . S
C1303 C1302 1.385 . S
C1304 C1302 1.478 . S
C1304 C1306 1.381 . S
C1304 C1310 1.383 . S
C1305 C1301 1.495 . S
C1305 H1311 0.959 . S
C1305 H1312 0.961 . S
C1305 H1313 0.960 . S
C1306 C1304 1.381 . S
C1306 C1307 1.394 . S
C1306 H1314 0.930 . S
C1307 C1306 1.394 . S
C1307 C1308 1.383 . S
C1307 H1315 0.929 . S
C1308 C1307 1.383 . S
C1308 C1309 1.377 . S
C1309 H1293 0.930 . S
C1309 C1308 1.377 . S
C1309 C1310 1.379 . S
C1310 H1294 0.931 . S
C1310 C1304 1.383 . S
C1310 C1309 1.379 . S
H1311 C1305 0.959 . S
H1312 C1305 0.961 . S
H1313 C1305 0.960 . S
H1314 C1306 0.930 . S
H1315 C1307 0.929 . S
H1316 C1324 0.929 . S
H1317 C1326 0.930 . S
H1318 C1328 0.930 . S
H1319 C1331 0.929 . S
H1320 C1334 0.930 . S
H1321 C1336 0.960 . S
H1322 C1336 0.960 . S
H1323 C1336 0.960 . S
C1324 H1316 0.929 . S
C1324 C1325 1.377 . S
C1324 C1326 1.384 . S
C1325 C1324 1.377 . S
C1325 C1331 1.390 . S
C1326 H1317 0.930 . S
C1326 C1324 1.384 . S
C1326 C1327 1.372 . S
C1327 C1326 1.372 . S
C1327 C1328 1.400 . S
C1327 C1332 1.490 . S
C1328 H1318 0.930 . S
C1328 C1327 1.400 . S
C1328 C1331 1.386 . S
H1329 C1345 0.930 . S
H1330 C1346 0.931 . S
C1331 H1319 0.929 . S
C1331 C1325 1.390 . S
C1331 C1328 1.386 . S
C1332 C1327 1.490 . S
C1332 C1334 1.395 . S
C1332 C1335 1.403 . S
H1333 C1339 0.930 . S
C1334 H1320 0.930 . S
C1334 C1332 1.395 . S
C1334 C1337 1.403 . S
C1335 C1332 1.403 . S
C1335 C1336 1.524 . S
C1335 C1339 1.400 . S
C1336 H1321 0.960 . S
C1336 H1322 0.960 . S
C1336 H1323 0.960 . S
C1336 C1335 1.524 . S
C1337 C1334 1.403 . S
C1337 C1338 1.392 . S
C1337 C1341 1.495 . S
C1338 C1337 1.392 . S
C1338 C1339 1.385 . S
C1338 C1340 1.478 . S
C1339 H1333 0.930 . S
C1339 C1335 1.400 . S
C1339 C1338 1.385 . S
C1340 C1338 1.478 . S
C1340 C1342 1.381 . S
C1340 C1346 1.383 . S
C1341 C1337 1.495 . S
C1341 H1347 0.959 . S
C1341 H1348 0.961 . S
C1341 H1349 0.960 . S
C1342 C1340 1.381 . S
C1342 C1343 1.394 . S
C1342 H1350 0.930 . S
C1343 C1342 1.394 . S
C1343 C1344 1.383 . S
C1343 H1351 0.929 . S
C1344 C1343 1.383 . S
C1344 C1345 1.377 . S
C1345 H1329 0.930 . S
C1345 C1344 1.377 . S
C1345 C1346 1.379 . S
C1346 H1330 0.931 . S
C1346 C1340 1.383 . S
C1346 C1345 1.379 . S
H1347 C1341 0.959 . S
H1348 C1341 0.961 . S
H1349 C1341 0.960 . S
H1350 C1342 0.930 . S
H1351 C1343 0.929 . S
H1352 C1360 0.929 . S
H1353 C1362 0.930 . S
H1354 C1364 0.930 . S
H1355 C1367 0.929 . S
H1356 C1370 0.930 . S
H1357 C1372 0.960 . S
H1358 C1372 0.960 . S
H1359 C1372 0.960 . S
C1360 H1352 0.929 . S
C1360 C1361 1.377 . S
C1360 C1362 1.384 . S
C1361 C1360 1.377 . S
C1361 C1367 1.390 . S
C1362 H1353 0.930 . S
C1362 C1360 1.384 . S
C1362 C1363 1.372 . S
C1363 C1362 1.372 . S
C1363 C1364 1.400 . S
C1363 C1368 1.490 . S
C1364 H1354 0.930 . S
C1364 C1363 1.400 . S
C1364 C1367 1.386 . S
H1365 C1381 0.930 . S
H1366 C1382 0.931 . S
C1367 H1355 0.929 . S
C1367 C1361 1.390 . S
C1367 C1364 1.386 . S
C1368 C1363 1.490 . S
C1368 C1370 1.395 . S
C1368 C1371 1.403 . S
H1369 C1375 0.930 . S
C1370 H1356 0.930 . S
C1370 C1368 1.395 . S
C1370 C1373 1.403 . S
C1371 C1368 1.403 . S
C1371 C1372 1.524 . S
C1371 C1375 1.400 . S
C1372 H1357 0.960 . S
C1372 H1358 0.960 . S
C1372 H1359 0.960 . S
C1372 C1371 1.524 . S
C1373 C1370 1.403 . S
C1373 C1374 1.392 . S
C1373 C1377 1.495 . S
C1374 C1373 1.392 . S
C1374 C1375 1.385 . S
C1374 C1376 1.478 . S
C1375 H1369 0.930 . S
C1375 C1371 1.400 . S
C1375 C1374 1.385 . S
C1376 C1374 1.478 . S
C1376 C1378 1.381 . S
C1376 C1382 1.383 . S
C1377 C1373 1.495 . S
C1377 H1383 0.959 . S
C1377 H1384 0.961 . S
C1377 H1385 0.960 . S
C1378 C1376 1.381 . S
C1378 C1379 1.394 . S
C1378 H1386 0.930 . S
C1379 C1378 1.394 . S
C1379 C1380 1.383 . S
C1379 H1387 0.929 . S
C1380 C1379 1.383 . S
C1380 C1381 1.377 . S
C1381 H1365 0.930 . S
C1381 C1380 1.377 . S
C1381 C1382 1.379 . S
C1382 H1366 0.931 . S
C1382 C1376 1.383 . S
C1382 C1381 1.379 . S
H1383 C1377 0.959 . S
H1384 C1377 0.961 . S
H1385 C1377 0.960 . S
H1386 C1378 0.930 . S
H1387 C1379 0.929 . S
H1388 C1396 0.929 . S
H1389 C1398 0.930 . S
H1390 C1400 0.930 . S
H1391 C1403 0.929 . S
H1392 C1406 0.930 . S
H1393 C1408 0.960 . S
H1394 C1408 0.960 . S
H1395 C1408 0.960 . S
C1396 H1388 0.929 . S
C1396 C1397 1.377 . S
C1396 C1398 1.384 . S
C1397 C1396 1.377 . S
C1397 C1403 1.390 . S
C1398 H1389 0.930 . S
C1398 C1396 1.384 . S
C1398 C1399 1.372 . S
C1399 C1398 1.372 . S
C1399 C1400 1.400 . S
C1399 C1404 1.490 . S
C1400 H1390 0.930 . S
C1400 C1399 1.400 . S
C1400 C1403 1.386 . S
H1401 C1417 0.930 . S
H1402 C1418 0.931 . S
C1403 H1391 0.929 . S
C1403 C1397 1.390 . S
C1403 C1400 1.386 . S
C1404 C1399 1.490 . S
C1404 C1406 1.395 . S
C1404 C1407 1.403 . S
H1405 C1411 0.930 . S
C1406 H1392 0.930 . S
C1406 C1404 1.395 . S
C1406 C1409 1.403 . S
C1407 C1404 1.403 . S
C1407 C1408 1.524 . S
C1407 C1411 1.400 . S
C1408 H1393 0.960 . S
C1408 H1394 0.960 . S
C1408 H1395 0.960 . S
C1408 C1407 1.524 . S
C1409 C1406 1.403 . S
C1409 C1410 1.392 . S
C1409 C1413 1.495 . S
C1410 C1409 1.392 . S
C1410 C1411 1.385 . S
C1410 C1412 1.478 . S
C1411 H1405 0.930 . S
C1411 C1407 1.400 . S
C1411 C1410 1.385 . S
C1412 C1410 1.478 . S
C1412 C1414 1.381 . S
C1412 C1418 1.383 . S
C1413 C1409 1.495 . S
C1413 H1419 0.959 . S
C1413 H1420 0.961 . S
C1413 H1421 0.960 . S
C1414 C1412 1.381 . S
C1414 C1415 1.394 . S
C1414 H1422 0.930 . S
C1415 C1414 1.394 . S
C1415 C1416 1.383 . S
C1415 H1423 0.929 . S
C1416 C1415 1.383 . S
C1416 C1417 1.377 . S
C1417 H1401 0.930 . S
C1417 C1416 1.377 . S
C1417 C1418 1.379 . S
C1418 H1402 0.931 . S
C1418 C1412 1.383 . S
C1418 C1417 1.379 . S
H1419 C1413 0.959 . S
H1420 C1413 0.961 . S
H1421 C1413 0.960 . S
H1422 C1414 0.930 . S
H1423 C1415 0.929 . S
H1424 C1432 0.929 . S
H1425 C1434 0.930 . S
H1426 C1436 0.930 . S
H1427 C1439 0.929 . S
H1428 C1442 0.930 . S
H1429 C1444 0.960 . S
H1430 C1444 0.960 . S
H1431 C1444 0.960 . S
C1432 H1424 0.929 . S
C1432 C1433 1.377 . S
C1432 C1434 1.384 . S
C1433 C1432 1.377 . S
C1433 C1439 1.390 . S
C1434 H1425 0.930 . S
C1434 C1432 1.384 . S
C1434 C1435 1.372 . S
C1435 C1434 1.372 . S
C1435 C1436 1.400 . S
C1435 C1440 1.490 . S
C1436 H1426 0.930 . S
C1436 C1435 1.400 . S
C1436 C1439 1.386 . S
H1437 C1453 0.930 . S
H1438 C1454 0.931 . S
C1439 H1427 0.929 . S
C1439 C1433 1.390 . S
C1439 C1436 1.386 . S
C1440 C1435 1.490 . S
C1440 C1442 1.395 . S
C1440 C1443 1.403 . S
H1441 C1447 0.930 . S
C1442 H1428 0.930 . S
C1442 C1440 1.395 . S
C1442 C1445 1.403 . S
C1443 C1440 1.403 . S
C1443 C1444 1.524 . S
C1443 C1447 1.400 . S
C1444 H1429 0.960 . S
C1444 H1430 0.960 . S
C1444 H1431 0.960 . S
C1444 C1443 1.524 . S
C1445 C1442 1.403 . S
C1445 C1446 1.392 . S
C1445 C1449 1.495 . S
C1446 C1445 1.392 . S
C1446 C1447 1.385 . S
C1446 C1448 1.478 . S
C1447 H1441 0.930 . S
C1447 C1443 1.400 . S
C1447 C1446 1.385 . S
C1448 C1446 1.478 . S
C1448 C1450 1.381 . S
C1448 C1454 1.383 . S
C1449 C1445 1.495 . S
C1449 H1455 0.959 . S
C1449 H1456 0.961 . S
C1449 H1457 0.960 . S
C1450 C1448 1.381 . S
C1450 C1451 1.394 . S
C1450 H1458 0.930 . S
C1451 C1450 1.394 . S
C1451 C1452 1.383 . S
C1451 H1459 0.929 . S
C1452 C1451 1.383 . S
C1452 C1453 1.377 . S
C1453 H1437 0.930 . S
C1453 C1452 1.377 . S
C1453 C1454 1.379 . S
C1454 H1438 0.931 . S
C1454 C1448 1.383 . S
C1454 C1453 1.379 . S
H1455 C1449 0.959 . S
H1456 C1449 0.961 . S
H1457 C1449 0.960 . S
H1458 C1450 0.930 . S
H1459 C1451 0.929 . S
H1460 C1468 0.929 . S
H1461 C1470 0.930 . S
H1462 C1472 0.930 . S
H1463 C1475 0.929 . S
H1464 C1478 0.930 . S
H1465 C1480 0.960 . S
H1466 C1480 0.960 . S
H1467 C1480 0.960 . S
C1468 H1460 0.929 . S
C1468 C1469 1.377 . S
C1468 C1470 1.384 . S
C1469 C1468 1.377 . S
C1469 C1475 1.390 . S
C1470 H1461 0.930 . S
C1470 C1468 1.384 . S
C1470 C1471 1.372 . S
C1471 C1470 1.372 . S
C1471 C1472 1.400 . S
C1471 C1476 1.490 . S
C1472 H1462 0.930 . S
C1472 C1471 1.400 . S
C1472 C1475 1.386 . S
H1473 C1489 0.930 . S
H1474 C1490 0.931 . S
C1475 H1463 0.929 . S
C1475 C1469 1.390 . S
C1475 C1472 1.386 . S
C1476 C1471 1.490 . S
C1476 C1478 1.395 . S
C1476 C1479 1.403 . S
H1477 C1483 0.930 . S
C1478 H1464 0.930 . S
C1478 C1476 1.395 . S
C1478 C1481 1.403 . S
C1479 C1476 1.403 . S
C1479 C1480 1.524 . S
C1479 C1483 1.400 . S
C1480 H1465 0.960 . S
C1480 H1466 0.960 . S
C1480 H1467 0.960 . S
C1480 C1479 1.524 . S
C1481 C1478 1.403 . S
C1481 C1482 1.392 . S
C1481 C1485 1.495 . S
C1482 C1481 1.392 . S
C1482 C1483 1.385 . S
C1482 C1484 1.478 . S
C1483 H1477 0.930 . S
C1483 C1479 1.400 . S
C1483 C1482 1.385 . S
C1484 C1482 1.478 . S
C1484 C1486 1.381 . S
C1484 C1490 1.383 . S
C1485 C1481 1.495 . S
C1485 H1491 0.959 . S
C1485 H1492 0.961 . S
C1485 H1493 0.960 . S
C1486 C1484 1.381 . S
C1486 C1487 1.394 . S
C1486 H1494 0.930 . S
C1487 C1486 1.394 . S
C1487 C1488 1.383 . S
C1487 H1495 0.929 . S
C1488 C1487 1.383 . S
C1488 C1489 1.377 . S
C1489 H1473 0.930 . S
C1489 C1488 1.377 . S
C1489 C1490 1.379 . S
C1490 H1474 0.931 . S
C1490 C1484 1.383 . S
C1490 C1489 1.379 . S
H1491 C1485 0.959 . S
H1492 C1485 0.961 . S
H1493 C1485 0.960 . S
H1494 C1486 0.930 . S
H1495 C1487 0.929 . S
H1496 C1504 0.929 . S
H1497 C1506 0.930 . S
H1498 C1508 0.930 . S
H1499 C1511 0.929 . S
H1500 C1514 0.930 . S
H1501 C1516 0.960 . S
H1502 C1516 0.960 . S
H1503 C1516 0.960 . S
C1504 H1496 0.929 . S
C1504 C1505 1.377 . S
C1504 C1506 1.384 . S
C1505 C1504 1.377 . S
C1505 C1511 1.390 . S
C1506 H1497 0.930 . S
C1506 C1504 1.384 . S
C1506 C1507 1.372 . S
C1507 C1506 1.372 . S
C1507 C1508 1.400 . S
C1507 C1512 1.490 . S
C1508 H1498 0.930 . S
C1508 C1507 1.400 . S
C1508 C1511 1.386 . S
H1509 C1525 0.930 . S
H1510 C1526 0.931 . S
C1511 H1499 0.929 . S
C1511 C1505 1.390 . S
C1511 C1508 1.386 . S
C1512 C1507 1.490 . S
C1512 C1514 1.395 . S
C1512 C1515 1.403 . S
H1513 C1519 0.930 . S
C1514 H1500 0.930 . S
C1514 C1512 1.395 . S
C1514 C1517 1.403 . S
C1515 C1512 1.403 . S
C1515 C1516 1.524 . S
C1515 C1519 1.400 . S
C1516 H1501 0.960 . S
C1516 H1502 0.960 . S
C1516 H1503 0.960 . S
C1516 C1515 1.524 . S
C1517 C1514 1.403 . S
C1517 C1518 1.392 . S
C1517 C1521 1.495 . S
C1518 C1517 1.392 . S
C1518 C1519 1.385 . S
C1518 C1520 1.478 . S
C1519 H1513 0.930 . S
C1519 C1515 1.400 . S
C1519 C1518 1.385 . S
C1520 C1518 1.478 . S
C1520 C1522 1.381 . S
C1520 C1526 1.383 . S
C1521 C1517 1.495 . S
C1521 H1527 0.959 . S
C1521 H1528 0.961 . S
C1521 H1529 0.960 . S
C1522 C1520 1.381 . S
C1522 C1523 1.394 . S
C1522 H1530 0.930 . S
C1523 C1522 1.394 . S
C1523 C1524 1.383 . S
C1523 H1531 0.929 . S
C1524 C1523 1.383 . S
C1524 C1525 1.377 . S
C1525 H1509 0.930 . S
C1525 C1524 1.377 . S
C1525 C1526 1.379 . S
C1526 H1510 0.931 . S
C1526 C1520 1.383 . S
C1526 C1525 1.379 . S
H1527 C1521 0.959 . S
H1528 C1521 0.961 . S
H1529 C1521 0.960 . S
H1530 C1522 0.930 . S
H1531 C1523 0.929 . S
H1532 C1540 0.929 . S
H1533 C1542 0.930 . S
H1534 C1544 0.930 . S
H1535 C1547 0.929 . S
H1536 C1550 0.930 . S
H1537 C1552 0.960 . S
H1538 C1552 0.960 . S
H1539 C1552 0.960 . S
C1540 H1532 0.929 . S
C1540 C1541 1.377 . S
C1540 C1542 1.384 . S
C1541 C1540 1.377 . S
C1541 C1547 1.390 . S
C1542 H1533 0.930 . S
C1542 C1540 1.384 . S
C1542 C1543 1.372 . S
C1543 C1542 1.372 . S
C1543 C1544 1.400 . S
C1543 C1548 1.490 . S
C1544 H1534 0.930 . S
C1544 C1543 1.400 . S
C1544 C1547 1.386 . S
H1545 C1561 0.930 . S
H1546 C1562 0.931 . S
C1547 H1535 0.929 . S
C1547 C1541 1.390 . S
C1547 C1544 1.386 . S
C1548 C1543 1.490 . S
C1548 C1550 1.395 . S
C1548 C1551 1.403 . S
H1549 C1555 0.930 . S
C1550 H1536 0.930 . S
C1550 C1548 1.395 . S
C1550 C1553 1.403 . S
C1551 C1548 1.403 . S
C1551 C1552 1.524 . S
C1551 C1555 1.400 . S
C1552 H1537 0.960 . S
C1552 H1538 0.960 . S
C1552 H1539 0.960 . S
C1552 C1551 1.524 . S
C1553 C1550 1.403 . S
C1553 C1554 1.392 . S
C1553 C1557 1.495 . S
C1554 C1553 1.392 . S
C1554 C1555 1.385 . S
C1554 C1556 1.478 . S
C1555 H1549 0.930 . S
C1555 C1551 1.400 . S
C1555 C1554 1.385 . S
C1556 C1554 1.478 . S
C1556 C1558 1.381 . S
C1556 C1562 1.383 . S
C1557 C1553 1.495 . S
C1557 H1563 0.959 . S
C1557 H1564 0.961 . S
C1557 H1565 0.960 . S
C1558 C1556 1.381 . S
C1558 C1559 1.394 . S
C1558 H1566 0.930 . S
C1559 C1558 1.394 . S
C1559 C1560 1.383 . S
C1559 H1567 0.929 . S
C1560 C1559 1.383 . S
C1560 C1561 1.377 . S
C1561 H1545 0.930 . S
C1561 C1560 1.377 . S
C1561 C1562 1.379 . S
C1562 H1546 0.931 . S
C1562 C1556 1.383 . S
C1562 C1561 1.379 . S
H1563 C1557 0.959 . S
H1564 C1557 0.961 . S
H1565 C1557 0.960 . S
H1566 C1558 0.930 . S
H1567 C1559 0.929 . S
H1568 C1576 0.929 . S
H1569 C1578 0.930 . S
H1570 C1580 0.930 . S
H1571 C1583 0.929 . S
H1572 C1586 0.930 . S
H1573 C1588 0.960 . S
H1574 C1588 0.960 . S
H1575 C1588 0.960 . S
C1576 H1568 0.929 . S
C1576 C1577 1.377 . S
C1576 C1578 1.384 . S
C1577 C1576 1.377 . S
C1577 C1583 1.390 . S
C1578 H1569 0.930 . S
C1578 C1576 1.384 . S
C1578 C1579 1.372 . S
C1579 C1578 1.372 . S
C1579 C1580 1.400 . S
C1579 C1584 1.490 . S
C1580 H1570 0.930 . S
C1580 C1579 1.400 . S
C1580 C1583 1.386 . S
H1581 C1597 0.930 . S
H1582 C1598 0.931 . S
C1583 H1571 0.929 . S
C1583 C1577 1.390 . S
C1583 C1580 1.386 . S
C1584 C1579 1.490 . S
C1584 C1586 1.395 . S
C1584 C1587 1.403 . S
H1585 C1591 0.930 . S
C1586 H1572 0.930 . S
C1586 C1584 1.395 . S
C1586 C1589 1.403 . S
C1587 C1584 1.403 . S
C1587 C1588 1.524 . S
C1587 C1591 1.400 . S
C1588 H1573 0.960 . S
C1588 H1574 0.960 . S
C1588 H1575 0.960 . S
C1588 C1587 1.524 . S
C1589 C1586 1.403 . S
C1589 C1590 1.392 . S
C1589 C1593 1.495 . S
C1590 C1589 1.392 . S
C1590 C1591 1.385 . S
C1590 C1592 1.478 . S
C1591 H1585 0.930 . S
C1591 C1587 1.400 . S
C1591 C1590 1.385 . S
C1592 C1590 1.478 . S
C1592 C1594 1.381 . S
C1592 C1598 1.383 . S
C1593 C1589 1.495 . S
C1593 H1599 0.959 . S
C1593 H1600 0.961 . S
C1593 H1601 0.960 . S
C1594 C1592 1.381 . S
C1594 C1595 1.394 . S
C1594 H1602 0.930 . S
C1595 C1594 1.394 . S
C1595 C1596 1.383 . S
C1595 H1603 0.929 . S
C1596 C1595 1.383 . S
C1596 C1597 1.377 . S
C1597 H1581 0.930 . S
C1597 C1596 1.377 . S
C1597 C1598 1.379 . S
C1598 H1582 0.931 . S
C1598 C1592 1.383 . S
C1598 C1597 1.379 . S
H1599 C1593 0.959 . S
H1600 C1593 0.961 . S
H1601 C1593 0.960 . S
H1602 C1594 0.930 . S
H1603 C1595 0.929 . S
H1604 C1612 0.929 . S
H1605 C1614 0.930 . S
H1606 C1616 0.930 . S
H1607 C1619 0.929 . S
H1608 C1622 0.930 . S
H1609 C1624 0.960 . S
H1610 C1624 0.960 . S
H1611 C1624 0.960 . S
C1612 H1604 0.929 . S
C1612 C1613 1.377 . S
C1612 C1614 1.384 . S
C1613 C1612 1.377 . S
C1613 C1619 1.390 . S
C1614 H1605 0.930 . S
C1614 C1612 1.384 . S
C1614 C1615 1.372 . S
C1615 C1614 1.372 . S
C1615 C1616 1.400 . S
C1615 C1620 1.490 . S
C1616 H1606 0.930 . S
C1616 C1615 1.400 . S
C1616 C1619 1.386 . S
H1617 C1633 0.930 . S
H1618 C1634 0.931 . S
C1619 H1607 0.929 . S
C1619 C1613 1.390 . S
C1619 C1616 1.386 . S
C1620 C1615 1.490 . S
C1620 C1622 1.395 . S
C1620 C1623 1.403 . S
H1621 C1627 0.930 . S
C1622 H1608 0.930 . S
C1622 C1620 1.395 . S
C1622 C1625 1.403 . S
C1623 C1620 1.403 . S
C1623 C1624 1.524 . S
C1623 C1627 1.400 . S
C1624 H1609 0.960 . S
C1624 H1610 0.960 . S
C1624 H1611 0.960 . S
C1624 C1623 1.524 . S
C1625 C1622 1.403 . S
C1625 C1626 1.392 . S
C1625 C1629 1.495 . S
C1626 C1625 1.392 . S
C1626 C1627 1.385 . S
C1626 C1628 1.478 . S
C1627 H1621 0.930 . S
C1627 C1623 1.400 . S
C1627 C1626 1.385 . S
C1628 C1626 1.478 . S
C1628 C1630 1.381 . S
C1628 C1634 1.383 . S
C1629 C1625 1.495 . S
C1629 H1635 0.959 . S
C1629 H1636 0.961 . S
C1629 H1637 0.960 . S
C1630 C1628 1.381 . S
C1630 C1631 1.394 . S
C1630 H1638 0.930 . S
C1631 C1630 1.394 . S
C1631 C1632 1.383 . S
C1631 H1639 0.929 . S
C1632 C1631 1.383 . S
C1632 C1633 1.377 . S
C1633 H1617 0.930 . S
C1633 C1632 1.377 . S
C1633 C1634 1.379 . S
C1634 H1618 0.931 . S
C1634 C1628 1.383 . S
C1634 C1633 1.379 . S
H1635 C1629 0.959 . S
H1636 C1629 0.961 . S
H1637 C1629 0.960 . S
H1638 C1630 0.930 . S
H1639 C1631 0.929 . S
C516 C400 1.287 . S
C497 C36 1.275 . S
C552 C414 1.263 . S
C533 C93 1.281 . S
C588 C427 1.277 . S
C569 C126 1.273 . S
C605 C165 1.270 . S
C624 C394 1.297 . S
C641 C222 1.285 . S
C660 C387 1.301 . S
C677 C261 1.276 . S
C696 C407 1.284 . S
C732 C415 1.270 . S
C713 C318 1.279 . S
C768 C428 1.300 . S
C749 C381 1.288 . S
C785 C132 1.280 . S
C804 C454 1.269 . S
C840 C472 1.265 . S
C821 C189 1.280 . S
C857 C30 1.273 . S
C876 C479 1.293 . S
C912 C446 1.275 . S
C893 C69 1.276 . S
C929 C324 1.290 . S
C948 C439 1.280 . S
C965 C357 1.281 . S
C984 C453 1.274 . S
C1020 C465 1.293 . S
C1001 C228 1.275 . S
C1037 C285 1.292 . S
C1056 C480 1.276 . S
C1092 C413 1.793 . S
C1073 C45 1.811 . S
C1128 C426 1.804 . S
C1109 C84 1.822 . S
C1145 C117 1.807 . S
C1164 C389 1.805 . S
C1181 C174 1.782 . S
C1200 C401 1.785 . S
C1217 C213 1.794 . S
C1236 C433 1.794 . S
C1272 C388 1.797 . S
C1253 C270 1.773 . S
C1308 C402 1.810 . S
C1289 C309 1.805 . S
C1344 C420 1.771 . S
C1325 C372 1.813 . S
C1380 C467 1.794 . S
C1361 C141 1.811 . S
C1416 C478 1.816 . S
C1397 C180 1.820 . S
C1433 C21 1.807 . S
C1452 C441 1.794 . S
C1488 C459 1.770 . S
C1469 C78 1.783 . S
C1524 C485 1.776 . S
C1505 C333 1.795 . S
C1541 C366 1.774 . S
C1560 C440 1.796 . S
C1596 C452 1.794 . S
C1577 C237 1.803 . S
C1632 C466 1.770 . S
C1613 C276 1.812 . S
