# Generated by pormake.
# Topology tsx, (6,3)-cn, num edge types: 1
# Building blocks:
#     Node 0, Type 0, BuildingBlock: JUFBIX_clean_sbu_0, # of connection points: 6
#     Node 1, Type 0, BuildingBlock: JUFBIX_clean_sbu_0, # of connection points: 6
#     Node 2, Type 1, BuildingBlock: BETDAH_clean_linker_0, # of connection points: 3
#     Node 3, Type 1, BuildingBlock: BETDAH_clean_linker_0, # of connection points: 3
#     Node 4, Type 1, BuildingBlock: BETDAH_clean_linker_0, # of connection points: 3
#     Node 5, Type 1, BuildingBlock: BETDAH_clean_linker_0, # of connection points: 3
#     Edge 6, Type (0, 1), BuildingBlock: CIFDUS_clean_linker_0, # of connection points: 2
#     Edge 7, Type (0, 1), BuildingBlock: CIFDUS_clean_linker_0, # of connection points: 2
#     Edge 8, Type (0, 1), BuildingBlock: CIFDUS_clean_linker_0, # of connection points: 2
#     Edge 9, Type (0, 1), BuildingBlock: CIFDUS_clean_linker_0, # of connection points: 2
#     Edge 10, Type (0, 1), BuildingBlock: CIFDUS_clean_linker_0, # of connection points: 2
#     Edge 11, Type (0, 1), BuildingBlock: CIFDUS_clean_linker_0, # of connection points: 2
#     Edge 12, Type (0, 1), BuildingBlock: CIFDUS_clean_linker_0, # of connection points: 2
#     Edge 13, Type (0, 1), BuildingBlock: CIFDUS_clean_linker_0, # of connection points: 2
#     Edge 14, Type (0, 1), BuildingBlock: CIFDUS_clean_linker_0, # of connection points: 2
#     Edge 15, Type (0, 1), BuildingBlock: CIFDUS_clean_linker_0, # of connection points: 2
#     Edge 16, Type (0, 1), BuildingBlock: CIFDUS_clean_linker_0, # of connection points: 2
#     Edge 17, Type (0, 1), BuildingBlock: CIFDUS_clean_linker_0, # of connection points: 2
# Relax obj value: 0.101
# Max RMSD: 0.128
# Mean RMSD: 0.114
data_MOF--net-tsx--node1-JUFBIX_clean_sbu_0--node2-BETDAH_clean_linker_0--edge1-CIFDUS_clean_linker_0
_symmetry_space_group_name_H-M    P1
_symmetry_Int_Tables_number       1
_symmetry_cell_setting            triclinic
loop_
_symmetry_equiv_pos_as_xyz
'x, y, z'
_cell_length_a     18.003221
_cell_length_b     21.063226
_cell_length_c     28.751682
_cell_angle_alpha  90.457607
_cell_angle_beta   98.393543
_cell_angle_gamma 100.31966
loop_
_atom_site_label
_atom_site_type_symbol
_atom_site_fract_x
_atom_site_fract_y
_atom_site_fract_z
_atom_type_partial_charge
Co0 Co 0.13332 0.02264 -0.00638 0.0
C1 C 0.04356 0.04782 0.91032 0.0
Co2 Co 0.03552 0.06865 0.00401 0.0
C3 C 0.24152 0.93168 -0.00581 0.0
C4 C 0.26501 0.01449 0.9525 0.0
N5 N 0.21699 0.98718 0.98158 0.0
N6 N 0.30325 0.92386 0.97413 0.0
C7 C 0.31754 0.97615 0.94789 0.0
H8 H 0.21407 0.89752 0.0171 0.0
H9 H 0.2607 0.05881 0.93441 0.0
C10 C 0.12271 0.04227 0.0872 0.0
N11 N 0.95345 0.10598 0.01362 0.0
C12 C 0.92768 0.15285 -0.0122 0.0
C13 C 0.90729 0.09434 0.04673 0.0
N14 N 0.86727 0.17106 0.00324 0.0
C15 C 0.85428 0.13459 0.04054 0.0
C16 C 1.00247 0.93436 0.00136 0.0
O17 O 0.16114 0.01788 0.06012 0.0
O18 O 0.06727 0.06853 0.06949 0.0
O19 O 0.97615 0.98564 0.00658 0.0
O20 O 0.07084 0.93872 -0.00701 0.0
O21 O 1.00396 0.06794 0.93832 0.0
H22 H 0.91194 0.05897 0.07358 0.0
H23 H 0.95379 0.17404 0.95859 0.0
O24 O 0.10362 0.02708 0.92712 0.0
O25 O 0.19457 0.10765 -0.00428 0.0
O26 O 0.09516 0.15152 0.00232 0.0
C27 C 0.16577 0.15795 -0.00028 0.0
H28 H 0.3611 0.98521 0.9253 0.0
H29 H 0.80922 0.13628 0.0614 0.0
Co30 Co 0.52491 0.44887 0.49868 0.0
C31 C 0.46385 0.48912 0.4134 0.0
Co32 Co 0.43344 0.50511 0.50431 0.0
C33 C 0.60427 0.34908 0.47019 0.0
C34 C 0.67422 0.41769 0.52088 0.0
N35 N 0.60374 0.40324 0.49565 0.0
N36 N 0.67243 0.32936 0.47852 0.0
C37 C 0.71644 0.37268 0.51041 0.0
H38 H 0.55544 0.32453 0.44617 0.0
H39 H 0.69333 0.45779 0.54608 0.0
C40 C 0.49786 0.46656 0.58986 0.0
N41 N 0.35558 0.55095 0.50816 0.0
C42 C 0.33908 0.60122 0.48233 0.0
C43 C 0.3027 0.54102 0.53736 0.0
N44 N 0.27809 0.62312 0.49423 0.0
C45 C 0.25516 0.58545 0.529 0.0
C46 C 0.38208 0.37238 0.49297 0.0
O47 O 0.5375 0.44133 0.56436 0.0
O48 O 0.4476 0.49728 0.57062 0.0
O49 O 0.36152 0.42652 0.49755 0.0
O50 O 0.45211 0.37089 0.49186 0.0
O51 O 0.42091 0.51275 0.43756 0.0
H52 H 0.29854 0.50348 0.56281 0.0
H53 H 0.37159 0.62164 0.45545 0.0
O54 O 0.51259 0.45752 0.43345 0.0
O55 O 0.59633 0.52744 0.50545 0.0
O56 O 0.50628 0.58341 0.5116 0.0
C57 C 0.57626 0.58151 0.51085 0.0
H58 H 0.77427 0.37083 0.52635 0.0
H59 H 0.20642 0.58874 0.54633 0.0
H60 H 0.14402 0.93847 0.36712 0.0
H61 H 0.94706 0.03063 0.34408 0.0
H62 H 0.9628 0.89054 0.45019 0.0
C63 C 0.08903 0.94469 0.37554 0.0
C64 C 0.05849 0.90863 0.4115 0.0
C65 C 0.04864 0.98743 0.34963 0.0
C66 C 0.98003 0.99866 0.36356 0.0
C67 C 0.95031 0.96482 0.40062 0.0
C68 C 0.98838 0.91869 0.42332 0.0
N69 N 0.88001 0.97367 0.41408 0.0
C70 C 0.85763 0.03346 0.415 0.0
H71 H 0.86195 0.91621 0.65111 0.0
H72 H 0.03532 0.05692 0.60217 0.0
H73 H 0.87548 0.92699 0.50344 0.0
C74 C 0.88799 0.9394 0.62242 0.0
C75 C 0.86087 0.91609 0.57614 0.0
C76 C 0.95153 0.98968 0.63216 0.0
C77 C 0.98638 0.01813 0.59478 0.0
C78 C 0.95817 0.99589 0.5481 0.0
C79 C 0.89638 0.94457 0.53931 0.0
N80 N 0.99094 0.02284 0.50909 0.0
C81 C 0.04424 0.07955 0.51122 0.0
H82 H 0.58739 0.40209 0.87219 0.0
H83 H 0.54503 0.59654 0.87994 0.0
H84 H 0.69612 0.52801 -0.01075 0.0
C85 C 0.59654 0.44849 0.89071 0.0
C86 C 0.64362 0.45811 0.93435 0.0
C87 C 0.56449 0.49925 0.86942 0.0
C88 C 0.57046 0.55734 0.89546 0.0
C89 C 0.61509 0.56658 0.94018 0.0
C90 C 0.65528 0.51851 0.95755 0.0
N91 N 0.62401 0.62435 0.96782 0.0
C92 C 0.576 0.6695 0.96182 0.0
H93 H 0.43419 0.45647 0.13914 0.0
H94 H 0.64038 0.59915 0.14868 0.0
H95 H 0.56073 0.47999 0.02344 0.0
C96 C 0.48005 0.48343 0.12277 0.0
C97 C 0.48891 0.46468 0.07729 0.0
C98 C 0.5349 0.53125 0.14916 0.0
C99 C 0.59661 0.56339 0.1284 0.0
C100 C 0.60616 0.54455 0.0832 0.0
C101 C 0.55233 0.49543 0.05793 0.0
N102 N 0.67505 0.56636 0.06541 0.0
C103 C 0.71387 0.62973 0.0679 0.0
H104 H 0.3182 0.19062 -0.0051 0.0
H105 H 0.12307 0.27132 0.0206 0.0
H106 H 0.20531 0.37502 0.04348 0.0
H107 H 0.33399 0.44009 0.06344 0.0
H108 H 0.52919 0.36027 0.03764 0.0
H109 H 0.44575 0.25959 0.00702 0.0
C110 C 0.29354 0.23113 0.00488 0.0
C111 C 0.21469 0.2228 0.00659 0.0
C112 C 0.34127 0.29087 0.01825 0.0
C113 C 0.18362 0.27607 0.01922 0.0
C114 C 0.23064 0.33549 0.03249 0.0
C115 C 0.35797 0.40079 0.0506 0.0
C116 C 0.43746 0.40737 0.05302 0.0
C117 C 0.30971 0.34295 0.03331 0.0
C118 C 0.46804 0.3565 0.03583 0.0
C119 C 0.42041 0.29874 0.01863 0.0
H120 H 0.44773 0.9264 0.9582 0.0
H121 H 0.25143 0.79975 -0.00356 0.0
H122 H 0.31852 0.70846 -0.00426 0.0
H123 H 0.43293 0.66395 0.98196 0.0
H124 H 0.62603 0.79175 0.94153 0.0
H125 H 0.5595 0.88313 0.94403 0.0
C126 C 0.41886 0.87886 0.96587 0.0
C127 C 0.34397 0.87026 0.97686 0.0
C128 C 0.45711 0.82656 0.96442 0.0
C129 C 0.309 0.80822 -0.01188 0.0
C130 C 0.3472 0.75578 -0.01266 0.0
C131 C 0.45971 0.71185 0.97331 0.0
C132 C 0.53348 0.72157 0.96087 0.0
C133 C 0.42104 0.76424 0.97507 0.0
C134 C 0.56872 0.78351 0.95048 0.0
C135 C 0.5309 0.83565 0.95219 0.0
H136 H 0.86179 0.91249 0.02825 0.0
H137 H 0.03855 0.81407 -0.00621 0.0
H138 H 0.96506 0.71099 0.01319 0.0
H139 H 0.85107 0.64893 0.04092 0.0
H140 H 0.67474 0.74703 0.0751 0.0
H141 H 0.74781 0.85067 0.05517 0.0
C142 C 0.88418 0.8685 0.02461 0.0
C143 C 0.95565 0.87109 0.00939 0.0
C144 C 0.8421 0.80963 0.03638 0.0
C145 C 0.9837 0.81352 0.00519 0.0
C146 C 0.94186 0.7546 0.0165 0.0
C147 C 0.82948 0.69336 0.04453 0.0
C148 C 0.75898 0.69141 0.0603 0.0
C149 C 0.87138 0.75219 0.0325 0.0
C150 C 0.72992 0.74828 0.06393 0.0
C151 C 0.77136 0.80718 0.05221 0.0
H152 H 0.79842 0.24946 0.05001 0.0
H153 H 0.8442 0.20214 0.91205 0.0
H154 H 0.77921 0.28713 0.87853 0.0
H155 H 0.71138 0.37595 0.88854 0.0
H156 H 0.66554 0.42395 0.02648 0.0
H157 H 0.72867 0.33797 0.05988 0.0
C158 C 0.79337 0.25738 0.01258 0.0
C159 C 0.82622 0.21968 0.98361 0.0
C160 C 0.7562 0.30663 -0.00645 0.0
C161 C 0.82028 0.23108 0.9352 0.0
C162 C 0.78285 0.27948 0.91597 0.0
C163 C 0.71425 0.36712 0.92581 0.0
C164 C 0.68278 0.40601 0.95478 0.0
C165 C 0.75091 0.31772 0.94484 0.0
C166 C 0.68906 0.3949 0.00326 0.0
C167 C 0.72506 0.34554 0.02243 0.0
H168 H 0.56961 0.69443 0.55515 0.0
H169 H 0.71395 0.60135 0.48028 0.0
H170 H 0.81334 0.69788 0.49218 0.0
H171 H 0.86101 0.80732 0.52597 0.0
H172 H 0.72106 0.89869 0.60514 0.0
H173 H 0.61815 0.80423 0.58975 0.0
C174 C 0.62264 0.69562 0.54118 0.0
C175 C 0.63447 0.64107 0.51678 0.0
C176 C 0.68037 0.75074 0.54918 0.0
C177 C 0.70372 0.64276 0.49933 0.0
C178 C 0.76052 0.69789 0.50608 0.0
C179 C 0.80764 0.80661 0.53947 0.0
C180 C 0.79811 0.8597 0.56637 0.0
C181 C 0.74971 0.75191 0.53124 0.0
C182 C 0.72944 0.85806 0.58444 0.0
C183 C 0.67071 0.80425 0.57555 0.0
H184 H 0.81365 0.31199 0.46717 0.0
H185 H 0.5779 0.21651 0.44908 0.0
H186 H 0.61425 0.11654 0.42447 0.0
H187 H 0.71446 0.05394 0.41321 0.0
H188 H 0.94998 0.14883 0.43282 0.0
H189 H 0.91289 0.25121 0.45235 0.0
C190 C 0.77019 0.26933 0.45794 0.0
C191 C 0.69314 0.27182 0.46039 0.0
C192 C 0.79168 0.21181 0.44434 0.0
C193 C 0.63746 0.21629 0.44724 0.0
C194 C 0.6583 0.15889 0.43346 0.0
C195 C 0.75722 0.09745 0.42116 0.0
C196 C 0.83459 0.09465 0.4216 0.0
C197 C 0.7353 0.15582 0.43252 0.0
C198 C 0.89005 0.15055 0.43223 0.0
C199 C 0.86882 0.20884 0.44345 0.0
H200 H 0.23597 0.35817 0.51062 0.0
H201 H 0.40231 0.24999 0.47339 0.0
H202 H 0.31173 0.14916 0.4758 0.0
H203 H 0.18565 0.09133 0.49005 0.0
H204 H 0.02068 0.1992 0.52849 0.0
H205 H 0.11022 0.30081 0.52421 0.0
C206 C 0.25229 0.3126 0.50269 0.0
C207 C 0.32578 0.31166 0.49177 0.0
C208 C 0.20034 0.25481 0.50475 0.0
C209 C 0.34612 0.2521 0.48192 0.0
C210 C 0.29443 0.19439 0.48338 0.0
C211 C 0.16994 0.1373 0.49766 0.0
C212 C 0.09778 0.1387 0.50996 0.0
C213 C 0.22167 0.19513 0.49512 0.0
C214 C 0.0767 0.19777 0.51937 0.0
C215 C 0.12764 0.25559 0.51676 0.0
H216 H 0.20594 0.70372 0.53654 0.0
H217 H 0.27048 0.65696 0.40352 0.0
H218 H 0.20846 0.74155 0.36633 0.0
H219 H 0.13303 0.82635 0.37101 0.0
H220 H 0.07207 0.87685 0.50451 0.0
H221 H 0.13373 0.79199 0.54182 0.0
C222 C 0.20607 0.71196 0.49939 0.0
C223 C 0.24274 0.67408 0.47283 0.0
C224 C 0.17047 0.76093 0.47826 0.0
C225 C 0.24346 0.68589 0.42485 0.0
C226 C 0.2076 0.73399 0.40351 0.0
C227 C 0.13425 0.81975 0.40846 0.0
C228 C 0.09796 0.85827 0.43482 0.0
C229 C 0.17086 0.77169 0.42985 0.0
C230 C 0.09865 0.84755 0.48312 0.0
C231 C 0.13433 0.79925 0.50459 0.0
H232 H 0.08686 0.11617 0.15517 0.0
H233 H 0.18172 0.946 0.13367 0.0
H234 H 0.17286 0.91668 0.21504 0.0
H235 H 0.12109 0.93139 0.28744 0.0
H236 H 0.03288 0.10489 0.31123 0.0
H237 H 0.05501 0.14021 0.23307 0.0
C238 C 0.10711 0.07339 0.16866 0.0
C239 C 0.13412 0.03288 0.1384 0.0
C240 C 0.10145 0.05669 0.21535 0.0
C241 C 0.16091 0.97801 0.15632 0.0
C242 C 0.15515 0.96093 0.20271 0.0
C243 C 0.10884 0.97804 0.27659 0.0
C244 C 0.07385 0.01465 0.30541 0.0
C245 C 0.12312 0.9988 0.23197 0.0
C246 C 0.05758 0.07447 0.28959 0.0
C247 C 0.07081 0.09508 0.24494 0.0
H248 H 0.12599 0.03291 0.83988 0.0
H249 H 0.90238 0.05782 0.86549 0.0
H250 H 0.85534 0.04585 0.78137 0.0
H251 H 0.8754 0.02175 0.70088 0.0
H252 H 0.09905 0.99961 0.67438 0.0
H253 H 0.14874 0.018 0.75828 0.0
C254 C 0.06711 0.03608 0.82698 0.0
C255 C 0.0176 0.04552 0.85897 0.0
C256 C 0.04045 0.02974 0.77839 0.0
C257 C 0.94169 0.05038 0.84168 0.0
C258 C 0.91462 0.04342 0.79355 0.0
C259 C 0.93516 0.02157 0.71355 0.0
C260 C 0.98347 1.00903 0.68174 0.0
C261 C 0.96315 0.03214 0.76168 0.0
C262 C 0.06097 0.00957 0.69829 0.0
C263 C 0.0892 0.0196 0.74625 0.0
H264 H 0.42403 0.51326 0.65557 0.0
H265 H 0.60744 0.41113 0.63995 0.0
H266 H 0.64109 0.41058 0.72481 0.0
H267 H 0.62464 0.44455 0.80239 0.0
H268 H 0.44091 0.54428 0.82116 0.0
H269 H 0.40201 0.54135 0.73564 0.0
C270 C 0.47096 0.49049 0.67082 0.0
C271 C 0.51342 0.46264 0.64143 0.0
C272 C 0.49038 0.49039 0.71995 0.0
C273 C 0.57388 0.43308 0.66166 0.0
C274 C 0.59336 0.4328 0.71022 0.0
C275 C 0.57467 0.46419 0.78816 0.0
C276 C 0.53523 0.49393 0.81827 0.0
C277 C 0.55264 0.46193 0.73954 0.0
C278 C 0.47245 0.52126 0.79876 0.0
C279 C 0.4501 0.51941 0.74993 0.0
H280 H 0.58432 0.50435 0.36746 0.0
H281 H 0.34327 0.50847 0.34837 0.0
H282 H 0.34501 0.52894 0.26448 0.0
H283 H 0.41474 0.53832 0.19598 0.0
H284 H 0.65647 0.53482 0.2177 0.0
H285 H 0.6553 0.52366 0.30163 0.0
C286 C 0.53208 0.50956 0.34488 0.0
C287 C 0.46341 0.5034 0.36344 0.0
C288 C 0.53397 0.52237 0.29744 0.0
C289 C 0.39656 0.51223 0.3344 0.0
C290 C 0.39765 0.52404 0.28663 0.0
C291 C 0.46722 0.53601 0.21929 0.0
C292 C 0.53551 0.53737 0.20057 0.0
C293 C 0.46596 0.52827 0.26765 0.0
C294 C 0.60334 0.53492 0.23115 0.0
C295 C 0.6026 0.52762 0.27913 0.0
loop_
_geom_bond_atom_site_label_1
_geom_bond_atom_site_label_2
_geom_bond_distance
_geom_bond_site_symmetry_2
_ccdc_geom_bond_type
Co0 N5 2.057 . S
Co0 O17 2.021 . S
Co0 O20 2.062 1_455 S
Co0 O24 2.117 1_554 S
Co0 O25 2.020 1_565 S
C1 O21 1.259 1_455 S
C1 O24 1.258 1_545 S
Co2 N11 2.057 . S
Co2 O18 2.117 . S
Co2 O19 2.020 1_545 S
Co2 O21 2.021 1_554 S
Co2 O26 2.062 1_655 S
C3 N5 1.316 . S
C3 N6 1.347 . S
C3 H8 0.931 . S
C4 N5 1.375 1_556 S
C4 C7 1.350 . S
C4 H9 0.930 . S
N5 Co0 2.057 . S
N5 C3 1.316 . S
N5 C4 1.375 1_554 S
N6 C3 1.347 . S
N6 C7 1.373 1_554 S
C7 C4 1.350 . S
C7 N6 1.373 1_556 S
C7 H28 0.931 . S
H8 C3 0.931 . S
H9 C4 0.930 . S
C10 O17 1.258 1_545 S
C10 O18 1.260 1_455 S
N11 Co2 2.057 . S
N11 C12 1.316 1_554 S
N11 C13 1.375 . S
C12 N11 1.316 1_556 S
C12 N14 1.347 1_556 S
C12 H23 0.931 . S
C13 N11 1.375 . S
C13 C15 1.350 . S
C13 H22 0.930 . S
N14 C12 1.347 1_554 S
N14 C15 1.373 . S
C15 C13 1.350 . S
C15 N14 1.373 . S
C15 H29 0.931 . S
C16 O19 1.256 . S
C16 O20 1.255 . S
O17 Co0 2.021 . S
O17 C10 1.258 1_565 S
O18 Co2 2.117 . S
O18 C10 1.260 1_655 S
O19 Co2 2.020 1_565 S
O19 C16 1.256 . S
O20 Co0 2.062 1_655 S
O20 C16 1.255 . S
O21 C1 1.259 1_655 S
O21 Co2 2.021 1_556 S
H22 C13 0.930 . S
H23 C12 0.931 . S
O24 Co0 2.117 1_556 S
O24 C1 1.258 1_565 S
O25 Co0 2.020 1_545 S
O25 C27 1.256 . S
O26 Co2 2.062 1_455 S
O26 C27 1.255 . S
C27 O25 1.256 . S
C27 O26 1.255 . S
H28 C7 0.931 . S
H29 C15 0.931 . S
Co30 N35 2.057 . S
Co30 O47 2.021 . S
Co30 O50 2.062 . S
Co30 O54 2.117 . S
Co30 O55 2.020 . S
C31 O51 1.259 . S
C31 O54 1.258 . S
Co32 N41 2.057 . S
Co32 O48 2.117 . S
Co32 O49 2.020 . S
Co32 O51 2.021 . S
Co32 O56 2.062 . S
C33 N35 1.316 . S
C33 N36 1.347 . S
C33 H38 0.931 . S
C34 N35 1.375 . S
C34 C37 1.350 . S
C34 H39 0.930 . S
N35 Co30 2.057 . S
N35 C33 1.316 . S
N35 C34 1.375 . S
N36 C33 1.347 . S
N36 C37 1.373 . S
C37 C34 1.350 . S
C37 N36 1.373 . S
C37 H58 0.931 . S
H38 C33 0.931 . S
H39 C34 0.930 . S
C40 O47 1.259 . S
C40 O48 1.258 . S
N41 Co32 2.057 . S
N41 C42 1.316 . S
N41 C43 1.375 . S
C42 N41 1.316 . S
C42 N44 1.347 . S
C42 H53 0.931 . S
C43 N41 1.375 . S
C43 C45 1.350 . S
C43 H52 0.930 . S
N44 C42 1.347 . S
N44 C45 1.373 . S
C45 C43 1.350 . S
C45 N44 1.373 . S
C45 H59 0.931 . S
C46 O49 1.256 . S
C46 O50 1.255 . S
O47 Co30 2.021 . S
O47 C40 1.259 . S
O48 Co32 2.117 . S
O48 C40 1.258 . S
O49 Co32 2.020 . S
O49 C46 1.256 . S
O50 Co30 2.062 . S
O50 C46 1.255 . S
O51 C31 1.259 . S
O51 Co32 2.021 . S
H52 C43 0.930 . S
H53 C42 0.931 . S
O54 Co30 2.117 . S
O54 C31 1.258 . S
O55 Co30 2.020 . S
O55 C57 1.256 . S
O56 Co32 2.062 . S
O56 C57 1.255 . S
C57 O55 1.256 . S
C57 O56 1.255 . S
H58 C37 0.931 . S
H59 C45 0.931 . S
H60 C63 0.929 . S
H61 C66 0.929 1_655 S
H62 C68 0.930 . S
C63 H60 0.929 . S
C63 C64 1.398 . S
C63 C65 1.396 . S
C64 C63 1.398 . S
C64 C68 1.407 . S
C65 C63 1.396 . S
C65 C66 1.394 1_565 S
C66 H61 0.929 1_455 S
C66 C65 1.394 1_545 S
C66 C67 1.382 . S
C67 C66 1.382 . S
C67 C68 1.392 1_545 S
C67 N69 1.420 1_455 S
C68 H62 0.930 . S
C68 C64 1.407 . S
C68 C67 1.392 1_565 S
N69 C67 1.420 1_655 S
N69 C70 1.244 . S
C70 N69 1.244 . S
H71 C74 0.929 . S
H72 C77 0.929 . S
H73 C79 0.930 . S
C74 H71 0.929 . S
C74 C75 1.398 . S
C74 C76 1.396 . S
C75 C74 1.398 . S
C75 C79 1.407 . S
C76 C74 1.396 . S
C76 C77 1.394 1_665 S
C77 H72 0.929 . S
C77 C76 1.394 1_445 S
C77 C78 1.382 . S
C78 C77 1.382 . S
C78 C79 1.392 1_445 S
C78 N80 1.420 . S
C79 H73 0.930 . S
C79 C75 1.407 . S
C79 C78 1.392 1_665 S
N80 C78 1.420 . S
N80 C81 1.244 . S
C81 N80 1.244 . S
H82 C85 0.929 . S
H83 C88 0.929 . S
H84 C90 0.930 1_554 S
C85 H82 0.929 . S
C85 C86 1.398 . S
C85 C87 1.396 . S
C86 C85 1.398 . S
C86 C90 1.407 . S
C87 C85 1.396 . S
C87 C88 1.394 . S
C88 H83 0.929 . S
C88 C87 1.394 . S
C88 C89 1.382 . S
C89 C88 1.382 . S
C89 C90 1.392 . S
C89 N91 1.420 . S
C90 H84 0.930 1_556 S
C90 C86 1.407 . S
C90 C89 1.392 . S
N91 C89 1.420 . S
N91 C92 1.244 . S
C92 N91 1.244 . S
H93 C96 0.929 . S
H94 C99 0.929 . S
H95 C101 0.930 1_556 S
C96 H93 0.929 . S
C96 C97 1.398 . S
C96 C98 1.396 . S
C97 C96 1.398 . S
C97 C101 1.407 . S
C98 C96 1.396 . S
C98 C99 1.394 . S
C99 H94 0.929 . S
C99 C98 1.394 . S
C99 C100 1.382 . S
C100 C99 1.382 . S
C100 C101 1.392 . S
C100 N102 1.420 . S
C101 H95 0.930 1_554 S
C101 C97 1.407 . S
C101 C100 1.392 . S
N102 C100 1.420 . S
N102 C103 1.244 . S
C103 N102 1.244 . S
H104 C110 0.930 1_556 S
H105 C113 0.930 . S
H106 C114 0.930 . S
H107 C115 0.930 . S
H108 C118 0.930 1_556 S
H109 C119 0.930 . S
C110 H104 0.930 1_554 S
C110 C111 1.355 . S
C110 C112 1.415 . S
C111 C110 1.355 . S
C111 C113 1.419 . S
C112 C110 1.415 . S
C112 C117 1.425 . S
C112 C119 1.409 1_554 S
C113 H105 0.930 . S
C113 C111 1.419 . S
C113 C114 1.362 . S
C114 H106 0.930 . S
C114 C113 1.362 . S
C114 C117 1.409 . S
C115 H107 0.930 . S
C115 C116 1.355 . S
C115 C117 1.415 . S
C116 C115 1.355 . S
C116 C118 1.419 . S
C117 C112 1.425 . S
C117 C114 1.409 . S
C117 C115 1.415 . S
C118 H108 0.930 1_554 S
C118 C116 1.419 . S
C118 C119 1.362 1_554 S
C119 H109 0.930 . S
C119 C112 1.409 1_556 S
C119 C118 1.362 1_556 S
H120 C126 0.930 . S
H121 C129 0.930 . S
H122 C130 0.930 . S
H123 C131 0.930 . S
H124 C134 0.930 . S
H125 C135 0.930 . S
C126 H120 0.930 . S
C126 C127 1.355 . S
C126 C128 1.415 . S
C127 C126 1.355 . S
C127 C129 1.419 1_554 S
C128 C126 1.415 . S
C128 C133 1.417 1_554 S
C128 C135 1.409 . S
C129 H121 0.930 . S
C129 C127 1.419 1_556 S
C129 C130 1.362 . S
C130 H122 0.930 . S
C130 C129 1.362 . S
C130 C133 1.412 . S
C131 H123 0.930 . S
C131 C132 1.355 1_556 S
C131 C133 1.421 . S
C132 C131 1.355 1_554 S
C132 C134 1.419 . S
C133 C128 1.417 1_556 S
C133 C130 1.412 . S
C133 C131 1.421 . S
C134 H124 0.930 . S
C134 C132 1.419 . S
C134 C135 1.362 . S
C135 H125 0.930 . S
C135 C128 1.409 . S
C135 C134 1.362 . S
H136 C142 0.930 . S
H137 C145 0.930 . S
H138 C146 0.930 . S
H139 C147 0.930 . S
H140 C150 0.930 . S
H141 C151 0.930 . S
C142 H136 0.930 . S
C142 C143 1.355 . S
C142 C144 1.415 . S
C143 C142 1.355 . S
C143 C145 1.419 1_554 S
C144 C142 1.415 . S
C144 C149 1.425 1_554 S
C144 C151 1.409 . S
C145 H137 0.930 . S
C145 C143 1.419 1_556 S
C145 C146 1.362 . S
C146 H138 0.930 . S
C146 C145 1.362 . S
C146 C149 1.409 . S
C147 H139 0.930 . S
C147 C148 1.355 1_556 S
C147 C149 1.415 . S
C148 C147 1.355 1_554 S
C148 C150 1.419 . S
C149 C144 1.425 1_556 S
C149 C146 1.409 . S
C149 C147 1.415 . S
C150 H140 0.930 . S
C150 C148 1.419 . S
C150 C151 1.362 . S
C151 H141 0.930 . S
C151 C144 1.409 . S
C151 C150 1.362 . S
H152 C158 0.930 . S
H153 C161 0.930 . S
H154 C162 0.930 . S
H155 C163 0.930 . S
H156 C166 0.930 . S
H157 C167 0.930 . S
C158 H152 0.930 . S
C158 C159 1.355 . S
C158 C160 1.415 . S
C159 C158 1.355 . S
C159 C161 1.419 . S
C160 C158 1.415 . S
C160 C165 1.425 . S
C160 C167 1.409 . S
C161 H153 0.930 . S
C161 C159 1.419 . S
C161 C162 1.362 . S
C162 H154 0.930 . S
C162 C161 1.362 . S
C162 C165 1.409 . S
C163 H155 0.930 . S
C163 C164 1.355 . S
C163 C165 1.415 . S
C164 C163 1.355 . S
C164 C166 1.419 . S
C165 C160 1.425 . S
C165 C162 1.409 . S
C165 C163 1.415 . S
C166 H156 0.930 . S
C166 C164 1.419 . S
C166 C167 1.362 . S
C167 H157 0.930 . S
C167 C160 1.409 . S
C167 C166 1.362 . S
H168 C174 0.930 . S
H169 C177 0.930 . S
H170 C178 0.930 . S
H171 C179 0.930 . S
H172 C182 0.930 . S
H173 C183 0.930 . S
C174 H168 0.930 . S
C174 C175 1.355 . S
C174 C176 1.415 . S
C175 C174 1.355 . S
C175 C177 1.419 . S
C176 C174 1.415 . S
C176 C181 1.425 . S
C176 C183 1.409 . S
C177 H169 0.930 . S
C177 C175 1.419 . S
C177 C178 1.362 . S
C178 H170 0.930 . S
C178 C177 1.362 . S
C178 C181 1.409 . S
C179 H171 0.930 . S
C179 C180 1.355 . S
C179 C181 1.415 . S
C180 C179 1.355 . S
C180 C182 1.419 . S
C181 C176 1.425 . S
C181 C178 1.409 . S
C181 C179 1.415 . S
C182 H172 0.930 . S
C182 C180 1.419 . S
C182 C183 1.362 . S
C183 H173 0.930 . S
C183 C176 1.409 . S
C183 C182 1.362 . S
H184 C190 0.930 . S
H185 C193 0.930 . S
H186 C194 0.930 . S
H187 C195 0.930 . S
H188 C198 0.930 1_455 S
H189 C199 0.930 . S
C190 H184 0.930 . S
C190 C191 1.355 . S
C190 C192 1.415 . S
C191 C190 1.355 . S
C191 C193 1.419 . S
C192 C190 1.415 . S
C192 C197 1.425 . S
C192 C199 1.409 . S
C193 H185 0.930 . S
C193 C191 1.419 . S
C193 C194 1.362 . S
C194 H186 0.930 . S
C194 C193 1.362 . S
C194 C197 1.409 . S
C195 H187 0.930 . S
C195 C196 1.355 . S
C195 C197 1.415 . S
C196 C195 1.355 . S
C196 C198 1.419 . S
C197 C192 1.425 . S
C197 C194 1.409 . S
C197 C195 1.415 . S
C198 H188 0.930 1_655 S
C198 C196 1.419 . S
C198 C199 1.362 . S
C199 H189 0.930 . S
C199 C192 1.409 . S
C199 C198 1.362 . S
H200 C206 0.930 . S
H201 C209 0.930 . S
H202 C210 0.930 . S
H203 C211 0.930 . S
H204 C214 0.930 . S
H205 C215 0.930 . S
C206 H200 0.930 . S
C206 C207 1.355 . S
C206 C208 1.415 . S
C207 C206 1.355 . S
C207 C209 1.419 . S
C208 C206 1.415 . S
C208 C213 1.425 . S
C208 C215 1.409 . S
C209 H201 0.930 . S
C209 C207 1.419 . S
C209 C210 1.362 . S
C210 H202 0.930 . S
C210 C209 1.362 . S
C210 C213 1.409 . S
C211 H203 0.930 . S
C211 C212 1.355 . S
C211 C213 1.415 . S
C212 C211 1.355 . S
C212 C214 1.419 . S
C213 C208 1.425 . S
C213 C210 1.409 . S
C213 C211 1.415 . S
C214 H204 0.930 . S
C214 C212 1.419 . S
C214 C215 1.362 . S
C215 H205 0.930 . S
C215 C208 1.409 . S
C215 C214 1.362 . S
H216 C222 0.930 . S
H217 C225 0.930 . S
H218 C226 0.930 . S
H219 C227 0.930 . S
H220 C230 0.930 . S
H221 C231 0.930 . S
C222 H216 0.930 . S
C222 C223 1.355 . S
C222 C224 1.415 . S
C223 C222 1.355 . S
C223 C225 1.419 . S
C224 C222 1.415 . S
C224 C229 1.425 . S
C224 C231 1.409 . S
C225 H217 0.930 . S
C225 C223 1.419 . S
C225 C226 1.362 . S
C226 H218 0.930 . S
C226 C225 1.362 . S
C226 C229 1.409 . S
C227 H219 0.930 . S
C227 C228 1.355 . S
C227 C229 1.415 . S
C228 C227 1.355 . S
C228 C230 1.419 . S
C229 C224 1.425 . S
C229 C226 1.409 . S
C229 C227 1.415 . S
C230 H220 0.930 . S
C230 C228 1.419 . S
C230 C231 1.362 . S
C231 H221 0.930 . S
C231 C224 1.409 . S
C231 C230 1.362 . S
H232 C238 0.930 . S
H233 C241 0.930 . S
H234 C242 0.930 . S
H235 C243 0.930 . S
H236 C246 0.930 . S
H237 C247 0.930 . S
C238 H232 0.930 . S
C238 C239 1.355 1_545 S
C238 C240 1.415 . S
C239 C238 1.355 1_565 S
C239 C241 1.419 . S
C240 C238 1.415 . S
C240 C245 1.425 1_545 S
C240 C247 1.409 . S
C241 H233 0.930 . S
C241 C239 1.419 . S
C241 C242 1.362 . S
C242 H234 0.930 . S
C242 C241 1.362 . S
C242 C245 1.409 . S
C243 H235 0.930 . S
C243 C244 1.352 1_565 S
C243 C245 1.415 . S
C244 C243 1.352 1_545 S
C244 C246 1.423 . S
C245 C240 1.425 1_565 S
C245 C242 1.409 . S
C245 C243 1.415 . S
C246 H236 0.930 . S
C246 C244 1.423 . S
C246 C247 1.362 . S
C247 H237 0.930 . S
C247 C240 1.409 . S
C247 C246 1.362 . S
H248 C254 0.930 . S
H249 C257 0.930 . S
H250 C258 0.930 . S
H251 C259 0.930 . S
H252 C262 0.925 1_455 S
H253 C263 0.930 . S
C254 H248 0.930 . S
C254 C255 1.355 1_565 S
C254 C256 1.415 . S
C255 C254 1.355 1_545 S
C255 C257 1.419 1_455 S
C256 C254 1.415 . S
C256 C261 1.425 1_465 S
C256 C263 1.409 . S
C257 H249 0.930 . S
C257 C255 1.419 1_655 S
C257 C258 1.362 . S
C258 H250 0.930 . S
C258 C257 1.362 . S
C258 C261 1.409 . S
C259 H251 0.930 . S
C259 C260 1.355 1_545 S
C259 C261 1.415 . S
C260 C259 1.355 1_565 S
C260 C262 1.423 . S
C261 C256 1.425 1_645 S
C261 C258 1.409 . S
C261 C259 1.415 . S
C262 H252 0.925 1_655 S
C262 C260 1.423 . S
C262 C263 1.363 1_655 S
C263 H253 0.930 . S
C263 C256 1.409 . S
C263 C262 1.363 1_455 S
H264 C270 0.930 . S
H265 C273 0.930 . S
H266 C274 0.930 . S
H267 C275 0.930 . S
H268 C278 0.930 . S
H269 C279 0.930 . S
C270 H264 0.930 . S
C270 C271 1.355 . S
C270 C272 1.415 . S
C271 C270 1.355 . S
C271 C273 1.419 . S
C272 C270 1.415 . S
C272 C277 1.425 . S
C272 C279 1.409 . S
C273 H265 0.930 . S
C273 C271 1.419 . S
C273 C274 1.362 . S
C274 H266 0.930 . S
C274 C273 1.362 . S
C274 C277 1.409 . S
C275 H267 0.930 . S
C275 C276 1.355 . S
C275 C277 1.415 . S
C276 C275 1.355 . S
C276 C278 1.419 . S
C277 C272 1.425 . S
C277 C274 1.409 . S
C277 C275 1.415 . S
C278 H268 0.930 . S
C278 C276 1.419 . S
C278 C279 1.362 . S
C279 H269 0.930 . S
C279 C272 1.409 . S
C279 C278 1.362 . S
H280 C286 0.930 . S
H281 C289 0.930 . S
H282 C290 0.930 . S
H283 C291 0.930 . S
H284 C294 0.930 . S
H285 C295 0.930 . S
C286 H280 0.930 . S
C286 C287 1.355 . S
C286 C288 1.415 . S
C287 C286 1.355 . S
C287 C289 1.419 . S
C288 C286 1.415 . S
C288 C293 1.425 . S
C288 C295 1.409 . S
C289 H281 0.930 . S
C289 C287 1.419 . S
C289 C290 1.362 . S
C290 H282 0.930 . S
C290 C289 1.362 . S
C290 C293 1.409 . S
C291 H283 0.930 . S
C291 C292 1.355 . S
C291 C293 1.415 . S
C292 C291 1.355 . S
C292 C294 1.419 . S
C293 C288 1.425 . S
C293 C290 1.409 . S
C293 C291 1.415 . S
C294 H284 0.930 . S
C294 C292 1.419 . S
C294 C295 1.362 . S
C295 H285 0.930 . S
C295 C288 1.409 . S
C295 C294 1.362 . S
C116 C97 1.475 . S
C111 C27 1.481 . S
C127 N6 1.357 . S
C132 C92 1.415 1_554 S
C143 C16 1.455 . S
C148 C103 1.381 . S
C159 N14 1.457 1_556 S
C164 C86 1.443 . S
C175 C57 1.488 . S
C180 C75 1.479 . S
C191 N36 1.371 . S
C196 C70 1.405 . S
C212 C81 1.419 . S
C207 C46 1.444 . S
C228 C64 1.441 . S
C223 N44 1.426 . S
C239 C10 1.462 1_565 S
C244 C65 1.475 1_545 S
C255 C1 1.538 . S
C260 C76 1.523 . S
C276 C87 1.463 . S
C271 C40 1.468 . S
C287 C31 1.543 . S
C292 C98 1.526 . S
