# Generated by pormake.
# Topology pto, (3,4)-cn, num edge types: 1
# Building blocks:
#     Node 0, Type 0, BuildingBlock: WUSLED_clean_sbu_0, # of connection points: 3
#     Node 1, Type 0, BuildingBlock: WUSLED_clean_sbu_0, # of connection points: 3
#     Node 2, Type 0, BuildingBlock: WUSLED_clean_sbu_0, # of connection points: 3
#     Node 3, Type 0, BuildingBlock: WUSLED_clean_sbu_0, # of connection points: 3
#     Node 4, Type 0, BuildingBlock: WUSLED_clean_sbu_0, # of connection points: 3
#     Node 5, Type 0, BuildingBlock: WUSLED_clean_sbu_0, # of connection points: 3
#     Node 6, Type 0, BuildingBlock: WUSLED_clean_sbu_0, # of connection points: 3
#     Node 7, Type 0, BuildingBlock: WUSLED_clean_sbu_0, # of connection points: 3
#     Node 8, Type 1, BuildingBlock: AZAVOO_clean_linker_0, # of connection points: 4
#     Node 9, Type 1, BuildingBlock: AZAVOO_clean_linker_0, # of connection points: 4
#     Node 10, Type 1, BuildingBlock: AZAVOO_clean_linker_0, # of connection points: 4
#     Node 11, Type 1, BuildingBlock: AZAVOO_clean_linker_0, # of connection points: 4
#     Node 12, Type 1, BuildingBlock: AZAVOO_clean_linker_0, # of connection points: 4
#     Node 13, Type 1, BuildingBlock: AZAVOO_clean_linker_0, # of connection points: 4
#     Edge 14, Type (0, 1), BuildingBlock: UVAHIK_clean_linker_0, # of connection points: 2
#     Edge 15, Type (0, 1), BuildingBlock: UVAHIK_clean_linker_0, # of connection points: 2
#     Edge 16, Type (0, 1), BuildingBlock: UVAHIK_clean_linker_0, # of connection points: 2
#     Edge 17, Type (0, 1), BuildingBlock: UVAHIK_clean_linker_0, # of connection points: 2
#     Edge 18, Type (0, 1), BuildingBlock: UVAHIK_clean_linker_0, # of connection points: 2
#     Edge 19, Type (0, 1), BuildingBlock: UVAHIK_clean_linker_0, # of connection points: 2
#     Edge 20, Type (0, 1), BuildingBlock: UVAHIK_clean_linker_0, # of connection points: 2
#     Edge 21, Type (0, 1), BuildingBlock: UVAHIK_clean_linker_0, # of connection points: 2
#     Edge 22, Type (0, 1), BuildingBlock: UVAHIK_clean_linker_0, # of connection points: 2
#     Edge 23, Type (0, 1), BuildingBlock: UVAHIK_clean_linker_0, # of connection points: 2
#     Edge 24, Type (0, 1), BuildingBlock: UVAHIK_clean_linker_0, # of connection points: 2
#     Edge 25, Type (0, 1), BuildingBlock: UVAHIK_clean_linker_0, # of connection points: 2
#     Edge 26, Type (0, 1), BuildingBlock: UVAHIK_clean_linker_0, # of connection points: 2
#     Edge 27, Type (0, 1), BuildingBlock: UVAHIK_clean_linker_0, # of connection points: 2
#     Edge 28, Type (0, 1), BuildingBlock: UVAHIK_clean_linker_0, # of connection points: 2
#     Edge 29, Type (0, 1), BuildingBlock: UVAHIK_clean_linker_0, # of connection points: 2
#     Edge 30, Type (0, 1), BuildingBlock: UVAHIK_clean_linker_0, # of connection points: 2
#     Edge 31, Type (0, 1), BuildingBlock: UVAHIK_clean_linker_0, # of connection points: 2
#     Edge 32, Type (0, 1), BuildingBlock: UVAHIK_clean_linker_0, # of connection points: 2
#     Edge 33, Type (0, 1), BuildingBlock: UVAHIK_clean_linker_0, # of connection points: 2
#     Edge 34, Type (0, 1), BuildingBlock: UVAHIK_clean_linker_0, # of connection points: 2
#     Edge 35, Type (0, 1), BuildingBlock: UVAHIK_clean_linker_0, # of connection points: 2
#     Edge 36, Type (0, 1), BuildingBlock: UVAHIK_clean_linker_0, # of connection points: 2
#     Edge 37, Type (0, 1), BuildingBlock: UVAHIK_clean_linker_0, # of connection points: 2
# Relax obj value: 0.051
# Max RMSD: 0.241
# Mean RMSD: 0.095
data_MOF--net-pto--node1-WUSLED_clean_sbu_0--node2-AZAVOO_clean_linker_0--edge1-UVAHIK_clean_linker_0
_symmetry_space_group_name_H-M    P1
_symmetry_Int_Tables_number       1
_symmetry_cell_setting            triclinic
loop_
_symmetry_equiv_pos_as_xyz
'x, y, z'
_cell_length_a     73.88022
_cell_length_b     73.632089
_cell_length_c     73.359429
_cell_angle_alpha  89.717704
_cell_angle_beta   90.789953
_cell_angle_gamma 90.682886
loop_
_atom_site_label
_atom_site_type_symbol
_atom_site_fract_x
_atom_site_fract_y
_atom_site_fract_z
_atom_type_partial_charge
C0 C 0.24829 0.24563 0.28585 0.0
C1 C 0.26312 0.23391 0.28578 0.0
C2 C 0.25081 0.21718 0.31166 0.0
C3 C 0.26438 0.21981 0.29858 0.0
C4 C 0.23594 0.22897 0.31156 0.0
C5 C 0.23472 0.24307 0.29877 0.0
U6 U 0.26525 0.27005 0.24356 0.0
O7 O 0.25027 0.28233 0.22056 0.0
O8 O 0.26837 0.29919 0.23757 0.0
C9 C 0.25609 0.29882 0.22443 0.0
C10 C 0.24683 0.26049 0.27248 0.0
C11 C 0.24202 0.3127 0.22546 0.0
C12 C 0.2182 0.32785 0.24187 0.0
C13 C 0.23143 0.31443 0.24108 0.0
C14 C 0.2259 0.33777 0.21137 0.0
C15 C 0.21528 0.33968 0.22701 0.0
C16 C 0.23915 0.32441 0.21063 0.0
C17 C 0.30645 0.25087 0.21943 0.0
C18 C 0.3207 0.26563 0.19353 0.0
C19 C 0.3316 0.23657 0.20445 0.0
C20 C 0.31848 0.23643 0.21798 0.0
C21 C 0.33296 0.25121 0.19211 0.0
C22 C 0.30755 0.26546 0.2071 0.0
C23 C 0.29296 0.25045 0.23395 0.0
O24 O 0.26015 0.27248 0.27291 0.0
O25 O 0.24223 0.2555 0.25586 0.0
O26 O 0.27623 0.24688 0.22866 0.0
O27 O 0.2942 0.26373 0.24583 0.0
H28 H 0.27373 0.23571 0.27586 0.0
H29 H 0.27611 0.21114 0.29839 0.0
H30 H 0.22511 0.22718 0.32123 0.0
H31 H 0.22313 0.25195 0.29894 0.0
H32 H 0.21011 0.32882 0.25402 0.0
H33 H 0.23341 0.30541 0.25263 0.0
H34 H 0.22416 0.34679 0.19978 0.0
H35 H 0.24722 0.32326 0.19848 0.0
H36 H 0.32147 0.27717 0.18435 0.0
H37 H 0.34058 0.2251 0.20356 0.0
H38 H 0.31775 0.22502 0.22734 0.0
H39 H 0.29832 0.27673 0.20806 0.0
C40 C 0.23849 0.80393 0.72955 0.0
C41 C 0.25454 0.81431 0.72913 0.0
C42 C 0.24281 0.83179 0.70329 0.0
C43 C 0.2567 0.8281 0.71607 0.0
C44 C 0.22672 0.82139 0.70393 0.0
C45 C 0.22461 0.8076 0.71693 0.0
U46 U 0.25204 0.77804 0.77305 0.0
O47 O 0.2348 0.76572 0.79413 0.0
O48 O 0.25281 0.74862 0.77822 0.0
C49 C 0.23994 0.74914 0.79038 0.0
C50 C 0.23602 0.78911 0.74286 0.0
C51 C 0.22531 0.73557 0.78821 0.0
C52 C 0.2015 0.72089 0.7702 0.0
C53 C 0.21516 0.73416 0.77196 0.0
C54 C 0.20792 0.7105 0.80098 0.0
C55 C 0.19772 0.70889 0.78471 0.0
C56 C 0.22156 0.72371 0.80269 0.0
C57 C 0.29225 0.79331 0.80241 0.0
C58 C 0.3036 0.7749 0.82759 0.0
C59 C 0.31563 0.80528 0.82279 0.0
C60 C 0.30407 0.8074 0.80768 0.0
C61 C 0.3156 0.78897 0.83289 0.0
C62 C 0.29199 0.77707 0.81252 0.0
C63 C 0.2803 0.79568 0.78639 0.0
O64 O 0.24873 0.77677 0.74325 0.0
O65 O 0.2309 0.79405 0.75917 0.0
O66 O 0.26353 0.80008 0.78996 0.0
O67 O 0.28143 0.78309 0.77383 0.0
H68 H 0.26539 0.81171 0.73885 0.0
H69 H 0.26918 0.83597 0.71609 0.0
H70 H 0.21585 0.82368 0.69416 0.0
H71 H 0.21214 0.7997 0.71703 0.0
H72 H 0.19379 0.72013 0.75756 0.0
H73 H 0.21785 0.74328 0.76065 0.0
H74 H 0.20558 0.70134 0.81232 0.0
H75 H 0.2293 0.72458 0.81532 0.0
H76 H 0.30308 0.76227 0.8352 0.0
H77 H 0.32484 0.8163 0.82635 0.0
H78 H 0.30444 0.82002 0.80003 0.0
H79 H 0.28284 0.76608 0.80871 0.0
C80 C 0.72339 0.77375 0.23949 0.0
C81 C 0.72143 0.75832 0.22844 0.0
C82 C 0.69585 0.7721 0.21245 0.0
C83 C 0.70773 0.75747 0.21508 0.0
C84 C 0.698 0.78756 0.22352 0.0
C85 C 0.71162 0.78834 0.23691 0.0
U86 U 0.76801 0.7584 0.26154 0.0
O87 O 0.79003 0.77452 0.27406 0.0
O88 O 0.77501 0.75468 0.29062 0.0
C89 C 0.78705 0.76796 0.29047 0.0
C90 C 0.7375 0.77488 0.2538 0.0
C91 C 0.78573 0.78136 0.30527 0.0
C92 C 0.78045 0.81204 0.31595 0.0
C93 C 0.78073 0.7994 0.30178 0.0
C94 C 0.78964 0.78866 0.33737 0.0
C95 C 0.78502 0.80687 0.33393 0.0
C96 C 0.79004 0.77608 0.32318 0.0
C97 C 0.79597 0.72108 0.2405 0.0
C98 C 0.82237 0.70858 0.25597 0.0
C99 C 0.81623 0.70129 0.2243 0.0
C100 C 0.80074 0.71201 0.22457 0.0
C101 C 0.82724 0.6994 0.24001 0.0
C102 C 0.80689 0.71936 0.2562 0.0
C103 C 0.77984 0.73259 0.24041 0.0
O104 O 0.73861 0.76079 0.26482 0.0
O105 O 0.75337 0.78101 0.24851 0.0
O106 O 0.78297 0.74993 0.23734 0.0
O107 O 0.76842 0.72962 0.25372 0.0
H108 H 0.73047 0.74694 0.23017 0.0
H109 H 0.70657 0.74547 0.20665 0.0
H110 H 0.68896 0.79896 0.22201 0.0
H111 H 0.71293 0.80035 0.24533 0.0
H112 H 0.77704 0.82596 0.31272 0.0
H113 H 0.77727 0.80383 0.28808 0.0
H114 H 0.79291 0.78408 0.35106 0.0
H115 H 0.79386 0.76221 0.32617 0.0
H116 H 0.83039 0.70729 0.26837 0.0
H117 H 0.81971 0.6947 0.21168 0.0
H118 H 0.79254 0.71332 0.21228 0.0
H119 H 0.80345 0.72636 0.26862 0.0
C120 C 0.80977 0.15564 0.77835 0.0
C121 C 0.82566 0.15755 0.76823 0.0
C122 C 0.81648 0.13189 0.74923 0.0
C123 C 0.82901 0.14575 0.75381 0.0
C124 C 0.80064 0.13002 0.75955 0.0
C125 C 0.79734 0.14179 0.77398 0.0
U126 U 0.81964 0.19901 0.80505 0.0
O127 O 0.80107 0.21968 0.81496 0.0
O128 O 0.81758 0.20418 0.83453 0.0
C129 C 0.80415 0.21555 0.83217 0.0
C130 C 0.80571 0.16828 0.7931 0.0
C131 C 0.78791 0.21172 0.843 0.0
C132 C 0.75726 0.19969 0.8454 0.0
C133 C 0.77291 0.20256 0.83527 0.0
C134 C 0.77163 0.2144 0.87139 0.0
C135 C 0.7564 0.20571 0.86352 0.0
C136 C 0.78724 0.21745 0.86117 0.0
C137 C 0.85884 0.23012 0.79119 0.0
C138 C 0.86611 0.25818 0.80714 0.0
C139 C 0.88058 0.25148 0.77853 0.0
C140 C 0.87102 0.23503 0.77753 0.0
C141 C 0.87812 0.26333 0.79326 0.0
C142 C 0.85648 0.24172 0.80607 0.0
C143 C 0.84811 0.21332 0.78922 0.0
O144 O 0.81778 0.1692 0.80641 0.0
O145 O 0.79995 0.18428 0.78773 0.0
O146 O 0.83147 0.21559 0.78317 0.0
O147 O 0.84924 0.20166 0.80282 0.0
H148 H 0.8354 0.16823 0.77143 0.0
H149 H 0.84143 0.14745 0.74628 0.0
H150 H 0.79056 0.11972 0.75623 0.0
H151 H 0.78495 0.14022 0.78159 0.0
H152 H 0.7458 0.19275 0.83907 0.0
H153 H 0.77322 0.19781 0.82132 0.0
H154 H 0.7713 0.21928 0.88529 0.0
H155 H 0.79871 0.22447 0.86737 0.0
H156 H 0.86381 0.26709 0.81856 0.0
H157 H 0.88991 0.25494 0.76776 0.0
H158 H 0.87298 0.22623 0.76594 0.0
H159 H 0.84699 0.23817 0.81668 0.0
C160 C 0.81227 0.71449 0.78038 0.0
C161 C 0.82754 0.71908 0.7701 0.0
C162 C 0.84219 0.69103 0.77965 0.0
C163 C 0.84239 0.70748 0.76977 0.0
C164 C 0.82671 0.68646 0.78978 0.0
C165 C 0.81191 0.69811 0.79014 0.0
U166 U 0.78641 0.75477 0.76142 0.0
O167 O 0.75714 0.75868 0.7572 0.0
O168 O 0.77262 0.77695 0.77529 0.0
C169 C 0.75655 0.77193 0.76912 0.0
C170 C 0.79665 0.72666 0.78093 0.0
C171 C 0.74242 0.77017 0.78295 0.0
C172 C 0.73154 0.7581 0.81173 0.0
C173 C 0.74494 0.7592 0.79845 0.0
C174 C 0.7129 0.77869 0.79398 0.0
C175 C 0.71538 0.76789 0.80967 0.0
C176 C 0.72632 0.77983 0.78076 0.0
C177 C 0.80573 0.78035 0.72045 0.0
C178 C 0.78924 0.80359 0.70373 0.0
C179 C 0.82095 0.79867 0.6976 0.0
C180 C 0.82134 0.7849 0.71076 0.0
C181 C 0.80487 0.80815 0.69385 0.0
C182 C 0.78967 0.78983 0.71695 0.0
C183 C 0.80647 0.76576 0.73416 0.0
O184 O 0.80042 0.74354 0.7855 0.0
O185 O 0.78537 0.72537 0.76698 0.0
O186 O 0.79391 0.75304 0.7326 0.0
O187 O 0.80923 0.77109 0.75105 0.0
H188 H 0.82802 0.73168 0.76242 0.0
H189 H 0.85413 0.71155 0.76201 0.0
H190 H 0.82595 0.67379 0.79729 0.0
H191 H 0.80015 0.69431 0.79804 0.0
H192 H 0.73378 0.7495 0.82355 0.0
H193 H 0.75729 0.75157 0.8003 0.0
H194 H 0.70072 0.78657 0.79208 0.0
H195 H 0.72418 0.78839 0.76888 0.0
H196 H 0.77659 0.81047 0.70108 0.0
H197 H 0.83331 0.80203 0.6905 0.0
H198 H 0.83387 0.77779 0.71339 0.0
H199 H 0.77748 0.78651 0.72437 0.0
C200 C 0.69478 0.26302 0.2634 0.0
C201 C 0.69063 0.27887 0.25358 0.0
C202 C 0.66656 0.2627 0.23711 0.0
C203 C 0.67659 0.27873 0.24059 0.0
C204 C 0.67077 0.24691 0.24712 0.0
C205 C 0.68473 0.2471 0.26016 0.0
U206 U 0.7391 0.28258 0.28244 0.0
O207 O 0.74895 0.28464 0.31085 0.0
O208 O 0.76396 0.2687 0.29101 0.0
C209 C 0.76214 0.27316 0.30821 0.0
C210 C 0.70996 0.26266 0.27652 0.0
C211 C 0.76315 0.25797 0.32122 0.0
C212 C 0.75485 0.22723 0.3302 0.0
C213 C 0.7532 0.2419 0.31816 0.0
C214 C 0.77598 0.24477 0.34881 0.0
C215 C 0.76636 0.22847 0.34559 0.0
C216 C 0.77441 0.25939 0.33667 0.0
C217 C 0.76101 0.32431 0.26147 0.0
C218 C 0.79202 0.33271 0.26928 0.0
C219 C 0.77406 0.35235 0.24976 0.0
C220 C 0.7594 0.34025 0.25113 0.0
C221 C 0.79062 0.34865 0.2587 0.0
C222 C 0.77733 0.32068 0.27069 0.0
C223 C 0.74584 0.31127 0.26222 0.0
O224 O 0.72575 0.25902 0.26947 0.0
O225 O 0.71066 0.27601 0.28836 0.0
O226 O 0.73607 0.31185 0.27704 0.0
O227 O 0.74982 0.29465 0.25733 0.0
H228 H 0.69833 0.29128 0.25586 0.0
H229 H 0.67359 0.29117 0.23329 0.0
H230 H 0.66357 0.23425 0.2446 0.0
H231 H 0.68788 0.23471 0.26752 0.0
H232 H 0.7471 0.21493 0.3275 0.0
H233 H 0.74431 0.24063 0.30635 0.0
H234 H 0.78505 0.24606 0.36047 0.0
H235 H 0.78216 0.27172 0.33924 0.0
H236 H 0.8046 0.3293 0.27615 0.0
H237 H 0.77242 0.36462 0.24174 0.0
H238 H 0.74685 0.34327 0.24399 0.0
H239 H 0.7788 0.3084 0.27875 0.0
C240 C 0.25933 0.232 0.7164 0.0
C241 C 0.26559 0.21534 0.72326 0.0
C242 C 0.26107 0.20141 0.69346 0.0
C243 C 0.26635 0.20016 0.71192 0.0
C244 C 0.25498 0.21818 0.68662 0.0
C245 C 0.25408 0.23332 0.69801 0.0
U246 U 0.27612 0.25854 0.75765 0.0
O247 O 0.2811 0.28787 0.76139 0.0
O248 O 0.26149 0.27342 0.7786 0.0
C249 C 0.26864 0.28918 0.77392 0.0
C250 C 0.25847 0.24809 0.72819 0.0
C251 C 0.25597 0.30435 0.77176 0.0
C252 C 0.22634 0.31624 0.7637 0.0
C253 C 0.23844 0.30176 0.76452 0.0
C254 C 0.24933 0.33614 0.77682 0.0
C255 C 0.23157 0.33358 0.77004 0.0
C256 C 0.26136 0.32166 0.7777 0.0
C257 C 0.31414 0.2389 0.78705 0.0
C258 C 0.32188 0.25014 0.81729 0.0
C259 C 0.34184 0.22928 0.80221 0.0
C260 C 0.33007 0.22878 0.78713 0.0
C261 C 0.33782 0.23987 0.81751 0.0
C262 C 0.31017 0.24972 0.80214 0.0
C263 C 0.30178 0.23794 0.7712 0.0
O264 O 0.25254 0.2451 0.74477 0.0
O265 O 0.27272 0.25893 0.72777 0.0
O266 O 0.30464 0.25015 0.75841 0.0
O267 O 0.28456 0.23564 0.77496 0.0
H268 H 0.26992 0.21408 0.73737 0.0
H269 H 0.27133 0.1875 0.71753 0.0
H270 H 0.25068 0.21954 0.67251 0.0
H271 H 0.24927 0.24608 0.69247 0.0
H272 H 0.21274 0.31373 0.75854 0.0
H273 H 0.23401 0.28849 0.7598 0.0
H274 H 0.25395 0.34935 0.78149 0.0
H275 H 0.27487 0.32394 0.78324 0.0
H276 H 0.31853 0.2586 0.82878 0.0
H277 H 0.35391 0.22108 0.80204 0.0
H278 H 0.33334 0.22037 0.77558 0.0
H279 H 0.29799 0.25777 0.80224 0.0
C280 C 0.2319 0.72944 0.27202 0.0
C281 C 0.23644 0.71548 0.26002 0.0
C282 C 0.20707 0.70083 0.2648 0.0
C283 C 0.22413 0.70127 0.25645 0.0
C284 C 0.20258 0.71504 0.27662 0.0
C285 C 0.21489 0.72917 0.2802 0.0
U286 U 0.27435 0.75798 0.26208 0.0
O287 O 0.27847 0.78759 0.26418 0.0
O288 O 0.29493 0.76916 0.28095 0.0
C289 C 0.29035 0.78606 0.27758 0.0
C290 C 0.24465 0.74437 0.27622 0.0
C291 C 0.28701 0.79729 0.29371 0.0
C292 C 0.27356 0.80156 0.32344 0.0
C293 C 0.27622 0.79084 0.30802 0.0
C294 C 0.29212 0.82542 0.31025 0.0
C295 C 0.28156 0.81897 0.3248 0.0
C296 C 0.29483 0.81467 0.29489 0.0
C297 C 0.30347 0.74663 0.22057 0.0
C298 C 0.32218 0.76624 0.20154 0.0
C299 C 0.32781 0.73393 0.20285 0.0
C300 C 0.3136 0.73169 0.21509 0.0
C301 C 0.33214 0.7512 0.1957 0.0
C302 C 0.30801 0.76399 0.21387 0.0
C303 C 0.28787 0.74358 0.23264 0.0
O304 O 0.26099 0.73954 0.28149 0.0
O305 O 0.24469 0.75793 0.2645 0.0
O306 O 0.27518 0.75596 0.23223 0.0
O307 O 0.2917 0.7377 0.24918 0.0
H308 H 0.24952 0.71551 0.25352 0.0
H309 H 0.2281 0.69049 0.24741 0.0
H310 H 0.18947 0.71535 0.28302 0.0
H311 H 0.21112 0.73992 0.2894 0.0
H312 H 0.2655 0.79606 0.33443 0.0
H313 H 0.27001 0.77745 0.30732 0.0
H314 H 0.2982 0.83887 0.31064 0.0
H315 H 0.30309 0.81992 0.28392 0.0
H316 H 0.32499 0.7797 0.19621 0.0
H317 H 0.33539 0.72209 0.19898 0.0
H318 H 0.31039 0.71819 0.22013 0.0
H319 H 0.30045 0.77579 0.21791 0.0
H320 H 0.02417 0.39259 0.25073 0.0
H321 H 0.90027 0.55617 0.21082 0.0
H322 H 0.04449 0.48795 0.26316 0.0
H323 H 0.07227 0.47038 0.26204 0.0
H324 H 0.08048 0.48845 0.20657 0.0
H325 H 0.05229 0.50561 0.20771 0.0
H326 H 0.00705 0.46895 0.26278 0.0
H327 H 0.01244 0.43622 0.26293 0.0
H328 H 0.03125 0.43987 0.20745 0.0
H329 H 0.02557 0.47254 0.20741 0.0
H330 H 0.97294 0.49481 0.26381 0.0
H331 H 0.94659 0.47465 0.26628 0.0
H332 H 0.95586 0.45511 0.21174 0.0
H333 H 0.98191 0.47589 0.20921 0.0
H334 H 0.97257 0.53348 0.26113 0.0
H335 H 0.9427 0.54741 0.2588 0.0
H336 H 0.93942 0.53265 0.20184 0.0
H337 H 0.96939 0.51893 0.20435 0.0
H338 H 0.00507 0.55499 0.26126 0.0
H339 H 0.98715 0.58276 0.26072 0.0
H340 H 0.98035 0.57777 0.20237 0.0
H341 H 0.998 0.54992 0.20312 0.0
H342 H 0.04804 0.52905 0.26288 0.0
H343 H 0.07336 0.55054 0.26536 0.0
H344 H 0.06089 0.57083 0.21127 0.0
H345 H 0.03608 0.54862 0.20862 0.0
O346 O 0.02206 0.40555 0.25035 0.0
O347 O 0.03173 0.4082 0.22187 0.0
O348 O 0.91418 0.55747 0.24161 0.0
O349 O 0.91188 0.55035 0.21224 0.0
C350 C 0.02768 0.5053 0.23502 0.0
C351 C 0.01279 0.49298 0.23504 0.0
C352 C 0.99494 0.49956 0.23491 0.0
C353 C 0.99193 0.51838 0.2339 0.0
C354 C 0.00674 0.53075 0.23347 0.0
C355 C 0.02467 0.52427 0.2344 0.0
C356 C 0.04634 0.49798 0.2355 0.0
C357 C 0.05251 0.48842 0.25091 0.0
C358 C 0.06843 0.47842 0.25024 0.0
C359 C 0.07853 0.47785 0.23414 0.0
C360 C 0.07286 0.48836 0.21908 0.0
C361 C 0.05689 0.49835 0.21976 0.0
C362 C 0.01591 0.47308 0.23508 0.0
C363 C 0.01224 0.46262 0.25065 0.0
C364 C 0.01538 0.44394 0.25071 0.0
C365 C 0.02228 0.43542 0.2352 0.0
C366 C 0.02592 0.44599 0.21962 0.0
C367 C 0.02272 0.46465 0.21956 0.0
C368 C 0.97928 0.48683 0.23633 0.0
C369 C 0.96923 0.4862 0.25239 0.0
C370 C 0.95428 0.47455 0.25382 0.0
C371 C 0.94913 0.4632 0.23922 0.0
C372 C 0.95933 0.46381 0.22315 0.0
C373 C 0.97428 0.47555 0.22172 0.0
C374 C 0.97312 0.52529 0.23289 0.0
C375 C 0.96531 0.53318 0.2482 0.0
C376 C 0.94827 0.54114 0.24682 0.0
C377 C 0.9387 0.54122 0.2301 0.0
C378 C 0.94643 0.53287 0.2149 0.0
C379 C 0.96349 0.52495 0.21631 0.0
C380 C 0.00276 0.55042 0.23225 0.0
C381 C 1.00046 0.56041 0.24827 0.0
C382 C 0.9901 0.5762 0.24794 0.0
C383 C 0.98197 0.58218 0.23155 0.0
C384 C 0.98612 0.57327 0.21525 0.0
C385 C 0.99644 0.55752 0.2156 0.0
C386 C 0.04017 0.53728 0.23559 0.0
C387 C 0.05088 0.53803 0.2515 0.0
C388 C 0.06525 0.55046 0.25295 0.0
C389 C 0.06913 0.56256 0.23857 0.0
C390 C 0.05843 0.56163 0.22255 0.0
C391 C 0.04413 0.54907 0.22107 0.0
C392 C 0.02566 0.41559 0.23533 0.0
C393 C 0.92085 0.55015 0.22842 0.0
H394 H 0.06889 0.38546 0.80915 0.0
H395 H 0.90491 0.50391 0.77024 0.0
H396 H 0.06589 0.48207 0.81266 0.0
H397 H 0.09521 0.46764 0.80931 0.0
H398 H 0.095 0.48219 0.75215 0.0
H399 H 0.06532 0.49612 0.75558 0.0
H400 H 0.03271 0.45531 0.8158 0.0
H401 H 0.04629 0.42522 0.81828 0.0
H402 H 0.06201 0.42871 0.76178 0.0
H403 H 0.0481 0.45863 0.75941 0.0
H404 H 0.99159 0.46967 0.81465 0.0
H405 H 0.97202 0.44264 0.81671 0.0
H406 H 0.98816 0.42685 0.76267 0.0
H407 H 0.00712 0.45417 0.76054 0.0
H408 H 0.98553 0.5125 0.81172 0.0
H409 H 0.95277 0.51704 0.81175 0.0
H410 H 0.94846 0.49237 0.75846 0.0
H411 H 0.98127 0.48813 0.75851 0.0
H412 H 0.01718 0.54005 0.80865 0.0
H413 H 0.9993 0.56787 0.80748 0.0
H414 H 0.98061 0.55387 0.75317 0.0
H415 H 0.99894 0.52652 0.7543 0.0
H416 H 0.05929 0.52339 0.81006 0.0
H417 H 0.07949 0.54993 0.80871 0.0
H418 H 0.06085 0.56086 0.75368 0.0
H419 H 0.04102 0.53399 0.75503 0.0
O420 O 0.06339 0.39726 0.8078 0.0
O421 O 0.07136 0.39983 0.77877 0.0
O422 O 0.92085 0.51497 0.79793 0.0
O423 O 0.91789 0.50228 0.77059 0.0
C424 C 0.0436 0.49303 0.78504 0.0
C425 C 0.03187 0.47772 0.78623 0.0
C426 C 0.01295 0.48002 0.78631 0.0
C427 C 0.00569 0.49762 0.78499 0.0
C428 C 0.01736 0.51295 0.78346 0.0
C429 C 0.03637 0.51069 0.78366 0.0
C430 C 0.06342 0.49 0.78434 0.0
C431 C 0.07249 0.48272 0.79957 0.0
C432 C 0.08927 0.47445 0.7976 0.0
C433 C 0.09731 0.47345 0.78037 0.0
C434 C 0.08898 0.48239 0.76552 0.0
C435 C 0.07216 0.49061 0.7675 0.0
C436 C 0.03949 0.45915 0.78746 0.0
C437 C 0.03897 0.44947 0.80395 0.0
C438 C 0.04679 0.43233 0.80534 0.0
C439 C 0.05529 0.42458 0.79025 0.0
C440 C 0.0556 0.43428 0.77368 0.0
C441 C 0.0477 0.45138 0.77229 0.0
C442 C 1.00076 0.46386 0.78745 0.0
C443 C 0.99074 0.46042 0.80322 0.0
C444 C 0.9797 0.4449 0.80442 0.0
C445 C 0.97852 0.43255 0.78985 0.0
C446 C 0.98853 0.43618 0.77403 0.0
C447 C 0.99949 0.4517 0.77283 0.0
C448 C 0.98575 0.5 0.78511 0.0
C449 C 0.97748 0.50812 0.80006 0.0
C450 C 0.95877 0.51067 0.80004 0.0
C451 C 0.94799 0.50506 0.78509 0.0
C452 C 0.95635 0.49684 0.77018 0.0
C453 C 0.97507 0.49435 0.77019 0.0
C454 C 0.00931 0.53127 0.78158 0.0
C455 C 0.0096 0.5433 0.79634 0.0
C456 C 0.99921 0.55905 0.79571 0.0
C457 C 0.98834 0.56302 0.78031 0.0
C458 C 0.98893 0.55138 0.76517 0.0
C459 C 0.99935 0.5357 0.7658 0.0
C460 C 0.04868 0.52676 0.78265 0.0
C461 C 0.05965 0.53148 0.79769 0.0
C462 C 0.07107 0.54673 0.79694 0.0
C463 C 0.07175 0.55758 0.7811 0.0
C464 C 0.06079 0.55272 0.76601 0.0
C465 C 0.04936 0.53745 0.76679 0.0
C466 C 0.06384 0.40649 0.79185 0.0
C467 C 0.92811 0.50777 0.78499 0.0
H468 H 0.23852 0.98907 0.38372 0.0
H469 H 0.28583 0.13208 0.52943 0.0
H470 H 0.23125 0.9797 0.47977 0.0
H471 H 0.23318 0.95099 0.46349 0.0
H472 H 0.28822 0.94484 0.48316 0.0
H473 H 0.28634 0.97404 0.49876 0.0
H474 H 0.23076 0.01613 0.45802 0.0
H475 H 0.22892 0.00678 0.42607 0.0
H476 H 0.28347 0.9863 0.43014 0.0
H477 H 0.28521 0.99596 0.46199 0.0
H478 H 0.23276 0.05431 0.47918 0.0
H479 H 0.23194 0.07827 0.45594 0.0
H480 H 0.28506 0.06274 0.43813 0.0
H481 H 0.28571 0.03876 0.46142 0.0
H482 H 0.23568 0.05655 0.52048 0.0
H483 H 0.23873 0.08806 0.53066 0.0
H484 H 0.2934 0.09 0.51034 0.0
H485 H 0.29023 0.05841 0.50045 0.0
H486 H 0.23592 0.02469 0.54468 0.0
H487 H 0.2377 0.04365 0.57208 0.0
H488 H 0.29455 0.05345 0.56255 0.0
H489 H 0.29264 0.03455 0.53527 0.0
H490 H 0.23249 0.98111 0.52294 0.0
H491 H 0.23117 0.95859 0.54753 0.0
H492 H 0.28633 0.97214 0.56303 0.0
H493 H 0.28747 0.99471 0.53841 0.0
O494 O 0.23959 0.9928 0.39633 0.0
O495 O 0.26762 0.98237 0.39918 0.0
O496 O 0.25603 0.11794 0.53562 0.0
O497 O 0.28415 0.1197 0.52528 0.0
C498 C 0.25916 0.99851 0.49568 0.0
C499 C 0.25902 0.01202 0.48181 0.0
C500 C 0.25986 0.03059 0.48645 0.0
C501 C 0.26134 0.03568 0.5049 0.0
C502 C 0.26191 0.02226 0.51879 0.0
C503 C 0.26052 0.00363 0.51425 0.0
C504 C 0.25871 0.97905 0.4903 0.0
C505 C 0.24355 0.9719 0.48095 0.0
C506 C 0.2447 0.95544 0.47166 0.0
C507 C 0.26098 0.9457 0.47172 0.0
C508 C 0.27562 0.95218 0.48246 0.0
C509 C 0.2745 0.96873 0.49163 0.0
C510 C 0.2581 0.00669 0.4623 0.0
C511 C 0.24233 0.00973 0.45193 0.0
C512 C 0.2413 0.00432 0.43371 0.0
C513 C 0.25604 0.99576 0.42556 0.0
C514 C 0.27187 0.99284 0.436 0.0
C515 C 0.2729 0.99832 0.45419 0.0
C516 C 0.25929 0.04481 0.47198 0.0
C517 C 0.24421 0.05611 0.47025 0.0
C518 C 0.24381 0.06982 0.45703 0.0
C519 C 0.25847 0.07245 0.44522 0.0
C520 C 0.27348 0.06095 0.44688 0.0
C521 C 0.2739 0.04728 0.46018 0.0
C522 C 0.26275 0.05522 0.50979 0.0
C523 C 0.24828 0.06384 0.51819 0.0
C524 C 0.25006 0.08182 0.524 0.0
C525 C 0.26635 0.09153 0.52137 0.0
C526 C 0.2807 0.08292 0.5126 0.0
C527 C 0.27891 0.06491 0.50686 0.0
C528 C 0.26413 0.02831 0.53798 0.0
C529 C 0.24891 0.0303 0.54897 0.0
C530 C 0.24993 0.04122 0.56454 0.0
C531 C 0.26619 0.05031 0.56922 0.0
C532 C 0.28178 0.04687 0.55909 0.0
C533 C 0.28077 0.0359 0.54364 0.0
C534 C 0.26005 0.9896 0.5289 0.0
C535 C 0.24432 0.97913 0.53158 0.0
C536 C 0.24362 0.96623 0.54561 0.0
C537 C 0.25864 0.96356 0.55729 0.0
C538 C 0.27444 0.97401 0.55446 0.0
C539 C 0.27514 0.98688 0.54038 0.0
C540 C 0.25484 0.98989 0.40624 0.0
C541 C 0.26845 0.11051 0.52786 0.0
H542 H 0.49541 0.79672 0.88717 0.0
H543 H 0.64008 0.74889 0.02834 0.0
H544 H 0.48844 0.80252 0.98506 0.0
H545 H 0.45932 0.80355 0.96901 0.0
H546 H 0.44965 0.74712 0.98271 0.0
H547 H 0.47917 0.74614 0.99831 0.0
H548 H 0.52384 0.8015 0.96183 0.0
H549 H 0.51417 0.80456 0.92993 0.0
H550 H 0.491 0.75037 0.93179 0.0
H551 H 0.50098 0.7474 0.9636 0.0
H552 H 0.56241 0.79733 0.98165 0.0
H553 H 0.58585 0.79661 0.95841 0.0
H554 H 0.56589 0.74404 0.94075 0.0
H555 H 0.54292 0.74466 0.96445 0.0
H556 H 0.56327 0.79569 0.02438 0.0
H557 H 0.59519 0.79376 0.03345 0.0
H558 H 0.59715 0.73961 0.01105 0.0
H559 H 0.56515 0.74162 0.00229 0.0
H560 H 0.52888 0.7956 0.04749 0.0
H561 H 0.54548 0.79548 0.07663 0.0
H562 H 0.56091 0.73988 0.06725 0.0
H563 H 0.54382 0.74001 0.03854 0.0
H564 H 0.48842 0.79772 0.02796 0.0
H565 H 0.4652 0.79605 0.05149 0.0
H566 H 0.47867 0.73992 0.06169 0.0
H567 H 0.50158 0.74165 0.03794 0.0
O568 O 0.49925 0.79516 0.89974 0.0
O569 O 0.48746 0.76728 0.90145 0.0
O570 O 0.62568 0.77786 0.03632 0.0
O571 O 0.62745 0.75003 0.02487 0.0
C572 C 0.50532 0.77257 0.99827 0.0
C573 C 0.51859 0.77263 0.9845 0.0
C574 C 0.5371 0.77124 0.98923 0.0
C575 C 0.54239 0.76982 0.00773 0.0
C576 C 0.52915 0.76934 0.02152 0.0
C577 C 0.51057 0.77069 0.01681 0.0
C578 C 0.48595 0.77424 0.99279 0.0
C579 C 0.4798 0.79053 0.98503 0.0
C580 C 0.46312 0.79108 0.97586 0.0
C581 C 0.4522 0.77535 0.97436 0.0
C582 C 0.45786 0.75939 0.98333 0.0
C583 C 0.4746 0.75885 0.99247 0.0
C584 C 0.51308 0.77426 0.96501 0.0
C585 C 0.51677 0.79028 0.95528 0.0
C586 C 0.51118 0.792 0.93708 0.0
C587 C 0.50177 0.77772 0.92832 0.0
C588 C 0.4982 0.76163 0.93813 0.0
C589 C 0.50385 0.75991 0.9563 0.0
C590 C 0.55099 0.77104 0.97475 0.0
C591 C 0.56316 0.78566 0.97277 0.0
C592 C 0.57645 0.78527 0.9594 0.0
C593 C 0.57778 0.77025 0.9477 0.0
C594 C 0.56543 0.75569 0.94968 0.0
C595 C 0.5522 0.75608 0.96309 0.0
C596 C 0.56192 0.76878 0.01272 0.0
C597 C 0.57063 0.78342 0.02147 0.0
C598 C 0.58886 0.78229 0.02662 0.0
C599 C 0.59873 0.76651 0.02298 0.0
C600 C 0.58996 0.75194 0.01406 0.0
C601 C 0.5717 0.75307 0.00899 0.0
C602 C 0.5352 0.76784 0.04088 0.0
C603 C 0.53532 0.78322 0.05207 0.0
C604 C 0.54503 0.78319 0.06858 0.0
C605 C 0.55481 0.76777 0.07416 0.0
C606 C 0.55348 0.75195 0.0635 0.0
C607 C 0.54372 0.75199 0.04705 0.0
C608 C 0.49666 0.7698 0.03122 0.0
C609 C 0.48631 0.78507 0.03527 0.0
C610 C 0.47315 0.78412 0.0488 0.0
C611 C 0.47007 0.76784 0.05846 0.0
C612 C 0.48054 0.75259 0.05436 0.0
C613 C 0.49371 0.75358 0.04089 0.0
C614 C 0.49571 0.77966 0.90904 0.0
C615 C 0.61808 0.76522 0.02848 0.0
H616 H 0.76292 0.0026 0.39565 0.0
H617 H 0.83816 0.12311 0.54689 0.0
H618 H 0.77089 0.9782 0.49268 0.0
H619 H 0.76677 0.95059 0.47463 0.0
H620 H 0.82474 0.94293 0.47536 0.0
H621 H 0.82855 0.97019 0.49399 0.0
H622 H 0.76928 0.0173 0.4738 0.0
H623 H 0.76149 0.0131 0.44154 0.0
H624 H 0.8152 0.99271 0.4321 0.0
H625 H 0.82286 0.99718 0.46434 0.0
H626 H 0.77714 0.05247 0.50005 0.0
H627 H 0.77252 0.07909 0.48048 0.0
H628 H 0.81997 0.06525 0.44995 0.0
H629 H 0.82458 0.03872 0.46972 0.0
H630 H 0.78717 0.04789 0.54053 0.0
H631 H 0.79253 0.07806 0.55349 0.0
H632 H 0.84165 0.08329 0.52239 0.0
H633 H 0.83625 0.05299 0.50973 0.0
H634 H 0.7877 0.0095 0.55727 0.0
H635 H 0.79321 0.01948 0.58866 0.0
H636 H 0.84762 0.03586 0.57451 0.0
H637 H 0.84196 0.02582 0.54315 0.0
H638 H 0.7783 0.97591 0.53181 0.0
H639 H 0.77829 0.9506 0.55349 0.0
H640 H 0.83634 0.95631 0.56 0.0
H641 H 0.8361 0.9819 0.53852 0.0
O642 O 0.76631 0.00422 0.40834 0.0
O643 O 0.79405 0.99374 0.40424 0.0
O644 O 0.81039 0.10773 0.55775 0.0
O645 O 0.83569 0.11116 0.54195 0.0
C646 C 0.80269 0.9945 0.50252 0.0
C647 C 0.80122 0.00989 0.49099 0.0
C648 C 0.80379 0.02749 0.49817 0.0
C649 C 0.80834 0.0297 0.51679 0.0
C650 C 0.80994 0.01432 0.52833 0.0
C651 C 0.80683 0.99671 0.52124 0.0
C652 C 0.8 0.97614 0.49463 0.0
C653 C 0.78262 0.97025 0.48932 0.0
C654 C 0.78034 0.9546 0.47881 0.0
C655 C 0.79544 0.94465 0.47326 0.0
C656 C 0.81278 0.95012 0.47949 0.0
C657 C 0.81501 0.9657 0.49014 0.0
C658 C 0.79661 0.00752 0.47137 0.0
C659 C 0.77935 0.012 0.46471 0.0
C660 C 0.77494 0.00955 0.44629 0.0
C661 C 0.78772 0.00254 0.43424 0.0
C662 C 0.80503 0.99811 0.44101 0.0
C663 C 0.80944 1.00062 0.45941 0.0
C664 C 0.80119 0.04368 0.4863 0.0
C665 C 0.78659 0.05527 0.48921 0.0
C666 C 0.78401 0.07047 0.47806 0.0
C667 C 0.79589 0.07424 0.46369 0.0
C668 C 0.81049 0.06257 0.46079 0.0
C669 C 0.81317 0.04746 0.47207 0.0
C670 C 0.81136 0.04824 0.52426 0.0
C671 C 0.79911 0.05556 0.53658 0.0
C672 C 0.80218 0.07281 0.54393 0.0
C673 C 0.81754 0.08309 0.53899 0.0
C674 C 0.8297 0.07574 0.5265 0.0
C675 C 0.82663 0.05847 0.51921 0.0
C676 C 0.81441 0.017 0.54794 0.0
C677 C 0.80096 0.01476 0.56109 0.0
C678 C 0.80414 0.0205 0.579 0.0
C679 C 0.82079 0.02865 0.58399 0.0
C680 C 0.83457 0.02988 0.571 0.0
C681 C 0.83142 0.02404 0.55314 0.0
C682 C 0.8072 0.98068 0.53357 0.0
C683 C 0.79103 0.97156 0.5378 0.0
C684 C 0.79107 0.95707 0.55015 0.0
C685 C 0.80732 0.9514 0.55851 0.0
C686 C 0.82356 0.96047 0.55402 0.0
C687 C 0.82348 0.975 0.54167 0.0
C688 C 0.78296 0.99988 0.4147 0.0
C689 C 0.82093 0.10138 0.54683 0.0
H690 H 0.51523 0.22048 0.88734 0.0
H691 H 0.638 0.20163 0.05912 0.0
H692 H 0.50072 0.25474 0.98213 0.0
H693 H 0.47379 0.25702 0.96267 0.0
H694 H 0.45706 0.20308 0.97953 0.0
H695 H 0.48448 0.2008 0.99861 0.0
H696 H 0.53128 0.24525 0.96155 0.0
H697 H 0.52597 0.24006 0.92896 0.0
H698 H 0.51134 0.18416 0.94051 0.0
H699 H 0.5168 0.18956 0.97306 0.0
H700 H 0.56379 0.24348 0.97669 0.0
H701 H 0.59053 0.23778 0.95825 0.0
H702 H 0.58815 0.18106 0.97348 0.0
H703 H 0.56115 0.18685 0.99165 0.0
H704 H 0.57082 0.24998 0.02225 0.0
H705 H 0.60116 0.24878 0.03607 0.0
H706 H 0.59569 0.19045 0.04145 0.0
H707 H 0.56535 0.1919 0.02772 0.0
H708 H 0.53406 0.25908 0.04282 0.0
H709 H 0.54508 0.26654 0.07358 0.0
H710 H 0.55079 0.20935 0.08549 0.0
H711 H 0.53959 0.20205 0.05476 0.0
H712 H 0.49358 0.25716 0.02175 0.0
H713 H 0.46891 0.26212 0.04321 0.0
H714 H 0.47716 0.20847 0.06575 0.0
H715 H 0.50167 0.20367 0.04433 0.0
O716 O 0.51734 0.22222 0.90027 0.0
O717 O 0.50988 0.19363 0.90695 0.0
O718 O 0.6282 0.23252 0.05058 0.0
O719 O 0.62609 0.2025 0.05358 0.0
C720 C 0.51252 0.22515 1.00044 0.0
C721 C 0.52738 0.22097 0.98933 0.0
C722 C 0.54484 0.21929 0.99708 0.0
C723 C 0.5475 0.22189 0.01594 0.0
C724 C 0.53266 0.2259 0.02711 0.0
C725 C 0.51507 0.22724 0.01944 0.0
C726 C 0.49449 0.22763 0.99176 0.0
C727 C 0.49101 0.24359 0.98192 0.0
C728 C 0.47556 0.24487 0.97084 0.0
C729 C 0.46328 0.23018 0.96943 0.0
C730 C 0.46637 0.21454 0.9801 0.0
C731 C 0.48189 0.21327 0.99116 0.0
C732 C 0.52452 0.21774 0.96957 0.0
C733 C 0.52704 0.23187 0.95697 0.0
C734 C 0.52395 0.22888 0.93839 0.0
C735 C 0.51824 0.21168 0.93212 0.0
C736 C 0.51575 0.19755 0.94487 0.0
C737 C 0.51887 0.20058 0.96344 0.0
C738 C 0.56054 0.21556 0.98538 0.0
C739 C 0.56892 0.22979 0.97583 0.0
C740 C 0.58414 0.22651 0.96533 0.0
C741 C 0.59138 0.20897 0.96444 0.0
C742 C 0.58291 0.19472 0.97403 0.0
C743 C 0.56751 0.19797 0.98433 0.0
C744 C 0.566 0.22103 0.02395 0.0
C745 C 0.57625 0.23697 0.02639 0.0
C746 C 0.59355 0.23624 0.03429 0.0
C747 C 0.60086 0.2195 0.03985 0.0
C748 C 0.59049 0.20355 0.03731 0.0
C749 C 0.57319 0.20432 0.02944 0.0
C750 C 0.53606 0.23005 0.04662 0.0
C751 C 0.53727 0.24818 0.05225 0.0
C752 C 0.5437 0.25241 0.06973 0.0
C753 C 0.54895 0.23853 0.08187 0.0
C754 C 0.54672 0.22032 0.0765 0.0
C755 C 0.54037 0.21612 0.05897 0.0
C756 C 0.49941 0.23006 0.03151 0.0
C757 C 0.48988 0.24643 0.0312 0.0
C758 C 0.47582 0.24923 0.04344 0.0
C759 C 0.47119 0.23573 0.05627 0.0
C760 C 0.48059 0.21924 0.05625 0.0
C761 C 0.49453 0.21643 0.04398 0.0
C762 C 0.51489 0.20856 0.91238 0.0
C763 C 0.6192 0.21864 0.04831 0.0
C764 C 0.1901 0.35763 0.21258 0.0
C765 C 0.2013 0.35403 0.22779 0.0
C766 C 0.17715 0.3713 0.21318 0.0
C767 C 0.16562 0.41324 0.23764 0.0
H768 H 0.11786 0.40473 0.21662 0.0
C769 C 0.10607 0.46259 0.24749 0.0
C770 C 0.09405 0.46523 0.2327 0.0
C771 C 0.11967 0.44957 0.24663 0.0
C772 C 0.13121 0.40744 0.22233 0.0
H773 H 0.2077 0.36208 0.25555 0.0
H774 H 0.18494 0.38581 0.25668 0.0
H775 H 0.1403 0.38078 0.21581 0.0
H776 H 0.08711 0.45632 0.20531 0.0
H777 H 0.11108 0.43402 0.20363 0.0
H778 H 0.15654 0.43992 0.24413 0.0
C779 C 0.18628 0.37813 0.24423 0.0
C780 C 0.14407 0.39368 0.22189 0.0
C781 C 0.19919 0.3644 0.24365 0.0
C782 C 0.09625 0.45483 0.21688 0.0
C783 C 0.10984 0.44183 0.21601 0.0
C784 C 0.15277 0.42703 0.23804 0.0
C785 C 0.17513 0.38176 0.22899 0.0
C786 C 0.16143 0.39641 0.22954 0.0
C787 C 0.12157 0.43886 0.23096 0.0
C788 C 0.13539 0.4243 0.23038 0.0
H789 H 0.19125 0.34978 0.20021 0.0
H790 H 0.16889 0.37384 0.20114 0.0
H791 H 0.17896 0.41587 0.24342 0.0
H792 H 0.10486 0.47047 0.25983 0.0
H793 H 0.12836 0.44756 0.25845 0.0
C794 C 0.18148 0.68439 0.76682 0.0
C795 C 0.18342 0.69455 0.78293 0.0
C796 C 0.16863 0.6703 0.76556 0.0
C797 C 0.12692 0.65202 0.78697 0.0
H798 H 0.14131 0.60668 0.76509 0.0
C799 C 0.0856 0.58549 0.7955 0.0
C800 C 0.08384 0.57389 0.78038 0.0
C801 C 0.09712 0.60068 0.79495 0.0
C802 C 0.13697 0.61931 0.77103 0.0
H803 H 0.17291 0.69823 0.81011 0.0
H804 H 0.15077 0.67353 0.80802 0.0
H805 H 0.16232 0.63245 0.7655 0.0
H806 H 0.09291 0.56923 0.75283 0.0
H807 H 0.11282 0.59589 0.75178 0.0
H808 H 0.10163 0.63881 0.79266 0.0
C809 C 0.15909 0.67649 0.7963 0.0
C810 C 0.14903 0.63411 0.77125 0.0
C811 C 0.17194 0.69053 0.79758 0.0
C812 C 0.09382 0.57795 0.76466 0.0
C813 C 0.10539 0.59313 0.76412 0.0
C814 C 0.11487 0.63722 0.78675 0.0
C815 C 0.15737 0.66608 0.78034 0.0
C816 C 0.14421 0.65061 0.77935 0.0
C817 C 0.10721 0.60467 0.77928 0.0
C818 C 0.11979 0.62063 0.77891 0.0
H819 H 0.19018 0.68703 0.75533 0.0
H820 H 0.16754 0.6627 0.75298 0.0
H821 H 0.12265 0.66461 0.79305 0.0
H822 H 0.07796 0.58289 0.80775 0.0
H823 H 0.09833 0.60915 0.80695 0.0
C824 C 0.85977 0.69345 0.24876 0.0
C825 C 0.84374 0.68797 0.23964 0.0
C826 C 0.87535 0.68285 0.24803 0.0
C827 C 0.89681 0.64779 0.22018 0.0
H828 H 0.92586 0.63842 0.26356 0.0
C829 C 0.95119 0.59264 0.22196 0.0
C830 C 0.96739 0.59592 0.23176 0.0
C831 C 0.93685 0.60475 0.22286 0.0
C832 C 0.91806 0.64113 0.25126 0.0
H833 H 0.83149 0.66668 0.22307 0.0
H834 H 0.85865 0.64837 0.22165 0.0
H835 H 0.89933 0.65779 0.26547 0.0
H836 H 0.98121 0.61452 0.25017 0.0
H837 H 0.95617 0.63595 0.25153 0.0
H838 H 0.91544 0.63121 0.20593 0.0
C839 C 0.85924 0.66101 0.22914 0.0
C840 C 0.90283 0.65219 0.25237 0.0
C841 C 0.84366 0.67153 0.22994 0.0
C842 C 0.96891 0.61165 0.24247 0.0
C843 C 0.95453 0.62385 0.24331 0.0
C844 C 0.91204 0.63682 0.21905 0.0
C845 C 0.8753 0.66658 0.23809 0.0
C846 C 0.89191 0.65546 0.23687 0.0
C847 C 0.9383 0.62052 0.23353 0.0
C848 C 0.92275 0.63314 0.23461 0.0
H849 H 0.86041 0.70613 0.25616 0.0
H850 H 0.88756 0.68761 0.25492 0.0
H851 H 0.88889 0.65033 0.20791 0.0
H852 H 0.94937 0.5804 0.21398 0.0
H853 H 0.92444 0.60148 0.2155 0.0
C854 C 0.88908 0.29181 0.77792 0.0
C855 C 0.88777 0.28115 0.7938 0.0
C856 C 0.89845 0.30838 0.77818 0.0
C857 C 0.91645 0.34423 0.809 0.0
H858 H 0.94609 0.35636 0.76735 0.0
C859 C 0.96656 0.40562 0.80744 0.0
C860 C 0.96714 0.41579 0.79116 0.0
C861 C 0.95646 0.38945 0.80835 0.0
C862 C 0.93773 0.35327 0.779 0.0
H863 H 0.89516 0.27961 0.82246 0.0
H864 H 0.91174 0.30854 0.82288 0.0
H865 H 0.92948 0.32764 0.76794 0.0
H866 H 0.95695 0.41725 0.76332 0.0
H867 H 0.93951 0.38901 0.76489 0.0
H868 H 0.92493 0.3699 0.82009 0.0
C869 C 0.90529 0.30418 0.81027 0.0
C870 C 0.92818 0.3368 0.77934 0.0
C871 C 0.89582 0.28759 0.81003 0.0
C872 C 0.95711 0.40958 0.77595 0.0
C873 C 0.94709 0.3934 0.77685 0.0
C874 C 0.92609 0.36071 0.80869 0.0
C875 C 0.90683 0.31471 0.7943 0.0
C876 C 0.91731 0.33211 0.79427 0.0
C877 C 0.94679 0.38305 0.793 0.0
C878 C 0.93673 0.36546 0.79361 0.0
H879 H 0.88271 0.28741 0.76529 0.0
H880 H 0.899 0.31632 0.76572 0.0
H881 H 0.90806 0.34115 0.82063 0.0
H882 H 0.97429 0.40989 0.81934 0.0
H883 H 0.95663 0.38169 0.82094 0.0
C884 C 0.25846 0.18502 0.32039 0.0
C885 C 0.25213 0.20222 0.32535 0.0
C886 C 0.25947 0.17093 0.33323 0.0
C887 C 0.24072 0.15599 0.37731 0.0
H888 H 0.28223 0.12426 0.37906 0.0
C889 C 0.25159 0.10451 0.43583 0.0
C890 C 0.25813 0.08727 0.43136 0.0
C891 C 0.2511 0.11843 0.42281 0.0
C892 C 0.27044 0.13286 0.37862 0.0
H893 H 0.24231 0.21816 0.34787 0.0
H894 H 0.24397 0.1936 0.37019 0.0
H895 H 0.28094 0.14869 0.3565 0.0
H896 H 0.26918 0.07111 0.40963 0.0
H897 H 0.26824 0.09538 0.38686 0.0
H898 H 0.23015 0.14016 0.39934 0.0
C899 C 0.2479 0.19092 0.35629 0.0
C900 C 0.26971 0.14688 0.36569 0.0
C901 C 0.24694 0.20501 0.34349 0.0
C902 C 0.26427 0.0843 0.41357 0.0
C903 C 0.26374 0.09822 0.40053 0.0
C904 C 0.24142 0.14197 0.3902 0.0
C905 C 0.25412 0.17369 0.35131 0.0
C906 C 0.25487 0.15865 0.36493 0.0
C907 C 0.2571 0.11545 0.40497 0.0
C908 C 0.25632 0.13025 0.39107 0.0
H909 H 0.26233 0.18231 0.30649 0.0
H910 H 0.2641 0.15776 0.32888 0.0
H911 H 0.22895 0.16462 0.37689 0.0
H912 H 0.24706 0.10734 0.44949 0.0
H913 H 0.24622 0.13161 0.42682 0.0
C914 C 0.33751 0.77019 0.85128 0.0
C915 C 0.32823 0.78659 0.8487 0.0
C916 C 0.34983 0.76815 0.86577 0.0
C917 C 0.36335 0.78719 0.91065 0.0
H918 H 0.40931 0.76465 0.90074 0.0
C919 C 0.42458 0.79041 0.96088 0.0
C920 C 0.43593 0.77524 0.96212 0.0
C921 C 0.41044 0.79098 0.94799 0.0
C922 C 0.39644 0.77072 0.90386 0.0
H923 H 0.32432 0.81354 0.85965 0.0
H924 H 0.34597 0.81005 0.88482 0.0
H925 H 0.38662 0.76713 0.87652 0.0
H926 H 0.44099 0.74859 0.95089 0.0
H927 H 0.41608 0.74935 0.92888 0.0
H928 H 0.37322 0.79083 0.938 0.0
C929 C 0.34364 0.79873 0.87568 0.0
C930 C 0.38343 0.77217 0.88993 0.0
C931 C 0.33138 0.8008 0.86113 0.0
C932 C 0.43241 0.76042 0.95052 0.0
C933 C 0.41827 0.76096 0.93767 0.0
C934 C 0.37636 0.78569 0.92462 0.0
C935 C 0.35313 0.78243 0.87809 0.0
C936 C 0.36675 0.78048 0.89312 0.0
C937 C 0.40729 0.77638 0.93602 0.0
C938 C 0.39312 0.77749 0.92139 0.0
H939 H 0.33552 0.75903 0.84188 0.0
H940 H 0.35677 0.75535 0.86735 0.0
H941 H 0.35054 0.79346 0.91363 0.0
H942 H 0.42679 0.802 0.9697 0.0
H943 H 0.40236 0.80313 0.94705 0.0
C944 C 0.77236 0.83428 0.34951 0.0
C945 C 0.78532 0.82046 0.34894 0.0
C946 C 0.77295 0.84728 0.36335 0.0
C947 C 0.79031 0.85579 0.40985 0.0
H948 H 0.78509 0.90652 0.39664 0.0
C949 C 0.80419 0.91399 0.46121 0.0
C950 C 0.79325 0.92947 0.46002 0.0
C951 C 0.80278 0.90032 0.44806 0.0
C952 C 0.78629 0.89241 0.40065 0.0
H953 H 0.80918 0.80965 0.36256 0.0
H954 H 0.80996 0.83212 0.38685 0.0
H955 H 0.78318 0.88339 0.37307 0.0
H956 H 0.7722 0.94259 0.44394 0.0
H957 H 0.76923 0.91851 0.42159 0.0
H958 H 0.79321 0.86474 0.43746 0.0
C959 C 0.79926 0.83278 0.37663 0.0
C960 C 0.78524 0.87915 0.3871 0.0
C961 C 0.79877 0.81987 0.36271 0.0
C962 C 0.78066 0.93076 0.44552 0.0
C963 C 0.77917 0.91705 0.43247 0.0
C964 C 0.7912 0.86904 0.42345 0.0
C965 C 0.78643 0.84669 0.37704 0.0
C966 C 0.78728 0.86071 0.39153 0.0
C967 C 0.79034 0.90174 0.43343 0.0
C968 C 0.78923 0.88754 0.41902 0.0
H969 H 0.76162 0.83499 0.33935 0.0
H970 H 0.76273 0.85771 0.36344 0.0
H971 H 0.79173 0.84165 0.4137 0.0
H972 H 0.81392 0.91245 0.47226 0.0
H973 H 0.81174 0.88882 0.44916 0.0
C974 C 0.73982 0.19712 0.89202 0.0
C975 C 0.73944 0.20347 0.87394 0.0
C976 C 0.72381 0.19544 0.90188 0.0
C977 C 0.67352 0.1944 0.89613 0.0
H978 H 0.67437 0.2082 0.94708 0.0
C979 C 0.60955 0.21274 0.93607 0.0
C980 C 0.60794 0.20572 0.95382 0.0
C981 C 0.62547 0.21041 0.92634 0.0
C982 C 0.67397 0.20409 0.93292 0.0
H983 H 0.72208 0.21324 0.85205 0.0
H984 H 0.69426 0.21079 0.8693 0.0
H985 H 0.7025 0.20811 0.93012 0.0
H986 H 0.62163 0.19068 0.97529 0.0
H987 H 0.6496 0.18673 0.9583 0.0
H988 H 0.64484 0.19105 0.89888 0.0
C989 C 0.70678 0.20657 0.87578 0.0
C990 C 0.6901 0.20398 0.92319 0.0
C991 C 0.72275 0.20806 0.86589 0.0
C992 C 0.62248 0.19612 0.96158 0.0
C993 C 0.6385 0.19399 0.95193 0.0
C994 C 0.65738 0.19471 0.90583 0.0
C995 C 0.70708 0.20028 0.89393 0.0
C996 C 0.69007 0.19932 0.9046 0.0
C997 C 0.64018 0.20119 0.93425 0.0
C998 C 0.65742 0.19972 0.92427 0.0
H999 H 0.7525 0.19331 0.89849 0.0
H1000 H 0.72455 0.19027 0.91571 0.0
H1001 H 0.673 0.19035 0.88197 0.0
H1002 H 0.5985 0.2201 0.92973 0.0
H1003 H 0.62644 0.21623 0.91279 0.0
C1004 C 0.26154 0.84835 0.67992 0.0
C1005 C 0.24509 0.84621 0.68915 0.0
C1006 C 0.26337 0.86138 0.66607 0.0
C1007 C 0.23607 0.8887 0.63355 0.0
H1008 H 0.28072 0.91619 0.62777 0.0
C1009 C 0.2492 0.93306 0.56983 0.0
C1010 C 0.25773 0.95004 0.57245 0.0
C1011 C 0.24801 0.92051 0.58415 0.0
C1012 C 0.26811 0.90873 0.62926 0.0
H1013 H 0.21788 0.8566 0.69148 0.0
H1014 H 0.22109 0.87934 0.66745 0.0
H1015 H 0.27788 0.89468 0.653 0.0
H1016 H 0.27161 0.96713 0.59231 0.0
H1017 H 0.26949 0.94526 0.6173 0.0
H1018 H 0.22616 0.90297 0.61005 0.0
C1019 C 0.23248 0.87069 0.67062 0.0
C1020 C 0.26655 0.89623 0.64362 0.0
C1021 C 0.23063 0.85765 0.68443 0.0
C1022 C 0.26517 0.95408 0.58974 0.0
C1023 C 0.26396 0.94153 0.60408 0.0
C1024 C 0.23763 0.90117 0.6192 0.0
C1025 C 0.24881 0.87262 0.66114 0.0
C1026 C 0.2505 0.88605 0.64595 0.0
C1027 C 0.25529 0.9246 0.60149 0.0
C1028 C 0.25368 0.91134 0.61684 0.0
H1029 H 0.27287 0.83963 0.68304 0.0
H1030 H 0.27608 0.86232 0.65892 0.0
H1031 H 0.22359 0.88095 0.63477 0.0
H1032 H 0.24359 0.92937 0.55663 0.0
H1033 H 0.24153 0.90748 0.58157 0.0
C1034 C 0.67075 0.75543 0.19579 0.0
C1035 C 0.68124 0.77131 0.19829 0.0
C1036 C 0.65675 0.75488 0.18273 0.0
C1037 C 0.64057 0.77752 0.14062 0.0
H1038 H 0.59432 0.75536 0.15256 0.0
C1039 C 0.57866 0.78417 0.09266 0.0
C1040 C 0.56768 0.76865 0.08996 0.0
C1041 C 0.59196 0.78451 0.10639 0.0
C1042 C 0.60721 0.76142 0.14893 0.0
H1043 H 0.68544 0.79895 0.18877 0.0
H1044 H 0.66097 0.79805 0.16615 0.0
H1045 H 0.61888 0.75558 0.17519 0.0
H1046 H 0.56177 0.74152 0.10004 0.0
H1047 H 0.58523 0.74199 0.12378 0.0
H1048 H 0.62904 0.78325 0.11435 0.0
C1049 C 0.66359 0.78598 0.17422 0.0
C1050 C 0.62129 0.76155 0.1619 0.0
C1051 C 0.67751 0.78656 0.18732 0.0
C1052 C 0.57008 0.75364 0.10164 0.0
C1053 C 0.58343 0.75397 0.11537 0.0
C1054 C 0.62654 0.77735 0.12764 0.0
C1055 C 0.65301 0.77016 0.1718 0.0
C1056 C 0.63811 0.76967 0.15792 0.0
C1057 C 0.59472 0.76933 0.11775 0.0
C1058 C 0.60964 0.76938 0.13164 0.0
H1059 H 0.67318 0.74349 0.20411 0.0
H1060 H 0.64897 0.74243 0.1811 0.0
H1061 H 0.65345 0.78361 0.13699 0.0
H1062 H 0.57742 0.79589 0.08378 0.0
H1063 H 0.6002 0.79668 0.10799 0.0
C1064 C 0.81484 0.1012 0.73433 0.0
C1065 C 0.81958 0.11974 0.73345 0.0
C1066 C 0.81677 0.09002 0.71916 0.0
C1067 C 0.83967 0.08656 0.67483 0.0
H1068 H 0.79903 0.05511 0.66204 0.0
C1069 C 0.83095 0.05468 0.60359 0.0
C1070 C 0.82322 0.0372 0.60216 0.0
C1071 C 0.83204 0.06346 0.62041 0.0
C1072 C 0.81065 0.06355 0.66556 0.0
H1073 H 0.83029 0.14097 0.71588 0.0
H1074 H 0.83379 0.12142 0.68948 0.0
H1075 H 0.79828 0.07278 0.68998 0.0
H1076 H 0.81106 0.015 0.61735 0.0
H1077 H 0.81316 0.03024 0.64683 0.0
H1078 H 0.852 0.07744 0.65034 0.0
C1079 C 0.82873 0.11551 0.70199 0.0
C1080 C 0.8102 0.07372 0.68158 0.0
C1081 C 0.82674 0.12671 0.71714 0.0
C1082 C 0.81694 0.02853 0.61801 0.0
C1083 C 0.8181 0.03729 0.63487 0.0
C1084 C 0.84017 0.07633 0.65884 0.0
C1085 C 0.82357 0.09709 0.70276 0.0
C1086 C 0.82461 0.08549 0.68629 0.0
C1087 C 0.82546 0.05496 0.63624 0.0
C1088 C 0.82556 0.06486 0.65389 0.0
H1089 H 0.8096 0.0953 0.74677 0.0
H1090 H 0.81293 0.07582 0.72026 0.0
H1091 H 0.8511 0.09532 0.67823 0.0
H1092 H 0.83559 0.06187 0.59158 0.0
H1093 H 0.83749 0.07717 0.62086 0.0
C1094 C 0.36467 0.24514 0.18212 0.0
C1095 C 0.34716 0.25133 0.17791 0.0
C1096 C 0.37784 0.24438 0.16869 0.0
C1097 C 0.39045 0.26203 0.12336 0.0
H1098 H 0.41977 0.21874 0.12215 0.0
C1099 C 0.44039 0.24686 0.06493 0.0
C1100 C 0.45692 0.23885 0.06994 0.0
C1101 C 0.42678 0.24907 0.07781 0.0
C1102 C 0.41187 0.23103 0.12241 0.0
H1103 H 0.32992 0.26188 0.15627 0.0
H1104 H 0.35302 0.26064 0.13279 0.0
H1105 H 0.39656 0.2215 0.14513 0.0
H1106 H 0.47243 0.22767 0.09256 0.0
H1107 H 0.44885 0.23165 0.11498 0.0
H1108 H 0.40589 0.27158 0.10064 0.0
C1109 C 0.35653 0.25647 0.14655 0.0
C1110 C 0.39854 0.2326 0.13559 0.0
C1111 C 0.3433 0.25719 0.16001 0.0
C1112 C 0.4597 0.23353 0.08818 0.0
C1113 C 0.44616 0.23579 0.10103 0.0
C1114 C 0.40386 0.26048 0.11017 0.0
C1115 C 0.37389 0.24984 0.1507 0.0
C1116 C 0.38776 0.24817 0.13633 0.0
C1117 C 0.42944 0.24338 0.09598 0.0
C1118 C 0.41483 0.24501 0.10963 0.0
H1119 H 0.36824 0.2409 0.19585 0.0
H1120 H 0.39119 0.23956 0.17243 0.0
H1121 H 0.38246 0.27426 0.12366 0.0
H1122 H 0.4378 0.25098 0.05095 0.0
H1123 H 0.41401 0.25483 0.07342 0.0
C1124 C 0.86366 0.66967 0.79547 0.0
C1125 C 0.85807 0.67876 0.77949 0.0
C1126 C 0.87857 0.65816 0.79536 0.0
C1127 C 0.90697 0.63149 0.76432 0.0
H1128 H 0.93994 0.63038 0.8059 0.0
C1129 C 0.97209 0.58876 0.76465 0.0
C1130 C 0.9754 0.57836 0.78046 0.0
C1131 C 0.95874 0.60207 0.7644 0.0
C1132 C 0.93079 0.63046 0.79424 0.0
H1133 H 0.86377 0.68268 0.75079 0.0
H1134 H 0.89003 0.66296 0.75071 0.0
H1135 H 0.91471 0.65144 0.8056 0.0
H1136 H 0.96726 0.57399 0.80847 0.0
H1137 H 0.94419 0.59733 0.80809 0.0
H1138 H 0.92307 0.61047 0.75299 0.0
C1139 C 0.88274 0.66457 0.7633 0.0
C1140 C 0.91629 0.6425 0.79407 0.0
C1141 C 0.8678 0.67606 0.7634 0.0
C1142 C 0.96534 0.58195 0.79616 0.0
C1143 C 0.95206 0.59531 0.79593 0.0
C1144 C 0.92151 0.6195 0.76446 0.0
C1145 C 0.88831 0.65546 0.77928 0.0
C1146 C 0.90411 0.64307 0.77918 0.0
C1147 C 0.94843 0.60536 0.77999 0.0
C1148 C 0.93351 0.61875 0.77948 0.0
H1149 H 0.85664 0.67159 0.80816 0.0
H1150 H 0.88231 0.65119 0.80786 0.0
H1151 H 0.89772 0.63136 0.75274 0.0
H1152 H 0.97975 0.58652 0.75239 0.0
H1153 H 0.95645 0.60978 0.75199 0.0
C1154 C 0.81819 0.36465 0.27158 0.0
C1155 C 0.80648 0.36111 0.2567 0.0
C1156 C 0.83342 0.37586 0.26953 0.0
C1157 C 0.8641 0.39455 0.23442 0.0
H1158 H 0.87865 0.42771 0.27297 0.0
C1159 C 0.92091 0.4487 0.22601 0.0
C1160 C 0.93306 0.45097 0.24078 0.0
C1161 C 0.90548 0.43766 0.22773 0.0
C1162 C 0.87485 0.41839 0.26215 0.0
H1163 H 0.8017 0.36668 0.22797 0.0
H1164 H 0.82795 0.38665 0.22455 0.0
H1165 H 0.85146 0.40901 0.27643 0.0
H1166 H 0.93876 0.44294 0.26875 0.0
H1167 H 0.91179 0.42383 0.27177 0.0
H1168 H 0.88746 0.40409 0.22011 0.0
C1169 C 0.8255 0.38052 0.23775 0.0
C1170 C 0.85928 0.40765 0.26414 0.0
C1171 C 0.81029 0.36926 0.23978 0.0
C1172 C 0.92952 0.44177 0.25722 0.0
C1173 C 0.91407 0.43081 0.25895 0.0
C1174 C 0.87963 0.40536 0.2324 0.0
C1175 C 0.83732 0.38388 0.25257 0.0
C1176 C 0.85373 0.39555 0.25032 0.0
C1177 C 0.90183 0.42871 0.24426 0.0
C1178 C 0.88522 0.41735 0.24628 0.0
H1179 H 0.81556 0.35878 0.28486 0.0
H1180 H 0.84232 0.37799 0.2812 0.0
H1181 H 0.8604 0.38517 0.22363 0.0
H1182 H 0.92309 0.45578 0.21324 0.0
H1183 H 0.8962 0.43647 0.21623 0.0
C1184 C 0.20615 0.35127 0.75548 0.0
C1185 C 0.2185 0.34883 0.77003 0.0
C1186 C 0.19375 0.36549 0.75568 0.0
C1187 C 0.18516 0.40999 0.77691 0.0
H1188 H 0.13532 0.40017 0.76258 0.0
C1189 C 0.12696 0.45997 0.7907 0.0
C1190 C 0.11301 0.46135 0.77754 0.0
C1191 C 0.14058 0.44708 0.78888 0.0
C1192 C 0.14924 0.40325 0.76637 0.0
H1193 H 0.22722 0.35937 0.79634 0.0
H1194 H 0.20573 0.38418 0.79659 0.0
H1195 H 0.1575 0.37605 0.76102 0.0
H1196 H 0.10265 0.45032 0.75201 0.0
H1197 H 0.12665 0.42834 0.74857 0.0
H1198 H 0.17688 0.4372 0.78231 0.0
C1199 C 0.20582 0.37525 0.7849 0.0
C1200 C 0.16195 0.38939 0.76549 0.0
C1201 C 0.21816 0.36102 0.78474 0.0
C1202 C 0.11332 0.44987 0.76227 0.0
C1203 C 0.12694 0.43704 0.76044 0.0
C1204 C 0.17245 0.42389 0.77774 0.0
C1205 C 0.19343 0.37764 0.77041 0.0
C1206 C 0.18005 0.39256 0.77083 0.0
C1207 C 0.14058 0.43526 0.77387 0.0
C1208 C 0.1543 0.42068 0.77254 0.0
H1209 H 0.20618 0.34232 0.74382 0.0
H1210 H 0.18453 0.36709 0.7442 0.0
H1211 H 0.19905 0.41295 0.7809 0.0
H1212 H 0.12718 0.46866 0.80257 0.0
H1213 H 0.15079 0.44601 0.79956 0.0
C1214 C 0.18355 0.67851 0.27569 0.0
C1215 C 0.19401 0.6856 0.26139 0.0
C1216 C 0.17098 0.66452 0.27254 0.0
C1217 C 0.14398 0.6424 0.23581 0.0
H1218 H 0.13686 0.60507 0.27259 0.0
C1219 C 0.09521 0.58065 0.22562 0.0
C1220 C 0.08407 0.57623 0.24045 0.0
C1221 C 0.10926 0.59347 0.22752 0.0
C1222 C 0.1386 0.61547 0.26224 0.0
H1223 H 0.19942 0.68339 0.2325 0.0
H1224 H 0.17775 0.65865 0.22709 0.0
H1225 H 0.16048 0.62806 0.27701 0.0
H1226 H 0.0788 0.58226 0.26881 0.0
H1227 H 0.10338 0.60433 0.27216 0.0
H1228 H 0.12206 0.62969 0.22105 0.0
C1229 C 0.17912 0.66411 0.24072 0.0
C1230 C 0.15213 0.62868 0.26478 0.0
C1231 C 0.19171 0.67816 0.24387 0.0
C1232 C 0.08732 0.585 0.25719 0.0
C1233 C 0.1014 0.5977 0.25912 0.0
C1234 C 0.1305 0.6291 0.23323 0.0
C1235 C 0.16855 0.65715 0.25501 0.0
C1236 C 0.15484 0.64247 0.25173 0.0
C1237 C 0.11256 0.60207 0.24433 0.0
C1238 C 0.1275 0.61563 0.24653 0.0
H1239 H 0.18513 0.68371 0.28941 0.0
H1240 H 0.16293 0.65969 0.28384 0.0
H1241 H 0.14553 0.65292 0.22557 0.0
H1242 H 0.09327 0.57401 0.21259 0.0
H1243 H 0.11773 0.59643 0.21592 0.0
C1244 C 0.81398 0.82069 0.66334 0.0
C1245 C 0.80449 0.8227 0.67968 0.0
C1246 C 0.81397 0.83446 0.65016 0.0
C1247 C 0.80583 0.88367 0.64425 0.0
H1248 H 0.80408 0.87137 0.59292 0.0
C1249 C 0.81811 0.93734 0.58796 0.0
C1250 C 0.80723 0.93633 0.57212 0.0
C1251 C 0.81768 0.9234 0.60097 0.0
C1252 C 0.80442 0.87507 0.60719 0.0
H1253 H 0.7875 0.84086 0.69491 0.0
H1254 H 0.78707 0.86468 0.67172 0.0
H1255 H 0.80272 0.84729 0.61574 0.0
H1256 H 0.78756 0.91967 0.55742 0.0
H1257 H 0.78645 0.89562 0.58029 0.0
H1258 H 0.80707 0.91147 0.6357 0.0
C1259 C 0.79476 0.85254 0.66922 0.0
C1260 C 0.80387 0.86123 0.62029 0.0
C1261 C 0.79482 0.83877 0.68242 0.0
C1262 C 0.79598 0.92099 0.56955 0.0
C1263 C 0.79551 0.90708 0.58258 0.0
C1264 C 0.80633 0.89751 0.63114 0.0
C1265 C 0.8044 0.85059 0.65295 0.0
C1266 C 0.80463 0.86535 0.63899 0.0
C1267 C 0.80631 0.90813 0.59848 0.0
C1268 C 0.80569 0.89339 0.61244 0.0
H1269 H 0.82138 0.80841 0.66064 0.0
H1270 H 0.8217 0.83256 0.6379 0.0
H1271 H 0.80665 0.88734 0.65852 0.0
H1272 H 0.82678 0.94905 0.59049 0.0
H1273 H 0.82636 0.92456 0.61293 0.0
C1274 C 0.63621 0.25193 0.22515 0.0
C1275 C 0.65217 0.26221 0.2227 0.0
C1276 C 0.62321 0.25059 0.21119 0.0
C1277 C 0.60727 0.27231 0.16857 0.0
H1278 H 0.58956 0.22403 0.1564 0.0
C1279 C 0.57199 0.25625 0.09994 0.0
C1280 C 0.55813 0.24302 0.09942 0.0
C1281 C 0.58174 0.25957 0.11604 0.0
C1282 C 0.59407 0.23766 0.15979 0.0
H1283 H 0.66681 0.27933 0.2036 0.0
H1284 H 0.644 0.27719 0.17938 0.0
H1285 H 0.60964 0.22821 0.18269 0.0
H1286 H 0.54322 0.22331 0.1155 0.0
H1287 H 0.56004 0.22933 0.14379 0.0
H1288 H 0.59178 0.28179 0.14566 0.0
C1289 C 0.64151 0.27027 0.19218 0.0
C1290 C 0.60563 0.24004 0.17485 0.0
C1291 C 0.65457 0.27151 0.20609 0.0
C1292 C 0.55394 0.23348 0.11547 0.0
C1293 C 0.56362 0.23689 0.13164 0.0
C1294 C 0.59561 0.26996 0.15358 0.0
C1295 C 0.6258 0.25961 0.19449 0.0
C1296 C 0.61255 0.25735 0.17926 0.0
C1297 C 0.57781 0.24982 0.13206 0.0
C1298 C 0.58906 0.25257 0.14884 0.0
H1299 H 0.63375 0.24486 0.23788 0.0
H1300 H 0.61111 0.24248 0.21345 0.0
H1301 H 0.61219 0.28585 0.17179 0.0
H1302 H 0.57576 0.26359 0.08771 0.0
H1303 H 0.59277 0.26937 0.11573 0.0
C1304 C 0.25577 0.16818 0.68742 0.0
C1305 C 0.26195 0.18529 0.68139 0.0
C1306 C 0.25651 0.15304 0.67601 0.0
C1307 C 0.27997 0.13535 0.63596 0.0
H1308 H 0.23835 0.10304 0.63136 0.0
C1309 C 0.27463 0.08171 0.57928 0.0
C1310 C 0.26649 0.06482 0.58322 0.0
C1311 C 0.27439 0.0958 0.59192 0.0
C1312 C 0.25021 0.11174 0.63268 0.0
H1313 H 0.27398 0.19986 0.65875 0.0
H1314 H 0.27525 0.17344 0.63883 0.0
H1315 H 0.23738 0.12874 0.65218 0.0
H1316 H 0.25171 0.04945 0.60351 0.0
H1317 H 0.25158 0.07401 0.62588 0.0
H1318 H 0.29289 0.11838 0.61662 0.0
C1319 C 0.26986 0.17173 0.6524 0.0
C1320 C 0.24962 0.1265 0.64459 0.0
C1321 C 0.26897 0.1869 0.66374 0.0
C1322 C 0.25807 0.06233 0.60012 0.0
C1323 C 0.25794 0.07644 0.61287 0.0
C1324 C 0.28061 0.12053 0.62416 0.0
C1325 C 0.26361 0.15464 0.65839 0.0
C1326 C 0.26443 0.13858 0.64623 0.0
C1327 C 0.26607 0.09338 0.60891 0.0
C1328 C 0.26567 0.10863 0.62221 0.0
H1329 H 0.25015 0.16654 0.70089 0.0
H1330 H 0.2517 0.14003 0.68106 0.0
H1331 H 0.29172 0.14423 0.63715 0.0
H1332 H 0.28081 0.0842 0.56618 0.0
H1333 H 0.2804 0.10876 0.58818 0.0
C1334 C 0.35828 0.76861 0.18196 0.0
C1335 C 0.3466 0.75337 0.18184 0.0
C1336 C 0.37163 0.77068 0.16872 0.0
C1337 C 0.38402 0.75468 0.12265 0.0
H1338 H 0.43167 0.77345 0.13579 0.0
C1339 C 0.44444 0.75135 0.07379 0.0
C1340 C 0.45589 0.76669 0.07266 0.0
C1341 C 0.4311 0.75021 0.08709 0.0
C1342 C 0.41837 0.76837 0.13187 0.0
H1343 H 0.33983 0.72844 0.16749 0.0
H1344 H 0.36337 0.73176 0.14487 0.0
H1345 H 0.40852 0.77052 0.15908 0.0
H1346 H 0.46239 0.79279 0.0848 0.0
H1347 H 0.43897 0.79086 0.10796 0.0
H1348 H 0.39393 0.75235 0.09549 0.0
C1349 C 0.36206 0.74227 0.15502 0.0
C1350 C 0.40508 0.76671 0.14522 0.0
C1351 C 0.3487 0.74024 0.16819 0.0
C1352 C 0.45369 0.78086 0.0852 0.0
C1353 C 0.44039 0.77967 0.09858 0.0
C1354 C 0.39732 0.75627 0.10934 0.0
C1355 C 0.37367 0.75756 0.15504 0.0
C1356 C 0.38775 0.75975 0.1408 0.0
C1357 C 0.42891 0.76435 0.09965 0.0
C1358 C 0.41468 0.76305 0.11379 0.0
H1359 H 0.35719 0.77891 0.19235 0.0
H1360 H 0.38021 0.78271 0.16908 0.0
H1361 H 0.37074 0.74961 0.11865 0.0
H1362 H 0.44565 0.74027 0.06423 0.0
H1363 H 0.42261 0.73813 0.08765 0.0
C1364 C 0.76893 0.21485 0.37697 0.0
C1365 C 0.76873 0.21263 0.35795 0.0
C1366 C 0.77156 0.19994 0.38854 0.0
C1367 C 0.79122 0.15436 0.38967 0.0
H1368 H 0.76139 0.14708 0.43223 0.0
C1369 C 0.79434 0.08867 0.43268 0.0
C1370 C 0.79295 0.09024 0.45168 0.0
C1371 C 0.79131 0.10366 0.42135 0.0
C1372 C 0.77001 0.14903 0.42054 0.0
H1373 H 0.77125 0.19308 0.33614 0.0
H1374 H 0.77579 0.16705 0.35635 0.0
H1375 H 0.75618 0.17321 0.41235 0.0
H1376 H 0.78763 0.10882 0.47374 0.0
H1377 H 0.78262 0.13508 0.45401 0.0
H1378 H 0.80522 0.13037 0.39791 0.0
C1379 C 0.77395 0.18032 0.3623 0.0
C1380 C 0.76698 0.16399 0.40914 0.0
C1381 C 0.77117 0.19519 0.35075 0.0
C1382 C 0.78857 0.10715 0.45913 0.0
C1383 C 0.78565 0.12218 0.4478 0.0
C1384 C 0.79433 0.13948 0.40113 0.0
C1385 C 0.77423 0.18254 0.38132 0.0
C1386 C 0.77751 0.16677 0.39355 0.0
C1387 C 0.78694 0.12062 0.42876 0.0
C1388 C 0.78373 0.13658 0.41668 0.0
H1389 H 0.76695 0.22811 0.3829 0.0
H1390 H 0.77183 0.20208 0.40314 0.0
H1391 H 0.79973 0.1563 0.3779 0.0
H1392 H 0.79745 0.07574 0.42654 0.0
H1393 H 0.79211 0.10187 0.40674 0.0
C1394 C 0.36896 0.24089 0.83163 0.0
C1395 C 0.3501 0.23992 0.83372 0.0
C1396 C 0.38054 0.24024 0.84684 0.0
C1397 C 0.38188 0.24561 0.89716 0.0
H1398 H 0.42588 0.21781 0.89329 0.0
C1399 C 0.43873 0.24687 0.95236 0.0
C1400 C 0.44821 0.23072 0.95576 0.0
C1401 C 0.4259 0.24784 0.9382 0.0
C1402 C 0.41356 0.22546 0.8947 0.0
H1403 H 0.32859 0.23756 0.85343 0.0
H1404 H 0.34879 0.23622 0.87998 0.0
H1405 H 0.40535 0.21992 0.86722 0.0
H1406 H 0.45126 0.20279 0.94712 0.0
H1407 H 0.4285 0.2043 0.92291 0.0
H1408 H 0.38993 0.25076 0.92482 0.0
C1409 C 0.35465 0.2378 0.86661 0.0
C1410 C 0.4019 0.22691 0.87963 0.0
C1411 C 0.34307 0.23855 0.85139 0.0
C1412 C 0.44409 0.21539 0.94505 0.0
C1413 C 0.43122 0.21634 0.93096 0.0
C1414 C 0.39353 0.24411 0.91227 0.0
C1415 C 0.37355 0.2385 0.86451 0.0
C1416 C 0.38593 0.23704 0.88063 0.0
C1417 C 0.4222 0.23266 0.92713 0.0
C1418 C 0.40953 0.23402 0.91123 0.0
H1419 H 0.37478 0.24225 0.81822 0.0
H1420 H 0.395 0.24119 0.84473 0.0
H1421 H 0.36979 0.25366 0.89837 0.0
H1422 H 0.44143 0.25888 0.96047 0.0
H1423 H 0.41931 0.26067 0.93559 0.0
C1424 C 0.26233 0.83074 0.35023 0.0
C1425 C 0.27909 0.83031 0.34136 0.0
C1426 C 0.26004 0.84158 0.36563 0.0
C1427 C 0.28594 0.86653 0.40171 0.0
H1428 H 0.24153 0.89353 0.40644 0.0
C1429 C 0.27943 0.92789 0.44969 0.0
C1430 C 0.26321 0.92996 0.45926 0.0
C1431 C 0.28111 0.91418 0.43674 0.0
C1432 C 0.25391 0.88589 0.40547 0.0
H1433 H 0.30667 0.84075 0.34209 0.0
H1434 H 0.30253 0.86001 0.36848 0.0
H1435 H 0.24487 0.87274 0.38098 0.0
H1436 H 0.23622 0.91874 0.46301 0.0
H1437 H 0.23913 0.8949 0.4402 0.0
H1438 H 0.29513 0.88005 0.42597 0.0
C1439 C 0.2912 0.85178 0.36372 0.0
C1440 C 0.25583 0.87394 0.39086 0.0
C1441 C 0.2935 0.84091 0.34838 0.0
C1442 C 0.24883 0.9177 0.45576 0.0
C1443 C 0.25049 0.90404 0.44269 0.0
C1444 C 0.28406 0.87854 0.41625 0.0
C1445 C 0.27443 0.8523 0.37255 0.0
C1446 C 0.27196 0.86425 0.38867 0.0
C1447 C 0.26659 0.90224 0.4329 0.0
C1448 C 0.2681 0.88851 0.41819 0.0
H1449 H 0.25087 0.82289 0.34512 0.0
H1450 H 0.24698 0.84149 0.37217 0.0
H1451 H 0.29841 0.85903 0.40069 0.0
H1452 H 0.29065 0.93729 0.45168 0.0
H1453 H 0.29361 0.91336 0.42925 0.0
C1454 C 0.68282 0.76599 0.81906 0.0
C1455 C 0.70127 0.76711 0.82393 0.0
C1456 C 0.66952 0.76584 0.83243 0.0
C1457 C 0.66243 0.75775 0.88178 0.0
H1458 H 0.61872 0.78528 0.87303 0.0
C1459 C 0.6012 0.75356 0.92996 0.0
C1460 C 0.59201 0.76975 0.93355 0.0
C1461 C 0.61454 0.75306 0.91663 0.0
C1462 C 0.6309 0.77764 0.87577 0.0
H1463 H 0.72018 0.76901 0.84672 0.0
H1464 H 0.69699 0.76886 0.87006 0.0
H1465 H 0.64205 0.78482 0.84993 0.0
H1466 H 0.58962 0.79809 0.92578 0.0
H1467 H 0.61316 0.79732 0.90287 0.0
H1468 H 0.65146 0.75095 0.90783 0.0
C1469 C 0.6928 0.76779 0.8559 0.0
C1470 C 0.64419 0.77717 0.86241 0.0
C1471 C 0.70611 0.76788 0.84252 0.0
C1472 C 0.59654 0.78543 0.92351 0.0
C1473 C 0.60989 0.78494 0.9102 0.0
C1474 C 0.64914 0.75823 0.89516 0.0
C1475 C 0.67433 0.76687 0.85102 0.0
C1476 C 0.66013 0.76723 0.86524 0.0
C1477 C 0.61905 0.76874 0.90658 0.0
C1478 C 0.6332 0.76819 0.89233 0.0
H1479 H 0.67865 0.76509 0.80488 0.0
H1480 H 0.65545 0.76478 0.82819 0.0
H1481 H 0.67444 0.7498 0.88436 0.0
H1482 H 0.59821 0.74127 0.93757 0.0
H1483 H 0.62117 0.7403 0.91408 0.0
loop_
_geom_bond_atom_site_label_1
_geom_bond_atom_site_label_2
_geom_bond_distance
_geom_bond_site_symmetry_2
_ccdc_geom_bond_type
C0 C1 1.264 . S
C0 C5 1.479 . S
C0 C10 1.465 . S
C1 C0 1.264 . S
C1 C3 1.339 . S
C1 H28 0.931 . S
C2 C3 1.395 . S
C2 C4 1.320 . S
C3 C1 1.339 . S
C3 C2 1.395 . S
C3 H29 0.929 . S
C4 C2 1.320 . S
C4 C5 1.405 . S
C4 H30 0.930 . S
C5 C0 1.479 . S
C5 C4 1.405 . S
C5 H31 0.931 . S
U6 O7 2.454 . S
U6 O8 2.458 . S
U6 C9 2.984 . S
U6 C10 2.847 . S
U6 C23 2.882 . S
U6 O24 2.441 . S
U6 O25 2.420 . S
U6 O26 2.455 . S
U6 O27 2.449 . S
O7 U6 2.454 . S
O7 C9 1.353 . S
O8 U6 2.458 . S
O8 C9 1.286 . S
C9 U6 2.984 . S
C9 O7 1.353 . S
C9 O8 1.286 . S
C9 C11 1.363 . S
C10 C0 1.465 . S
C10 U6 2.847 . S
C10 O24 1.249 . S
C10 O25 1.202 . S
C11 C9 1.363 . S
C11 C13 1.408 . S
C11 C16 1.342 . S
C12 C13 1.310 . S
C12 C15 1.461 . S
C12 H32 0.932 . S
C13 C11 1.408 . S
C13 C12 1.310 . S
C13 H33 0.930 . S
C14 C15 1.474 . S
C14 C16 1.285 . S
C14 H34 0.929 . S
C15 C12 1.461 . S
C15 C14 1.474 . S
C16 C11 1.342 . S
C16 C14 1.285 . S
C16 H35 0.930 . S
C17 C20 1.424 . S
C17 C22 1.245 . S
C17 C23 1.428 . S
C18 C21 1.260 . S
C18 C22 1.477 . S
C18 H36 0.932 . S
C19 C20 1.384 . S
C19 C21 1.479 . S
C19 H37 0.929 . S
C20 C17 1.424 . S
C20 C19 1.384 . S
C20 H38 0.928 . S
C21 C18 1.260 . S
C21 C19 1.479 . S
C22 C17 1.245 . S
C22 C18 1.477 . S
C22 H39 0.932 . S
C23 U6 2.882 . S
C23 C17 1.428 . S
C23 O26 1.301 . S
C23 O27 1.282 . S
O24 U6 2.441 . S
O24 C10 1.249 . S
O25 U6 2.420 . S
O25 C10 1.202 . S
O26 U6 2.455 . S
O26 C23 1.301 . S
O27 U6 2.449 . S
O27 C23 1.282 . S
H28 C1 0.931 . S
H29 C3 0.929 . S
H30 C4 0.930 . S
H31 C5 0.931 . S
H32 C12 0.932 . S
H33 C13 0.930 . S
H34 C14 0.929 . S
H35 C16 0.930 . S
H36 C18 0.932 . S
H37 C19 0.929 . S
H38 C20 0.928 . S
H39 C22 0.932 . S
C40 C41 1.264 . S
C40 C45 1.479 . S
C40 C50 1.465 . S
C41 C40 1.264 . S
C41 C43 1.339 . S
C41 H68 0.931 . S
C42 C43 1.395 . S
C42 C44 1.320 . S
C43 C41 1.339 . S
C43 C42 1.395 . S
C43 H69 0.929 . S
C44 C42 1.320 . S
C44 C45 1.405 . S
C44 H70 0.930 . S
C45 C40 1.479 . S
C45 C44 1.405 . S
C45 H71 0.931 . S
U46 O47 2.454 . S
U46 O48 2.458 . S
U46 C49 2.984 . S
U46 C50 2.847 . S
U46 C63 2.882 . S
U46 O64 2.441 . S
U46 O65 2.420 . S
U46 O66 2.455 . S
U46 O67 2.449 . S
O47 U46 2.454 . S
O47 C49 1.353 . S
O48 U46 2.458 . S
O48 C49 1.286 . S
C49 U46 2.984 . S
C49 O47 1.353 . S
C49 O48 1.286 . S
C49 C51 1.363 . S
C50 C40 1.465 . S
C50 U46 2.847 . S
C50 O64 1.249 . S
C50 O65 1.202 . S
C51 C49 1.363 . S
C51 C53 1.408 . S
C51 C56 1.342 . S
C52 C53 1.310 . S
C52 C55 1.461 . S
C52 H72 0.932 . S
C53 C51 1.408 . S
C53 C52 1.310 . S
C53 H73 0.930 . S
C54 C55 1.474 . S
C54 C56 1.285 . S
C54 H74 0.929 . S
C55 C52 1.461 . S
C55 C54 1.474 . S
C56 C51 1.342 . S
C56 C54 1.285 . S
C56 H75 0.930 . S
C57 C60 1.424 . S
C57 C62 1.245 . S
C57 C63 1.428 . S
C58 C61 1.260 . S
C58 C62 1.477 . S
C58 H76 0.932 . S
C59 C60 1.384 . S
C59 C61 1.479 . S
C59 H77 0.929 . S
C60 C57 1.424 . S
C60 C59 1.384 . S
C60 H78 0.928 . S
C61 C58 1.260 . S
C61 C59 1.479 . S
C62 C57 1.245 . S
C62 C58 1.477 . S
C62 H79 0.932 . S
C63 U46 2.882 . S
C63 C57 1.428 . S
C63 O66 1.301 . S
C63 O67 1.282 . S
O64 U46 2.441 . S
O64 C50 1.249 . S
O65 U46 2.420 . S
O65 C50 1.202 . S
O66 U46 2.455 . S
O66 C63 1.301 . S
O67 U46 2.449 . S
O67 C63 1.282 . S
H68 C41 0.931 . S
H69 C43 0.929 . S
H70 C44 0.930 . S
H71 C45 0.931 . S
H72 C52 0.932 . S
H73 C53 0.930 . S
H74 C54 0.929 . S
H75 C56 0.930 . S
H76 C58 0.932 . S
H77 C59 0.929 . S
H78 C60 0.928 . S
H79 C62 0.932 . S
C80 C81 1.264 . S
C80 C85 1.479 . S
C80 C90 1.465 . S
C81 C80 1.264 . S
C81 C83 1.339 . S
C81 H108 0.931 . S
C82 C83 1.395 . S
C82 C84 1.320 . S
C83 C81 1.339 . S
C83 C82 1.395 . S
C83 H109 0.929 . S
C84 C82 1.320 . S
C84 C85 1.405 . S
C84 H110 0.930 . S
C85 C80 1.479 . S
C85 C84 1.405 . S
C85 H111 0.931 . S
U86 O87 2.454 . S
U86 O88 2.458 . S
U86 C89 2.984 . S
U86 C90 2.847 . S
U86 C103 2.882 . S
U86 O104 2.441 . S
U86 O105 2.420 . S
U86 O106 2.455 . S
U86 O107 2.449 . S
O87 U86 2.454 . S
O87 C89 1.353 . S
O88 U86 2.458 . S
O88 C89 1.286 . S
C89 U86 2.984 . S
C89 O87 1.353 . S
C89 O88 1.286 . S
C89 C91 1.363 . S
C90 C80 1.465 . S
C90 U86 2.847 . S
C90 O104 1.249 . S
C90 O105 1.202 . S
C91 C89 1.363 . S
C91 C93 1.408 . S
C91 C96 1.342 . S
C92 C93 1.310 . S
C92 C95 1.461 . S
C92 H112 0.932 . S
C93 C91 1.408 . S
C93 C92 1.310 . S
C93 H113 0.930 . S
C94 C95 1.474 . S
C94 C96 1.285 . S
C94 H114 0.929 . S
C95 C92 1.461 . S
C95 C94 1.474 . S
C96 C91 1.342 . S
C96 C94 1.285 . S
C96 H115 0.930 . S
C97 C100 1.424 . S
C97 C102 1.245 . S
C97 C103 1.428 . S
C98 C101 1.260 . S
C98 C102 1.477 . S
C98 H116 0.932 . S
C99 C100 1.384 . S
C99 C101 1.479 . S
C99 H117 0.929 . S
C100 C97 1.424 . S
C100 C99 1.384 . S
C100 H118 0.928 . S
C101 C98 1.260 . S
C101 C99 1.479 . S
C102 C97 1.245 . S
C102 C98 1.477 . S
C102 H119 0.932 . S
C103 U86 2.882 . S
C103 C97 1.428 . S
C103 O106 1.301 . S
C103 O107 1.282 . S
O104 U86 2.441 . S
O104 C90 1.249 . S
O105 U86 2.420 . S
O105 C90 1.202 . S
O106 U86 2.455 . S
O106 C103 1.301 . S
O107 U86 2.449 . S
O107 C103 1.282 . S
H108 C81 0.931 . S
H109 C83 0.929 . S
H110 C84 0.930 . S
H111 C85 0.931 . S
H112 C92 0.932 . S
H113 C93 0.930 . S
H114 C94 0.929 . S
H115 C96 0.930 . S
H116 C98 0.932 . S
H117 C99 0.929 . S
H118 C100 0.928 . S
H119 C102 0.932 . S
C120 C121 1.264 . S
C120 C125 1.479 . S
C120 C130 1.465 . S
C121 C120 1.264 . S
C121 C123 1.339 . S
C121 H148 0.931 . S
C122 C123 1.395 . S
C122 C124 1.320 . S
C123 C121 1.339 . S
C123 C122 1.395 . S
C123 H149 0.929 . S
C124 C122 1.320 . S
C124 C125 1.405 . S
C124 H150 0.930 . S
C125 C120 1.479 . S
C125 C124 1.405 . S
C125 H151 0.931 . S
U126 O127 2.454 . S
U126 O128 2.458 . S
U126 C129 2.984 . S
U126 C130 2.847 . S
U126 C143 2.882 . S
U126 O144 2.441 . S
U126 O145 2.420 . S
U126 O146 2.455 . S
U126 O147 2.449 . S
O127 U126 2.454 . S
O127 C129 1.353 . S
O128 U126 2.458 . S
O128 C129 1.286 . S
C129 U126 2.984 . S
C129 O127 1.353 . S
C129 O128 1.286 . S
C129 C131 1.363 . S
C130 C120 1.465 . S
C130 U126 2.847 . S
C130 O144 1.249 . S
C130 O145 1.202 . S
C131 C129 1.363 . S
C131 C133 1.408 . S
C131 C136 1.342 . S
C132 C133 1.310 . S
C132 C135 1.461 . S
C132 H152 0.932 . S
C133 C131 1.408 . S
C133 C132 1.310 . S
C133 H153 0.930 . S
C134 C135 1.474 . S
C134 C136 1.285 . S
C134 H154 0.929 . S
C135 C132 1.461 . S
C135 C134 1.474 . S
C136 C131 1.342 . S
C136 C134 1.285 . S
C136 H155 0.930 . S
C137 C140 1.424 . S
C137 C142 1.245 . S
C137 C143 1.428 . S
C138 C141 1.260 . S
C138 C142 1.477 . S
C138 H156 0.932 . S
C139 C140 1.384 . S
C139 C141 1.479 . S
C139 H157 0.929 . S
C140 C137 1.424 . S
C140 C139 1.384 . S
C140 H158 0.928 . S
C141 C138 1.260 . S
C141 C139 1.479 . S
C142 C137 1.245 . S
C142 C138 1.477 . S
C142 H159 0.932 . S
C143 U126 2.882 . S
C143 C137 1.428 . S
C143 O146 1.301 . S
C143 O147 1.282 . S
O144 U126 2.441 . S
O144 C130 1.249 . S
O145 U126 2.420 . S
O145 C130 1.202 . S
O146 U126 2.455 . S
O146 C143 1.301 . S
O147 U126 2.449 . S
O147 C143 1.282 . S
H148 C121 0.931 . S
H149 C123 0.929 . S
H150 C124 0.930 . S
H151 C125 0.931 . S
H152 C132 0.932 . S
H153 C133 0.930 . S
H154 C134 0.929 . S
H155 C136 0.930 . S
H156 C138 0.932 . S
H157 C139 0.929 . S
H158 C140 0.928 . S
H159 C142 0.932 . S
C160 C161 1.264 . S
C160 C165 1.479 . S
C160 C170 1.465 . S
C161 C160 1.264 . S
C161 C163 1.339 . S
C161 H188 0.931 . S
C162 C163 1.395 . S
C162 C164 1.320 . S
C163 C161 1.339 . S
C163 C162 1.395 . S
C163 H189 0.929 . S
C164 C162 1.320 . S
C164 C165 1.405 . S
C164 H190 0.930 . S
C165 C160 1.479 . S
C165 C164 1.405 . S
C165 H191 0.931 . S
U166 O167 2.454 . S
U166 O168 2.458 . S
U166 C169 2.984 . S
U166 C170 2.847 . S
U166 C183 2.882 . S
U166 O184 2.441 . S
U166 O185 2.420 . S
U166 O186 2.455 . S
U166 O187 2.449 . S
O167 U166 2.454 . S
O167 C169 1.353 . S
O168 U166 2.458 . S
O168 C169 1.286 . S
C169 U166 2.984 . S
C169 O167 1.353 . S
C169 O168 1.286 . S
C169 C171 1.363 . S
C170 C160 1.465 . S
C170 U166 2.847 . S
C170 O184 1.249 . S
C170 O185 1.202 . S
C171 C169 1.363 . S
C171 C173 1.408 . S
C171 C176 1.342 . S
C172 C173 1.310 . S
C172 C175 1.461 . S
C172 H192 0.932 . S
C173 C171 1.408 . S
C173 C172 1.310 . S
C173 H193 0.930 . S
C174 C175 1.474 . S
C174 C176 1.285 . S
C174 H194 0.929 . S
C175 C172 1.461 . S
C175 C174 1.474 . S
C176 C171 1.342 . S
C176 C174 1.285 . S
C176 H195 0.930 . S
C177 C180 1.424 . S
C177 C182 1.245 . S
C177 C183 1.428 . S
C178 C181 1.260 . S
C178 C182 1.477 . S
C178 H196 0.932 . S
C179 C180 1.384 . S
C179 C181 1.479 . S
C179 H197 0.929 . S
C180 C177 1.424 . S
C180 C179 1.384 . S
C180 H198 0.928 . S
C181 C178 1.260 . S
C181 C179 1.479 . S
C182 C177 1.245 . S
C182 C178 1.477 . S
C182 H199 0.932 . S
C183 U166 2.882 . S
C183 C177 1.428 . S
C183 O186 1.301 . S
C183 O187 1.282 . S
O184 U166 2.441 . S
O184 C170 1.249 . S
O185 U166 2.420 . S
O185 C170 1.202 . S
O186 U166 2.455 . S
O186 C183 1.301 . S
O187 U166 2.449 . S
O187 C183 1.282 . S
H188 C161 0.931 . S
H189 C163 0.929 . S
H190 C164 0.930 . S
H191 C165 0.931 . S
H192 C172 0.932 . S
H193 C173 0.930 . S
H194 C174 0.929 . S
H195 C176 0.930 . S
H196 C178 0.932 . S
H197 C179 0.929 . S
H198 C180 0.928 . S
H199 C182 0.932 . S
C200 C201 1.264 . S
C200 C205 1.479 . S
C200 C210 1.465 . S
C201 C200 1.264 . S
C201 C203 1.339 . S
C201 H228 0.931 . S
C202 C203 1.395 . S
C202 C204 1.320 . S
C203 C201 1.339 . S
C203 C202 1.395 . S
C203 H229 0.929 . S
C204 C202 1.320 . S
C204 C205 1.405 . S
C204 H230 0.930 . S
C205 C200 1.479 . S
C205 C204 1.405 . S
C205 H231 0.931 . S
U206 O207 2.454 . S
U206 O208 2.458 . S
U206 C209 2.984 . S
U206 C210 2.847 . S
U206 C223 2.882 . S
U206 O224 2.441 . S
U206 O225 2.420 . S
U206 O226 2.455 . S
U206 O227 2.449 . S
O207 U206 2.454 . S
O207 C209 1.353 . S
O208 U206 2.458 . S
O208 C209 1.286 . S
C209 U206 2.984 . S
C209 O207 1.353 . S
C209 O208 1.286 . S
C209 C211 1.363 . S
C210 C200 1.465 . S
C210 U206 2.847 . S
C210 O224 1.249 . S
C210 O225 1.202 . S
C211 C209 1.363 . S
C211 C213 1.408 . S
C211 C216 1.342 . S
C212 C213 1.310 . S
C212 C215 1.461 . S
C212 H232 0.932 . S
C213 C211 1.408 . S
C213 C212 1.310 . S
C213 H233 0.930 . S
C214 C215 1.474 . S
C214 C216 1.285 . S
C214 H234 0.929 . S
C215 C212 1.461 . S
C215 C214 1.474 . S
C216 C211 1.342 . S
C216 C214 1.285 . S
C216 H235 0.930 . S
C217 C220 1.424 . S
C217 C222 1.245 . S
C217 C223 1.428 . S
C218 C221 1.260 . S
C218 C222 1.477 . S
C218 H236 0.932 . S
C219 C220 1.384 . S
C219 C221 1.479 . S
C219 H237 0.929 . S
C220 C217 1.424 . S
C220 C219 1.384 . S
C220 H238 0.928 . S
C221 C218 1.260 . S
C221 C219 1.479 . S
C222 C217 1.245 . S
C222 C218 1.477 . S
C222 H239 0.932 . S
C223 U206 2.882 . S
C223 C217 1.428 . S
C223 O226 1.301 . S
C223 O227 1.282 . S
O224 U206 2.441 . S
O224 C210 1.249 . S
O225 U206 2.420 . S
O225 C210 1.202 . S
O226 U206 2.455 . S
O226 C223 1.301 . S
O227 U206 2.449 . S
O227 C223 1.282 . S
H228 C201 0.931 . S
H229 C203 0.929 . S
H230 C204 0.930 . S
H231 C205 0.931 . S
H232 C212 0.932 . S
H233 C213 0.930 . S
H234 C214 0.929 . S
H235 C216 0.930 . S
H236 C218 0.932 . S
H237 C219 0.929 . S
H238 C220 0.928 . S
H239 C222 0.932 . S
C240 C241 1.264 . S
C240 C245 1.479 . S
C240 C250 1.465 . S
C241 C240 1.264 . S
C241 C243 1.339 . S
C241 H268 0.931 . S
C242 C243 1.395 . S
C242 C244 1.320 . S
C243 C241 1.339 . S
C243 C242 1.395 . S
C243 H269 0.929 . S
C244 C242 1.320 . S
C244 C245 1.405 . S
C244 H270 0.930 . S
C245 C240 1.479 . S
C245 C244 1.405 . S
C245 H271 0.931 . S
U246 O247 2.454 . S
U246 O248 2.458 . S
U246 C249 2.984 . S
U246 C250 2.847 . S
U246 C263 2.882 . S
U246 O264 2.441 . S
U246 O265 2.420 . S
U246 O266 2.455 . S
U246 O267 2.449 . S
O247 U246 2.454 . S
O247 C249 1.353 . S
O248 U246 2.458 . S
O248 C249 1.286 . S
C249 U246 2.984 . S
C249 O247 1.353 . S
C249 O248 1.286 . S
C249 C251 1.363 . S
C250 C240 1.465 . S
C250 U246 2.847 . S
C250 O264 1.249 . S
C250 O265 1.202 . S
C251 C249 1.363 . S
C251 C253 1.408 . S
C251 C256 1.342 . S
C252 C253 1.310 . S
C252 C255 1.461 . S
C252 H272 0.932 . S
C253 C251 1.408 . S
C253 C252 1.310 . S
C253 H273 0.930 . S
C254 C255 1.474 . S
C254 C256 1.285 . S
C254 H274 0.929 . S
C255 C252 1.461 . S
C255 C254 1.474 . S
C256 C251 1.342 . S
C256 C254 1.285 . S
C256 H275 0.930 . S
C257 C260 1.424 . S
C257 C262 1.245 . S
C257 C263 1.428 . S
C258 C261 1.260 . S
C258 C262 1.477 . S
C258 H276 0.932 . S
C259 C260 1.384 . S
C259 C261 1.479 . S
C259 H277 0.929 . S
C260 C257 1.424 . S
C260 C259 1.384 . S
C260 H278 0.928 . S
C261 C258 1.260 . S
C261 C259 1.479 . S
C262 C257 1.245 . S
C262 C258 1.477 . S
C262 H279 0.932 . S
C263 U246 2.882 . S
C263 C257 1.428 . S
C263 O266 1.301 . S
C263 O267 1.282 . S
O264 U246 2.441 . S
O264 C250 1.249 . S
O265 U246 2.420 . S
O265 C250 1.202 . S
O266 U246 2.455 . S
O266 C263 1.301 . S
O267 U246 2.449 . S
O267 C263 1.282 . S
H268 C241 0.931 . S
H269 C243 0.929 . S
H270 C244 0.930 . S
H271 C245 0.931 . S
H272 C252 0.932 . S
H273 C253 0.930 . S
H274 C254 0.929 . S
H275 C256 0.930 . S
H276 C258 0.932 . S
H277 C259 0.929 . S
H278 C260 0.928 . S
H279 C262 0.932 . S
C280 C281 1.264 . S
C280 C285 1.479 . S
C280 C290 1.465 . S
C281 C280 1.264 . S
C281 C283 1.339 . S
C281 H308 0.931 . S
C282 C283 1.395 . S
C282 C284 1.320 . S
C283 C281 1.339 . S
C283 C282 1.395 . S
C283 H309 0.929 . S
C284 C282 1.320 . S
C284 C285 1.405 . S
C284 H310 0.930 . S
C285 C280 1.479 . S
C285 C284 1.405 . S
C285 H311 0.931 . S
U286 O287 2.454 . S
U286 O288 2.458 . S
U286 C289 2.984 . S
U286 C290 2.847 . S
U286 C303 2.882 . S
U286 O304 2.441 . S
U286 O305 2.420 . S
U286 O306 2.455 . S
U286 O307 2.449 . S
O287 U286 2.454 . S
O287 C289 1.353 . S
O288 U286 2.458 . S
O288 C289 1.286 . S
C289 U286 2.984 . S
C289 O287 1.353 . S
C289 O288 1.286 . S
C289 C291 1.363 . S
C290 C280 1.465 . S
C290 U286 2.847 . S
C290 O304 1.249 . S
C290 O305 1.202 . S
C291 C289 1.363 . S
C291 C293 1.408 . S
C291 C296 1.342 . S
C292 C293 1.310 . S
C292 C295 1.461 . S
C292 H312 0.932 . S
C293 C291 1.408 . S
C293 C292 1.310 . S
C293 H313 0.930 . S
C294 C295 1.474 . S
C294 C296 1.285 . S
C294 H314 0.929 . S
C295 C292 1.461 . S
C295 C294 1.474 . S
C296 C291 1.342 . S
C296 C294 1.285 . S
C296 H315 0.930 . S
C297 C300 1.424 . S
C297 C302 1.245 . S
C297 C303 1.428 . S
C298 C301 1.260 . S
C298 C302 1.477 . S
C298 H316 0.932 . S
C299 C300 1.384 . S
C299 C301 1.479 . S
C299 H317 0.929 . S
C300 C297 1.424 . S
C300 C299 1.384 . S
C300 H318 0.928 . S
C301 C298 1.260 . S
C301 C299 1.479 . S
C302 C297 1.245 . S
C302 C298 1.477 . S
C302 H319 0.932 . S
C303 U286 2.882 . S
C303 C297 1.428 . S
C303 O306 1.301 . S
C303 O307 1.282 . S
O304 U286 2.441 . S
O304 C290 1.249 . S
O305 U286 2.420 . S
O305 C290 1.202 . S
O306 U286 2.455 . S
O306 C303 1.301 . S
O307 U286 2.449 . S
O307 C303 1.282 . S
H308 C281 0.931 . S
H309 C283 0.929 . S
H310 C284 0.930 . S
H311 C285 0.931 . S
H312 C292 0.932 . S
H313 C293 0.930 . S
H314 C294 0.929 . S
H315 C296 0.930 . S
H316 C298 0.932 . S
H317 C299 0.929 . S
H318 C300 0.928 . S
H319 C302 0.932 . S
H320 O346 0.865 . S
H321 O349 0.854 . S
H322 C357 0.930 . S
H323 C358 0.930 . S
H324 C360 0.930 . S
H325 C361 0.930 . S
H326 C363 0.931 . S
H327 C364 0.930 . S
H328 C366 0.930 . S
H329 C367 0.929 . S
H330 C369 0.930 . S
H331 C370 0.931 . S
H332 C372 0.930 . S
H333 C373 0.929 . S
H334 C375 0.931 . S
H335 C376 0.930 . S
H336 C378 0.930 . S
H337 C379 0.932 . S
H338 C381 0.930 . S
H339 C382 0.929 . S
H340 C384 0.931 . S
H341 C385 0.930 . S
H342 C387 0.929 . S
H343 C388 0.931 . S
H344 C390 0.930 . S
H345 C391 0.929 . S
O346 H320 0.865 . S
O346 C392 1.313 . S
O347 C392 1.209 . S
O348 C393 1.199 . S
O349 H321 0.854 . S
O349 C393 1.297 . S
C350 C351 1.404 1_455 S
C350 C355 1.397 1_455 S
C350 C356 1.492 . S
C351 C350 1.404 1_655 S
C351 C352 1.396 . S
C351 C362 1.492 . S
C352 C351 1.396 . S
C352 C353 1.397 . S
C352 C368 1.509 . S
C353 C352 1.397 . S
C353 C354 1.412 . S
C353 C374 1.485 . S
C354 C353 1.412 . S
C354 C355 1.388 . S
C354 C380 1.490 . S
C355 C350 1.397 1_655 S
C355 C354 1.388 . S
C355 C386 1.519 1_655 S
C356 C350 1.492 . S
C356 C357 1.363 . S
C356 C361 1.390 . S
C357 H322 0.930 . S
C357 C356 1.363 . S
C357 C358 1.372 . S
C358 H323 0.930 . S
C358 C357 1.372 . S
C358 C359 1.383 . S
C359 C358 1.383 . S
C359 C360 1.395 . S
C360 H324 0.930 . S
C360 C359 1.395 . S
C360 C361 1.362 . S
C361 H325 0.930 . S
C361 C356 1.390 . S
C361 C360 1.362 . S
C362 C351 1.492 . S
C362 C363 1.377 . S
C362 C367 1.397 1_655 S
C363 H326 0.931 . S
C363 C362 1.377 . S
C363 C364 1.376 . S
C364 H327 0.930 . S
C364 C363 1.376 . S
C364 C365 1.376 1_655 S
C365 C364 1.376 1_455 S
C365 C366 1.378 . S
C365 C392 1.486 . S
C366 H328 0.930 . S
C366 C365 1.378 . S
C366 C367 1.376 . S
C367 H329 0.929 . S
C367 C362 1.397 1_455 S
C367 C366 1.376 . S
C368 C352 1.509 . S
C368 C369 1.391 . S
C368 C373 1.386 . S
C369 H330 0.930 . S
C369 C368 1.391 . S
C369 C370 1.375 . S
C370 H331 0.931 . S
C370 C369 1.375 . S
C370 C371 1.375 . S
C371 C370 1.375 . S
C371 C372 1.361 . S
C372 H332 0.930 . S
C372 C371 1.361 . S
C372 C373 1.399 . S
C373 H333 0.929 . S
C373 C368 1.386 . S
C373 C372 1.399 . S
C374 C353 1.485 . S
C374 C375 1.394 . S
C374 C379 1.360 . S
C375 H334 0.931 . S
C375 C374 1.394 . S
C375 C376 1.372 . S
C376 H335 0.930 . S
C376 C375 1.372 . S
C376 C377 1.397 . S
C377 C376 1.397 . S
C377 C378 1.390 . S
C377 C393 1.476 . S
C378 H336 0.930 . S
C378 C377 1.390 . S
C378 C379 1.366 . S
C379 H337 0.932 . S
C379 C374 1.360 . S
C379 C378 1.366 . S
C380 C354 1.490 . S
C380 C381 1.380 . S
C380 C385 1.386 . S
C381 H338 0.930 . S
C381 C380 1.380 . S
C381 C382 1.381 . S
C382 H339 0.929 . S
C382 C381 1.381 . S
C382 C383 1.371 . S
C383 C382 1.371 . S
C383 C384 1.380 . S
C384 H340 0.931 . S
C384 C383 1.380 . S
C384 C385 1.387 . S
C385 H341 0.930 . S
C385 C380 1.386 . S
C385 C384 1.387 . S
C386 C355 1.519 1_455 S
C386 C387 1.377 . S
C386 C391 1.361 . S
C387 H342 0.929 . S
C387 C386 1.377 . S
C387 C388 1.386 . S
C388 H343 0.931 . S
C388 C387 1.386 . S
C388 C389 1.363 . S
C389 C388 1.363 . S
C389 C390 1.385 . S
C390 H344 0.930 . S
C390 C389 1.385 . S
C390 C391 1.396 . S
C391 H345 0.929 . S
C391 C386 1.361 . S
C391 C390 1.396 . S
C392 O346 1.313 . S
C392 O347 1.209 . S
C392 C365 1.486 . S
C393 O348 1.199 . S
C393 O349 1.297 . S
C393 C377 1.476 . S
H394 O420 0.856 . S
H395 O423 0.854 . S
H396 C431 0.930 . S
H397 C432 0.930 . S
H398 C434 0.930 . S
H399 C435 0.930 . S
H400 C437 0.931 . S
H401 C438 0.930 . S
H402 C440 0.930 . S
H403 C441 0.929 . S
H404 C443 0.930 . S
H405 C444 0.931 . S
H406 C446 0.930 . S
H407 C447 0.929 . S
H408 C449 0.931 . S
H409 C450 0.930 . S
H410 C452 0.930 . S
H411 C453 0.932 . S
H412 C455 0.930 . S
H413 C456 0.929 . S
H414 C458 0.931 . S
H415 C459 0.930 . S
H416 C461 0.929 . S
H417 C462 0.931 . S
H418 C464 0.930 . S
H419 C465 0.929 . S
O420 H394 0.856 . S
O420 C466 1.300 . S
O421 C466 1.209 . S
O422 C467 1.199 . S
O423 H395 0.854 . S
O423 C467 1.297 . S
C424 C425 1.404 . S
C424 C429 1.397 . S
C424 C430 1.492 . S
C425 C424 1.404 . S
C425 C426 1.389 1_455 S
C425 C436 1.492 . S
C426 C425 1.389 1_655 S
C426 C427 1.400 . S
C426 C442 1.513 . S
C427 C426 1.400 . S
C427 C428 1.412 1_655 S
C427 C448 1.485 . S
C428 C427 1.412 1_455 S
C428 C429 1.388 . S
C428 C454 1.490 1_455 S
C429 C424 1.397 . S
C429 C428 1.388 . S
C429 C460 1.519 . S
C430 C424 1.492 . S
C430 C431 1.363 . S
C430 C435 1.390 . S
C431 H396 0.930 . S
C431 C430 1.363 . S
C431 C432 1.372 . S
C432 H397 0.930 . S
C432 C431 1.372 . S
C432 C433 1.383 . S
C433 C432 1.383 . S
C433 C434 1.395 . S
C434 H398 0.930 . S
C434 C433 1.395 . S
C434 C435 1.362 . S
C435 H399 0.930 . S
C435 C430 1.390 . S
C435 C434 1.362 . S
C436 C425 1.492 . S
C436 C437 1.377 . S
C436 C441 1.397 . S
C437 H400 0.931 . S
C437 C436 1.377 . S
C437 C438 1.376 . S
C438 H401 0.930 . S
C438 C437 1.376 . S
C438 C439 1.376 . S
C439 C438 1.376 . S
C439 C440 1.378 . S
C439 C466 1.486 . S
C440 H402 0.930 . S
C440 C439 1.378 . S
C440 C441 1.376 . S
C441 H403 0.929 . S
C441 C436 1.397 . S
C441 C440 1.376 . S
C442 C426 1.513 . S
C442 C443 1.391 . S
C442 C447 1.386 . S
C443 H404 0.930 . S
C443 C442 1.391 . S
C443 C444 1.375 . S
C444 H405 0.931 . S
C444 C443 1.375 . S
C444 C445 1.375 . S
C445 C444 1.375 . S
C445 C446 1.361 . S
C446 H406 0.930 . S
C446 C445 1.361 . S
C446 C447 1.399 . S
C447 H407 0.929 . S
C447 C442 1.386 . S
C447 C446 1.399 . S
C448 C427 1.485 . S
C448 C449 1.394 . S
C448 C453 1.360 . S
C449 H408 0.931 . S
C449 C448 1.394 . S
C449 C450 1.372 . S
C450 H409 0.930 . S
C450 C449 1.372 . S
C450 C451 1.397 . S
C451 C450 1.397 . S
C451 C452 1.390 . S
C451 C467 1.476 . S
C452 H410 0.930 . S
C452 C451 1.390 . S
C452 C453 1.366 . S
C453 H411 0.932 . S
C453 C448 1.360 . S
C453 C452 1.366 . S
C454 C428 1.490 1_655 S
C454 C455 1.380 1_655 S
C454 C459 1.386 . S
C455 H412 0.930 . S
C455 C454 1.380 1_455 S
C455 C456 1.381 1_455 S
C456 H413 0.929 . S
C456 C455 1.381 1_655 S
C456 C457 1.371 . S
C457 C456 1.371 . S
C457 C458 1.380 . S
C458 H414 0.931 . S
C458 C457 1.380 . S
C458 C459 1.387 . S
C459 H415 0.930 . S
C459 C454 1.386 . S
C459 C458 1.387 . S
C460 C429 1.519 . S
C460 C461 1.377 . S
C460 C465 1.361 . S
C461 H416 0.929 . S
C461 C460 1.377 . S
C461 C462 1.386 . S
C462 H417 0.931 . S
C462 C461 1.386 . S
C462 C463 1.363 . S
C463 C462 1.363 . S
C463 C464 1.385 . S
C464 H418 0.930 . S
C464 C463 1.385 . S
C464 C465 1.396 . S
C465 H419 0.929 . S
C465 C460 1.361 . S
C465 C464 1.396 . S
C466 O420 1.300 . S
C466 O421 1.209 . S
C466 C439 1.486 . S
C467 O422 1.199 . S
C467 O423 1.297 . S
C467 C451 1.476 . S
H468 O494 0.856 . S
H469 O497 0.854 . S
H470 C505 0.966 . S
H471 C506 0.930 . S
H472 C508 0.930 . S
H473 C509 0.930 . S
H474 C511 0.931 . S
H475 C512 0.930 . S
H476 C514 0.930 1_565 S
H477 C515 0.929 . S
H478 C517 0.930 . S
H479 C518 0.931 . S
H480 C520 0.930 . S
H481 C521 0.929 . S
H482 C523 0.931 . S
H483 C524 0.930 . S
H484 C526 0.930 . S
H485 C527 0.932 . S
H486 C529 0.930 . S
H487 C530 0.929 . S
H488 C532 0.931 . S
H489 C533 0.930 . S
H490 C535 0.929 . S
H491 C536 0.931 . S
H492 C538 0.930 . S
H493 C539 0.929 . S
O494 H468 0.856 . S
O494 C540 1.300 . S
O495 C540 1.209 1_565 S
O496 C541 1.199 . S
O497 H469 0.854 . S
O497 C541 1.297 . S
C498 C499 1.404 . S
C498 C503 1.397 . S
C498 C504 1.492 1_545 S
C499 C498 1.404 . S
C499 C500 1.396 . S
C499 C510 1.492 . S
C500 C499 1.396 . S
C500 C501 1.397 . S
C500 C516 1.509 . S
C501 C500 1.397 . S
C501 C502 1.412 . S
C501 C522 1.485 . S
C502 C501 1.412 . S
C502 C503 1.388 . S
C502 C528 1.490 . S
C503 C498 1.397 . S
C503 C502 1.388 . S
C503 C534 1.519 . S
C504 C498 1.492 1_565 S
C504 C505 1.363 . S
C504 C509 1.390 . S
C505 H470 0.966 . S
C505 C504 1.363 . S
C505 C506 1.372 . S
C506 H471 0.930 . S
C506 C505 1.372 . S
C506 C507 1.383 . S
C507 C506 1.383 . S
C507 C508 1.395 . S
C508 H472 0.930 . S
C508 C507 1.395 . S
C508 C509 1.362 . S
C509 H473 0.930 . S
C509 C504 1.390 . S
C509 C508 1.362 . S
C510 C499 1.492 . S
C510 C511 1.377 . S
C510 C515 1.397 . S
C511 H474 0.931 . S
C511 C510 1.377 . S
C511 C512 1.376 . S
C512 H475 0.930 . S
C512 C511 1.376 . S
C512 C513 1.376 . S
C513 C512 1.376 . S
C513 C514 1.378 . S
C513 C540 1.486 . S
C514 H476 0.930 1_545 S
C514 C513 1.378 . S
C514 C515 1.376 . S
C515 H477 0.929 . S
C515 C510 1.397 . S
C515 C514 1.376 . S
C516 C500 1.509 . S
C516 C517 1.391 . S
C516 C521 1.386 . S
C517 H478 0.930 . S
C517 C516 1.391 . S
C517 C518 1.375 . S
C518 H479 0.931 . S
C518 C517 1.375 . S
C518 C519 1.375 . S
C519 C518 1.375 . S
C519 C520 1.361 . S
C520 H480 0.930 . S
C520 C519 1.361 . S
C520 C521 1.399 . S
C521 H481 0.929 . S
C521 C516 1.386 . S
C521 C520 1.399 . S
C522 C501 1.485 . S
C522 C523 1.394 . S
C522 C527 1.360 . S
C523 H482 0.931 . S
C523 C522 1.394 . S
C523 C524 1.372 . S
C524 H483 0.930 . S
C524 C523 1.372 . S
C524 C525 1.397 . S
C525 C524 1.397 . S
C525 C526 1.390 . S
C525 C541 1.476 . S
C526 H484 0.930 . S
C526 C525 1.390 . S
C526 C527 1.366 . S
C527 H485 0.932 . S
C527 C522 1.360 . S
C527 C526 1.366 . S
C528 C502 1.490 . S
C528 C529 1.380 . S
C528 C533 1.386 . S
C529 H486 0.930 . S
C529 C528 1.380 . S
C529 C530 1.381 . S
C530 H487 0.929 . S
C530 C529 1.381 . S
C530 C531 1.371 . S
C531 C530 1.371 . S
C531 C532 1.380 . S
C532 H488 0.931 . S
C532 C531 1.380 . S
C532 C533 1.387 . S
C533 H489 0.930 . S
C533 C528 1.386 . S
C533 C532 1.387 . S
C534 C503 1.519 . S
C534 C535 1.377 1_545 S
C534 C539 1.361 . S
C535 H490 0.929 . S
C535 C534 1.377 1_565 S
C535 C536 1.386 . S
C536 H491 0.931 . S
C536 C535 1.386 . S
C536 C537 1.363 . S
C537 C536 1.363 . S
C537 C538 1.385 . S
C538 H492 0.930 . S
C538 C537 1.385 . S
C538 C539 1.396 1_565 S
C539 H493 0.929 . S
C539 C534 1.361 . S
C539 C538 1.396 1_545 S
C540 O494 1.300 . S
C540 O495 1.209 1_545 S
C540 C513 1.486 . S
C541 O496 1.199 . S
C541 O497 1.297 . S
C541 C525 1.476 . S
H542 O568 0.856 . S
H543 O571 0.854 . S
H544 C579 0.930 . S
H545 C580 0.930 . S
H546 C582 0.930 . S
H547 C583 0.930 . S
H548 C585 0.931 . S
H549 C586 0.930 . S
H550 C588 0.930 . S
H551 C589 0.929 . S
H552 C591 0.930 . S
H553 C592 0.931 . S
H554 C594 0.930 . S
H555 C595 0.929 . S
H556 C597 0.931 . S
H557 C598 0.930 . S
H558 C600 0.930 . S
H559 C601 0.932 1_556 S
H560 C603 0.930 . S
H561 C604 0.929 . S
H562 C606 0.931 . S
H563 C607 0.930 . S
H564 C609 0.929 . S
H565 C610 0.931 . S
H566 C612 0.930 . S
H567 C613 0.929 . S
O568 H542 0.856 . S
O568 C614 1.300 . S
O569 C614 1.209 . S
O570 C615 1.199 . S
O571 H543 0.854 . S
O571 C615 1.297 . S
C572 C573 1.404 . S
C572 C577 1.397 1_556 S
C572 C578 1.492 . S
C573 C572 1.404 . S
C573 C574 1.396 . S
C573 C584 1.492 . S
C574 C573 1.396 . S
C574 C575 1.397 1_556 S
C574 C590 1.509 . S
C575 C574 1.397 1_554 S
C575 C576 1.412 . S
C575 C596 1.485 . S
C576 C575 1.412 . S
C576 C577 1.388 . S
C576 C602 1.490 . S
C577 C572 1.397 1_554 S
C577 C576 1.388 . S
C577 C608 1.519 . S
C578 C572 1.492 . S
C578 C579 1.363 . S
C578 C583 1.390 . S
C579 H544 0.930 . S
C579 C578 1.363 . S
C579 C580 1.372 . S
C580 H545 0.930 . S
C580 C579 1.372 . S
C580 C581 1.383 . S
C581 C580 1.383 . S
C581 C582 1.395 . S
C582 H546 0.930 . S
C582 C581 1.395 . S
C582 C583 1.362 . S
C583 H547 0.930 . S
C583 C578 1.390 . S
C583 C582 1.362 . S
C584 C573 1.492 . S
C584 C585 1.377 . S
C584 C589 1.397 . S
C585 H548 0.931 . S
C585 C584 1.377 . S
C585 C586 1.376 . S
C586 H549 0.930 . S
C586 C585 1.376 . S
C586 C587 1.376 . S
C587 C586 1.376 . S
C587 C588 1.378 . S
C587 C614 1.486 . S
C588 H550 0.930 . S
C588 C587 1.378 . S
C588 C589 1.376 . S
C589 H551 0.929 . S
C589 C584 1.397 . S
C589 C588 1.376 . S
C590 C574 1.509 . S
C590 C591 1.391 . S
C590 C595 1.386 . S
C591 H552 0.930 . S
C591 C590 1.391 . S
C591 C592 1.375 . S
C592 H553 0.931 . S
C592 C591 1.375 . S
C592 C593 1.375 . S
C593 C592 1.375 . S
C593 C594 1.361 . S
C594 H554 0.930 . S
C594 C593 1.361 . S
C594 C595 1.399 . S
C595 H555 0.929 . S
C595 C590 1.386 . S
C595 C594 1.399 . S
C596 C575 1.485 . S
C596 C597 1.394 . S
C596 C601 1.360 . S
C597 H556 0.931 . S
C597 C596 1.394 . S
C597 C598 1.372 . S
C598 H557 0.930 . S
C598 C597 1.372 . S
C598 C599 1.397 . S
C599 C598 1.397 . S
C599 C600 1.390 . S
C599 C615 1.476 . S
C600 H558 0.930 . S
C600 C599 1.390 . S
C600 C601 1.366 . S
C601 H559 0.932 1_554 S
C601 C596 1.360 . S
C601 C600 1.366 . S
C602 C576 1.490 . S
C602 C603 1.380 . S
C602 C607 1.386 . S
C603 H560 0.930 . S
C603 C602 1.380 . S
C603 C604 1.381 . S
C604 H561 0.929 . S
C604 C603 1.381 . S
C604 C605 1.371 . S
C605 C604 1.371 . S
C605 C606 1.380 . S
C606 H562 0.931 . S
C606 C605 1.380 . S
C606 C607 1.387 . S
C607 H563 0.930 . S
C607 C602 1.386 . S
C607 C606 1.387 . S
C608 C577 1.519 . S
C608 C609 1.377 . S
C608 C613 1.361 . S
C609 H564 0.929 . S
C609 C608 1.377 . S
C609 C610 1.386 . S
C610 H565 0.931 . S
C610 C609 1.386 . S
C610 C611 1.363 . S
C611 C610 1.363 . S
C611 C612 1.385 . S
C612 H566 0.930 . S
C612 C611 1.385 . S
C612 C613 1.396 . S
C613 H567 0.929 . S
C613 C608 1.361 . S
C613 C612 1.396 . S
C614 O568 1.300 . S
C614 O569 1.209 . S
C614 C587 1.486 . S
C615 O570 1.199 . S
C615 O571 1.297 . S
C615 C599 1.476 . S
H616 O642 0.856 . S
H617 O645 0.854 . S
H618 C653 0.930 . S
H619 C654 0.930 . S
H620 C656 0.930 . S
H621 C657 0.930 . S
H622 C659 0.931 . S
H623 C660 0.930 . S
H624 C662 0.930 1_565 S
H625 C663 0.929 . S
H626 C665 0.930 . S
H627 C666 0.931 . S
H628 C668 0.930 . S
H629 C669 0.929 . S
H630 C671 0.931 . S
H631 C672 0.930 . S
H632 C674 0.930 . S
H633 C675 0.932 . S
H634 C677 0.930 . S
H635 C678 0.929 . S
H636 C680 0.931 . S
H637 C681 0.930 . S
H638 C683 0.929 . S
H639 C684 0.931 . S
H640 C686 0.930 . S
H641 C687 0.929 . S
O642 H616 0.856 . S
O642 C688 1.300 . S
O643 C688 1.209 1_565 S
O644 C689 1.199 . S
O645 H617 0.854 . S
O645 C689 1.297 . S
C646 C647 1.404 . S
C646 C651 1.397 . S
C646 C652 1.492 1_545 S
C647 C646 1.404 . S
C647 C648 1.396 . S
C647 C658 1.492 . S
C648 C647 1.396 . S
C648 C649 1.397 . S
C648 C664 1.509 . S
C649 C648 1.397 . S
C649 C650 1.412 . S
C649 C670 1.485 . S
C650 C649 1.412 . S
C650 C651 1.388 . S
C650 C676 1.490 . S
C651 C646 1.397 . S
C651 C650 1.388 . S
C651 C682 1.519 1_545 S
C652 C646 1.492 1_565 S
C652 C653 1.363 . S
C652 C657 1.390 . S
C653 H618 0.930 . S
C653 C652 1.363 . S
C653 C654 1.372 . S
C654 H619 0.930 . S
C654 C653 1.372 . S
C654 C655 1.383 . S
C655 C654 1.383 . S
C655 C656 1.395 . S
C656 H620 0.930 . S
C656 C655 1.395 . S
C656 C657 1.362 . S
C657 H621 0.930 . S
C657 C652 1.390 . S
C657 C656 1.362 . S
C658 C647 1.492 . S
C658 C659 1.377 . S
C658 C663 1.397 . S
C659 H622 0.931 . S
C659 C658 1.377 . S
C659 C660 1.376 . S
C660 H623 0.930 . S
C660 C659 1.376 . S
C660 C661 1.376 . S
C661 C660 1.376 . S
C661 C662 1.378 . S
C661 C688 1.486 . S
C662 H624 0.930 1_545 S
C662 C661 1.378 . S
C662 C663 1.376 . S
C663 H625 0.929 . S
C663 C658 1.397 . S
C663 C662 1.376 . S
C664 C648 1.509 . S
C664 C665 1.391 . S
C664 C669 1.386 . S
C665 H626 0.930 . S
C665 C664 1.391 . S
C665 C666 1.375 . S
C666 H627 0.931 . S
C666 C665 1.375 . S
C666 C667 1.375 . S
C667 C666 1.375 . S
C667 C668 1.361 . S
C668 H628 0.930 . S
C668 C667 1.361 . S
C668 C669 1.399 . S
C669 H629 0.929 . S
C669 C664 1.386 . S
C669 C668 1.399 . S
C670 C649 1.485 . S
C670 C671 1.394 . S
C670 C675 1.360 . S
C671 H630 0.931 . S
C671 C670 1.394 . S
C671 C672 1.372 . S
C672 H631 0.930 . S
C672 C671 1.372 . S
C672 C673 1.397 . S
C673 C672 1.397 . S
C673 C674 1.390 . S
C673 C689 1.476 . S
C674 H632 0.930 . S
C674 C673 1.390 . S
C674 C675 1.366 . S
C675 H633 0.932 . S
C675 C670 1.360 . S
C675 C674 1.366 . S
C676 C650 1.490 . S
C676 C677 1.380 . S
C676 C681 1.386 . S
C677 H634 0.930 . S
C677 C676 1.380 . S
C677 C678 1.381 . S
C678 H635 0.929 . S
C678 C677 1.381 . S
C678 C679 1.371 . S
C679 C678 1.371 . S
C679 C680 1.380 . S
C680 H636 0.931 . S
C680 C679 1.380 . S
C680 C681 1.387 . S
C681 H637 0.930 . S
C681 C676 1.386 . S
C681 C680 1.387 . S
C682 C651 1.519 1_565 S
C682 C683 1.377 . S
C682 C687 1.361 . S
C683 H638 0.929 . S
C683 C682 1.377 . S
C683 C684 1.386 . S
C684 H639 0.931 . S
C684 C683 1.386 . S
C684 C685 1.363 . S
C685 C684 1.363 . S
C685 C686 1.385 . S
C686 H640 0.930 . S
C686 C685 1.385 . S
C686 C687 1.396 . S
C687 H641 0.929 . S
C687 C682 1.361 . S
C687 C686 1.396 . S
C688 O642 1.300 . S
C688 O643 1.209 1_545 S
C688 C661 1.486 . S
C689 O644 1.199 . S
C689 O645 1.297 . S
C689 C673 1.476 . S
H690 O716 0.856 . S
H691 O719 0.854 . S
H692 C727 0.930 . S
H693 C728 0.930 . S
H694 C730 0.930 . S
H695 C731 0.930 . S
H696 C733 0.931 . S
H697 C734 0.930 . S
H698 C736 0.930 . S
H699 C737 0.929 . S
H700 C739 0.930 . S
H701 C740 0.931 . S
H702 C742 0.930 . S
H703 C743 0.929 . S
H704 C745 0.931 . S
H705 C746 0.930 . S
H706 C748 0.930 . S
H707 C749 0.932 . S
H708 C751 0.930 . S
H709 C752 0.929 . S
H710 C754 0.931 . S
H711 C755 0.930 . S
H712 C757 0.929 . S
H713 C758 0.931 . S
H714 C760 0.930 . S
H715 C761 0.929 . S
O716 H690 0.856 . S
O716 C762 1.300 . S
O717 C762 1.209 . S
O718 C763 1.199 . S
O719 H691 0.854 . S
O719 C763 1.297 . S
C720 C721 1.404 . S
C720 C725 1.397 1_556 S
C720 C726 1.492 . S
C721 C720 1.404 . S
C721 C722 1.396 . S
C721 C732 1.492 . S
C722 C721 1.396 . S
C722 C723 1.397 1_556 S
C722 C738 1.509 . S
C723 C722 1.397 1_554 S
C723 C724 1.412 . S
C723 C744 1.485 . S
C724 C723 1.412 . S
C724 C725 1.388 . S
C724 C750 1.490 . S
C725 C720 1.397 1_554 S
C725 C724 1.388 . S
C725 C756 1.519 . S
C726 C720 1.492 . S
C726 C727 1.363 . S
C726 C731 1.390 . S
C727 H692 0.930 . S
C727 C726 1.363 . S
C727 C728 1.372 . S
C728 H693 0.930 . S
C728 C727 1.372 . S
C728 C729 1.383 . S
C729 C728 1.383 . S
C729 C730 1.395 . S
C730 H694 0.930 . S
C730 C729 1.395 . S
C730 C731 1.362 . S
C731 H695 0.930 . S
C731 C726 1.390 . S
C731 C730 1.362 . S
C732 C721 1.492 . S
C732 C733 1.377 . S
C732 C737 1.397 . S
C733 H696 0.931 . S
C733 C732 1.377 . S
C733 C734 1.376 . S
C734 H697 0.930 . S
C734 C733 1.376 . S
C734 C735 1.376 . S
C735 C734 1.376 . S
C735 C736 1.378 . S
C735 C762 1.486 . S
C736 H698 0.930 . S
C736 C735 1.378 . S
C736 C737 1.376 . S
C737 H699 0.929 . S
C737 C732 1.397 . S
C737 C736 1.376 . S
C738 C722 1.509 . S
C738 C739 1.391 . S
C738 C743 1.386 . S
C739 H700 0.930 . S
C739 C738 1.391 . S
C739 C740 1.375 . S
C740 H701 0.931 . S
C740 C739 1.375 . S
C740 C741 1.375 . S
C741 C740 1.375 . S
C741 C742 1.361 . S
C742 H702 0.930 . S
C742 C741 1.361 . S
C742 C743 1.399 . S
C743 H703 0.929 . S
C743 C738 1.386 . S
C743 C742 1.399 . S
C744 C723 1.485 . S
C744 C745 1.394 . S
C744 C749 1.360 . S
C745 H704 0.931 . S
C745 C744 1.394 . S
C745 C746 1.372 . S
C746 H705 0.930 . S
C746 C745 1.372 . S
C746 C747 1.397 . S
C747 C746 1.397 . S
C747 C748 1.390 . S
C747 C763 1.476 . S
C748 H706 0.930 . S
C748 C747 1.390 . S
C748 C749 1.366 . S
C749 H707 0.932 . S
C749 C744 1.360 . S
C749 C748 1.366 . S
C750 C724 1.490 . S
C750 C751 1.380 . S
C750 C755 1.386 . S
C751 H708 0.930 . S
C751 C750 1.380 . S
C751 C752 1.381 . S
C752 H709 0.929 . S
C752 C751 1.381 . S
C752 C753 1.371 . S
C753 C752 1.371 . S
C753 C754 1.380 . S
C754 H710 0.931 . S
C754 C753 1.380 . S
C754 C755 1.387 . S
C755 H711 0.930 . S
C755 C750 1.386 . S
C755 C754 1.387 . S
C756 C725 1.519 . S
C756 C757 1.377 . S
C756 C761 1.361 . S
C757 H712 0.929 . S
C757 C756 1.377 . S
C757 C758 1.386 . S
C758 H713 0.931 . S
C758 C757 1.386 . S
C758 C759 1.363 . S
C759 C758 1.363 . S
C759 C760 1.385 . S
C760 H714 0.930 . S
C760 C759 1.385 . S
C760 C761 1.396 . S
C761 H715 0.929 . S
C761 C756 1.361 . S
C761 C760 1.396 . S
C762 O716 1.300 . S
C762 O717 1.209 . S
C762 C735 1.486 . S
C763 O718 1.199 . S
C763 O719 1.297 . S
C763 C747 1.476 . S
C764 C765 1.349 . S
C764 C766 1.327 . S
C764 H789 0.950 . S
C765 C764 1.349 . S
C765 C781 1.349 . S
C766 C764 1.327 . S
C766 C785 1.429 . S
C766 H790 0.950 . S
C767 C784 1.574 . S
C767 C786 1.368 . S
C767 H791 0.949 . S
H768 C772 0.949 . S
C769 C770 1.349 . S
C769 C771 1.327 . S
C769 H792 0.950 . S
C770 C769 1.349 . S
C770 C782 1.349 . S
C771 C769 1.327 . S
C771 C787 1.429 . S
C771 H793 0.950 . S
C772 H768 0.949 . S
C772 C780 1.574 . S
C772 C788 1.368 . S
H773 C781 0.950 . S
H774 C779 0.950 . S
H775 C780 0.949 . S
H776 C782 0.950 . S
H777 C783 0.950 . S
H778 C784 0.949 . S
C779 H774 0.950 . S
C779 C781 1.327 . S
C779 C785 1.429 . S
C780 C772 1.574 . S
C780 H775 0.949 . S
C780 C786 1.368 . S
C781 C765 1.349 . S
C781 H773 0.950 . S
C781 C779 1.327 . S
C782 C770 1.349 . S
C782 H776 0.950 . S
C782 C783 1.327 . S
C783 H777 0.950 . S
C783 C782 1.327 . S
C783 C787 1.429 . S
C784 C767 1.574 . S
C784 H778 0.949 . S
C784 C788 1.368 . S
C785 C766 1.429 . S
C785 C779 1.429 . S
C785 C786 1.523 . S
C786 C767 1.368 . S
C786 C780 1.368 . S
C786 C785 1.523 . S
C787 C771 1.429 . S
C787 C783 1.429 . S
C787 C788 1.523 . S
C788 C772 1.368 . S
C788 C784 1.368 . S
C788 C787 1.523 . S
H789 C764 0.950 . S
H790 C766 0.950 . S
H791 C767 0.949 . S
H792 C769 0.950 . S
H793 C771 0.950 . S
C794 C795 1.349 . S
C794 C796 1.327 . S
C794 H819 0.950 . S
C795 C794 1.349 . S
C795 C811 1.349 . S
C796 C794 1.327 . S
C796 C815 1.429 . S
C796 H820 0.950 . S
C797 C814 1.574 . S
C797 C816 1.368 . S
C797 H821 0.949 . S
H798 C802 0.949 . S
C799 C800 1.349 . S
C799 C801 1.327 . S
C799 H822 0.950 . S
C800 C799 1.349 . S
C800 C812 1.349 . S
C801 C799 1.327 . S
C801 C817 1.429 . S
C801 H823 0.950 . S
C802 H798 0.949 . S
C802 C810 1.574 . S
C802 C818 1.368 . S
H803 C811 0.950 . S
H804 C809 0.950 . S
H805 C810 0.949 . S
H806 C812 0.950 . S
H807 C813 0.950 . S
H808 C814 0.949 . S
C809 H804 0.950 . S
C809 C811 1.327 . S
C809 C815 1.429 . S
C810 C802 1.574 . S
C810 H805 0.949 . S
C810 C816 1.368 . S
C811 C795 1.349 . S
C811 H803 0.950 . S
C811 C809 1.327 . S
C812 C800 1.349 . S
C812 H806 0.950 . S
C812 C813 1.327 . S
C813 H807 0.950 . S
C813 C812 1.327 . S
C813 C817 1.429 . S
C814 C797 1.574 . S
C814 H808 0.949 . S
C814 C818 1.368 . S
C815 C796 1.429 . S
C815 C809 1.429 . S
C815 C816 1.523 . S
C816 C797 1.368 . S
C816 C810 1.368 . S
C816 C815 1.523 . S
C817 C801 1.429 . S
C817 C813 1.429 . S
C817 C818 1.523 . S
C818 C802 1.368 . S
C818 C814 1.368 . S
C818 C817 1.523 . S
H819 C794 0.950 . S
H820 C796 0.950 . S
H821 C797 0.949 . S
H822 C799 0.950 . S
H823 C801 0.950 . S
C824 C825 1.349 . S
C824 C826 1.327 . S
C824 H849 0.950 . S
C825 C824 1.349 . S
C825 C841 1.349 . S
C826 C824 1.327 . S
C826 C845 1.429 . S
C826 H850 0.950 . S
C827 C844 1.574 . S
C827 C846 1.368 . S
C827 H851 0.949 . S
H828 C832 0.949 . S
C829 C830 1.349 . S
C829 C831 1.327 . S
C829 H852 0.950 . S
C830 C829 1.349 . S
C830 C842 1.349 . S
C831 C829 1.327 . S
C831 C847 1.429 . S
C831 H853 0.950 . S
C832 H828 0.949 . S
C832 C840 1.574 . S
C832 C848 1.368 . S
H833 C841 0.950 . S
H834 C839 0.950 . S
H835 C840 0.949 . S
H836 C842 0.950 . S
H837 C843 0.950 . S
H838 C844 0.949 . S
C839 H834 0.950 . S
C839 C841 1.327 . S
C839 C845 1.429 . S
C840 C832 1.574 . S
C840 H835 0.949 . S
C840 C846 1.368 . S
C841 C825 1.349 . S
C841 H833 0.950 . S
C841 C839 1.327 . S
C842 C830 1.349 . S
C842 H836 0.950 . S
C842 C843 1.327 . S
C843 H837 0.950 . S
C843 C842 1.327 . S
C843 C847 1.429 . S
C844 C827 1.574 . S
C844 H838 0.949 . S
C844 C848 1.368 . S
C845 C826 1.429 . S
C845 C839 1.429 . S
C845 C846 1.523 . S
C846 C827 1.368 . S
C846 C840 1.368 . S
C846 C845 1.523 . S
C847 C831 1.429 . S
C847 C843 1.429 . S
C847 C848 1.523 . S
C848 C832 1.368 . S
C848 C844 1.368 . S
C848 C847 1.523 . S
H849 C824 0.950 . S
H850 C826 0.950 . S
H851 C827 0.949 . S
H852 C829 0.950 . S
H853 C831 0.950 . S
C854 C855 1.349 . S
C854 C856 1.327 . S
C854 H879 0.950 . S
C855 C854 1.349 . S
C855 C871 1.349 . S
C856 C854 1.327 . S
C856 C875 1.429 . S
C856 H880 0.950 . S
C857 C874 1.574 . S
C857 C876 1.368 . S
C857 H881 0.949 . S
H858 C862 0.949 . S
C859 C860 1.349 . S
C859 C861 1.327 . S
C859 H882 0.950 . S
C860 C859 1.349 . S
C860 C872 1.349 . S
C861 C859 1.327 . S
C861 C877 1.429 . S
C861 H883 0.950 . S
C862 H858 0.949 . S
C862 C870 1.574 . S
C862 C878 1.368 . S
H863 C871 0.950 . S
H864 C869 0.950 . S
H865 C870 0.949 . S
H866 C872 0.950 . S
H867 C873 0.950 . S
H868 C874 0.949 . S
C869 H864 0.950 . S
C869 C871 1.327 . S
C869 C875 1.429 . S
C870 C862 1.574 . S
C870 H865 0.949 . S
C870 C876 1.368 . S
C871 C855 1.349 . S
C871 H863 0.950 . S
C871 C869 1.327 . S
C872 C860 1.349 . S
C872 H866 0.950 . S
C872 C873 1.327 . S
C873 H867 0.950 . S
C873 C872 1.327 . S
C873 C877 1.429 . S
C874 C857 1.574 . S
C874 H868 0.949 . S
C874 C878 1.368 . S
C875 C856 1.429 . S
C875 C869 1.429 . S
C875 C876 1.523 . S
C876 C857 1.368 . S
C876 C870 1.368 . S
C876 C875 1.523 . S
C877 C861 1.429 . S
C877 C873 1.429 . S
C877 C878 1.523 . S
C878 C862 1.368 . S
C878 C874 1.368 . S
C878 C877 1.523 . S
H879 C854 0.950 . S
H880 C856 0.950 . S
H881 C857 0.949 . S
H882 C859 0.950 . S
H883 C861 0.950 . S
C884 C885 1.349 . S
C884 C886 1.327 . S
C884 H909 0.950 . S
C885 C884 1.349 . S
C885 C901 1.349 . S
C886 C884 1.327 . S
C886 C905 1.429 . S
C886 H910 0.950 . S
C887 C904 1.574 . S
C887 C906 1.368 . S
C887 H911 0.949 . S
H888 C892 0.949 . S
C889 C890 1.349 . S
C889 C891 1.327 . S
C889 H912 0.950 . S
C890 C889 1.349 . S
C890 C902 1.349 . S
C891 C889 1.327 . S
C891 C907 1.429 . S
C891 H913 0.950 . S
C892 H888 0.949 . S
C892 C900 1.574 . S
C892 C908 1.368 . S
H893 C901 0.950 . S
H894 C899 0.950 . S
H895 C900 0.949 . S
H896 C902 0.950 . S
H897 C903 0.950 . S
H898 C904 0.949 . S
C899 H894 0.950 . S
C899 C901 1.327 . S
C899 C905 1.429 . S
C900 C892 1.574 . S
C900 H895 0.949 . S
C900 C906 1.368 . S
C901 C885 1.349 . S
C901 H893 0.950 . S
C901 C899 1.327 . S
C902 C890 1.349 . S
C902 H896 0.950 . S
C902 C903 1.327 . S
C903 H897 0.950 . S
C903 C902 1.327 . S
C903 C907 1.429 . S
C904 C887 1.574 . S
C904 H898 0.949 . S
C904 C908 1.368 . S
C905 C886 1.429 . S
C905 C899 1.429 . S
C905 C906 1.523 . S
C906 C887 1.368 . S
C906 C900 1.368 . S
C906 C905 1.523 . S
C907 C891 1.429 . S
C907 C903 1.429 . S
C907 C908 1.523 . S
C908 C892 1.368 . S
C908 C904 1.368 . S
C908 C907 1.523 . S
H909 C884 0.950 . S
H910 C886 0.950 . S
H911 C887 0.949 . S
H912 C889 0.950 . S
H913 C891 0.950 . S
C914 C915 1.349 . S
C914 C916 1.327 . S
C914 H939 0.950 . S
C915 C914 1.349 . S
C915 C931 1.349 . S
C916 C914 1.327 . S
C916 C935 1.429 . S
C916 H940 0.950 . S
C917 C934 1.574 . S
C917 C936 1.368 . S
C917 H941 0.949 . S
H918 C922 0.949 . S
C919 C920 1.349 . S
C919 C921 1.327 . S
C919 H942 0.950 . S
C920 C919 1.349 . S
C920 C932 1.349 . S
C921 C919 1.327 . S
C921 C937 1.429 . S
C921 H943 0.950 . S
C922 H918 0.949 . S
C922 C930 1.574 . S
C922 C938 1.368 . S
H923 C931 0.950 . S
H924 C929 0.950 . S
H925 C930 0.949 . S
H926 C932 0.950 . S
H927 C933 0.950 . S
H928 C934 0.949 . S
C929 H924 0.950 . S
C929 C931 1.327 . S
C929 C935 1.429 . S
C930 C922 1.574 . S
C930 H925 0.949 . S
C930 C936 1.368 . S
C931 C915 1.349 . S
C931 H923 0.950 . S
C931 C929 1.327 . S
C932 C920 1.349 . S
C932 H926 0.950 . S
C932 C933 1.327 . S
C933 H927 0.950 . S
C933 C932 1.327 . S
C933 C937 1.429 . S
C934 C917 1.574 . S
C934 H928 0.949 . S
C934 C938 1.368 . S
C935 C916 1.429 . S
C935 C929 1.429 . S
C935 C936 1.523 . S
C936 C917 1.368 . S
C936 C930 1.368 . S
C936 C935 1.523 . S
C937 C921 1.429 . S
C937 C933 1.429 . S
C937 C938 1.523 . S
C938 C922 1.368 . S
C938 C934 1.368 . S
C938 C937 1.523 . S
H939 C914 0.950 . S
H940 C916 0.950 . S
H941 C917 0.949 . S
H942 C919 0.950 . S
H943 C921 0.950 . S
C944 C945 1.349 . S
C944 C946 1.327 . S
C944 H969 0.950 . S
C945 C944 1.349 . S
C945 C961 1.349 . S
C946 C944 1.327 . S
C946 C965 1.429 . S
C946 H970 0.950 . S
C947 C964 1.574 . S
C947 C966 1.368 . S
C947 H971 0.949 . S
H948 C952 0.949 . S
C949 C950 1.349 . S
C949 C951 1.327 . S
C949 H972 0.950 . S
C950 C949 1.349 . S
C950 C962 1.349 . S
C951 C949 1.327 . S
C951 C967 1.429 . S
C951 H973 0.950 . S
C952 H948 0.949 . S
C952 C960 1.574 . S
C952 C968 1.368 . S
H953 C961 0.950 . S
H954 C959 0.950 . S
H955 C960 0.949 . S
H956 C962 0.950 . S
H957 C963 0.950 . S
H958 C964 0.949 . S
C959 H954 0.950 . S
C959 C961 1.327 . S
C959 C965 1.429 . S
C960 C952 1.574 . S
C960 H955 0.949 . S
C960 C966 1.368 . S
C961 C945 1.349 . S
C961 H953 0.950 . S
C961 C959 1.327 . S
C962 C950 1.349 . S
C962 H956 0.950 . S
C962 C963 1.327 . S
C963 H957 0.950 . S
C963 C962 1.327 . S
C963 C967 1.429 . S
C964 C947 1.574 . S
C964 H958 0.949 . S
C964 C968 1.368 . S
C965 C946 1.429 . S
C965 C959 1.429 . S
C965 C966 1.523 . S
C966 C947 1.368 . S
C966 C960 1.368 . S
C966 C965 1.523 . S
C967 C951 1.429 . S
C967 C963 1.429 . S
C967 C968 1.523 . S
C968 C952 1.368 . S
C968 C964 1.368 . S
C968 C967 1.523 . S
H969 C944 0.950 . S
H970 C946 0.950 . S
H971 C947 0.949 . S
H972 C949 0.950 . S
H973 C951 0.950 . S
C974 C975 1.349 . S
C974 C976 1.327 . S
C974 H999 0.950 . S
C975 C974 1.349 . S
C975 C991 1.349 . S
C976 C974 1.327 . S
C976 C995 1.429 . S
C976 H1000 0.950 . S
C977 C994 1.574 . S
C977 C996 1.368 . S
C977 H1001 0.949 . S
H978 C982 0.949 . S
C979 C980 1.349 . S
C979 C981 1.327 . S
C979 H1002 0.950 . S
C980 C979 1.349 . S
C980 C992 1.349 . S
C981 C979 1.327 . S
C981 C997 1.429 . S
C981 H1003 0.950 . S
C982 H978 0.949 . S
C982 C990 1.574 . S
C982 C998 1.368 . S
H983 C991 0.950 . S
H984 C989 0.950 . S
H985 C990 0.949 . S
H986 C992 0.950 . S
H987 C993 0.950 . S
H988 C994 0.949 . S
C989 H984 0.950 . S
C989 C991 1.327 . S
C989 C995 1.429 . S
C990 C982 1.574 . S
C990 H985 0.949 . S
C990 C996 1.368 . S
C991 C975 1.349 . S
C991 H983 0.950 . S
C991 C989 1.327 . S
C992 C980 1.349 . S
C992 H986 0.950 . S
C992 C993 1.327 . S
C993 H987 0.950 . S
C993 C992 1.327 . S
C993 C997 1.429 . S
C994 C977 1.574 . S
C994 H988 0.949 . S
C994 C998 1.368 . S
C995 C976 1.429 . S
C995 C989 1.429 . S
C995 C996 1.523 . S
C996 C977 1.368 . S
C996 C990 1.368 . S
C996 C995 1.523 . S
C997 C981 1.429 . S
C997 C993 1.429 . S
C997 C998 1.523 . S
C998 C982 1.368 . S
C998 C994 1.368 . S
C998 C997 1.523 . S
H999 C974 0.950 . S
H1000 C976 0.950 . S
H1001 C977 0.949 . S
H1002 C979 0.950 . S
H1003 C981 0.950 . S
C1004 C1005 1.349 . S
C1004 C1006 1.327 . S
C1004 H1029 0.950 . S
C1005 C1004 1.349 . S
C1005 C1021 1.349 . S
C1006 C1004 1.327 . S
C1006 C1025 1.429 . S
C1006 H1030 0.950 . S
C1007 C1024 1.574 . S
C1007 C1026 1.368 . S
C1007 H1031 0.949 . S
H1008 C1012 0.949 . S
C1009 C1010 1.349 . S
C1009 C1011 1.327 . S
C1009 H1032 0.950 . S
C1010 C1009 1.349 . S
C1010 C1022 1.349 . S
C1011 C1009 1.327 . S
C1011 C1027 1.429 . S
C1011 H1033 0.950 . S
C1012 H1008 0.949 . S
C1012 C1020 1.574 . S
C1012 C1028 1.368 . S
H1013 C1021 0.950 . S
H1014 C1019 0.950 . S
H1015 C1020 0.949 . S
H1016 C1022 0.950 . S
H1017 C1023 0.950 . S
H1018 C1024 0.949 . S
C1019 H1014 0.950 . S
C1019 C1021 1.327 . S
C1019 C1025 1.429 . S
C1020 C1012 1.574 . S
C1020 H1015 0.949 . S
C1020 C1026 1.368 . S
C1021 C1005 1.349 . S
C1021 H1013 0.950 . S
C1021 C1019 1.327 . S
C1022 C1010 1.349 . S
C1022 H1016 0.950 . S
C1022 C1023 1.327 . S
C1023 H1017 0.950 . S
C1023 C1022 1.327 . S
C1023 C1027 1.429 . S
C1024 C1007 1.574 . S
C1024 H1018 0.949 . S
C1024 C1028 1.368 . S
C1025 C1006 1.429 . S
C1025 C1019 1.429 . S
C1025 C1026 1.523 . S
C1026 C1007 1.368 . S
C1026 C1020 1.368 . S
C1026 C1025 1.523 . S
C1027 C1011 1.429 . S
C1027 C1023 1.429 . S
C1027 C1028 1.523 . S
C1028 C1012 1.368 . S
C1028 C1024 1.368 . S
C1028 C1027 1.523 . S
H1029 C1004 0.950 . S
H1030 C1006 0.950 . S
H1031 C1007 0.949 . S
H1032 C1009 0.950 . S
H1033 C1011 0.950 . S
C1034 C1035 1.349 . S
C1034 C1036 1.327 . S
C1034 H1059 0.950 . S
C1035 C1034 1.349 . S
C1035 C1051 1.349 . S
C1036 C1034 1.327 . S
C1036 C1055 1.429 . S
C1036 H1060 0.950 . S
C1037 C1054 1.574 . S
C1037 C1056 1.368 . S
C1037 H1061 0.949 . S
H1038 C1042 0.949 . S
C1039 C1040 1.349 . S
C1039 C1041 1.327 . S
C1039 H1062 0.950 . S
C1040 C1039 1.349 . S
C1040 C1052 1.349 . S
C1041 C1039 1.327 . S
C1041 C1057 1.429 . S
C1041 H1063 0.950 . S
C1042 H1038 0.949 . S
C1042 C1050 1.574 . S
C1042 C1058 1.368 . S
H1043 C1051 0.950 . S
H1044 C1049 0.950 . S
H1045 C1050 0.949 . S
H1046 C1052 0.950 . S
H1047 C1053 0.950 . S
H1048 C1054 0.949 . S
C1049 H1044 0.950 . S
C1049 C1051 1.327 . S
C1049 C1055 1.429 . S
C1050 C1042 1.574 . S
C1050 H1045 0.949 . S
C1050 C1056 1.368 . S
C1051 C1035 1.349 . S
C1051 H1043 0.950 . S
C1051 C1049 1.327 . S
C1052 C1040 1.349 . S
C1052 H1046 0.950 . S
C1052 C1053 1.327 . S
C1053 H1047 0.950 . S
C1053 C1052 1.327 . S
C1053 C1057 1.429 . S
C1054 C1037 1.574 . S
C1054 H1048 0.949 . S
C1054 C1058 1.368 . S
C1055 C1036 1.429 . S
C1055 C1049 1.429 . S
C1055 C1056 1.523 . S
C1056 C1037 1.368 . S
C1056 C1050 1.368 . S
C1056 C1055 1.523 . S
C1057 C1041 1.429 . S
C1057 C1053 1.429 . S
C1057 C1058 1.523 . S
C1058 C1042 1.368 . S
C1058 C1054 1.368 . S
C1058 C1057 1.523 . S
H1059 C1034 0.950 . S
H1060 C1036 0.950 . S
H1061 C1037 0.949 . S
H1062 C1039 0.950 . S
H1063 C1041 0.950 . S
C1064 C1065 1.349 . S
C1064 C1066 1.327 . S
C1064 H1089 0.950 . S
C1065 C1064 1.349 . S
C1065 C1081 1.349 . S
C1066 C1064 1.327 . S
C1066 C1085 1.429 . S
C1066 H1090 0.950 . S
C1067 C1084 1.574 . S
C1067 C1086 1.368 . S
C1067 H1091 0.949 . S
H1068 C1072 0.949 . S
C1069 C1070 1.349 . S
C1069 C1071 1.327 . S
C1069 H1092 0.950 . S
C1070 C1069 1.349 . S
C1070 C1082 1.349 . S
C1071 C1069 1.327 . S
C1071 C1087 1.429 . S
C1071 H1093 0.950 . S
C1072 H1068 0.949 . S
C1072 C1080 1.574 . S
C1072 C1088 1.368 . S
H1073 C1081 0.950 . S
H1074 C1079 0.950 . S
H1075 C1080 0.949 . S
H1076 C1082 0.950 . S
H1077 C1083 0.950 . S
H1078 C1084 0.949 . S
C1079 H1074 0.950 . S
C1079 C1081 1.327 . S
C1079 C1085 1.429 . S
C1080 C1072 1.574 . S
C1080 H1075 0.949 . S
C1080 C1086 1.368 . S
C1081 C1065 1.349 . S
C1081 H1073 0.950 . S
C1081 C1079 1.327 . S
C1082 C1070 1.349 . S
C1082 H1076 0.950 . S
C1082 C1083 1.327 . S
C1083 H1077 0.950 . S
C1083 C1082 1.327 . S
C1083 C1087 1.429 . S
C1084 C1067 1.574 . S
C1084 H1078 0.949 . S
C1084 C1088 1.368 . S
C1085 C1066 1.429 . S
C1085 C1079 1.429 . S
C1085 C1086 1.523 . S
C1086 C1067 1.368 . S
C1086 C1080 1.368 . S
C1086 C1085 1.523 . S
C1087 C1071 1.429 . S
C1087 C1083 1.429 . S
C1087 C1088 1.523 . S
C1088 C1072 1.368 . S
C1088 C1084 1.368 . S
C1088 C1087 1.523 . S
H1089 C1064 0.950 . S
H1090 C1066 0.950 . S
H1091 C1067 0.949 . S
H1092 C1069 0.950 . S
H1093 C1071 0.950 . S
C1094 C1095 1.349 . S
C1094 C1096 1.327 . S
C1094 H1119 0.950 . S
C1095 C1094 1.349 . S
C1095 C1111 1.349 . S
C1096 C1094 1.327 . S
C1096 C1115 1.429 . S
C1096 H1120 0.950 . S
C1097 C1114 1.574 . S
C1097 C1116 1.368 . S
C1097 H1121 0.949 . S
H1098 C1102 0.949 . S
C1099 C1100 1.349 . S
C1099 C1101 1.327 . S
C1099 H1122 0.950 . S
C1100 C1099 1.349 . S
C1100 C1112 1.349 . S
C1101 C1099 1.327 . S
C1101 C1117 1.429 . S
C1101 H1123 0.950 . S
C1102 H1098 0.949 . S
C1102 C1110 1.574 . S
C1102 C1118 1.368 . S
H1103 C1111 0.950 . S
H1104 C1109 0.950 . S
H1105 C1110 0.949 . S
H1106 C1112 0.950 . S
H1107 C1113 0.950 . S
H1108 C1114 0.949 . S
C1109 H1104 0.950 . S
C1109 C1111 1.327 . S
C1109 C1115 1.429 . S
C1110 C1102 1.574 . S
C1110 H1105 0.949 . S
C1110 C1116 1.368 . S
C1111 C1095 1.349 . S
C1111 H1103 0.950 . S
C1111 C1109 1.327 . S
C1112 C1100 1.349 . S
C1112 H1106 0.950 . S
C1112 C1113 1.327 . S
C1113 H1107 0.950 . S
C1113 C1112 1.327 . S
C1113 C1117 1.429 . S
C1114 C1097 1.574 . S
C1114 H1108 0.949 . S
C1114 C1118 1.368 . S
C1115 C1096 1.429 . S
C1115 C1109 1.429 . S
C1115 C1116 1.523 . S
C1116 C1097 1.368 . S
C1116 C1110 1.368 . S
C1116 C1115 1.523 . S
C1117 C1101 1.429 . S
C1117 C1113 1.429 . S
C1117 C1118 1.523 . S
C1118 C1102 1.368 . S
C1118 C1114 1.368 . S
C1118 C1117 1.523 . S
H1119 C1094 0.950 . S
H1120 C1096 0.950 . S
H1121 C1097 0.949 . S
H1122 C1099 0.950 . S
H1123 C1101 0.950 . S
C1124 C1125 1.349 . S
C1124 C1126 1.327 . S
C1124 H1149 0.950 . S
C1125 C1124 1.349 . S
C1125 C1141 1.349 . S
C1126 C1124 1.327 . S
C1126 C1145 1.429 . S
C1126 H1150 0.950 . S
C1127 C1144 1.574 . S
C1127 C1146 1.368 . S
C1127 H1151 0.949 . S
H1128 C1132 0.949 . S
C1129 C1130 1.349 . S
C1129 C1131 1.327 . S
C1129 H1152 0.950 . S
C1130 C1129 1.349 . S
C1130 C1142 1.349 . S
C1131 C1129 1.327 . S
C1131 C1147 1.429 . S
C1131 H1153 0.950 . S
C1132 H1128 0.949 . S
C1132 C1140 1.574 . S
C1132 C1148 1.368 . S
H1133 C1141 0.950 . S
H1134 C1139 0.950 . S
H1135 C1140 0.949 . S
H1136 C1142 0.950 . S
H1137 C1143 0.950 . S
H1138 C1144 0.949 . S
C1139 H1134 0.950 . S
C1139 C1141 1.327 . S
C1139 C1145 1.429 . S
C1140 C1132 1.574 . S
C1140 H1135 0.949 . S
C1140 C1146 1.368 . S
C1141 C1125 1.349 . S
C1141 H1133 0.950 . S
C1141 C1139 1.327 . S
C1142 C1130 1.349 . S
C1142 H1136 0.950 . S
C1142 C1143 1.327 . S
C1143 H1137 0.950 . S
C1143 C1142 1.327 . S
C1143 C1147 1.429 . S
C1144 C1127 1.574 . S
C1144 H1138 0.949 . S
C1144 C1148 1.368 . S
C1145 C1126 1.429 . S
C1145 C1139 1.429 . S
C1145 C1146 1.523 . S
C1146 C1127 1.368 . S
C1146 C1140 1.368 . S
C1146 C1145 1.523 . S
C1147 C1131 1.429 . S
C1147 C1143 1.429 . S
C1147 C1148 1.523 . S
C1148 C1132 1.368 . S
C1148 C1144 1.368 . S
C1148 C1147 1.523 . S
H1149 C1124 0.950 . S
H1150 C1126 0.950 . S
H1151 C1127 0.949 . S
H1152 C1129 0.950 . S
H1153 C1131 0.950 . S
C1154 C1155 1.349 . S
C1154 C1156 1.327 . S
C1154 H1179 0.950 . S
C1155 C1154 1.349 . S
C1155 C1171 1.349 . S
C1156 C1154 1.327 . S
C1156 C1175 1.429 . S
C1156 H1180 0.950 . S
C1157 C1174 1.574 . S
C1157 C1176 1.368 . S
C1157 H1181 0.949 . S
H1158 C1162 0.949 . S
C1159 C1160 1.349 . S
C1159 C1161 1.327 . S
C1159 H1182 0.950 . S
C1160 C1159 1.349 . S
C1160 C1172 1.349 . S
C1161 C1159 1.327 . S
C1161 C1177 1.429 . S
C1161 H1183 0.950 . S
C1162 H1158 0.949 . S
C1162 C1170 1.574 . S
C1162 C1178 1.368 . S
H1163 C1171 0.950 . S
H1164 C1169 0.950 . S
H1165 C1170 0.949 . S
H1166 C1172 0.950 . S
H1167 C1173 0.950 . S
H1168 C1174 0.949 . S
C1169 H1164 0.950 . S
C1169 C1171 1.327 . S
C1169 C1175 1.429 . S
C1170 C1162 1.574 . S
C1170 H1165 0.949 . S
C1170 C1176 1.368 . S
C1171 C1155 1.349 . S
C1171 H1163 0.950 . S
C1171 C1169 1.327 . S
C1172 C1160 1.349 . S
C1172 H1166 0.950 . S
C1172 C1173 1.327 . S
C1173 H1167 0.950 . S
C1173 C1172 1.327 . S
C1173 C1177 1.429 . S
C1174 C1157 1.574 . S
C1174 H1168 0.949 . S
C1174 C1178 1.368 . S
C1175 C1156 1.429 . S
C1175 C1169 1.429 . S
C1175 C1176 1.523 . S
C1176 C1157 1.368 . S
C1176 C1170 1.368 . S
C1176 C1175 1.523 . S
C1177 C1161 1.429 . S
C1177 C1173 1.429 . S
C1177 C1178 1.523 . S
C1178 C1162 1.368 . S
C1178 C1174 1.368 . S
C1178 C1177 1.523 . S
H1179 C1154 0.950 . S
H1180 C1156 0.950 . S
H1181 C1157 0.949 . S
H1182 C1159 0.950 . S
H1183 C1161 0.950 . S
C1184 C1185 1.349 . S
C1184 C1186 1.327 . S
C1184 H1209 0.950 . S
C1185 C1184 1.349 . S
C1185 C1201 1.349 . S
C1186 C1184 1.327 . S
C1186 C1205 1.429 . S
C1186 H1210 0.950 . S
C1187 C1204 1.574 . S
C1187 C1206 1.368 . S
C1187 H1211 0.949 . S
H1188 C1192 0.949 . S
C1189 C1190 1.349 . S
C1189 C1191 1.327 . S
C1189 H1212 0.950 . S
C1190 C1189 1.349 . S
C1190 C1202 1.349 . S
C1191 C1189 1.327 . S
C1191 C1207 1.429 . S
C1191 H1213 0.950 . S
C1192 H1188 0.949 . S
C1192 C1200 1.574 . S
C1192 C1208 1.368 . S
H1193 C1201 0.950 . S
H1194 C1199 0.950 . S
H1195 C1200 0.949 . S
H1196 C1202 0.950 . S
H1197 C1203 0.950 . S
H1198 C1204 0.949 . S
C1199 H1194 0.950 . S
C1199 C1201 1.327 . S
C1199 C1205 1.429 . S
C1200 C1192 1.574 . S
C1200 H1195 0.949 . S
C1200 C1206 1.368 . S
C1201 C1185 1.349 . S
C1201 H1193 0.950 . S
C1201 C1199 1.327 . S
C1202 C1190 1.349 . S
C1202 H1196 0.950 . S
C1202 C1203 1.327 . S
C1203 H1197 0.950 . S
C1203 C1202 1.327 . S
C1203 C1207 1.429 . S
C1204 C1187 1.574 . S
C1204 H1198 0.949 . S
C1204 C1208 1.368 . S
C1205 C1186 1.429 . S
C1205 C1199 1.429 . S
C1205 C1206 1.523 . S
C1206 C1187 1.368 . S
C1206 C1200 1.368 . S
C1206 C1205 1.523 . S
C1207 C1191 1.429 . S
C1207 C1203 1.429 . S
C1207 C1208 1.523 . S
C1208 C1192 1.368 . S
C1208 C1204 1.368 . S
C1208 C1207 1.523 . S
H1209 C1184 0.950 . S
H1210 C1186 0.950 . S
H1211 C1187 0.949 . S
H1212 C1189 0.950 . S
H1213 C1191 0.950 . S
C1214 C1215 1.349 . S
C1214 C1216 1.327 . S
C1214 H1239 0.950 . S
C1215 C1214 1.349 . S
C1215 C1231 1.349 . S
C1216 C1214 1.327 . S
C1216 C1235 1.429 . S
C1216 H1240 0.950 . S
C1217 C1234 1.574 . S
C1217 C1236 1.368 . S
C1217 H1241 0.949 . S
H1218 C1222 0.949 . S
C1219 C1220 1.349 . S
C1219 C1221 1.327 . S
C1219 H1242 0.950 . S
C1220 C1219 1.349 . S
C1220 C1232 1.349 . S
C1221 C1219 1.327 . S
C1221 C1237 1.429 . S
C1221 H1243 0.950 . S
C1222 H1218 0.949 . S
C1222 C1230 1.574 . S
C1222 C1238 1.368 . S
H1223 C1231 0.950 . S
H1224 C1229 0.950 . S
H1225 C1230 0.949 . S
H1226 C1232 0.950 . S
H1227 C1233 0.950 . S
H1228 C1234 0.949 . S
C1229 H1224 0.950 . S
C1229 C1231 1.327 . S
C1229 C1235 1.429 . S
C1230 C1222 1.574 . S
C1230 H1225 0.949 . S
C1230 C1236 1.368 . S
C1231 C1215 1.349 . S
C1231 H1223 0.950 . S
C1231 C1229 1.327 . S
C1232 C1220 1.349 . S
C1232 H1226 0.950 . S
C1232 C1233 1.327 . S
C1233 H1227 0.950 . S
C1233 C1232 1.327 . S
C1233 C1237 1.429 . S
C1234 C1217 1.574 . S
C1234 H1228 0.949 . S
C1234 C1238 1.368 . S
C1235 C1216 1.429 . S
C1235 C1229 1.429 . S
C1235 C1236 1.523 . S
C1236 C1217 1.368 . S
C1236 C1230 1.368 . S
C1236 C1235 1.523 . S
C1237 C1221 1.429 . S
C1237 C1233 1.429 . S
C1237 C1238 1.523 . S
C1238 C1222 1.368 . S
C1238 C1234 1.368 . S
C1238 C1237 1.523 . S
H1239 C1214 0.950 . S
H1240 C1216 0.950 . S
H1241 C1217 0.949 . S
H1242 C1219 0.950 . S
H1243 C1221 0.950 . S
C1244 C1245 1.349 . S
C1244 C1246 1.327 . S
C1244 H1269 0.950 . S
C1245 C1244 1.349 . S
C1245 C1261 1.349 . S
C1246 C1244 1.327 . S
C1246 C1265 1.429 . S
C1246 H1270 0.950 . S
C1247 C1264 1.574 . S
C1247 C1266 1.368 . S
C1247 H1271 0.949 . S
H1248 C1252 0.949 . S
C1249 C1250 1.349 . S
C1249 C1251 1.327 . S
C1249 H1272 0.950 . S
C1250 C1249 1.349 . S
C1250 C1262 1.349 . S
C1251 C1249 1.327 . S
C1251 C1267 1.429 . S
C1251 H1273 0.950 . S
C1252 H1248 0.949 . S
C1252 C1260 1.574 . S
C1252 C1268 1.368 . S
H1253 C1261 0.950 . S
H1254 C1259 0.950 . S
H1255 C1260 0.949 . S
H1256 C1262 0.950 . S
H1257 C1263 0.950 . S
H1258 C1264 0.949 . S
C1259 H1254 0.950 . S
C1259 C1261 1.327 . S
C1259 C1265 1.429 . S
C1260 C1252 1.574 . S
C1260 H1255 0.949 . S
C1260 C1266 1.368 . S
C1261 C1245 1.349 . S
C1261 H1253 0.950 . S
C1261 C1259 1.327 . S
C1262 C1250 1.349 . S
C1262 H1256 0.950 . S
C1262 C1263 1.327 . S
C1263 H1257 0.950 . S
C1263 C1262 1.327 . S
C1263 C1267 1.429 . S
C1264 C1247 1.574 . S
C1264 H1258 0.949 . S
C1264 C1268 1.368 . S
C1265 C1246 1.429 . S
C1265 C1259 1.429 . S
C1265 C1266 1.523 . S
C1266 C1247 1.368 . S
C1266 C1260 1.368 . S
C1266 C1265 1.523 . S
C1267 C1251 1.429 . S
C1267 C1263 1.429 . S
C1267 C1268 1.523 . S
C1268 C1252 1.368 . S
C1268 C1264 1.368 . S
C1268 C1267 1.523 . S
H1269 C1244 0.950 . S
H1270 C1246 0.950 . S
H1271 C1247 0.949 . S
H1272 C1249 0.950 . S
H1273 C1251 0.950 . S
C1274 C1275 1.349 . S
C1274 C1276 1.327 . S
C1274 H1299 0.950 . S
C1275 C1274 1.349 . S
C1275 C1291 1.349 . S
C1276 C1274 1.327 . S
C1276 C1295 1.429 . S
C1276 H1300 0.950 . S
C1277 C1294 1.574 . S
C1277 C1296 1.368 . S
C1277 H1301 0.949 . S
H1278 C1282 0.949 . S
C1279 C1280 1.349 . S
C1279 C1281 1.327 . S
C1279 H1302 0.950 . S
C1280 C1279 1.349 . S
C1280 C1292 1.349 . S
C1281 C1279 1.327 . S
C1281 C1297 1.429 . S
C1281 H1303 0.950 . S
C1282 H1278 0.949 . S
C1282 C1290 1.574 . S
C1282 C1298 1.368 . S
H1283 C1291 0.950 . S
H1284 C1289 0.950 . S
H1285 C1290 0.949 . S
H1286 C1292 0.950 . S
H1287 C1293 0.950 . S
H1288 C1294 0.949 . S
C1289 H1284 0.950 . S
C1289 C1291 1.327 . S
C1289 C1295 1.429 . S
C1290 C1282 1.574 . S
C1290 H1285 0.949 . S
C1290 C1296 1.368 . S
C1291 C1275 1.349 . S
C1291 H1283 0.950 . S
C1291 C1289 1.327 . S
C1292 C1280 1.349 . S
C1292 H1286 0.950 . S
C1292 C1293 1.327 . S
C1293 H1287 0.950 . S
C1293 C1292 1.327 . S
C1293 C1297 1.429 . S
C1294 C1277 1.574 . S
C1294 H1288 0.949 . S
C1294 C1298 1.368 . S
C1295 C1276 1.429 . S
C1295 C1289 1.429 . S
C1295 C1296 1.523 . S
C1296 C1277 1.368 . S
C1296 C1290 1.368 . S
C1296 C1295 1.523 . S
C1297 C1281 1.429 . S
C1297 C1293 1.429 . S
C1297 C1298 1.523 . S
C1298 C1282 1.368 . S
C1298 C1294 1.368 . S
C1298 C1297 1.523 . S
H1299 C1274 0.950 . S
H1300 C1276 0.950 . S
H1301 C1277 0.949 . S
H1302 C1279 0.950 . S
H1303 C1281 0.950 . S
C1304 C1305 1.349 . S
C1304 C1306 1.327 . S
C1304 H1329 0.950 . S
C1305 C1304 1.349 . S
C1305 C1321 1.349 . S
C1306 C1304 1.327 . S
C1306 C1325 1.429 . S
C1306 H1330 0.950 . S
C1307 C1324 1.574 . S
C1307 C1326 1.368 . S
C1307 H1331 0.949 . S
H1308 C1312 0.949 . S
C1309 C1310 1.349 . S
C1309 C1311 1.327 . S
C1309 H1332 0.950 . S
C1310 C1309 1.349 . S
C1310 C1322 1.349 . S
C1311 C1309 1.327 . S
C1311 C1327 1.429 . S
C1311 H1333 0.950 . S
C1312 H1308 0.949 . S
C1312 C1320 1.574 . S
C1312 C1328 1.368 . S
H1313 C1321 0.950 . S
H1314 C1319 0.950 . S
H1315 C1320 0.949 . S
H1316 C1322 0.950 . S
H1317 C1323 0.950 . S
H1318 C1324 0.949 . S
C1319 H1314 0.950 . S
C1319 C1321 1.327 . S
C1319 C1325 1.429 . S
C1320 C1312 1.574 . S
C1320 H1315 0.949 . S
C1320 C1326 1.368 . S
C1321 C1305 1.349 . S
C1321 H1313 0.950 . S
C1321 C1319 1.327 . S
C1322 C1310 1.349 . S
C1322 H1316 0.950 . S
C1322 C1323 1.327 . S
C1323 H1317 0.950 . S
C1323 C1322 1.327 . S
C1323 C1327 1.429 . S
C1324 C1307 1.574 . S
C1324 H1318 0.949 . S
C1324 C1328 1.368 . S
C1325 C1306 1.429 . S
C1325 C1319 1.429 . S
C1325 C1326 1.523 . S
C1326 C1307 1.368 . S
C1326 C1320 1.368 . S
C1326 C1325 1.523 . S
C1327 C1311 1.429 . S
C1327 C1323 1.429 . S
C1327 C1328 1.523 . S
C1328 C1312 1.368 . S
C1328 C1324 1.368 . S
C1328 C1327 1.523 . S
H1329 C1304 0.950 . S
H1330 C1306 0.950 . S
H1331 C1307 0.949 . S
H1332 C1309 0.950 . S
H1333 C1311 0.950 . S
C1334 C1335 1.349 . S
C1334 C1336 1.327 . S
C1334 H1359 0.950 . S
C1335 C1334 1.349 . S
C1335 C1351 1.349 . S
C1336 C1334 1.327 . S
C1336 C1355 1.429 . S
C1336 H1360 0.950 . S
C1337 C1354 1.574 . S
C1337 C1356 1.368 . S
C1337 H1361 0.949 . S
H1338 C1342 0.949 . S
C1339 C1340 1.349 . S
C1339 C1341 1.327 . S
C1339 H1362 0.950 . S
C1340 C1339 1.349 . S
C1340 C1352 1.349 . S
C1341 C1339 1.327 . S
C1341 C1357 1.429 . S
C1341 H1363 0.950 . S
C1342 H1338 0.949 . S
C1342 C1350 1.574 . S
C1342 C1358 1.368 . S
H1343 C1351 0.950 . S
H1344 C1349 0.950 . S
H1345 C1350 0.949 . S
H1346 C1352 0.950 . S
H1347 C1353 0.950 . S
H1348 C1354 0.949 . S
C1349 H1344 0.950 . S
C1349 C1351 1.327 . S
C1349 C1355 1.429 . S
C1350 C1342 1.574 . S
C1350 H1345 0.949 . S
C1350 C1356 1.368 . S
C1351 C1335 1.349 . S
C1351 H1343 0.950 . S
C1351 C1349 1.327 . S
C1352 C1340 1.349 . S
C1352 H1346 0.950 . S
C1352 C1353 1.327 . S
C1353 H1347 0.950 . S
C1353 C1352 1.327 . S
C1353 C1357 1.429 . S
C1354 C1337 1.574 . S
C1354 H1348 0.949 . S
C1354 C1358 1.368 . S
C1355 C1336 1.429 . S
C1355 C1349 1.429 . S
C1355 C1356 1.523 . S
C1356 C1337 1.368 . S
C1356 C1350 1.368 . S
C1356 C1355 1.523 . S
C1357 C1341 1.429 . S
C1357 C1353 1.429 . S
C1357 C1358 1.523 . S
C1358 C1342 1.368 . S
C1358 C1354 1.368 . S
C1358 C1357 1.523 . S
H1359 C1334 0.950 . S
H1360 C1336 0.950 . S
H1361 C1337 0.949 . S
H1362 C1339 0.950 . S
H1363 C1341 0.950 . S
C1364 C1365 1.349 . S
C1364 C1366 1.327 . S
C1364 H1389 0.950 . S
C1365 C1364 1.349 . S
C1365 C1381 1.349 . S
C1366 C1364 1.327 . S
C1366 C1385 1.429 . S
C1366 H1390 0.950 . S
C1367 C1384 1.574 . S
C1367 C1386 1.368 . S
C1367 H1391 0.949 . S
H1368 C1372 0.949 . S
C1369 C1370 1.349 . S
C1369 C1371 1.327 . S
C1369 H1392 0.950 . S
C1370 C1369 1.349 . S
C1370 C1382 1.349 . S
C1371 C1369 1.327 . S
C1371 C1387 1.429 . S
C1371 H1393 0.950 . S
C1372 H1368 0.949 . S
C1372 C1380 1.574 . S
C1372 C1388 1.368 . S
H1373 C1381 0.950 . S
H1374 C1379 0.950 . S
H1375 C1380 0.949 . S
H1376 C1382 0.950 . S
H1377 C1383 0.950 . S
H1378 C1384 0.949 . S
C1379 H1374 0.950 . S
C1379 C1381 1.327 . S
C1379 C1385 1.429 . S
C1380 C1372 1.574 . S
C1380 H1375 0.949 . S
C1380 C1386 1.368 . S
C1381 C1365 1.349 . S
C1381 H1373 0.950 . S
C1381 C1379 1.327 . S
C1382 C1370 1.349 . S
C1382 H1376 0.950 . S
C1382 C1383 1.327 . S
C1383 H1377 0.950 . S
C1383 C1382 1.327 . S
C1383 C1387 1.429 . S
C1384 C1367 1.574 . S
C1384 H1378 0.949 . S
C1384 C1388 1.368 . S
C1385 C1366 1.429 . S
C1385 C1379 1.429 . S
C1385 C1386 1.523 . S
C1386 C1367 1.368 . S
C1386 C1380 1.368 . S
C1386 C1385 1.523 . S
C1387 C1371 1.429 . S
C1387 C1383 1.429 . S
C1387 C1388 1.523 . S
C1388 C1372 1.368 . S
C1388 C1384 1.368 . S
C1388 C1387 1.523 . S
H1389 C1364 0.950 . S
H1390 C1366 0.950 . S
H1391 C1367 0.949 . S
H1392 C1369 0.950 . S
H1393 C1371 0.950 . S
C1394 C1395 1.349 . S
C1394 C1396 1.327 . S
C1394 H1419 0.950 . S
C1395 C1394 1.349 . S
C1395 C1411 1.349 . S
C1396 C1394 1.327 . S
C1396 C1415 1.429 . S
C1396 H1420 0.950 . S
C1397 C1414 1.574 . S
C1397 C1416 1.368 . S
C1397 H1421 0.949 . S
H1398 C1402 0.949 . S
C1399 C1400 1.349 . S
C1399 C1401 1.327 . S
C1399 H1422 0.950 . S
C1400 C1399 1.349 . S
C1400 C1412 1.349 . S
C1401 C1399 1.327 . S
C1401 C1417 1.429 . S
C1401 H1423 0.950 . S
C1402 H1398 0.949 . S
C1402 C1410 1.574 . S
C1402 C1418 1.368 . S
H1403 C1411 0.950 . S
H1404 C1409 0.950 . S
H1405 C1410 0.949 . S
H1406 C1412 0.950 . S
H1407 C1413 0.950 . S
H1408 C1414 0.949 . S
C1409 H1404 0.950 . S
C1409 C1411 1.327 . S
C1409 C1415 1.429 . S
C1410 C1402 1.574 . S
C1410 H1405 0.949 . S
C1410 C1416 1.368 . S
C1411 C1395 1.349 . S
C1411 H1403 0.950 . S
C1411 C1409 1.327 . S
C1412 C1400 1.349 . S
C1412 H1406 0.950 . S
C1412 C1413 1.327 . S
C1413 H1407 0.950 . S
C1413 C1412 1.327 . S
C1413 C1417 1.429 . S
C1414 C1397 1.574 . S
C1414 H1408 0.949 . S
C1414 C1418 1.368 . S
C1415 C1396 1.429 . S
C1415 C1409 1.429 . S
C1415 C1416 1.523 . S
C1416 C1397 1.368 . S
C1416 C1410 1.368 . S
C1416 C1415 1.523 . S
C1417 C1401 1.429 . S
C1417 C1413 1.429 . S
C1417 C1418 1.523 . S
C1418 C1402 1.368 . S
C1418 C1414 1.368 . S
C1418 C1417 1.523 . S
H1419 C1394 0.950 . S
H1420 C1396 0.950 . S
H1421 C1397 0.949 . S
H1422 C1399 0.950 . S
H1423 C1401 0.950 . S
C1424 C1425 1.349 . S
C1424 C1426 1.327 . S
C1424 H1449 0.950 . S
C1425 C1424 1.349 . S
C1425 C1441 1.349 . S
C1426 C1424 1.327 . S
C1426 C1445 1.429 . S
C1426 H1450 0.950 . S
C1427 C1444 1.574 . S
C1427 C1446 1.368 . S
C1427 H1451 0.949 . S
H1428 C1432 0.949 . S
C1429 C1430 1.349 . S
C1429 C1431 1.327 . S
C1429 H1452 0.950 . S
C1430 C1429 1.349 . S
C1430 C1442 1.349 . S
C1431 C1429 1.327 . S
C1431 C1447 1.429 . S
C1431 H1453 0.950 . S
C1432 H1428 0.949 . S
C1432 C1440 1.574 . S
C1432 C1448 1.368 . S
H1433 C1441 0.950 . S
H1434 C1439 0.950 . S
H1435 C1440 0.949 . S
H1436 C1442 0.950 . S
H1437 C1443 0.950 . S
H1438 C1444 0.949 . S
C1439 H1434 0.950 . S
C1439 C1441 1.327 . S
C1439 C1445 1.429 . S
C1440 C1432 1.574 . S
C1440 H1435 0.949 . S
C1440 C1446 1.368 . S
C1441 C1425 1.349 . S
C1441 H1433 0.950 . S
C1441 C1439 1.327 . S
C1442 C1430 1.349 . S
C1442 H1436 0.950 . S
C1442 C1443 1.327 . S
C1443 H1437 0.950 . S
C1443 C1442 1.327 . S
C1443 C1447 1.429 . S
C1444 C1427 1.574 . S
C1444 H1438 0.949 . S
C1444 C1448 1.368 . S
C1445 C1426 1.429 . S
C1445 C1439 1.429 . S
C1445 C1446 1.523 . S
C1446 C1427 1.368 . S
C1446 C1440 1.368 . S
C1446 C1445 1.523 . S
C1447 C1431 1.429 . S
C1447 C1443 1.429 . S
C1447 C1448 1.523 . S
C1448 C1432 1.368 . S
C1448 C1444 1.368 . S
C1448 C1447 1.523 . S
H1449 C1424 0.950 . S
H1450 C1426 0.950 . S
H1451 C1427 0.949 . S
H1452 C1429 0.950 . S
H1453 C1431 0.950 . S
C1454 C1455 1.349 . S
C1454 C1456 1.327 . S
C1454 H1479 0.950 . S
C1455 C1454 1.349 . S
C1455 C1471 1.349 . S
C1456 C1454 1.327 . S
C1456 C1475 1.429 . S
C1456 H1480 0.950 . S
C1457 C1474 1.574 . S
C1457 C1476 1.368 . S
C1457 H1481 0.949 . S
H1458 C1462 0.949 . S
C1459 C1460 1.349 . S
C1459 C1461 1.327 . S
C1459 H1482 0.950 . S
C1460 C1459 1.349 . S
C1460 C1472 1.349 . S
C1461 C1459 1.327 . S
C1461 C1477 1.429 . S
C1461 H1483 0.950 . S
C1462 H1458 0.949 . S
C1462 C1470 1.574 . S
C1462 C1478 1.368 . S
H1463 C1471 0.950 . S
H1464 C1469 0.950 . S
H1465 C1470 0.949 . S
H1466 C1472 0.950 . S
H1467 C1473 0.950 . S
H1468 C1474 0.949 . S
C1469 H1464 0.950 . S
C1469 C1471 1.327 . S
C1469 C1475 1.429 . S
C1470 C1462 1.574 . S
C1470 H1465 0.949 . S
C1470 C1476 1.368 . S
C1471 C1455 1.349 . S
C1471 H1463 0.950 . S
C1471 C1469 1.327 . S
C1472 C1460 1.349 . S
C1472 H1466 0.950 . S
C1472 C1473 1.327 . S
C1473 H1467 0.950 . S
C1473 C1472 1.327 . S
C1473 C1477 1.429 . S
C1474 C1457 1.574 . S
C1474 H1468 0.949 . S
C1474 C1478 1.368 . S
C1475 C1456 1.429 . S
C1475 C1469 1.429 . S
C1475 C1476 1.523 . S
C1476 C1457 1.368 . S
C1476 C1470 1.368 . S
C1476 C1475 1.523 . S
C1477 C1461 1.429 . S
C1477 C1473 1.429 . S
C1477 C1478 1.523 . S
C1478 C1462 1.368 . S
C1478 C1474 1.368 . S
C1478 C1477 1.523 . S
H1479 C1454 0.950 . S
H1480 C1456 0.950 . S
H1481 C1457 0.949 . S
H1482 C1459 0.950 . S
H1483 C1461 0.950 . S
C770 C359 1.490 . S
C765 C15 1.517 . S
C800 C463 2.067 . S
C795 C55 2.080 . S
C830 C383 1.347 . S
C825 C101 1.375 . S
C860 C445 1.370 . S
C855 C141 1.316 . S
C890 C519 1.347 . S
C885 C2 1.333 . S
C920 C581 1.754 . S
C915 C61 1.807 . S
C945 C95 0.961 . S
C950 C655 0.948 . S
C980 C741 0.999 . S
C975 C135 0.995 . S
C1010 C537 2.528 . S
C1005 C42 2.537 . S
C1035 C82 1.791 . S
C1040 C605 1.763 . S
C1070 C679 1.091 . S
C1065 C122 1.067 . S
C1100 C759 1.720 . S
C1095 C21 1.696 . S
C1125 C162 1.580 . S
C1130 C457 1.526 . S
C1160 C371 1.732 . S
C1155 C221 1.794 . S
C1185 C255 1.298 . S
C1190 C433 1.231 . S
C1215 C282 2.439 . S
C1220 C389 2.449 . S
C1250 C685 1.793 . S
C1245 C181 1.837 . S
C1280 C753 1.289 . S
C1275 C202 1.296 . S
C1310 C531 1.891 . S
C1305 C242 1.992 . S
C1335 C301 2.572 . S
C1340 C611 2.633 . S
C1370 C667 1.487 . S
C1365 C215 1.497 . S
C1400 C729 1.112 . S
C1395 C261 1.146 . S
C1430 C507 1.967 . S
C1425 C295 2.035 . S
C1455 C175 1.418 . S
C1460 C593 1.419 . S
