# Generated by pormake.
# Topology pyr, (3,6)-cn, num edge types: 1
# Building blocks:
#     Node 0, Type 0, BuildingBlock: BETDIP_clean_linker_0, # of connection points: 3
#     Node 1, Type 0, BuildingBlock: BETDIP_clean_linker_0, # of connection points: 3
#     Node 2, Type 0, BuildingBlock: BETDIP_clean_linker_0, # of connection points: 3
#     Node 3, Type 0, BuildingBlock: BETDIP_clean_linker_0, # of connection points: 3
#     Node 4, Type 0, BuildingBlock: BETDIP_clean_linker_0, # of connection points: 3
#     Node 5, Type 0, BuildingBlock: BETDIP_clean_linker_0, # of connection points: 3
#     Node 6, Type 0, BuildingBlock: BETDIP_clean_linker_0, # of connection points: 3
#     Node 7, Type 0, BuildingBlock: BETDIP_clean_linker_0, # of connection points: 3
#     Node 8, Type 1, BuildingBlock: JUFBIX_clean_sbu_0, # of connection points: 6
#     Node 9, Type 1, BuildingBlock: JUFBIX_clean_sbu_0, # of connection points: 6
#     Node 10, Type 1, BuildingBlock: JUFBIX_clean_sbu_0, # of connection points: 6
#     Node 11, Type 1, BuildingBlock: JUFBIX_clean_sbu_0, # of connection points: 6
#     Edge 12, Type (0, 1), BuildingBlock: TEMPAE_clean_linker_10, # of connection points: 2
#     Edge 13, Type (0, 1), BuildingBlock: TEMPAE_clean_linker_10, # of connection points: 2
#     Edge 14, Type (0, 1), BuildingBlock: TEMPAE_clean_linker_10, # of connection points: 2
#     Edge 15, Type (0, 1), BuildingBlock: TEMPAE_clean_linker_10, # of connection points: 2
#     Edge 16, Type (0, 1), BuildingBlock: TEMPAE_clean_linker_10, # of connection points: 2
#     Edge 17, Type (0, 1), BuildingBlock: TEMPAE_clean_linker_10, # of connection points: 2
#     Edge 18, Type (0, 1), BuildingBlock: TEMPAE_clean_linker_10, # of connection points: 2
#     Edge 19, Type (0, 1), BuildingBlock: TEMPAE_clean_linker_10, # of connection points: 2
#     Edge 20, Type (0, 1), BuildingBlock: TEMPAE_clean_linker_10, # of connection points: 2
#     Edge 21, Type (0, 1), BuildingBlock: TEMPAE_clean_linker_10, # of connection points: 2
#     Edge 22, Type (0, 1), BuildingBlock: TEMPAE_clean_linker_10, # of connection points: 2
#     Edge 23, Type (0, 1), BuildingBlock: TEMPAE_clean_linker_10, # of connection points: 2
#     Edge 24, Type (0, 1), BuildingBlock: TEMPAE_clean_linker_10, # of connection points: 2
#     Edge 25, Type (0, 1), BuildingBlock: TEMPAE_clean_linker_10, # of connection points: 2
#     Edge 26, Type (0, 1), BuildingBlock: TEMPAE_clean_linker_10, # of connection points: 2
#     Edge 27, Type (0, 1), BuildingBlock: TEMPAE_clean_linker_10, # of connection points: 2
#     Edge 28, Type (0, 1), BuildingBlock: TEMPAE_clean_linker_10, # of connection points: 2
#     Edge 29, Type (0, 1), BuildingBlock: TEMPAE_clean_linker_10, # of connection points: 2
#     Edge 30, Type (0, 1), BuildingBlock: TEMPAE_clean_linker_10, # of connection points: 2
#     Edge 31, Type (0, 1), BuildingBlock: TEMPAE_clean_linker_10, # of connection points: 2
#     Edge 32, Type (0, 1), BuildingBlock: TEMPAE_clean_linker_10, # of connection points: 2
#     Edge 33, Type (0, 1), BuildingBlock: TEMPAE_clean_linker_10, # of connection points: 2
#     Edge 34, Type (0, 1), BuildingBlock: TEMPAE_clean_linker_10, # of connection points: 2
#     Edge 35, Type (0, 1), BuildingBlock: TEMPAE_clean_linker_10, # of connection points: 2
# Relax obj value: 0.160
# Max RMSD: 0.200
# Mean RMSD: 0.129
data_MOF--net-pry--node1-JUFBIX_clean_sbu_0--node2-BETDIP_clean_linker_0--edge1-TEMPAE_clean_linker_10
_symmetry_space_group_name_H-M    P1
_symmetry_Int_Tables_number       1
_symmetry_cell_setting            triclinic
loop_
_symmetry_equiv_pos_as_xyz
'x, y, z'
_cell_length_a     37.693283
_cell_length_b     34.728686
_cell_length_c     38.819613
_cell_angle_alpha  87.867468
_cell_angle_beta   86.279945
_cell_angle_gamma 98.28824
loop_
_atom_site_label
_atom_site_type_symbol
_atom_site_fract_x
_atom_site_fract_y
_atom_site_fract_z
_atom_type_partial_charge
H0 H 0.14425 0.17855 0.23385 0.0
H1 H 0.22315 0.18768 0.14814 0.0
H2 H 0.22869 0.10715 0.23515 0.0
H3 H 0.20498 0.25316 0.14374 0.0
C4 C 0.17617 0.24736 0.15011 0.0
C5 C 0.16843 0.16964 0.22205 0.0
C6 C 0.18482 0.14103 0.23934 0.0
C7 C 0.18213 0.18725 0.18971 0.0
C8 C 0.21334 0.17511 0.17348 0.0
C9 C 0.23071 0.14546 0.18903 0.0
C10 C 0.21572 0.12885 0.22216 0.0
N11 N 0.16236 0.21533 0.17408 0.0
H12 H 0.41412 0.93331 0.66281 0.0
H13 H 0.41595 0.84219 0.5919 0.0
H14 H 0.45018 0.82605 0.69438 0.0
H15 H 0.3676 0.8645 0.57337 0.0
C16 C 0.36841 0.89479 0.57964 0.0
C17 C 0.4199 0.90438 0.65736 0.0
C18 C 0.43378 0.8818 0.68258 0.0
C19 C 0.41173 0.88951 0.62545 0.0
C20 C 0.42009 0.85266 0.61743 0.0
C21 C 0.4344 0.82954 0.64199 0.0
C22 C 0.4408 0.84427 0.6747 0.0
N23 N 0.39303 0.91145 0.6031 0.0
H24 H 0.73482 0.43496 0.85199 0.0
H25 H 0.64088 0.3503 0.84506 0.0
H26 H 0.714 0.33347 0.92236 0.0
H27 H 0.62159 0.41323 0.82665 0.0
C28 C 0.64315 0.41923 0.80634 0.0
C29 C 0.71875 0.40783 0.86144 0.0
C30 C 0.72864 0.38675 0.89045 0.0
C31 C 0.68721 0.39496 0.84491 0.0
C32 C 0.66501 0.36064 0.85769 0.0
C33 C 0.67467 0.33848 0.88568 0.0
C34 C 0.70663 0.35136 0.90134 0.0
N35 N 0.67897 0.41598 0.81473 0.0
H36 H 0.92928 0.56272 0.44845 0.0
H37 H 0.02292 0.64865 0.45354 0.0
H38 H 0.92094 0.66862 0.5 0.0
H39 H 0.04246 0.62123 0.40584 0.0
C40 C 0.02511 0.59429 0.40172 0.0
C41 C 0.94186 0.5901 0.45771 0.0
C42 C 0.92094 0.61383 0.47599 0.0
C43 C 0.97841 0.60255 0.44903 0.0
C44 C 0.99465 0.63871 0.45992 0.0
C45 C 0.97417 0.66239 0.47906 0.0
C46 C 0.93739 0.64955 0.4871 0.0
N47 N 0.99679 0.57939 0.42669 0.0
H48 H 0.79186 0.85766 0.91924 0.0
H49 H 0.87527 0.85976 0.83843 0.0
H50 H 0.79713 0.93875 0.83102 0.0
H51 H 0.90488 0.83617 0.88446 0.0
C52 C 0.8841 0.815 0.89792 0.0
C53 C 0.80418 0.8699 0.89453 0.0
C54 C 0.78975 0.90049 0.8774 0.0
C55 C 0.83514 0.85526 0.88113 0.0
C56 C 0.85188 0.87119 0.84903 0.0
C57 C 0.83864 0.90135 0.83019 0.0
C58 C 0.80781 0.91608 0.84515 0.0
N59 N 0.8478 0.82363 0.8999 0.0
H60 H 0.61551 0.0998 0.4015 0.0
H61 H 0.62477 0.19722 0.46665 0.0
H62 H 0.57475 0.20468 0.37096 0.0
H63 H 0.66641 0.17094 0.48976 0.0
C64 C 0.66632 0.14113 0.48243 0.0
C65 C 0.61052 0.12913 0.40645 0.0
C66 C 0.59389 0.15021 0.38216 0.0
C67 C 0.62242 0.14599 0.43654 0.0
C68 C 0.61591 0.18384 0.44345 0.0
C69 C 0.59829 0.20511 0.42014 0.0
C70 C 0.58754 0.18811 0.38945 0.0
N71 N 0.64275 0.12476 0.45793 0.0
H72 H 0.29557 0.60818 0.20615 0.0
H73 H 0.38813 0.69528 0.21075 0.0
H74 H 0.31061 0.71109 0.13748 0.0
H75 H 0.41003 0.63145 0.22461 0.0
C76 C 0.39013 0.62539 0.24642 0.0
C77 C 0.31059 0.63585 0.19665 0.0
C78 C 0.29873 0.65707 0.16871 0.0
C79 C 0.34283 0.64935 0.21188 0.0
C80 C 0.36356 0.68449 0.19899 0.0
C81 C 0.35199 0.70677 0.17211 0.0
C82 C 0.31947 0.69318 0.15767 0.0
N83 N 0.35345 0.62812 0.24086 0.0
H84 H 0.03457 0.38516 0.63413 0.0
H85 H 0.13947 0.45373 0.6303 0.0
H86 H 0.12157 0.35612 0.56684 0.0
H87 H 0.11022 0.49879 0.65347 0.0
C88 C 0.09286 0.47986 0.67245 0.0
C89 C 0.06198 0.39156 0.62294 0.0
C90 C 0.07477 0.36734 0.59808 0.0
C91 C 0.08487 0.42338 0.63429 0.0
C92 C 0.12082 0.43054 0.62086 0.0
C93 C 0.13395 0.40663 0.59641 0.0
C94 C 0.11077 0.37558 0.58461 0.0
N95 N 0.07249 0.44523 0.66173 0.0
Co96 Co 0.99114 0.01797 0.52339 0.0
C97 C 0.01635 0.9467 0.52242 0.0
Co98 Co 0.04162 0.01752 0.54825 0.0
C99 C 0.91949 0.03218 0.51251 0.0
C100 C 0.94253 1.00411 0.47014 0.0
N101 N 0.94928 0.01764 0.50153 0.0
N102 N 0.89452 0.0286 0.48905 0.0
C103 C 0.90888 0.01099 0.46231 0.0
H104 H 0.91665 0.04627 0.53674 0.0
H105 H 0.96112 0.99066 0.4538 0.0
C106 C 0.01658 0.08878 0.54932 0.0
N107 N 0.08369 0.01764 0.56989 0.0
C108 C 0.11337 1.00331 0.5582 0.0
C109 C 0.0909 0.03052 0.60139 0.0
N110 N 0.13875 0.00642 0.58127 0.0
C111 C 0.12473 0.02349 0.60854 0.0
C112 C 0.0534 0.03973 0.47644 0.0
O113 O 0.99098 0.07121 0.53354 0.0
O114 O 0.04157 0.07034 0.55808 0.0
O115 O 0.06943 0.03392 0.50378 0.0
O116 O 0.01908 0.03439 0.47921 0.0
O117 O 0.0417 0.96445 0.53833 0.0
H118 H 0.07252 0.04367 0.61824 0.0
H119 H 0.11585 0.98971 0.53369 0.0
O120 O 0.99135 0.96498 0.51341 0.0
O121 O 0.9633 1.00155 0.5676 0.0
O122 O 1.01347 1.00127 0.59263 0.0
C123 C 0.97909 0.99594 0.59512 0.0
H124 H 0.89602 1.00379 0.43877 0.0
H125 H 0.13796 0.03029 0.63196 0.0
Co126 Co 0.49427 0.01751 1.00803 0.0
C127 C 0.48779 0.95904 0.06158 0.0
Co128 Co 0.52565 0.03285 0.05249 0.0
C129 C 0.47599 0.99642 0.93916 0.0
C130 C 0.43096 0.98585 0.97659 0.0
N131 N 0.46601 1.00133 0.97257 0.0
N132 N 0.44867 0.97785 0.92248 0.0
C133 C 0.42027 0.97133 0.94589 0.0
H134 H 0.50322 1.0041 0.92784 0.0
H135 H 0.41468 0.98337 1.00078 0.0
C136 C 0.53225 0.09124 0.99878 0.0
N137 N 0.55383 0.04876 0.08796 0.0
C138 C 0.54419 0.05077 0.12187 0.0
C139 C 0.58851 0.06555 0.08404 0.0
N140 N 0.57138 0.06873 0.13906 0.0
C141 C 0.59934 0.07794 0.11539 0.0
C142 C 0.56529 0.99758 0.99926 0.0
O143 O 0.51036 0.06681 0.98411 0.0
O144 O 0.54147 0.08216 0.02861 0.0
O145 O 0.56679 0.01162 0.02922 0.0
O146 O 0.53552 0.9966 0.98508 0.0
O147 O 0.50952 0.98352 0.07637 0.0
H148 H 0.60448 0.06992 0.05966 0.0
H149 H 0.51729 0.04109 0.13338 0.0
O150 O 0.47854 0.9682 0.03181 0.0
O151 O 0.45309 0.03876 0.03145 0.0
O152 O 0.48451 0.05388 0.07548 0.0
C153 C 0.45469 0.05288 0.06138 0.0
H154 H 0.39397 0.95607 0.94138 0.0
H155 H 0.62549 0.09327 0.12029 0.0
Co156 Co 0.55091 0.54176 0.51309 0.0
C157 C 0.49597 0.54335 0.46763 0.0
Co158 Co 0.50006 0.50568 0.53188 0.0
C159 C 0.62674 0.56412 0.50104 0.0
C160 C 0.59805 0.60735 0.48009 0.0
N161 N 0.59333 0.57248 0.49744 0.0
N162 N 0.65239 0.59233 0.48663 0.0
C163 C 0.63431 0.61962 0.47335 0.0
H164 H 0.63197 0.53789 0.51444 0.0
H165 H 0.57653 0.62277 0.47274 0.0
C166 C 0.55467 0.50402 0.57754 0.0
N167 N 0.45834 0.47373 0.54735 0.0
C168 C 0.42403 0.47844 0.54291 0.0
C169 C 0.45624 0.43821 0.56327 0.0
N170 N 0.4006 0.4471 0.55521 0.0
C171 C 0.42083 0.42183 0.56823 0.0
C172 C 0.54544 0.46636 0.49213 0.0
O173 O 0.5724 0.52807 0.555 0.0
O174 O 0.52247 0.49028 0.5723 0.0
O175 O 0.51489 0.46379 0.50839 0.0
O176 O 0.56675 0.49828 0.49126 0.0
O177 O 0.47795 0.52098 0.49123 0.0
H178 H 0.47908 0.42468 0.57014 0.0
H179 H 0.41654 0.50387 0.52992 0.0
O180 O 0.52891 0.55564 0.47158 0.0
O181 O 0.53498 0.58462 0.53467 0.0
O182 O 0.48503 0.54832 0.55547 0.0
C183 C 0.50505 0.58122 0.5524 0.0
H184 H 0.64625 0.64635 0.45935 0.0
H185 H 0.41081 0.39354 0.58054 0.0
Co186 Co 0.02515 0.51783 1.00703 0.0
C187 C 0.95285 0.4821 0.0151 0.0
Co188 Co 0.99814 0.52527 0.05771 0.0
C189 C 0.07561 0.51066 0.94621 0.0
C190 C 0.02234 0.52007 0.93549 0.0
N191 N 0.04326 0.51484 0.96178 0.0
N192 N 0.07509 0.51364 0.91142 0.0
C193 C 0.04171 0.51932 0.90478 0.0
H194 H 0.09903 0.50661 0.95988 0.0
H195 H 0.99466 0.52507 0.93838 0.0
C196 C 0.07051 0.56062 0.04977 0.0
N197 N 0.97799 0.52939 0.10175 0.0
C198 C 0.99476 0.52967 0.13141 0.0
C199 C 0.94421 0.53532 0.11109 0.0
N200 N 0.97297 0.536 0.15893 0.0
C201 C 0.94103 0.53941 0.14623 0.0
C202 C 0.03675 0.45882 0.05366 0.0
O203 O 0.06949 0.54753 0.01952 0.0
O204 O 0.04197 0.55547 0.06974 0.0
O205 O 0.01697 0.4775 0.07299 0.0
O206 O 0.04321 0.47061 0.02197 0.0
O207 O 0.95384 0.49542 0.04514 0.0
H208 H 0.9235 0.53745 0.09338 0.0
H209 H 0.02288 0.52682 0.13252 0.0
O210 O 0.98134 0.4874 0.99529 0.0
O211 O 1.00669 0.56572 0.9922 0.0
O212 O 0.98005 0.57267 0.04255 0.0
C213 C 0.98693 0.58456 1.01107 0.0
H214 H 0.0322 0.52301 0.87929 0.0
H215 H 0.91716 0.54488 0.16115 0.0
C216 C 0.15558 0.14946 0.29957 0.0
C217 C 0.16892 0.12479 0.2753 0.0
C218 C 0.13827 0.13519 0.33212 0.0
C219 C 0.13345 0.09475 0.34164 0.0
C220 C 0.14743 0.06966 0.31763 0.0
C221 C 0.16499 0.08481 0.28521 0.0
C222 C 0.1247 0.16368 0.35633 0.0
C223 C 0.1431 0.02641 0.32588 0.0
C224 C 0.11196 0.06253 0.43894 0.0
C225 C 0.07419 0.05283 0.44186 0.0
C226 C 0.1314 0.07557 0.40689 0.0
C227 C 0.11316 0.07902 0.37615 0.0
C228 C 0.07509 0.06876 0.3789 0.0
C229 C 0.05631 0.05612 0.41129 0.0
C230 C 0.17167 0.08624 0.40606 0.0
C231 C 0.05393 0.0714 0.34744 0.0
H232 H 0.15868 0.18043 0.2931 0.0
H233 H 0.17468 0.06502 0.26712 0.0
H234 H 0.09507 0.15671 0.36098 0.0
H235 H 0.13634 0.16117 0.3817 0.0
H236 H 0.13148 0.19431 0.34599 0.0
H237 H 0.1562 0.0107 0.30538 0.0
H238 H 0.15478 0.0206 0.35072 0.0
H239 H 0.1141 0.01438 0.32905 0.0
H240 H 0.1265 0.06034 0.46194 0.0
H241 H 0.02731 0.04877 0.4126 0.0
H242 H 0.17942 0.11744 0.39788 0.0
H243 H 0.18479 0.06904 0.3868 0.0
H244 H 0.18225 0.08109 0.43162 0.0
H245 H 0.05726 0.10205 0.33717 0.0
H246 H 0.0248 0.06096 0.35316 0.0
H247 H 0.06433 0.05391 0.32676 0.0
C248 C 0.46855 0.88933 0.73575 0.0
C249 C 0.43901 0.89674 0.71764 0.0
C250 C 0.47304 0.90258 0.76918 0.0
C251 C 0.44766 0.92419 0.78462 0.0
C252 C 0.41815 0.93231 0.76629 0.0
C253 C 0.41398 0.91815 0.73326 0.0
C254 C 0.50456 0.89292 0.78819 0.0
C255 C 0.39058 0.95543 0.78181 0.0
C256 C 0.43207 0.9269 0.88178 0.0
C257 C 0.45036 0.9637 0.8882 0.0
C258 C 0.4323 0.91302 0.84836 0.0
C259 C 0.45073 0.93687 0.82058 0.0
C260 C 0.46992 0.97377 0.82701 0.0
C261 C 0.46979 0.9866 0.86091 0.0
C262 C 0.41211 0.87318 0.84269 0.0
C263 C 0.48943 1.00025 0.79796 0.0
H264 H 0.48824 0.87322 0.72379 0.0
H265 H 0.39061 0.92331 0.71992 0.0
H266 H 0.52076 0.92002 0.796 0.0
H267 H 0.49471 0.87519 0.81219 0.0
H268 H 0.5223 0.87651 0.7723 0.0
H269 H 0.37051 0.96132 0.76331 0.0
H270 H 0.37613 0.93925 0.80496 0.0
H271 H 0.40404 0.98365 0.79037 0.0
H272 H 0.41766 0.90889 0.90305 0.0
H273 H 0.48385 0.01507 0.86598 0.0
H274 H 0.42987 0.85555 0.82828 0.0
H275 H 0.38914 0.87611 0.82681 0.0
H276 H 0.40161 0.85711 0.86738 0.0
H277 H 0.50821 0.98466 0.78259 0.0
H278 H 0.50483 0.02697 0.80753 0.0
H279 H 0.46973 0.009 0.78026 0.0
C280 C 0.6038 0.45295 0.7697 0.0
C281 C 0.63443 0.43462 0.77194 0.0
C282 C 0.59317 0.46585 0.73765 0.0
C283 C 0.61284 0.45904 0.70664 0.0
C284 C 0.64395 0.44057 0.70874 0.0
C285 C 0.65469 0.42912 0.74137 0.0
C286 C 0.56049 0.48636 0.73701 0.0
C287 C 0.66515 0.43159 0.67647 0.0
C288 C 0.55866 0.45566 0.62645 0.0
C289 C 0.57099 0.49204 0.60957 0.0
C290 C 0.57307 0.44403 0.65713 0.0
C291 C 0.59976 0.46983 0.67221 0.0
C292 C 0.6124 0.50661 0.65519 0.0
C293 C 0.59831 0.51699 0.62387 0.0
C294 C 0.55941 0.40414 0.67361 0.0
C295 C 0.63997 0.53557 0.67066 0.0
H296 H 0.58804 0.45727 0.79325 0.0
H297 H 0.67813 0.41451 0.74286 0.0
H298 H 0.56713 0.51435 0.72163 0.0
H299 H 0.53886 0.46821 0.72437 0.0
H300 H 0.54996 0.49235 0.76336 0.0
H301 H 0.68911 0.41797 0.68236 0.0
H302 H 0.64773 0.41149 0.66094 0.0
H303 H 0.67409 0.4586 0.66019 0.0
H304 H 0.53782 0.43601 0.61546 0.0
H305 H 0.60789 0.54522 0.61113 0.0
H306 H 0.54479 0.407 0.69889 0.0
H307 H 0.5823 0.38837 0.6786 0.0
H308 H 0.54101 0.38627 0.6572 0.0
H309 H 0.62907 0.54358 0.69624 0.0
H310 H 0.64766 0.56255 0.65397 0.0
H311 H 0.66449 0.52238 0.675 0.0
C312 C 0.0439 0.60247 0.33886 0.0
C313 C 0.02412 0.58013 0.36628 0.0
C314 C 0.03889 0.59308 0.30447 0.0
C315 C 1.01356 0.56053 0.29755 0.0
C316 C 0.99524 0.53645 0.32525 0.0
C317 C 1.00075 0.54654 0.35933 0.0
C318 C 0.05907 0.61932 0.2756 0.0
C319 C 0.96821 0.50135 0.31893 0.0
C320 C 0.96513 0.56533 0.21529 0.0
C321 C 0.98282 0.5414 0.19388 0.0
C322 C 0.97504 0.57185 0.24898 0.0
C323 C 1.00339 0.554 0.26166 0.0
C324 C 0.02138 0.52975 0.24028 0.0
C325 C 1.01085 0.52371 0.20663 0.0
C326 C 0.95522 0.59801 0.27099 0.0
C327 C 0.05164 0.51015 0.25298 0.0
H328 H 0.06205 0.62837 0.34425 0.0
H329 H 0.98566 0.52885 0.38045 0.0
H330 H 0.0713 0.60186 0.25596 0.0
H331 H 0.04008 0.63553 0.26247 0.0
H332 H 0.08059 0.64074 0.28515 0.0
H333 H 0.95921 0.48335 0.34301 0.0
H334 H 0.94431 0.5111 0.30804 0.0
H335 H 0.97975 0.48284 0.29976 0.0
H336 H 0.94392 0.57965 0.20548 0.0
H337 H 0.02437 0.50483 0.19039 0.0
H338 H 0.97438 0.62281 0.27904 0.0
H339 H 0.94267 0.58165 0.29485 0.0
H340 H 0.93389 0.60976 0.2572 0.0
H341 H 0.07343 0.53236 0.26086 0.0
H342 H 0.06309 0.49244 0.233 0.0
H343 H 0.04186 0.49093 0.27613 0.0
C344 C 0.27145 0.09323 0.17459 0.0
C345 C 0.26411 0.1319 0.1706 0.0
C346 C 0.30194 0.0803 0.15733 0.0
C347 C 0.32671 0.1062 0.13494 0.0
C348 C 0.31962 0.14523 0.13084 0.0
C349 C 0.28897 0.15742 0.14842 0.0
C350 C 0.30751 0.03846 0.16298 0.0
C351 C 0.34464 0.1745 0.10771 0.0
C352 C 0.42372 0.08239 0.11312 0.0
C353 C 0.42206 0.06706 0.07997 0.0
C354 C 0.39344 0.09502 0.13099 0.0
C355 C 0.35974 0.0926 0.11592 0.0
C356 C 0.35792 0.07717 0.08245 0.0
C357 C 0.38863 0.06478 0.06514 0.0
C358 C 0.39761 0.11102 0.16632 0.0
C359 C 0.32323 0.0736 0.06475 0.0
H360 H 0.25291 0.07246 0.19089 0.0
H361 H 0.28488 0.1875 0.145 0.0
H362 H 0.30734 0.02395 0.13799 0.0
H363 H 0.33417 0.03722 0.17317 0.0
H364 H 0.28648 0.0218 0.18132 0.0
H365 H 0.33574 0.20363 0.1068 0.0
H366 H 0.3721 0.17756 0.11694 0.0
H367 H 0.34639 0.16409 0.08106 0.0
H368 H 0.44891 0.08449 0.12537 0.0
H369 H 0.3863 0.05304 0.03977 0.0
H370 H 0.37835 0.09329 0.18557 0.0
H371 H 0.39116 0.1412 0.16626 0.0
H372 H 0.42524 0.11125 0.17475 0.0
H373 H 0.30171 0.05479 0.08096 0.0
H374 H 0.32572 0.06113 0.03891 0.0
H375 H 0.31459 0.10267 0.06162 0.0
C376 C 0.33697 0.95348 0.57817 0.0
C377 C 0.33682 0.9138 0.57272 0.0
C378 C 0.30549 0.97038 0.57617 0.0
C379 C 0.27314 0.94684 0.56909 0.0
C380 C 0.27329 0.90716 0.56202 0.0
C381 C 0.3053 0.89119 0.56363 0.0
C382 C 0.30651 0.01298 0.58321 0.0
C383 C 0.23925 0.88103 0.55472 0.0
C384 C 0.18642 0.97621 0.60725 0.0
C385 C 0.17276 0.99225 0.57819 0.0
C386 C 0.219 0.96119 0.60455 0.0
C387 C 0.23864 0.96283 0.57203 0.0
C388 C 0.2252 0.97944 0.54262 0.0
C389 C 0.19221 0.9937 0.54602 0.0
C390 C 0.23218 0.94316 0.63642 0.0
C391 C 0.24569 0.98222 0.50768 0.0
H392 H 0.36145 0.97113 0.58487 0.0
H393 H 0.30524 0.86047 0.55945 0.0
H394 H 0.29352 0.0279 0.56276 0.0
H395 H 0.29119 0.01592 0.60812 0.0
H396 H 0.3344 0.02813 0.58459 0.0
H397 H 0.24444 0.85169 0.54717 0.0
H398 H 0.22034 0.87753 0.57813 0.0
H399 H 0.22569 0.89433 0.53377 0.0
H400 H 0.17114 0.97459 0.63201 0.0
H401 H 0.18178 0.00647 0.52361 0.0
H402 H 0.2589 0.95884 0.64171 0.0
H403 H 0.23547 0.91242 0.63211 0.0
H404 H 0.21349 0.94382 0.65966 0.0
H405 H 0.27295 0.99878 0.50928 0.0
H406 H 0.23187 0.99671 0.48755 0.0
H407 H 0.24917 0.95267 0.49944 0.0
C408 C 0.79136 0.42552 0.89334 0.0
C409 C 0.76132 0.40133 0.90976 0.0
C410 C 0.82173 0.43912 0.9114 0.0
C411 C 0.82318 0.42718 0.94656 0.0
C412 C 0.79332 0.40258 0.96326 0.0
C413 C 0.76268 0.39093 0.9451 0.0
C414 C 0.85236 0.46639 0.89274 0.0
C415 C 0.79383 0.3881 1.00037 0.0
C416 C 0.91684 0.43271 0.98072 0.0
C417 C 0.91844 0.46536 1.00109 0.0
C418 C 0.8857 0.41928 0.96382 0.0
C419 C 0.85592 0.44009 0.96585 0.0
C420 C 0.85757 0.47328 0.9863 0.0
C421 C 0.88847 0.48502 1.00417 0.0
C422 C 0.8848 0.38294 0.94357 0.0
C423 C 0.82729 0.49738 0.98818 0.0
H424 H 0.79156 0.4337 0.86615 0.0
H425 H 0.73968 0.37366 0.95905 0.0
H426 H 0.85908 0.49269 0.9078 0.0
H427 H 0.87668 0.45188 0.8903 0.0
H428 H 0.84593 0.47572 0.86647 0.0
H429 H 0.76947 0.36719 1.00907 0.0
H430 H 0.81787 0.37358 1.00356 0.0
H431 H 0.79571 0.41298 0.01758 0.0
H432 H 0.94008 0.41767 0.97798 0.0
H433 H 0.88994 0.51087 0.01914 0.0
H434 H 0.88347 0.39032 0.9157 0.0
H435 H 0.86037 0.36201 0.95194 0.0
H436 H 0.90883 0.36837 0.94681 0.0
H437 H 0.8228 0.50833 0.96182 0.0
H438 H 0.83287 0.52267 1.00473 0.0
H439 H 0.80196 0.47921 0.99853 0.0
C440 C 0.86245 0.59518 0.45018 0.0
C441 C 0.88129 0.60413 0.4795 0.0
C442 C 0.82483 0.59099 0.45181 0.0
C443 C 0.80565 0.59542 0.48364 0.0
C444 C 0.82448 0.60279 0.51367 0.0
C445 C 0.86218 0.60741 0.51117 0.0
C446 C 0.80574 0.58362 0.41914 0.0
C447 C 0.80488 0.607 0.54818 0.0
C448 C 0.71422 0.62837 0.48031 0.0
C449 C 0.69086 0.59307 0.48595 0.0
C450 C 0.7516 0.6295 0.47952 0.0
C451 C 0.76608 0.59455 0.485 0.0
C452 C 0.74281 0.55887 0.49106 0.0
C453 C 0.70554 0.5585 0.49115 0.0
C454 C 0.77564 0.66811 0.47264 0.0
C455 C 0.75729 0.52105 0.49728 0.0
H456 H 0.87724 0.59325 0.42555 0.0
H457 H 0.87681 0.61424 0.53384 0.0
H458 H 0.78461 0.5578 0.42314 0.0
H459 H 0.7922 0.60894 0.41239 0.0
H460 H 0.82443 0.57881 0.39692 0.0
H461 H 0.82325 0.60952 0.56951 0.0
H462 H 0.79143 0.63336 0.54711 0.0
H463 H 0.78364 0.58161 0.55428 0.0
H464 H 0.70337 0.65533 0.47678 0.0
H465 H 0.68802 0.53092 0.49493 0.0
H466 H 0.79409 0.66677 0.44939 0.0
H467 H 0.79253 0.67448 0.49468 0.0
H468 H 0.76014 0.69259 0.46855 0.0
H469 H 0.77407 0.51482 0.4742 0.0
H470 H 0.73554 0.49601 0.50302 0.0
H471 H 0.7748 0.52347 0.51924 0.0
C472 C 0.17021 0.31382 0.12374 0.0
C473 C 0.1534 0.27704 0.1373 0.0
C474 C 0.15039 0.34251 0.11115 0.0
C475 C 0.11234 0.33451 0.1109 0.0
C476 C 0.09516 0.29721 0.12431 0.0
C477 C 0.11566 0.26932 0.13763 0.0
C478 C 0.17038 0.3817 0.09817 0.0
C479 C 0.05497 0.28648 0.1241 0.0
C480 C 0.0582 0.42124 0.10419 0.0
C481 C 0.05406 0.42547 0.06847 0.0
C482 C 0.07665 0.39199 0.11822 0.0
C483 C 0.09095 0.36505 0.09644 0.0
C484 C 0.086 0.36857 0.06047 0.0
C485 C 0.06826 0.39874 0.04701 0.0
C486 C 0.08173 0.39069 0.15645 0.0
C487 C 0.09976 0.34052 0.03595 0.0
H488 H 0.19924 0.32043 0.12329 0.0
H489 H 0.10211 0.24112 0.14769 0.0
H490 H 0.16644 0.38664 0.07038 0.0
H491 H 0.1595 0.4052 0.11222 0.0
H492 H 0.19967 0.38425 0.10144 0.0
H493 H 0.04547 0.25635 0.13474 0.0
H494 H 0.04129 0.307 0.13952 0.0
H495 H 0.04673 0.28904 0.09727 0.0
H496 H 0.0479 0.44168 0.12125 0.0
H497 H 0.06544 0.40132 0.01944 0.0
H498 H 0.11085 0.39534 0.16063 0.0
H499 H 0.07036 0.36158 0.16823 0.0
H500 H 0.06879 0.41313 0.17013 0.0
H501 H 0.12953 0.34409 0.03513 0.0
H502 H 0.0916 0.34501 1.00928 0.0
H503 H 0.08957 0.31007 0.04523 0.0
C504 C 0.66618 0.26741 0.90415 0.0
C505 C 0.65138 0.30182 0.89899 0.0
C506 C 0.64503 0.23315 0.91847 0.0
C507 C 0.60822 0.23334 0.92856 0.0
C508 C 0.59301 0.26789 0.92292 0.0
C509 C 0.61467 0.30157 0.90793 0.0
C510 C 0.66228 0.19689 0.92341 0.0
C511 C 0.55412 0.26965 0.93377 0.0
C512 C 0.54786 0.13509 0.94508 0.0
C513 C 0.54888 0.12887 0.98093 0.0
C514 C 0.56653 0.16917 0.92771 0.0
C515 C 0.58633 0.19802 0.94665 0.0
C516 C 0.58642 0.19242 0.98298 0.0
C517 C 0.56797 0.15793 0.99958 0.0
C518 C 0.56602 0.17371 0.88894 0.0
C519 C 0.60669 0.22253 1.00433 0.0
H520 H 0.69446 0.26735 0.89698 0.0
H521 H 0.60317 0.32817 0.90424 0.0
H522 H 0.66213 0.18902 0.95138 0.0
H523 H 0.64667 0.17205 0.9113 0.0
H524 H 0.69048 0.20073 0.91212 0.0
H525 H 0.54592 0.29809 0.92624 0.0
H526 H 0.53644 0.24612 0.92202 0.0
H527 H 0.54959 0.26489 0.96224 0.0
H528 H 0.53341 0.11275 0.93039 0.0
H529 H 0.56886 0.15354 0.02729 0.0
H530 H 0.59363 0.17457 0.87685 0.0
H531 H 0.55692 0.20167 0.88158 0.0
H532 H 0.54815 0.14954 0.87813 0.0
H533 H 0.6359 0.22541 0.99689 0.0
H534 H 0.60233 0.21492 0.03249 0.0
H535 H 0.59827 0.25142 0.99924 0.0
C536 C 0.9806 0.7166 0.51986 0.0
C537 C 0.98962 0.70236 0.48762 0.0
C538 C 0.9894 0.75617 0.52626 0.0
C539 C 1.00777 0.78206 0.49979 0.0
C540 C 0.01913 0.7674 0.46802 0.0
C541 C 1.00985 0.72766 0.46227 0.0
C542 C 0.97696 0.77062 0.56055 0.0
C543 C 0.03896 0.79407 0.43925 0.0
C544 C 0.98575 0.8851 0.49993 0.0
C545 C 0.01529 0.90502 0.51523 0.0
C546 C 0.98338 0.84524 0.49428 0.0
C547 C 1.01133 0.82476 0.504 0.0
C548 C 0.04163 0.84482 0.51874 0.0
C549 C 0.04323 0.88475 0.52428 0.0
C550 C 0.95056 0.82486 0.47851 0.0
C551 C 0.07202 0.82396 0.52917 0.0
H552 H 0.96538 0.69699 0.53968 0.0
H553 H 0.01664 0.71689 0.4372 0.0
H554 H 0.99934 0.78937 0.57163 0.0
H555 H 0.95538 0.78864 0.55667 0.0
H556 H 0.96635 0.74633 0.57957 0.0
H557 H 0.0501 0.77759 0.41815 0.0
H558 H 0.02032 0.8124 0.4282 0.0
H559 H 0.06127 0.81396 0.44928 0.0
H560 H 0.96408 0.90053 0.4928 0.0
H561 H 0.06623 0.9 0.53598 0.0
H562 H 0.93607 0.80186 0.49698 0.0
H563 H 0.95871 0.81038 0.45489 0.0
H564 H 0.93168 0.84521 0.47158 0.0
H565 H 0.06202 0.80153 0.54999 0.0
H566 H 0.09457 0.84416 0.53855 0.0
H567 H 0.08244 0.80863 0.50697 0.0
C568 C 0.42001 0.76672 0.61225 0.0
C569 C 0.44228 0.79001 0.63337 0.0
C570 C 0.42881 0.73109 0.60118 0.0
C571 C 0.4601 0.71776 0.61232 0.0
C572 C 0.4816 0.73992 0.63521 0.0
C573 C 0.47269 0.776 0.64513 0.0
C574 C 0.40546 0.70858 0.57636 0.0
C575 C 0.51476 0.72621 0.64823 0.0
C576 C 0.46972 0.61191 0.59785 0.0
C577 C 0.49352 0.61574 0.56824 0.0
C578 C 0.45915 0.64494 0.61307 0.0
C579 C 0.47192 0.6824 0.59764 0.0
C580 C 0.49564 0.68627 0.5675 0.0
C581 C 0.50651 0.65292 0.55346 0.0
C582 C 0.43456 0.63983 0.6457 0.0
C583 C 0.50915 0.7256 0.54976 0.0
H584 H 0.39586 0.77661 0.60382 0.0
H585 H 0.49026 0.79373 0.66124 0.0
H586 H 0.42119 0.70709 0.55138 0.0
H587 H 0.39675 0.67823 0.58661 0.0
H588 H 0.38121 0.72211 0.57135 0.0
H589 H 0.52603 0.74434 0.66904 0.0
H590 H 0.5085 0.69546 0.65823 0.0
H591 H 0.5357 0.72744 0.62662 0.0
H592 H 0.45986 0.58315 0.60943 0.0
H593 H 0.52468 0.65592 0.53037 0.0
H594 H 0.40908 0.65101 0.64107 0.0
H595 H 0.44728 0.65706 0.66632 0.0
H596 H 0.42812 0.60886 0.65515 0.0
H597 H 0.48608 0.73992 0.54242 0.0
H598 H 0.52693 0.72345 0.52615 0.0
H599 H 0.52431 0.74474 0.5677 0.0
C600 C 0.86269 0.95625 0.78416 0.0
C601 C 0.85721 0.9164 0.79481 0.0
C602 C 0.8818 0.97028 0.75213 0.0
C603 C 0.89589 0.94417 0.72921 0.0
C604 C 0.88977 0.9039 0.73951 0.0
C605 C 0.87088 0.89074 0.77169 0.0
C606 C 0.88743 0.01341 0.74303 0.0
C607 C 0.9034 0.87438 0.71645 0.0
C608 C 0.91991 0.97422 0.63182 0.0
C609 C 0.95773 0.98331 0.62954 0.0
C610 C 0.89971 0.96194 0.66364 0.0
C611 C 0.91719 0.95865 0.69484 0.0
C612 C 0.95533 0.96819 0.69275 0.0
C613 C 0.9749 0.9801 0.66054 0.0
C614 C 0.85941 0.95203 0.66374 0.0
C615 C 0.97571 0.96567 0.72473 0.0
H616 H 0.85281 0.97682 0.80134 0.0
H617 H 0.8666 0.85984 0.77863 0.0
H618 H 0.91663 0.02451 0.74008 0.0
H619 H 0.87628 0.01903 0.71789 0.0
H620 H 0.87459 0.03008 0.76296 0.0
H621 H 0.89603 0.84409 0.72748 0.0
H622 H 0.8923 0.87628 0.69076 0.0
H623 H 0.93309 0.88082 0.71226 0.0
H624 H 0.90588 0.97638 0.60848 0.0
H625 H 1.00392 0.98699 0.65972 0.0
H626 H 0.84626 0.97014 0.68217 0.0
H627 H 0.85096 0.92113 0.67261 0.0
H628 H 0.84951 0.95661 0.63778 0.0
H629 H 0.96539 0.984 0.74478 0.0
H630 H 1.00504 0.97522 0.71943 0.0
H631 H 0.97144 0.93523 0.73562 0.0
C632 C 0.55496 0.14096 0.33193 0.0
C633 C 0.58578 0.13389 0.34813 0.0
C634 C 0.54901 0.12872 0.29844 0.0
C635 C 0.57422 0.10845 0.28097 0.0
C636 C 0.60453 0.09974 0.29772 0.0
C637 C 0.61013 0.11288 0.33089 0.0
C638 C 0.51655 0.13884 0.28124 0.0
C639 C 0.63191 0.07791 0.28005 0.0
C640 C 0.55158 0.0536 0.20044 0.0
C641 C 0.57012 0.07931 0.1745 0.0
C642 C 0.55195 0.06295 0.23534 0.0
C643 C 0.57077 0.09912 0.24419 0.0
C644 C 0.58836 0.12575 0.21787 0.0
C645 C 0.58805 0.11535 0.18338 0.0
C646 C 0.53335 0.03362 0.26275 0.0
C647 C 0.60817 0.16491 0.22617 0.0
H648 H 0.53569 0.15659 0.34522 0.0
H649 H 0.63437 0.10783 0.34278 0.0
H650 H 0.5254 0.15961 0.25888 0.0
H651 H 0.50134 0.11242 0.27108 0.0
H652 H 0.49818 0.15223 0.29916 0.0
H653 H 0.65202 0.07018 0.2978 0.0
H654 H 0.61837 0.05077 0.26957 0.0
H655 H 0.64634 0.09608 0.25794 0.0
H656 H 0.53783 0.02569 0.19348 0.0
H657 H 0.60179 0.1355 0.1632 0.0
H658 H 0.51472 0.04733 0.28006 0.0
H659 H 0.55361 0.02336 0.27897 0.0
H660 H 0.51796 0.00798 0.25148 0.0
H661 H 0.59029 0.18086 0.24228 0.0
H662 H 0.61827 0.18327 0.20254 0.0
H663 H 0.63139 0.16076 0.24134 0.0
C664 C 0.43269 0.59214 0.27947 0.0
C665 C 0.40201 0.61072 0.27981 0.0
C666 C 0.44636 0.57996 0.31033 0.0
C667 C 0.42988 0.58783 0.34267 0.0
C668 C 0.39882 0.60671 0.34317 0.0
C669 C 0.38492 0.61736 0.31177 0.0
C670 C 0.47873 0.55887 0.30825 0.0
C671 C 0.38097 0.61684 0.37687 0.0
C672 C 0.44971 0.5305 0.42383 0.0
C673 C 0.47868 0.55503 0.43607 0.0
C674 C 0.43359 0.54074 0.39364 0.0
C675 C 0.4458 0.57706 0.3757 0.0
C676 C 0.47442 0.6024 0.38856 0.0
C677 C 0.49086 0.59082 0.41813 0.0
C678 C 0.40407 0.51218 0.38044 0.0
C679 C 0.48773 0.64184 0.37107 0.0
H680 H 0.44603 0.58698 0.25483 0.0
H681 H 0.36152 0.63223 0.31224 0.0
H682 H 0.50181 0.57682 0.31899 0.0
H683 H 0.47297 0.53108 0.32403 0.0
H684 H 0.48677 0.55237 0.28129 0.0
H685 H 0.35701 0.63133 0.37302 0.0
H686 H 0.37261 0.59019 0.39375 0.0
H687 H 0.40042 0.63655 0.39079 0.0
H688 H 0.4402 0.50272 0.43742 0.0
H689 H 0.51295 0.61015 0.42759 0.0
H690 H 0.4123 0.50413 0.35401 0.0
H691 H 0.37935 0.52578 0.37862 0.0
H692 H 0.39756 0.48519 0.39729 0.0
H693 H 0.49978 0.63828 0.34477 0.0
H694 H 0.50819 0.65934 0.38571 0.0
H695 H 0.46491 0.65836 0.36814 0.0
C696 C 0.07224 0.47638 0.73475 0.0
C697 C 0.10026 0.48346 0.709 0.0
C698 C 0.07895 0.48126 0.76953 0.0
C699 C 0.11483 0.49174 0.77875 0.0
C700 C 0.14345 0.49683 0.75277 0.0
C701 C 0.13567 0.49363 0.71801 0.0
C702 C 0.04742 0.47651 0.79624 0.0
C703 C 0.18216 0.50637 0.76121 0.0
C704 C 0.11074 0.54385 0.86107 0.0
C705 C 0.10267 0.51191 0.88474 0.0
C706 C 0.11944 0.53851 0.82616 0.0
C707 C 0.12115 0.50036 0.81526 0.0
C708 C 0.12004 0.46939 0.84028 0.0
C709 C 0.11024 0.47543 0.87499 0.0
C710 C 0.12108 0.5726 0.80055 0.0
C711 C 0.12455 0.42891 0.82983 0.0
H712 H 0.04493 0.46841 0.72752 0.0
H713 H 0.15739 0.49847 0.69788 0.0
H714 H 0.04987 0.4528 0.81549 0.0
H715 H 0.04722 0.50371 0.81034 0.0
H716 H 0.02125 0.46955 0.78457 0.0
H717 H 0.20024 0.49424 0.74206 0.0
H718 H 0.19004 0.53844 0.75999 0.0
H719 H 0.18657 0.49496 0.78743 0.0
H720 H 0.10486 0.57201 0.86897 0.0
H721 H 0.10409 0.45078 0.89342 0.0
H722 H 0.09618 0.56942 0.78647 0.0
H723 H 0.14414 0.57336 0.78122 0.0
H724 H 0.12355 0.60084 0.81339 0.0
H725 H 0.0989 0.41426 0.82083 0.0
H726 H 0.13186 0.41104 0.85189 0.0
H727 H 0.14554 0.43001 0.80825 0.0
C728 C 0.72905 0.89026 0.91399 0.0
C729 C 0.75593 0.91535 0.89355 0.0
C730 C 0.69846 0.90347 0.93056 0.0
C731 C 0.69328 0.94317 0.92698 0.0
C732 C 0.71983 0.96862 0.90594 0.0
C733 C 0.75037 0.95464 0.88973 0.0
C734 C 0.67153 0.87462 0.95224 0.0
C735 C 0.71618 0.01107 0.90078 0.0
C736 C 0.59696 0.96962 0.94708 0.0
C737 C 0.598 0.98348 0.9808 0.0
C738 C 0.62735 0.95699 0.92942 0.0
C739 C 0.66045 0.95777 0.94535 0.0
C740 C 0.66165 0.97178 0.97937 0.0
C741 C 0.6309 0.98434 0.9964 0.0
C742 C 0.62391 0.94266 0.89342 0.0
C743 C 0.69565 0.97339 0.99805 0.0
H744 H 0.7316 0.85969 0.91699 0.0
H745 H 0.77038 0.97498 0.87455 0.0
H746 H 0.66923 0.88419 0.97915 0.0
H747 H 0.6446 0.87341 0.94203 0.0
H748 H 0.67901 0.84482 0.95278 0.0
H749 H 0.73815 0.02716 0.8831 0.0
H750 H 0.69006 0.01396 0.89006 0.0
H751 H 0.71636 0.02499 0.92605 0.0
H752 H 0.5722 0.96869 0.93423 0.0
H753 H 0.63273 0.99492 0.02223 0.0
H754 H 0.62894 0.91198 0.89287 0.0
H755 H 0.64448 0.96014 0.87521 0.0
H756 H 0.59691 0.94435 0.88408 0.0
H757 H 0.70312 0.94374 1.00091 0.0
H758 H 0.69283 0.98529 0.02409 0.0
H759 H 0.71811 0.99178 0.98268 0.0
C760 C 0.72843 0.14448 0.50095 0.0
C761 C 0.69741 0.122 0.49061 0.0
C762 C 0.76017 0.12836 0.50395 0.0
C763 C 0.76048 0.08865 0.49707 0.0
C764 C 0.72852 0.06523 0.4888 0.0
C765 C 0.69735 0.0823 0.48535 0.0
C766 C 0.79385 0.15437 0.51241 0.0
C767 C 0.72768 0.02259 0.48198 0.0
C768 C 0.84801 0.05912 0.46158 0.0
C769 C 0.86065 0.04299 0.49116 0.0
C770 C 0.81551 0.07427 0.46327 0.0
C771 C 0.79492 0.07263 0.49526 0.0
C772 C 0.80734 0.05596 0.52519 0.0
C773 C 0.84032 0.04162 0.52282 0.0
C774 C 0.80343 0.09242 0.43089 0.0
C775 C 0.78577 0.05316 0.55957 0.0
H776 H 0.72838 0.1752 0.50498 0.0
H777 H 0.67321 0.06477 0.47774 0.0
H778 H 0.80662 0.14093 0.53384 0.0
H779 H 0.81354 0.15795 0.48957 0.0
H780 H 0.78842 0.18368 0.51978 0.0
H781 H 0.6999 0.00752 0.47982 0.0
H782 H 0.74375 0.01958 0.45751 0.0
H783 H 0.73995 0.00768 0.50294 0.0
H784 H 0.86403 0.06067 0.43723 0.0
H785 H 0.85003 0.0288 0.5456 0.0
H786 H 0.79994 0.12313 0.43506 0.0
H787 H 0.77699 0.07674 0.42475 0.0
H788 H 0.82288 0.09185 0.40822 0.0
H789 H 0.78202 0.08271 0.56762 0.0
H790 H 0.79889 0.03862 0.5802 0.0
H791 H 0.75863 0.03664 0.55718 0.0
C792 C 0.26217 0.6529 0.11567 0.0
C793 C 0.26532 0.64195 0.1506 0.0
C794 C 0.2308 0.64091 0.09867 0.0
C795 C 0.20197 0.61542 0.11607 0.0
C796 C 0.20523 0.60289 0.1508 0.0
C797 C 0.23633 0.6168 0.16775 0.0
C798 C 0.2284 0.65601 0.06203 0.0
C799 C 0.17578 0.5747 0.17015 0.0
C800 C 0.10677 0.60893 0.08511 0.0
C801 C 0.10509 0.5771 0.06375 0.0
C802 C 0.13829 0.62227 0.1015 0.0
C803 C 0.16847 0.60217 0.09792 0.0
C804 C 0.16666 0.56966 0.07664 0.0
C805 C 0.13535 0.55804 0.05932 0.0
C806 C 0.13923 0.65788 0.12274 0.0
C807 C 0.19736 0.54623 0.07312 0.0
H808 H 0.28434 0.6709 0.10112 0.0
H809 H 0.23755 0.60811 0.19465 0.0
H810 H 0.22627 0.63153 0.04439 0.0
H811 H 0.20381 0.66993 0.06023 0.0
H812 H 0.25209 0.6776 0.05277 0.0
H813 H 0.18366 0.56488 0.19574 0.0
H814 H 0.15125 0.58863 0.1742 0.0
H815 H 0.16865 0.54875 0.15476 0.0
H816 H 0.08334 0.6235 0.08892 0.0
H817 H 0.13388 0.53278 0.04359 0.0
H818 H 0.16304 0.67952 0.11403 0.0
H819 H 0.1418 0.64979 0.15027 0.0
H820 H 0.11467 0.67188 0.12091 0.0
H821 H 0.22203 0.56493 0.06189 0.0
H822 H 0.19139 0.52102 0.05656 0.0
H823 H 0.20327 0.53524 0.09904 0.0
C824 C 0.18552 0.41403 0.55145 0.0
C825 C 0.17284 0.41186 0.58629 0.0
C826 C 0.22259 0.42009 0.5421 0.0
C827 C 0.24716 0.42354 0.5683 0.0
C828 C 0.23433 0.42072 0.6035 0.0
C829 C 0.19732 0.41495 0.61204 0.0
C830 C 0.23548 0.42318 0.50433 0.0
C831 C 0.25969 0.42379 0.63221 0.0
C832 C 0.34284 0.40371 0.55497 0.0
C833 C 0.36208 0.44145 0.55456 0.0
C834 C 0.30521 0.39749 0.55749 0.0
C835 C 0.28643 0.42985 0.55943 0.0
C836 C 0.30561 0.46811 0.55705 0.0
C837 C 0.34327 0.47346 0.55475 0.0
C838 C 0.28565 0.35623 0.55995 0.0
C839 C 0.2864 0.50333 0.55888 0.0
H840 H 0.16646 0.41167 0.53162 0.0
H841 H 0.18742 0.41258 0.63901 0.0
H842 H 0.25197 0.452 0.498 0.0
H843 H 0.25292 0.40072 0.49868 0.0
H844 H 0.21288 0.41955 0.48717 0.0
H845 H 0.24523 0.42078 0.65825 0.0
H846 H 0.27727 0.40083 0.63023 0.0
H847 H 0.27737 0.45235 0.62975 0.0
H848 H 0.3572 0.37889 0.55391 0.0
H849 H 0.35791 0.50268 0.55456 0.0
H850 H 0.2641 0.35282 0.54169 0.0
H851 H 0.27262 0.34955 0.58638 0.0
H852 H 0.30399 0.33455 0.5544 0.0
H853 H 0.26444 0.50102 0.54104 0.0
H854 H 0.30489 0.53091 0.55233 0.0
H855 H 0.27397 0.50479 0.58542 0.0
C856 C 0.93313 0.78234 0.92263 0.0
C857 C 0.89641 0.78093 0.91714 0.0
C858 C 0.94678 0.75102 0.93909 0.0
C859 C 0.92358 0.71615 0.94993 0.0
C860 C 0.88634 0.71444 0.94446 0.0
C861 C 0.8732 0.74678 0.9286 0.0
C862 C 0.98638 0.75528 0.94469 0.0
C863 C 0.86041 0.67796 0.95466 0.0
C864 C 0.96909 0.62357 0.95977 0.0
C865 C 0.97071 0.6184 0.99578 0.0
C866 C 0.95307 0.65418 0.94481 0.0
C867 C 0.93867 0.68155 0.96599 0.0
C868 C 0.94037 0.6766 1.0024 0.0
C869 C 0.9558 0.6451 0.01674 0.0
C870 C 0.95154 0.65717 0.90608 0.0
C871 C 0.92636 0.70508 0.02631 0.0
H872 H 0.95149 0.80838 0.914 0.0
H873 H 0.84488 0.74488 0.92435 0.0
H874 H 0.99027 0.74926 0.97236 0.0
H875 H 0.99907 0.73367 0.92969 0.0
H876 H 1.00061 0.78486 0.93675 0.0
H877 H 0.83238 0.68095 0.94906 0.0
H878 H 0.86864 0.65312 0.94052 0.0
H879 H 0.86105 0.67064 0.98265 0.0
H880 H 0.97998 0.60317 0.94306 0.0
H881 H 0.95664 0.64173 0.04453 0.0
H882 H 0.96777 0.68475 0.89548 0.0
H883 H 0.92345 0.65785 0.89939 0.0
H884 H 0.96177 0.63249 0.89323 0.0
H885 H 0.94103 0.7348 0.01986 0.0
H886 H 0.92937 0.69744 0.0539 0.0
H887 H 0.89754 0.70607 0.02277 0.0
C888 C 0.3578 0.77779 0.15368 0.0
C889 C 0.37396 0.74425 0.15873 0.0
C890 C 0.37783 0.81284 0.13966 0.0
C891 C 0.41494 0.81442 0.12994 0.0
C892 C 0.43153 0.78079 0.13545 0.0
C893 C 0.41093 0.74625 0.14998 0.0
C894 C 0.35911 0.84806 0.13474 0.0
C895 C 0.47084 0.78096 0.12504 0.0
C896 C 0.45384 0.89162 0.05993 0.0
C897 C 0.47171 0.92104 0.07906 0.0
C898 C 0.43619 0.85651 0.07605 0.0
C899 C 0.4358 0.85065 0.1124 0.0
C900 C 0.45429 0.87995 0.13184 0.0
C901 C 0.47223 0.91465 0.11493 0.0
C902 C 0.41735 0.82593 0.05418 0.0
C903 C 0.45423 0.87513 0.17064 0.0
H904 H 0.32935 0.77659 0.16077 0.0
H905 H 0.42354 0.72037 0.15355 0.0
H906 H 0.37349 0.87328 0.14737 0.0
H907 H 0.35956 0.85623 0.1068 0.0
H908 H 0.3307 0.84279 0.14551 0.0
H909 H 0.48009 0.75301 0.13237 0.0
H910 H 0.47567 0.78628 0.09664 0.0
H911 H 0.48745 0.80495 0.13729 0.0
H912 H 0.45338 0.89615 0.03218 0.0
H913 H 0.48575 0.93727 0.12997 0.0
H914 H 0.38802 0.8216 0.06131 0.0
H915 H 0.42693 0.79761 0.05907 0.0
H916 H 0.4218 0.83401 0.02611 0.0
H917 H 0.4263 0.87276 0.18232 0.0
H918 H 0.47089 0.89991 0.18192 0.0
H919 H 0.46448 0.8478 0.17796 0.0
C920 C 0.05479 0.31821 0.55519 0.0
C921 C 0.05279 0.33051 0.58918 0.0
C922 C 0.0422 0.27966 0.54777 0.0
C923 C 0.02687 0.25294 0.57497 0.0
C924 C 0.02126 0.26627 0.60864 0.0
C925 C 0.03446 0.30494 0.61541 0.0
C926 C 0.04863 0.26673 0.51147 0.0
C927 C 1.00443 0.23885 0.63822 0.0
C928 C 0.98884 0.1503 0.55175 0.0
C929 C 0.01815 0.13045 0.55675 0.0
C930 C 0.99081 0.1901 0.55824 0.0
C931 C 0.02297 0.21044 0.56951 0.0
C932 C 0.05248 0.1904 0.57478 0.0
C933 C 0.04962 0.15069 0.56854 0.0
C934 C 0.95869 0.21044 0.55282 0.0
C935 C 0.08741 0.21105 0.58652 0.0
H936 H 0.06832 0.33814 0.53471 0.0
H937 H 0.03284 0.31415 0.64177 0.0
H938 H 0.07123 0.24944 0.51062 0.0
H939 H 0.02462 0.24776 0.50348 0.0
H940 H 0.05553 0.29184 0.49247 0.0
H941 H 0.99572 0.25485 0.66077 0.0
H942 H 0.98092 0.21915 0.63011 0.0
H943 H 0.02433 0.22043 0.64658 0.0
H944 H 0.96437 0.13474 0.54281 0.0
H945 H 0.07242 0.13562 0.57241 0.0
H946 H 0.9656 0.23353 0.53197 0.0
H947 H 0.95109 0.22489 0.57665 0.0
H948 H 0.93506 0.19004 0.54576 0.0
H949 H 0.09883 0.23506 0.56757 0.0
H950 H 0.10773 0.19116 0.58946 0.0
H951 H 0.08253 0.22422 0.61167 0.0
C952 C 0.58228 0.25452 0.46159 0.0
C953 C 0.59209 0.2454 0.4277 0.0
C954 C 0.57728 0.29245 0.46953 0.0
C955 C 0.5812 0.32188 0.44278 0.0
C956 C 0.59081 0.31298 0.40847 0.0
C957 C 0.5965 0.27491 0.40138 0.0
C958 C 0.56733 0.30088 0.50654 0.0
C959 C 0.59456 0.34353 0.37924 0.0
C960 C 0.5289 0.40379 0.46435 0.0
C961 C 0.55574 0.43191 0.47535 0.0
C962 C 0.53724 0.36874 0.45169 0.0
C963 C 0.5732 0.36131 0.45079 0.0
C964 C 0.60069 0.39026 0.46061 0.0
C965 C 0.59164 0.42556 0.47247 0.0
C966 C 0.50729 0.33897 0.44073 0.0
C967 C 0.63924 0.38309 0.46051 0.0
H968 H 0.57812 0.23185 0.482 0.0
H969 H 0.60467 0.26838 0.37522 0.0
H970 H 0.58613 0.32584 0.51487 0.0
H971 H 0.53995 0.30915 0.50868 0.0
H972 H 0.56785 0.27543 0.52461 0.0
H973 H 0.60273 0.33204 0.35406 0.0
H974 H 0.56861 0.35465 0.37693 0.0
H975 H 0.61476 0.36866 0.3847 0.0
H976 H 0.50114 0.40893 0.4662 0.0
H977 H 0.61236 0.44732 0.4811 0.0
H978 H 0.50283 0.31352 0.45944 0.0
H979 H 0.5147 0.32825 0.41507 0.0
H980 H 0.48161 0.35096 0.43938 0.0
H981 H 0.64152 0.36016 0.4806 0.0
H982 H 0.6578 0.40976 0.46577 0.0
H983 H 0.64806 0.37234 0.43528 0.0
loop_
_geom_bond_atom_site_label_1
_geom_bond_atom_site_label_2
_geom_bond_distance
_geom_bond_site_symmetry_2
_ccdc_geom_bond_type
H0 C5 0.930 . S
H1 C8 0.930 . S
H2 C10 0.930 . S
H3 C4 1.016 . S
C4 H3 1.016 . S
C4 N11 1.286 . S
C5 H0 0.930 . S
C5 C6 1.397 . S
C5 C7 1.361 . S
C6 C5 1.397 . S
C6 C10 1.390 . S
C7 C5 1.361 . S
C7 C8 1.393 . S
C7 N11 1.413 . S
C8 H1 0.930 . S
C8 C7 1.393 . S
C8 C9 1.399 . S
C9 C8 1.399 . S
C9 C10 1.381 . S
C10 H2 0.930 . S
C10 C6 1.390 . S
C10 C9 1.381 . S
N11 C4 1.286 . S
N11 C7 1.413 . S
H12 C17 0.930 . S
H13 C20 0.930 . S
H14 C22 0.930 . S
H15 C16 1.016 . S
C16 H15 1.016 . S
C16 N23 1.286 . S
C17 H12 0.930 . S
C17 C18 1.397 . S
C17 C19 1.361 . S
C18 C17 1.397 . S
C18 C22 1.390 . S
C19 C17 1.361 . S
C19 C20 1.393 . S
C19 N23 1.413 . S
C20 H13 0.930 . S
C20 C19 1.393 . S
C20 C21 1.399 . S
C21 C20 1.399 . S
C21 C22 1.381 . S
C22 H14 0.930 . S
C22 C18 1.390 . S
C22 C21 1.381 . S
N23 C16 1.286 . S
N23 C19 1.413 . S
H24 C29 0.930 . S
H25 C32 0.930 . S
H26 C34 0.930 . S
H27 C28 1.016 . S
C28 H27 1.016 . S
C28 N35 1.286 . S
C29 H24 0.930 . S
C29 C30 1.397 . S
C29 C31 1.361 . S
C30 C29 1.397 . S
C30 C34 1.390 . S
C31 C29 1.361 . S
C31 C32 1.393 . S
C31 N35 1.413 . S
C32 H25 0.930 . S
C32 C31 1.393 . S
C32 C33 1.399 . S
C33 C32 1.399 . S
C33 C34 1.381 . S
C34 H26 0.930 . S
C34 C30 1.390 . S
C34 C33 1.381 . S
N35 C28 1.286 . S
N35 C31 1.413 . S
H36 C41 0.930 . S
H37 C44 0.930 . S
H38 C46 0.930 . S
H39 C40 1.016 . S
C40 H39 1.016 . S
C40 N47 1.286 . S
C41 H36 0.930 . S
C41 C42 1.397 . S
C41 C43 1.361 . S
C42 C41 1.397 . S
C42 C46 1.390 . S
C43 C41 1.361 . S
C43 C44 1.393 . S
C43 N47 1.413 . S
C44 H37 0.930 . S
C44 C43 1.393 . S
C44 C45 1.399 . S
C45 C44 1.399 . S
C45 C46 1.381 . S
C46 H38 0.930 . S
C46 C42 1.390 . S
C46 C45 1.381 . S
N47 C40 1.286 . S
N47 C43 1.413 . S
H48 C53 0.930 . S
H49 C56 0.930 . S
H50 C58 0.930 . S
H51 C52 1.016 . S
C52 H51 1.016 . S
C52 N59 1.286 . S
C53 H48 0.930 . S
C53 C54 1.397 . S
C53 C55 1.361 . S
C54 C53 1.397 . S
C54 C58 1.390 . S
C55 C53 1.361 . S
C55 C56 1.393 . S
C55 N59 1.413 . S
C56 H49 0.930 . S
C56 C55 1.393 . S
C56 C57 1.399 . S
C57 C56 1.399 . S
C57 C58 1.381 . S
C58 H50 0.930 . S
C58 C54 1.390 . S
C58 C57 1.381 . S
N59 C52 1.286 . S
N59 C55 1.413 . S
H60 C65 0.930 . S
H61 C68 0.930 . S
H62 C70 0.930 . S
H63 C64 1.016 . S
C64 H63 1.016 . S
C64 N71 1.286 . S
C65 H60 0.930 . S
C65 C66 1.397 . S
C65 C67 1.361 . S
C66 C65 1.397 . S
C66 C70 1.390 . S
C67 C65 1.361 . S
C67 C68 1.393 . S
C67 N71 1.413 . S
C68 H61 0.930 . S
C68 C67 1.393 . S
C68 C69 1.399 . S
C69 C68 1.399 . S
C69 C70 1.381 . S
C70 H62 0.930 . S
C70 C66 1.390 . S
C70 C69 1.381 . S
N71 C64 1.286 . S
N71 C67 1.413 . S
H72 C77 0.930 . S
H73 C80 0.930 . S
H74 C82 0.930 . S
H75 C76 1.016 . S
C76 H75 1.016 . S
C76 N83 1.286 . S
C77 H72 0.930 . S
C77 C78 1.397 . S
C77 C79 1.361 . S
C78 C77 1.397 . S
C78 C82 1.390 . S
C79 C77 1.361 . S
C79 C80 1.393 . S
C79 N83 1.413 . S
C80 H73 0.930 . S
C80 C79 1.393 . S
C80 C81 1.399 . S
C81 C80 1.399 . S
C81 C82 1.381 . S
C82 H74 0.930 . S
C82 C78 1.390 . S
C82 C81 1.381 . S
N83 C76 1.286 . S
N83 C79 1.413 . S
H84 C89 0.930 . S
H85 C92 0.930 . S
H86 C94 0.930 . S
H87 C88 1.016 . S
C88 H87 1.016 . S
C88 N95 1.286 . S
C89 H84 0.930 . S
C89 C90 1.397 . S
C89 C91 1.361 . S
C90 C89 1.397 . S
C90 C94 1.390 . S
C91 C89 1.361 . S
C91 C92 1.393 . S
C91 N95 1.413 . S
C92 H85 0.930 . S
C92 C91 1.393 . S
C92 C93 1.399 . S
C93 C92 1.399 . S
C93 C94 1.381 . S
C94 H86 0.930 . S
C94 C90 1.390 . S
C94 C93 1.381 . S
N95 C88 1.286 . S
N95 C91 1.413 . S
Co96 N101 2.057 . S
Co96 O113 2.021 . S
Co96 O116 2.062 . S
Co96 O120 2.117 1_545 S
Co96 O121 2.016 1_545 S
C97 O117 1.259 1_655 S
C97 O120 1.258 . S
Co98 N107 2.057 . S
Co98 O114 2.117 1_565 S
Co98 O115 2.020 1_565 S
Co98 O117 2.021 . S
Co98 O122 2.062 . S
C99 N101 1.316 . S
C99 N102 1.347 . S
C99 H104 0.931 . S
C100 N101 1.375 1_565 S
C100 C103 1.350 1_565 S
C100 H105 0.930 . S
N101 Co96 2.057 . S
N101 C99 1.316 . S
N101 C100 1.375 1_545 S
N102 C99 1.347 . S
N102 C103 1.373 . S
C103 C100 1.350 1_545 S
C103 N102 1.373 . S
C103 H124 0.931 1_545 S
H104 C99 0.931 . S
H105 C100 0.930 . S
C106 O113 1.259 1_455 S
C106 O114 1.258 . S
N107 Co98 2.057 . S
N107 C108 1.316 . S
N107 C109 1.375 1_565 S
C108 N107 1.316 . S
C108 N110 1.347 . S
C108 H119 0.931 . S
C109 N107 1.375 1_545 S
C109 C111 1.350 . S
C109 H118 0.930 . S
N110 C108 1.347 . S
N110 C111 1.373 1_565 S
C111 C109 1.350 . S
C111 N110 1.373 1_545 S
C111 H125 0.931 . S
C112 O115 1.256 . S
C112 O116 1.255 1_455 S
O113 Co96 2.021 . S
O113 C106 1.259 1_655 S
O114 Co98 2.117 1_545 S
O114 C106 1.258 . S
O115 Co98 2.020 1_545 S
O115 C112 1.256 . S
O116 Co96 2.062 . S
O116 C112 1.255 1_655 S
O117 C97 1.259 1_455 S
O117 Co98 2.021 . S
H118 C109 0.930 . S
H119 C108 0.931 . S
O120 Co96 2.117 1_565 S
O120 C97 1.258 . S
O121 Co96 2.016 1_565 S
O121 C123 1.262 . S
O122 Co98 2.062 . S
O122 C123 1.255 1_455 S
C123 O121 1.262 . S
C123 O122 1.255 1_655 S
H124 C103 0.931 1_565 S
H125 C111 0.931 . S
Co126 N131 2.057 1_545 S
Co126 O143 2.021 . S
Co126 O146 2.058 1_545 S
Co126 O150 2.117 1_546 S
Co126 O151 2.020 1_556 S
C127 O147 1.259 . S
C127 O150 1.258 . S
Co128 N137 2.057 . S
Co128 O144 2.117 . S
Co128 O145 2.020 . S
Co128 O147 2.021 1_545 S
Co128 O152 2.062 . S
C129 N131 1.316 . S
C129 N132 1.347 . S
C129 H134 0.931 1_565 S
C130 N131 1.375 . S
C130 C133 1.350 . S
C130 H135 0.930 . S
N131 Co126 2.057 1_565 S
N131 C129 1.316 . S
N131 C130 1.375 . S
N132 C129 1.347 . S
N132 C133 1.373 . S
C133 C130 1.350 . S
C133 N132 1.373 . S
C133 H154 0.931 . S
H134 C129 0.931 1_545 S
H135 C130 0.930 . S
C136 O143 1.259 . S
C136 O144 1.258 1_556 S
N137 Co128 2.057 . S
N137 C138 1.316 . S
N137 C139 1.375 . S
C138 N137 1.316 . S
C138 N140 1.347 . S
C138 H149 0.931 . S
C139 N137 1.375 . S
C139 C141 1.350 . S
C139 H148 0.930 . S
N140 C138 1.347 . S
N140 C141 1.373 . S
C141 C139 1.350 . S
C141 N140 1.373 . S
C141 H155 0.931 . S
C142 O145 1.260 1_556 S
C142 O146 1.258 1_545 S
O143 Co126 2.021 . S
O143 C136 1.259 . S
O144 Co128 2.117 . S
O144 C136 1.258 1_554 S
O145 Co128 2.020 . S
O145 C142 1.260 1_554 S
O146 Co126 2.058 1_565 S
O146 C142 1.258 1_565 S
O147 C127 1.259 . S
O147 Co128 2.021 1_565 S
H148 C139 0.930 . S
H149 C138 0.931 . S
O150 Co126 2.117 1_564 S
O150 C127 1.258 . S
O151 Co126 2.020 1_554 S
O151 C153 1.256 . S
O152 Co128 2.062 . S
O152 C153 1.255 . S
C153 O151 1.256 . S
C153 O152 1.255 . S
H154 C133 0.931 . S
H155 C141 0.931 . S
Co156 N161 2.057 . S
Co156 O173 2.021 . S
Co156 O176 2.062 . S
Co156 O180 2.117 . S
Co156 O181 2.020 . S
C157 O177 1.259 . S
C157 O180 1.258 . S
Co158 N167 2.057 . S
Co158 O174 2.117 . S
Co158 O175 2.020 . S
Co158 O177 2.021 . S
Co158 O182 2.062 . S
C159 N161 1.316 . S
C159 N162 1.347 . S
C159 H164 0.931 . S
C160 N161 1.375 . S
C160 C163 1.350 . S
C160 H165 0.930 . S
N161 Co156 2.057 . S
N161 C159 1.316 . S
N161 C160 1.375 . S
N162 C159 1.347 . S
N162 C163 1.373 . S
C163 C160 1.350 . S
C163 N162 1.373 . S
C163 H184 0.931 . S
H164 C159 0.931 . S
H165 C160 0.930 . S
C166 O173 1.259 . S
C166 O174 1.258 . S
N167 Co158 2.057 . S
N167 C168 1.316 . S
N167 C169 1.375 . S
C168 N167 1.316 . S
C168 N170 1.347 . S
C168 H179 0.931 . S
C169 N167 1.375 . S
C169 C171 1.350 . S
C169 H178 0.930 . S
N170 C168 1.347 . S
N170 C171 1.373 . S
C171 C169 1.350 . S
C171 N170 1.373 . S
C171 H185 0.931 . S
C172 O175 1.256 . S
C172 O176 1.255 . S
O173 Co156 2.021 . S
O173 C166 1.259 . S
O174 Co158 2.117 . S
O174 C166 1.258 . S
O175 Co158 2.020 . S
O175 C172 1.256 . S
O176 Co156 2.062 . S
O176 C172 1.255 . S
O177 C157 1.259 . S
O177 Co158 2.021 . S
H178 C169 0.930 . S
H179 C168 0.931 . S
O180 Co156 2.117 . S
O180 C157 1.258 . S
O181 Co156 2.020 . S
O181 C183 1.256 . S
O182 Co158 2.062 . S
O182 C183 1.255 . S
C183 O181 1.256 . S
C183 O182 1.255 . S
H184 C163 0.931 . S
H185 C171 0.931 . S
Co186 N191 2.057 . S
Co186 O203 2.021 . S
Co186 O206 2.049 1_556 S
Co186 O210 2.117 1_455 S
Co186 O211 2.020 . S
C187 O207 1.259 . S
C187 O210 1.258 1_554 S
Co188 N197 2.057 . S
Co188 O204 2.117 1_655 S
Co188 O205 2.020 1_655 S
Co188 O207 2.021 . S
Co188 O212 2.062 . S
C189 N191 1.316 . S
C189 N192 1.347 . S
C189 H194 0.931 . S
C190 N191 1.375 . S
C190 C193 1.350 . S
C190 H195 0.930 1_455 S
N191 Co186 2.057 . S
N191 C189 1.316 . S
N191 C190 1.375 . S
N192 C189 1.347 . S
N192 C193 1.373 . S
C193 C190 1.350 . S
C193 N192 1.373 . S
C193 H214 0.931 . S
H194 C189 0.931 . S
H195 C190 0.930 1_655 S
C196 O203 1.259 1_554 S
C196 O204 1.258 . S
N197 Co188 2.057 . S
N197 C198 1.316 . S
N197 C199 1.375 1_655 S
C198 N197 1.316 . S
C198 N200 1.347 . S
C198 H209 0.931 . S
C199 N197 1.375 1_455 S
C199 C201 1.350 . S
C199 H208 0.930 . S
N200 C198 1.347 . S
N200 C201 1.373 1_655 S
C201 C199 1.350 . S
C201 N200 1.373 1_455 S
C201 H215 0.931 . S
C202 O205 1.256 . S
C202 O206 1.284 . S
O203 Co186 2.021 . S
O203 C196 1.259 1_556 S
O204 Co188 2.117 1_455 S
O204 C196 1.258 . S
O205 Co188 2.020 1_455 S
O205 C202 1.256 . S
O206 Co186 2.049 1_554 S
O206 C202 1.284 . S
O207 C187 1.259 . S
O207 Co188 2.021 . S
H208 C199 0.930 . S
H209 C198 0.931 . S
O210 Co186 2.117 1_655 S
O210 C187 1.258 1_556 S
O211 Co186 2.020 . S
O211 C213 1.256 1_455 S
O212 Co188 2.062 . S
O212 C213 1.255 1_554 S
C213 O211 1.256 1_655 S
C213 O212 1.255 1_556 S
H214 C193 0.931 . S
H215 C201 0.931 . S
C216 C217 1.391 . S
C216 C218 1.394 . S
C216 H232 0.931 . S
C217 C216 1.391 . S
C217 C221 1.376 . S
C218 C216 1.394 . S
C218 C219 1.369 . S
C218 C222 1.531 . S
C219 C218 1.369 . S
C219 C220 1.410 . S
C219 C227 1.503 . S
C220 C219 1.410 . S
C220 C221 1.392 . S
C220 C223 1.511 . S
C221 C217 1.376 . S
C221 C220 1.392 . S
C221 H233 0.929 . S
C222 C218 1.531 . S
C222 H234 0.960 . S
C222 H235 0.962 . S
C222 H236 0.960 . S
C223 C220 1.511 . S
C223 H237 0.961 1_545 S
C223 H238 0.961 . S
C223 H239 0.961 . S
C224 C225 1.370 . S
C224 C226 1.363 . S
C224 H240 0.931 . S
C225 C224 1.370 . S
C225 C229 1.408 . S
C226 C224 1.363 . S
C226 C227 1.370 . S
C226 C230 1.524 . S
C227 C219 1.503 . S
C227 C226 1.370 . S
C227 C228 1.403 . S
C228 C227 1.403 . S
C228 C229 1.404 . S
C228 C231 1.539 . S
C229 C225 1.408 . S
C229 C228 1.404 . S
C229 H241 0.951 . S
C230 C226 1.524 . S
C230 H242 0.956 . S
C230 H243 0.961 . S
C230 H244 0.961 . S
C231 C228 1.539 . S
C231 H245 0.958 . S
C231 H246 0.961 1_455 S
C231 H247 0.960 . S
H232 C216 0.931 . S
H233 C221 0.929 . S
H234 C222 0.960 . S
H235 C222 0.962 . S
H236 C222 0.960 . S
H237 C223 0.961 1_565 S
H238 C223 0.961 . S
H239 C223 0.961 . S
H240 C224 0.931 . S
H241 C229 0.951 . S
H242 C230 0.956 . S
H243 C230 0.961 . S
H244 C230 0.961 . S
H245 C231 0.958 . S
H246 C231 0.961 1_655 S
H247 C231 0.960 . S
C248 C249 1.391 . S
C248 C250 1.394 . S
C248 H264 0.931 . S
C249 C248 1.391 . S
C249 C253 1.376 . S
C250 C248 1.394 . S
C250 C251 1.369 . S
C250 C254 1.531 . S
C251 C250 1.369 . S
C251 C252 1.410 . S
C251 C259 1.503 . S
C252 C251 1.410 . S
C252 C253 1.392 . S
C252 C255 1.511 . S
C253 C249 1.376 . S
C253 C252 1.392 . S
C253 H265 0.929 . S
C254 C250 1.531 . S
C254 H266 0.960 . S
C254 H267 0.962 . S
C254 H268 0.960 . S
C255 C252 1.511 . S
C255 H269 0.961 . S
C255 H270 0.961 . S
C255 H271 0.961 . S
C256 C257 1.370 . S
C256 C258 1.363 . S
C256 H272 0.931 . S
C257 C256 1.370 . S
C257 C261 1.408 . S
C258 C256 1.363 . S
C258 C259 1.370 . S
C258 C262 1.524 . S
C259 C251 1.503 . S
C259 C258 1.370 . S
C259 C260 1.403 . S
C260 C259 1.403 . S
C260 C261 1.404 . S
C260 C263 1.539 1_565 S
C261 C257 1.408 . S
C261 C260 1.404 . S
C261 H273 0.930 1_565 S
C262 C258 1.524 . S
C262 H274 0.956 . S
C262 H275 0.961 . S
C262 H276 0.961 . S
C263 C260 1.539 1_545 S
C263 H277 0.958 . S
C263 H278 0.961 . S
C263 H279 0.960 1_545 S
H264 C248 0.931 . S
H265 C253 0.929 . S
H266 C254 0.960 . S
H267 C254 0.962 . S
H268 C254 0.960 . S
H269 C255 0.961 . S
H270 C255 0.961 . S
H271 C255 0.961 . S
H272 C256 0.931 . S
H273 C261 0.930 1_545 S
H274 C262 0.956 . S
H275 C262 0.961 . S
H276 C262 0.961 . S
H277 C263 0.958 . S
H278 C263 0.961 . S
H279 C263 0.960 1_565 S
C280 C281 1.391 . S
C280 C282 1.394 . S
C280 H296 0.931 . S
C281 C280 1.391 . S
C281 C285 1.376 . S
C282 C280 1.394 . S
C282 C283 1.369 . S
C282 C286 1.531 . S
C283 C282 1.369 . S
C283 C284 1.410 . S
C283 C291 1.503 . S
C284 C283 1.410 . S
C284 C285 1.392 . S
C284 C287 1.511 . S
C285 C281 1.376 . S
C285 C284 1.392 . S
C285 H297 0.929 . S
C286 C282 1.531 . S
C286 H298 0.960 . S
C286 H299 0.962 . S
C286 H300 0.960 . S
C287 C284 1.511 . S
C287 H301 0.961 . S
C287 H302 0.961 . S
C287 H303 0.961 . S
C288 C289 1.370 . S
C288 C290 1.363 . S
C288 H304 0.931 . S
C289 C288 1.370 . S
C289 C293 1.408 . S
C290 C288 1.363 . S
C290 C291 1.370 . S
C290 C294 1.524 . S
C291 C283 1.503 . S
C291 C290 1.370 . S
C291 C292 1.403 . S
C292 C291 1.403 . S
C292 C293 1.404 . S
C292 C295 1.539 . S
C293 C289 1.408 . S
C293 C292 1.404 . S
C293 H305 0.930 . S
C294 C290 1.524 . S
C294 H306 0.956 . S
C294 H307 0.961 . S
C294 H308 0.961 . S
C295 C292 1.539 . S
C295 H309 0.958 . S
C295 H310 0.961 . S
C295 H311 0.960 . S
H296 C280 0.931 . S
H297 C285 0.929 . S
H298 C286 0.960 . S
H299 C286 0.962 . S
H300 C286 0.960 . S
H301 C287 0.961 . S
H302 C287 0.961 . S
H303 C287 0.961 . S
H304 C288 0.931 . S
H305 C293 0.930 . S
H306 C294 0.956 . S
H307 C294 0.961 . S
H308 C294 0.961 . S
H309 C295 0.958 . S
H310 C295 0.961 . S
H311 C295 0.960 . S
C312 C313 1.391 . S
C312 C314 1.394 . S
C312 H328 0.931 . S
C313 C312 1.391 . S
C313 C317 1.376 . S
C314 C312 1.394 . S
C314 C315 1.369 . S
C314 C318 1.531 . S
C315 C314 1.369 . S
C315 C316 1.410 . S
C315 C323 1.503 . S
C316 C315 1.410 . S
C316 C317 1.392 . S
C316 C319 1.511 . S
C317 C313 1.376 . S
C317 C316 1.392 . S
C317 H329 0.929 . S
C318 C314 1.531 . S
C318 H330 0.960 . S
C318 H331 0.962 . S
C318 H332 0.960 . S
C319 C316 1.511 . S
C319 H333 0.961 . S
C319 H334 0.961 . S
C319 H335 0.961 1_655 S
C320 C321 1.370 . S
C320 C322 1.363 . S
C320 H336 0.931 . S
C321 C320 1.370 . S
C321 C325 1.408 . S
C322 C320 1.363 . S
C322 C323 1.370 . S
C322 C326 1.524 . S
C323 C315 1.503 . S
C323 C322 1.370 . S
C323 C324 1.403 . S
C324 C323 1.403 . S
C324 C325 1.404 . S
C324 C327 1.539 1_655 S
C325 C321 1.408 . S
C325 C324 1.404 . S
C325 H337 0.930 1_655 S
C326 C322 1.524 . S
C326 H338 0.956 . S
C326 H339 0.961 . S
C326 H340 0.961 . S
C327 C324 1.539 1_455 S
C327 H341 0.958 . S
C327 H342 0.961 . S
C327 H343 0.960 . S
H328 C312 0.931 . S
H329 C317 0.929 . S
H330 C318 0.960 . S
H331 C318 0.962 . S
H332 C318 0.960 . S
H333 C319 0.961 . S
H334 C319 0.961 . S
H335 C319 0.961 1_455 S
H336 C320 0.931 . S
H337 C325 0.930 1_455 S
H338 C326 0.956 . S
H339 C326 0.961 . S
H340 C326 0.961 . S
H341 C327 0.958 . S
H342 C327 0.961 . S
H343 C327 0.960 . S
C344 C345 1.391 . S
C344 C346 1.394 . S
C344 H360 0.931 . S
C345 C344 1.391 . S
C345 C349 1.376 . S
C346 C344 1.394 . S
C346 C347 1.369 . S
C346 C350 1.531 . S
C347 C346 1.369 . S
C347 C348 1.410 . S
C347 C355 1.503 . S
C348 C347 1.410 . S
C348 C349 1.392 . S
C348 C351 1.511 . S
C349 C345 1.376 . S
C349 C348 1.392 . S
C349 H361 0.929 . S
C350 C346 1.531 . S
C350 H362 0.960 . S
C350 H363 0.970 . S
C350 H364 0.960 . S
C351 C348 1.511 . S
C351 H365 0.961 . S
C351 H366 0.961 . S
C351 H367 0.961 . S
C352 C353 1.370 . S
C352 C354 1.363 . S
C352 H368 0.931 . S
C353 C352 1.370 . S
C353 C357 1.408 . S
C354 C352 1.363 . S
C354 C355 1.370 . S
C354 C358 1.524 . S
C355 C347 1.503 . S
C355 C354 1.370 . S
C355 C356 1.403 . S
C356 C355 1.403 . S
C356 C357 1.404 . S
C356 C359 1.539 . S
C357 C353 1.408 . S
C357 C356 1.404 . S
C357 H369 0.930 . S
C358 C354 1.524 . S
C358 H370 0.956 . S
C358 H371 0.961 . S
C358 H372 0.961 . S
C359 C356 1.539 . S
C359 H373 0.958 . S
C359 H374 0.961 . S
C359 H375 0.960 . S
H360 C344 0.931 . S
H361 C349 0.929 . S
H362 C350 0.960 . S
H363 C350 0.970 . S
H364 C350 0.960 . S
H365 C351 0.961 . S
H366 C351 0.961 . S
H367 C351 0.961 . S
H368 C352 0.931 . S
H369 C357 0.930 . S
H370 C358 0.956 . S
H371 C358 0.961 . S
H372 C358 0.961 . S
H373 C359 0.958 . S
H374 C359 0.961 . S
H375 C359 0.960 . S
C376 C377 1.391 . S
C376 C378 1.394 . S
C376 H392 0.931 . S
C377 C376 1.391 . S
C377 C381 1.376 . S
C378 C376 1.394 . S
C378 C379 1.369 . S
C378 C382 1.533 1_565 S
C379 C378 1.369 . S
C379 C380 1.410 . S
C379 C387 1.503 . S
C380 C379 1.410 . S
C380 C381 1.392 . S
C380 C383 1.511 . S
C381 C377 1.376 . S
C381 C380 1.392 . S
C381 H393 0.929 . S
C382 C378 1.533 1_545 S
C382 H394 0.959 . S
C382 H395 0.961 . S
C382 H396 0.959 . S
C383 C380 1.511 . S
C383 H397 0.961 . S
C383 H398 0.961 . S
C383 H399 0.961 . S
C384 C385 1.370 . S
C384 C386 1.363 . S
C384 H400 0.931 . S
C385 C384 1.370 . S
C385 C389 1.408 . S
C386 C384 1.363 . S
C386 C387 1.370 . S
C386 C390 1.524 . S
C387 C379 1.503 . S
C387 C386 1.370 . S
C387 C388 1.403 . S
C388 C387 1.403 . S
C388 C389 1.404 . S
C388 C391 1.539 . S
C389 C385 1.408 . S
C389 C388 1.404 . S
C389 H401 0.930 . S
C390 C386 1.524 . S
C390 H402 0.956 . S
C390 H403 0.961 . S
C390 H404 0.961 . S
C391 C388 1.539 . S
C391 H405 0.958 . S
C391 H406 0.961 . S
C391 H407 0.960 . S
H392 C376 0.931 . S
H393 C381 0.929 . S
H394 C382 0.959 . S
H395 C382 0.961 . S
H396 C382 0.959 . S
H397 C383 0.961 . S
H398 C383 0.961 . S
H399 C383 0.961 . S
H400 C384 0.931 . S
H401 C389 0.930 . S
H402 C390 0.956 . S
H403 C390 0.961 . S
H404 C390 0.961 . S
H405 C391 0.958 . S
H406 C391 0.961 . S
H407 C391 0.960 . S
C408 C409 1.391 . S
C408 C410 1.394 . S
C408 H424 0.931 . S
C409 C408 1.391 . S
C409 C413 1.376 . S
C410 C408 1.394 . S
C410 C411 1.369 . S
C410 C414 1.531 . S
C411 C410 1.369 . S
C411 C412 1.410 . S
C411 C419 1.503 . S
C412 C411 1.410 . S
C412 C413 1.392 . S
C412 C415 1.511 1_556 S
C413 C409 1.376 . S
C413 C412 1.392 . S
C413 H425 0.929 . S
C414 C410 1.531 . S
C414 H426 0.960 . S
C414 H427 0.962 . S
C414 H428 0.960 . S
C415 C412 1.511 1_554 S
C415 H429 0.961 . S
C415 H430 0.961 . S
C415 H431 0.961 . S
C416 C417 1.370 . S
C416 C418 1.363 . S
C416 H432 0.931 . S
C417 C416 1.370 . S
C417 C421 1.408 1_556 S
C418 C416 1.363 . S
C418 C419 1.370 . S
C418 C422 1.524 . S
C419 C411 1.503 . S
C419 C418 1.370 . S
C419 C420 1.403 . S
C420 C419 1.403 . S
C420 C421 1.404 1_556 S
C420 C423 1.539 1_556 S
C421 C417 1.408 1_554 S
C421 C420 1.404 1_554 S
C421 H433 0.930 . S
C422 C418 1.524 . S
C422 H434 0.956 . S
C422 H435 0.961 . S
C422 H436 0.961 . S
C423 C420 1.539 1_554 S
C423 H437 0.958 1_554 S
C423 H438 0.961 . S
C423 H439 0.960 . S
H424 C408 0.931 . S
H425 C413 0.929 . S
H426 C414 0.960 . S
H427 C414 0.962 . S
H428 C414 0.960 . S
H429 C415 0.961 . S
H430 C415 0.961 . S
H431 C415 0.961 . S
H432 C416 0.931 . S
H433 C421 0.930 . S
H434 C422 0.956 . S
H435 C422 0.961 . S
H436 C422 0.961 . S
H437 C423 0.958 1_556 S
H438 C423 0.961 . S
H439 C423 0.960 . S
C440 C441 1.391 . S
C440 C442 1.394 . S
C440 H456 0.931 . S
C441 C440 1.391 . S
C441 C445 1.376 . S
C442 C440 1.394 . S
C442 C443 1.369 . S
C442 C446 1.531 . S
C443 C442 1.369 . S
C443 C444 1.410 . S
C443 C451 1.503 . S
C444 C443 1.410 . S
C444 C445 1.392 . S
C444 C447 1.511 . S
C445 C441 1.376 . S
C445 C444 1.392 . S
C445 H457 0.929 . S
C446 C442 1.531 . S
C446 H458 0.960 . S
C446 H459 0.962 . S
C446 H460 0.960 . S
C447 C444 1.511 . S
C447 H461 0.961 . S
C447 H462 0.961 . S
C447 H463 0.961 . S
C448 C449 1.370 . S
C448 C450 1.363 . S
C448 H464 0.931 . S
C449 C448 1.370 . S
C449 C453 1.408 . S
C450 C448 1.363 . S
C450 C451 1.370 . S
C450 C454 1.524 . S
C451 C443 1.503 . S
C451 C450 1.370 . S
C451 C452 1.403 . S
C452 C451 1.403 . S
C452 C453 1.404 . S
C452 C455 1.539 . S
C453 C449 1.408 . S
C453 C452 1.404 . S
C453 H465 0.930 . S
C454 C450 1.524 . S
C454 H466 0.956 . S
C454 H467 0.961 . S
C454 H468 0.961 . S
C455 C452 1.539 . S
C455 H469 0.958 . S
C455 H470 0.961 . S
C455 H471 0.960 . S
H456 C440 0.931 . S
H457 C445 0.929 . S
H458 C446 0.960 . S
H459 C446 0.962 . S
H460 C446 0.960 . S
H461 C447 0.961 . S
H462 C447 0.961 . S
H463 C447 0.961 . S
H464 C448 0.931 . S
H465 C453 0.930 . S
H466 C454 0.956 . S
H467 C454 0.961 . S
H468 C454 0.961 . S
H469 C455 0.958 . S
H470 C455 0.961 . S
H471 C455 0.960 . S
C472 C473 1.391 . S
C472 C474 1.394 . S
C472 H488 0.931 . S
C473 C472 1.391 . S
C473 C477 1.376 . S
C474 C472 1.394 . S
C474 C475 1.369 . S
C474 C478 1.531 . S
C475 C474 1.369 . S
C475 C476 1.410 . S
C475 C483 1.503 . S
C476 C475 1.410 . S
C476 C477 1.392 . S
C476 C479 1.511 . S
C477 C473 1.376 . S
C477 C476 1.392 . S
C477 H489 0.929 . S
C478 C474 1.531 . S
C478 H490 0.960 . S
C478 H491 0.962 . S
C478 H492 0.960 . S
C479 C476 1.511 . S
C479 H493 0.961 1_455 S
C479 H494 0.961 1_455 S
C479 H495 0.961 1_455 S
C480 C481 1.370 . S
C480 C482 1.363 . S
C480 H496 0.931 . S
C481 C480 1.370 . S
C481 C485 1.408 . S
C482 C480 1.363 . S
C482 C483 1.370 . S
C482 C486 1.524 . S
C483 C475 1.503 . S
C483 C482 1.370 . S
C483 C484 1.403 . S
C484 C483 1.403 . S
C484 C485 1.404 . S
C484 C487 1.539 1_554 S
C485 C481 1.408 . S
C485 C484 1.404 . S
C485 H497 0.930 1_554 S
C486 C482 1.524 . S
C486 H498 0.956 . S
C486 H499 0.961 . S
C486 H500 0.961 . S
C487 C484 1.539 1_556 S
C487 H501 0.958 . S
C487 H502 0.961 . S
C487 H503 0.960 1_556 S
H488 C472 0.931 . S
H489 C477 0.929 . S
H490 C478 0.960 . S
H491 C478 0.962 . S
H492 C478 0.960 . S
H493 C479 0.961 1_655 S
H494 C479 0.961 1_655 S
H495 C479 0.961 1_655 S
H496 C480 0.931 . S
H497 C485 0.930 1_556 S
H498 C486 0.956 . S
H499 C486 0.961 . S
H500 C486 0.961 . S
H501 C487 0.958 . S
H502 C487 0.961 . S
H503 C487 0.960 1_554 S
C504 C505 1.391 . S
C504 C506 1.394 . S
C504 H520 0.931 . S
C505 C504 1.391 . S
C505 C509 1.376 . S
C506 C504 1.394 . S
C506 C507 1.369 . S
C506 C510 1.531 . S
C507 C506 1.369 . S
C507 C508 1.410 . S
C507 C515 1.503 . S
C508 C507 1.410 . S
C508 C509 1.392 . S
C508 C511 1.511 . S
C509 C505 1.376 . S
C509 C508 1.392 . S
C509 H521 0.929 . S
C510 C506 1.531 . S
C510 H522 0.960 . S
C510 H523 0.962 . S
C510 H524 0.960 . S
C511 C508 1.511 . S
C511 H525 0.961 . S
C511 H526 0.961 . S
C511 H527 0.961 . S
C512 C513 1.370 . S
C512 C514 1.363 . S
C512 H528 0.931 1_556 S
C513 C512 1.370 . S
C513 C517 1.408 . S
C514 C512 1.363 . S
C514 C515 1.370 . S
C514 C518 1.524 . S
C515 C507 1.503 . S
C515 C514 1.370 . S
C515 C516 1.403 . S
C516 C515 1.403 . S
C516 C517 1.404 . S
C516 C519 1.539 . S
C517 C513 1.408 . S
C517 C516 1.404 . S
C517 H529 0.930 . S
C518 C514 1.524 . S
C518 H530 0.956 . S
C518 H531 0.961 1_556 S
C518 H532 0.961 1_556 S
C519 C516 1.539 . S
C519 H533 0.958 . S
C519 H534 0.961 . S
C519 H535 0.960 . S
H520 C504 0.931 . S
H521 C509 0.929 . S
H522 C510 0.960 . S
H523 C510 0.962 . S
H524 C510 0.960 . S
H525 C511 0.961 . S
H526 C511 0.961 . S
H527 C511 0.961 . S
H528 C512 0.931 1_554 S
H529 C517 0.930 . S
H530 C518 0.956 . S
H531 C518 0.961 1_554 S
H532 C518 0.961 1_554 S
H533 C519 0.958 . S
H534 C519 0.961 . S
H535 C519 0.960 . S
C536 C537 1.391 . S
C536 C538 1.394 . S
C536 H552 0.931 . S
C537 C536 1.391 . S
C537 C541 1.376 . S
C538 C536 1.394 . S
C538 C539 1.369 . S
C538 C542 1.531 . S
C539 C538 1.369 . S
C539 C540 1.410 . S
C539 C547 1.503 . S
C540 C539 1.410 . S
C540 C541 1.392 . S
C540 C543 1.511 . S
C541 C537 1.376 . S
C541 C540 1.392 . S
C541 H553 0.929 . S
C542 C538 1.531 . S
C542 H554 0.960 . S
C542 H555 0.962 . S
C542 H556 0.960 . S
C543 C540 1.511 . S
C543 H557 0.961 . S
C543 H558 0.961 . S
C543 H559 0.961 . S
C544 C545 1.370 . S
C544 C546 1.363 . S
C544 H560 0.931 . S
C545 C544 1.370 . S
C545 C549 1.408 1_655 S
C546 C544 1.363 . S
C546 C547 1.370 . S
C546 C550 1.524 . S
C547 C539 1.503 . S
C547 C546 1.370 . S
C547 C548 1.403 . S
C548 C547 1.403 . S
C548 C549 1.404 1_655 S
C548 C551 1.539 1_655 S
C549 C545 1.408 1_455 S
C549 C548 1.404 1_455 S
C549 H561 0.930 . S
C550 C546 1.524 . S
C550 H562 0.956 . S
C550 H563 0.961 . S
C550 H564 0.961 . S
C551 C548 1.539 1_455 S
C551 H565 0.958 . S
C551 H566 0.961 . S
C551 H567 0.960 . S
H552 C536 0.931 . S
H553 C541 0.929 . S
H554 C542 0.960 . S
H555 C542 0.962 . S
H556 C542 0.960 . S
H557 C543 0.961 . S
H558 C543 0.961 . S
H559 C543 0.961 . S
H560 C544 0.931 . S
H561 C549 0.930 . S
H562 C550 0.956 . S
H563 C550 0.961 . S
H564 C550 0.961 . S
H565 C551 0.958 . S
H566 C551 0.961 . S
H567 C551 0.960 . S
C568 C569 1.391 . S
C568 C570 1.394 . S
C568 H584 0.931 . S
C569 C568 1.391 . S
C569 C573 1.376 . S
C570 C568 1.394 . S
C570 C571 1.369 . S
C570 C574 1.531 . S
C571 C570 1.369 . S
C571 C572 1.410 . S
C571 C579 1.503 . S
C572 C571 1.410 . S
C572 C573 1.392 . S
C572 C575 1.511 . S
C573 C569 1.376 . S
C573 C572 1.392 . S
C573 H585 0.929 . S
C574 C570 1.531 . S
C574 H586 0.960 . S
C574 H587 0.962 . S
C574 H588 0.960 . S
C575 C572 1.511 . S
C575 H589 0.961 . S
C575 H590 0.961 . S
C575 H591 0.961 . S
C576 C577 1.370 . S
C576 C578 1.363 . S
C576 H592 0.931 . S
C577 C576 1.370 . S
C577 C581 1.408 . S
C578 C576 1.363 . S
C578 C579 1.370 . S
C578 C582 1.524 . S
C579 C571 1.503 . S
C579 C578 1.370 . S
C579 C580 1.403 . S
C580 C579 1.403 . S
C580 C581 1.404 . S
C580 C583 1.539 . S
C581 C577 1.408 . S
C581 C580 1.404 . S
C581 H593 0.930 . S
C582 C578 1.524 . S
C582 H594 0.956 . S
C582 H595 0.961 . S
C582 H596 0.961 . S
C583 C580 1.539 . S
C583 H597 0.958 . S
C583 H598 0.961 . S
C583 H599 0.960 . S
H584 C568 0.931 . S
H585 C573 0.929 . S
H586 C574 0.960 . S
H587 C574 0.962 . S
H588 C574 0.960 . S
H589 C575 0.961 . S
H590 C575 0.961 . S
H591 C575 0.961 . S
H592 C576 0.931 . S
H593 C581 0.930 . S
H594 C582 0.956 . S
H595 C582 0.961 . S
H596 C582 0.961 . S
H597 C583 0.958 . S
H598 C583 0.961 . S
H599 C583 0.960 . S
C600 C601 1.391 . S
C600 C602 1.394 . S
C600 H616 0.931 . S
C601 C600 1.391 . S
C601 C605 1.376 . S
C602 C600 1.394 . S
C602 C603 1.369 . S
C602 C606 1.531 . S
C603 C602 1.369 . S
C603 C604 1.410 . S
C603 C611 1.503 . S
C604 C603 1.410 . S
C604 C605 1.392 . S
C604 C607 1.511 . S
C605 C601 1.376 . S
C605 C604 1.392 . S
C605 H617 0.929 . S
C606 C602 1.531 . S
C606 H618 0.960 . S
C606 H619 0.962 . S
C606 H620 0.960 . S
C607 C604 1.511 . S
C607 H621 0.961 1_655 S
C607 H622 0.961 . S
C607 H623 0.961 1_655 S
C608 C609 1.370 . S
C608 C610 1.363 . S
C608 H624 0.931 . S
C609 C608 1.370 . S
C609 C613 1.408 1_565 S
C610 C608 1.363 . S
C610 C611 1.370 . S
C610 C614 1.524 . S
C611 C603 1.503 . S
C611 C610 1.370 . S
C611 C612 1.403 1_565 S
C612 C611 1.403 1_545 S
C612 C613 1.404 . S
C612 C615 1.539 . S
C613 C609 1.408 1_545 S
C613 C612 1.404 . S
C613 H625 0.930 . S
C614 C610 1.524 . S
C614 H626 0.956 . S
C614 H627 0.961 . S
C614 H628 0.961 . S
C615 C612 1.539 . S
C615 H629 0.958 . S
C615 H630 0.961 . S
C615 H631 0.960 . S
H616 C600 0.931 . S
H617 C605 0.929 . S
H618 C606 0.960 . S
H619 C606 0.962 . S
H620 C606 0.960 . S
H621 C607 0.961 1_455 S
H622 C607 0.961 . S
H623 C607 0.961 1_455 S
H624 C608 0.931 . S
H625 C613 0.930 . S
H626 C614 0.956 . S
H627 C614 0.961 . S
H628 C614 0.961 . S
H629 C615 0.958 . S
H630 C615 0.961 . S
H631 C615 0.960 . S
C632 C633 1.391 . S
C632 C634 1.394 . S
C632 H648 0.931 . S
C633 C632 1.391 . S
C633 C637 1.376 . S
C634 C632 1.394 . S
C634 C635 1.369 . S
C634 C638 1.531 . S
C635 C634 1.369 . S
C635 C636 1.410 . S
C635 C643 1.503 . S
C636 C635 1.410 . S
C636 C637 1.392 . S
C636 C639 1.511 . S
C637 C633 1.376 . S
C637 C636 1.392 . S
C637 H649 0.929 . S
C638 C634 1.531 . S
C638 H650 0.960 . S
C638 H651 0.962 . S
C638 H652 0.960 . S
C639 C636 1.511 . S
C639 H653 0.961 . S
C639 H654 0.961 . S
C639 H655 0.961 . S
C640 C641 1.370 . S
C640 C642 1.363 . S
C640 H656 0.931 . S
C641 C640 1.370 . S
C641 C645 1.408 . S
C642 C640 1.363 . S
C642 C643 1.370 . S
C642 C646 1.524 . S
C643 C635 1.503 . S
C643 C642 1.370 . S
C643 C644 1.403 . S
C644 C643 1.403 . S
C644 C645 1.404 . S
C644 C647 1.539 . S
C645 C641 1.408 . S
C645 C644 1.404 . S
C645 H657 0.930 . S
C646 C642 1.524 . S
C646 H658 0.956 . S
C646 H659 0.961 . S
C646 H660 0.961 . S
C647 C644 1.539 . S
C647 H661 0.958 . S
C647 H662 0.961 . S
C647 H663 0.960 . S
H648 C632 0.931 . S
H649 C637 0.929 . S
H650 C638 0.960 . S
H651 C638 0.962 . S
H652 C638 0.960 . S
H653 C639 0.961 . S
H654 C639 0.961 . S
H655 C639 0.961 . S
H656 C640 0.931 . S
H657 C645 0.930 . S
H658 C646 0.956 . S
H659 C646 0.961 . S
H660 C646 0.961 . S
H661 C647 0.958 . S
H662 C647 0.961 . S
H663 C647 0.960 . S
C664 C665 1.391 . S
C664 C666 1.394 . S
C664 H680 0.931 . S
C665 C664 1.391 . S
C665 C669 1.376 . S
C666 C664 1.394 . S
C666 C667 1.369 . S
C666 C670 1.531 . S
C667 C666 1.369 . S
C667 C668 1.410 . S
C667 C675 1.503 . S
C668 C667 1.410 . S
C668 C669 1.392 . S
C668 C671 1.511 . S
C669 C665 1.376 . S
C669 C668 1.392 . S
C669 H681 0.929 . S
C670 C666 1.531 . S
C670 H682 0.960 . S
C670 H683 0.962 . S
C670 H684 0.960 . S
C671 C668 1.511 . S
C671 H685 0.961 . S
C671 H686 0.961 . S
C671 H687 0.961 . S
C672 C673 1.370 . S
C672 C674 1.363 . S
C672 H688 0.931 . S
C673 C672 1.370 . S
C673 C677 1.408 . S
C674 C672 1.363 . S
C674 C675 1.370 . S
C674 C678 1.524 . S
C675 C667 1.503 . S
C675 C674 1.370 . S
C675 C676 1.403 . S
C676 C675 1.403 . S
C676 C677 1.404 . S
C676 C679 1.539 . S
C677 C673 1.408 . S
C677 C676 1.404 . S
C677 H689 0.930 . S
C678 C674 1.524 . S
C678 H690 0.956 . S
C678 H691 0.961 . S
C678 H692 0.961 . S
C679 C676 1.539 . S
C679 H693 0.958 . S
C679 H694 0.961 . S
C679 H695 0.960 . S
H680 C664 0.931 . S
H681 C669 0.929 . S
H682 C670 0.960 . S
H683 C670 0.962 . S
H684 C670 0.960 . S
H685 C671 0.961 . S
H686 C671 0.961 . S
H687 C671 0.961 . S
H688 C672 0.931 . S
H689 C677 0.930 . S
H690 C678 0.956 . S
H691 C678 0.961 . S
H692 C678 0.961 . S
H693 C679 0.958 . S
H694 C679 0.961 . S
H695 C679 0.960 . S
C696 C697 1.391 . S
C696 C698 1.394 . S
C696 H712 0.931 . S
C697 C696 1.391 . S
C697 C701 1.376 . S
C698 C696 1.394 . S
C698 C699 1.369 . S
C698 C702 1.531 . S
C699 C698 1.369 . S
C699 C700 1.410 . S
C699 C707 1.503 . S
C700 C699 1.410 . S
C700 C701 1.392 . S
C700 C703 1.511 . S
C701 C697 1.376 . S
C701 C700 1.392 . S
C701 H713 0.929 . S
C702 C698 1.531 . S
C702 H714 0.960 . S
C702 H715 0.962 1_455 S
C702 H716 0.960 1_455 S
C703 C700 1.511 . S
C703 H717 0.961 . S
C703 H718 0.961 . S
C703 H719 0.961 . S
C704 C705 1.370 . S
C704 C706 1.363 . S
C704 H720 0.931 . S
C705 C704 1.370 . S
C705 C709 1.408 . S
C706 C704 1.363 . S
C706 C707 1.370 . S
C706 C710 1.524 . S
C707 C699 1.503 . S
C707 C706 1.370 . S
C707 C708 1.403 . S
C708 C707 1.403 . S
C708 C709 1.404 . S
C708 C711 1.539 . S
C709 C705 1.408 . S
C709 C708 1.404 . S
C709 H721 0.930 . S
C710 C706 1.524 . S
C710 H722 0.956 . S
C710 H723 0.961 . S
C710 H724 0.961 . S
C711 C708 1.539 . S
C711 H725 0.958 . S
C711 H726 0.961 . S
C711 H727 0.960 . S
H712 C696 0.931 . S
H713 C701 0.929 . S
H714 C702 0.960 . S
H715 C702 0.962 1_655 S
H716 C702 0.960 1_655 S
H717 C703 0.961 . S
H718 C703 0.961 . S
H719 C703 0.961 . S
H720 C704 0.931 . S
H721 C709 0.930 . S
H722 C710 0.956 . S
H723 C710 0.961 . S
H724 C710 0.961 . S
H725 C711 0.958 . S
H726 C711 0.961 . S
H727 C711 0.960 . S
C728 C729 1.391 . S
C728 C730 1.394 . S
C728 H744 0.931 . S
C729 C728 1.391 . S
C729 C733 1.376 . S
C730 C728 1.394 . S
C730 C731 1.369 . S
C730 C734 1.531 . S
C731 C730 1.369 . S
C731 C732 1.410 . S
C731 C739 1.503 . S
C732 C731 1.410 . S
C732 C733 1.392 . S
C732 C735 1.511 1_565 S
C733 C729 1.376 . S
C733 C732 1.392 . S
C733 H745 0.929 . S
C734 C730 1.531 . S
C734 H746 0.960 . S
C734 H747 0.962 . S
C734 H748 0.960 . S
C735 C732 1.511 1_545 S
C735 H749 0.961 . S
C735 H750 0.961 . S
C735 H751 0.961 1_556 S
C736 C737 1.370 . S
C736 C738 1.363 . S
C736 H752 0.931 1_565 S
C737 C736 1.370 . S
C737 C741 1.392 1_556 S
C738 C736 1.363 . S
C738 C739 1.370 . S
C738 C742 1.524 1_565 S
C739 C731 1.503 . S
C739 C738 1.370 . S
C739 C740 1.403 . S
C740 C739 1.403 . S
C740 C741 1.398 1_556 S
C740 C743 1.539 1_556 S
C741 C737 1.392 1_554 S
C741 C740 1.398 1_554 S
C741 H753 0.951 . S
C742 C738 1.524 1_545 S
C742 H754 0.956 1_545 S
C742 H755 0.961 . S
C742 H756 0.961 . S
C743 C740 1.539 1_554 S
C743 H757 0.958 . S
C743 H758 0.961 . S
C743 H759 0.960 . S
H744 C728 0.931 . S
H745 C733 0.929 . S
H746 C734 0.960 . S
H747 C734 0.962 . S
H748 C734 0.960 . S
H749 C735 0.961 . S
H750 C735 0.961 . S
H751 C735 0.961 1_554 S
H752 C736 0.931 1_545 S
H753 C741 0.951 . S
H754 C742 0.956 1_565 S
H755 C742 0.961 . S
H756 C742 0.961 . S
H757 C743 0.958 . S
H758 C743 0.961 . S
H759 C743 0.960 . S
C760 C761 1.391 . S
C760 C762 1.394 . S
C760 H776 0.931 . S
C761 C760 1.391 . S
C761 C765 1.376 . S
C762 C760 1.394 . S
C762 C763 1.369 . S
C762 C766 1.531 . S
C763 C762 1.369 . S
C763 C764 1.410 . S
C763 C771 1.503 . S
C764 C763 1.410 . S
C764 C765 1.392 . S
C764 C767 1.511 . S
C765 C761 1.376 . S
C765 C764 1.392 . S
C765 H777 0.929 . S
C766 C762 1.531 . S
C766 H778 0.960 . S
C766 H779 0.962 . S
C766 H780 0.960 . S
C767 C764 1.511 . S
C767 H781 0.961 . S
C767 H782 0.961 . S
C767 H783 0.961 . S
C768 C769 1.370 . S
C768 C770 1.363 . S
C768 H784 0.931 . S
C769 C768 1.370 . S
C769 C773 1.408 . S
C770 C768 1.363 . S
C770 C771 1.370 . S
C770 C774 1.524 . S
C771 C763 1.503 . S
C771 C770 1.370 . S
C771 C772 1.403 . S
C772 C771 1.403 . S
C772 C773 1.404 . S
C772 C775 1.539 . S
C773 C769 1.408 . S
C773 C772 1.404 . S
C773 H785 0.930 . S
C774 C770 1.524 . S
C774 H786 0.956 . S
C774 H787 0.961 . S
C774 H788 0.961 . S
C775 C772 1.539 . S
C775 H789 0.958 . S
C775 H790 0.961 . S
C775 H791 0.960 . S
H776 C760 0.931 . S
H777 C765 0.929 . S
H778 C766 0.960 . S
H779 C766 0.962 . S
H780 C766 0.960 . S
H781 C767 0.961 . S
H782 C767 0.961 . S
H783 C767 0.961 . S
H784 C768 0.931 . S
H785 C773 0.930 . S
H786 C774 0.956 . S
H787 C774 0.961 . S
H788 C774 0.961 . S
H789 C775 0.958 . S
H790 C775 0.961 . S
H791 C775 0.960 . S
C792 C793 1.391 . S
C792 C794 1.394 . S
C792 H808 0.931 . S
C793 C792 1.391 . S
C793 C797 1.376 . S
C794 C792 1.394 . S
C794 C795 1.369 . S
C794 C798 1.531 . S
C795 C794 1.369 . S
C795 C796 1.410 . S
C795 C803 1.503 . S
C796 C795 1.410 . S
C796 C797 1.392 . S
C796 C799 1.511 . S
C797 C793 1.376 . S
C797 C796 1.392 . S
C797 H809 0.929 . S
C798 C794 1.531 . S
C798 H810 0.960 . S
C798 H811 0.962 . S
C798 H812 0.960 . S
C799 C796 1.511 . S
C799 H813 0.961 . S
C799 H814 0.961 . S
C799 H815 0.961 . S
C800 C801 1.370 . S
C800 C802 1.363 . S
C800 H816 0.931 . S
C801 C800 1.370 . S
C801 C805 1.408 . S
C802 C800 1.363 . S
C802 C803 1.370 . S
C802 C806 1.524 . S
C803 C795 1.503 . S
C803 C802 1.370 . S
C803 C804 1.403 . S
C804 C803 1.403 . S
C804 C805 1.404 . S
C804 C807 1.539 . S
C805 C801 1.408 . S
C805 C804 1.404 . S
C805 H817 0.930 . S
C806 C802 1.524 . S
C806 H818 0.956 . S
C806 H819 0.961 . S
C806 H820 0.961 . S
C807 C804 1.539 . S
C807 H821 0.958 . S
C807 H822 0.961 . S
C807 H823 0.960 . S
H808 C792 0.931 . S
H809 C797 0.929 . S
H810 C798 0.960 . S
H811 C798 0.962 . S
H812 C798 0.960 . S
H813 C799 0.961 . S
H814 C799 0.961 . S
H815 C799 0.961 . S
H816 C800 0.931 . S
H817 C805 0.930 . S
H818 C806 0.956 . S
H819 C806 0.961 . S
H820 C806 0.961 . S
H821 C807 0.958 . S
H822 C807 0.961 . S
H823 C807 0.960 . S
C824 C825 1.391 . S
C824 C826 1.394 . S
C824 H840 0.931 . S
C825 C824 1.391 . S
C825 C829 1.376 . S
C826 C824 1.394 . S
C826 C827 1.369 . S
C826 C830 1.531 . S
C827 C826 1.369 . S
C827 C828 1.410 . S
C827 C835 1.503 . S
C828 C827 1.410 . S
C828 C829 1.392 . S
C828 C831 1.511 . S
C829 C825 1.376 . S
C829 C828 1.392 . S
C829 H841 0.929 . S
C830 C826 1.531 . S
C830 H842 0.960 . S
C830 H843 0.962 . S
C830 H844 0.960 . S
C831 C828 1.511 . S
C831 H845 0.961 . S
C831 H846 0.961 . S
C831 H847 0.961 . S
C832 C833 1.370 . S
C832 C834 1.363 . S
C832 H848 0.931 . S
C833 C832 1.370 . S
C833 C837 1.408 . S
C834 C832 1.363 . S
C834 C835 1.370 . S
C834 C838 1.524 . S
C835 C827 1.503 . S
C835 C834 1.370 . S
C835 C836 1.403 . S
C836 C835 1.403 . S
C836 C837 1.404 . S
C836 C839 1.539 . S
C837 C833 1.408 . S
C837 C836 1.404 . S
C837 H849 0.930 . S
C838 C834 1.524 . S
C838 H850 0.956 . S
C838 H851 0.961 . S
C838 H852 0.961 . S
C839 C836 1.539 . S
C839 H853 0.958 . S
C839 H854 0.961 . S
C839 H855 0.960 . S
H840 C824 0.931 . S
H841 C829 0.929 . S
H842 C830 0.960 . S
H843 C830 0.962 . S
H844 C830 0.960 . S
H845 C831 0.961 . S
H846 C831 0.961 . S
H847 C831 0.961 . S
H848 C832 0.931 . S
H849 C837 0.930 . S
H850 C838 0.956 . S
H851 C838 0.961 . S
H852 C838 0.961 . S
H853 C839 0.958 . S
H854 C839 0.961 . S
H855 C839 0.960 . S
C856 C857 1.391 . S
C856 C858 1.394 . S
C856 H872 0.931 . S
C857 C856 1.391 . S
C857 C861 1.376 . S
C858 C856 1.394 . S
C858 C859 1.369 . S
C858 C862 1.531 1_556 S
C859 C858 1.369 . S
C859 C860 1.410 . S
C859 C867 1.503 . S
C860 C859 1.410 . S
C860 C861 1.392 . S
C860 C863 1.511 . S
C861 C857 1.376 . S
C861 C860 1.392 . S
C861 H873 0.929 . S
C862 C858 1.531 1_554 S
C862 H874 0.960 . S
C862 H875 0.962 1_654 S
C862 H876 0.960 . S
C863 C860 1.511 . S
C863 H877 0.961 . S
C863 H878 0.961 . S
C863 H879 0.961 . S
C864 C865 1.366 1_455 S
C864 C866 1.355 1_455 S
C864 H880 0.943 . S
C865 C864 1.366 1_655 S
C865 C869 1.408 1_556 S
C866 C864 1.355 1_655 S
C866 C867 1.370 . S
C866 C870 1.524 1_655 S
C867 C859 1.503 . S
C867 C866 1.370 . S
C867 C868 1.382 1_556 S
C868 C867 1.382 1_554 S
C868 C869 1.410 . S
C868 C871 1.553 . S
C869 C865 1.408 1_554 S
C869 C868 1.410 . S
C869 H881 0.930 . S
C870 C866 1.524 1_455 S
C870 H882 0.956 . S
C870 H883 0.961 1_455 S
C870 H884 0.961 . S
C871 C868 1.553 . S
C871 H885 0.958 . S
C871 H886 0.961 . S
C871 H887 0.960 . S
H872 C856 0.931 . S
H873 C861 0.929 . S
H874 C862 0.960 . S
H875 C862 0.962 1_456 S
H876 C862 0.960 . S
H877 C863 0.961 . S
H878 C863 0.961 . S
H879 C863 0.961 . S
H880 C864 0.943 . S
H881 C869 0.930 . S
H882 C870 0.956 . S
H883 C870 0.961 1_655 S
H884 C870 0.961 . S
H885 C871 0.958 . S
H886 C871 0.961 . S
H887 C871 0.960 . S
C888 C889 1.391 . S
C888 C890 1.394 . S
C888 H904 0.931 . S
C889 C888 1.391 . S
C889 C893 1.376 . S
C890 C888 1.394 . S
C890 C891 1.369 . S
C890 C894 1.531 . S
C891 C890 1.369 . S
C891 C892 1.410 . S
C891 C899 1.503 . S
C892 C891 1.410 . S
C892 C893 1.392 . S
C892 C895 1.511 . S
C893 C889 1.376 . S
C893 C892 1.392 . S
C893 H905 0.929 . S
C894 C890 1.531 . S
C894 H906 0.960 . S
C894 H907 0.962 . S
C894 H908 0.960 . S
C895 C892 1.511 . S
C895 H909 0.961 . S
C895 H910 0.961 . S
C895 H911 0.961 . S
C896 C897 1.370 . S
C896 C898 1.363 . S
C896 H912 0.931 . S
C897 C896 1.370 . S
C897 C901 1.408 . S
C898 C896 1.363 . S
C898 C899 1.370 . S
C898 C902 1.524 . S
C899 C891 1.503 . S
C899 C898 1.370 . S
C899 C900 1.403 . S
C900 C899 1.403 . S
C900 C901 1.404 . S
C900 C903 1.539 . S
C901 C897 1.408 . S
C901 C900 1.404 . S
C901 H913 0.930 . S
C902 C898 1.524 . S
C902 H914 0.956 . S
C902 H915 0.961 . S
C902 H916 0.961 . S
C903 C900 1.539 . S
C903 H917 0.958 . S
C903 H918 0.961 . S
C903 H919 0.960 . S
H904 C888 0.931 . S
H905 C893 0.929 . S
H906 C894 0.960 . S
H907 C894 0.962 . S
H908 C894 0.960 . S
H909 C895 0.961 . S
H910 C895 0.961 . S
H911 C895 0.961 . S
H912 C896 0.931 . S
H913 C901 0.930 . S
H914 C902 0.956 . S
H915 C902 0.961 . S
H916 C902 0.961 . S
H917 C903 0.958 . S
H918 C903 0.961 . S
H919 C903 0.960 . S
C920 C921 1.391 . S
C920 C922 1.394 . S
C920 H936 0.931 . S
C921 C920 1.391 . S
C921 C925 1.376 . S
C922 C920 1.394 . S
C922 C923 1.369 . S
C922 C926 1.531 . S
C923 C922 1.369 . S
C923 C924 1.410 . S
C923 C931 1.503 . S
C924 C923 1.410 . S
C924 C925 1.392 . S
C924 C927 1.511 . S
C925 C921 1.376 . S
C925 C924 1.392 . S
C925 H937 0.929 . S
C926 C922 1.531 . S
C926 H938 0.960 . S
C926 H939 0.962 . S
C926 H940 0.960 . S
C927 C924 1.511 . S
C927 H941 0.961 . S
C927 H942 0.961 . S
C927 H943 0.961 . S
C928 C929 1.370 . S
C928 C930 1.363 . S
C928 H944 0.931 1_455 S
C929 C928 1.370 . S
C929 C933 1.408 . S
C930 C928 1.363 . S
C930 C931 1.370 . S
C930 C934 1.524 . S
C931 C923 1.503 . S
C931 C930 1.370 . S
C931 C932 1.403 . S
C932 C931 1.403 . S
C932 C933 1.404 . S
C932 C935 1.539 . S
C933 C929 1.408 . S
C933 C932 1.404 . S
C933 H945 0.930 . S
C934 C930 1.524 . S
C934 H946 0.956 1_455 S
C934 H947 0.961 . S
C934 H948 0.961 1_455 S
C935 C932 1.539 . S
C935 H949 0.958 . S
C935 H950 0.961 . S
C935 H951 0.960 . S
H936 C920 0.931 . S
H937 C925 0.929 . S
H938 C926 0.960 . S
H939 C926 0.962 . S
H940 C926 0.960 . S
H941 C927 0.961 . S
H942 C927 0.961 . S
H943 C927 0.961 . S
H944 C928 0.931 1_655 S
H945 C933 0.930 . S
H946 C934 0.956 1_655 S
H947 C934 0.961 . S
H948 C934 0.961 1_655 S
H949 C935 0.958 . S
H950 C935 0.961 . S
H951 C935 0.960 . S
C952 C953 1.391 . S
C952 C954 1.394 . S
C952 H968 0.931 . S
C953 C952 1.391 . S
C953 C957 1.376 . S
C954 C952 1.394 . S
C954 C955 1.369 . S
C954 C958 1.531 . S
C955 C954 1.369 . S
C955 C956 1.410 . S
C955 C963 1.503 . S
C956 C955 1.410 . S
C956 C957 1.392 . S
C956 C959 1.511 . S
C957 C953 1.376 . S
C957 C956 1.392 . S
C957 H969 0.929 . S
C958 C954 1.531 . S
C958 H970 0.960 . S
C958 H971 0.962 . S
C958 H972 0.960 . S
C959 C956 1.511 . S
C959 H973 0.961 . S
C959 H974 0.961 . S
C959 H975 0.961 . S
C960 C961 1.370 . S
C960 C962 1.363 . S
C960 H976 0.931 . S
C961 C960 1.370 . S
C961 C965 1.408 . S
C962 C960 1.363 . S
C962 C963 1.370 . S
C962 C966 1.524 . S
C963 C955 1.503 . S
C963 C962 1.370 . S
C963 C964 1.403 . S
C964 C963 1.403 . S
C964 C965 1.404 . S
C964 C967 1.539 . S
C965 C961 1.408 . S
C965 C964 1.404 . S
C965 H977 0.930 . S
C966 C962 1.524 . S
C966 H978 0.956 . S
C966 H979 0.961 . S
C966 H980 0.961 . S
C967 C964 1.539 . S
C967 H981 0.958 . S
C967 H982 0.961 . S
C967 H983 0.960 . S
H968 C952 0.931 . S
H969 C957 0.929 . S
H970 C958 0.960 . S
H971 C958 0.962 . S
H972 C958 0.960 . S
H973 C959 0.961 . S
H974 C959 0.961 . S
H975 C959 0.961 . S
H976 C960 0.931 . S
H977 C965 0.930 . S
H978 C966 0.956 . S
H979 C966 0.961 . S
H980 C966 0.961 . S
H981 C967 0.958 . S
H982 C967 0.961 . S
H983 C967 0.960 . S
C217 C6 2.309 . S
C225 C112 2.331 . S
C249 C18 1.353 . S
C257 N132 1.359 . S
C289 C166 2.009 . S
C281 C28 1.992 . S
C313 C40 0.874 . S
C321 N200 0.824 . S
C353 C153 2.571 . S
C345 C9 2.559 . S
C385 N110 1.092 . S
C377 C16 1.135 . S
C417 C187 2.012 1_556 S
C409 C30 2.013 . S
C449 N162 0.823 . S
C441 C42 0.829 . S
C473 C4 1.779 . S
C481 C202 1.789 . S
C513 C136 1.723 . S
C505 C33 1.698 . S
C537 C45 1.139 . S
C545 C97 1.121 . S
C569 C21 1.689 . S
C577 C183 1.697 . S
C609 C123 2.374 . S
C601 C57 2.372 . S
C633 C66 1.342 . S
C641 N140 1.327 . S
C665 C76 2.026 . S
C673 C157 2.056 . S
C697 C88 0.791 . S
C705 N192 0.832 . S
C729 C54 2.521 . S
C737 C142 2.529 1_565 S
C769 N102 1.146 . S
C761 C64 1.149 . S
C801 C196 1.907 . S
C793 C78 1.899 . S
C833 N170 0.835 . S
C825 C93 0.845 . S
C857 C52 1.722 . S
C865 C213 1.735 . S
C897 C127 1.728 . S
C889 C81 1.722 . S
C929 C106 1.131 . S
C921 C90 1.118 . S
C953 C69 1.731 . S
C961 C172 1.740 . S
