# Generated by pormake.
# Topology the, (3,8)-cn, num edge types: 1
# Building blocks:
#     Node 0, Type 0, BuildingBlock: PAMTOO_clean_linker_0, # of connection points: 3
#     Node 1, Type 0, BuildingBlock: PAMTOO_clean_linker_0, # of connection points: 3
#     Node 2, Type 0, BuildingBlock: PAMTOO_clean_linker_0, # of connection points: 3
#     Node 3, Type 0, BuildingBlock: PAMTOO_clean_linker_0, # of connection points: 3
#     Node 4, Type 0, BuildingBlock: PAMTOO_clean_linker_0, # of connection points: 3
#     Node 5, Type 0, BuildingBlock: PAMTOO_clean_linker_0, # of connection points: 3
#     Node 6, Type 0, BuildingBlock: PAMTOO_clean_linker_0, # of connection points: 3
#     Node 7, Type 0, BuildingBlock: PAMTOO_clean_linker_0, # of connection points: 3
#     Node 8, Type 1, BuildingBlock: GIZVER_clean_sbu_0, # of connection points: 8
#     Node 9, Type 1, BuildingBlock: GIZVER_clean_sbu_0, # of connection points: 8
#     Node 10, Type 1, BuildingBlock: GIZVER_clean_sbu_0, # of connection points: 8
#     Edge 11, Type (0, 1), BuildingBlock: OJICUG_clean_linker_0, # of connection points: 2
#     Edge 12, Type (0, 1), BuildingBlock: OJICUG_clean_linker_0, # of connection points: 2
#     Edge 13, Type (0, 1), BuildingBlock: OJICUG_clean_linker_0, # of connection points: 2
#     Edge 14, Type (0, 1), BuildingBlock: OJICUG_clean_linker_0, # of connection points: 2
#     Edge 15, Type (0, 1), BuildingBlock: OJICUG_clean_linker_0, # of connection points: 2
#     Edge 16, Type (0, 1), BuildingBlock: OJICUG_clean_linker_0, # of connection points: 2
#     Edge 17, Type (0, 1), BuildingBlock: OJICUG_clean_linker_0, # of connection points: 2
#     Edge 18, Type (0, 1), BuildingBlock: OJICUG_clean_linker_0, # of connection points: 2
#     Edge 19, Type (0, 1), BuildingBlock: OJICUG_clean_linker_0, # of connection points: 2
#     Edge 20, Type (0, 1), BuildingBlock: OJICUG_clean_linker_0, # of connection points: 2
#     Edge 21, Type (0, 1), BuildingBlock: OJICUG_clean_linker_0, # of connection points: 2
#     Edge 22, Type (0, 1), BuildingBlock: OJICUG_clean_linker_0, # of connection points: 2
#     Edge 23, Type (0, 1), BuildingBlock: OJICUG_clean_linker_0, # of connection points: 2
#     Edge 24, Type (0, 1), BuildingBlock: OJICUG_clean_linker_0, # of connection points: 2
#     Edge 25, Type (0, 1), BuildingBlock: OJICUG_clean_linker_0, # of connection points: 2
#     Edge 26, Type (0, 1), BuildingBlock: OJICUG_clean_linker_0, # of connection points: 2
#     Edge 27, Type (0, 1), BuildingBlock: OJICUG_clean_linker_0, # of connection points: 2
#     Edge 28, Type (0, 1), BuildingBlock: OJICUG_clean_linker_0, # of connection points: 2
#     Edge 29, Type (0, 1), BuildingBlock: OJICUG_clean_linker_0, # of connection points: 2
#     Edge 30, Type (0, 1), BuildingBlock: OJICUG_clean_linker_0, # of connection points: 2
#     Edge 31, Type (0, 1), BuildingBlock: OJICUG_clean_linker_0, # of connection points: 2
#     Edge 32, Type (0, 1), BuildingBlock: OJICUG_clean_linker_0, # of connection points: 2
#     Edge 33, Type (0, 1), BuildingBlock: OJICUG_clean_linker_0, # of connection points: 2
#     Edge 34, Type (0, 1), BuildingBlock: OJICUG_clean_linker_0, # of connection points: 2
# Relax obj value: 0.078
# Max RMSD: 0.245
# Mean RMSD: 0.139
data_MOF--net-the--node1-GIZVER_clean_sbu_0--node2-PAMTOO_clean_linker_0--edge1-OJICUG_clean_linker_0
_symmetry_space_group_name_H-M    P1
_symmetry_Int_Tables_number       1
_symmetry_cell_setting            triclinic
loop_
_symmetry_equiv_pos_as_xyz
'x, y, z'
_cell_length_a     30.854155
_cell_length_b     28.269449
_cell_length_c     25.996293
_cell_angle_alpha  87.925803
_cell_angle_beta   96.668374
_cell_angle_gamma 112.18676
loop_
_atom_site_label
_atom_site_type_symbol
_atom_site_fract_x
_atom_site_fract_y
_atom_site_fract_z
_atom_type_partial_charge
H0 H 0.27501 0.44401 0.36602 0.0
H1 H 0.28493 0.38294 0.5192 0.0
H2 H 0.37556 0.37337 0.41028 0.0
H3 H 0.28935 0.28335 0.49371 0.0
C4 C 0.32524 0.29818 0.51554 0.0
O5 O 0.34982 0.34863 0.50343 0.0
H6 H 0.32021 0.29609 0.55724 0.0
C7 C 0.2907 0.42437 0.39435 0.0
C8 C 0.32788 0.41095 0.38231 0.0
C9 C 0.27536 0.41474 0.4439 0.0
C10 C 0.29671 0.39082 0.48098 0.0
C11 C 0.33167 0.37452 0.46827 0.0
C12 C 0.34758 0.38499 0.41927 0.0
H13 H 0.75803 0.3005 0.42232 0.0
H14 H 0.64247 0.30453 0.31356 0.0
H15 H 0.77607 0.42519 0.31488 0.0
H16 H 0.70514 0.46301 0.28887 0.0
C17 C 0.67458 0.42638 0.28087 0.0
O18 O 0.69075 0.38879 0.27046 0.0
H19 H 0.65566 0.41683 0.31615 0.0
C20 C 0.7442 0.31895 0.39111 0.0
C21 C 0.77411 0.36611 0.3717 0.0
C22 C 0.69632 0.2956 0.37043 0.0
C23 C 0.6792 0.3198 0.3292 0.0
C24 C 0.70847 0.36546 0.30889 0.0
C25 C 0.75536 0.38839 0.32993 0.0
H26 H 0.63237 0.78796 0.31308 0.0
H27 H 0.74149 0.72641 0.32705 0.0
H28 H 0.74262 0.8324 0.44096 0.0
H29 H 0.84063 0.84068 0.43324 0.0
C30 C 0.8307 0.80636 0.40813 0.0
O31 O 0.78473 0.77466 0.41328 0.0
H32 H 0.8345 0.81964 0.36741 0.0
C33 C 0.66468 0.78648 0.33298 0.0
C34 C 0.68543 0.81552 0.37895 0.0
C35 C 0.68437 0.75381 0.3138 0.0
C36 C 0.72592 0.75155 0.34057 0.0
C37 C 0.747 0.7804 0.38579 0.0
C38 C 0.7268 0.81206 0.40479 0.0
H39 H 0.25269 0.79836 0.42292 0.0
H40 H 0.23153 0.66084 0.33895 0.0
H41 H 0.36581 0.7816 0.35146 0.0
H42 H 0.33055 0.73371 0.24784 0.0
C43 C 0.31507 0.69338 0.26076 0.0
O44 O 0.3161 0.69154 0.31391 0.0
H45 H 0.27786 0.67626 0.243 0.0
C46 C 0.26572 0.77649 0.39993 0.0
C47 C 0.31324 0.79728 0.38903 0.0
C48 C 0.23522 0.72713 0.3818 0.0
C49 C 0.2529 0.69953 0.35177 0.0
C50 C 0.29933 0.71992 0.3403 0.0
C51 C 0.32931 0.76815 0.35894 0.0
H52 H 0.29985 0.79834 0.6846 0.0
H53 H 0.27784 0.68616 0.80622 0.0
H54 H 0.41241 0.80665 0.80287 0.0
H55 H 0.39399 0.68711 0.80225 0.0
C56 C 0.37774 0.68159 0.83924 0.0
O57 O 0.36477 0.72211 0.84831 0.0
H58 H 0.3456 0.646 0.8347 0.0
C59 C 0.31219 0.78377 0.71997 0.0
C60 C 0.35893 0.80977 0.74238 0.0
C61 C 0.28221 0.73831 0.74167 0.0
C62 C 0.29975 0.7203 0.78765 0.0
C63 C 0.34675 0.74429 0.8088 0.0
C64 C 0.37595 0.7891 0.78657 0.0
H65 H 0.29883 0.43759 0.80256 0.0
H66 H 0.24366 0.31413 0.69152 0.0
H67 H 0.36168 0.325 0.80197 0.0
H68 H 0.34274 0.31927 0.6648 0.0
C69 C 0.31991 0.27895 0.67244 0.0
O70 O 0.30567 0.27414 0.72157 0.0
H71 H 0.28823 0.26887 0.64352 0.0
C72 C 0.29942 0.40283 0.78694 0.0
C73 C 0.33325 0.38356 0.80886 0.0
C74 C 0.26724 0.37856 0.74417 0.0
C75 C 0.26748 0.33288 0.72512 0.0
C76 C 0.30185 0.314 0.74543 0.0
C77 C 0.33452 0.33914 0.78739 0.0
H78 H 0.62925 0.30777 0.80186 0.0
H79 H 0.7683 0.42205 0.84016 0.0
H80 H 0.74727 0.30125 0.73382 0.0
H81 H 0.83253 0.3296 0.78521 0.0
C82 C 0.84457 0.372 0.78598 0.0
O83 O 0.80698 0.38726 0.77526 0.0
H84 H 0.86281 0.38614 0.82506 0.0
C85 C 0.66687 0.32239 0.79944 0.0
C86 C 0.68501 0.29734 0.7668 0.0
C87 C 0.69646 0.36763 0.82646 0.0
C88 C 0.74509 0.38605 0.82214 0.0
C89 C 0.76326 0.36202 0.78894 0.0
C90 C 0.73332 0.31769 0.76171 0.0
H91 H 0.65917 0.77072 0.73634 0.0
H92 H 0.73181 0.67655 0.69544 0.0
H93 H 0.70482 0.78123 0.58456 0.0
H94 H 0.71862 0.68762 0.53065 0.0
C95 C 0.72905 0.67503 0.56951 0.0
O96 O 0.74637 0.71641 0.60294 0.0
H97 H 0.69747 0.64447 0.58305 0.0
C98 C 0.67629 0.75839 0.70836 0.0
C99 C 0.6793 0.77997 0.65877 0.0
C100 C 0.6943 0.72022 0.7216 0.0
C101 C 0.71664 0.70488 0.68515 0.0
C102 C 0.72056 0.72713 0.63591 0.0
C103 C 0.70109 0.7638 0.62246 0.0
Co104 Co 0.11651 0.51918 0.59358 0.0
Co105 Co 0.06862 0.49471 0.50245 0.0
Co106 Co 0.02172 0.55368 0.56358 0.0
O107 O 0.05236 0.50274 0.56761 0.0
H108 H 0.03212 0.47013 0.58 0.0
O109 O 0.98946 0.60352 0.55871 0.0
Co110 Co 0.95454 0.61833 0.496 0.0
Co111 Co 0.92987 0.56963 0.5744 0.0
H112 H 1.00585 0.63301 0.58095 0.0
O113 O 0.07973 0.43804 0.4836 0.0
O114 O 0.13218 0.50965 0.52346 0.0
O115 O 0.06605 0.54389 0.44972 0.0
O116 O 0.05912 0.5956 0.50751 0.0
O117 O 0.97246 0.50485 0.51299 0.0
O118 O 0.92545 0.63808 0.44178 0.0
O119 O 0.96241 0.68265 0.51468 0.0
O120 O 0.93913 0.55289 0.46809 0.0
O121 O 0.98616 0.51459 0.62251 0.0
O122 O 0.91194 0.4984 0.59141 0.0
O123 O 0.89302 0.59002 0.52662 0.0
O124 O 0.907 0.6046 0.61344 0.0
C125 C 0.15508 0.47966 0.62875 0.0
C126 C 0.11621 0.61315 0.61122 0.0
C127 C 0.07131 0.58823 0.46417 0.0
C128 C 0.12294 0.4666 0.49966 0.0
C129 C 0.93715 0.67904 0.46987 0.0
C130 C 0.94414 0.51073 0.4761 0.0
C131 C 0.94214 0.48752 0.62157 0.0
C132 C 0.88307 0.60543 0.56899 0.0
O133 O 0.17469 0.52843 0.6203 0.0
O134 O 0.11091 0.4551 0.61169 0.0
O135 O 0.07235 0.60001 0.61553 0.0
O136 O 0.12955 0.58892 0.58026 0.0
Co137 Co 0.55686 0.96138 0.51718 0.0
Co138 Co 0.5794 0.99648 0.6121 0.0
Co139 Co 0.51966 0.05382 0.55181 0.0
O140 O 0.57086 0.02704 0.54993 0.0
H141 H 0.60015 0.05292 0.54157 0.0
O142 O 0.46665 0.07826 0.55124 0.0
Co143 Co 0.47421 0.13924 0.58616 0.0
Co144 Co 0.45887 0.11069 0.48849 0.0
H145 H 0.43747 0.05068 0.55701 0.0
O146 O 0.63399 0.98643 0.63292 0.0
O147 O 0.56902 0.93209 0.58585 0.0
O148 O 0.53562 0.98913 0.66199 0.0
O149 O 0.48317 0.99806 0.60014 0.0
O150 O 0.55688 0.09987 0.61287 0.0
O151 O 0.47608 0.19348 0.62008 0.0
O152 O 0.41313 0.12215 0.5967 0.0
O153 O 0.53874 0.16376 0.58029 0.0
O154 O 0.55729 0.10954 0.5047 0.0
O155 O 0.50889 0.12805 0.44426 0.0
O156 O 0.46399 0.1711 0.51912 0.0
O157 O 0.40285 0.12025 0.46591 0.0
C158 C 0.59398 0.92693 0.48137 0.0
C159 C 0.46757 0.96087 0.49535 0.0
C160 C 0.49341 0.98128 0.64453 0.0
C161 C 0.61016 0.94161 0.61222 0.0
C162 C 0.4312 0.16697 0.61931 0.0
C163 C 0.56329 0.14739 0.61323 0.0
C164 C 0.5499 0.13129 0.46243 0.0
C165 C 0.42319 0.16216 0.49284 0.0
O166 O 0.54927 0.90387 0.48538 0.0
O167 O 0.61644 0.9723 0.50243 0.0
O168 O 0.48207 1.00925 0.49133 0.0
O169 O 0.49153 0.9405 0.52468 0.0
Co170 Co 0.47465 0.56911 0.15526 0.0
Co171 Co 0.45211 0.47523 0.12656 0.0
Co172 Co 0.52945 0.55251 0.05603 0.0
O173 O 0.47185 0.53707 0.09168 0.0
H174 H 0.44591 0.53803 0.06753 0.0
O175 O 0.58707 0.56644 1.01952 0.0
Co176 Co 0.57931 0.53006 0.95606 0.0
Co177 Co 0.60379 0.62358 0.97878 0.0
H178 H 0.61371 0.56614 0.04291 0.0
O179 O 0.39112 0.44258 0.14783 0.0
O180 O 0.45346 0.50272 0.19095 0.0
O181 O 0.49763 0.44359 0.13615 0.0
O182 O 0.55506 0.50813 0.10331 0.0
O183 O 0.49064 0.49285 1.00854 0.0
O184 O 0.57576 0.49412 0.90031 0.0
O185 O 0.63515 0.52095 0.96464 0.0
O186 O 0.51979 0.53282 0.93894 0.0
O187 O 0.50335 0.5974 1.00935 0.0
O188 O 0.55829 0.65508 0.96669 0.0
O189 O 0.60605 0.59427 0.91668 0.0
O190 O 0.66432 0.65818 0.96235 0.0
C191 C 0.43 0.59385 0.18783 0.0
C192 C 0.56954 0.60944 0.15322 0.0
C193 C 0.5407 0.46677 0.12941 0.0
C194 C 0.41096 0.46889 0.18988 0.0
C195 C 0.61602 0.49446 0.92197 0.0
C196 C 0.48624 0.4998 0.95976 0.0
C197 C 0.51657 0.63585 0.97904 0.0
C198 C 0.64697 0.63189 0.9197 0.0
O199 O 0.47137 0.60061 0.21201 0.0
O200 O 0.41616 0.5684 0.14425 0.0
O201 O 0.56752 0.61288 0.10384 0.0
O202 O 0.53714 0.57459 0.17391 0.0
C203 C 0.19158 0.40706 0.4305 0.0
C204 C 0.23674 0.42905 0.4573 0.0
H205 H 0.11982 0.40077 0.42377 0.0
C206 C 0.24438 0.46304 0.49847 0.0
H207 H 0.18497 0.38041 0.39889 0.0
C208 C 0.20746 0.47544 0.5122 0.0
C209 C 0.16195 0.45287 0.48598 0.0
H210 H 0.27903 0.48031 0.51968 0.0
H211 H 0.2146 0.50247 0.54349 0.0
C212 C 0.15437 0.41841 0.44508 0.0
C213 C 0.62369 0.21399 0.36225 0.0
C214 C 0.66276 0.24825 0.39337 0.0
H215 H 0.55724 0.15087 0.3596 0.0
C216 C 0.66662 0.23924 0.44707 0.0
H217 H 0.61995 0.21818 0.3206 0.0
C218 C 0.63126 0.19908 0.46909 0.0
C219 C 0.59073 0.16765 0.43817 0.0
H220 H 0.69565 0.2647 0.47264 0.0
H221 H 0.63433 0.19461 0.51077 0.0
C222 C 0.58779 0.17489 0.38444 0.0
C223 C 0.86807 0.74516 0.38739 0.0
C224 C 0.8627 0.77777 0.42333 0.0
H225 H 0.89698 0.68964 0.37355 0.0
C226 C 0.88502 0.78064 0.47413 0.0
H227 H 0.85074 0.74187 0.34823 0.0
C228 C 0.91191 0.75093 0.48878 0.0
C229 C 0.91631 0.7173 0.45303 0.0
H230 H 0.88077 0.805 0.50274 0.0
H231 H 0.92731 0.75252 0.52861 0.0
C232 C 0.89466 0.71541 0.40199 0.0
C233 C 0.34609 0.86006 0.46375 0.0
C234 C 0.34791 0.84653 0.4127 0.0
H235 H 0.38152 0.90933 0.52877 0.0
C236 C 0.38653 0.87739 0.38674 0.0
H237 H 0.31713 0.83774 0.48519 0.0
C238 C 0.42437 0.91704 0.41279 0.0
C239 C 0.42394 0.92748 0.46491 0.0
H240 H 0.38863 0.86945 0.34687 0.0
H241 H 0.45499 0.93779 0.39299 0.0
C242 C 0.38357 0.90044 0.48933 0.0
C243 C 0.2172 0.65326 0.71687 0.0
C244 C 0.23492 0.70702 0.71365 0.0
H245 H 0.16423 0.58219 0.6894 0.0
C246 C 0.20865 0.72959 0.68036 0.0
H247 H 0.23601 0.63362 0.74089 0.0
C248 C 0.168 0.69925 0.64888 0.0
C249 C 0.15226 0.64583 0.65088 0.0
H250 H 0.22003 0.77068 0.67741 0.0
H251 H 0.15009 0.71746 0.62152 0.0
C252 C 0.17621 0.62332 0.68647 0.0
C253 C 0.39459 0.26162 0.68377 0.0
C254 C 0.34669 0.24532 0.66529 0.0
H255 H 0.45888 0.2494 0.68381 0.0
C256 C 0.32543 0.19972 0.63632 0.0
H257 H 0.41158 0.29654 0.70637 0.0
C258 C 0.35233 0.17242 0.62356 0.0
C259 C 0.40097 0.19048 0.63941 0.0
H260 H 0.28846 0.18642 0.62166 0.0
H261 H 0.33554 0.13874 0.59914 0.0
C262 C 0.42154 0.23465 0.67072 0.0
C263 C 0.85895 0.37943 0.6926 0.0
C264 C 0.87653 0.39377 0.74434 0.0
H265 H 0.86632 0.39835 0.61277 0.0
C266 C 0.92026 0.43418 0.75509 0.0
H267 H 0.82519 0.34855 0.68347 0.0
C268 C 0.94438 0.46202 0.71457 0.0
C269 C 0.9244 0.45056 0.66295 0.0
H270 H 0.93437 0.44613 0.79468 0.0
H271 H 0.97654 0.49501 0.72378 0.0
C272 C 0.8824 0.40792 0.65227 0.0
C273 C 0.67982 0.86618 0.67576 0.0
C274 C 0.66177 0.82125 0.6459 0.0
H275 H 0.67827 0.93979 0.68784 0.0
C276 C 0.62713 0.8161 0.60408 0.0
H277 H 0.70676 0.87093 0.70803 0.0
C278 C 0.60999 0.85506 0.59304 0.0
C279 C 0.6283 0.90034 0.62273 0.0
H280 H 0.61273 0.78156 0.58066 0.0
H281 H 0.58249 0.84966 0.56135 0.0
C282 C 0.66364 0.90558 0.66396 0.0
C283 C 0.39905 0.27858 0.52682 0.0
C284 C 0.35201 0.26526 0.50562 0.0
H285 H 0.45888 0.25702 0.53838 0.0
C286 C 0.32903 0.21869 0.47873 0.0
H287 H 0.41721 0.31391 0.5485 0.0
C288 C 0.3525 0.18576 0.47348 0.0
C289 C 0.39941 0.19865 0.49525 0.0
H290 H 0.29253 0.20725 0.46262 0.0
H291 H 0.33349 0.1497 0.45336 0.0
C292 C 0.4227 0.24584 0.52123 0.0
C293 C 0.83466 0.39212 0.45101 0.0
C294 C 0.82318 0.39507 0.39717 0.0
H295 H 0.88336 0.42528 0.51783 0.0
C296 C 0.85746 0.43078 0.36891 0.0
H297 H 0.80972 0.36571 0.47465 0.0
C298 C 0.89885 0.46641 0.39427 0.0
C299 C 0.90836 0.4656 0.44824 0.0
H300 H 0.85147 0.43318 0.32723 0.0
H301 H 0.92248 0.49606 0.3719 0.0
C302 C 0.87706 0.42656 0.47607 0.0
C303 C 0.6132 0.8265 0.40362 0.0
C304 C 0.66225 0.84613 0.4026 0.0
H305 H 0.55368 0.83611 0.42913 0.0
C306 C 0.68897 0.89362 0.42714 0.0
H307 H 0.59146 0.78976 0.38613 0.0
C308 C 0.66719 0.92039 0.45239 0.0
C309 C 0.61817 0.9002 0.4539 0.0
H310 H 0.72684 0.91013 0.42692 0.0
H311 H 0.68878 0.95657 0.47111 0.0
C312 C 0.59155 0.85305 0.4289 0.0
C313 C 0.17817 0.70726 0.44913 0.0
C314 C 0.18693 0.70106 0.39838 0.0
H315 H 0.13359 0.67721 0.50921 0.0
C316 C 0.15129 0.66376 0.36627 0.0
H317 H 0.20447 0.73527 0.47524 0.0
C318 C 0.11116 0.62925 0.38637 0.0
C319 C 0.10483 0.63242 0.4385 0.0
H320 H 0.15575 0.65897 0.32634 0.0
H321 H 0.0865 0.59827 0.36194 0.0
C322 C 0.13732 0.67365 0.46876 0.0
C323 C 0.424 0.8975 0.74751 0.0
C324 C 0.39111 0.85622 0.71748 0.0
H325 H 0.48202 0.97001 0.74793 0.0
C326 C 0.39086 0.85847 0.66333 0.0
H327 H 0.42515 0.89713 0.78932 0.0
C328 C 0.42302 0.90029 0.64 0.0
C329 C 0.4559 0.94121 0.66983 0.0
H330 H 0.36729 0.82683 0.63897 0.0
H331 H 0.42429 0.89909 0.59883 0.0
C332 C 0.45629 0.93942 0.72392 0.0
C333 C 0.25677 0.4567 0.70629 0.0
C334 C 0.23738 0.40397 0.71581 0.0
H335 H 0.24635 0.52156 0.67122 0.0
C336 C 0.19056 0.37588 0.69565 0.0
H337 H 0.29303 0.47931 0.72016 0.0
C338 C 0.16369 0.40017 0.66697 0.0
C339 C 0.18324 0.45296 0.65769 0.0
H340 H 0.17463 0.33519 0.70231 0.0
H341 H 0.12765 0.37763 0.65223 0.0
C342 C 0.23008 0.48085 0.67764 0.0
C343 C 0.61844 0.26663 0.69711 0.0
C344 C 0.65272 0.25643 0.73054 0.0
H345 H 0.56547 0.24185 0.63344 0.0
C346 C 0.65793 0.20939 0.72572 0.0
H347 H 0.61433 0.30293 0.6991 0.0
C348 C 0.62857 0.17293 0.68838 0.0
C349 C 0.59464 0.18376 0.65433 0.0
H350 H 0.68464 0.20095 0.75076 0.0
H351 H 0.63301 0.13694 0.68552 0.0
C352 C 0.59039 0.2313 0.65923 0.0
C353 C 0.78455 0.65091 0.52096 0.0
C354 C 0.76682 0.65394 0.56761 0.0
H355 H 0.83471 0.63178 0.48448 0.0
C356 C 0.78616 0.63894 0.61378 0.0
H357 H 0.77005 0.66212 0.48477 0.0
C358 C 0.82388 0.62332 0.61393 0.0
C359 C 0.84242 0.62113 0.56763 0.0
H360 H 0.77274 0.64032 0.65008 0.0
H361 H 0.83841 0.61286 0.6505 0.0
C362 C 0.82172 0.63393 0.52089 0.0
C363 C 0.3198 0.41326 0.28487 0.0
C364 C 0.34812 0.42658 0.33255 0.0
H365 H 0.31756 0.41571 0.20191 0.0
C366 C 0.39643 0.45547 0.33284 0.0
H367 H 0.28239 0.39111 0.28376 0.0
C368 C 0.41628 0.47042 0.28644 0.0
C369 C 0.38844 0.4559 0.23855 0.0
H370 H 0.41888 0.46671 0.36913 0.0
H371 H 0.45378 0.49238 0.28819 0.0
C372 C 0.33991 0.42731 0.23819 0.0
C373 C 0.39859 0.63561 0.91796 0.0
C374 C 0.41259 0.6758 0.88244 0.0
H375 H 0.42035 0.59166 0.9768 0.0
C376 C 0.46048 0.70712 0.88418 0.0
H377 H 0.3618 0.61103 0.91759 0.0
C378 C 0.49415 0.6961 0.918 0.0
C379 C 0.48059 0.65361 0.95108 0.0
H380 H 0.47206 0.73849 0.85736 0.0
H381 H 0.53099 0.71952 0.91642 0.0
C382 C 0.43221 0.62463 0.95196 0.0
C383 C 0.39342 0.466 0.84497 0.0
C384 C 0.36998 0.41307 0.85043 0.0
H385 H 0.44797 0.53459 0.87572 0.0
C386 C 0.38269 0.38915 0.89486 0.0
H387 H 0.38479 0.48553 0.81108 0.0
C388 C 0.41877 0.41765 0.9326 0.0
C389 C 0.44323 0.47022 0.92577 0.0
H390 H 0.36499 0.34844 0.90016 0.0
H391 H 0.42889 0.39829 0.96577 0.0
C392 C 0.4297 0.49409 0.88197 0.0
C393 C 0.69841 0.42667 0.89889 0.0
C394 C 0.676 0.39943 0.85261 0.0
H395 H 0.69739 0.47819 0.95729 0.0
C396 C 0.63486 0.40517 0.82927 0.0
H397 H 0.73022 0.42325 0.91791 0.0
C398 C 0.61634 0.4366 0.85156 0.0
C399 C 0.63831 0.46351 0.89798 0.0
H400 H 0.61725 0.38614 0.79296 0.0
H401 H 0.58451 0.43965 0.83213 0.0
C402 C 0.6797 0.45827 0.92141 0.0
C403 C 0.70362 0.72696 0.81825 0.0
C404 C 0.68907 0.69636 0.77335 0.0
H405 H 0.70311 0.73024 0.90023 0.0
C406 C 0.66606 0.64328 0.77796 0.0
H407 H 0.72173 0.76795 0.81562 0.0
C408 C 0.65479 0.62163 0.8263 0.0
C409 C 0.66718 0.65261 0.87096 0.0
H410 H 0.65449 0.61893 0.74382 0.0
H411 H 0.63473 0.58096 0.82843 0.0
C412 C 0.69326 0.70524 0.86668 0.0
C413 C 0.65223 0.66629 0.27317 0.0
C414 C 0.65943 0.71841 0.26902 0.0
H415 H 0.61857 0.59138 0.23942 0.0
C416 C 0.64093 0.73531 0.22306 0.0
H417 H 0.66549 0.65177 0.30809 0.0
C418 C 0.61479 0.70056 0.18291 0.0
C419 C 0.6059 0.64815 0.18848 0.0
H420 H 0.64599 0.77523 0.21857 0.0
H421 H 0.59929 0.71418 0.14894 0.0
C422 C 0.62545 0.63164 0.23374 0.0
C423 C 0.38992 0.67633 0.26691 0.0
C424 C 0.34365 0.66507 0.24386 0.0
H425 H 0.45324 0.66186 0.26797 0.0
C426 C 0.32534 0.62895 0.20345 0.0
H427 H 0.40492 0.70453 0.29775 0.0
C428 C 0.35298 0.60472 0.18611 0.0
C429 C 0.39946 0.61623 0.20889 0.0
H430 H 0.28986 0.61995 0.1848 0.0
H431 H 0.33813 0.57753 0.15439 0.0
C432 C 0.41745 0.65184 0.24989 0.0
C433 C 0.59421 0.39837 0.23003 0.0
C434 C 0.64147 0.4321 0.23595 0.0
H435 H 0.52514 0.3823 0.19105 0.0
C436 C 0.65667 0.47279 0.2013 0.0
H437 H 0.58194 0.36627 0.25588 0.0
C438 C 0.62436 0.482 0.16396 0.0
C439 C 0.57619 0.45059 0.16053 0.0
H440 H 0.69316 0.49886 0.20467 0.0
H441 H 0.63683 0.51537 0.13973 0.0
C442 C 0.56182 0.40756 0.19277 0.0
loop_
_geom_bond_atom_site_label_1
_geom_bond_atom_site_label_2
_geom_bond_distance
_geom_bond_site_symmetry_2
_ccdc_geom_bond_type
H0 C7 0.929 . S
H1 C10 0.930 . S
H2 C12 0.929 . S
H3 C4 0.969 . S
C4 H3 0.969 . S
C4 O5 1.550 . S
C4 H6 0.973 . S
O5 C4 1.550 . S
O5 C11 1.412 . S
H6 C4 0.973 . S
C7 H0 0.929 . S
C7 C8 1.400 . S
C7 C9 1.364 . S
C8 C7 1.400 . S
C8 C12 1.377 . S
C9 C7 1.364 . S
C9 C10 1.374 . S
C10 H1 0.930 . S
C10 C9 1.374 . S
C10 C11 1.383 . S
C11 O5 1.412 . S
C11 C10 1.383 . S
C11 C12 1.394 . S
C12 H2 0.929 . S
C12 C8 1.377 . S
C12 C11 1.394 . S
H13 C20 0.929 . S
H14 C23 0.930 . S
H15 C25 0.929 . S
H16 C17 0.969 . S
C17 H16 0.969 . S
C17 O18 1.550 . S
C17 H19 0.973 . S
O18 C17 1.550 . S
O18 C24 1.412 . S
H19 C17 0.973 . S
C20 H13 0.929 . S
C20 C21 1.400 . S
C20 C22 1.364 . S
C21 C20 1.400 . S
C21 C25 1.377 . S
C22 C20 1.364 . S
C22 C23 1.374 . S
C23 H14 0.930 . S
C23 C22 1.374 . S
C23 C24 1.383 . S
C24 O18 1.412 . S
C24 C23 1.383 . S
C24 C25 1.394 . S
C25 H15 0.929 . S
C25 C21 1.377 . S
C25 C24 1.394 . S
H26 C33 0.929 . S
H27 C36 0.930 . S
H28 C38 0.929 . S
H29 C30 0.969 . S
C30 H29 0.969 . S
C30 O31 1.550 . S
C30 H32 0.973 . S
O31 C30 1.550 . S
O31 C37 1.412 . S
H32 C30 0.973 . S
C33 H26 0.929 . S
C33 C34 1.400 . S
C33 C35 1.364 . S
C34 C33 1.400 . S
C34 C38 1.377 . S
C35 C33 1.364 . S
C35 C36 1.374 . S
C36 H27 0.930 . S
C36 C35 1.374 . S
C36 C37 1.383 . S
C37 O31 1.412 . S
C37 C36 1.383 . S
C37 C38 1.394 . S
C38 H28 0.929 . S
C38 C34 1.377 . S
C38 C37 1.394 . S
H39 C46 0.929 . S
H40 C49 0.930 . S
H41 C51 0.929 . S
H42 C43 0.969 . S
C43 H42 0.969 . S
C43 O44 1.550 . S
C43 H45 0.973 . S
O44 C43 1.550 . S
O44 C50 1.412 . S
H45 C43 0.973 . S
C46 H39 0.929 . S
C46 C47 1.400 . S
C46 C48 1.364 . S
C47 C46 1.400 . S
C47 C51 1.377 . S
C48 C46 1.364 . S
C48 C49 1.374 . S
C49 H40 0.930 . S
C49 C48 1.374 . S
C49 C50 1.383 . S
C50 O44 1.412 . S
C50 C49 1.383 . S
C50 C51 1.394 . S
C51 H41 0.929 . S
C51 C47 1.377 . S
C51 C50 1.394 . S
H52 C59 0.929 . S
H53 C62 0.930 . S
H54 C64 0.929 . S
H55 C56 0.969 . S
C56 H55 0.969 . S
C56 O57 1.550 . S
C56 H58 0.973 . S
O57 C56 1.550 . S
O57 C63 1.412 . S
H58 C56 0.973 . S
C59 H52 0.929 . S
C59 C60 1.400 . S
C59 C61 1.364 . S
C60 C59 1.400 . S
C60 C64 1.377 . S
C61 C59 1.364 . S
C61 C62 1.374 . S
C62 H53 0.930 . S
C62 C61 1.374 . S
C62 C63 1.383 . S
C63 O57 1.412 . S
C63 C62 1.383 . S
C63 C64 1.394 . S
C64 H54 0.929 . S
C64 C60 1.377 . S
C64 C63 1.394 . S
H65 C72 0.929 . S
H66 C75 0.930 . S
H67 C77 0.929 . S
H68 C69 0.969 . S
C69 H68 0.969 . S
C69 O70 1.550 . S
C69 H71 0.973 . S
O70 C69 1.550 . S
O70 C76 1.412 . S
H71 C69 0.973 . S
C72 H65 0.929 . S
C72 C73 1.400 . S
C72 C74 1.364 . S
C73 C72 1.400 . S
C73 C77 1.377 . S
C74 C72 1.364 . S
C74 C75 1.374 . S
C75 H66 0.930 . S
C75 C74 1.374 . S
C75 C76 1.383 . S
C76 O70 1.412 . S
C76 C75 1.383 . S
C76 C77 1.394 . S
C77 H67 0.929 . S
C77 C73 1.377 . S
C77 C76 1.394 . S
H78 C85 0.929 . S
H79 C88 0.930 . S
H80 C90 0.929 . S
H81 C82 0.969 . S
C82 H81 0.969 . S
C82 O83 1.550 . S
C82 H84 0.973 . S
O83 C82 1.550 . S
O83 C89 1.412 . S
H84 C82 0.973 . S
C85 H78 0.929 . S
C85 C86 1.400 . S
C85 C87 1.364 . S
C86 C85 1.400 . S
C86 C90 1.377 . S
C87 C85 1.364 . S
C87 C88 1.374 . S
C88 H79 0.930 . S
C88 C87 1.374 . S
C88 C89 1.383 . S
C89 O83 1.412 . S
C89 C88 1.383 . S
C89 C90 1.394 . S
C90 H80 0.929 . S
C90 C86 1.377 . S
C90 C89 1.394 . S
H91 C98 0.929 . S
H92 C101 0.930 . S
H93 C103 0.929 . S
H94 C95 0.969 . S
C95 H94 0.969 . S
C95 O96 1.550 . S
C95 H97 0.973 . S
O96 C95 1.550 . S
O96 C102 1.412 . S
H97 C95 0.973 . S
C98 H91 0.929 . S
C98 C99 1.400 . S
C98 C100 1.364 . S
C99 C98 1.400 . S
C99 C103 1.377 . S
C100 C98 1.364 . S
C100 C101 1.374 . S
C101 H92 0.930 . S
C101 C100 1.374 . S
C101 C102 1.383 . S
C102 O96 1.412 . S
C102 C101 1.383 . S
C102 C103 1.394 . S
C103 H93 0.929 . S
C103 C99 1.377 . S
C103 C102 1.394 . S
Co104 O107 2.042 . S
Co104 O114 2.264 . S
Co104 O133 2.286 . S
Co104 O134 2.069 . S
Co104 O136 2.015 . S
Co105 O107 2.122 . S
Co105 O113 2.073 . S
Co105 O114 2.327 . S
Co105 O115 1.976 . S
Co106 O107 2.087 . S
Co106 O109 2.087 1_455 S
Co106 O116 2.111 . S
Co106 O117 2.143 1_455 S
Co106 O121 2.111 1_455 S
Co106 O135 2.143 . S
O107 Co104 2.042 . S
O107 Co105 2.122 . S
O107 Co106 2.087 . S
O107 H108 0.980 . S
H108 O107 0.980 . S
O109 Co106 2.087 1_655 S
O109 Co110 2.042 . S
O109 Co111 2.122 . S
O109 H112 0.980 1_655 S
Co110 O109 2.042 . S
Co110 O118 2.286 . S
Co110 O119 2.069 . S
Co110 O120 2.015 . S
Co110 O123 2.264 . S
Co111 O109 2.122 . S
Co111 O122 1.976 . S
Co111 O123 2.327 . S
Co111 O124 2.073 . S
H112 O109 0.980 1_455 S
O113 Co105 2.073 . S
O113 C128 1.245 . S
O114 Co104 2.264 . S
O114 Co105 2.327 . S
O114 C128 1.257 . S
O115 Co105 1.976 . S
O115 C127 1.251 . S
O116 Co106 2.111 . S
O116 C127 1.274 . S
O117 Co106 2.143 1_655 S
O117 C130 1.246 . S
O118 Co110 2.286 . S
O118 C129 1.259 . S
O119 Co110 2.069 . S
O119 C129 1.289 . S
O120 Co110 2.015 . S
O120 C130 1.257 . S
O121 Co106 2.111 1_655 S
O121 C131 1.274 . S
O122 Co111 1.976 . S
O122 C131 1.251 . S
O123 Co110 2.264 . S
O123 Co111 2.327 . S
O123 C132 1.257 . S
O124 Co111 2.073 . S
O124 C132 1.245 . S
C125 O133 1.259 . S
C125 O134 1.289 . S
C126 O135 1.246 . S
C126 O136 1.257 . S
C127 O115 1.251 . S
C127 O116 1.274 . S
C128 O113 1.245 . S
C128 O114 1.257 . S
C129 O118 1.259 . S
C129 O119 1.289 . S
C130 O117 1.246 . S
C130 O120 1.257 . S
C131 O121 1.274 . S
C131 O122 1.251 . S
C132 O123 1.257 . S
C132 O124 1.245 . S
O133 Co104 2.286 . S
O133 C125 1.259 . S
O134 Co104 2.069 . S
O134 C125 1.289 . S
O135 Co106 2.143 . S
O135 C126 1.246 . S
O136 Co104 2.015 . S
O136 C126 1.257 . S
Co137 O140 2.042 . S
Co137 O147 2.264 . S
Co137 O166 2.286 . S
Co137 O167 2.069 . S
Co137 O169 2.015 . S
Co138 O140 2.122 . S
Co138 O146 2.073 . S
Co138 O147 2.327 . S
Co138 O148 1.976 . S
Co139 O140 2.087 1_545 S
Co139 O142 2.087 . S
Co139 O149 2.111 1_545 S
Co139 O150 2.143 . S
Co139 O154 2.111 . S
Co139 O168 2.143 1_545 S
O140 Co137 2.042 . S
O140 Co138 2.122 . S
O140 Co139 2.087 1_565 S
O140 H141 0.980 1_565 S
H141 O140 0.980 1_545 S
O142 Co139 2.087 . S
O142 Co143 2.042 . S
O142 Co144 2.122 . S
O142 H145 0.980 . S
Co143 O142 2.042 . S
Co143 O151 2.286 . S
Co143 O152 2.069 . S
Co143 O153 2.015 . S
Co143 O156 2.264 . S
Co144 O142 2.122 . S
Co144 O155 1.976 . S
Co144 O156 2.327 . S
Co144 O157 2.073 . S
H145 O142 0.980 . S
O146 Co138 2.073 . S
O146 C161 1.245 . S
O147 Co137 2.264 . S
O147 Co138 2.327 . S
O147 C161 1.257 . S
O148 Co138 1.976 . S
O148 C160 1.251 . S
O149 Co139 2.111 1_565 S
O149 C160 1.274 . S
O150 Co139 2.143 . S
O150 C163 1.246 . S
O151 Co143 2.286 . S
O151 C162 1.259 . S
O152 Co143 2.069 . S
O152 C162 1.289 . S
O153 Co143 2.015 . S
O153 C163 1.257 . S
O154 Co139 2.111 . S
O154 C164 1.274 . S
O155 Co144 1.976 . S
O155 C164 1.251 . S
O156 Co143 2.264 . S
O156 Co144 2.327 . S
O156 C165 1.257 . S
O157 Co144 2.073 . S
O157 C165 1.245 . S
C158 O166 1.259 . S
C158 O167 1.289 . S
C159 O168 1.246 . S
C159 O169 1.257 . S
C160 O148 1.251 . S
C160 O149 1.274 . S
C161 O146 1.245 . S
C161 O147 1.257 . S
C162 O151 1.259 . S
C162 O152 1.289 . S
C163 O150 1.246 . S
C163 O153 1.257 . S
C164 O154 1.274 . S
C164 O155 1.251 . S
C165 O156 1.257 . S
C165 O157 1.245 . S
O166 Co137 2.286 . S
O166 C158 1.259 . S
O167 Co137 2.069 . S
O167 C158 1.289 . S
O168 Co139 2.143 1_565 S
O168 C159 1.246 . S
O169 Co137 2.015 . S
O169 C159 1.257 . S
Co170 O173 2.042 . S
Co170 O180 2.264 . S
Co170 O199 2.286 . S
Co170 O200 2.069 . S
Co170 O202 2.015 . S
Co171 O173 2.122 . S
Co171 O179 2.073 . S
Co171 O180 2.327 . S
Co171 O181 1.976 . S
Co172 O173 2.087 . S
Co172 O175 2.087 1_554 S
Co172 O182 2.111 . S
Co172 O183 2.143 1_554 S
Co172 O187 2.111 1_554 S
Co172 O201 2.143 . S
O173 Co170 2.042 . S
O173 Co171 2.122 . S
O173 Co172 2.087 . S
O173 H174 0.980 . S
H174 O173 0.980 . S
O175 Co172 2.087 1_556 S
O175 Co176 2.042 . S
O175 Co177 2.122 . S
O175 H178 0.980 . S
Co176 O175 2.042 . S
Co176 O184 2.286 . S
Co176 O185 2.069 . S
Co176 O186 2.015 . S
Co176 O189 2.264 . S
Co177 O175 2.122 . S
Co177 O188 1.976 . S
Co177 O189 2.327 . S
Co177 O190 2.073 . S
H178 O175 0.980 . S
O179 Co171 2.073 . S
O179 C194 1.245 . S
O180 Co170 2.264 . S
O180 Co171 2.327 . S
O180 C194 1.257 . S
O181 Co171 1.976 . S
O181 C193 1.251 . S
O182 Co172 2.111 . S
O182 C193 1.274 . S
O183 Co172 2.143 1_556 S
O183 C196 1.246 . S
O184 Co176 2.286 . S
O184 C195 1.259 . S
O185 Co176 2.069 . S
O185 C195 1.289 . S
O186 Co176 2.015 . S
O186 C196 1.257 . S
O187 Co172 2.111 1_556 S
O187 C197 1.274 . S
O188 Co177 1.976 . S
O188 C197 1.251 . S
O189 Co176 2.264 . S
O189 Co177 2.327 . S
O189 C198 1.257 . S
O190 Co177 2.073 . S
O190 C198 1.245 . S
C191 O199 1.259 . S
C191 O200 1.289 . S
C192 O201 1.246 . S
C192 O202 1.257 . S
C193 O181 1.251 . S
C193 O182 1.274 . S
C194 O179 1.245 . S
C194 O180 1.257 . S
C195 O184 1.259 . S
C195 O185 1.289 . S
C196 O183 1.246 . S
C196 O186 1.257 . S
C197 O187 1.274 . S
C197 O188 1.251 . S
C198 O189 1.257 . S
C198 O190 1.245 . S
O199 Co170 2.286 . S
O199 C191 1.259 . S
O200 Co170 2.069 . S
O200 C191 1.289 . S
O201 Co172 2.143 . S
O201 C192 1.246 . S
O202 Co170 2.015 . S
O202 C192 1.257 . S
C203 C204 1.387 . S
C203 H207 0.950 . S
C203 C212 1.390 . S
C204 C203 1.387 . S
C204 C206 1.387 . S
H205 C212 0.950 . S
C206 C204 1.387 . S
C206 C208 1.390 . S
C206 H210 0.950 . S
H207 C203 0.950 . S
C208 C206 1.390 . S
C208 C209 1.387 . S
C208 H211 0.950 . S
C209 C208 1.387 . S
C209 C212 1.387 . S
H210 C206 0.950 . S
H211 C208 0.950 . S
C212 C203 1.390 . S
C212 H205 0.950 . S
C212 C209 1.387 . S
C213 C214 1.387 . S
C213 H217 0.950 . S
C213 C222 1.390 . S
C214 C213 1.387 . S
C214 C216 1.387 . S
H215 C222 0.950 . S
C216 C214 1.387 . S
C216 C218 1.390 . S
C216 H220 0.950 . S
H217 C213 0.950 . S
C218 C216 1.390 . S
C218 C219 1.387 . S
C218 H221 0.950 . S
C219 C218 1.387 . S
C219 C222 1.387 . S
H220 C216 0.950 . S
H221 C218 0.950 . S
C222 C213 1.390 . S
C222 H215 0.950 . S
C222 C219 1.387 . S
C223 C224 1.387 . S
C223 H227 0.950 . S
C223 C232 1.390 . S
C224 C223 1.387 . S
C224 C226 1.387 . S
H225 C232 0.950 . S
C226 C224 1.387 . S
C226 C228 1.390 . S
C226 H230 0.950 . S
H227 C223 0.950 . S
C228 C226 1.390 . S
C228 C229 1.387 . S
C228 H231 0.950 . S
C229 C228 1.387 . S
C229 C232 1.387 . S
H230 C226 0.950 . S
H231 C228 0.950 . S
C232 C223 1.390 . S
C232 H225 0.950 . S
C232 C229 1.387 . S
C233 C234 1.387 . S
C233 H237 0.950 . S
C233 C242 1.390 . S
C234 C233 1.387 . S
C234 C236 1.387 . S
H235 C242 0.950 . S
C236 C234 1.387 . S
C236 C238 1.390 . S
C236 H240 0.950 . S
H237 C233 0.950 . S
C238 C236 1.390 . S
C238 C239 1.387 . S
C238 H241 0.950 . S
C239 C238 1.387 . S
C239 C242 1.387 . S
H240 C236 0.950 . S
H241 C238 0.950 . S
C242 C233 1.390 . S
C242 H235 0.950 . S
C242 C239 1.387 . S
C243 C244 1.387 . S
C243 H247 0.950 . S
C243 C252 1.390 . S
C244 C243 1.387 . S
C244 C246 1.387 . S
H245 C252 0.950 . S
C246 C244 1.387 . S
C246 C248 1.390 . S
C246 H250 0.950 . S
H247 C243 0.950 . S
C248 C246 1.390 . S
C248 C249 1.387 . S
C248 H251 0.950 . S
C249 C248 1.387 . S
C249 C252 1.387 . S
H250 C246 0.950 . S
H251 C248 0.950 . S
C252 C243 1.390 . S
C252 H245 0.950 . S
C252 C249 1.387 . S
C253 C254 1.387 . S
C253 H257 0.950 . S
C253 C262 1.390 . S
C254 C253 1.387 . S
C254 C256 1.387 . S
H255 C262 0.950 . S
C256 C254 1.387 . S
C256 C258 1.390 . S
C256 H260 0.950 . S
H257 C253 0.950 . S
C258 C256 1.390 . S
C258 C259 1.387 . S
C258 H261 0.950 . S
C259 C258 1.387 . S
C259 C262 1.387 . S
H260 C256 0.950 . S
H261 C258 0.950 . S
C262 C253 1.390 . S
C262 H255 0.950 . S
C262 C259 1.387 . S
C263 C264 1.387 . S
C263 H267 0.950 . S
C263 C272 1.390 . S
C264 C263 1.387 . S
C264 C266 1.387 . S
H265 C272 0.950 . S
C266 C264 1.387 . S
C266 C268 1.390 . S
C266 H270 0.950 . S
H267 C263 0.950 . S
C268 C266 1.390 . S
C268 C269 1.387 . S
C268 H271 0.950 . S
C269 C268 1.387 . S
C269 C272 1.387 . S
H270 C266 0.950 . S
H271 C268 0.950 . S
C272 C263 1.390 . S
C272 H265 0.950 . S
C272 C269 1.387 . S
C273 C274 1.387 . S
C273 H277 0.950 . S
C273 C282 1.390 . S
C274 C273 1.387 . S
C274 C276 1.387 . S
H275 C282 0.950 . S
C276 C274 1.387 . S
C276 C278 1.390 . S
C276 H280 0.950 . S
H277 C273 0.950 . S
C278 C276 1.390 . S
C278 C279 1.387 . S
C278 H281 0.950 . S
C279 C278 1.387 . S
C279 C282 1.387 . S
H280 C276 0.950 . S
H281 C278 0.950 . S
C282 C273 1.390 . S
C282 H275 0.950 . S
C282 C279 1.387 . S
C283 C284 1.387 . S
C283 H287 0.950 . S
C283 C292 1.390 . S
C284 C283 1.387 . S
C284 C286 1.387 . S
H285 C292 0.950 . S
C286 C284 1.387 . S
C286 C288 1.390 . S
C286 H290 0.950 . S
H287 C283 0.950 . S
C288 C286 1.390 . S
C288 C289 1.387 . S
C288 H291 0.950 . S
C289 C288 1.387 . S
C289 C292 1.387 . S
H290 C286 0.950 . S
H291 C288 0.950 . S
C292 C283 1.390 . S
C292 H285 0.950 . S
C292 C289 1.387 . S
C293 C294 1.387 . S
C293 H297 0.950 . S
C293 C302 1.390 . S
C294 C293 1.387 . S
C294 C296 1.387 . S
H295 C302 0.950 . S
C296 C294 1.387 . S
C296 C298 1.390 . S
C296 H300 0.950 . S
H297 C293 0.950 . S
C298 C296 1.390 . S
C298 C299 1.387 . S
C298 H301 0.950 . S
C299 C298 1.387 . S
C299 C302 1.387 . S
H300 C296 0.950 . S
H301 C298 0.950 . S
C302 C293 1.390 . S
C302 H295 0.950 . S
C302 C299 1.387 . S
C303 C304 1.387 . S
C303 H307 0.950 . S
C303 C312 1.390 . S
C304 C303 1.387 . S
C304 C306 1.387 . S
H305 C312 0.950 . S
C306 C304 1.387 . S
C306 C308 1.390 . S
C306 H310 0.950 . S
H307 C303 0.950 . S
C308 C306 1.390 . S
C308 C309 1.387 . S
C308 H311 0.950 . S
C309 C308 1.387 . S
C309 C312 1.387 . S
H310 C306 0.950 . S
H311 C308 0.950 . S
C312 C303 1.390 . S
C312 H305 0.950 . S
C312 C309 1.387 . S
C313 C314 1.387 . S
C313 H317 0.950 . S
C313 C322 1.390 . S
C314 C313 1.387 . S
C314 C316 1.387 . S
H315 C322 0.950 . S
C316 C314 1.387 . S
C316 C318 1.390 . S
C316 H320 0.950 . S
H317 C313 0.950 . S
C318 C316 1.390 . S
C318 C319 1.387 . S
C318 H321 0.950 . S
C319 C318 1.387 . S
C319 C322 1.387 . S
H320 C316 0.950 . S
H321 C318 0.950 . S
C322 C313 1.390 . S
C322 H315 0.950 . S
C322 C319 1.387 . S
C323 C324 1.387 . S
C323 H327 0.950 . S
C323 C332 1.390 . S
C324 C323 1.387 . S
C324 C326 1.387 . S
H325 C332 0.950 . S
C326 C324 1.387 . S
C326 C328 1.390 . S
C326 H330 0.950 . S
H327 C323 0.950 . S
C328 C326 1.390 . S
C328 C329 1.387 . S
C328 H331 0.950 . S
C329 C328 1.387 . S
C329 C332 1.387 . S
H330 C326 0.950 . S
H331 C328 0.950 . S
C332 C323 1.390 . S
C332 H325 0.950 . S
C332 C329 1.387 . S
C333 C334 1.387 . S
C333 H337 0.950 . S
C333 C342 1.390 . S
C334 C333 1.387 . S
C334 C336 1.387 . S
H335 C342 0.950 . S
C336 C334 1.387 . S
C336 C338 1.390 . S
C336 H340 0.950 . S
H337 C333 0.950 . S
C338 C336 1.390 . S
C338 C339 1.387 . S
C338 H341 0.950 . S
C339 C338 1.387 . S
C339 C342 1.387 . S
H340 C336 0.950 . S
H341 C338 0.950 . S
C342 C333 1.390 . S
C342 H335 0.950 . S
C342 C339 1.387 . S
C343 C344 1.387 . S
C343 H347 0.950 . S
C343 C352 1.390 . S
C344 C343 1.387 . S
C344 C346 1.387 . S
H345 C352 0.950 . S
C346 C344 1.387 . S
C346 C348 1.390 . S
C346 H350 0.950 . S
H347 C343 0.950 . S
C348 C346 1.390 . S
C348 C349 1.387 . S
C348 H351 0.950 . S
C349 C348 1.387 . S
C349 C352 1.387 . S
H350 C346 0.950 . S
H351 C348 0.950 . S
C352 C343 1.390 . S
C352 H345 0.950 . S
C352 C349 1.387 . S
C353 C354 1.387 . S
C353 H357 0.950 . S
C353 C362 1.390 . S
C354 C353 1.387 . S
C354 C356 1.387 . S
H355 C362 0.950 . S
C356 C354 1.387 . S
C356 C358 1.390 . S
C356 H360 0.950 . S
H357 C353 0.950 . S
C358 C356 1.390 . S
C358 C359 1.387 . S
C358 H361 0.950 . S
C359 C358 1.387 . S
C359 C362 1.387 . S
H360 C356 0.950 . S
H361 C358 0.950 . S
C362 C353 1.390 . S
C362 H355 0.950 . S
C362 C359 1.387 . S
C363 C364 1.387 . S
C363 H367 0.950 . S
C363 C372 1.390 . S
C364 C363 1.387 . S
C364 C366 1.387 . S
H365 C372 0.950 . S
C366 C364 1.387 . S
C366 C368 1.390 . S
C366 H370 0.950 . S
H367 C363 0.950 . S
C368 C366 1.390 . S
C368 C369 1.387 . S
C368 H371 0.950 . S
C369 C368 1.387 . S
C369 C372 1.387 . S
H370 C366 0.950 . S
H371 C368 0.950 . S
C372 C363 1.390 . S
C372 H365 0.950 . S
C372 C369 1.387 . S
C373 C374 1.387 . S
C373 H377 0.950 . S
C373 C382 1.390 . S
C374 C373 1.387 . S
C374 C376 1.387 . S
H375 C382 0.950 . S
C376 C374 1.387 . S
C376 C378 1.390 . S
C376 H380 0.950 . S
H377 C373 0.950 . S
C378 C376 1.390 . S
C378 C379 1.387 . S
C378 H381 0.950 . S
C379 C378 1.387 . S
C379 C382 1.387 . S
H380 C376 0.950 . S
H381 C378 0.950 . S
C382 C373 1.390 . S
C382 H375 0.950 . S
C382 C379 1.387 . S
C383 C384 1.387 . S
C383 H387 0.950 . S
C383 C392 1.390 . S
C384 C383 1.387 . S
C384 C386 1.387 . S
H385 C392 0.950 . S
C386 C384 1.387 . S
C386 C388 1.390 . S
C386 H390 0.950 . S
H387 C383 0.950 . S
C388 C386 1.390 . S
C388 C389 1.387 . S
C388 H391 0.950 . S
C389 C388 1.387 . S
C389 C392 1.387 . S
H390 C386 0.950 . S
H391 C388 0.950 . S
C392 C383 1.390 . S
C392 H385 0.950 . S
C392 C389 1.387 . S
C393 C394 1.387 . S
C393 H397 0.950 . S
C393 C402 1.390 . S
C394 C393 1.387 . S
C394 C396 1.387 . S
H395 C402 0.950 . S
C396 C394 1.387 . S
C396 C398 1.390 . S
C396 H400 0.950 . S
H397 C393 0.950 . S
C398 C396 1.390 . S
C398 C399 1.387 . S
C398 H401 0.950 . S
C399 C398 1.387 . S
C399 C402 1.387 . S
H400 C396 0.950 . S
H401 C398 0.950 . S
C402 C393 1.390 . S
C402 H395 0.950 . S
C402 C399 1.387 . S
C403 C404 1.387 . S
C403 H407 0.950 . S
C403 C412 1.390 . S
C404 C403 1.387 . S
C404 C406 1.387 . S
H405 C412 0.950 . S
C406 C404 1.387 . S
C406 C408 1.390 . S
C406 H410 0.950 . S
H407 C403 0.950 . S
C408 C406 1.390 . S
C408 C409 1.387 . S
C408 H411 0.950 . S
C409 C408 1.387 . S
C409 C412 1.387 . S
H410 C406 0.950 . S
H411 C408 0.950 . S
C412 C403 1.390 . S
C412 H405 0.950 . S
C412 C409 1.387 . S
C413 C414 1.387 . S
C413 H417 0.950 . S
C413 C422 1.390 . S
C414 C413 1.387 . S
C414 C416 1.387 . S
H415 C422 0.950 . S
C416 C414 1.387 . S
C416 C418 1.390 . S
C416 H420 0.950 . S
H417 C413 0.950 . S
C418 C416 1.390 . S
C418 C419 1.387 . S
C418 H421 0.950 . S
C419 C418 1.387 . S
C419 C422 1.387 . S
H420 C416 0.950 . S
H421 C418 0.950 . S
C422 C413 1.390 . S
C422 H415 0.950 . S
C422 C419 1.387 . S
C423 C424 1.387 . S
C423 H427 0.950 . S
C423 C432 1.390 . S
C424 C423 1.387 . S
C424 C426 1.387 . S
H425 C432 0.950 . S
C426 C424 1.387 . S
C426 C428 1.390 . S
C426 H430 0.950 . S
H427 C423 0.950 . S
C428 C426 1.390 . S
C428 C429 1.387 . S
C428 H431 0.950 . S
C429 C428 1.387 . S
C429 C432 1.387 . S
H430 C426 0.950 . S
H431 C428 0.950 . S
C432 C423 1.390 . S
C432 H425 0.950 . S
C432 C429 1.387 . S
C433 C434 1.387 . S
C433 H437 0.950 . S
C433 C442 1.390 . S
C434 C433 1.387 . S
C434 C436 1.387 . S
H435 C442 0.950 . S
C436 C434 1.387 . S
C436 C438 1.390 . S
C436 H440 0.950 . S
H437 C433 0.950 . S
C438 C436 1.390 . S
C438 C439 1.387 . S
C438 H441 0.950 . S
C439 C438 1.387 . S
C439 C442 1.387 . S
H440 C436 0.950 . S
H441 C438 0.950 . S
C442 C433 1.390 . S
C442 H435 0.950 . S
C442 C439 1.387 . S
C209 C128 1.477 . S
C204 C9 1.564 . S
C219 C164 1.955 . S
C214 C22 2.070 . S
C229 C129 1.345 . S
C224 C30 1.349 . S
C239 C159 1.238 . S
C234 C47 1.253 . S
C249 C126 1.231 . S
C244 C61 1.266 . S
C254 C69 1.325 . S
C259 C162 1.403 . S
C264 C82 1.172 . S
C269 C131 1.008 . S
C279 C161 1.614 . S
C274 C99 1.659 . S
C289 C165 1.455 . S
C284 C4 1.503 . S
C299 C130 1.677 . S
C294 C21 1.732 . S
C309 C158 1.863 . S
C304 C34 1.856 . S
C319 C127 0.870 . S
C314 C48 0.922 . S
C329 C160 1.361 . S
C324 C60 1.436 . S
C334 C74 1.529 . S
C339 C125 1.530 . S
C344 C86 1.548 . S
C349 C163 1.466 . S
C359 C132 1.314 . S
C354 C95 1.338 . S
C369 C194 1.731 . S
C364 C8 1.853 . S
C374 C56 1.373 . S
C379 C197 1.352 . S
C389 C196 1.623 . S
C384 C73 1.622 . S
C394 C87 2.177 . S
C399 C195 2.150 . S
C409 C198 1.747 . S
C404 C100 1.881 . S
C414 C35 1.993 . S
C419 C192 1.929 . S
C429 C191 1.374 . S
C424 C43 1.366 . S
C434 C17 1.938 . S
C439 C193 1.860 . S
