# Generated by pormake.
# Topology ptr, (4,4)-cn, num edge types: 1
# Building blocks:
#     Node 0, Type 0, BuildingBlock: QUQFOY_clean_sbu_1, # of connection points: 4
#     Node 1, Type 0, BuildingBlock: QUQFOY_clean_sbu_1, # of connection points: 4
#     Node 2, Type 0, BuildingBlock: QUQFOY_clean_sbu_1, # of connection points: 4
#     Node 3, Type 0, BuildingBlock: QUQFOY_clean_sbu_1, # of connection points: 4
#     Node 4, Type 0, BuildingBlock: QUQFOY_clean_sbu_1, # of connection points: 4
#     Node 5, Type 0, BuildingBlock: QUQFOY_clean_sbu_1, # of connection points: 4
#     Node 6, Type 0, BuildingBlock: QUQFOY_clean_sbu_1, # of connection points: 4
#     Node 7, Type 0, BuildingBlock: QUQFOY_clean_sbu_1, # of connection points: 4
#     Node 8, Type 0, BuildingBlock: QUQFOY_clean_sbu_1, # of connection points: 4
#     Node 9, Type 0, BuildingBlock: QUQFOY_clean_sbu_1, # of connection points: 4
#     Node 10, Type 0, BuildingBlock: QUQFOY_clean_sbu_1, # of connection points: 4
#     Node 11, Type 0, BuildingBlock: QUQFOY_clean_sbu_1, # of connection points: 4
#     Node 12, Type 0, BuildingBlock: QUQFOY_clean_sbu_1, # of connection points: 4
#     Node 13, Type 0, BuildingBlock: QUQFOY_clean_sbu_1, # of connection points: 4
#     Node 14, Type 0, BuildingBlock: QUQFOY_clean_sbu_1, # of connection points: 4
#     Node 15, Type 0, BuildingBlock: QUQFOY_clean_sbu_1, # of connection points: 4
#     Node 16, Type 0, BuildingBlock: QUQFOY_clean_sbu_1, # of connection points: 4
#     Node 17, Type 0, BuildingBlock: QUQFOY_clean_sbu_1, # of connection points: 4
#     Node 18, Type 1, BuildingBlock: NAWXER_clean_linker_0, # of connection points: 4
#     Node 19, Type 1, BuildingBlock: NAWXER_clean_linker_0, # of connection points: 4
#     Node 20, Type 1, BuildingBlock: NAWXER_clean_linker_0, # of connection points: 4
#     Node 21, Type 1, BuildingBlock: NAWXER_clean_linker_0, # of connection points: 4
#     Node 22, Type 1, BuildingBlock: NAWXER_clean_linker_0, # of connection points: 4
#     Node 23, Type 1, BuildingBlock: NAWXER_clean_linker_0, # of connection points: 4
#     Node 24, Type 1, BuildingBlock: NAWXER_clean_linker_0, # of connection points: 4
#     Node 25, Type 1, BuildingBlock: NAWXER_clean_linker_0, # of connection points: 4
#     Node 26, Type 1, BuildingBlock: NAWXER_clean_linker_0, # of connection points: 4
#     Node 27, Type 1, BuildingBlock: NAWXER_clean_linker_0, # of connection points: 4
#     Node 28, Type 1, BuildingBlock: NAWXER_clean_linker_0, # of connection points: 4
#     Node 29, Type 1, BuildingBlock: NAWXER_clean_linker_0, # of connection points: 4
#     Node 30, Type 1, BuildingBlock: NAWXER_clean_linker_0, # of connection points: 4
#     Node 31, Type 1, BuildingBlock: NAWXER_clean_linker_0, # of connection points: 4
#     Node 32, Type 1, BuildingBlock: NAWXER_clean_linker_0, # of connection points: 4
#     Node 33, Type 1, BuildingBlock: NAWXER_clean_linker_0, # of connection points: 4
#     Node 34, Type 1, BuildingBlock: NAWXER_clean_linker_0, # of connection points: 4
#     Node 35, Type 1, BuildingBlock: NAWXER_clean_linker_0, # of connection points: 4
#     Edge 36, Type (0, 1), BuildingBlock: XIVTED_clean_linker_0, # of connection points: 2
#     Edge 37, Type (0, 1), BuildingBlock: XIVTED_clean_linker_0, # of connection points: 2
#     Edge 38, Type (0, 1), BuildingBlock: XIVTED_clean_linker_0, # of connection points: 2
#     Edge 39, Type (0, 1), BuildingBlock: XIVTED_clean_linker_0, # of connection points: 2
#     Edge 40, Type (0, 1), BuildingBlock: XIVTED_clean_linker_0, # of connection points: 2
#     Edge 41, Type (0, 1), BuildingBlock: XIVTED_clean_linker_0, # of connection points: 2
#     Edge 42, Type (0, 1), BuildingBlock: XIVTED_clean_linker_0, # of connection points: 2
#     Edge 43, Type (0, 1), BuildingBlock: XIVTED_clean_linker_0, # of connection points: 2
#     Edge 44, Type (0, 1), BuildingBlock: XIVTED_clean_linker_0, # of connection points: 2
#     Edge 45, Type (0, 1), BuildingBlock: XIVTED_clean_linker_0, # of connection points: 2
#     Edge 46, Type (0, 1), BuildingBlock: XIVTED_clean_linker_0, # of connection points: 2
#     Edge 47, Type (0, 1), BuildingBlock: XIVTED_clean_linker_0, # of connection points: 2
#     Edge 48, Type (0, 1), BuildingBlock: XIVTED_clean_linker_0, # of connection points: 2
#     Edge 49, Type (0, 1), BuildingBlock: XIVTED_clean_linker_0, # of connection points: 2
#     Edge 50, Type (0, 1), BuildingBlock: XIVTED_clean_linker_0, # of connection points: 2
#     Edge 51, Type (0, 1), BuildingBlock: XIVTED_clean_linker_0, # of connection points: 2
#     Edge 52, Type (0, 1), BuildingBlock: XIVTED_clean_linker_0, # of connection points: 2
#     Edge 53, Type (0, 1), BuildingBlock: XIVTED_clean_linker_0, # of connection points: 2
#     Edge 54, Type (0, 1), BuildingBlock: XIVTED_clean_linker_0, # of connection points: 2
#     Edge 55, Type (0, 1), BuildingBlock: XIVTED_clean_linker_0, # of connection points: 2
#     Edge 56, Type (0, 1), BuildingBlock: XIVTED_clean_linker_0, # of connection points: 2
#     Edge 57, Type (0, 1), BuildingBlock: XIVTED_clean_linker_0, # of connection points: 2
#     Edge 58, Type (0, 1), BuildingBlock: XIVTED_clean_linker_0, # of connection points: 2
#     Edge 59, Type (0, 1), BuildingBlock: XIVTED_clean_linker_0, # of connection points: 2
#     Edge 60, Type (0, 1), BuildingBlock: XIVTED_clean_linker_0, # of connection points: 2
#     Edge 61, Type (0, 1), BuildingBlock: XIVTED_clean_linker_0, # of connection points: 2
#     Edge 62, Type (0, 1), BuildingBlock: XIVTED_clean_linker_0, # of connection points: 2
#     Edge 63, Type (0, 1), BuildingBlock: XIVTED_clean_linker_0, # of connection points: 2
#     Edge 64, Type (0, 1), BuildingBlock: XIVTED_clean_linker_0, # of connection points: 2
#     Edge 65, Type (0, 1), BuildingBlock: XIVTED_clean_linker_0, # of connection points: 2
#     Edge 66, Type (0, 1), BuildingBlock: XIVTED_clean_linker_0, # of connection points: 2
#     Edge 67, Type (0, 1), BuildingBlock: XIVTED_clean_linker_0, # of connection points: 2
#     Edge 68, Type (0, 1), BuildingBlock: XIVTED_clean_linker_0, # of connection points: 2
#     Edge 69, Type (0, 1), BuildingBlock: XIVTED_clean_linker_0, # of connection points: 2
#     Edge 70, Type (0, 1), BuildingBlock: XIVTED_clean_linker_0, # of connection points: 2
#     Edge 71, Type (0, 1), BuildingBlock: XIVTED_clean_linker_0, # of connection points: 2
#     Edge 72, Type (0, 1), BuildingBlock: XIVTED_clean_linker_0, # of connection points: 2
#     Edge 73, Type (0, 1), BuildingBlock: XIVTED_clean_linker_0, # of connection points: 2
#     Edge 74, Type (0, 1), BuildingBlock: XIVTED_clean_linker_0, # of connection points: 2
#     Edge 75, Type (0, 1), BuildingBlock: XIVTED_clean_linker_0, # of connection points: 2
#     Edge 76, Type (0, 1), BuildingBlock: XIVTED_clean_linker_0, # of connection points: 2
#     Edge 77, Type (0, 1), BuildingBlock: XIVTED_clean_linker_0, # of connection points: 2
#     Edge 78, Type (0, 1), BuildingBlock: XIVTED_clean_linker_0, # of connection points: 2
#     Edge 79, Type (0, 1), BuildingBlock: XIVTED_clean_linker_0, # of connection points: 2
#     Edge 80, Type (0, 1), BuildingBlock: XIVTED_clean_linker_0, # of connection points: 2
#     Edge 81, Type (0, 1), BuildingBlock: XIVTED_clean_linker_0, # of connection points: 2
#     Edge 82, Type (0, 1), BuildingBlock: XIVTED_clean_linker_0, # of connection points: 2
#     Edge 83, Type (0, 1), BuildingBlock: XIVTED_clean_linker_0, # of connection points: 2
#     Edge 84, Type (0, 1), BuildingBlock: XIVTED_clean_linker_0, # of connection points: 2
#     Edge 85, Type (0, 1), BuildingBlock: XIVTED_clean_linker_0, # of connection points: 2
#     Edge 86, Type (0, 1), BuildingBlock: XIVTED_clean_linker_0, # of connection points: 2
#     Edge 87, Type (0, 1), BuildingBlock: XIVTED_clean_linker_0, # of connection points: 2
#     Edge 88, Type (0, 1), BuildingBlock: XIVTED_clean_linker_0, # of connection points: 2
#     Edge 89, Type (0, 1), BuildingBlock: XIVTED_clean_linker_0, # of connection points: 2
#     Edge 90, Type (0, 1), BuildingBlock: XIVTED_clean_linker_0, # of connection points: 2
#     Edge 91, Type (0, 1), BuildingBlock: XIVTED_clean_linker_0, # of connection points: 2
#     Edge 92, Type (0, 1), BuildingBlock: XIVTED_clean_linker_0, # of connection points: 2
#     Edge 93, Type (0, 1), BuildingBlock: XIVTED_clean_linker_0, # of connection points: 2
#     Edge 94, Type (0, 1), BuildingBlock: XIVTED_clean_linker_0, # of connection points: 2
#     Edge 95, Type (0, 1), BuildingBlock: XIVTED_clean_linker_0, # of connection points: 2
#     Edge 96, Type (0, 1), BuildingBlock: XIVTED_clean_linker_0, # of connection points: 2
#     Edge 97, Type (0, 1), BuildingBlock: XIVTED_clean_linker_0, # of connection points: 2
#     Edge 98, Type (0, 1), BuildingBlock: XIVTED_clean_linker_0, # of connection points: 2
#     Edge 99, Type (0, 1), BuildingBlock: XIVTED_clean_linker_0, # of connection points: 2
#     Edge 100, Type (0, 1), BuildingBlock: XIVTED_clean_linker_0, # of connection points: 2
#     Edge 101, Type (0, 1), BuildingBlock: XIVTED_clean_linker_0, # of connection points: 2
#     Edge 102, Type (0, 1), BuildingBlock: XIVTED_clean_linker_0, # of connection points: 2
#     Edge 103, Type (0, 1), BuildingBlock: XIVTED_clean_linker_0, # of connection points: 2
#     Edge 104, Type (0, 1), BuildingBlock: XIVTED_clean_linker_0, # of connection points: 2
#     Edge 105, Type (0, 1), BuildingBlock: XIVTED_clean_linker_0, # of connection points: 2
#     Edge 106, Type (0, 1), BuildingBlock: XIVTED_clean_linker_0, # of connection points: 2
#     Edge 107, Type (0, 1), BuildingBlock: XIVTED_clean_linker_0, # of connection points: 2
# Relax obj value: 0.008
# Max RMSD: 0.056
# Mean RMSD: 0.039
data_MOF--net-ptr--node1-QUQFOY_clean_sbu_1--node2-NAWXER_clean_linker_0--edge1-XIVTED_clean_linker_0
_symmetry_space_group_name_H-M    P1
_symmetry_Int_Tables_number       1
_symmetry_cell_setting            triclinic
loop_
_symmetry_equiv_pos_as_xyz
'x, y, z'
_cell_length_a     89.640705
_cell_length_b     89.625339
_cell_length_c     65.733488
_cell_angle_alpha  90.11941
_cell_angle_beta   89.863318
_cell_angle_gamma 119.92623
loop_
_atom_site_label
_atom_site_type_symbol
_atom_site_fract_x
_atom_site_fract_y
_atom_site_fract_z
_atom_type_partial_charge
O0 O 0.00927 0.37626 0.04456 0.0
Cd1 Cd 0.02075 0.37075 0.02076 0.0
Cd2 Cd 0.98746 0.35301 0.00723 0.0
O3 O 0.98234 0.36169 0.03414 0.0
O4 O 0.04385 0.37753 0.03198 0.0
O5 O 0.02496 0.35071 0.02354 0.0
C6 C 0.03971 0.36155 0.03127 0.0
C7 C 0.97051 0.32423 0.99786 0.0
C8 C 0.99344 0.37129 0.04721 0.0
C9 C 0.01328 0.38182 0.98075 0.0
O10 O 0.99773 0.37011 0.98341 0.0
O11 O 0.02475 0.38424 0.99379 0.0
O12 O 0.96457 0.33468 0.99755 0.0
O13 O 0.98612 0.33 0.00404 0.0
O14 O 0.6222 0.63342 0.04026 0.0
Cd15 Cd 0.63061 0.64971 0.01547 0.0
Cd16 Cd 0.64776 0.63286 0.00822 0.0
O17 O 0.63923 0.62241 0.03679 0.0
O18 O 0.62497 0.66791 0.02262 0.0
O19 O 0.65168 0.67305 0.01917 0.0
C20 C 0.64127 0.67861 0.02372 0.0
C21 C 0.67651 0.64431 0.9987 0.0
C22 C 0.62786 0.62384 0.04681 0.0
C23 C 0.62047 0.62811 0.97804 0.0
O24 O 0.63049 0.62297 0.9845 0.0
O25 O 0.61926 0.63984 0.98755 0.0
O26 O 0.66633 0.62794 1.00051 0.0
O27 O 0.67051 0.65437 1.00316 0.0
O28 O 0.37956 0.01189 0.98956 0.0
Cd29 Cd 0.3695 0.01764 0.01465 0.0
Cd30 Cd 0.35294 0.98366 0.01917 0.0
O31 O 0.36245 0.98375 0.99044 0.0
O32 O 0.37309 0.04115 0.0099 0.0
O33 O 0.34735 0.01769 0.01038 0.0
C34 C 0.35665 0.03412 0.00771 0.0
C35 C 0.32388 0.96627 0.02715 0.0
C36 C 0.37419 0.99711 0.98167 0.0
C37 C 0.37893 0.00461 0.0512 0.0
O38 O 0.36956 0.98979 0.04344 0.0
O39 O 0.37986 0.01782 0.04282 0.0
O40 O 0.33388 0.95989 0.02475 0.0
O41 O 0.33028 0.98258 0.02415 0.0
O42 O 0.99449 0.62704 0.98664 0.0
Cd43 Cd 0.987 0.6363 0.01101 0.0
Cd44 Cd 0.02092 0.65284 0.01777 0.0
O45 O 0.02258 0.64375 0.98938 0.0
O46 O 0.96344 0.63114 0.00354 0.0
O47 O 0.98536 0.65768 0.00652 0.0
C48 C 0.96939 0.64748 1.00193 0.0
C49 C 0.03881 0.68138 0.02745 0.0
C50 C 0.00958 0.6323 0.9798 0.0
C51 C 0.9979 0.62638 0.04873 0.0
O52 O 0.01304 0.63592 0.04192 0.0
O53 O 0.98506 0.6253 0.03924 0.0
O54 O 0.04447 0.67073 0.02598 0.0
O55 O 0.02306 0.67609 0.02221 0.0
O56 O 0.37721 0.37425 0.98179 0.0
Cd57 Cd 0.36959 0.35751 0.00617 0.0
Cd58 Cd 0.35087 0.37262 0.01474 0.0
O59 O 0.35993 0.38476 0.98709 0.0
O60 O 0.37668 0.34047 0.99839 0.0
O61 O 0.34946 0.33362 1.00206 0.0
C62 C 0.36058 0.32904 0.99725 0.0
C63 C 0.32168 0.35775 0.02269 0.0
C64 C 0.37134 0.38393 0.97642 0.0
C65 C 0.3779 0.37767 0.04509 0.0
O66 O 0.36717 0.38212 0.03931 0.0
O67 O 0.38032 0.36715 0.03449 0.0
O68 O 0.33014 0.37433 0.02167 0.0
O69 O 0.32967 0.34949 0.01835 0.0
O70 O 0.62274 0.98739 0.04017 0.0
Cd71 Cd 0.63354 0.98145 0.01595 0.0
Cd72 Cd 0.6513 0.01555 0.01164 0.0
O73 O 0.64113 0.0153 0.04008 0.0
O74 O 0.63058 0.95818 0.02116 0.0
O75 O 0.6559 0.9822 0.02155 0.0
C76 C 0.64699 0.96574 0.02414 0.0
C77 C 0.6805 0.03272 0.00409 0.0
C78 C 0.62855 0.00217 0.04823 0.0
C79 C 0.62593 0.99523 0.97873 0.0
O80 O 0.6353 0.00991 0.98684 0.0
O81 O 0.62435 0.98175 0.98716 0.0
O82 O 0.67078 0.03937 0.00689 0.0
O83 O 0.6738 0.01632 0.00655 0.0
O84 O 0.67363 0.7097 0.37543 0.0
Cd85 Cd 0.68161 0.70108 0.3508 0.0
Cd86 Cd 0.6477 0.68287 0.3433 0.0
O87 O 0.64572 0.69245 0.37116 0.0
O88 O 0.70536 0.70593 0.3572 0.0
O89 O 0.68291 0.67957 0.35518 0.0
C90 C 0.69909 0.68953 0.35891 0.0
C91 C 0.63214 0.6536 0.33568 0.0
C92 C 0.65821 0.70397 0.38136 0.0
C93 C 0.66939 0.70948 0.31233 0.0
O94 O 0.65428 0.69906 0.31863 0.0
O95 O 0.68242 0.7116 0.3224 0.0
O96 O 0.62466 0.66268 0.33718 0.0
O97 O 0.64845 0.66102 0.3393 0.0
O98 O 0.28989 0.96875 0.37709 0.0
Cd99 Cd 0.30016 0.9852 0.35259 0.0
Cd100 Cd 0.31652 0.96749 0.34647 0.0
O101 O 0.30671 0.95739 0.37488 0.0
O102 O 0.29772 0.00567 0.35848 0.0
O103 O 0.3229 0.00661 0.35728 0.0
C104 C 0.31422 0.01436 0.36053 0.0
C105 C 0.34507 0.97655 0.33789 0.0
C106 C 0.29511 0.95896 0.38417 0.0
C107 C 0.29086 0.96431 0.31475 0.0
O108 O 0.30011 0.9585 0.32189 0.0
O109 O 0.28974 0.97614 0.3241 0.0
O110 O 0.33385 0.96048 0.34004 0.0
O111 O 0.34028 0.98769 0.34167 0.0
O112 O 0.04562 0.34447 0.31778 0.0
Cd113 Cd 0.03633 0.35212 0.34196 0.0
Cd114 Cd 0.01887 0.31779 0.34811 0.0
O115 O 0.02846 0.31641 0.31992 0.0
O116 O 0.04237 0.37585 0.33394 0.0
O117 O 0.01547 0.35468 0.33749 0.0
C118 C 0.02612 0.37041 0.33235 0.0
C119 C 0.99006 0.29952 0.35669 0.0
C120 C 0.04027 0.32944 0.31073 0.0
C121 C 0.04521 0.3402 0.37966 0.0
O122 O 0.03539 0.32519 0.37262 0.0
O123 O 0.04685 0.35335 0.37033 0.0
O124 O 1.00075 0.29392 0.35501 0.0
O125 O 0.99556 0.31552 0.35251 0.0
O126 O 0.66744 0.96248 0.31854 0.0
Cd127 Cd 0.65907 0.96989 0.34369 0.0
Cd128 Cd 0.69309 0.98592 0.35232 0.0
O129 O 0.69542 0.97725 0.32384 0.0
O130 O 0.63483 0.9624 0.33635 0.0
O131 O 0.65458 0.98973 0.34043 0.0
C132 C 0.63902 0.97837 0.33557 0.0
C133 C 0.70802 0.01499 0.3608 0.0
C134 C 0.68269 0.96715 0.31283 0.0
C135 C 0.66954 0.95846 0.3814 0.0
O136 O 0.68507 0.96876 0.37633 0.0
O137 O 0.6572 0.95746 0.37084 0.0
O138 O 0.71574 0.00611 0.35961 0.0
O139 O 0.6918 0.00744 0.35652 0.0
O140 O 0.04804 0.70277 0.31936 0.0
Cd141 Cd 0.0393 0.68585 0.34353 0.0
Cd142 Cd 0.02084 0.70164 0.35013 0.0
O143 O 0.02986 0.71247 0.32183 0.0
O144 O 0.0452 0.66807 0.33531 0.0
O145 O 0.01836 0.66252 0.33917 0.0
C146 C 0.02892 0.65733 0.33387 0.0
C147 C 0.99221 0.69143 0.35934 0.0
C148 C 0.04195 0.71186 0.31245 0.0
C149 C 0.04775 0.70645 0.38135 0.0
O150 O 0.03753 0.71117 0.37442 0.0
O151 O 0.04983 0.69523 0.37191 0.0
O152 O 0.00297 0.70765 0.35744 0.0
O153 O 0.9975 0.68078 0.35498 0.0
O154 O 0.29128 0.31958 0.37427 0.0
Cd155 Cd 0.30205 0.31383 0.34986 0.0
Cd156 Cd 0.31815 0.34795 0.34436 0.0
O157 O 0.30779 0.34779 0.37263 0.0
O158 O 0.29982 0.29098 0.35554 0.0
O159 O 0.32485 0.31534 0.3549 0.0
C160 C 0.31629 0.29891 0.35795 0.0
C161 C 0.34691 0.3674 0.33667 0.0
C162 C 0.29617 0.33445 0.38159 0.0
C163 C 0.29292 0.3256 0.3121 0.0
O164 O 0.30205 0.34063 0.31944 0.0
O165 O 0.29185 0.31265 0.32131 0.0
O166 O 0.33571 0.37233 0.3386 0.0
O167 O 0.34195 0.3514 0.34009 0.0
O168 O 0.341 0.04347 0.71348 0.0
Cd169 Cd 0.34775 0.03388 0.68863 0.0
Cd170 Cd 0.31385 0.01631 0.68433 0.0
O171 O 0.3132 0.02481 0.71334 0.0
O172 O 0.37213 0.0404 0.6939 0.0
O173 O 0.35091 0.01338 0.69311 0.0
C174 C 0.36701 0.02426 0.69609 0.0
C175 C 0.29881 0.98738 0.67516 0.0
C176 C 0.32623 0.03729 0.72171 0.0
C177 C 0.33376 0.04277 0.65259 0.0
O178 O 0.31917 0.03355 0.66095 0.0
O179 O 0.34716 0.0435 0.66017 0.0
O180 O 0.29091 0.99586 0.6786 0.0
O181 O 0.31529 0.99518 0.67775 0.0
O182 O 0.95831 0.29547 0.71271 0.0
Cd183 Cd 0.96387 0.31345 0.69015 0.0
Cd184 Cd 0.98083 0.29687 0.6747 0.0
O185 O 0.97152 0.28205 0.70083 0.0
O186 O 0.95752 0.32952 0.7033 0.0
O187 O 0.98412 0.33746 0.69366 0.0
C188 C 0.97351 0.34126 0.70239 0.0
C189 C 0.00886 0.30619 0.66345 0.0
C190 C 0.96244 0.28388 0.71443 0.0
C191 C 0.95259 0.29706 0.64922 0.0
O192 O 0.96396 0.29267 0.65123 0.0
O193 O 0.95018 0.30551 0.66315 0.0
O194 O 0.99687 0.29035 0.66187 0.0
O195 O 0.00519 0.31679 0.67245 0.0
O196 O 0.71575 0.6782 0.65356 0.0
Cd197 Cd 0.70588 0.68535 0.67764 0.0
Cd198 Cd 0.68932 0.65162 0.68485 0.0
O199 O 0.69848 0.65019 0.65644 0.0
O200 O 0.70968 0.70861 0.67081 0.0
O201 O 0.68379 0.68541 0.67262 0.0
C202 C 0.69323 0.70166 0.6688 0.0
C203 C 0.66061 0.63344 0.69385 0.0
C204 C 0.71022 0.66301 0.64687 0.0
C205 C 0.71567 0.67452 0.71563 0.0
O206 O 0.70626 0.65932 0.70895 0.0
O207 O 0.71651 0.68723 0.70607 0.0
O208 O 0.67129 0.62783 0.69213 0.0
O209 O 0.66608 0.64942 0.68956 0.0
O210 O 0.32149 0.28726 0.65577 0.0
Cd211 Cd 0.31304 0.29509 0.68051 0.0
Cd212 Cd 0.34721 0.31184 0.68935 0.0
O213 O 0.34944 0.30275 0.66113 0.0
O214 O 0.28938 0.28947 0.67276 0.0
O215 O 0.31063 0.31616 0.67724 0.0
C216 C 0.29483 0.30576 0.67214 0.0
C217 C 0.36561 0.34048 0.69846 0.0
C218 C 0.33685 0.29222 0.65021 0.0
C219 C 0.3231 0.28445 0.71874 0.0
O220 O 0.33853 0.29498 0.7136 0.0
O221 O 0.31063 0.2828 0.70793 0.0
O222 O 0.3709 0.3295 0.69746 0.0
O223 O 0.34985 0.33534 0.69344 0.0
O224 O 0.71564 0.03897 0.65598 0.0
Cd225 Cd 0.70525 0.02078 0.67867 0.0
Cd226 Cd 0.68744 0.03697 0.68539 0.0
O227 O 0.6968 0.04792 0.65718 0.0
O228 O 0.71203 0.00359 0.67079 0.0
O229 O 0.68492 0.99756 0.67198 0.0
C230 C 0.69597 0.9927 0.66789 0.0
C231 C 0.65858 0.0265 0.69369 0.0
C232 C 0.7096 0.04799 0.64874 0.0
C233 C 0.71337 0.04044 0.71708 0.0
O234 O 0.70406 0.04621 0.70997 0.0
O235 O 0.71459 0.02871 0.70764 0.0
O236 O 0.66933 0.04277 0.69225 0.0
O237 O 0.66409 0.01597 0.68962 0.0
O238 O 0.95329 0.65813 0.70839 0.0
Cd239 Cd 0.96096 0.64803 0.68516 0.0
Cd240 Cd 0.97774 0.68215 0.67375 0.0
O241 O 0.96847 0.68581 0.70121 0.0
O242 O 0.95507 0.62503 0.69604 0.0
O243 O 0.98179 0.64525 0.68924 0.0
C244 C 0.97128 0.63011 0.69631 0.0
C245 C 0.00599 0.70107 0.6634 0.0
C246 C 0.95796 0.67368 0.71271 0.0
C247 C 0.95012 0.65575 0.64567 0.0
O248 O 0.96072 0.67142 0.64977 0.0
O249 O 0.94839 0.64385 0.65762 0.0
O250 O 0.99429 0.70542 0.6631 0.0
O251 O 0.00189 0.6861 0.6706 0.0
C252 C 0.21763 0.32558 0.1199 0.0
C253 C 0.21385 0.31607 0.1018 0.0
C254 C 0.20437 0.32404 0.1325 0.0
C255 C 0.18706 0.3124 0.1277 0.0
C256 C 0.19662 0.30476 0.09664 0.0
C257 C 0.18334 0.30286 0.10955 0.0
C258 C 0.17277 0.31135 0.14028 0.0
C259 C 0.20499 0.30032 0.18466 0.0
C260 C 0.21261 0.31305 0.19981 0.0
C261 C 0.1921 0.29974 0.17206 0.0
C262 C 0.18664 0.31186 0.1745 0.0
C263 C 0.20694 0.325 0.20226 0.0
C264 C 0.19406 0.32435 0.18984 0.0
C265 C 0.17286 0.31156 0.16184 0.0
C266 C 0.10439 0.30511 0.18384 0.0
C267 C 0.11001 0.31715 0.19984 0.0
C268 C 0.11632 0.30389 0.17119 0.0
C269 C 0.13408 0.31465 0.17437 0.0
C270 C 0.12778 0.32789 0.20291 0.0
C271 C 0.13966 0.32658 0.1904 0.0
C272 C 0.147 0.31304 0.16192 0.0
C273 C 0.12512 0.33621 0.11942 0.0
C274 C 0.11284 0.32397 0.10604 0.0
C275 C 0.13597 0.33243 0.13069 0.0
C276 C 0.13504 0.31643 0.12865 0.0
C277 C 0.11205 0.30792 0.10395 0.0
C278 C 0.12321 0.30427 0.11501 0.0
C279 C 0.14686 0.31282 0.14048 0.0
H280 H 0.23084 0.33469 0.1239 0.0
H281 H 0.20773 0.33236 0.14567 0.0
H282 H 0.19345 0.29743 0.08262 0.0
H283 H 0.17013 0.29408 0.10523 0.0
H284 H 0.20909 0.29092 0.18245 0.0
H285 H 0.18635 0.2898 0.16054 0.0
H286 H 0.21228 0.33475 0.21404 0.0
H287 H 0.18995 0.33374 0.19213 0.0
H288 H 0.09077 0.29668 0.1811 0.0
H289 H 0.11168 0.29431 0.15921 0.0
H290 H 0.13253 0.33709 0.2153 0.0
H291 H 0.15328 0.33491 0.19326 0.0
H292 H 0.12659 0.3489 0.12106 0.0
H293 H 0.14528 0.34211 0.14086 0.0
H294 H 0.1027 0.29808 0.094 0.0
H295 H 0.12239 0.29187 0.11319 0.0
N296 N 0.15968 0.31191 0.13047 0.0
N297 N 0.16 0.31246 0.17171 0.0
C298 C 0.67586 0.88996 0.12035 0.0
C299 C 0.6847 0.8952 0.10177 0.0
C300 C 0.6774 0.87811 0.13265 0.0
C301 C 0.68841 0.87181 0.12705 0.0
C302 C 0.69534 0.88862 0.09581 0.0
C303 C 0.69725 0.8771 0.1084 0.0
C304 C 0.68943 0.85845 0.1394 0.0
C305 C 0.70406 0.90256 0.18391 0.0
C306 C 0.69167 0.8983 0.19931 0.0
C307 C 0.70346 0.88972 0.17113 0.0
C308 C 0.69054 0.87246 0.17373 0.0
C309 C 0.67887 0.881 0.20188 0.0
C310 C 0.67841 0.86823 0.18934 0.0
C311 C 0.68972 0.85848 0.16094 0.0
C312 C 0.69474 0.79586 0.18313 0.0
C313 C 0.68272 0.78978 0.19916 0.0
C314 C 0.69612 0.80894 0.17027 0.0
C315 C 0.68554 0.81619 0.17331 0.0
C316 C 0.67213 0.79705 0.20205 0.0
C317 C 0.67362 0.81017 0.18935 0.0
C318 C 0.68731 0.83072 0.16079 0.0
C319 C 0.66569 0.78534 0.11837 0.0
C320 C 0.67623 0.78713 0.1016 0.0
C321 C 0.66949 0.79939 0.13087 0.0
C322 C 0.684 0.81553 0.12701 0.0
C323 C 0.69084 0.80326 0.09783 0.0
C324 C 0.69459 0.81738 0.11033 0.0
C325 C 0.68728 0.83072 0.13931 0.0
H326 H 0.66726 0.89456 0.125 0.0
H327 H 0.66955 0.87356 0.14622 0.0
H328 H 0.70216 0.8924 0.08144 0.0
H329 H 0.70552 0.87219 0.10346 0.0
H330 H 0.71407 0.91579 0.18164 0.0
H331 H 0.71313 0.89323 0.15936 0.0
H332 H 0.66933 0.87729 0.21383 0.0
H333 H 0.66842 0.85499 0.19173 0.0
H334 H 0.70306 0.79049 0.18054 0.0
H335 H 0.70564 0.81361 0.15822 0.0
H336 H 0.66295 0.79286 0.21445 0.0
H337 H 0.66542 0.81566 0.19211 0.0
H338 H 0.65442 0.77305 0.12177 0.0
H339 H 0.66083 0.79772 0.14329 0.0
H340 H 0.6991 0.80509 0.08491 0.0
H341 H 0.70571 0.82978 0.1069 0.0
N342 N 0.68841 0.84461 0.12948 0.0
N343 N 0.68852 0.84458 0.17068 0.0
C344 C 0.12369 0.79054 0.11809 0.0
C345 C 0.11034 0.79002 0.1063 0.0
C346 C 0.13457 0.80511 0.12944 0.0
C347 C 0.13258 0.81963 0.12905 0.0
C348 C 0.10847 0.80474 0.10587 0.0
C349 C 0.11963 0.81949 0.11701 0.0
C350 C 0.14446 0.83493 0.14096 0.0
C351 C 0.1026 0.79941 0.18463 0.0
C352 C 0.10862 0.79263 0.19974 0.0
C353 C 0.11422 0.81288 0.17213 0.0
C354 C 0.13204 0.81983 0.17464 0.0
C355 C 0.12645 0.79959 0.20209 0.0
C356 C 0.13802 0.81309 0.18977 0.0
C357 C 0.14471 0.8346 0.1624 0.0
C358 C 0.20499 0.90413 0.18498 0.0
C359 C 0.21166 0.89849 0.20064 0.0
C360 C 0.19195 0.89218 0.17224 0.0
C361 C 0.18534 0.87444 0.17509 0.0
C362 C 0.205 0.88074 0.20336 0.0
C363 C 0.19194 0.86887 0.19081 0.0
C364 C 0.17108 0.86139 0.16252 0.0
C365 C 0.21623 0.88562 0.12002 0.0
C366 C 0.21437 0.89439 0.1034 0.0
C367 C 0.20224 0.87541 0.13257 0.0
C368 C 0.1861 0.87385 0.12891 0.0
C369 C 0.19828 0.89305 0.09988 0.0
C370 C 0.18419 0.88269 0.11243 0.0
C371 C 0.17097 0.86163 0.14102 0.0
H372 H 0.12597 0.77976 0.11839 0.0
H373 H 0.1447 0.80511 0.13841 0.0
H374 H 0.09827 0.80482 0.09717 0.0
H375 H 0.11799 0.83067 0.11651 0.0
H376 H 0.08892 0.79429 0.18248 0.0
H377 H 0.10931 0.81809 0.16084 0.0
H378 H 0.13151 0.79486 0.2138 0.0
H379 H 0.1517 0.8183 0.19207 0.0
H380 H 0.20988 0.91774 0.18255 0.0
H381 H 0.18685 0.89679 0.16043 0.0
H382 H 0.20965 0.87597 0.21549 0.0
H383 H 0.18699 0.85525 0.19338 0.0
H384 H 0.22849 0.8865 0.1232 0.0
H385 H 0.20394 0.86832 0.14481 0.0
H386 H 0.19645 0.89955 0.08708 0.0
H387 H 0.17178 0.88144 0.10914 0.0
N388 N 0.1576 0.8484 0.13104 0.0
N389 N 0.15799 0.84784 0.1723 0.0
C390 C 0.32381 0.1111 0.85152 0.0
C391 C 0.31122 0.10271 0.83643 0.0
C392 C 0.32304 0.12301 0.86459 0.0
C393 C 0.30947 0.12655 0.8632 0.0
C394 C 0.29747 0.10602 0.83529 0.0
C395 C 0.29666 0.11788 0.84847 0.0
C396 C 0.30977 0.14076 0.87518 0.0
C397 C 0.30585 0.10243 0.9223 0.0
C398 C 0.32088 0.10831 0.93406 0.0
C399 C 0.30362 0.11379 0.90978 0.0
C400 C 0.31632 0.13124 0.90886 0.0
C401 C 0.33353 0.12585 0.93302 0.0
C402 C 0.33118 0.13719 0.92075 0.0
C403 C 0.31412 0.14355 0.89603 0.0
C404 C 0.31169 0.2087 0.91474 0.0
C405 C 0.32627 0.21672 0.9274 0.0
C406 C 0.30784 0.19367 0.90403 0.0
C407 C 0.31862 0.18651 0.90554 0.0
C408 C 0.33675 0.20923 0.92925 0.0
C409 C 0.33296 0.19432 0.91848 0.0
C410 C 0.3149 0.17056 0.8945 0.0
C411 C 0.32421 0.20837 0.8437 0.0
C412 C 0.30925 0.20429 0.83251 0.0
C413 C 0.32433 0.19666 0.8576 0.0
C414 C 0.30956 0.18056 0.86053 0.0
C415 C 0.29437 0.18822 0.83587 0.0
C416 C 0.2946 0.17641 0.84954 0.0
C417 C 0.31013 0.16757 0.87378 0.0
H418 H 0.3345 0.10877 0.85296 0.0
H419 H 0.33349 0.12993 0.87523 0.0
H420 H 0.28769 0.10001 0.82367 0.0
H421 H 0.28622 0.1206 0.84684 0.0
H422 H 0.29568 0.08912 0.92293 0.0
H423 H 0.29189 0.10898 0.90101 0.0
H424 H 0.34545 0.13084 0.94143 0.0
H425 H 0.34115 0.15061 0.92026 0.0
H426 H 0.30335 0.21412 0.91291 0.0
H427 H 0.29637 0.18763 0.89472 0.0
H428 H 0.34786 0.21481 0.93919 0.0
H429 H 0.34136 0.18894 0.92016 0.0
H430 H 0.33605 0.22039 0.84129 0.0
H431 H 0.33613 0.19997 0.86563 0.0
H432 H 0.28251 0.18468 0.82788 0.0
H433 H 0.2831 0.16399 0.85154 0.0
N434 N 0.30776 0.15281 0.86495 0.0
N435 N 0.31666 0.15838 0.90478 0.0
C436 C 0.901 0.20385 0.91425 0.0
C437 C 0.89536 0.21375 0.92503 0.0
C438 C 0.88944 0.18967 0.90261 0.0
C439 C 0.87201 0.18503 0.90165 0.0
C440 C 0.8779 0.20913 0.92367 0.0
C441 C 0.86635 0.19482 0.91233 0.0
C442 C 0.85936 0.16957 0.89042 0.0
C443 C 0.89021 0.20797 0.84142 0.0
C444 C 0.89968 0.20302 0.82873 0.0
C445 C 0.87816 0.19635 0.85523 0.0
C446 C 0.87526 0.17949 0.85669 0.0
C447 C 0.89691 0.18616 0.8305 0.0
C448 C 0.8847 0.17449 0.84419 0.0
C449 C 0.86123 0.16665 0.86969 0.0
C450 C 0.79041 0.11198 0.84705 0.0
C451 C 0.7943 0.10343 0.83179 0.0
C452 C 0.80321 0.12358 0.86014 0.0
C453 C 0.82015 0.12662 0.85863 0.0
C454 C 0.8112 0.10626 0.8305 0.0
C455 C 0.82399 0.11779 0.84373 0.0
C456 C 0.83421 0.14045 0.87075 0.0
C457 C 0.79913 0.10217 0.91752 0.0
C458 C 0.78999 0.10816 0.92923 0.0
C459 C 0.81289 0.11346 0.90514 0.0
C460 C 0.81789 0.13099 0.90435 0.0
C461 C 0.79513 0.12578 0.92832 0.0
C462 C 0.80904 0.13707 0.91622 0.0
C463 C 0.8326 0.14318 0.89164 0.0
H464 H 0.91426 0.20682 0.91511 0.0
H465 H 0.89402 0.18209 0.89473 0.0
H466 H 0.87309 0.21662 0.93125 0.0
H467 H 0.85295 0.19149 0.91175 0.0
H468 H 0.89161 0.22065 0.84022 0.0
H469 H 0.87065 0.20038 0.86423 0.0
H470 H 0.90408 0.18191 0.82121 0.0
H471 H 0.88255 0.16148 0.84494 0.0
H472 H 0.77753 0.11002 0.84862 0.0
H473 H 0.79994 0.13066 0.87091 0.0
H474 H 0.81473 0.10011 0.81874 0.0
H475 H 0.837 0.12012 0.84201 0.0
H476 H 0.79584 0.0888 0.91806 0.0
H477 H 0.81977 0.10853 0.89639 0.0
H478 H 0.78826 0.1309 0.9367 0.0
H479 H 0.81268 0.15056 0.91582 0.0
N480 N 0.84515 0.15771 0.90058 0.0
N481 N 0.84857 0.15221 0.86067 0.0
C482 C 0.79631 0.69721 0.91415 0.0
C483 C 0.78929 0.68312 0.92762 0.0
C484 C 0.81123 0.70137 0.90297 0.0
C485 C 0.81924 0.69137 0.90485 0.0
C486 C 0.79785 0.67369 0.9301 0.0
C487 C 0.8126 0.67776 0.91887 0.0
C488 C 0.83456 0.69476 0.89259 0.0
C489 C 0.79273 0.68143 0.84614 0.0
C490 C 0.79657 0.6939 0.83098 0.0
C491 C 0.80542 0.68298 0.85966 0.0
C492 C 0.82214 0.69725 0.85869 0.0
C493 C 0.81328 0.70827 0.83016 0.0
C494 C 0.82594 0.70987 0.84382 0.0
C495 C 0.83612 0.69805 0.87144 0.0
C496 C 0.89063 0.68297 0.84507 0.0
C497 C 0.89836 0.69518 0.82941 0.0
C498 C 0.87958 0.68426 0.85908 0.0
C499 C 0.87637 0.69807 0.85817 0.0
C500 C 0.89532 0.70913 0.8287 0.0
C501 C 0.8844 0.71051 0.84288 0.0
C502 C 0.86301 0.6984 0.87121 0.0
C503 C 0.90236 0.69829 0.914 0.0
C504 C 0.89545 0.68421 0.92748 0.0
C505 C 0.89147 0.70214 0.90267 0.0
C506 C 0.87349 0.69185 0.90446 0.0
C507 C 0.87748 0.67444 0.92979 0.0
C508 C 0.86668 0.6782 0.91843 0.0
C509 C 0.86141 0.69504 0.89237 0.0
H510 H 0.79008 0.70476 0.91188 0.0
H511 H 0.81637 0.71228 0.89274 0.0
H512 H 0.7931 0.66305 0.94071 0.0
H513 H 0.81863 0.66996 0.92086 0.0
H514 H 0.77998 0.67027 0.84735 0.0
H515 H 0.80226 0.67273 0.8705 0.0
H516 H 0.81679 0.71797 0.81849 0.0
H517 H 0.83883 0.72082 0.84251 0.0
H518 H 0.8928 0.67216 0.84628 0.0
H519 H 0.8731 0.6741 0.87019 0.0
H520 H 0.90079 0.71863 0.81669 0.0
H521 H 0.88186 0.72109 0.84159 0.0
H522 H 0.91614 0.7061 0.91188 0.0
H523 H 0.8971 0.71307 0.89246 0.0
H524 H 0.8717 0.6638 0.94041 0.0
H525 H 0.85288 0.67017 0.92036 0.0
N526 N 0.84726 0.69339 0.90209 0.0
N527 N 0.85036 0.69991 0.86171 0.0
C528 C 0.76895 0.6394 0.44291 0.0
C529 C 0.77483 0.65468 0.4316 0.0
C530 C 0.78033 0.63681 0.45494 0.0
C531 C 0.79783 0.64936 0.45578 0.0
C532 C 0.79242 0.6672 0.4326 0.0
C533 C 0.8038 0.66446 0.44433 0.0
C534 C 0.81015 0.64679 0.46813 0.0
C535 C 0.77906 0.65704 0.51404 0.0
C536 C 0.77101 0.64461 0.52939 0.0
C537 C 0.79046 0.65599 0.5004 0.0
C538 C 0.79378 0.64226 0.50143 0.0
C539 C 0.77405 0.63066 0.53013 0.0
C540 C 0.78537 0.62955 0.51634 0.0
C541 C 0.80765 0.64236 0.48897 0.0
C542 C 0.87559 0.65631 0.51866 0.0
C543 C 0.87142 0.6415 0.53022 0.0
C544 C 0.86378 0.65643 0.50491 0.0
C545 C 0.8475 0.64179 0.50246 0.0
C546 C 0.85517 0.62674 0.52734 0.0
C547 C 0.84327 0.62697 0.5138 0.0
C548 C 0.83435 0.64245 0.48955 0.0
C549 C 0.87481 0.64406 0.44725 0.0
C550 C 0.8825 0.65857 0.43444 0.0
C551 C 0.86002 0.64022 0.45847 0.0
C552 C 0.85277 0.65095 0.45731 0.0
C553 C 0.8749 0.66898 0.43294 0.0
C554 C 0.86024 0.66521 0.44423 0.0
C555 C 0.83704 0.64726 0.46882 0.0
H556 H 0.7556 0.62931 0.4423 0.0
H557 H 0.7755 0.62491 0.46339 0.0
H558 H 0.79746 0.6793 0.42457 0.0
H559 H 0.81725 0.67433 0.4448 0.0
H560 H 0.7769 0.66787 0.51288 0.0
H561 H 0.79722 0.66638 0.48965 0.0
H562 H 0.76829 0.62099 0.54191 0.0
H563 H 0.78794 0.61899 0.51769 0.0
H564 H 0.88776 0.66807 0.52069 0.0
H565 H 0.86716 0.66816 0.49666 0.0
H566 H 0.85154 0.61499 0.53564 0.0
H567 H 0.83072 0.61557 0.51222 0.0
H568 H 0.88033 0.63578 0.4488 0.0
H569 H 0.85421 0.6288 0.46789 0.0
H570 H 0.8802 0.68001 0.4229 0.0
H571 H 0.8548 0.67357 0.44281 0.0
N572 N 0.82479 0.6492 0.45897 0.0
N573 N 0.81977 0.64018 0.49877 0.0
C574 C 0.3399 0.22034 0.45329 0.0
C575 C 0.35052 0.22644 0.43607 0.0
C576 C 0.34055 0.20824 0.46606 0.0
C577 C 0.35236 0.20254 0.46235 0.0
C578 C 0.36199 0.22046 0.43193 0.0
C579 C 0.36298 0.20868 0.44503 0.0
C580 C 0.35268 0.18909 0.47526 0.0
C581 C 0.36212 0.23139 0.52069 0.0
C582 C 0.34855 0.22631 0.53471 0.0
C583 C 0.3628 0.21922 0.50789 0.0
C584 C 0.34998 0.20179 0.50904 0.0
C585 C 0.33575 0.20887 0.5357 0.0
C586 C 0.33654 0.19674 0.52312 0.0
C587 C 0.35082 0.18843 0.49667 0.0
C588 C 0.3606 0.13158 0.52676 0.0
C589 C 0.34553 0.12232 0.53852 0.0
C590 C 0.36197 0.14389 0.5126 0.0
C591 C 0.3484 0.14727 0.51017 0.0
C592 C 0.33173 0.12533 0.53522 0.0
C593 C 0.33328 0.13786 0.5215 0.0
C594 C 0.3502 0.16151 0.49726 0.0
C595 C 0.33957 0.11764 0.45541 0.0
C596 C 0.35042 0.12174 0.43845 0.0
C597 C 0.34015 0.13066 0.46767 0.0
C598 C 0.3521 0.14806 0.4637 0.0
C599 C 0.36208 0.13906 0.43407 0.0
C600 C 0.36299 0.1521 0.44667 0.0
C601 C 0.35231 0.16215 0.47591 0.0
H602 H 0.33066 0.22449 0.45647 0.0
H603 H 0.33143 0.20305 0.47848 0.0
H604 H 0.37018 0.2249 0.41858 0.0
H605 H 0.37195 0.20426 0.44153 0.0
H606 H 0.37215 0.24475 0.51962 0.0
H607 H 0.37345 0.22334 0.49736 0.0
H608 H 0.3253 0.2045 0.54657 0.0
H609 H 0.32661 0.18335 0.5244 0.0
H610 H 0.37157 0.1298 0.52895 0.0
H611 H 0.37383 0.1512 0.50412 0.0
H612 H 0.3197 0.11814 0.54339 0.0
H613 H 0.32265 0.14027 0.51975 0.0
H614 H 0.33017 0.10435 0.45873 0.0
H615 H 0.33078 0.12701 0.47976 0.0
H616 H 0.37043 0.14248 0.4209 0.0
H617 H 0.37209 0.16539 0.44297 0.0
N618 N 0.35352 0.17598 0.46581 0.0
N619 N 0.34951 0.17461 0.5067 0.0
C620 C 0.78237 0.12196 0.45335 0.0
C621 C 0.77621 0.12524 0.43532 0.0
C622 C 0.79402 0.13554 0.46557 0.0
C623 C 0.79923 0.15269 0.46044 0.0
C624 C 0.78174 0.14232 0.42973 0.0
C625 C 0.79308 0.15593 0.44226 0.0
C626 C 0.8121 0.16734 0.4729 0.0
C627 C 0.77127 0.13762 0.52332 0.0
C628 C 0.77722 0.12894 0.53589 0.0
C629 C 0.78226 0.14966 0.50892 0.0
C630 C 0.79932 0.15325 0.50708 0.0
C631 C 0.7941 0.13205 0.53305 0.0
C632 C 0.80509 0.14428 0.5191 0.0
C633 C 0.81196 0.16749 0.49437 0.0
C634 C 0.87014 0.23862 0.51653 0.0
C635 C 0.87375 0.23383 0.53541 0.0
C636 C 0.85878 0.226 0.50291 0.0
C637 C 0.85131 0.2084 0.50775 0.0
C638 C 0.86633 0.21634 0.54022 0.0
C639 C 0.85535 0.20379 0.52653 0.0
C640 C 0.8381 0.19457 0.49467 0.0
C641 C 0.88415 0.22018 0.45332 0.0
C642 C 0.88191 0.22784 0.43582 0.0
C643 C 0.87015 0.20967 0.46575 0.0
C644 C 0.85361 0.20669 0.46105 0.0
C645 C 0.86538 0.22503 0.43126 0.0
C646 C 0.85133 0.2144 0.44366 0.0
C647 C 0.83855 0.19431 0.47315 0.0
H648 H 0.7786 0.10887 0.45763 0.0
H649 H 0.79933 0.13251 0.47861 0.0
H650 H 0.77726 0.1451 0.41573 0.0
H651 H 0.79713 0.16901 0.43768 0.0
H652 H 0.75841 0.13565 0.52512 0.0
H653 H 0.77768 0.15664 0.49987 0.0
H654 H 0.79901 0.12525 0.54188 0.0
H655 H 0.81823 0.14688 0.51781 0.0
H656 H 0.87568 0.2521 0.51262 0.0
H657 H 0.8555 0.23006 0.48895 0.0
H658 H 0.86904 0.21237 0.55466 0.0
H659 H 0.8498 0.19038 0.53078 0.0
H660 H 0.89674 0.2222 0.45732 0.0
H661 H 0.87219 0.20352 0.47877 0.0
H662 H 0.86322 0.23061 0.41777 0.0
H663 H 0.83863 0.21206 0.43959 0.0
N664 N 0.82541 0.18084 0.46315 0.0
N665 N 0.82486 0.18105 0.50427 0.0
C666 C 0.97119 0.53852 0.17667 0.0
C667 C 0.98338 0.54497 0.16083 0.0
C668 C 0.96973 0.5252 0.18916 0.0
C669 C 0.98038 0.51806 0.18589 0.0
C670 C 0.99404 0.53782 0.15774 0.0
C671 C 0.99248 0.52446 0.17004 0.0
C672 C 0.97859 0.50335 0.19801 0.0
C673 C 0.004 0.54769 0.24248 0.0
C674 C 0.99143 0.54863 0.25445 0.0
C675 C 0.99986 0.53304 0.23097 0.0
C676 C 0.98316 0.51887 0.23139 0.0
C677 C 0.97464 0.53428 0.25482 0.0
C678 C 0.9706 0.51945 0.24354 0.0
C679 C 0.97922 0.50341 0.21942 0.0
C680 C 0.00152 0.45382 0.23868 0.0
C681 C 0.98973 0.44237 0.25312 0.0
C682 C 0.99769 0.4646 0.22729 0.0
C683 C 0.98215 0.46446 0.23029 0.0
C684 C 0.9741 0.44231 0.25603 0.0
C685 C 0.97048 0.45344 0.24492 0.0
C686 C 0.97868 0.47651 0.21878 0.0
C687 C 0.96824 0.43262 0.1763 0.0
C688 C 0.97666 0.43748 0.15743 0.0
C689 C 0.96843 0.44506 0.18943 0.0
C690 C 0.9776 0.46264 0.18418 0.0
C691 C 0.98556 0.45492 0.15202 0.0
C692 C 0.98612 0.46735 0.16529 0.0
C693 C 0.97769 0.47626 0.19729 0.0
H694 H 0.9628 0.54379 0.1794 0.0
H695 H 0.96005 0.52023 0.20102 0.0
H696 H 0.00336 0.54228 0.14546 0.0
H697 H 1.00075 0.51908 0.16714 0.0
H698 H 0.01719 0.55816 0.24217 0.0
H699 H 0.00978 0.53268 0.22187 0.0
H700 H 0.96454 0.53453 0.2636 0.0
H701 H 0.95763 0.50855 0.24405 0.0
H702 H 0.01391 0.45477 0.23634 0.0
H703 H 0.00704 0.47331 0.21636 0.0
H704 H 0.96456 0.43358 0.26674 0.0
H705 H 0.95845 0.45326 0.24751 0.0
H706 H 0.96113 0.41917 0.18062 0.0
H707 H 0.96106 0.44081 0.20337 0.0
H708 H 0.99221 0.45895 0.13755 0.0
H709 H 0.99323 0.48074 0.16068 0.0
N710 N 0.97777 0.48977 0.18785 0.0
N711 N 0.97935 0.49005 0.22904 0.0
C712 C 0.46191 0.43756 0.17601 0.0
C713 C 0.455 0.44356 0.16102 0.0
C714 C 0.47493 0.44917 0.189 0.0
C715 C 0.4813 0.46696 0.18711 0.0
C716 C 0.46131 0.46135 0.15937 0.0
C717 C 0.47439 0.4729 0.17216 0.0
C718 C 0.49589 0.47966 0.19953 0.0
C719 C 0.45176 0.4534 0.24328 0.0
C720 C 0.45433 0.44443 0.25916 0.0
C721 C 0.46537 0.46433 0.23062 0.0
C722 C 0.48184 0.46644 0.23341 0.0
C723 C 0.4708 0.44646 0.26187 0.0
C724 C 0.48447 0.4575 0.24922 0.0
C725 C 0.49654 0.47901 0.22095 0.0
C726 C 0.55502 0.54959 0.2414 0.0
C727 C 0.56129 0.54556 0.25882 0.0
C728 C 0.54291 0.53651 0.22899 0.0
C729 C 0.53735 0.51913 0.23329 0.0
C730 C 0.55545 0.52826 0.26355 0.0
C731 C 0.54365 0.51515 0.25081 0.0
C732 C 0.52383 0.50504 0.22081 0.0
C733 C 0.56609 0.53734 0.17532 0.0
C734 C 0.56085 0.5454 0.16093 0.0
C735 C 0.55396 0.52446 0.1881 0.0
C736 C 0.53643 0.51944 0.18657 0.0
C737 C 0.54329 0.54022 0.15943 0.0
C738 C 0.53123 0.52732 0.17201 0.0
C739 C 0.52315 0.50556 0.19932 0.0
H740 H 0.45728 0.42391 0.17763 0.0
H741 H 0.48028 0.4443 0.20018 0.0
H742 H 0.45647 0.4664 0.14778 0.0
H743 H 0.47919 0.48657 0.17031 0.0
H744 H 0.43921 0.45202 0.24068 0.0
H745 H 0.46309 0.47145 0.21893 0.0
H746 H 0.47323 0.43987 0.27411 0.0
H747 H 0.49714 0.45914 0.25183 0.0
H748 H 0.55907 0.56287 0.23778 0.0
H749 H 0.53759 0.54007 0.21638 0.0
H750 H 0.56002 0.52491 0.27707 0.0
H751 H 0.53932 0.50187 0.25475 0.0
H752 H 0.57954 0.54107 0.17678 0.0
H753 H 0.55822 0.51834 0.199 0.0
H754 H 0.5388 0.54593 0.14825 0.0
H755 H 0.51777 0.52355 0.17043 0.0
N756 N 0.50919 0.49291 0.18964 0.0
N757 N 0.51052 0.49167 0.23073 0.0
C758 C 0.46072 0.02026 0.24748 0.0
C759 C 0.45364 0.0068 0.26181 0.0
C760 C 0.47486 0.02305 0.23553 0.0
C761 C 0.482 0.01227 0.23748 0.0
C762 C 0.46126 0.99648 0.26418 0.0
C763 C 0.47523 0.99918 0.25217 0.0
C764 C 0.4968 0.01462 0.22494 0.0
C765 C 0.45456 0.00252 0.17941 0.0
C766 C 0.45871 0.01504 0.16422 0.0
C767 C 0.46722 0.00346 0.19258 0.0
C768 C 0.48426 0.01713 0.19112 0.0
C769 C 0.47576 0.02876 0.16289 0.0
C770 C 0.4884 0.02973 0.17614 0.0
C771 C 0.4981 0.01742 0.20368 0.0
C772 C 0.55269 0.00178 0.17819 0.0
C773 C 0.56087 0.01414 0.16279 0.0
C774 C 0.54129 0.003 0.19174 0.0
C775 C 0.53805 0.01677 0.19043 0.0
C776 C 0.55769 0.02799 0.16163 0.0
C777 C 0.54634 0.02922 0.17523 0.0
C778 C 0.52474 0.0173 0.20334 0.0
C779 C 0.56542 0.02046 0.24635 0.0
C780 C 0.55926 0.00712 0.26082 0.0
C781 C 0.55393 0.02308 0.23456 0.0
C782 C 0.53607 0.01226 0.23683 0.0
C783 C 0.54138 0.99671 0.26346 0.0
C784 C 0.52995 0.99926 0.25163 0.0
C785 C 0.52346 0.01455 0.22461 0.0
H786 H 0.45519 0.02845 0.24523 0.0
H787 H 0.48015 0.0336 0.22478 0.0
H788 H 0.45646 0.98629 0.2754 0.0
H789 H 0.48063 0.99084 0.25423 0.0
H790 H 0.44156 0.99185 0.18098 0.0
H791 H 0.46376 0.99325 0.20356 0.0
H792 H 0.47951 0.03846 0.15116 0.0
H793 H 0.50151 0.04022 0.17448 0.0
H794 H 0.55491 0.99101 0.17964 0.0
H795 H 0.53467 0.9929 0.20288 0.0
H796 H 0.56352 0.03758 0.14976 0.0
H797 H 0.54381 0.0398 0.17368 0.0
H798 H 0.57911 0.0287 0.2439 0.0
H799 H 0.55902 0.03355 0.22371 0.0
H800 H 0.53615 0.98659 0.27477 0.0
H801 H 0.51625 0.99088 0.25392 0.0
N802 N 0.50953 0.01328 0.23444 0.0
N803 N 0.51209 0.01878 0.19382 0.0
C804 C 0.5523 0.00532 0.78618 0.0
C805 C 0.55001 0.9944 0.76967 0.0
C806 C 0.53845 0.00225 0.79866 0.0
C807 C 0.52203 0.98809 0.79503 0.0
C808 C 0.53361 0.9801 0.76616 0.0
C809 C 0.51969 0.97708 0.77863 0.0
C810 C 0.50714 0.98576 0.80726 0.0
C811 C 0.54041 0.97589 0.85065 0.0
C812 C 0.54722 0.98785 0.8667 0.0
C813 C 0.5276 0.97539 0.83801 0.0
C814 C 0.52137 0.98682 0.84126 0.0
C815 C 0.54092 0.99923 0.86986 0.0
C816 C 0.52809 0.99865 0.85736 0.0
C817 C 0.50732 0.98617 0.82875 0.0
C818 C 0.43816 0.97775 0.85121 0.0
C819 C 0.44369 0.99005 0.86692 0.0
C820 C 0.45016 0.97672 0.83847 0.0
C821 C 0.46788 0.98794 0.8413 0.0
C822 C 0.46143 0.00125 0.86962 0.0
C823 C 0.47337 1.00013 0.85703 0.0
C824 C 0.48095 0.98667 0.82877 0.0
C825 C 0.45529 0.00601 0.78628 0.0
C826 C 0.44631 0.99485 0.7701 0.0
C827 C 0.46618 0.003 0.79858 0.0
C828 C 0.46824 0.98866 0.79509 0.0
C829 C 0.4483 0.98044 0.76667 0.0
C830 C 0.45931 0.97747 0.77895 0.0
C831 C 0.48069 0.98618 0.80729 0.0
H832 H 0.5648 0.01637 0.78936 0.0
H833 H 0.54051 0.01121 0.81087 0.0
H834 H 0.53146 0.97156 0.75343 0.0
H835 H 0.50706 0.96623 0.77539 0.0
H836 H 0.54502 0.96697 0.84783 0.0
H837 H 0.52238 0.9659 0.82595 0.0
H838 H 0.54564 0.00838 0.8823 0.0
H839 H 0.52341 0.0075 0.86028 0.0
H840 H 0.42457 0.96896 0.84878 0.0
H841 H 0.44562 0.96699 0.82667 0.0
H842 H 0.46612 0.01065 0.8818 0.0
H843 H 0.48696 0.00883 0.85961 0.0
H844 H 0.45394 0.01715 0.78942 0.0
H845 H 0.47328 0.01209 0.81057 0.0
H846 H 0.44168 0.97171 0.7542 0.0
H847 H 0.46092 0.96648 0.77581 0.0
N848 N 0.49377 0.98566 0.79735 0.0
N849 N 0.49425 0.98667 0.83859 0.0
C850 C 0.9963 0.54352 0.78387 0.0
C851 C 0.00898 0.55777 0.77298 0.0
C852 C 1.00057 0.53297 0.79504 0.0
C853 C 0.01755 0.53622 0.79536 0.0
C854 C 0.02603 0.56086 0.77324 0.0
C855 C 0.03024 0.55008 0.78422 0.0
C856 C 0.02173 0.52497 0.80746 0.0
C857 C 0.03121 0.56912 0.84994 0.0
C858 C 0.01878 0.56369 0.8655 0.0
C859 C 0.03237 0.55701 0.83751 0.0
C860 C 0.02122 0.53932 0.8406 0.0
C861 C 0.00754 0.54597 0.86832 0.0
C862 C 0.00884 0.53394 0.85609 0.0
C863 C 0.0229 0.52617 0.82881 0.0
C864 C 0.03476 0.46712 0.852 0.0
C865 C 0.02682 0.46406 0.87117 0.0
C866 C 0.03396 0.47879 0.83851 0.0
C867 C 0.02467 0.48712 0.84371 0.0
C868 C 0.01778 0.47252 0.87648 0.0
C869 C 0.01663 0.48382 0.86288 0.0
C870 C 0.024 0.50011 0.83023 0.0
C871 C 1.00023 0.45241 0.79134 0.0
C872 C 0.01149 0.45269 0.77614 0.0
C873 C 0.00398 0.46731 0.80211 0.0
C874 C 0.01892 0.48292 0.79778 0.0
C875 C 0.02648 0.46846 0.77184 0.0
C876 C 0.03004 0.48347 0.78239 0.0
C877 C 0.0224 0.49869 0.80879 0.0
H878 H 0.98297 0.54037 0.78367 0.0
H879 H 0.99059 0.5222 0.80342 0.0
H880 H 0.0362 0.57177 0.76527 0.0
H881 H 0.04342 0.55273 0.78433 0.0
H882 H 0.04003 0.58269 0.84744 0.0
H883 H 0.04225 0.56144 0.82589 0.0
H884 H 0.99803 0.54137 0.88038 0.0
H885 H 1.00019 0.52035 0.85884 0.0
H886 H 0.04197 0.46084 0.84772 0.0
H887 H 0.04096 0.48155 0.82431 0.0
H888 H 0.01149 0.47028 0.89115 0.0
H889 H 0.00944 0.49005 0.86744 0.0
H890 H 0.9883 0.44075 0.79476 0.0
H891 H 0.99504 0.46672 0.81365 0.0
H892 H 0.0356 0.46923 0.76047 0.0
H893 H 0.04159 0.49546 0.77876 0.0
N894 N 0.02139 0.5112 0.79821 0.0
N895 N 0.02406 0.51377 0.8393 0.0
C896 C 0.54097 0.56642 0.77866 0.0
C897 C 0.54836 0.55945 0.76552 0.0
C898 C 0.52625 0.5556 0.79005 0.0
C899 C 0.51881 0.53762 0.78875 0.0
C900 C 0.54043 0.54145 0.76369 0.0
C901 C 0.52586 0.5307 0.77516 0.0
C902 C 0.50352 0.52571 0.801 0.0
C903 C 0.54453 0.55561 0.84784 0.0
C904 C 0.5403 0.56425 0.86267 0.0
C905 C 0.53212 0.54424 0.83419 0.0
C906 C 0.51528 0.54155 0.83469 0.0
C907 C 0.52348 0.56168 0.86298 0.0
C908 C 0.5111 0.5504 0.84919 0.0
C909 C 0.50154 0.52803 0.82194 0.0
C910 C 0.44797 0.46016 0.85106 0.0
C911 C 0.43669 0.46378 0.86219 0.0
C912 C 0.45993 0.47224 0.83755 0.0
C913 C 0.46099 0.48826 0.83497 0.0
C914 C 0.43761 0.47979 0.85917 0.0
C915 C 0.44979 0.49198 0.8459 0.0
C916 C 0.4747 0.5016 0.82219 0.0
C917 C 0.43594 0.46098 0.78044 0.0
C918 C 0.44279 0.45314 0.76784 0.0
C919 C 0.44685 0.47602 0.79124 0.0
C920 C 0.46482 0.48338 0.78986 0.0
C921 C 0.46077 0.46091 0.76598 0.0
C922 C 0.47163 0.47583 0.77685 0.0
C923 C 0.47681 0.4991 0.8014 0.0
H924 H 0.54673 0.58022 0.78046 0.0
H925 H 0.52077 0.56131 0.79992 0.0
H926 H 0.54546 0.53561 0.75336 0.0
H927 H 0.52026 0.51689 0.77361 0.0
H928 H 0.55737 0.55738 0.847 0.0
H929 H 0.53559 0.53716 0.82367 0.0
H930 H 0.51966 0.56787 0.87438 0.0
H931 H 0.49811 0.54829 0.85014 0.0
H932 H 0.44802 0.44821 0.85323 0.0
H933 H 0.46873 0.46927 0.82957 0.0
H934 H 0.42899 0.48299 0.86713 0.0
H935 H 0.4505 0.50434 0.84417 0.0
H936 H 0.42216 0.45534 0.78224 0.0
H937 H 0.44121 0.48187 0.80061 0.0
H938 H 0.46652 0.45549 0.75607 0.0
H939 H 0.48542 0.48134 0.77526 0.0
N940 N 0.49111 0.51129 0.79168 0.0
N941 N 0.4871 0.51596 0.8316 0.0
C942 C 0.66033 0.78079 0.50772 0.0
C943 C 0.64538 0.76992 0.49652 0.0
C944 C 0.66067 0.79313 0.521 0.0
C945 C 0.64615 0.79504 0.52327 0.0
C946 C 0.63067 0.77157 0.49938 0.0
C947 C 0.63115 0.78416 0.5124 0.0
C948 C 0.64728 0.80947 0.53535 0.0
C949 C 0.64467 0.77106 0.58184 0.0
C950 C 0.66002 0.77698 0.59298 0.0
C951 C 0.64219 0.78232 0.56943 0.0
C952 C 0.65497 0.79973 0.56801 0.0
C953 C 0.67284 0.7944 0.5912 0.0
C954 C 0.67026 0.80566 0.57904 0.0
C955 C 0.65228 0.8121 0.55596 0.0
C956 C 0.65007 0.87691 0.57693 0.0
C957 C 0.66414 0.88428 0.59038 0.0
C958 C 0.64655 0.86236 0.56544 0.0
C959 C 0.65717 0.85501 0.56693 0.0
C960 C 0.67451 0.87665 0.59213 0.0
C961 C 0.67106 0.86221 0.58056 0.0
C962 C 0.65354 0.83934 0.55532 0.0
C963 C 0.66592 0.8787 0.50585 0.0
C964 C 0.65159 0.87579 0.49409 0.0
C965 C 0.66481 0.86625 0.51949 0.0
C966 C 0.64941 0.85055 0.52158 0.0
C967 C 0.63606 0.86011 0.4966 0.0
C968 C 0.63507 0.84754 0.51 0.0
C969 C 0.64879 0.83681 0.53457 0.0
H970 H 0.67206 0.78029 0.50569 0.0
H971 H 0.67252 0.80167 0.52891 0.0
H972 H 0.61881 0.76327 0.49139 0.0
H973 H 0.61984 0.78551 0.51389 0.0
H974 H 0.63439 0.75782 0.58302 0.0
H975 H 0.63014 0.77753 0.56133 0.0
H976 H 0.685 0.7994 0.59908 0.0
H977 H 0.6803 0.81903 0.57813 0.0
H978 H 0.64184 0.88247 0.57514 0.0
H979 H 0.63539 0.85675 0.55559 0.0
H980 H 0.68522 0.88171 0.60264 0.0
H981 H 0.67932 0.85668 0.58224 0.0
H982 H 0.67822 0.89036 0.5041 0.0
H983 H 0.67616 0.86868 0.52796 0.0
H984 H 0.62464 0.85745 0.48816 0.0
H985 H 0.62309 0.83544 0.51134 0.0
N986 N 0.64572 0.82192 0.52542 0.0
N987 N 0.65519 0.82691 0.56513 0.0
C988 C 0.12943 0.77167 0.51231 0.0
C989 C 0.12282 0.77713 0.4964 0.0
C990 C 0.14191 0.78371 0.52548 0.0
C991 C 0.14803 0.8014 0.52288 0.0
C992 C 0.12889 0.79483 0.494 0.0
C993 C 0.14143 0.80682 0.50701 0.0
C994 C 0.1621 0.81446 0.53564 0.0
C995 C 0.11644 0.79061 0.577 0.0
C996 C 0.11653 0.7782 0.59005 0.0
C997 C 0.1312 0.80208 0.5663 0.0
C998 C 0.14652 0.80166 0.56858 0.0
C999 C 0.13205 0.77798 0.59249 0.0
C1000 C 0.14696 0.78974 0.58199 0.0
C1001 C 0.16197 0.81395 0.55707 0.0
C1002 C 0.21978 0.88469 0.57901 0.0
C1003 C 0.22579 0.88058 0.59661 0.0
C1004 C 0.20783 0.87166 0.56639 0.0
C1005 C 0.20218 0.85426 0.57066 0.0
C1006 C 0.21981 0.86324 0.6013 0.0
C1007 C 0.20818 0.8502 0.58837 0.0
C1008 C 0.18901 0.84021 0.55781 0.0
C1009 C 0.23201 0.87335 0.51314 0.0
C1010 C 0.2267 0.8811 0.4984 0.0
C1011 C 0.2199 0.86036 0.52581 0.0
C1012 C 0.2023 0.8549 0.52386 0.0
C1013 C 0.20907 0.87553 0.49655 0.0
C1014 C 0.19703 0.86254 0.50904 0.0
C1015 C 0.18898 0.84074 0.53627 0.0
H1016 H 0.12497 0.75812 0.51453 0.0
H1017 H 0.14707 0.77923 0.53735 0.0
H1018 H 0.12424 0.79946 0.48171 0.0
H1019 H 0.14607 0.8204 0.5046 0.0
H1020 H 0.105 0.79165 0.57514 0.0
H1021 H 0.1307 0.81143 0.55631 0.0
H1022 H 0.13265 0.76858 0.60223 0.0
H1023 H 0.15873 0.7893 0.584 0.0
H1024 H 0.22392 0.89799 0.57538 0.0
H1025 H 0.20274 0.87527 0.5536 0.0
H1026 H 0.22418 0.8598 0.61493 0.0
H1027 H 0.20379 0.8369 0.59227 0.0
H1028 H 0.24551 0.87738 0.51489 0.0
H1029 H 0.22422 0.85444 0.53693 0.0
H1030 H 0.20451 0.88098 0.48511 0.0
H1031 H 0.18352 0.85843 0.50713 0.0
N1032 N 0.17552 0.82786 0.52613 0.0
N1033 N 0.17546 0.82676 0.56736 0.0
C1034 C 0.23244 0.35767 0.51004 0.0
C1035 C 0.22695 0.34548 0.4942 0.0
C1036 C 0.22039 0.35883 0.52259 0.0
C1037 C 0.20267 0.34786 0.51942 0.0
C1038 C 0.20921 0.33452 0.49119 0.0
C1039 C 0.19724 0.33577 0.50358 0.0
C1040 C 0.18952 0.3493 0.53162 0.0
C1041 C 0.21373 0.32923 0.57538 0.0
C1042 C 0.22209 0.34003 0.59206 0.0
C1043 C 0.2035 0.33266 0.56243 0.0
C1044 C 0.20152 0.34706 0.56574 0.0
C1045 C 0.22029 0.35457 0.59524 0.0
C1046 C 0.20994 0.35795 0.58229 0.0
C1047 C 0.1894 0.34973 0.55313 0.0
C1048 C 0.11741 0.32874 0.57216 0.0
C1049 C 0.11798 0.34096 0.58612 0.0
C1050 C 0.132 0.33191 0.56112 0.0
C1051 C 0.14759 0.34727 0.56389 0.0
C1052 C 0.13375 0.35632 0.58901 0.0
C1053 C 0.14848 0.35936 0.57812 0.0
C1054 C 0.16296 0.35014 0.55237 0.0
C1055 C 0.13012 0.35969 0.5081 0.0
C1056 C 0.12333 0.34747 0.49233 0.0
C1057 C 0.1429 0.36038 0.52095 0.0
C1058 C 0.14914 0.34892 0.51815 0.0
C1059 C 0.12962 0.33603 0.48963 0.0
C1060 C 0.14245 0.33683 0.50231 0.0
C1061 C 0.16315 0.34979 0.53091 0.0
H1062 H 0.24603 0.36628 0.51273 0.0
H1063 H 0.2249 0.36849 0.53448 0.0
H1064 H 0.20454 0.32521 0.47891 0.0
H1065 H 0.18365 0.32725 0.50073 0.0
H1066 H 0.21496 0.318 0.57244 0.0
H1067 H 0.19675 0.32376 0.55014 0.0
H1068 H 0.22645 0.36302 0.60808 0.0
H1069 H 0.20837 0.36898 0.5853 0.0
H1070 H 0.10574 0.31653 0.56991 0.0
H1071 H 0.13116 0.32222 0.55056 0.0
H1072 H 0.1347 0.36609 0.59948 0.0
H1073 H 0.16047 0.37124 0.58057 0.0
H1074 H 0.12551 0.36866 0.51054 0.0
H1075 H 0.1481 0.37006 0.53281 0.0
H1076 H 0.12486 0.32666 0.47742 0.0
H1077 H 0.14714 0.32793 0.49976 0.0
N1078 N 0.17638 0.34933 0.52143 0.0
N1079 N 0.17613 0.35018 0.56269 0.0
H1080 H 0.96509 0.37507 0.05135 0.0
H1081 H 0.98892 0.41537 0.16323 0.0
H1082 H 0.01001 0.38213 0.08367 0.0
H1083 H 0.96364 0.43061 0.11905 0.0
H1084 H 0.99089 0.39635 0.13761 0.0
H1085 H 0.95857 0.38871 0.07979 0.0
C1086 C 0.97341 0.37923 0.06455 0.0
C1087 C 0.98819 0.37762 0.0651 0.0
C1088 C 0.98474 0.40372 0.13365 0.0
C1089 C 0.98073 0.393 0.09762 0.0
C1090 C 0.98354 0.41445 0.14823 0.0
C1091 C 0.97618 0.42454 0.14309 0.0
C1092 C 0.97823 0.40289 0.114 0.0
C1093 C 0.96948 0.42305 0.12347 0.0
C1094 C 0.96974 0.38707 0.08069 0.0
C1095 C 0.99858 0.3833 0.08256 0.0
N1096 N 0.97066 0.41242 0.1096 0.0
N1097 N 0.99466 0.39075 0.09813 0.0
H1098 H 0.63321 0.59867 0.06325 0.0
H1099 H 0.5629 0.5759 0.15086 0.0
H1100 H 0.60577 0.6262 0.07359 0.0
H1101 H 0.58721 0.54557 0.13925 0.0
H1102 H 0.58121 0.59641 0.12504 0.0
H1103 H 0.61911 0.58099 0.09328 0.0
C1104 C 0.62435 0.6011 0.0719 0.0
C1105 C 0.62056 0.61385 0.06575 0.0
C1106 C 0.58266 0.58535 0.12819 0.0
C1107 C 0.60441 0.59368 0.1001 0.0
C1108 C 0.57218 0.57361 0.14291 0.0
C1109 C 0.57338 0.5589 0.14703 0.0
C1110 C 0.59444 0.58236 0.11734 0.0
C1111 C 0.58587 0.55676 0.13656 0.0
C1112 C 0.61629 0.59099 0.08903 0.0
C1113 C 0.60899 0.61644 0.0776 0.0
N1114 N 0.59581 0.56827 0.12203 0.0
N1115 N 0.60129 0.6064 0.0941 0.0
H1116 H 0.40159 0.03426 0.07143 0.0
H1117 H 0.4337 0.98558 0.14604 0.0
H1118 H 0.38017 0.97912 0.07266 0.0
H1119 H 0.45383 0.04051 0.14771 0.0
H1120 H 0.41312 0.98301 0.1202 0.0
H1121 H 0.41999 0.03687 0.10025 0.0
C1122 C 0.40066 0.02269 0.07782 0.0
C1123 C 0.38936 0.00644 0.0695 0.0
C1124 C 0.42196 0.99563 0.12628 0.0
C1125 C 0.41045 0.00937 0.10245 0.0
C1126 C 0.43368 0.9971 0.14118 0.0
C1127 C 0.44557 0.0133 0.14913 0.0
C1128 C 0.42212 0.01046 0.11911 0.0
C1129 C 0.44508 0.02779 0.14185 0.0
C1130 C 0.41119 0.0242 0.09427 0.0
C1131 C 0.38871 0.99192 0.07846 0.0
N1132 N 0.43361 0.02604 0.12721 0.0
N1133 N 0.39916 0.99374 0.09434 0.0
H1134 H 0.3683 0.96761 0.96186 0.0
H1135 H 0.44369 0.01881 0.88086 0.0
H1136 H 0.39842 0.02304 0.9581 0.0
H1137 H 0.41543 0.96341 0.88531 0.0
H1138 H 0.42508 0.02035 0.90693 0.0
H1139 H 0.3833 0.96556 0.93175 0.0
C1140 C 0.37796 0.97935 0.95464 0.0
C1141 C 0.38219 0.99553 0.96265 0.0
C1142 C 0.42284 0.00783 0.90213 0.0
C1143 C 0.39942 0.99325 0.92821 0.0
C1144 C 0.4335 0.00695 0.88728 0.0
C1145 C 0.43123 0.99097 0.88106 0.0
C1146 C 0.40982 0.9926 0.91097 0.0
C1147 C 0.41761 0.976 0.88961 0.0
C1148 C 0.38653 0.97816 0.93745 0.0
C1149 C 0.3948 0.01028 0.95259 0.0
N1150 N 0.40751 0.97719 0.90429 0.0
N1151 N 0.403 0.00878 0.936 0.0
H1152 H 0.9964 0.37475 0.94439 0.0
H1153 H 0.03979 0.47139 0.90957 0.0
H1154 H 0.04001 0.41485 0.97642 0.0
H1155 H 0.01604 0.42988 0.86624 0.0
H1156 H 0.03892 0.45104 0.93508 0.0
H1157 H 0.00213 0.39467 0.91614 0.0
C1158 C 0.00727 0.38771 0.9454 0.0
C1159 C 0.0177 0.3932 0.96281 0.0
C1160 C 0.03411 0.44642 0.91992 0.0
C1161 C 0.02414 0.41608 0.93072 0.0
C1162 C 0.03456 0.45799 0.90543 0.0
C1163 C 0.02796 0.45222 0.88588 0.0
C1164 C 0.02662 0.4289 0.91494 0.0
C1165 C 0.0213 0.43478 0.88117 0.0
C1166 C 0.01057 0.39903 0.92925 0.0
C1167 C 0.03167 0.4101 0.96327 0.0
N1168 N 0.02055 0.42364 0.89572 0.0
N1169 N 0.03432 0.42104 0.94759 0.0
H1170 H 0.61947 0.60228 0.95484 0.0
H1171 H 0.54576 0.59471 0.87976 0.0
H1172 H 0.59703 0.63504 0.95958 0.0
H1173 H 0.56381 0.55818 0.88202 0.0
H1174 H 0.56593 0.6112 0.90701 0.0
H1175 H 0.6009 0.58778 0.92592 0.0
C1176 C 0.61068 0.6065 0.94977 0.0
C1177 C 0.60978 0.61988 0.95978 0.0
C1178 C 0.56551 0.59961 0.90144 0.0
C1179 C 0.58834 0.60319 0.92652 0.0
C1180 C 0.55394 0.59014 0.88594 0.0
C1181 C 0.55305 0.575 0.8785 0.0
C1182 C 0.57629 0.59393 0.90956 0.0
C1183 C 0.56418 0.56989 0.88694 0.0
C1184 C 0.60003 0.59816 0.93323 0.0
C1185 C 0.59814 0.62476 0.95239 0.0
N1186 N 0.57528 0.5793 0.902 0.0
N1187 N 0.58783 0.61639 0.93624 0.0
H1188 H 0.03967 0.63749 0.96201 0.0
H1189 H 0.99001 0.56416 0.87829 0.0
H1190 H 0.98446 0.60928 0.95452 0.0
H1191 H 0.04527 0.59156 0.88463 0.0
H1192 H 0.98819 0.58265 0.90427 0.0
H1193 H 0.04246 0.62281 0.93196 0.0
C1194 C 0.02815 0.62832 0.95399 0.0
C1195 C 0.01179 0.62451 0.96094 0.0
C1196 C 1.00075 0.58475 0.89991 0.0
C1197 C 0.01491 0.60769 0.92658 0.0
C1198 C 0.00178 0.57416 0.88509 0.0
C1199 C 0.0178 0.57622 0.87944 0.0
C1200 C 0.01584 0.59746 0.90933 0.0
C1201 C 0.03266 0.58957 0.88851 0.0
C1202 C 0.02976 0.61995 0.93685 0.0
C1203 C 0.99733 0.61254 0.94989 0.0
N1204 N 0.03132 0.59958 0.90317 0.0
N1205 N 0.99924 0.60453 0.93338 0.0
H1206 H 0.37167 0.41393 0.9674 0.0
H1207 H 0.41972 0.42827 0.86086 0.0
H1208 H 0.38738 0.37886 0.94393 0.0
H1209 H 0.42607 0.47052 0.89876 0.0
H1210 H 0.40218 0.40821 0.88757 0.0
H1211 H 0.38577 0.43298 0.9383 0.0
C1212 C 0.3779 0.41014 0.95601 0.0
C1213 C 0.37846 0.39485 0.95813 0.0
C1214 C 0.40736 0.42189 0.8899 0.0
C1215 C 0.39441 0.41645 0.92485 0.0
C1216 C 0.41748 0.4334 0.87472 0.0
C1217 C 0.42466 0.45125 0.87752 0.0
C1218 C 0.40408 0.42819 0.9079 0.0
C1219 C 0.42074 0.45694 0.89567 0.0
C1220 C 0.386 0.42105 0.9395 0.0
C1221 C 0.38677 0.3906 0.94297 0.0
N1222 N 0.41075 0.44546 0.91015 0.0
N1223 N 0.3944 0.40133 0.92694 0.0
H1224 H 0.62836 0.02153 0.95532 0.0
H1225 H 0.54869 0.96065 0.88381 0.0
H1226 H 0.6013 0.96605 0.95931 0.0
H1227 H 0.57599 0.01615 0.88134 0.0
H1228 H 0.56937 0.96202 0.90912 0.0
H1229 H 0.61081 0.01947 0.92607 0.0
C1230 C 0.61878 0.00888 0.94999 0.0
C1231 C 0.61622 0.99394 0.95994 0.0
C1232 C 0.57089 0.97389 0.90293 0.0
C1233 C 0.59594 0.99149 0.92635 0.0
C1234 C 0.55916 0.97311 0.88838 0.0
C1235 C 0.56051 0.98832 0.88058 0.0
C1236 C 0.58409 0.98999 0.90968 0.0
C1237 C 0.57425 0.00411 0.88721 0.0
C1238 C 0.60875 0.00771 0.93324 0.0
C1239 C 0.60369 0.97791 0.95218 0.0
N1240 N 0.58542 0.00453 0.90142 0.0
N1241 N 0.59392 0.97711 0.93594 0.0
H1242 H 0.6363 0.03185 0.06897 0.0
H1243 H 0.55576 0.98443 0.14448 0.0
H1244 H 0.60131 0.97696 0.06943 0.0
H1245 H 0.5911 0.03923 0.14564 0.0
H1246 H 0.57326 0.98142 0.11814 0.0
H1247 H 0.62085 0.03479 0.09803 0.0
C1248 C 0.62545 0.0204 0.07523 0.0
C1249 C 0.62006 0.00413 0.06663 0.0
C1250 C 0.57726 0.9941 0.1242 0.0
C1251 C 0.60227 0.00743 0.09989 0.0
C1252 C 0.56732 0.99583 0.13939 0.0
C1253 C 0.57193 0.01212 0.14736 0.0
C1254 C 0.59195 0.00878 0.11679 0.0
C1255 C 0.5869 0.02644 0.13978 0.0
C1256 C 0.61662 0.0221 0.09183 0.0
C1257 C 0.60591 0.98977 0.07545 0.0
N1258 N 0.59633 0.02444 0.1249 0.0
N1259 N 0.59749 0.99177 0.0915 0.0
H1260 H 0.02267 0.62779 0.07406 0.0
H1261 H 0.95737 0.5479 0.14269 0.0
H1262 H 0.96754 0.60155 0.06599 0.0
H1263 H 0.01269 0.57326 0.14739 0.0
H1264 H 0.96039 0.56919 0.11719 0.0
H1265 H 0.0188 0.60965 0.10334 0.0
C1266 C 0.00972 0.61825 0.07848 0.0
C1267 C 0.99542 0.61612 0.06738 0.0
C1268 C 0.97185 0.57016 0.12393 0.0
C1269 C 0.99088 0.59514 0.10105 0.0
C1270 C 0.97014 0.55809 0.13857 0.0
C1271 C 0.98481 0.55872 0.14703 0.0
C1272 C 0.98836 0.58297 0.11779 0.0
C1273 C 0.00104 0.57211 0.14102 0.0
C1274 C 0.00751 0.60787 0.09526 0.0
C1275 C 0.97894 0.60361 0.07402 0.0
N1276 N 0.00236 0.58362 0.12672 0.0
N1277 N 0.97713 0.5935 0.09034 0.0
H1278 H 0.40342 0.37289 0.06154 0.0
H1279 H 0.42586 0.44345 0.14868 0.0
H1280 H 0.37531 0.39978 0.07167 0.0
H1281 H 0.45406 0.41651 0.14019 0.0
H1282 H 0.40587 0.42579 0.12206 0.0
H1283 H 0.42082 0.387 0.0917 0.0
C1284 C 0.40083 0.38167 0.07015 0.0
C1285 C 0.38795 0.38524 0.06393 0.0
C1286 C 0.41634 0.42362 0.12608 0.0
C1287 C 0.40783 0.40144 0.09845 0.0
C1288 C 0.42778 0.43374 0.14126 0.0
C1289 C 0.44173 0.43156 0.14653 0.0
C1290 C 0.41888 0.41125 0.11593 0.0
C1291 C 0.44344 0.41858 0.13665 0.0
C1292 C 0.41077 0.38972 0.08737 0.0
C1293 C 0.38516 0.3967 0.07575 0.0
N1294 N 0.43224 0.40902 0.12167 0.0
N1295 N 0.39506 0.40443 0.09232 0.0
H1296 H 0.62884 0.70461 0.39114 0.0
H1297 H 0.66309 0.75203 0.49765 0.0
H1298 H 0.67986 0.72025 0.41331 0.0
H1299 H 0.62813 0.75984 0.45992 0.0
H1300 H 0.66533 0.73448 0.47065 0.0
H1301 H 0.6243 0.71884 0.42048 0.0
C1302 C 0.63901 0.71086 0.40229 0.0
C1303 C 0.6548 0.71135 0.39974 0.0
C1304 C 0.6571 0.73998 0.46844 0.0
C1305 C 0.64959 0.72742 0.43332 0.0
C1306 C 0.65586 0.7501 0.48378 0.0
C1307 C 0.64554 0.75771 0.48112 0.0
C1308 C 0.64771 0.73711 0.45042 0.0
C1309 C 0.63609 0.75417 0.46294 0.0
C1310 C 0.63643 0.71903 0.41894 0.0
C1311 C 0.66755 0.7197 0.41462 0.0
N1312 N 0.63741 0.74415 0.44831 0.0
N1313 N 0.66466 0.72738 0.43081 0.0
H1314 H 0.30057 0.93439 0.40208 0.0
H1315 H 0.22796 0.911 0.48691 0.0
H1316 H 0.2715 0.96064 0.40914 0.0
H1317 H 0.25378 0.88177 0.47785 0.0
H1318 H 0.24625 0.93126 0.46085 0.0
H1319 H 0.28591 0.91688 0.43198 0.0
C1320 C 0.2912 0.93656 0.40997 0.0
C1321 C 0.28718 0.94894 0.40295 0.0
C1322 C 0.24803 0.92049 0.46462 0.0
C1323 C 0.27038 0.92894 0.4372 0.0
C1324 C 0.23755 0.9089 0.47948 0.0
C1325 C 0.2392 0.89455 0.4844 0.0
C1326 C 0.26026 0.91775 0.45447 0.0
C1327 C 0.25209 0.89267 0.47457 0.0
C1328 C 0.28283 0.92655 0.42703 0.0
C1329 C 0.27495 0.95119 0.41385 0.0
N1330 N 0.26203 0.90404 0.45992 0.0
N1331 N 0.26696 0.94125 0.43034 0.0
H1332 H 0.0704 0.37002 0.39752 0.0
H1333 H 0.09422 0.31895 0.47899 0.0
H1334 H 0.04295 0.31474 0.40446 0.0
H1335 H 0.12223 0.3743 0.47364 0.0
H1336 H 0.07392 0.31761 0.45343 0.0
H1337 H 0.08813 0.37233 0.42702 0.0
C1338 C 0.068 0.35839 0.40532 0.0
C1339 C 0.05525 0.34215 0.39837 0.0
C1340 C 0.08442 0.33008 0.45789 0.0
C1341 C 0.07549 0.34471 0.43206 0.0
C1342 C 0.09605 0.33084 0.47246 0.0
C1343 C 0.11003 0.34674 0.4783 0.0
C1344 C 0.0868 0.34534 0.44893 0.0
C1345 C 0.1116 0.36177 0.4696 0.0
C1346 C 0.07813 0.35972 0.42214 0.0
C1347 C 0.0527 0.32753 0.40911 0.0
N1348 N 0.10021 0.36069 0.4552 0.0
N1349 N 0.06278 0.32917 0.4253 0.0
H1350 H 0.06395 0.35467 0.28608 0.0
H1351 H 0.08096 0.29079 0.21739 0.0
H1352 H 0.03549 0.29941 0.29316 0.0
H1353 H 0.11076 0.3462 0.21404 0.0
H1354 H 0.06209 0.29329 0.24256 0.0
H1355 H 0.07911 0.35138 0.25724 0.0
C1356 C 0.06081 0.3418 0.28152 0.0
C1357 C 0.04851 0.3273 0.29223 0.0
C1358 C 0.0727 0.30489 0.23621 0.0
C1359 C 0.06598 0.32344 0.25907 0.0
C1360 C 0.0834 0.30347 0.22176 0.0
C1361 C 0.09755 0.31832 0.21374 0.0
C1362 C 0.07613 0.32127 0.24261 0.0
C1363 C 0.10019 0.33442 0.22008 0.0
C1364 C 0.0695 0.33994 0.265 0.0
C1365 C 0.04492 0.31096 0.28543 0.0
N1366 N 0.08965 0.33546 0.23418 0.0
N1367 N 0.05371 0.30948 0.26936 0.0
H1368 H 0.64437 0.70735 0.28679 0.0
H1369 H 0.70887 0.78707 0.21726 0.0
H1370 H 0.69949 0.73478 0.29514 0.0
H1371 H 0.6535 0.76183 0.21351 0.0
H1372 H 0.7061 0.76614 0.24312 0.0
H1373 H 0.64791 0.72534 0.25742 0.0
C1374 C 0.65725 0.7171 0.2824 0.0
C1375 C 0.67165 0.71962 0.29361 0.0
C1376 C 0.69457 0.76512 0.23652 0.0
C1377 C 0.67579 0.7404 0.25985 0.0
C1378 C 0.69614 0.77699 0.22168 0.0
C1379 C 0.68138 0.77628 0.21335 0.0
C1380 C 0.67812 0.75241 0.243 0.0
C1381 C 0.66522 0.76303 0.21976 0.0
C1382 C 0.65926 0.7274 0.26559 0.0
C1383 C 0.68802 0.73242 0.28704 0.0
N1384 N 0.66403 0.7517 0.23424 0.0
N1385 N 0.68964 0.7424 0.27066 0.0
H1386 H 0.29284 0.94127 0.28925 0.0
H1387 H 0.21365 0.9268 0.21956 0.0
H1388 H 0.26637 0.97006 0.297 0.0
H1389 H 0.2404 0.89818 0.2137 0.0
H1390 H 0.23448 0.94492 0.24553 0.0
H1391 H 0.27533 0.9274 0.2594 0.0
C1392 C 0.28338 0.94475 0.28463 0.0
C1393 C 0.28098 0.95676 0.2958 0.0
C1394 C 0.23586 0.93477 0.23843 0.0
C1395 C 0.26074 0.94079 0.26149 0.0
C1396 C 0.22405 0.9245 0.22352 0.0
C1397 C 0.2252 0.91085 0.21462 0.0
C1398 C 0.24892 0.93136 0.2444 0.0
C1399 C 0.23885 0.90836 0.22043 0.0
C1400 C 0.27337 0.93681 0.26753 0.0
C1401 C 0.26861 0.96082 0.28892 0.0
N1402 N 0.25008 0.91842 0.23501 0.0
N1403 N 0.25885 0.95275 0.27228 0.0
H1404 H 0.65887 0.94943 0.2835 0.0
H1405 H 0.71916 0.924 0.21992 0.0
H1406 H 0.71229 0.96857 0.29833 0.0
H1407 H 0.66472 0.90266 0.21 0.0
H1408 H 0.71825 0.9435 0.2456 0.0
H1409 H 0.66216 0.93537 0.25357 0.0
C1410 C 0.67135 0.95076 0.28041 0.0
C1411 C 0.68527 0.96004 0.29363 0.0
C1412 C 0.70655 0.93466 0.23765 0.0
C1413 C 0.68912 0.94379 0.25923 0.0
C1414 C 0.70709 0.92362 0.22293 0.0
C1415 C 0.69195 0.91159 0.21302 0.0
C1416 C 0.69078 0.93368 0.24233 0.0
C1417 C 0.67663 0.91154 0.21754 0.0
C1418 C 0.67323 0.94271 0.26326 0.0
C1419 C 0.70119 0.96147 0.28863 0.0
N1420 N 0.67643 0.92232 0.23192 0.0
N1421 N 0.70264 0.95327 0.27191 0.0
H1422 H 0.03501 0.7356 0.29491 0.0
H1423 H 0.1097 0.764 0.2117 0.0
H1424 H 0.06625 0.7117 0.28741 0.0
H1425 H 0.08021 0.7897 0.2194 0.0
H1426 H 0.09178 0.74294 0.23729 0.0
H1427 H 0.04933 0.75379 0.26531 0.0
C1428 C 0.04477 0.73408 0.28698 0.0
C1429 C 0.04952 0.72219 0.29379 0.0
C1430 C 0.08911 0.7531 0.23332 0.0
C1431 C 0.06595 0.74296 0.25994 0.0
C1432 C 0.09938 0.76516 0.21874 0.0
C1433 C 0.09656 0.77873 0.21357 0.0
C1434 C 0.07593 0.75463 0.24297 0.0
C1435 C 0.08279 0.77941 0.2229 0.0
C1436 C 0.05295 0.74448 0.27009 0.0
C1437 C 0.06224 0.72077 0.28286 0.0
N1438 N 0.07309 0.76763 0.2373 0.0
N1439 N 0.07004 0.73107 0.26659 0.0
H1440 H 0.29519 0.35058 0.28643 0.0
H1441 H 0.21369 0.2865 0.21936 0.0
H1442 H 0.26796 0.29545 0.29471 0.0
H1443 H 0.24244 0.34161 0.21144 0.0
H1444 H 0.23481 0.28891 0.24474 0.0
H1445 H 0.27733 0.347 0.25694 0.0
C1446 C 0.2855 0.33768 0.28199 0.0
C1447 C 0.28299 0.3233 0.29322 0.0
C1448 C 0.23656 0.30045 0.23731 0.0
C1449 C 0.26233 0.31909 0.25935 0.0
C1450 C 0.22457 0.29907 0.22274 0.0
C1451 C 0.2262 0.3139 0.21346 0.0
C1452 C 0.25027 0.31678 0.24257 0.0
C1453 C 0.24049 0.32987 0.21852 0.0
C1454 C 0.27529 0.33564 0.26509 0.0
C1455 C 0.27031 0.30691 0.28657 0.0
N1456 N 0.25187 0.33088 0.2328 0.0
N1457 N 0.26034 0.30525 0.27017 0.0
H1458 H 0.27199 0.30871 0.40545 0.0
H1459 H 0.25582 0.37196 0.47649 0.0
H1460 H 0.30113 0.3641 0.40024 0.0
H1461 H 0.22648 0.31653 0.47998 0.0
H1462 H 0.27445 0.36963 0.45085 0.0
H1463 H 0.25698 0.31161 0.4348 0.0
C1464 C 0.27531 0.32151 0.41052 0.0
C1465 C 0.28778 0.33618 0.40022 0.0
C1466 C 0.26401 0.35798 0.45735 0.0
C1467 C 0.27051 0.33959 0.43393 0.0
C1468 C 0.25345 0.35931 0.47208 0.0
C1469 C 0.23947 0.34442 0.48026 0.0
C1470 C 0.26059 0.34164 0.45078 0.0
C1471 C 0.23691 0.32836 0.47383 0.0
C1472 C 0.26671 0.32315 0.42732 0.0
C1473 C 0.29157 0.35242 0.40764 0.0
N1474 N 0.24728 0.3274 0.45942 0.0
N1475 N 0.28289 0.35368 0.42396 0.0
H1476 H 0.63991 0.92833 0.38962 0.0
H1477 H 0.67137 0.91125 0.49579 0.0
H1478 H 0.69064 0.96238 0.41353 0.0
H1479 H 0.63537 0.87004 0.45693 0.0
H1480 H 0.67523 0.93188 0.46919 0.0
H1481 H 0.63458 0.90861 0.418 0.0
C1482 C 0.64987 0.93174 0.40094 0.0
C1483 C 0.66579 0.94698 0.39916 0.0
C1484 C 0.66644 0.91831 0.46661 0.0
C1485 C 0.65968 0.92456 0.43169 0.0
C1486 C 0.66428 0.90646 0.48174 0.0
C1487 C 0.65312 0.88873 0.47868 0.0
C1488 C 0.65717 0.91248 0.44841 0.0
C1489 C 0.64393 0.88351 0.46026 0.0
C1490 C 0.64683 0.92045 0.41705 0.0
C1491 C 0.67824 0.95071 0.41424 0.0
N1492 N 0.64615 0.89532 0.44586 0.0
N1493 N 0.67491 0.93959 0.42992 0.0
H1494 H 0.07343 0.70268 0.39939 0.0
H1495 H 0.09374 0.77611 0.48209 0.0
H1496 H 0.04442 0.72902 0.40626 0.0
H1497 H 0.12288 0.74981 0.47747 0.0
H1498 H 0.07432 0.75729 0.45576 0.0
H1499 H 0.09051 0.71812 0.42932 0.0
C1500 C 0.07056 0.71159 0.40724 0.0
C1501 C 0.05755 0.71465 0.40017 0.0
C1502 C 0.08488 0.75551 0.46055 0.0
C1503 C 0.07703 0.73234 0.43435 0.0
C1504 C 0.09601 0.76631 0.47556 0.0
C1505 C 0.11003 0.76463 0.48185 0.0
C1506 C 0.08783 0.74296 0.45159 0.0
C1507 C 0.11218 0.7515 0.47311 0.0
C1508 C 0.08032 0.72041 0.42431 0.0
C1509 C 0.0544 0.72632 0.411 0.0
N1510 N 0.10129 0.74126 0.45827 0.0
N1511 N 0.0641 0.73477 0.42743 0.0
H1512 H 0.35143 0.0636 0.74394 0.0
H1513 H 0.28599 0.07234 0.8196 0.0
H1514 H 0.29639 0.02957 0.74208 0.0
H1515 H 0.34078 0.10765 0.81797 0.0
H1516 H 0.28951 0.05519 0.79296 0.0
H1517 H 0.34776 0.07831 0.77308 0.0
C1518 C 0.33856 0.05913 0.74972 0.0
C1519 C 0.32418 0.04537 0.74041 0.0
C1520 C 0.30076 0.06663 0.79855 0.0
C1521 C 0.31988 0.0623 0.77386 0.0
C1522 C 0.29875 0.07648 0.81369 0.0
C1523 C 0.3131 0.09149 0.82109 0.0
C1524 C 0.31723 0.07183 0.7907 0.0
C1525 C 0.32936 0.09607 0.81302 0.0
C1526 C 0.33647 0.06758 0.76638 0.0
C1527 C 0.30784 0.04015 0.74871 0.0
N1528 N 0.33095 0.08633 0.79826 0.0
N1529 N 0.30612 0.04868 0.76488 0.0
H1530 H 0.95744 0.25113 0.71801 0.0
H1531 H 0.92061 0.23819 0.83151 0.0
H1532 H 0.95266 0.29008 0.75131 0.0
H1533 H 0.90628 0.19569 0.79007 0.0
H1534 H 0.9379 0.25805 0.80456 0.0
H1535 H 0.94422 0.23135 0.74684 0.0
C1536 C 0.95382 0.25558 0.73146 0.0
C1537 C 0.95602 0.27222 0.73222 0.0
C1538 C 0.93105 0.24436 0.80145 0.0
C1539 C 0.94109 0.24981 0.76516 0.0
C1540 C 0.92107 0.23298 0.8168 0.0
C1541 C 0.9117 0.21516 0.81309 0.0
C1542 C 0.93189 0.23794 0.78225 0.0
C1543 C 0.91333 0.20925 0.7938 0.0
C1544 C 0.94621 0.24429 0.74783 0.0
C1545 C 0.95104 0.27732 0.74999 0.0
N1546 N 0.92315 0.22061 0.7791 0.0
N1547 N 0.94383 0.26617 0.76574 0.0
H1548 H 0.71711 0.65024 0.73932 0.0
H1549 H 0.79032 0.71821 0.81357 0.0
H1550 H 0.73827 0.70519 0.73413 0.0
H1551 H 0.77315 0.66382 0.81243 0.0
H1552 H 0.76973 0.7137 0.78654 0.0
H1553 H 0.73569 0.65499 0.76845 0.0
C1554 C 0.72561 0.66333 0.74435 0.0
C1555 C 0.72618 0.67734 0.73413 0.0
C1556 C 0.77043 0.70276 0.79231 0.0
C1557 C 0.74762 0.68289 0.7676 0.0
C1558 C 0.78223 0.70533 0.80768 0.0
C1559 C 0.78351 0.69138 0.81535 0.0
C1560 C 0.7598 0.68613 0.78454 0.0
C1561 C 0.77249 0.67494 0.8073 0.0
C1562 C 0.73626 0.66603 0.76101 0.0
C1563 C 0.73743 0.69399 0.74147 0.0
N1564 N 0.76117 0.6728 0.79234 0.0
N1565 N 0.74776 0.69631 0.75771 0.0
H1566 H 0.73567 0.68748 0.62301 0.0
H1567 H 0.74117 0.61992 0.5478 0.0
H1568 H 0.70249 0.63246 0.62828 0.0
H1569 H 0.77722 0.67458 0.54786 0.0
H1570 H 0.72533 0.62418 0.5755 0.0
H1571 H 0.74934 0.68291 0.59344 0.0
C1572 C 0.73119 0.67442 0.61792 0.0
C1573 C 0.71795 0.66032 0.62826 0.0
C1574 C 0.73666 0.63523 0.56934 0.0
C1575 C 0.73365 0.655 0.5943 0.0
C1576 C 0.74575 0.63281 0.55358 0.0
C1577 C 0.76057 0.64691 0.54541 0.0
C1578 C 0.74242 0.65187 0.577 0.0
C1579 C 0.76574 0.66334 0.55337 0.0
C1580 C 0.73904 0.67182 0.60101 0.0
C1581 C 0.71268 0.64371 0.62084 0.0
N1582 N 0.75672 0.66534 0.56871 0.0
N1583 N 0.72059 0.6415 0.60436 0.0
H1584 H 0.31061 0.05199 0.63977 0.0
H1585 H 0.3599 0.10117 0.53943 0.0
H1586 H 0.36016 0.05784 0.62472 0.0
H1587 H 0.32857 0.1157 0.57515 0.0
H1588 H 0.35737 0.08135 0.56665 0.0
H1589 H 0.31366 0.07088 0.61144 0.0
C1590 C 0.32208 0.05713 0.6304 0.0
C1591 C 0.33519 0.05339 0.63468 0.0
C1592 C 0.35106 0.08891 0.56836 0.0
C1593 C 0.33867 0.07495 0.60215 0.0
C1594 C 0.35254 0.1003 0.5529 0.0
C1595 C 0.34429 0.11011 0.55475 0.0
C1596 C 0.34102 0.08709 0.58559 0.0
C1597 C 0.33476 0.10813 0.57257 0.0
C1598 C 0.32383 0.06798 0.61432 0.0
C1599 C 0.34979 0.06048 0.62203 0.0
N1600 N 0.33329 0.09679 0.58716 0.0
N1601 N 0.35113 0.07091 0.60624 0.0
H1602 H 0.96069 0.28992 0.61182 0.0
H1603 H 0.86512 0.23884 0.57344 0.0
H1604 H 0.91972 0.29138 0.64469 0.0
H1605 H 0.90786 0.25774 0.53173 0.0
H1606 H 0.88465 0.25758 0.60004 0.0
H1607 H 0.94163 0.27775 0.58248 0.0
C1608 C 0.94771 0.28782 0.61279 0.0
C1609 C 0.94172 0.29154 0.63077 0.0
C1610 C 0.88973 0.25786 0.58499 0.0
C1611 C 0.91979 0.2774 0.59734 0.0
C1612 C 0.87861 0.24717 0.56987 0.0
C1613 C 0.88498 0.24682 0.55048 0.0
C1614 C 0.90739 0.26792 0.5808 0.0
C1615 C 0.90252 0.25775 0.54652 0.0
C1616 C 0.93688 0.28095 0.596 0.0
C1617 C 0.92484 0.28868 0.63113 0.0
N1618 N 0.91321 0.26768 0.56168 0.0
N1619 N 0.91435 0.28149 0.61477 0.0
H1620 H 0.36736 0.29613 0.63529 0.0
H1621 H 0.32064 0.22957 0.54412 0.0
H1622 H 0.3131 0.27211 0.62178 0.0
H1623 H 0.37464 0.2514 0.5576 0.0
H1624 H 0.31859 0.24772 0.57038 0.0
H1625 H 0.37121 0.28241 0.60497 0.0
C1626 C 0.35629 0.2881 0.6259 0.0
C1627 C 0.33985 0.28515 0.63123 0.0
C1628 C 0.33095 0.24868 0.56754 0.0
C1629 C 0.34417 0.26944 0.59656 0.0
C1630 C 0.3321 0.23828 0.55256 0.0
C1631 C 0.34778 0.23884 0.54884 0.0
C1632 C 0.34555 0.25968 0.57907 0.0
C1633 C 0.3623 0.2506 0.55998 0.0
C1634 C 0.3585 0.28026 0.6086 0.0
C1635 C 0.32599 0.27465 0.61843 0.0
N1636 N 0.3608 0.26043 0.57476 0.0
N1637 N 0.32846 0.26714 0.60181 0.0
H1638 H 0.69681 0.06251 0.62203 0.0
H1639 H 0.78774 0.12492 0.57353 0.0
H1640 H 0.74232 0.05948 0.63563 0.0
H1641 H 0.74191 0.10678 0.5369 0.0
H1642 H 0.77057 0.10484 0.60009 0.0
H1643 H 0.71249 0.08233 0.59384 0.0
C1644 C 0.71004 0.06597 0.61907 0.0
C1645 C 0.71829 0.05935 0.63118 0.0
C1646 C 0.76429 0.10523 0.5862 0.0
C1647 C 0.7362 0.08208 0.59947 0.0
C1648 C 0.77409 0.11662 0.5709 0.0
C1649 C 0.76639 0.11732 0.55259 0.0
C1650 C 0.74653 0.09464 0.58354 0.0
C1651 C 0.74844 0.10672 0.55069 0.0
C1652 C 0.71891 0.07719 0.603 0.0
C1653 C 0.73542 0.0642 0.62667 0.0
N1654 N 0.73908 0.09578 0.566 0.0
N1655 N 0.74385 0.0754 0.61134 0.0
H1656 H 0.91892 0.62693 0.6381 0.0
H1657 H 0.90693 0.65868 0.52898 0.0
H1658 H 0.95645 0.6753 0.61149 0.0
H1659 H 0.86398 0.62498 0.56734 0.0
H1660 H 0.92658 0.66083 0.55599 0.0
H1661 H 0.90002 0.62186 0.6088 0.0
C1662 C 0.92327 0.63637 0.62599 0.0
C1663 C 0.93923 0.65162 0.62729 0.0
C1664 C 0.91284 0.65289 0.55837 0.0
C1665 C 0.91779 0.64583 0.59378 0.0
C1666 C 0.90157 0.65172 0.54302 0.0
C1667 C 0.88365 0.64177 0.54583 0.0
C1668 C 0.90623 0.64387 0.57663 0.0
C1669 C 0.87762 0.63266 0.56423 0.0
C1670 C 0.91246 0.6335 0.60936 0.0
C1671 C 0.9442 0.66344 0.61119 0.0
N1672 N 0.88887 0.63396 0.57892 0.0
N1673 N 0.93353 0.6603 0.59511 0.0
H1674 H 0.93479 0.65046 0.73955 0.0
H1675 H 0.92747 0.71976 0.80944 0.0
H1676 H 0.96401 0.70508 0.72758 0.0
H1677 H 0.89238 0.66492 0.81185 0.0
H1678 H 0.94296 0.7151 0.78163 0.0
H1679 H 0.92144 0.65605 0.76855 0.0
C1680 C 0.93847 0.66368 0.74303 0.0
C1681 C 0.95051 0.67731 0.73096 0.0
C1682 C 0.93191 0.70412 0.78835 0.0
C1683 C 0.93511 0.68381 0.76438 0.0
C1684 C 0.923 0.70675 0.80418 0.0
C1685 C 0.90857 0.69271 0.81315 0.0
C1686 C 0.92641 0.68732 0.78147 0.0
C1687 C 0.90359 0.67614 0.8058 0.0
C1688 C 0.93078 0.66685 0.75963 0.0
C1689 C 0.95475 0.69416 0.73639 0.0
N1690 N 0.91246 0.67394 0.79045 0.0
N1691 N 0.94703 0.69694 0.7527 0.0
H1692 H 0.34435 0.29066 0.75125 0.0
H1693 H 0.292 0.19655 0.7959 0.0
H1694 H 0.29452 0.25348 0.72765 0.0
H1695 H 0.32711 0.23983 0.83291 0.0
H1696 H 0.29381 0.21656 0.76963 0.0
H1697 H 0.33965 0.27163 0.78014 0.0
C1698 C 0.33238 0.27853 0.75221 0.0
C1699 C 0.31982 0.27361 0.737 0.0
C1700 C 0.30099 0.22164 0.7836 0.0
C1701 C 0.31449 0.25171 0.76985 0.0
C1702 C 0.29991 0.21022 0.79872 0.0
C1703 C 0.30947 0.21641 0.81679 0.0
C1704 C 0.31194 0.23938 0.78631 0.0
C1705 C 0.31979 0.23434 0.81914 0.0
C1706 C 0.32969 0.26771 0.76873 0.0
C1707 C 0.30452 0.25778 0.73906 0.0
N1708 N 0.32089 0.24517 0.80401 0.0
N1709 N 0.30237 0.24728 0.75506 0.0
H1710 H 0.71424 0.06602 0.74074 0.0
H1711 H 0.78849 0.07295 0.81445 0.0
H1712 H 0.73588 0.03256 0.73604 0.0
H1713 H 0.77011 0.10924 0.81385 0.0
H1714 H 0.76766 0.05635 0.78783 0.0
H1715 H 0.73271 0.08012 0.76994 0.0
C1716 C 0.7228 0.06155 0.74591 0.0
C1717 C 0.72357 0.04814 0.73579 0.0
C1718 C 0.76814 0.0679 0.79364 0.0
C1719 C 0.74488 0.06434 0.76928 0.0
C1720 C 0.78008 0.07743 0.80878 0.0
C1721 C 0.7811 0.09255 0.81646 0.0
C1722 C 0.75712 0.07352 0.7861 0.0
C1723 C 0.76967 0.09756 0.80869 0.0
C1724 C 0.73338 0.06964 0.7626 0.0
C1725 C 0.73489 0.04289 0.74329 0.0
N1726 N 0.75823 0.08812 0.79393 0.0
N1727 N 0.74516 0.05106 0.75952 0.0
H1728 H 0.06575 0.37938 0.058 0.0
H1729 H 0.09951 0.31342 0.0673 0.0
H1730 H 0.0393 0.33078 0.02624 0.0
H1731 H 0.09903 0.34394 0.11806 0.0
H1732 H 0.08132 0.32176 0.04824 0.0
H1733 H 0.083 0.3694 0.07574 0.0
C1734 C 0.06369 0.36666 0.05457 0.0
C1735 C 0.05103 0.35587 0.04064 0.0
C1736 C 0.08524 0.32654 0.06358 0.0
C1737 C 0.07084 0.34443 0.0609 0.0
C1738 C 0.09554 0.32173 0.07456 0.0
C1739 C 0.10109 0.32812 0.09435 0.0
C1740 C 0.08076 0.33806 0.07228 0.0
C1741 C 0.09563 0.33907 0.1027 0.0
C1742 C 0.07347 0.36095 0.06483 0.0
C1743 C 0.04889 0.33947 0.03692 0.0
N1744 N 0.08597 0.34382 0.09155 0.0
N1745 N 0.05878 0.33424 0.04695 0.0
H1746 H 0.67451 0.7034 0.03288 0.0
H1747 H 0.64446 0.76426 0.08668 0.0
H1748 H 0.62232 0.69389 0.03289 0.0
H1749 H 0.69743 0.77629 0.08499 0.0
H1750 H 0.63662 0.73918 0.0653 0.0
H1751 H 0.68377 0.73106 0.04985 0.0
C1752 C 0.66504 0.70722 0.0362 0.0
C1753 C 0.64759 0.69625 0.03158 0.0
C1754 C 0.64999 0.74731 0.0695 0.0
C1755 C 0.65805 0.72775 0.05113 0.0
C1756 C 0.65445 0.76158 0.08184 0.0
C1757 C 0.6716 0.77229 0.08783 0.0
C1758 C 0.66273 0.74356 0.06311 0.0
C1759 C 0.68406 0.7684 0.0807 0.0
C1760 C 0.67033 0.72298 0.04595 0.0
C1761 C 0.63589 0.70185 0.03627 0.0
N1762 N 0.67936 0.75427 0.06884 0.0
N1763 N 0.64131 0.71711 0.04589 0.0
H1764 H 0.30022 0.97598 0.03762 0.0
H1765 H 0.23621 0.88454 0.08738 0.0
H1766 H 0.30705 0.93165 0.03413 0.0
H1767 H 0.22602 0.92677 0.0876 0.0
H1768 H 0.26144 0.90144 0.06615 0.0
H1769 H 0.27216 0.95802 0.05387 0.0
C1770 C 0.29574 0.96244 0.04003 0.0
C1771 C 0.30607 0.95534 0.03465 0.0
C1772 C 0.25369 0.90704 0.07072 0.0
C1773 C 0.2741 0.93479 0.05336 0.0
C1774 C 0.23932 0.89742 0.08296 0.0
C1775 C 0.22912 0.90434 0.08947 0.0
C1776 C 0.25805 0.92383 0.065 0.0
C1777 C 0.23354 0.92095 0.08291 0.0
C1778 C 0.27974 0.95221 0.04935 0.0
C1779 C 0.2996 0.93773 0.03814 0.0
N1780 N 0.24779 0.93021 0.07118 0.0
N1781 N 0.28413 0.92812 0.0474 0.0
H1782 H 0.36998 0.0688 0.01139 0.0
H1783 H 0.31079 0.07422 0.92689 0.0
H1784 H 0.3263 0.02306 0.98739 0.0
H1785 H 0.33718 0.11476 0.97117 0.0
H1786 H 0.31706 0.0554 0.94757 0.0
H1787 H 0.35918 0.08625 0.9956 0.0
C1788 C 0.358 0.06242 1.003 0.0
C1789 C 0.34903 0.04447 1.00065 0.0
C1790 C 0.32132 0.06838 0.9528 0.0
C1791 C 0.33681 0.06436 0.9822 0.0
C1792 C 0.3177 0.07915 0.94105 0.0
C1793 C 0.32359 0.09626 0.9471 0.0
C1794 C 0.33115 0.07479 0.97057 0.0
C1795 C 0.33275 0.10188 0.9655 0.0
C1796 C 0.35183 0.07237 0.99402 0.0
C1797 C 0.33357 0.03686 0.98963 0.0
N1798 N 0.33641 0.09126 0.97643 0.0
N1799 N 0.32807 0.04687 0.98051 0.0
H1800 H 0.93561 0.30481 0.99821 0.0
H1801 H 0.92977 0.2369 0.91807 0.0
H1802 H 0.98117 0.30352 0.97984 0.0
H1803 H 0.8888 0.22507 0.96108 0.0
H1804 H 0.94876 0.26236 0.93825 0.0
H1805 H 0.91786 0.27664 0.98236 0.0
C1806 C 0.94186 0.2985 0.99099 0.0
C1807 C 0.95985 0.30646 0.99031 0.0
C1808 C 0.93564 0.25406 0.94328 0.0
C1809 C 0.93967 0.27445 0.9718 0.0
C1810 C 0.92476 0.23947 0.93182 0.0
C1811 C 0.90749 0.22881 0.93765 0.0
C1812 C 0.92914 0.2582 0.9605 0.0
C1813 C 0.9018 0.23308 0.95554 0.0
C1814 C 0.93174 0.28243 0.982 0.0
C1815 C 0.96732 0.29773 0.98078 0.0
N1816 N 0.91251 0.24753 0.96615 0.0
N1817 N 0.95718 0.28227 0.97157 0.0
H1818 H 0.70104 0.67793 0.99051 0.0
H1819 H 0.76308 0.65041 0.93488 0.0
H1820 H 0.69194 0.62591 0.98765 0.0
H1821 H 0.77784 0.7036 0.9453 0.0
H1822 H 0.73658 0.64156 0.95361 0.0
H1823 H 0.72899 0.688 0.97382 0.0
C1824 C 0.70497 0.66866 0.98656 0.0
C1825 C 0.69409 0.65104 0.99042 0.0
C1826 C 0.74561 0.65519 0.95191 0.0
C1827 C 0.72588 0.66243 0.97118 0.0
C1828 C 0.76084 0.66027 0.94127 0.0
C1829 C 0.77287 0.6778 0.93866 0.0
C1830 C 0.74217 0.66768 0.95997 0.0
C1831 C 0.76892 0.68994 0.94682 0.0
C1832 C 0.72089 0.67441 0.977 0.0
C1833 C 0.69983 0.6396 0.98493 0.0
N1834 N 0.7539 0.68465 0.95713 0.0
N1835 N 0.71524 0.64548 0.97551 0.0
H1836 H 0.97821 0.68097 0.99322 0.0
H1837 H 0.88976 0.6518 0.93484 0.0
H1838 H 0.93568 0.62878 0.99094 0.0
H1839 H 0.92683 0.70528 0.94582 0.0
H1840 H 0.90737 0.64353 0.95453 0.0
H1841 H 0.96036 0.69061 0.97563 0.0
C1842 C 0.96509 0.67157 0.98924 0.0
C1843 C 0.95846 0.65402 0.99349 0.0
C1844 C 0.91167 0.65709 0.95275 0.0
C1845 C 0.93813 0.66491 0.97319 0.0
C1846 C 0.90156 0.66184 0.94153 0.0
C1847 C 0.90668 0.67928 0.93884 0.0
C1848 C 0.92719 0.66983 0.96129 0.0
C1849 C 0.92241 0.69169 0.94741 0.0
C1850 C 0.95494 0.67708 0.97915 0.0
C1851 C 0.94139 0.64242 0.98793 0.0
N1852 N 0.93212 0.68672 0.95828 0.0
N1853 N 0.9319 0.64806 0.97798 0.0
H1854 H 0.38126 0.31625 0.98566 0.0
H1855 H 0.30444 0.22582 0.94627 0.0
H1856 H 0.32778 0.30221 0.99041 0.0
H1857 H 0.35826 0.24462 0.93397 0.0
H1858 H 0.31235 0.25255 0.96465 0.0
H1859 H 0.37266 0.28861 0.96963 0.0
C1860 C 0.36767 0.30729 0.98348 0.0
C1861 C 0.35523 0.31161 0.98932 0.0
C1862 C 0.3224 0.25077 0.95794 0.0
C1863 C 0.34526 0.27986 0.97075 0.0
C1864 C 0.3179 0.23556 0.94733 0.0
C1865 C 0.3307 0.23289 0.93856 0.0
C1866 C 0.33983 0.2634 0.95986 0.0
C1867 C 0.34795 0.24591 0.94073 0.0
C1868 C 0.36277 0.29151 0.97423 0.0
C1869 C 0.33781 0.29943 0.98612 0.0
N1870 N 0.35198 0.26054 0.95115 0.0
N1871 N 0.33334 0.28412 0.97696 0.0
H1872 H 0.70106 0.06759 0.00722 0.0
H1873 H 0.76604 0.07408 0.92196 0.0
H1874 H 0.70018 0.02233 0.9832 0.0
H1875 H 0.77963 0.11464 0.96614 0.0
H1876 H 0.74099 0.05516 0.94263 0.0
H1877 H 0.729 0.08552 0.99084 0.0
C1878 C 0.70685 0.06143 0.99869 0.0
C1879 C 0.6983 0.04346 0.99654 0.0
C1880 C 0.74957 0.06818 0.94783 0.0
C1881 C 0.73004 0.06389 0.97742 0.0
C1882 C 0.76395 0.07902 0.93608 0.0
C1883 C 0.77505 0.09614 0.94213 0.0
C1884 C 0.74601 0.07453 0.96561 0.0
C1885 C 0.7713 0.10174 0.96047 0.0
C1886 C 0.72279 0.07165 0.98938 0.0
C1887 C 0.70639 0.03614 0.98531 0.0
N1888 N 0.75703 0.09105 0.97141 0.0
N1889 N 0.7217 0.0464 0.9759 0.0
H1890 H 0.63534 0.93127 0.02035 0.0
H1891 H 0.69075 0.92754 0.11031 0.0
H1892 H 0.67651 0.97786 0.04639 0.0
H1893 H 0.67221 0.88908 0.06302 0.0
H1894 H 0.68388 0.9457 0.08883 0.0
H1895 H 0.64685 0.91477 0.03722 0.0
C1896 C 0.64692 0.93804 0.02942 0.0
C1897 C 0.65499 0.95594 0.03201 0.0
C1898 C 0.68152 0.93338 0.08307 0.0
C1899 C 0.66792 0.93715 0.05167 0.0
C1900 C 0.68538 0.92304 0.0953 0.0
C1901 C 0.68205 0.90688 0.08832 0.0
C1902 C 0.67386 0.92728 0.06397 0.0
C1903 C 0.67504 0.90153 0.06883 0.0
C1904 C 0.65348 0.92864 0.03899 0.0
C1905 C 0.66995 0.96408 0.04393 0.0
N1906 N 0.67092 0.91161 0.05742 0.0
N1907 N 0.67578 0.95459 0.05362 0.0
H1908 H 0.0348 0.70994 0.026 0.0
H1909 H 0.09874 0.75634 0.1168 0.0
H1910 H 0.06719 0.69151 0.05082 0.0
H1911 H 0.09477 0.78725 0.06902 0.0
H1912 H 0.08171 0.73072 0.09631 0.0
H1913 H 0.05188 0.73717 0.04474 0.0
C1914 C 0.04555 0.71166 0.03523 0.0
C1915 C 0.04962 0.69848 0.03684 0.0
C1916 C 0.08459 0.74314 0.09036 0.0
C1917 C 0.06868 0.72912 0.05854 0.0
C1918 C 0.09442 0.75784 0.10198 0.0
C1919 C 0.09862 0.77417 0.09454 0.0
C1920 C 0.07848 0.74459 0.07131 0.0
C1921 C 0.09188 0.775 0.0755 0.0
C1922 C 0.05524 0.72714 0.04585 0.0
C1923 C 0.06364 0.70134 0.04903 0.0
N1924 N 0.08211 0.7604 0.06451 0.0
N1925 N 0.0725 0.71624 0.05962 0.0
H1926 H 0.29783 0.36806 0.01975 0.0
H1927 H 0.24083 0.31093 0.10948 0.0
H1928 H 0.30519 0.32739 0.04359 0.0
H1929 H 0.21901 0.32795 0.06286 0.0
H1930 H 0.26565 0.31836 0.08723 0.0
H1931 H 0.26974 0.35516 0.0367 0.0
C1932 C 0.29341 0.35628 0.02833 0.0
C1933 C 0.30381 0.34876 0.03031 0.0
C1934 C 0.2553 0.32022 0.08177 0.0
C1935 C 0.272 0.33425 0.0501 0.0
C1936 C 0.24123 0.31605 0.09445 0.0
C1937 C 0.22795 0.31883 0.08787 0.0
C1938 C 0.25627 0.32767 0.06269 0.0
C1939 C 0.229 0.32555 0.06835 0.0
C1940 C 0.2774 0.34892 0.03794 0.0
C1941 C 0.29751 0.33352 0.04161 0.0
N1942 N 0.24309 0.33003 0.05653 0.0
N1943 N 0.28213 0.32693 0.05144 0.0
H1944 H 0.73407 0.70461 0.357 0.0
H1945 H 0.74067 0.64426 0.43909 0.0
H1946 H 0.68883 0.65895 0.3784 0.0
H1947 H 0.78124 0.67215 0.39525 0.0
H1948 H 0.7217 0.65075 0.41904 0.0
H1949 H 0.75207 0.69448 0.37289 0.0
C1950 C 0.72793 0.69237 0.36488 0.0
C1951 C 0.70995 0.6826 0.3664 0.0
C1952 C 0.73473 0.65532 0.41379 0.0
C1953 C 0.73044 0.67114 0.38496 0.0
C1954 C 0.7456 0.65156 0.42517 0.0
C1955 C 0.76275 0.65776 0.41904 0.0
C1956 C 0.74109 0.66559 0.39633 0.0
C1957 C 0.76834 0.66745 0.40099 0.0
C1958 C 0.7382 0.68659 0.3739 0.0
C1959 C 0.70265 0.66683 0.37679 0.0
N1960 N 0.75762 0.67123 0.39043 0.0
N1961 N 0.71294 0.66169 0.38595 0.0
H1962 H 0.30345 0.03773 0.3558 0.0
H1963 H 0.3562 0.0954 0.44743 0.0
H1964 H 0.34365 0.03137 0.38304 0.0
H1965 H 0.34022 0.11648 0.39886 0.0
H1966 H 0.35028 0.07076 0.42556 0.0
H1967 H 0.31519 0.06582 0.37252 0.0
C1968 C 0.31489 0.04237 0.36508 0.0
C1969 C 0.3226 0.03225 0.36809 0.0
C1970 C 0.34833 0.08092 0.4196 0.0
C1971 C 0.33578 0.06406 0.3876 0.0
C1972 C 0.35165 0.09488 0.43205 0.0
C1973 C 0.34872 0.10788 0.4248 0.0
C1974 C 0.34157 0.07977 0.40004 0.0
C1975 C 0.34272 0.10669 0.40486 0.0
C1976 C 0.32159 0.05838 0.37456 0.0
C1977 C 0.33739 0.03883 0.38027 0.0
N1978 N 0.33906 0.0927 0.39324 0.0
N1979 N 0.34333 0.05421 0.38992 0.0
H1980 H 0.975 0.26528 0.36531 0.0
H1981 H 0.89116 0.25887 0.41754 0.0
H1982 H 0.96528 0.30783 0.36688 0.0
H1983 H 0.90621 0.22019 0.42259 0.0
H1984 H 0.91624 0.27585 0.3956 0.0
H1985 H 0.94768 0.24738 0.3825 0.0
C1986 C 0.96703 0.27083 0.36909 0.0
C1987 C 0.97252 0.28814 0.36477 0.0
C1988 C 0.914 0.26362 0.40148 0.0
C1989 C 0.94116 0.26767 0.38473 0.0
C1990 C 0.89968 0.25391 0.41393 0.0
C1991 C 0.89669 0.23817 0.42206 0.0
C1992 C 0.9253 0.25746 0.397 0.0
C1993 C 0.90817 0.23239 0.41696 0.0
C1994 C 0.95143 0.2606 0.379 0.0
C1995 C 0.96157 0.29457 0.36997 0.0
N1996 N 0.92194 0.24203 0.40481 0.0
N1997 N 0.94645 0.28436 0.37983 0.0
H1998 H 0.99433 0.36804 0.33541 0.0
H1999 H 0.00893 0.42758 0.24125 0.0
H2000 H 0.04423 0.39754 0.30716 0.0
H2001 H 0.98006 0.43033 0.29253 0.0
H2002 H 0.01757 0.41064 0.26183 0.0
H2003 H 0.98454 0.38544 0.31671 0.0
C2004 C 0.00322 0.37822 0.32542 0.0
C2005 C 0.02013 0.38143 0.32287 0.0
C2006 C 0.00931 0.41497 0.26849 0.0
C2007 C 0.00891 0.40079 0.3012 0.0
C2008 C 0.00444 0.42478 0.25682 0.0
C2009 C 0.99395 0.43081 0.26515 0.0
C2010 C 0.00332 0.41066 0.2885 0.0
C2011 C 0.98803 0.42595 0.28527 0.0
C2012 C 0.99764 0.3881 0.31483 0.0
C2013 C 0.03114 0.39472 0.3097 0.0
N2014 N 0.99275 0.41611 0.29626 0.0
N2015 N 0.02526 0.40374 0.29914 0.0
H2016 H 0.59771 0.63106 0.33937 0.0
H2017 H 0.59396 0.57108 0.25062 0.0
H2018 H 0.64445 0.63563 0.31471 0.0
H2019 H 0.55526 0.55184 0.29762 0.0
H2020 H 0.61239 0.5959 0.27231 0.0
H2021 H 0.58126 0.60283 0.32302 0.0
C2022 C 0.60451 0.626 0.33073 0.0
C2023 C 0.62244 0.63566 0.32834 0.0
C2024 C 0.59998 0.58611 0.27799 0.0
C2025 C 0.60371 0.60368 0.30925 0.0
C2026 C 0.5895 0.57204 0.26563 0.0
C2027 C 0.57319 0.5595 0.27248 0.0
C2028 C 0.59385 0.58784 0.29702 0.0
C2029 C 0.56783 0.56125 0.29195 0.0
C2030 C 0.59514 0.60991 0.32146 0.0
C2031 C 0.63064 0.62854 0.31699 0.0
N2032 N 0.57803 0.57534 0.30346 0.0
N2033 N 0.62117 0.61309 0.30752 0.0
H2034 H 0.35845 0.95581 0.32932 0.0
H2035 H 0.44542 0.02991 0.27905 0.0
H2036 H 0.37097 0.00897 0.32731 0.0
H2037 H 0.42649 0.97542 0.27245 0.0
H2038 H 0.41985 0.02326 0.29936 0.0
H2039 H 0.3854 0.96367 0.31203 0.0
C2040 C 0.36695 0.9692 0.32542 0.0
C2041 C 0.36237 0.98173 0.32968 0.0
C2042 C 0.42137 0.0128 0.29349 0.0
C2043 C 0.39331 0.99082 0.30959 0.0
C2044 C 0.4359 0.01657 0.28178 0.0
C2045 C 0.43821 0.00321 0.27406 0.0
C2046 C 0.4091 0.99556 0.29756 0.0
C2047 C 0.42551 0.98617 0.27836 0.0
C2048 C 0.38233 0.97366 0.31543 0.0
C2049 C 0.37397 0.99888 0.32429 0.0
N2050 N 0.41158 0.98287 0.28979 0.0
N2051 N 0.38889 0.00292 0.3144 0.0
H2052 H 0.6052 0.95709 0.32654 0.0
H2053 H 0.59045 0.03053 0.27783 0.0
H2054 H 0.6446 0.01071 0.32621 0.0
H2055 H 0.55552 0.97592 0.2714 0.0
H2056 H 0.60966 0.02423 0.29794 0.0
H2057 H 0.58571 0.96455 0.30965 0.0
C2058 C 0.60972 0.97049 0.32309 0.0
C2059 C 0.62662 0.98328 0.32769 0.0
C2060 C 0.59775 0.01366 0.29216 0.0
C2061 C 0.60431 0.99194 0.30804 0.0
C2062 C 0.58683 0.01723 0.28056 0.0
C2063 C 0.57127 0.00374 0.27295 0.0
C2064 C 0.59306 0.99648 0.29619 0.0
C2065 C 0.56718 0.98677 0.27723 0.0
C2066 C 0.59858 0.97474 0.31334 0.0
C2067 C 0.63169 1.00044 0.32291 0.0
N2068 N 0.57797 0.98365 0.28853 0.0
N2069 N 0.6206 0.00427 0.3132 0.0
H2070 H 0.99649 0.6287 0.3353 0.0
H2071 H 0.01456 0.58224 0.24454 0.0
H2072 H 0.04736 0.64728 0.31047 0.0
H2073 H 0.97865 0.55162 0.29174 0.0
H2074 H 0.02344 0.60784 0.26523 0.0
H2075 H 0.98653 0.60152 0.31653 0.0
C2076 C 0.00556 0.62702 0.32607 0.0
C2077 C 0.02278 0.64024 0.32447 0.0
C2078 C 0.01362 0.59548 0.27102 0.0
C2079 C 0.01141 0.60961 0.30271 0.0
C2080 C 0.00859 0.58078 0.25928 0.0
C2081 C 0.99601 0.56453 0.26646 0.0
C2082 C 0.0058 0.59413 0.28992 0.0
C2083 C 0.9883 0.56379 0.28542 0.0
C2084 C 0.99988 0.61155 0.31542 0.0
C2085 C 0.034 0.63742 0.31225 0.0
N2086 N 0.99329 0.5784 0.2965 0.0
N2087 N 0.02807 0.62252 0.30165 0.0
H2088 H 0.36128 0.40197 0.33058 0.0
H2089 H 0.44508 0.41224 0.2739 0.0
H2090 H 0.37236 0.36047 0.32512 0.0
H2091 H 0.43079 0.4516 0.27628 0.0
H2092 H 0.42035 0.39396 0.29568 0.0
H2093 H 0.3886 0.42121 0.31408 0.0
C2094 C 0.36955 0.39693 0.3261 0.0
C2095 C 0.36445 0.37953 0.32911 0.0
C2096 C 0.42269 0.40662 0.2915 0.0
C2097 C 0.3958 0.40153 0.30992 0.0
C2098 C 0.43683 0.41708 0.27913 0.0
C2099 C 0.43991 0.4334 0.27308 0.0
C2100 C 0.41162 0.41258 0.29794 0.0
C2101 C 0.42874 0.43899 0.28023 0.0
C2102 C 0.38516 0.40793 0.3166 0.0
C2103 C 0.37577 0.37378 0.32306 0.0
N2104 N 0.4151 0.42859 0.29219 0.0
N2105 N 0.39086 0.38472 0.31358 0.0
H2106 H 0.34568 0.31164 0.38059 0.0
H2107 H 0.34044 0.22083 0.39643 0.0
H2108 H 0.30578 0.26478 0.35353 0.0
H2109 H 0.35646 0.25881 0.4441 0.0
H2110 H 0.33462 0.23954 0.37446 0.0
H2111 H 0.35681 0.29489 0.39781 0.0
C2112 C 0.3395 0.2979 0.37793 0.0
C2113 C 0.32474 0.28953 0.36574 0.0
C2114 C 0.33963 0.24384 0.38964 0.0
C2115 C 0.33744 0.27046 0.38515 0.0
C2116 C 0.34301 0.23325 0.40208 0.0
C2117 C 0.34887 0.23836 0.42201 0.0
C2118 C 0.34249 0.25974 0.39711 0.0
C2119 C 0.35189 0.25447 0.42879 0.0
C2120 C 0.34578 0.28838 0.38785 0.0
C2121 C 0.31712 0.27168 0.36293 0.0
N2122 N 0.34868 0.26464 0.41634 0.0
N2123 N 0.32356 0.26272 0.37258 0.0
H2124 H 0.74244 0.03784 0.358 0.0
H2125 H 0.7437 0.09939 0.44359 0.0
H2126 H 0.69497 0.03274 0.38089 0.0
H2127 H 0.78299 0.11804 0.39728 0.0
H2128 H 0.72597 0.07377 0.42267 0.0
H2129 H 0.75824 0.06636 0.37383 0.0
C2130 C 0.73534 0.04282 0.36618 0.0
C2131 C 0.71739 0.03295 0.36818 0.0
C2132 C 0.73836 0.0836 0.41697 0.0
C2133 C 0.73539 0.0653 0.38666 0.0
C2134 C 0.74844 0.09813 0.42888 0.0
C2135 C 0.76471 0.11075 0.422 0.0
C2136 C 0.74485 0.0815 0.39838 0.0
C2137 C 0.77043 0.10858 0.40296 0.0
C2138 C 0.74435 0.05908 0.37514 0.0
C2139 C 0.70881 0.03999 0.37892 0.0
N2140 N 0.76062 0.09407 0.3919 0.0
N2141 N 0.71792 0.05564 0.38809 0.0
H2142 H 0.96663 0.65835 0.368 0.0
H2143 H 0.91004 0.69062 0.42732 0.0
H2144 H 0.97838 0.71126 0.37046 0.0
H2145 H 0.89149 0.63683 0.41506 0.0
H2146 H 0.93568 0.69806 0.40738 0.0
H2147 H 0.93932 0.64975 0.38559 0.0
C2148 C 0.9634 0.66812 0.37202 0.0
C2149 C 0.97485 0.68556 0.36782 0.0
C2150 C 0.92599 0.68461 0.40896 0.0
C2151 C 0.94384 0.67587 0.38813 0.0
C2152 C 0.91127 0.68034 0.42031 0.0
C2153 C 0.89844 0.66306 0.42277 0.0
C2154 C 0.92811 0.67153 0.40006 0.0
C2155 C 0.90108 0.65032 0.41373 0.0
C2156 C 0.94785 0.66322 0.38211 0.0
C2157 C 0.97002 0.69768 0.37343 0.0
N2158 N 0.91563 0.65481 0.40277 0.0
N2159 N 0.95498 0.69262 0.3834 0.0
H2160 H 0.36002 0.99166 0.70646 0.0
H2161 H 0.45365 0.02584 0.75398 0.0
H2162 H 0.40153 0.04427 0.70271 0.0
H2163 H 0.41393 0.9724 0.75549 0.0
H2164 H 0.43496 0.03228 0.73346 0.0
H2165 H 0.3798 0.98371 0.72232 0.0
C2166 C 0.37332 0.00149 0.70873 0.0
C2167 C 0.37909 0.01868 0.70337 0.0
C2168 C 0.43031 0.01912 0.73817 0.0
C2169 C 0.40172 0.00971 0.72165 0.0
C2170 C 0.44095 0.01545 0.75001 0.0
C2171 C 0.43527 0.99859 0.75666 0.0
C2172 C 0.41374 0.00586 0.73297 0.0
C2173 C 0.41883 0.98558 0.75066 0.0
C2174 C 0.3846 0.99695 0.71784 0.0
C2175 C 0.39646 0.03088 0.70669 0.0
N2176 N 0.40857 0.9895 0.73929 0.0
N2177 N 0.40709 0.02618 0.71573 0.0
H2178 H 0.95737 0.34862 0.73245 0.0
H2179 H 0.01884 0.44914 0.73605 0.0
H2180 H 0.00316 0.3721 0.69519 0.0
H2181 H 0.99472 0.41928 0.79013 0.0
H2182 H 0.01064 0.42234 0.71767 0.0
H2183 H 0.9676 0.37596 0.75023 0.0
C2184 C 0.96952 0.35958 0.72788 0.0
C2185 C 0.97945 0.35811 0.71232 0.0
C2186 C 0.00725 0.42179 0.73359 0.0
C2187 C 0.99112 0.38944 0.73255 0.0
C2188 C 0.01199 0.43707 0.74419 0.0
C2189 C 0.00736 0.43662 0.76476 0.0
C2190 C 0.9975 0.40595 0.74347 0.0
C2191 C 0.99819 0.42042 0.7742 0.0
C2192 C 0.97539 0.37512 0.73814 0.0
C2193 C 0.99516 0.37272 0.70716 0.0
N2194 N 0.9934 0.40578 0.76344 0.0
N2195 N 1.00049 0.38788 0.71716 0.0
H2196 H 0.64606 0.59958 0.70413 0.0
H2197 H 0.55829 0.59066 0.74695 0.0
H2198 H 0.63527 0.64142 0.70225 0.0
H2199 H 0.57536 0.55407 0.75805 0.0
H2200 H 0.58497 0.60863 0.72801 0.0
H2201 H 0.61838 0.58162 0.72051 0.0
C2202 C 0.6378 0.60497 0.70701 0.0
C2203 C 0.64306 0.62208 0.70189 0.0
C2204 C 0.5828 0.59664 0.73457 0.0
C2205 C 0.61125 0.60153 0.72089 0.0
C2206 C 0.56763 0.58641 0.74549 0.0
C2207 C 0.56447 0.57074 0.75405 0.0
C2208 C 0.59487 0.59112 0.73214 0.0
C2209 C 0.577 0.56584 0.75141 0.0
C2210 C 0.62199 0.5947 0.71647 0.0
C2211 C 0.63175 0.62831 0.70598 0.0
N2212 N 0.59157 0.57595 0.7407 0.0
N2213 N 0.61638 0.61805 0.71533 0.0
H2214 H 0.66269 0.69018 0.64867 0.0
H2215 H 0.67696 0.78438 0.62966 0.0
H2216 H 0.70701 0.73647 0.67052 0.0
H2217 H 0.64918 0.7425 0.58738 0.0
H2218 H 0.68324 0.76557 0.65021 0.0
H2219 H 0.6526 0.70797 0.63179 0.0
C2220 C 0.67012 0.70406 0.65021 0.0
C2221 C 0.68575 0.7119 0.6609 0.0
C2222 C 0.6757 0.76051 0.63647 0.0
C2223 C 0.67428 0.73218 0.64181 0.0
C2224 C 0.6722 0.77127 0.6246 0.0
C2225 C 0.66276 0.76518 0.60645 0.0
C2226 C 0.66951 0.74341 0.63042 0.0
C2227 C 0.65643 0.74782 0.60123 0.0
C2228 C 0.66443 0.71416 0.64047 0.0
C2229 C 0.69496 0.72992 0.66231 0.0
N2230 N 0.65997 0.73756 0.61312 0.0
N2231 N 0.68909 0.73945 0.65287 0.0
H2232 H 0.31121 0.97107 0.65113 0.0
H2233 H 0.22059 0.88528 0.63641 0.0
H2234 H 0.26473 0.96378 0.67987 0.0
H2235 H 0.25773 0.90741 0.58791 0.0
H2236 H 0.23938 0.90998 0.65814 0.0
H2237 H 0.29427 0.94339 0.63352 0.0
C2238 C 0.29751 0.96348 0.65405 0.0
C2239 C 0.28931 0.96972 0.66687 0.0
C2240 C 0.24347 0.90929 0.64281 0.0
C2241 C 0.27001 0.93816 0.64701 0.0
C2242 C 0.23284 0.89523 0.6305 0.0
C2243 C 0.23768 0.89445 0.61041 0.0
C2244 C 0.25917 0.9224 0.63506 0.0
C2245 C 0.25358 0.90767 0.60332 0.0
C2246 C 0.28787 0.9478 0.64391 0.0
C2247 C 0.27151 0.95946 0.67 0.0
N2248 N 0.26381 0.92112 0.61566 0.0
N2249 N 0.26243 0.94416 0.66013 0.0
H2250 H 0.03965 0.33606 0.67029 0.0
H2251 H 0.08448 0.32376 0.57285 0.0
H2252 H 0.01638 0.28976 0.63392 0.0
H2253 H 0.11512 0.35023 0.62556 0.0
H2254 H 0.05855 0.31577 0.59253 0.0
H2255 H 0.06694 0.34572 0.65179 0.0
C2256 C 0.0403 0.32792 0.65852 0.0
C2257 C 0.02576 0.31206 0.65367 0.0
C2258 C 0.07097 0.32335 0.59975 0.0
C2259 C 0.05655 0.32318 0.63231 0.0
C2260 C 0.08584 0.32785 0.58858 0.0
C2261 C 0.10215 0.33741 0.5976 0.0
C2262 C 0.07229 0.3287 0.62003 0.0
C2263 C 0.1029 0.3429 0.61787 0.0
C2264 C 0.05582 0.33342 0.64804 0.0
C2265 C 0.02727 0.30202 0.63827 0.0
N2266 N 0.08817 0.33846 0.62843 0.0
N2267 N 0.04231 0.30783 0.62801 0.0
H2268 H 0.30329 0.33902 0.66283 0.0
H2269 H 0.21298 0.30853 0.60801 0.0
H2270 H 0.26071 0.28683 0.66293 0.0
H2271 H 0.25386 0.3615 0.60894 0.0
H2272 H 0.22994 0.30097 0.63015 0.0
H2273 H 0.28501 0.34822 0.64552 0.0
C2274 C 0.29005 0.32954 0.65948 0.0
C2275 C 0.28356 0.3121 0.6642 0.0
C2276 C 0.23523 0.31428 0.62562 0.0
C2277 C 0.26268 0.3225 0.64427 0.0
C2278 C 0.22558 0.31858 0.61286 0.0
C2279 C 0.2321 0.33564 0.60641 0.0
C2280 C 0.25165 0.32708 0.63197 0.0
C2281 C 0.24835 0.34819 0.61356 0.0
C2282 C 0.27965 0.3348 0.64953 0.0
C2283 C 0.26632 0.30039 0.65946 0.0
N2284 N 0.25765 0.34364 0.62583 0.0
N2285 N 0.25656 0.30578 0.64966 0.0
H2286 H 0.71664 0.97967 0.65741 0.0
H2287 H 0.64155 0.8925 0.60897 0.0
H2288 H 0.66344 0.96704 0.65733 0.0
H2289 H 0.69583 0.91169 0.59957 0.0
H2290 H 0.6487 0.91821 0.62916 0.0
H2291 H 0.70853 0.95292 0.63947 0.0
C2292 C 0.7032 0.9712 0.65377 0.0
C2293 C 0.69071 0.97566 0.65881 0.0
C2294 C 0.65901 0.91674 0.62268 0.0
C2295 C 0.68133 0.94494 0.63804 0.0
C2296 C 0.65496 0.90212 0.61104 0.0
C2297 C 0.6681 0.89985 0.60256 0.0
C2298 C 0.67634 0.92914 0.62595 0.0
C2299 C 0.68524 0.91267 0.60606 0.0
C2300 C 0.69859 0.95593 0.64342 0.0
C2301 C 0.67349 0.96411 0.6537 0.0
N2302 N 0.68883 0.9267 0.61748 0.0
N2303 N 0.6693 0.94929 0.64351 0.0
H2304 H 0.03636 0.70081 0.66887 0.0
H2305 H 0.08315 0.76353 0.57653 0.0
H2306 H 0.01433 0.72709 0.63661 0.0
H2307 H 0.11292 0.76388 0.62835 0.0
H2308 H 0.05689 0.74498 0.59529 0.0
H2309 H 0.06397 0.71921 0.65139 0.0
C2310 C 0.03735 0.71046 0.65822 0.0
C2311 C 0.02307 0.71247 0.65423 0.0
C2312 C 0.0692 0.74914 0.60252 0.0
C2313 C 0.05423 0.73306 0.63398 0.0
C2314 C 0.08426 0.75985 0.59188 0.0
C2315 C 0.10044 0.7657 0.60094 0.0
C2316 C 0.07017 0.74381 0.62225 0.0
C2317 C 0.10083 0.75973 0.62064 0.0
C2318 C 0.05305 0.72092 0.64831 0.0
C2319 C 0.02502 0.72515 0.64026 0.0
N2320 N 0.08591 0.74909 0.63066 0.0
N2321 N 0.04022 0.73481 0.6305 0.0
H2322 H 0.00337 0.63307 0.69362 0.0
H2323 H 0.98508 0.56712 0.78341 0.0
H2324 H 0.95336 0.60271 0.72134 0.0
H2325 H 0.02231 0.57501 0.73667 0.0
H2326 H 0.97625 0.5844 0.76383 0.0
H2327 H 0.01336 0.61573 0.71196 0.0
C2328 C 0.99449 0.62273 0.70345 0.0
C2329 C 0.9775 0.6193 0.70593 0.0
C2330 C 0.98634 0.58231 0.75786 0.0
C2331 C 0.98891 0.59982 0.72714 0.0
C2332 C 0.99135 0.57234 0.76897 0.0
C2333 C 0.0043 0.56925 0.7616 0.0
C2334 C 0.99449 0.58961 0.73935 0.0
C2335 C 0.01235 0.57705 0.74309 0.0
C2336 C 1.00019 0.61287 0.71385 0.0
C2337 C 0.96653 0.60577 0.71887 0.0
N2338 N 0.00732 0.5869 0.7326 0.0
N2339 N 0.97247 0.59667 0.72912 0.0
H2340 H 0.35843 0.36664 0.70486 0.0
H2341 H 0.44773 0.42567 0.76199 0.0
H2342 H 0.39896 0.3542 0.7106 0.0
H2343 H 0.41172 0.4431 0.74894 0.0
H2344 H 0.42941 0.39916 0.74361 0.0
H2345 H 0.37723 0.39458 0.72102 0.0
C2346 C 0.37131 0.36983 0.70934 0.0
C2347 C 0.3771 0.35803 0.70643 0.0
C2348 C 0.4255 0.40878 0.74466 0.0
C2349 C 0.39855 0.38982 0.72508 0.0
C2350 C 0.43603 0.42401 0.75511 0.0
C2351 C 0.43137 0.43676 0.75692 0.0
C2352 C 0.41005 0.4061 0.73599 0.0
C2353 C 0.41577 0.43358 0.74809 0.0
C2354 C 0.38201 0.38576 0.7186 0.0
C2355 C 0.3939 0.36284 0.71257 0.0
N2356 N 0.40566 0.41856 0.73802 0.0
N2357 N 0.40395 0.37828 0.72167 0.0
H2358 H 0.63367 0.99353 0.70387 0.0
H2359 H 0.57301 0.02558 0.7536 0.0
H2360 H 0.6433 0.04572 0.70102 0.0
H2361 H 0.56027 0.97238 0.75418 0.0
H2362 H 0.59802 0.03257 0.73251 0.0
H2363 H 0.60584 0.9848 0.72014 0.0
C2364 C 0.62985 0.0031 0.70642 0.0
C2365 C 0.6409 0.02041 0.70122 0.0
C2366 C 0.58976 0.01933 0.73713 0.0
C2367 C 0.60922 0.01056 0.71993 0.0
C2368 C 0.57551 0.01536 0.74929 0.0
C2369 C 0.56466 0.99841 0.75586 0.0
C2370 C 0.59334 0.00631 0.73153 0.0
C2371 C 0.56832 0.98561 0.74943 0.0
C2372 C 0.61399 0.99812 0.71576 0.0
C2373 C 0.63529 0.03226 0.7049 0.0
N2374 N 0.58246 0.98985 0.73777 0.0
N2375 N 0.61994 0.02714 0.71414 0.0
loop_
_geom_bond_atom_site_label_1
_geom_bond_atom_site_label_2
_geom_bond_distance
_geom_bond_site_symmetry_2
_ccdc_geom_bond_type
O0 Cd1 2.223 . S
O0 C8 1.315 . S
Cd1 O0 2.223 . S
Cd1 O4 2.297 . S
Cd1 O5 2.439 . S
Cd1 O11 2.240 1_554 S
Cd2 O3 2.240 . S
Cd2 O10 2.223 1_554 S
Cd2 O12 2.297 1_554 S
Cd2 O13 2.439 1_554 S
O3 Cd2 2.240 . S
O3 C8 1.279 1_655 S
O4 Cd1 2.297 . S
O4 C6 1.247 . S
O5 Cd1 2.439 . S
O5 C6 1.208 . S
C6 O4 1.247 . S
C6 O5 1.208 . S
C7 O12 1.247 . S
C7 O13 1.208 . S
C8 O0 1.315 . S
C8 O3 1.279 1_455 S
C9 O10 1.366 . S
C9 O11 1.231 1_655 S
O10 Cd2 2.223 1_556 S
O10 C9 1.366 . S
O11 Cd1 2.240 1_556 S
O11 C9 1.231 1_455 S
O12 Cd2 2.297 1_556 S
O12 C7 1.247 . S
O13 Cd2 2.439 1_556 S
O13 C7 1.208 . S
O14 Cd15 2.223 . S
O14 C22 1.315 . S
Cd15 O14 2.223 . S
Cd15 O18 2.297 . S
Cd15 O19 2.439 . S
Cd15 O25 2.240 1_554 S
Cd16 O17 2.240 . S
Cd16 O24 2.223 1_554 S
Cd16 O26 2.297 1_554 S
Cd16 O27 2.439 1_554 S
O17 Cd16 2.240 . S
O17 C22 1.279 . S
O18 Cd15 2.297 . S
O18 C20 1.247 . S
O19 Cd15 2.439 . S
O19 C20 1.208 . S
C20 O18 1.247 . S
C20 O19 1.208 . S
C21 O26 1.247 . S
C21 O27 1.208 . S
C22 O14 1.315 . S
C22 O17 1.279 . S
C23 O24 1.315 . S
C23 O25 1.279 . S
O24 Cd16 2.223 1_556 S
O24 C23 1.315 . S
O25 Cd15 2.240 1_556 S
O25 C23 1.279 . S
O26 Cd16 2.297 1_556 S
O26 C21 1.247 . S
O27 Cd16 2.439 1_556 S
O27 C21 1.208 . S
O28 Cd29 2.223 1_556 S
O28 C36 1.315 . S
Cd29 O28 2.223 1_554 S
Cd29 O32 2.297 1_554 S
Cd29 O33 2.439 1_554 S
Cd29 O39 2.240 . S
Cd30 O31 2.240 1_554 S
Cd30 O38 2.223 . S
Cd30 O40 2.297 . S
Cd30 O41 2.439 . S
O31 Cd30 2.240 1_556 S
O31 C36 1.279 1_565 S
O32 Cd29 2.297 1_556 S
O32 C34 1.247 . S
O33 Cd29 2.439 1_556 S
O33 C34 1.208 . S
C34 O32 1.247 . S
C34 O33 1.208 . S
C35 O40 1.247 . S
C35 O41 1.208 . S
C36 O28 1.315 . S
C36 O31 1.279 1_545 S
C37 O38 1.370 . S
C37 O39 1.227 1_565 S
O38 Cd30 2.223 . S
O38 C37 1.370 . S
O39 Cd29 2.240 . S
O39 C37 1.227 1_545 S
O40 Cd30 2.297 . S
O40 C35 1.247 . S
O41 Cd30 2.439 . S
O41 C35 1.208 . S
O42 Cd43 2.223 1_556 S
O42 C50 1.315 . S
Cd43 O42 2.223 1_554 S
Cd43 O46 2.297 1_554 S
Cd43 O47 2.439 1_554 S
Cd43 O53 2.240 . S
Cd44 O45 2.240 1_554 S
Cd44 O52 2.223 . S
Cd44 O54 2.297 . S
Cd44 O55 2.439 . S
O45 Cd44 2.240 1_556 S
O45 C50 1.279 1_455 S
O46 Cd43 2.297 1_556 S
O46 C48 1.247 . S
O47 Cd43 2.439 1_556 S
O47 C48 1.208 . S
C48 O46 1.247 . S
C48 O47 1.208 . S
C49 O54 1.247 . S
C49 O55 1.208 . S
C50 O42 1.315 . S
C50 O45 1.279 1_655 S
C51 O52 1.315 . S
C51 O53 1.279 1_455 S
O52 Cd44 2.223 . S
O52 C51 1.315 . S
O53 Cd43 2.240 . S
O53 C51 1.279 1_655 S
O54 Cd44 2.297 . S
O54 C49 1.247 . S
O55 Cd44 2.439 . S
O55 C49 1.208 . S
O56 Cd57 2.223 1_556 S
O56 C64 1.315 . S
Cd57 O56 2.223 1_554 S
Cd57 O60 2.297 1_554 S
Cd57 O61 2.439 1_554 S
Cd57 O67 2.240 . S
Cd58 O59 2.240 1_554 S
Cd58 O66 2.223 . S
Cd58 O68 2.297 . S
Cd58 O69 2.439 . S
O59 Cd58 2.240 1_556 S
O59 C64 1.279 . S
O60 Cd57 2.297 1_556 S
O60 C62 1.247 . S
O61 Cd57 2.439 1_556 S
O61 C62 1.208 . S
C62 O60 1.247 . S
C62 O61 1.208 . S
C63 O68 1.247 . S
C63 O69 1.208 . S
C64 O56 1.315 . S
C64 O59 1.279 . S
C65 O66 1.315 . S
C65 O67 1.279 . S
O66 Cd58 2.223 . S
O66 C65 1.315 . S
O67 Cd57 2.240 . S
O67 C65 1.279 . S
O68 Cd58 2.297 . S
O68 C63 1.247 . S
O69 Cd58 2.439 . S
O69 C63 1.208 . S
O70 Cd71 2.223 . S
O70 C78 1.315 . S
Cd71 O70 2.223 . S
Cd71 O74 2.297 . S
Cd71 O75 2.439 . S
Cd71 O81 2.240 1_554 S
Cd72 O73 2.240 . S
Cd72 O80 2.223 1_554 S
Cd72 O82 2.297 1_554 S
Cd72 O83 2.439 1_554 S
O73 Cd72 2.240 . S
O73 C78 1.279 1_545 S
O74 Cd71 2.297 . S
O74 C76 1.247 . S
O75 Cd71 2.439 . S
O75 C76 1.208 . S
C76 O74 1.247 . S
C76 O75 1.208 . S
C77 O82 1.247 . S
C77 O83 1.208 . S
C78 O70 1.315 . S
C78 O73 1.279 1_565 S
C79 O80 1.315 . S
C79 O81 1.279 1_545 S
O80 Cd72 2.223 1_556 S
O80 C79 1.315 . S
O81 Cd71 2.240 1_556 S
O81 C79 1.279 1_565 S
O82 Cd72 2.297 1_556 S
O82 C77 1.247 . S
O83 Cd72 2.439 1_556 S
O83 C77 1.208 . S
O84 Cd85 2.223 . S
O84 C92 1.315 . S
Cd85 O84 2.223 . S
Cd85 O88 2.297 . S
Cd85 O89 2.439 . S
Cd85 O95 2.240 . S
Cd86 O87 2.240 . S
Cd86 O94 2.223 . S
Cd86 O96 2.297 . S
Cd86 O97 2.439 . S
O87 Cd86 2.240 . S
O87 C92 1.279 . S
O88 Cd85 2.297 . S
O88 C90 1.247 . S
O89 Cd85 2.439 . S
O89 C90 1.208 . S
C90 O88 1.247 . S
C90 O89 1.208 . S
C91 O96 1.247 . S
C91 O97 1.208 . S
C92 O84 1.315 . S
C92 O87 1.279 . S
C93 O94 1.315 . S
C93 O95 1.279 . S
O94 Cd86 2.223 . S
O94 C93 1.315 . S
O95 Cd85 2.240 . S
O95 C93 1.279 . S
O96 Cd86 2.297 . S
O96 C91 1.247 . S
O97 Cd86 2.439 . S
O97 C91 1.208 . S
O98 Cd99 2.223 . S
O98 C106 1.315 . S
Cd99 O98 2.223 . S
Cd99 O102 2.297 1_565 S
Cd99 O103 2.439 1_565 S
Cd99 O109 2.240 . S
Cd100 O101 2.240 . S
Cd100 O108 2.223 . S
Cd100 O110 2.297 . S
Cd100 O111 2.439 . S
O101 Cd100 2.240 . S
O101 C106 1.279 . S
O102 Cd99 2.297 1_545 S
O102 C104 1.247 . S
O103 Cd99 2.439 1_545 S
O103 C104 1.208 . S
C104 O102 1.247 . S
C104 O103 1.208 . S
C105 O110 1.247 . S
C105 O111 1.208 . S
C106 O98 1.315 . S
C106 O101 1.279 . S
C107 O108 1.315 . S
C107 O109 1.279 . S
O108 Cd100 2.223 . S
O108 C107 1.315 . S
O109 Cd99 2.240 . S
O109 C107 1.279 . S
O110 Cd100 2.297 . S
O110 C105 1.247 . S
O111 Cd100 2.439 . S
O111 C105 1.208 . S
O112 Cd113 2.223 . S
O112 C120 1.315 . S
Cd113 O112 2.223 . S
Cd113 O116 2.297 . S
Cd113 O117 2.439 . S
Cd113 O123 2.240 . S
Cd114 O115 2.240 . S
Cd114 O122 2.223 . S
Cd114 O124 2.297 1_455 S
Cd114 O125 2.439 1_455 S
O115 Cd114 2.240 . S
O115 C120 1.279 . S
O116 Cd113 2.297 . S
O116 C118 1.247 . S
O117 Cd113 2.439 . S
O117 C118 1.208 . S
C118 O116 1.247 . S
C118 O117 1.208 . S
C119 O124 1.247 . S
C119 O125 1.208 . S
C120 O112 1.315 . S
C120 O115 1.279 . S
C121 O122 1.315 . S
C121 O123 1.279 . S
O122 Cd114 2.223 . S
O122 C121 1.315 . S
O123 Cd113 2.240 . S
O123 C121 1.279 . S
O124 Cd114 2.297 1_655 S
O124 C119 1.247 . S
O125 Cd114 2.439 1_655 S
O125 C119 1.208 . S
O126 Cd127 2.223 . S
O126 C134 1.315 . S
Cd127 O126 2.223 . S
Cd127 O130 2.297 . S
Cd127 O131 2.439 . S
Cd127 O137 2.240 . S
Cd128 O129 2.240 . S
Cd128 O136 2.223 . S
Cd128 O138 2.297 1_565 S
Cd128 O139 2.439 1_565 S
O129 Cd128 2.240 . S
O129 C134 1.279 . S
O130 Cd127 2.297 . S
O130 C132 1.247 . S
O131 Cd127 2.439 . S
O131 C132 1.208 . S
C132 O130 1.247 . S
C132 O131 1.208 . S
C133 O138 1.247 . S
C133 O139 1.208 . S
C134 O126 1.315 . S
C134 O129 1.279 . S
C135 O136 1.315 . S
C135 O137 1.279 . S
O136 Cd128 2.223 . S
O136 C135 1.315 . S
O137 Cd127 2.240 . S
O137 C135 1.279 . S
O138 Cd128 2.297 1_545 S
O138 C133 1.247 . S
O139 Cd128 2.439 1_545 S
O139 C133 1.208 . S
O140 Cd141 2.223 . S
O140 C148 1.315 . S
Cd141 O140 2.223 . S
Cd141 O144 2.297 . S
Cd141 O145 2.439 . S
Cd141 O151 2.240 . S
Cd142 O143 2.240 . S
Cd142 O150 2.223 . S
Cd142 O152 2.297 1_455 S
Cd142 O153 2.439 1_455 S
O143 Cd142 2.240 . S
O143 C148 1.279 . S
O144 Cd141 2.297 . S
O144 C146 1.247 . S
O145 Cd141 2.439 . S
O145 C146 1.208 . S
C146 O144 1.247 . S
C146 O145 1.208 . S
C147 O152 1.247 . S
C147 O153 1.208 . S
C148 O140 1.315 . S
C148 O143 1.279 . S
C149 O150 1.315 . S
C149 O151 1.279 . S
O150 Cd142 2.223 . S
O150 C149 1.315 . S
O151 Cd141 2.240 . S
O151 C149 1.279 . S
O152 Cd142 2.297 1_655 S
O152 C147 1.247 . S
O153 Cd142 2.439 1_655 S
O153 C147 1.208 . S
O154 Cd155 2.223 . S
O154 C162 1.315 . S
Cd155 O154 2.223 . S
Cd155 O158 2.297 . S
Cd155 O159 2.439 . S
Cd155 O165 2.240 . S
Cd156 O157 2.240 . S
Cd156 O164 2.223 . S
Cd156 O166 2.297 . S
Cd156 O167 2.439 . S
O157 Cd156 2.240 . S
O157 C162 1.279 . S
O158 Cd155 2.297 . S
O158 C160 1.247 . S
O159 Cd155 2.439 . S
O159 C160 1.208 . S
C160 O158 1.247 . S
C160 O159 1.208 . S
C161 O166 1.247 . S
C161 O167 1.208 . S
C162 O154 1.315 . S
C162 O157 1.279 . S
C163 O164 1.315 . S
C163 O165 1.279 . S
O164 Cd156 2.223 . S
O164 C163 1.315 . S
O165 Cd155 2.240 . S
O165 C163 1.279 . S
O166 Cd156 2.297 . S
O166 C161 1.247 . S
O167 Cd156 2.439 . S
O167 C161 1.208 . S
O168 Cd169 2.223 . S
O168 C176 1.315 . S
Cd169 O168 2.223 . S
Cd169 O172 2.297 . S
Cd169 O173 2.439 . S
Cd169 O179 2.240 . S
Cd170 O171 2.240 . S
Cd170 O178 2.223 . S
Cd170 O180 2.297 1_545 S
Cd170 O181 2.439 1_545 S
O171 Cd170 2.240 . S
O171 C176 1.279 . S
O172 Cd169 2.297 . S
O172 C174 1.247 . S
O173 Cd169 2.439 . S
O173 C174 1.208 . S
C174 O172 1.247 . S
C174 O173 1.208 . S
C175 O180 1.247 . S
C175 O181 1.208 . S
C176 O168 1.315 . S
C176 O171 1.279 . S
C177 O178 1.315 . S
C177 O179 1.279 . S
O178 Cd170 2.223 . S
O178 C177 1.315 . S
O179 Cd169 2.240 . S
O179 C177 1.279 . S
O180 Cd170 2.297 1_565 S
O180 C175 1.247 . S
O181 Cd170 2.439 1_565 S
O181 C175 1.208 . S
O182 Cd183 2.223 . S
O182 C190 1.315 . S
Cd183 O182 2.223 . S
Cd183 O186 2.297 . S
Cd183 O187 2.439 . S
Cd183 O193 2.240 . S
Cd184 O185 2.240 . S
Cd184 O192 2.223 . S
Cd184 O194 2.297 1_655 S
Cd184 O195 2.439 1_655 S
O185 Cd184 2.240 . S
O185 C190 1.279 . S
O186 Cd183 2.297 . S
O186 C188 1.247 . S
O187 Cd183 2.439 . S
O187 C188 1.208 . S
C188 O186 1.247 . S
C188 O187 1.208 . S
C189 O194 1.247 . S
C189 O195 1.208 . S
C190 O182 1.315 . S
C190 O185 1.279 . S
C191 O192 1.315 . S
C191 O193 1.279 . S
O192 Cd184 2.223 . S
O192 C191 1.315 . S
O193 Cd183 2.240 . S
O193 C191 1.279 . S
O194 Cd184 2.297 1_455 S
O194 C189 1.247 . S
O195 Cd184 2.439 1_455 S
O195 C189 1.208 . S
O196 Cd197 2.223 . S
O196 C204 1.315 . S
Cd197 O196 2.223 . S
Cd197 O200 2.297 . S
Cd197 O201 2.439 . S
Cd197 O207 2.240 . S
Cd198 O199 2.240 . S
Cd198 O206 2.223 . S
Cd198 O208 2.297 . S
Cd198 O209 2.439 . S
O199 Cd198 2.240 . S
O199 C204 1.279 . S
O200 Cd197 2.297 . S
O200 C202 1.247 . S
O201 Cd197 2.439 . S
O201 C202 1.208 . S
C202 O200 1.247 . S
C202 O201 1.208 . S
C203 O208 1.247 . S
C203 O209 1.208 . S
C204 O196 1.315 . S
C204 O199 1.279 . S
C205 O206 1.315 . S
C205 O207 1.279 . S
O206 Cd198 2.223 . S
O206 C205 1.315 . S
O207 Cd197 2.240 . S
O207 C205 1.279 . S
O208 Cd198 2.297 . S
O208 C203 1.247 . S
O209 Cd198 2.439 . S
O209 C203 1.208 . S
O210 Cd211 2.223 . S
O210 C218 1.315 . S
Cd211 O210 2.223 . S
Cd211 O214 2.297 . S
Cd211 O215 2.439 . S
Cd211 O221 2.240 . S
Cd212 O213 2.240 . S
Cd212 O220 2.223 . S
Cd212 O222 2.297 . S
Cd212 O223 2.439 . S
O213 Cd212 2.240 . S
O213 C218 1.279 . S
O214 Cd211 2.297 . S
O214 C216 1.247 . S
O215 Cd211 2.439 . S
O215 C216 1.208 . S
C216 O214 1.247 . S
C216 O215 1.208 . S
C217 O222 1.247 . S
C217 O223 1.208 . S
C218 O210 1.315 . S
C218 O213 1.279 . S
C219 O220 1.315 . S
C219 O221 1.279 . S
O220 Cd212 2.223 . S
O220 C219 1.315 . S
O221 Cd211 2.240 . S
O221 C219 1.279 . S
O222 Cd212 2.297 . S
O222 C217 1.247 . S
O223 Cd212 2.439 . S
O223 C217 1.208 . S
O224 Cd225 2.223 . S
O224 C232 1.315 . S
Cd225 O224 2.223 . S
Cd225 O228 2.297 1_545 S
Cd225 O229 2.439 1_545 S
Cd225 O235 2.240 . S
Cd226 O227 2.240 . S
Cd226 O234 2.223 . S
Cd226 O236 2.297 . S
Cd226 O237 2.439 . S
O227 Cd226 2.240 . S
O227 C232 1.279 . S
O228 Cd225 2.297 1_565 S
O228 C230 1.247 . S
O229 Cd225 2.439 1_565 S
O229 C230 1.208 . S
C230 O228 1.247 . S
C230 O229 1.208 . S
C231 O236 1.247 . S
C231 O237 1.208 . S
C232 O224 1.315 . S
C232 O227 1.279 . S
C233 O234 1.315 . S
C233 O235 1.279 . S
O234 Cd226 2.223 . S
O234 C233 1.315 . S
O235 Cd225 2.240 . S
O235 C233 1.279 . S
O236 Cd226 2.297 . S
O236 C231 1.247 . S
O237 Cd226 2.439 . S
O237 C231 1.208 . S
O238 Cd239 2.223 . S
O238 C246 1.315 . S
Cd239 O238 2.223 . S
Cd239 O242 2.297 . S
Cd239 O243 2.439 . S
Cd239 O249 2.240 . S
Cd240 O241 2.240 . S
Cd240 O248 2.223 . S
Cd240 O250 2.297 1_655 S
Cd240 O251 2.439 1_655 S
O241 Cd240 2.240 . S
O241 C246 1.279 . S
O242 Cd239 2.297 . S
O242 C244 1.247 . S
O243 Cd239 2.439 . S
O243 C244 1.208 . S
C244 O242 1.247 . S
C244 O243 1.208 . S
C245 O250 1.247 . S
C245 O251 1.208 . S
C246 O238 1.315 . S
C246 O241 1.279 . S
C247 O248 1.315 . S
C247 O249 1.279 . S
O248 Cd240 2.223 . S
O248 C247 1.315 . S
O249 Cd239 2.240 . S
O249 C247 1.279 . S
O250 Cd240 2.297 1_455 S
O250 C245 1.247 . S
O251 Cd240 2.439 1_455 S
O251 C245 1.208 . S
C252 C253 1.384 . S
C252 C254 1.384 . S
C252 H280 0.931 . S
C253 C252 1.384 . S
C253 C256 1.382 . S
C254 C252 1.384 . S
C254 C255 1.381 . S
C254 H281 0.930 . S
C255 C254 1.381 . S
C255 C257 1.381 . S
C255 C258 1.487 . S
C256 C253 1.382 . S
C256 C257 1.387 . S
C256 H282 0.930 . S
C257 C255 1.381 . S
C257 C256 1.387 . S
C257 H283 0.931 . S
C258 C255 1.487 . S
C258 C265 1.399 . S
C258 N296 1.343 . S
C259 C260 1.384 . S
C259 C261 1.384 . S
C259 H284 0.931 . S
C260 C259 1.384 . S
C260 C263 1.382 . S
C261 C259 1.384 . S
C261 C262 1.381 . S
C261 H285 0.930 . S
C262 C261 1.381 . S
C262 C264 1.381 . S
C262 C265 1.487 . S
C263 C260 1.382 . S
C263 C264 1.387 . S
C263 H286 0.930 . S
C264 C262 1.381 . S
C264 C263 1.387 . S
C264 H287 0.931 . S
C265 C258 1.399 . S
C265 C262 1.487 . S
C265 N297 1.343 . S
C266 C267 1.384 . S
C266 C268 1.384 . S
C266 H288 0.931 . S
C267 C266 1.384 . S
C267 C270 1.382 . S
C268 C266 1.384 . S
C268 C269 1.381 . S
C268 H289 0.930 . S
C269 C268 1.381 . S
C269 C271 1.381 . S
C269 C272 1.487 . S
C270 C267 1.382 . S
C270 C271 1.387 . S
C270 H290 0.930 . S
C271 C269 1.381 . S
C271 C270 1.387 . S
C271 H291 0.931 . S
C272 C269 1.487 . S
C272 C279 1.399 . S
C272 N297 1.343 . S
C273 C274 1.384 . S
C273 C275 1.384 . S
C273 H292 0.931 . S
C274 C273 1.384 . S
C274 C277 1.382 . S
C275 C273 1.384 . S
C275 C276 1.381 . S
C275 H293 0.930 . S
C276 C275 1.381 . S
C276 C278 1.381 . S
C276 C279 1.487 . S
C277 C274 1.382 . S
C277 C278 1.387 . S
C277 H294 0.930 . S
C278 C276 1.381 . S
C278 C277 1.387 . S
C278 H295 0.931 . S
C279 C272 1.399 . S
C279 C276 1.487 . S
C279 N296 1.343 . S
H280 C252 0.931 . S
H281 C254 0.930 . S
H282 C256 0.930 . S
H283 C257 0.931 . S
H284 C259 0.931 . S
H285 C261 0.930 . S
H286 C263 0.930 . S
H287 C264 0.931 . S
H288 C266 0.931 . S
H289 C268 0.930 . S
H290 C270 0.930 . S
H291 C271 0.931 . S
H292 C273 0.931 . S
H293 C275 0.930 . S
H294 C277 0.930 . S
H295 C278 0.931 . S
N296 C258 1.343 . S
N296 C279 1.343 . S
N297 C265 1.343 . S
N297 C272 1.343 . S
C298 C299 1.384 . S
C298 C300 1.384 . S
C298 H326 0.931 . S
C299 C298 1.384 . S
C299 C302 1.382 . S
C300 C298 1.384 . S
C300 C301 1.381 . S
C300 H327 0.930 . S
C301 C300 1.381 . S
C301 C303 1.381 . S
C301 C304 1.487 . S
C302 C299 1.382 . S
C302 C303 1.387 . S
C302 H328 0.930 . S
C303 C301 1.381 . S
C303 C302 1.387 . S
C303 H329 0.931 . S
C304 C301 1.487 . S
C304 C311 1.399 . S
C304 N342 1.343 . S
C305 C306 1.384 . S
C305 C307 1.384 . S
C305 H330 0.931 . S
C306 C305 1.384 . S
C306 C309 1.382 . S
C307 C305 1.384 . S
C307 C308 1.381 . S
C307 H331 0.930 . S
C308 C307 1.381 . S
C308 C310 1.381 . S
C308 C311 1.487 . S
C309 C306 1.382 . S
C309 C310 1.387 . S
C309 H332 0.930 . S
C310 C308 1.381 . S
C310 C309 1.387 . S
C310 H333 0.931 . S
C311 C304 1.399 . S
C311 C308 1.487 . S
C311 N343 1.343 . S
C312 C313 1.384 . S
C312 C314 1.384 . S
C312 H334 0.931 . S
C313 C312 1.384 . S
C313 C316 1.382 . S
C314 C312 1.384 . S
C314 C315 1.381 . S
C314 H335 0.930 . S
C315 C314 1.381 . S
C315 C317 1.381 . S
C315 C318 1.487 . S
C316 C313 1.382 . S
C316 C317 1.387 . S
C316 H336 0.930 . S
C317 C315 1.381 . S
C317 C316 1.387 . S
C317 H337 0.931 . S
C318 C315 1.487 . S
C318 C325 1.399 . S
C318 N343 1.343 . S
C319 C320 1.384 . S
C319 C321 1.384 . S
C319 H338 0.931 . S
C320 C319 1.384 . S
C320 C323 1.382 . S
C321 C319 1.384 . S
C321 C322 1.381 . S
C321 H339 0.930 . S
C322 C321 1.381 . S
C322 C324 1.381 . S
C322 C325 1.487 . S
C323 C320 1.382 . S
C323 C324 1.387 . S
C323 H340 0.930 . S
C324 C322 1.381 . S
C324 C323 1.387 . S
C324 H341 0.931 . S
C325 C318 1.399 . S
C325 C322 1.487 . S
C325 N342 1.343 . S
H326 C298 0.931 . S
H327 C300 0.930 . S
H328 C302 0.930 . S
H329 C303 0.931 . S
H330 C305 0.931 . S
H331 C307 0.930 . S
H332 C309 0.930 . S
H333 C310 0.931 . S
H334 C312 0.931 . S
H335 C314 0.930 . S
H336 C316 0.930 . S
H337 C317 0.931 . S
H338 C319 0.931 . S
H339 C321 0.930 . S
H340 C323 0.930 . S
H341 C324 0.931 . S
N342 C304 1.343 . S
N342 C325 1.343 . S
N343 C311 1.343 . S
N343 C318 1.343 . S
C344 C345 1.384 . S
C344 C346 1.384 . S
C344 H372 0.931 . S
C345 C344 1.384 . S
C345 C348 1.382 . S
C346 C344 1.384 . S
C346 C347 1.381 . S
C346 H373 0.930 . S
C347 C346 1.381 . S
C347 C349 1.381 . S
C347 C350 1.487 . S
C348 C345 1.382 . S
C348 C349 1.387 . S
C348 H374 0.930 . S
C349 C347 1.381 . S
C349 C348 1.387 . S
C349 H375 0.931 . S
C350 C347 1.487 . S
C350 C357 1.399 . S
C350 N388 1.343 . S
C351 C352 1.384 . S
C351 C353 1.384 . S
C351 H376 0.931 . S
C352 C351 1.384 . S
C352 C355 1.382 . S
C353 C351 1.384 . S
C353 C354 1.381 . S
C353 H377 0.930 . S
C354 C353 1.381 . S
C354 C356 1.381 . S
C354 C357 1.487 . S
C355 C352 1.382 . S
C355 C356 1.387 . S
C355 H378 0.930 . S
C356 C354 1.381 . S
C356 C355 1.387 . S
C356 H379 0.931 . S
C357 C350 1.399 . S
C357 C354 1.487 . S
C357 N389 1.343 . S
C358 C359 1.384 . S
C358 C360 1.384 . S
C358 H380 0.931 . S
C359 C358 1.384 . S
C359 C362 1.382 . S
C360 C358 1.384 . S
C360 C361 1.381 . S
C360 H381 0.930 . S
C361 C360 1.381 . S
C361 C363 1.381 . S
C361 C364 1.487 . S
C362 C359 1.382 . S
C362 C363 1.387 . S
C362 H382 0.930 . S
C363 C361 1.381 . S
C363 C362 1.387 . S
C363 H383 0.931 . S
C364 C361 1.487 . S
C364 C371 1.399 . S
C364 N389 1.343 . S
C365 C366 1.384 . S
C365 C367 1.384 . S
C365 H384 0.931 . S
C366 C365 1.384 . S
C366 C369 1.382 . S
C367 C365 1.384 . S
C367 C368 1.381 . S
C367 H385 0.930 . S
C368 C367 1.381 . S
C368 C370 1.381 . S
C368 C371 1.487 . S
C369 C366 1.382 . S
C369 C370 1.387 . S
C369 H386 0.930 . S
C370 C368 1.381 . S
C370 C369 1.387 . S
C370 H387 0.931 . S
C371 C364 1.399 . S
C371 C368 1.487 . S
C371 N388 1.343 . S
H372 C344 0.931 . S
H373 C346 0.930 . S
H374 C348 0.930 . S
H375 C349 0.931 . S
H376 C351 0.931 . S
H377 C353 0.930 . S
H378 C355 0.930 . S
H379 C356 0.931 . S
H380 C358 0.931 . S
H381 C360 0.930 . S
H382 C362 0.930 . S
H383 C363 0.931 . S
H384 C365 0.931 . S
H385 C367 0.930 . S
H386 C369 0.930 . S
H387 C370 0.931 . S
N388 C350 1.343 . S
N388 C371 1.343 . S
N389 C357 1.343 . S
N389 C364 1.343 . S
C390 C391 1.384 . S
C390 C392 1.384 . S
C390 H418 0.931 . S
C391 C390 1.384 . S
C391 C394 1.382 . S
C392 C390 1.384 . S
C392 C393 1.381 . S
C392 H419 0.930 . S
C393 C392 1.381 . S
C393 C395 1.381 . S
C393 C396 1.487 . S
C394 C391 1.382 . S
C394 C395 1.387 . S
C394 H420 0.930 . S
C395 C393 1.381 . S
C395 C394 1.387 . S
C395 H421 0.931 . S
C396 C393 1.487 . S
C396 C403 1.399 . S
C396 N434 1.343 . S
C397 C398 1.384 . S
C397 C399 1.384 . S
C397 H422 0.931 . S
C398 C397 1.384 . S
C398 C401 1.382 . S
C399 C397 1.384 . S
C399 C400 1.381 . S
C399 H423 0.930 . S
C400 C399 1.381 . S
C400 C402 1.381 . S
C400 C403 1.487 . S
C401 C398 1.382 . S
C401 C402 1.387 . S
C401 H424 0.930 . S
C402 C400 1.381 . S
C402 C401 1.387 . S
C402 H425 0.931 . S
C403 C396 1.399 . S
C403 C400 1.487 . S
C403 N435 1.343 . S
C404 C405 1.384 . S
C404 C406 1.384 . S
C404 H426 0.931 . S
C405 C404 1.384 . S
C405 C408 1.382 . S
C406 C404 1.384 . S
C406 C407 1.381 . S
C406 H427 0.930 . S
C407 C406 1.381 . S
C407 C409 1.381 . S
C407 C410 1.487 . S
C408 C405 1.382 . S
C408 C409 1.387 . S
C408 H428 0.930 . S
C409 C407 1.381 . S
C409 C408 1.387 . S
C409 H429 0.931 . S
C410 C407 1.487 . S
C410 C417 1.399 . S
C410 N435 1.343 . S
C411 C412 1.384 . S
C411 C413 1.384 . S
C411 H430 0.931 . S
C412 C411 1.384 . S
C412 C415 1.382 . S
C413 C411 1.384 . S
C413 C414 1.381 . S
C413 H431 0.930 . S
C414 C413 1.381 . S
C414 C416 1.381 . S
C414 C417 1.487 . S
C415 C412 1.382 . S
C415 C416 1.387 . S
C415 H432 0.930 . S
C416 C414 1.381 . S
C416 C415 1.387 . S
C416 H433 0.931 . S
C417 C410 1.399 . S
C417 C414 1.487 . S
C417 N434 1.343 . S
H418 C390 0.931 . S
H419 C392 0.930 . S
H420 C394 0.930 . S
H421 C395 0.931 . S
H422 C397 0.931 . S
H423 C399 0.930 . S
H424 C401 0.930 . S
H425 C402 0.931 . S
H426 C404 0.931 . S
H427 C406 0.930 . S
H428 C408 0.930 . S
H429 C409 0.931 . S
H430 C411 0.931 . S
H431 C413 0.930 . S
H432 C415 0.930 . S
H433 C416 0.931 . S
N434 C396 1.343 . S
N434 C417 1.343 . S
N435 C403 1.343 . S
N435 C410 1.343 . S
C436 C437 1.384 . S
C436 C438 1.384 . S
C436 H464 0.931 . S
C437 C436 1.384 . S
C437 C440 1.382 . S
C438 C436 1.384 . S
C438 C439 1.381 . S
C438 H465 0.930 . S
C439 C438 1.381 . S
C439 C441 1.381 . S
C439 C442 1.487 . S
C440 C437 1.382 . S
C440 C441 1.387 . S
C440 H466 0.930 . S
C441 C439 1.381 . S
C441 C440 1.387 . S
C441 H467 0.931 . S
C442 C439 1.487 . S
C442 C449 1.399 . S
C442 N480 1.343 . S
C443 C444 1.384 . S
C443 C445 1.384 . S
C443 H468 0.931 . S
C444 C443 1.384 . S
C444 C447 1.382 . S
C445 C443 1.384 . S
C445 C446 1.381 . S
C445 H469 0.930 . S
C446 C445 1.381 . S
C446 C448 1.381 . S
C446 C449 1.487 . S
C447 C444 1.382 . S
C447 C448 1.387 . S
C447 H470 0.930 . S
C448 C446 1.381 . S
C448 C447 1.387 . S
C448 H471 0.931 . S
C449 C442 1.399 . S
C449 C446 1.487 . S
C449 N481 1.343 . S
C450 C451 1.384 . S
C450 C452 1.384 . S
C450 H472 0.931 . S
C451 C450 1.384 . S
C451 C454 1.382 . S
C452 C450 1.384 . S
C452 C453 1.381 . S
C452 H473 0.930 . S
C453 C452 1.381 . S
C453 C455 1.381 . S
C453 C456 1.487 . S
C454 C451 1.382 . S
C454 C455 1.387 . S
C454 H474 0.930 . S
C455 C453 1.381 . S
C455 C454 1.387 . S
C455 H475 0.931 . S
C456 C453 1.487 . S
C456 C463 1.399 . S
C456 N481 1.343 . S
C457 C458 1.384 . S
C457 C459 1.384 . S
C457 H476 0.931 . S
C458 C457 1.384 . S
C458 C461 1.382 . S
C459 C457 1.384 . S
C459 C460 1.381 . S
C459 H477 0.930 . S
C460 C459 1.381 . S
C460 C462 1.381 . S
C460 C463 1.487 . S
C461 C458 1.382 . S
C461 C462 1.387 . S
C461 H478 0.930 . S
C462 C460 1.381 . S
C462 C461 1.387 . S
C462 H479 0.931 . S
C463 C456 1.399 . S
C463 C460 1.487 . S
C463 N480 1.343 . S
H464 C436 0.931 . S
H465 C438 0.930 . S
H466 C440 0.930 . S
H467 C441 0.931 . S
H468 C443 0.931 . S
H469 C445 0.930 . S
H470 C447 0.930 . S
H471 C448 0.931 . S
H472 C450 0.931 . S
H473 C452 0.930 . S
H474 C454 0.930 . S
H475 C455 0.931 . S
H476 C457 0.931 . S
H477 C459 0.930 . S
H478 C461 0.930 . S
H479 C462 0.931 . S
N480 C442 1.343 . S
N480 C463 1.343 . S
N481 C449 1.343 . S
N481 C456 1.343 . S
C482 C483 1.384 . S
C482 C484 1.384 . S
C482 H510 0.931 . S
C483 C482 1.384 . S
C483 C486 1.382 . S
C484 C482 1.384 . S
C484 C485 1.381 . S
C484 H511 0.930 . S
C485 C484 1.381 . S
C485 C487 1.381 . S
C485 C488 1.487 . S
C486 C483 1.382 . S
C486 C487 1.387 . S
C486 H512 0.930 . S
C487 C485 1.381 . S
C487 C486 1.387 . S
C487 H513 0.931 . S
C488 C485 1.487 . S
C488 C495 1.399 . S
C488 N526 1.343 . S
C489 C490 1.384 . S
C489 C491 1.384 . S
C489 H514 0.931 . S
C490 C489 1.384 . S
C490 C493 1.382 . S
C491 C489 1.384 . S
C491 C492 1.381 . S
C491 H515 0.930 . S
C492 C491 1.381 . S
C492 C494 1.381 . S
C492 C495 1.487 . S
C493 C490 1.382 . S
C493 C494 1.387 . S
C493 H516 0.930 . S
C494 C492 1.381 . S
C494 C493 1.387 . S
C494 H517 0.931 . S
C495 C488 1.399 . S
C495 C492 1.487 . S
C495 N527 1.343 . S
C496 C497 1.384 . S
C496 C498 1.384 . S
C496 H518 0.931 . S
C497 C496 1.384 . S
C497 C500 1.382 . S
C498 C496 1.384 . S
C498 C499 1.381 . S
C498 H519 0.930 . S
C499 C498 1.381 . S
C499 C501 1.381 . S
C499 C502 1.487 . S
C500 C497 1.382 . S
C500 C501 1.387 . S
C500 H520 0.930 . S
C501 C499 1.381 . S
C501 C500 1.387 . S
C501 H521 0.931 . S
C502 C499 1.487 . S
C502 C509 1.399 . S
C502 N527 1.343 . S
C503 C504 1.384 . S
C503 C505 1.384 . S
C503 H522 0.931 . S
C504 C503 1.384 . S
C504 C507 1.382 . S
C505 C503 1.384 . S
C505 C506 1.381 . S
C505 H523 0.930 . S
C506 C505 1.381 . S
C506 C508 1.381 . S
C506 C509 1.487 . S
C507 C504 1.382 . S
C507 C508 1.387 . S
C507 H524 0.930 . S
C508 C506 1.381 . S
C508 C507 1.387 . S
C508 H525 0.931 . S
C509 C502 1.399 . S
C509 C506 1.487 . S
C509 N526 1.343 . S
H510 C482 0.931 . S
H511 C484 0.930 . S
H512 C486 0.930 . S
H513 C487 0.931 . S
H514 C489 0.931 . S
H515 C491 0.930 . S
H516 C493 0.930 . S
H517 C494 0.931 . S
H518 C496 0.931 . S
H519 C498 0.930 . S
H520 C500 0.930 . S
H521 C501 0.931 . S
H522 C503 0.931 . S
H523 C505 0.930 . S
H524 C507 0.930 . S
H525 C508 0.931 . S
N526 C488 1.343 . S
N526 C509 1.343 . S
N527 C495 1.343 . S
N527 C502 1.343 . S
C528 C529 1.384 . S
C528 C530 1.384 . S
C528 H556 0.931 . S
C529 C528 1.384 . S
C529 C532 1.382 . S
C530 C528 1.384 . S
C530 C531 1.381 . S
C530 H557 0.930 . S
C531 C530 1.381 . S
C531 C533 1.381 . S
C531 C534 1.487 . S
C532 C529 1.382 . S
C532 C533 1.387 . S
C532 H558 0.930 . S
C533 C531 1.381 . S
C533 C532 1.387 . S
C533 H559 0.931 . S
C534 C531 1.487 . S
C534 C541 1.399 . S
C534 N572 1.343 . S
C535 C536 1.384 . S
C535 C537 1.384 . S
C535 H560 0.931 . S
C536 C535 1.384 . S
C536 C539 1.382 . S
C537 C535 1.384 . S
C537 C538 1.381 . S
C537 H561 0.930 . S
C538 C537 1.381 . S
C538 C540 1.381 . S
C538 C541 1.487 . S
C539 C536 1.382 . S
C539 C540 1.387 . S
C539 H562 0.930 . S
C540 C538 1.381 . S
C540 C539 1.387 . S
C540 H563 0.931 . S
C541 C534 1.399 . S
C541 C538 1.487 . S
C541 N573 1.343 . S
C542 C543 1.384 . S
C542 C544 1.384 . S
C542 H564 0.931 . S
C543 C542 1.384 . S
C543 C546 1.382 . S
C544 C542 1.384 . S
C544 C545 1.381 . S
C544 H565 0.930 . S
C545 C544 1.381 . S
C545 C547 1.381 . S
C545 C548 1.487 . S
C546 C543 1.382 . S
C546 C547 1.387 . S
C546 H566 0.930 . S
C547 C545 1.381 . S
C547 C546 1.387 . S
C547 H567 0.931 . S
C548 C545 1.487 . S
C548 C555 1.399 . S
C548 N573 1.343 . S
C549 C550 1.384 . S
C549 C551 1.384 . S
C549 H568 0.931 . S
C550 C549 1.384 . S
C550 C553 1.382 . S
C551 C549 1.384 . S
C551 C552 1.381 . S
C551 H569 0.930 . S
C552 C551 1.381 . S
C552 C554 1.381 . S
C552 C555 1.487 . S
C553 C550 1.382 . S
C553 C554 1.387 . S
C553 H570 0.930 . S
C554 C552 1.381 . S
C554 C553 1.387 . S
C554 H571 0.931 . S
C555 C548 1.399 . S
C555 C552 1.487 . S
C555 N572 1.343 . S
H556 C528 0.931 . S
H557 C530 0.930 . S
H558 C532 0.930 . S
H559 C533 0.931 . S
H560 C535 0.931 . S
H561 C537 0.930 . S
H562 C539 0.930 . S
H563 C540 0.931 . S
H564 C542 0.931 . S
H565 C544 0.930 . S
H566 C546 0.930 . S
H567 C547 0.931 . S
H568 C549 0.931 . S
H569 C551 0.930 . S
H570 C553 0.930 . S
H571 C554 0.931 . S
N572 C534 1.343 . S
N572 C555 1.343 . S
N573 C541 1.343 . S
N573 C548 1.343 . S
C574 C575 1.384 . S
C574 C576 1.384 . S
C574 H602 0.931 . S
C575 C574 1.384 . S
C575 C578 1.382 . S
C576 C574 1.384 . S
C576 C577 1.381 . S
C576 H603 0.930 . S
C577 C576 1.381 . S
C577 C579 1.381 . S
C577 C580 1.487 . S
C578 C575 1.382 . S
C578 C579 1.387 . S
C578 H604 0.930 . S
C579 C577 1.381 . S
C579 C578 1.387 . S
C579 H605 0.931 . S
C580 C577 1.487 . S
C580 C587 1.399 . S
C580 N618 1.343 . S
C581 C582 1.384 . S
C581 C583 1.384 . S
C581 H606 0.931 . S
C582 C581 1.384 . S
C582 C585 1.382 . S
C583 C581 1.384 . S
C583 C584 1.381 . S
C583 H607 0.930 . S
C584 C583 1.381 . S
C584 C586 1.381 . S
C584 C587 1.487 . S
C585 C582 1.382 . S
C585 C586 1.387 . S
C585 H608 0.930 . S
C586 C584 1.381 . S
C586 C585 1.387 . S
C586 H609 0.931 . S
C587 C580 1.399 . S
C587 C584 1.487 . S
C587 N619 1.343 . S
C588 C589 1.384 . S
C588 C590 1.384 . S
C588 H610 0.931 . S
C589 C588 1.384 . S
C589 C592 1.382 . S
C590 C588 1.384 . S
C590 C591 1.381 . S
C590 H611 0.930 . S
C591 C590 1.381 . S
C591 C593 1.381 . S
C591 C594 1.487 . S
C592 C589 1.382 . S
C592 C593 1.387 . S
C592 H612 0.930 . S
C593 C591 1.381 . S
C593 C592 1.387 . S
C593 H613 0.931 . S
C594 C591 1.487 . S
C594 C601 1.399 . S
C594 N619 1.343 . S
C595 C596 1.384 . S
C595 C597 1.384 . S
C595 H614 0.931 . S
C596 C595 1.384 . S
C596 C599 1.382 . S
C597 C595 1.384 . S
C597 C598 1.381 . S
C597 H615 0.930 . S
C598 C597 1.381 . S
C598 C600 1.381 . S
C598 C601 1.487 . S
C599 C596 1.382 . S
C599 C600 1.387 . S
C599 H616 0.930 . S
C600 C598 1.381 . S
C600 C599 1.387 . S
C600 H617 0.931 . S
C601 C594 1.399 . S
C601 C598 1.487 . S
C601 N618 1.343 . S
H602 C574 0.931 . S
H603 C576 0.930 . S
H604 C578 0.930 . S
H605 C579 0.931 . S
H606 C581 0.931 . S
H607 C583 0.930 . S
H608 C585 0.930 . S
H609 C586 0.931 . S
H610 C588 0.931 . S
H611 C590 0.930 . S
H612 C592 0.930 . S
H613 C593 0.931 . S
H614 C595 0.931 . S
H615 C597 0.930 . S
H616 C599 0.930 . S
H617 C600 0.931 . S
N618 C580 1.343 . S
N618 C601 1.343 . S
N619 C587 1.343 . S
N619 C594 1.343 . S
C620 C621 1.384 . S
C620 C622 1.384 . S
C620 H648 0.931 . S
C621 C620 1.384 . S
C621 C624 1.382 . S
C622 C620 1.384 . S
C622 C623 1.381 . S
C622 H649 0.930 . S
C623 C622 1.381 . S
C623 C625 1.381 . S
C623 C626 1.487 . S
C624 C621 1.382 . S
C624 C625 1.387 . S
C624 H650 0.930 . S
C625 C623 1.381 . S
C625 C624 1.387 . S
C625 H651 0.931 . S
C626 C623 1.487 . S
C626 C633 1.399 . S
C626 N664 1.343 . S
C627 C628 1.384 . S
C627 C629 1.384 . S
C627 H652 0.931 . S
C628 C627 1.384 . S
C628 C631 1.382 . S
C629 C627 1.384 . S
C629 C630 1.381 . S
C629 H653 0.930 . S
C630 C629 1.381 . S
C630 C632 1.381 . S
C630 C633 1.487 . S
C631 C628 1.382 . S
C631 C632 1.387 . S
C631 H654 0.930 . S
C632 C630 1.381 . S
C632 C631 1.387 . S
C632 H655 0.931 . S
C633 C626 1.399 . S
C633 C630 1.487 . S
C633 N665 1.343 . S
C634 C635 1.384 . S
C634 C636 1.384 . S
C634 H656 0.931 . S
C635 C634 1.384 . S
C635 C638 1.382 . S
C636 C634 1.384 . S
C636 C637 1.381 . S
C636 H657 0.930 . S
C637 C636 1.381 . S
C637 C639 1.381 . S
C637 C640 1.487 . S
C638 C635 1.382 . S
C638 C639 1.387 . S
C638 H658 0.930 . S
C639 C637 1.381 . S
C639 C638 1.387 . S
C639 H659 0.931 . S
C640 C637 1.487 . S
C640 C647 1.399 . S
C640 N665 1.343 . S
C641 C642 1.384 . S
C641 C643 1.384 . S
C641 H660 0.931 . S
C642 C641 1.384 . S
C642 C645 1.382 . S
C643 C641 1.384 . S
C643 C644 1.381 . S
C643 H661 0.930 . S
C644 C643 1.381 . S
C644 C646 1.381 . S
C644 C647 1.487 . S
C645 C642 1.382 . S
C645 C646 1.387 . S
C645 H662 0.930 . S
C646 C644 1.381 . S
C646 C645 1.387 . S
C646 H663 0.931 . S
C647 C640 1.399 . S
C647 C644 1.487 . S
C647 N664 1.343 . S
H648 C620 0.931 . S
H649 C622 0.930 . S
H650 C624 0.930 . S
H651 C625 0.931 . S
H652 C627 0.931 . S
H653 C629 0.930 . S
H654 C631 0.930 . S
H655 C632 0.931 . S
H656 C634 0.931 . S
H657 C636 0.930 . S
H658 C638 0.930 . S
H659 C639 0.931 . S
H660 C641 0.931 . S
H661 C643 0.930 . S
H662 C645 0.930 . S
H663 C646 0.931 . S
N664 C626 1.343 . S
N664 C647 1.343 . S
N665 C633 1.343 . S
N665 C640 1.343 . S
C666 C667 1.384 . S
C666 C668 1.384 . S
C666 H694 0.931 . S
C667 C666 1.384 . S
C667 C670 1.382 1_655 S
C668 C666 1.384 . S
C668 C669 1.374 . S
C668 H695 0.930 . S
C669 C668 1.374 . S
C669 C671 1.385 1_655 S
C669 C672 1.481 1_655 S
C670 C667 1.382 1_455 S
C670 C671 1.387 . S
C670 H696 0.930 . S
C671 C669 1.385 1_455 S
C671 C670 1.387 . S
C671 H697 0.931 . S
C672 C669 1.481 1_455 S
C672 C679 1.399 1_455 S
C672 N710 1.354 . S
C673 C674 1.384 . S
C673 C675 1.384 . S
C673 H698 0.931 . S
C674 C673 1.384 . S
C674 C677 1.382 1_455 S
C675 C673 1.384 . S
C675 C676 1.381 . S
C675 H699 0.930 . S
C676 C675 1.381 . S
C676 C678 1.381 1_455 S
C676 C679 1.491 1_455 S
C677 C674 1.382 1_655 S
C677 C678 1.387 . S
C677 H700 0.930 . S
C678 C676 1.381 1_655 S
C678 C677 1.387 . S
C678 H701 0.931 . S
C679 C672 1.399 1_655 S
C679 C676 1.491 1_655 S
C679 N711 1.367 . S
C680 C681 1.384 . S
C680 C682 1.384 . S
C680 H702 0.931 . S
C681 C680 1.384 . S
C681 C684 1.382 1_455 S
C682 C680 1.384 . S
C682 C683 1.390 . S
C682 H703 0.930 . S
C683 C682 1.390 . S
C683 C685 1.376 1_455 S
C683 C686 1.481 1_455 S
C684 C681 1.382 1_655 S
C684 C685 1.387 . S
C684 H704 0.930 . S
C685 C683 1.376 1_655 S
C685 C684 1.387 . S
C685 H705 0.931 . S
C686 C683 1.481 1_655 S
C686 C693 1.399 1_655 S
C686 N711 1.316 . S
C687 C688 1.384 . S
C687 C689 1.384 . S
C687 H706 0.931 . S
C688 C687 1.384 . S
C688 C691 1.382 1_655 S
C689 C687 1.384 . S
C689 C690 1.381 1_655 S
C689 H707 0.930 . S
C690 C689 1.381 1_455 S
C690 C692 1.381 . S
C690 C693 1.498 . S
C691 C688 1.382 1_455 S
C691 C692 1.387 . S
C691 H708 0.930 . S
C692 C690 1.381 . S
C692 C691 1.387 . S
C692 H709 0.931 . S
C693 C686 1.399 1_455 S
C693 C690 1.498 . S
C693 N710 1.332 . S
H694 C666 0.931 . S
H695 C668 0.930 . S
H696 C670 0.930 . S
H697 C671 0.931 . S
H698 C673 0.931 . S
H699 C675 0.930 . S
H700 C677 0.930 . S
H701 C678 0.931 . S
H702 C680 0.931 . S
H703 C682 0.930 . S
H704 C684 0.930 . S
H705 C685 0.931 . S
H706 C687 0.931 . S
H707 C689 0.930 . S
H708 C691 0.930 . S
H709 C692 0.931 . S
N710 C672 1.354 . S
N710 C693 1.332 . S
N711 C679 1.367 . S
N711 C686 1.316 . S
C712 C713 1.384 . S
C712 C714 1.384 . S
C712 H740 0.931 . S
C713 C712 1.384 . S
C713 C716 1.382 . S
C714 C712 1.384 . S
C714 C715 1.381 . S
C714 H741 0.930 . S
C715 C714 1.381 . S
C715 C717 1.381 . S
C715 C718 1.487 . S
C716 C713 1.382 . S
C716 C717 1.387 . S
C716 H742 0.930 . S
C717 C715 1.381 . S
C717 C716 1.387 . S
C717 H743 0.931 . S
C718 C715 1.487 . S
C718 C725 1.399 . S
C718 N756 1.343 . S
C719 C720 1.384 . S
C719 C721 1.384 . S
C719 H744 0.931 . S
C720 C719 1.384 . S
C720 C723 1.382 . S
C721 C719 1.384 . S
C721 C722 1.381 . S
C721 H745 0.930 . S
C722 C721 1.381 . S
C722 C724 1.381 . S
C722 C725 1.487 . S
C723 C720 1.382 . S
C723 C724 1.387 . S
C723 H746 0.930 . S
C724 C722 1.381 . S
C724 C723 1.387 . S
C724 H747 0.931 . S
C725 C718 1.399 . S
C725 C722 1.487 . S
C725 N757 1.343 . S
C726 C727 1.384 . S
C726 C728 1.384 . S
C726 H748 0.931 . S
C727 C726 1.384 . S
C727 C730 1.382 . S
C728 C726 1.384 . S
C728 C729 1.381 . S
C728 H749 0.930 . S
C729 C728 1.381 . S
C729 C731 1.381 . S
C729 C732 1.487 . S
C730 C727 1.382 . S
C730 C731 1.387 . S
C730 H750 0.930 . S
C731 C729 1.381 . S
C731 C730 1.387 . S
C731 H751 0.931 . S
C732 C729 1.487 . S
C732 C739 1.399 . S
C732 N757 1.343 . S
C733 C734 1.384 . S
C733 C735 1.384 . S
C733 H752 0.931 . S
C734 C733 1.384 . S
C734 C737 1.382 . S
C735 C733 1.384 . S
C735 C736 1.381 . S
C735 H753 0.930 . S
C736 C735 1.381 . S
C736 C738 1.381 . S
C736 C739 1.487 . S
C737 C734 1.382 . S
C737 C738 1.387 . S
C737 H754 0.930 . S
C738 C736 1.381 . S
C738 C737 1.387 . S
C738 H755 0.931 . S
C739 C732 1.399 . S
C739 C736 1.487 . S
C739 N756 1.343 . S
H740 C712 0.931 . S
H741 C714 0.930 . S
H742 C716 0.930 . S
H743 C717 0.931 . S
H744 C719 0.931 . S
H745 C721 0.930 . S
H746 C723 0.930 . S
H747 C724 0.931 . S
H748 C726 0.931 . S
H749 C728 0.930 . S
H750 C730 0.930 . S
H751 C731 0.931 . S
H752 C733 0.931 . S
H753 C735 0.930 . S
H754 C737 0.930 . S
H755 C738 0.931 . S
N756 C718 1.343 . S
N756 C739 1.343 . S
N757 C725 1.343 . S
N757 C732 1.343 . S
C758 C759 1.384 1_545 S
C758 C760 1.384 . S
C758 H786 0.931 . S
C759 C758 1.384 1_565 S
C759 C762 1.382 . S
C760 C758 1.384 . S
C760 C761 1.381 1_545 S
C760 H787 0.930 . S
C761 C760 1.381 1_565 S
C761 C763 1.381 . S
C761 C764 1.487 . S
C762 C759 1.382 . S
C762 C763 1.387 . S
C762 H788 0.930 . S
C763 C761 1.381 . S
C763 C762 1.387 . S
C763 H789 0.931 . S
C764 C761 1.487 . S
C764 C771 1.399 1_565 S
C764 N802 1.343 . S
C765 C766 1.384 1_565 S
C765 C767 1.384 . S
C765 H790 0.931 . S
C766 C765 1.384 1_545 S
C766 C769 1.382 . S
C767 C765 1.384 . S
C767 C768 1.381 1_565 S
C767 H791 0.930 . S
C768 C767 1.381 1_545 S
C768 C770 1.381 . S
C768 C771 1.487 . S
C769 C766 1.382 . S
C769 C770 1.387 . S
C769 H792 0.930 . S
C770 C768 1.381 . S
C770 C769 1.387 . S
C770 H793 0.931 . S
C771 C764 1.399 1_545 S
C771 C768 1.487 . S
C771 N803 1.343 . S
C772 C773 1.384 1_565 S
C772 C774 1.384 . S
C772 H794 0.931 . S
C773 C772 1.384 1_545 S
C773 C776 1.382 . S
C774 C772 1.384 . S
C774 C775 1.381 1_565 S
C774 H795 0.930 . S
C775 C774 1.381 1_545 S
C775 C777 1.381 . S
C775 C778 1.487 . S
C776 C773 1.382 . S
C776 C777 1.387 . S
C776 H796 0.930 . S
C777 C775 1.381 . S
C777 C776 1.387 . S
C777 H797 0.931 . S
C778 C775 1.487 . S
C778 C785 1.399 1_545 S
C778 N803 1.343 . S
C779 C780 1.384 1_545 S
C779 C781 1.384 . S
C779 H798 0.931 . S
C780 C779 1.384 1_565 S
C780 C783 1.382 . S
C781 C779 1.384 . S
C781 C782 1.381 1_545 S
C781 H799 0.930 . S
C782 C781 1.381 1_565 S
C782 C784 1.381 . S
C782 C785 1.487 . S
C783 C780 1.382 . S
C783 C784 1.387 . S
C783 H800 0.930 . S
C784 C782 1.381 . S
C784 C783 1.387 . S
C784 H801 0.931 . S
C785 C778 1.399 1_565 S
C785 C782 1.487 . S
C785 N802 1.343 . S
H786 C758 0.931 . S
H787 C760 0.930 . S
H788 C762 0.930 . S
H789 C763 0.931 . S
H790 C765 0.931 . S
H791 C767 0.930 . S
H792 C769 0.930 . S
H793 C770 0.931 . S
H794 C772 0.931 . S
H795 C774 0.930 . S
H796 C776 0.930 . S
H797 C777 0.931 . S
H798 C779 0.931 . S
H799 C781 0.930 . S
H800 C783 0.930 . S
H801 C784 0.931 . S
N802 C764 1.343 . S
N802 C785 1.343 . S
N803 C771 1.343 . S
N803 C778 1.343 . S
C804 C805 1.384 . S
C804 C806 1.384 . S
C804 H832 0.931 . S
C805 C804 1.384 . S
C805 C808 1.382 1_545 S
C806 C804 1.384 . S
C806 C807 1.381 . S
C806 H833 0.930 . S
C807 C806 1.381 . S
C807 C809 1.381 1_545 S
C807 C810 1.491 1_545 S
C808 C805 1.382 1_565 S
C808 C809 1.387 . S
C808 H834 0.930 . S
C809 C807 1.381 1_565 S
C809 C808 1.387 . S
C809 H835 0.931 . S
C810 C807 1.491 1_565 S
C810 C817 1.399 1_565 S
C810 N848 1.367 . S
C811 C812 1.384 . S
C811 C813 1.384 . S
C811 H836 0.931 . S
C812 C811 1.384 . S
C812 C815 1.382 1_565 S
C813 C811 1.384 . S
C813 C814 1.373 . S
C813 H837 0.930 . S
C814 C813 1.373 . S
C814 C816 1.385 1_565 S
C814 C817 1.481 1_565 S
C815 C812 1.382 1_545 S
C815 C816 1.387 . S
C815 H838 0.930 . S
C816 C814 1.385 1_545 S
C816 C815 1.387 . S
C816 H839 0.931 . S
C817 C810 1.399 1_545 S
C817 C814 1.481 1_545 S
C817 N849 1.354 . S
C818 C819 1.384 . S
C818 C820 1.384 . S
C818 H840 0.931 . S
C819 C818 1.384 . S
C819 C822 1.382 1_565 S
C820 C818 1.384 . S
C820 C821 1.381 1_565 S
C820 H841 0.930 . S
C821 C820 1.381 1_545 S
C821 C823 1.381 . S
C821 C824 1.498 . S
C822 C819 1.382 1_545 S
C822 C823 1.387 . S
C822 H842 0.930 . S
C823 C821 1.381 . S
C823 C822 1.387 . S
C823 H843 0.931 . S
C824 C821 1.498 . S
C824 C831 1.399 1_545 S
C824 N849 1.332 . S
C825 C826 1.384 . S
C825 C827 1.384 . S
C825 H844 0.931 . S
C826 C825 1.384 . S
C826 C829 1.382 1_545 S
C827 C825 1.384 . S
C827 C828 1.390 . S
C827 H845 0.930 . S
C828 C827 1.390 . S
C828 C830 1.377 1_545 S
C828 C831 1.481 1_545 S
C829 C826 1.382 1_565 S
C829 C830 1.387 . S
C829 H846 0.930 . S
C830 C828 1.377 1_565 S
C830 C829 1.387 . S
C830 H847 0.931 . S
C831 C824 1.399 1_565 S
C831 C828 1.481 1_565 S
C831 N848 1.316 . S
H832 C804 0.931 . S
H833 C806 0.930 . S
H834 C808 0.930 . S
H835 C809 0.931 . S
H836 C811 0.931 . S
H837 C813 0.930 . S
H838 C815 0.930 . S
H839 C816 0.931 . S
H840 C818 0.931 . S
H841 C820 0.930 . S
H842 C822 0.930 . S
H843 C823 0.931 . S
H844 C825 0.931 . S
H845 C827 0.930 . S
H846 C829 0.930 . S
H847 C830 0.931 . S
N848 C810 1.367 . S
N848 C831 1.316 . S
N849 C817 1.354 . S
N849 C824 1.332 . S
C850 C851 1.384 . S
C850 C852 1.384 . S
C850 H878 0.931 . S
C851 C850 1.384 . S
C851 C854 1.382 1_655 S
C852 C850 1.384 . S
C852 C853 1.394 . S
C852 H879 0.930 . S
C853 C852 1.394 . S
C853 C855 1.374 1_655 S
C853 C856 1.480 1_655 S
C854 C851 1.382 1_455 S
C854 C855 1.387 . S
C854 H880 0.930 . S
C855 C853 1.374 1_455 S
C855 C854 1.387 . S
C855 H881 0.931 . S
C856 C853 1.480 1_455 S
C856 C863 1.399 1_455 S
C856 N894 1.317 . S
C857 C858 1.384 . S
C857 C859 1.384 . S
C857 H882 0.931 . S
C858 C857 1.384 . S
C858 C861 1.382 1_455 S
C859 C857 1.384 . S
C859 C860 1.382 1_455 S
C859 H883 0.930 . S
C860 C859 1.382 1_655 S
C860 C862 1.379 . S
C860 C863 1.499 . S
C861 C858 1.382 1_655 S
C861 C862 1.387 . S
C861 H884 0.930 . S
C862 C860 1.379 . S
C862 C861 1.387 . S
C862 H885 0.931 . S
C863 C856 1.399 1_655 S
C863 C860 1.499 . S
C863 N895 1.366 . S
C864 C865 1.384 . S
C864 C866 1.384 . S
C864 H886 0.931 . S
C865 C864 1.384 . S
C865 C868 1.382 1_455 S
C866 C864 1.384 . S
C866 C867 1.377 . S
C866 H887 0.930 . S
C867 C866 1.377 . S
C867 C869 1.383 1_455 S
C867 C870 1.480 1_455 S
C868 C865 1.382 1_655 S
C868 C869 1.387 . S
C868 H888 0.930 . S
C869 C867 1.383 1_655 S
C869 C868 1.387 . S
C869 H889 0.931 . S
C870 C867 1.480 1_655 S
C870 C877 1.399 1_655 S
C870 N895 1.317 . S
C871 C872 1.384 . S
C871 C873 1.384 . S
C871 H890 0.931 . S
C872 C871 1.384 . S
C872 C875 1.382 1_655 S
C873 C871 1.384 . S
C873 C874 1.382 . S
C873 H891 0.930 . S
C874 C873 1.382 . S
C874 C876 1.379 1_655 S
C874 C877 1.492 1_655 S
C875 C872 1.382 1_455 S
C875 C876 1.387 . S
C875 H892 0.930 . S
C876 C874 1.379 1_455 S
C876 C875 1.387 . S
C876 H893 0.931 . S
C877 C870 1.399 1_455 S
C877 C874 1.492 1_455 S
C877 N894 1.366 . S
H878 C850 0.931 . S
H879 C852 0.930 . S
H880 C854 0.930 . S
H881 C855 0.931 . S
H882 C857 0.931 . S
H883 C859 0.930 . S
H884 C861 0.930 . S
H885 C862 0.931 . S
H886 C864 0.931 . S
H887 C866 0.930 . S
H888 C868 0.930 . S
H889 C869 0.931 . S
H890 C871 0.931 . S
H891 C873 0.930 . S
H892 C875 0.930 . S
H893 C876 0.931 . S
N894 C856 1.317 . S
N894 C877 1.366 . S
N895 C863 1.366 . S
N895 C870 1.317 . S
C896 C897 1.384 . S
C896 C898 1.384 . S
C896 H924 0.931 . S
C897 C896 1.384 . S
C897 C900 1.382 . S
C898 C896 1.384 . S
C898 C899 1.381 . S
C898 H925 0.930 . S
C899 C898 1.381 . S
C899 C901 1.381 . S
C899 C902 1.487 . S
C900 C897 1.382 . S
C900 C901 1.387 . S
C900 H926 0.930 . S
C901 C899 1.381 . S
C901 C900 1.387 . S
C901 H927 0.931 . S
C902 C899 1.487 . S
C902 C909 1.399 . S
C902 N940 1.343 . S
C903 C904 1.384 . S
C903 C905 1.384 . S
C903 H928 0.931 . S
C904 C903 1.384 . S
C904 C907 1.382 . S
C905 C903 1.384 . S
C905 C906 1.381 . S
C905 H929 0.930 . S
C906 C905 1.381 . S
C906 C908 1.381 . S
C906 C909 1.487 . S
C907 C904 1.382 . S
C907 C908 1.387 . S
C907 H930 0.930 . S
C908 C906 1.381 . S
C908 C907 1.387 . S
C908 H931 0.931 . S
C909 C902 1.399 . S
C909 C906 1.487 . S
C909 N941 1.343 . S
C910 C911 1.384 . S
C910 C912 1.384 . S
C910 H932 0.931 . S
C911 C910 1.384 . S
C911 C914 1.382 . S
C912 C910 1.384 . S
C912 C913 1.381 . S
C912 H933 0.930 . S
C913 C912 1.381 . S
C913 C915 1.381 . S
C913 C916 1.487 . S
C914 C911 1.382 . S
C914 C915 1.387 . S
C914 H934 0.930 . S
C915 C913 1.381 . S
C915 C914 1.387 . S
C915 H935 0.931 . S
C916 C913 1.487 . S
C916 C923 1.399 . S
C916 N941 1.343 . S
C917 C918 1.384 . S
C917 C919 1.384 . S
C917 H936 0.931 . S
C918 C917 1.384 . S
C918 C921 1.382 . S
C919 C917 1.384 . S
C919 C920 1.381 . S
C919 H937 0.930 . S
C920 C919 1.381 . S
C920 C922 1.381 . S
C920 C923 1.487 . S
C921 C918 1.382 . S
C921 C922 1.387 . S
C921 H938 0.930 . S
C922 C920 1.381 . S
C922 C921 1.387 . S
C922 H939 0.931 . S
C923 C916 1.399 . S
C923 C920 1.487 . S
C923 N940 1.343 . S
H924 C896 0.931 . S
H925 C898 0.930 . S
H926 C900 0.930 . S
H927 C901 0.931 . S
H928 C903 0.931 . S
H929 C905 0.930 . S
H930 C907 0.930 . S
H931 C908 0.931 . S
H932 C910 0.931 . S
H933 C912 0.930 . S
H934 C914 0.930 . S
H935 C915 0.931 . S
H936 C917 0.931 . S
H937 C919 0.930 . S
H938 C921 0.930 . S
H939 C922 0.931 . S
N940 C902 1.343 . S
N940 C923 1.343 . S
N941 C909 1.343 . S
N941 C916 1.343 . S
C942 C943 1.384 . S
C942 C944 1.384 . S
C942 H970 0.931 . S
C943 C942 1.384 . S
C943 C946 1.382 . S
C944 C942 1.384 . S
C944 C945 1.381 . S
C944 H971 0.930 . S
C945 C944 1.381 . S
C945 C947 1.381 . S
C945 C948 1.487 . S
C946 C943 1.382 . S
C946 C947 1.387 . S
C946 H972 0.930 . S
C947 C945 1.381 . S
C947 C946 1.387 . S
C947 H973 0.931 . S
C948 C945 1.487 . S
C948 C955 1.399 . S
C948 N986 1.343 . S
C949 C950 1.384 . S
C949 C951 1.384 . S
C949 H974 0.931 . S
C950 C949 1.384 . S
C950 C953 1.382 . S
C951 C949 1.384 . S
C951 C952 1.381 . S
C951 H975 0.930 . S
C952 C951 1.381 . S
C952 C954 1.381 . S
C952 C955 1.487 . S
C953 C950 1.382 . S
C953 C954 1.387 . S
C953 H976 0.930 . S
C954 C952 1.381 . S
C954 C953 1.387 . S
C954 H977 0.931 . S
C955 C948 1.399 . S
C955 C952 1.487 . S
C955 N987 1.343 . S
C956 C957 1.384 . S
C956 C958 1.384 . S
C956 H978 0.931 . S
C957 C956 1.384 . S
C957 C960 1.382 . S
C958 C956 1.384 . S
C958 C959 1.381 . S
C958 H979 0.930 . S
C959 C958 1.381 . S
C959 C961 1.381 . S
C959 C962 1.487 . S
C960 C957 1.382 . S
C960 C961 1.387 . S
C960 H980 0.930 . S
C961 C959 1.381 . S
C961 C960 1.387 . S
C961 H981 0.931 . S
C962 C959 1.487 . S
C962 C969 1.399 . S
C962 N987 1.343 . S
C963 C964 1.384 . S
C963 C965 1.384 . S
C963 H982 0.931 . S
C964 C963 1.384 . S
C964 C967 1.382 . S
C965 C963 1.384 . S
C965 C966 1.381 . S
C965 H983 0.930 . S
C966 C965 1.381 . S
C966 C968 1.381 . S
C966 C969 1.487 . S
C967 C964 1.382 . S
C967 C968 1.387 . S
C967 H984 0.930 . S
C968 C966 1.381 . S
C968 C967 1.387 . S
C968 H985 0.931 . S
C969 C962 1.399 . S
C969 C966 1.487 . S
C969 N986 1.343 . S
H970 C942 0.931 . S
H971 C944 0.930 . S
H972 C946 0.930 . S
H973 C947 0.931 . S
H974 C949 0.931 . S
H975 C951 0.930 . S
H976 C953 0.930 . S
H977 C954 0.931 . S
H978 C956 0.931 . S
H979 C958 0.930 . S
H980 C960 0.930 . S
H981 C961 0.931 . S
H982 C963 0.931 . S
H983 C965 0.930 . S
H984 C967 0.930 . S
H985 C968 0.931 . S
N986 C948 1.343 . S
N986 C969 1.343 . S
N987 C955 1.343 . S
N987 C962 1.343 . S
C988 C989 1.384 . S
C988 C990 1.384 . S
C988 H1016 0.931 . S
C989 C988 1.384 . S
C989 C992 1.382 . S
C990 C988 1.384 . S
C990 C991 1.381 . S
C990 H1017 0.930 . S
C991 C990 1.381 . S
C991 C993 1.381 . S
C991 C994 1.487 . S
C992 C989 1.382 . S
C992 C993 1.387 . S
C992 H1018 0.930 . S
C993 C991 1.381 . S
C993 C992 1.387 . S
C993 H1019 0.931 . S
C994 C991 1.487 . S
C994 C1001 1.399 . S
C994 N1032 1.343 . S
C995 C996 1.384 . S
C995 C997 1.384 . S
C995 H1020 0.931 . S
C996 C995 1.384 . S
C996 C999 1.382 . S
C997 C995 1.384 . S
C997 C998 1.381 . S
C997 H1021 0.930 . S
C998 C997 1.381 . S
C998 C1000 1.381 . S
C998 C1001 1.487 . S
C999 C996 1.382 . S
C999 C1000 1.387 . S
C999 H1022 0.930 . S
C1000 C998 1.381 . S
C1000 C999 1.387 . S
C1000 H1023 0.931 . S
C1001 C994 1.399 . S
C1001 C998 1.487 . S
C1001 N1033 1.343 . S
C1002 C1003 1.384 . S
C1002 C1004 1.384 . S
C1002 H1024 0.931 . S
C1003 C1002 1.384 . S
C1003 C1006 1.382 . S
C1004 C1002 1.384 . S
C1004 C1005 1.381 . S
C1004 H1025 0.930 . S
C1005 C1004 1.381 . S
C1005 C1007 1.381 . S
C1005 C1008 1.487 . S
C1006 C1003 1.382 . S
C1006 C1007 1.387 . S
C1006 H1026 0.930 . S
C1007 C1005 1.381 . S
C1007 C1006 1.387 . S
C1007 H1027 0.931 . S
C1008 C1005 1.487 . S
C1008 C1015 1.399 . S
C1008 N1033 1.343 . S
C1009 C1010 1.384 . S
C1009 C1011 1.384 . S
C1009 H1028 0.931 . S
C1010 C1009 1.384 . S
C1010 C1013 1.382 . S
C1011 C1009 1.384 . S
C1011 C1012 1.381 . S
C1011 H1029 0.930 . S
C1012 C1011 1.381 . S
C1012 C1014 1.381 . S
C1012 C1015 1.487 . S
C1013 C1010 1.382 . S
C1013 C1014 1.387 . S
C1013 H1030 0.930 . S
C1014 C1012 1.381 . S
C1014 C1013 1.387 . S
C1014 H1031 0.931 . S
C1015 C1008 1.399 . S
C1015 C1012 1.487 . S
C1015 N1032 1.343 . S
H1016 C988 0.931 . S
H1017 C990 0.930 . S
H1018 C992 0.930 . S
H1019 C993 0.931 . S
H1020 C995 0.931 . S
H1021 C997 0.930 . S
H1022 C999 0.930 . S
H1023 C1000 0.931 . S
H1024 C1002 0.931 . S
H1025 C1004 0.930 . S
H1026 C1006 0.930 . S
H1027 C1007 0.931 . S
H1028 C1009 0.931 . S
H1029 C1011 0.930 . S
H1030 C1013 0.930 . S
H1031 C1014 0.931 . S
N1032 C994 1.343 . S
N1032 C1015 1.343 . S
N1033 C1001 1.343 . S
N1033 C1008 1.343 . S
C1034 C1035 1.384 . S
C1034 C1036 1.384 . S
C1034 H1062 0.931 . S
C1035 C1034 1.384 . S
C1035 C1038 1.382 . S
C1036 C1034 1.384 . S
C1036 C1037 1.381 . S
C1036 H1063 0.930 . S
C1037 C1036 1.381 . S
C1037 C1039 1.381 . S
C1037 C1040 1.487 . S
C1038 C1035 1.382 . S
C1038 C1039 1.387 . S
C1038 H1064 0.930 . S
C1039 C1037 1.381 . S
C1039 C1038 1.387 . S
C1039 H1065 0.931 . S
C1040 C1037 1.487 . S
C1040 C1047 1.399 . S
C1040 N1078 1.343 . S
C1041 C1042 1.384 . S
C1041 C1043 1.384 . S
C1041 H1066 0.931 . S
C1042 C1041 1.384 . S
C1042 C1045 1.382 . S
C1043 C1041 1.384 . S
C1043 C1044 1.381 . S
C1043 H1067 0.930 . S
C1044 C1043 1.381 . S
C1044 C1046 1.381 . S
C1044 C1047 1.487 . S
C1045 C1042 1.382 . S
C1045 C1046 1.387 . S
C1045 H1068 0.930 . S
C1046 C1044 1.381 . S
C1046 C1045 1.387 . S
C1046 H1069 0.931 . S
C1047 C1040 1.399 . S
C1047 C1044 1.487 . S
C1047 N1079 1.343 . S
C1048 C1049 1.384 . S
C1048 C1050 1.384 . S
C1048 H1070 0.931 . S
C1049 C1048 1.384 . S
C1049 C1052 1.382 . S
C1050 C1048 1.384 . S
C1050 C1051 1.381 . S
C1050 H1071 0.930 . S
C1051 C1050 1.381 . S
C1051 C1053 1.381 . S
C1051 C1054 1.487 . S
C1052 C1049 1.382 . S
C1052 C1053 1.387 . S
C1052 H1072 0.930 . S
C1053 C1051 1.381 . S
C1053 C1052 1.387 . S
C1053 H1073 0.931 . S
C1054 C1051 1.487 . S
C1054 C1061 1.399 . S
C1054 N1079 1.343 . S
C1055 C1056 1.384 . S
C1055 C1057 1.384 . S
C1055 H1074 0.931 . S
C1056 C1055 1.384 . S
C1056 C1059 1.382 . S
C1057 C1055 1.384 . S
C1057 C1058 1.381 . S
C1057 H1075 0.930 . S
C1058 C1057 1.381 . S
C1058 C1060 1.381 . S
C1058 C1061 1.487 . S
C1059 C1056 1.382 . S
C1059 C1060 1.387 . S
C1059 H1076 0.930 . S
C1060 C1058 1.381 . S
C1060 C1059 1.387 . S
C1060 H1077 0.931 . S
C1061 C1054 1.399 . S
C1061 C1058 1.487 . S
C1061 N1078 1.343 . S
H1062 C1034 0.931 . S
H1063 C1036 0.930 . S
H1064 C1038 0.930 . S
H1065 C1039 0.931 . S
H1066 C1041 0.931 . S
H1067 C1043 0.930 . S
H1068 C1045 0.930 . S
H1069 C1046 0.931 . S
H1070 C1048 0.931 . S
H1071 C1050 0.930 . S
H1072 C1052 0.930 . S
H1073 C1053 0.931 . S
H1074 C1055 0.931 . S
H1075 C1057 0.930 . S
H1076 C1059 0.930 . S
H1077 C1060 0.931 . S
N1078 C1040 1.343 . S
N1078 C1061 1.343 . S
N1079 C1047 1.343 . S
N1079 C1054 1.343 . S
H1080 C1086 0.933 . S
H1081 C1090 0.930 . S
H1082 C1095 0.929 . S
H1083 C1093 0.960 1_455 S
H1084 C1088 0.929 . S
H1085 C1094 0.914 . S
C1086 H1080 0.933 . S
C1086 C1087 1.416 1_455 S
C1086 C1094 1.367 . S
C1087 C1086 1.416 1_655 S
C1087 C1095 1.433 . S
C1088 H1084 0.929 . S
C1088 C1090 1.378 . S
C1088 C1092 1.350 . S
C1089 C1092 1.463 . S
C1089 C1094 1.351 1_655 S
C1089 N1097 1.427 . S
C1090 H1081 0.930 . S
C1090 C1088 1.378 . S
C1090 C1091 1.367 . S
C1091 C1090 1.367 . S
C1091 C1093 1.433 . S
C1092 C1088 1.350 . S
C1092 C1089 1.463 . S
C1092 N1096 1.427 . S
C1093 H1083 0.960 1_655 S
C1093 C1091 1.433 . S
C1093 N1096 1.373 . S
C1094 H1085 0.914 . S
C1094 C1086 1.367 . S
C1094 C1089 1.351 1_455 S
C1095 H1082 0.929 . S
C1095 C1087 1.433 . S
C1095 N1097 1.384 . S
N1096 C1092 1.427 . S
N1096 C1093 1.373 . S
N1097 C1089 1.427 . S
N1097 C1095 1.384 . S
H1098 C1104 0.930 . S
H1099 C1108 0.930 . S
H1100 C1113 0.929 . S
H1101 C1111 0.929 . S
H1102 C1106 0.929 . S
H1103 C1112 0.929 . S
C1104 H1098 0.930 . S
C1104 C1105 1.367 . S
C1104 C1112 1.378 . S
C1105 C1104 1.367 . S
C1105 C1113 1.433 . S
C1106 H1102 0.929 . S
C1106 C1108 1.378 . S
C1106 C1110 1.350 . S
C1107 C1110 1.463 . S
C1107 C1112 1.350 . S
C1107 N1115 1.427 . S
C1108 H1099 0.930 . S
C1108 C1106 1.378 . S
C1108 C1109 1.367 . S
C1109 C1108 1.367 . S
C1109 C1111 1.433 . S
C1110 C1106 1.350 . S
C1110 C1107 1.463 . S
C1110 N1114 1.427 . S
C1111 H1101 0.929 . S
C1111 C1109 1.433 . S
C1111 N1114 1.384 . S
C1112 H1103 0.929 . S
C1112 C1104 1.378 . S
C1112 C1107 1.350 . S
C1113 H1100 0.929 . S
C1113 C1105 1.433 . S
C1113 N1115 1.384 . S
N1114 C1110 1.427 . S
N1114 C1111 1.384 . S
N1115 C1107 1.427 . S
N1115 C1113 1.384 . S
H1116 C1122 0.930 . S
H1117 C1126 0.930 . S
H1118 C1131 0.929 . S
H1119 C1129 0.929 . S
H1120 C1124 0.929 . S
H1121 C1130 0.929 . S
C1122 H1116 0.930 . S
C1122 C1123 1.367 . S
C1122 C1130 1.378 . S
C1123 C1122 1.367 . S
C1123 C1131 1.433 1_545 S
C1124 H1120 0.929 . S
C1124 C1126 1.378 . S
C1124 C1128 1.350 1_565 S
C1125 C1128 1.463 . S
C1125 C1130 1.350 . S
C1125 N1133 1.427 1_545 S
C1126 H1117 0.930 . S
C1126 C1124 1.378 . S
C1126 C1127 1.367 1_565 S
C1127 C1126 1.367 1_545 S
C1127 C1129 1.433 . S
C1128 C1124 1.350 1_545 S
C1128 C1125 1.463 . S
C1128 N1132 1.427 . S
C1129 H1119 0.929 . S
C1129 C1127 1.433 . S
C1129 N1132 1.384 . S
C1130 H1121 0.929 . S
C1130 C1122 1.378 . S
C1130 C1125 1.350 . S
C1131 H1118 0.929 . S
C1131 C1123 1.433 1_565 S
C1131 N1133 1.384 . S
N1132 C1128 1.427 . S
N1132 C1129 1.384 . S
N1133 C1125 1.427 1_565 S
N1133 C1131 1.384 . S
H1134 C1140 0.930 . S
H1135 C1144 0.930 . S
H1136 C1149 0.929 . S
H1137 C1147 0.929 . S
H1138 C1142 0.929 . S
H1139 C1148 0.929 . S
C1140 H1134 0.930 . S
C1140 C1141 1.367 . S
C1140 C1148 1.378 . S
C1141 C1140 1.367 . S
C1141 C1149 1.433 1_565 S
C1142 H1138 0.929 . S
C1142 C1144 1.378 . S
C1142 C1146 1.350 1_545 S
C1143 C1146 1.463 . S
C1143 C1148 1.350 . S
C1143 N1151 1.427 1_565 S
C1144 H1135 0.930 . S
C1144 C1142 1.378 . S
C1144 C1145 1.367 1_545 S
C1145 C1144 1.367 1_565 S
C1145 C1147 1.433 . S
C1146 C1142 1.350 1_565 S
C1146 C1143 1.463 . S
C1146 N1150 1.427 . S
C1147 H1137 0.929 . S
C1147 C1145 1.433 . S
C1147 N1150 1.384 . S
C1148 H1139 0.929 . S
C1148 C1140 1.378 . S
C1148 C1143 1.350 . S
C1149 H1136 0.929 . S
C1149 C1141 1.433 1_545 S
C1149 N1151 1.384 . S
N1150 C1146 1.427 . S
N1150 C1147 1.384 . S
N1151 C1143 1.427 1_545 S
N1151 C1149 1.384 . S
H1152 C1158 0.930 . S
H1153 C1162 0.930 . S
H1154 C1167 0.929 . S
H1155 C1165 0.929 . S
H1156 C1160 0.929 . S
H1157 C1166 0.929 . S
C1158 H1152 0.930 . S
C1158 C1159 1.367 1_655 S
C1158 C1166 1.378 . S
C1159 C1158 1.367 1_455 S
C1159 C1167 1.433 . S
C1160 H1156 0.929 . S
C1160 C1162 1.378 . S
C1160 C1164 1.350 . S
C1161 C1164 1.463 . S
C1161 C1166 1.350 1_455 S
C1161 N1169 1.427 . S
C1162 H1153 0.930 . S
C1162 C1160 1.378 . S
C1162 C1163 1.367 . S
C1163 C1162 1.367 . S
C1163 C1165 1.433 1_455 S
C1164 C1160 1.350 . S
C1164 C1161 1.463 . S
C1164 N1168 1.427 1_455 S
C1165 H1155 0.929 . S
C1165 C1163 1.433 1_655 S
C1165 N1168 1.384 . S
C1166 H1157 0.929 . S
C1166 C1158 1.378 . S
C1166 C1161 1.350 1_655 S
C1167 H1154 0.929 . S
C1167 C1159 1.433 . S
C1167 N1169 1.384 . S
N1168 C1164 1.427 1_655 S
N1168 C1165 1.384 . S
N1169 C1161 1.427 . S
N1169 C1167 1.384 . S
H1170 C1176 0.930 . S
H1171 C1180 0.930 . S
H1172 C1185 0.929 . S
H1173 C1183 0.929 . S
H1174 C1178 0.929 . S
H1175 C1184 0.929 . S
C1176 H1170 0.930 . S
C1176 C1177 1.367 . S
C1176 C1184 1.378 . S
C1177 C1176 1.367 . S
C1177 C1185 1.433 . S
C1178 H1174 0.929 . S
C1178 C1180 1.378 . S
C1178 C1182 1.350 . S
C1179 C1182 1.463 . S
C1179 C1184 1.350 . S
C1179 N1187 1.427 . S
C1180 H1171 0.930 . S
C1180 C1178 1.378 . S
C1180 C1181 1.367 . S
C1181 C1180 1.367 . S
C1181 C1183 1.433 . S
C1182 C1178 1.350 . S
C1182 C1179 1.463 . S
C1182 N1186 1.427 . S
C1183 H1173 0.929 . S
C1183 C1181 1.433 . S
C1183 N1186 1.384 . S
C1184 H1175 0.929 . S
C1184 C1176 1.378 . S
C1184 C1179 1.350 . S
C1185 H1172 0.929 . S
C1185 C1177 1.433 . S
C1185 N1187 1.384 . S
N1186 C1182 1.427 . S
N1186 C1183 1.384 . S
N1187 C1179 1.427 . S
N1187 C1185 1.384 . S
H1188 C1194 0.930 . S
H1189 C1198 0.930 . S
H1190 C1203 0.929 . S
H1191 C1201 0.929 . S
H1192 C1196 0.929 . S
H1193 C1202 0.929 . S
C1194 H1188 0.930 . S
C1194 C1195 1.367 . S
C1194 C1202 1.378 . S
C1195 C1194 1.367 . S
C1195 C1203 1.433 1_455 S
C1196 H1192 0.929 . S
C1196 C1198 1.378 . S
C1196 C1200 1.350 1_655 S
C1197 C1200 1.463 . S
C1197 C1202 1.350 . S
C1197 N1205 1.427 1_455 S
C1198 H1189 0.930 . S
C1198 C1196 1.378 . S
C1198 C1199 1.367 1_655 S
C1199 C1198 1.367 1_455 S
C1199 C1201 1.433 . S
C1200 C1196 1.350 1_455 S
C1200 C1197 1.463 . S
C1200 N1204 1.427 . S
C1201 H1191 0.929 . S
C1201 C1199 1.433 . S
C1201 N1204 1.384 . S
C1202 H1193 0.929 . S
C1202 C1194 1.378 . S
C1202 C1197 1.350 . S
C1203 H1190 0.929 . S
C1203 C1195 1.433 1_655 S
C1203 N1205 1.384 . S
N1204 C1200 1.427 . S
N1204 C1201 1.384 . S
N1205 C1197 1.427 1_655 S
N1205 C1203 1.384 . S
H1206 C1212 0.930 . S
H1207 C1216 0.930 . S
H1208 C1221 0.929 . S
H1209 C1219 0.929 . S
H1210 C1214 0.929 . S
H1211 C1220 0.929 . S
C1212 H1206 0.930 . S
C1212 C1213 1.367 . S
C1212 C1220 1.378 . S
C1213 C1212 1.367 . S
C1213 C1221 1.433 . S
C1214 H1210 0.929 . S
C1214 C1216 1.378 . S
C1214 C1218 1.350 . S
C1215 C1218 1.463 . S
C1215 C1220 1.350 . S
C1215 N1223 1.427 . S
C1216 H1207 0.930 . S
C1216 C1214 1.378 . S
C1216 C1217 1.367 . S
C1217 C1216 1.367 . S
C1217 C1219 1.433 . S
C1218 C1214 1.350 . S
C1218 C1215 1.463 . S
C1218 N1222 1.427 . S
C1219 H1209 0.929 . S
C1219 C1217 1.433 . S
C1219 N1222 1.384 . S
C1220 H1211 0.929 . S
C1220 C1212 1.378 . S
C1220 C1215 1.350 . S
C1221 H1208 0.929 . S
C1221 C1213 1.433 . S
C1221 N1223 1.384 . S
N1222 C1218 1.427 . S
N1222 C1219 1.384 . S
N1223 C1215 1.427 . S
N1223 C1221 1.384 . S
H1224 C1230 0.930 . S
H1225 C1234 0.930 . S
H1226 C1239 0.929 . S
H1227 C1237 0.929 . S
H1228 C1232 0.929 . S
H1229 C1238 0.929 . S
C1230 H1224 0.930 . S
C1230 C1231 1.367 1_545 S
C1230 C1238 1.378 . S
C1231 C1230 1.367 1_565 S
C1231 C1239 1.433 . S
C1232 H1228 0.929 . S
C1232 C1234 1.378 . S
C1232 C1236 1.350 . S
C1233 C1236 1.463 . S
C1233 C1238 1.350 1_565 S
C1233 N1241 1.427 . S
C1234 H1225 0.930 . S
C1234 C1232 1.378 . S
C1234 C1235 1.367 . S
C1235 C1234 1.367 . S
C1235 C1237 1.433 1_565 S
C1236 C1232 1.350 . S
C1236 C1233 1.463 . S
C1236 N1240 1.427 1_565 S
C1237 H1227 0.929 . S
C1237 C1235 1.433 1_545 S
C1237 N1240 1.384 . S
C1238 H1229 0.929 . S
C1238 C1230 1.378 . S
C1238 C1233 1.350 1_545 S
C1239 H1226 0.929 . S
C1239 C1231 1.433 . S
C1239 N1241 1.384 . S
N1240 C1236 1.427 1_545 S
N1240 C1237 1.384 . S
N1241 C1233 1.427 . S
N1241 C1239 1.384 . S
H1242 C1248 0.930 . S
H1243 C1252 0.930 . S
H1244 C1257 0.929 . S
H1245 C1255 0.929 . S
H1246 C1250 0.929 . S
H1247 C1256 0.929 . S
C1248 H1242 0.930 . S
C1248 C1249 1.367 . S
C1248 C1256 1.378 . S
C1249 C1248 1.367 . S
C1249 C1257 1.433 1_545 S
C1250 H1246 0.929 . S
C1250 C1252 1.378 . S
C1250 C1254 1.350 1_565 S
C1251 C1254 1.463 . S
C1251 C1256 1.350 . S
C1251 N1259 1.427 1_545 S
C1252 H1243 0.930 . S
C1252 C1250 1.378 . S
C1252 C1253 1.367 1_565 S
C1253 C1252 1.367 1_545 S
C1253 C1255 1.433 . S
C1254 C1250 1.350 1_545 S
C1254 C1251 1.463 . S
C1254 N1258 1.427 . S
C1255 H1245 0.929 . S
C1255 C1253 1.433 . S
C1255 N1258 1.384 . S
C1256 H1247 0.929 . S
C1256 C1248 1.378 . S
C1256 C1251 1.350 . S
C1257 H1244 0.929 . S
C1257 C1249 1.433 1_565 S
C1257 N1259 1.384 . S
N1258 C1254 1.427 . S
N1258 C1255 1.384 . S
N1259 C1251 1.427 1_565 S
N1259 C1257 1.384 . S
H1260 C1266 0.930 . S
H1261 C1270 0.930 . S
H1262 C1275 0.929 . S
H1263 C1273 0.929 . S
H1264 C1268 0.929 . S
H1265 C1274 0.929 . S
C1266 H1260 0.930 . S
C1266 C1267 1.367 1_455 S
C1266 C1274 1.378 . S
C1267 C1266 1.367 1_655 S
C1267 C1275 1.433 . S
C1268 H1264 0.929 . S
C1268 C1270 1.378 . S
C1268 C1272 1.350 . S
C1269 C1272 1.463 . S
C1269 C1274 1.350 1_655 S
C1269 N1277 1.427 . S
C1270 H1261 0.930 . S
C1270 C1268 1.378 . S
C1270 C1271 1.367 . S
C1271 C1270 1.367 . S
C1271 C1273 1.433 1_655 S
C1272 C1268 1.350 . S
C1272 C1269 1.463 . S
C1272 N1276 1.427 1_655 S
C1273 H1263 0.929 . S
C1273 C1271 1.433 1_455 S
C1273 N1276 1.384 . S
C1274 H1265 0.929 . S
C1274 C1266 1.378 . S
C1274 C1269 1.350 1_455 S
C1275 H1262 0.929 . S
C1275 C1267 1.433 . S
C1275 N1277 1.384 . S
N1276 C1272 1.427 1_455 S
N1276 C1273 1.384 . S
N1277 C1269 1.427 . S
N1277 C1275 1.384 . S
H1278 C1284 0.930 . S
H1279 C1288 0.930 . S
H1280 C1293 0.929 . S
H1281 C1291 0.929 . S
H1282 C1286 0.929 . S
H1283 C1292 0.929 . S
C1284 H1278 0.930 . S
C1284 C1285 1.367 . S
C1284 C1292 1.378 . S
C1285 C1284 1.367 . S
C1285 C1293 1.433 . S
C1286 H1282 0.929 . S
C1286 C1288 1.378 . S
C1286 C1290 1.350 . S
C1287 C1290 1.463 . S
C1287 C1292 1.350 . S
C1287 N1295 1.427 . S
C1288 H1279 0.930 . S
C1288 C1286 1.378 . S
C1288 C1289 1.367 . S
C1289 C1288 1.367 . S
C1289 C1291 1.433 . S
C1290 C1286 1.350 . S
C1290 C1287 1.463 . S
C1290 N1294 1.427 . S
C1291 H1281 0.929 . S
C1291 C1289 1.433 . S
C1291 N1294 1.384 . S
C1292 H1283 0.929 . S
C1292 C1284 1.378 . S
C1292 C1287 1.350 . S
C1293 H1280 0.929 . S
C1293 C1285 1.433 . S
C1293 N1295 1.384 . S
N1294 C1290 1.427 . S
N1294 C1291 1.384 . S
N1295 C1287 1.427 . S
N1295 C1293 1.384 . S
H1296 C1302 0.930 . S
H1297 C1306 0.930 . S
H1298 C1311 0.929 . S
H1299 C1309 0.929 . S
H1300 C1304 0.929 . S
H1301 C1310 0.929 . S
C1302 H1296 0.930 . S
C1302 C1303 1.367 . S
C1302 C1310 1.378 . S
C1303 C1302 1.367 . S
C1303 C1311 1.433 . S
C1304 H1300 0.929 . S
C1304 C1306 1.378 . S
C1304 C1308 1.350 . S
C1305 C1308 1.463 . S
C1305 C1310 1.350 . S
C1305 N1313 1.427 . S
C1306 H1297 0.930 . S
C1306 C1304 1.378 . S
C1306 C1307 1.367 . S
C1307 C1306 1.367 . S
C1307 C1309 1.433 . S
C1308 C1304 1.350 . S
C1308 C1305 1.463 . S
C1308 N1312 1.427 . S
C1309 H1299 0.929 . S
C1309 C1307 1.433 . S
C1309 N1312 1.384 . S
C1310 H1301 0.929 . S
C1310 C1302 1.378 . S
C1310 C1305 1.350 . S
C1311 H1298 0.929 . S
C1311 C1303 1.433 . S
C1311 N1313 1.384 . S
N1312 C1308 1.427 . S
N1312 C1309 1.384 . S
N1313 C1305 1.427 . S
N1313 C1311 1.384 . S
H1314 C1320 0.930 . S
H1315 C1324 0.930 . S
H1316 C1329 0.929 . S
H1317 C1327 0.929 . S
H1318 C1322 0.929 . S
H1319 C1328 0.929 . S
C1320 H1314 0.930 . S
C1320 C1321 1.367 . S
C1320 C1328 1.378 . S
C1321 C1320 1.367 . S
C1321 C1329 1.433 . S
C1322 H1318 0.929 . S
C1322 C1324 1.378 . S
C1322 C1326 1.350 . S
C1323 C1326 1.463 . S
C1323 C1328 1.350 . S
C1323 N1331 1.427 . S
C1324 H1315 0.930 . S
C1324 C1322 1.378 . S
C1324 C1325 1.367 . S
C1325 C1324 1.367 . S
C1325 C1327 1.433 . S
C1326 C1322 1.350 . S
C1326 C1323 1.463 . S
C1326 N1330 1.427 . S
C1327 H1317 0.929 . S
C1327 C1325 1.433 . S
C1327 N1330 1.384 . S
C1328 H1319 0.929 . S
C1328 C1320 1.378 . S
C1328 C1323 1.350 . S
C1329 H1316 0.929 . S
C1329 C1321 1.433 . S
C1329 N1331 1.384 . S
N1330 C1326 1.427 . S
N1330 C1327 1.384 . S
N1331 C1323 1.427 . S
N1331 C1329 1.384 . S
H1332 C1338 0.930 . S
H1333 C1342 0.930 . S
H1334 C1347 0.929 . S
H1335 C1345 0.929 . S
H1336 C1340 0.929 . S
H1337 C1346 0.929 . S
C1338 H1332 0.930 . S
C1338 C1339 1.367 . S
C1338 C1346 1.378 . S
C1339 C1338 1.367 . S
C1339 C1347 1.433 . S
C1340 H1336 0.929 . S
C1340 C1342 1.378 . S
C1340 C1344 1.350 . S
C1341 C1344 1.463 . S
C1341 C1346 1.350 . S
C1341 N1349 1.427 . S
C1342 H1333 0.930 . S
C1342 C1340 1.378 . S
C1342 C1343 1.367 . S
C1343 C1342 1.367 . S
C1343 C1345 1.433 . S
C1344 C1340 1.350 . S
C1344 C1341 1.463 . S
C1344 N1348 1.427 . S
C1345 H1335 0.929 . S
C1345 C1343 1.433 . S
C1345 N1348 1.384 . S
C1346 H1337 0.929 . S
C1346 C1338 1.378 . S
C1346 C1341 1.350 . S
C1347 H1334 0.929 . S
C1347 C1339 1.433 . S
C1347 N1349 1.384 . S
N1348 C1344 1.427 . S
N1348 C1345 1.384 . S
N1349 C1341 1.427 . S
N1349 C1347 1.384 . S
H1350 C1356 0.930 . S
H1351 C1360 0.930 . S
H1352 C1365 0.929 . S
H1353 C1363 0.929 . S
H1354 C1358 0.929 . S
H1355 C1364 0.929 . S
C1356 H1350 0.930 . S
C1356 C1357 1.367 . S
C1356 C1364 1.378 . S
C1357 C1356 1.367 . S
C1357 C1365 1.433 . S
C1358 H1354 0.929 . S
C1358 C1360 1.378 . S
C1358 C1362 1.350 . S
C1359 C1362 1.463 . S
C1359 C1364 1.350 . S
C1359 N1367 1.427 . S
C1360 H1351 0.930 . S
C1360 C1358 1.378 . S
C1360 C1361 1.367 . S
C1361 C1360 1.367 . S
C1361 C1363 1.433 . S
C1362 C1358 1.350 . S
C1362 C1359 1.463 . S
C1362 N1366 1.427 . S
C1363 H1353 0.929 . S
C1363 C1361 1.433 . S
C1363 N1366 1.384 . S
C1364 H1355 0.929 . S
C1364 C1356 1.378 . S
C1364 C1359 1.350 . S
C1365 H1352 0.929 . S
C1365 C1357 1.433 . S
C1365 N1367 1.384 . S
N1366 C1362 1.427 . S
N1366 C1363 1.384 . S
N1367 C1359 1.427 . S
N1367 C1365 1.384 . S
H1368 C1374 0.930 . S
H1369 C1378 0.930 . S
H1370 C1383 0.929 . S
H1371 C1381 0.929 . S
H1372 C1376 0.929 . S
H1373 C1382 0.929 . S
C1374 H1368 0.930 . S
C1374 C1375 1.367 . S
C1374 C1382 1.378 . S
C1375 C1374 1.367 . S
C1375 C1383 1.433 . S
C1376 H1372 0.929 . S
C1376 C1378 1.378 . S
C1376 C1380 1.350 . S
C1377 C1380 1.463 . S
C1377 C1382 1.350 . S
C1377 N1385 1.427 . S
C1378 H1369 0.930 . S
C1378 C1376 1.378 . S
C1378 C1379 1.367 . S
C1379 C1378 1.367 . S
C1379 C1381 1.433 . S
C1380 C1376 1.350 . S
C1380 C1377 1.463 . S
C1380 N1384 1.427 . S
C1381 H1371 0.929 . S
C1381 C1379 1.433 . S
C1381 N1384 1.384 . S
C1382 H1373 0.929 . S
C1382 C1374 1.378 . S
C1382 C1377 1.350 . S
C1383 H1370 0.929 . S
C1383 C1375 1.433 . S
C1383 N1385 1.384 . S
N1384 C1380 1.427 . S
N1384 C1381 1.384 . S
N1385 C1377 1.427 . S
N1385 C1383 1.384 . S
H1386 C1392 0.930 . S
H1387 C1396 0.930 . S
H1388 C1401 0.929 . S
H1389 C1399 0.929 . S
H1390 C1394 0.929 . S
H1391 C1400 0.929 . S
C1392 H1386 0.930 . S
C1392 C1393 1.367 . S
C1392 C1400 1.378 . S
C1393 C1392 1.367 . S
C1393 C1401 1.433 . S
C1394 H1390 0.929 . S
C1394 C1396 1.378 . S
C1394 C1398 1.350 . S
C1395 C1398 1.463 . S
C1395 C1400 1.350 . S
C1395 N1403 1.427 . S
C1396 H1387 0.930 . S
C1396 C1394 1.378 . S
C1396 C1397 1.367 . S
C1397 C1396 1.367 . S
C1397 C1399 1.433 . S
C1398 C1394 1.350 . S
C1398 C1395 1.463 . S
C1398 N1402 1.427 . S
C1399 H1389 0.929 . S
C1399 C1397 1.433 . S
C1399 N1402 1.384 . S
C1400 H1391 0.929 . S
C1400 C1392 1.378 . S
C1400 C1395 1.350 . S
C1401 H1388 0.929 . S
C1401 C1393 1.433 . S
C1401 N1403 1.384 . S
N1402 C1398 1.427 . S
N1402 C1399 1.384 . S
N1403 C1395 1.427 . S
N1403 C1401 1.384 . S
H1404 C1410 0.930 . S
H1405 C1414 0.930 . S
H1406 C1419 0.929 . S
H1407 C1417 0.929 . S
H1408 C1412 0.929 . S
H1409 C1418 0.929 . S
C1410 H1404 0.930 . S
C1410 C1411 1.367 . S
C1410 C1418 1.378 . S
C1411 C1410 1.367 . S
C1411 C1419 1.433 . S
C1412 H1408 0.929 . S
C1412 C1414 1.378 . S
C1412 C1416 1.350 . S
C1413 C1416 1.463 . S
C1413 C1418 1.350 . S
C1413 N1421 1.427 . S
C1414 H1405 0.930 . S
C1414 C1412 1.378 . S
C1414 C1415 1.367 . S
C1415 C1414 1.367 . S
C1415 C1417 1.433 . S
C1416 C1412 1.350 . S
C1416 C1413 1.463 . S
C1416 N1420 1.427 . S
C1417 H1407 0.929 . S
C1417 C1415 1.433 . S
C1417 N1420 1.384 . S
C1418 H1409 0.929 . S
C1418 C1410 1.378 . S
C1418 C1413 1.350 . S
C1419 H1406 0.929 . S
C1419 C1411 1.433 . S
C1419 N1421 1.384 . S
N1420 C1416 1.427 . S
N1420 C1417 1.384 . S
N1421 C1413 1.427 . S
N1421 C1419 1.384 . S
H1422 C1428 0.930 . S
H1423 C1432 0.930 . S
H1424 C1437 0.929 . S
H1425 C1435 0.929 . S
H1426 C1430 0.929 . S
H1427 C1436 0.929 . S
C1428 H1422 0.930 . S
C1428 C1429 1.367 . S
C1428 C1436 1.378 . S
C1429 C1428 1.367 . S
C1429 C1437 1.433 . S
C1430 H1426 0.929 . S
C1430 C1432 1.378 . S
C1430 C1434 1.350 . S
C1431 C1434 1.463 . S
C1431 C1436 1.350 . S
C1431 N1439 1.427 . S
C1432 H1423 0.930 . S
C1432 C1430 1.378 . S
C1432 C1433 1.367 . S
C1433 C1432 1.367 . S
C1433 C1435 1.433 . S
C1434 C1430 1.350 . S
C1434 C1431 1.463 . S
C1434 N1438 1.427 . S
C1435 H1425 0.929 . S
C1435 C1433 1.433 . S
C1435 N1438 1.384 . S
C1436 H1427 0.929 . S
C1436 C1428 1.378 . S
C1436 C1431 1.350 . S
C1437 H1424 0.929 . S
C1437 C1429 1.433 . S
C1437 N1439 1.384 . S
N1438 C1434 1.427 . S
N1438 C1435 1.384 . S
N1439 C1431 1.427 . S
N1439 C1437 1.384 . S
H1440 C1446 0.930 . S
H1441 C1450 0.930 . S
H1442 C1455 0.929 . S
H1443 C1453 0.929 . S
H1444 C1448 0.929 . S
H1445 C1454 0.929 . S
C1446 H1440 0.930 . S
C1446 C1447 1.367 . S
C1446 C1454 1.378 . S
C1447 C1446 1.367 . S
C1447 C1455 1.433 . S
C1448 H1444 0.929 . S
C1448 C1450 1.378 . S
C1448 C1452 1.350 . S
C1449 C1452 1.463 . S
C1449 C1454 1.350 . S
C1449 N1457 1.427 . S
C1450 H1441 0.930 . S
C1450 C1448 1.378 . S
C1450 C1451 1.367 . S
C1451 C1450 1.367 . S
C1451 C1453 1.433 . S
C1452 C1448 1.350 . S
C1452 C1449 1.463 . S
C1452 N1456 1.427 . S
C1453 H1443 0.929 . S
C1453 C1451 1.433 . S
C1453 N1456 1.384 . S
C1454 H1445 0.929 . S
C1454 C1446 1.378 . S
C1454 C1449 1.350 . S
C1455 H1442 0.929 . S
C1455 C1447 1.433 . S
C1455 N1457 1.384 . S
N1456 C1452 1.427 . S
N1456 C1453 1.384 . S
N1457 C1449 1.427 . S
N1457 C1455 1.384 . S
H1458 C1464 0.930 . S
H1459 C1468 0.930 . S
H1460 C1473 0.929 . S
H1461 C1471 0.929 . S
H1462 C1466 0.929 . S
H1463 C1472 0.929 . S
C1464 H1458 0.930 . S
C1464 C1465 1.367 . S
C1464 C1472 1.378 . S
C1465 C1464 1.367 . S
C1465 C1473 1.433 . S
C1466 H1462 0.929 . S
C1466 C1468 1.378 . S
C1466 C1470 1.350 . S
C1467 C1470 1.463 . S
C1467 C1472 1.350 . S
C1467 N1475 1.427 . S
C1468 H1459 0.930 . S
C1468 C1466 1.378 . S
C1468 C1469 1.367 . S
C1469 C1468 1.367 . S
C1469 C1471 1.433 . S
C1470 C1466 1.350 . S
C1470 C1467 1.463 . S
C1470 N1474 1.427 . S
C1471 H1461 0.929 . S
C1471 C1469 1.433 . S
C1471 N1474 1.384 . S
C1472 H1463 0.929 . S
C1472 C1464 1.378 . S
C1472 C1467 1.350 . S
C1473 H1460 0.929 . S
C1473 C1465 1.433 . S
C1473 N1475 1.384 . S
N1474 C1470 1.427 . S
N1474 C1471 1.384 . S
N1475 C1467 1.427 . S
N1475 C1473 1.384 . S
H1476 C1482 0.930 . S
H1477 C1486 0.930 . S
H1478 C1491 0.929 . S
H1479 C1489 0.929 . S
H1480 C1484 0.929 . S
H1481 C1490 0.929 . S
C1482 H1476 0.930 . S
C1482 C1483 1.367 . S
C1482 C1490 1.378 . S
C1483 C1482 1.367 . S
C1483 C1491 1.433 . S
C1484 H1480 0.929 . S
C1484 C1486 1.378 . S
C1484 C1488 1.350 . S
C1485 C1488 1.463 . S
C1485 C1490 1.350 . S
C1485 N1493 1.427 . S
C1486 H1477 0.930 . S
C1486 C1484 1.378 . S
C1486 C1487 1.367 . S
C1487 C1486 1.367 . S
C1487 C1489 1.433 . S
C1488 C1484 1.350 . S
C1488 C1485 1.463 . S
C1488 N1492 1.427 . S
C1489 H1479 0.929 . S
C1489 C1487 1.433 . S
C1489 N1492 1.384 . S
C1490 H1481 0.929 . S
C1490 C1482 1.378 . S
C1490 C1485 1.350 . S
C1491 H1478 0.929 . S
C1491 C1483 1.433 . S
C1491 N1493 1.384 . S
N1492 C1488 1.427 . S
N1492 C1489 1.384 . S
N1493 C1485 1.427 . S
N1493 C1491 1.384 . S
H1494 C1500 0.930 . S
H1495 C1504 0.930 . S
H1496 C1509 0.929 . S
H1497 C1507 0.929 . S
H1498 C1502 0.929 . S
H1499 C1508 0.929 . S
C1500 H1494 0.930 . S
C1500 C1501 1.367 . S
C1500 C1508 1.378 . S
C1501 C1500 1.367 . S
C1501 C1509 1.433 . S
C1502 H1498 0.929 . S
C1502 C1504 1.378 . S
C1502 C1506 1.350 . S
C1503 C1506 1.463 . S
C1503 C1508 1.350 . S
C1503 N1511 1.427 . S
C1504 H1495 0.930 . S
C1504 C1502 1.378 . S
C1504 C1505 1.367 . S
C1505 C1504 1.367 . S
C1505 C1507 1.433 . S
C1506 C1502 1.350 . S
C1506 C1503 1.463 . S
C1506 N1510 1.427 . S
C1507 H1497 0.929 . S
C1507 C1505 1.433 . S
C1507 N1510 1.384 . S
C1508 H1499 0.929 . S
C1508 C1500 1.378 . S
C1508 C1503 1.350 . S
C1509 H1496 0.929 . S
C1509 C1501 1.433 . S
C1509 N1511 1.384 . S
N1510 C1506 1.427 . S
N1510 C1507 1.384 . S
N1511 C1503 1.427 . S
N1511 C1509 1.384 . S
H1512 C1518 0.930 . S
H1513 C1522 0.930 . S
H1514 C1527 0.929 . S
H1515 C1525 0.929 . S
H1516 C1520 0.929 . S
H1517 C1526 0.929 . S
C1518 H1512 0.930 . S
C1518 C1519 1.367 . S
C1518 C1526 1.378 . S
C1519 C1518 1.367 . S
C1519 C1527 1.433 . S
C1520 H1516 0.929 . S
C1520 C1522 1.378 . S
C1520 C1524 1.350 . S
C1521 C1524 1.463 . S
C1521 C1526 1.350 . S
C1521 N1529 1.427 . S
C1522 H1513 0.930 . S
C1522 C1520 1.378 . S
C1522 C1523 1.367 . S
C1523 C1522 1.367 . S
C1523 C1525 1.433 . S
C1524 C1520 1.350 . S
C1524 C1521 1.463 . S
C1524 N1528 1.427 . S
C1525 H1515 0.929 . S
C1525 C1523 1.433 . S
C1525 N1528 1.384 . S
C1526 H1517 0.929 . S
C1526 C1518 1.378 . S
C1526 C1521 1.350 . S
C1527 H1514 0.929 . S
C1527 C1519 1.433 . S
C1527 N1529 1.384 . S
N1528 C1524 1.427 . S
N1528 C1525 1.384 . S
N1529 C1521 1.427 . S
N1529 C1527 1.384 . S
H1530 C1536 0.930 . S
H1531 C1540 0.930 . S
H1532 C1545 0.929 . S
H1533 C1543 0.929 . S
H1534 C1538 0.929 . S
H1535 C1544 0.929 . S
C1536 H1530 0.930 . S
C1536 C1537 1.367 . S
C1536 C1544 1.378 . S
C1537 C1536 1.367 . S
C1537 C1545 1.433 . S
C1538 H1534 0.929 . S
C1538 C1540 1.378 . S
C1538 C1542 1.350 . S
C1539 C1542 1.463 . S
C1539 C1544 1.350 . S
C1539 N1547 1.427 . S
C1540 H1531 0.930 . S
C1540 C1538 1.378 . S
C1540 C1541 1.367 . S
C1541 C1540 1.367 . S
C1541 C1543 1.433 . S
C1542 C1538 1.350 . S
C1542 C1539 1.463 . S
C1542 N1546 1.427 . S
C1543 H1533 0.929 . S
C1543 C1541 1.433 . S
C1543 N1546 1.384 . S
C1544 H1535 0.929 . S
C1544 C1536 1.378 . S
C1544 C1539 1.350 . S
C1545 H1532 0.929 . S
C1545 C1537 1.433 . S
C1545 N1547 1.384 . S
N1546 C1542 1.427 . S
N1546 C1543 1.384 . S
N1547 C1539 1.427 . S
N1547 C1545 1.384 . S
H1548 C1554 0.930 . S
H1549 C1558 0.930 . S
H1550 C1563 0.929 . S
H1551 C1561 0.929 . S
H1552 C1556 0.929 . S
H1553 C1562 0.929 . S
C1554 H1548 0.930 . S
C1554 C1555 1.367 . S
C1554 C1562 1.378 . S
C1555 C1554 1.367 . S
C1555 C1563 1.433 . S
C1556 H1552 0.929 . S
C1556 C1558 1.378 . S
C1556 C1560 1.350 . S
C1557 C1560 1.463 . S
C1557 C1562 1.350 . S
C1557 N1565 1.427 . S
C1558 H1549 0.930 . S
C1558 C1556 1.378 . S
C1558 C1559 1.367 . S
C1559 C1558 1.367 . S
C1559 C1561 1.433 . S
C1560 C1556 1.350 . S
C1560 C1557 1.463 . S
C1560 N1564 1.427 . S
C1561 H1551 0.929 . S
C1561 C1559 1.433 . S
C1561 N1564 1.384 . S
C1562 H1553 0.929 . S
C1562 C1554 1.378 . S
C1562 C1557 1.350 . S
C1563 H1550 0.929 . S
C1563 C1555 1.433 . S
C1563 N1565 1.384 . S
N1564 C1560 1.427 . S
N1564 C1561 1.384 . S
N1565 C1557 1.427 . S
N1565 C1563 1.384 . S
H1566 C1572 0.930 . S
H1567 C1576 0.930 . S
H1568 C1581 0.929 . S
H1569 C1579 0.929 . S
H1570 C1574 0.929 . S
H1571 C1580 0.929 . S
C1572 H1566 0.930 . S
C1572 C1573 1.367 . S
C1572 C1580 1.378 . S
C1573 C1572 1.367 . S
C1573 C1581 1.433 . S
C1574 H1570 0.929 . S
C1574 C1576 1.378 . S
C1574 C1578 1.350 . S
C1575 C1578 1.463 . S
C1575 C1580 1.350 . S
C1575 N1583 1.427 . S
C1576 H1567 0.930 . S
C1576 C1574 1.378 . S
C1576 C1577 1.367 . S
C1577 C1576 1.367 . S
C1577 C1579 1.433 . S
C1578 C1574 1.350 . S
C1578 C1575 1.463 . S
C1578 N1582 1.427 . S
C1579 H1569 0.929 . S
C1579 C1577 1.433 . S
C1579 N1582 1.384 . S
C1580 H1571 0.929 . S
C1580 C1572 1.378 . S
C1580 C1575 1.350 . S
C1581 H1568 0.929 . S
C1581 C1573 1.433 . S
C1581 N1583 1.384 . S
N1582 C1578 1.427 . S
N1582 C1579 1.384 . S
N1583 C1575 1.427 . S
N1583 C1581 1.384 . S
H1584 C1590 0.930 . S
H1585 C1594 0.930 . S
H1586 C1599 0.929 . S
H1587 C1597 0.929 . S
H1588 C1592 0.929 . S
H1589 C1598 0.929 . S
C1590 H1584 0.930 . S
C1590 C1591 1.367 . S
C1590 C1598 1.378 . S
C1591 C1590 1.367 . S
C1591 C1599 1.433 . S
C1592 H1588 0.929 . S
C1592 C1594 1.378 . S
C1592 C1596 1.350 . S
C1593 C1596 1.463 . S
C1593 C1598 1.350 . S
C1593 N1601 1.427 . S
C1594 H1585 0.930 . S
C1594 C1592 1.378 . S
C1594 C1595 1.367 . S
C1595 C1594 1.367 . S
C1595 C1597 1.433 . S
C1596 C1592 1.350 . S
C1596 C1593 1.463 . S
C1596 N1600 1.427 . S
C1597 H1587 0.929 . S
C1597 C1595 1.433 . S
C1597 N1600 1.384 . S
C1598 H1589 0.929 . S
C1598 C1590 1.378 . S
C1598 C1593 1.350 . S
C1599 H1586 0.929 . S
C1599 C1591 1.433 . S
C1599 N1601 1.384 . S
N1600 C1596 1.427 . S
N1600 C1597 1.384 . S
N1601 C1593 1.427 . S
N1601 C1599 1.384 . S
H1602 C1608 0.930 . S
H1603 C1612 0.930 . S
H1604 C1617 0.929 . S
H1605 C1615 0.929 . S
H1606 C1610 0.929 . S
H1607 C1616 0.929 . S
C1608 H1602 0.930 . S
C1608 C1609 1.367 . S
C1608 C1616 1.378 . S
C1609 C1608 1.367 . S
C1609 C1617 1.433 . S
C1610 H1606 0.929 . S
C1610 C1612 1.378 . S
C1610 C1614 1.350 . S
C1611 C1614 1.463 . S
C1611 C1616 1.350 . S
C1611 N1619 1.427 . S
C1612 H1603 0.930 . S
C1612 C1610 1.378 . S
C1612 C1613 1.367 . S
C1613 C1612 1.367 . S
C1613 C1615 1.433 . S
C1614 C1610 1.350 . S
C1614 C1611 1.463 . S
C1614 N1618 1.427 . S
C1615 H1605 0.929 . S
C1615 C1613 1.433 . S
C1615 N1618 1.384 . S
C1616 H1607 0.929 . S
C1616 C1608 1.378 . S
C1616 C1611 1.350 . S
C1617 H1604 0.929 . S
C1617 C1609 1.433 . S
C1617 N1619 1.384 . S
N1618 C1614 1.427 . S
N1618 C1615 1.384 . S
N1619 C1611 1.427 . S
N1619 C1617 1.384 . S
H1620 C1626 0.930 . S
H1621 C1630 0.930 . S
H1622 C1635 0.929 . S
H1623 C1633 0.929 . S
H1624 C1628 0.929 . S
H1625 C1634 0.929 . S
C1626 H1620 0.930 . S
C1626 C1627 1.367 . S
C1626 C1634 1.378 . S
C1627 C1626 1.367 . S
C1627 C1635 1.433 . S
C1628 H1624 0.929 . S
C1628 C1630 1.378 . S
C1628 C1632 1.350 . S
C1629 C1632 1.463 . S
C1629 C1634 1.350 . S
C1629 N1637 1.427 . S
C1630 H1621 0.930 . S
C1630 C1628 1.378 . S
C1630 C1631 1.367 . S
C1631 C1630 1.367 . S
C1631 C1633 1.433 . S
C1632 C1628 1.350 . S
C1632 C1629 1.463 . S
C1632 N1636 1.427 . S
C1633 H1623 0.929 . S
C1633 C1631 1.433 . S
C1633 N1636 1.384 . S
C1634 H1625 0.929 . S
C1634 C1626 1.378 . S
C1634 C1629 1.350 . S
C1635 H1622 0.929 . S
C1635 C1627 1.433 . S
C1635 N1637 1.384 . S
N1636 C1632 1.427 . S
N1636 C1633 1.384 . S
N1637 C1629 1.427 . S
N1637 C1635 1.384 . S
H1638 C1644 0.930 . S
H1639 C1648 0.930 . S
H1640 C1653 0.929 . S
H1641 C1651 0.929 . S
H1642 C1646 0.929 . S
H1643 C1652 0.929 . S
C1644 H1638 0.930 . S
C1644 C1645 1.367 . S
C1644 C1652 1.378 . S
C1645 C1644 1.367 . S
C1645 C1653 1.433 . S
C1646 H1642 0.929 . S
C1646 C1648 1.378 . S
C1646 C1650 1.350 . S
C1647 C1650 1.463 . S
C1647 C1652 1.350 . S
C1647 N1655 1.427 . S
C1648 H1639 0.930 . S
C1648 C1646 1.378 . S
C1648 C1649 1.367 . S
C1649 C1648 1.367 . S
C1649 C1651 1.433 . S
C1650 C1646 1.350 . S
C1650 C1647 1.463 . S
C1650 N1654 1.427 . S
C1651 H1641 0.929 . S
C1651 C1649 1.433 . S
C1651 N1654 1.384 . S
C1652 H1643 0.929 . S
C1652 C1644 1.378 . S
C1652 C1647 1.350 . S
C1653 H1640 0.929 . S
C1653 C1645 1.433 . S
C1653 N1655 1.384 . S
N1654 C1650 1.427 . S
N1654 C1651 1.384 . S
N1655 C1647 1.427 . S
N1655 C1653 1.384 . S
H1656 C1662 0.930 . S
H1657 C1666 0.930 . S
H1658 C1671 0.929 . S
H1659 C1669 0.929 . S
H1660 C1664 0.929 . S
H1661 C1670 0.929 . S
C1662 H1656 0.930 . S
C1662 C1663 1.367 . S
C1662 C1670 1.378 . S
C1663 C1662 1.367 . S
C1663 C1671 1.433 . S
C1664 H1660 0.929 . S
C1664 C1666 1.378 . S
C1664 C1668 1.350 . S
C1665 C1668 1.463 . S
C1665 C1670 1.350 . S
C1665 N1673 1.427 . S
C1666 H1657 0.930 . S
C1666 C1664 1.378 . S
C1666 C1667 1.367 . S
C1667 C1666 1.367 . S
C1667 C1669 1.433 . S
C1668 C1664 1.350 . S
C1668 C1665 1.463 . S
C1668 N1672 1.427 . S
C1669 H1659 0.929 . S
C1669 C1667 1.433 . S
C1669 N1672 1.384 . S
C1670 H1661 0.929 . S
C1670 C1662 1.378 . S
C1670 C1665 1.350 . S
C1671 H1658 0.929 . S
C1671 C1663 1.433 . S
C1671 N1673 1.384 . S
N1672 C1668 1.427 . S
N1672 C1669 1.384 . S
N1673 C1665 1.427 . S
N1673 C1671 1.384 . S
H1674 C1680 0.930 . S
H1675 C1684 0.930 . S
H1676 C1689 0.929 . S
H1677 C1687 0.929 . S
H1678 C1682 0.929 . S
H1679 C1688 0.929 . S
C1680 H1674 0.930 . S
C1680 C1681 1.367 . S
C1680 C1688 1.378 . S
C1681 C1680 1.367 . S
C1681 C1689 1.433 . S
C1682 H1678 0.929 . S
C1682 C1684 1.378 . S
C1682 C1686 1.350 . S
C1683 C1686 1.463 . S
C1683 C1688 1.350 . S
C1683 N1691 1.427 . S
C1684 H1675 0.930 . S
C1684 C1682 1.378 . S
C1684 C1685 1.367 . S
C1685 C1684 1.367 . S
C1685 C1687 1.433 . S
C1686 C1682 1.350 . S
C1686 C1683 1.463 . S
C1686 N1690 1.427 . S
C1687 H1677 0.929 . S
C1687 C1685 1.433 . S
C1687 N1690 1.384 . S
C1688 H1679 0.929 . S
C1688 C1680 1.378 . S
C1688 C1683 1.350 . S
C1689 H1676 0.929 . S
C1689 C1681 1.433 . S
C1689 N1691 1.384 . S
N1690 C1686 1.427 . S
N1690 C1687 1.384 . S
N1691 C1683 1.427 . S
N1691 C1689 1.384 . S
H1692 C1698 0.930 . S
H1693 C1702 0.930 . S
H1694 C1707 0.929 . S
H1695 C1705 0.929 . S
H1696 C1700 0.929 . S
H1697 C1706 0.929 . S
C1698 H1692 0.930 . S
C1698 C1699 1.367 . S
C1698 C1706 1.378 . S
C1699 C1698 1.367 . S
C1699 C1707 1.433 . S
C1700 H1696 0.929 . S
C1700 C1702 1.378 . S
C1700 C1704 1.350 . S
C1701 C1704 1.463 . S
C1701 C1706 1.350 . S
C1701 N1709 1.427 . S
C1702 H1693 0.930 . S
C1702 C1700 1.378 . S
C1702 C1703 1.367 . S
C1703 C1702 1.367 . S
C1703 C1705 1.433 . S
C1704 C1700 1.350 . S
C1704 C1701 1.463 . S
C1704 N1708 1.427 . S
C1705 H1695 0.929 . S
C1705 C1703 1.433 . S
C1705 N1708 1.384 . S
C1706 H1697 0.929 . S
C1706 C1698 1.378 . S
C1706 C1701 1.350 . S
C1707 H1694 0.929 . S
C1707 C1699 1.433 . S
C1707 N1709 1.384 . S
N1708 C1704 1.427 . S
N1708 C1705 1.384 . S
N1709 C1701 1.427 . S
N1709 C1707 1.384 . S
H1710 C1716 0.930 . S
H1711 C1720 0.930 . S
H1712 C1725 0.929 . S
H1713 C1723 0.929 . S
H1714 C1718 0.929 . S
H1715 C1724 0.929 . S
C1716 H1710 0.930 . S
C1716 C1717 1.367 . S
C1716 C1724 1.378 . S
C1717 C1716 1.367 . S
C1717 C1725 1.433 . S
C1718 H1714 0.929 . S
C1718 C1720 1.378 . S
C1718 C1722 1.350 . S
C1719 C1722 1.463 . S
C1719 C1724 1.350 . S
C1719 N1727 1.427 . S
C1720 H1711 0.930 . S
C1720 C1718 1.378 . S
C1720 C1721 1.367 . S
C1721 C1720 1.367 . S
C1721 C1723 1.433 . S
C1722 C1718 1.350 . S
C1722 C1719 1.463 . S
C1722 N1726 1.427 . S
C1723 H1713 0.929 . S
C1723 C1721 1.433 . S
C1723 N1726 1.384 . S
C1724 H1715 0.929 . S
C1724 C1716 1.378 . S
C1724 C1719 1.350 . S
C1725 H1712 0.929 . S
C1725 C1717 1.433 . S
C1725 N1727 1.384 . S
N1726 C1722 1.427 . S
N1726 C1723 1.384 . S
N1727 C1719 1.427 . S
N1727 C1725 1.384 . S
H1728 C1734 0.930 . S
H1729 C1738 0.930 . S
H1730 C1743 0.929 . S
H1731 C1741 0.929 . S
H1732 C1736 0.929 . S
H1733 C1742 0.929 . S
C1734 H1728 0.930 . S
C1734 C1735 1.367 . S
C1734 C1742 1.378 . S
C1735 C1734 1.367 . S
C1735 C1743 1.433 . S
C1736 H1732 0.929 . S
C1736 C1738 1.378 . S
C1736 C1740 1.350 . S
C1737 C1740 1.463 . S
C1737 C1742 1.350 . S
C1737 N1745 1.427 . S
C1738 H1729 0.930 . S
C1738 C1736 1.378 . S
C1738 C1739 1.367 . S
C1739 C1738 1.367 . S
C1739 C1741 1.433 . S
C1740 C1736 1.350 . S
C1740 C1737 1.463 . S
C1740 N1744 1.427 . S
C1741 H1731 0.929 . S
C1741 C1739 1.433 . S
C1741 N1744 1.384 . S
C1742 H1733 0.929 . S
C1742 C1734 1.378 . S
C1742 C1737 1.350 . S
C1743 H1730 0.929 . S
C1743 C1735 1.433 . S
C1743 N1745 1.384 . S
N1744 C1740 1.427 . S
N1744 C1741 1.384 . S
N1745 C1737 1.427 . S
N1745 C1743 1.384 . S
H1746 C1752 0.930 . S
H1747 C1756 0.930 . S
H1748 C1761 0.929 . S
H1749 C1759 0.929 . S
H1750 C1754 0.929 . S
H1751 C1760 0.929 . S
C1752 H1746 0.930 . S
C1752 C1753 1.367 . S
C1752 C1760 1.378 . S
C1753 C1752 1.367 . S
C1753 C1761 1.433 . S
C1754 H1750 0.929 . S
C1754 C1756 1.378 . S
C1754 C1758 1.350 . S
C1755 C1758 1.463 . S
C1755 C1760 1.350 . S
C1755 N1763 1.427 . S
C1756 H1747 0.930 . S
C1756 C1754 1.378 . S
C1756 C1757 1.367 . S
C1757 C1756 1.367 . S
C1757 C1759 1.433 . S
C1758 C1754 1.350 . S
C1758 C1755 1.463 . S
C1758 N1762 1.427 . S
C1759 H1749 0.929 . S
C1759 C1757 1.433 . S
C1759 N1762 1.384 . S
C1760 H1751 0.929 . S
C1760 C1752 1.378 . S
C1760 C1755 1.350 . S
C1761 H1748 0.929 . S
C1761 C1753 1.433 . S
C1761 N1763 1.384 . S
N1762 C1758 1.427 . S
N1762 C1759 1.384 . S
N1763 C1755 1.427 . S
N1763 C1761 1.384 . S
H1764 C1770 0.930 . S
H1765 C1774 0.930 . S
H1766 C1779 0.929 . S
H1767 C1777 0.929 . S
H1768 C1772 0.929 . S
H1769 C1778 0.929 . S
C1770 H1764 0.930 . S
C1770 C1771 1.367 . S
C1770 C1778 1.378 . S
C1771 C1770 1.367 . S
C1771 C1779 1.433 . S
C1772 H1768 0.929 . S
C1772 C1774 1.378 . S
C1772 C1776 1.350 . S
C1773 C1776 1.463 . S
C1773 C1778 1.350 . S
C1773 N1781 1.427 . S
C1774 H1765 0.930 . S
C1774 C1772 1.378 . S
C1774 C1775 1.367 . S
C1775 C1774 1.367 . S
C1775 C1777 1.433 . S
C1776 C1772 1.350 . S
C1776 C1773 1.463 . S
C1776 N1780 1.427 . S
C1777 H1767 0.929 . S
C1777 C1775 1.433 . S
C1777 N1780 1.384 . S
C1778 H1769 0.929 . S
C1778 C1770 1.378 . S
C1778 C1773 1.350 . S
C1779 H1766 0.929 . S
C1779 C1771 1.433 . S
C1779 N1781 1.384 . S
N1780 C1776 1.427 . S
N1780 C1777 1.384 . S
N1781 C1773 1.427 . S
N1781 C1779 1.384 . S
H1782 C1788 0.930 . S
H1783 C1792 0.930 . S
H1784 C1797 0.929 . S
H1785 C1795 0.929 . S
H1786 C1790 0.929 . S
H1787 C1796 0.929 . S
C1788 H1782 0.930 . S
C1788 C1789 1.367 . S
C1788 C1796 1.378 . S
C1789 C1788 1.367 . S
C1789 C1797 1.433 . S
C1790 H1786 0.929 . S
C1790 C1792 1.378 . S
C1790 C1794 1.350 . S
C1791 C1794 1.463 . S
C1791 C1796 1.350 . S
C1791 N1799 1.427 . S
C1792 H1783 0.930 . S
C1792 C1790 1.378 . S
C1792 C1793 1.367 . S
C1793 C1792 1.367 . S
C1793 C1795 1.433 . S
C1794 C1790 1.350 . S
C1794 C1791 1.463 . S
C1794 N1798 1.427 . S
C1795 H1785 0.929 . S
C1795 C1793 1.433 . S
C1795 N1798 1.384 . S
C1796 H1787 0.929 . S
C1796 C1788 1.378 . S
C1796 C1791 1.350 . S
C1797 H1784 0.929 . S
C1797 C1789 1.433 . S
C1797 N1799 1.384 . S
N1798 C1794 1.427 . S
N1798 C1795 1.384 . S
N1799 C1791 1.427 . S
N1799 C1797 1.384 . S
H1800 C1806 0.930 . S
H1801 C1810 0.930 . S
H1802 C1815 0.929 . S
H1803 C1813 0.929 . S
H1804 C1808 0.929 . S
H1805 C1814 0.929 . S
C1806 H1800 0.930 . S
C1806 C1807 1.367 . S
C1806 C1814 1.378 . S
C1807 C1806 1.367 . S
C1807 C1815 1.433 . S
C1808 H1804 0.929 . S
C1808 C1810 1.378 . S
C1808 C1812 1.350 . S
C1809 C1812 1.463 . S
C1809 C1814 1.350 . S
C1809 N1817 1.427 . S
C1810 H1801 0.930 . S
C1810 C1808 1.378 . S
C1810 C1811 1.367 . S
C1811 C1810 1.367 . S
C1811 C1813 1.433 . S
C1812 C1808 1.350 . S
C1812 C1809 1.463 . S
C1812 N1816 1.427 . S
C1813 H1803 0.929 . S
C1813 C1811 1.433 . S
C1813 N1816 1.384 . S
C1814 H1805 0.929 . S
C1814 C1806 1.378 . S
C1814 C1809 1.350 . S
C1815 H1802 0.929 . S
C1815 C1807 1.433 . S
C1815 N1817 1.384 . S
N1816 C1812 1.427 . S
N1816 C1813 1.384 . S
N1817 C1809 1.427 . S
N1817 C1815 1.384 . S
H1818 C1824 0.930 . S
H1819 C1828 0.930 . S
H1820 C1833 0.929 . S
H1821 C1831 0.929 . S
H1822 C1826 0.929 . S
H1823 C1832 0.929 . S
C1824 H1818 0.930 . S
C1824 C1825 1.367 . S
C1824 C1832 1.378 . S
C1825 C1824 1.367 . S
C1825 C1833 1.433 . S
C1826 H1822 0.929 . S
C1826 C1828 1.378 . S
C1826 C1830 1.350 . S
C1827 C1830 1.463 . S
C1827 C1832 1.350 . S
C1827 N1835 1.427 . S
C1828 H1819 0.930 . S
C1828 C1826 1.378 . S
C1828 C1829 1.367 . S
C1829 C1828 1.367 . S
C1829 C1831 1.433 . S
C1830 C1826 1.350 . S
C1830 C1827 1.463 . S
C1830 N1834 1.427 . S
C1831 H1821 0.929 . S
C1831 C1829 1.433 . S
C1831 N1834 1.384 . S
C1832 H1823 0.929 . S
C1832 C1824 1.378 . S
C1832 C1827 1.350 . S
C1833 H1820 0.929 . S
C1833 C1825 1.433 . S
C1833 N1835 1.384 . S
N1834 C1830 1.427 . S
N1834 C1831 1.384 . S
N1835 C1827 1.427 . S
N1835 C1833 1.384 . S
H1836 C1842 0.930 . S
H1837 C1846 0.930 . S
H1838 C1851 0.929 . S
H1839 C1849 0.929 . S
H1840 C1844 0.929 . S
H1841 C1850 0.929 . S
C1842 H1836 0.930 . S
C1842 C1843 1.367 . S
C1842 C1850 1.378 . S
C1843 C1842 1.367 . S
C1843 C1851 1.433 . S
C1844 H1840 0.929 . S
C1844 C1846 1.378 . S
C1844 C1848 1.350 . S
C1845 C1848 1.463 . S
C1845 C1850 1.350 . S
C1845 N1853 1.427 . S
C1846 H1837 0.930 . S
C1846 C1844 1.378 . S
C1846 C1847 1.367 . S
C1847 C1846 1.367 . S
C1847 C1849 1.433 . S
C1848 C1844 1.350 . S
C1848 C1845 1.463 . S
C1848 N1852 1.427 . S
C1849 H1839 0.929 . S
C1849 C1847 1.433 . S
C1849 N1852 1.384 . S
C1850 H1841 0.929 . S
C1850 C1842 1.378 . S
C1850 C1845 1.350 . S
C1851 H1838 0.929 . S
C1851 C1843 1.433 . S
C1851 N1853 1.384 . S
N1852 C1848 1.427 . S
N1852 C1849 1.384 . S
N1853 C1845 1.427 . S
N1853 C1851 1.384 . S
H1854 C1860 0.930 . S
H1855 C1864 0.930 . S
H1856 C1869 0.929 . S
H1857 C1867 0.929 . S
H1858 C1862 0.929 . S
H1859 C1868 0.929 . S
C1860 H1854 0.930 . S
C1860 C1861 1.367 . S
C1860 C1868 1.378 . S
C1861 C1860 1.367 . S
C1861 C1869 1.433 . S
C1862 H1858 0.929 . S
C1862 C1864 1.378 . S
C1862 C1866 1.350 . S
C1863 C1866 1.463 . S
C1863 C1868 1.350 . S
C1863 N1871 1.427 . S
C1864 H1855 0.930 . S
C1864 C1862 1.378 . S
C1864 C1865 1.367 . S
C1865 C1864 1.367 . S
C1865 C1867 1.433 . S
C1866 C1862 1.350 . S
C1866 C1863 1.463 . S
C1866 N1870 1.427 . S
C1867 H1857 0.929 . S
C1867 C1865 1.433 . S
C1867 N1870 1.384 . S
C1868 H1859 0.929 . S
C1868 C1860 1.378 . S
C1868 C1863 1.350 . S
C1869 H1856 0.929 . S
C1869 C1861 1.433 . S
C1869 N1871 1.384 . S
N1870 C1866 1.427 . S
N1870 C1867 1.384 . S
N1871 C1863 1.427 . S
N1871 C1869 1.384 . S
H1872 C1878 0.930 . S
H1873 C1882 0.930 . S
H1874 C1887 0.929 . S
H1875 C1885 0.929 . S
H1876 C1880 0.929 . S
H1877 C1886 0.929 . S
C1878 H1872 0.930 . S
C1878 C1879 1.367 . S
C1878 C1886 1.378 . S
C1879 C1878 1.367 . S
C1879 C1887 1.433 . S
C1880 H1876 0.929 . S
C1880 C1882 1.378 . S
C1880 C1884 1.350 . S
C1881 C1884 1.463 . S
C1881 C1886 1.350 . S
C1881 N1889 1.427 . S
C1882 H1873 0.930 . S
C1882 C1880 1.378 . S
C1882 C1883 1.367 . S
C1883 C1882 1.367 . S
C1883 C1885 1.433 . S
C1884 C1880 1.350 . S
C1884 C1881 1.463 . S
C1884 N1888 1.427 . S
C1885 H1875 0.929 . S
C1885 C1883 1.433 . S
C1885 N1888 1.384 . S
C1886 H1877 0.929 . S
C1886 C1878 1.378 . S
C1886 C1881 1.350 . S
C1887 H1874 0.929 . S
C1887 C1879 1.433 . S
C1887 N1889 1.384 . S
N1888 C1884 1.427 . S
N1888 C1885 1.384 . S
N1889 C1881 1.427 . S
N1889 C1887 1.384 . S
H1890 C1896 0.930 . S
H1891 C1900 0.930 . S
H1892 C1905 0.929 . S
H1893 C1903 0.929 . S
H1894 C1898 0.929 . S
H1895 C1904 0.929 . S
C1896 H1890 0.930 . S
C1896 C1897 1.367 . S
C1896 C1904 1.378 . S
C1897 C1896 1.367 . S
C1897 C1905 1.433 . S
C1898 H1894 0.929 . S
C1898 C1900 1.378 . S
C1898 C1902 1.350 . S
C1899 C1902 1.463 . S
C1899 C1904 1.350 . S
C1899 N1907 1.427 . S
C1900 H1891 0.930 . S
C1900 C1898 1.378 . S
C1900 C1901 1.367 . S
C1901 C1900 1.367 . S
C1901 C1903 1.433 . S
C1902 C1898 1.350 . S
C1902 C1899 1.463 . S
C1902 N1906 1.427 . S
C1903 H1893 0.929 . S
C1903 C1901 1.433 . S
C1903 N1906 1.384 . S
C1904 H1895 0.929 . S
C1904 C1896 1.378 . S
C1904 C1899 1.350 . S
C1905 H1892 0.929 . S
C1905 C1897 1.433 . S
C1905 N1907 1.384 . S
N1906 C1902 1.427 . S
N1906 C1903 1.384 . S
N1907 C1899 1.427 . S
N1907 C1905 1.384 . S
H1908 C1914 0.930 . S
H1909 C1918 0.930 . S
H1910 C1923 0.929 . S
H1911 C1921 0.929 . S
H1912 C1916 0.929 . S
H1913 C1922 0.929 . S
C1914 H1908 0.930 . S
C1914 C1915 1.367 . S
C1914 C1922 1.378 . S
C1915 C1914 1.367 . S
C1915 C1923 1.433 . S
C1916 H1912 0.929 . S
C1916 C1918 1.378 . S
C1916 C1920 1.350 . S
C1917 C1920 1.463 . S
C1917 C1922 1.350 . S
C1917 N1925 1.427 . S
C1918 H1909 0.930 . S
C1918 C1916 1.378 . S
C1918 C1919 1.367 . S
C1919 C1918 1.367 . S
C1919 C1921 1.433 . S
C1920 C1916 1.350 . S
C1920 C1917 1.463 . S
C1920 N1924 1.427 . S
C1921 H1911 0.929 . S
C1921 C1919 1.433 . S
C1921 N1924 1.384 . S
C1922 H1913 0.929 . S
C1922 C1914 1.378 . S
C1922 C1917 1.350 . S
C1923 H1910 0.929 . S
C1923 C1915 1.433 . S
C1923 N1925 1.384 . S
N1924 C1920 1.427 . S
N1924 C1921 1.384 . S
N1925 C1917 1.427 . S
N1925 C1923 1.384 . S
H1926 C1932 0.930 . S
H1927 C1936 0.930 . S
H1928 C1941 0.929 . S
H1929 C1939 0.929 . S
H1930 C1934 0.929 . S
H1931 C1940 0.929 . S
C1932 H1926 0.930 . S
C1932 C1933 1.367 . S
C1932 C1940 1.378 . S
C1933 C1932 1.367 . S
C1933 C1941 1.433 . S
C1934 H1930 0.929 . S
C1934 C1936 1.378 . S
C1934 C1938 1.350 . S
C1935 C1938 1.463 . S
C1935 C1940 1.350 . S
C1935 N1943 1.427 . S
C1936 H1927 0.930 . S
C1936 C1934 1.378 . S
C1936 C1937 1.367 . S
C1937 C1936 1.367 . S
C1937 C1939 1.433 . S
C1938 C1934 1.350 . S
C1938 C1935 1.463 . S
C1938 N1942 1.427 . S
C1939 H1929 0.929 . S
C1939 C1937 1.433 . S
C1939 N1942 1.384 . S
C1940 H1931 0.929 . S
C1940 C1932 1.378 . S
C1940 C1935 1.350 . S
C1941 H1928 0.929 . S
C1941 C1933 1.433 . S
C1941 N1943 1.384 . S
N1942 C1938 1.427 . S
N1942 C1939 1.384 . S
N1943 C1935 1.427 . S
N1943 C1941 1.384 . S
H1944 C1950 0.930 . S
H1945 C1954 0.930 . S
H1946 C1959 0.929 . S
H1947 C1957 0.929 . S
H1948 C1952 0.929 . S
H1949 C1958 0.929 . S
C1950 H1944 0.930 . S
C1950 C1951 1.367 . S
C1950 C1958 1.378 . S
C1951 C1950 1.367 . S
C1951 C1959 1.433 . S
C1952 H1948 0.929 . S
C1952 C1954 1.378 . S
C1952 C1956 1.350 . S
C1953 C1956 1.463 . S
C1953 C1958 1.350 . S
C1953 N1961 1.427 . S
C1954 H1945 0.930 . S
C1954 C1952 1.378 . S
C1954 C1955 1.367 . S
C1955 C1954 1.367 . S
C1955 C1957 1.433 . S
C1956 C1952 1.350 . S
C1956 C1953 1.463 . S
C1956 N1960 1.427 . S
C1957 H1947 0.929 . S
C1957 C1955 1.433 . S
C1957 N1960 1.384 . S
C1958 H1949 0.929 . S
C1958 C1950 1.378 . S
C1958 C1953 1.350 . S
C1959 H1946 0.929 . S
C1959 C1951 1.433 . S
C1959 N1961 1.384 . S
N1960 C1956 1.427 . S
N1960 C1957 1.384 . S
N1961 C1953 1.427 . S
N1961 C1959 1.384 . S
H1962 C1968 0.930 . S
H1963 C1972 0.930 . S
H1964 C1977 0.929 . S
H1965 C1975 0.929 . S
H1966 C1970 0.929 . S
H1967 C1976 0.929 . S
C1968 H1962 0.930 . S
C1968 C1969 1.367 . S
C1968 C1976 1.378 . S
C1969 C1968 1.367 . S
C1969 C1977 1.433 . S
C1970 H1966 0.929 . S
C1970 C1972 1.378 . S
C1970 C1974 1.350 . S
C1971 C1974 1.463 . S
C1971 C1976 1.350 . S
C1971 N1979 1.427 . S
C1972 H1963 0.930 . S
C1972 C1970 1.378 . S
C1972 C1973 1.367 . S
C1973 C1972 1.367 . S
C1973 C1975 1.433 . S
C1974 C1970 1.350 . S
C1974 C1971 1.463 . S
C1974 N1978 1.427 . S
C1975 H1965 0.929 . S
C1975 C1973 1.433 . S
C1975 N1978 1.384 . S
C1976 H1967 0.929 . S
C1976 C1968 1.378 . S
C1976 C1971 1.350 . S
C1977 H1964 0.929 . S
C1977 C1969 1.433 . S
C1977 N1979 1.384 . S
N1978 C1974 1.427 . S
N1978 C1975 1.384 . S
N1979 C1971 1.427 . S
N1979 C1977 1.384 . S
H1980 C1986 0.930 . S
H1981 C1990 0.930 . S
H1982 C1995 0.929 . S
H1983 C1993 0.929 . S
H1984 C1988 0.929 . S
H1985 C1994 0.929 . S
C1986 H1980 0.930 . S
C1986 C1987 1.367 . S
C1986 C1994 1.378 . S
C1987 C1986 1.367 . S
C1987 C1995 1.433 . S
C1988 H1984 0.929 . S
C1988 C1990 1.378 . S
C1988 C1992 1.350 . S
C1989 C1992 1.463 . S
C1989 C1994 1.350 . S
C1989 N1997 1.427 . S
C1990 H1981 0.930 . S
C1990 C1988 1.378 . S
C1990 C1991 1.367 . S
C1991 C1990 1.367 . S
C1991 C1993 1.433 . S
C1992 C1988 1.350 . S
C1992 C1989 1.463 . S
C1992 N1996 1.427 . S
C1993 H1983 0.929 . S
C1993 C1991 1.433 . S
C1993 N1996 1.384 . S
C1994 H1985 0.929 . S
C1994 C1986 1.378 . S
C1994 C1989 1.350 . S
C1995 H1982 0.929 . S
C1995 C1987 1.433 . S
C1995 N1997 1.384 . S
N1996 C1992 1.427 . S
N1996 C1993 1.384 . S
N1997 C1989 1.427 . S
N1997 C1995 1.384 . S
H1998 C2004 0.930 . S
H1999 C2008 0.930 . S
H2000 C2013 0.929 . S
H2001 C2011 0.929 . S
H2002 C2006 0.929 . S
H2003 C2012 0.929 . S
C2004 H1998 0.930 . S
C2004 C2005 1.367 1_655 S
C2004 C2012 1.378 . S
C2005 C2004 1.367 1_455 S
C2005 C2013 1.433 . S
C2006 H2002 0.929 . S
C2006 C2008 1.378 . S
C2006 C2010 1.350 . S
C2007 C2010 1.463 . S
C2007 C2012 1.350 1_455 S
C2007 N2015 1.427 . S
C2008 H1999 0.930 . S
C2008 C2006 1.378 . S
C2008 C2009 1.367 . S
C2009 C2008 1.367 . S
C2009 C2011 1.433 1_455 S
C2010 C2006 1.350 . S
C2010 C2007 1.463 . S
C2010 N2014 1.427 1_455 S
C2011 H2001 0.929 . S
C2011 C2009 1.433 1_655 S
C2011 N2014 1.384 . S
C2012 H2003 0.929 . S
C2012 C2004 1.378 . S
C2012 C2007 1.350 1_655 S
C2013 H2000 0.929 . S
C2013 C2005 1.433 . S
C2013 N2015 1.384 . S
N2014 C2010 1.427 1_655 S
N2014 C2011 1.384 . S
N2015 C2007 1.427 . S
N2015 C2013 1.384 . S
H2016 C2022 0.930 . S
H2017 C2026 0.930 . S
H2018 C2031 0.929 . S
H2019 C2029 0.929 . S
H2020 C2024 0.929 . S
H2021 C2030 0.929 . S
C2022 H2016 0.930 . S
C2022 C2023 1.367 . S
C2022 C2030 1.378 . S
C2023 C2022 1.367 . S
C2023 C2031 1.433 . S
C2024 H2020 0.929 . S
C2024 C2026 1.378 . S
C2024 C2028 1.350 . S
C2025 C2028 1.463 . S
C2025 C2030 1.350 . S
C2025 N2033 1.427 . S
C2026 H2017 0.930 . S
C2026 C2024 1.378 . S
C2026 C2027 1.367 . S
C2027 C2026 1.367 . S
C2027 C2029 1.433 . S
C2028 C2024 1.350 . S
C2028 C2025 1.463 . S
C2028 N2032 1.427 . S
C2029 H2019 0.929 . S
C2029 C2027 1.433 . S
C2029 N2032 1.384 . S
C2030 H2021 0.929 . S
C2030 C2022 1.378 . S
C2030 C2025 1.350 . S
C2031 H2018 0.929 . S
C2031 C2023 1.433 . S
C2031 N2033 1.384 . S
N2032 C2028 1.427 . S
N2032 C2029 1.384 . S
N2033 C2025 1.427 . S
N2033 C2031 1.384 . S
H2034 C2040 0.930 . S
H2035 C2044 0.930 . S
H2036 C2049 0.929 . S
H2037 C2047 0.929 . S
H2038 C2042 0.929 . S
H2039 C2048 0.929 . S
C2040 H2034 0.930 . S
C2040 C2041 1.367 . S
C2040 C2048 1.378 . S
C2041 C2040 1.367 . S
C2041 C2049 1.433 1_565 S
C2042 H2038 0.929 . S
C2042 C2044 1.378 . S
C2042 C2046 1.350 1_545 S
C2043 C2046 1.463 . S
C2043 C2048 1.350 . S
C2043 N2051 1.411 1_565 S
C2044 H2035 0.930 . S
C2044 C2042 1.378 . S
C2044 C2045 1.367 1_545 S
C2045 C2044 1.367 1_565 S
C2045 C2047 1.433 . S
C2046 C2042 1.350 1_565 S
C2046 C2043 1.463 . S
C2046 N2050 1.427 . S
C2047 H2037 0.929 . S
C2047 C2045 1.433 . S
C2047 N2050 1.384 . S
C2048 H2039 0.929 . S
C2048 C2040 1.378 . S
C2048 C2043 1.350 . S
C2049 H2036 0.929 . S
C2049 C2041 1.433 1_545 S
C2049 N2051 1.409 . S
N2050 C2046 1.427 . S
N2050 C2047 1.384 . S
N2051 C2043 1.411 1_545 S
N2051 C2049 1.409 . S
H2052 C2058 0.930 . S
H2053 C2062 0.930 . S
H2054 C2067 0.929 . S
H2055 C2065 0.929 . S
H2056 C2060 0.929 . S
H2057 C2066 0.929 . S
C2058 H2052 0.930 . S
C2058 C2059 1.367 . S
C2058 C2066 1.378 . S
C2059 C2058 1.367 . S
C2059 C2067 1.433 1_565 S
C2060 H2056 0.929 . S
C2060 C2062 1.378 . S
C2060 C2064 1.350 1_545 S
C2061 C2064 1.463 . S
C2061 C2066 1.350 . S
C2061 N2069 1.427 1_565 S
C2062 H2053 0.930 . S
C2062 C2060 1.378 . S
C2062 C2063 1.367 1_545 S
C2063 C2062 1.367 1_565 S
C2063 C2065 1.433 . S
C2064 C2060 1.350 1_565 S
C2064 C2061 1.463 . S
C2064 N2068 1.427 . S
C2065 H2055 0.929 . S
C2065 C2063 1.433 . S
C2065 N2068 1.384 . S
C2066 H2057 0.929 . S
C2066 C2058 1.378 . S
C2066 C2061 1.350 . S
C2067 H2054 0.929 . S
C2067 C2059 1.433 1_545 S
C2067 N2069 1.384 . S
N2068 C2064 1.427 . S
N2068 C2065 1.384 . S
N2069 C2061 1.427 1_545 S
N2069 C2067 1.384 . S
H2070 C2076 0.930 . S
H2071 C2080 0.930 . S
H2072 C2085 0.929 . S
H2073 C2083 0.931 1_655 S
H2074 C2078 0.929 . S
H2075 C2084 0.915 . S
C2076 H2070 0.930 . S
C2076 C2077 1.367 . S
C2076 C2084 1.378 . S
C2077 C2076 1.367 . S
C2077 C2085 1.433 . S
C2078 H2074 0.929 . S
C2078 C2080 1.378 . S
C2078 C2082 1.350 . S
C2079 C2082 1.463 . S
C2079 C2084 1.350 . S
C2079 N2087 1.427 . S
C2080 H2071 0.930 . S
C2080 C2078 1.378 . S
C2080 C2081 1.367 . S
C2081 C2080 1.367 . S
C2081 C2083 1.434 . S
C2082 C2078 1.350 . S
C2082 C2079 1.463 . S
C2082 N2086 1.427 . S
C2083 H2073 0.931 1_455 S
C2083 C2081 1.434 . S
C2083 N2086 1.380 . S
C2084 H2075 0.915 . S
C2084 C2076 1.378 . S
C2084 C2079 1.350 . S
C2085 H2072 0.929 . S
C2085 C2077 1.433 . S
C2085 N2087 1.384 . S
N2086 C2082 1.427 . S
N2086 C2083 1.380 . S
N2087 C2079 1.427 . S
N2087 C2085 1.384 . S
H2088 C2094 0.930 . S
H2089 C2098 0.930 . S
H2090 C2103 0.929 . S
H2091 C2101 0.929 . S
H2092 C2096 0.929 . S
H2093 C2102 0.929 . S
C2094 H2088 0.930 . S
C2094 C2095 1.367 . S
C2094 C2102 1.378 . S
C2095 C2094 1.367 . S
C2095 C2103 1.433 . S
C2096 H2092 0.929 . S
C2096 C2098 1.378 . S
C2096 C2100 1.350 . S
C2097 C2100 1.463 . S
C2097 C2102 1.350 . S
C2097 N2105 1.427 . S
C2098 H2089 0.930 . S
C2098 C2096 1.378 . S
C2098 C2099 1.367 . S
C2099 C2098 1.367 . S
C2099 C2101 1.433 . S
C2100 C2096 1.350 . S
C2100 C2097 1.463 . S
C2100 N2104 1.427 . S
C2101 H2091 0.929 . S
C2101 C2099 1.433 . S
C2101 N2104 1.384 . S
C2102 H2093 0.929 . S
C2102 C2094 1.378 . S
C2102 C2097 1.350 . S
C2103 H2090 0.929 . S
C2103 C2095 1.433 . S
C2103 N2105 1.384 . S
N2104 C2100 1.427 . S
N2104 C2101 1.384 . S
N2105 C2097 1.427 . S
N2105 C2103 1.384 . S
H2106 C2112 0.930 . S
H2107 C2116 0.930 . S
H2108 C2121 0.929 . S
H2109 C2119 0.929 . S
H2110 C2114 0.929 . S
H2111 C2120 0.929 . S
C2112 H2106 0.930 . S
C2112 C2113 1.367 . S
C2112 C2120 1.378 . S
C2113 C2112 1.367 . S
C2113 C2121 1.433 . S
C2114 H2110 0.929 . S
C2114 C2116 1.378 . S
C2114 C2118 1.350 . S
C2115 C2118 1.463 . S
C2115 C2120 1.350 . S
C2115 N2123 1.427 . S
C2116 H2107 0.930 . S
C2116 C2114 1.378 . S
C2116 C2117 1.367 . S
C2117 C2116 1.367 . S
C2117 C2119 1.433 . S
C2118 C2114 1.350 . S
C2118 C2115 1.463 . S
C2118 N2122 1.427 . S
C2119 H2109 0.929 . S
C2119 C2117 1.433 . S
C2119 N2122 1.384 . S
C2120 H2111 0.929 . S
C2120 C2112 1.378 . S
C2120 C2115 1.350 . S
C2121 H2108 0.929 . S
C2121 C2113 1.433 . S
C2121 N2123 1.384 . S
N2122 C2118 1.427 . S
N2122 C2119 1.384 . S
N2123 C2115 1.427 . S
N2123 C2121 1.384 . S
H2124 C2130 0.930 . S
H2125 C2134 0.930 . S
H2126 C2139 0.929 . S
H2127 C2137 0.929 . S
H2128 C2132 0.929 . S
H2129 C2138 0.929 . S
C2130 H2124 0.930 . S
C2130 C2131 1.367 . S
C2130 C2138 1.378 . S
C2131 C2130 1.367 . S
C2131 C2139 1.433 . S
C2132 H2128 0.929 . S
C2132 C2134 1.378 . S
C2132 C2136 1.350 . S
C2133 C2136 1.463 . S
C2133 C2138 1.350 . S
C2133 N2141 1.427 . S
C2134 H2125 0.930 . S
C2134 C2132 1.378 . S
C2134 C2135 1.367 . S
C2135 C2134 1.367 . S
C2135 C2137 1.433 . S
C2136 C2132 1.350 . S
C2136 C2133 1.463 . S
C2136 N2140 1.427 . S
C2137 H2127 0.929 . S
C2137 C2135 1.433 . S
C2137 N2140 1.384 . S
C2138 H2129 0.929 . S
C2138 C2130 1.378 . S
C2138 C2133 1.350 . S
C2139 H2126 0.929 . S
C2139 C2131 1.433 . S
C2139 N2141 1.384 . S
N2140 C2136 1.427 . S
N2140 C2137 1.384 . S
N2141 C2133 1.427 . S
N2141 C2139 1.384 . S
H2142 C2148 0.930 . S
H2143 C2152 0.930 . S
H2144 C2157 0.929 . S
H2145 C2155 0.929 . S
H2146 C2150 0.929 . S
H2147 C2156 0.929 . S
C2148 H2142 0.930 . S
C2148 C2149 1.367 . S
C2148 C2156 1.378 . S
C2149 C2148 1.367 . S
C2149 C2157 1.433 . S
C2150 H2146 0.929 . S
C2150 C2152 1.378 . S
C2150 C2154 1.350 . S
C2151 C2154 1.463 . S
C2151 C2156 1.350 . S
C2151 N2159 1.427 . S
C2152 H2143 0.930 . S
C2152 C2150 1.378 . S
C2152 C2153 1.367 . S
C2153 C2152 1.367 . S
C2153 C2155 1.433 . S
C2154 C2150 1.350 . S
C2154 C2151 1.463 . S
C2154 N2158 1.427 . S
C2155 H2145 0.929 . S
C2155 C2153 1.433 . S
C2155 N2158 1.384 . S
C2156 H2147 0.929 . S
C2156 C2148 1.378 . S
C2156 C2151 1.350 . S
C2157 H2144 0.929 . S
C2157 C2149 1.433 . S
C2157 N2159 1.384 . S
N2158 C2154 1.427 . S
N2158 C2155 1.384 . S
N2159 C2151 1.427 . S
N2159 C2157 1.384 . S
H2160 C2166 0.930 . S
H2161 C2170 0.930 . S
H2162 C2175 0.929 . S
H2163 C2173 0.929 . S
H2164 C2168 0.929 . S
H2165 C2174 0.929 . S
C2166 H2160 0.930 . S
C2166 C2167 1.367 1_565 S
C2166 C2174 1.378 . S
C2167 C2166 1.367 1_545 S
C2167 C2175 1.433 . S
C2168 H2164 0.929 . S
C2168 C2170 1.378 . S
C2168 C2172 1.350 . S
C2169 C2172 1.463 . S
C2169 C2174 1.350 1_545 S
C2169 N2177 1.427 . S
C2170 H2161 0.930 . S
C2170 C2168 1.378 . S
C2170 C2171 1.367 . S
C2171 C2170 1.367 . S
C2171 C2173 1.433 1_545 S
C2172 C2168 1.350 . S
C2172 C2169 1.463 . S
C2172 N2176 1.427 1_545 S
C2173 H2163 0.929 . S
C2173 C2171 1.433 1_565 S
C2173 N2176 1.384 . S
C2174 H2165 0.929 . S
C2174 C2166 1.378 . S
C2174 C2169 1.350 1_565 S
C2175 H2162 0.929 . S
C2175 C2167 1.433 . S
C2175 N2177 1.384 . S
N2176 C2172 1.427 1_565 S
N2176 C2173 1.384 . S
N2177 C2169 1.427 . S
N2177 C2175 1.384 . S
H2178 C2184 0.930 . S
H2179 C2188 0.923 . S
H2180 C2193 0.933 . S
H2181 C2191 0.929 . S
H2182 C2186 0.926 1_455 S
H2183 C2192 0.929 . S
C2184 H2178 0.930 . S
C2184 C2185 1.367 . S
C2184 C2192 1.378 . S
C2185 C2184 1.367 . S
C2185 C2193 1.433 . S
C2186 H2182 0.926 1_655 S
C2186 C2188 1.399 1_655 S
C2186 C2190 1.346 . S
C2187 C2190 1.463 . S
C2187 C2192 1.350 . S
C2187 N2195 1.427 . S
C2188 H2179 0.923 . S
C2188 C2186 1.399 1_455 S
C2188 C2189 1.362 1_455 S
C2189 C2188 1.362 1_655 S
C2189 C2191 1.433 . S
C2190 C2186 1.346 . S
C2190 C2187 1.463 . S
C2190 N2194 1.427 . S
C2191 H2181 0.929 . S
C2191 C2189 1.433 . S
C2191 N2194 1.384 . S
C2192 H2183 0.929 . S
C2192 C2184 1.378 . S
C2192 C2187 1.350 . S
C2193 H2180 0.933 . S
C2193 C2185 1.433 . S
C2193 N2195 1.384 . S
N2194 C2190 1.427 . S
N2194 C2191 1.384 . S
N2195 C2187 1.427 . S
N2195 C2193 1.384 . S
H2196 C2202 0.930 . S
H2197 C2206 0.930 . S
H2198 C2211 0.929 . S
H2199 C2209 0.929 . S
H2200 C2204 0.929 . S
H2201 C2210 0.929 . S
C2202 H2196 0.930 . S
C2202 C2203 1.367 . S
C2202 C2210 1.378 . S
C2203 C2202 1.367 . S
C2203 C2211 1.433 . S
C2204 H2200 0.929 . S
C2204 C2206 1.378 . S
C2204 C2208 1.350 . S
C2205 C2208 1.463 . S
C2205 C2210 1.350 . S
C2205 N2213 1.427 . S
C2206 H2197 0.930 . S
C2206 C2204 1.378 . S
C2206 C2207 1.367 . S
C2207 C2206 1.367 . S
C2207 C2209 1.433 . S
C2208 C2204 1.350 . S
C2208 C2205 1.463 . S
C2208 N2212 1.427 . S
C2209 H2199 0.929 . S
C2209 C2207 1.433 . S
C2209 N2212 1.384 . S
C2210 H2201 0.929 . S
C2210 C2202 1.378 . S
C2210 C2205 1.350 . S
C2211 H2198 0.929 . S
C2211 C2203 1.433 . S
C2211 N2213 1.384 . S
N2212 C2208 1.427 . S
N2212 C2209 1.384 . S
N2213 C2205 1.427 . S
N2213 C2211 1.384 . S
H2214 C2220 0.930 . S
H2215 C2224 0.930 . S
H2216 C2229 0.929 . S
H2217 C2227 0.929 . S
H2218 C2222 0.929 . S
H2219 C2228 0.929 . S
C2220 H2214 0.930 . S
C2220 C2221 1.367 . S
C2220 C2228 1.378 . S
C2221 C2220 1.367 . S
C2221 C2229 1.433 . S
C2222 H2218 0.929 . S
C2222 C2224 1.378 . S
C2222 C2226 1.350 . S
C2223 C2226 1.463 . S
C2223 C2228 1.350 . S
C2223 N2231 1.427 . S
C2224 H2215 0.930 . S
C2224 C2222 1.378 . S
C2224 C2225 1.367 . S
C2225 C2224 1.367 . S
C2225 C2227 1.433 . S
C2226 C2222 1.350 . S
C2226 C2223 1.463 . S
C2226 N2230 1.427 . S
C2227 H2217 0.929 . S
C2227 C2225 1.433 . S
C2227 N2230 1.384 . S
C2228 H2219 0.929 . S
C2228 C2220 1.378 . S
C2228 C2223 1.350 . S
C2229 H2216 0.929 . S
C2229 C2221 1.433 . S
C2229 N2231 1.384 . S
N2230 C2226 1.427 . S
N2230 C2227 1.384 . S
N2231 C2223 1.427 . S
N2231 C2229 1.384 . S
H2232 C2238 0.930 . S
H2233 C2242 0.930 . S
H2234 C2247 0.929 . S
H2235 C2245 0.929 . S
H2236 C2240 0.929 . S
H2237 C2246 0.929 . S
C2238 H2232 0.930 . S
C2238 C2239 1.367 . S
C2238 C2246 1.378 . S
C2239 C2238 1.367 . S
C2239 C2247 1.433 . S
C2240 H2236 0.929 . S
C2240 C2242 1.378 . S
C2240 C2244 1.350 . S
C2241 C2244 1.463 . S
C2241 C2246 1.350 . S
C2241 N2249 1.427 . S
C2242 H2233 0.930 . S
C2242 C2240 1.378 . S
C2242 C2243 1.367 . S
C2243 C2242 1.367 . S
C2243 C2245 1.433 . S
C2244 C2240 1.350 . S
C2244 C2241 1.463 . S
C2244 N2248 1.427 . S
C2245 H2235 0.929 . S
C2245 C2243 1.433 . S
C2245 N2248 1.384 . S
C2246 H2237 0.929 . S
C2246 C2238 1.378 . S
C2246 C2241 1.350 . S
C2247 H2234 0.929 . S
C2247 C2239 1.433 . S
C2247 N2249 1.384 . S
N2248 C2244 1.427 . S
N2248 C2245 1.384 . S
N2249 C2241 1.427 . S
N2249 C2247 1.384 . S
H2250 C2256 0.930 . S
H2251 C2260 0.930 . S
H2252 C2265 0.929 . S
H2253 C2263 0.929 . S
H2254 C2258 0.929 . S
H2255 C2264 0.929 . S
C2256 H2250 0.930 . S
C2256 C2257 1.367 . S
C2256 C2264 1.378 . S
C2257 C2256 1.367 . S
C2257 C2265 1.433 . S
C2258 H2254 0.929 . S
C2258 C2260 1.378 . S
C2258 C2262 1.350 . S
C2259 C2262 1.463 . S
C2259 C2264 1.350 . S
C2259 N2267 1.427 . S
C2260 H2251 0.930 . S
C2260 C2258 1.378 . S
C2260 C2261 1.367 . S
C2261 C2260 1.367 . S
C2261 C2263 1.433 . S
C2262 C2258 1.350 . S
C2262 C2259 1.463 . S
C2262 N2266 1.427 . S
C2263 H2253 0.929 . S
C2263 C2261 1.433 . S
C2263 N2266 1.384 . S
C2264 H2255 0.929 . S
C2264 C2256 1.378 . S
C2264 C2259 1.350 . S
C2265 H2252 0.929 . S
C2265 C2257 1.433 . S
C2265 N2267 1.384 . S
N2266 C2262 1.427 . S
N2266 C2263 1.384 . S
N2267 C2259 1.427 . S
N2267 C2265 1.384 . S
H2268 C2274 0.930 . S
H2269 C2278 0.930 . S
H2270 C2283 0.929 . S
H2271 C2281 0.929 . S
H2272 C2276 0.929 . S
H2273 C2282 0.929 . S
C2274 H2268 0.930 . S
C2274 C2275 1.367 . S
C2274 C2282 1.378 . S
C2275 C2274 1.367 . S
C2275 C2283 1.433 . S
C2276 H2272 0.929 . S
C2276 C2278 1.378 . S
C2276 C2280 1.350 . S
C2277 C2280 1.463 . S
C2277 C2282 1.350 . S
C2277 N2285 1.427 . S
C2278 H2269 0.930 . S
C2278 C2276 1.378 . S
C2278 C2279 1.367 . S
C2279 C2278 1.367 . S
C2279 C2281 1.433 . S
C2280 C2276 1.350 . S
C2280 C2277 1.463 . S
C2280 N2284 1.427 . S
C2281 H2271 0.929 . S
C2281 C2279 1.433 . S
C2281 N2284 1.384 . S
C2282 H2273 0.929 . S
C2282 C2274 1.378 . S
C2282 C2277 1.350 . S
C2283 H2270 0.929 . S
C2283 C2275 1.433 . S
C2283 N2285 1.384 . S
N2284 C2280 1.427 . S
N2284 C2281 1.384 . S
N2285 C2277 1.427 . S
N2285 C2283 1.384 . S
H2286 C2292 0.930 . S
H2287 C2296 0.930 . S
H2288 C2301 0.929 . S
H2289 C2299 0.929 . S
H2290 C2294 0.929 . S
H2291 C2300 0.929 . S
C2292 H2286 0.930 . S
C2292 C2293 1.367 . S
C2292 C2300 1.378 . S
C2293 C2292 1.367 . S
C2293 C2301 1.433 . S
C2294 H2290 0.929 . S
C2294 C2296 1.378 . S
C2294 C2298 1.350 . S
C2295 C2298 1.463 . S
C2295 C2300 1.350 . S
C2295 N2303 1.427 . S
C2296 H2287 0.930 . S
C2296 C2294 1.378 . S
C2296 C2297 1.367 . S
C2297 C2296 1.367 . S
C2297 C2299 1.433 . S
C2298 C2294 1.350 . S
C2298 C2295 1.463 . S
C2298 N2302 1.427 . S
C2299 H2289 0.929 . S
C2299 C2297 1.433 . S
C2299 N2302 1.384 . S
C2300 H2291 0.929 . S
C2300 C2292 1.378 . S
C2300 C2295 1.350 . S
C2301 H2288 0.929 . S
C2301 C2293 1.433 . S
C2301 N2303 1.384 . S
N2302 C2298 1.427 . S
N2302 C2299 1.384 . S
N2303 C2295 1.427 . S
N2303 C2301 1.384 . S
H2304 C2310 0.930 . S
H2305 C2314 0.930 . S
H2306 C2319 0.929 . S
H2307 C2317 0.929 . S
H2308 C2312 0.929 . S
H2309 C2318 0.929 . S
C2310 H2304 0.930 . S
C2310 C2311 1.367 . S
C2310 C2318 1.378 . S
C2311 C2310 1.367 . S
C2311 C2319 1.433 . S
C2312 H2308 0.929 . S
C2312 C2314 1.378 . S
C2312 C2316 1.350 . S
C2313 C2316 1.463 . S
C2313 C2318 1.350 . S
C2313 N2321 1.427 . S
C2314 H2305 0.930 . S
C2314 C2312 1.378 . S
C2314 C2315 1.367 . S
C2315 C2314 1.367 . S
C2315 C2317 1.433 . S
C2316 C2312 1.350 . S
C2316 C2313 1.463 . S
C2316 N2320 1.427 . S
C2317 H2307 0.929 . S
C2317 C2315 1.433 . S
C2317 N2320 1.384 . S
C2318 H2309 0.929 . S
C2318 C2310 1.378 . S
C2318 C2313 1.350 . S
C2319 H2306 0.929 . S
C2319 C2311 1.433 . S
C2319 N2321 1.384 . S
N2320 C2316 1.427 . S
N2320 C2317 1.384 . S
N2321 C2313 1.427 . S
N2321 C2319 1.384 . S
H2322 C2328 0.927 1_455 S
H2323 C2332 0.930 . S
H2324 C2337 0.929 . S
H2325 C2335 0.929 . S
H2326 C2330 0.929 . S
H2327 C2336 0.956 . S
C2328 H2322 0.927 1_655 S
C2328 C2329 1.376 . S
C2328 C2336 1.356 1_655 S
C2329 C2328 1.376 . S
C2329 C2337 1.433 . S
C2330 H2326 0.929 . S
C2330 C2332 1.378 . S
C2330 C2334 1.350 . S
C2331 C2334 1.463 . S
C2331 C2336 1.340 1_655 S
C2331 N2339 1.427 . S
C2332 H2323 0.930 . S
C2332 C2330 1.378 . S
C2332 C2333 1.367 . S
C2333 C2332 1.367 . S
C2333 C2335 1.433 1_655 S
C2334 C2330 1.350 . S
C2334 C2331 1.463 . S
C2334 N2338 1.427 1_655 S
C2335 H2325 0.929 . S
C2335 C2333 1.433 1_455 S
C2335 N2338 1.384 . S
C2336 H2327 0.956 . S
C2336 C2328 1.356 1_455 S
C2336 C2331 1.340 1_455 S
C2337 H2324 0.929 . S
C2337 C2329 1.433 . S
C2337 N2339 1.384 . S
N2338 C2334 1.427 1_455 S
N2338 C2335 1.384 . S
N2339 C2331 1.427 . S
N2339 C2337 1.384 . S
H2340 C2346 0.930 . S
H2341 C2350 0.930 . S
H2342 C2355 0.929 . S
H2343 C2353 0.929 . S
H2344 C2348 0.929 . S
H2345 C2354 0.929 . S
C2346 H2340 0.930 . S
C2346 C2347 1.367 . S
C2346 C2354 1.378 . S
C2347 C2346 1.367 . S
C2347 C2355 1.433 . S
C2348 H2344 0.929 . S
C2348 C2350 1.378 . S
C2348 C2352 1.350 . S
C2349 C2352 1.463 . S
C2349 C2354 1.350 . S
C2349 N2357 1.427 . S
C2350 H2341 0.930 . S
C2350 C2348 1.378 . S
C2350 C2351 1.367 . S
C2351 C2350 1.367 . S
C2351 C2353 1.433 . S
C2352 C2348 1.350 . S
C2352 C2349 1.463 . S
C2352 N2356 1.427 . S
C2353 H2343 0.929 . S
C2353 C2351 1.433 . S
C2353 N2356 1.384 . S
C2354 H2345 0.929 . S
C2354 C2346 1.378 . S
C2354 C2349 1.350 . S
C2355 H2342 0.929 . S
C2355 C2347 1.433 . S
C2355 N2357 1.384 . S
N2356 C2352 1.427 . S
N2356 C2353 1.384 . S
N2357 C2349 1.427 . S
N2357 C2355 1.384 . S
H2358 C2364 0.930 . S
H2359 C2368 0.930 . S
H2360 C2373 0.929 . S
H2361 C2371 0.929 . S
H2362 C2366 0.929 . S
H2363 C2372 0.929 . S
C2364 H2358 0.930 . S
C2364 C2365 1.367 1_565 S
C2364 C2372 1.378 . S
C2365 C2364 1.367 1_545 S
C2365 C2373 1.433 . S
C2366 H2362 0.929 . S
C2366 C2368 1.378 . S
C2366 C2370 1.350 . S
C2367 C2370 1.463 . S
C2367 C2372 1.350 1_545 S
C2367 N2375 1.427 . S
C2368 H2359 0.930 . S
C2368 C2366 1.378 . S
C2368 C2369 1.367 . S
C2369 C2368 1.367 . S
C2369 C2371 1.433 1_545 S
C2370 C2366 1.350 . S
C2370 C2367 1.463 . S
C2370 N2374 1.427 1_545 S
C2371 H2361 0.929 . S
C2371 C2369 1.433 1_565 S
C2371 N2374 1.384 . S
C2372 H2363 0.929 . S
C2372 C2364 1.378 . S
C2372 C2367 1.350 1_565 S
C2373 H2360 0.929 . S
C2373 C2365 1.433 . S
C2373 N2375 1.384 . S
N2374 C2370 1.427 1_565 S
N2374 C2371 1.384 . S
N2375 C2367 1.427 . S
N2375 C2373 1.384 . S
C1087 C8 1.426 1_655 S
C1091 C688 1.479 . S
C1105 C22 1.562 . S
C1109 C734 1.555 . S
C1127 C766 1.489 . S
C1123 C37 1.478 1_545 S
C1141 C36 1.460 1_565 S
C1145 C819 1.477 . S
C1159 C9 1.469 1_455 S
C1163 C865 1.492 . S
C1177 C23 1.555 . S
C1181 C904 1.568 . S
C1195 C50 1.452 1_455 S
C1199 C858 1.469 . S
C1217 C911 1.566 . S
C1213 C64 1.558 . S
C1235 C812 1.495 . S
C1231 C79 1.463 1_565 S
C1249 C78 1.453 1_545 S
C1253 C773 1.471 . S
C1271 C667 1.494 . S
C1267 C51 1.464 1_655 S
C1285 C65 1.561 . S
C1289 C713 1.554 . S
C1303 C92 1.613 . S
C1307 C943 1.617 . S
C1321 C106 1.623 . S
C1325 C1010 1.611 . S
C1343 C1056 1.579 . S
C1339 C121 1.589 . S
C1357 C120 1.536 . S
C1361 C267 1.541 . S
C1375 C93 1.570 . S
C1379 C313 1.576 . S
C1393 C107 1.577 . S
C1397 C359 1.580 . S
C1411 C134 1.534 . S
C1415 C306 1.540 . S
C1429 C148 1.586 . S
C1433 C352 1.576 . S
C1451 C260 1.575 . S
C1447 C163 1.569 . S
C1469 C1035 1.614 . S
C1465 C162 1.611 . S
C1487 C964 1.586 . S
C1483 C135 1.585 . S
C1505 C989 1.611 . S
C1501 C149 1.624 . S
C1519 C176 1.539 . S
C1523 C391 1.547 . S
C1537 C190 1.584 . S
C1541 C444 1.585 . S
C1555 C205 1.570 . S
C1559 C490 1.582 . S
C1573 C204 1.610 . S
C1577 C536 1.619 . S
C1595 C589 1.585 . S
C1591 C177 1.584 . S
C1613 C635 1.613 . S
C1609 C191 1.620 . S
C1631 C582 1.608 . S
C1627 C218 1.617 . S
C1649 C628 1.611 . S
C1645 C232 1.622 . S
C1663 C247 1.585 . S
C1667 C543 1.586 . S
C1685 C497 1.547 . S
C1681 C246 1.534 . S
C1699 C219 1.571 . S
C1703 C412 1.581 . S
C1721 C451 1.591 . S
C1717 C233 1.580 . S
C1739 C274 1.564 . S
C1735 C6 1.548 . S
C1753 C20 1.501 . S
C1757 C320 1.511 . S
C1775 C366 1.562 . S
C1771 C35 1.558 . S
C1793 C398 1.556 . S
C1789 C34 1.546 . S
C1811 C437 1.558 . S
C1807 C7 1.551 . S
C1829 C483 1.500 . S
C1825 C21 1.499 . S
C1843 C48 1.558 . S
C1847 C504 1.563 . S
C1861 C62 1.494 . S
C1865 C405 1.507 . S
C1879 C77 1.551 . S
C1883 C458 1.548 . S
C1897 C76 1.554 . S
C1901 C299 1.572 . S
C1919 C345 1.558 . S
C1915 C49 1.553 . S
C1933 C63 1.491 . S
C1937 C253 1.510 . S
C1955 C529 1.533 . S
C1951 C90 1.523 . S
C1969 C104 1.568 . S
C1973 C596 1.593 . S
C1987 C119 1.569 . S
C1991 C642 1.597 . S
C2009 C681 1.484 . S
C2005 C118 1.442 . S
C2023 C91 1.531 . S
C2027 C727 1.550 . S
C2041 C105 1.445 . S
C2045 C759 1.491 . S
C2059 C132 1.434 . S
C2063 C780 1.478 . S
C2077 C146 1.448 . S
C2081 C674 1.489 . S
C2099 C720 1.554 . S
C2095 C161 1.530 . S
C2113 C160 1.531 . S
C2117 C575 1.548 . S
C2131 C133 1.568 . S
C2135 C621 1.590 . S
C2153 C550 1.582 . S
C2149 C147 1.573 . S
C2171 C826 1.486 . S
C2167 C174 1.446 . S
C2185 C188 1.446 . S
C2189 C872 1.491 . S
C2203 C203 1.529 . S
C2207 C897 1.548 . S
C2225 C950 1.537 . S
C2221 C202 1.528 . S
C2243 C1003 1.596 . S
C2239 C175 1.577 . S
C2257 C189 1.571 . S
C2261 C1049 1.592 . S
C2275 C216 1.533 . S
C2279 C1042 1.545 . S
C2293 C230 1.568 . S
C2297 C957 1.589 . S
C2315 C996 1.590 . S
C2311 C245 1.570 . S
C2333 C851 1.480 . S
C2329 C244 1.437 . S
C2351 C918 1.543 . S
C2347 C217 1.538 . S
C2365 C231 1.455 . S
C2369 C805 1.492 . S
