# Generated by pormake.
# Topology hwx, (6,3)-cn, num edge types: 1
# Building blocks:
#     Node 0, Type 0, BuildingBlock: IZENUY_clean_sbu_0, # of connection points: 6
#     Node 1, Type 0, BuildingBlock: IZENUY_clean_sbu_0, # of connection points: 6
#     Node 2, Type 0, BuildingBlock: IZENUY_clean_sbu_0, # of connection points: 6
#     Node 3, Type 0, BuildingBlock: IZENUY_clean_sbu_0, # of connection points: 6
#     Node 4, Type 1, BuildingBlock: PAMTOO_clean_linker_0, # of connection points: 3
#     Node 5, Type 1, BuildingBlock: PAMTOO_clean_linker_0, # of connection points: 3
#     Node 6, Type 1, BuildingBlock: PAMTOO_clean_linker_0, # of connection points: 3
#     Node 7, Type 1, BuildingBlock: PAMTOO_clean_linker_0, # of connection points: 3
#     Node 8, Type 1, BuildingBlock: PAMTOO_clean_linker_0, # of connection points: 3
#     Node 9, Type 1, BuildingBlock: PAMTOO_clean_linker_0, # of connection points: 3
#     Node 10, Type 1, BuildingBlock: PAMTOO_clean_linker_0, # of connection points: 3
#     Node 11, Type 1, BuildingBlock: PAMTOO_clean_linker_0, # of connection points: 3
#     Edge 12, Type (0, 1), BuildingBlock: MIFKUJ_clean_linker_0, # of connection points: 2
#     Edge 13, Type (0, 1), BuildingBlock: MIFKUJ_clean_linker_0, # of connection points: 2
#     Edge 14, Type (0, 1), BuildingBlock: MIFKUJ_clean_linker_0, # of connection points: 2
#     Edge 15, Type (0, 1), BuildingBlock: MIFKUJ_clean_linker_0, # of connection points: 2
#     Edge 16, Type (0, 1), BuildingBlock: MIFKUJ_clean_linker_0, # of connection points: 2
#     Edge 17, Type (0, 1), BuildingBlock: MIFKUJ_clean_linker_0, # of connection points: 2
#     Edge 18, Type (0, 1), BuildingBlock: MIFKUJ_clean_linker_0, # of connection points: 2
#     Edge 19, Type (0, 1), BuildingBlock: MIFKUJ_clean_linker_0, # of connection points: 2
#     Edge 20, Type (0, 1), BuildingBlock: MIFKUJ_clean_linker_0, # of connection points: 2
#     Edge 21, Type (0, 1), BuildingBlock: MIFKUJ_clean_linker_0, # of connection points: 2
#     Edge 22, Type (0, 1), BuildingBlock: MIFKUJ_clean_linker_0, # of connection points: 2
#     Edge 23, Type (0, 1), BuildingBlock: MIFKUJ_clean_linker_0, # of connection points: 2
#     Edge 24, Type (0, 1), BuildingBlock: MIFKUJ_clean_linker_0, # of connection points: 2
#     Edge 25, Type (0, 1), BuildingBlock: MIFKUJ_clean_linker_0, # of connection points: 2
#     Edge 26, Type (0, 1), BuildingBlock: MIFKUJ_clean_linker_0, # of connection points: 2
#     Edge 27, Type (0, 1), BuildingBlock: MIFKUJ_clean_linker_0, # of connection points: 2
#     Edge 28, Type (0, 1), BuildingBlock: MIFKUJ_clean_linker_0, # of connection points: 2
#     Edge 29, Type (0, 1), BuildingBlock: MIFKUJ_clean_linker_0, # of connection points: 2
#     Edge 30, Type (0, 1), BuildingBlock: MIFKUJ_clean_linker_0, # of connection points: 2
#     Edge 31, Type (0, 1), BuildingBlock: MIFKUJ_clean_linker_0, # of connection points: 2
#     Edge 32, Type (0, 1), BuildingBlock: MIFKUJ_clean_linker_0, # of connection points: 2
#     Edge 33, Type (0, 1), BuildingBlock: MIFKUJ_clean_linker_0, # of connection points: 2
#     Edge 34, Type (0, 1), BuildingBlock: MIFKUJ_clean_linker_0, # of connection points: 2
#     Edge 35, Type (0, 1), BuildingBlock: MIFKUJ_clean_linker_0, # of connection points: 2
# Relax obj value: 0.003
# Max RMSD: 0.065
# Mean RMSD: 0.051
data_MOF--net-hwx--node1-IZENUY_clean_sbu_0--node2-PAMTOO_clean_linker_0--edge1-MIFKUJ_clean_linker_0
_symmetry_space_group_name_H-M    P1
_symmetry_Int_Tables_number       1
_symmetry_cell_setting            triclinic
loop_
_symmetry_equiv_pos_as_xyz
'x, y, z'
_cell_length_a     66.544338
_cell_length_b     66.530857
_cell_length_c     26.984445
_cell_angle_alpha  88.415098
_cell_angle_beta   91.62506
_cell_angle_gamma 90.038279
loop_
_atom_site_label
_atom_site_type_symbol
_atom_site_fract_x
_atom_site_fract_y
_atom_site_fract_z
_atom_type_partial_charge
Fe0 Fe 0.23534 0.23106 0.06812 0.0
Fe1 Fe 0.23423 0.23157 0.95422 0.0
O2 O 0.22531 0.22201 0.01145 0.0
Fe3 Fe 0.20627 0.20336 0.01219 0.0
O4 O 0.18946 0.21957 0.04445 0.0
O5 O 0.21172 0.22835 0.10155 0.0
O6 O 0.22747 0.25654 0.05207 0.0
C7 C 0.23229 0.26621 0.01332 0.0
C8 C 0.23237 0.19109 0.09215 0.0
O9 O 0.23885 0.25715 0.97632 0.0
C10 C 0.22956 0.18971 0.93847 0.0
O11 O 0.26075 0.23565 0.04505 0.0
O12 O 0.25978 0.22372 0.96995 0.0
O13 O 0.21526 0.19108 0.07037 0.0
O14 O 0.24388 0.20608 0.08801 0.0
C15 C 0.19397 0.22905 0.93159 0.0
O16 O 0.23124 0.20768 0.92207 0.0
O17 O 0.22182 0.18595 0.97984 0.0
C18 C 0.26966 0.22905 0.00794 0.0
O19 O 0.20932 0.24014 0.93419 0.0
O20 O 0.19369 0.21215 0.95426 0.0
C21 C 0.19364 0.22729 0.08564 0.0
Fe22 Fe 0.27033 0.73062 0.57402 0.0
Fe23 Fe 0.29754 0.70217 0.51904 0.0
O24 O 0.27907 0.72137 0.51757 0.0
Fe25 Fe 0.26941 0.73131 0.46012 0.0
O26 O 0.26635 0.75704 0.48251 0.0
O27 O 0.2791 0.75576 0.55874 0.0
O28 O 0.29417 0.72652 0.6089 0.0
C29 C 0.31196 0.72513 0.59398 0.0
C30 C 0.23494 0.72998 0.51311 0.0
O31 O 0.31537 0.71786 0.55244 0.0
C32 C 0.27253 0.6893 0.44421 0.0
O33 O 0.26101 0.70601 0.59261 0.0
O34 O 0.28878 0.68991 0.57645 0.0
O35 O 0.24383 0.72442 0.47519 0.0
O36 O 0.24486 0.73647 0.55004 0.0
C37 C 0.30923 0.72747 0.43869 0.0
O38 O 0.28104 0.68533 0.48568 0.0
O39 O 0.27081 0.70731 0.42789 0.0
C40 C 0.27183 0.69045 0.5967 0.0
O41 O 0.30956 0.71069 0.46193 0.0
O42 O 0.29422 0.73895 0.44054 0.0
C43 C 0.27402 0.76571 0.51989 0.0
Fe44 Fe 0.76844 0.78381 0.95168 0.0
Fe45 Fe 0.77084 0.78245 0.0655 0.0
O46 O 0.77874 0.79284 0.0081 0.0
Fe47 Fe 0.79699 0.81231 0.00722 0.0
O48 O 0.77975 0.82954 0.97494 0.0
O49 O 0.76935 0.80831 0.91857 0.0
O50 O 0.74312 0.79038 0.96836 0.0
C51 C 0.73467 0.7843 0.00722 0.0
C52 C 0.80776 0.78845 0.92665 0.0
O53 O 0.74495 0.77724 0.04388 0.0
C54 C 0.81283 0.78798 0.0814 0.0
O55 O 0.76556 0.75772 0.97482 0.0
O56 O 0.77926 0.75752 0.04993 0.0
O57 O 0.80811 0.80494 0.94892 0.0
O58 O 0.79309 0.77657 0.93084 0.0
C59 C 0.7727 0.82231 0.08751 0.0
O60 O 0.79526 0.78569 0.09761 0.0
O61 O 0.81553 0.79642 0.03966 0.0
C62 C 0.77367 0.74831 0.01166 0.0
O63 O 0.76191 0.80673 0.08501 0.0
O64 O 0.78916 0.8234 0.06515 0.0
C65 C 0.77066 0.82604 0.93446 0.0
Fe66 Fe 0.70699 0.31159 0.50589 0.0
Fe67 Fe 0.73533 0.28222 0.56344 0.0
O68 O 0.72586 0.29277 0.50637 0.0
Fe69 Fe 0.73528 0.28449 0.44967 0.0
O70 O 0.73244 0.30896 0.41679 0.0
O71 O 0.72288 0.32951 0.4739 0.0
O72 O 0.71584 0.32281 0.56393 0.0
C73 C 0.73271 0.32194 0.58681 0.0
C74 C 0.6952 0.28731 0.42536 0.0
O75 O 0.74378 0.30661 0.58435 0.0
C76 C 0.73282 0.24844 0.50806 0.0
O77 O 0.68976 0.29507 0.53797 0.0
O78 O 0.71142 0.28425 0.59568 0.0
O79 O 0.71057 0.27622 0.42882 0.0
O80 O 0.69469 0.3038 0.44766 0.0
C81 C 0.77016 0.28614 0.50526 0.0
O82 O 0.72748 0.25712 0.54652 0.0
O83 O 0.73994 0.25848 0.47201 0.0
C84 C 0.69347 0.28643 0.57937 0.0
O85 O 0.76101 0.27825 0.54154 0.0
O86 O 0.76057 0.29225 0.46679 0.0
C87 C 0.73084 0.32657 0.43292 0.0
H88 H 0.23504 0.57119 0.02671 0.0
H89 H 0.23464 0.51548 0.9496 0.0
H90 H 0.23335 0.51475 0.10865 0.0
H91 H 0.25894 0.48395 0.07117 0.0
C92 C 0.25156 0.48155 0.03429 0.0
O93 O 0.234 0.49255 0.03008 0.0
H94 H 0.26214 0.48675 0.00536 0.0
C95 C 0.2342 0.55491 0.02753 0.0
C96 C 0.23387 0.54438 0.07336 0.0
C97 C 0.23437 0.54473 0.98267 0.0
C98 C 0.23444 0.52362 0.98382 0.0
C99 C 0.23408 0.51288 0.02926 0.0
C100 C 0.23372 0.52324 0.07385 0.0
H101 H 0.93177 0.76306 0.52454 0.0
H102 H 0.98608 0.75348 0.44485 0.0
H103 H 0.98812 0.75495 0.60404 0.0
H104 H 0.02021 0.77784 0.55297 0.0
C105 C 0.02238 0.76792 0.52098 0.0
O106 O 0.00954 0.75167 0.52427 0.0
H107 H 0.01887 0.7769 0.48639 0.0
C108 C 0.9478 0.76018 0.5241 0.0
C109 C 0.95871 0.75889 0.56922 0.0
C110 C 0.95737 0.75811 0.47875 0.0
C111 C 0.9783 0.75509 0.47924 0.0
C112 C 0.98937 0.75409 0.52431 0.0
C113 C 0.97953 0.75577 0.56932 0.0
H114 H 0.76658 0.4434 0.00649 0.0
H115 H 0.77002 0.50071 0.07662 0.0
H116 H 0.77055 0.49791 0.91784 0.0
H117 H 0.79868 0.52766 0.96298 0.0
C118 C 0.78983 0.53174 0.9956 0.0
O119 O 0.77156 0.52185 0.99361 0.0
H120 H 0.79837 0.52702 0.03001 0.0
C121 C 0.76812 0.45961 0.00398 0.0
C122 C 0.76891 0.46914 0.95702 0.0
C123 C 0.76859 0.4707 0.04756 0.0
C124 C 0.76953 0.4918 0.04361 0.0
C125 C 0.77034 0.50155 0.9969 0.0
C126 C 0.76988 0.49024 0.95371 0.0
H127 H 0.07456 0.26369 0.49839 0.0
H128 H 0.01856 0.26719 0.57332 0.0
H129 H 0.01882 0.26965 0.41407 0.0
H130 H 0.99181 0.29851 0.46086 0.0
C131 C 0.98702 0.2891 0.49318 0.0
O132 O 0.99619 0.27051 0.49197 0.0
H133 H 0.99174 0.29681 0.52767 0.0
C134 C 0.05836 0.26548 0.49685 0.0
C135 C 0.04814 0.26688 0.45059 0.0
C136 C 0.04794 0.26565 0.5413 0.0
C137 C 0.02687 0.26697 0.53937 0.0
C138 C 0.01644 0.26859 0.4935 0.0
C139 C 0.02704 0.26838 0.44925 0.0
H140 H 0.73407 0.94308 0.49909 0.0
H141 H 0.73345 0.99953 0.57321 0.0
H142 H 0.73567 0.99877 0.4143 0.0
H143 H 0.76178 0.02921 0.46278 0.0
C144 C 0.75225 0.03273 0.49466 0.0
O145 O 0.73467 0.02176 0.49169 0.0
H146 H 0.76081 0.02852 0.52944 0.0
C147 C 0.73371 0.95938 0.49749 0.0
C148 C 0.73453 0.96951 0.45127 0.0
C149 C 0.73337 0.96995 0.54178 0.0
C150 C 0.73381 0.99107 0.5395 0.0
C151 C 0.73462 1.00142 0.49356 0.0
C152 C 0.73506 0.99065 0.44959 0.0
H153 H 0.57412 0.25459 0.00217 0.0
H154 H 0.51757 0.25063 0.07486 0.0
H155 H 0.51873 0.2523 0.91565 0.0
H156 H 0.48584 0.27653 0.96294 0.0
C157 C 0.48294 0.26602 0.99475 0.0
O158 O 0.49563 0.24966 0.99262 0.0
H159 H 0.48589 0.27399 0.02991 0.0
C160 C 0.55787 0.25338 0.99985 0.0
C161 C 0.54791 0.25342 0.95324 0.0
C162 C 0.54711 0.25242 0.04377 0.0
C163 C 0.52606 0.25152 0.04117 0.0
C164 C 0.51587 0.25148 0.99492 0.0
C165 C 0.52677 0.25256 0.95111 0.0
H166 H 0.25938 0.06961 0.52298 0.0
H167 H 0.26525 0.0137 0.44881 0.0
H168 H 0.26774 0.01432 0.60819 0.0
H169 H 0.29644 0.98658 0.56336 0.0
C170 C 0.28732 0.98226 0.53011 0.0
O171 O 0.26877 0.99148 0.53057 0.0
H172 H 0.2955 0.98734 0.4966 0.0
C173 C 0.26168 0.05346 0.5249 0.0
C174 C 0.26386 0.04342 0.57121 0.0
C175 C 0.26223 0.04291 0.4808 0.0
C176 C 0.26488 0.022 0.48275 0.0
C177 C 0.26676 0.01171 0.52876 0.0
C178 C 0.26617 0.0224 0.57288 0.0
H179 H 0.43187 0.75235 0.02779 0.0
H180 H 0.48783 0.75422 0.95115 0.0
H181 H 0.48757 0.76098 0.10901 0.0
H182 H 0.51485 0.78848 0.06029 0.0
C183 C 0.51827 0.77994 0.02668 0.0
O184 O 0.51003 0.76093 0.03055 0.0
H185 H 0.51147 0.78821 0.99389 0.0
C186 C 0.44812 0.75372 0.02824 0.0
C187 C 0.45841 0.75669 0.07353 0.0
C188 C 0.45848 0.75248 0.98377 0.0
C189 C 0.47948 0.75492 0.98494 0.0
C190 C 0.4899 0.7581 0.03 0.0
C191 C 0.47942 0.75858 0.07434 0.0
H192 H 0.15316 0.22066 0.07242 0.0
H193 H 0.12638 0.229 0.12851 0.0
H194 H 0.16995 0.25596 0.2278 0.0
H195 H 0.19683 0.24725 0.17262 0.0
H196 H 0.14609 0.23272 0.2783 0.0
H197 H 0.13662 0.28445 0.15299 0.0
H198 H 0.13152 0.29836 0.06793 0.0
H199 H 0.07581 0.26615 0.05347 0.0
H200 H 0.08071 0.25182 0.13829 0.0
H201 H 0.08341 0.28613 0.43121 0.0
H202 H 0.10557 0.28072 0.3623 0.0
H203 H 0.06165 0.24133 0.29586 0.0
H204 H 0.03947 0.2462 0.36576 0.0
H205 H 0.08388 0.2698 0.22692 0.0
H206 H 0.0945 0.2187 0.356 0.0
H207 H 0.10028 0.20696 0.4427 0.0
H208 H 0.15527 0.24067 0.45064 0.0
H209 H 0.14962 0.2529 0.36419 0.0
C210 C 0.15704 0.22847 0.10606 0.0
C211 C 0.17717 0.23321 0.11813 0.0
C212 C 0.14168 0.23332 0.138 0.0
C213 C 0.1461 0.24326 0.18225 0.0
C214 C 0.16615 0.24825 0.19396 0.0
C215 C 0.18152 0.24327 0.1623 0.0
C216 C 0.13003 0.24776 0.21748 0.0
C217 C 0.13262 0.24102 0.267 0.0
C218 C 0.11219 0.25823 0.20271 0.0
C219 C 0.10914 0.2669 0.15181 0.0
C220 C 0.12335 0.28021 0.13154 0.0
C221 C 0.12048 0.28819 0.0834 0.0
C222 C 0.10337 0.2831 0.05526 0.0
C223 C 0.08907 0.27006 0.07529 0.0
C224 C 0.09187 0.26201 0.12341 0.0
C225 C 0.07836 0.2764 0.40182 0.0
C226 C 0.05983 0.26628 0.40447 0.0
C227 C 0.09099 0.27346 0.36232 0.0
C228 C 0.08531 0.26047 0.32439 0.0
C229 C 0.06625 0.25143 0.32487 0.0
C230 C 0.0536 0.25425 0.36476 0.0
C231 C 0.10019 0.25493 0.28735 0.0
C232 C 0.09735 0.26142 0.23777 0.0
C233 C 0.11796 0.24445 0.30204 0.0
C234 C 0.12153 0.23687 0.35379 0.0
C235 C 0.10773 0.22374 0.37636 0.0
C236 C 0.111 0.21698 0.42544 0.0
C237 C 0.1281 0.22311 0.45221 0.0
C238 C 0.14201 0.23596 0.42988 0.0
C239 C 0.13879 0.2428 0.38084 0.0
H240 H 0.1306 0.21786 0.49021 0.0
H241 H 0.10118 0.28929 0.01799 0.0
H242 H 0.23938 0.68844 0.65703 0.0
H243 H 0.23105 0.66152 0.71644 0.0
H244 H 0.28234 0.62748 0.67216 0.0
H245 H 0.29076 0.65424 0.61241 0.0
H246 H 0.24888 0.60343 0.68636 0.0
H247 H 0.28631 0.65369 0.77354 0.0
H248 H 0.29409 0.68802 0.8004 0.0
H249 H 0.23695 0.6912 0.86987 0.0
H250 H 0.22869 0.65698 0.84269 0.0
H251 H 0.25941 0.53957 0.90517 0.0
H252 H 0.26353 0.56222 0.83291 0.0
H253 H 0.21511 0.59927 0.88169 0.0
H254 H 0.21111 0.57684 0.95395 0.0
H255 H 0.24718 0.62138 0.86342 0.0
H256 H 0.21024 0.57018 0.77789 0.0
H257 H 0.20298 0.53577 0.75076 0.0
H258 H 0.25967 0.53397 0.67887 0.0
H259 H 0.2674 0.56828 0.70617 0.0
C260 C 0.24882 0.67518 0.6596 0.0
C261 C 0.26589 0.67362 0.63034 0.0
C262 C 0.24404 0.65981 0.69362 0.0
C263 C 0.25622 0.64261 0.69907 0.0
C264 C 0.27277 0.64064 0.66857 0.0
C265 C 0.27761 0.65602 0.63465 0.0
C266 C 0.2523 0.62723 0.73844 0.0
C267 C 0.24868 0.60727 0.72516 0.0
C268 C 0.25181 0.63233 0.78892 0.0
C269 C 0.2568 0.65285 0.80563 0.0
C270 C 0.27533 0.66177 0.7942 0.0
C271 C 0.27984 0.6812 0.80953 0.0
C272 C 0.266 0.69181 0.83672 0.0
C273 C 0.24765 0.68298 0.84873 0.0
C274 C 0.24305 0.66356 0.8334 0.0
C275 C 0.24938 0.5523 0.89979 0.0
C276 C 0.23504 0.55654 0.93529 0.0
C277 C 0.25174 0.56525 0.85854 0.0
C278 C 0.23963 0.58247 0.85187 0.0
C279 C 0.22472 0.58617 0.88621 0.0
C280 C 0.22244 0.57334 0.92745 0.0
C281 C 0.24342 0.59752 0.8115 0.0
C282 C 0.2472 0.61748 0.82464 0.0
C283 C 0.24411 0.59235 0.76103 0.0
C284 C 0.23948 0.57173 0.74451 0.0
C285 C 0.22123 0.56238 0.75666 0.0
C286 C 0.21702 0.54291 0.74117 0.0
C287 C 0.23088 0.53267 0.71322 0.0
C288 C 0.24896 0.54191 0.70058 0.0
C289 C 0.25326 0.56137 0.71601 0.0
H290 H 0.22759 0.5176 0.70126 0.0
H291 H 0.26952 0.70684 0.84857 0.0
H292 H 0.81266 0.76623 0.16831 0.0
H293 H 0.84027 0.76125 0.22855 0.0
H294 H 0.88008 0.79401 0.1322 0.0
H295 H 0.85243 0.79889 0.07093 0.0
H296 H 0.89894 0.76141 0.17902 0.0
H297 H 0.86071 0.81782 0.22515 0.0
H298 H 0.83009 0.83694 0.24246 0.0
H299 H 0.81711 0.79569 0.36251 0.0
H300 H 0.84749 0.7761 0.34539 0.0
H301 H 0.96705 0.77736 0.39102 0.0
H302 H 0.9455 0.78206 0.3163 0.0
H303 H 0.89881 0.74725 0.38555 0.0
H304 H 0.92031 0.74201 0.45945 0.0
H305 H 0.88598 0.78491 0.34814 0.0
H306 H 0.92419 0.72754 0.29605 0.0
H307 H 0.95537 0.70957 0.27751 0.0
H308 H 0.96956 0.75509 0.16811 0.0
H309 H 0.93858 0.77349 0.18653 0.0
C310 C 0.8273 0.77227 0.15959 0.0
C311 C 0.83025 0.78323 0.11509 0.0
C312 C 0.84308 0.76942 0.19414 0.0
C313 C 0.86212 0.77762 0.1853 0.0
C314 C 0.86546 0.78767 0.13985 0.0
C315 C 0.84964 0.79047 0.10496 0.0
C316 C 0.87802 0.77646 0.22493 0.0
C317 C 0.89627 0.76684 0.2158 0.0
C318 C 0.87452 0.78355 0.2729 0.0
C319 C 0.85631 0.79539 0.28371 0.0
C320 C 0.85125 0.81273 0.25502 0.0
C321 C 0.83395 0.82367 0.26482 0.0
C322 C 0.82164 0.81751 0.3035 0.0
C323 C 0.82665 0.80043 0.33253 0.0
C324 C 0.84392 0.78941 0.32282 0.0
C325 C 0.95236 0.77036 0.38993 0.0
C326 C 0.94532 0.7595 0.43146 0.0
C327 C 0.94004 0.77314 0.3473 0.0
C328 C 0.92053 0.7651 0.3456 0.0
C329 C 0.91375 0.75373 0.38632 0.0
C330 C 0.92604 0.75084 0.42862 0.0
C331 C 0.9066 0.76927 0.30272 0.0
C332 C 0.88873 0.77963 0.31125 0.0
C333 C 0.91062 0.7631 0.25423 0.0
C334 C 0.92919 0.75201 0.24309 0.0
C335 C 0.93405 0.73382 0.26838 0.0
C336 C 0.95167 0.72353 0.25782 0.0
C337 C 0.96447 0.73122 0.22177 0.0
C338 C 0.95965 0.74918 0.19609 0.0
C339 C 0.94206 0.75953 0.20655 0.0
H340 H 0.9781 0.72323 0.21363 0.0
H341 H 0.80825 0.826 0.31103 0.0
H342 H 0.76343 0.32239 0.65692 0.0
H343 H 0.77152 0.34906 0.71495 0.0
H344 H 0.72336 0.38538 0.65053 0.0
H345 H 0.71514 0.35886 0.59246 0.0
H346 H 0.7581 0.4076 0.66968 0.0
H347 H 0.71526 0.36075 0.75421 0.0
H348 H 0.70454 0.32731 0.78506 0.0
H349 H 0.7593 0.32136 0.87228 0.0
H350 H 0.77049 0.35466 0.84133 0.0
H351 H 0.7458 0.47452 0.87182 0.0
H352 H 0.7419 0.45116 0.80342 0.0
H353 H 0.78678 0.41217 0.87322 0.0
H354 H 0.79066 0.43535 0.94142 0.0
H355 H 0.75377 0.39158 0.84971 0.0
H356 H 0.79607 0.43947 0.76652 0.0
H357 H 0.80623 0.47303 0.7353 0.0
H358 H 0.75195 0.47744 0.64576 0.0
H359 H 0.74133 0.444 0.67699 0.0
C360 C 0.75464 0.33609 0.65486 0.0
C361 C 0.7385 0.33839 0.62035 0.0
C362 C 0.75926 0.35131 0.68809 0.0
C363 C 0.74792 0.36913 0.68728 0.0
C364 C 0.73229 0.37175 0.65179 0.0
C365 C 0.72755 0.35651 0.61883 0.0
C366 C 0.75177 0.38464 0.72486 0.0
C367 C 0.75698 0.40419 0.70906 0.0
C368 C 0.75054 0.38009 0.77618 0.0
C369 C 0.74381 0.3601 0.79503 0.0
C370 C 0.72509 0.35224 0.77963 0.0
C371 C 0.71892 0.33332 0.79719 0.0
C372 C 0.73126 0.3222 0.8305 0.0
C373 C 0.74978 0.32999 0.84641 0.0
C374 C 0.75604 0.34888 0.8289 0.0
C375 C 0.75512 0.46117 0.87195 0.0
C376 C 0.76841 0.45667 0.91214 0.0
C377 C 0.75287 0.44781 0.83291 0.0
C378 C 0.76403 0.42986 0.83322 0.0
C379 C 0.7779 0.42582 0.87234 0.0
C380 C 0.7801 0.43909 0.91128 0.0
C381 C 0.76039 0.41459 0.79476 0.0
C382 C 0.75505 0.39504 0.8104 0.0
C383 C 0.76145 0.41921 0.74336 0.0
C384 C 0.76781 0.43931 0.72449 0.0
C385 C 0.78622 0.44767 0.7405 0.0
C386 C 0.79208 0.46666 0.72273 0.0
C387 C 0.77972 0.47738 0.68867 0.0
C388 C 0.7615 0.46912 0.6722 0.0
C389 C 0.75556 0.45014 0.68989 0.0
H390 H 0.78429 0.49208 0.67495 0.0
H391 H 0.72645 0.30756 0.84407 0.0
H392 H 0.66062 0.30858 0.4049 0.0
H393 H 0.63342 0.30051 0.34617 0.0
H394 H 0.66401 0.24593 0.30994 0.0
H395 H 0.69147 0.254 0.36818 0.0
H396 H 0.65147 0.26675 0.22788 0.0
H397 H 0.62222 0.24492 0.38131 0.0
H398 H 0.61167 0.24891 0.46735 0.0
H399 H 0.57205 0.297 0.41961 0.0
H400 H 0.58258 0.29349 0.33335 0.0
H401 H 0.57598 0.22631 0.0774 0.0
H402 H 0.59857 0.22983 0.14976 0.0
H403 H 0.56693 0.28347 0.18896 0.0
H404 H 0.5438 0.27948 0.11729 0.0
H405 H 0.57954 0.26282 0.27107 0.0
H406 H 0.60916 0.28632 0.12033 0.0
H407 H 0.61959 0.28376 0.03377 0.0
H408 H 0.65875 0.23458 0.07615 0.0
H409 H 0.64829 0.23663 0.16288 0.0
C410 C 0.66156 0.29479 0.38466 0.0
C411 C 0.6783 0.28197 0.39117 0.0
C412 C 0.64591 0.29015 0.35127 0.0
C413 C 0.64658 0.27252 0.32399 0.0
C414 C 0.66318 0.25961 0.33066 0.0
C415 C 0.67885 0.26424 0.36402 0.0
C416 C 0.63042 0.26799 0.28688 0.0
C417 C 0.63579 0.26554 0.23752 0.0
C418 C 0.60988 0.2671 0.29915 0.0
C419 C 0.60332 0.26905 0.35091 0.0
C420 C 0.61136 0.25643 0.3892 0.0
C421 C 0.60537 0.2586 0.438 0.0
C422 C 0.59123 0.27323 0.44895 0.0
C423 C 0.58301 0.28568 0.41108 0.0
C424 C 0.58897 0.2836 0.36221 0.0
C425 C 0.57361 0.23858 0.10217 0.0
C426 C 0.55831 0.25271 0.09183 0.0
C427 C 0.58655 0.24065 0.1433 0.0
C428 C 0.58477 0.25721 0.17406 0.0
C429 C 0.56866 0.27064 0.16559 0.0
C430 C 0.55546 0.26837 0.12476 0.0
C431 C 0.60065 0.26134 0.21225 0.0
C432 C 0.59524 0.26387 0.2616 0.0
C433 C 0.62119 0.26254 0.19998 0.0
C434 C 0.6278 0.26152 0.14801 0.0
C435 C 0.61991 0.27489 0.11114 0.0
C436 C 0.62583 0.27353 0.06205 0.0
C437 C 0.63979 0.25899 0.04945 0.0
C438 C 0.64792 0.24582 0.08596 0.0
C439 C 0.64201 0.24708 0.13509 0.0
H440 H 0.64435 0.25795 0.01142 0.0
H441 H 0.58662 0.27489 0.48677 0.0
H442 H 0.21945 0.14986 0.94916 0.0
H443 H 0.22644 0.12279 0.89264 0.0
H444 H 0.25886 0.16442 0.799 0.0
H445 H 0.25145 0.19162 0.85446 0.0
H446 H 0.23445 0.14324 0.74474 0.0
H447 H 0.28263 0.12771 0.87644 0.0
H448 H 0.29388 0.12024 0.96284 0.0
H449 H 0.25635 0.06772 0.96683 0.0
H450 H 0.24466 0.07504 0.88061 0.0
H451 H 0.28344 0.07847 0.58983 0.0
H452 H 0.27877 0.10069 0.65906 0.0
H453 H 0.23866 0.05753 0.72584 0.0
H454 H 0.24314 0.03515 0.65601 0.0
H455 H 0.26523 0.07764 0.79545 0.0
H456 H 0.218 0.09334 0.66176 0.0
H457 H 0.20809 0.1008 0.57445 0.0
H458 H 0.24525 0.15359 0.57435 0.0
H459 H 0.25566 0.14625 0.66146 0.0
C460 C 0.22819 0.15322 0.91671 0.0
C461 C 0.23481 0.17294 0.90621 0.0
C462 C 0.23226 0.13769 0.88452 0.0
C463 C 0.24332 0.1415 0.84168 0.0
C464 C 0.25024 0.1611 0.83169 0.0
C465 C 0.24601 0.17665 0.86351 0.0
C466 C 0.24698 0.12537 0.80592 0.0
C467 C 0.24142 0.12902 0.75591 0.0
C468 C 0.25553 0.10653 0.82051 0.0
C469 C 0.26261 0.10205 0.87225 0.0
C470 C 0.27666 0.11466 0.89586 0.0
C471 C 0.28313 0.11044 0.94478 0.0
C472 C 0.27579 0.09355 0.97036 0.0
C473 C 0.262 0.08082 0.947 0.0
C474 C 0.25546 0.08498 0.8981 0.0
C475 C 0.27375 0.07361 0.61945 0.0
C476 C 0.26338 0.05522 0.61709 0.0
C477 C 0.27117 0.08628 0.65905 0.0
C478 C 0.25813 0.08088 0.6971 0.0
C479 C 0.24876 0.06196 0.69671 0.0
C480 C 0.25135 0.04921 0.65689 0.0
C481 C 0.25308 0.09581 0.73457 0.0
C482 C 0.25824 0.09189 0.78465 0.0
C483 C 0.24427 0.11449 0.72015 0.0
C484 C 0.23774 0.11915 0.66802 0.0
C485 C 0.22417 0.10646 0.64303 0.0
C486 C 0.21845 0.11067 0.59358 0.0
C487 C 0.22607 0.12763 0.56883 0.0
C488 C 0.23937 0.14045 0.59355 0.0
C489 C 0.24517 0.13628 0.64298 0.0
H490 H 0.22163 0.13086 0.53054 0.0
H491 H 0.28082 0.09031 0.00823 0.0
H492 H 0.34508 0.70791 0.43184 0.0
H493 H 0.3722 0.71552 0.3753 0.0
H494 H 0.33875 0.76631 0.3141 0.0
H495 H 0.31139 0.75878 0.37055 0.0
H496 H 0.35379 0.74167 0.24229 0.0
H497 H 0.37862 0.77395 0.39002 0.0
H498 H 0.38752 0.77468 0.4793 0.0
H499 H 0.43112 0.72803 0.46216 0.0
H500 H 0.4223 0.72685 0.37281 0.0
H501 H 0.42713 0.78143 0.09077 0.0
H502 H 0.40421 0.77932 0.15994 0.0
H503 H 0.43992 0.73134 0.22769 0.0
H504 H 0.46328 0.73385 0.15881 0.0
H505 H 0.42423 0.75478 0.29798 0.0
H506 H 0.39981 0.72004 0.15669 0.0
H507 H 0.3912 0.71593 0.06809 0.0
H508 H 0.34708 0.7628 0.07386 0.0
H509 H 0.35565 0.76741 0.16248 0.0
C510 C 0.34347 0.72077 0.40654 0.0
C511 C 0.326 0.73271 0.40567 0.0
C512 C 0.35907 0.72514 0.3744 0.0
C513 C 0.35756 0.74156 0.34078 0.0
C514 C 0.34021 0.75359 0.33988 0.0
C515 C 0.32462 0.74929 0.37224 0.0
C516 C 0.3738 0.74571 0.30535 0.0
C517 C 0.36911 0.74492 0.25445 0.0
C518 C 0.39394 0.74911 0.32135 0.0
C519 C 0.3997 0.75022 0.37476 0.0
C520 C 0.39005 0.76379 0.40531 0.0
C521 C 0.39508 0.76429 0.45593 0.0
C522 C 0.40985 0.75138 0.4764 0.0
C523 C 0.41968 0.73802 0.44623 0.0
C524 C 0.4147 0.73745 0.39558 0.0
C525 C 0.43029 0.77073 0.12097 0.0
C526 C 0.4468 0.75765 0.11938 0.0
C527 C 0.41719 0.76949 0.16038 0.0
C528 C 0.42009 0.75486 0.19841 0.0
C529 C 0.43735 0.74269 0.19864 0.0
C530 C 0.45066 0.74411 0.15937 0.0
C531 C 0.40412 0.75109 0.23491 0.0
C532 C 0.40887 0.75176 0.28587 0.0
C533 C 0.38404 0.74714 0.21911 0.0
C534 C 0.37849 0.74418 0.16612 0.0
C535 C 0.38834 0.72955 0.13902 0.0
C536 C 0.38347 0.72713 0.08882 0.0
C537 C 0.36862 0.73911 0.06539 0.0
C538 C 0.35858 0.75353 0.09212 0.0
C539 C 0.36343 0.75604 0.14235 0.0
H540 H 0.36486 0.73716 0.02657 0.0
H541 H 0.41368 0.75176 0.51561 0.0
H542 H 0.74044 0.82573 0.86443 0.0
H543 H 0.73047 0.8529 0.80605 0.0
H544 H 0.77522 0.89164 0.87205 0.0
H545 H 0.78458 0.86476 0.93213 0.0
H546 H 0.74297 0.91312 0.84353 0.0
H547 H 0.78451 0.86394 0.76969 0.0
H548 H 0.79339 0.82926 0.74939 0.0
H549 H 0.73914 0.82444 0.66046 0.0
H550 H 0.72955 0.85889 0.68179 0.0
H551 H 0.75671 0.97632 0.62524 0.0
H552 H 0.75996 0.95435 0.69951 0.0
H553 H 0.71352 0.91574 0.64057 0.0
H554 H 0.71021 0.93759 0.56654 0.0
H555 H 0.74673 0.89491 0.66695 0.0
H556 H 0.70556 0.94475 0.74068 0.0
H557 H 0.6964 0.97896 0.76477 0.0
H558 H 0.75109 0.98304 0.85226 0.0
H559 H 0.76071 0.94894 0.82813 0.0
C560 C 0.74799 0.84011 0.86682 0.0
C561 C 0.76351 0.84304 0.90225 0.0
C562 C 0.74229 0.85564 0.83347 0.0
C563 C 0.75245 0.87416 0.83382 0.0
C564 C 0.76723 0.87746 0.87088 0.0
C565 C 0.77264 0.86206 0.90503 0.0
C566 C 0.74881 0.88938 0.79316 0.0
C567 C 0.74398 0.90921 0.80491 0.0
C568 C 0.74998 0.88426 0.7427 0.0
C569 C 0.75622 0.86393 0.72774 0.0
C570 C 0.77443 0.85547 0.74595 0.0
C571 C 0.77956 0.83582 0.73437 0.0
C572 C 0.76682 0.82463 0.70366 0.0
C573 C 0.74897 0.83311 0.68433 0.0
C574 C 0.74365 0.85268 0.69625 0.0
C575 C 0.74687 0.96341 0.62874 0.0
C576 C 0.73333 0.95857 0.58991 0.0
C577 C 0.74875 0.95085 0.67114 0.0
C578 C 0.737 0.93336 0.67554 0.0
C579 C 0.72283 0.92907 0.63782 0.0
C580 C 0.72098 0.94155 0.59554 0.0
C581 C 0.74055 0.91861 0.71718 0.0
C582 C 0.7456 0.89885 0.70553 0.0
C583 C 0.73974 0.92389 0.76755 0.0
C584 C 0.73395 0.94436 0.78219 0.0
C585 C 0.71571 0.953 0.76472 0.0
C586 C 0.71042 0.97236 0.77845 0.0
C587 C 0.72318 0.98318 0.80992 0.0
C588 C 0.74123 0.97465 0.82783 0.0
C589 C 0.7466 0.9553 0.81418 0.0
H590 H 0.71905 0.99817 0.82051 0.0
H591 H 0.77079 0.80941 0.69478 0.0
H592 H 0.83307 0.8153 0.88281 0.0
H593 H 0.85965 0.80855 0.82498 0.0
H594 H 0.84592 0.74522 0.83373 0.0
H595 H 0.8189 0.7519 0.8913 0.0
H596 H 0.88842 0.75533 0.84406 0.0
H597 H 0.83162 0.76782 0.7342 0.0
H598 H 0.80253 0.7855 0.69479 0.0
H599 H 0.83986 0.83635 0.66016 0.0
H600 H 0.86914 0.81907 0.6999 0.0
H601 H 0.94531 0.72941 0.63166 0.0
H602 H 0.92149 0.73326 0.69862 0.0
H603 H 0.92341 0.79772 0.67604 0.0
H604 H 0.94678 0.79373 0.6084 0.0
H605 H 0.88632 0.7852 0.67357 0.0
H606 H 0.94319 0.7735 0.783 0.0
H607 H 0.97304 0.75551 0.8174 0.0
H608 H 0.93663 0.70402 0.85236 0.0
H609 H 0.90658 0.7216 0.81752 0.0
C610 C 0.83567 0.79991 0.87252 0.0
C611 C 0.82386 0.78412 0.89163 0.0
C612 C 0.85083 0.7961 0.83932 0.0
C613 C 0.85469 0.77641 0.82497 0.0
C614 C 0.84314 0.76053 0.84436 0.0
C615 C 0.82768 0.76438 0.87704 0.0
C616 C 0.87091 0.77263 0.78983 0.0
C617 C 0.88789 0.76159 0.80649 0.0
C618 C 0.8704 0.78127 0.74137 0.0
C619 C 0.85254 0.7922 0.72042 0.0
C620 C 0.83357 0.78289 0.71889 0.0
C621 C 0.81706 0.7928 0.69624 0.0
C622 C 0.81938 0.812 0.6748 0.0
C623 C 0.83812 0.82145 0.67663 0.0
C624 C 0.85466 0.81161 0.69921 0.0
C625 C 0.94102 0.74437 0.64217 0.0
C626 C 0.94791 0.76131 0.61561 0.0
C627 C 0.92744 0.74659 0.68035 0.0
C628 C 0.92068 0.7658 0.69258 0.0
C629 C 0.92838 0.78276 0.66731 0.0
C630 C 0.9418 0.78052 0.62899 0.0
C631 C 0.90413 0.76821 0.72786 0.0
C632 C 0.88699 0.77896 0.71116 0.0
C633 C 0.90462 0.75943 0.7763 0.0
C634 C 0.92266 0.74879 0.79715 0.0
C635 C 0.94157 0.75827 0.7976 0.0
C636 C 0.95852 0.74816 0.81727 0.0
C637 C 0.95674 0.72861 0.83692 0.0
C638 C 0.93799 0.71915 0.83705 0.0
C639 C 0.92099 0.72919 0.81738 0.0
H640 H 0.96989 0.72081 0.85216 0.0
H641 H 0.80668 0.81954 0.65665 0.0
H642 H 0.75395 0.32645 0.35092 0.0
H643 H 0.7623 0.35497 0.29627 0.0
H644 H 0.72897 0.39461 0.38735 0.0
H645 H 0.72061 0.36616 0.44257 0.0
H646 H 0.71941 0.39872 0.2851 0.0
H647 H 0.77782 0.39781 0.39282 0.0
H648 H 0.80665 0.382 0.4381 0.0
H649 H 0.83199 0.36563 0.30032 0.0
H650 H 0.80315 0.38107 0.2542 0.0
H651 H 0.74747 0.48094 0.12942 0.0
H652 H 0.7434 0.46088 0.20597 0.0
H653 H 0.78293 0.41558 0.15165 0.0
H654 H 0.78796 0.43599 0.07681 0.0
H655 H 0.78932 0.41815 0.24606 0.0
H656 H 0.73 0.41299 0.13958 0.0
H657 H 0.70064 0.42596 0.09083 0.0
H658 H 0.67672 0.4509 0.22188 0.0
H659 H 0.70609 0.43829 0.2713 0.0
C660 C 0.74846 0.34124 0.35952 0.0
C661 C 0.73656 0.34401 0.40103 0.0
C662 C 0.75333 0.35754 0.32838 0.0
C663 C 0.74635 0.37691 0.33798 0.0
C664 C 0.73453 0.37978 0.37943 0.0
C665 C 0.72983 0.36351 0.41097 0.0
C666 C 0.75076 0.39392 0.30335 0.0
C667 C 0.73467 0.40331 0.27728 0.0
C668 C 0.77069 0.39952 0.29247 0.0
C669 C 0.78824 0.3905 0.32006 0.0
C670 C 0.78947 0.39073 0.37217 0.0
C671 C 0.80583 0.38184 0.39799 0.0
C672 C 0.82113 0.37278 0.37211 0.0
C673 C 0.82013 0.37265 0.32033 0.0
C674 C 0.80379 0.38149 0.29432 0.0
C675 C 0.75566 0.46693 0.13433 0.0
C676 C 0.76776 0.45991 0.09655 0.0
C677 C 0.75315 0.45536 0.17789 0.0
C678 C 0.76248 0.43646 0.18415 0.0
C679 C 0.77544 0.43001 0.14768 0.0
C680 C 0.77812 0.44162 0.10455 0.0
C681 C 0.75796 0.42272 0.22684 0.0
C682 C 0.77403 0.41388 0.25446 0.0
C683 C 0.73799 0.41735 0.2386 0.0
C684 C 0.72034 0.42493 0.20898 0.0
C685 C 0.71854 0.42138 0.15791 0.0
C686 C 0.7019 0.42864 0.13018 0.0
C687 C 0.68686 0.43931 0.15321 0.0
C688 C 0.6884 0.44268 0.20407 0.0
C689 C 0.70504 0.43548 0.23196 0.0
H690 H 0.67397 0.44491 0.13169 0.0
H691 H 0.83376 0.36589 0.39217 0.0
H692 H 0.15756 0.21036 0.92291 0.0
H693 H 0.13007 0.21817 0.86385 0.0
H694 H 0.16395 0.26804 0.80392 0.0
H695 H 0.19148 0.26056 0.8637 0.0
H696 H 0.12484 0.27778 0.81071 0.0
H697 H 0.1623 0.22314 0.74621 0.0
H698 H 0.1783 0.18969 0.74865 0.0
H699 H 0.121 0.1618 0.77201 0.0
H700 H 0.1047 0.19513 0.77043 0.0
H701 H 0.0808 0.28747 0.56871 0.0
H702 H 0.10233 0.28266 0.64293 0.0
H703 H 0.0629 0.23581 0.69606 0.0
H704 H 0.04129 0.2405 0.62125 0.0
H705 H 0.10254 0.22416 0.69732 0.0
H706 H 0.06483 0.27966 0.75401 0.0
H707 H 0.04959 0.31344 0.74911 0.0
H708 H 0.10809 0.34012 0.73732 0.0
H709 H 0.12368 0.30647 0.74142 0.0
C710 C 0.15918 0.22306 0.89734 0.0
C711 C 0.17686 0.23469 0.89765 0.0
C712 C 0.14343 0.22748 0.86352 0.0
C713 C 0.14509 0.24347 0.82886 0.0
C714 C 0.16238 0.25558 0.83022 0.0
C715 C 0.17813 0.25124 0.86431 0.0
C716 C 0.1291 0.24707 0.79011 0.0
C717 C 0.12008 0.26612 0.78561 0.0
C718 C 0.12257 0.23171 0.75807 0.0
C719 C 0.13232 0.21164 0.75874 0.0
C720 C 0.15314 0.20988 0.75225 0.0
C721 C 0.16225 0.19094 0.75342 0.0
C722 C 0.15068 0.17363 0.76062 0.0
C723 C 0.12995 0.17523 0.76652 0.0
C724 C 0.12076 0.19413 0.76546 0.0
C725 C 0.0766 0.2763 0.5965 0.0
C726 C 0.05943 0.26429 0.5892 0.0
C727 C 0.08884 0.27365 0.63901 0.0
C728 C 0.08417 0.25895 0.67516 0.0
C729 C 0.06673 0.24728 0.66865 0.0
C730 C 0.05435 0.25004 0.62616 0.0
C731 C 0.09834 0.25491 0.71772 0.0
C732 C 0.1071 0.23576 0.7228 0.0
C733 C 0.10473 0.27023 0.74994 0.0
C734 C 0.09541 0.29051 0.74764 0.0
C735 C 0.07444 0.29272 0.74997 0.0
C736 C 0.06574 0.31185 0.74741 0.0
C737 C 0.07786 0.32892 0.7428 0.0
C738 C 0.09872 0.32689 0.74086 0.0
C739 C 0.1075 0.30779 0.74337 0.0
H740 H 0.07109 0.34371 0.74082 0.0
H741 H 0.15777 0.15898 0.76151 0.0
H742 H 0.28217 0.64944 0.45624 0.0
H743 H 0.27345 0.62211 0.40082 0.0
H744 H 0.24007 0.66363 0.30458 0.0
H745 H 0.24884 0.69116 0.35961 0.0
H746 H 0.22021 0.62606 0.32291 0.0
H747 H 0.28483 0.65181 0.27296 0.0
H748 H 0.32029 0.66135 0.28732 0.0
H749 H 0.33444 0.60078 0.33515 0.0
H750 H 0.29897 0.59095 0.32177 0.0
H751 H 0.21353 0.57881 0.09299 0.0
H752 H 0.2182 0.60021 0.16409 0.0
H753 H 0.25967 0.55707 0.23178 0.0
H754 H 0.25585 0.536 0.15912 0.0
H755 H 0.27526 0.59278 0.23589 0.0
H756 H 0.21181 0.56568 0.27871 0.0
H757 H 0.17642 0.55559 0.26624 0.0
H758 H 0.15978 0.6171 0.23528 0.0
H759 H 0.19514 0.62754 0.24687 0.0
C760 C 0.27286 0.65277 0.42347 0.0
C761 C 0.26633 0.67254 0.41213 0.0
C762 C 0.26792 0.63713 0.39184 0.0
C763 C 0.25623 0.6409 0.34852 0.0
C764 C 0.24912 0.66044 0.33789 0.0
C765 C 0.25423 0.67615 0.36922 0.0
C766 C 0.25214 0.62465 0.31313 0.0
C767 C 0.23218 0.61884 0.30352 0.0
C768 C 0.26786 0.61484 0.28921 0.0
C769 C 0.28921 0.62071 0.29692 0.0
C770 C 0.29547 0.64057 0.28696 0.0
C771 C 0.31558 0.64602 0.29484 0.0
C772 C 0.3296 0.63169 0.31228 0.0
C773 C 0.32355 0.61187 0.32173 0.0
C774 C 0.30345 0.60635 0.31399 0.0
C775 C 0.2236 0.57381 0.12306 0.0
C776 C 0.23447 0.55577 0.12009 0.0
C777 C 0.22606 0.58596 0.1641 0.0
C778 C 0.23915 0.58022 0.20368 0.0
C779 C 0.24946 0.56183 0.20175 0.0
C780 C 0.24712 0.54969 0.16039 0.0
C781 C 0.2432 0.5942 0.24489 0.0
C782 C 0.2632 0.59969 0.25564 0.0
C783 C 0.22749 0.60356 0.27017 0.0
C784 C 0.20617 0.59737 0.26333 0.0
C785 C 0.20064 0.57704 0.2689 0.0
C786 C 0.18057 0.57126 0.26204 0.0
C787 C 0.16587 0.58569 0.24989 0.0
C788 C 0.17119 0.60594 0.24468 0.0
C789 C 0.19124 0.6118 0.25146 0.0
H790 H 0.15034 0.58118 0.24459 0.0
H791 H 0.34516 0.63594 0.31836 0.0
H792 H 0.34862 0.74148 0.57332 0.0
H793 H 0.37615 0.74871 0.63258 0.0
H794 H 0.34112 0.72349 0.75154 0.0
H795 H 0.31328 0.71769 0.69313 0.0
H796 H 0.35747 0.75444 0.78312 0.0
H797 H 0.38342 0.69863 0.69105 0.0
H798 H 0.39319 0.6821 0.6146 0.0
H799 H 0.43561 0.72929 0.58502 0.0
H800 H 0.42594 0.74619 0.66108 0.0
H801 H 0.42737 0.72636 0.96907 0.0
H802 H 0.40556 0.72361 0.89542 0.0
H803 H 0.4419 0.76707 0.81742 0.0
H804 H 0.46366 0.77039 0.89183 0.0
H805 H 0.42756 0.73198 0.75973 0.0
H806 H 0.40365 0.78446 0.86209 0.0
H807 H 0.39371 0.79876 0.94106 0.0
H808 H 0.34627 0.75527 0.95297 0.0
H809 H 0.35633 0.74028 0.87489 0.0
C810 C 0.3469 0.73756 0.61221 0.0
C811 C 0.32887 0.7291 0.62881 0.0
C812 C 0.36267 0.74155 0.64603 0.0
C813 C 0.36093 0.7364 0.69669 0.0
C814 C 0.3429 0.72776 0.71287 0.0
C815 C 0.32697 0.72438 0.67945 0.0
C816 C 0.37754 0.74013 0.73356 0.0
C817 C 0.37272 0.74932 0.77796 0.0
C818 C 0.39771 0.73414 0.72651 0.0
C819 C 0.40382 0.72376 0.68144 0.0
C820 C 0.39478 0.7055 0.66813 0.0
C821 C 0.4003 0.69607 0.62488 0.0
C822 C 0.41496 0.70468 0.59489 0.0
C823 C 0.42423 0.72266 0.60824 0.0
C824 C 0.41876 0.73216 0.65143 0.0
C825 C 0.4308 0.73534 0.9363 0.0
C826 C 0.44704 0.74889 0.93666 0.0
C827 C 0.4184 0.73363 0.89413 0.0
C828 C 0.42201 0.74531 0.85129 0.0
C829 C 0.4389 0.75794 0.85024 0.0
C830 C 0.45131 0.75978 0.89272 0.0
C831 C 0.40708 0.74538 0.80954 0.0
C832 C 0.41228 0.73714 0.76437 0.0
C833 C 0.38714 0.75191 0.81607 0.0
C834 C 0.38089 0.76112 0.86278 0.0
C835 C 0.39124 0.7778 0.88179 0.0
C836 C 0.38558 0.78602 0.92644 0.0
C837 C 0.36943 0.77787 0.95215 0.0
C838 C 0.35884 0.76152 0.93314 0.0
C839 C 0.36453 0.75314 0.88872 0.0
H840 H 0.36507 0.78425 0.98672 0.0
H841 H 0.41918 0.69739 0.56135 0.0
H842 H 0.74076 0.82413 0.14974 0.0
H843 H 0.73272 0.85116 0.20566 0.0
H844 H 0.78392 0.88496 0.15512 0.0
H845 H 0.79224 0.85799 0.09995 0.0
H846 H 0.78287 0.88487 0.25285 0.0
H847 H 0.73544 0.89798 0.11879 0.0
H848 H 0.7083 0.88969 0.05868 0.0
H849 H 0.66891 0.87567 0.17812 0.0
H850 H 0.69592 0.88361 0.239 0.0
H851 H 0.76022 0.97457 0.37435 0.0
H852 H 0.76494 0.95185 0.30554 0.0
H853 H 0.71635 0.91461 0.35742 0.0
H854 H 0.71137 0.93739 0.42558 0.0
H855 H 0.716 0.91767 0.25618 0.0
H856 H 0.76381 0.90271 0.38952 0.0
H857 H 0.79094 0.91049 0.45012 0.0
H858 H 0.82964 0.92763 0.3315 0.0
H859 H 0.80261 0.92023 0.27018 0.0
C860 C 0.75026 0.83735 0.15038 0.0
C861 C 0.76718 0.83883 0.12041 0.0
C862 C 0.74559 0.85285 0.18221 0.0
C863 C 0.75762 0.8702 0.18431 0.0
C864 C 0.77442 0.87173 0.1542 0.0
C865 C 0.77914 0.85627 0.12258 0.0
C866 C 0.75318 0.88649 0.21901 0.0
C867 C 0.76835 0.89227 0.25294 0.0
C868 C 0.73409 0.89586 0.21998 0.0
C869 C 0.71777 0.89121 0.18346 0.0
C870 C 0.72104 0.89299 0.13225 0.0
C871 C 0.70567 0.88837 0.09803 0.0
C872 C 0.68691 0.88211 0.11457 0.0
C873 C 0.68346 0.8805 0.16536 0.0
C874 C 0.69879 0.88507 0.19974 0.0
C875 C 0.75026 0.96179 0.37036 0.0
C876 C 0.73556 0.95763 0.40559 0.0
C877 C 0.75306 0.94875 0.3313 0.0
C878 C 0.7412 0.93136 0.32683 0.0
C879 C 0.72573 0.92787 0.36024 0.0
C880 C 0.72298 0.94083 0.39932 0.0
C881 C 0.74573 0.91605 0.28969 0.0
C882 C 0.73057 0.91039 0.25559 0.0
C883 C 0.76483 0.90675 0.28851 0.0
C884 C 0.78111 0.91114 0.3253 0.0
C885 C 0.77805 0.9083 0.37638 0.0
C886 C 0.79342 0.91261 0.41085 0.0
C887 C 0.81199 0.9196 0.39468 0.0
C888 C 0.81524 0.92225 0.34398 0.0
C889 C 0.7999 0.91799 0.30935 0.0
H890 H 0.82387 0.92293 0.42142 0.0
H891 H 0.67503 0.87853 0.08802 0.0
H892 H 0.65403 0.29793 0.56863 0.0
H893 H 0.62679 0.29082 0.62553 0.0
H894 H 0.66727 0.25547 0.72014 0.0
H895 H 0.6947 0.26265 0.66373 0.0
H896 H 0.62861 0.23759 0.70376 0.0
H897 H 0.65831 0.30054 0.75256 0.0
H898 H 0.66985 0.33539 0.73809 0.0
H899 H 0.6099 0.3532 0.69325 0.0
H900 H 0.59806 0.31836 0.70672 0.0
H901 H 0.58268 0.23344 0.93533 0.0
H902 H 0.60441 0.23785 0.86476 0.0
H903 H 0.562 0.27979 0.796 0.0
H904 H 0.54045 0.27604 0.86795 0.0
H905 H 0.59902 0.29443 0.79208 0.0
H906 H 0.56843 0.23218 0.75051 0.0
H907 H 0.55678 0.19734 0.76425 0.0
H908 H 0.6176 0.178 0.79381 0.0
H909 H 0.6296 0.21279 0.78094 0.0
C910 C 0.65714 0.28851 0.60133 0.0
C911 C 0.6766 0.28097 0.61183 0.0
C912 C 0.64155 0.2845 0.63382 0.0
C913 C 0.64507 0.27274 0.67714 0.0
C914 C 0.66427 0.26459 0.68687 0.0
C915 C 0.67993 0.26879 0.65471 0.0
C916 C 0.62897 0.26958 0.7134 0.0
C917 C 0.62221 0.24996 0.72341 0.0
C918 C 0.62027 0.28583 0.73785 0.0
C919 C 0.62734 0.3068 0.73008 0.0
C920 C 0.64762 0.31185 0.73918 0.0
C921 C 0.65422 0.3316 0.73125 0.0
C922 C 0.64063 0.34648 0.71463 0.0
C923 C 0.62041 0.34165 0.70604 0.0
C924 C 0.61375 0.3219 0.71383 0.0
C925 C 0.57793 0.2436 0.90521 0.0
C926 C 0.55988 0.25451 0.90747 0.0
C927 C 0.59028 0.24594 0.86454 0.0
C928 C 0.58478 0.259 0.82472 0.0
C929 C 0.56654 0.26958 0.82623 0.0
C930 C 0.55415 0.26729 0.86715 0.0
C931 C 0.59869 0.26233 0.7831 0.0
C932 C 0.60514 0.28201 0.77207 0.0
C933 C 0.60703 0.24612 0.75756 0.0
C934 C 0.5999 0.22514 0.76508 0.0
C935 C 0.57931 0.22053 0.76028 0.0
C936 C 0.57265 0.20078 0.76786 0.0
C937 C 0.58644 0.18548 0.77998 0.0
C938 C 0.60693 0.18988 0.78443 0.0
C939 C 0.61368 0.20961 0.77693 0.0
H940 H 0.58125 0.1702 0.78585 0.0
H941 H 0.64576 0.36177 0.70851 0.0
H942 H 0.20678 0.16386 0.13337 0.0
H943 H 0.2146 0.13743 0.19532 0.0
H944 H 0.27729 0.15371 0.19367 0.0
H945 H 0.26954 0.1807 0.13192 0.0
H946 H 0.2649 0.10826 0.19023 0.0
H947 H 0.25884 0.1692 0.28284 0.0
H948 H 0.24198 0.20062 0.30454 0.0
H949 H 0.18951 0.16726 0.34587 0.0
H950 H 0.20595 0.13565 0.32361 0.0
H951 H 0.29107 0.0523 0.41458 0.0
H952 H 0.288 0.07605 0.34348 0.0
H953 H 0.2247 0.08278 0.37017 0.0
H954 H 0.22807 0.05974 0.44227 0.0
H955 H 0.24014 0.11767 0.35975 0.0
H956 H 0.24382 0.05741 0.26745 0.0
H957 H 0.25801 0.02523 0.24173 0.0
H958 H 0.31171 0.05551 0.19623 0.0
H959 H 0.29794 0.08786 0.22233 0.0
C960 C 0.22228 0.1618 0.14579 0.0
C961 C 0.23754 0.17447 0.12788 0.0
C962 C 0.2267 0.14667 0.18119 0.0
C963 C 0.24648 0.14368 0.19894 0.0
C964 C 0.26192 0.15582 0.18019 0.0
C965 C 0.25746 0.17126 0.14522 0.0
C966 C 0.25057 0.1285 0.23901 0.0
C967 C 0.25987 0.11036 0.22763 0.0
C968 C 0.24338 0.13113 0.28713 0.0
C969 C 0.23355 0.15009 0.30109 0.0
C970 C 0.24364 0.16858 0.29612 0.0
C971 C 0.23417 0.18643 0.30861 0.0
C972 C 0.21466 0.18595 0.32645 0.0
C973 C 0.20461 0.16761 0.33199 0.0
C974 C 0.214 0.14973 0.31948 0.0
C975 C 0.27647 0.05857 0.40432 0.0
C976 C 0.25975 0.05417 0.43321 0.0
C977 C 0.27469 0.0721 0.36377 0.0
C978 C 0.25607 0.08118 0.35115 0.0
C979 C 0.23922 0.07607 0.37916 0.0
C980 C 0.24108 0.06281 0.42003 0.0
C981 C 0.25432 0.09704 0.31125 0.0
C982 C 0.2454 0.11543 0.32261 0.0
C983 C 0.26159 0.09445 0.26295 0.0
C984 C 0.26994 0.07502 0.24739 0.0
C985 C 0.25873 0.05718 0.25238 0.0
C986 C 0.26668 0.03892 0.23765 0.0
C987 C 0.28578 0.03832 0.21751 0.0
C988 C 0.29694 0.056 0.21193 0.0
C989 C 0.28906 0.0743 0.22666 0.0
H990 H 0.29191 0.02416 0.2061 0.0
H991 H 0.20736 0.19978 0.33608 0.0
H992 H 0.21802 0.29084 0.08416 0.0
H993 H 0.21919 0.32756 0.08498 0.0
H994 H 0.2473 0.3289 0.94286 0.0
H995 H 0.24634 0.2922 0.94182 0.0
H996 H 0.26675 0.35276 0.00833 0.0
H997 H 0.1986 0.34235 0.95208 0.0
H998 H 0.16459 0.32775 0.95577 0.0
H999 H 0.15588 0.35534 0.09553 0.0
H1000 H 0.18997 0.36988 0.09302 0.0
H1001 H 0.26017 0.45719 0.95712 0.0
H1002 H 0.25471 0.42088 0.95167 0.0
H1003 H 0.22728 0.41998 0.09467 0.0
H1004 H 0.23268 0.45642 0.10003 0.0
H1005 H 0.20694 0.39595 0.02873 0.0
H1006 H 0.27489 0.40546 0.08676 0.0
H1007 H 0.3092 0.41944 0.08543 0.0
H1008 H 0.31844 0.39296 0.94454 0.0
H1009 H 0.28405 0.37906 0.9447 0.0
C1010 C 0.22438 0.29893 0.05294 0.0
C1011 C 0.23215 0.28853 0.01298 0.0
C1012 C 0.22494 0.31994 0.05337 0.0
C1013 C 0.23322 0.33099 0.01383 0.0
C1014 C 0.24084 0.32068 0.97376 0.0
C1015 C 0.24023 0.29968 0.97319 0.0
C1016 C 0.23459 0.35327 0.01502 0.0
C1017 C 0.25363 0.36222 0.01197 0.0
C1018 C 0.21753 0.36557 0.02125 0.0
C1019 C 0.19692 0.35705 0.02258 0.0
C1020 C 0.18949 0.34519 0.98378 0.0
C1021 C 0.17019 0.33694 0.98563 0.0
C1022 C 0.1581 0.34057 0.02593 0.0
C1023 C 0.16527 0.35252 0.06437 0.0
C1024 C 0.18458 0.36079 0.06273 0.0
C1025 C 0.25289 0.44924 0.98722 0.0
C1026 C 0.24707 0.45948 0.02932 0.0
C1027 C 0.2498 0.42852 0.98414 0.0
C1028 C 0.24084 0.41766 0.02309 0.0
C1029 C 0.23427 0.42803 0.06428 0.0
C1030 C 0.23741 0.44877 0.06742 0.0
C1031 C 0.23909 0.39541 0.0216 0.0
C1032 C 0.22003 0.38648 0.02481 0.0
C1033 C 0.25613 0.38307 0.01572 0.0
C1034 C 0.27682 0.39141 0.01549 0.0
C1035 C 0.28418 0.40277 0.05529 0.0
C1036 C 0.30365 0.41065 0.05478 0.0
C1037 C 0.31597 0.40714 0.01486 0.0
C1038 C 0.30886 0.3957 0.9754 0.0
C1039 C 0.28939 0.3878 0.97569 0.0
H1040 H 0.33105 0.41325 0.01455 0.0
H1041 H 0.14316 0.33417 0.0273 0.0
H1042 H 0.20815 0.71958 0.4387 0.0
H1043 H 0.17146 0.72257 0.43805 0.0
H1044 H 0.17465 0.74563 0.58589 0.0
H1045 H 0.21116 0.74244 0.58721 0.0
H1046 H 0.14451 0.71918 0.57682 0.0
H1047 H 0.16844 0.77697 0.48383 0.0
H1048 H 0.18694 0.79427 0.4172 0.0
H1049 H 0.15106 0.76398 0.30754 0.0
H1050 H 0.13251 0.7463 0.3736 0.0
H1051 H 0.05164 0.76998 0.59448 0.0
H1052 H 0.08698 0.76007 0.59092 0.0
H1053 H 0.07662 0.73954 0.44202 0.0
H1054 H 0.04125 0.74988 0.44531 0.0
H1055 H 0.10977 0.76175 0.44714 0.0
H1056 H 0.08374 0.70613 0.54102 0.0
H1057 H 0.06521 0.68928 0.60823 0.0
H1058 H 0.10488 0.71558 0.71669 0.0
H1059 H 0.12349 0.73283 0.65015 0.0
C1060 C 0.20104 0.72521 0.47116 0.0
C1061 C 0.21265 0.73091 0.51285 0.0
C1062 C 0.18006 0.72696 0.47066 0.0
C1063 C 0.17031 0.73455 0.51172 0.0
C1064 C 0.18183 0.73975 0.55378 0.0
C1065 C 0.20275 0.73799 0.55435 0.0
C1066 C 0.14817 0.73758 0.51077 0.0
C1067 C 0.13692 0.72861 0.54868 0.0
C1068 C 0.13818 0.74946 0.47337 0.0
C1069 C 0.14925 0.76015 0.43364 0.0
C1070 C 0.1646 0.77389 0.44551 0.0
C1071 C 0.17508 0.78378 0.40785 0.0
C1072 C 0.17022 0.78018 0.35817 0.0
C1073 C 0.15483 0.76673 0.34604 0.0
C1074 C 0.14433 0.75677 0.38357 0.0
C1075 C 0.05692 0.76325 0.56114 0.0
C1076 C 0.04384 0.7608 0.52 0.0
C1077 C 0.07707 0.75749 0.5592 0.0
C1078 C 0.08445 0.74888 0.51634 0.0
C1079 C 0.07128 0.74614 0.47546 0.0
C1080 C 0.05112 0.75198 0.47736 0.0
C1081 C 0.1061 0.74356 0.51358 0.0
C1082 C 0.11727 0.75212 0.47499 0.0
C1083 C 0.11602 0.73132 0.55043 0.0
C1084 C 0.10491 0.7209 0.59057 0.0
C1085 C 0.08843 0.70844 0.57921 0.0
C1086 C 0.07792 0.6988 0.61719 0.0
C1087 C 0.08384 0.70139 0.6667 0.0
C1088 C 0.1003 0.7136 0.67832 0.0
C1089 C 0.11085 0.72329 0.64048 0.0
H1090 H 0.07568 0.69391 0.69605 0.0
H1091 H 0.17834 0.78786 0.32906 0.0
H1092 H 0.79109 0.72287 0.08227 0.0
H1093 H 0.7941 0.68626 0.08001 0.0
H1094 H 0.76264 0.68669 0.93802 0.0
H1095 H 0.75987 0.72323 0.9395 0.0
H1096 H 0.76736 0.65656 0.07739 0.0
H1097 H 0.78136 0.65016 0.86713 0.0
H1098 H 0.79622 0.67038 0.79943 0.0
H1099 H 0.83373 0.70109 0.90502 0.0
H1100 H 0.81936 0.68083 0.97325 0.0
H1101 H 0.75548 0.55471 0.01127 0.0
H1102 H 0.75302 0.59132 0.01368 0.0
H1103 H 0.8164 0.59641 0.98611 0.0
H1104 H 0.81878 0.55978 0.98201 0.0
H1105 H 0.79741 0.62401 0.93376 0.0
H1106 H 0.79692 0.6016 0.10386 0.0
H1107 H 0.78524 0.58193 0.1763 0.0
H1108 H 0.72695 0.60933 0.15939 0.0
H1109 H 0.73822 0.62898 0.08641 0.0
C1110 C 0.78481 0.71519 0.05053 0.0
C1111 C 0.77531 0.72606 0.01096 0.0
C1112 C 0.78649 0.69423 0.04939 0.0
C1113 C 0.77878 0.68371 0.00863 0.0
C1114 C 0.769 0.69448 0.9695 0.0
C1115 C 0.76738 0.71541 0.9705 0.0
C1116 C 0.78109 0.66149 0.00677 0.0
C1117 C 0.77391 0.64944 0.04596 0.0
C1118 C 0.79 0.65218 0.96625 0.0
C1119 C 0.79911 0.6641 0.92533 0.0
C1120 C 0.79286 0.66115 0.87587 0.0
C1121 C 0.80119 0.67262 0.83741 0.0
C1122 C 0.81586 0.68705 0.84794 0.0
C1123 C 0.82232 0.68995 0.89693 0.0
C1124 C 0.81407 0.67848 0.93551 0.0
C1125 C 0.76886 0.5636 0.00513 0.0
C1126 C 0.78733 0.55435 0.99565 0.0
C1127 C 0.76746 0.58458 0.00695 0.0
C1128 C 0.78457 0.5967 1.00053 0.0
C1129 C 0.80296 0.58745 0.99097 0.0
C1130 C 0.80433 0.56653 0.9887 0.0
C1131 C 0.7834 0.61899 0.00408 0.0
C1132 C 0.7908 0.63109 0.96515 0.0
C1133 C 0.77516 0.62836 0.04545 0.0
C1134 C 0.76836 0.61661 0.08939 0.0
C1135 C 0.78157 0.60332 0.11538 0.0
C1136 C 0.77503 0.59219 0.15657 0.0
C1137 C 0.75535 0.59434 0.17236 0.0
C1138 C 0.74219 0.60766 0.14707 0.0
C1139 C 0.74864 0.61881 0.10582 0.0
H1140 H 0.75032 0.58571 0.20426 0.0
H1141 H 0.82225 0.69595 0.81812 0.0
H1142 H 0.79621 0.2659 0.56937 0.0
H1143 H 0.8329 0.26524 0.56766 0.0
H1144 H 0.83135 0.3064 0.44118 0.0
H1145 H 0.79464 0.30667 0.44177 0.0
H1146 H 0.85703 0.2775 0.42659 0.0
H1147 H 0.84473 0.3212 0.56157 0.0
H1148 H 0.83023 0.33062 0.64077 0.0
H1149 H 0.8612 0.28147 0.71574 0.0
H1150 H 0.87567 0.27158 0.63683 0.0
H1151 H 0.95918 0.30797 0.43103 0.0
H1152 H 0.92251 0.3062 0.43378 0.0
H1153 H 0.9273 0.26383 0.55756 0.0
H1154 H 0.96413 0.26598 0.5555 0.0
H1155 H 0.90009 0.29184 0.57448 0.0
H1156 H 0.91322 0.24887 0.43933 0.0
H1157 H 0.92761 0.23963 0.35988 0.0
H1158 H 0.89503 0.28775 0.28494 0.0
H1159 H 0.88065 0.29745 0.36408 0.0
C1160 C 0.80367 0.2749 0.54134 0.0
C1161 C 0.79246 0.28635 0.50572 0.0
C1162 C 0.82468 0.27456 0.5405 0.0
C1163 C 0.83497 0.28594 0.50462 0.0
C1164 C 0.8238 0.29745 0.46918 0.0
C1165 C 0.80279 0.29763 0.46966 0.0
C1166 C 0.85733 0.28562 0.50333 0.0
C1167 C 0.86643 0.28089 0.45879 0.0
C1168 C 0.86967 0.2895 0.54565 0.0
C1169 C 0.86113 0.29554 0.59321 0.0
C1170 C 0.84834 0.31232 0.59489 0.0
C1171 C 0.84015 0.31775 0.63973 0.0
C1172 C 0.84476 0.30662 0.68324 0.0
C1173 C 0.85763 0.29006 0.68201 0.0
C1174 C 0.86584 0.28455 0.63724 0.0
C1175 C 0.95239 0.2981 0.45843 0.0
C1176 C 0.96445 0.28684 0.49255 0.0
C1177 C 0.93143 0.29706 0.45992 0.0
C1178 C 0.92209 0.28464 0.4954 0.0
C1179 C 0.93414 0.27344 0.52969 0.0
C1180 C 0.95514 0.27455 0.52833 0.0
C1181 C 0.89977 0.28388 0.49762 0.0
C1182 C 0.89068 0.28839 0.54233 0.0
C1183 C 0.88743 0.27985 0.45542 0.0
C1184 C 0.896 0.27399 0.40773 0.0
C1185 C 0.90924 0.25757 0.40597 0.0
C1186 C 0.91737 0.25223 0.36098 0.0
C1187 C 0.91227 0.26312 0.31741 0.0
C1188 C 0.89899 0.27934 0.31873 0.0
C1189 C 0.89082 0.28475 0.36363 0.0
H1190 H 0.91859 0.25897 0.28262 0.0
H1191 H 0.83839 0.31084 0.71791 0.0
H1192 H 0.71766 0.22164 0.57671 0.0
H1193 H 0.71817 0.1849 0.57494 0.0
H1194 H 0.74816 0.18794 0.43529 0.0
H1195 H 0.74734 0.22459 0.43622 0.0
H1196 H 0.7199 0.15988 0.4332 0.0
H1197 H 0.77382 0.17765 0.54702 0.0
H1198 H 0.78875 0.19384 0.6205 0.0
H1199 H 0.74979 0.15962 0.71492 0.0
H1200 H 0.73445 0.14342 0.64189 0.0
H1201 H 0.76157 0.06203 0.42517 0.0
H1202 H 0.75552 0.09825 0.42826 0.0
H1203 H 0.72624 0.08959 0.56793 0.0
H1204 H 0.73272 0.05328 0.56528 0.0
H1205 H 0.75166 0.12018 0.57262 0.0
H1206 H 0.69927 0.10068 0.45888 0.0
H1207 H 0.68451 0.08448 0.38525 0.0
H1208 H 0.72052 0.12181 0.29049 0.0
H1209 H 0.73571 0.13805 0.36361 0.0
C1210 C 0.72434 0.2145 0.54556 0.0
C1211 C 0.73259 0.22612 0.50678 0.0
C1212 C 0.72468 0.19347 0.54468 0.0
C1213 C 0.73346 0.1836 0.5053 0.0
C1214 C 0.74133 0.19517 0.46611 0.0
C1215 C 0.7409 0.21617 0.46681 0.0
C1216 C 0.73475 0.16126 0.50498 0.0
C1217 C 0.72702 0.15122 0.46348 0.0
C1218 C 0.74355 0.14985 0.54502 0.0
C1219 C 0.75285 0.15949 0.58896 0.0
C1220 C 0.76834 0.17369 0.58342 0.0
C1221 C 0.77689 0.18285 0.62499 0.0
C1222 C 0.77019 0.1778 0.67234 0.0
C1223 C 0.75495 0.16354 0.67822 0.0
C1224 C 0.74633 0.15435 0.63676 0.0
C1225 C 0.75372 0.06786 0.45633 0.0
C1226 C 0.74756 0.05491 0.495 0.0
C1227 C 0.75018 0.08855 0.45798 0.0
C1228 C 0.7402 0.09668 0.49806 0.0
C1229 C 0.73393 0.0837 0.53659 0.0
C1230 C 0.73755 0.063 0.53501 0.0
C1231 C 0.73702 0.11879 0.50056 0.0
C1232 C 0.74439 0.1288 0.54247 0.0
C1233 C 0.7279 0.13016 0.46086 0.0
C1234 C 0.71875 0.12047 0.41678 0.0
C1235 C 0.70415 0.10533 0.42237 0.0
C1236 C 0.69569 0.09616 0.38071 0.0
C1237 C 0.70161 0.10208 0.33323 0.0
C1238 C 0.71596 0.11722 0.3273 0.0
C1239 C 0.72449 0.12644 0.36883 0.0
H1240 H 0.69504 0.09496 0.30103 0.0
H1241 H 0.77682 0.18491 0.70447 0.0
H1242 H 0.29434 0.21352 0.93879 0.0
H1243 H 0.33095 0.21626 0.93557 0.0
H1244 H 0.33192 0.24985 0.07011 0.0
H1245 H 0.2955 0.2467 0.07434 0.0
H1246 H 0.3544 0.24705 0.92451 0.0
H1247 H 0.37505 0.24273 0.13559 0.0
H1248 H 0.3629 0.22594 0.2117 0.0
H1249 H 0.33626 0.17916 0.12519 0.0
H1250 H 0.3485 0.1955 0.04866 0.0
H1251 H 0.45046 0.28906 0.96824 0.0
H1252 H 0.41481 0.28008 0.96906 0.0
H1253 H 0.4305 0.21988 0.01971 0.0
H1254 H 0.46609 0.22906 0.02086 0.0
H1255 H 0.40032 0.23162 0.06854 0.0
H1256 H 0.41438 0.23128 0.89653 0.0
H1257 H 0.42694 0.24442 0.81687 0.0
H1258 H 0.38513 0.29351 0.81874 0.0
H1259 H 0.3725 0.28081 0.89878 0.0
C1260 C 0.30237 0.22134 0.96794 0.0
C1261 C 0.29195 0.22985 0.00689 0.0
C1262 C 0.32331 0.22295 0.96597 0.0
C1263 C 0.33429 0.2331 0.00283 0.0
C1264 C 0.3239 0.24158 0.04175 0.0
C1265 C 0.30301 0.23983 0.044 0.0
C1266 C 0.35649 0.23546 0.99981 0.0
C1267 C 0.36444 0.2436 0.95597 0.0
C1268 C 0.36973 0.23056 0.0404 0.0
C1269 C 0.36256 0.22045 0.08635 0.0
C1270 C 0.36669 0.22881 0.13283 0.0
C1271 C 0.35977 0.21938 0.17605 0.0
C1272 C 0.34876 0.20153 0.17327 0.0
C1273 C 0.34473 0.19303 0.12728 0.0
C1274 C 0.35164 0.20238 0.08397 0.0
C1275 C 0.44627 0.27385 0.97902 0.0
C1276 C 0.46111 0.25963 0.99299 0.0
C1277 C 0.4259 0.2687 0.97934 0.0
C1278 C 0.4199 0.24914 0.99334 0.0
C1279 C 0.4347 0.23501 0.0083 0.0
C1280 C 0.45509 0.24023 0.00852 0.0
C1281 C 0.39818 0.24364 0.9936 0.0
C1282 C 0.39031 0.23494 0.03696 0.0
C1283 C 0.38509 0.24751 0.95208 0.0
C1284 C 0.3926 0.25517 0.90386 0.0
C1285 C 0.40796 0.24495 0.88012 0.0
C1286 C 0.41508 0.25231 0.83487 0.0
C1287 C 0.40687 0.26981 0.81281 0.0
C1288 C 0.39149 0.27996 0.8359 0.0
C1289 C 0.38432 0.27268 0.88118 0.0
H1290 H 0.4124 0.27548 0.77778 0.0
H1291 H 0.3434 0.19427 0.20676 0.0
H1292 H 0.28737 0.78962 0.59512 0.0
H1293 H 0.28863 0.8263 0.59543 0.0
H1294 H 0.2648 0.82914 0.4451 0.0
H1295 H 0.26365 0.7924 0.4442 0.0
H1296 H 0.29564 0.85523 0.45782 0.0
H1297 H 0.23484 0.83884 0.54073 0.0
H1298 H 0.21403 0.8215 0.60284 0.0
H1299 H 0.2488 0.84821 0.72024 0.0
H1300 H 0.27002 0.86549 0.65881 0.0
H1301 H 0.27344 0.95978 0.45312 0.0
H1302 H 0.27001 0.92309 0.45027 0.0
H1303 H 0.2919 0.91764 0.60214 0.0
H1304 H 0.29491 0.95432 0.60523 0.0
H1305 H 0.26105 0.89283 0.58686 0.0
H1306 H 0.32248 0.90834 0.50412 0.0
H1307 H 0.34353 0.92544 0.44212 0.0
H1308 H 0.30769 0.90022 0.32449 0.0
H1309 H 0.28625 0.88317 0.38584 0.0
C1310 C 0.2824 0.798 0.56204 0.0
C1311 C 0.27528 0.78801 0.51972 0.0
C1312 C 0.28305 0.819 0.56238 0.0
C1313 C 0.27655 0.83049 0.52052 0.0
C1314 C 0.26983 0.82059 0.47788 0.0
C1315 C 0.26914 0.79957 0.4775 0.0
C1316 C 0.2768 0.85283 0.52128 0.0
C1317 C 0.28783 0.86347 0.48559 0.0
C1318 C 0.26695 0.86358 0.55811 0.0
C1319 C 0.25413 0.85331 0.59516 0.0
C1320 C 0.23814 0.8409 0.5798 0.0
C1321 C 0.22626 0.8311 0.61488 0.0
C1322 C 0.23012 0.83372 0.66546 0.0
C1323 C 0.24584 0.84618 0.68105 0.0
C1324 C 0.25779 0.856 0.64611 0.0
C1325 C 0.27746 0.95068 0.48581 0.0
C1326 C 0.28469 0.95977 0.52913 0.0
C1327 C 0.27558 0.92975 0.48415 0.0
C1328 C 0.28103 0.91755 0.52574 0.0
C1329 C 0.2877 0.92671 0.56953 0.0
C1330 C 0.28949 0.94764 0.57123 0.0
C1331 C 0.28 0.89524 0.52356 0.0
C1332 C 0.26882 0.8846 0.55899 0.0
C1333 C 0.28973 0.88449 0.4865 0.0
C1334 C 0.30265 0.89465 0.44957 0.0
C1335 C 0.319 0.90656 0.46503 0.0
C1336 C 0.33102 0.91623 0.43001 0.0
C1337 C 0.32692 0.91396 0.3794 0.0
C1338 C 0.31083 0.90198 0.3637 0.0
C1339 C 0.29875 0.89231 0.39858 0.0
H1340 H 0.33624 0.92146 0.35234 0.0
H1341 H 0.2209 0.82612 0.69257 0.0
H1342 H 0.71129 0.76923 0.08139 0.0
H1343 H 0.67465 0.76774 0.0828 0.0
H1344 H 0.67081 0.79648 0.9376 0.0
H1345 H 0.70751 0.79824 0.936 0.0
H1346 H 0.64426 0.81248 0.99958 0.0
H1347 H 0.66295 0.74644 0.95159 0.0
H1348 H 0.68134 0.71428 0.95874 0.0
H1349 H 0.65478 0.70136 0.09926 0.0
H1350 H 0.63645 0.7336 0.09329 0.0
H1351 H 0.54134 0.7923 0.94868 0.0
H1352 H 0.57806 0.79212 0.9443 0.0
H1353 H 0.58251 0.76463 0.09089 0.0
H1354 H 0.54567 0.76474 0.09523 0.0
H1355 H 0.60872 0.7477 0.02723 0.0
H1356 H 0.59063 0.81397 0.0759 0.0
H1357 H 0.57242 0.84624 0.06915 0.0
H1358 H 0.59804 0.8587 0.9273 0.0
H1359 H 0.6162 0.82635 0.9329 0.0
C1360 C 0.7027 0.77526 0.0497 0.0
C1361 C 0.71239 0.78375 0.00843 0.0
C1362 C 0.68173 0.77431 0.0505 0.0
C1363 C 0.66999 0.78175 0.01002 0.0
C1364 C 0.67958 0.79057 0.96916 0.0
C1365 C 0.70057 0.79151 0.96827 0.0
C1366 C 0.6477 0.78047 0.01056 0.0
C1367 C 0.63648 0.79828 0.00487 0.0
C1368 C 0.63756 0.76199 0.01863 0.0
C1369 C 0.64847 0.74253 0.02221 0.0
C1370 C 0.66115 0.73682 0.9842 0.0
C1371 C 0.67155 0.71856 0.98801 0.0
C1372 C 0.66927 0.70581 0.02949 0.0
C1373 C 0.65655 0.71127 0.06718 0.0
C1374 C 0.64614 0.72952 0.06359 0.0
C1375 C 0.55017 0.78611 0.9798 0.0
C1376 C 0.54075 0.77861 0.02243 0.0
C1377 C 0.57113 0.78607 0.97734 0.0
C1378 C 0.58304 0.7786 0.01753 0.0
C1379 C 0.57361 0.77051 0.05952 0.0
C1380 C 0.55264 0.77059 0.06203 0.0
C1381 C 0.60532 0.77971 0.01618 0.0
C1382 C 0.61652 0.76188 0.02179 0.0
C1383 C 0.61546 0.79817 0.00802 0.0
C1384 C 0.6046 0.81765 0.00459 0.0
C1385 C 0.59225 0.82352 0.04308 0.0
C1386 C 0.58196 0.84184 0.0395 0.0
C1387 C 0.58403 0.85449 0.99776 0.0
C1388 C 0.59643 0.84887 0.95958 0.0
C1389 C 0.60673 0.83055 0.96295 0.0
H1390 H 0.57606 0.86867 0.99506 0.0
H1391 H 0.67734 0.69169 0.03237 0.0
loop_
_geom_bond_atom_site_label_1
_geom_bond_atom_site_label_2
_geom_bond_distance
_geom_bond_site_symmetry_2
_ccdc_geom_bond_type
Fe0 O2 1.918 . S
Fe0 O5 1.997 . S
Fe0 O6 2.002 . S
Fe0 O11 1.976 . S
Fe0 O14 1.996 . S
Fe1 O2 1.918 1_556 S
Fe1 O9 1.997 . S
Fe1 O12 1.996 . S
Fe1 O16 1.976 . S
Fe1 O19 2.002 . S
O2 Fe0 1.918 . S
O2 Fe1 1.918 1_554 S
O2 Fe3 1.918 . S
Fe3 O2 1.918 . S
Fe3 O4 2.002 . S
Fe3 O13 1.976 . S
Fe3 O17 1.996 1_554 S
Fe3 O20 1.997 1_554 S
O4 Fe3 2.002 . S
O4 C21 1.295 . S
O5 Fe0 1.997 . S
O5 C21 1.235 . S
O6 Fe0 2.002 . S
O6 C7 1.295 . S
C7 O6 1.295 . S
C7 O9 1.235 1_554 S
C8 O13 1.287 . S
C8 O14 1.255 . S
O9 Fe1 1.997 . S
O9 C7 1.235 1_556 S
C10 O16 1.287 . S
C10 O17 1.255 . S
O11 Fe0 1.976 . S
O11 C18 1.287 . S
O12 Fe1 1.996 . S
O12 C18 1.255 1_556 S
O13 Fe3 1.976 . S
O13 C8 1.287 . S
O14 Fe0 1.996 . S
O14 C8 1.255 . S
C15 O19 1.295 . S
C15 O20 1.235 . S
O16 Fe1 1.976 . S
O16 C10 1.287 . S
O17 Fe3 1.996 1_556 S
O17 C10 1.255 . S
C18 O11 1.287 . S
C18 O12 1.255 1_554 S
O19 Fe1 2.002 . S
O19 C15 1.295 . S
O20 Fe3 1.997 1_556 S
O20 C15 1.235 . S
C21 O4 1.295 . S
C21 O5 1.235 . S
Fe22 O24 1.918 . S
Fe22 O27 1.997 . S
Fe22 O28 2.002 . S
Fe22 O33 1.976 . S
Fe22 O36 1.996 . S
Fe23 O24 1.918 . S
Fe23 O31 1.997 . S
Fe23 O34 1.996 . S
Fe23 O38 1.976 . S
Fe23 O41 2.002 . S
O24 Fe22 1.918 . S
O24 Fe23 1.918 . S
O24 Fe25 1.918 . S
Fe25 O24 1.918 . S
Fe25 O26 2.002 . S
Fe25 O35 1.976 . S
Fe25 O39 1.996 . S
Fe25 O42 1.997 . S
O26 Fe25 2.002 . S
O26 C43 1.295 . S
O27 Fe22 1.997 . S
O27 C43 1.235 . S
O28 Fe22 2.002 . S
O28 C29 1.295 . S
C29 O28 1.295 . S
C29 O31 1.235 . S
C30 O35 1.287 . S
C30 O36 1.255 . S
O31 Fe23 1.997 . S
O31 C29 1.235 . S
C32 O38 1.287 . S
C32 O39 1.255 . S
O33 Fe22 1.976 . S
O33 C40 1.287 . S
O34 Fe23 1.996 . S
O34 C40 1.255 . S
O35 Fe25 1.976 . S
O35 C30 1.287 . S
O36 Fe22 1.996 . S
O36 C30 1.255 . S
C37 O41 1.295 . S
C37 O42 1.235 . S
O38 Fe23 1.976 . S
O38 C32 1.287 . S
O39 Fe25 1.996 . S
O39 C32 1.255 . S
C40 O33 1.287 . S
C40 O34 1.255 . S
O41 Fe23 2.002 . S
O41 C37 1.295 . S
O42 Fe25 1.997 . S
O42 C37 1.235 . S
C43 O26 1.295 . S
C43 O27 1.235 . S
Fe44 O46 1.918 1_556 S
Fe44 O49 1.997 . S
Fe44 O50 2.002 . S
Fe44 O55 1.976 . S
Fe44 O58 1.996 . S
Fe45 O46 1.918 . S
Fe45 O53 1.997 . S
Fe45 O56 1.996 . S
Fe45 O60 1.976 . S
Fe45 O63 2.002 . S
O46 Fe44 1.918 1_554 S
O46 Fe45 1.918 . S
O46 Fe47 1.918 . S
Fe47 O46 1.918 . S
Fe47 O48 2.002 1_554 S
Fe47 O57 1.976 1_554 S
Fe47 O61 1.996 . S
Fe47 O64 1.997 . S
O48 Fe47 2.002 1_556 S
O48 C65 1.295 . S
O49 Fe44 1.997 . S
O49 C65 1.235 . S
O50 Fe44 2.002 . S
O50 C51 1.295 1_556 S
C51 O50 1.295 1_554 S
C51 O53 1.235 . S
C52 O57 1.287 . S
C52 O58 1.255 . S
O53 Fe45 1.997 . S
O53 C51 1.235 . S
C54 O60 1.287 . S
C54 O61 1.255 . S
O55 Fe44 1.976 . S
O55 C62 1.287 1_556 S
O56 Fe45 1.996 . S
O56 C62 1.255 . S
O57 Fe47 1.976 1_556 S
O57 C52 1.287 . S
O58 Fe44 1.996 . S
O58 C52 1.255 . S
C59 O63 1.295 . S
C59 O64 1.235 . S
O60 Fe45 1.976 . S
O60 C54 1.287 . S
O61 Fe47 1.996 . S
O61 C54 1.255 . S
C62 O55 1.287 1_554 S
C62 O56 1.255 . S
O63 Fe45 2.002 . S
O63 C59 1.295 . S
O64 Fe47 1.997 . S
O64 C59 1.235 . S
C65 O48 1.295 . S
C65 O49 1.235 . S
Fe66 O68 1.918 . S
Fe66 O71 1.997 . S
Fe66 O72 2.002 . S
Fe66 O77 1.976 . S
Fe66 O80 1.996 . S
Fe67 O68 1.918 . S
Fe67 O75 1.997 . S
Fe67 O78 1.996 . S
Fe67 O82 1.976 . S
Fe67 O85 2.002 . S
O68 Fe66 1.918 . S
O68 Fe67 1.918 . S
O68 Fe69 1.918 . S
Fe69 O68 1.918 . S
Fe69 O70 2.002 . S
Fe69 O79 1.976 . S
Fe69 O83 1.996 . S
Fe69 O86 1.997 . S
O70 Fe69 2.002 . S
O70 C87 1.295 . S
O71 Fe66 1.997 . S
O71 C87 1.235 . S
O72 Fe66 2.002 . S
O72 C73 1.295 . S
C73 O72 1.295 . S
C73 O75 1.235 . S
C74 O79 1.287 . S
C74 O80 1.255 . S
O75 Fe67 1.997 . S
O75 C73 1.235 . S
C76 O82 1.287 . S
C76 O83 1.255 . S
O77 Fe66 1.976 . S
O77 C84 1.287 . S
O78 Fe67 1.996 . S
O78 C84 1.255 . S
O79 Fe69 1.976 . S
O79 C74 1.287 . S
O80 Fe66 1.996 . S
O80 C74 1.255 . S
C81 O85 1.295 . S
C81 O86 1.235 . S
O82 Fe67 1.976 . S
O82 C76 1.287 . S
O83 Fe69 1.996 . S
O83 C76 1.255 . S
C84 O77 1.287 . S
C84 O78 1.255 . S
O85 Fe67 2.002 . S
O85 C81 1.295 . S
O86 Fe69 1.997 . S
O86 C81 1.235 . S
C87 O70 1.295 . S
C87 O71 1.235 . S
H88 C95 0.929 . S
H89 C98 0.930 . S
H90 C100 0.929 . S
H91 C92 0.971 . S
C92 H91 0.971 . S
C92 O93 1.535 1_556 S
C92 H94 0.992 . S
O93 C92 1.535 1_554 S
O93 C99 1.412 . S
H94 C92 0.992 . S
C95 H88 0.929 . S
C95 C96 1.400 . S
C95 C97 1.364 1_554 S
C96 C95 1.400 . S
C96 C100 1.377 . S
C97 C95 1.364 1_556 S
C97 C98 1.374 . S
C98 H89 0.930 . S
C98 C97 1.374 . S
C98 C99 1.383 1_556 S
C99 O93 1.412 . S
C99 C98 1.383 1_554 S
C99 C100 1.394 . S
C100 H90 0.929 . S
C100 C96 1.377 . S
C100 C99 1.394 . S
H101 C108 0.929 . S
H102 C111 0.930 . S
H103 C113 0.929 . S
H104 C105 0.969 . S
C105 H104 0.969 . S
C105 O106 1.550 . S
C105 H107 0.973 . S
O106 C105 1.550 . S
O106 C112 1.379 1_455 S
H107 C105 0.973 . S
C108 H101 0.929 . S
C108 C109 1.400 . S
C108 C110 1.364 . S
C109 C108 1.400 . S
C109 C113 1.377 . S
C110 C108 1.364 . S
C110 C111 1.374 . S
C111 H102 0.930 . S
C111 C110 1.374 . S
C111 C112 1.398 . S
C112 O106 1.379 1_655 S
C112 C111 1.398 . S
C112 C113 1.418 . S
C113 H103 0.929 . S
C113 C109 1.377 . S
C113 C112 1.418 . S
H114 C121 0.929 . S
H115 C124 0.930 . S
H116 C126 0.929 . S
H117 C118 0.969 . S
C118 H117 0.969 . S
C118 O119 1.550 1_554 S
C118 H120 0.973 . S
O119 C118 1.550 1_556 S
O119 C125 1.412 . S
H120 C118 0.973 . S
C121 H114 0.929 . S
C121 C122 1.400 1_554 S
C121 C123 1.364 . S
C122 C121 1.400 1_556 S
C122 C126 1.377 . S
C123 C121 1.364 . S
C123 C124 1.374 . S
C124 H115 0.930 . S
C124 C123 1.374 . S
C124 C125 1.383 1_554 S
C125 O119 1.412 . S
C125 C124 1.383 1_556 S
C125 C126 1.394 . S
C126 H116 0.929 . S
C126 C122 1.377 . S
C126 C125 1.394 . S
H127 C134 0.929 . S
H128 C137 0.917 1_655 S
H129 C139 0.929 . S
H130 C131 0.969 . S
C131 H130 0.969 . S
C131 O132 1.550 . S
C131 H133 0.973 . S
O132 C131 1.550 . S
O132 C138 1.459 . S
H133 C131 0.973 . S
C134 H127 0.929 . S
C134 C135 1.400 . S
C134 C136 1.364 . S
C135 C134 1.400 . S
C135 C139 1.377 . S
C136 C134 1.364 . S
C136 C137 1.374 . S
C137 H128 0.917 1_455 S
C137 C136 1.374 . S
C137 C138 1.366 1_455 S
C138 O132 1.459 . S
C138 C137 1.366 1_655 S
C138 C139 1.367 1_655 S
C139 H129 0.929 . S
C139 C135 1.377 . S
C139 C138 1.367 1_455 S
H140 C147 0.929 . S
H141 C150 0.930 1_545 S
H142 C152 0.929 . S
H143 C144 0.969 . S
C144 H143 0.969 . S
C144 O145 1.550 . S
C144 H146 0.973 . S
O145 C144 1.550 . S
O145 C151 1.412 . S
H146 C144 0.973 . S
C147 H140 0.929 . S
C147 C148 1.400 . S
C147 C149 1.364 . S
C148 C147 1.400 . S
C148 C152 1.377 . S
C149 C147 1.364 . S
C149 C150 1.374 . S
C150 H141 0.930 1_565 S
C150 C149 1.374 . S
C150 C151 1.383 1_565 S
C151 O145 1.412 . S
C151 C150 1.383 1_545 S
C151 C152 1.394 1_545 S
C152 H142 0.929 . S
C152 C148 1.377 . S
C152 C151 1.394 1_565 S
H153 C160 0.927 1_554 S
H154 C163 0.930 . S
H155 C165 0.929 . S
H156 C157 0.969 . S
C157 H156 0.969 . S
C157 O158 1.550 1_554 S
C157 H159 0.973 . S
O158 C157 1.550 1_556 S
O158 C164 1.412 . S
H159 C157 0.973 . S
C160 H153 0.927 1_556 S
C160 C161 1.415 . S
C160 C162 1.351 1_556 S
C161 C160 1.415 . S
C161 C165 1.377 . S
C162 C160 1.351 1_554 S
C162 C163 1.374 . S
C163 H154 0.930 . S
C163 C162 1.374 . S
C163 C164 1.383 1_554 S
C164 O158 1.412 . S
C164 C163 1.383 1_556 S
C164 C165 1.394 . S
C165 H155 0.929 . S
C165 C161 1.377 . S
C165 C164 1.394 . S
H166 C173 0.929 . S
H167 C176 0.930 . S
H168 C178 0.929 . S
H169 C170 0.969 . S
C170 H169 0.969 . S
C170 O171 1.550 . S
C170 H172 0.973 . S
O171 C170 1.550 . S
O171 C177 1.364 1_565 S
H172 C170 0.973 . S
C173 H166 0.929 . S
C173 C174 1.400 . S
C173 C175 1.364 . S
C174 C173 1.400 . S
C174 C178 1.377 . S
C175 C173 1.364 . S
C175 C176 1.374 . S
C176 H167 0.930 . S
C176 C175 1.374 . S
C176 C177 1.402 . S
C177 O171 1.364 1_545 S
C177 C176 1.402 . S
C177 C178 1.424 . S
C178 H168 0.929 . S
C178 C174 1.377 . S
C178 C177 1.424 . S
H179 C186 0.929 . S
H180 C189 0.930 . S
H181 C191 0.929 . S
H182 C183 0.969 1_556 S
C183 H182 0.969 1_554 S
C183 O184 1.550 . S
C183 H185 0.973 1_554 S
O184 C183 1.550 . S
O184 C190 1.412 . S
H185 C183 0.973 1_556 S
C186 H179 0.929 . S
C186 C187 1.400 . S
C186 C188 1.364 1_554 S
C187 C186 1.400 . S
C187 C191 1.377 . S
C188 C186 1.364 1_556 S
C188 C189 1.374 . S
C189 H180 0.930 . S
C189 C188 1.374 . S
C189 C190 1.383 1_556 S
C190 O184 1.412 . S
C190 C189 1.383 1_554 S
C190 C191 1.394 . S
C191 H181 0.929 . S
C191 C187 1.377 . S
C191 C190 1.394 . S
H192 C210 0.951 . S
H193 C212 0.951 . S
H194 C214 0.950 . S
H195 C215 0.950 . S
H196 C217 0.950 . S
H197 C220 0.950 . S
H198 C221 0.950 . S
H199 C223 0.950 . S
H200 C224 0.950 . S
H201 C225 0.951 . S
H202 C227 0.951 . S
H203 C229 0.950 . S
H204 C230 0.950 . S
H205 C232 0.950 . S
H206 C235 0.950 . S
H207 C236 0.950 . S
H208 C238 0.950 . S
H209 C239 0.950 . S
C210 H192 0.951 . S
C210 C211 1.366 . S
C210 C212 1.388 . S
C211 C210 1.366 . S
C211 C215 1.385 . S
C212 H193 0.951 . S
C212 C210 1.388 . S
C212 C213 1.366 . S
C213 C212 1.366 . S
C213 C214 1.414 . S
C213 C216 1.499 . S
C214 H194 0.950 . S
C214 C213 1.414 . S
C214 C215 1.374 . S
C215 H195 0.950 . S
C215 C211 1.385 . S
C215 C214 1.374 . S
C216 C213 1.499 . S
C216 C217 1.373 . S
C216 C218 1.389 . S
C217 H196 0.950 . S
C217 C216 1.373 . S
C217 C233 1.377 . S
C218 C216 1.389 . S
C218 C219 1.524 . S
C218 C232 1.377 . S
C219 C218 1.524 . S
C219 C220 1.397 . S
C219 C224 1.363 . S
C220 H197 0.950 . S
C220 C219 1.397 . S
C220 C221 1.334 . S
C221 H198 0.950 . S
C221 C220 1.334 . S
C221 C222 1.287 . S
C222 C221 1.287 . S
C222 C223 1.524 . S
C222 H241 0.913 . S
C223 H199 0.950 . S
C223 C222 1.524 . S
C223 C224 1.415 . S
C224 H200 0.950 . S
C224 C219 1.363 . S
C224 C223 1.415 . S
C225 H201 0.951 . S
C225 C226 1.366 . S
C225 C227 1.388 . S
C226 C225 1.366 . S
C226 C230 1.385 . S
C227 H202 0.951 . S
C227 C225 1.388 . S
C227 C228 1.366 . S
C228 C227 1.366 . S
C228 C229 1.414 . S
C228 C231 1.499 . S
C229 H203 0.950 . S
C229 C228 1.414 . S
C229 C230 1.374 . S
C230 H204 0.950 . S
C230 C226 1.385 . S
C230 C229 1.374 . S
C231 C228 1.499 . S
C231 C232 1.373 . S
C231 C233 1.389 . S
C232 H205 0.950 . S
C232 C218 1.377 . S
C232 C231 1.373 . S
C233 C217 1.377 . S
C233 C231 1.389 . S
C233 C234 1.524 . S
C234 C233 1.524 . S
C234 C235 1.397 . S
C234 C239 1.363 . S
C235 H206 0.950 . S
C235 C234 1.397 . S
C235 C236 1.334 . S
C236 H207 0.950 . S
C236 C235 1.334 . S
C236 C237 1.287 . S
C237 C236 1.287 . S
C237 C238 1.524 . S
C237 H240 0.999 . S
C238 H208 0.950 . S
C238 C237 1.524 . S
C238 C239 1.415 . S
C239 H209 0.950 . S
C239 C234 1.363 . S
C239 C238 1.415 . S
H240 C237 0.999 . S
H241 C222 0.913 . S
H242 C260 0.951 . S
H243 C262 0.951 . S
H244 C264 0.950 . S
H245 C265 0.950 . S
H246 C267 0.950 . S
H247 C270 0.950 . S
H248 C271 0.950 . S
H249 C273 0.950 . S
H250 C274 0.950 . S
H251 C275 0.951 . S
H252 C277 0.951 . S
H253 C279 0.950 . S
H254 C280 0.950 . S
H255 C282 0.950 . S
H256 C285 0.950 . S
H257 C286 0.950 . S
H258 C288 0.950 . S
H259 C289 0.950 . S
C260 H242 0.951 . S
C260 C261 1.366 . S
C260 C262 1.388 . S
C261 C260 1.366 . S
C261 C265 1.385 . S
C262 H243 0.951 . S
C262 C260 1.388 . S
C262 C263 1.366 . S
C263 C262 1.366 . S
C263 C264 1.414 . S
C263 C266 1.499 . S
C264 H244 0.950 . S
C264 C263 1.414 . S
C264 C265 1.374 . S
C265 H245 0.950 . S
C265 C261 1.385 . S
C265 C264 1.374 . S
C266 C263 1.499 . S
C266 C267 1.373 . S
C266 C268 1.389 . S
C267 H246 0.950 . S
C267 C266 1.373 . S
C267 C283 1.377 . S
C268 C266 1.389 . S
C268 C269 1.524 . S
C268 C282 1.377 . S
C269 C268 1.524 . S
C269 C270 1.397 . S
C269 C274 1.363 . S
C270 H247 0.950 . S
C270 C269 1.397 . S
C270 C271 1.334 . S
C271 H248 0.950 . S
C271 C270 1.334 . S
C271 C272 1.287 . S
C272 C271 1.287 . S
C272 C273 1.524 . S
C272 H291 0.913 . S
C273 H249 0.950 . S
C273 C272 1.524 . S
C273 C274 1.415 . S
C274 H250 0.950 . S
C274 C269 1.363 . S
C274 C273 1.415 . S
C275 H251 0.951 . S
C275 C276 1.366 . S
C275 C277 1.388 . S
C276 C275 1.366 . S
C276 C280 1.385 . S
C277 H252 0.951 . S
C277 C275 1.388 . S
C277 C278 1.366 . S
C278 C277 1.366 . S
C278 C279 1.414 . S
C278 C281 1.499 . S
C279 H253 0.950 . S
C279 C278 1.414 . S
C279 C280 1.374 . S
C280 H254 0.950 . S
C280 C276 1.385 . S
C280 C279 1.374 . S
C281 C278 1.499 . S
C281 C282 1.373 . S
C281 C283 1.389 . S
C282 H255 0.950 . S
C282 C268 1.377 . S
C282 C281 1.373 . S
C283 C267 1.377 . S
C283 C281 1.389 . S
C283 C284 1.524 . S
C284 C283 1.524 . S
C284 C285 1.397 . S
C284 C289 1.363 . S
C285 H256 0.950 . S
C285 C284 1.397 . S
C285 C286 1.334 . S
C286 H257 0.950 . S
C286 C285 1.334 . S
C286 C287 1.287 . S
C287 C286 1.287 . S
C287 C288 1.524 . S
C287 H290 0.999 . S
C288 H258 0.950 . S
C288 C287 1.524 . S
C288 C289 1.415 . S
C289 H259 0.950 . S
C289 C284 1.363 . S
C289 C288 1.415 . S
H290 C287 0.999 . S
H291 C272 0.913 . S
H292 C310 0.951 . S
H293 C312 0.951 . S
H294 C314 0.950 . S
H295 C315 0.950 . S
H296 C317 0.950 . S
H297 C320 0.950 . S
H298 C321 0.950 . S
H299 C323 0.950 . S
H300 C324 0.950 . S
H301 C325 0.951 . S
H302 C327 0.951 . S
H303 C329 0.950 . S
H304 C330 0.950 . S
H305 C332 0.950 . S
H306 C335 0.950 . S
H307 C336 0.950 . S
H308 C338 0.950 . S
H309 C339 0.950 . S
C310 H292 0.951 . S
C310 C311 1.366 . S
C310 C312 1.388 . S
C311 C310 1.366 . S
C311 C315 1.385 . S
C312 H293 0.951 . S
C312 C310 1.388 . S
C312 C313 1.366 . S
C313 C312 1.366 . S
C313 C314 1.414 . S
C313 C316 1.499 . S
C314 H294 0.950 . S
C314 C313 1.414 . S
C314 C315 1.374 . S
C315 H295 0.950 . S
C315 C311 1.385 . S
C315 C314 1.374 . S
C316 C313 1.499 . S
C316 C317 1.373 . S
C316 C318 1.389 . S
C317 H296 0.950 . S
C317 C316 1.373 . S
C317 C333 1.377 . S
C318 C316 1.389 . S
C318 C319 1.524 . S
C318 C332 1.377 . S
C319 C318 1.524 . S
C319 C320 1.397 . S
C319 C324 1.363 . S
C320 H297 0.950 . S
C320 C319 1.397 . S
C320 C321 1.334 . S
C321 H298 0.950 . S
C321 C320 1.334 . S
C321 C322 1.287 . S
C322 C321 1.287 . S
C322 C323 1.524 . S
C322 H341 0.913 . S
C323 H299 0.950 . S
C323 C322 1.524 . S
C323 C324 1.415 . S
C324 H300 0.950 . S
C324 C319 1.363 . S
C324 C323 1.415 . S
C325 H301 0.951 . S
C325 C326 1.366 . S
C325 C327 1.388 . S
C326 C325 1.366 . S
C326 C330 1.385 . S
C327 H302 0.951 . S
C327 C325 1.388 . S
C327 C328 1.366 . S
C328 C327 1.366 . S
C328 C329 1.414 . S
C328 C331 1.499 . S
C329 H303 0.950 . S
C329 C328 1.414 . S
C329 C330 1.374 . S
C330 H304 0.950 . S
C330 C326 1.385 . S
C330 C329 1.374 . S
C331 C328 1.499 . S
C331 C332 1.373 . S
C331 C333 1.389 . S
C332 H305 0.950 . S
C332 C318 1.377 . S
C332 C331 1.373 . S
C333 C317 1.377 . S
C333 C331 1.389 . S
C333 C334 1.524 . S
C334 C333 1.524 . S
C334 C335 1.397 . S
C334 C339 1.363 . S
C335 H306 0.950 . S
C335 C334 1.397 . S
C335 C336 1.334 . S
C336 H307 0.950 . S
C336 C335 1.334 . S
C336 C337 1.287 . S
C337 C336 1.287 . S
C337 C338 1.524 . S
C337 H340 0.999 . S
C338 H308 0.950 . S
C338 C337 1.524 . S
C338 C339 1.415 . S
C339 H309 0.950 . S
C339 C334 1.363 . S
C339 C338 1.415 . S
H340 C337 0.999 . S
H341 C322 0.913 . S
H342 C360 0.951 . S
H343 C362 0.951 . S
H344 C364 0.950 . S
H345 C365 0.950 . S
H346 C367 0.950 . S
H347 C370 0.950 . S
H348 C371 0.950 . S
H349 C373 0.950 . S
H350 C374 0.950 . S
H351 C375 0.951 . S
H352 C377 0.951 . S
H353 C379 0.950 . S
H354 C380 0.950 . S
H355 C382 0.950 . S
H356 C385 0.950 . S
H357 C386 0.950 . S
H358 C388 0.950 . S
H359 C389 0.950 . S
C360 H342 0.951 . S
C360 C361 1.366 . S
C360 C362 1.388 . S
C361 C360 1.366 . S
C361 C365 1.385 . S
C362 H343 0.951 . S
C362 C360 1.388 . S
C362 C363 1.366 . S
C363 C362 1.366 . S
C363 C364 1.414 . S
C363 C366 1.499 . S
C364 H344 0.950 . S
C364 C363 1.414 . S
C364 C365 1.374 . S
C365 H345 0.950 . S
C365 C361 1.385 . S
C365 C364 1.374 . S
C366 C363 1.499 . S
C366 C367 1.373 . S
C366 C368 1.389 . S
C367 H346 0.950 . S
C367 C366 1.373 . S
C367 C383 1.377 . S
C368 C366 1.389 . S
C368 C369 1.524 . S
C368 C382 1.377 . S
C369 C368 1.524 . S
C369 C370 1.397 . S
C369 C374 1.363 . S
C370 H347 0.950 . S
C370 C369 1.397 . S
C370 C371 1.334 . S
C371 H348 0.950 . S
C371 C370 1.334 . S
C371 C372 1.287 . S
C372 C371 1.287 . S
C372 C373 1.524 . S
C372 H391 0.913 . S
C373 H349 0.950 . S
C373 C372 1.524 . S
C373 C374 1.415 . S
C374 H350 0.950 . S
C374 C369 1.363 . S
C374 C373 1.415 . S
C375 H351 0.951 . S
C375 C376 1.366 . S
C375 C377 1.388 . S
C376 C375 1.366 . S
C376 C380 1.385 . S
C377 H352 0.951 . S
C377 C375 1.388 . S
C377 C378 1.366 . S
C378 C377 1.366 . S
C378 C379 1.414 . S
C378 C381 1.499 . S
C379 H353 0.950 . S
C379 C378 1.414 . S
C379 C380 1.374 . S
C380 H354 0.950 . S
C380 C376 1.385 . S
C380 C379 1.374 . S
C381 C378 1.499 . S
C381 C382 1.373 . S
C381 C383 1.389 . S
C382 H355 0.950 . S
C382 C368 1.377 . S
C382 C381 1.373 . S
C383 C367 1.377 . S
C383 C381 1.389 . S
C383 C384 1.524 . S
C384 C383 1.524 . S
C384 C385 1.397 . S
C384 C389 1.363 . S
C385 H356 0.950 . S
C385 C384 1.397 . S
C385 C386 1.334 . S
C386 H357 0.950 . S
C386 C385 1.334 . S
C386 C387 1.287 . S
C387 C386 1.287 . S
C387 C388 1.524 . S
C387 H390 0.999 . S
C388 H358 0.950 . S
C388 C387 1.524 . S
C388 C389 1.415 . S
C389 H359 0.950 . S
C389 C384 1.363 . S
C389 C388 1.415 . S
H390 C387 0.999 . S
H391 C372 0.913 . S
H392 C410 0.951 . S
H393 C412 0.951 . S
H394 C414 0.950 . S
H395 C415 0.950 . S
H396 C417 0.950 . S
H397 C420 0.950 . S
H398 C421 0.950 . S
H399 C423 0.950 . S
H400 C424 0.950 . S
H401 C425 0.951 . S
H402 C427 0.951 . S
H403 C429 0.950 . S
H404 C430 0.950 . S
H405 C432 0.950 . S
H406 C435 0.950 . S
H407 C436 0.950 . S
H408 C438 0.950 . S
H409 C439 0.950 . S
C410 H392 0.951 . S
C410 C411 1.366 . S
C410 C412 1.388 . S
C411 C410 1.366 . S
C411 C415 1.385 . S
C412 H393 0.951 . S
C412 C410 1.388 . S
C412 C413 1.366 . S
C413 C412 1.366 . S
C413 C414 1.414 . S
C413 C416 1.499 . S
C414 H394 0.950 . S
C414 C413 1.414 . S
C414 C415 1.374 . S
C415 H395 0.950 . S
C415 C411 1.385 . S
C415 C414 1.374 . S
C416 C413 1.499 . S
C416 C417 1.373 . S
C416 C418 1.389 . S
C417 H396 0.950 . S
C417 C416 1.373 . S
C417 C433 1.377 . S
C418 C416 1.389 . S
C418 C419 1.524 . S
C418 C432 1.377 . S
C419 C418 1.524 . S
C419 C420 1.397 . S
C419 C424 1.363 . S
C420 H397 0.950 . S
C420 C419 1.397 . S
C420 C421 1.334 . S
C421 H398 0.950 . S
C421 C420 1.334 . S
C421 C422 1.287 . S
C422 C421 1.287 . S
C422 C423 1.524 . S
C422 H441 0.913 . S
C423 H399 0.950 . S
C423 C422 1.524 . S
C423 C424 1.415 . S
C424 H400 0.950 . S
C424 C419 1.363 . S
C424 C423 1.415 . S
C425 H401 0.951 . S
C425 C426 1.366 . S
C425 C427 1.388 . S
C426 C425 1.366 . S
C426 C430 1.385 . S
C427 H402 0.951 . S
C427 C425 1.388 . S
C427 C428 1.366 . S
C428 C427 1.366 . S
C428 C429 1.414 . S
C428 C431 1.499 . S
C429 H403 0.950 . S
C429 C428 1.414 . S
C429 C430 1.374 . S
C430 H404 0.950 . S
C430 C426 1.385 . S
C430 C429 1.374 . S
C431 C428 1.499 . S
C431 C432 1.373 . S
C431 C433 1.389 . S
C432 H405 0.950 . S
C432 C418 1.377 . S
C432 C431 1.373 . S
C433 C417 1.377 . S
C433 C431 1.389 . S
C433 C434 1.524 . S
C434 C433 1.524 . S
C434 C435 1.397 . S
C434 C439 1.363 . S
C435 H406 0.950 . S
C435 C434 1.397 . S
C435 C436 1.334 . S
C436 H407 0.950 . S
C436 C435 1.334 . S
C436 C437 1.287 . S
C437 C436 1.287 . S
C437 C438 1.524 . S
C437 H440 0.999 . S
C438 H408 0.950 . S
C438 C437 1.524 . S
C438 C439 1.415 . S
C439 H409 0.950 . S
C439 C434 1.363 . S
C439 C438 1.415 . S
H440 C437 0.999 . S
H441 C422 0.913 . S
H442 C460 0.951 . S
H443 C462 0.951 . S
H444 C464 0.950 . S
H445 C465 0.950 . S
H446 C467 0.950 . S
H447 C470 0.950 . S
H448 C471 0.950 . S
H449 C473 0.950 . S
H450 C474 0.950 . S
H451 C475 0.951 . S
H452 C477 0.951 . S
H453 C479 0.950 . S
H454 C480 0.950 . S
H455 C482 0.950 . S
H456 C485 0.950 . S
H457 C486 0.950 . S
H458 C488 0.950 . S
H459 C489 0.950 . S
C460 H442 0.951 . S
C460 C461 1.366 . S
C460 C462 1.388 . S
C461 C460 1.366 . S
C461 C465 1.385 . S
C462 H443 0.951 . S
C462 C460 1.388 . S
C462 C463 1.366 . S
C463 C462 1.366 . S
C463 C464 1.414 . S
C463 C466 1.499 . S
C464 H444 0.950 . S
C464 C463 1.414 . S
C464 C465 1.374 . S
C465 H445 0.950 . S
C465 C461 1.385 . S
C465 C464 1.374 . S
C466 C463 1.499 . S
C466 C467 1.373 . S
C466 C468 1.389 . S
C467 H446 0.950 . S
C467 C466 1.373 . S
C467 C483 1.377 . S
C468 C466 1.389 . S
C468 C469 1.524 . S
C468 C482 1.377 . S
C469 C468 1.524 . S
C469 C470 1.397 . S
C469 C474 1.363 . S
C470 H447 0.950 . S
C470 C469 1.397 . S
C470 C471 1.334 . S
C471 H448 0.950 . S
C471 C470 1.334 . S
C471 C472 1.287 . S
C472 C471 1.287 . S
C472 C473 1.524 . S
C472 H491 0.913 . S
C473 H449 0.950 . S
C473 C472 1.524 . S
C473 C474 1.415 . S
C474 H450 0.950 . S
C474 C469 1.363 . S
C474 C473 1.415 . S
C475 H451 0.951 . S
C475 C476 1.366 . S
C475 C477 1.388 . S
C476 C475 1.366 . S
C476 C480 1.385 . S
C477 H452 0.951 . S
C477 C475 1.388 . S
C477 C478 1.366 . S
C478 C477 1.366 . S
C478 C479 1.414 . S
C478 C481 1.499 . S
C479 H453 0.950 . S
C479 C478 1.414 . S
C479 C480 1.374 . S
C480 H454 0.950 . S
C480 C476 1.385 . S
C480 C479 1.374 . S
C481 C478 1.499 . S
C481 C482 1.373 . S
C481 C483 1.389 . S
C482 H455 0.950 . S
C482 C468 1.377 . S
C482 C481 1.373 . S
C483 C467 1.377 . S
C483 C481 1.389 . S
C483 C484 1.524 . S
C484 C483 1.524 . S
C484 C485 1.397 . S
C484 C489 1.363 . S
C485 H456 0.950 . S
C485 C484 1.397 . S
C485 C486 1.334 . S
C486 H457 0.950 . S
C486 C485 1.334 . S
C486 C487 1.287 . S
C487 C486 1.287 . S
C487 C488 1.524 . S
C487 H490 0.999 . S
C488 H458 0.950 . S
C488 C487 1.524 . S
C488 C489 1.415 . S
C489 H459 0.950 . S
C489 C484 1.363 . S
C489 C488 1.415 . S
H490 C487 0.999 . S
H491 C472 0.913 . S
H492 C510 0.951 . S
H493 C512 0.951 . S
H494 C514 0.950 . S
H495 C515 0.950 . S
H496 C517 0.950 . S
H497 C520 0.950 . S
H498 C521 0.950 . S
H499 C523 0.950 . S
H500 C524 0.950 . S
H501 C525 0.951 . S
H502 C527 0.951 . S
H503 C529 0.950 . S
H504 C530 0.950 . S
H505 C532 0.950 . S
H506 C535 0.950 . S
H507 C536 0.950 . S
H508 C538 0.950 . S
H509 C539 0.950 . S
C510 H492 0.951 . S
C510 C511 1.366 . S
C510 C512 1.388 . S
C511 C510 1.366 . S
C511 C515 1.385 . S
C512 H493 0.951 . S
C512 C510 1.388 . S
C512 C513 1.366 . S
C513 C512 1.366 . S
C513 C514 1.414 . S
C513 C516 1.499 . S
C514 H494 0.950 . S
C514 C513 1.414 . S
C514 C515 1.374 . S
C515 H495 0.950 . S
C515 C511 1.385 . S
C515 C514 1.374 . S
C516 C513 1.499 . S
C516 C517 1.373 . S
C516 C518 1.389 . S
C517 H496 0.950 . S
C517 C516 1.373 . S
C517 C533 1.377 . S
C518 C516 1.389 . S
C518 C519 1.524 . S
C518 C532 1.377 . S
C519 C518 1.524 . S
C519 C520 1.397 . S
C519 C524 1.363 . S
C520 H497 0.950 . S
C520 C519 1.397 . S
C520 C521 1.334 . S
C521 H498 0.950 . S
C521 C520 1.334 . S
C521 C522 1.287 . S
C522 C521 1.287 . S
C522 C523 1.524 . S
C522 H541 0.913 . S
C523 H499 0.950 . S
C523 C522 1.524 . S
C523 C524 1.415 . S
C524 H500 0.950 . S
C524 C519 1.363 . S
C524 C523 1.415 . S
C525 H501 0.951 . S
C525 C526 1.366 . S
C525 C527 1.388 . S
C526 C525 1.366 . S
C526 C530 1.385 . S
C527 H502 0.951 . S
C527 C525 1.388 . S
C527 C528 1.366 . S
C528 C527 1.366 . S
C528 C529 1.414 . S
C528 C531 1.499 . S
C529 H503 0.950 . S
C529 C528 1.414 . S
C529 C530 1.374 . S
C530 H504 0.950 . S
C530 C526 1.385 . S
C530 C529 1.374 . S
C531 C528 1.499 . S
C531 C532 1.373 . S
C531 C533 1.389 . S
C532 H505 0.950 . S
C532 C518 1.377 . S
C532 C531 1.373 . S
C533 C517 1.377 . S
C533 C531 1.389 . S
C533 C534 1.524 . S
C534 C533 1.524 . S
C534 C535 1.397 . S
C534 C539 1.363 . S
C535 H506 0.950 . S
C535 C534 1.397 . S
C535 C536 1.334 . S
C536 H507 0.950 . S
C536 C535 1.334 . S
C536 C537 1.287 . S
C537 C536 1.287 . S
C537 C538 1.524 . S
C537 H540 0.999 . S
C538 H508 0.950 . S
C538 C537 1.524 . S
C538 C539 1.415 . S
C539 H509 0.950 . S
C539 C534 1.363 . S
C539 C538 1.415 . S
H540 C537 0.999 . S
H541 C522 0.913 . S
H542 C560 0.951 . S
H543 C562 0.951 . S
H544 C564 0.950 . S
H545 C565 0.950 . S
H546 C567 0.950 . S
H547 C570 0.950 . S
H548 C571 0.950 . S
H549 C573 0.950 . S
H550 C574 0.950 . S
H551 C575 0.951 . S
H552 C577 0.951 . S
H553 C579 0.950 . S
H554 C580 0.950 . S
H555 C582 0.950 . S
H556 C585 0.950 . S
H557 C586 0.950 . S
H558 C588 0.950 . S
H559 C589 0.950 . S
C560 H542 0.951 . S
C560 C561 1.366 . S
C560 C562 1.388 . S
C561 C560 1.366 . S
C561 C565 1.385 . S
C562 H543 0.951 . S
C562 C560 1.388 . S
C562 C563 1.366 . S
C563 C562 1.366 . S
C563 C564 1.414 . S
C563 C566 1.499 . S
C564 H544 0.950 . S
C564 C563 1.414 . S
C564 C565 1.374 . S
C565 H545 0.950 . S
C565 C561 1.385 . S
C565 C564 1.374 . S
C566 C563 1.499 . S
C566 C567 1.373 . S
C566 C568 1.389 . S
C567 H546 0.950 . S
C567 C566 1.373 . S
C567 C583 1.377 . S
C568 C566 1.389 . S
C568 C569 1.524 . S
C568 C582 1.377 . S
C569 C568 1.524 . S
C569 C570 1.397 . S
C569 C574 1.363 . S
C570 H547 0.950 . S
C570 C569 1.397 . S
C570 C571 1.334 . S
C571 H548 0.950 . S
C571 C570 1.334 . S
C571 C572 1.287 . S
C572 C571 1.287 . S
C572 C573 1.524 . S
C572 H591 0.913 . S
C573 H549 0.950 . S
C573 C572 1.524 . S
C573 C574 1.415 . S
C574 H550 0.950 . S
C574 C569 1.363 . S
C574 C573 1.415 . S
C575 H551 0.951 . S
C575 C576 1.366 . S
C575 C577 1.388 . S
C576 C575 1.366 . S
C576 C580 1.385 . S
C577 H552 0.951 . S
C577 C575 1.388 . S
C577 C578 1.366 . S
C578 C577 1.366 . S
C578 C579 1.414 . S
C578 C581 1.499 . S
C579 H553 0.950 . S
C579 C578 1.414 . S
C579 C580 1.374 . S
C580 H554 0.950 . S
C580 C576 1.385 . S
C580 C579 1.374 . S
C581 C578 1.499 . S
C581 C582 1.373 . S
C581 C583 1.389 . S
C582 H555 0.950 . S
C582 C568 1.377 . S
C582 C581 1.373 . S
C583 C567 1.377 . S
C583 C581 1.389 . S
C583 C584 1.524 . S
C584 C583 1.524 . S
C584 C585 1.397 . S
C584 C589 1.363 . S
C585 H556 0.950 . S
C585 C584 1.397 . S
C585 C586 1.334 . S
C586 H557 0.950 . S
C586 C585 1.334 . S
C586 C587 1.287 . S
C587 C586 1.287 . S
C587 C588 1.524 . S
C587 H590 0.999 . S
C588 H558 0.950 . S
C588 C587 1.524 . S
C588 C589 1.415 . S
C589 H559 0.950 . S
C589 C584 1.363 . S
C589 C588 1.415 . S
H590 C587 0.999 . S
H591 C572 0.913 . S
H592 C610 0.951 . S
H593 C612 0.951 . S
H594 C614 0.950 . S
H595 C615 0.950 . S
H596 C617 0.950 . S
H597 C620 0.950 . S
H598 C621 0.950 . S
H599 C623 0.950 . S
H600 C624 0.950 . S
H601 C625 0.951 . S
H602 C627 0.951 . S
H603 C629 0.950 . S
H604 C630 0.950 . S
H605 C632 0.950 . S
H606 C635 0.950 . S
H607 C636 0.950 . S
H608 C638 0.950 . S
H609 C639 0.950 . S
C610 H592 0.951 . S
C610 C611 1.366 . S
C610 C612 1.388 . S
C611 C610 1.366 . S
C611 C615 1.385 . S
C612 H593 0.951 . S
C612 C610 1.388 . S
C612 C613 1.366 . S
C613 C612 1.366 . S
C613 C614 1.414 . S
C613 C616 1.499 . S
C614 H594 0.950 . S
C614 C613 1.414 . S
C614 C615 1.374 . S
C615 H595 0.950 . S
C615 C611 1.385 . S
C615 C614 1.374 . S
C616 C613 1.499 . S
C616 C617 1.373 . S
C616 C618 1.389 . S
C617 H596 0.950 . S
C617 C616 1.373 . S
C617 C633 1.377 . S
C618 C616 1.389 . S
C618 C619 1.524 . S
C618 C632 1.377 . S
C619 C618 1.524 . S
C619 C620 1.397 . S
C619 C624 1.363 . S
C620 H597 0.950 . S
C620 C619 1.397 . S
C620 C621 1.334 . S
C621 H598 0.950 . S
C621 C620 1.334 . S
C621 C622 1.287 . S
C622 C621 1.287 . S
C622 C623 1.524 . S
C622 H641 0.913 . S
C623 H599 0.950 . S
C623 C622 1.524 . S
C623 C624 1.415 . S
C624 H600 0.950 . S
C624 C619 1.363 . S
C624 C623 1.415 . S
C625 H601 0.951 . S
C625 C626 1.366 . S
C625 C627 1.388 . S
C626 C625 1.366 . S
C626 C630 1.385 . S
C627 H602 0.951 . S
C627 C625 1.388 . S
C627 C628 1.366 . S
C628 C627 1.366 . S
C628 C629 1.414 . S
C628 C631 1.499 . S
C629 H603 0.950 . S
C629 C628 1.414 . S
C629 C630 1.374 . S
C630 H604 0.950 . S
C630 C626 1.385 . S
C630 C629 1.374 . S
C631 C628 1.499 . S
C631 C632 1.373 . S
C631 C633 1.389 . S
C632 H605 0.950 . S
C632 C618 1.377 . S
C632 C631 1.373 . S
C633 C617 1.377 . S
C633 C631 1.389 . S
C633 C634 1.524 . S
C634 C633 1.524 . S
C634 C635 1.397 . S
C634 C639 1.363 . S
C635 H606 0.950 . S
C635 C634 1.397 . S
C635 C636 1.334 . S
C636 H607 0.950 . S
C636 C635 1.334 . S
C636 C637 1.287 . S
C637 C636 1.287 . S
C637 C638 1.524 . S
C637 H640 0.999 . S
C638 H608 0.950 . S
C638 C637 1.524 . S
C638 C639 1.415 . S
C639 H609 0.950 . S
C639 C634 1.363 . S
C639 C638 1.415 . S
H640 C637 0.999 . S
H641 C622 0.913 . S
H642 C660 0.951 . S
H643 C662 0.951 . S
H644 C664 0.950 . S
H645 C665 0.950 . S
H646 C667 0.950 . S
H647 C670 0.950 . S
H648 C671 0.950 . S
H649 C673 0.950 . S
H650 C674 0.950 . S
H651 C675 0.951 . S
H652 C677 0.951 . S
H653 C679 0.950 . S
H654 C680 0.950 . S
H655 C682 0.950 . S
H656 C685 0.950 . S
H657 C686 0.950 . S
H658 C688 0.950 . S
H659 C689 0.950 . S
C660 H642 0.951 . S
C660 C661 1.366 . S
C660 C662 1.388 . S
C661 C660 1.366 . S
C661 C665 1.385 . S
C662 H643 0.951 . S
C662 C660 1.388 . S
C662 C663 1.366 . S
C663 C662 1.366 . S
C663 C664 1.414 . S
C663 C666 1.499 . S
C664 H644 0.950 . S
C664 C663 1.414 . S
C664 C665 1.374 . S
C665 H645 0.950 . S
C665 C661 1.385 . S
C665 C664 1.374 . S
C666 C663 1.499 . S
C666 C667 1.373 . S
C666 C668 1.389 . S
C667 H646 0.950 . S
C667 C666 1.373 . S
C667 C683 1.377 . S
C668 C666 1.389 . S
C668 C669 1.524 . S
C668 C682 1.377 . S
C669 C668 1.524 . S
C669 C670 1.397 . S
C669 C674 1.363 . S
C670 H647 0.950 . S
C670 C669 1.397 . S
C670 C671 1.334 . S
C671 H648 0.950 . S
C671 C670 1.334 . S
C671 C672 1.287 . S
C672 C671 1.287 . S
C672 C673 1.524 . S
C672 H691 0.913 . S
C673 H649 0.950 . S
C673 C672 1.524 . S
C673 C674 1.415 . S
C674 H650 0.950 . S
C674 C669 1.363 . S
C674 C673 1.415 . S
C675 H651 0.951 . S
C675 C676 1.366 . S
C675 C677 1.388 . S
C676 C675 1.366 . S
C676 C680 1.385 . S
C677 H652 0.951 . S
C677 C675 1.388 . S
C677 C678 1.366 . S
C678 C677 1.366 . S
C678 C679 1.414 . S
C678 C681 1.499 . S
C679 H653 0.950 . S
C679 C678 1.414 . S
C679 C680 1.374 . S
C680 H654 0.950 . S
C680 C676 1.385 . S
C680 C679 1.374 . S
C681 C678 1.499 . S
C681 C682 1.373 . S
C681 C683 1.389 . S
C682 H655 0.950 . S
C682 C668 1.377 . S
C682 C681 1.373 . S
C683 C667 1.377 . S
C683 C681 1.389 . S
C683 C684 1.524 . S
C684 C683 1.524 . S
C684 C685 1.397 . S
C684 C689 1.363 . S
C685 H656 0.950 . S
C685 C684 1.397 . S
C685 C686 1.334 . S
C686 H657 0.950 . S
C686 C685 1.334 . S
C686 C687 1.287 . S
C687 C686 1.287 . S
C687 C688 1.524 . S
C687 H690 0.999 . S
C688 H658 0.950 . S
C688 C687 1.524 . S
C688 C689 1.415 . S
C689 H659 0.950 . S
C689 C684 1.363 . S
C689 C688 1.415 . S
H690 C687 0.999 . S
H691 C672 0.913 . S
H692 C710 0.951 . S
H693 C712 0.951 . S
H694 C714 0.950 . S
H695 C715 0.950 . S
H696 C717 0.950 . S
H697 C720 0.950 . S
H698 C721 0.950 . S
H699 C723 0.950 . S
H700 C724 0.950 . S
H701 C725 0.951 . S
H702 C727 0.951 . S
H703 C729 0.950 . S
H704 C730 0.950 . S
H705 C732 0.950 . S
H706 C735 0.950 . S
H707 C736 0.950 . S
H708 C738 0.950 . S
H709 C739 0.950 . S
C710 H692 0.951 . S
C710 C711 1.366 . S
C710 C712 1.388 . S
C711 C710 1.366 . S
C711 C715 1.385 . S
C712 H693 0.951 . S
C712 C710 1.388 . S
C712 C713 1.366 . S
C713 C712 1.366 . S
C713 C714 1.414 . S
C713 C716 1.499 . S
C714 H694 0.950 . S
C714 C713 1.414 . S
C714 C715 1.374 . S
C715 H695 0.950 . S
C715 C711 1.385 . S
C715 C714 1.374 . S
C716 C713 1.499 . S
C716 C717 1.373 . S
C716 C718 1.389 . S
C717 H696 0.950 . S
C717 C716 1.373 . S
C717 C733 1.377 . S
C718 C716 1.389 . S
C718 C719 1.524 . S
C718 C732 1.377 . S
C719 C718 1.524 . S
C719 C720 1.397 . S
C719 C724 1.363 . S
C720 H697 0.950 . S
C720 C719 1.397 . S
C720 C721 1.334 . S
C721 H698 0.950 . S
C721 C720 1.334 . S
C721 C722 1.287 . S
C722 C721 1.287 . S
C722 C723 1.524 . S
C722 H741 0.913 . S
C723 H699 0.950 . S
C723 C722 1.524 . S
C723 C724 1.415 . S
C724 H700 0.950 . S
C724 C719 1.363 . S
C724 C723 1.415 . S
C725 H701 0.951 . S
C725 C726 1.366 . S
C725 C727 1.388 . S
C726 C725 1.366 . S
C726 C730 1.385 . S
C727 H702 0.951 . S
C727 C725 1.388 . S
C727 C728 1.366 . S
C728 C727 1.366 . S
C728 C729 1.414 . S
C728 C731 1.499 . S
C729 H703 0.950 . S
C729 C728 1.414 . S
C729 C730 1.374 . S
C730 H704 0.950 . S
C730 C726 1.385 . S
C730 C729 1.374 . S
C731 C728 1.499 . S
C731 C732 1.373 . S
C731 C733 1.389 . S
C732 H705 0.950 . S
C732 C718 1.377 . S
C732 C731 1.373 . S
C733 C717 1.377 . S
C733 C731 1.389 . S
C733 C734 1.524 . S
C734 C733 1.524 . S
C734 C735 1.397 . S
C734 C739 1.363 . S
C735 H706 0.950 . S
C735 C734 1.397 . S
C735 C736 1.334 . S
C736 H707 0.950 . S
C736 C735 1.334 . S
C736 C737 1.287 . S
C737 C736 1.287 . S
C737 C738 1.524 . S
C737 H740 0.999 . S
C738 H708 0.950 . S
C738 C737 1.524 . S
C738 C739 1.415 . S
C739 H709 0.950 . S
C739 C734 1.363 . S
C739 C738 1.415 . S
H740 C737 0.999 . S
H741 C722 0.913 . S
H742 C760 0.951 . S
H743 C762 0.951 . S
H744 C764 0.950 . S
H745 C765 0.950 . S
H746 C767 0.950 . S
H747 C770 0.950 . S
H748 C771 0.950 . S
H749 C773 0.950 . S
H750 C774 0.950 . S
H751 C775 0.951 . S
H752 C777 0.951 . S
H753 C779 0.950 . S
H754 C780 0.950 . S
H755 C782 0.950 . S
H756 C785 0.950 . S
H757 C786 0.950 . S
H758 C788 0.950 . S
H759 C789 0.950 . S
C760 H742 0.951 . S
C760 C761 1.366 . S
C760 C762 1.388 . S
C761 C760 1.366 . S
C761 C765 1.385 . S
C762 H743 0.951 . S
C762 C760 1.388 . S
C762 C763 1.366 . S
C763 C762 1.366 . S
C763 C764 1.414 . S
C763 C766 1.499 . S
C764 H744 0.950 . S
C764 C763 1.414 . S
C764 C765 1.374 . S
C765 H745 0.950 . S
C765 C761 1.385 . S
C765 C764 1.374 . S
C766 C763 1.499 . S
C766 C767 1.373 . S
C766 C768 1.389 . S
C767 H746 0.950 . S
C767 C766 1.373 . S
C767 C783 1.377 . S
C768 C766 1.389 . S
C768 C769 1.524 . S
C768 C782 1.377 . S
C769 C768 1.524 . S
C769 C770 1.397 . S
C769 C774 1.363 . S
C770 H747 0.950 . S
C770 C769 1.397 . S
C770 C771 1.334 . S
C771 H748 0.950 . S
C771 C770 1.334 . S
C771 C772 1.287 . S
C772 C771 1.287 . S
C772 C773 1.524 . S
C772 H791 0.913 . S
C773 H749 0.950 . S
C773 C772 1.524 . S
C773 C774 1.415 . S
C774 H750 0.950 . S
C774 C769 1.363 . S
C774 C773 1.415 . S
C775 H751 0.951 . S
C775 C776 1.366 . S
C775 C777 1.388 . S
C776 C775 1.366 . S
C776 C780 1.385 . S
C777 H752 0.951 . S
C777 C775 1.388 . S
C777 C778 1.366 . S
C778 C777 1.366 . S
C778 C779 1.414 . S
C778 C781 1.499 . S
C779 H753 0.950 . S
C779 C778 1.414 . S
C779 C780 1.374 . S
C780 H754 0.950 . S
C780 C776 1.385 . S
C780 C779 1.374 . S
C781 C778 1.499 . S
C781 C782 1.373 . S
C781 C783 1.389 . S
C782 H755 0.950 . S
C782 C768 1.377 . S
C782 C781 1.373 . S
C783 C767 1.377 . S
C783 C781 1.389 . S
C783 C784 1.524 . S
C784 C783 1.524 . S
C784 C785 1.397 . S
C784 C789 1.363 . S
C785 H756 0.950 . S
C785 C784 1.397 . S
C785 C786 1.334 . S
C786 H757 0.950 . S
C786 C785 1.334 . S
C786 C787 1.287 . S
C787 C786 1.287 . S
C787 C788 1.524 . S
C787 H790 0.999 . S
C788 H758 0.950 . S
C788 C787 1.524 . S
C788 C789 1.415 . S
C789 H759 0.950 . S
C789 C784 1.363 . S
C789 C788 1.415 . S
H790 C787 0.999 . S
H791 C772 0.913 . S
H792 C810 0.951 . S
H793 C812 0.951 . S
H794 C814 0.950 . S
H795 C815 0.950 . S
H796 C817 0.950 . S
H797 C820 0.950 . S
H798 C821 0.950 . S
H799 C823 0.950 . S
H800 C824 0.950 . S
H801 C825 0.951 . S
H802 C827 0.951 . S
H803 C829 0.950 . S
H804 C830 0.950 . S
H805 C832 0.950 . S
H806 C835 0.950 . S
H807 C836 0.950 . S
H808 C838 0.950 . S
H809 C839 0.950 . S
C810 H792 0.951 . S
C810 C811 1.366 . S
C810 C812 1.388 . S
C811 C810 1.366 . S
C811 C815 1.385 . S
C812 H793 0.951 . S
C812 C810 1.388 . S
C812 C813 1.366 . S
C813 C812 1.366 . S
C813 C814 1.414 . S
C813 C816 1.499 . S
C814 H794 0.950 . S
C814 C813 1.414 . S
C814 C815 1.374 . S
C815 H795 0.950 . S
C815 C811 1.385 . S
C815 C814 1.374 . S
C816 C813 1.499 . S
C816 C817 1.373 . S
C816 C818 1.389 . S
C817 H796 0.950 . S
C817 C816 1.373 . S
C817 C833 1.377 . S
C818 C816 1.389 . S
C818 C819 1.524 . S
C818 C832 1.377 . S
C819 C818 1.524 . S
C819 C820 1.397 . S
C819 C824 1.363 . S
C820 H797 0.950 . S
C820 C819 1.397 . S
C820 C821 1.334 . S
C821 H798 0.950 . S
C821 C820 1.334 . S
C821 C822 1.287 . S
C822 C821 1.287 . S
C822 C823 1.524 . S
C822 H841 0.913 . S
C823 H799 0.950 . S
C823 C822 1.524 . S
C823 C824 1.415 . S
C824 H800 0.950 . S
C824 C819 1.363 . S
C824 C823 1.415 . S
C825 H801 0.951 . S
C825 C826 1.366 . S
C825 C827 1.388 . S
C826 C825 1.366 . S
C826 C830 1.385 . S
C827 H802 0.951 . S
C827 C825 1.388 . S
C827 C828 1.366 . S
C828 C827 1.366 . S
C828 C829 1.414 . S
C828 C831 1.499 . S
C829 H803 0.950 . S
C829 C828 1.414 . S
C829 C830 1.374 . S
C830 H804 0.950 . S
C830 C826 1.385 . S
C830 C829 1.374 . S
C831 C828 1.499 . S
C831 C832 1.373 . S
C831 C833 1.389 . S
C832 H805 0.950 . S
C832 C818 1.377 . S
C832 C831 1.373 . S
C833 C817 1.377 . S
C833 C831 1.389 . S
C833 C834 1.524 . S
C834 C833 1.524 . S
C834 C835 1.397 . S
C834 C839 1.363 . S
C835 H806 0.950 . S
C835 C834 1.397 . S
C835 C836 1.334 . S
C836 H807 0.950 . S
C836 C835 1.334 . S
C836 C837 1.287 . S
C837 C836 1.287 . S
C837 C838 1.524 . S
C837 H840 0.999 . S
C838 H808 0.950 . S
C838 C837 1.524 . S
C838 C839 1.415 . S
C839 H809 0.950 . S
C839 C834 1.363 . S
C839 C838 1.415 . S
H840 C837 0.999 . S
H841 C822 0.913 . S
H842 C860 0.951 . S
H843 C862 0.951 . S
H844 C864 0.950 . S
H845 C865 0.950 . S
H846 C867 0.950 . S
H847 C870 0.950 . S
H848 C871 0.950 . S
H849 C873 0.950 . S
H850 C874 0.950 . S
H851 C875 0.951 . S
H852 C877 0.951 . S
H853 C879 0.950 . S
H854 C880 0.950 . S
H855 C882 0.950 . S
H856 C885 0.950 . S
H857 C886 0.950 . S
H858 C888 0.950 . S
H859 C889 0.950 . S
C860 H842 0.951 . S
C860 C861 1.366 . S
C860 C862 1.388 . S
C861 C860 1.366 . S
C861 C865 1.385 . S
C862 H843 0.951 . S
C862 C860 1.388 . S
C862 C863 1.366 . S
C863 C862 1.366 . S
C863 C864 1.414 . S
C863 C866 1.499 . S
C864 H844 0.950 . S
C864 C863 1.414 . S
C864 C865 1.374 . S
C865 H845 0.950 . S
C865 C861 1.385 . S
C865 C864 1.374 . S
C866 C863 1.499 . S
C866 C867 1.373 . S
C866 C868 1.389 . S
C867 H846 0.950 . S
C867 C866 1.373 . S
C867 C883 1.377 . S
C868 C866 1.389 . S
C868 C869 1.524 . S
C868 C882 1.377 . S
C869 C868 1.524 . S
C869 C870 1.397 . S
C869 C874 1.363 . S
C870 H847 0.950 . S
C870 C869 1.397 . S
C870 C871 1.334 . S
C871 H848 0.950 . S
C871 C870 1.334 . S
C871 C872 1.287 . S
C872 C871 1.287 . S
C872 C873 1.524 . S
C872 H891 0.913 . S
C873 H849 0.950 . S
C873 C872 1.524 . S
C873 C874 1.415 . S
C874 H850 0.950 . S
C874 C869 1.363 . S
C874 C873 1.415 . S
C875 H851 0.951 . S
C875 C876 1.366 . S
C875 C877 1.388 . S
C876 C875 1.366 . S
C876 C880 1.385 . S
C877 H852 0.951 . S
C877 C875 1.388 . S
C877 C878 1.366 . S
C878 C877 1.366 . S
C878 C879 1.414 . S
C878 C881 1.499 . S
C879 H853 0.950 . S
C879 C878 1.414 . S
C879 C880 1.374 . S
C880 H854 0.950 . S
C880 C876 1.385 . S
C880 C879 1.374 . S
C881 C878 1.499 . S
C881 C882 1.373 . S
C881 C883 1.389 . S
C882 H855 0.950 . S
C882 C868 1.377 . S
C882 C881 1.373 . S
C883 C867 1.377 . S
C883 C881 1.389 . S
C883 C884 1.524 . S
C884 C883 1.524 . S
C884 C885 1.397 . S
C884 C889 1.363 . S
C885 H856 0.950 . S
C885 C884 1.397 . S
C885 C886 1.334 . S
C886 H857 0.950 . S
C886 C885 1.334 . S
C886 C887 1.287 . S
C887 C886 1.287 . S
C887 C888 1.524 . S
C887 H890 0.999 . S
C888 H858 0.950 . S
C888 C887 1.524 . S
C888 C889 1.415 . S
C889 H859 0.950 . S
C889 C884 1.363 . S
C889 C888 1.415 . S
H890 C887 0.999 . S
H891 C872 0.913 . S
H892 C910 0.951 . S
H893 C912 0.951 . S
H894 C914 0.950 . S
H895 C915 0.950 . S
H896 C917 0.950 . S
H897 C920 0.950 . S
H898 C921 0.950 . S
H899 C923 0.950 . S
H900 C924 0.950 . S
H901 C925 0.951 . S
H902 C927 0.951 . S
H903 C929 0.950 . S
H904 C930 0.950 . S
H905 C932 0.950 . S
H906 C935 0.950 . S
H907 C936 0.950 . S
H908 C938 0.950 . S
H909 C939 0.950 . S
C910 H892 0.951 . S
C910 C911 1.366 . S
C910 C912 1.388 . S
C911 C910 1.366 . S
C911 C915 1.385 . S
C912 H893 0.951 . S
C912 C910 1.388 . S
C912 C913 1.366 . S
C913 C912 1.366 . S
C913 C914 1.414 . S
C913 C916 1.499 . S
C914 H894 0.950 . S
C914 C913 1.414 . S
C914 C915 1.374 . S
C915 H895 0.950 . S
C915 C911 1.385 . S
C915 C914 1.374 . S
C916 C913 1.499 . S
C916 C917 1.373 . S
C916 C918 1.389 . S
C917 H896 0.950 . S
C917 C916 1.373 . S
C917 C933 1.377 . S
C918 C916 1.389 . S
C918 C919 1.524 . S
C918 C932 1.377 . S
C919 C918 1.524 . S
C919 C920 1.397 . S
C919 C924 1.363 . S
C920 H897 0.950 . S
C920 C919 1.397 . S
C920 C921 1.334 . S
C921 H898 0.950 . S
C921 C920 1.334 . S
C921 C922 1.287 . S
C922 C921 1.287 . S
C922 C923 1.524 . S
C922 H941 0.913 . S
C923 H899 0.950 . S
C923 C922 1.524 . S
C923 C924 1.415 . S
C924 H900 0.950 . S
C924 C919 1.363 . S
C924 C923 1.415 . S
C925 H901 0.951 . S
C925 C926 1.366 . S
C925 C927 1.388 . S
C926 C925 1.366 . S
C926 C930 1.385 . S
C927 H902 0.951 . S
C927 C925 1.388 . S
C927 C928 1.366 . S
C928 C927 1.366 . S
C928 C929 1.414 . S
C928 C931 1.499 . S
C929 H903 0.950 . S
C929 C928 1.414 . S
C929 C930 1.374 . S
C930 H904 0.950 . S
C930 C926 1.385 . S
C930 C929 1.374 . S
C931 C928 1.499 . S
C931 C932 1.373 . S
C931 C933 1.389 . S
C932 H905 0.950 . S
C932 C918 1.377 . S
C932 C931 1.373 . S
C933 C917 1.377 . S
C933 C931 1.389 . S
C933 C934 1.524 . S
C934 C933 1.524 . S
C934 C935 1.397 . S
C934 C939 1.363 . S
C935 H906 0.950 . S
C935 C934 1.397 . S
C935 C936 1.334 . S
C936 H907 0.950 . S
C936 C935 1.334 . S
C936 C937 1.287 . S
C937 C936 1.287 . S
C937 C938 1.524 . S
C937 H940 0.999 . S
C938 H908 0.950 . S
C938 C937 1.524 . S
C938 C939 1.415 . S
C939 H909 0.950 . S
C939 C934 1.363 . S
C939 C938 1.415 . S
H940 C937 0.999 . S
H941 C922 0.913 . S
H942 C960 0.951 . S
H943 C962 0.951 . S
H944 C964 0.950 . S
H945 C965 0.950 . S
H946 C967 0.950 . S
H947 C970 0.950 . S
H948 C971 0.950 . S
H949 C973 0.950 . S
H950 C974 0.950 . S
H951 C975 0.951 . S
H952 C977 0.951 . S
H953 C979 0.950 . S
H954 C980 0.950 . S
H955 C982 0.950 . S
H956 C985 0.950 . S
H957 C986 0.950 . S
H958 C988 0.950 . S
H959 C989 0.950 . S
C960 H942 0.951 . S
C960 C961 1.366 . S
C960 C962 1.388 . S
C961 C960 1.366 . S
C961 C965 1.385 . S
C962 H943 0.951 . S
C962 C960 1.388 . S
C962 C963 1.366 . S
C963 C962 1.366 . S
C963 C964 1.414 . S
C963 C966 1.499 . S
C964 H944 0.950 . S
C964 C963 1.414 . S
C964 C965 1.374 . S
C965 H945 0.950 . S
C965 C961 1.385 . S
C965 C964 1.374 . S
C966 C963 1.499 . S
C966 C967 1.373 . S
C966 C968 1.389 . S
C967 H946 0.950 . S
C967 C966 1.373 . S
C967 C983 1.377 . S
C968 C966 1.389 . S
C968 C969 1.524 . S
C968 C982 1.377 . S
C969 C968 1.524 . S
C969 C970 1.397 . S
C969 C974 1.363 . S
C970 H947 0.950 . S
C970 C969 1.397 . S
C970 C971 1.334 . S
C971 H948 0.950 . S
C971 C970 1.334 . S
C971 C972 1.287 . S
C972 C971 1.287 . S
C972 C973 1.524 . S
C972 H991 0.913 . S
C973 H949 0.950 . S
C973 C972 1.524 . S
C973 C974 1.415 . S
C974 H950 0.950 . S
C974 C969 1.363 . S
C974 C973 1.415 . S
C975 H951 0.951 . S
C975 C976 1.366 . S
C975 C977 1.388 . S
C976 C975 1.366 . S
C976 C980 1.385 . S
C977 H952 0.951 . S
C977 C975 1.388 . S
C977 C978 1.366 . S
C978 C977 1.366 . S
C978 C979 1.414 . S
C978 C981 1.499 . S
C979 H953 0.950 . S
C979 C978 1.414 . S
C979 C980 1.374 . S
C980 H954 0.950 . S
C980 C976 1.385 . S
C980 C979 1.374 . S
C981 C978 1.499 . S
C981 C982 1.373 . S
C981 C983 1.389 . S
C982 H955 0.950 . S
C982 C968 1.377 . S
C982 C981 1.373 . S
C983 C967 1.377 . S
C983 C981 1.389 . S
C983 C984 1.524 . S
C984 C983 1.524 . S
C984 C985 1.397 . S
C984 C989 1.363 . S
C985 H956 0.950 . S
C985 C984 1.397 . S
C985 C986 1.334 . S
C986 H957 0.950 . S
C986 C985 1.334 . S
C986 C987 1.287 . S
C987 C986 1.287 . S
C987 C988 1.524 . S
C987 H990 0.999 . S
C988 H958 0.950 . S
C988 C987 1.524 . S
C988 C989 1.415 . S
C989 H959 0.950 . S
C989 C984 1.363 . S
C989 C988 1.415 . S
H990 C987 0.999 . S
H991 C972 0.913 . S
H992 C1010 0.951 . S
H993 C1012 0.951 . S
H994 C1014 0.950 1_556 S
H995 C1015 0.950 1_556 S
H996 C1017 0.950 . S
H997 C1020 0.950 . S
H998 C1021 0.950 . S
H999 C1023 0.950 . S
H1000 C1024 0.950 . S
H1001 C1025 0.951 1_556 S
H1002 C1027 0.951 . S
H1003 C1029 0.950 . S
H1004 C1030 0.950 . S
H1005 C1032 0.950 . S
H1006 C1035 0.950 . S
H1007 C1036 0.950 . S
H1008 C1038 0.950 . S
H1009 C1039 0.950 . S
C1010 H992 0.951 . S
C1010 C1011 1.366 . S
C1010 C1012 1.388 . S
C1011 C1010 1.366 . S
C1011 C1015 1.385 . S
C1012 H993 0.951 . S
C1012 C1010 1.388 . S
C1012 C1013 1.366 . S
C1013 C1012 1.366 . S
C1013 C1014 1.414 . S
C1013 C1016 1.499 . S
C1014 H994 0.950 1_554 S
C1014 C1013 1.414 . S
C1014 C1015 1.374 . S
C1015 H995 0.950 1_554 S
C1015 C1011 1.385 . S
C1015 C1014 1.374 . S
C1016 C1013 1.499 . S
C1016 C1017 1.373 . S
C1016 C1018 1.389 1_554 S
C1017 H996 0.950 . S
C1017 C1016 1.373 . S
C1017 C1033 1.377 . S
C1018 C1016 1.389 1_556 S
C1018 C1019 1.524 . S
C1018 C1032 1.377 . S
C1019 C1018 1.524 . S
C1019 C1020 1.397 . S
C1019 C1024 1.363 . S
C1020 H997 0.950 . S
C1020 C1019 1.397 . S
C1020 C1021 1.334 . S
C1021 H998 0.950 . S
C1021 C1020 1.334 . S
C1021 C1022 1.287 . S
C1022 C1021 1.287 . S
C1022 C1023 1.524 . S
C1022 H1041 0.913 . S
C1023 H999 0.950 . S
C1023 C1022 1.524 . S
C1023 C1024 1.415 . S
C1024 H1000 0.950 . S
C1024 C1019 1.363 . S
C1024 C1023 1.415 . S
C1025 H1001 0.951 1_554 S
C1025 C1026 1.366 . S
C1025 C1027 1.388 . S
C1026 C1025 1.366 . S
C1026 C1030 1.385 . S
C1027 H1002 0.951 . S
C1027 C1025 1.388 . S
C1027 C1028 1.366 . S
C1028 C1027 1.366 . S
C1028 C1029 1.414 . S
C1028 C1031 1.499 . S
C1029 H1003 0.950 . S
C1029 C1028 1.414 . S
C1029 C1030 1.374 . S
C1030 H1004 0.950 . S
C1030 C1026 1.385 . S
C1030 C1029 1.374 . S
C1031 C1028 1.499 . S
C1031 C1032 1.373 1_554 S
C1031 C1033 1.389 . S
C1032 H1005 0.950 . S
C1032 C1018 1.377 . S
C1032 C1031 1.373 1_556 S
C1033 C1017 1.377 . S
C1033 C1031 1.389 . S
C1033 C1034 1.524 . S
C1034 C1033 1.524 . S
C1034 C1035 1.397 . S
C1034 C1039 1.363 . S
C1035 H1006 0.950 . S
C1035 C1034 1.397 . S
C1035 C1036 1.334 . S
C1036 H1007 0.950 . S
C1036 C1035 1.334 . S
C1036 C1037 1.287 . S
C1037 C1036 1.287 . S
C1037 C1038 1.524 . S
C1037 H1040 0.999 . S
C1038 H1008 0.950 . S
C1038 C1037 1.524 . S
C1038 C1039 1.415 . S
C1039 H1009 0.950 . S
C1039 C1034 1.363 . S
C1039 C1038 1.415 . S
H1040 C1037 0.999 . S
H1041 C1022 0.913 . S
H1042 C1060 0.951 . S
H1043 C1062 0.951 . S
H1044 C1064 0.950 . S
H1045 C1065 0.950 . S
H1046 C1067 0.950 . S
H1047 C1070 0.950 . S
H1048 C1071 0.950 . S
H1049 C1073 0.950 . S
H1050 C1074 0.950 . S
H1051 C1075 0.951 . S
H1052 C1077 0.951 . S
H1053 C1079 0.950 . S
H1054 C1080 0.950 . S
H1055 C1082 0.950 . S
H1056 C1085 0.950 . S
H1057 C1086 0.950 . S
H1058 C1088 0.950 . S
H1059 C1089 0.950 . S
C1060 H1042 0.951 . S
C1060 C1061 1.366 . S
C1060 C1062 1.388 . S
C1061 C1060 1.366 . S
C1061 C1065 1.385 . S
C1062 H1043 0.951 . S
C1062 C1060 1.388 . S
C1062 C1063 1.366 . S
C1063 C1062 1.366 . S
C1063 C1064 1.414 . S
C1063 C1066 1.499 . S
C1064 H1044 0.950 . S
C1064 C1063 1.414 . S
C1064 C1065 1.374 . S
C1065 H1045 0.950 . S
C1065 C1061 1.385 . S
C1065 C1064 1.374 . S
C1066 C1063 1.499 . S
C1066 C1067 1.373 . S
C1066 C1068 1.389 . S
C1067 H1046 0.950 . S
C1067 C1066 1.373 . S
C1067 C1083 1.377 . S
C1068 C1066 1.389 . S
C1068 C1069 1.524 . S
C1068 C1082 1.377 . S
C1069 C1068 1.524 . S
C1069 C1070 1.397 . S
C1069 C1074 1.363 . S
C1070 H1047 0.950 . S
C1070 C1069 1.397 . S
C1070 C1071 1.334 . S
C1071 H1048 0.950 . S
C1071 C1070 1.334 . S
C1071 C1072 1.287 . S
C1072 C1071 1.287 . S
C1072 C1073 1.524 . S
C1072 H1091 0.913 . S
C1073 H1049 0.950 . S
C1073 C1072 1.524 . S
C1073 C1074 1.415 . S
C1074 H1050 0.950 . S
C1074 C1069 1.363 . S
C1074 C1073 1.415 . S
C1075 H1051 0.951 . S
C1075 C1076 1.366 . S
C1075 C1077 1.388 . S
C1076 C1075 1.366 . S
C1076 C1080 1.385 . S
C1077 H1052 0.951 . S
C1077 C1075 1.388 . S
C1077 C1078 1.366 . S
C1078 C1077 1.366 . S
C1078 C1079 1.414 . S
C1078 C1081 1.499 . S
C1079 H1053 0.950 . S
C1079 C1078 1.414 . S
C1079 C1080 1.374 . S
C1080 H1054 0.950 . S
C1080 C1076 1.385 . S
C1080 C1079 1.374 . S
C1081 C1078 1.499 . S
C1081 C1082 1.373 . S
C1081 C1083 1.389 . S
C1082 H1055 0.950 . S
C1082 C1068 1.377 . S
C1082 C1081 1.373 . S
C1083 C1067 1.377 . S
C1083 C1081 1.389 . S
C1083 C1084 1.524 . S
C1084 C1083 1.524 . S
C1084 C1085 1.397 . S
C1084 C1089 1.363 . S
C1085 H1056 0.950 . S
C1085 C1084 1.397 . S
C1085 C1086 1.334 . S
C1086 H1057 0.950 . S
C1086 C1085 1.334 . S
C1086 C1087 1.287 . S
C1087 C1086 1.287 . S
C1087 C1088 1.524 . S
C1087 H1090 0.999 . S
C1088 H1058 0.950 . S
C1088 C1087 1.524 . S
C1088 C1089 1.415 . S
C1089 H1059 0.950 . S
C1089 C1084 1.363 . S
C1089 C1088 1.415 . S
H1090 C1087 0.999 . S
H1091 C1072 0.913 . S
H1092 C1110 0.951 . S
H1093 C1112 0.951 . S
H1094 C1114 0.950 . S
H1095 C1115 0.950 . S
H1096 C1117 0.950 . S
H1097 C1120 0.950 . S
H1098 C1121 0.950 . S
H1099 C1123 0.950 . S
H1100 C1124 0.950 . S
H1101 C1125 0.951 . S
H1102 C1127 0.951 . S
H1103 C1129 0.950 . S
H1104 C1130 0.950 . S
H1105 C1132 0.950 . S
H1106 C1135 0.950 . S
H1107 C1136 0.950 . S
H1108 C1138 0.950 . S
H1109 C1139 0.950 . S
C1110 H1092 0.951 . S
C1110 C1111 1.366 . S
C1110 C1112 1.388 . S
C1111 C1110 1.366 . S
C1111 C1115 1.385 . S
C1112 H1093 0.951 . S
C1112 C1110 1.388 . S
C1112 C1113 1.366 . S
C1113 C1112 1.366 . S
C1113 C1114 1.414 . S
C1113 C1116 1.499 . S
C1114 H1094 0.950 . S
C1114 C1113 1.414 . S
C1114 C1115 1.374 . S
C1115 H1095 0.950 . S
C1115 C1111 1.385 . S
C1115 C1114 1.374 . S
C1116 C1113 1.499 . S
C1116 C1117 1.373 . S
C1116 C1118 1.389 1_554 S
C1117 H1096 0.950 . S
C1117 C1116 1.373 . S
C1117 C1133 1.377 . S
C1118 C1116 1.389 1_556 S
C1118 C1119 1.524 . S
C1118 C1132 1.377 . S
C1119 C1118 1.524 . S
C1119 C1120 1.397 . S
C1119 C1124 1.363 . S
C1120 H1097 0.950 . S
C1120 C1119 1.397 . S
C1120 C1121 1.334 . S
C1121 H1098 0.950 . S
C1121 C1120 1.334 . S
C1121 C1122 1.287 . S
C1122 C1121 1.287 . S
C1122 C1123 1.524 . S
C1122 H1141 0.913 . S
C1123 H1099 0.950 . S
C1123 C1122 1.524 . S
C1123 C1124 1.415 . S
C1124 H1100 0.950 . S
C1124 C1119 1.363 . S
C1124 C1123 1.415 . S
C1125 H1101 0.951 . S
C1125 C1126 1.366 . S
C1125 C1127 1.388 . S
C1126 C1125 1.366 . S
C1126 C1130 1.385 . S
C1127 H1102 0.951 . S
C1127 C1125 1.388 . S
C1127 C1128 1.366 . S
C1128 C1127 1.366 . S
C1128 C1129 1.414 . S
C1128 C1131 1.499 . S
C1129 H1103 0.950 . S
C1129 C1128 1.414 . S
C1129 C1130 1.374 . S
C1130 H1104 0.950 . S
C1130 C1126 1.385 . S
C1130 C1129 1.374 . S
C1131 C1128 1.499 . S
C1131 C1132 1.373 1_554 S
C1131 C1133 1.389 . S
C1132 H1105 0.950 . S
C1132 C1118 1.377 . S
C1132 C1131 1.373 1_556 S
C1133 C1117 1.377 . S
C1133 C1131 1.389 . S
C1133 C1134 1.524 . S
C1134 C1133 1.524 . S
C1134 C1135 1.397 . S
C1134 C1139 1.363 . S
C1135 H1106 0.950 . S
C1135 C1134 1.397 . S
C1135 C1136 1.334 . S
C1136 H1107 0.950 . S
C1136 C1135 1.334 . S
C1136 C1137 1.287 . S
C1137 C1136 1.287 . S
C1137 C1138 1.524 . S
C1137 H1140 0.999 . S
C1138 H1108 0.950 . S
C1138 C1137 1.524 . S
C1138 C1139 1.415 . S
C1139 H1109 0.950 . S
C1139 C1134 1.363 . S
C1139 C1138 1.415 . S
H1140 C1137 0.999 . S
H1141 C1122 0.913 . S
H1142 C1160 0.951 . S
H1143 C1162 0.951 . S
H1144 C1164 0.950 . S
H1145 C1165 0.950 . S
H1146 C1167 0.950 . S
H1147 C1170 0.950 . S
H1148 C1171 0.950 . S
H1149 C1173 0.950 . S
H1150 C1174 0.950 . S
H1151 C1175 0.951 . S
H1152 C1177 0.951 . S
H1153 C1179 0.950 . S
H1154 C1180 0.950 . S
H1155 C1182 0.950 . S
H1156 C1185 0.950 . S
H1157 C1186 0.950 . S
H1158 C1188 0.950 . S
H1159 C1189 0.950 . S
C1160 H1142 0.951 . S
C1160 C1161 1.366 . S
C1160 C1162 1.388 . S
C1161 C1160 1.366 . S
C1161 C1165 1.385 . S
C1162 H1143 0.951 . S
C1162 C1160 1.388 . S
C1162 C1163 1.366 . S
C1163 C1162 1.366 . S
C1163 C1164 1.414 . S
C1163 C1166 1.499 . S
C1164 H1144 0.950 . S
C1164 C1163 1.414 . S
C1164 C1165 1.374 . S
C1165 H1145 0.950 . S
C1165 C1161 1.385 . S
C1165 C1164 1.374 . S
C1166 C1163 1.499 . S
C1166 C1167 1.373 . S
C1166 C1168 1.389 . S
C1167 H1146 0.950 . S
C1167 C1166 1.373 . S
C1167 C1183 1.377 . S
C1168 C1166 1.389 . S
C1168 C1169 1.524 . S
C1168 C1182 1.377 . S
C1169 C1168 1.524 . S
C1169 C1170 1.397 . S
C1169 C1174 1.363 . S
C1170 H1147 0.950 . S
C1170 C1169 1.397 . S
C1170 C1171 1.334 . S
C1171 H1148 0.950 . S
C1171 C1170 1.334 . S
C1171 C1172 1.287 . S
C1172 C1171 1.287 . S
C1172 C1173 1.524 . S
C1172 H1191 0.913 . S
C1173 H1149 0.950 . S
C1173 C1172 1.524 . S
C1173 C1174 1.415 . S
C1174 H1150 0.950 . S
C1174 C1169 1.363 . S
C1174 C1173 1.415 . S
C1175 H1151 0.951 . S
C1175 C1176 1.366 . S
C1175 C1177 1.388 . S
C1176 C1175 1.366 . S
C1176 C1180 1.385 . S
C1177 H1152 0.951 . S
C1177 C1175 1.388 . S
C1177 C1178 1.366 . S
C1178 C1177 1.366 . S
C1178 C1179 1.414 . S
C1178 C1181 1.499 . S
C1179 H1153 0.950 . S
C1179 C1178 1.414 . S
C1179 C1180 1.374 . S
C1180 H1154 0.950 . S
C1180 C1176 1.385 . S
C1180 C1179 1.374 . S
C1181 C1178 1.499 . S
C1181 C1182 1.373 . S
C1181 C1183 1.389 . S
C1182 H1155 0.950 . S
C1182 C1168 1.377 . S
C1182 C1181 1.373 . S
C1183 C1167 1.377 . S
C1183 C1181 1.389 . S
C1183 C1184 1.524 . S
C1184 C1183 1.524 . S
C1184 C1185 1.397 . S
C1184 C1189 1.363 . S
C1185 H1156 0.950 . S
C1185 C1184 1.397 . S
C1185 C1186 1.334 . S
C1186 H1157 0.950 . S
C1186 C1185 1.334 . S
C1186 C1187 1.287 . S
C1187 C1186 1.287 . S
C1187 C1188 1.524 . S
C1187 H1190 0.999 . S
C1188 H1158 0.950 . S
C1188 C1187 1.524 . S
C1188 C1189 1.415 . S
C1189 H1159 0.950 . S
C1189 C1184 1.363 . S
C1189 C1188 1.415 . S
H1190 C1187 0.999 . S
H1191 C1172 0.913 . S
H1192 C1210 0.951 . S
H1193 C1212 0.951 . S
H1194 C1214 0.950 . S
H1195 C1215 0.950 . S
H1196 C1217 0.950 . S
H1197 C1220 0.950 . S
H1198 C1221 0.950 . S
H1199 C1223 0.950 . S
H1200 C1224 0.950 . S
H1201 C1225 0.951 . S
H1202 C1227 0.951 . S
H1203 C1229 0.950 . S
H1204 C1230 0.950 . S
H1205 C1232 0.950 . S
H1206 C1235 0.950 . S
H1207 C1236 0.950 . S
H1208 C1238 0.950 . S
H1209 C1239 0.950 . S
C1210 H1192 0.951 . S
C1210 C1211 1.366 . S
C1210 C1212 1.388 . S
C1211 C1210 1.366 . S
C1211 C1215 1.385 . S
C1212 H1193 0.951 . S
C1212 C1210 1.388 . S
C1212 C1213 1.366 . S
C1213 C1212 1.366 . S
C1213 C1214 1.414 . S
C1213 C1216 1.499 . S
C1214 H1194 0.950 . S
C1214 C1213 1.414 . S
C1214 C1215 1.374 . S
C1215 H1195 0.950 . S
C1215 C1211 1.385 . S
C1215 C1214 1.374 . S
C1216 C1213 1.499 . S
C1216 C1217 1.373 . S
C1216 C1218 1.389 . S
C1217 H1196 0.950 . S
C1217 C1216 1.373 . S
C1217 C1233 1.377 . S
C1218 C1216 1.389 . S
C1218 C1219 1.524 . S
C1218 C1232 1.377 . S
C1219 C1218 1.524 . S
C1219 C1220 1.397 . S
C1219 C1224 1.363 . S
C1220 H1197 0.950 . S
C1220 C1219 1.397 . S
C1220 C1221 1.334 . S
C1221 H1198 0.950 . S
C1221 C1220 1.334 . S
C1221 C1222 1.287 . S
C1222 C1221 1.287 . S
C1222 C1223 1.524 . S
C1222 H1241 0.913 . S
C1223 H1199 0.950 . S
C1223 C1222 1.524 . S
C1223 C1224 1.415 . S
C1224 H1200 0.950 . S
C1224 C1219 1.363 . S
C1224 C1223 1.415 . S
C1225 H1201 0.951 . S
C1225 C1226 1.366 . S
C1225 C1227 1.388 . S
C1226 C1225 1.366 . S
C1226 C1230 1.385 . S
C1227 H1202 0.951 . S
C1227 C1225 1.388 . S
C1227 C1228 1.366 . S
C1228 C1227 1.366 . S
C1228 C1229 1.414 . S
C1228 C1231 1.499 . S
C1229 H1203 0.950 . S
C1229 C1228 1.414 . S
C1229 C1230 1.374 . S
C1230 H1204 0.950 . S
C1230 C1226 1.385 . S
C1230 C1229 1.374 . S
C1231 C1228 1.499 . S
C1231 C1232 1.373 . S
C1231 C1233 1.389 . S
C1232 H1205 0.950 . S
C1232 C1218 1.377 . S
C1232 C1231 1.373 . S
C1233 C1217 1.377 . S
C1233 C1231 1.389 . S
C1233 C1234 1.524 . S
C1234 C1233 1.524 . S
C1234 C1235 1.397 . S
C1234 C1239 1.363 . S
C1235 H1206 0.950 . S
C1235 C1234 1.397 . S
C1235 C1236 1.334 . S
C1236 H1207 0.950 . S
C1236 C1235 1.334 . S
C1236 C1237 1.287 . S
C1237 C1236 1.287 . S
C1237 C1238 1.524 . S
C1237 H1240 0.999 . S
C1238 H1208 0.950 . S
C1238 C1237 1.524 . S
C1238 C1239 1.415 . S
C1239 H1209 0.950 . S
C1239 C1234 1.363 . S
C1239 C1238 1.415 . S
H1240 C1237 0.999 . S
H1241 C1222 0.913 . S
H1242 C1260 0.951 . S
H1243 C1262 0.951 . S
H1244 C1264 0.950 1_556 S
H1245 C1265 0.948 1_556 S
H1246 C1267 0.950 . S
H1247 C1270 0.950 . S
H1248 C1271 0.950 . S
H1249 C1273 0.950 . S
H1250 C1274 0.950 . S
H1251 C1275 0.952 . S
H1252 C1277 0.951 . S
H1253 C1279 0.950 . S
H1254 C1280 0.950 . S
H1255 C1282 0.950 . S
H1256 C1285 0.950 . S
H1257 C1286 0.950 . S
H1258 C1288 0.950 . S
H1259 C1289 0.950 . S
C1260 H1242 0.951 . S
C1260 C1261 1.366 . S
C1260 C1262 1.388 . S
C1261 C1260 1.366 . S
C1261 C1265 1.385 . S
C1262 H1243 0.951 . S
C1262 C1260 1.388 . S
C1262 C1263 1.366 . S
C1263 C1262 1.366 . S
C1263 C1264 1.414 . S
C1263 C1266 1.499 . S
C1264 H1244 0.950 1_554 S
C1264 C1263 1.414 . S
C1264 C1265 1.374 . S
C1265 H1245 0.948 1_554 S
C1265 C1261 1.385 . S
C1265 C1264 1.374 . S
C1266 C1263 1.499 . S
C1266 C1267 1.373 1_554 S
C1266 C1268 1.389 . S
C1267 H1246 0.950 . S
C1267 C1266 1.373 1_556 S
C1267 C1283 1.377 . S
C1268 C1266 1.389 . S
C1268 C1269 1.524 . S
C1268 C1282 1.377 . S
C1269 C1268 1.524 . S
C1269 C1270 1.397 . S
C1269 C1274 1.363 . S
C1270 H1247 0.950 . S
C1270 C1269 1.397 . S
C1270 C1271 1.334 . S
C1271 H1248 0.950 . S
C1271 C1270 1.334 . S
C1271 C1272 1.287 . S
C1272 C1271 1.287 . S
C1272 C1273 1.524 . S
C1272 H1291 0.913 . S
C1273 H1249 0.950 . S
C1273 C1272 1.524 . S
C1273 C1274 1.415 . S
C1274 H1250 0.950 . S
C1274 C1269 1.363 . S
C1274 C1273 1.415 . S
C1275 H1251 0.952 . S
C1275 C1276 1.364 1_556 S
C1275 C1277 1.388 . S
C1276 C1275 1.364 1_554 S
C1276 C1280 1.385 . S
C1277 H1252 0.951 . S
C1277 C1275 1.388 . S
C1277 C1278 1.366 1_556 S
C1278 C1277 1.366 1_554 S
C1278 C1279 1.414 . S
C1278 C1281 1.499 . S
C1279 H1253 0.950 . S
C1279 C1278 1.414 . S
C1279 C1280 1.374 . S
C1280 H1254 0.950 . S
C1280 C1276 1.385 . S
C1280 C1279 1.374 . S
C1281 C1278 1.499 . S
C1281 C1282 1.373 . S
C1281 C1283 1.389 1_554 S
C1282 H1255 0.950 . S
C1282 C1268 1.377 . S
C1282 C1281 1.373 . S
C1283 C1267 1.377 . S
C1283 C1281 1.389 1_556 S
C1283 C1284 1.524 . S
C1284 C1283 1.524 . S
C1284 C1285 1.397 . S
C1284 C1289 1.363 . S
C1285 H1256 0.950 . S
C1285 C1284 1.397 . S
C1285 C1286 1.334 . S
C1286 H1257 0.950 . S
C1286 C1285 1.334 . S
C1286 C1287 1.287 . S
C1287 C1286 1.287 . S
C1287 C1288 1.524 . S
C1287 H1290 0.999 . S
C1288 H1258 0.950 . S
C1288 C1287 1.524 . S
C1288 C1289 1.415 . S
C1289 H1259 0.950 . S
C1289 C1284 1.363 . S
C1289 C1288 1.415 . S
H1290 C1287 0.999 . S
H1291 C1272 0.913 . S
H1292 C1310 0.951 . S
H1293 C1312 0.951 . S
H1294 C1314 0.950 . S
H1295 C1315 0.950 . S
H1296 C1317 0.950 . S
H1297 C1320 0.950 . S
H1298 C1321 0.950 . S
H1299 C1323 0.950 . S
H1300 C1324 0.950 . S
H1301 C1325 0.951 . S
H1302 C1327 0.951 . S
H1303 C1329 0.950 . S
H1304 C1330 0.950 . S
H1305 C1332 0.950 . S
H1306 C1335 0.950 . S
H1307 C1336 0.950 . S
H1308 C1338 0.950 . S
H1309 C1339 0.950 . S
C1310 H1292 0.951 . S
C1310 C1311 1.366 . S
C1310 C1312 1.388 . S
C1311 C1310 1.366 . S
C1311 C1315 1.385 . S
C1312 H1293 0.951 . S
C1312 C1310 1.388 . S
C1312 C1313 1.366 . S
C1313 C1312 1.366 . S
C1313 C1314 1.414 . S
C1313 C1316 1.499 . S
C1314 H1294 0.950 . S
C1314 C1313 1.414 . S
C1314 C1315 1.374 . S
C1315 H1295 0.950 . S
C1315 C1311 1.385 . S
C1315 C1314 1.374 . S
C1316 C1313 1.499 . S
C1316 C1317 1.373 . S
C1316 C1318 1.389 . S
C1317 H1296 0.950 . S
C1317 C1316 1.373 . S
C1317 C1333 1.377 . S
C1318 C1316 1.389 . S
C1318 C1319 1.524 . S
C1318 C1332 1.377 . S
C1319 C1318 1.524 . S
C1319 C1320 1.397 . S
C1319 C1324 1.363 . S
C1320 H1297 0.950 . S
C1320 C1319 1.397 . S
C1320 C1321 1.334 . S
C1321 H1298 0.950 . S
C1321 C1320 1.334 . S
C1321 C1322 1.287 . S
C1322 C1321 1.287 . S
C1322 C1323 1.524 . S
C1322 H1341 0.913 . S
C1323 H1299 0.950 . S
C1323 C1322 1.524 . S
C1323 C1324 1.415 . S
C1324 H1300 0.950 . S
C1324 C1319 1.363 . S
C1324 C1323 1.415 . S
C1325 H1301 0.951 . S
C1325 C1326 1.366 . S
C1325 C1327 1.388 . S
C1326 C1325 1.366 . S
C1326 C1330 1.385 . S
C1327 H1302 0.951 . S
C1327 C1325 1.388 . S
C1327 C1328 1.366 . S
C1328 C1327 1.366 . S
C1328 C1329 1.414 . S
C1328 C1331 1.499 . S
C1329 H1303 0.950 . S
C1329 C1328 1.414 . S
C1329 C1330 1.374 . S
C1330 H1304 0.950 . S
C1330 C1326 1.385 . S
C1330 C1329 1.374 . S
C1331 C1328 1.499 . S
C1331 C1332 1.373 . S
C1331 C1333 1.389 . S
C1332 H1305 0.950 . S
C1332 C1318 1.377 . S
C1332 C1331 1.373 . S
C1333 C1317 1.377 . S
C1333 C1331 1.389 . S
C1333 C1334 1.524 . S
C1334 C1333 1.524 . S
C1334 C1335 1.397 . S
C1334 C1339 1.363 . S
C1335 H1306 0.950 . S
C1335 C1334 1.397 . S
C1335 C1336 1.334 . S
C1336 H1307 0.950 . S
C1336 C1335 1.334 . S
C1336 C1337 1.287 . S
C1337 C1336 1.287 . S
C1337 C1338 1.524 . S
C1337 H1340 0.999 . S
C1338 H1308 0.950 . S
C1338 C1337 1.524 . S
C1338 C1339 1.415 . S
C1339 H1309 0.950 . S
C1339 C1334 1.363 . S
C1339 C1338 1.415 . S
H1340 C1337 0.999 . S
H1341 C1322 0.913 . S
H1342 C1360 0.951 . S
H1343 C1362 0.951 . S
H1344 C1364 0.950 . S
H1345 C1365 0.950 . S
H1346 C1367 0.950 . S
H1347 C1370 0.950 . S
H1348 C1371 0.950 . S
H1349 C1373 0.950 . S
H1350 C1374 0.950 1_554 S
H1351 C1375 0.951 . S
H1352 C1377 0.951 . S
H1353 C1379 0.950 . S
H1354 C1380 0.950 . S
H1355 C1382 0.950 . S
H1356 C1385 0.950 . S
H1357 C1386 0.950 . S
H1358 C1388 0.950 . S
H1359 C1389 0.950 . S
C1360 H1342 0.951 . S
C1360 C1361 1.366 . S
C1360 C1362 1.388 . S
C1361 C1360 1.366 . S
C1361 C1365 1.385 1_554 S
C1362 H1343 0.951 . S
C1362 C1360 1.388 . S
C1362 C1363 1.366 . S
C1363 C1362 1.366 . S
C1363 C1364 1.414 1_554 S
C1363 C1366 1.499 . S
C1364 H1344 0.950 . S
C1364 C1363 1.414 1_556 S
C1364 C1365 1.374 . S
C1365 H1345 0.950 . S
C1365 C1361 1.385 1_556 S
C1365 C1364 1.374 . S
C1366 C1363 1.499 . S
C1366 C1367 1.373 . S
C1366 C1368 1.389 1_554 S
C1367 H1346 0.950 . S
C1367 C1366 1.373 . S
C1367 C1383 1.377 . S
C1368 C1366 1.389 1_556 S
C1368 C1369 1.524 . S
C1368 C1382 1.377 . S
C1369 C1368 1.524 . S
C1369 C1370 1.397 . S
C1369 C1374 1.363 . S
C1370 H1347 0.950 . S
C1370 C1369 1.397 . S
C1370 C1371 1.334 . S
C1371 H1348 0.950 . S
C1371 C1370 1.334 . S
C1371 C1372 1.287 . S
C1372 C1371 1.287 . S
C1372 C1373 1.524 . S
C1372 H1391 0.913 . S
C1373 H1349 0.950 . S
C1373 C1372 1.524 . S
C1373 C1374 1.415 . S
C1374 H1350 0.950 1_556 S
C1374 C1369 1.363 . S
C1374 C1373 1.415 . S
C1375 H1351 0.951 . S
C1375 C1376 1.366 1_556 S
C1375 C1377 1.388 . S
C1376 C1375 1.366 1_554 S
C1376 C1380 1.385 . S
C1377 H1352 0.951 . S
C1377 C1375 1.388 . S
C1377 C1378 1.366 1_556 S
C1378 C1377 1.366 1_554 S
C1378 C1379 1.414 . S
C1378 C1381 1.499 . S
C1379 H1353 0.950 . S
C1379 C1378 1.414 . S
C1379 C1380 1.374 . S
C1380 H1354 0.950 . S
C1380 C1376 1.385 . S
C1380 C1379 1.374 . S
C1381 C1378 1.499 . S
C1381 C1382 1.373 1_554 S
C1381 C1383 1.389 . S
C1382 H1355 0.950 . S
C1382 C1368 1.377 . S
C1382 C1381 1.373 1_556 S
C1383 C1367 1.377 . S
C1383 C1381 1.389 . S
C1383 C1384 1.524 . S
C1384 C1383 1.524 . S
C1384 C1385 1.397 . S
C1384 C1389 1.363 . S
C1385 H1356 0.950 . S
C1385 C1384 1.397 . S
C1385 C1386 1.334 . S
C1386 H1357 0.950 . S
C1386 C1385 1.334 . S
C1386 C1387 1.287 . S
C1387 C1386 1.287 . S
C1387 C1388 1.524 . S
C1387 H1390 0.999 . S
C1388 H1358 0.950 . S
C1388 C1387 1.524 . S
C1388 C1389 1.415 . S
C1389 H1359 0.950 . S
C1389 C1384 1.363 . S
C1389 C1388 1.415 . S
H1390 C1387 0.999 . S
H1391 C1372 0.913 . S
C211 C21 1.495 . S
C226 C135 1.501 . S
C261 C40 1.509 . S
C276 C97 1.480 . S
C326 C110 1.434 . S
C311 C54 1.455 . S
C361 C73 1.507 . S
C376 C122 1.510 . S
C426 C162 1.443 . S
C411 C74 1.465 . S
C476 C174 1.480 . S
C461 C10 1.488 . S
C526 C187 1.492 . S
C511 C37 1.484 . S
C576 C149 1.511 . S
C561 C65 1.527 . S
C611 C52 1.441 . S
C626 C109 1.436 . S
C661 C87 1.536 . S
C676 C123 1.520 . S
C711 C15 1.507 . S
C726 C136 1.496 . S
C776 C96 1.465 . S
C761 C32 1.476 . S
C811 C29 1.517 . S
C826 C188 1.505 . S
C876 C148 1.515 . S
C861 C59 1.515 . S
C926 C161 1.428 . S
C911 C84 1.432 . S
C961 C8 1.497 . S
C976 C175 1.471 . S
C1026 C92 1.472 1_554 S
C1011 C7 1.538 . S
C1076 C105 1.445 . S
C1061 C30 1.485 . S
C1111 C62 1.542 . S
C1126 C118 1.504 . S
C1161 C81 1.507 . S
C1176 C131 1.460 . S
C1226 C144 1.468 . S
C1211 C76 1.541 . S
C1261 C18 1.485 . S
C1276 C157 1.445 . S
C1311 C43 1.538 . S
C1326 C170 1.509 . S
C1361 C51 1.507 . S
C1376 C183 1.461 . S
