# Generated by pormake.
# Topology ctn, (3,4)-cn, num edge types: 1
# Building blocks:
#     Node 0, Type 0, BuildingBlock: MIDCAF_clean_linker_0, # of connection points: 3
#     Node 1, Type 0, BuildingBlock: MIDCAF_clean_linker_0, # of connection points: 3
#     Node 2, Type 0, BuildingBlock: MIDCAF_clean_linker_0, # of connection points: 3
#     Node 3, Type 0, BuildingBlock: MIDCAF_clean_linker_0, # of connection points: 3
#     Node 4, Type 0, BuildingBlock: MIDCAF_clean_linker_0, # of connection points: 3
#     Node 5, Type 0, BuildingBlock: MIDCAF_clean_linker_0, # of connection points: 3
#     Node 6, Type 0, BuildingBlock: MIDCAF_clean_linker_0, # of connection points: 3
#     Node 7, Type 0, BuildingBlock: MIDCAF_clean_linker_0, # of connection points: 3
#     Node 8, Type 0, BuildingBlock: MIDCAF_clean_linker_0, # of connection points: 3
#     Node 9, Type 0, BuildingBlock: MIDCAF_clean_linker_0, # of connection points: 3
#     Node 10, Type 0, BuildingBlock: MIDCAF_clean_linker_0, # of connection points: 3
#     Node 11, Type 0, BuildingBlock: MIDCAF_clean_linker_0, # of connection points: 3
#     Node 12, Type 0, BuildingBlock: MIDCAF_clean_linker_0, # of connection points: 3
#     Node 13, Type 0, BuildingBlock: MIDCAF_clean_linker_0, # of connection points: 3
#     Node 14, Type 0, BuildingBlock: MIDCAF_clean_linker_0, # of connection points: 3
#     Node 15, Type 0, BuildingBlock: MIDCAF_clean_linker_0, # of connection points: 3
#     Node 16, Type 1, BuildingBlock: UXUYUI_clean_sbu_0, # of connection points: 4
#     Node 17, Type 1, BuildingBlock: UXUYUI_clean_sbu_0, # of connection points: 4
#     Node 18, Type 1, BuildingBlock: UXUYUI_clean_sbu_0, # of connection points: 4
#     Node 19, Type 1, BuildingBlock: UXUYUI_clean_sbu_0, # of connection points: 4
#     Node 20, Type 1, BuildingBlock: UXUYUI_clean_sbu_0, # of connection points: 4
#     Node 21, Type 1, BuildingBlock: UXUYUI_clean_sbu_0, # of connection points: 4
#     Node 22, Type 1, BuildingBlock: UXUYUI_clean_sbu_0, # of connection points: 4
#     Node 23, Type 1, BuildingBlock: UXUYUI_clean_sbu_0, # of connection points: 4
#     Node 24, Type 1, BuildingBlock: UXUYUI_clean_sbu_0, # of connection points: 4
#     Node 25, Type 1, BuildingBlock: UXUYUI_clean_sbu_0, # of connection points: 4
#     Node 26, Type 1, BuildingBlock: UXUYUI_clean_sbu_0, # of connection points: 4
#     Node 27, Type 1, BuildingBlock: UXUYUI_clean_sbu_0, # of connection points: 4
#     Edge 28, Type (0, 1), BuildingBlock: CIFDUS_clean_linker_0, # of connection points: 2
#     Edge 29, Type (0, 1), BuildingBlock: CIFDUS_clean_linker_0, # of connection points: 2
#     Edge 30, Type (0, 1), BuildingBlock: CIFDUS_clean_linker_0, # of connection points: 2
#     Edge 31, Type (0, 1), BuildingBlock: CIFDUS_clean_linker_0, # of connection points: 2
#     Edge 32, Type (0, 1), BuildingBlock: CIFDUS_clean_linker_0, # of connection points: 2
#     Edge 33, Type (0, 1), BuildingBlock: CIFDUS_clean_linker_0, # of connection points: 2
#     Edge 34, Type (0, 1), BuildingBlock: CIFDUS_clean_linker_0, # of connection points: 2
#     Edge 35, Type (0, 1), BuildingBlock: CIFDUS_clean_linker_0, # of connection points: 2
#     Edge 36, Type (0, 1), BuildingBlock: CIFDUS_clean_linker_0, # of connection points: 2
#     Edge 37, Type (0, 1), BuildingBlock: CIFDUS_clean_linker_0, # of connection points: 2
#     Edge 38, Type (0, 1), BuildingBlock: CIFDUS_clean_linker_0, # of connection points: 2
#     Edge 39, Type (0, 1), BuildingBlock: CIFDUS_clean_linker_0, # of connection points: 2
#     Edge 40, Type (0, 1), BuildingBlock: CIFDUS_clean_linker_0, # of connection points: 2
#     Edge 41, Type (0, 1), BuildingBlock: CIFDUS_clean_linker_0, # of connection points: 2
#     Edge 42, Type (0, 1), BuildingBlock: CIFDUS_clean_linker_0, # of connection points: 2
#     Edge 43, Type (0, 1), BuildingBlock: CIFDUS_clean_linker_0, # of connection points: 2
#     Edge 44, Type (0, 1), BuildingBlock: CIFDUS_clean_linker_0, # of connection points: 2
#     Edge 45, Type (0, 1), BuildingBlock: CIFDUS_clean_linker_0, # of connection points: 2
#     Edge 46, Type (0, 1), BuildingBlock: CIFDUS_clean_linker_0, # of connection points: 2
#     Edge 47, Type (0, 1), BuildingBlock: CIFDUS_clean_linker_0, # of connection points: 2
#     Edge 48, Type (0, 1), BuildingBlock: CIFDUS_clean_linker_0, # of connection points: 2
#     Edge 49, Type (0, 1), BuildingBlock: CIFDUS_clean_linker_0, # of connection points: 2
#     Edge 50, Type (0, 1), BuildingBlock: CIFDUS_clean_linker_0, # of connection points: 2
#     Edge 51, Type (0, 1), BuildingBlock: CIFDUS_clean_linker_0, # of connection points: 2
#     Edge 52, Type (0, 1), BuildingBlock: CIFDUS_clean_linker_0, # of connection points: 2
#     Edge 53, Type (0, 1), BuildingBlock: CIFDUS_clean_linker_0, # of connection points: 2
#     Edge 54, Type (0, 1), BuildingBlock: CIFDUS_clean_linker_0, # of connection points: 2
#     Edge 55, Type (0, 1), BuildingBlock: CIFDUS_clean_linker_0, # of connection points: 2
#     Edge 56, Type (0, 1), BuildingBlock: CIFDUS_clean_linker_0, # of connection points: 2
#     Edge 57, Type (0, 1), BuildingBlock: CIFDUS_clean_linker_0, # of connection points: 2
#     Edge 58, Type (0, 1), BuildingBlock: CIFDUS_clean_linker_0, # of connection points: 2
#     Edge 59, Type (0, 1), BuildingBlock: CIFDUS_clean_linker_0, # of connection points: 2
#     Edge 60, Type (0, 1), BuildingBlock: CIFDUS_clean_linker_0, # of connection points: 2
#     Edge 61, Type (0, 1), BuildingBlock: CIFDUS_clean_linker_0, # of connection points: 2
#     Edge 62, Type (0, 1), BuildingBlock: CIFDUS_clean_linker_0, # of connection points: 2
#     Edge 63, Type (0, 1), BuildingBlock: CIFDUS_clean_linker_0, # of connection points: 2
#     Edge 64, Type (0, 1), BuildingBlock: CIFDUS_clean_linker_0, # of connection points: 2
#     Edge 65, Type (0, 1), BuildingBlock: CIFDUS_clean_linker_0, # of connection points: 2
#     Edge 66, Type (0, 1), BuildingBlock: CIFDUS_clean_linker_0, # of connection points: 2
#     Edge 67, Type (0, 1), BuildingBlock: CIFDUS_clean_linker_0, # of connection points: 2
#     Edge 68, Type (0, 1), BuildingBlock: CIFDUS_clean_linker_0, # of connection points: 2
#     Edge 69, Type (0, 1), BuildingBlock: CIFDUS_clean_linker_0, # of connection points: 2
#     Edge 70, Type (0, 1), BuildingBlock: CIFDUS_clean_linker_0, # of connection points: 2
#     Edge 71, Type (0, 1), BuildingBlock: CIFDUS_clean_linker_0, # of connection points: 2
#     Edge 72, Type (0, 1), BuildingBlock: CIFDUS_clean_linker_0, # of connection points: 2
#     Edge 73, Type (0, 1), BuildingBlock: CIFDUS_clean_linker_0, # of connection points: 2
#     Edge 74, Type (0, 1), BuildingBlock: CIFDUS_clean_linker_0, # of connection points: 2
#     Edge 75, Type (0, 1), BuildingBlock: CIFDUS_clean_linker_0, # of connection points: 2
# Relax obj value: 0.000
# Max RMSD: 0.004
# Mean RMSD: 0.003
data_MOF--net-ctn--node1-UXUYUI_clean_sbu_0--node2-MIDCAF_clean_linker_0--edge1-CIFDUS_clean_linker_0
_symmetry_space_group_name_H-M    P1
_symmetry_Int_Tables_number       1
_symmetry_cell_setting            triclinic
loop_
_symmetry_equiv_pos_as_xyz
'x, y, z'
_cell_length_a     73.493881
_cell_length_b     73.407031
_cell_length_c     73.464362
_cell_angle_alpha  90.092117
_cell_angle_beta   89.968887
_cell_angle_gamma 90.134089
loop_
_atom_site_label
_atom_site_type_symbol
_atom_site_fract_x
_atom_site_fract_y
_atom_site_fract_z
_atom_type_partial_charge
C0 C 0.99591 0.05242 0.09059 0.0
C1 C 0.9986 0.038 0.10285 0.0
C2 C 0.01315 0.02596 0.0998 0.0
C3 C 0.02483 0.02839 0.08493 0.0
H4 H 0.06886 0.00545 0.05765 0.0
H5 H 0.09483 0.98547 0.05232 0.0
H6 H 0.11227 0.01985 0.00794 0.0
H7 H 0.08658 0.03993 0.01332 0.0
H8 H 0.05961 0.07068 0.99872 0.0
H9 H 0.05548 0.09747 0.97954 0.0
H10 H 0.01794 0.11986 0.01881 0.0
H11 H 0.02202 0.09317 0.03806 0.0
H12 H 0.005 0.06617 0.06667 0.0
H13 H 0.98467 0.06177 0.09234 0.0
H14 H 0.01571 0.01481 0.10909 0.0
H15 H 0.03598 0.01894 0.08309 0.0
N16 N 0.04865 0.03415 0.05373 0.0
N17 N 0.05754 0.05169 0.02855 0.0
N18 N 0.03244 0.06053 0.04608 0.0
C19 C 0.06013 0.03697 0.03946 0.0
C20 C 0.04374 0.06354 0.03177 0.0
C21 C 0.03473 0.04587 0.05711 0.0
C22 C 0.07559 0.0244 0.03598 0.0
C23 C 0.0782 0.00876 0.04673 0.0
C24 C 0.09304 0.99723 0.04362 0.0
C25 C 0.10566 1.00111 0.02976 0.0
C26 C 0.10295 0.01662 0.01891 0.0
C27 C 0.08811 0.02809 0.02195 0.0
C28 C 0.04116 0.07973 0.01997 0.0
C29 C 0.05048 0.0813 0.0033 0.0
C30 C 0.04805 0.0966 0.99225 0.0
C31 C 0.03641 0.11076 0.99769 0.0
C32 C 0.02713 0.10924 0.01435 0.0
C33 C 0.0294 0.09387 0.02531 0.0
C34 C 0.02223 0.04294 0.07276 0.0
C35 C 0.00756 0.05487 0.07576 0.0
C36 C 0.26013 0.65838 0.23442 0.0
C37 C 0.24511 0.65602 0.22278 0.0
C38 C 0.24172 0.66929 0.20945 0.0
C39 C 0.25315 0.6844 0.20762 0.0
H40 H 0.26267 0.72739 0.17385 0.0
H41 H 0.25718 0.74904 0.14935 0.0
H42 H 0.30229 0.78189 0.16806 0.0
H43 H 0.30769 0.76046 0.19269 0.0
H44 H 0.3353 0.74246 0.22038 0.0
H45 H 0.36054 0.7486 0.24074 0.0
H46 H 0.33781 0.71126 0.28015 0.0
H47 H 0.31272 0.70461 0.25938 0.0
H48 H 0.28313 0.67481 0.24169 0.0
H49 H 0.26324 0.64833 0.24473 0.0
H50 H 0.2301 0.66808 0.20046 0.0
H51 H 0.25005 0.69427 0.19713 0.0
N52 N 0.27774 0.71455 0.20291 0.0
N53 N 0.30314 0.7316 0.2119 0.0
N54 N 0.2949 0.70541 0.22824 0.0
C55 C 0.28892 0.72909 0.20039 0.0
C56 C 0.30626 0.71989 0.22584 0.0
C57 C 0.28061 0.70263 0.21676 0.0
C58 C 0.28562 0.74213 0.18532 0.0
C59 C 0.27144 0.73922 0.17278 0.0
C60 C 0.26834 0.75158 0.15866 0.0
C61 C 0.27929 0.76719 0.15677 0.0
C62 C 0.29346 0.77011 0.16928 0.0
C63 C 0.29662 0.75773 0.18335 0.0
C64 C 0.32188 0.7231 0.23826 0.0
C65 C 0.33563 0.73551 0.23337 0.0
C66 C 0.3501 0.73913 0.24513 0.0
C67 C 0.35116 0.7306 0.26222 0.0
C68 C 0.33755 0.71796 0.26703 0.0
C69 C 0.3231 0.7142 0.25515 0.0
C70 C 0.2683 0.6867 0.21911 0.0
C71 C 0.27159 0.67354 0.23261 0.0
C72 C 0.99106 0.40711 0.00984 0.0
C73 C 0.98172 0.40551 0.9932 0.0
C74 C 0.96859 0.4187 0.98881 0.0
C75 C 0.96496 0.43317 1.0007 0.0
H76 H 0.92456 0.47201 0.01516 0.0
H77 H 0.89989 0.49358 0.00947 0.0
H78 H 0.92476 0.53196 0.04647 0.0
H79 H 0.94933 0.51052 0.05228 0.0
H80 H 0.97352 0.49123 0.08426 0.0
H81 H 0.99247 0.49561 0.11109 0.0
H82 H 0.02902 0.45371 0.09213 0.0
H83 H 0.01016 0.44932 0.06513 0.0
H84 H 0.995 0.42232 0.03435 0.0
H85 H 1.00103 0.39705 0.01384 0.0
H86 H 0.9613 0.41804 0.97602 0.0
H87 H 0.95486 0.44313 0.99678 0.0
N88 N 0.95705 0.46218 0.02648 0.0
N89 N 0.96478 0.47887 0.05261 0.0
N90 N 0.98159 0.45298 0.04467 0.0
C91 C 0.95393 0.4765 0.03783 0.0
C92 C 0.97862 0.46718 0.05617 0.0
C93 C 0.97089 0.45036 0.02979 0.0
C94 C 0.93895 0.48951 0.03418 0.0
C95 C 0.92479 0.48505 0.02206 0.0
C96 C 0.91061 0.49734 0.01887 0.0
C97 C 0.91044 0.51444 0.02751 0.0
C98 C 0.92462 0.51894 0.03951 0.0
C99 C 0.93864 0.50658 0.0429 0.0
C100 C 0.99027 0.46989 0.07248 0.0
C101 C 0.9856 0.48294 0.08573 0.0
C102 C 0.9964 0.4854 0.10119 0.0
C103 C 0.01221 0.47498 0.10374 0.0
C104 C 0.01699 0.46205 0.09046 0.0
C105 C 0.00611 0.45947 0.07504 0.0
C106 C 0.97444 0.43485 0.01726 0.0
C107 C 0.9875 0.4216 0.02168 0.0
C108 C 0.73562 0.75894 0.15721 0.0
C109 C 0.72225 0.74604 0.15248 0.0
C110 C 0.70646 0.74478 0.1632 0.0
C111 C 0.70401 0.75622 0.17821 0.0
H112 H 0.67393 0.76093 0.2251 0.0
H113 H 0.64747 0.75621 0.2444 0.0
H114 H 0.65571 0.80926 0.26866 0.0
H115 H 0.68256 0.81377 0.24975 0.0
H116 H 0.71925 0.83443 0.24168 0.0
H117 H 0.73907 0.86048 0.24689 0.0
H118 H 0.77358 0.84319 0.20255 0.0
H119 H 0.75389 0.81688 0.19742 0.0
H120 H 0.7436 0.7804 0.17533 0.0
H121 H 0.74787 0.76031 0.14913 0.0
H122 H 0.69602 0.73483 0.16005 0.0
H123 H 0.69161 0.75484 0.18607 0.0
N124 N 0.69972 0.7792 0.20971 0.0
N125 N 0.70794 0.8049 0.22678 0.0
N126 N 0.72565 0.79606 0.20169 0.0
C127 C 0.69647 0.79066 0.22387 0.0
C128 C 0.72259 0.8077 0.21581 0.0
C129 C 0.71424 0.78178 0.19854 0.0
C130 C 0.68041 0.78775 0.23581 0.0
C131 C 0.67015 0.77161 0.23456 0.0
C132 C 0.65487 0.76893 0.24558 0.0
C133 C 0.64935 0.78238 0.25806 0.0
C134 C 0.65968 0.79849 0.25939 0.0
C135 C 0.67505 0.80112 0.24845 0.0
C136 C 0.73489 0.82349 0.21909 0.0
C137 C 0.73106 0.83609 0.23302 0.0
C138 C 0.74238 0.85113 0.23596 0.0
C139 C 0.75787 0.85397 0.2251 0.0
C140 C 0.76184 0.84131 0.21128 0.0
C141 C 0.75047 0.82627 0.20828 0.0
C142 C 0.71723 0.76933 0.18284 0.0
C143 C 0.73311 0.77051 0.17218 0.0
C144 C 0.05038 0.913 0.51628 0.0
C145 C 0.03825 0.89877 0.51204 0.0
C146 C 0.02812 0.89986 0.49583 0.0
C147 C 0.03001 0.91483 0.48422 0.0
H148 H 0.00437 0.94133 0.44253 0.0
H149 H 0.98266 0.94581 0.41802 0.0
H150 H 0.01117 0.99461 0.40164 0.0
H151 H 0.03318 0.99003 0.42603 0.0
H152 H 0.06384 0.00654 0.45454 0.0
H153 H 0.08844 0.02804 0.46076 0.0
H154 H 0.11541 0.98741 0.49356 0.0
H155 H 0.09062 0.96628 0.48793 0.0
H156 H 0.06181 0.9386 0.5084 0.0
H157 H 0.05818 0.91281 0.52878 0.0
H158 H 0.01886 0.88903 0.49197 0.0
H159 H 0.02202 0.91517 0.47185 0.0
N160 N 0.03224 0.94775 0.46242 0.0
N161 N 0.04777 0.97445 0.45408 0.0
N162 N 0.05803 0.95699 0.47873 0.0
C163 C 0.03388 0.96246 0.4513 0.0
C164 C 0.05994 0.97175 0.46775 0.0
C165 C 0.04422 0.94494 0.47619 0.0
C166 C 0.02059 0.96532 0.43633 0.0
C167 C 0.00608 0.95304 0.43375 0.0
C168 C 0.99352 0.95566 0.41973 0.0
C169 C 0.99514 0.97059 0.40789 0.0
C170 C 0.00965 0.98286 0.41041 0.0
C171 C 0.02222 0.98027 0.42447 0.0
C172 C 0.07516 0.98471 0.47084 0.0
C173 C 0.07504 1.00221 0.46306 0.0
C174 C 0.08921 0.01451 0.46656 0.0
C175 C 0.10391 0.00955 0.47778 0.0
C176 C 0.10415 0.99191 0.48521 0.0
C177 C 0.08993 0.97971 0.48188 0.0
C178 C 0.0422 0.92901 0.48845 0.0
C179 C 0.05239 0.92789 0.50461 0.0
C180 C 0.23181 0.74486 0.8475 0.0
C181 C 0.21899 0.75879 0.85028 0.0
C182 C 0.20458 0.76058 0.83785 0.0
C183 C 0.20296 0.74871 0.82306 0.0
H184 H 0.16977 0.73731 0.78019 0.0
H185 H 0.14383 0.74011 0.75981 0.0
H186 H 0.16476 0.69615 0.7268 0.0
H187 H 0.19052 0.69303 0.74733 0.0
H188 H 0.22793 0.67548 0.75722 0.0
H189 H 0.24818 0.64981 0.75272 0.0
H190 H 0.26922 0.6569 0.80719 0.0
H191 H 0.24928 0.68308 0.81154 0.0
H192 H 0.24025 0.72231 0.83105 0.0
H193 H 0.24297 0.743 0.85693 0.0
H194 H 0.19462 0.77131 0.83943 0.0
H195 H 0.19166 0.75058 0.8138 0.0
N196 N 0.19982 0.72415 0.79266 0.0
N197 N 0.20996 0.69906 0.7758 0.0
N198 N 0.22581 0.70819 0.802 0.0
C199 C 0.19779 0.71273 0.77823 0.0
C200 C 0.224 0.69666 0.78758 0.0
C201 C 0.21379 0.72203 0.80459 0.0
C202 C 0.18227 0.7149 0.76549 0.0
C203 C 0.16891 0.72825 0.76858 0.0
C204 C 0.15405 0.72993 0.75682 0.0
C205 C 0.15219 0.71834 0.74168 0.0
C206 C 0.16563 0.70513 0.73848 0.0
C207 C 0.18048 0.70342 0.75023 0.0
C208 C 0.23688 0.68135 0.78479 0.0
C209 C 0.23688 0.67164 0.76827 0.0
C210 C 0.24845 0.6568 0.76571 0.0
C211 C 0.26024 0.65112 0.77965 0.0
C212 C 0.26046 0.66099 0.79609 0.0
C213 C 0.24895 0.67597 0.79861 0.0
C214 C 0.21571 0.73468 0.8203 0.0
C215 C 0.23018 0.73293 0.8327 0.0
C216 C 0.97748 0.60304 0.49062 0.0
C217 C 0.96924 0.60358 0.50785 0.0
C218 C 0.95917 0.58842 0.5138 0.0
C219 C 0.95731 0.57304 0.50267 0.0
H220 H 0.9205 0.53108 0.48943 0.0
H221 H 0.89635 0.50888 0.49461 0.0
H222 H 0.92096 0.47266 0.45538 0.0
H223 H 0.94524 0.49475 0.45021 0.0
H224 H 0.97561 0.51111 0.42341 0.0
H225 H 0.99777 0.50667 0.39907 0.0
H226 H 0.02634 0.55523 0.41618 0.0
H227 H 0.00444 0.55962 0.4406 0.0
H228 H 0.98248 0.5876 0.46643 0.0
H229 H 0.98543 0.61448 0.48576 0.0
H230 H 0.95259 0.58854 0.527 0.0
H231 H 0.94946 0.56157 0.50765 0.0
N232 N 0.95094 0.5434 0.47683 0.0
N233 N 0.9616 0.52594 0.45226 0.0
N234 N 0.97606 0.5534 0.45987 0.0
C235 C 0.94952 0.52834 0.4661 0.0
C236 C 0.97492 0.53841 0.44906 0.0
C237 C 0.96417 0.556 0.47378 0.0
C238 C 0.93487 0.51475 0.46938 0.0
C239 C 0.92084 0.51838 0.48191 0.0
C240 C 0.90691 0.50571 0.48481 0.0
C241 C 0.90674 0.48904 0.47538 0.0
C242 C 0.92081 0.48532 0.46297 0.0
C243 C 0.93468 0.49805 0.45995 0.0
C244 C 0.9882 0.53571 0.43405 0.0
C245 C 0.98661 0.52086 0.42201 0.0
C246 C 0.99925 0.51835 0.40798 0.0
C247 C 0.01383 0.53057 0.40573 0.0
C248 C 0.0154 0.54543 0.4177 0.0
C249 C 1.00274 0.54799 0.43166 0.0
C250 C 0.96573 0.5724 0.48548 0.0
C251 C 0.97586 0.58758 0.47961 0.0
C252 C 0.8483 0.77308 0.76213 0.0
C253 C 0.84679 0.77812 0.74377 0.0
C254 C 0.83109 0.78719 0.73786 0.0
C255 C 0.8172 0.79138 0.75016 0.0
H256 H 0.77792 0.83062 0.75948 0.0
H257 H 0.75917 0.85729 0.75401 0.0
H258 H 0.73601 0.85217 0.80784 0.0
H259 H 0.75438 0.82515 0.81317 0.0
H260 H 0.76077 0.78787 0.83432 0.0
H261 H 0.75466 0.76803 0.86014 0.0
H262 H 0.79994 0.73394 0.84467 0.0
H263 H 0.80632 0.75391 0.81902 0.0
H264 H 0.83571 0.77281 0.78845 0.0
H265 H 0.86029 0.76601 0.76695 0.0
H266 H 0.82969 0.79128 0.72377 0.0
H267 H 0.80529 0.79849 0.74523 0.0
N268 N 0.79286 0.80518 0.77835 0.0
N269 N 0.77668 0.799 0.80515 0.0
N270 N 0.80109 0.78031 0.79656 0.0
C271 C 0.77932 0.80953 0.79017 0.0
C272 C 0.78745 0.78432 0.80842 0.0
C273 C 0.80383 0.79067 0.78149 0.0
C274 C 0.7677 0.82569 0.78679 0.0
C275 C 0.76882 0.83513 0.77018 0.0
C276 C 0.75813 0.85053 0.76706 0.0
C277 C 0.74611 0.85695 0.7805 0.0
C278 C 0.74493 0.84747 0.79708 0.0
C279 C 0.75555 0.832 0.80017 0.0
C280 C 0.78404 0.77253 0.8245 0.0
C281 C 0.7695 0.7762 0.83642 0.0
C282 C 0.76591 0.76475 0.85119 0.0
C283 C 0.77677 0.74936 0.85444 0.0
C284 C 0.79143 0.74579 0.84267 0.0
C285 C 0.79502 0.75722 0.82788 0.0
C286 C 0.81858 0.7862 0.76853 0.0
C287 C 0.83422 0.77689 0.77437 0.0
C288 C 0.35115 0.27075 0.25605 0.0
C289 C 0.35616 0.28475 0.24401 0.0
C290 C 0.34559 0.30065 0.24343 0.0
C291 C 0.33034 0.30253 0.25464 0.0
H292 H 0.28339 0.33161 0.25902 0.0
H293 H 0.26211 0.35618 0.25304 0.0
H294 H 0.23144 0.34152 0.301 0.0
H295 H 0.25287 0.31697 0.30721 0.0
H296 H 0.26727 0.28442 0.33207 0.0
H297 H 0.26177 0.26302 0.35685 0.0
H298 H 0.30269 0.22704 0.33493 0.0
H299 H 0.30822 0.24832 0.31008 0.0
H300 H 0.33256 0.26167 0.27659 0.0
H301 H 0.35913 0.25839 0.25689 0.0
H302 H 0.34901 0.3116 0.23416 0.0
H303 H 0.32253 0.315 0.2538 0.0
N304 N 0.29751 0.30476 0.27612 0.0
N305 N 0.27989 0.29518 0.30093 0.0
N306 N 0.30612 0.27893 0.2927 0.0
C307 C 0.28277 0.30706 0.28704 0.0
C308 C 0.29149 0.28107 0.30385 0.0
C309 C 0.30927 0.29078 0.27884 0.0
C310 C 0.26988 0.32222 0.28361 0.0
C311 C 0.27215 0.33358 0.26836 0.0
C312 C 0.25988 0.34763 0.26484 0.0
C313 C 0.24504 0.35075 0.27649 0.0
C314 C 0.24283 0.33955 0.29184 0.0
C315 C 0.25508 0.32541 0.29534 0.0
C316 C 0.28819 0.26812 0.31902 0.0
C317 C 0.27511 0.27195 0.33248 0.0
C318 C 0.27202 0.25975 0.34677 0.0
C319 C 0.28179 0.24336 0.34783 0.0
C320 C 0.29483 0.23949 0.33437 0.0
C321 C 0.29805 0.25176 0.32019 0.0
C322 C 0.32537 0.28861 0.26683 0.0
C323 C 0.33598 0.27269 0.26741 0.0
C324 C 0.48335 0.9101 0.51502 0.0
C325 C 0.47234 0.90682 0.49972 0.0
C326 C 0.4573 0.91821 0.49665 0.0
C327 C 0.45358 0.93277 0.50842 0.0
H328 H 0.41539 0.97403 0.52025 0.0
H329 H 0.3894 0.99436 0.51645 0.0
H330 H 0.41314 0.03197 0.55504 0.0
H331 H 0.43872 0.01162 0.5592 0.0
H332 H 0.47584 1.00253 0.57833 0.0
H333 H 0.49554 0.00864 0.60416 0.0
H334 H 0.51137 0.95195 0.60525 0.0
H335 H 0.49226 0.94607 0.57877 0.0
H336 H 0.48854 0.92671 0.53834 0.0
H337 H 0.49487 0.90141 0.51796 0.0
H338 H 0.44863 0.91614 0.48491 0.0
H339 H 0.44203 0.94141 0.50548 0.0
N340 N 0.4473 0.96366 0.5325 0.0
N341 N 0.45613 0.98162 0.55741 0.0
N342 N 0.47269 0.95541 0.55004 0.0
C343 C 0.44459 0.97847 0.54333 0.0
C344 C 0.47015 0.97017 0.56091 0.0
C345 C 0.4614 0.95209 0.53573 0.0
C346 C 0.42913 0.99108 0.54014 0.0
C347 C 0.41508 0.98666 0.52788 0.0
C348 C 0.4002 0.99836 0.52564 0.0
C349 C 0.39908 0.01474 0.53556 0.0
C350 C 0.41333 0.01929 0.54748 0.0
C351 C 0.4281 0.00761 0.54979 0.0
C352 C 0.48243 0.9738 0.5765 0.0
C353 C 0.48355 0.99137 0.58405 0.0
C354 C 0.49479 0.99484 0.59898 0.0
C355 C 0.50501 0.98078 0.60698 0.0
C356 C 0.50395 0.9632 0.59934 0.0
C357 C 0.4929 0.95979 0.58419 0.0
C358 C 0.46479 0.93624 0.52357 0.0
C359 C 0.47963 0.92459 0.52679 0.0
C360 C 0.24352 0.26145 0.66014 0.0
C361 C 0.22887 0.25216 0.65195 0.0
C362 C 0.21149 0.25377 0.65989 0.0
C363 C 0.2089 0.26422 0.67563 0.0
H364 H 0.17149 0.27575 0.71903 0.0
H365 H 0.14599 0.26999 0.73976 0.0
H366 H 0.1772 0.29214 0.78436 0.0
H367 H 0.20255 0.2982 0.76373 0.0
H368 H 0.2349 0.32579 0.75294 0.0
H369 H 0.25617 0.3502 0.76041 0.0
H370 H 0.27955 0.34638 0.70662 0.0
H371 H 0.25824 0.32201 0.69902 0.0
H372 H 0.25251 0.27897 0.68162 0.0
H373 H 0.25718 0.26028 0.65475 0.0
H374 H 0.19979 0.24712 0.65385 0.0
H375 H 0.19535 0.26515 0.68137 0.0
N376 N 0.20648 0.2815 0.71157 0.0
N377 N 0.2171 0.30396 0.73173 0.0
N378 N 0.23336 0.29757 0.70504 0.0
C379 C 0.20453 0.29109 0.7273 0.0
C380 C 0.23147 0.30741 0.72062 0.0
C381 C 0.22097 0.28457 0.70044 0.0
C382 C 0.18904 0.28745 0.73973 0.0
C383 C 0.17291 0.27939 0.73326 0.0
C384 C 0.15829 0.27617 0.74507 0.0
C385 C 0.15968 0.2806 0.76363 0.0
C386 C 0.17584 0.2885 0.77013 0.0
C387 C 0.1903 0.29205 0.75828 0.0
C388 C 0.2448 0.32191 0.72535 0.0
C389 C 0.24458 0.3301 0.74268 0.0
C390 C 0.25684 0.34403 0.74702 0.0
C391 C 0.26952 0.35022 0.7341 0.0
C392 C 0.26981 0.34201 0.7168 0.0
C393 C 0.25766 0.32796 0.7125 0.0
C394 C 0.22355 0.27357 0.68367 0.0
C395 C 0.24086 0.27213 0.67568 0.0
C396 C 0.75344 0.16419 0.74235 0.0
C397 C 0.74059 0.15858 0.72935 0.0
C398 C 0.74028 0.16731 0.71234 0.0
C399 C 0.75246 0.18148 0.70849 0.0
H400 H 0.76059 0.22541 0.67338 0.0
H401 H 0.75724 0.24444 0.64637 0.0
H402 H 0.80649 0.27336 0.6605 0.0
H403 H 0.81004 0.25431 0.68727 0.0
H404 H 0.82566 0.25002 0.72732 0.0
H405 H 0.8507 0.25629 0.74817 0.0
H406 H 0.84216 0.20421 0.77404 0.0
H407 H 0.81705 0.19784 0.75321 0.0
H408 H 0.77541 0.18216 0.74886 0.0
H409 H 0.75414 0.15759 0.75551 0.0
H410 H 0.73043 0.16336 0.70209 0.0
H411 H 0.75177 0.18797 0.69528 0.0
N412 N 0.77616 0.21274 0.70249 0.0
N413 N 0.80173 0.23002 0.71078 0.0
N414 N 0.79227 0.20573 0.72914 0.0
C415 C 0.78786 0.2267 0.699 0.0
C416 C 0.80407 0.21961 0.72585 0.0
C417 C 0.77826 0.2022 0.71757 0.0
C418 C 0.78561 0.23825 0.68255 0.0
C419 C 0.77073 0.23581 0.67074 0.0
C420 C 0.76874 0.24678 0.65529 0.0
C421 C 0.78163 0.26038 0.65126 0.0
C422 C 0.79646 0.26283 0.66307 0.0
C423 C 0.79842 0.25194 0.67852 0.0
C424 C 0.8193 0.22341 0.73857 0.0
C425 C 0.82909 0.23987 0.73742 0.0
C426 C 0.84338 0.24353 0.74944 0.0
C427 C 0.84836 0.23075 0.76274 0.0
C428 C 0.83869 0.21425 0.76383 0.0
C429 C 0.82425 0.21067 0.75195 0.0
C430 C 0.76534 0.18712 0.72151 0.0
C431 C 0.76571 0.17823 0.73847 0.0
C432 C 0.49844 0.55369 0.59495 0.0
C433 C 0.49514 0.53633 0.60238 0.0
C434 C 0.50419 0.52124 0.59474 0.0
C435 C 0.51599 0.52345 0.57993 0.0
H436 H 0.56774 0.50622 0.55858 0.0
H437 H 0.59204 0.48472 0.55173 0.0
H438 H 0.5974 0.50764 0.49791 0.0
H439 H 0.57306 0.52918 0.50465 0.0
H440 H 0.55387 0.56769 0.49653 0.0
H441 H 0.54733 0.59325 0.47638 0.0
H442 H 0.50764 0.61334 0.51481 0.0
H443 H 0.51382 0.58777 0.53473 0.0
H444 H 0.512 0.56939 0.57453 0.0
H445 H 0.49214 0.56571 0.60069 0.0
H446 H 0.50184 0.50762 0.59987 0.0
H447 H 0.52251 0.51153 0.5742 0.0
N448 N 0.54343 0.53073 0.55166 0.0
N449 N 0.55087 0.54734 0.52538 0.0
N450 N 0.52767 0.55754 0.54473 0.0
C451 C 0.55384 0.53281 0.53647 0.0
C452 C 0.53779 0.55978 0.52943 0.0
C453 C 0.53033 0.54307 0.55587 0.0
C454 C 0.56841 0.51948 0.53218 0.0
C455 C 0.57402 0.50668 0.54525 0.0
C456 C 0.58803 0.49441 0.54138 0.0
C457 C 0.59664 0.49451 0.5243 0.0
C458 C 0.59091 0.50714 0.51115 0.0
C459 C 0.57703 0.51955 0.51507 0.0
C460 C 0.53434 0.57556 0.51727 0.0
C461 C 0.54376 0.57756 0.50071 0.0
C462 C 0.54008 0.59227 0.48917 0.0
C463 C 0.52689 0.6053 0.49392 0.0
C464 C 0.51764 0.60339 0.51056 0.0
C465 C 0.52129 0.58873 0.52206 0.0
C466 C 0.51878 0.54074 0.57224 0.0
C467 C 0.50996 0.55584 0.57998 0.0
C468 C 0.54454 0.41757 0.02103 0.0
C469 C 0.52755 0.40874 0.02087 0.0
C470 C 0.51425 0.41457 0.00846 0.0
C471 C 0.51789 0.42882 0.99639 0.0
H472 H 0.49873 0.45181 0.9501 0.0
H473 H 0.47782 0.45695 0.92505 0.0
H474 H 0.51226 0.50027 0.90508 0.0
H475 H 0.53349 0.49498 0.93005 0.0
H476 H 0.57104 0.50333 0.95081 0.0
H477 H 0.59824 0.52193 0.95497 0.0
H478 H 0.60794 0.49605 0.00683 0.0
H479 H 0.58114 0.47714 1.0025 0.0
H480 H 0.56138 0.43843 0.00958 0.0
H481 H 0.55501 0.41346 0.03055 0.0
H482 H 0.50109 0.40791 0.00789 0.0
H483 H 0.50732 0.43287 0.98697 0.0
N484 N 0.52724 0.45605 0.96954 0.0
N485 N 0.54578 0.48015 0.9597 0.0
N486 N 0.55379 0.46333 0.98562 0.0
C487 C 0.53063 0.46968 0.9575 0.0
C488 C 0.55741 0.47709 0.97377 0.0
C489 C 0.53873 0.45275 0.9836 0.0
C490 C 0.51786 0.47298 0.94217 0.0
C491 C 0.50193 0.46245 0.94041 0.0
C492 C 0.48983 0.46547 0.92608 0.0
C493 C 0.49332 0.47907 0.9131 0.0
C494 C 0.50926 0.48957 0.91477 0.0
C495 C 0.52138 0.48659 0.92916 0.0
C496 C 0.57386 0.48864 0.97628 0.0
C497 C 0.57896 0.50158 0.96311 0.0
C498 C 0.59453 0.51235 0.96554 0.0
C499 C 0.60534 0.5105 0.98122 0.0
C500 C 0.60015 0.49765 0.99443 0.0
C501 C 0.58467 0.48684 0.99197 0.0
C502 C 0.53488 0.4377 0.99654 0.0
C503 C 0.54814 0.43195 0.00907 0.0
C504 C 0.74322 0.24239 0.35082 0.0
C505 C 0.73026 0.25564 0.35559 0.0
C506 C 0.71472 0.25757 0.34459 0.0
C507 C 0.7122 0.24653 0.32926 0.0
H508 H 0.68201 0.24272 0.28162 0.0
H509 H 0.65765 0.24872 0.25991 0.0
H510 H 0.67074 0.19899 0.2313 0.0
H511 H 0.69526 0.19318 0.2526 0.0
H512 H 0.73023 0.17239 0.26165 0.0
H513 H 0.74918 0.14588 0.25635 0.0
H514 H 0.77722 0.15578 0.30708 0.0
H515 H 0.75846 0.18269 0.31229 0.0
H516 H 0.75096 0.22124 0.33234 0.0
H517 H 0.7555 0.24071 0.35878 0.0
H518 H 0.70431 0.26743 0.34798 0.0
H519 H 0.7 0.24835 0.32122 0.0
N520 N 0.7085 0.22469 0.29658 0.0
N521 N 0.71697 0.1994 0.27907 0.0
N522 N 0.7334 0.20675 0.3054 0.0
C523 C 0.70575 0.21381 0.28184 0.0
C524 C 0.73081 0.19574 0.29072 0.0
C525 C 0.72229 0.22127 0.30844 0.0
C526 C 0.6907 0.21749 0.26888 0.0
C527 C 0.67971 0.23306 0.2707 0.0
C528 C 0.66567 0.23647 0.2583 0.0
C529 C 0.66227 0.22438 0.24381 0.0
C530 C 0.67317 0.20877 0.24209 0.0
C531 C 0.68721 0.20538 0.25442 0.0
C532 C 0.74272 0.17972 0.28746 0.0
C533 C 0.74043 0.16901 0.27172 0.0
C534 C 0.75125 0.15369 0.2687 0.0
C535 C 0.76465 0.1486 0.28134 0.0
C536 C 0.76713 0.15941 0.29698 0.0
C537 C 0.7563 0.1748 0.30001 0.0
C538 C 0.7251 0.23318 0.32458 0.0
C539 C 0.74066 0.23127 0.33556 0.0
C540 C 0.48316 0.10102 0.99743 0.0
C541 C 0.47104 0.10438 0.01186 0.0
C542 C 0.45615 0.09259 0.01431 0.0
C543 C 0.45331 0.07791 1.00251 0.0
H544 H 0.41556 0.03935 0.98966 0.0
H545 H 0.38893 0.02005 0.99406 0.0
H546 H 0.4083 0.9834 0.95237 0.0
H547 H 0.43508 1.00262 0.94794 0.0
H548 H 0.46307 0.02204 0.91835 0.0
H549 H 0.48251 0.01804 0.89175 0.0
H550 H 0.52328 0.05269 0.91619 0.0
H551 H 0.50387 0.0568 0.94287 0.0
H552 H 0.48983 0.08428 0.97452 0.0
H553 H 0.49467 0.10995 0.99507 0.0
H554 H 0.44671 0.09462 0.02545 0.0
H555 H 0.44163 0.0692 0.00483 0.0
N556 N 0.4472 0.0483 0.97745 0.0
N557 N 0.45505 0.0317 0.95134 0.0
N558 N 0.47315 0.05637 0.96071 0.0
C559 C 0.4437 0.03443 0.9657 0.0
C560 C 0.46981 0.0426 0.94875 0.0
C561 C 0.46189 0.05932 0.97511 0.0
C562 C 0.42751 0.02258 0.96842 0.0
C563 C 0.41422 0.02718 0.98141 0.0
C564 C 0.39887 0.01617 0.98389 0.0
C565 C 0.39651 1.00023 0.97354 0.0
C566 C 0.40983 0.99553 0.96065 0.0
C567 C 0.42513 0.00662 0.95805 0.0
C568 C 0.48186 0.03978 0.93278 0.0
C569 C 0.47619 0.02877 0.91814 0.0
C570 C 0.48727 0.02655 0.90282 0.0
C571 C 0.50437 0.03509 0.90188 0.0
C572 C 0.5102 0.04586 0.9166 0.0
C573 C 0.49903 0.04827 0.93184 0.0
C574 C 0.46529 0.07465 0.98792 0.0
C575 C 0.48031 0.08634 0.98559 0.0
Li576 Li 0.26722 0.88839 0.99775 0.0
Li577 Li 0.25299 0.865 0.01713 0.0
Li578 Li 0.24807 0.86553 0.98303 0.0
Li579 Li 0.23313 0.88801 1.00304 0.0
C580 C 0.28904 0.85882 0.99431 0.0
N581 N 0.3259 0.85383 0.98881 0.0
C582 C 0.30002 0.85246 0.00846 0.0
C583 C 0.29676 0.86237 0.97729 0.0
C584 C 0.31863 0.85009 0.00543 0.0
C585 C 0.31543 0.85985 0.9748 0.0
C586 C 0.25466 0.89568 0.03897 0.0
C587 C 0.24108 0.89763 0.0688 0.0
N588 N 0.25733 0.90316 0.07575 0.0
C589 C 0.27116 0.90161 0.04636 0.0
C590 C 0.23944 0.89388 0.05023 0.0
C591 C 0.27227 0.90523 0.06501 0.0
C592 C 0.28743 0.91728 0.98221 0.0
N593 N 0.28816 0.90361 0.99465 0.0
C594 C 0.31894 0.91132 1.00199 0.0
C595 C 0.30343 0.90062 0.00465 0.0
C596 C 0.31865 0.92541 0.98908 0.0
C597 C 0.30258 0.92841 0.9792 0.0
H598 H 0.27507 0.91952 0.97456 0.0
H599 H 0.30359 0.88993 0.01473 0.0
C600 C 0.24563 0.8341 0.03855 0.0
N601 N 0.25616 0.84931 0.03762 0.0
C602 C 0.24768 0.82183 0.0529 0.0
C603 C 0.27161 0.84093 0.065 0.0
C604 C 0.26906 0.85285 0.05042 0.0
C605 C 0.26087 0.82512 0.06636 0.0
H606 H 0.23573 0.83136 0.02801 0.0
H607 H 0.27769 0.86469 0.0491 0.0
C608 C 0.24355 0.89538 0.96206 0.0
N609 N 0.23647 0.90069 0.92552 0.0
C610 C 0.22612 0.90033 0.95634 0.0
C611 C 0.25745 0.89341 0.94922 0.0
C612 C 0.22279 0.90289 0.9378 0.0
C613 C 0.25358 0.89607 0.9308 0.0
C614 C 0.21267 0.85638 0.00695 0.0
C615 C 0.20104 0.85005 0.99327 0.0
C616 C 0.20629 0.85774 0.02482 0.0
C617 C 0.18307 0.84558 0.99764 0.0
C618 C 0.18824 0.85313 0.02865 0.0
N619 N 0.17709 0.84722 0.01509 0.0
C620 C 0.25821 0.83708 0.95942 0.0
C621 C 0.23142 0.85236 0.95019 0.0
C622 C 0.25715 0.82544 0.94441 0.0
N623 N 0.24554 0.85031 0.96196 0.0
C624 C 0.2298 0.84098 0.93499 0.0
C625 C 0.2428 0.8273 0.93193 0.0
H626 H 0.26906 0.8354 0.96917 0.0
H627 H 0.22131 0.86273 0.95264 0.0
C628 C 0.21395 0.91795 0.01758 0.0
N629 N 0.21206 0.9029 0.00693 0.0
C630 C 0.19904 0.92919 0.02112 0.0
C631 C 0.1805 0.90945 1.0024 0.0
C632 C 0.19579 0.89863 0.99919 0.0
C633 C 0.18198 0.92496 0.01355 0.0
H634 H 0.22708 0.92125 0.02336 0.0
H635 H 0.19469 0.88694 0.99032 0.0
O636 O 0.27081 0.86141 0.99709 0.0
O637 O 0.25336 0.89199 0.02074 0.0
O638 O 0.24703 0.89269 0.98015 0.0
O639 O 0.23028 0.86094 1.00288 0.0
H640 H 0.29426 0.84946 0.02165 0.0
H641 H 0.28843 0.86701 0.96613 0.0
H642 H 0.32731 0.84529 0.01629 0.0
H643 H 0.3216 0.86265 0.96173 0.0
H644 H 0.22941 0.89623 0.07768 0.0
H645 H 0.28303 0.9033 0.03783 0.0
H646 H 0.22645 0.88979 0.04468 0.0
H647 H 0.285 0.90969 0.07093 0.0
H648 H 0.33095 0.90874 0.01011 0.0
H649 H 0.30181 0.93907 0.96906 0.0
H650 H 0.23899 0.80991 0.05344 0.0
H651 H 0.28221 0.84383 0.07483 0.0
H652 H 0.21525 0.90209 0.96609 0.0
H653 H 0.27108 0.88991 0.95342 0.0
H654 H 0.20934 0.90661 0.93318 0.0
H655 H 0.26418 0.89449 0.92071 0.0
H656 H 0.20578 0.84872 0.97941 0.0
H657 H 0.21521 0.86214 0.03565 0.0
H658 H 0.17389 0.84079 0.98716 0.0
H659 H 0.18311 0.8542 0.04241 0.0
H660 H 0.26727 0.81486 0.9428 0.0
H661 H 0.21857 0.84297 0.92568 0.0
H662 H 0.2008 0.94093 0.02988 0.0
H663 H 0.16773 0.90587 0.99597 0.0
Li664 Li 0.1169 0.50632 0.26955 0.0
Li665 Li 0.14108 0.48673 0.25729 0.0
Li666 Li 0.14155 0.52062 0.25149 0.0
Li667 Li 0.12 0.50023 0.23574 0.0
C668 C 0.14676 0.51344 0.29217 0.0
N669 N 0.15342 0.52619 0.32696 0.0
C670 C 0.15312 0.5016 0.30562 0.0
C671 C 0.14408 0.53181 0.29635 0.0
C672 C 0.15632 0.50829 0.32315 0.0
C673 C 0.14745 0.53799 0.31402 0.0
C674 C 0.11184 0.46492 0.25947 0.0
C675 C 0.11345 0.43345 0.25015 0.0
N676 N 0.1075 0.42828 0.2669 0.0
C677 C 0.10556 0.45931 0.27652 0.0
C678 C 0.11565 0.45191 0.2461 0.0
C679 C 0.10352 0.44072 0.28004 0.0
C680 C 0.08407 0.51838 0.28532 0.0
N681 N 0.09996 0.50967 0.28897 0.0
C682 C 0.09093 0.50511 0.31991 0.0
C683 C 0.1035 0.50292 0.30582 0.0
C684 C 0.07446 0.51419 0.3166 0.0
C685 C 0.0711 0.52085 0.299 0.0
H686 H 0.08144 0.52334 0.27172 0.0
H687 H 0.11592 0.4955 0.30826 0.0
C688 C 0.16947 0.46157 0.25081 0.0
N689 N 0.15588 0.46605 0.26253 0.0
C690 C 0.18072 0.4467 0.25441 0.0
C691 C 0.16386 0.44137 0.28215 0.0
C692 C 0.15297 0.45637 0.27803 0.0
C693 C 0.178 0.43636 0.27028 0.0
H694 H 0.17173 0.46968 0.23876 0.0
H695 H 0.14224 0.46036 0.28726 0.0
C696 C 0.10964 0.54128 0.24689 0.0
N697 N 0.09924 0.57726 0.24328 0.0
C698 C 0.10537 0.54831 0.22975 0.0
C699 C 0.10826 0.55247 0.26224 0.0
C700 C 0.10025 0.56655 0.22819 0.0
C701 C 0.10308 0.57064 0.26012 0.0
C702 C 0.15121 0.49769 0.21655 0.0
C703 C 0.15789 0.51219 0.20619 0.0
C704 C 0.14871 0.48065 0.20839 0.0
C705 C 0.16165 0.50949 0.18774 0.0
C706 C 0.15261 0.47849 0.1899 0.0
N707 N 0.15893 0.49284 0.18004 0.0
C708 C 0.17171 0.54273 0.26053 0.0
C709 C 0.15362 0.55465 0.2367 0.0
C710 C 0.18345 0.55769 0.25956 0.0
N711 N 0.157 0.54158 0.24935 0.0
C712 C 0.16506 0.56981 0.23519 0.0
C713 C 0.18019 0.57151 0.24677 0.0
H714 H 0.1744 0.53195 0.27015 0.0
H715 H 0.14221 0.55322 0.22758 0.0
C716 C 0.09272 0.48381 0.21429 0.0
N717 N 0.10641 0.49629 0.21385 0.0
C718 C 0.08217 0.48052 0.19881 0.0
C719 C 0.09996 0.50301 0.18266 0.0
C720 C 0.11008 0.50596 0.19849 0.0
C721 C 0.08575 0.49018 0.18271 0.0
H722 H 0.0899 0.47647 0.22672 0.0
H723 H 0.12074 0.5161 0.19856 0.0
O724 O 0.14346 0.50708 0.27496 0.0
O725 O 0.11411 0.48306 0.25584 0.0
O726 O 0.11467 0.52343 0.24865 0.0
O727 O 0.1473 0.50013 0.2346 0.0
H728 H 0.15547 0.48739 0.3026 0.0
H729 H 0.13967 0.54125 0.28601 0.0
H730 H 0.16112 0.49926 0.33372 0.0
H731 H 0.14539 0.55217 0.31744 0.0
H732 H 0.11645 0.42323 0.23996 0.0
H733 H 0.10241 0.46918 0.28698 0.0
H734 H 0.12024 0.45602 0.23275 0.0
H735 H 0.09879 0.43618 0.29322 0.0
H736 H 0.09393 0.49941 0.33316 0.0
H737 H 0.05863 0.52803 0.29585 0.0
H738 H 0.19166 0.44357 0.24504 0.0
H739 H 0.16115 0.43373 0.29446 0.0
H740 H 0.10615 0.53981 0.21775 0.0
H741 H 0.11095 0.54716 0.27567 0.0
H742 H 0.09706 0.5722 0.21498 0.0
H743 H 0.10202 0.57946 0.27189 0.0
H744 H 0.16006 0.52542 0.2123 0.0
H745 H 0.14379 0.46923 0.21624 0.0
H746 H 0.16673 0.52062 0.17955 0.0
H747 H 0.15063 0.46541 0.1834 0.0
H748 H 0.19514 0.55827 0.26851 0.0
H749 H 0.16201 0.58015 0.22515 0.0
H750 H 0.07142 0.47043 0.19941 0.0
H751 H 0.10299 0.51095 0.17062 0.0
Li752 Li 0.73919 0.61805 0.99953 0.0
Li753 Li 0.75595 0.64015 0.02019 0.0
Li754 Li 0.76079 0.64032 0.98765 0.0
Li755 Li 0.77327 0.61635 0.00554 0.0
C756 C 0.73095 0.65978 0.99255 0.0
N757 N 0.71892 0.69032 0.97431 0.0
C758 C 0.73754 0.677 0.99735 0.0
C759 C 0.71817 0.65807 0.97858 0.0
C760 C 0.73131 0.69228 0.98793 0.0
C761 C 0.71227 0.67369 0.9695 0.0
C762 C 0.74684 0.61143 0.04048 0.0
C763 C 0.75288 0.61195 0.07275 0.0
N764 N 0.73494 0.60881 0.07607 0.0
C765 C 0.72848 0.60807 0.04421 0.0
C766 C 0.75917 0.61325 0.05485 0.0
C767 C 0.72273 0.60683 0.0623 0.0
C768 C 0.71925 0.58661 0.99049 0.0
N769 N 0.71757 0.6043 0.99565 0.0
C770 C 0.68513 0.6018 0.99553 0.0
C771 C 0.70098 0.61203 0.99822 0.0
C772 C 0.68638 0.58345 0.99008 0.0
C773 C 0.70378 0.57592 0.98752 0.0
H774 H 0.73265 0.58084 0.98857 0.0
H775 H 0.70007 0.62609 1.00253 0.0
C776 C 0.76713 0.66633 0.04629 0.0
N777 N 0.75314 0.65527 0.04125 0.0
C778 C 0.76542 0.6778 0.06138 0.0
C779 C 0.73478 0.6666 0.06566 0.0
C780 C 0.73706 0.65542 0.05041 0.0
C781 C 0.74909 0.67802 0.07136 0.0
H782 H 0.77955 0.66646 0.03844 0.0
H783 H 0.72596 0.64688 0.04583 0.0
C784 C 0.7617 0.61261 0.96384 0.0
N785 N 0.76589 0.61054 0.9265 0.0
C786 C 0.77835 0.61716 0.95581 0.0
C787 C 0.7472 0.60696 0.95287 0.0
C788 C 0.78019 0.61606 0.93691 0.0
C789 C 0.74959 0.606 0.93403 0.0
C790 C 0.79748 0.64164 0.01028 0.0
C791 C 0.80995 0.64399 0.99609 0.0
C792 C 0.80382 0.63773 0.02778 0.0
C793 C 0.82854 0.64231 0.99964 0.0
C794 C 0.82251 0.63612 0.03077 0.0
N795 N 0.83439 0.63842 0.01675 0.0
C796 C 0.77689 0.67043 0.96997 0.0
C797 C 0.7548 0.65541 0.9519 0.0
C798 C 0.78049 0.68277 0.95598 0.0
N799 N 0.76455 0.65682 0.96759 0.0
C800 C 0.75794 0.66746 0.93753 0.0
C801 C 0.77109 0.68127 0.9394 0.0
H802 H 0.78389 0.6718 0.98283 0.0
H803 H 0.74455 0.64494 0.9505 0.0
C804 C 0.79163 0.58736 0.02307 0.0
N805 N 0.79262 0.59906 0.00876 0.0
C806 C 0.80535 0.57454 0.02596 0.0
C807 C 0.8209 0.58596 0.99934 0.0
C808 C 0.80678 0.5984 0.99684 0.0
C809 C 0.82028 0.5738 0.01405 0.0
H810 H 0.78014 0.58793 0.03222 0.0
H811 H 0.8072 0.60756 0.9854 0.0
O812 O 0.73726 0.64463 1.00126 0.0
O813 O 0.75269 0.61293 0.02285 0.0
O814 O 0.7596 0.61359 0.98232 0.0
O815 O 0.77918 0.64299 0.00706 0.0
H816 H 0.74751 0.6785 0.00809 0.0
H817 H 0.71306 0.6448 0.97462 0.0
H818 H 0.73637 0.70569 0.99141 0.0
H819 H 0.70246 0.67258 0.95857 0.0
H820 H 0.76226 0.61344 0.084 0.0
H821 H 0.71875 0.60657 0.03329 0.0
H822 H 0.77343 0.61571 0.05223 0.0
H823 H 0.70855 0.60434 0.06538 0.0
H824 H 0.67206 0.60813 0.99797 0.0
H825 H 0.70547 0.56196 0.98305 0.0
H826 H 0.77666 0.68666 0.06497 0.0
H827 H 0.72198 0.66621 0.07295 0.0
H828 H 0.78959 0.62189 0.96401 0.0
H829 H 0.73418 0.6035 0.95881 0.0
H830 H 0.79295 0.61968 0.93051 0.0
H831 H 0.73847 0.6017 0.92538 0.0
H832 H 0.80535 0.64676 0.9824 0.0
H833 H 0.7944 0.63586 0.03892 0.0
H834 H 0.83832 0.64399 0.98875 0.0
H835 H 0.82758 0.63301 0.04423 0.0
H836 H 0.79038 0.6935 0.9582 0.0
H837 H 0.75034 0.6658 0.92501 0.0
H838 H 0.80439 0.56544 0.03752 0.0
H839 H 0.83205 0.58567 0.9897 0.0
Li840 Li 0.87218 0.01613 0.25624 0.0
Li841 Li 0.89513 0.9958 0.26952 0.0
Li842 Li 0.89421 1.00238 0.23574 0.0
Li843 Li 0.87133 0.98225 0.24969 0.0
C844 C 0.90194 0.03707 0.26077 0.0
N845 N 0.90698 0.07331 0.26976 0.0
C846 C 0.90743 0.04193 0.27834 0.0
C847 C 0.89931 0.05062 0.2477 0.0
C848 C 0.90984 0.06033 0.28263 0.0
C849 C 0.90184 0.06887 0.25253 0.0
C850 C 0.86354 0.98912 0.2902 0.0
C851 C 0.86014 0.96441 0.31156 0.0
N852 N 0.85402 0.97639 0.3243 0.0
C853 C 0.85698 1.00114 0.30343 0.0
C854 C 0.86493 0.97057 0.29423 0.0
C855 C 0.85234 0.99445 0.32062 0.0
C856 C 0.84513 0.04263 0.24866 0.0
N857 N 0.85777 0.03729 0.26104 0.0
C858 C 0.85017 0.0623 0.2805 0.0
C859 C 0.86033 0.04668 0.27681 0.0
C860 C 0.83707 0.06823 0.26793 0.0
C861 C 0.83457 0.05812 0.25184 0.0
H862 H 0.8432 0.03484 0.23632 0.0
H863 H 0.87025 0.042 0.28658 0.0
C864 C 0.92736 0.98382 0.28621 0.0
N865 N 0.91109 0.99188 0.28968 0.0
C866 C 0.93994 0.9812 0.3002 0.0
C867 C 0.91893 0.99545 0.32109 0.0
C868 C 0.90674 0.99777 0.30669 0.0
C869 C 0.93583 0.9871 0.31794 0.0
H870 H 0.93063 0.97954 0.2725 0.0
H871 H 0.89403 0.00472 0.30903 0.0
C872 C 0.86461 0.00625 0.21472 0.0
N873 N 0.85997 0.01233 0.1779 0.0
C874 C 0.85839 0.99224 0.20341 0.0
C875 C 0.86821 0.02343 0.20735 0.0
C876 C 0.85619 0.99557 0.18482 0.0
C877 C 0.86586 0.02621 0.1887 0.0
C878 C 0.90329 0.96101 0.24785 0.0
C879 C 0.90914 0.95332 0.23145 0.0
C880 C 0.90309 0.95041 0.26363 0.0
C881 C 0.91425 0.935 0.23102 0.0
C882 C 0.90832 0.93215 0.26266 0.0
N883 N 0.91371 0.92488 0.2465 0.0
C884 C 0.9227 0.01842 0.21542 0.0
C885 C 0.90657 0.99531 0.19966 0.0
C886 C 0.93432 0.0209 0.20056 0.0
N887 N 0.90914 0.00582 0.21469 0.0
C888 C 0.91783 0.99737 0.18446 0.0
C889 C 0.932 0.01026 0.18479 0.0
H890 H 0.92469 0.02637 0.22765 0.0
H891 H 0.89589 0.98518 0.1995 0.0
C892 C 0.84066 0.95936 0.25574 0.0
N893 N 0.85608 0.9614 0.24569 0.0
C894 C 0.82937 0.94423 0.25309 0.0
C895 C 0.84973 0.93382 0.22947 0.0
C896 C 0.86063 0.94912 0.23259 0.0
C897 C 0.83388 0.93115 0.23984 0.0
H898 H 0.83712 0.96948 0.26583 0.0
H899 H 0.87256 0.95136 0.22432 0.0
O900 O 0.89928 0.01914 0.25638 0.0
O901 O 0.86821 0.99546 0.27331 0.0
O902 O 0.86703 1.0032 0.23293 0.0
O903 O 0.89822 0.97894 0.24849 0.0
H904 H 0.90966 0.03165 0.28859 0.0
H905 H 0.89535 0.0471 0.23398 0.0
H906 H 0.91395 0.06429 0.29621 0.0
H907 H 0.89973 0.07949 0.24257 0.0
H908 H 0.8612 0.9501 0.31486 0.0
H909 H 0.85557 0.01548 0.30051 0.0
H910 H 0.86943 0.96099 0.28402 0.0
H911 H 0.84737 1.00363 0.33102 0.0
H912 H 0.85235 0.06951 0.29319 0.0
H913 H 0.82471 0.06227 0.24172 0.0
H914 H 0.95273 0.97456 0.29714 0.0
H915 H 0.91532 1.00057 0.33444 0.0
H916 H 0.85535 0.97893 0.20889 0.0
H917 H 0.87278 0.03448 0.21594 0.0
H918 H 0.85148 0.98482 0.17589 0.0
H919 H 0.86871 0.03941 0.1828 0.0
H920 H 0.90961 0.96135 0.21915 0.0
H921 H 0.89919 0.95625 0.27655 0.0
H922 H 0.91865 0.92884 0.21839 0.0
H923 H 0.90817 0.92379 0.27477 0.0
H924 H 0.94525 0.03077 0.2016 0.0
H925 H 0.91539 0.98899 0.17257 0.0
H926 H 0.81734 0.94271 0.26149 0.0
H927 H 0.85354 0.92435 0.21882 0.0
Li928 Li 0.24774 0.1429 0.5191 0.0
Li929 Li 0.23468 0.12031 0.49789 0.0
Li930 Li 0.26664 0.12038 0.50418 0.0
Li931 Li 0.2541 0.14444 0.48645 0.0
C932 C 0.25578 0.10689 0.5352 0.0
N933 N 0.27564 0.08841 0.56122 0.0
C934 C 0.25354 0.0881 0.53738 0.0
C935 C 0.26817 0.11625 0.54624 0.0
C936 C 0.2637 0.07901 0.55061 0.0
C937 C 0.27804 0.10668 0.55934 0.0
C938 C 0.2135 0.15108 0.50584 0.0
C939 C 0.18623 0.16927 0.50626 0.0
N940 N 0.17967 0.15899 0.5202 0.0
C941 C 0.20649 0.14068 0.52016 0.0
C942 C 0.20331 0.16549 0.49882 0.0
C943 C 0.18936 0.1449 0.52723 0.0
C944 C 0.24472 0.17585 0.53846 0.0
N945 N 0.24301 0.1575 0.54013 0.0
C946 C 0.23395 0.16066 0.57124 0.0
C947 C 0.23751 0.14979 0.55602 0.0
C948 C 0.23563 0.17973 0.57003 0.0
C949 C 0.241 0.18727 0.55324 0.0
H950 H 0.24881 0.18162 0.52554 0.0
H951 H 0.23588 0.13518 0.55692 0.0
C952 C 0.21497 0.08739 0.49675 0.0
N953 N 0.21403 0.10533 0.49238 0.0
C954 C 0.20038 0.07575 0.49305 0.0
C955 C 0.18431 0.10112 0.47972 0.0
C956 C 0.19914 0.11232 0.48389 0.0
C957 C 0.18478 0.0826 0.48444 0.0
H958 H 0.22716 0.08208 0.50294 0.0
H959 H 0.19879 0.12656 0.48023 0.0
C960 C 0.28824 0.15195 0.5006 0.0
N961 N 0.32193 0.16236 0.4875 0.0
C962 C 0.29634 0.1423 0.48634 0.0
C963 C 0.29728 0.1669 0.50821 0.0
C964 C 0.31337 0.14777 0.4799 0.0
C965 C 0.31431 0.17195 0.5014 0.0
C966 C 0.24771 0.11523 0.46317 0.0
C967 C 0.25455 0.1013 0.45216 0.0
C968 C 0.23358 0.12618 0.45673 0.0
C969 C 0.24709 0.09851 0.43489 0.0
C970 C 0.22648 0.12296 0.43939 0.0
N971 N 0.23332 0.1093 0.42892 0.0
C972 C 0.28606 0.08807 0.49819 0.0
C973 C 0.3016 0.10899 0.5173 0.0
C974 C 0.30035 0.07564 0.49957 0.0
N975 N 0.28696 0.10437 0.50695 0.0
C976 C 0.31613 0.09689 0.51919 0.0
C977 C 0.31563 0.07998 0.5102 0.0
H978 H 0.27417 0.08471 0.49018 0.0
H979 H 0.30198 0.12204 0.52413 0.0
C980 C 0.2504 0.17772 0.46769 0.0
N981 N 0.2583 0.16103 0.46688 0.0
C982 C 0.25307 0.19028 0.45365 0.0
C983 C 0.27213 0.16829 0.43832 0.0
C984 C 0.26897 0.15612 0.45257 0.0
C985 C 0.26411 0.18567 0.43869 0.0
H986 H 0.24197 0.18125 0.47923 0.0
H987 H 0.27507 0.14274 0.45222 0.0
O988 O 0.24635 0.11603 0.52199 0.0
O989 O 0.23027 0.14731 0.49868 0.0
O990 O 0.27155 0.14692 0.50716 0.0
O991 O 0.25494 0.11802 0.48012 0.0
H992 H 0.2441 0.08057 0.52898 0.0
H993 H 0.2704 0.13072 0.54449 0.0
H994 H 0.26211 0.06447 0.55242 0.0
H995 H 0.28773 0.11376 0.5679 0.0
H996 H 0.17818 0.18039 0.50096 0.0
H997 H 0.21412 0.12944 0.52576 0.0
H998 H 0.20853 0.17365 0.48772 0.0
H999 H 0.18377 0.13697 0.53831 0.0
H1000 H 0.23011 0.15409 0.58385 0.0
H1001 H 0.24209 0.20185 0.5514 0.0
H1002 H 0.2014 0.06147 0.4966 0.0
H1003 H 0.17252 0.10692 0.47309 0.0
H1004 H 0.28956 0.1307 0.48027 0.0
H1005 H 0.29117 0.17451 0.51926 0.0
H1006 H 0.31979 0.14043 0.46886 0.0
H1007 H 0.32146 0.18349 0.50715 0.0
H1008 H 0.26552 0.09272 0.45692 0.0
H1009 H 0.22813 0.13709 0.46497 0.0
H1010 H 0.25224 0.08776 0.42623 0.0
H1011 H 0.21553 0.13133 0.43425 0.0
H1012 H 0.29933 0.06266 0.4926 0.0
H1013 H 0.32774 0.10083 0.52739 0.0
H1014 H 0.24638 0.20338 0.45445 0.0
H1015 H 0.28096 0.16418 0.42727 0.0
Li1016 Li 0.39652 0.50142 0.77231 0.0
Li1017 Li 0.37215 0.5217 0.75956 0.0
Li1018 Li 0.37182 0.48809 0.75429 0.0
Li1019 Li 0.39439 0.50704 0.74005 0.0
C1020 C 0.36505 0.48964 0.7914 0.0
N1021 N 0.35525 0.46554 0.81854 0.0
C1022 C 0.35011 0.49337 0.80256 0.0
C1023 C 0.37499 0.47365 0.79401 0.0
C1024 C 0.34538 0.48101 0.81622 0.0
C1025 C 0.36982 0.46164 0.80781 0.0
C1026 C 0.41338 0.53493 0.75336 0.0
C1027 C 0.42605 0.55686 0.73243 0.0
N1028 N 0.44287 0.55375 0.73944 0.0
C1029 C 0.43078 0.53207 0.76046 0.0
C1030 C 0.41096 0.54755 0.73933 0.0
C1031 C 0.44552 0.54168 0.75321 0.0
C1032 C 0.42756 0.48772 0.79008 0.0
N1033 N 0.41242 0.49806 0.7924 0.0
C1034 C 0.42059 0.50431 0.82327 0.0
C1035 C 0.40871 0.50629 0.80855 0.0
C1036 C 0.43646 0.49382 0.82128 0.0
C1037 C 0.43982 0.48541 0.8044 0.0
H1038 H 0.43019 0.48144 0.77702 0.0
H1039 H 0.39659 0.51451 0.80994 0.0
C1040 C 0.33941 0.53967 0.76796 0.0
N1041 N 0.35735 0.54235 0.76439 0.0
C1042 C 0.32807 0.55451 0.77153 0.0
C1043 C 0.35391 0.57456 0.76761 0.0
C1044 C 0.36477 0.55932 0.76427 0.0
C1045 C 0.33525 0.5723 0.77131 0.0
H1046 H 0.33393 0.52598 0.76807 0.0
H1047 H 0.3791 0.56103 0.76143 0.0
C1048 C 0.40139 0.46962 0.74016 0.0
N1049 N 0.40719 0.44183 0.71542 0.0
C1050 C 0.39225 0.46954 0.72348 0.0
C1051 C 0.41347 0.45554 0.74426 0.0
C1052 C 0.39537 0.45539 0.71115 0.0
C1053 C 0.41622 0.44161 0.73157 0.0
C1054 C 0.36038 0.51532 0.72142 0.0
C1055 C 0.3524 0.50396 0.70836 0.0
C1056 C 0.36076 0.53414 0.71859 0.0
C1057 C 0.34512 0.51163 0.69258 0.0
C1058 C 0.35333 0.54128 0.70263 0.0
N1059 N 0.34574 0.52997 0.69006 0.0
C1060 C 0.33904 0.47123 0.74441 0.0
C1061 C 0.36129 0.45053 0.75511 0.0
C1062 C 0.32706 0.45691 0.74067 0.0
N1063 N 0.35586 0.4678 0.75124 0.0
C1064 C 0.34968 0.43579 0.75171 0.0
C1065 C 0.33239 0.43889 0.74417 0.0
H1066 H 0.33502 0.48511 0.74163 0.0
H1067 H 0.37473 0.44815 0.76056 0.0
C1068 C 0.42773 0.50598 0.72175 0.0
N1069 N 0.40981 0.50952 0.71891 0.0
C1070 C 0.4403 0.50771 0.70759 0.0
C1071 C 0.41564 0.51576 0.68749 0.0
C1072 C 0.4036 0.51419 0.70212 0.0
C1073 C 0.43435 0.5127 0.69012 0.0
H1074 H 0.43231 0.50196 0.73514 0.0
H1075 H 0.38935 0.51661 0.6999 0.0
O1076 O 0.36975 0.50155 0.77789 0.0
O1077 O 0.39884 0.52539 0.76007 0.0
O1078 O 0.3985 0.48326 0.75254 0.0
O1079 O 0.36748 0.50803 0.737 0.0
H1080 H 0.34226 0.50569 0.80066 0.0
H1081 H 0.38654 0.4705 0.78544 0.0
H1082 H 0.33385 0.48372 0.82496 0.0
H1083 H 0.37738 0.4492 0.80997 0.0
H1084 H 0.42438 0.56653 0.72146 0.0
H1085 H 0.43292 0.52244 0.77136 0.0
H1086 H 0.39762 0.54995 0.73366 0.0
H1087 H 0.45907 0.53952 0.75851 0.0
H1088 H 0.41756 0.51121 0.83595 0.0
H1089 H 0.45174 0.47702 0.80231 0.0
H1090 H 0.31387 0.55203 0.77461 0.0
H1091 H 0.36004 0.58797 0.76702 0.0
H1092 H 0.38286 0.48028 0.72007 0.0
H1093 H 0.42059 0.45532 0.75715 0.0
H1094 H 0.38838 0.45519 0.6982 0.0
H1095 H 0.42552 0.43062 0.73457 0.0
H1096 H 0.3519 0.48937 0.71034 0.0
H1097 H 0.36679 0.54315 0.72853 0.0
H1098 H 0.33897 0.50299 0.68233 0.0
H1099 H 0.35359 0.55582 0.70024 0.0
H1100 H 0.31376 0.45992 0.7351 0.0
H1101 H 0.35437 0.4221 0.7545 0.0
H1102 H 0.45455 0.50539 0.71045 0.0
H1103 H 0.41025 0.51917 0.67422 0.0
Li1104 Li 0.76739 0.38965 0.50058 0.0
Li1105 Li 0.75256 0.36725 0.51904 0.0
Li1106 Li 0.74793 0.36712 0.48647 0.0
Li1107 Li 0.73319 0.39107 0.50658 0.0
C1108 C 0.78912 0.36176 0.49667 0.0
N1109 N 0.82618 0.36053 0.49032 0.0
C1110 C 0.8011 0.3574 0.51079 0.0
C1111 C 0.79601 0.36539 0.47931 0.0
C1112 C 0.81978 0.35685 0.5073 0.0
C1113 C 0.81478 0.36475 0.47638 0.0
C1114 C 0.75799 0.39563 0.54176 0.0
C1115 C 0.74983 0.40495 0.57218 0.0
N1116 N 0.76609 0.39868 0.57836 0.0
C1117 C 0.77463 0.38933 0.54841 0.0
C1118 C 0.74547 0.40353 0.55372 0.0
C1119 C 0.77846 0.39096 0.56696 0.0
C1120 C 0.78634 0.41825 0.48355 0.0
N1121 N 0.78797 0.40545 0.49681 0.0
C1122 C 0.81777 0.41643 0.50424 0.0
C1123 C 0.80326 0.40444 0.5072 0.0
C1124 C 0.8164 0.42981 0.49067 0.0
C1125 C 0.80042 0.43061 0.48024 0.0
H1126 H 0.77399 0.41902 0.47563 0.0
H1127 H 0.80423 0.39445 0.51789 0.0
C1128 C 0.76449 0.33589 0.53803 0.0
N1129 N 0.75431 0.35124 0.53973 0.0
C1130 C 0.76594 0.32367 0.55251 0.0
C1131 C 0.74586 0.3429 0.57006 0.0
C1132 C 0.74481 0.35474 0.55524 0.0
C1133 C 0.75663 0.32715 0.56886 0.0
H1134 H 0.7713 0.33299 0.52531 0.0
H1135 H 0.73624 0.36664 0.55608 0.0
C1136 C 0.74176 0.39621 0.46552 0.0
N1137 N 0.73077 0.39939 0.4297 0.0
C1138 C 0.72374 0.40062 0.46143 0.0
C1139 C 0.75425 0.39365 0.45139 0.0
C1140 C 0.71843 0.40213 0.44323 0.0
C1141 C 0.74841 0.39524 0.43337 0.0
C1142 C 0.72082 0.35076 0.51468 0.0
C1143 C 0.72545 0.33276 0.51064 0.0
C1144 C 0.7083 0.35442 0.52852 0.0
C1145 C 0.71759 0.31865 0.52071 0.0
C1146 C 0.70072 0.33993 0.53826 0.0
N1147 N 0.70551 0.3225 0.5342 0.0
C1148 C 0.75706 0.34017 0.46037 0.0
C1149 C 0.72788 0.35318 0.45638 0.0
C1150 C 0.75455 0.32904 0.44513 0.0
N1151 N 0.74391 0.3521 0.46554 0.0
C1152 C 0.72484 0.34242 0.44096 0.0
C1153 C 0.73831 0.33016 0.43513 0.0
H1154 H 0.76949 0.33919 0.46814 0.0
H1155 H 0.71741 0.36238 0.46108 0.0
C1156 C 0.71654 0.42389 0.51665 0.0
N1157 N 0.71304 0.40679 0.51043 0.0
C1158 C 0.70226 0.43588 0.52025 0.0
C1159 C 0.68105 0.41265 0.5104 0.0
C1160 C 0.69575 0.40101 0.5072 0.0
C1161 C 0.68423 0.43029 0.51718 0.0
H1162 H 0.73045 0.42813 0.51897 0.0
H1163 H 0.6934 0.38734 0.50218 0.0
O1164 O 0.77077 0.3625 0.49982 0.0
O1165 O 0.75393 0.39405 0.52365 0.0
O1166 O 0.74715 0.39443 0.48325 0.0
O1167 O 0.72877 0.36475 0.50535 0.0
H1168 H 0.7961 0.3547 0.52436 0.0
H1169 H 0.78697 0.36874 0.46823 0.0
H1170 H 0.8292 0.35359 0.51812 0.0
H1171 H 0.82028 0.36761 0.46303 0.0
H1172 H 0.74025 0.41099 0.5816 0.0
H1173 H 0.78431 0.3829 0.53941 0.0
H1174 H 0.73247 0.40836 0.54885 0.0
H1175 H 0.79124 0.38602 0.5723 0.0
H1176 H 0.82975 0.4155 0.51276 0.0
H1177 H 0.79884 0.44065 0.46958 0.0
H1178 H 0.77404 0.31148 0.55082 0.0
H1179 H 0.73845 0.34615 0.58238 0.0
H1180 H 0.7139 0.40272 0.47217 0.0
H1181 H 0.76829 0.39043 0.4543 0.0
H1182 H 0.70449 0.40542 0.43987 0.0
H1183 H 0.75791 0.39318 0.42231 0.0
H1184 H 0.73519 0.32974 0.49999 0.0
H1185 H 0.70467 0.36831 0.53187 0.0
H1186 H 0.72114 0.30464 0.51783 0.0
H1187 H 0.69111 0.34255 0.5491 0.0
H1188 H 0.76531 0.31982 0.4411 0.0
H1189 H 0.71199 0.34348 0.43384 0.0
H1190 H 0.7053 0.44943 0.52526 0.0
H1191 H 0.66733 0.4078 0.50796 0.0
Li1192 Li 0.63727 0.98882 0.75871 0.0
Li1193 Li 0.61447 0.00921 0.77197 0.0
Li1194 Li 0.61416 1.00162 0.7393 0.0
Li1195 Li 0.63764 0.02164 0.75231 0.0
C1196 C 0.596 0.97497 0.75565 0.0
N1197 N 0.56561 0.95546 0.74498 0.0
C1198 C 0.57922 0.97807 0.76406 0.0
C1199 C 0.59733 0.96189 0.74186 0.0
C1200 C 0.56402 0.96806 0.75848 0.0
C1201 C 0.5818 0.95219 0.73663 0.0
C1202 C 0.64261 0.01141 0.79416 0.0
C1203 C 0.63985 0.02999 0.82112 0.0
N1204 N 0.6437 0.01521 0.83156 0.0
C1205 C 0.6466 0.99641 0.80514 0.0
C1206 C 0.63929 0.02836 0.80218 0.0
C1207 C 0.64708 0.99862 0.82403 0.0
C1208 C 0.66989 0.9703 0.76758 0.0
N1209 N 0.65207 0.96799 0.76319 0.0
C1210 C 0.65505 0.93565 0.76521 0.0
C1211 C 0.64452 0.95112 0.76205 0.0
C1212 C 0.67353 0.93755 0.76978 0.0
C1213 C 0.68093 0.9552 0.77093 0.0
H1214 H 0.67549 0.98391 0.76857 0.0
H1215 H 0.6303 0.94964 0.7587 0.0
C1216 C 0.58905 0.0284 0.79404 0.0
N1217 N 0.59968 0.01331 0.79294 0.0
C1218 C 0.5782 0.03139 0.80939 0.0
C1219 C 0.58948 1.00327 0.82217 0.0
C1220 C 0.59989 1.0007 0.80648 0.0
C1221 C 0.57843 0.01877 0.82374 0.0
H1222 H 0.58896 0.0381 0.78299 0.0
H1223 H 0.60817 0.98862 0.80506 0.0
C1224 C 0.65513 0.99194 0.72829 0.0
N1225 N 0.68497 0.97231 0.71662 0.0
C1226 C 0.67264 0.99914 0.73027 0.0
C1227 C 0.65278 0.9748 0.7203 0.0
C1228 C 0.68756 0.98899 0.72428 0.0
C1229 C 0.66804 0.96507 0.71453 0.0
C1230 C 0.60996 0.04313 0.745 0.0
C1231 C 0.60608 0.04657 0.72671 0.0
C1232 C 0.6136 0.05765 0.75679 0.0
C1233 C 0.60605 0.06454 0.72047 0.0
C1234 C 0.61348 0.07542 0.75001 0.0
N1235 N 0.60975 0.07846 0.73214 0.0
C1236 C 0.58077 0.99857 0.72006 0.0
C1237 C 0.60721 0.99371 0.70227 0.0
C1238 C 0.56964 0.99494 0.70507 0.0
N1239 N 0.59916 0.99754 0.71848 0.0
C1240 C 0.59662 0.9903 0.68686 0.0
C1241 C 0.57752 0.99069 0.68813 0.0
H1242 H 0.57473 1.00198 0.73304 0.0
H1243 H 0.62188 0.99337 0.70129 0.0
C1244 C 0.66365 0.04935 0.76032 0.0
N1245 N 0.65298 0.042 0.7471 0.0
C1246 C 0.67519 0.06398 0.75636 0.0
C1247 C 0.66454 0.06318 0.72525 0.0
C1248 C 0.65333 0.04849 0.72979 0.0
C1249 C 0.67576 0.07112 0.7386 0.0
H1250 H 0.6634 0.0437 0.77389 0.0
H1251 H 0.6449 0.04219 0.71947 0.0
O1252 O 0.61101 0.98474 0.76084 0.0
O1253 O 0.64178 0.00947 0.77566 0.0
O1254 O 0.64039 1.00144 0.7345 0.0
O1255 O 0.61038 0.02562 0.75131 0.0
H1256 H 0.5779 0.98817 0.77471 0.0
H1257 H 0.61014 0.95948 0.73502 0.0
H1258 H 0.55094 0.97036 0.76483 0.0
H1259 H 0.58261 0.94214 0.72588 0.0
H1260 H 0.63718 0.04299 0.82752 0.0
H1261 H 0.64909 0.98317 0.79918 0.0
H1262 H 0.63608 0.04008 0.79388 0.0
H1263 H 0.65006 0.98711 0.83271 0.0
H1264 H 0.64879 0.92234 0.76393 0.0
H1265 H 0.69502 0.95735 0.77467 0.0
H1266 H 0.56989 0.04353 0.81012 0.0
H1267 H 0.58982 0.99309 0.83282 0.0
H1268 H 0.67471 0.01233 0.73653 0.0
H1269 H 0.63932 0.96898 0.7188 0.0
H1270 H 0.70119 0.99436 0.7258 0.0
H1271 H 0.66644 0.95173 0.70843 0.0
H1272 H 0.60327 0.03549 0.7174 0.0
H1273 H 0.61668 0.05521 0.77097 0.0
H1274 H 0.60316 0.0674 0.70632 0.0
H1275 H 0.61639 0.08678 0.75894 0.0
H1276 H 0.55503 0.99522 0.70688 0.0
H1277 H 0.60339 0.98756 0.67405 0.0
H1278 H 0.68383 0.06938 0.76702 0.0
H1279 H 0.66433 0.0683 0.71144 0.0
Li1280 Li 0.01986 0.25886 0.86231 0.0
Li1281 Li 0.99946 0.27096 0.88602 0.0
Li1282 Li 0.00836 0.2388 0.88559 0.0
Li1283 Li 0.98734 0.25107 0.86276 0.0
C1284 C 0.03415 0.25512 0.90335 0.0
N1285 N 0.05291 0.24232 0.93326 0.0
C1286 C 0.02887 0.2603 0.92088 0.0
C1287 C 0.04901 0.24351 0.901 0.0
C1288 C 0.03853 0.25367 0.93583 0.0
C1289 C 0.0583 0.23715 0.91631 0.0
C1290 C 0.99663 0.29354 0.85835 0.0
C1291 C 0.97817 0.32046 0.86169 0.0
N1292 N 0.99298 0.33099 0.85806 0.0
C1293 C 0.01166 0.30461 0.85458 0.0
C1294 C 0.97972 0.3015 0.86185 0.0
C1295 C 0.00953 0.32352 0.85451 0.0
C1296 C 0.03629 0.26534 0.82828 0.0
N1297 N 0.03972 0.26437 0.84643 0.0
C1298 C 0.07126 0.27057 0.84133 0.0
C1299 C 0.05674 0.26707 0.85314 0.0
C1300 C 0.06827 0.27116 0.82241 0.0
C1301 C 0.05043 0.26851 0.81598 0.0
H1302 H 0.02257 0.26336 0.82334 0.0
H1303 H 0.05904 0.26654 0.86766 0.0
C1304 C 0.97935 0.29132 0.91197 0.0
N1305 N 0.99457 0.2914 0.90146 0.0
C1306 C 0.97543 0.3061 0.92329 0.0
C1307 C 0.00307 0.3207 0.91299 0.0
C1308 C 0.0065 0.30558 0.90194 0.0
C1309 C 0.98732 0.32114 0.92387 0.0
H1310 H 0.97031 0.27971 0.91169 0.0
H1311 H 0.01867 0.30516 0.89366 0.0
C1312 C 0.01707 0.22762 0.84435 0.0
N1313 N 0.03535 0.215 0.81398 0.0
C1314 C 0.00816 0.22649 0.82758 0.0
C1315 C 0.03526 0.22225 0.84569 0.0
C1316 C 0.01764 0.22008 0.81239 0.0
C1317 C 0.04428 0.21595 0.83017 0.0
C1318 C 0.96648 0.24315 0.89069 0.0
C1319 C 0.96312 0.22481 0.89455 0.0
C1320 C 0.9519 0.25485 0.88725 0.0
C1321 C 0.94519 0.21846 0.89487 0.0
C1322 C 0.93417 0.24796 0.88766 0.0
N1323 N 0.93121 0.23007 0.89143 0.0
C1324 C 0.00716 0.21826 0.91809 0.0
C1325 C 0.02293 0.20391 0.8939 0.0
C1326 C 0.01023 0.2033 0.92941 0.0
N1327 N 0.01345 0.21826 0.90069 0.0
C1328 C 0.02645 0.18874 0.90477 0.0
C1329 C 0.01995 0.1882 0.92277 0.0
H1330 H 0.99954 0.22983 0.9231 0.0
H1331 H 0.02771 0.20419 0.88001 0.0
C1332 C 0.95964 0.259 0.83717 0.0
N1333 N 0.9668 0.24568 0.84779 0.0
C1334 C 0.94475 0.2553 0.82594 0.0
C1335 C 0.94488 0.22423 0.83676 0.0
C1336 C 0.95988 0.22849 0.84764 0.0
C1337 C 0.9371 0.23771 0.82565 0.0
H1338 H 0.96562 0.27246 0.83727 0.0
H1339 H 0.96605 0.21808 0.85598 0.0
O1340 O 0.02453 0.26101 0.88857 0.0
O1341 O 0.99849 0.27502 0.85881 0.0
O1342 O 0.00807 0.23407 0.85934 0.0
O1343 O 0.98396 0.24958 0.89004 0.0
H1344 H 0.01731 0.26917 0.92293 0.0
H1345 H 0.05317 0.23923 0.88753 0.0
H1346 H 0.03455 0.25749 0.94949 0.0
H1347 H 0.06975 0.22805 0.91471 0.0
H1348 H 0.9652 0.32681 0.8645 0.0
H1349 H 0.02485 0.2987 0.85191 0.0
H1350 H 0.96797 0.29313 0.86487 0.0
H1351 H 0.02106 0.33227 0.85169 0.0
H1352 H 0.08464 0.27294 0.84703 0.0
H1353 H 0.04738 0.26857 0.80157 0.0
H1354 H 0.96335 0.30561 0.93172 0.0
H1355 H 0.01256 0.332 0.91286 0.0
H1356 H 0.99412 0.23065 0.82625 0.0
H1357 H 0.04247 0.22329 0.85848 0.0
H1358 H 0.01093 0.21919 0.79931 0.0
H1359 H 0.0584 0.21191 0.83098 0.0
H1360 H 0.97423 0.21552 0.89706 0.0
H1361 H 0.95426 0.26904 0.88407 0.0
H1362 H 0.94239 0.20429 0.89778 0.0
H1363 H 0.92277 0.25684 0.88492 0.0
H1364 H 0.00469 0.20344 0.94307 0.0
H1365 H 0.03424 0.17758 0.89911 0.0
H1366 H 0.93953 0.26604 0.81734 0.0
H1367 H 0.93939 0.21054 0.83718 0.0
Li1368 Li 0.51822 0.76349 0.36897 0.0
Li1369 Li 0.49745 0.77438 0.39145 0.0
Li1370 Li 0.50703 0.74285 0.39183 0.0
Li1371 Li 0.48473 0.75426 0.36823 0.0
C1372 C 0.53998 0.77011 0.39601 0.0
N1373 N 0.57601 0.78103 0.39549 0.0
C1374 C 0.54457 0.78833 0.39927 0.0
C1375 C 0.55375 0.75746 0.39257 0.0
C1376 C 0.56286 0.79357 0.39895 0.0
C1377 C 0.57187 0.76325 0.39231 0.0
C1378 C 0.49094 0.79639 0.36296 0.0
C1379 C 0.46884 0.81892 0.35406 0.0
N1380 N 0.48031 0.83233 0.35977 0.0
C1381 C 0.50252 0.81039 0.36869 0.0
C1382 C 0.47396 0.80067 0.35556 0.0
C1383 C 0.49689 0.82847 0.367 0.0
C1384 C 0.54471 0.75493 0.34237 0.0
N1385 N 0.53859 0.76858 0.35329 0.0
C1386 C 0.56212 0.78842 0.34251 0.0
C1387 C 0.54679 0.78522 0.35331 0.0
C1388 C 0.5689 0.77447 0.33133 0.0
C1389 C 0.55989 0.75758 0.33122 0.0
H1390 H 0.53787 0.7419 0.34237 0.0
H1391 H 0.54162 0.79598 0.36185 0.0
C1392 C 0.50112 0.79736 0.42228 0.0
N1393 N 0.49058 0.79414 0.4074 0.0
C1394 C 0.49676 0.81139 0.43437 0.0
C1395 C 0.47033 0.81813 0.41609 0.0
C1396 C 0.4752 0.80395 0.40436 0.0
C1397 C 0.48125 0.82212 0.43128 0.0
H1398 H 0.51282 0.78887 0.42489 0.0
H1399 H 0.4666 0.80072 0.39289 0.0
C1400 C 0.50965 0.72058 0.36337 0.0
N1401 N 0.51438 0.68329 0.36141 0.0
C1402 C 0.49503 0.70925 0.3588 0.0
C1403 C 0.52672 0.71295 0.36673 0.0
C1404 C 0.49769 0.69043 0.35792 0.0
C1405 C 0.52882 0.69406 0.36575 0.0
C1406 C 0.47128 0.75691 0.40907 0.0
C1407 C 0.47801 0.75534 0.42678 0.0
C1408 C 0.45387 0.76394 0.40619 0.0
C1409 C 0.46722 0.76104 0.44137 0.0
C1410 C 0.4435 0.76947 0.42114 0.0
N1411 N 0.45034 0.76794 0.43827 0.0
C1412 C 0.5271 0.72258 0.41788 0.0
C1413 C 0.50089 0.70768 0.40637 0.0
C1414 C 0.53129 0.70749 0.42864 0.0
N1415 N 0.51227 0.7223 0.40684 0.0
C1416 C 0.5046 0.69226 0.41684 0.0
C1417 C 0.52004 0.69199 0.42813 0.0
H1418 H 0.53563 0.73456 0.41845 0.0
H1419 H 0.48898 0.70796 0.39774 0.0
C1420 C 0.46396 0.75419 0.33596 0.0
N1421 N 0.46436 0.74827 0.35347 0.0
C1422 C 0.44914 0.75002 0.3248 0.0
C1423 C 0.43565 0.73333 0.34976 0.0
C1424 C 0.45064 0.73801 0.36051 0.0
C1425 C 0.43474 0.73944 0.33167 0.0
H1426 H 0.47515 0.7622 0.3307 0.0
H1427 H 0.4514 0.73339 0.37447 0.0
O1428 O 0.52212 0.76472 0.39603 0.0
O1429 O 0.49618 0.77858 0.36451 0.0
O1430 O 0.50722 0.73903 0.3646 0.0
O1431 O 0.48184 0.75191 0.39461 0.0
H1432 H 0.53416 0.7984 0.40173 0.0
H1433 H 0.55049 0.74334 0.38994 0.0
H1434 H 0.56658 0.80764 0.40135 0.0
H1435 H 0.58263 0.7536 0.38956 0.0
H1436 H 0.45572 0.82243 0.34841 0.0
H1437 H 0.51553 0.80733 0.37475 0.0
H1438 H 0.46476 0.79003 0.35116 0.0
H1439 H 0.50567 0.83943 0.37151 0.0
H1440 H 0.56852 0.80173 0.34281 0.0
H1441 H 0.56471 0.74643 0.32286 0.0
H1442 H 0.50531 0.81364 0.44617 0.0
H1443 H 0.45823 0.82599 0.41316 0.0
H1444 H 0.48175 0.71489 0.35607 0.0
H1445 H 0.53821 0.72148 0.37019 0.0
H1446 H 0.48647 0.6815 0.3545 0.0
H1447 H 0.54193 0.68797 0.36845 0.0
H1448 H 0.49151 0.74999 0.4292 0.0
H1449 H 0.44854 0.76534 0.39253 0.0
H1450 H 0.47228 0.76003 0.45516 0.0
H1451 H 0.43004 0.77506 0.41913 0.0
H1452 H 0.54309 0.70808 0.43745 0.0
H1453 H 0.49558 0.68061 0.41591 0.0
H1454 H 0.44904 0.75481 0.31086 0.0
H1455 H 0.42478 0.72523 0.35559 0.0
Li1456 Li 1.00227 0.76679 0.61699 0.0
Li1457 Li 0.98323 0.75443 0.64058 0.0
Li1458 Li 0.01553 0.74869 0.64151 0.0
Li1459 Li 0.99548 0.73351 0.61817 0.0
C1460 C 0.99642 0.78964 0.64636 0.0
N1461 N 0.98286 0.82427 0.65204 0.0
C1462 C 0.98059 0.79525 0.63748 0.0
C1463 C 0.00538 0.80167 0.65811 0.0
C1464 C 0.97394 0.81279 0.64054 0.0
C1465 C 0.99831 0.81912 0.6608 0.0
C1466 C 0.96158 0.75234 0.60729 0.0
C1467 C 0.93453 0.73439 0.60214 0.0
N1468 N 0.92658 0.74894 0.59395 0.0
C1469 C 0.95317 0.7671 0.59875 0.0
C1470 C 0.95222 0.73584 0.60894 0.0
C1471 C 0.93545 0.76512 0.59213 0.0
C1472 C 0.99839 0.7855 0.58391 0.0
N1473 N 0.00629 0.78644 0.6006 0.0
C1474 C 0.01919 0.81552 0.59361 0.0
C1475 C 0.01662 0.801 0.60561 0.0
C1476 C 0.01093 0.81508 0.57637 0.0
C1477 C 1.00044 0.7998 0.57155 0.0
H1478 H 0.99042 0.77366 0.58023 0.0
H1479 H 0.02279 0.8014 0.61896 0.0
C1480 C 0.96748 0.76124 0.67458 0.0
N1481 N 0.96315 0.75965 0.65666 0.0
C1482 C 0.95398 0.76447 0.68755 0.0
C1483 C 0.93186 0.76561 0.66332 0.0
C1484 C 0.94574 0.76199 0.65086 0.0
C1485 C 0.9358 0.76668 0.68203 0.0
H1486 H 0.98148 0.7598 0.67883 0.0
H1487 H 0.94251 0.76125 0.6366 0.0
C1488 C 0.03608 0.75221 0.60874 0.0
N1489 N 0.06932 0.76493 0.59656 0.0
C1490 C 0.04413 0.74456 0.5933 0.0
C1491 C 0.04491 0.76634 0.61799 0.0
C1492 C 0.06095 0.75118 0.58735 0.0
C1493 C 0.06171 0.77258 0.61162 0.0
C1494 C 0.98731 0.72384 0.66014 0.0
C1495 C 0.99626 0.72391 0.67692 0.0
C1496 C 0.96957 0.717 0.65897 0.0
C1497 C 0.98722 0.71738 0.69232 0.0
C1498 C 0.96098 0.71062 0.6747 0.0
N1499 N 0.9699 0.71095 0.69091 0.0
C1500 C 0.03811 0.75687 0.67123 0.0
C1501 C 0.04913 0.73311 0.65234 0.0
C1502 C 0.05336 0.75555 0.68245 0.0
N1503 N 0.03634 0.74579 0.65651 0.0
C1504 C 0.06462 0.73129 0.66322 0.0
C1505 C 0.06691 0.74266 0.67848 0.0
H1506 H 0.0276 0.7667 0.67428 0.0
H1507 H 0.04735 0.72453 0.64049 0.0
C1508 C 0.99639 0.71298 0.58584 0.0
N1509 N 0.99209 0.71226 0.60381 0.0
C1510 C 0.99401 0.69767 0.57478 0.0
C1511 C 0.98265 0.68121 0.60091 0.0
C1512 C 0.98545 0.69679 0.6115 0.0
C1513 C 0.98697 0.68148 0.58225 0.0
H1514 H 1.00173 0.72548 0.58014 0.0
H1515 H 0.98217 0.69659 0.62584 0.0
O1516 O 0.0033 0.77256 0.64353 0.0
O1517 O 0.97894 0.75407 0.61379 0.0
O1518 O 0.01955 0.74597 0.61463 0.0
O1519 O 0.99589 0.73041 0.64496 0.0
H1520 H 0.97349 0.78619 0.62832 0.0
H1521 H 0.01772 0.79761 0.66501 0.0
H1522 H 0.96169 0.81729 0.63375 0.0
H1523 H 0.00511 0.82857 0.66984 0.0
H1524 H 0.92713 0.7217 0.60337 0.0
H1525 H 0.96019 0.77999 0.59733 0.0
H1526 H 0.95849 0.72428 0.61545 0.0
H1527 H 0.92876 0.77645 0.58555 0.0
H1528 H 0.02727 0.82712 0.59789 0.0
H1529 H 0.99403 0.79884 0.55831 0.0
H1530 H 0.95779 0.76498 0.70177 0.0
H1531 H 0.91821 0.76776 0.65824 0.0
H1532 H 0.03743 0.73363 0.58598 0.0
H1533 H 0.03883 0.7725 0.62991 0.0
H1534 H 0.06734 0.74539 0.57541 0.0
H1535 H 0.06869 0.78352 0.61862 0.0
H1536 H 0.01002 0.72903 0.67808 0.0
H1537 H 0.96241 0.71683 0.64614 0.0
H1538 H 0.99396 0.71744 0.70541 0.0
H1539 H 0.9472 0.70545 0.67401 0.0
H1540 H 0.05444 0.76439 0.69422 0.0
H1541 H 0.07481 0.7213 0.65956 0.0
H1542 H 0.99786 0.69848 0.56057 0.0
H1543 H 0.97694 0.66919 0.60726 0.0
Li1544 Li 0.51074 0.26814 0.11944 0.0
Li1545 Li 0.4911 0.25263 0.14153 0.0
Li1546 Li 0.52449 0.24886 0.14355 0.0
Li1547 Li 0.50688 0.2346 0.11953 0.0
C1548 C 0.52082 0.28562 0.15204 0.0
N1549 N 0.54328 0.31344 0.16389 0.0
C1550 C 0.51594 0.29607 0.16717 0.0
C1551 C 0.53713 0.28929 0.14294 0.0
C1552 C 0.52748 0.31009 0.17295 0.0
C1553 C 0.54829 0.30342 0.14914 0.0
C1554 C 0.47067 0.25818 0.11249 0.0
C1555 C 0.43899 0.24964 0.11129 0.0
N1556 N 0.43441 0.26745 0.10918 0.0
C1557 C 0.46567 0.27638 0.11014 0.0
C1558 C 0.45725 0.24467 0.1129 0.0
C1559 C 0.44726 0.2808 0.10855 0.0
C1560 C 0.52086 0.28637 0.08751 0.0
N1561 N 0.51406 0.28913 0.10448 0.0
C1562 C 0.51325 0.32132 0.09955 0.0
C1563 C 0.51002 0.30615 0.11059 0.0
C1564 C 0.52075 0.3189 0.08211 0.0
C1565 C 0.52444 0.30112 0.07608 0.0
H1566 H 0.52352 0.27266 0.08286 0.0
H1567 H 0.50439 0.30797 0.12407 0.0
C1568 C 0.46338 0.24107 0.16577 0.0
N1569 N 0.46953 0.2554 0.15582 0.0
C1570 C 0.44779 0.24277 0.1765 0.0
C1571 C 0.44521 0.27407 0.16675 0.0
C1572 C 0.46094 0.27178 0.15629 0.0
C1573 C 0.43841 0.25943 0.17706 0.0
H1574 H 0.4707 0.22835 0.16563 0.0
H1575 H 0.46634 0.28309 0.14855 0.0
C1576 C 0.54378 0.23796 0.11116 0.0
N1577 N 0.57154 0.21558 0.09918 0.0
C1578 C 0.54968 0.22344 0.1219 0.0
C1579 C 0.55208 0.24114 0.09434 0.0
C1580 C 0.5637 0.21227 0.11562 0.0
C1581 C 0.56607 0.22966 0.08851 0.0
C1582 C 0.50262 0.21185 0.14784 0.0
C1583 C 0.51599 0.20095 0.15582 0.0
C1584 C 0.48656 0.20383 0.14149 0.0
C1585 C 0.51317 0.18216 0.15704 0.0
C1586 C 0.48426 0.18499 0.14295 0.0
N1587 N 0.49751 0.17463 0.15061 0.0
C1588 C 0.5407 0.24098 0.17725 0.0
C1589 C 0.56141 0.25221 0.1552 0.0
C1590 C 0.55469 0.23929 0.18999 0.0
N1591 N 0.54431 0.24719 0.16021 0.0
C1592 C 0.5758 0.25083 0.16753 0.0
C1593 C 0.57257 0.24418 0.18519 0.0
H1594 H 0.52694 0.23718 0.18087 0.0
H1595 H 0.56389 0.25727 0.14161 0.0
C1596 C 0.49359 0.21579 0.08893 0.0
N1597 N 0.50496 0.21401 0.10341 0.0
C1598 C 0.49123 0.20142 0.07666 0.0
C1599 C 0.51251 0.18365 0.09425 0.0
C1600 C 0.51445 0.19837 0.10617 0.0
C1601 C 0.50072 0.18503 0.07927 0.0
H1602 H 0.48634 0.22841 0.08687 0.0
H1603 H 0.52338 0.19713 0.11775 0.0
O1604 O 0.5097 0.27179 0.14632 0.0
O1605 O 0.48861 0.25362 0.11437 0.0
O1606 O 0.53004 0.24908 0.11708 0.0
O1607 O 0.50516 0.23028 0.14644 0.0
H1608 H 0.50336 0.29337 0.17437 0.0
H1609 H 0.54112 0.28135 0.13119 0.0
H1610 H 0.52387 0.3183 0.18465 0.0
H1611 H 0.56095 0.30641 0.14222 0.0
H1612 H 0.42845 0.23933 0.11168 0.0
H1613 H 0.47585 0.28701 0.10976 0.0
H1614 H 0.46089 0.2305 0.11445 0.0
H1615 H 0.44318 0.29485 0.10686 0.0
H1616 H 0.51025 0.33481 0.10473 0.0
H1617 H 0.5299 0.29864 0.06261 0.0
H1618 H 0.44335 0.23123 0.18453 0.0
H1619 H 0.43841 0.28714 0.16665 0.0
H1620 H 0.54339 0.2207 0.13489 0.0
H1621 H 0.54783 0.25235 0.08585 0.0
H1622 H 0.56832 0.20095 0.12379 0.0
H1623 H 0.57259 0.23196 0.0755 0.0
H1624 H 0.52843 0.20689 0.16098 0.0
H1625 H 0.47603 0.21205 0.13539 0.0
H1626 H 0.52344 0.17356 0.1631 0.0
H1627 H 0.47194 0.17861 0.13797 0.0
H1628 H 0.55157 0.2339 0.20334 0.0
H1629 H 0.58928 0.25505 0.1633 0.0
H1630 H 0.48221 0.2032 0.06516 0.0
H1631 H 0.51994 0.17122 0.09693 0.0
H1632 H 0.24959 0.77509 0.86364 0.0
H1633 H 0.19169 0.77078 0.87251 0.0
H1634 H 0.19388 0.79181 0.89819 0.0
H1635 H 0.21225 0.81111 0.91843 0.0
H1636 H 0.27015 0.81544 0.90964 0.0
H1637 H 0.26798 0.79446 0.88389 0.0
C1638 C 0.23748 0.77862 0.87129 0.0
C1639 C 0.2205 0.77138 0.86611 0.0
C1640 C 0.23883 0.79069 0.88611 0.0
C1641 C 0.2049 0.77633 0.87604 0.0
C1642 C 0.20614 0.78829 0.89079 0.0
C1643 C 0.22437 0.80762 0.91077 0.0
C1644 C 0.24133 0.81485 0.91599 0.0
C1645 C 0.22302 0.79558 0.89593 0.0
C1646 C 0.25695 0.80992 0.90607 0.0
C1647 C 0.25571 0.79798 0.89128 0.0
H1648 H 0.00753 0.52123 0.37037 0.0
H1649 H 0.05077 0.53389 0.40806 0.0
H1650 H 0.07325 0.53006 0.38388 0.0
H1651 H 0.08064 0.52334 0.35199 0.0
H1652 H 0.0375 0.5102 0.31434 0.0
H1653 H 0.015 0.51405 0.33851 0.0
C1654 C 0.02189 0.52297 0.37332 0.0
C1655 C 0.02745 0.52786 0.391 0.0
C1656 C 0.03476 0.52075 0.35934 0.0
C1657 C 0.0461 0.53034 0.39453 0.0
C1658 C 0.05897 0.52807 0.38073 0.0
C1659 C 0.06633 0.52115 0.34911 0.0
C1660 C 0.06079 0.5165 0.33136 0.0
C1661 C 0.05346 0.52331 0.36308 0.0
C1662 C 0.04214 0.51402 0.32781 0.0
C1663 C 0.02926 0.5161 0.34165 0.0
H1664 H 0.80081 0.73357 0.8778 0.0
H1665 H 0.74345 0.73721 0.86583 0.0
H1666 H 0.73661 0.71673 0.8911 0.0
H1667 H 0.74691 0.69764 0.91653 0.0
H1668 H 0.80434 0.69343 0.92798 0.0
H1669 H 0.81112 0.71425 0.903 0.0
C1670 C 0.78682 0.72976 0.88062 0.0
C1671 C 0.77268 0.73694 0.86992 0.0
C1672 C 0.78298 0.7179 0.89511 0.0
C1673 C 0.7546 0.73209 0.87397 0.0
C1674 C 0.75067 0.72028 0.88836 0.0
C1675 C 0.76092 0.70115 0.91346 0.0
C1676 C 0.77508 0.69397 0.92414 0.0
C1677 C 0.76475 0.71308 0.899 0.0
C1678 C 0.79315 0.69892 0.92014 0.0
C1679 C 0.79706 0.71075 0.90578 0.0
H1680 H 1.00183 0.98071 0.37283 0.0
H1681 H 0.95819 0.96648 0.40951 0.0
H1682 H 0.9361 0.97016 0.38499 0.0
H1683 H 0.92916 0.97716 0.35307 0.0
H1684 H 0.97271 0.99216 0.31657 0.0
H1685 H 0.9948 0.98839 0.34105 0.0
C1686 C 0.98747 0.9786 0.37551 0.0
C1687 C 0.98171 0.97329 0.39299 0.0
C1688 C 0.97481 0.98078 0.36135 0.0
C1689 C 0.96305 0.97034 0.39613 0.0
C1690 C 0.95038 0.97253 0.38214 0.0
C1691 C 0.94346 0.97978 0.3505 0.0
C1692 C 0.94923 0.98489 0.33296 0.0
C1693 C 0.95611 0.9777 0.36468 0.0
C1694 C 0.96788 0.98794 0.32984 0.0
C1695 C 0.98053 0.98591 0.34388 0.0
H1696 H 0.21208 0.22008 0.64259 0.0
H1697 H 0.25229 0.25862 0.62352 0.0
H1698 H 0.25822 0.23952 0.59708 0.0
H1699 H 0.25243 0.21172 0.57954 0.0
H1700 H 0.21012 0.17468 0.59699 0.0
H1701 H 0.20467 0.1934 0.62381 0.0
C1702 C 0.22194 0.22452 0.63255 0.0
C1703 C 0.23181 0.24079 0.6353 0.0
C1704 C 0.22503 0.21367 0.61706 0.0
C1705 C 0.24475 0.24602 0.62213 0.0
C1706 C 0.24807 0.23515 0.60686 0.0
C1707 C 0.24179 0.20782 0.58899 0.0
C1708 C 0.23185 0.19161 0.58614 0.0
C1709 C 0.23835 0.21891 0.60422 0.0
C1710 C 0.21835 0.18678 0.59889 0.0
C1711 C 0.21508 0.1976 0.61422 0.0
H1712 H 0.49711 0.51247 0.63099 0.0
H1713 H 0.46335 0.55488 0.60837 0.0
H1714 H 0.44222 0.55179 0.63366 0.0
H1715 H 0.43324 0.53723 0.66219 0.0
H1716 H 0.46526 0.49276 0.68333 0.0
H1717 H 0.48708 0.49657 0.65864 0.0
C1718 C 0.48503 0.52089 0.63141 0.0
C1719 C 0.48205 0.53402 0.61776 0.0
C1720 C 0.47259 0.51875 0.6458 0.0
C1721 C 0.46636 0.54496 0.61882 0.0
C1722 C 0.45412 0.5431 0.63323 0.0
C1723 C 0.4448 0.52813 0.66131 0.0
C1724 C 0.44751 0.51476 0.67477 0.0
C1725 C 0.45709 0.53005 0.6468 0.0
C1726 C 0.4629 0.50342 0.67346 0.0
C1727 C 0.47535 0.50548 0.65922 0.0
H1728 H 0.75082 0.27639 0.63822 0.0
H1729 H 0.80822 0.27056 0.62734 0.0
H1730 H 0.80553 0.29052 0.60095 0.0
H1731 H 0.78705 0.31012 0.58129 0.0
H1732 H 0.72954 0.31565 0.59177 0.0
H1733 H 0.73212 0.29537 0.61797 0.0
C1734 C 0.76269 0.27933 0.62996 0.0
C1735 C 0.7797 0.27203 0.63481 0.0
C1736 C 0.76106 0.29085 0.61477 0.0
C1737 C 0.79501 0.27619 0.62408 0.0
C1738 C 0.79347 0.28754 0.60892 0.0
C1739 C 0.77503 0.30673 0.58917 0.0
C1740 C 0.75814 0.31444 0.58456 0.0
C1741 C 0.77659 0.29502 0.60419 0.0
C1742 C 0.74277 0.31011 0.59514 0.0
C1743 C 0.7442 0.29843 0.61007 0.0
H1744 H 0.53813 0.96605 0.61548 0.0
H1745 H 0.49777 0.00381 0.63551 0.0
H1746 H 0.51681 0.01061 0.66176 0.0
H1747 H 0.54489 0.00605 0.67902 0.0
H1748 H 0.58396 0.9662 0.66056 0.0
H1749 H 0.56541 0.9601 0.63376 0.0
C1750 C 0.53333 0.97558 0.62568 0.0
C1751 C 0.51653 0.98448 0.6233 0.0
C1752 C 0.54416 0.97916 0.64105 0.0
C1753 C 0.51078 0.99701 0.63664 0.0
C1754 C 0.5216 1.00083 0.6518 0.0
C1755 C 0.54928 0.99581 0.66934 0.0
C1756 C 0.56594 0.98671 0.6719 0.0
C1757 C 0.53832 0.992 0.65413 0.0
C1758 C 0.57144 0.97375 0.65887 0.0
C1759 C 0.56074 0.97011 0.64357 0.0
H1760 H 0.87632 0.20838 0.7719 0.0
H1761 H 0.85459 0.26199 0.7819 0.0
H1762 H 0.87987 0.26876 0.80246 0.0
H1763 H 0.90806 0.25942 0.81762 0.0
H1764 H 0.93059 0.20628 0.80648 0.0
H1765 H 0.90486 0.19921 0.78674 0.0
C1766 C 0.87707 0.22149 0.7787 0.0
C1767 C 0.86361 0.23466 0.7754 0.0
C1768 C 0.89173 0.22534 0.79038 0.0
C1769 C 0.86488 0.25168 0.7841 0.0
C1770 C 0.87928 0.25553 0.79591 0.0
C1771 C 0.90749 0.24636 0.81074 0.0
C1772 C 0.92131 0.23342 0.81364 0.0
C1773 C 0.89283 0.24249 0.79909 0.0
C1774 C 0.92006 0.21642 0.80481 0.0
C1775 C 0.9054 0.2124 0.79338 0.0
H1776 H 0.44901 0.88264 0.48364 0.0
H1777 H 0.50584 0.89723 0.48688 0.0
H1778 H 0.51356 0.87236 0.46622 0.0
H1779 H 0.50424 0.84665 0.44701 0.0
H1780 H 0.44749 0.83178 0.44382 0.0
H1781 H 0.43966 0.85681 0.46431 0.0
C1782 C 0.46306 0.88047 0.47971 0.0
C1783 C 0.47682 0.89176 0.48689 0.0
C1784 C 0.46743 0.86614 0.46775 0.0
C1785 C 0.495 0.88859 0.4818 0.0
C1786 C 0.49943 0.87443 0.46989 0.0
C1787 C 0.49017 0.84876 0.45093 0.0
C1788 C 0.47649 0.83731 0.44386 0.0
C1789 C 0.48577 0.86309 0.46283 0.0
C1790 C 0.45829 0.84049 0.44885 0.0
C1791 C 0.4538 0.85475 0.46067 0.0
H1792 H 0.12445 0.29098 0.75988 0.0
H1793 H 0.16079 0.2623 0.79578 0.0
H1794 H 0.13574 0.25658 0.817 0.0
H1795 H 0.10354 0.25959 0.8252 0.0
H1796 H 0.06764 0.29029 0.7903 0.0
H1797 H 0.09236 0.29501 0.76872 0.0
C1798 C 0.1268 0.2834 0.77231 0.0
C1799 C 0.14437 0.27699 0.77627 0.0
C1800 C 0.11241 0.28045 0.78459 0.0
C1801 C 0.14736 0.2674 0.79252 0.0
C1802 C 0.13306 0.26411 0.80462 0.0
C1803 C 0.10111 0.26755 0.81303 0.0
C1804 C 0.0836 0.27445 0.80945 0.0
C1805 C 0.11553 0.27063 0.80083 0.0
C1806 C 0.0808 0.28444 0.79334 0.0
C1807 C 0.095 0.2873 0.78101 0.0
H1808 H 0.55069 0.62624 0.47448 0.0
H1809 H 0.49345 0.61923 0.4857 0.0
H1810 H 0.48633 0.64531 0.46647 0.0
H1811 H 0.49632 0.67045 0.44692 0.0
H1812 H 0.55344 0.67696 0.43482 0.0
H1813 H 0.5606 0.65078 0.45394 0.0
C1814 C 0.53664 0.63028 0.47255 0.0
C1815 C 0.52265 0.62081 0.48162 0.0
C1816 C 0.5326 0.64527 0.46138 0.0
C1817 C 0.50453 0.62642 0.47914 0.0
C1818 C 0.50042 0.64129 0.46806 0.0
C1819 C 0.51032 0.66602 0.44826 0.0
C1820 C 0.5243 0.67574 0.43945 0.0
C1821 C 0.51435 0.65087 0.45918 0.0
C1822 C 0.54241 0.66994 0.44164 0.0
C1823 C 0.54652 0.65488 0.4525 0.0
H1824 H 0.88224 0.78798 0.74631 0.0
H1825 H 0.84421 0.75926 0.71203 0.0
H1826 H 0.86849 0.75267 0.69015 0.0
H1827 H 0.90042 0.75506 0.68091 0.0
H1828 H 0.93793 0.78624 0.71393 0.0
H1829 H 0.91408 0.79149 0.73633 0.0
C1830 C 0.87937 0.78021 0.73407 0.0
C1831 C 0.86158 0.77401 0.73075 0.0
C1832 C 0.89329 0.77684 0.7214 0.0
C1833 C 0.85785 0.76416 0.71478 0.0
C1834 C 0.87171 0.76039 0.70231 0.0
C1835 C 0.9034 0.76325 0.69284 0.0
C1836 C 0.9211 0.77014 0.69563 0.0
C1837 C 0.88946 0.76673 0.70545 0.0
C1838 C 0.92461 0.78039 0.71147 0.0
C1839 C 0.91091 0.78357 0.72427 0.0
H1840 H 0.00702 0.88059 0.5209 0.0
H1841 H 0.06485 0.8812 0.5313 0.0
H1842 H 0.06144 0.85574 0.55232 0.0
H1843 H 0.0421 0.83306 0.56762 0.0
H1844 H 0.98452 0.83175 0.5564 0.0
H1845 H 0.98785 0.85741 0.53549 0.0
C1846 C 0.01894 0.87503 0.52756 0.0
C1847 C 0.03616 0.88292 0.52452 0.0
C1848 C 0.01694 0.86018 0.53945 0.0
C1849 C 0.05137 0.87566 0.53358 0.0
C1850 C 0.04946 0.86099 0.54553 0.0
C1851 C 0.03028 0.83848 0.56066 0.0
C1852 C 0.01309 0.83055 0.56356 0.0
C1853 C 0.03232 0.85318 0.5486 0.0
C1854 C 0.99793 0.83752 0.55426 0.0
C1855 C 0.99981 0.85224 0.54237 0.0
H1856 H 0.13615 0.74931 0.7291 0.0
H1857 H 0.13217 0.69069 0.72668 0.0
H1858 H 0.10582 0.69302 0.70662 0.0
H1859 H 0.08343 0.71169 0.69032 0.0
H1860 H 0.08724 0.7703 0.69298 0.0
H1861 H 0.11385 0.76797 0.71272 0.0
C1862 C 0.12943 0.73704 0.72431 0.0
C1863 C 0.13618 0.71986 0.7294 0.0
C1864 C 0.11417 0.73847 0.7129 0.0
C1865 C 0.12745 0.7041 0.7228 0.0
C1866 C 0.11229 0.70541 0.71141 0.0
C1867 C 0.09019 0.72395 0.69507 0.0
C1868 C 0.08332 0.74114 0.6902 0.0
C1869 C 0.10552 0.72252 0.70639 0.0
C1870 C 0.09209 0.7569 0.69671 0.0
C1871 C 0.10738 0.75558 0.70792 0.0
H1872 H 0.97906 0.60469 0.54347 0.0
H1873 H 0.96409 0.63906 0.49839 0.0
H1874 H 0.96796 0.66615 0.51745 0.0
H1875 H 0.97551 0.68 0.54689 0.0
H1876 H 0.99217 0.64568 0.59155 0.0
H1877 H 0.98732 0.61867 0.57282 0.0
C1878 C 0.97653 0.61813 0.5379 0.0
C1879 C 0.97126 0.61991 0.51959 0.0
C1880 C 0.979 0.63364 0.54887 0.0
C1881 C 0.96826 0.63738 0.51243 0.0
C1882 C 0.97042 0.65285 0.52332 0.0
C1883 C 0.97832 0.66665 0.55251 0.0
C1884 C 0.98416 0.66499 0.57069 0.0
C1885 C 0.97587 0.65114 0.54154 0.0
C1886 C 0.98736 0.64746 0.57774 0.0
C1887 C 0.98472 0.63196 0.56698 0.0
H1888 H 0.79497 0.85546 0.22522 0.0
H1889 H 0.74727 0.88901 0.23171 0.0
H1890 H 0.76646 0.91568 0.23702 0.0
H1891 H 0.79677 0.9296 0.23945 0.0
H1892 H 0.84452 0.89604 0.23323 0.0
H1893 H 0.82534 0.8694 0.22778 0.0
C1894 C 0.78878 0.86864 0.22764 0.0
C1895 C 0.7697 0.87019 0.2281 0.0
C1896 C 0.79991 0.88396 0.23065 0.0
C1897 C 0.76191 0.88735 0.23152 0.0
C1898 C 0.77288 0.90265 0.23446 0.0
C1899 C 0.803 0.91643 0.2371 0.0
C1900 C 0.82209 0.91489 0.23674 0.0
C1901 C 0.79189 0.90111 0.2341 0.0
C1902 C 0.82989 0.89772 0.23334 0.0
C1903 C 0.81892 0.88243 0.23033 0.0
H1904 H 0.80107 0.14409 0.28724 0.0
H1905 H 0.75318 0.11559 0.26843 0.0
H1906 H 0.77132 0.08847 0.26241 0.0
H1907 H 0.80071 0.07269 0.26259 0.0
H1908 H 0.84861 0.10091 0.28168 0.0
H1909 H 0.83047 0.1281 0.28785 0.0
C1910 C 0.79456 0.13189 0.282 0.0
C1911 C 0.77579 0.13196 0.27821 0.0
C1912 C 0.80507 0.11624 0.27867 0.0
C1913 C 0.76765 0.11606 0.2712 0.0
C1914 C 0.77799 0.10048 0.26784 0.0
C1915 C 0.80721 0.08484 0.26796 0.0
C1916 C 0.826 0.08476 0.27163 0.0
C1917 C 0.79671 0.10043 0.27145 0.0
C1918 C 0.83414 0.10053 0.27889 0.0
C1919 C 0.82379 0.11612 0.28234 0.0
H1920 H 0.39502 0.9633 0.97652 0.0
H1921 H 0.3612 0.01124 0.97651 0.0
H1922 H 0.33416 0.99238 0.9812 0.0
H1923 H 0.32014 0.96227 0.98554 0.0
H1924 H 0.35394 0.91431 0.98573 0.0
H1925 H 0.38096 0.93314 0.98076 0.0
C1926 C 0.38171 0.96958 0.9774 0.0
C1927 C 0.38012 0.98864 0.97616 0.0
C1928 C 0.36623 0.95866 0.98019 0.0
C1929 C 0.36281 0.99662 0.9776 0.0
C1930 C 0.34734 0.98584 0.9802 0.0
C1931 C 0.33341 0.95594 0.98434 0.0
C1932 C 0.33502 0.93692 0.98598 0.0
C1933 C 0.34889 0.96685 0.98155 0.0
C1934 C 0.35235 0.92894 0.98469 0.0
C1935 C 0.36779 0.93968 0.98176 0.0
H1936 H 0.23049 0.37517 0.30035 0.0
H1937 H 0.23017 0.35969 0.24367 0.0
H1938 H 0.20931 0.38459 0.2368 0.0
H1939 H 0.19125 0.41081 0.24684 0.0
H1940 H 0.19196 0.42669 0.30343 0.0
H1941 H 0.21217 0.40132 0.31044 0.0
C1942 C 0.2257 0.37714 0.28653 0.0
C1943 C 0.23194 0.36562 0.27254 0.0
C1944 C 0.21371 0.39151 0.28267 0.0
C1945 C 0.22578 0.36851 0.25465 0.0
C1946 C 0.21378 0.38269 0.25073 0.0
C1947 C 0.19593 0.40882 0.26069 0.0
C1948 C 0.19007 0.42068 0.27456 0.0
C1949 C 0.20774 0.39433 0.2646 0.0
C1950 C 0.19604 0.41766 0.2925 0.0
C1951 C 0.20771 0.40321 0.29652 0.0
H1952 H 0.11966 0.03452 0.45497 0.0
H1953 H 0.12183 0.01426 0.5101 0.0
H1954 H 0.14708 0.03471 0.51682 0.0
H1955 H 0.16867 0.05835 0.50716 0.0
H1956 H 0.16581 0.07968 0.4526 0.0
H1957 H 0.14044 0.05914 0.44569 0.0
C1958 C 0.12547 0.03472 0.46853 0.0
C1959 C 0.11888 0.02266 0.48192 0.0
C1960 C 0.13986 0.04677 0.47244 0.0
C1961 C 0.12682 0.02304 0.49936 0.0
C1962 C 0.14121 0.03485 0.50329 0.0
C1963 C 0.16252 0.05843 0.49374 0.0
C1964 C 0.16914 0.07043 0.48038 0.0
C1965 C 0.1479 0.04669 0.48992 0.0
C1966 C 0.16087 0.07063 0.46314 0.0
C1967 C 0.14642 0.05884 0.45917 0.0
H1968 H 0.73124 0.12971 0.70796 0.0
H1969 H 0.72069 0.15402 0.76039 0.0
H1970 H 0.69962 0.12932 0.7678 0.0
H1971 H 0.68414 0.10088 0.75937 0.0
H1972 H 0.69553 0.07597 0.70733 0.0
H1973 H 0.71593 0.10105 0.69964 0.0
C1974 C 0.7242 0.12967 0.72094 0.0
C1975 C 0.72753 0.14368 0.7336 0.0
C1976 C 0.71217 0.11536 0.72515 0.0
C1977 C 0.7185 0.1433 0.75048 0.0
C1978 C 0.7064 0.12922 0.75469 0.0
C1979 C 0.6912 0.10081 0.74641 0.0
C1980 C 0.68819 0.08651 0.73396 0.0
C1981 C 0.70318 0.11514 0.74217 0.0
C1982 C 0.69729 0.0869 0.71709 0.0
C1983 C 0.70909 0.10119 0.71271 0.0
H1984 H 0.38055 0.0238 0.50459 0.0
H1985 H 0.38147 0.03327 0.5626 0.0
H1986 H 0.35607 0.05437 0.55984 0.0
H1987 H 0.33356 0.07025 0.54102 0.0
H1988 H 0.33201 0.06036 0.48316 0.0
H1989 H 0.35739 0.03905 0.48586 0.0
C1990 C 0.37507 0.03031 0.51666 0.0
C1991 C 0.38307 0.02703 0.53376 0.0
C1992 C 0.3603 0.04235 0.51502 0.0
C1993 C 0.37586 0.03578 0.54921 0.0
C1994 C 0.36124 0.04778 0.54768 0.0
C1995 C 0.33887 0.06351 0.52899 0.0
C1996 C 0.33096 0.06693 0.51192 0.0
C1997 C 0.35342 0.05126 0.53065 0.0
C1998 C 0.33777 0.05786 0.49649 0.0
C1999 C 0.35233 0.04573 0.49801 0.0
H2000 H 0.62563 0.48639 0.54572 0.0
H2001 H 0.60136 0.47376 0.49376 0.0
H2002 H 0.62612 0.45256 0.48704 0.0
H2003 H 0.65483 0.43772 0.49591 0.0
H2004 H 0.67928 0.45088 0.54766 0.0
H2005 H 0.6543 0.4717 0.55451 0.0
C2006 C 0.6257 0.47888 0.53299 0.0
C2007 C 0.61166 0.4816 0.52028 0.0
C2008 C 0.64003 0.46683 0.52917 0.0
C2009 C 0.61209 0.47201 0.50371 0.0
C2010 C 0.6262 0.45983 0.49989 0.0
C2011 C 0.65459 0.44506 0.50873 0.0
C2012 C 0.66887 0.44276 0.52126 0.0
C2013 C 0.64025 0.45715 0.51252 0.0
C2014 C 0.66853 0.45255 0.53772 0.0
C2015 C 0.65422 0.4644 0.54168 0.0
H2016 H 0.72245 0.29183 0.3596 0.0
H2017 H 0.74388 0.24559 0.38878 0.0
H2018 H 0.74848 0.26454 0.41569 0.0
H2019 H 0.74611 0.29413 0.43116 0.0
H2020 H 0.72402 0.34019 0.40232 0.0
H2021 H 0.71955 0.32129 0.37525 0.0
C2022 C 0.72794 0.28582 0.37189 0.0
C2023 C 0.73286 0.26728 0.37206 0.0
C2024 C 0.73035 0.29674 0.38745 0.0
C2025 C 0.74024 0.25986 0.38809 0.0
C2026 C 0.74277 0.27066 0.40356 0.0
C2027 C 0.74043 0.30006 0.4189 0.0
C2028 C 0.73544 0.31856 0.41876 0.0
C2029 C 0.7379 0.28912 0.4034 0.0
C2030 C 0.72782 0.32595 0.40286 0.0
C2031 C 0.72534 0.31518 0.38734 0.0
H2032 H 0.54045 0.02694 0.90057 0.0
H2033 H 0.4942 0.03836 0.86637 0.0
H2034 H 0.51307 0.0347 0.8392 0.0
H2035 H 0.54268 0.02798 0.82513 0.0
H2036 H 0.58877 0.01576 0.85925 0.0
H2037 H 0.57006 0.02002 0.88648 0.0
C2038 C 0.53456 0.02874 0.88716 0.0
C2039 C 0.51597 0.03293 0.88547 0.0
C2040 C 0.54546 0.02645 0.8716 0.0
C2041 C 0.50844 0.03498 0.86801 0.0
C2042 C 0.51923 0.03296 0.85248 0.0
C2043 C 0.54863 0.0264 0.83854 0.0
C2044 C 0.56707 0.02162 0.8402 0.0
C2045 C 0.53775 0.02867 0.85411 0.0
C2046 C 0.57457 0.01932 0.85764 0.0
C2047 C 0.56389 0.02181 0.8732 0.0
H2048 H 0.27837 0.25078 0.38398 0.0
H2049 H 0.27744 0.20651 0.34531 0.0
H2050 H 0.27175 0.18484 0.3699 0.0
H2051 H 0.2667 0.17851 0.40228 0.0
H2052 H 0.26877 0.22267 0.44114 0.0
H2053 H 0.27387 0.24434 0.41653 0.0
C2054 C 0.2768 0.2364 0.38094 0.0
C2055 C 0.27832 0.23027 0.36285 0.0
C2056 C 0.27361 0.224 0.39516 0.0
C2057 C 0.27651 0.21156 0.35914 0.0
C2058 C 0.27317 0.19917 0.37318 0.0
C2059 C 0.26848 0.19284 0.40544 0.0
C2060 C 0.26729 0.19888 0.42361 0.0
C2061 C 0.27173 0.20523 0.39124 0.0
C2062 C 0.2693 0.2176 0.42731 0.0
C2063 C 0.27236 0.23002 0.41323 0.0
H2064 H 0.50121 0.48521 0.87735 0.0
H2065 H 0.45618 0.47983 0.91469 0.0
H2066 H 0.4347 0.48388 0.8897 0.0
H2067 H 0.42865 0.48849 0.85716 0.0
H2068 H 0.47366 0.49452 0.81988 0.0
H2069 H 0.49515 0.49066 0.8449 0.0
C2070 C 0.4867 0.48513 0.88005 0.0
C2071 C 0.48034 0.48217 0.89788 0.0
C2072 C 0.4744 0.48749 0.8656 0.0
C2073 C 0.46146 0.48184 0.90107 0.0
C2074 C 0.44916 0.48424 0.8868 0.0
C2075 C 0.44316 0.48915 0.85453 0.0
C2076 C 0.44949 0.49174 0.83663 0.0
C2077 C 0.45546 0.487 0.869 0.0
C2078 C 0.46837 0.49228 0.83346 0.0
C2079 C 0.48069 0.49018 0.84778 0.0
H2080 H 0.75251 0.72719 0.14226 0.0
H2081 H 0.69706 0.73797 0.12641 0.0
H2082 H 0.70041 0.71791 0.10007 0.0
H2083 H 0.71912 0.69752 0.08139 0.0
H2084 H 0.77437 0.68607 0.09759 0.0
H2085 H 0.77117 0.70645 0.12367 0.0
C2086 C 0.74122 0.72525 0.13295 0.0
C2087 C 0.72456 0.73405 0.13632 0.0
C2088 C 0.74321 0.71363 0.11784 0.0
C2089 C 0.70997 0.7312 0.12425 0.0
C2090 C 0.7119 0.71979 0.10914 0.0
C2091 C 0.73041 0.69929 0.09072 0.0
C2092 C 0.74697 0.69024 0.08745 0.0
C2093 C 0.72843 0.71089 0.10583 0.0
C2094 C 0.76154 0.69303 0.09957 0.0
C2095 C 0.7597 0.70461 0.11458 0.0
H2096 H 0.98449 0.0064 0.11652 0.0
H2097 H 0.98508 0.06457 0.12515 0.0
H2098 H 0.96438 0.06117 0.15089 0.0
H2099 H 0.94596 0.04176 0.17088 0.0
H2100 H 0.9462 0.98347 0.16304 0.0
H2101 H 0.96663 0.98688 0.13706 0.0
C2102 C 0.98025 0.01832 0.12414 0.0
C2103 C 0.98631 0.03572 0.11882 0.0
C2104 C 0.9684 0.01627 0.13904 0.0
C2105 C 0.98043 0.05103 0.12873 0.0
C2106 C 0.96866 0.0491 0.14354 0.0
C2107 C 0.95062 0.02977 0.16362 0.0
C2108 C 0.94448 0.01239 0.16894 0.0
C2109 C 0.96253 0.03179 0.14879 0.0
C2110 C 0.95045 0.99705 0.15912 0.0
C2111 C 0.96225 0.99896 0.14432 0.0
H2112 H 0.27184 0.75974 0.12123 0.0
H2113 H 0.27935 0.80437 0.15879 0.0
H2114 H 0.27434 0.82618 0.13422 0.0
H2115 H 0.26761 0.83259 0.10212 0.0
H2116 H 0.26054 0.78789 0.0645 0.0
H2117 H 0.26515 0.76614 0.08913 0.0
C2118 C 0.27221 0.77424 0.12407 0.0
C2119 C 0.27598 0.7804 0.14182 0.0
C2120 C 0.2693 0.78671 0.10989 0.0
C2121 C 0.27669 0.79925 0.14521 0.0
C2122 C 0.27374 0.81174 0.13119 0.0
C2123 C 0.26723 0.81809 0.09926 0.0
C2124 C 0.26367 0.81193 0.08146 0.0
C2125 C 0.27008 0.80562 0.11346 0.0
C2126 C 0.26296 0.79306 0.0781 0.0
C2127 C 0.26572 0.78059 0.09216 0.0
H2128 H 0.04913 0.47764 0.10575 0.0
H2129 H 1.00067 0.47814 0.13891 0.0
H2130 H 0.0191 0.48277 0.16619 0.0
H2131 H 0.04895 0.48692 0.18063 0.0
H2132 H 0.09747 0.48657 0.14757 0.0
H2133 H 0.07907 0.48166 0.12026 0.0
C2134 C 0.04264 0.47862 0.11897 0.0
C2135 C 0.02356 0.47755 0.12029 0.0
C2136 C 0.05332 0.48136 0.13461 0.0
C2137 C 0.01531 0.4791 0.13749 0.0
C2138 C 0.02584 0.48167 0.15311 0.0
C2139 C 0.0555 0.4856 0.16747 0.0
C2140 C 0.07455 0.48707 0.16615 0.0
C2141 C 0.04485 0.48285 0.15183 0.0
C2142 C 0.08282 0.48565 0.14894 0.0
C2143 C 0.07232 0.48277 0.13333 0.0
H2144 H 0.36985 0.70762 0.2848 0.0
H2145 H 0.36653 0.764 0.26845 0.0
H2146 H 0.3921 0.77155 0.28815 0.0
H2147 H 0.41556 0.76226 0.30996 0.0
H2148 H 0.41833 0.70627 0.32735 0.0
H2149 H 0.39258 0.69855 0.30765 0.0
C2150 C 0.37455 0.7216 0.2857 0.0
C2151 C 0.36632 0.73515 0.27494 0.0
C2152 C 0.38916 0.72595 0.2973 0.0
C2153 C 0.3728 0.75317 0.27621 0.0
C2154 C 0.38737 0.75756 0.28759 0.0
C2155 C 0.41056 0.74835 0.30936 0.0
C2156 C 0.41888 0.73484 0.32001 0.0
C2157 C 0.39573 0.74405 0.2981 0.0
C2158 C 0.41208 0.71694 0.31935 0.0
C2159 C 0.39741 0.71251 0.30804 0.0
H2160 H 0.95772 0.3857 0.97275 0.0
H2161 H 0.01494 0.39079 0.98503 0.0
H2162 H 0.02166 0.36522 0.9649 0.0
H2163 H 0.01133 0.34117 0.94407 0.0
H2164 H 0.95428 0.33695 0.93069 0.0
H2165 H 0.94752 0.36242 0.95095 0.0
C2166 C 0.97169 0.38139 0.97087 0.0
C2167 C 0.98577 0.39017 0.98051 0.0
C2168 C 0.97551 0.36676 0.9591 0.0
C2169 C 0.00377 0.38413 0.97806 0.0
C2170 C 0.00766 0.36957 0.96644 0.0
C2171 C 0.99744 0.34595 0.94538 0.0
C2172 C 0.98335 0.33704 0.93587 0.0
C2173 C 0.99364 0.36074 0.95693 0.0
C2174 C 0.96539 0.3433 0.93803 0.0
C2175 C 0.96151 0.35796 0.94954 0.0
H2176 H 0.64429 0.79197 0.29368 0.0
H2177 H 0.61701 0.76668 0.2481 0.0
H2178 H 0.59002 0.76171 0.26676 0.0
H2179 H 0.57392 0.76482 0.29592 0.0
H2180 H 0.60077 0.7909 0.34122 0.0
H2181 H 0.62797 0.79568 0.32263 0.0
C2182 C 0.63239 0.78555 0.28774 0.0
C2183 C 0.6328 0.77964 0.26949 0.0
C2184 C 0.61676 0.78295 0.29848 0.0
C2185 C 0.61727 0.77109 0.26217 0.0
C2186 C 0.60174 0.76835 0.2728 0.0
C2187 C 0.58578 0.77145 0.30174 0.0
C2188 C 0.58533 0.77747 0.31992 0.0
C2189 C 0.60134 0.77419 0.29097 0.0
C2190 C 0.6007 0.78629 0.3272 0.0
C2191 C 0.61628 0.78895 0.31661 0.0
H2192 H 0.03031 0.11176 0.96121 0.0
H2193 H 0.03693 0.14644 0.00819 0.0
H2194 H 0.03266 0.17342 0.98921 0.0
H2195 H 0.02727 0.18714 0.95925 0.0
H2196 H 0.01933 0.1523 0.91248 0.0
H2197 H 0.02435 0.12549 0.93131 0.0
C2198 C 0.03094 0.12524 0.96725 0.0
C2199 C 0.03395 0.1271 0.98606 0.0
C2200 C 0.02836 0.14068 0.95628 0.0
C2201 C 0.03448 0.14464 0.99376 0.0
C2202 C 0.03211 0.16007 0.98291 0.0
C2203 C 0.02643 0.1737 0.95317 0.0
C2204 C 0.023 0.17185 0.9344 0.0
C2205 C 0.02899 0.15825 0.96416 0.0
C2206 C 0.02228 0.15425 0.92679 0.0
C2207 C 0.02501 0.13885 0.93759 0.0
H2208 H 0.3659 0.25547 0.22348 0.0
H2209 H 0.38284 0.30991 0.23786 0.0
H2210 H 0.40959 0.30701 0.2183 0.0
H2211 H 0.42845 0.28882 0.19758 0.0
H2212 H 0.41103 0.23465 0.18248 0.0
H2213 H 0.38441 0.23753 0.20211 0.0
C2214 C 0.37552 0.26664 0.22241 0.0
C2215 C 0.37241 0.28286 0.23213 0.0
C2216 C 0.39083 0.26491 0.21107 0.0
C2217 C 0.38485 0.29733 0.2304 0.0
C2218 C 0.40018 0.29566 0.21927 0.0
C2219 C 0.41873 0.27771 0.19837 0.0
C2220 C 0.42185 0.26151 0.18857 0.0
C2221 C 0.40331 0.27952 0.20954 0.0
C2222 C 0.40919 0.24717 0.19006 0.0
C2223 C 0.39388 0.24883 0.20122 0.0
H2224 H 0.54933 0.37984 0.02844 0.0
H2225 H 0.49709 0.40315 0.04143 0.0
H2226 H 0.49045 0.37761 0.06172 0.0
H2227 H 0.49935 0.3484 0.07548 0.0
H2228 H 0.55147 0.32498 0.06217 0.0
H2229 H 0.55831 0.35079 0.04233 0.0
C2230 C 0.53657 0.3794 0.03585 0.0
C2231 C 0.52374 0.39338 0.03346 0.0
C2232 C 0.53279 0.36462 0.04739 0.0
C2233 C 0.50713 0.39248 0.04292 0.0
C2234 C 0.50335 0.37792 0.05458 0.0
C2235 C 0.51226 0.34904 0.06835 0.0
C2236 C 0.52487 0.33479 0.07029 0.0
C2237 C 0.51606 0.36388 0.05687 0.0
C2238 C 0.54144 0.33568 0.06075 0.0
C2239 C 0.5454 0.35047 0.04947 0.0
H2240 H 0.6281 0.23727 0.25063 0.0
H2241 H 0.66313 0.21948 0.20692 0.0
H2242 H 0.63859 0.22401 0.18508 0.0
H2243 H 0.60704 0.23237 0.17841 0.0
H2244 H 0.57226 0.25131 0.22183 0.0
H2245 H 0.59685 0.24696 0.24371 0.0
C2246 C 0.63045 0.23461 0.23629 0.0
C2247 C 0.64744 0.22793 0.23048 0.0
C2248 C 0.6163 0.23735 0.22374 0.0
C2249 C 0.65012 0.22432 0.21186 0.0
C2250 C 0.63612 0.22701 0.19932 0.0
C2251 C 0.60488 0.2358 0.19261 0.0
C2252 C 0.58776 0.24211 0.19842 0.0
C2253 C 0.61913 0.23342 0.20511 0.0
C2254 C 0.58518 0.24616 0.21698 0.0
C2255 C 0.59928 0.24379 0.2295 0.0
H2256 H 0.50281 0.11667 0.02671 0.0
H2257 H 0.44521 0.12778 0.02477 0.0
H2258 H 0.44929 0.15354 0.04541 0.0
H2259 H 0.46913 0.17279 0.06421 0.0
H2260 H 0.52684 0.16219 0.06571 0.0
H2261 H 0.52279 0.13637 0.04508 0.0
C2262 C 0.49118 0.12483 0.03067 0.0
C2263 C 0.47373 0.12024 0.02422 0.0
C2264 C 0.49362 0.13969 0.04252 0.0
C2265 C 0.45876 0.13083 0.02971 0.0
C2266 C 0.46109 0.14564 0.04145 0.0
C2267 C 0.48086 0.16496 0.05987 0.0
C2268 C 0.49826 0.16946 0.06652 0.0
C2269 C 0.47845 0.15017 0.04796 0.0
C2270 C 0.51325 0.15893 0.061 0.0
C2271 C 0.51097 0.14421 0.04911 0.0
H2272 H 0.27779 0.37974 0.71335 0.0
H2273 H 0.28964 0.3547 0.76506 0.0
H2274 H 0.31021 0.37979 0.77272 0.0
H2275 H 0.32468 0.40902 0.7648 0.0
H2276 H 0.31257 0.4341 0.71315 0.0
H2277 H 0.29228 0.40886 0.7054 0.0
C2278 C 0.28501 0.3797 0.72622 0.0
C2279 C 0.28222 0.36536 0.73859 0.0
C2280 C 0.29672 0.39422 0.73058 0.0
C2281 C 0.29144 0.36566 0.75536 0.0
C2282 C 0.30325 0.37996 0.75972 0.0
C2283 C 0.31769 0.40888 0.7518 0.0
C2284 C 0.32012 0.42343 0.73959 0.0
C2285 C 0.30597 0.39434 0.74745 0.0
C2286 C 0.31077 0.42317 0.72289 0.0
C2287 C 0.29924 0.4087 0.7184 0.0
H2288 H 0.29538 0.6462 0.79089 0.0
H2289 H 0.2515 0.61915 0.76254 0.0
H2290 H 0.2708 0.59273 0.75726 0.0
H2291 H 0.30017 0.57738 0.7603 0.0
H2292 H 0.34358 0.60354 0.79015 0.0
H2293 H 0.32441 0.63017 0.79518 0.0
C2294 C 0.28995 0.63445 0.78375 0.0
C2295 C 0.27201 0.63481 0.77702 0.0
C2296 C 0.30106 0.61913 0.78094 0.0
C2297 C 0.26534 0.61948 0.76758 0.0
C2298 C 0.27633 0.60428 0.76465 0.0
C2299 C 0.3054 0.58877 0.76814 0.0
C2300 C 0.32337 0.58838 0.77477 0.0
C2301 C 0.29423 0.60397 0.77121 0.0
C2302 C 0.32994 0.60351 0.7846 0.0
C2303 C 0.31893 0.61873 0.7876 0.0
H2304 H 0.8704 0.49564 0.47738 0.0
H2305 H 0.90977 0.45225 0.48013 0.0
H2306 H 0.88538 0.4301 0.48514 0.0
H2307 H 0.85279 0.42307 0.48876 0.0
H2308 H 0.81349 0.46653 0.48586 0.0
H2309 H 0.83789 0.48862 0.48092 0.0
C2310 C 0.87364 0.48135 0.47922 0.0
C2311 C 0.89187 0.47561 0.47843 0.0
C2312 C 0.85955 0.4687 0.48203 0.0
C2313 C 0.89583 0.457 0.48053 0.0
C2314 C 0.8819 0.44434 0.48347 0.0
C2315 C 0.8496 0.43739 0.48716 0.0
C2316 C 0.83135 0.44314 0.48767 0.0
C2317 C 0.86371 0.45003 0.48426 0.0
C2318 C 0.82741 0.46172 0.48533 0.0
C2319 C 0.84136 0.47438 0.48259 0.0
H2320 H 0.71078 0.86278 0.79026 0.0
H2321 H 0.75629 0.88847 0.76333 0.0
H2322 H 0.73788 0.91543 0.75745 0.0
H2323 H 0.70882 0.9317 0.7598 0.0
H2324 H 0.6638 0.90657 0.78808 0.0
H2325 H 0.68209 0.87947 0.79359 0.0
C2326 C 0.71676 0.87434 0.7833 0.0
C2327 C 0.73491 0.87351 0.77721 0.0
C2328 C 0.70617 0.88992 0.78014 0.0
C2329 C 0.74229 0.88856 0.76792 0.0
C2330 C 0.7318 0.90406 0.76465 0.0
C2331 C 0.70306 0.9204 0.76737 0.0
C2332 C 0.6849 0.92121 0.77344 0.0
C2333 C 0.71372 0.90489 0.77068 0.0
C2334 C 0.67762 0.90625 0.78296 0.0
C2335 C 0.68811 0.89076 0.78624 0.0
H2336 H 0.61027 0.54651 0.97302 0.0
H2337 H 0.63811 0.49985 0.99526 0.0
H2338 H 0.66527 0.5183 1.00029 0.0
H2339 H 0.68112 0.54764 0.9986 0.0
H2340 H 0.65395 0.59398 0.97492 0.0
H2341 H 0.62657 0.57568 0.97032 0.0
C2342 C 0.62233 0.5403 0.97877 0.0
C2343 C 0.62203 0.52179 0.98382 0.0
C2344 C 0.63804 0.55095 0.98147 0.0
C2345 C 0.63778 0.51411 0.99152 0.0
C2346 C 0.65339 0.52463 0.99431 0.0
C2347 C 0.66932 0.55372 0.99221 0.0
C2348 C 0.66969 0.57222 0.98715 0.0
C2349 C 0.65367 0.54306 0.98937 0.0
C2350 C 0.65405 0.57988 0.97923 0.0
C2351 C 0.63838 0.56938 0.97646 0.0
H2352 H 0.23251 0.63977 0.25377 0.0
H2353 H 0.23069 0.63559 0.19519 0.0
H2354 H 0.21036 0.60938 0.19743 0.0
H2355 H 0.19321 0.58748 0.21596 0.0
H2356 H 0.19516 0.59136 0.27453 0.0
H2357 H 0.21562 0.61756 0.27235 0.0
C2358 C 0.22782 0.63302 0.2415 0.0
C2359 C 0.23308 0.63974 0.22434 0.0
C2360 C 0.21619 0.61784 0.24287 0.0
C2361 C 0.22665 0.63092 0.20858 0.0
C2362 C 0.21509 0.61585 0.20984 0.0
C2363 C 0.19798 0.59416 0.22825 0.0
C2364 C 0.19262 0.58748 0.24538 0.0
C2365 C 0.20971 0.60923 0.2269 0.0
C2366 C 0.19921 0.5961 0.26117 0.0
C2367 C 0.21085 0.61114 0.25994 0.0
H2368 H 0.87397 0.50801 0.02799 0.0
H2369 H 0.91365 0.55051 0.01943 0.0
H2370 H 0.88932 0.57257 0.01432 0.0
H2371 H 0.85674 0.57987 0.01264 0.0
H2372 H 0.81698 0.53758 0.02188 0.0
H2373 H 0.84131 0.51537 0.02644 0.0
C2374 C 0.87725 0.52208 0.02486 0.0
C2375 C 0.89556 0.52763 0.02404 0.0
C2376 C 0.86318 0.53473 0.02215 0.0
C2377 C 0.89965 0.54595 0.02025 0.0
C2378 C 0.88575 0.55855 0.01728 0.0
C2379 C 0.85342 0.56576 0.01552 0.0
C2380 C 0.8351 0.56037 0.01688 0.0
C2381 C 0.86747 0.55311 0.01825 0.0
C2382 C 0.83099 0.5421 0.02092 0.0
C2383 C 0.84489 0.52938 0.02344 0.0
H2384 H 0.10684 0.96395 0.0294 0.0
H2385 H 0.14072 0.01163 0.02326 0.0
H2386 H 0.16718 0.99238 0.01769 0.0
H2387 H 0.1807 0.96204 0.01428 0.0
H2388 H 0.14703 0.91426 0.02081 0.0
H2389 H 0.12053 0.93349 0.02646 0.0
C2390 C 0.12005 0.97011 0.02701 0.0
C2391 C 0.12176 0.98922 0.02671 0.0
C2392 C 0.13525 0.95895 0.02381 0.0
C2393 C 0.13895 0.99698 0.02333 0.0
C2394 C 0.15412 0.98598 0.02023 0.0
C2395 C 0.16761 0.95582 0.01712 0.0
C2396 C 0.16589 0.93672 0.01712 0.0
C2397 C 0.15243 0.96695 0.0204 0.0
C2398 C 0.14872 0.92891 0.02051 0.0
C2399 C 0.13357 0.93991 0.02385 0.0
loop_
_geom_bond_atom_site_label_1
_geom_bond_atom_site_label_2
_geom_bond_distance
_geom_bond_site_symmetry_2
_ccdc_geom_bond_type
C0 C1 1.384 . S
C0 H13 0.947 . S
C0 C35 1.382 . S
C1 C0 1.384 . S
C1 C2 1.378 1_655 S
C2 C1 1.378 1_455 S
C2 C3 1.378 . S
C2 H14 0.981 . S
C3 C2 1.378 . S
C3 H15 0.950 . S
C3 C34 1.383 . S
H4 C23 0.947 . S
H5 C24 0.946 . S
H6 C26 0.960 . S
H7 C27 0.945 . S
H8 C29 0.952 . S
H9 C30 0.949 . S
H10 C32 0.950 . S
H11 C33 0.948 . S
H12 C35 0.951 . S
H13 C0 0.947 . S
H14 C2 0.981 . S
H15 C3 0.950 . S
N16 C19 1.382 . S
N16 C21 1.363 . S
N17 C19 1.371 . S
N17 C20 1.372 . S
N18 C20 1.361 . S
N18 C21 1.377 . S
C19 N16 1.382 . S
C19 N17 1.371 . S
C19 C22 1.480 . S
C20 N17 1.372 . S
C20 N18 1.361 . S
C20 C28 1.457 . S
C21 N16 1.363 . S
C21 N18 1.377 . S
C21 C34 1.479 . S
C22 C19 1.480 . S
C22 C23 1.383 1_545 S
C22 C27 1.385 . S
C23 H4 0.947 . S
C23 C22 1.383 1_565 S
C23 C24 1.388 . S
C24 H5 0.946 . S
C24 C23 1.388 . S
C24 C25 1.384 . S
C25 C24 1.384 . S
C25 C26 1.377 1_565 S
C26 H6 0.960 . S
C26 C25 1.377 1_545 S
C26 C27 1.369 . S
C27 H7 0.945 . S
C27 C22 1.385 . S
C27 C26 1.369 . S
C28 C20 1.457 . S
C28 C29 1.372 1_554 S
C28 C33 1.364 . S
C29 H8 0.952 . S
C29 C28 1.372 1_556 S
C29 C30 1.389 . S
C30 H9 0.949 . S
C30 C29 1.389 . S
C30 C31 1.387 . S
C31 C30 1.387 . S
C31 C32 1.372 1_556 S
C32 H10 0.950 . S
C32 C31 1.372 1_554 S
C32 C33 1.379 . S
C33 H11 0.948 . S
C33 C28 1.364 . S
C33 C32 1.379 . S
C34 C3 1.383 . S
C34 C21 1.479 . S
C34 C35 1.398 1_455 S
C35 C0 1.382 . S
C35 H12 0.951 . S
C35 C34 1.398 1_655 S
C36 C37 1.384 . S
C36 H49 0.947 . S
C36 C71 1.382 . S
C37 C36 1.384 . S
C37 C38 1.378 . S
C38 C37 1.378 . S
C38 C39 1.378 . S
C38 H50 0.952 . S
C39 C38 1.378 . S
C39 H51 0.950 . S
C39 C70 1.383 . S
H40 C59 0.947 . S
H41 C60 0.946 . S
H42 C62 0.953 . S
H43 C63 0.945 . S
H44 C65 0.952 . S
H45 C66 0.949 . S
H46 C68 0.950 . S
H47 C69 0.948 . S
H48 C71 0.951 . S
H49 C36 0.947 . S
H50 C38 0.952 . S
H51 C39 0.950 . S
N52 C55 1.382 . S
N52 C57 1.363 . S
N53 C55 1.371 . S
N53 C56 1.372 . S
N54 C56 1.361 . S
N54 C57 1.377 . S
C55 N52 1.382 . S
C55 N53 1.371 . S
C55 C58 1.480 . S
C56 N53 1.372 . S
C56 N54 1.361 . S
C56 C64 1.457 . S
C57 N52 1.363 . S
C57 N54 1.377 . S
C57 C70 1.479 . S
C58 C55 1.480 . S
C58 C59 1.383 . S
C58 C63 1.385 . S
C59 H40 0.947 . S
C59 C58 1.383 . S
C59 C60 1.388 . S
C60 H41 0.946 . S
C60 C59 1.388 . S
C60 C61 1.384 . S
C61 C60 1.384 . S
C61 C62 1.377 . S
C62 H42 0.953 . S
C62 C61 1.377 . S
C62 C63 1.369 . S
C63 H43 0.945 . S
C63 C58 1.385 . S
C63 C62 1.369 . S
C64 C56 1.457 . S
C64 C65 1.372 . S
C64 C69 1.364 . S
C65 H44 0.952 . S
C65 C64 1.372 . S
C65 C66 1.389 . S
C66 H45 0.949 . S
C66 C65 1.389 . S
C66 C67 1.387 . S
C67 C66 1.387 . S
C67 C68 1.372 . S
C68 H46 0.950 . S
C68 C67 1.372 . S
C68 C69 1.379 . S
C69 H47 0.948 . S
C69 C64 1.364 . S
C69 C68 1.379 . S
C70 C39 1.383 . S
C70 C57 1.479 . S
C70 C71 1.398 . S
C71 C36 1.382 . S
C71 H48 0.951 . S
C71 C70 1.398 . S
C72 C73 1.364 1_554 S
C72 H85 0.950 1_655 S
C72 C107 1.397 . S
C73 C72 1.364 1_556 S
C73 C74 1.378 . S
C74 C73 1.378 . S
C74 C75 1.378 . S
C74 H86 0.952 . S
C75 C74 1.378 . S
C75 H87 0.950 . S
C75 C106 1.383 1_556 S
H76 C95 0.947 . S
H77 C96 0.946 . S
H78 C98 0.953 . S
H79 C99 0.945 . S
H80 C101 0.952 . S
H81 C102 0.947 1_655 S
H82 C104 0.950 . S
H83 C105 0.948 . S
H84 C107 0.951 . S
H85 C72 0.950 1_455 S
H86 C74 0.952 . S
H87 C75 0.950 . S
N88 C91 1.382 . S
N88 C93 1.363 . S
N89 C91 1.371 . S
N89 C92 1.372 . S
N90 C92 1.361 . S
N90 C93 1.377 . S
C91 N88 1.382 . S
C91 N89 1.371 . S
C91 C94 1.480 . S
C92 N89 1.372 . S
C92 N90 1.361 . S
C92 C100 1.457 . S
C93 N88 1.363 . S
C93 N90 1.377 . S
C93 C106 1.479 . S
C94 C91 1.480 . S
C94 C95 1.383 . S
C94 C99 1.385 . S
C95 H76 0.947 . S
C95 C94 1.383 . S
C95 C96 1.388 . S
C96 H77 0.946 . S
C96 C95 1.388 . S
C96 C97 1.384 . S
C97 C96 1.384 . S
C97 C98 1.377 . S
C98 H78 0.953 . S
C98 C97 1.377 . S
C98 C99 1.369 . S
C99 H79 0.945 . S
C99 C94 1.385 . S
C99 C98 1.369 . S
C100 C92 1.457 . S
C100 C101 1.372 . S
C100 C105 1.364 1_655 S
C101 H80 0.952 . S
C101 C100 1.372 . S
C101 C102 1.383 1_655 S
C102 H81 0.947 1_455 S
C102 C101 1.383 1_455 S
C102 C103 1.395 . S
C103 C102 1.395 . S
C103 C104 1.372 . S
C104 H82 0.950 . S
C104 C103 1.372 . S
C104 C105 1.379 . S
C105 H83 0.948 . S
C105 C100 1.364 1_455 S
C105 C104 1.379 . S
C106 C75 1.383 1_554 S
C106 C93 1.479 . S
C106 C107 1.398 . S
C107 C72 1.397 . S
C107 H84 0.951 . S
C107 C106 1.398 . S
C108 C109 1.384 . S
C108 H121 0.947 . S
C108 C143 1.382 . S
C109 C108 1.384 . S
C109 C110 1.378 . S
C110 C109 1.378 . S
C110 C111 1.378 . S
C110 H122 0.952 . S
C111 C110 1.378 . S
C111 H123 0.950 . S
C111 C142 1.383 . S
H112 C131 0.947 . S
H113 C132 0.946 . S
H114 C134 0.953 . S
H115 C135 0.945 . S
H116 C137 0.952 . S
H117 C138 0.949 . S
H118 C140 0.950 . S
H119 C141 0.948 . S
H120 C143 0.951 . S
H121 C108 0.947 . S
H122 C110 0.952 . S
H123 C111 0.950 . S
N124 C127 1.382 . S
N124 C129 1.363 . S
N125 C127 1.371 . S
N125 C128 1.372 . S
N126 C128 1.361 . S
N126 C129 1.377 . S
C127 N124 1.382 . S
C127 N125 1.371 . S
C127 C130 1.480 . S
C128 N125 1.372 . S
C128 N126 1.361 . S
C128 C136 1.457 . S
C129 N124 1.363 . S
C129 N126 1.377 . S
C129 C142 1.479 . S
C130 C127 1.480 . S
C130 C131 1.383 . S
C130 C135 1.385 . S
C131 H112 0.947 . S
C131 C130 1.383 . S
C131 C132 1.388 . S
C132 H113 0.946 . S
C132 C131 1.388 . S
C132 C133 1.384 . S
C133 C132 1.384 . S
C133 C134 1.377 . S
C134 H114 0.953 . S
C134 C133 1.377 . S
C134 C135 1.369 . S
C135 H115 0.945 . S
C135 C130 1.385 . S
C135 C134 1.369 . S
C136 C128 1.457 . S
C136 C137 1.372 . S
C136 C141 1.364 . S
C137 H116 0.952 . S
C137 C136 1.372 . S
C137 C138 1.389 . S
C138 H117 0.949 . S
C138 C137 1.389 . S
C138 C139 1.387 . S
C139 C138 1.387 . S
C139 C140 1.372 . S
C140 H118 0.950 . S
C140 C139 1.372 . S
C140 C141 1.379 . S
C141 H119 0.948 . S
C141 C136 1.364 . S
C141 C140 1.379 . S
C142 C111 1.383 . S
C142 C129 1.479 . S
C142 C143 1.398 . S
C143 C108 1.382 . S
C143 H120 0.951 . S
C143 C142 1.398 . S
C144 C145 1.384 . S
C144 H157 0.947 . S
C144 C179 1.382 . S
C145 C144 1.384 . S
C145 C146 1.378 . S
C146 C145 1.378 . S
C146 C147 1.378 . S
C146 H158 1.001 . S
C147 C146 1.378 . S
C147 H159 0.950 . S
C147 C178 1.383 . S
H148 C167 0.947 . S
H149 C168 0.946 . S
H150 C170 0.925 1_545 S
H151 C171 0.945 . S
H152 C173 0.952 . S
H153 C174 0.949 . S
H154 C176 0.950 . S
H155 C177 0.948 . S
H156 C179 0.951 . S
H157 C144 0.947 . S
H158 C146 1.001 . S
H159 C147 0.950 . S
N160 C163 1.382 . S
N160 C165 1.363 . S
N161 C163 1.371 . S
N161 C164 1.372 . S
N162 C164 1.361 . S
N162 C165 1.377 . S
C163 N160 1.382 . S
C163 N161 1.371 . S
C163 C166 1.480 . S
C164 N161 1.372 . S
C164 N162 1.361 . S
C164 C172 1.457 . S
C165 N160 1.363 . S
C165 N162 1.377 . S
C165 C178 1.479 . S
C166 C163 1.480 . S
C166 C167 1.383 1_455 S
C166 C171 1.385 . S
C167 H148 0.947 . S
C167 C166 1.383 1_655 S
C167 C168 1.388 . S
C168 H149 0.946 . S
C168 C167 1.388 . S
C168 C169 1.384 . S
C169 C168 1.384 . S
C169 C170 1.377 1_655 S
C170 H150 0.925 1_565 S
C170 C169 1.377 1_455 S
C170 C171 1.369 . S
C171 H151 0.945 . S
C171 C166 1.385 . S
C171 C170 1.369 . S
C172 C164 1.457 . S
C172 C173 1.372 1_565 S
C172 C177 1.364 . S
C173 H152 0.952 . S
C173 C172 1.372 1_545 S
C173 C174 1.389 . S
C174 H153 0.949 . S
C174 C173 1.389 . S
C174 C175 1.387 . S
C175 C174 1.387 . S
C175 C176 1.372 1_545 S
C176 H154 0.950 . S
C176 C175 1.372 1_565 S
C176 C177 1.379 . S
C177 H155 0.948 . S
C177 C172 1.364 . S
C177 C176 1.379 . S
C178 C147 1.383 . S
C178 C165 1.479 . S
C178 C179 1.398 . S
C179 C144 1.382 . S
C179 H156 0.951 . S
C179 C178 1.398 . S
C180 C181 1.384 . S
C180 H193 0.947 . S
C180 C215 1.382 . S
C181 C180 1.384 . S
C181 C182 1.378 . S
C182 C181 1.378 . S
C182 C183 1.378 . S
C182 H194 0.952 . S
C183 C182 1.378 . S
C183 H195 0.950 . S
C183 C214 1.383 . S
H184 C203 0.947 . S
H185 C204 0.946 . S
H186 C206 0.953 . S
H187 C207 0.945 . S
H188 C209 0.952 . S
H189 C210 0.949 . S
H190 C212 0.950 . S
H191 C213 0.948 . S
H192 C215 0.951 . S
H193 C180 0.947 . S
H194 C182 0.952 . S
H195 C183 0.950 . S
N196 C199 1.382 . S
N196 C201 1.363 . S
N197 C199 1.371 . S
N197 C200 1.372 . S
N198 C200 1.361 . S
N198 C201 1.377 . S
C199 N196 1.382 . S
C199 N197 1.371 . S
C199 C202 1.480 . S
C200 N197 1.372 . S
C200 N198 1.361 . S
C200 C208 1.457 . S
C201 N196 1.363 . S
C201 N198 1.377 . S
C201 C214 1.479 . S
C202 C199 1.480 . S
C202 C203 1.383 . S
C202 C207 1.385 . S
C203 H184 0.947 . S
C203 C202 1.383 . S
C203 C204 1.388 . S
C204 H185 0.946 . S
C204 C203 1.388 . S
C204 C205 1.384 . S
C205 C204 1.384 . S
C205 C206 1.377 . S
C206 H186 0.953 . S
C206 C205 1.377 . S
C206 C207 1.369 . S
C207 H187 0.945 . S
C207 C202 1.385 . S
C207 C206 1.369 . S
C208 C200 1.457 . S
C208 C209 1.372 . S
C208 C213 1.364 . S
C209 H188 0.952 . S
C209 C208 1.372 . S
C209 C210 1.389 . S
C210 H189 0.949 . S
C210 C209 1.389 . S
C210 C211 1.387 . S
C211 C210 1.387 . S
C211 C212 1.372 . S
C212 H190 0.950 . S
C212 C211 1.372 . S
C212 C213 1.379 . S
C213 H191 0.948 . S
C213 C208 1.364 . S
C213 C212 1.379 . S
C214 C183 1.383 . S
C214 C201 1.479 . S
C214 C215 1.398 . S
C215 C180 1.382 . S
C215 H192 0.951 . S
C215 C214 1.398 . S
C216 C217 1.384 . S
C216 H229 0.901 1_655 S
C216 C251 1.382 . S
C217 C216 1.384 . S
C217 C218 1.378 . S
C218 C217 1.378 . S
C218 C219 1.378 . S
C218 H230 0.952 . S
C219 C218 1.378 . S
C219 H231 0.950 . S
C219 C250 1.383 . S
H220 C239 0.947 . S
H221 C240 0.946 . S
H222 C242 0.953 . S
H223 C243 0.945 . S
H224 C245 0.952 . S
H225 C246 0.937 1_655 S
H226 C248 0.950 . S
H227 C249 0.948 . S
H228 C251 0.951 . S
H229 C216 0.901 1_455 S
H230 C218 0.952 . S
H231 C219 0.950 . S
N232 C235 1.382 . S
N232 C237 1.363 . S
N233 C235 1.371 . S
N233 C236 1.372 . S
N234 C236 1.361 . S
N234 C237 1.377 . S
C235 N232 1.382 . S
C235 N233 1.371 . S
C235 C238 1.480 . S
C236 N233 1.372 . S
C236 N234 1.361 . S
C236 C244 1.457 . S
C237 N232 1.363 . S
C237 N234 1.377 . S
C237 C250 1.479 . S
C238 C235 1.480 . S
C238 C239 1.383 . S
C238 C243 1.385 . S
C239 H220 0.947 . S
C239 C238 1.383 . S
C239 C240 1.388 . S
C240 H221 0.946 . S
C240 C239 1.388 . S
C240 C241 1.384 . S
C241 C240 1.384 . S
C241 C242 1.377 . S
C242 H222 0.953 . S
C242 C241 1.377 . S
C242 C243 1.369 . S
C243 H223 0.945 . S
C243 C238 1.385 . S
C243 C242 1.369 . S
C244 C236 1.457 . S
C244 C245 1.372 . S
C244 C249 1.364 1_655 S
C245 H224 0.952 . S
C245 C244 1.372 . S
C245 C246 1.354 1_655 S
C246 H225 0.937 1_455 S
C246 C245 1.354 1_455 S
C246 C247 1.436 . S
C247 C246 1.436 . S
C247 C248 1.372 . S
C248 H226 0.950 . S
C248 C247 1.372 . S
C248 C249 1.379 . S
C249 H227 0.948 . S
C249 C244 1.364 1_455 S
C249 C248 1.379 . S
C250 C219 1.383 . S
C250 C237 1.479 . S
C250 C251 1.398 . S
C251 C216 1.382 . S
C251 H228 0.951 . S
C251 C250 1.398 . S
C252 C253 1.384 . S
C252 H265 0.947 . S
C252 C287 1.382 . S
C253 C252 1.384 . S
C253 C254 1.378 . S
C254 C253 1.378 . S
C254 C255 1.378 . S
C254 H266 0.952 . S
C255 C254 1.378 . S
C255 H267 0.950 . S
C255 C286 1.383 . S
H256 C275 0.947 . S
H257 C276 0.946 . S
H258 C278 0.953 . S
H259 C279 0.945 . S
H260 C281 0.952 . S
H261 C282 0.949 . S
H262 C284 0.950 . S
H263 C285 0.948 . S
H264 C287 0.951 . S
H265 C252 0.947 . S
H266 C254 0.952 . S
H267 C255 0.950 . S
N268 C271 1.382 . S
N268 C273 1.363 . S
N269 C271 1.371 . S
N269 C272 1.372 . S
N270 C272 1.361 . S
N270 C273 1.377 . S
C271 N268 1.382 . S
C271 N269 1.371 . S
C271 C274 1.480 . S
C272 N269 1.372 . S
C272 N270 1.361 . S
C272 C280 1.457 . S
C273 N268 1.363 . S
C273 N270 1.377 . S
C273 C286 1.479 . S
C274 C271 1.480 . S
C274 C275 1.383 . S
C274 C279 1.385 . S
C275 H256 0.947 . S
C275 C274 1.383 . S
C275 C276 1.388 . S
C276 H257 0.946 . S
C276 C275 1.388 . S
C276 C277 1.384 . S
C277 C276 1.384 . S
C277 C278 1.377 . S
C278 H258 0.953 . S
C278 C277 1.377 . S
C278 C279 1.369 . S
C279 H259 0.945 . S
C279 C274 1.385 . S
C279 C278 1.369 . S
C280 C272 1.457 . S
C280 C281 1.372 . S
C280 C285 1.364 . S
C281 H260 0.952 . S
C281 C280 1.372 . S
C281 C282 1.389 . S
C282 H261 0.949 . S
C282 C281 1.389 . S
C282 C283 1.387 . S
C283 C282 1.387 . S
C283 C284 1.372 . S
C284 H262 0.950 . S
C284 C283 1.372 . S
C284 C285 1.379 . S
C285 H263 0.948 . S
C285 C280 1.364 . S
C285 C284 1.379 . S
C286 C255 1.383 . S
C286 C273 1.479 . S
C286 C287 1.398 . S
C287 C252 1.382 . S
C287 H264 0.951 . S
C287 C286 1.398 . S
C288 C289 1.384 . S
C288 H301 0.947 . S
C288 C323 1.382 . S
C289 C288 1.384 . S
C289 C290 1.378 . S
C290 C289 1.378 . S
C290 C291 1.378 . S
C290 H302 0.952 . S
C291 C290 1.378 . S
C291 H303 0.950 . S
C291 C322 1.383 . S
H292 C311 0.947 . S
H293 C312 0.946 . S
H294 C314 0.953 . S
H295 C315 0.945 . S
H296 C317 0.952 . S
H297 C318 0.949 . S
H298 C320 0.950 . S
H299 C321 0.948 . S
H300 C323 0.951 . S
H301 C288 0.947 . S
H302 C290 0.952 . S
H303 C291 0.950 . S
N304 C307 1.382 . S
N304 C309 1.363 . S
N305 C307 1.371 . S
N305 C308 1.372 . S
N306 C308 1.361 . S
N306 C309 1.377 . S
C307 N304 1.382 . S
C307 N305 1.371 . S
C307 C310 1.480 . S
C308 N305 1.372 . S
C308 N306 1.361 . S
C308 C316 1.457 . S
C309 N304 1.363 . S
C309 N306 1.377 . S
C309 C322 1.479 . S
C310 C307 1.480 . S
C310 C311 1.383 . S
C310 C315 1.385 . S
C311 H292 0.947 . S
C311 C310 1.383 . S
C311 C312 1.388 . S
C312 H293 0.946 . S
C312 C311 1.388 . S
C312 C313 1.384 . S
C313 C312 1.384 . S
C313 C314 1.377 . S
C314 H294 0.953 . S
C314 C313 1.377 . S
C314 C315 1.369 . S
C315 H295 0.945 . S
C315 C310 1.385 . S
C315 C314 1.369 . S
C316 C308 1.457 . S
C316 C317 1.372 . S
C316 C321 1.364 . S
C317 H296 0.952 . S
C317 C316 1.372 . S
C317 C318 1.389 . S
C318 H297 0.949 . S
C318 C317 1.389 . S
C318 C319 1.387 . S
C319 C318 1.387 . S
C319 C320 1.372 . S
C320 H298 0.950 . S
C320 C319 1.372 . S
C320 C321 1.379 . S
C321 H299 0.948 . S
C321 C316 1.364 . S
C321 C320 1.379 . S
C322 C291 1.383 . S
C322 C309 1.479 . S
C322 C323 1.398 . S
C323 C288 1.382 . S
C323 H300 0.951 . S
C323 C322 1.398 . S
C324 C325 1.384 . S
C324 H337 0.947 . S
C324 C359 1.382 . S
C325 C324 1.384 . S
C325 C326 1.378 . S
C326 C325 1.378 . S
C326 C327 1.378 . S
C326 H338 0.952 . S
C327 C326 1.378 . S
C327 H339 0.950 . S
C327 C358 1.383 . S
H328 C347 0.947 . S
H329 C348 0.930 1_565 S
H330 C350 0.953 . S
H331 C351 0.945 . S
H332 C353 0.952 . S
H333 C354 0.967 . S
H334 C356 0.950 . S
H335 C357 0.948 . S
H336 C359 0.951 . S
H337 C324 0.947 . S
H338 C326 0.952 . S
H339 C327 0.950 . S
N340 C343 1.382 . S
N340 C345 1.363 . S
N341 C343 1.371 . S
N341 C344 1.372 . S
N342 C344 1.361 . S
N342 C345 1.377 . S
C343 N340 1.382 . S
C343 N341 1.371 . S
C343 C346 1.480 . S
C344 N341 1.372 . S
C344 N342 1.361 . S
C344 C352 1.457 . S
C345 N340 1.363 . S
C345 N342 1.377 . S
C345 C358 1.479 . S
C346 C343 1.480 . S
C346 C347 1.383 . S
C346 C351 1.385 1_565 S
C347 H328 0.947 . S
C347 C346 1.383 . S
C347 C348 1.353 1_565 S
C348 H329 0.930 1_545 S
C348 C347 1.353 1_545 S
C348 C349 1.438 . S
C349 C348 1.438 . S
C349 C350 1.377 . S
C350 H330 0.953 . S
C350 C349 1.377 . S
C350 C351 1.369 . S
C351 H331 0.945 . S
C351 C346 1.385 1_545 S
C351 C350 1.369 . S
C352 C344 1.457 . S
C352 C353 1.372 . S
C352 C357 1.364 . S
C353 H332 0.952 . S
C353 C352 1.372 . S
C353 C354 1.389 . S
C354 H333 0.967 . S
C354 C353 1.389 . S
C354 C355 1.387 . S
C355 C354 1.387 . S
C355 C356 1.372 . S
C356 H334 0.950 . S
C356 C355 1.372 . S
C356 C357 1.379 . S
C357 H335 0.948 . S
C357 C352 1.364 . S
C357 C356 1.379 . S
C358 C327 1.383 . S
C358 C345 1.479 . S
C358 C359 1.398 . S
C359 C324 1.382 . S
C359 H336 0.951 . S
C359 C358 1.398 . S
C360 C361 1.384 . S
C360 H373 0.947 . S
C360 C395 1.382 . S
C361 C360 1.384 . S
C361 C362 1.378 . S
C362 C361 1.378 . S
C362 C363 1.378 . S
C362 H374 0.952 . S
C363 C362 1.378 . S
C363 H375 0.950 . S
C363 C394 1.383 . S
H364 C383 0.947 . S
H365 C384 0.946 . S
H366 C386 0.953 . S
H367 C387 0.945 . S
H368 C389 0.952 . S
H369 C390 0.949 . S
H370 C392 0.950 . S
H371 C393 0.948 . S
H372 C395 0.951 . S
H373 C360 0.947 . S
H374 C362 0.952 . S
H375 C363 0.950 . S
N376 C379 1.382 . S
N376 C381 1.363 . S
N377 C379 1.371 . S
N377 C380 1.372 . S
N378 C380 1.361 . S
N378 C381 1.377 . S
C379 N376 1.382 . S
C379 N377 1.371 . S
C379 C382 1.480 . S
C380 N377 1.372 . S
C380 N378 1.361 . S
C380 C388 1.457 . S
C381 N376 1.363 . S
C381 N378 1.377 . S
C381 C394 1.479 . S
C382 C379 1.480 . S
C382 C383 1.383 . S
C382 C387 1.385 . S
C383 H364 0.947 . S
C383 C382 1.383 . S
C383 C384 1.388 . S
C384 H365 0.946 . S
C384 C383 1.388 . S
C384 C385 1.384 . S
C385 C384 1.384 . S
C385 C386 1.377 . S
C386 H366 0.953 . S
C386 C385 1.377 . S
C386 C387 1.369 . S
C387 H367 0.945 . S
C387 C382 1.385 . S
C387 C386 1.369 . S
C388 C380 1.457 . S
C388 C389 1.372 . S
C388 C393 1.364 . S
C389 H368 0.952 . S
C389 C388 1.372 . S
C389 C390 1.389 . S
C390 H369 0.949 . S
C390 C389 1.389 . S
C390 C391 1.387 . S
C391 C390 1.387 . S
C391 C392 1.372 . S
C392 H370 0.950 . S
C392 C391 1.372 . S
C392 C393 1.379 . S
C393 H371 0.948 . S
C393 C388 1.364 . S
C393 C392 1.379 . S
C394 C363 1.383 . S
C394 C381 1.479 . S
C394 C395 1.398 . S
C395 C360 1.382 . S
C395 H372 0.951 . S
C395 C394 1.398 . S
C396 C397 1.384 . S
C396 H409 0.947 . S
C396 C431 1.382 . S
C397 C396 1.384 . S
C397 C398 1.378 . S
C398 C397 1.378 . S
C398 C399 1.378 . S
C398 H410 0.952 . S
C399 C398 1.378 . S
C399 H411 0.950 . S
C399 C430 1.383 . S
H400 C419 0.947 . S
H401 C420 0.946 . S
H402 C422 0.953 . S
H403 C423 0.945 . S
H404 C425 0.952 . S
H405 C426 0.949 . S
H406 C428 0.950 . S
H407 C429 0.948 . S
H408 C431 0.951 . S
H409 C396 0.947 . S
H410 C398 0.952 . S
H411 C399 0.950 . S
N412 C415 1.382 . S
N412 C417 1.363 . S
N413 C415 1.371 . S
N413 C416 1.372 . S
N414 C416 1.361 . S
N414 C417 1.377 . S
C415 N412 1.382 . S
C415 N413 1.371 . S
C415 C418 1.480 . S
C416 N413 1.372 . S
C416 N414 1.361 . S
C416 C424 1.457 . S
C417 N412 1.363 . S
C417 N414 1.377 . S
C417 C430 1.479 . S
C418 C415 1.480 . S
C418 C419 1.383 . S
C418 C423 1.385 . S
C419 H400 0.947 . S
C419 C418 1.383 . S
C419 C420 1.388 . S
C420 H401 0.946 . S
C420 C419 1.388 . S
C420 C421 1.384 . S
C421 C420 1.384 . S
C421 C422 1.377 . S
C422 H402 0.953 . S
C422 C421 1.377 . S
C422 C423 1.369 . S
C423 H403 0.945 . S
C423 C418 1.385 . S
C423 C422 1.369 . S
C424 C416 1.457 . S
C424 C425 1.372 . S
C424 C429 1.364 . S
C425 H404 0.952 . S
C425 C424 1.372 . S
C425 C426 1.389 . S
C426 H405 0.949 . S
C426 C425 1.389 . S
C426 C427 1.387 . S
C427 C426 1.387 . S
C427 C428 1.372 . S
C428 H406 0.950 . S
C428 C427 1.372 . S
C428 C429 1.379 . S
C429 H407 0.948 . S
C429 C424 1.364 . S
C429 C428 1.379 . S
C430 C399 1.383 . S
C430 C417 1.479 . S
C430 C431 1.398 . S
C431 C396 1.382 . S
C431 H408 0.951 . S
C431 C430 1.398 . S
C432 C433 1.384 . S
C432 H445 0.947 . S
C432 C467 1.382 . S
C433 C432 1.384 . S
C433 C434 1.378 . S
C434 C433 1.378 . S
C434 C435 1.378 . S
C434 H446 0.952 . S
C435 C434 1.378 . S
C435 H447 0.950 . S
C435 C466 1.383 . S
H436 C455 0.947 . S
H437 C456 0.946 . S
H438 C458 0.953 . S
H439 C459 0.945 . S
H440 C461 0.952 . S
H441 C462 0.949 . S
H442 C464 0.950 . S
H443 C465 0.948 . S
H444 C467 0.951 . S
H445 C432 0.947 . S
H446 C434 0.952 . S
H447 C435 0.950 . S
N448 C451 1.382 . S
N448 C453 1.363 . S
N449 C451 1.371 . S
N449 C452 1.372 . S
N450 C452 1.361 . S
N450 C453 1.377 . S
C451 N448 1.382 . S
C451 N449 1.371 . S
C451 C454 1.480 . S
C452 N449 1.372 . S
C452 N450 1.361 . S
C452 C460 1.457 . S
C453 N448 1.363 . S
C453 N450 1.377 . S
C453 C466 1.479 . S
C454 C451 1.480 . S
C454 C455 1.383 . S
C454 C459 1.385 . S
C455 H436 0.947 . S
C455 C454 1.383 . S
C455 C456 1.388 . S
C456 H437 0.946 . S
C456 C455 1.388 . S
C456 C457 1.384 . S
C457 C456 1.384 . S
C457 C458 1.377 . S
C458 H438 0.953 . S
C458 C457 1.377 . S
C458 C459 1.369 . S
C459 H439 0.945 . S
C459 C454 1.385 . S
C459 C458 1.369 . S
C460 C452 1.457 . S
C460 C461 1.372 . S
C460 C465 1.364 . S
C461 H440 0.952 . S
C461 C460 1.372 . S
C461 C462 1.389 . S
C462 H441 0.949 . S
C462 C461 1.389 . S
C462 C463 1.387 . S
C463 C462 1.387 . S
C463 C464 1.372 . S
C464 H442 0.950 . S
C464 C463 1.372 . S
C464 C465 1.379 . S
C465 H443 0.948 . S
C465 C460 1.364 . S
C465 C464 1.379 . S
C466 C435 1.383 . S
C466 C453 1.479 . S
C466 C467 1.398 . S
C467 C432 1.382 . S
C467 H444 0.951 . S
C467 C466 1.398 . S
C468 C469 1.384 . S
C468 H481 0.947 . S
C468 C503 1.382 . S
C469 C468 1.384 . S
C469 C470 1.378 1_554 S
C470 C469 1.378 1_556 S
C470 C471 1.378 . S
C470 H482 0.952 . S
C471 C470 1.378 . S
C471 H483 0.950 . S
C471 C502 1.383 . S
H472 C491 0.947 . S
H473 C492 0.946 . S
H474 C494 0.953 . S
H475 C495 0.945 . S
H476 C497 0.952 . S
H477 C498 0.949 . S
H478 C500 0.950 . S
H479 C501 0.948 . S
H480 C503 0.951 . S
H481 C468 0.947 . S
H482 C470 0.952 . S
H483 C471 0.950 . S
N484 C487 1.382 . S
N484 C489 1.363 . S
N485 C487 1.371 . S
N485 C488 1.372 . S
N486 C488 1.361 . S
N486 C489 1.377 . S
C487 N484 1.382 . S
C487 N485 1.371 . S
C487 C490 1.480 . S
C488 N485 1.372 . S
C488 N486 1.361 . S
C488 C496 1.457 . S
C489 N484 1.363 . S
C489 N486 1.377 . S
C489 C502 1.479 . S
C490 C487 1.480 . S
C490 C491 1.383 . S
C490 C495 1.385 . S
C491 H472 0.947 . S
C491 C490 1.383 . S
C491 C492 1.388 . S
C492 H473 0.946 . S
C492 C491 1.388 . S
C492 C493 1.384 . S
C493 C492 1.384 . S
C493 C494 1.377 . S
C494 H474 0.953 . S
C494 C493 1.377 . S
C494 C495 1.369 . S
C495 H475 0.945 . S
C495 C490 1.385 . S
C495 C494 1.369 . S
C496 C488 1.457 . S
C496 C497 1.372 . S
C496 C501 1.364 . S
C497 H476 0.952 . S
C497 C496 1.372 . S
C497 C498 1.389 . S
C498 H477 0.949 . S
C498 C497 1.389 . S
C498 C499 1.387 . S
C499 C498 1.387 . S
C499 C500 1.372 . S
C500 H478 0.950 . S
C500 C499 1.372 . S
C500 C501 1.379 . S
C501 H479 0.948 . S
C501 C496 1.364 . S
C501 C500 1.379 . S
C502 C471 1.383 . S
C502 C489 1.479 . S
C502 C503 1.398 1_556 S
C503 C468 1.382 . S
C503 H480 0.951 . S
C503 C502 1.398 1_554 S
C504 C505 1.384 . S
C504 H517 0.947 . S
C504 C539 1.382 . S
C505 C504 1.384 . S
C505 C506 1.378 . S
C506 C505 1.378 . S
C506 C507 1.378 . S
C506 H518 0.952 . S
C507 C506 1.378 . S
C507 H519 0.950 . S
C507 C538 1.383 . S
H508 C527 0.947 . S
H509 C528 0.946 . S
H510 C530 0.953 . S
H511 C531 0.945 . S
H512 C533 0.952 . S
H513 C534 0.949 . S
H514 C536 0.950 . S
H515 C537 0.948 . S
H516 C539 0.951 . S
H517 C504 0.947 . S
H518 C506 0.952 . S
H519 C507 0.950 . S
N520 C523 1.382 . S
N520 C525 1.363 . S
N521 C523 1.371 . S
N521 C524 1.372 . S
N522 C524 1.361 . S
N522 C525 1.377 . S
C523 N520 1.382 . S
C523 N521 1.371 . S
C523 C526 1.480 . S
C524 N521 1.372 . S
C524 N522 1.361 . S
C524 C532 1.457 . S
C525 N520 1.363 . S
C525 N522 1.377 . S
C525 C538 1.479 . S
C526 C523 1.480 . S
C526 C527 1.383 . S
C526 C531 1.385 . S
C527 H508 0.947 . S
C527 C526 1.383 . S
C527 C528 1.388 . S
C528 H509 0.946 . S
C528 C527 1.388 . S
C528 C529 1.384 . S
C529 C528 1.384 . S
C529 C530 1.377 . S
C530 H510 0.953 . S
C530 C529 1.377 . S
C530 C531 1.369 . S
C531 H511 0.945 . S
C531 C526 1.385 . S
C531 C530 1.369 . S
C532 C524 1.457 . S
C532 C533 1.372 . S
C532 C537 1.364 . S
C533 H512 0.952 . S
C533 C532 1.372 . S
C533 C534 1.389 . S
C534 H513 0.949 . S
C534 C533 1.389 . S
C534 C535 1.387 . S
C535 C534 1.387 . S
C535 C536 1.372 . S
C536 H514 0.950 . S
C536 C535 1.372 . S
C536 C537 1.379 . S
C537 H515 0.948 . S
C537 C532 1.364 . S
C537 C536 1.379 . S
C538 C507 1.383 . S
C538 C525 1.479 . S
C538 C539 1.398 . S
C539 C504 1.382 . S
C539 H516 0.951 . S
C539 C538 1.398 . S
C540 C541 1.384 . S
C540 H553 0.947 1_554 S
C540 C575 1.382 1_554 S
C541 C540 1.384 . S
C541 C542 1.378 . S
C542 C541 1.378 . S
C542 C543 1.378 . S
C542 H554 0.952 . S
C543 C542 1.378 . S
C543 H555 0.950 . S
C543 C574 1.383 1_554 S
H544 C563 0.947 . S
H545 C564 0.975 1_545 S
H546 C566 0.953 . S
H547 C567 0.945 . S
H548 C569 0.952 . S
H549 C570 0.973 . S
H550 C572 0.950 . S
H551 C573 0.948 . S
H552 C575 0.951 . S
H553 C540 0.947 1_556 S
H554 C542 0.952 . S
H555 C543 0.950 . S
N556 C559 1.382 . S
N556 C561 1.363 . S
N557 C559 1.371 . S
N557 C560 1.372 . S
N558 C560 1.361 . S
N558 C561 1.377 . S
C559 N556 1.382 . S
C559 N557 1.371 . S
C559 C562 1.480 . S
C560 N557 1.372 . S
C560 N558 1.361 . S
C560 C568 1.457 . S
C561 N556 1.363 . S
C561 N558 1.377 . S
C561 C574 1.479 . S
C562 C559 1.480 . S
C562 C563 1.383 . S
C562 C567 1.385 1_545 S
C563 H544 0.947 . S
C563 C562 1.383 . S
C563 C564 1.358 1_545 S
C564 H545 0.975 1_565 S
C564 C563 1.358 1_565 S
C564 C565 1.430 . S
C565 C564 1.430 . S
C565 C566 1.377 . S
C566 H546 0.953 . S
C566 C565 1.377 . S
C566 C567 1.369 . S
C567 H547 0.945 . S
C567 C562 1.385 1_565 S
C567 C566 1.369 . S
C568 C560 1.457 . S
C568 C569 1.372 . S
C568 C573 1.364 . S
C569 H548 0.952 . S
C569 C568 1.372 . S
C569 C570 1.389 . S
C570 H549 0.973 . S
C570 C569 1.389 . S
C570 C571 1.387 . S
C571 C570 1.387 . S
C571 C572 1.372 . S
C572 H550 0.950 . S
C572 C571 1.372 . S
C572 C573 1.379 . S
C573 H551 0.948 . S
C573 C568 1.364 . S
C573 C572 1.379 . S
C574 C543 1.383 1_556 S
C574 C561 1.479 . S
C574 C575 1.398 . S
C575 C540 1.382 1_556 S
C575 H552 0.951 . S
C575 C574 1.398 . S
Li576 N593 1.990 . S
Li576 O636 1.956 . S
Li576 O637 1.970 1_556 S
Li576 O638 1.961 . S
Li577 N601 1.990 . S
Li577 O636 1.970 1_554 S
Li577 O637 1.956 . S
Li577 O639 1.961 . S
Li578 N623 1.990 . S
Li578 O636 1.961 . S
Li578 O638 1.956 . S
Li578 O639 1.970 1_556 S
Li579 N629 1.990 . S
Li579 O637 1.961 . S
Li579 O638 1.970 1_554 S
Li579 O639 1.956 . S
C580 C582 1.348 1_556 S
C580 C583 1.356 . S
C580 O636 1.325 . S
N581 C584 1.314 1_556 S
N581 C585 1.279 . S
C582 C580 1.348 1_554 S
C582 C584 1.353 . S
C582 H640 0.929 . S
C583 C580 1.356 . S
C583 C585 1.358 . S
C583 H641 0.930 . S
C584 N581 1.314 1_554 S
C584 C582 1.353 . S
C584 H642 0.930 . S
C585 N581 1.279 . S
C585 C583 1.358 . S
C585 H643 0.930 . S
C586 C589 1.348 . S
C586 C590 1.356 . S
C586 O637 1.325 . S
C587 N588 1.279 . S
C587 C590 1.358 . S
C587 H644 0.930 . S
N588 C587 1.279 . S
N588 C591 1.314 . S
C589 C586 1.348 . S
C589 C591 1.353 . S
C589 H645 0.929 . S
C590 C586 1.356 . S
C590 C587 1.358 . S
C590 H646 0.930 . S
C591 N588 1.314 . S
C591 C589 1.353 . S
C591 H647 0.930 . S
C592 N593 1.314 . S
C592 C597 1.353 . S
C592 H598 0.930 . S
N593 Li576 1.990 . S
N593 C592 1.314 . S
N593 C595 1.279 . S
C594 C595 1.358 . S
C594 C596 1.356 . S
C594 H648 0.930 . S
C595 N593 1.279 . S
C595 C594 1.358 . S
C595 H599 0.930 . S
C596 C594 1.356 . S
C596 C597 1.348 . S
C597 C592 1.353 . S
C597 C596 1.348 . S
C597 H649 0.929 . S
H598 C592 0.930 . S
H599 C595 0.930 . S
C600 N601 1.314 . S
C600 C602 1.353 . S
C600 H606 0.930 . S
N601 Li577 1.990 . S
N601 C600 1.314 . S
N601 C604 1.279 . S
C602 C600 1.353 . S
C602 C605 1.348 . S
C602 H650 0.929 . S
C603 C604 1.358 . S
C603 C605 1.356 . S
C603 H651 0.930 . S
C604 N601 1.279 . S
C604 C603 1.358 . S
C604 H607 0.930 . S
C605 C602 1.348 . S
C605 C603 1.356 . S
H606 C600 0.930 . S
H607 C604 0.930 . S
C608 C610 1.348 . S
C608 C611 1.356 . S
C608 O638 1.325 . S
N609 C612 1.314 . S
N609 C613 1.279 . S
C610 C608 1.348 . S
C610 C612 1.353 . S
C610 H652 0.929 . S
C611 C608 1.356 . S
C611 C613 1.358 . S
C611 H653 0.930 . S
C612 N609 1.314 . S
C612 C610 1.353 . S
C612 H654 0.930 . S
C613 N609 1.279 . S
C613 C611 1.358 . S
C613 H655 0.930 . S
C614 C615 1.348 1_554 S
C614 C616 1.356 . S
C614 O639 1.325 . S
C615 C614 1.348 1_556 S
C615 C617 1.353 . S
C615 H656 0.929 . S
C616 C614 1.356 . S
C616 C618 1.358 . S
C616 H657 0.930 . S
C617 C615 1.353 . S
C617 N619 1.314 1_556 S
C617 H658 0.930 . S
C618 C616 1.358 . S
C618 N619 1.279 . S
C618 H659 0.930 . S
N619 C617 1.314 1_554 S
N619 C618 1.279 . S
C620 C622 1.353 . S
C620 N623 1.314 . S
C620 H626 0.930 . S
C621 N623 1.279 . S
C621 C624 1.358 . S
C621 H627 0.930 . S
C622 C620 1.353 . S
C622 C625 1.348 . S
C622 H660 0.929 . S
N623 Li578 1.990 . S
N623 C620 1.314 . S
N623 C621 1.279 . S
C624 C621 1.358 . S
C624 C625 1.356 . S
C624 H661 0.930 . S
C625 C622 1.348 . S
C625 C624 1.356 . S
H626 C620 0.930 . S
H627 C621 0.930 . S
C628 N629 1.314 . S
C628 C630 1.353 . S
C628 H634 0.930 . S
N629 Li579 1.990 . S
N629 C628 1.314 . S
N629 C632 1.279 . S
C630 C628 1.353 . S
C630 C633 1.348 . S
C630 H662 0.929 . S
C631 C632 1.358 . S
C631 C633 1.356 . S
C631 H663 0.930 . S
C632 N629 1.279 . S
C632 C631 1.358 . S
C632 H635 0.930 . S
C633 C630 1.348 . S
C633 C631 1.356 . S
H634 C628 0.930 . S
H635 C632 0.930 . S
O636 Li576 1.956 . S
O636 Li577 1.970 1_556 S
O636 Li578 1.961 . S
O636 C580 1.325 . S
O637 Li576 1.970 1_554 S
O637 Li577 1.956 . S
O637 Li579 1.961 . S
O637 C586 1.325 . S
O638 Li576 1.961 . S
O638 Li578 1.956 . S
O638 Li579 1.970 1_556 S
O638 C608 1.325 . S
O639 Li577 1.961 . S
O639 Li578 1.970 1_554 S
O639 Li579 1.956 . S
O639 C614 1.325 . S
H640 C582 0.929 . S
H641 C583 0.930 . S
H642 C584 0.930 . S
H643 C585 0.930 . S
H644 C587 0.930 . S
H645 C589 0.929 . S
H646 C590 0.930 . S
H647 C591 0.930 . S
H648 C594 0.930 . S
H649 C597 0.929 . S
H650 C602 0.929 . S
H651 C603 0.930 . S
H652 C610 0.929 . S
H653 C611 0.930 . S
H654 C612 0.930 . S
H655 C613 0.930 . S
H656 C615 0.929 . S
H657 C616 0.930 . S
H658 C617 0.930 . S
H659 C618 0.930 . S
H660 C622 0.929 . S
H661 C624 0.930 . S
H662 C630 0.929 . S
H663 C631 0.930 . S
Li664 N681 1.990 . S
Li664 O724 1.956 . S
Li664 O725 1.970 . S
Li664 O726 1.961 . S
Li665 N689 1.990 . S
Li665 O724 1.970 . S
Li665 O725 1.956 . S
Li665 O727 1.961 . S
Li666 N711 1.990 . S
Li666 O724 1.961 . S
Li666 O726 1.956 . S
Li666 O727 1.970 . S
Li667 N717 1.990 . S
Li667 O725 1.961 . S
Li667 O726 1.970 . S
Li667 O727 1.956 . S
C668 C670 1.348 . S
C668 C671 1.356 . S
C668 O724 1.325 . S
N669 C672 1.314 . S
N669 C673 1.279 . S
C670 C668 1.348 . S
C670 C672 1.353 . S
C670 H728 0.929 . S
C671 C668 1.356 . S
C671 C673 1.358 . S
C671 H729 0.930 . S
C672 N669 1.314 . S
C672 C670 1.353 . S
C672 H730 0.930 . S
C673 N669 1.279 . S
C673 C671 1.358 . S
C673 H731 0.930 . S
C674 C677 1.348 . S
C674 C678 1.356 . S
C674 O725 1.325 . S
C675 N676 1.279 . S
C675 C678 1.358 . S
C675 H732 0.930 . S
N676 C675 1.279 . S
N676 C679 1.314 . S
C677 C674 1.348 . S
C677 C679 1.353 . S
C677 H733 0.929 . S
C678 C674 1.356 . S
C678 C675 1.358 . S
C678 H734 0.930 . S
C679 N676 1.314 . S
C679 C677 1.353 . S
C679 H735 0.930 . S
C680 N681 1.314 . S
C680 C685 1.353 . S
C680 H686 0.930 . S
N681 Li664 1.990 . S
N681 C680 1.314 . S
N681 C683 1.279 . S
C682 C683 1.358 . S
C682 C684 1.356 . S
C682 H736 0.930 . S
C683 N681 1.279 . S
C683 C682 1.358 . S
C683 H687 0.930 . S
C684 C682 1.356 . S
C684 C685 1.348 . S
C685 C680 1.353 . S
C685 C684 1.348 . S
C685 H737 0.929 . S
H686 C680 0.930 . S
H687 C683 0.930 . S
C688 N689 1.314 . S
C688 C690 1.353 . S
C688 H694 0.930 . S
N689 Li665 1.990 . S
N689 C688 1.314 . S
N689 C692 1.279 . S
C690 C688 1.353 . S
C690 C693 1.348 . S
C690 H738 0.929 . S
C691 C692 1.358 . S
C691 C693 1.356 . S
C691 H739 0.930 . S
C692 N689 1.279 . S
C692 C691 1.358 . S
C692 H695 0.930 . S
C693 C690 1.348 . S
C693 C691 1.356 . S
H694 C688 0.930 . S
H695 C692 0.930 . S
C696 C698 1.348 . S
C696 C699 1.356 . S
C696 O726 1.325 . S
N697 C700 1.314 . S
N697 C701 1.279 . S
C698 C696 1.348 . S
C698 C700 1.353 . S
C698 H740 0.929 . S
C699 C696 1.356 . S
C699 C701 1.358 . S
C699 H741 0.930 . S
C700 N697 1.314 . S
C700 C698 1.353 . S
C700 H742 0.930 . S
C701 N697 1.279 . S
C701 C699 1.358 . S
C701 H743 0.930 . S
C702 C703 1.348 . S
C702 C704 1.356 . S
C702 O727 1.325 . S
C703 C702 1.348 . S
C703 C705 1.353 . S
C703 H744 0.929 . S
C704 C702 1.356 . S
C704 C706 1.358 . S
C704 H745 0.930 . S
C705 C703 1.353 . S
C705 N707 1.314 . S
C705 H746 0.930 . S
C706 C704 1.358 . S
C706 N707 1.279 . S
C706 H747 0.930 . S
N707 C705 1.314 . S
N707 C706 1.279 . S
C708 C710 1.353 . S
C708 N711 1.314 . S
C708 H714 0.930 . S
C709 N711 1.279 . S
C709 C712 1.358 . S
C709 H715 0.930 . S
C710 C708 1.353 . S
C710 C713 1.348 . S
C710 H748 0.929 . S
N711 Li666 1.990 . S
N711 C708 1.314 . S
N711 C709 1.279 . S
C712 C709 1.358 . S
C712 C713 1.356 . S
C712 H749 0.930 . S
C713 C710 1.348 . S
C713 C712 1.356 . S
H714 C708 0.930 . S
H715 C709 0.930 . S
C716 N717 1.314 . S
C716 C718 1.353 . S
C716 H722 0.930 . S
N717 Li667 1.990 . S
N717 C716 1.314 . S
N717 C720 1.279 . S
C718 C716 1.353 . S
C718 C721 1.348 . S
C718 H750 0.929 . S
C719 C720 1.358 . S
C719 C721 1.356 . S
C719 H751 0.930 . S
C720 N717 1.279 . S
C720 C719 1.358 . S
C720 H723 0.930 . S
C721 C718 1.348 . S
C721 C719 1.356 . S
H722 C716 0.930 . S
H723 C720 0.930 . S
O724 Li664 1.956 . S
O724 Li665 1.970 . S
O724 Li666 1.961 . S
O724 C668 1.325 . S
O725 Li664 1.970 . S
O725 Li665 1.956 . S
O725 Li667 1.961 . S
O725 C674 1.325 . S
O726 Li664 1.961 . S
O726 Li666 1.956 . S
O726 Li667 1.970 . S
O726 C696 1.325 . S
O727 Li665 1.961 . S
O727 Li666 1.970 . S
O727 Li667 1.956 . S
O727 C702 1.325 . S
H728 C670 0.929 . S
H729 C671 0.930 . S
H730 C672 0.930 . S
H731 C673 0.930 . S
H732 C675 0.930 . S
H733 C677 0.929 . S
H734 C678 0.930 . S
H735 C679 0.930 . S
H736 C682 0.930 . S
H737 C685 0.929 . S
H738 C690 0.929 . S
H739 C691 0.930 . S
H740 C698 0.929 . S
H741 C699 0.930 . S
H742 C700 0.930 . S
H743 C701 0.930 . S
H744 C703 0.929 . S
H745 C704 0.930 . S
H746 C705 0.930 . S
H747 C706 0.930 . S
H748 C710 0.929 . S
H749 C712 0.930 . S
H750 C718 0.929 . S
H751 C719 0.930 . S
Li752 N769 1.990 . S
Li752 O812 1.956 . S
Li752 O813 1.970 1_556 S
Li752 O814 1.961 . S
Li753 N777 1.990 . S
Li753 O812 1.970 1_554 S
Li753 O813 1.956 . S
Li753 O815 1.961 . S
Li754 N799 1.990 . S
Li754 O812 1.961 . S
Li754 O814 1.956 . S
Li754 O815 1.970 1_556 S
Li755 N805 1.990 . S
Li755 O813 1.961 . S
Li755 O814 1.970 1_554 S
Li755 O815 1.956 . S
C756 C758 1.348 1_556 S
C756 C759 1.356 . S
C756 O812 1.325 . S
N757 C760 1.314 1_556 S
N757 C761 1.279 . S
C758 C756 1.348 1_554 S
C758 C760 1.353 . S
C758 H816 0.929 . S
C759 C756 1.356 . S
C759 C761 1.358 . S
C759 H817 0.930 . S
C760 N757 1.314 1_554 S
C760 C758 1.353 . S
C760 H818 0.930 . S
C761 N757 1.279 . S
C761 C759 1.358 . S
C761 H819 0.930 . S
C762 C765 1.348 . S
C762 C766 1.356 . S
C762 O813 1.325 . S
C763 N764 1.279 . S
C763 C766 1.358 . S
C763 H820 0.930 . S
N764 C763 1.279 . S
N764 C767 1.314 . S
C765 C762 1.348 . S
C765 C767 1.353 . S
C765 H821 0.929 . S
C766 C762 1.356 . S
C766 C763 1.358 . S
C766 H822 0.930 . S
C767 N764 1.314 . S
C767 C765 1.353 . S
C767 H823 0.930 . S
C768 N769 1.314 . S
C768 C773 1.353 . S
C768 H774 0.930 . S
N769 Li752 1.990 . S
N769 C768 1.314 . S
N769 C771 1.279 . S
C770 C771 1.358 . S
C770 C772 1.356 . S
C770 H824 0.930 . S
C771 N769 1.279 . S
C771 C770 1.358 . S
C771 H775 0.930 . S
C772 C770 1.356 . S
C772 C773 1.348 . S
C773 C768 1.353 . S
C773 C772 1.348 . S
C773 H825 0.929 . S
H774 C768 0.930 . S
H775 C771 0.930 . S
C776 N777 1.314 . S
C776 C778 1.353 . S
C776 H782 0.930 . S
N777 Li753 1.990 . S
N777 C776 1.314 . S
N777 C780 1.279 . S
C778 C776 1.353 . S
C778 C781 1.348 . S
C778 H826 0.929 . S
C779 C780 1.358 . S
C779 C781 1.356 . S
C779 H827 0.930 . S
C780 N777 1.279 . S
C780 C779 1.358 . S
C780 H783 0.930 . S
C781 C778 1.348 . S
C781 C779 1.356 . S
H782 C776 0.930 . S
H783 C780 0.930 . S
C784 C786 1.348 . S
C784 C787 1.356 . S
C784 O814 1.325 . S
N785 C788 1.314 . S
N785 C789 1.279 . S
C786 C784 1.348 . S
C786 C788 1.353 . S
C786 H828 0.929 . S
C787 C784 1.356 . S
C787 C789 1.358 . S
C787 H829 0.930 . S
C788 N785 1.314 . S
C788 C786 1.353 . S
C788 H830 0.930 . S
C789 N785 1.279 . S
C789 C787 1.358 . S
C789 H831 0.930 . S
C790 C791 1.348 1_554 S
C790 C792 1.356 . S
C790 O815 1.325 . S
C791 C790 1.348 1_556 S
C791 C793 1.353 . S
C791 H832 0.929 . S
C792 C790 1.356 . S
C792 C794 1.358 . S
C792 H833 0.930 . S
C793 C791 1.353 . S
C793 N795 1.314 1_556 S
C793 H834 0.930 . S
C794 C792 1.358 . S
C794 N795 1.279 . S
C794 H835 0.930 . S
N795 C793 1.314 1_554 S
N795 C794 1.279 . S
C796 C798 1.353 . S
C796 N799 1.314 . S
C796 H802 0.930 . S
C797 N799 1.279 . S
C797 C800 1.358 . S
C797 H803 0.930 . S
C798 C796 1.353 . S
C798 C801 1.348 . S
C798 H836 0.929 . S
N799 Li754 1.990 . S
N799 C796 1.314 . S
N799 C797 1.279 . S
C800 C797 1.358 . S
C800 C801 1.356 . S
C800 H837 0.930 . S
C801 C798 1.348 . S
C801 C800 1.356 . S
H802 C796 0.930 . S
H803 C797 0.930 . S
C804 N805 1.314 . S
C804 C806 1.353 . S
C804 H810 0.930 . S
N805 Li755 1.990 . S
N805 C804 1.314 . S
N805 C808 1.279 . S
C806 C804 1.353 . S
C806 C809 1.348 . S
C806 H838 0.929 . S
C807 C808 1.358 . S
C807 C809 1.356 . S
C807 H839 0.930 . S
C808 N805 1.279 . S
C808 C807 1.358 . S
C808 H811 0.930 . S
C809 C806 1.348 . S
C809 C807 1.356 . S
H810 C804 0.930 . S
H811 C808 0.930 . S
O812 Li752 1.956 . S
O812 Li753 1.970 1_556 S
O812 Li754 1.961 . S
O812 C756 1.325 . S
O813 Li752 1.970 1_554 S
O813 Li753 1.956 . S
O813 Li755 1.961 . S
O813 C762 1.325 . S
O814 Li752 1.961 . S
O814 Li754 1.956 . S
O814 Li755 1.970 1_556 S
O814 C784 1.325 . S
O815 Li753 1.961 . S
O815 Li754 1.970 1_554 S
O815 Li755 1.956 . S
O815 C790 1.325 . S
H816 C758 0.929 . S
H817 C759 0.930 . S
H818 C760 0.930 . S
H819 C761 0.930 . S
H820 C763 0.930 . S
H821 C765 0.929 . S
H822 C766 0.930 . S
H823 C767 0.930 . S
H824 C770 0.930 . S
H825 C773 0.929 . S
H826 C778 0.929 . S
H827 C779 0.930 . S
H828 C786 0.929 . S
H829 C787 0.930 . S
H830 C788 0.930 . S
H831 C789 0.930 . S
H832 C791 0.929 . S
H833 C792 0.930 . S
H834 C793 0.930 . S
H835 C794 0.930 . S
H836 C798 0.929 . S
H837 C800 0.930 . S
H838 C806 0.929 . S
H839 C807 0.930 . S
Li840 N857 1.990 . S
Li840 O900 1.956 . S
Li840 O901 1.970 1_545 S
Li840 O902 1.961 . S
Li841 N865 1.990 . S
Li841 O900 1.970 1_565 S
Li841 O901 1.956 . S
Li841 O903 1.961 . S
Li842 N887 1.990 . S
Li842 O900 1.961 . S
Li842 O902 1.956 . S
Li842 O903 1.970 1_545 S
Li843 N893 1.990 . S
Li843 O901 1.961 . S
Li843 O902 1.970 1_565 S
Li843 O903 1.956 . S
C844 C846 1.348 . S
C844 C847 1.356 . S
C844 O900 1.325 . S
N845 C848 1.314 . S
N845 C849 1.279 . S
C846 C844 1.348 . S
C846 C848 1.353 . S
C846 H904 0.929 . S
C847 C844 1.356 . S
C847 C849 1.358 . S
C847 H905 0.930 . S
C848 N845 1.314 . S
C848 C846 1.353 . S
C848 H906 0.930 . S
C849 N845 1.279 . S
C849 C847 1.358 . S
C849 H907 0.930 . S
C850 C853 1.348 1_565 S
C850 C854 1.356 . S
C850 O901 1.325 . S
C851 N852 1.279 . S
C851 C854 1.358 . S
C851 H908 0.930 . S
N852 C851 1.279 . S
N852 C855 1.314 1_565 S
C853 C850 1.348 1_545 S
C853 C855 1.353 . S
C853 H909 0.929 . S
C854 C850 1.356 . S
C854 C851 1.358 . S
C854 H910 0.930 . S
C855 N852 1.314 1_545 S
C855 C853 1.353 . S
C855 H911 0.930 . S
C856 N857 1.314 . S
C856 C861 1.353 . S
C856 H862 0.930 . S
N857 Li840 1.990 . S
N857 C856 1.314 . S
N857 C859 1.279 . S
C858 C859 1.358 . S
C858 C860 1.356 . S
C858 H912 0.930 . S
C859 N857 1.279 . S
C859 C858 1.358 . S
C859 H863 0.930 . S
C860 C858 1.356 . S
C860 C861 1.348 . S
C861 C856 1.353 . S
C861 C860 1.348 . S
C861 H913 0.929 . S
H862 C856 0.930 . S
H863 C859 0.930 . S
C864 N865 1.314 . S
C864 C866 1.353 . S
C864 H870 0.930 . S
N865 Li841 1.990 . S
N865 C864 1.314 . S
N865 C868 1.279 . S
C866 C864 1.353 . S
C866 C869 1.348 . S
C866 H914 0.929 . S
C867 C868 1.358 . S
C867 C869 1.356 . S
C867 H915 0.930 . S
C868 N865 1.279 . S
C868 C867 1.358 . S
C868 H871 0.930 . S
C869 C866 1.348 . S
C869 C867 1.356 . S
H870 C864 0.930 . S
H871 C868 0.930 . S
C872 C874 1.348 1_545 S
C872 C875 1.356 . S
C872 O902 1.325 . S
N873 C876 1.314 1_545 S
N873 C877 1.279 . S
C874 C872 1.348 1_565 S
C874 C876 1.353 . S
C874 H916 0.929 . S
C875 C872 1.356 . S
C875 C877 1.358 . S
C875 H917 0.930 . S
C876 N873 1.314 1_565 S
C876 C874 1.353 . S
C876 H918 0.930 . S
C877 N873 1.279 . S
C877 C875 1.358 . S
C877 H919 0.930 . S
C878 C879 1.348 . S
C878 C880 1.356 . S
C878 O903 1.325 . S
C879 C878 1.348 . S
C879 C881 1.353 . S
C879 H920 0.929 . S
C880 C878 1.356 . S
C880 C882 1.358 . S
C880 H921 0.930 . S
C881 C879 1.353 . S
C881 N883 1.314 . S
C881 H922 0.930 . S
C882 C880 1.358 . S
C882 N883 1.279 . S
C882 H923 0.930 . S
N883 C881 1.314 . S
N883 C882 1.279 . S
C884 C886 1.353 . S
C884 N887 1.314 . S
C884 H890 0.930 . S
C885 N887 1.279 . S
C885 C888 1.358 . S
C885 H891 0.930 . S
C886 C884 1.353 . S
C886 C889 1.348 . S
C886 H924 0.929 . S
N887 Li842 1.990 . S
N887 C884 1.314 . S
N887 C885 1.279 . S
C888 C885 1.358 . S
C888 C889 1.356 . S
C888 H925 0.930 . S
C889 C886 1.348 . S
C889 C888 1.356 . S
H890 C884 0.930 . S
H891 C885 0.930 . S
C892 N893 1.314 . S
C892 C894 1.353 . S
C892 H898 0.930 . S
N893 Li843 1.990 . S
N893 C892 1.314 . S
N893 C896 1.279 . S
C894 C892 1.353 . S
C894 C897 1.348 . S
C894 H926 0.929 . S
C895 C896 1.358 . S
C895 C897 1.356 . S
C895 H927 0.930 . S
C896 N893 1.279 . S
C896 C895 1.358 . S
C896 H899 0.930 . S
C897 C894 1.348 . S
C897 C895 1.356 . S
H898 C892 0.930 . S
H899 C896 0.930 . S
O900 Li840 1.956 . S
O900 Li841 1.970 1_545 S
O900 Li842 1.961 . S
O900 C844 1.325 . S
O901 Li840 1.970 1_565 S
O901 Li841 1.956 . S
O901 Li843 1.961 . S
O901 C850 1.325 . S
O902 Li840 1.961 . S
O902 Li842 1.956 . S
O902 Li843 1.970 1_545 S
O902 C872 1.325 . S
O903 Li841 1.961 . S
O903 Li842 1.970 1_565 S
O903 Li843 1.956 . S
O903 C878 1.325 . S
H904 C846 0.929 . S
H905 C847 0.930 . S
H906 C848 0.930 . S
H907 C849 0.930 . S
H908 C851 0.930 . S
H909 C853 0.929 . S
H910 C854 0.930 . S
H911 C855 0.930 . S
H912 C858 0.930 . S
H913 C861 0.929 . S
H914 C866 0.929 . S
H915 C867 0.930 . S
H916 C874 0.929 . S
H917 C875 0.930 . S
H918 C876 0.930 . S
H919 C877 0.930 . S
H920 C879 0.929 . S
H921 C880 0.930 . S
H922 C881 0.930 . S
H923 C882 0.930 . S
H924 C886 0.929 . S
H925 C888 0.930 . S
H926 C894 0.929 . S
H927 C895 0.930 . S
Li928 N945 1.990 . S
Li928 O988 1.956 . S
Li928 O989 1.970 . S
Li928 O990 1.961 . S
Li929 N953 1.990 . S
Li929 O988 1.970 . S
Li929 O989 1.956 . S
Li929 O991 1.961 . S
Li930 N975 1.990 . S
Li930 O988 1.961 . S
Li930 O990 1.956 . S
Li930 O991 1.970 . S
Li931 N981 1.990 . S
Li931 O989 1.961 . S
Li931 O990 1.970 . S
Li931 O991 1.956 . S
C932 C934 1.348 . S
C932 C935 1.356 . S
C932 O988 1.325 . S
N933 C936 1.314 . S
N933 C937 1.279 . S
C934 C932 1.348 . S
C934 C936 1.353 . S
C934 H992 0.929 . S
C935 C932 1.356 . S
C935 C937 1.358 . S
C935 H993 0.930 . S
C936 N933 1.314 . S
C936 C934 1.353 . S
C936 H994 0.930 . S
C937 N933 1.279 . S
C937 C935 1.358 . S
C937 H995 0.930 . S
C938 C941 1.348 . S
C938 C942 1.356 . S
C938 O989 1.325 . S
C939 N940 1.279 . S
C939 C942 1.358 . S
C939 H996 0.930 . S
N940 C939 1.279 . S
N940 C943 1.314 . S
C941 C938 1.348 . S
C941 C943 1.353 . S
C941 H997 0.929 . S
C942 C938 1.356 . S
C942 C939 1.358 . S
C942 H998 0.930 . S
C943 N940 1.314 . S
C943 C941 1.353 . S
C943 H999 0.930 . S
C944 N945 1.314 . S
C944 C949 1.353 . S
C944 H950 0.930 . S
N945 Li928 1.990 . S
N945 C944 1.314 . S
N945 C947 1.279 . S
C946 C947 1.358 . S
C946 C948 1.356 . S
C946 H1000 0.930 . S
C947 N945 1.279 . S
C947 C946 1.358 . S
C947 H951 0.930 . S
C948 C946 1.356 . S
C948 C949 1.348 . S
C949 C944 1.353 . S
C949 C948 1.348 . S
C949 H1001 0.929 . S
H950 C944 0.930 . S
H951 C947 0.930 . S
C952 N953 1.314 . S
C952 C954 1.353 . S
C952 H958 0.930 . S
N953 Li929 1.990 . S
N953 C952 1.314 . S
N953 C956 1.279 . S
C954 C952 1.353 . S
C954 C957 1.348 . S
C954 H1002 0.929 . S
C955 C956 1.358 . S
C955 C957 1.356 . S
C955 H1003 0.930 . S
C956 N953 1.279 . S
C956 C955 1.358 . S
C956 H959 0.930 . S
C957 C954 1.348 . S
C957 C955 1.356 . S
H958 C952 0.930 . S
H959 C956 0.930 . S
C960 C962 1.348 . S
C960 C963 1.356 . S
C960 O990 1.325 . S
N961 C964 1.314 . S
N961 C965 1.279 . S
C962 C960 1.348 . S
C962 C964 1.353 . S
C962 H1004 0.929 . S
C963 C960 1.356 . S
C963 C965 1.358 . S
C963 H1005 0.930 . S
C964 N961 1.314 . S
C964 C962 1.353 . S
C964 H1006 0.930 . S
C965 N961 1.279 . S
C965 C963 1.358 . S
C965 H1007 0.930 . S
C966 C967 1.348 . S
C966 C968 1.356 . S
C966 O991 1.325 . S
C967 C966 1.348 . S
C967 C969 1.353 . S
C967 H1008 0.929 . S
C968 C966 1.356 . S
C968 C970 1.358 . S
C968 H1009 0.930 . S
C969 C967 1.353 . S
C969 N971 1.314 . S
C969 H1010 0.930 . S
C970 C968 1.358 . S
C970 N971 1.279 . S
C970 H1011 0.930 . S
N971 C969 1.314 . S
N971 C970 1.279 . S
C972 C974 1.353 . S
C972 N975 1.314 . S
C972 H978 0.930 . S
C973 N975 1.279 . S
C973 C976 1.358 . S
C973 H979 0.930 . S
C974 C972 1.353 . S
C974 C977 1.348 . S
C974 H1012 0.929 . S
N975 Li930 1.990 . S
N975 C972 1.314 . S
N975 C973 1.279 . S
C976 C973 1.358 . S
C976 C977 1.356 . S
C976 H1013 0.930 . S
C977 C974 1.348 . S
C977 C976 1.356 . S
H978 C972 0.930 . S
H979 C973 0.930 . S
C980 N981 1.314 . S
C980 C982 1.353 . S
C980 H986 0.930 . S
N981 Li931 1.990 . S
N981 C980 1.314 . S
N981 C984 1.279 . S
C982 C980 1.353 . S
C982 C985 1.348 . S
C982 H1014 0.929 . S
C983 C984 1.358 . S
C983 C985 1.356 . S
C983 H1015 0.930 . S
C984 N981 1.279 . S
C984 C983 1.358 . S
C984 H987 0.930 . S
C985 C982 1.348 . S
C985 C983 1.356 . S
H986 C980 0.930 . S
H987 C984 0.930 . S
O988 Li928 1.956 . S
O988 Li929 1.970 . S
O988 Li930 1.961 . S
O988 C932 1.325 . S
O989 Li928 1.970 . S
O989 Li929 1.956 . S
O989 Li931 1.961 . S
O989 C938 1.325 . S
O990 Li928 1.961 . S
O990 Li930 1.956 . S
O990 Li931 1.970 . S
O990 C960 1.325 . S
O991 Li929 1.961 . S
O991 Li930 1.970 . S
O991 Li931 1.956 . S
O991 C966 1.325 . S
H992 C934 0.929 . S
H993 C935 0.930 . S
H994 C936 0.930 . S
H995 C937 0.930 . S
H996 C939 0.930 . S
H997 C941 0.929 . S
H998 C942 0.930 . S
H999 C943 0.930 . S
H1000 C946 0.930 . S
H1001 C949 0.929 . S
H1002 C954 0.929 . S
H1003 C955 0.930 . S
H1004 C962 0.929 . S
H1005 C963 0.930 . S
H1006 C964 0.930 . S
H1007 C965 0.930 . S
H1008 C967 0.929 . S
H1009 C968 0.930 . S
H1010 C969 0.930 . S
H1011 C970 0.930 . S
H1012 C974 0.929 . S
H1013 C976 0.930 . S
H1014 C982 0.929 . S
H1015 C983 0.930 . S
Li1016 N1033 1.990 . S
Li1016 O1076 1.956 . S
Li1016 O1077 1.970 . S
Li1016 O1078 1.961 . S
Li1017 N1041 1.990 . S
Li1017 O1076 1.970 . S
Li1017 O1077 1.956 . S
Li1017 O1079 1.961 . S
Li1018 N1063 1.990 . S
Li1018 O1076 1.961 . S
Li1018 O1078 1.956 . S
Li1018 O1079 1.970 . S
Li1019 N1069 1.990 . S
Li1019 O1077 1.961 . S
Li1019 O1078 1.970 . S
Li1019 O1079 1.956 . S
C1020 C1022 1.348 . S
C1020 C1023 1.356 . S
C1020 O1076 1.325 . S
N1021 C1024 1.314 . S
N1021 C1025 1.279 . S
C1022 C1020 1.348 . S
C1022 C1024 1.353 . S
C1022 H1080 0.929 . S
C1023 C1020 1.356 . S
C1023 C1025 1.358 . S
C1023 H1081 0.930 . S
C1024 N1021 1.314 . S
C1024 C1022 1.353 . S
C1024 H1082 0.930 . S
C1025 N1021 1.279 . S
C1025 C1023 1.358 . S
C1025 H1083 0.930 . S
C1026 C1029 1.348 . S
C1026 C1030 1.356 . S
C1026 O1077 1.325 . S
C1027 N1028 1.279 . S
C1027 C1030 1.358 . S
C1027 H1084 0.930 . S
N1028 C1027 1.279 . S
N1028 C1031 1.314 . S
C1029 C1026 1.348 . S
C1029 C1031 1.353 . S
C1029 H1085 0.929 . S
C1030 C1026 1.356 . S
C1030 C1027 1.358 . S
C1030 H1086 0.930 . S
C1031 N1028 1.314 . S
C1031 C1029 1.353 . S
C1031 H1087 0.930 . S
C1032 N1033 1.314 . S
C1032 C1037 1.353 . S
C1032 H1038 0.930 . S
N1033 Li1016 1.990 . S
N1033 C1032 1.314 . S
N1033 C1035 1.279 . S
C1034 C1035 1.358 . S
C1034 C1036 1.356 . S
C1034 H1088 0.930 . S
C1035 N1033 1.279 . S
C1035 C1034 1.358 . S
C1035 H1039 0.930 . S
C1036 C1034 1.356 . S
C1036 C1037 1.348 . S
C1037 C1032 1.353 . S
C1037 C1036 1.348 . S
C1037 H1089 0.929 . S
H1038 C1032 0.930 . S
H1039 C1035 0.930 . S
C1040 N1041 1.314 . S
C1040 C1042 1.353 . S
C1040 H1046 0.930 . S
N1041 Li1017 1.990 . S
N1041 C1040 1.314 . S
N1041 C1044 1.279 . S
C1042 C1040 1.353 . S
C1042 C1045 1.348 . S
C1042 H1090 0.929 . S
C1043 C1044 1.358 . S
C1043 C1045 1.356 . S
C1043 H1091 0.930 . S
C1044 N1041 1.279 . S
C1044 C1043 1.358 . S
C1044 H1047 0.930 . S
C1045 C1042 1.348 . S
C1045 C1043 1.356 . S
H1046 C1040 0.930 . S
H1047 C1044 0.930 . S
C1048 C1050 1.348 . S
C1048 C1051 1.356 . S
C1048 O1078 1.325 . S
N1049 C1052 1.314 . S
N1049 C1053 1.279 . S
C1050 C1048 1.348 . S
C1050 C1052 1.353 . S
C1050 H1092 0.929 . S
C1051 C1048 1.356 . S
C1051 C1053 1.358 . S
C1051 H1093 0.930 . S
C1052 N1049 1.314 . S
C1052 C1050 1.353 . S
C1052 H1094 0.930 . S
C1053 N1049 1.279 . S
C1053 C1051 1.358 . S
C1053 H1095 0.930 . S
C1054 C1055 1.348 . S
C1054 C1056 1.356 . S
C1054 O1079 1.325 . S
C1055 C1054 1.348 . S
C1055 C1057 1.353 . S
C1055 H1096 0.929 . S
C1056 C1054 1.356 . S
C1056 C1058 1.358 . S
C1056 H1097 0.930 . S
C1057 C1055 1.353 . S
C1057 N1059 1.314 . S
C1057 H1098 0.930 . S
C1058 C1056 1.358 . S
C1058 N1059 1.279 . S
C1058 H1099 0.930 . S
N1059 C1057 1.314 . S
N1059 C1058 1.279 . S
C1060 C1062 1.353 . S
C1060 N1063 1.314 . S
C1060 H1066 0.930 . S
C1061 N1063 1.279 . S
C1061 C1064 1.358 . S
C1061 H1067 0.930 . S
C1062 C1060 1.353 . S
C1062 C1065 1.348 . S
C1062 H1100 0.929 . S
N1063 Li1018 1.990 . S
N1063 C1060 1.314 . S
N1063 C1061 1.279 . S
C1064 C1061 1.358 . S
C1064 C1065 1.356 . S
C1064 H1101 0.930 . S
C1065 C1062 1.348 . S
C1065 C1064 1.356 . S
H1066 C1060 0.930 . S
H1067 C1061 0.930 . S
C1068 N1069 1.314 . S
C1068 C1070 1.353 . S
C1068 H1074 0.930 . S
N1069 Li1019 1.990 . S
N1069 C1068 1.314 . S
N1069 C1072 1.279 . S
C1070 C1068 1.353 . S
C1070 C1073 1.348 . S
C1070 H1102 0.929 . S
C1071 C1072 1.358 . S
C1071 C1073 1.356 . S
C1071 H1103 0.930 . S
C1072 N1069 1.279 . S
C1072 C1071 1.358 . S
C1072 H1075 0.930 . S
C1073 C1070 1.348 . S
C1073 C1071 1.356 . S
H1074 C1068 0.930 . S
H1075 C1072 0.930 . S
O1076 Li1016 1.956 . S
O1076 Li1017 1.970 . S
O1076 Li1018 1.961 . S
O1076 C1020 1.325 . S
O1077 Li1016 1.970 . S
O1077 Li1017 1.956 . S
O1077 Li1019 1.961 . S
O1077 C1026 1.325 . S
O1078 Li1016 1.961 . S
O1078 Li1018 1.956 . S
O1078 Li1019 1.970 . S
O1078 C1048 1.325 . S
O1079 Li1017 1.961 . S
O1079 Li1018 1.970 . S
O1079 Li1019 1.956 . S
O1079 C1054 1.325 . S
H1080 C1022 0.929 . S
H1081 C1023 0.930 . S
H1082 C1024 0.930 . S
H1083 C1025 0.930 . S
H1084 C1027 0.930 . S
H1085 C1029 0.929 . S
H1086 C1030 0.930 . S
H1087 C1031 0.930 . S
H1088 C1034 0.930 . S
H1089 C1037 0.929 . S
H1090 C1042 0.929 . S
H1091 C1043 0.930 . S
H1092 C1050 0.929 . S
H1093 C1051 0.930 . S
H1094 C1052 0.930 . S
H1095 C1053 0.930 . S
H1096 C1055 0.929 . S
H1097 C1056 0.930 . S
H1098 C1057 0.930 . S
H1099 C1058 0.930 . S
H1100 C1062 0.929 . S
H1101 C1064 0.930 . S
H1102 C1070 0.929 . S
H1103 C1071 0.930 . S
Li1104 N1121 1.990 . S
Li1104 O1164 1.956 . S
Li1104 O1165 1.970 . S
Li1104 O1166 1.961 . S
Li1105 N1129 1.990 . S
Li1105 O1164 1.970 . S
Li1105 O1165 1.956 . S
Li1105 O1167 1.961 . S
Li1106 N1151 1.990 . S
Li1106 O1164 1.961 . S
Li1106 O1166 1.956 . S
Li1106 O1167 1.970 . S
Li1107 N1157 1.990 . S
Li1107 O1165 1.961 . S
Li1107 O1166 1.970 . S
Li1107 O1167 1.956 . S
C1108 C1110 1.348 . S
C1108 C1111 1.356 . S
C1108 O1164 1.325 . S
N1109 C1112 1.314 . S
N1109 C1113 1.279 . S
C1110 C1108 1.348 . S
C1110 C1112 1.353 . S
C1110 H1168 0.929 . S
C1111 C1108 1.356 . S
C1111 C1113 1.358 . S
C1111 H1169 0.930 . S
C1112 N1109 1.314 . S
C1112 C1110 1.353 . S
C1112 H1170 0.930 . S
C1113 N1109 1.279 . S
C1113 C1111 1.358 . S
C1113 H1171 0.930 . S
C1114 C1117 1.348 . S
C1114 C1118 1.356 . S
C1114 O1165 1.325 . S
C1115 N1116 1.279 . S
C1115 C1118 1.358 . S
C1115 H1172 0.930 . S
N1116 C1115 1.279 . S
N1116 C1119 1.314 . S
C1117 C1114 1.348 . S
C1117 C1119 1.353 . S
C1117 H1173 0.929 . S
C1118 C1114 1.356 . S
C1118 C1115 1.358 . S
C1118 H1174 0.930 . S
C1119 N1116 1.314 . S
C1119 C1117 1.353 . S
C1119 H1175 0.930 . S
C1120 N1121 1.314 . S
C1120 C1125 1.353 . S
C1120 H1126 0.930 . S
N1121 Li1104 1.990 . S
N1121 C1120 1.314 . S
N1121 C1123 1.279 . S
C1122 C1123 1.358 . S
C1122 C1124 1.356 . S
C1122 H1176 0.930 . S
C1123 N1121 1.279 . S
C1123 C1122 1.358 . S
C1123 H1127 0.930 . S
C1124 C1122 1.356 . S
C1124 C1125 1.348 . S
C1125 C1120 1.353 . S
C1125 C1124 1.348 . S
C1125 H1177 0.929 . S
H1126 C1120 0.930 . S
H1127 C1123 0.930 . S
C1128 N1129 1.314 . S
C1128 C1130 1.353 . S
C1128 H1134 0.930 . S
N1129 Li1105 1.990 . S
N1129 C1128 1.314 . S
N1129 C1132 1.279 . S
C1130 C1128 1.353 . S
C1130 C1133 1.348 . S
C1130 H1178 0.929 . S
C1131 C1132 1.358 . S
C1131 C1133 1.356 . S
C1131 H1179 0.930 . S
C1132 N1129 1.279 . S
C1132 C1131 1.358 . S
C1132 H1135 0.930 . S
C1133 C1130 1.348 . S
C1133 C1131 1.356 . S
H1134 C1128 0.930 . S
H1135 C1132 0.930 . S
C1136 C1138 1.348 . S
C1136 C1139 1.356 . S
C1136 O1166 1.325 . S
N1137 C1140 1.314 . S
N1137 C1141 1.279 . S
C1138 C1136 1.348 . S
C1138 C1140 1.353 . S
C1138 H1180 0.929 . S
C1139 C1136 1.356 . S
C1139 C1141 1.358 . S
C1139 H1181 0.930 . S
C1140 N1137 1.314 . S
C1140 C1138 1.353 . S
C1140 H1182 0.930 . S
C1141 N1137 1.279 . S
C1141 C1139 1.358 . S
C1141 H1183 0.930 . S
C1142 C1143 1.348 . S
C1142 C1144 1.356 . S
C1142 O1167 1.325 . S
C1143 C1142 1.348 . S
C1143 C1145 1.353 . S
C1143 H1184 0.929 . S
C1144 C1142 1.356 . S
C1144 C1146 1.358 . S
C1144 H1185 0.930 . S
C1145 C1143 1.353 . S
C1145 N1147 1.314 . S
C1145 H1186 0.930 . S
C1146 C1144 1.358 . S
C1146 N1147 1.279 . S
C1146 H1187 0.930 . S
N1147 C1145 1.314 . S
N1147 C1146 1.279 . S
C1148 C1150 1.353 . S
C1148 N1151 1.314 . S
C1148 H1154 0.930 . S
C1149 N1151 1.279 . S
C1149 C1152 1.358 . S
C1149 H1155 0.930 . S
C1150 C1148 1.353 . S
C1150 C1153 1.348 . S
C1150 H1188 0.929 . S
N1151 Li1106 1.990 . S
N1151 C1148 1.314 . S
N1151 C1149 1.279 . S
C1152 C1149 1.358 . S
C1152 C1153 1.356 . S
C1152 H1189 0.930 . S
C1153 C1150 1.348 . S
C1153 C1152 1.356 . S
H1154 C1148 0.930 . S
H1155 C1149 0.930 . S
C1156 N1157 1.314 . S
C1156 C1158 1.353 . S
C1156 H1162 0.930 . S
N1157 Li1107 1.990 . S
N1157 C1156 1.314 . S
N1157 C1160 1.279 . S
C1158 C1156 1.353 . S
C1158 C1161 1.348 . S
C1158 H1190 0.929 . S
C1159 C1160 1.358 . S
C1159 C1161 1.356 . S
C1159 H1191 0.930 . S
C1160 N1157 1.279 . S
C1160 C1159 1.358 . S
C1160 H1163 0.930 . S
C1161 C1158 1.348 . S
C1161 C1159 1.356 . S
H1162 C1156 0.930 . S
H1163 C1160 0.930 . S
O1164 Li1104 1.956 . S
O1164 Li1105 1.970 . S
O1164 Li1106 1.961 . S
O1164 C1108 1.325 . S
O1165 Li1104 1.970 . S
O1165 Li1105 1.956 . S
O1165 Li1107 1.961 . S
O1165 C1114 1.325 . S
O1166 Li1104 1.961 . S
O1166 Li1106 1.956 . S
O1166 Li1107 1.970 . S
O1166 C1136 1.325 . S
O1167 Li1105 1.961 . S
O1167 Li1106 1.970 . S
O1167 Li1107 1.956 . S
O1167 C1142 1.325 . S
H1168 C1110 0.929 . S
H1169 C1111 0.930 . S
H1170 C1112 0.930 . S
H1171 C1113 0.930 . S
H1172 C1115 0.930 . S
H1173 C1117 0.929 . S
H1174 C1118 0.930 . S
H1175 C1119 0.930 . S
H1176 C1122 0.930 . S
H1177 C1125 0.929 . S
H1178 C1130 0.929 . S
H1179 C1131 0.930 . S
H1180 C1138 0.929 . S
H1181 C1139 0.930 . S
H1182 C1140 0.930 . S
H1183 C1141 0.930 . S
H1184 C1143 0.929 . S
H1185 C1144 0.930 . S
H1186 C1145 0.930 . S
H1187 C1146 0.930 . S
H1188 C1150 0.929 . S
H1189 C1152 0.930 . S
H1190 C1158 0.929 . S
H1191 C1159 0.930 . S
Li1192 N1209 1.990 . S
Li1192 O1252 1.956 . S
Li1192 O1253 1.970 1_565 S
Li1192 O1254 1.961 . S
Li1193 N1217 1.990 . S
Li1193 O1252 1.970 1_545 S
Li1193 O1253 1.956 . S
Li1193 O1255 1.961 . S
Li1194 N1239 1.990 . S
Li1194 O1252 1.961 . S
Li1194 O1254 1.956 . S
Li1194 O1255 1.970 1_565 S
Li1195 N1245 1.990 . S
Li1195 O1253 1.961 . S
Li1195 O1254 1.970 1_545 S
Li1195 O1255 1.956 . S
C1196 C1198 1.348 . S
C1196 C1199 1.356 . S
C1196 O1252 1.325 . S
N1197 C1200 1.314 . S
N1197 C1201 1.279 . S
C1198 C1196 1.348 . S
C1198 C1200 1.353 . S
C1198 H1256 0.929 . S
C1199 C1196 1.356 . S
C1199 C1201 1.358 . S
C1199 H1257 0.930 . S
C1200 N1197 1.314 . S
C1200 C1198 1.353 . S
C1200 H1258 0.930 . S
C1201 N1197 1.279 . S
C1201 C1199 1.358 . S
C1201 H1259 0.930 . S
C1202 C1205 1.348 1_545 S
C1202 C1206 1.356 . S
C1202 O1253 1.325 . S
C1203 N1204 1.279 . S
C1203 C1206 1.358 . S
C1203 H1260 0.930 . S
N1204 C1203 1.279 . S
N1204 C1207 1.314 1_545 S
C1205 C1202 1.348 1_565 S
C1205 C1207 1.353 . S
C1205 H1261 0.929 . S
C1206 C1202 1.356 . S
C1206 C1203 1.358 . S
C1206 H1262 0.930 . S
C1207 N1204 1.314 1_565 S
C1207 C1205 1.353 . S
C1207 H1263 0.930 . S
C1208 N1209 1.314 . S
C1208 C1213 1.353 . S
C1208 H1214 0.930 . S
N1209 Li1192 1.990 . S
N1209 C1208 1.314 . S
N1209 C1211 1.279 . S
C1210 C1211 1.358 . S
C1210 C1212 1.356 . S
C1210 H1264 0.930 . S
C1211 N1209 1.279 . S
C1211 C1210 1.358 . S
C1211 H1215 0.930 . S
C1212 C1210 1.356 . S
C1212 C1213 1.348 . S
C1213 C1208 1.353 . S
C1213 C1212 1.348 . S
C1213 H1265 0.929 . S
H1214 C1208 0.930 . S
H1215 C1211 0.930 . S
C1216 N1217 1.314 . S
C1216 C1218 1.353 . S
C1216 H1222 0.930 . S
N1217 Li1193 1.990 . S
N1217 C1216 1.314 . S
N1217 C1220 1.279 . S
C1218 C1216 1.353 . S
C1218 C1221 1.348 . S
C1218 H1266 0.929 . S
C1219 C1220 1.358 . S
C1219 C1221 1.356 . S
C1219 H1267 0.930 . S
C1220 N1217 1.279 . S
C1220 C1219 1.358 . S
C1220 H1223 0.930 . S
C1221 C1218 1.348 . S
C1221 C1219 1.356 . S
H1222 C1216 0.930 . S
H1223 C1220 0.930 . S
C1224 C1226 1.348 1_565 S
C1224 C1227 1.356 . S
C1224 O1254 1.325 . S
N1225 C1228 1.314 1_565 S
N1225 C1229 1.279 . S
C1226 C1224 1.348 1_545 S
C1226 C1228 1.353 . S
C1226 H1268 0.929 . S
C1227 C1224 1.356 . S
C1227 C1229 1.358 . S
C1227 H1269 0.930 . S
C1228 N1225 1.314 1_545 S
C1228 C1226 1.353 . S
C1228 H1270 0.930 . S
C1229 N1225 1.279 . S
C1229 C1227 1.358 . S
C1229 H1271 0.930 . S
C1230 C1231 1.348 . S
C1230 C1232 1.356 . S
C1230 O1255 1.325 . S
C1231 C1230 1.348 . S
C1231 C1233 1.353 . S
C1231 H1272 0.929 . S
C1232 C1230 1.356 . S
C1232 C1234 1.358 . S
C1232 H1273 0.930 . S
C1233 C1231 1.353 . S
C1233 N1235 1.314 . S
C1233 H1274 0.930 . S
C1234 C1232 1.358 . S
C1234 N1235 1.279 . S
C1234 H1275 0.930 . S
N1235 C1233 1.314 . S
N1235 C1234 1.279 . S
C1236 C1238 1.353 . S
C1236 N1239 1.314 . S
C1236 H1242 0.930 . S
C1237 N1239 1.279 . S
C1237 C1240 1.358 . S
C1237 H1243 0.930 . S
C1238 C1236 1.353 . S
C1238 C1241 1.348 . S
C1238 H1276 0.929 . S
N1239 Li1194 1.990 . S
N1239 C1236 1.314 . S
N1239 C1237 1.279 . S
C1240 C1237 1.358 . S
C1240 C1241 1.356 . S
C1240 H1277 0.930 . S
C1241 C1238 1.348 . S
C1241 C1240 1.356 . S
H1242 C1236 0.930 . S
H1243 C1237 0.930 . S
C1244 N1245 1.314 . S
C1244 C1246 1.353 . S
C1244 H1250 0.930 . S
N1245 Li1195 1.990 . S
N1245 C1244 1.314 . S
N1245 C1248 1.279 . S
C1246 C1244 1.353 . S
C1246 C1249 1.348 . S
C1246 H1278 0.929 . S
C1247 C1248 1.358 . S
C1247 C1249 1.356 . S
C1247 H1279 0.930 . S
C1248 N1245 1.279 . S
C1248 C1247 1.358 . S
C1248 H1251 0.930 . S
C1249 C1246 1.348 . S
C1249 C1247 1.356 . S
H1250 C1244 0.930 . S
H1251 C1248 0.930 . S
O1252 Li1192 1.956 . S
O1252 Li1193 1.970 1_565 S
O1252 Li1194 1.961 . S
O1252 C1196 1.325 . S
O1253 Li1192 1.970 1_545 S
O1253 Li1193 1.956 . S
O1253 Li1195 1.961 . S
O1253 C1202 1.325 . S
O1254 Li1192 1.961 . S
O1254 Li1194 1.956 . S
O1254 Li1195 1.970 1_565 S
O1254 C1224 1.325 . S
O1255 Li1193 1.961 . S
O1255 Li1194 1.970 1_545 S
O1255 Li1195 1.956 . S
O1255 C1230 1.325 . S
H1256 C1198 0.929 . S
H1257 C1199 0.930 . S
H1258 C1200 0.930 . S
H1259 C1201 0.930 . S
H1260 C1203 0.930 . S
H1261 C1205 0.929 . S
H1262 C1206 0.930 . S
H1263 C1207 0.930 . S
H1264 C1210 0.930 . S
H1265 C1213 0.929 . S
H1266 C1218 0.929 . S
H1267 C1219 0.930 . S
H1268 C1226 0.929 . S
H1269 C1227 0.930 . S
H1270 C1228 0.930 . S
H1271 C1229 0.930 . S
H1272 C1231 0.929 . S
H1273 C1232 0.930 . S
H1274 C1233 0.930 . S
H1275 C1234 0.930 . S
H1276 C1238 0.929 . S
H1277 C1240 0.930 . S
H1278 C1246 0.929 . S
H1279 C1247 0.930 . S
Li1280 N1297 1.990 . S
Li1280 O1340 1.956 . S
Li1280 O1341 1.970 1_455 S
Li1280 O1342 1.961 . S
Li1281 N1305 1.990 . S
Li1281 O1340 1.970 1_655 S
Li1281 O1341 1.956 . S
Li1281 O1343 1.961 . S
Li1282 N1327 1.990 . S
Li1282 O1340 1.961 . S
Li1282 O1342 1.956 . S
Li1282 O1343 1.970 1_455 S
Li1283 N1333 1.990 . S
Li1283 O1341 1.961 . S
Li1283 O1342 1.970 1_655 S
Li1283 O1343 1.956 . S
C1284 C1286 1.348 . S
C1284 C1287 1.356 . S
C1284 O1340 1.325 . S
N1285 C1288 1.314 . S
N1285 C1289 1.279 . S
C1286 C1284 1.348 . S
C1286 C1288 1.353 . S
C1286 H1344 0.929 . S
C1287 C1284 1.356 . S
C1287 C1289 1.358 . S
C1287 H1345 0.930 . S
C1288 N1285 1.314 . S
C1288 C1286 1.353 . S
C1288 H1346 0.930 . S
C1289 N1285 1.279 . S
C1289 C1287 1.358 . S
C1289 H1347 0.930 . S
C1290 C1293 1.348 1_655 S
C1290 C1294 1.356 . S
C1290 O1341 1.325 . S
C1291 N1292 1.279 . S
C1291 C1294 1.358 . S
C1291 H1348 0.930 . S
N1292 C1291 1.279 . S
N1292 C1295 1.314 1_655 S
C1293 C1290 1.348 1_455 S
C1293 C1295 1.353 . S
C1293 H1349 0.929 . S
C1294 C1290 1.356 . S
C1294 C1291 1.358 . S
C1294 H1350 0.930 . S
C1295 N1292 1.314 1_455 S
C1295 C1293 1.353 . S
C1295 H1351 0.930 . S
C1296 N1297 1.314 . S
C1296 C1301 1.353 . S
C1296 H1302 0.930 . S
N1297 Li1280 1.990 . S
N1297 C1296 1.314 . S
N1297 C1299 1.279 . S
C1298 C1299 1.358 . S
C1298 C1300 1.356 . S
C1298 H1352 0.930 . S
C1299 N1297 1.279 . S
C1299 C1298 1.358 . S
C1299 H1303 0.930 . S
C1300 C1298 1.356 . S
C1300 C1301 1.348 . S
C1301 C1296 1.353 . S
C1301 C1300 1.348 . S
C1301 H1353 0.929 . S
H1302 C1296 0.930 . S
H1303 C1299 0.930 . S
C1304 N1305 1.314 . S
C1304 C1306 1.353 . S
C1304 H1310 0.930 . S
N1305 Li1281 1.990 . S
N1305 C1304 1.314 . S
N1305 C1308 1.279 . S
C1306 C1304 1.353 . S
C1306 C1309 1.348 . S
C1306 H1354 0.929 . S
C1307 C1308 1.358 . S
C1307 C1309 1.356 . S
C1307 H1355 0.930 . S
C1308 N1305 1.279 . S
C1308 C1307 1.358 . S
C1308 H1311 0.930 . S
C1309 C1306 1.348 . S
C1309 C1307 1.356 . S
H1310 C1304 0.930 . S
H1311 C1308 0.930 . S
C1312 C1314 1.348 1_455 S
C1312 C1315 1.356 . S
C1312 O1342 1.325 . S
N1313 C1316 1.314 1_455 S
N1313 C1317 1.279 . S
C1314 C1312 1.348 1_655 S
C1314 C1316 1.353 . S
C1314 H1356 0.929 . S
C1315 C1312 1.356 . S
C1315 C1317 1.358 . S
C1315 H1357 0.930 . S
C1316 N1313 1.314 1_655 S
C1316 C1314 1.353 . S
C1316 H1358 0.930 . S
C1317 N1313 1.279 . S
C1317 C1315 1.358 . S
C1317 H1359 0.930 . S
C1318 C1319 1.348 . S
C1318 C1320 1.356 . S
C1318 O1343 1.325 . S
C1319 C1318 1.348 . S
C1319 C1321 1.353 . S
C1319 H1360 0.929 . S
C1320 C1318 1.356 . S
C1320 C1322 1.358 . S
C1320 H1361 0.930 . S
C1321 C1319 1.353 . S
C1321 N1323 1.314 . S
C1321 H1362 0.930 . S
C1322 C1320 1.358 . S
C1322 N1323 1.279 . S
C1322 H1363 0.930 . S
N1323 C1321 1.314 . S
N1323 C1322 1.279 . S
C1324 C1326 1.353 . S
C1324 N1327 1.314 . S
C1324 H1330 0.930 . S
C1325 N1327 1.279 . S
C1325 C1328 1.358 . S
C1325 H1331 0.930 . S
C1326 C1324 1.353 . S
C1326 C1329 1.348 . S
C1326 H1364 0.929 . S
N1327 Li1282 1.990 . S
N1327 C1324 1.314 . S
N1327 C1325 1.279 . S
C1328 C1325 1.358 . S
C1328 C1329 1.356 . S
C1328 H1365 0.930 . S
C1329 C1326 1.348 . S
C1329 C1328 1.356 . S
H1330 C1324 0.930 . S
H1331 C1325 0.930 . S
C1332 N1333 1.314 . S
C1332 C1334 1.353 . S
C1332 H1338 0.930 . S
N1333 Li1283 1.990 . S
N1333 C1332 1.314 . S
N1333 C1336 1.279 . S
C1334 C1332 1.353 . S
C1334 C1337 1.348 . S
C1334 H1366 0.929 . S
C1335 C1336 1.358 . S
C1335 C1337 1.356 . S
C1335 H1367 0.930 . S
C1336 N1333 1.279 . S
C1336 C1335 1.358 . S
C1336 H1339 0.930 . S
C1337 C1334 1.348 . S
C1337 C1335 1.356 . S
H1338 C1332 0.930 . S
H1339 C1336 0.930 . S
O1340 Li1280 1.956 . S
O1340 Li1281 1.970 1_455 S
O1340 Li1282 1.961 . S
O1340 C1284 1.325 . S
O1341 Li1280 1.970 1_655 S
O1341 Li1281 1.956 . S
O1341 Li1283 1.961 . S
O1341 C1290 1.325 . S
O1342 Li1280 1.961 . S
O1342 Li1282 1.956 . S
O1342 Li1283 1.970 1_455 S
O1342 C1312 1.325 . S
O1343 Li1281 1.961 . S
O1343 Li1282 1.970 1_655 S
O1343 Li1283 1.956 . S
O1343 C1318 1.325 . S
H1344 C1286 0.929 . S
H1345 C1287 0.930 . S
H1346 C1288 0.930 . S
H1347 C1289 0.930 . S
H1348 C1291 0.930 . S
H1349 C1293 0.929 . S
H1350 C1294 0.930 . S
H1351 C1295 0.930 . S
H1352 C1298 0.930 . S
H1353 C1301 0.929 . S
H1354 C1306 0.929 . S
H1355 C1307 0.930 . S
H1356 C1314 0.929 . S
H1357 C1315 0.930 . S
H1358 C1316 0.930 . S
H1359 C1317 0.930 . S
H1360 C1319 0.929 . S
H1361 C1320 0.930 . S
H1362 C1321 0.930 . S
H1363 C1322 0.930 . S
H1364 C1326 0.929 . S
H1365 C1328 0.930 . S
H1366 C1334 0.929 . S
H1367 C1335 0.930 . S
Li1368 N1385 1.990 . S
Li1368 O1428 1.956 . S
Li1368 O1429 1.970 . S
Li1368 O1430 1.961 . S
Li1369 N1393 1.990 . S
Li1369 O1428 1.970 . S
Li1369 O1429 1.956 . S
Li1369 O1431 1.961 . S
Li1370 N1415 1.990 . S
Li1370 O1428 1.961 . S
Li1370 O1430 1.956 . S
Li1370 O1431 1.970 . S
Li1371 N1421 1.990 . S
Li1371 O1429 1.961 . S
Li1371 O1430 1.970 . S
Li1371 O1431 1.956 . S
C1372 C1374 1.348 . S
C1372 C1375 1.356 . S
C1372 O1428 1.325 . S
N1373 C1376 1.314 . S
N1373 C1377 1.279 . S
C1374 C1372 1.348 . S
C1374 C1376 1.353 . S
C1374 H1432 0.929 . S
C1375 C1372 1.356 . S
C1375 C1377 1.358 . S
C1375 H1433 0.930 . S
C1376 N1373 1.314 . S
C1376 C1374 1.353 . S
C1376 H1434 0.930 . S
C1377 N1373 1.279 . S
C1377 C1375 1.358 . S
C1377 H1435 0.930 . S
C1378 C1381 1.348 . S
C1378 C1382 1.356 . S
C1378 O1429 1.325 . S
C1379 N1380 1.279 . S
C1379 C1382 1.358 . S
C1379 H1436 0.930 . S
N1380 C1379 1.279 . S
N1380 C1383 1.314 . S
C1381 C1378 1.348 . S
C1381 C1383 1.353 . S
C1381 H1437 0.929 . S
C1382 C1378 1.356 . S
C1382 C1379 1.358 . S
C1382 H1438 0.930 . S
C1383 N1380 1.314 . S
C1383 C1381 1.353 . S
C1383 H1439 0.930 . S
C1384 N1385 1.314 . S
C1384 C1389 1.353 . S
C1384 H1390 0.930 . S
N1385 Li1368 1.990 . S
N1385 C1384 1.314 . S
N1385 C1387 1.279 . S
C1386 C1387 1.358 . S
C1386 C1388 1.356 . S
C1386 H1440 0.930 . S
C1387 N1385 1.279 . S
C1387 C1386 1.358 . S
C1387 H1391 0.930 . S
C1388 C1386 1.356 . S
C1388 C1389 1.348 . S
C1389 C1384 1.353 . S
C1389 C1388 1.348 . S
C1389 H1441 0.929 . S
H1390 C1384 0.930 . S
H1391 C1387 0.930 . S
C1392 N1393 1.314 . S
C1392 C1394 1.353 . S
C1392 H1398 0.930 . S
N1393 Li1369 1.990 . S
N1393 C1392 1.314 . S
N1393 C1396 1.279 . S
C1394 C1392 1.353 . S
C1394 C1397 1.348 . S
C1394 H1442 0.929 . S
C1395 C1396 1.358 . S
C1395 C1397 1.356 . S
C1395 H1443 0.930 . S
C1396 N1393 1.279 . S
C1396 C1395 1.358 . S
C1396 H1399 0.930 . S
C1397 C1394 1.348 . S
C1397 C1395 1.356 . S
H1398 C1392 0.930 . S
H1399 C1396 0.930 . S
C1400 C1402 1.348 . S
C1400 C1403 1.356 . S
C1400 O1430 1.325 . S
N1401 C1404 1.314 . S
N1401 C1405 1.279 . S
C1402 C1400 1.348 . S
C1402 C1404 1.353 . S
C1402 H1444 0.929 . S
C1403 C1400 1.356 . S
C1403 C1405 1.358 . S
C1403 H1445 0.930 . S
C1404 N1401 1.314 . S
C1404 C1402 1.353 . S
C1404 H1446 0.930 . S
C1405 N1401 1.279 . S
C1405 C1403 1.358 . S
C1405 H1447 0.930 . S
C1406 C1407 1.348 . S
C1406 C1408 1.356 . S
C1406 O1431 1.325 . S
C1407 C1406 1.348 . S
C1407 C1409 1.353 . S
C1407 H1448 0.929 . S
C1408 C1406 1.356 . S
C1408 C1410 1.358 . S
C1408 H1449 0.930 . S
C1409 C1407 1.353 . S
C1409 N1411 1.314 . S
C1409 H1450 0.930 . S
C1410 C1408 1.358 . S
C1410 N1411 1.279 . S
C1410 H1451 0.930 . S
N1411 C1409 1.314 . S
N1411 C1410 1.279 . S
C1412 C1414 1.353 . S
C1412 N1415 1.314 . S
C1412 H1418 0.930 . S
C1413 N1415 1.279 . S
C1413 C1416 1.358 . S
C1413 H1419 0.930 . S
C1414 C1412 1.353 . S
C1414 C1417 1.348 . S
C1414 H1452 0.929 . S
N1415 Li1370 1.990 . S
N1415 C1412 1.314 . S
N1415 C1413 1.279 . S
C1416 C1413 1.358 . S
C1416 C1417 1.356 . S
C1416 H1453 0.930 . S
C1417 C1414 1.348 . S
C1417 C1416 1.356 . S
H1418 C1412 0.930 . S
H1419 C1413 0.930 . S
C1420 N1421 1.314 . S
C1420 C1422 1.353 . S
C1420 H1426 0.930 . S
N1421 Li1371 1.990 . S
N1421 C1420 1.314 . S
N1421 C1424 1.279 . S
C1422 C1420 1.353 . S
C1422 C1425 1.348 . S
C1422 H1454 0.929 . S
C1423 C1424 1.358 . S
C1423 C1425 1.356 . S
C1423 H1455 0.930 . S
C1424 N1421 1.279 . S
C1424 C1423 1.358 . S
C1424 H1427 0.930 . S
C1425 C1422 1.348 . S
C1425 C1423 1.356 . S
H1426 C1420 0.930 . S
H1427 C1424 0.930 . S
O1428 Li1368 1.956 . S
O1428 Li1369 1.970 . S
O1428 Li1370 1.961 . S
O1428 C1372 1.325 . S
O1429 Li1368 1.970 . S
O1429 Li1369 1.956 . S
O1429 Li1371 1.961 . S
O1429 C1378 1.325 . S
O1430 Li1368 1.961 . S
O1430 Li1370 1.956 . S
O1430 Li1371 1.970 . S
O1430 C1400 1.325 . S
O1431 Li1369 1.961 . S
O1431 Li1370 1.970 . S
O1431 Li1371 1.956 . S
O1431 C1406 1.325 . S
H1432 C1374 0.929 . S
H1433 C1375 0.930 . S
H1434 C1376 0.930 . S
H1435 C1377 0.930 . S
H1436 C1379 0.930 . S
H1437 C1381 0.929 . S
H1438 C1382 0.930 . S
H1439 C1383 0.930 . S
H1440 C1386 0.930 . S
H1441 C1389 0.929 . S
H1442 C1394 0.929 . S
H1443 C1395 0.930 . S
H1444 C1402 0.929 . S
H1445 C1403 0.930 . S
H1446 C1404 0.930 . S
H1447 C1405 0.930 . S
H1448 C1407 0.929 . S
H1449 C1408 0.930 . S
H1450 C1409 0.930 . S
H1451 C1410 0.930 . S
H1452 C1414 0.929 . S
H1453 C1416 0.930 . S
H1454 C1422 0.929 . S
H1455 C1423 0.930 . S
Li1456 N1473 1.990 . S
Li1456 O1516 1.956 . S
Li1456 O1517 1.970 1_455 S
Li1456 O1518 1.961 . S
Li1457 N1481 1.990 . S
Li1457 O1516 1.970 1_655 S
Li1457 O1517 1.956 . S
Li1457 O1519 1.961 . S
Li1458 N1503 1.990 . S
Li1458 O1516 1.961 . S
Li1458 O1518 1.956 . S
Li1458 O1519 1.970 1_455 S
Li1459 N1509 1.990 . S
Li1459 O1517 1.961 . S
Li1459 O1518 1.970 1_655 S
Li1459 O1519 1.956 . S
C1460 C1462 1.348 1_455 S
C1460 C1463 1.356 . S
C1460 O1516 1.325 . S
N1461 C1464 1.314 1_455 S
N1461 C1465 1.279 . S
C1462 C1460 1.348 1_655 S
C1462 C1464 1.353 . S
C1462 H1520 0.929 . S
C1463 C1460 1.356 . S
C1463 C1465 1.358 . S
C1463 H1521 0.930 . S
C1464 N1461 1.314 1_655 S
C1464 C1462 1.353 . S
C1464 H1522 0.930 . S
C1465 N1461 1.279 . S
C1465 C1463 1.358 . S
C1465 H1523 0.930 . S
C1466 C1469 1.348 . S
C1466 C1470 1.356 . S
C1466 O1517 1.325 . S
C1467 N1468 1.279 . S
C1467 C1470 1.358 . S
C1467 H1524 0.930 . S
N1468 C1467 1.279 . S
N1468 C1471 1.314 . S
C1469 C1466 1.348 . S
C1469 C1471 1.353 . S
C1469 H1525 0.929 . S
C1470 C1466 1.356 . S
C1470 C1467 1.358 . S
C1470 H1526 0.930 . S
C1471 N1468 1.314 . S
C1471 C1469 1.353 . S
C1471 H1527 0.930 . S
C1472 N1473 1.314 . S
C1472 C1477 1.353 . S
C1472 H1478 0.930 . S
N1473 Li1456 1.990 . S
N1473 C1472 1.314 . S
N1473 C1475 1.279 . S
C1474 C1475 1.358 . S
C1474 C1476 1.356 . S
C1474 H1528 0.930 . S
C1475 N1473 1.279 . S
C1475 C1474 1.358 . S
C1475 H1479 0.930 . S
C1476 C1474 1.356 . S
C1476 C1477 1.348 . S
C1477 C1472 1.353 . S
C1477 C1476 1.348 . S
C1477 H1529 0.929 . S
H1478 C1472 0.930 . S
H1479 C1475 0.930 . S
C1480 N1481 1.314 . S
C1480 C1482 1.353 . S
C1480 H1486 0.930 . S
N1481 Li1457 1.990 . S
N1481 C1480 1.314 . S
N1481 C1484 1.279 . S
C1482 C1480 1.353 . S
C1482 C1485 1.348 . S
C1482 H1530 0.929 . S
C1483 C1484 1.358 . S
C1483 C1485 1.356 . S
C1483 H1531 0.930 . S
C1484 N1481 1.279 . S
C1484 C1483 1.358 . S
C1484 H1487 0.930 . S
C1485 C1482 1.348 . S
C1485 C1483 1.356 . S
H1486 C1480 0.930 . S
H1487 C1484 0.930 . S
C1488 C1490 1.348 . S
C1488 C1491 1.356 . S
C1488 O1518 1.325 . S
N1489 C1492 1.314 . S
N1489 C1493 1.279 . S
C1490 C1488 1.348 . S
C1490 C1492 1.353 . S
C1490 H1532 0.929 . S
C1491 C1488 1.356 . S
C1491 C1493 1.358 . S
C1491 H1533 0.930 . S
C1492 N1489 1.314 . S
C1492 C1490 1.353 . S
C1492 H1534 0.930 . S
C1493 N1489 1.279 . S
C1493 C1491 1.358 . S
C1493 H1535 0.930 . S
C1494 C1495 1.348 1_655 S
C1494 C1496 1.356 . S
C1494 O1519 1.325 . S
C1495 C1494 1.348 1_455 S
C1495 C1497 1.353 . S
C1495 H1536 0.929 . S
C1496 C1494 1.356 . S
C1496 C1498 1.358 . S
C1496 H1537 0.930 . S
C1497 C1495 1.353 . S
C1497 N1499 1.314 1_455 S
C1497 H1538 0.930 . S
C1498 C1496 1.358 . S
C1498 N1499 1.279 . S
C1498 H1539 0.930 . S
N1499 C1497 1.314 1_655 S
N1499 C1498 1.279 . S
C1500 C1502 1.353 . S
C1500 N1503 1.314 . S
C1500 H1506 0.930 . S
C1501 N1503 1.279 . S
C1501 C1504 1.358 . S
C1501 H1507 0.930 . S
C1502 C1500 1.353 . S
C1502 C1505 1.348 . S
C1502 H1540 0.929 . S
N1503 Li1458 1.990 . S
N1503 C1500 1.314 . S
N1503 C1501 1.279 . S
C1504 C1501 1.358 . S
C1504 C1505 1.356 . S
C1504 H1541 0.930 . S
C1505 C1502 1.348 . S
C1505 C1504 1.356 . S
H1506 C1500 0.930 . S
H1507 C1501 0.930 . S
C1508 N1509 1.314 . S
C1508 C1510 1.353 . S
C1508 H1514 0.930 . S
N1509 Li1459 1.990 . S
N1509 C1508 1.314 . S
N1509 C1512 1.279 . S
C1510 C1508 1.353 . S
C1510 C1513 1.348 . S
C1510 H1542 0.929 . S
C1511 C1512 1.358 . S
C1511 C1513 1.356 . S
C1511 H1543 0.930 . S
C1512 N1509 1.279 . S
C1512 C1511 1.358 . S
C1512 H1515 0.930 . S
C1513 C1510 1.348 . S
C1513 C1511 1.356 . S
H1514 C1508 0.930 . S
H1515 C1512 0.930 . S
O1516 Li1456 1.956 . S
O1516 Li1457 1.970 1_455 S
O1516 Li1458 1.961 . S
O1516 C1460 1.325 . S
O1517 Li1456 1.970 1_655 S
O1517 Li1457 1.956 . S
O1517 Li1459 1.961 . S
O1517 C1466 1.325 . S
O1518 Li1456 1.961 . S
O1518 Li1458 1.956 . S
O1518 Li1459 1.970 1_455 S
O1518 C1488 1.325 . S
O1519 Li1457 1.961 . S
O1519 Li1458 1.970 1_655 S
O1519 Li1459 1.956 . S
O1519 C1494 1.325 . S
H1520 C1462 0.929 . S
H1521 C1463 0.930 . S
H1522 C1464 0.930 . S
H1523 C1465 0.930 . S
H1524 C1467 0.930 . S
H1525 C1469 0.929 . S
H1526 C1470 0.930 . S
H1527 C1471 0.930 . S
H1528 C1474 0.930 . S
H1529 C1477 0.929 . S
H1530 C1482 0.929 . S
H1531 C1483 0.930 . S
H1532 C1490 0.929 . S
H1533 C1491 0.930 . S
H1534 C1492 0.930 . S
H1535 C1493 0.930 . S
H1536 C1495 0.929 . S
H1537 C1496 0.930 . S
H1538 C1497 0.930 . S
H1539 C1498 0.930 . S
H1540 C1502 0.929 . S
H1541 C1504 0.930 . S
H1542 C1510 0.929 . S
H1543 C1511 0.930 . S
Li1544 N1561 1.990 . S
Li1544 O1604 1.956 . S
Li1544 O1605 1.970 . S
Li1544 O1606 1.961 . S
Li1545 N1569 1.990 . S
Li1545 O1604 1.970 . S
Li1545 O1605 1.956 . S
Li1545 O1607 1.961 . S
Li1546 N1591 1.990 . S
Li1546 O1604 1.961 . S
Li1546 O1606 1.956 . S
Li1546 O1607 1.970 . S
Li1547 N1597 1.990 . S
Li1547 O1605 1.961 . S
Li1547 O1606 1.970 . S
Li1547 O1607 1.956 . S
C1548 C1550 1.348 . S
C1548 C1551 1.356 . S
C1548 O1604 1.325 . S
N1549 C1552 1.314 . S
N1549 C1553 1.279 . S
C1550 C1548 1.348 . S
C1550 C1552 1.353 . S
C1550 H1608 0.929 . S
C1551 C1548 1.356 . S
C1551 C1553 1.358 . S
C1551 H1609 0.930 . S
C1552 N1549 1.314 . S
C1552 C1550 1.353 . S
C1552 H1610 0.930 . S
C1553 N1549 1.279 . S
C1553 C1551 1.358 . S
C1553 H1611 0.930 . S
C1554 C1557 1.348 . S
C1554 C1558 1.356 . S
C1554 O1605 1.325 . S
C1555 N1556 1.279 . S
C1555 C1558 1.358 . S
C1555 H1612 0.930 . S
N1556 C1555 1.279 . S
N1556 C1559 1.314 . S
C1557 C1554 1.348 . S
C1557 C1559 1.353 . S
C1557 H1613 0.929 . S
C1558 C1554 1.356 . S
C1558 C1555 1.358 . S
C1558 H1614 0.930 . S
C1559 N1556 1.314 . S
C1559 C1557 1.353 . S
C1559 H1615 0.930 . S
C1560 N1561 1.314 . S
C1560 C1565 1.353 . S
C1560 H1566 0.930 . S
N1561 Li1544 1.990 . S
N1561 C1560 1.314 . S
N1561 C1563 1.279 . S
C1562 C1563 1.358 . S
C1562 C1564 1.356 . S
C1562 H1616 0.930 . S
C1563 N1561 1.279 . S
C1563 C1562 1.358 . S
C1563 H1567 0.930 . S
C1564 C1562 1.356 . S
C1564 C1565 1.348 . S
C1565 C1560 1.353 . S
C1565 C1564 1.348 . S
C1565 H1617 0.929 . S
H1566 C1560 0.930 . S
H1567 C1563 0.930 . S
C1568 N1569 1.314 . S
C1568 C1570 1.353 . S
C1568 H1574 0.930 . S
N1569 Li1545 1.990 . S
N1569 C1568 1.314 . S
N1569 C1572 1.279 . S
C1570 C1568 1.353 . S
C1570 C1573 1.348 . S
C1570 H1618 0.929 . S
C1571 C1572 1.358 . S
C1571 C1573 1.356 . S
C1571 H1619 0.930 . S
C1572 N1569 1.279 . S
C1572 C1571 1.358 . S
C1572 H1575 0.930 . S
C1573 C1570 1.348 . S
C1573 C1571 1.356 . S
H1574 C1568 0.930 . S
H1575 C1572 0.930 . S
C1576 C1578 1.348 . S
C1576 C1579 1.356 . S
C1576 O1606 1.325 . S
N1577 C1580 1.314 . S
N1577 C1581 1.279 . S
C1578 C1576 1.348 . S
C1578 C1580 1.353 . S
C1578 H1620 0.929 . S
C1579 C1576 1.356 . S
C1579 C1581 1.358 . S
C1579 H1621 0.930 . S
C1580 N1577 1.314 . S
C1580 C1578 1.353 . S
C1580 H1622 0.930 . S
C1581 N1577 1.279 . S
C1581 C1579 1.358 . S
C1581 H1623 0.930 . S
C1582 C1583 1.348 . S
C1582 C1584 1.356 . S
C1582 O1607 1.325 . S
C1583 C1582 1.348 . S
C1583 C1585 1.353 . S
C1583 H1624 0.929 . S
C1584 C1582 1.356 . S
C1584 C1586 1.358 . S
C1584 H1625 0.930 . S
C1585 C1583 1.353 . S
C1585 N1587 1.314 . S
C1585 H1626 0.930 . S
C1586 C1584 1.358 . S
C1586 N1587 1.279 . S
C1586 H1627 0.930 . S
N1587 C1585 1.314 . S
N1587 C1586 1.279 . S
C1588 C1590 1.353 . S
C1588 N1591 1.314 . S
C1588 H1594 0.930 . S
C1589 N1591 1.279 . S
C1589 C1592 1.358 . S
C1589 H1595 0.930 . S
C1590 C1588 1.353 . S
C1590 C1593 1.348 . S
C1590 H1628 0.929 . S
N1591 Li1546 1.990 . S
N1591 C1588 1.314 . S
N1591 C1589 1.279 . S
C1592 C1589 1.358 . S
C1592 C1593 1.356 . S
C1592 H1629 0.930 . S
C1593 C1590 1.348 . S
C1593 C1592 1.356 . S
H1594 C1588 0.930 . S
H1595 C1589 0.930 . S
C1596 N1597 1.314 . S
C1596 C1598 1.353 . S
C1596 H1602 0.930 . S
N1597 Li1547 1.990 . S
N1597 C1596 1.314 . S
N1597 C1600 1.279 . S
C1598 C1596 1.353 . S
C1598 C1601 1.348 . S
C1598 H1630 0.929 . S
C1599 C1600 1.358 . S
C1599 C1601 1.356 . S
C1599 H1631 0.930 . S
C1600 N1597 1.279 . S
C1600 C1599 1.358 . S
C1600 H1603 0.930 . S
C1601 C1598 1.348 . S
C1601 C1599 1.356 . S
H1602 C1596 0.930 . S
H1603 C1600 0.930 . S
O1604 Li1544 1.956 . S
O1604 Li1545 1.970 . S
O1604 Li1546 1.961 . S
O1604 C1548 1.325 . S
O1605 Li1544 1.970 . S
O1605 Li1545 1.956 . S
O1605 Li1547 1.961 . S
O1605 C1554 1.325 . S
O1606 Li1544 1.961 . S
O1606 Li1546 1.956 . S
O1606 Li1547 1.970 . S
O1606 C1576 1.325 . S
O1607 Li1545 1.961 . S
O1607 Li1546 1.970 . S
O1607 Li1547 1.956 . S
O1607 C1582 1.325 . S
H1608 C1550 0.929 . S
H1609 C1551 0.930 . S
H1610 C1552 0.930 . S
H1611 C1553 0.930 . S
H1612 C1555 0.930 . S
H1613 C1557 0.929 . S
H1614 C1558 0.930 . S
H1615 C1559 0.930 . S
H1616 C1562 0.930 . S
H1617 C1565 0.929 . S
H1618 C1570 0.929 . S
H1619 C1571 0.930 . S
H1620 C1578 0.929 . S
H1621 C1579 0.930 . S
H1622 C1580 0.930 . S
H1623 C1581 0.930 . S
H1624 C1583 0.929 . S
H1625 C1584 0.930 . S
H1626 C1585 0.930 . S
H1627 C1586 0.930 . S
H1628 C1590 0.929 . S
H1629 C1592 0.930 . S
H1630 C1598 0.929 . S
H1631 C1599 0.930 . S
H1632 C1638 0.930 . S
H1633 C1641 0.930 . S
H1634 C1642 0.930 . S
H1635 C1643 0.930 . S
H1636 C1646 0.930 . S
H1637 C1647 0.930 . S
C1638 H1632 0.930 . S
C1638 C1639 1.355 . S
C1638 C1640 1.415 . S
C1639 C1638 1.355 . S
C1639 C1641 1.419 . S
C1640 C1638 1.415 . S
C1640 C1645 1.425 . S
C1640 C1647 1.409 . S
C1641 H1633 0.930 . S
C1641 C1639 1.419 . S
C1641 C1642 1.362 . S
C1642 H1634 0.930 . S
C1642 C1641 1.362 . S
C1642 C1645 1.409 . S
C1643 H1635 0.930 . S
C1643 C1644 1.355 . S
C1643 C1645 1.415 . S
C1644 C1643 1.355 . S
C1644 C1646 1.419 . S
C1645 C1640 1.425 . S
C1645 C1642 1.409 . S
C1645 C1643 1.415 . S
C1646 H1636 0.930 . S
C1646 C1644 1.419 . S
C1646 C1647 1.362 . S
C1647 H1637 0.930 . S
C1647 C1640 1.409 . S
C1647 C1646 1.362 . S
H1648 C1654 0.930 . S
H1649 C1657 0.930 . S
H1650 C1658 0.930 . S
H1651 C1659 0.930 . S
H1652 C1662 0.930 . S
H1653 C1663 0.930 . S
C1654 H1648 0.930 . S
C1654 C1655 1.355 . S
C1654 C1656 1.415 . S
C1655 C1654 1.355 . S
C1655 C1657 1.419 . S
C1656 C1654 1.415 . S
C1656 C1661 1.425 . S
C1656 C1663 1.409 . S
C1657 H1649 0.930 . S
C1657 C1655 1.419 . S
C1657 C1658 1.362 . S
C1658 H1650 0.930 . S
C1658 C1657 1.362 . S
C1658 C1661 1.409 . S
C1659 H1651 0.930 . S
C1659 C1660 1.355 . S
C1659 C1661 1.415 . S
C1660 C1659 1.355 . S
C1660 C1662 1.419 . S
C1661 C1656 1.425 . S
C1661 C1658 1.409 . S
C1661 C1659 1.415 . S
C1662 H1652 0.930 . S
C1662 C1660 1.419 . S
C1662 C1663 1.362 . S
C1663 H1653 0.930 . S
C1663 C1656 1.409 . S
C1663 C1662 1.362 . S
H1664 C1670 0.930 . S
H1665 C1673 0.930 . S
H1666 C1674 0.930 . S
H1667 C1675 0.930 . S
H1668 C1678 0.930 . S
H1669 C1679 0.930 . S
C1670 H1664 0.930 . S
C1670 C1671 1.355 . S
C1670 C1672 1.415 . S
C1671 C1670 1.355 . S
C1671 C1673 1.419 . S
C1672 C1670 1.415 . S
C1672 C1677 1.425 . S
C1672 C1679 1.409 . S
C1673 H1665 0.930 . S
C1673 C1671 1.419 . S
C1673 C1674 1.362 . S
C1674 H1666 0.930 . S
C1674 C1673 1.362 . S
C1674 C1677 1.409 . S
C1675 H1667 0.930 . S
C1675 C1676 1.355 . S
C1675 C1677 1.415 . S
C1676 C1675 1.355 . S
C1676 C1678 1.419 . S
C1677 C1672 1.425 . S
C1677 C1674 1.409 . S
C1677 C1675 1.415 . S
C1678 H1668 0.930 . S
C1678 C1676 1.419 . S
C1678 C1679 1.362 . S
C1679 H1669 0.930 . S
C1679 C1672 1.409 . S
C1679 C1678 1.362 . S
H1680 C1686 0.930 . S
H1681 C1689 0.930 . S
H1682 C1690 0.930 . S
H1683 C1691 0.930 . S
H1684 C1694 0.930 . S
H1685 C1695 0.930 . S
C1686 H1680 0.930 . S
C1686 C1687 1.355 . S
C1686 C1688 1.415 . S
C1687 C1686 1.355 . S
C1687 C1689 1.419 . S
C1688 C1686 1.415 . S
C1688 C1693 1.425 . S
C1688 C1695 1.409 . S
C1689 H1681 0.930 . S
C1689 C1687 1.419 . S
C1689 C1690 1.362 . S
C1690 H1682 0.930 . S
C1690 C1689 1.362 . S
C1690 C1693 1.409 . S
C1691 H1683 0.930 . S
C1691 C1692 1.355 . S
C1691 C1693 1.415 . S
C1692 C1691 1.355 . S
C1692 C1694 1.419 . S
C1693 C1688 1.425 . S
C1693 C1690 1.409 . S
C1693 C1691 1.415 . S
C1694 H1684 0.930 . S
C1694 C1692 1.419 . S
C1694 C1695 1.362 . S
C1695 H1685 0.930 . S
C1695 C1688 1.409 . S
C1695 C1694 1.362 . S
H1696 C1702 0.930 . S
H1697 C1705 0.930 . S
H1698 C1706 0.930 . S
H1699 C1707 0.930 . S
H1700 C1710 0.930 . S
H1701 C1711 0.930 . S
C1702 H1696 0.930 . S
C1702 C1703 1.355 . S
C1702 C1704 1.415 . S
C1703 C1702 1.355 . S
C1703 C1705 1.419 . S
C1704 C1702 1.415 . S
C1704 C1709 1.425 . S
C1704 C1711 1.409 . S
C1705 H1697 0.930 . S
C1705 C1703 1.419 . S
C1705 C1706 1.362 . S
C1706 H1698 0.930 . S
C1706 C1705 1.362 . S
C1706 C1709 1.409 . S
C1707 H1699 0.930 . S
C1707 C1708 1.355 . S
C1707 C1709 1.415 . S
C1708 C1707 1.355 . S
C1708 C1710 1.419 . S
C1709 C1704 1.425 . S
C1709 C1706 1.409 . S
C1709 C1707 1.415 . S
C1710 H1700 0.930 . S
C1710 C1708 1.419 . S
C1710 C1711 1.362 . S
C1711 H1701 0.930 . S
C1711 C1704 1.409 . S
C1711 C1710 1.362 . S
H1712 C1718 0.930 . S
H1713 C1721 0.930 . S
H1714 C1722 0.930 . S
H1715 C1723 0.930 . S
H1716 C1726 0.930 . S
H1717 C1727 0.930 . S
C1718 H1712 0.930 . S
C1718 C1719 1.355 . S
C1718 C1720 1.415 . S
C1719 C1718 1.355 . S
C1719 C1721 1.419 . S
C1720 C1718 1.415 . S
C1720 C1725 1.425 . S
C1720 C1727 1.409 . S
C1721 H1713 0.930 . S
C1721 C1719 1.419 . S
C1721 C1722 1.362 . S
C1722 H1714 0.930 . S
C1722 C1721 1.362 . S
C1722 C1725 1.409 . S
C1723 H1715 0.930 . S
C1723 C1724 1.355 . S
C1723 C1725 1.415 . S
C1724 C1723 1.355 . S
C1724 C1726 1.419 . S
C1725 C1720 1.425 . S
C1725 C1722 1.409 . S
C1725 C1723 1.415 . S
C1726 H1716 0.930 . S
C1726 C1724 1.419 . S
C1726 C1727 1.362 . S
C1727 H1717 0.930 . S
C1727 C1720 1.409 . S
C1727 C1726 1.362 . S
H1728 C1734 0.930 . S
H1729 C1737 0.930 . S
H1730 C1738 0.930 . S
H1731 C1739 0.930 . S
H1732 C1742 0.930 . S
H1733 C1743 0.930 . S
C1734 H1728 0.930 . S
C1734 C1735 1.355 . S
C1734 C1736 1.415 . S
C1735 C1734 1.355 . S
C1735 C1737 1.419 . S
C1736 C1734 1.415 . S
C1736 C1741 1.425 . S
C1736 C1743 1.409 . S
C1737 H1729 0.930 . S
C1737 C1735 1.419 . S
C1737 C1738 1.362 . S
C1738 H1730 0.930 . S
C1738 C1737 1.362 . S
C1738 C1741 1.409 . S
C1739 H1731 0.930 . S
C1739 C1740 1.355 . S
C1739 C1741 1.415 . S
C1740 C1739 1.355 . S
C1740 C1742 1.419 . S
C1741 C1736 1.425 . S
C1741 C1738 1.409 . S
C1741 C1739 1.415 . S
C1742 H1732 0.930 . S
C1742 C1740 1.419 . S
C1742 C1743 1.362 . S
C1743 H1733 0.930 . S
C1743 C1736 1.409 . S
C1743 C1742 1.362 . S
H1744 C1750 0.930 . S
H1745 C1753 0.930 . S
H1746 C1754 0.930 . S
H1747 C1755 0.930 . S
H1748 C1758 0.930 . S
H1749 C1759 0.930 . S
C1750 H1744 0.930 . S
C1750 C1751 1.355 . S
C1750 C1752 1.415 . S
C1751 C1750 1.355 . S
C1751 C1753 1.419 . S
C1752 C1750 1.415 . S
C1752 C1757 1.425 . S
C1752 C1759 1.409 . S
C1753 H1745 0.930 . S
C1753 C1751 1.419 . S
C1753 C1754 1.362 . S
C1754 H1746 0.930 . S
C1754 C1753 1.362 . S
C1754 C1757 1.409 . S
C1755 H1747 0.930 . S
C1755 C1756 1.355 . S
C1755 C1757 1.415 . S
C1756 C1755 1.355 . S
C1756 C1758 1.419 . S
C1757 C1752 1.425 . S
C1757 C1754 1.409 . S
C1757 C1755 1.415 . S
C1758 H1748 0.930 . S
C1758 C1756 1.419 . S
C1758 C1759 1.362 . S
C1759 H1749 0.930 . S
C1759 C1752 1.409 . S
C1759 C1758 1.362 . S
H1760 C1766 0.930 . S
H1761 C1769 0.930 . S
H1762 C1770 0.930 . S
H1763 C1771 0.930 . S
H1764 C1774 0.930 . S
H1765 C1775 0.930 . S
C1766 H1760 0.930 . S
C1766 C1767 1.355 . S
C1766 C1768 1.415 . S
C1767 C1766 1.355 . S
C1767 C1769 1.419 . S
C1768 C1766 1.415 . S
C1768 C1773 1.425 . S
C1768 C1775 1.409 . S
C1769 H1761 0.930 . S
C1769 C1767 1.419 . S
C1769 C1770 1.362 . S
C1770 H1762 0.930 . S
C1770 C1769 1.362 . S
C1770 C1773 1.409 . S
C1771 H1763 0.930 . S
C1771 C1772 1.355 . S
C1771 C1773 1.415 . S
C1772 C1771 1.355 . S
C1772 C1774 1.419 . S
C1773 C1768 1.425 . S
C1773 C1770 1.409 . S
C1773 C1771 1.415 . S
C1774 H1764 0.930 . S
C1774 C1772 1.419 . S
C1774 C1775 1.362 . S
C1775 H1765 0.930 . S
C1775 C1768 1.409 . S
C1775 C1774 1.362 . S
H1776 C1782 0.930 . S
H1777 C1785 0.930 . S
H1778 C1786 0.930 . S
H1779 C1787 0.930 . S
H1780 C1790 0.930 . S
H1781 C1791 0.930 . S
C1782 H1776 0.930 . S
C1782 C1783 1.355 . S
C1782 C1784 1.415 . S
C1783 C1782 1.355 . S
C1783 C1785 1.419 . S
C1784 C1782 1.415 . S
C1784 C1789 1.425 . S
C1784 C1791 1.409 . S
C1785 H1777 0.930 . S
C1785 C1783 1.419 . S
C1785 C1786 1.362 . S
C1786 H1778 0.930 . S
C1786 C1785 1.362 . S
C1786 C1789 1.409 . S
C1787 H1779 0.930 . S
C1787 C1788 1.355 . S
C1787 C1789 1.415 . S
C1788 C1787 1.355 . S
C1788 C1790 1.419 . S
C1789 C1784 1.425 . S
C1789 C1786 1.409 . S
C1789 C1787 1.415 . S
C1790 H1780 0.930 . S
C1790 C1788 1.419 . S
C1790 C1791 1.362 . S
C1791 H1781 0.930 . S
C1791 C1784 1.409 . S
C1791 C1790 1.362 . S
H1792 C1798 0.930 . S
H1793 C1801 0.930 . S
H1794 C1802 0.930 . S
H1795 C1803 0.930 . S
H1796 C1806 0.930 . S
H1797 C1807 0.930 . S
C1798 H1792 0.930 . S
C1798 C1799 1.355 . S
C1798 C1800 1.415 . S
C1799 C1798 1.355 . S
C1799 C1801 1.419 . S
C1800 C1798 1.415 . S
C1800 C1805 1.425 . S
C1800 C1807 1.409 . S
C1801 H1793 0.930 . S
C1801 C1799 1.419 . S
C1801 C1802 1.362 . S
C1802 H1794 0.930 . S
C1802 C1801 1.362 . S
C1802 C1805 1.409 . S
C1803 H1795 0.930 . S
C1803 C1804 1.355 . S
C1803 C1805 1.415 . S
C1804 C1803 1.355 . S
C1804 C1806 1.419 . S
C1805 C1800 1.425 . S
C1805 C1802 1.409 . S
C1805 C1803 1.415 . S
C1806 H1796 0.930 . S
C1806 C1804 1.419 . S
C1806 C1807 1.362 . S
C1807 H1797 0.930 . S
C1807 C1800 1.409 . S
C1807 C1806 1.362 . S
H1808 C1814 0.930 . S
H1809 C1817 0.930 . S
H1810 C1818 0.930 . S
H1811 C1819 0.930 . S
H1812 C1822 0.930 . S
H1813 C1823 0.930 . S
C1814 H1808 0.930 . S
C1814 C1815 1.355 . S
C1814 C1816 1.415 . S
C1815 C1814 1.355 . S
C1815 C1817 1.419 . S
C1816 C1814 1.415 . S
C1816 C1821 1.425 . S
C1816 C1823 1.409 . S
C1817 H1809 0.930 . S
C1817 C1815 1.419 . S
C1817 C1818 1.362 . S
C1818 H1810 0.930 . S
C1818 C1817 1.362 . S
C1818 C1821 1.409 . S
C1819 H1811 0.930 . S
C1819 C1820 1.355 . S
C1819 C1821 1.415 . S
C1820 C1819 1.355 . S
C1820 C1822 1.419 . S
C1821 C1816 1.425 . S
C1821 C1818 1.409 . S
C1821 C1819 1.415 . S
C1822 H1812 0.930 . S
C1822 C1820 1.419 . S
C1822 C1823 1.362 . S
C1823 H1813 0.930 . S
C1823 C1816 1.409 . S
C1823 C1822 1.362 . S
H1824 C1830 0.930 . S
H1825 C1833 0.930 . S
H1826 C1834 0.930 . S
H1827 C1835 0.930 . S
H1828 C1838 0.930 . S
H1829 C1839 0.930 . S
C1830 H1824 0.930 . S
C1830 C1831 1.355 . S
C1830 C1832 1.415 . S
C1831 C1830 1.355 . S
C1831 C1833 1.419 . S
C1832 C1830 1.415 . S
C1832 C1837 1.425 . S
C1832 C1839 1.409 . S
C1833 H1825 0.930 . S
C1833 C1831 1.419 . S
C1833 C1834 1.362 . S
C1834 H1826 0.930 . S
C1834 C1833 1.362 . S
C1834 C1837 1.409 . S
C1835 H1827 0.930 . S
C1835 C1836 1.355 . S
C1835 C1837 1.415 . S
C1836 C1835 1.355 . S
C1836 C1838 1.419 . S
C1837 C1832 1.425 . S
C1837 C1834 1.409 . S
C1837 C1835 1.415 . S
C1838 H1828 0.930 . S
C1838 C1836 1.419 . S
C1838 C1839 1.362 . S
C1839 H1829 0.930 . S
C1839 C1832 1.409 . S
C1839 C1838 1.362 . S
H1840 C1846 0.930 1_655 S
H1841 C1849 0.930 . S
H1842 C1850 0.930 . S
H1843 C1851 0.930 . S
H1844 C1854 0.930 . S
H1845 C1855 0.930 . S
C1846 H1840 0.930 1_455 S
C1846 C1847 1.355 . S
C1846 C1848 1.415 . S
C1847 C1846 1.355 . S
C1847 C1849 1.419 . S
C1848 C1846 1.415 . S
C1848 C1853 1.425 . S
C1848 C1855 1.409 1_455 S
C1849 H1841 0.930 . S
C1849 C1847 1.419 . S
C1849 C1850 1.362 . S
C1850 H1842 0.930 . S
C1850 C1849 1.362 . S
C1850 C1853 1.409 . S
C1851 H1843 0.930 . S
C1851 C1852 1.355 . S
C1851 C1853 1.415 . S
C1852 C1851 1.355 . S
C1852 C1854 1.419 1_455 S
C1853 C1848 1.425 . S
C1853 C1850 1.409 . S
C1853 C1851 1.415 . S
C1854 H1844 0.930 . S
C1854 C1852 1.419 1_655 S
C1854 C1855 1.362 . S
C1855 H1845 0.930 . S
C1855 C1848 1.409 1_655 S
C1855 C1854 1.362 . S
H1856 C1862 0.930 . S
H1857 C1865 0.930 . S
H1858 C1866 0.930 . S
H1859 C1867 0.930 . S
H1860 C1870 0.930 . S
H1861 C1871 0.930 . S
C1862 H1856 0.930 . S
C1862 C1863 1.355 . S
C1862 C1864 1.415 . S
C1863 C1862 1.355 . S
C1863 C1865 1.419 . S
C1864 C1862 1.415 . S
C1864 C1869 1.425 . S
C1864 C1871 1.409 . S
C1865 H1857 0.930 . S
C1865 C1863 1.419 . S
C1865 C1866 1.362 . S
C1866 H1858 0.930 . S
C1866 C1865 1.362 . S
C1866 C1869 1.409 . S
C1867 H1859 0.930 . S
C1867 C1868 1.355 . S
C1867 C1869 1.415 . S
C1868 C1867 1.355 . S
C1868 C1870 1.419 . S
C1869 C1864 1.425 . S
C1869 C1866 1.409 . S
C1869 C1867 1.415 . S
C1870 H1860 0.930 . S
C1870 C1868 1.419 . S
C1870 C1871 1.362 . S
C1871 H1861 0.930 . S
C1871 C1864 1.409 . S
C1871 C1870 1.362 . S
H1872 C1878 0.930 . S
H1873 C1881 0.930 . S
H1874 C1882 0.930 . S
H1875 C1883 0.930 . S
H1876 C1886 0.930 . S
H1877 C1887 0.930 . S
C1878 H1872 0.930 . S
C1878 C1879 1.355 . S
C1878 C1880 1.415 . S
C1879 C1878 1.355 . S
C1879 C1881 1.419 . S
C1880 C1878 1.415 . S
C1880 C1885 1.425 . S
C1880 C1887 1.409 . S
C1881 H1873 0.930 . S
C1881 C1879 1.419 . S
C1881 C1882 1.362 . S
C1882 H1874 0.930 . S
C1882 C1881 1.362 . S
C1882 C1885 1.409 . S
C1883 H1875 0.930 . S
C1883 C1884 1.355 . S
C1883 C1885 1.415 . S
C1884 C1883 1.355 . S
C1884 C1886 1.419 . S
C1885 C1880 1.425 . S
C1885 C1882 1.409 . S
C1885 C1883 1.415 . S
C1886 H1876 0.930 . S
C1886 C1884 1.419 . S
C1886 C1887 1.362 . S
C1887 H1877 0.930 . S
C1887 C1880 1.409 . S
C1887 C1886 1.362 . S
H1888 C1894 0.930 . S
H1889 C1897 0.930 . S
H1890 C1898 0.930 . S
H1891 C1899 0.930 . S
H1892 C1902 0.930 . S
H1893 C1903 0.930 . S
C1894 H1888 0.930 . S
C1894 C1895 1.355 . S
C1894 C1896 1.415 . S
C1895 C1894 1.355 . S
C1895 C1897 1.419 . S
C1896 C1894 1.415 . S
C1896 C1901 1.425 . S
C1896 C1903 1.409 . S
C1897 H1889 0.930 . S
C1897 C1895 1.419 . S
C1897 C1898 1.362 . S
C1898 H1890 0.930 . S
C1898 C1897 1.362 . S
C1898 C1901 1.409 . S
C1899 H1891 0.930 . S
C1899 C1900 1.355 . S
C1899 C1901 1.415 . S
C1900 C1899 1.355 . S
C1900 C1902 1.419 . S
C1901 C1896 1.425 . S
C1901 C1898 1.409 . S
C1901 C1899 1.415 . S
C1902 H1892 0.930 . S
C1902 C1900 1.419 . S
C1902 C1903 1.362 . S
C1903 H1893 0.930 . S
C1903 C1896 1.409 . S
C1903 C1902 1.362 . S
H1904 C1910 0.930 . S
H1905 C1913 0.930 . S
H1906 C1914 0.930 . S
H1907 C1915 0.930 . S
H1908 C1918 0.930 . S
H1909 C1919 0.930 . S
C1910 H1904 0.930 . S
C1910 C1911 1.355 . S
C1910 C1912 1.415 . S
C1911 C1910 1.355 . S
C1911 C1913 1.419 . S
C1912 C1910 1.415 . S
C1912 C1917 1.425 . S
C1912 C1919 1.409 . S
C1913 H1905 0.930 . S
C1913 C1911 1.419 . S
C1913 C1914 1.362 . S
C1914 H1906 0.930 . S
C1914 C1913 1.362 . S
C1914 C1917 1.409 . S
C1915 H1907 0.930 . S
C1915 C1916 1.355 . S
C1915 C1917 1.415 . S
C1916 C1915 1.355 . S
C1916 C1918 1.419 . S
C1917 C1912 1.425 . S
C1917 C1914 1.409 . S
C1917 C1915 1.415 . S
C1918 H1908 0.930 . S
C1918 C1916 1.419 . S
C1918 C1919 1.362 . S
C1919 H1909 0.930 . S
C1919 C1912 1.409 . S
C1919 C1918 1.362 . S
H1920 C1926 0.930 . S
H1921 C1929 0.930 . S
H1922 C1930 0.930 . S
H1923 C1931 0.930 . S
H1924 C1934 0.930 . S
H1925 C1935 0.930 . S
C1926 H1920 0.930 . S
C1926 C1927 1.355 . S
C1926 C1928 1.415 . S
C1927 C1926 1.355 . S
C1927 C1929 1.419 . S
C1928 C1926 1.415 . S
C1928 C1933 1.425 . S
C1928 C1935 1.409 . S
C1929 H1921 0.930 . S
C1929 C1927 1.419 . S
C1929 C1930 1.362 . S
C1930 H1922 0.930 . S
C1930 C1929 1.362 . S
C1930 C1933 1.409 . S
C1931 H1923 0.930 . S
C1931 C1932 1.355 . S
C1931 C1933 1.415 . S
C1932 C1931 1.355 . S
C1932 C1934 1.419 . S
C1933 C1928 1.425 . S
C1933 C1930 1.409 . S
C1933 C1931 1.415 . S
C1934 H1924 0.930 . S
C1934 C1932 1.419 . S
C1934 C1935 1.362 . S
C1935 H1925 0.930 . S
C1935 C1928 1.409 . S
C1935 C1934 1.362 . S
H1936 C1942 0.930 . S
H1937 C1945 0.930 . S
H1938 C1946 0.930 . S
H1939 C1947 0.930 . S
H1940 C1950 0.930 . S
H1941 C1951 0.930 . S
C1942 H1936 0.930 . S
C1942 C1943 1.355 . S
C1942 C1944 1.415 . S
C1943 C1942 1.355 . S
C1943 C1945 1.419 . S
C1944 C1942 1.415 . S
C1944 C1949 1.425 . S
C1944 C1951 1.409 . S
C1945 H1937 0.930 . S
C1945 C1943 1.419 . S
C1945 C1946 1.362 . S
C1946 H1938 0.930 . S
C1946 C1945 1.362 . S
C1946 C1949 1.409 . S
C1947 H1939 0.930 . S
C1947 C1948 1.355 . S
C1947 C1949 1.415 . S
C1948 C1947 1.355 . S
C1948 C1950 1.419 . S
C1949 C1944 1.425 . S
C1949 C1946 1.409 . S
C1949 C1947 1.415 . S
C1950 H1940 0.930 . S
C1950 C1948 1.419 . S
C1950 C1951 1.362 . S
C1951 H1941 0.930 . S
C1951 C1944 1.409 . S
C1951 C1950 1.362 . S
H1952 C1958 0.930 . S
H1953 C1961 0.930 . S
H1954 C1962 0.930 . S
H1955 C1963 0.930 . S
H1956 C1966 0.930 . S
H1957 C1967 0.930 . S
C1958 H1952 0.930 . S
C1958 C1959 1.355 . S
C1958 C1960 1.415 . S
C1959 C1958 1.355 . S
C1959 C1961 1.419 . S
C1960 C1958 1.415 . S
C1960 C1965 1.425 . S
C1960 C1967 1.409 . S
C1961 H1953 0.930 . S
C1961 C1959 1.419 . S
C1961 C1962 1.362 . S
C1962 H1954 0.930 . S
C1962 C1961 1.362 . S
C1962 C1965 1.409 . S
C1963 H1955 0.930 . S
C1963 C1964 1.355 . S
C1963 C1965 1.415 . S
C1964 C1963 1.355 . S
C1964 C1966 1.419 . S
C1965 C1960 1.425 . S
C1965 C1962 1.409 . S
C1965 C1963 1.415 . S
C1966 H1956 0.930 . S
C1966 C1964 1.419 . S
C1966 C1967 1.362 . S
C1967 H1957 0.930 . S
C1967 C1960 1.409 . S
C1967 C1966 1.362 . S
H1968 C1974 0.930 . S
H1969 C1977 0.930 . S
H1970 C1978 0.930 . S
H1971 C1979 0.930 . S
H1972 C1982 0.930 . S
H1973 C1983 0.930 . S
C1974 H1968 0.930 . S
C1974 C1975 1.355 . S
C1974 C1976 1.415 . S
C1975 C1974 1.355 . S
C1975 C1977 1.419 . S
C1976 C1974 1.415 . S
C1976 C1981 1.425 . S
C1976 C1983 1.409 . S
C1977 H1969 0.930 . S
C1977 C1975 1.419 . S
C1977 C1978 1.362 . S
C1978 H1970 0.930 . S
C1978 C1977 1.362 . S
C1978 C1981 1.409 . S
C1979 H1971 0.930 . S
C1979 C1980 1.355 . S
C1979 C1981 1.415 . S
C1980 C1979 1.355 . S
C1980 C1982 1.419 . S
C1981 C1976 1.425 . S
C1981 C1978 1.409 . S
C1981 C1979 1.415 . S
C1982 H1972 0.930 . S
C1982 C1980 1.419 . S
C1982 C1983 1.362 . S
C1983 H1973 0.930 . S
C1983 C1976 1.409 . S
C1983 C1982 1.362 . S
H1984 C1990 0.930 . S
H1985 C1993 0.930 . S
H1986 C1994 0.930 . S
H1987 C1995 0.930 . S
H1988 C1998 0.930 . S
H1989 C1999 0.930 . S
C1990 H1984 0.930 . S
C1990 C1991 1.355 . S
C1990 C1992 1.415 . S
C1991 C1990 1.355 . S
C1991 C1993 1.419 . S
C1992 C1990 1.415 . S
C1992 C1997 1.425 . S
C1992 C1999 1.409 . S
C1993 H1985 0.930 . S
C1993 C1991 1.419 . S
C1993 C1994 1.362 . S
C1994 H1986 0.930 . S
C1994 C1993 1.362 . S
C1994 C1997 1.409 . S
C1995 H1987 0.930 . S
C1995 C1996 1.355 . S
C1995 C1997 1.415 . S
C1996 C1995 1.355 . S
C1996 C1998 1.419 . S
C1997 C1992 1.425 . S
C1997 C1994 1.409 . S
C1997 C1995 1.415 . S
C1998 H1988 0.930 . S
C1998 C1996 1.419 . S
C1998 C1999 1.362 . S
C1999 H1989 0.930 . S
C1999 C1992 1.409 . S
C1999 C1998 1.362 . S
H2000 C2006 0.930 . S
H2001 C2009 0.930 . S
H2002 C2010 0.930 . S
H2003 C2011 0.930 . S
H2004 C2014 0.930 . S
H2005 C2015 0.930 . S
C2006 H2000 0.930 . S
C2006 C2007 1.355 . S
C2006 C2008 1.415 . S
C2007 C2006 1.355 . S
C2007 C2009 1.419 . S
C2008 C2006 1.415 . S
C2008 C2013 1.425 . S
C2008 C2015 1.409 . S
C2009 H2001 0.930 . S
C2009 C2007 1.419 . S
C2009 C2010 1.362 . S
C2010 H2002 0.930 . S
C2010 C2009 1.362 . S
C2010 C2013 1.409 . S
C2011 H2003 0.930 . S
C2011 C2012 1.355 . S
C2011 C2013 1.415 . S
C2012 C2011 1.355 . S
C2012 C2014 1.419 . S
C2013 C2008 1.425 . S
C2013 C2010 1.409 . S
C2013 C2011 1.415 . S
C2014 H2004 0.930 . S
C2014 C2012 1.419 . S
C2014 C2015 1.362 . S
C2015 H2005 0.930 . S
C2015 C2008 1.409 . S
C2015 C2014 1.362 . S
H2016 C2022 0.930 . S
H2017 C2025 0.930 . S
H2018 C2026 0.930 . S
H2019 C2027 0.930 . S
H2020 C2030 0.930 . S
H2021 C2031 0.930 . S
C2022 H2016 0.930 . S
C2022 C2023 1.355 . S
C2022 C2024 1.415 . S
C2023 C2022 1.355 . S
C2023 C2025 1.419 . S
C2024 C2022 1.415 . S
C2024 C2029 1.425 . S
C2024 C2031 1.409 . S
C2025 H2017 0.930 . S
C2025 C2023 1.419 . S
C2025 C2026 1.362 . S
C2026 H2018 0.930 . S
C2026 C2025 1.362 . S
C2026 C2029 1.409 . S
C2027 H2019 0.930 . S
C2027 C2028 1.355 . S
C2027 C2029 1.415 . S
C2028 C2027 1.355 . S
C2028 C2030 1.419 . S
C2029 C2024 1.425 . S
C2029 C2026 1.409 . S
C2029 C2027 1.415 . S
C2030 H2020 0.930 . S
C2030 C2028 1.419 . S
C2030 C2031 1.362 . S
C2031 H2021 0.930 . S
C2031 C2024 1.409 . S
C2031 C2030 1.362 . S
H2032 C2038 0.930 . S
H2033 C2041 0.930 . S
H2034 C2042 0.930 . S
H2035 C2043 0.930 . S
H2036 C2046 0.930 . S
H2037 C2047 0.930 . S
C2038 H2032 0.930 . S
C2038 C2039 1.355 . S
C2038 C2040 1.415 . S
C2039 C2038 1.355 . S
C2039 C2041 1.419 . S
C2040 C2038 1.415 . S
C2040 C2045 1.425 . S
C2040 C2047 1.409 . S
C2041 H2033 0.930 . S
C2041 C2039 1.419 . S
C2041 C2042 1.362 . S
C2042 H2034 0.930 . S
C2042 C2041 1.362 . S
C2042 C2045 1.409 . S
C2043 H2035 0.930 . S
C2043 C2044 1.355 . S
C2043 C2045 1.415 . S
C2044 C2043 1.355 . S
C2044 C2046 1.419 . S
C2045 C2040 1.425 . S
C2045 C2042 1.409 . S
C2045 C2043 1.415 . S
C2046 H2036 0.930 . S
C2046 C2044 1.419 . S
C2046 C2047 1.362 . S
C2047 H2037 0.930 . S
C2047 C2040 1.409 . S
C2047 C2046 1.362 . S
H2048 C2054 0.930 . S
H2049 C2057 0.930 . S
H2050 C2058 0.930 . S
H2051 C2059 0.930 . S
H2052 C2062 0.930 . S
H2053 C2063 0.930 . S
C2054 H2048 0.930 . S
C2054 C2055 1.355 . S
C2054 C2056 1.415 . S
C2055 C2054 1.355 . S
C2055 C2057 1.419 . S
C2056 C2054 1.415 . S
C2056 C2061 1.425 . S
C2056 C2063 1.409 . S
C2057 H2049 0.930 . S
C2057 C2055 1.419 . S
C2057 C2058 1.362 . S
C2058 H2050 0.930 . S
C2058 C2057 1.362 . S
C2058 C2061 1.409 . S
C2059 H2051 0.930 . S
C2059 C2060 1.355 . S
C2059 C2061 1.415 . S
C2060 C2059 1.355 . S
C2060 C2062 1.419 . S
C2061 C2056 1.425 . S
C2061 C2058 1.409 . S
C2061 C2059 1.415 . S
C2062 H2052 0.930 . S
C2062 C2060 1.419 . S
C2062 C2063 1.362 . S
C2063 H2053 0.930 . S
C2063 C2056 1.409 . S
C2063 C2062 1.362 . S
H2064 C2070 0.930 . S
H2065 C2073 0.930 . S
H2066 C2074 0.930 . S
H2067 C2075 0.930 . S
H2068 C2078 0.930 . S
H2069 C2079 0.930 . S
C2070 H2064 0.930 . S
C2070 C2071 1.355 . S
C2070 C2072 1.415 . S
C2071 C2070 1.355 . S
C2071 C2073 1.419 . S
C2072 C2070 1.415 . S
C2072 C2077 1.425 . S
C2072 C2079 1.409 . S
C2073 H2065 0.930 . S
C2073 C2071 1.419 . S
C2073 C2074 1.362 . S
C2074 H2066 0.930 . S
C2074 C2073 1.362 . S
C2074 C2077 1.409 . S
C2075 H2067 0.930 . S
C2075 C2076 1.355 . S
C2075 C2077 1.415 . S
C2076 C2075 1.355 . S
C2076 C2078 1.419 . S
C2077 C2072 1.425 . S
C2077 C2074 1.409 . S
C2077 C2075 1.415 . S
C2078 H2068 0.930 . S
C2078 C2076 1.419 . S
C2078 C2079 1.362 . S
C2079 H2069 0.930 . S
C2079 C2072 1.409 . S
C2079 C2078 1.362 . S
H2080 C2086 0.930 . S
H2081 C2089 0.930 . S
H2082 C2090 0.930 . S
H2083 C2091 0.930 . S
H2084 C2094 0.930 . S
H2085 C2095 0.930 . S
C2086 H2080 0.930 . S
C2086 C2087 1.355 . S
C2086 C2088 1.415 . S
C2087 C2086 1.355 . S
C2087 C2089 1.419 . S
C2088 C2086 1.415 . S
C2088 C2093 1.425 . S
C2088 C2095 1.409 . S
C2089 H2081 0.930 . S
C2089 C2087 1.419 . S
C2089 C2090 1.362 . S
C2090 H2082 0.930 . S
C2090 C2089 1.362 . S
C2090 C2093 1.409 . S
C2091 H2083 0.930 . S
C2091 C2092 1.355 . S
C2091 C2093 1.415 . S
C2092 C2091 1.355 . S
C2092 C2094 1.419 . S
C2093 C2088 1.425 . S
C2093 C2090 1.409 . S
C2093 C2091 1.415 . S
C2094 H2084 0.930 . S
C2094 C2092 1.419 . S
C2094 C2095 1.362 . S
C2095 H2085 0.930 . S
C2095 C2088 1.409 . S
C2095 C2094 1.362 . S
H2096 C2102 0.930 1_565 S
H2097 C2105 0.930 . S
H2098 C2106 0.930 . S
H2099 C2107 0.930 . S
H2100 C2110 0.930 . S
H2101 C2111 0.930 . S
C2102 H2096 0.930 1_545 S
C2102 C2103 1.355 . S
C2102 C2104 1.415 . S
C2103 C2102 1.355 . S
C2103 C2105 1.419 . S
C2104 C2102 1.415 . S
C2104 C2109 1.425 . S
C2104 C2111 1.409 1_545 S
C2105 H2097 0.930 . S
C2105 C2103 1.419 . S
C2105 C2106 1.362 . S
C2106 H2098 0.930 . S
C2106 C2105 1.362 . S
C2106 C2109 1.409 . S
C2107 H2099 0.930 . S
C2107 C2108 1.355 . S
C2107 C2109 1.415 . S
C2108 C2107 1.355 . S
C2108 C2110 1.419 1_545 S
C2109 C2104 1.425 . S
C2109 C2106 1.409 . S
C2109 C2107 1.415 . S
C2110 H2100 0.930 . S
C2110 C2108 1.419 1_565 S
C2110 C2111 1.362 . S
C2111 H2101 0.930 . S
C2111 C2104 1.409 1_565 S
C2111 C2110 1.362 . S
H2112 C2118 0.930 . S
H2113 C2121 0.930 . S
H2114 C2122 0.930 . S
H2115 C2123 0.930 . S
H2116 C2126 0.930 . S
H2117 C2127 0.930 . S
C2118 H2112 0.930 . S
C2118 C2119 1.355 . S
C2118 C2120 1.415 . S
C2119 C2118 1.355 . S
C2119 C2121 1.419 . S
C2120 C2118 1.415 . S
C2120 C2125 1.425 . S
C2120 C2127 1.409 . S
C2121 H2113 0.930 . S
C2121 C2119 1.419 . S
C2121 C2122 1.362 . S
C2122 H2114 0.930 . S
C2122 C2121 1.362 . S
C2122 C2125 1.409 . S
C2123 H2115 0.930 . S
C2123 C2124 1.355 . S
C2123 C2125 1.415 . S
C2124 C2123 1.355 . S
C2124 C2126 1.419 . S
C2125 C2120 1.425 . S
C2125 C2122 1.409 . S
C2125 C2123 1.415 . S
C2126 H2116 0.930 . S
C2126 C2124 1.419 . S
C2126 C2127 1.362 . S
C2127 H2117 0.930 . S
C2127 C2120 1.409 . S
C2127 C2126 1.362 . S
H2128 C2134 0.930 . S
H2129 C2137 0.974 . S
H2130 C2138 0.930 . S
H2131 C2139 0.930 . S
H2132 C2142 0.930 . S
H2133 C2143 0.930 . S
C2134 H2128 0.930 . S
C2134 C2135 1.355 . S
C2134 C2136 1.415 . S
C2135 C2134 1.355 . S
C2135 C2137 1.419 . S
C2136 C2134 1.415 . S
C2136 C2141 1.425 . S
C2136 C2143 1.409 . S
C2137 H2129 0.974 . S
C2137 C2135 1.419 . S
C2137 C2138 1.362 . S
C2138 H2130 0.930 . S
C2138 C2137 1.362 . S
C2138 C2141 1.409 . S
C2139 H2131 0.930 . S
C2139 C2140 1.355 . S
C2139 C2141 1.415 . S
C2140 C2139 1.355 . S
C2140 C2142 1.419 . S
C2141 C2136 1.425 . S
C2141 C2138 1.409 . S
C2141 C2139 1.415 . S
C2142 H2132 0.930 . S
C2142 C2140 1.419 . S
C2142 C2143 1.362 . S
C2143 H2133 0.930 . S
C2143 C2136 1.409 . S
C2143 C2142 1.362 . S
H2144 C2150 0.930 . S
H2145 C2153 0.930 . S
H2146 C2154 0.930 . S
H2147 C2155 0.930 . S
H2148 C2158 0.930 . S
H2149 C2159 0.930 . S
C2150 H2144 0.930 . S
C2150 C2151 1.355 . S
C2150 C2152 1.415 . S
C2151 C2150 1.355 . S
C2151 C2153 1.419 . S
C2152 C2150 1.415 . S
C2152 C2157 1.425 . S
C2152 C2159 1.409 . S
C2153 H2145 0.930 . S
C2153 C2151 1.419 . S
C2153 C2154 1.362 . S
C2154 H2146 0.930 . S
C2154 C2153 1.362 . S
C2154 C2157 1.409 . S
C2155 H2147 0.930 . S
C2155 C2156 1.355 . S
C2155 C2157 1.415 . S
C2156 C2155 1.355 . S
C2156 C2158 1.419 . S
C2157 C2152 1.425 . S
C2157 C2154 1.409 . S
C2157 C2155 1.415 . S
C2158 H2148 0.930 . S
C2158 C2156 1.419 . S
C2158 C2159 1.362 . S
C2159 H2149 0.930 . S
C2159 C2152 1.409 . S
C2159 C2158 1.362 . S
H2160 C2166 0.930 . S
H2161 C2169 0.930 . S
H2162 C2170 0.930 . S
H2163 C2171 0.889 1_455 S
H2164 C2174 0.930 . S
H2165 C2175 0.930 . S
C2166 H2160 0.930 . S
C2166 C2167 1.355 . S
C2166 C2168 1.415 . S
C2167 C2166 1.355 . S
C2167 C2169 1.419 1_655 S
C2168 C2166 1.415 . S
C2168 C2173 1.425 . S
C2168 C2175 1.409 . S
C2169 H2161 0.930 . S
C2169 C2167 1.419 1_455 S
C2169 C2170 1.362 . S
C2170 H2162 0.930 . S
C2170 C2169 1.362 . S
C2170 C2173 1.409 1_455 S
C2171 H2163 0.889 1_655 S
C2171 C2172 1.385 . S
C2171 C2173 1.425 . S
C2172 C2171 1.385 . S
C2172 C2174 1.419 . S
C2173 C2168 1.425 . S
C2173 C2170 1.409 1_655 S
C2173 C2171 1.425 . S
C2174 H2164 0.930 . S
C2174 C2172 1.419 . S
C2174 C2175 1.362 . S
C2175 H2165 0.930 . S
C2175 C2168 1.409 . S
C2175 C2174 1.362 . S
H2176 C2182 0.930 . S
H2177 C2185 0.930 . S
H2178 C2186 0.930 . S
H2179 C2187 0.930 . S
H2180 C2190 0.930 . S
H2181 C2191 0.930 . S
C2182 H2176 0.930 . S
C2182 C2183 1.355 . S
C2182 C2184 1.415 . S
C2183 C2182 1.355 . S
C2183 C2185 1.419 . S
C2184 C2182 1.415 . S
C2184 C2189 1.425 . S
C2184 C2191 1.409 . S
C2185 H2177 0.930 . S
C2185 C2183 1.419 . S
C2185 C2186 1.362 . S
C2186 H2178 0.930 . S
C2186 C2185 1.362 . S
C2186 C2189 1.409 . S
C2187 H2179 0.930 . S
C2187 C2188 1.355 . S
C2187 C2189 1.415 . S
C2188 C2187 1.355 . S
C2188 C2190 1.419 . S
C2189 C2184 1.425 . S
C2189 C2186 1.409 . S
C2189 C2187 1.415 . S
C2190 H2180 0.930 . S
C2190 C2188 1.419 . S
C2190 C2191 1.362 . S
C2191 H2181 0.930 . S
C2191 C2184 1.409 . S
C2191 C2190 1.362 . S
H2192 C2198 0.930 . S
H2193 C2201 0.930 . S
H2194 C2202 0.930 . S
H2195 C2203 0.930 . S
H2196 C2206 0.908 1_655 S
H2197 C2207 0.930 1_655 S
C2198 H2192 0.930 . S
C2198 C2199 1.355 . S
C2198 C2200 1.415 . S
C2199 C2198 1.355 . S
C2199 C2201 1.419 . S
C2200 C2198 1.415 . S
C2200 C2205 1.425 . S
C2200 C2207 1.409 . S
C2201 H2193 0.930 . S
C2201 C2199 1.419 . S
C2201 C2202 1.362 . S
C2202 H2194 0.930 . S
C2202 C2201 1.362 . S
C2202 C2205 1.409 . S
C2203 H2195 0.930 . S
C2203 C2204 1.355 . S
C2203 C2205 1.415 . S
C2204 C2203 1.355 . S
C2204 C2206 1.419 . S
C2205 C2200 1.425 . S
C2205 C2202 1.409 . S
C2205 C2203 1.415 . S
C2206 H2196 0.908 1_455 S
C2206 C2204 1.419 . S
C2206 C2207 1.362 . S
C2207 H2197 0.930 1_455 S
C2207 C2200 1.409 . S
C2207 C2206 1.362 . S
H2208 C2214 0.930 . S
H2209 C2217 0.930 . S
H2210 C2218 0.930 . S
H2211 C2219 0.930 . S
H2212 C2222 0.930 . S
H2213 C2223 0.930 . S
C2214 H2208 0.930 . S
C2214 C2215 1.355 . S
C2214 C2216 1.415 . S
C2215 C2214 1.355 . S
C2215 C2217 1.419 . S
C2216 C2214 1.415 . S
C2216 C2221 1.425 . S
C2216 C2223 1.409 . S
C2217 H2209 0.930 . S
C2217 C2215 1.419 . S
C2217 C2218 1.362 . S
C2218 H2210 0.930 . S
C2218 C2217 1.362 . S
C2218 C2221 1.409 . S
C2219 H2211 0.930 . S
C2219 C2220 1.355 . S
C2219 C2221 1.415 . S
C2220 C2219 1.355 . S
C2220 C2222 1.419 . S
C2221 C2216 1.425 . S
C2221 C2218 1.409 . S
C2221 C2219 1.415 . S
C2222 H2212 0.930 . S
C2222 C2220 1.419 . S
C2222 C2223 1.362 . S
C2223 H2213 0.930 . S
C2223 C2216 1.409 . S
C2223 C2222 1.362 . S
H2224 C2230 0.930 . S
H2225 C2233 0.930 . S
H2226 C2234 0.930 . S
H2227 C2235 0.930 . S
H2228 C2238 0.930 . S
H2229 C2239 0.930 . S
C2230 H2224 0.930 . S
C2230 C2231 1.355 . S
C2230 C2232 1.415 . S
C2231 C2230 1.355 . S
C2231 C2233 1.419 . S
C2232 C2230 1.415 . S
C2232 C2237 1.425 . S
C2232 C2239 1.409 . S
C2233 H2225 0.930 . S
C2233 C2231 1.419 . S
C2233 C2234 1.362 . S
C2234 H2226 0.930 . S
C2234 C2233 1.362 . S
C2234 C2237 1.409 . S
C2235 H2227 0.930 . S
C2235 C2236 1.355 . S
C2235 C2237 1.415 . S
C2236 C2235 1.355 . S
C2236 C2238 1.419 . S
C2237 C2232 1.425 . S
C2237 C2234 1.409 . S
C2237 C2235 1.415 . S
C2238 H2228 0.930 . S
C2238 C2236 1.419 . S
C2238 C2239 1.362 . S
C2239 H2229 0.930 . S
C2239 C2232 1.409 . S
C2239 C2238 1.362 . S
H2240 C2246 0.930 . S
H2241 C2249 0.930 . S
H2242 C2250 0.930 . S
H2243 C2251 0.930 . S
H2244 C2254 0.930 . S
H2245 C2255 0.930 . S
C2246 H2240 0.930 . S
C2246 C2247 1.355 . S
C2246 C2248 1.415 . S
C2247 C2246 1.355 . S
C2247 C2249 1.419 . S
C2248 C2246 1.415 . S
C2248 C2253 1.425 . S
C2248 C2255 1.409 . S
C2249 H2241 0.930 . S
C2249 C2247 1.419 . S
C2249 C2250 1.362 . S
C2250 H2242 0.930 . S
C2250 C2249 1.362 . S
C2250 C2253 1.409 . S
C2251 H2243 0.930 . S
C2251 C2252 1.355 . S
C2251 C2253 1.415 . S
C2252 C2251 1.355 . S
C2252 C2254 1.419 . S
C2253 C2248 1.425 . S
C2253 C2250 1.409 . S
C2253 C2251 1.415 . S
C2254 H2244 0.930 . S
C2254 C2252 1.419 . S
C2254 C2255 1.362 . S
C2255 H2245 0.930 . S
C2255 C2248 1.409 . S
C2255 C2254 1.362 . S
H2256 C2262 0.930 . S
H2257 C2265 0.930 . S
H2258 C2266 0.930 . S
H2259 C2267 0.930 . S
H2260 C2270 0.930 . S
H2261 C2271 0.930 . S
C2262 H2256 0.930 . S
C2262 C2263 1.355 . S
C2262 C2264 1.415 . S
C2263 C2262 1.355 . S
C2263 C2265 1.419 . S
C2264 C2262 1.415 . S
C2264 C2269 1.425 . S
C2264 C2271 1.409 . S
C2265 H2257 0.930 . S
C2265 C2263 1.419 . S
C2265 C2266 1.362 . S
C2266 H2258 0.930 . S
C2266 C2265 1.362 . S
C2266 C2269 1.409 . S
C2267 H2259 0.930 . S
C2267 C2268 1.355 . S
C2267 C2269 1.415 . S
C2268 C2267 1.355 . S
C2268 C2270 1.419 . S
C2269 C2264 1.425 . S
C2269 C2266 1.409 . S
C2269 C2267 1.415 . S
C2270 H2260 0.930 . S
C2270 C2268 1.419 . S
C2270 C2271 1.362 . S
C2271 H2261 0.930 . S
C2271 C2264 1.409 . S
C2271 C2270 1.362 . S
H2272 C2278 0.930 . S
H2273 C2281 0.930 . S
H2274 C2282 0.930 . S
H2275 C2283 0.930 . S
H2276 C2286 0.930 . S
H2277 C2287 0.930 . S
C2278 H2272 0.930 . S
C2278 C2279 1.355 . S
C2278 C2280 1.415 . S
C2279 C2278 1.355 . S
C2279 C2281 1.419 . S
C2280 C2278 1.415 . S
C2280 C2285 1.425 . S
C2280 C2287 1.409 . S
C2281 H2273 0.930 . S
C2281 C2279 1.419 . S
C2281 C2282 1.362 . S
C2282 H2274 0.930 . S
C2282 C2281 1.362 . S
C2282 C2285 1.409 . S
C2283 H2275 0.930 . S
C2283 C2284 1.355 . S
C2283 C2285 1.415 . S
C2284 C2283 1.355 . S
C2284 C2286 1.419 . S
C2285 C2280 1.425 . S
C2285 C2282 1.409 . S
C2285 C2283 1.415 . S
C2286 H2276 0.930 . S
C2286 C2284 1.419 . S
C2286 C2287 1.362 . S
C2287 H2277 0.930 . S
C2287 C2280 1.409 . S
C2287 C2286 1.362 . S
H2288 C2294 0.930 . S
H2289 C2297 0.930 . S
H2290 C2298 0.930 . S
H2291 C2299 0.930 . S
H2292 C2302 0.930 . S
H2293 C2303 0.930 . S
C2294 H2288 0.930 . S
C2294 C2295 1.355 . S
C2294 C2296 1.415 . S
C2295 C2294 1.355 . S
C2295 C2297 1.419 . S
C2296 C2294 1.415 . S
C2296 C2301 1.425 . S
C2296 C2303 1.409 . S
C2297 H2289 0.930 . S
C2297 C2295 1.419 . S
C2297 C2298 1.362 . S
C2298 H2290 0.930 . S
C2298 C2297 1.362 . S
C2298 C2301 1.409 . S
C2299 H2291 0.930 . S
C2299 C2300 1.355 . S
C2299 C2301 1.415 . S
C2300 C2299 1.355 . S
C2300 C2302 1.419 . S
C2301 C2296 1.425 . S
C2301 C2298 1.409 . S
C2301 C2299 1.415 . S
C2302 H2292 0.930 . S
C2302 C2300 1.419 . S
C2302 C2303 1.362 . S
C2303 H2293 0.930 . S
C2303 C2296 1.409 . S
C2303 C2302 1.362 . S
H2304 C2310 0.930 . S
H2305 C2313 0.930 . S
H2306 C2314 0.930 . S
H2307 C2315 0.930 . S
H2308 C2318 0.930 . S
H2309 C2319 0.930 . S
C2310 H2304 0.930 . S
C2310 C2311 1.355 . S
C2310 C2312 1.415 . S
C2311 C2310 1.355 . S
C2311 C2313 1.419 . S
C2312 C2310 1.415 . S
C2312 C2317 1.425 . S
C2312 C2319 1.409 . S
C2313 H2305 0.930 . S
C2313 C2311 1.419 . S
C2313 C2314 1.362 . S
C2314 H2306 0.930 . S
C2314 C2313 1.362 . S
C2314 C2317 1.409 . S
C2315 H2307 0.930 . S
C2315 C2316 1.355 . S
C2315 C2317 1.415 . S
C2316 C2315 1.355 . S
C2316 C2318 1.419 . S
C2317 C2312 1.425 . S
C2317 C2314 1.409 . S
C2317 C2315 1.415 . S
C2318 H2308 0.930 . S
C2318 C2316 1.419 . S
C2318 C2319 1.362 . S
C2319 H2309 0.930 . S
C2319 C2312 1.409 . S
C2319 C2318 1.362 . S
H2320 C2326 0.930 . S
H2321 C2329 0.930 . S
H2322 C2330 0.930 . S
H2323 C2331 0.930 . S
H2324 C2334 0.930 . S
H2325 C2335 0.930 . S
C2326 H2320 0.930 . S
C2326 C2327 1.355 . S
C2326 C2328 1.415 . S
C2327 C2326 1.355 . S
C2327 C2329 1.419 . S
C2328 C2326 1.415 . S
C2328 C2333 1.425 . S
C2328 C2335 1.409 . S
C2329 H2321 0.930 . S
C2329 C2327 1.419 . S
C2329 C2330 1.362 . S
C2330 H2322 0.930 . S
C2330 C2329 1.362 . S
C2330 C2333 1.409 . S
C2331 H2323 0.930 . S
C2331 C2332 1.355 . S
C2331 C2333 1.415 . S
C2332 C2331 1.355 . S
C2332 C2334 1.419 . S
C2333 C2328 1.425 . S
C2333 C2330 1.409 . S
C2333 C2331 1.415 . S
C2334 H2324 0.930 . S
C2334 C2332 1.419 . S
C2334 C2335 1.362 . S
C2335 H2325 0.930 . S
C2335 C2328 1.409 . S
C2335 C2334 1.362 . S
H2336 C2342 0.930 . S
H2337 C2345 0.930 1_554 S
H2338 C2346 0.928 . S
H2339 C2347 0.930 1_554 S
H2340 C2350 0.930 . S
H2341 C2351 0.930 . S
C2342 H2336 0.930 . S
C2342 C2343 1.355 . S
C2342 C2344 1.415 . S
C2343 C2342 1.355 . S
C2343 C2345 1.419 . S
C2344 C2342 1.415 . S
C2344 C2349 1.425 . S
C2344 C2351 1.409 . S
C2345 H2337 0.930 1_556 S
C2345 C2343 1.419 . S
C2345 C2346 1.363 1_556 S
C2346 H2338 0.928 . S
C2346 C2345 1.363 1_554 S
C2346 C2349 1.411 1_554 S
C2347 H2339 0.930 1_556 S
C2347 C2348 1.355 . S
C2347 C2349 1.415 . S
C2348 C2347 1.355 . S
C2348 C2350 1.419 . S
C2349 C2344 1.425 . S
C2349 C2346 1.411 1_556 S
C2349 C2347 1.415 . S
C2350 H2340 0.930 . S
C2350 C2348 1.419 . S
C2350 C2351 1.362 . S
C2351 H2341 0.930 . S
C2351 C2344 1.409 . S
C2351 C2350 1.362 . S
H2352 C2358 0.930 . S
H2353 C2361 0.930 . S
H2354 C2362 0.930 . S
H2355 C2363 0.930 . S
H2356 C2366 0.930 . S
H2357 C2367 0.930 . S
C2358 H2352 0.930 . S
C2358 C2359 1.355 . S
C2358 C2360 1.415 . S
C2359 C2358 1.355 . S
C2359 C2361 1.419 . S
C2360 C2358 1.415 . S
C2360 C2365 1.425 . S
C2360 C2367 1.409 . S
C2361 H2353 0.930 . S
C2361 C2359 1.419 . S
C2361 C2362 1.362 . S
C2362 H2354 0.930 . S
C2362 C2361 1.362 . S
C2362 C2365 1.409 . S
C2363 H2355 0.930 . S
C2363 C2364 1.355 . S
C2363 C2365 1.415 . S
C2364 C2363 1.355 . S
C2364 C2366 1.419 . S
C2365 C2360 1.425 . S
C2365 C2362 1.409 . S
C2365 C2363 1.415 . S
C2366 H2356 0.930 . S
C2366 C2364 1.419 . S
C2366 C2367 1.362 . S
C2367 H2357 0.930 . S
C2367 C2360 1.409 . S
C2367 C2366 1.362 . S
H2368 C2374 0.930 . S
H2369 C2377 0.930 . S
H2370 C2378 0.930 . S
H2371 C2379 0.930 . S
H2372 C2382 0.930 . S
H2373 C2383 0.930 . S
C2374 H2368 0.930 . S
C2374 C2375 1.355 . S
C2374 C2376 1.415 . S
C2375 C2374 1.355 . S
C2375 C2377 1.419 . S
C2376 C2374 1.415 . S
C2376 C2381 1.425 . S
C2376 C2383 1.409 . S
C2377 H2369 0.930 . S
C2377 C2375 1.419 . S
C2377 C2378 1.362 . S
C2378 H2370 0.930 . S
C2378 C2377 1.362 . S
C2378 C2381 1.409 . S
C2379 H2371 0.930 . S
C2379 C2380 1.355 . S
C2379 C2381 1.415 . S
C2380 C2379 1.355 . S
C2380 C2382 1.419 . S
C2381 C2376 1.425 . S
C2381 C2378 1.409 . S
C2381 C2379 1.415 . S
C2382 H2372 0.930 . S
C2382 C2380 1.419 . S
C2382 C2383 1.362 . S
C2383 H2373 0.930 . S
C2383 C2376 1.409 . S
C2383 C2382 1.362 . S
H2384 C2390 0.930 . S
H2385 C2393 0.930 . S
H2386 C2394 0.930 . S
H2387 C2395 0.930 . S
H2388 C2398 0.930 . S
H2389 C2399 0.930 . S
C2390 H2384 0.930 . S
C2390 C2391 1.355 . S
C2390 C2392 1.415 . S
C2391 C2390 1.355 . S
C2391 C2393 1.419 . S
C2392 C2390 1.415 . S
C2392 C2397 1.425 . S
C2392 C2399 1.409 . S
C2393 H2385 0.930 . S
C2393 C2391 1.419 . S
C2393 C2394 1.362 . S
C2394 H2386 0.930 . S
C2394 C2393 1.362 . S
C2394 C2397 1.409 . S
C2395 H2387 0.930 . S
C2395 C2396 1.355 . S
C2395 C2397 1.415 . S
C2396 C2395 1.355 . S
C2396 C2398 1.419 . S
C2397 C2392 1.425 . S
C2397 C2394 1.409 . S
C2397 C2395 1.415 . S
C2398 H2388 0.930 . S
C2398 C2396 1.419 . S
C2398 C2399 1.362 . S
C2399 H2389 0.930 . S
C2399 C2392 1.409 . S
C2399 C2398 1.362 . S
C1644 C625 1.489 . S
C1639 C181 1.469 . S
C1660 C684 1.518 . S
C1655 C247 1.512 . S
C1671 C283 1.518 . S
C1676 C801 1.521 . S
C1692 C869 1.519 . S
C1687 C169 1.517 . S
C1708 C948 1.508 . S
C1703 C361 1.506 . S
C1724 C1073 1.519 . S
C1719 C433 1.519 . S
C1735 C421 1.473 . S
C1740 C1133 1.495 . S
C1756 C1241 1.520 . S
C1751 C355 1.529 . S
C1767 C427 1.521 . S
C1772 C1337 1.522 . S
C1788 C1397 1.512 . S
C1783 C325 1.521 . S
C1799 C385 1.493 . S
C1804 C1300 1.505 . S
C1820 C1417 1.515 . S
C1815 C463 1.500 . S
C1831 C253 1.512 . S
C1836 C1485 1.519 . S
C1847 C145 1.516 . S
C1852 C1476 1.521 . S
C1863 C205 1.457 . S
C1868 C1505 1.481 . S
C1879 C217 1.504 . S
C1884 C1513 1.501 . S
C1895 C139 1.493 . S
C1900 C897 1.509 . S
C1911 C535 1.486 . S
C1916 C860 1.500 . S
C1932 C596 1.490 . S
C1927 C565 1.498 . S
C1948 C693 1.509 . S
C1943 C313 1.509 . S
C1959 C175 1.508 . S
C1964 C957 1.525 . S
C1980 C1249 1.505 . S
C1975 C397 1.502 . S
C1996 C977 1.516 . S
C1991 C349 1.509 . S
C2012 C1161 1.521 . S
C2007 C457 1.507 . S
C2028 C1153 1.493 . S
C2023 C505 1.486 . S
C2039 C571 1.515 . S
C2044 C1221 1.507 . S
C2055 C319 1.507 . S
C2060 C985 1.514 . S
C2076 C1036 1.518 . S
C2071 C493 1.518 . S
C2087 C109 1.486 . S
C2092 C781 1.499 . S
C2108 C889 1.513 . S
C2103 C1 1.498 . S
C2124 C605 1.506 . S
C2119 C61 1.497 . S
C2140 C721 1.520 . S
C2135 C103 1.528 . S
C2151 C67 1.523 . S
C2156 C1425 1.523 . S
C2167 C73 1.522 . S
C2172 C1309 1.515 . S
C2183 C133 1.483 . S
C2188 C1388 1.499 . S
C2199 C31 1.490 . S
C2204 C1329 1.515 . S
C2220 C1573 1.511 . S
C2215 C289 1.493 . S
C2236 C1564 1.521 . S
C2231 C469 1.519 . S
C2252 C1593 1.487 . S
C2247 C529 1.473 . S
C2263 C541 1.503 . S
C2268 C1601 1.502 . S
C2279 C391 1.518 . S
C2284 C1065 1.520 . S
C2300 C1045 1.503 . S
C2295 C211 1.495 . S
C2316 C1124 1.501 . S
C2311 C241 1.492 . S
C2332 C1212 1.504 . S
C2327 C277 1.500 . S
C2343 C499 1.505 . S
C2348 C772 1.525 . S
C2364 C713 1.495 . S
C2359 C37 1.476 . S
C2375 C97 1.511 . S
C2380 C809 1.518 . S
C2396 C633 1.518 . S
C2391 C25 1.491 . S
