# Generated by pormake.
# Topology pto, (3,4)-cn, num edge types: 1
# Building blocks:
#     Node 0, Type 0, BuildingBlock: KAKCAD_clean_linker_0, # of connection points: 3
#     Node 1, Type 0, BuildingBlock: KAKCAD_clean_linker_0, # of connection points: 3
#     Node 2, Type 0, BuildingBlock: KAKCAD_clean_linker_0, # of connection points: 3
#     Node 3, Type 0, BuildingBlock: KAKCAD_clean_linker_0, # of connection points: 3
#     Node 4, Type 0, BuildingBlock: KAKCAD_clean_linker_0, # of connection points: 3
#     Node 5, Type 0, BuildingBlock: KAKCAD_clean_linker_0, # of connection points: 3
#     Node 6, Type 0, BuildingBlock: KAKCAD_clean_linker_0, # of connection points: 3
#     Node 7, Type 0, BuildingBlock: KAKCAD_clean_linker_0, # of connection points: 3
#     Node 8, Type 1, BuildingBlock: KOZSID_clean_sbu_0, # of connection points: 4
#     Node 9, Type 1, BuildingBlock: KOZSID_clean_sbu_0, # of connection points: 4
#     Node 10, Type 1, BuildingBlock: KOZSID_clean_sbu_0, # of connection points: 4
#     Node 11, Type 1, BuildingBlock: KOZSID_clean_sbu_0, # of connection points: 4
#     Node 12, Type 1, BuildingBlock: KOZSID_clean_sbu_0, # of connection points: 4
#     Node 13, Type 1, BuildingBlock: KOZSID_clean_sbu_0, # of connection points: 4
#     Edge 14, Type (0, 1), BuildingBlock: CIFDUS_clean_linker_0, # of connection points: 2
#     Edge 15, Type (0, 1), BuildingBlock: CIFDUS_clean_linker_0, # of connection points: 2
#     Edge 16, Type (0, 1), BuildingBlock: CIFDUS_clean_linker_0, # of connection points: 2
#     Edge 17, Type (0, 1), BuildingBlock: CIFDUS_clean_linker_0, # of connection points: 2
#     Edge 18, Type (0, 1), BuildingBlock: CIFDUS_clean_linker_0, # of connection points: 2
#     Edge 19, Type (0, 1), BuildingBlock: CIFDUS_clean_linker_0, # of connection points: 2
#     Edge 20, Type (0, 1), BuildingBlock: CIFDUS_clean_linker_0, # of connection points: 2
#     Edge 21, Type (0, 1), BuildingBlock: CIFDUS_clean_linker_0, # of connection points: 2
#     Edge 22, Type (0, 1), BuildingBlock: CIFDUS_clean_linker_0, # of connection points: 2
#     Edge 23, Type (0, 1), BuildingBlock: CIFDUS_clean_linker_0, # of connection points: 2
#     Edge 24, Type (0, 1), BuildingBlock: CIFDUS_clean_linker_0, # of connection points: 2
#     Edge 25, Type (0, 1), BuildingBlock: CIFDUS_clean_linker_0, # of connection points: 2
#     Edge 26, Type (0, 1), BuildingBlock: CIFDUS_clean_linker_0, # of connection points: 2
#     Edge 27, Type (0, 1), BuildingBlock: CIFDUS_clean_linker_0, # of connection points: 2
#     Edge 28, Type (0, 1), BuildingBlock: CIFDUS_clean_linker_0, # of connection points: 2
#     Edge 29, Type (0, 1), BuildingBlock: CIFDUS_clean_linker_0, # of connection points: 2
#     Edge 30, Type (0, 1), BuildingBlock: CIFDUS_clean_linker_0, # of connection points: 2
#     Edge 31, Type (0, 1), BuildingBlock: CIFDUS_clean_linker_0, # of connection points: 2
#     Edge 32, Type (0, 1), BuildingBlock: CIFDUS_clean_linker_0, # of connection points: 2
#     Edge 33, Type (0, 1), BuildingBlock: CIFDUS_clean_linker_0, # of connection points: 2
#     Edge 34, Type (0, 1), BuildingBlock: CIFDUS_clean_linker_0, # of connection points: 2
#     Edge 35, Type (0, 1), BuildingBlock: CIFDUS_clean_linker_0, # of connection points: 2
#     Edge 36, Type (0, 1), BuildingBlock: CIFDUS_clean_linker_0, # of connection points: 2
#     Edge 37, Type (0, 1), BuildingBlock: CIFDUS_clean_linker_0, # of connection points: 2
# Relax obj value: 0.000
# Max RMSD: 0.026
# Mean RMSD: 0.011
data_MOF--net-pto--node1-KOZSID_clean_sbu_0--node2-KAKCAD_clean_linker_0--edge1-CIFDUS_clean_linker_0
_symmetry_space_group_name_H-M    P1
_symmetry_Int_Tables_number       1
_symmetry_cell_setting            triclinic
loop_
_symmetry_equiv_pos_as_xyz
'x, y, z'
_cell_length_a     42.472025
_cell_length_b     57.209866
_cell_length_c     49.885594
_cell_angle_alpha  87.812014
_cell_angle_beta   87.884651
_cell_angle_gamma 93.189525
loop_
_atom_site_label
_atom_site_type_symbol
_atom_site_fract_x
_atom_site_fract_y
_atom_site_fract_z
_atom_type_partial_charge
C0 C 0.28096 0.18227 0.36587 0.0
C1 C 0.25142 0.17071 0.37218 0.0
C2 C 0.28322 0.20284 0.34967 0.0
C3 C 0.25593 0.21246 0.33995 0.0
C4 C 0.22634 0.20115 0.34669 0.0
C5 C 0.22413 0.18032 0.36245 0.0
C6 C 0.2584 0.23393 0.32226 0.0
C7 C 0.27856 0.23515 0.29924 0.0
C8 C 0.28045 0.2551 0.2818 0.0
C9 C 0.26247 0.2742 0.28809 0.0
C10 C 0.24238 0.27338 0.31119 0.0
C11 C 0.24023 0.25302 0.32802 0.0
C12 C 0.22352 0.29374 0.31752 0.0
C13 C 0.23722 0.31668 0.3147 0.0
C14 C 0.19159 0.29044 0.32598 0.0
C15 C 0.17364 0.30968 0.33107 0.0
C16 C 0.18723 0.33266 0.32791 0.0
C17 C 0.30031 0.25564 0.25656 0.0
C18 C 0.33064 0.24696 0.25633 0.0
C19 C 0.28872 0.26438 0.23234 0.0
C20 C 0.30687 0.26422 0.20842 0.0
C21 C 0.33709 0.25536 0.20813 0.0
C22 C 0.34886 0.24687 0.23239 0.0
C23 C 0.21932 0.3359 0.31988 0.0
H24 H 0.30235 0.17512 0.37302 0.0
H25 H 0.30629 0.2113 0.34481 0.0
H26 H 0.20498 0.20816 0.3393 0.0
H27 H 0.20108 0.17177 0.36716 0.0
H28 H 0.29189 0.22015 0.2944 0.0
H29 H 0.22497 0.2522 0.34598 0.0
H30 H 0.26392 0.2897 0.27481 0.0
H31 H 0.2619 0.31979 0.30865 0.0
H32 H 0.18026 0.273 0.32805 0.0
H33 H 0.1489 0.30654 0.33686 0.0
H34 H 0.34035 0.24028 0.27469 0.0
H35 H 0.26532 0.27096 0.23177 0.0
H36 H 0.23071 0.35332 0.31773 0.0
H37 H 0.37194 0.23974 0.23282 0.0
H38 H 0.29725 0.27111 0.19013 0.0
C39 C 0.30873 0.79554 0.82561 0.0
C40 C 0.3228 0.77503 0.83422 0.0
C41 C 0.29034 0.79566 0.80288 0.0
C42 C 0.28579 0.77529 0.78823 0.0
C43 C 0.30052 0.75497 0.79657 0.0
C44 C 0.31867 0.75482 0.81932 0.0
C45 C 0.2654 0.7749 0.76457 0.0
C46 C 0.26597 0.79404 0.74598 0.0
C47 C 0.24747 0.79317 0.7232 0.0
C48 C 0.2282 0.77294 0.71911 0.0
C49 C 0.22688 0.75379 0.7377 0.0
C50 C 0.24542 0.75506 0.7604 0.0
C51 C 0.20599 0.73252 0.73375 0.0
C52 C 0.17545 0.73446 0.72422 0.0
C53 C 0.21616 0.71009 0.7402 0.0
C54 C 0.19608 0.69016 0.73783 0.0
C55 C 0.16535 0.6921 0.72874 0.0
C56 C 0.24828 0.81336 0.70356 0.0
C57 C 0.24455 0.83613 0.71225 0.0
C58 C 0.25223 0.8099 0.67596 0.0
C59 C 0.25233 0.82883 0.65739 0.0
C60 C 0.24803 0.85165 0.66594 0.0
C61 C 0.24421 0.85504 0.69366 0.0
C62 C 0.15541 0.71449 0.7217 0.0
H63 H 0.31135 0.81134 0.83682 0.0
H64 H 0.27911 0.81154 0.79717 0.0
H65 H 0.29817 0.73913 0.78542 0.0
H66 H 0.32973 0.73889 0.82515 0.0
H67 H 0.28149 0.80938 0.74875 0.0
H68 H 0.24381 0.74068 0.77526 0.0
H69 H 0.21414 0.77218 0.70144 0.0
H70 H 0.16673 0.75146 0.71927 0.0
H71 H 0.23969 0.70789 0.74722 0.0
H72 H 0.20447 0.67326 0.74372 0.0
H73 H 0.24115 0.83923 0.73343 0.0
H74 H 0.25556 0.79255 0.66875 0.0
H75 H 0.13206 0.71663 0.71428 0.0
H76 H 0.2403 0.87223 0.70104 0.0
H77 H 0.25604 0.82554 0.63631 0.0
C78 C 0.70079 0.75903 0.23658 0.0
C79 C 0.70022 0.78022 0.22146 0.0
C80 C 0.72107 0.75693 0.25787 0.0
C81 C 0.74151 0.77591 0.26439 0.0
C82 C 0.74101 0.79707 0.2491 0.0
C83 C 0.7205 0.79922 0.22797 0.0
C84 C 0.76323 0.77365 0.28704 0.0
C85 C 0.77817 0.75268 0.29197 0.0
C86 C 0.79853 0.75029 0.31338 0.0
C87 C 0.80427 0.76938 0.32983 0.0
C88 C 0.78973 0.79057 0.32513 0.0
C89 C 0.76912 0.79244 0.30383 0.0
C90 C 0.79567 0.81081 0.34248 0.0
C91 C 0.79578 0.80761 0.37056 0.0
C92 C 0.80035 0.83364 0.33103 0.0
C93 C 0.80442 0.85286 0.34726 0.0
C94 C 0.80386 0.84975 0.37537 0.0
C95 C 0.81397 0.72787 0.31812 0.0
C96 C 0.79674 0.70633 0.31619 0.0
C97 C 0.84619 0.72776 0.32365 0.0
C98 C 0.86102 0.70659 0.32639 0.0
C99 C 0.84394 0.68507 0.32372 0.0
C100 C 0.81152 0.68521 0.31898 0.0
C101 C 0.79975 0.82688 0.38683 0.0
H102 H 0.68512 0.74418 0.23223 0.0
H103 H 0.72037 0.74051 0.26947 0.0
H104 H 0.75679 0.81192 0.25319 0.0
H105 H 0.72084 0.81568 0.21645 0.0
H106 H 0.77457 0.73831 0.27868 0.0
H107 H 0.75702 0.80845 0.30075 0.0
H108 H 0.82007 0.76774 0.34627 0.0
H109 H 0.79204 0.79027 0.38 0.0
H110 H 0.80074 0.83667 0.30945 0.0
H111 H 0.80725 0.87024 0.33779 0.0
H112 H 0.77175 0.70581 0.31244 0.0
H113 H 0.86019 0.74405 0.32499 0.0
H114 H 0.79951 0.82386 0.4084 0.0
H115 H 0.79752 0.66895 0.31733 0.0
H116 H 0.88609 0.70714 0.32973 0.0
C117 C 0.82136 0.20162 0.70304 0.0
C118 C 0.79419 0.18937 0.69441 0.0
C119 C 0.81879 0.22072 0.71952 0.0
C120 C 0.78899 0.22793 0.72787 0.0
C121 C 0.76184 0.21572 0.71919 0.0
C122 C 0.7644 0.1967 0.70262 0.0
C123 C 0.78622 0.24798 0.74578 0.0
C124 C 0.80574 0.26853 0.74129 0.0
C125 C 0.80332 0.28753 0.7582 0.0
C126 C 0.78107 0.28567 0.77987 0.0
C127 C 0.76126 0.26533 0.78464 0.0
C128 C 0.76401 0.24658 0.76748 0.0
C129 C 0.73758 0.26379 0.80748 0.0
C130 C 0.74537 0.27229 0.83261 0.0
C131 C 0.70684 0.25419 0.80417 0.0
C132 C 0.68432 0.25338 0.8254 0.0
C133 C 0.692 0.26213 0.85045 0.0
C134 C 0.82394 0.30932 0.75335 0.0
C135 C 0.85591 0.30821 0.74538 0.0
C136 C 0.81192 0.33143 0.75713 0.0
C137 C 0.83148 0.35186 0.75357 0.0
C138 C 0.86355 0.35075 0.7459 0.0
C139 C 0.87545 0.32867 0.74164 0.0
C140 C 0.72286 0.27148 0.85383 0.0
H141 H 0.84464 0.19655 0.69688 0.0
H142 H 0.84016 0.22964 0.72605 0.0
H143 H 0.73854 0.22097 0.72506 0.0
H144 H 0.74301 0.1875 0.69655 0.0
H145 H 0.82228 0.26995 0.72417 0.0
H146 H 0.74936 0.23061 0.77142 0.0
H147 H 0.77909 0.30014 0.7931 0.0
H148 H 0.76894 0.27954 0.83593 0.0
H149 H 0.69999 0.24767 0.78501 0.0
H150 H 0.66087 0.24583 0.82219 0.0
H151 H 0.86606 0.2915 0.74249 0.0
H152 H 0.78731 0.33301 0.76286 0.0
H153 H 0.7295 0.27856 0.87278 0.0
H154 H 0.8999 0.32715 0.73537 0.0
H155 H 0.82153 0.36849 0.75733 0.0
C156 C 0.77786 0.83372 0.66369 0.0
C157 C 0.77203 0.85625 0.6724 0.0
C158 C 0.77654 0.81442 0.68188 0.0
C159 C 0.76968 0.81714 0.70935 0.0
C160 C 0.76443 0.83975 0.71812 0.0
C161 C 0.76535 0.85897 0.6999 0.0
C162 C 0.76746 0.79652 0.72874 0.0
C163 C 0.78779 0.77803 0.72598 0.0
C164 C 0.78569 0.7586 0.74427 0.0
C165 C 0.76289 0.75778 0.7655 0.0
C166 C 0.74268 0.77613 0.76877 0.0
C167 C 0.74495 0.79529 0.75025 0.0
C168 C 0.71954 0.77552 0.79187 0.0
C169 C 0.70024 0.75523 0.79855 0.0
C170 C 0.71689 0.79524 0.8076 0.0
C171 C 0.69556 0.79462 0.82967 0.0
C172 C 0.67617 0.77437 0.83629 0.0
C173 C 0.80774 0.73938 0.74169 0.0
C174 C 0.81542 0.73056 0.71648 0.0
C175 C 0.82113 0.72959 0.76458 0.0
C176 C 0.84152 0.71138 0.76239 0.0
C177 C 0.84916 0.70247 0.73723 0.0
C178 C 0.83584 0.71227 0.71428 0.0
C179 C 0.67862 0.75471 0.82044 0.0
H180 H 0.78358 0.83092 0.64277 0.0
H181 H 0.7804 0.7973 0.67426 0.0
H182 H 0.75964 0.84269 0.73915 0.0
H183 H 0.76031 0.87592 0.70742 0.0
H184 H 0.80594 0.77907 0.71008 0.0
H185 H 0.72862 0.80905 0.75238 0.0
H186 H 0.76103 0.74292 0.77972 0.0
H187 H 0.70168 0.73983 0.78668 0.0
H188 H 0.73165 0.81105 0.80304 0.0
H189 H 0.69399 0.81009 0.8414 0.0
H190 H 0.80532 0.73759 0.69846 0.0
H191 H 0.81605 0.73614 0.78427 0.0
H192 H 0.6641 0.73882 0.82518 0.0
H193 H 0.84144 0.70595 0.69457 0.0
H194 H 0.85103 0.70408 0.78053 0.0
C195 C 0.69784 0.24975 0.25038 0.0
C196 C 0.71136 0.25365 0.22433 0.0
C197 C 0.71667 0.25095 0.27277 0.0
C198 C 0.7493 0.2564 0.26957 0.0
C199 C 0.76276 0.26043 0.24353 0.0
C200 C 0.74402 0.25893 0.22114 0.0
C201 C 0.76934 0.25786 0.29327 0.0
C202 C 0.76681 0.24015 0.31364 0.0
C203 C 0.78656 0.24102 0.3356 0.0
C204 C 0.80844 0.2602 0.33748 0.0
C205 C 0.81084 0.27832 0.31751 0.0
C206 C 0.79141 0.27686 0.29537 0.0
C207 C 0.83332 0.29894 0.31976 0.0
C208 C 0.83519 0.31072 0.34392 0.0
C209 C 0.85231 0.30747 0.29745 0.0
C210 C 0.87252 0.32745 0.29917 0.0
C211 C 0.87398 0.3395 0.32317 0.0
C212 C 0.78492 0.22146 0.35607 0.0
C213 C 0.75585 0.21344 0.36844 0.0
C214 C 0.81229 0.21017 0.36269 0.0
C215 C 0.81054 0.19094 0.38097 0.0
C216 C 0.78148 0.18293 0.39336 0.0
C217 C 0.75419 0.1945 0.38712 0.0
C218 C 0.85518 0.33088 0.34556 0.0
H219 H 0.67276 0.2455 0.25341 0.0
H220 H 0.70566 0.24788 0.29262 0.0
H221 H 0.78788 0.26449 0.24046 0.0
H222 H 0.75502 0.26219 0.20131 0.0
H223 H 0.75025 0.22521 0.31191 0.0
H224 H 0.7929 0.29085 0.28001 0.0
H225 H 0.82365 0.26098 0.35444 0.0
H226 H 0.82067 0.30465 0.36139 0.0
H227 H 0.85152 0.29867 0.27862 0.0
H228 H 0.88655 0.33375 0.28152 0.0
H229 H 0.73442 0.22189 0.36369 0.0
H230 H 0.83494 0.21592 0.35328 0.0
H231 H 0.856 0.33969 0.36438 0.0
H232 H 0.7315 0.18859 0.39633 0.0
H233 H 0.83193 0.18239 0.38557 0.0
C234 C 0.30232 0.27212 0.83838 0.0
C235 C 0.33367 0.26544 0.83663 0.0
C236 C 0.28372 0.27194 0.81586 0.0
C237 C 0.29594 0.26503 0.79101 0.0
C238 C 0.32711 0.25798 0.78929 0.0
C239 C 0.34579 0.25822 0.81184 0.0
C240 C 0.27621 0.2655 0.76698 0.0
C241 C 0.2574 0.2845 0.76189 0.0
C242 C 0.23786 0.28501 0.73976 0.0
C243 C 0.23746 0.26614 0.72249 0.0
C244 C 0.25632 0.24705 0.72707 0.0
C245 C 0.27574 0.24693 0.74931 0.0
C246 C 0.25532 0.22705 0.70886 0.0
C247 C 0.22632 0.21761 0.70029 0.0
C248 C 0.28328 0.21731 0.69986 0.0
C249 C 0.28228 0.19872 0.68241 0.0
C250 C 0.25326 0.18934 0.67368 0.0
C251 C 0.21784 0.30522 0.73488 0.0
C252 C 0.20252 0.31561 0.7565 0.0
C253 C 0.2141 0.31446 0.70871 0.0
C254 C 0.19571 0.3337 0.70432 0.0
C255 C 0.18077 0.34422 0.726 0.0
C256 C 0.1843 0.33489 0.75212 0.0
C257 C 0.22529 0.19895 0.683 0.0
H258 H 0.292 0.27733 0.85725 0.0
H259 H 0.2596 0.27706 0.81798 0.0
H260 H 0.33731 0.25277 0.77037 0.0
H261 H 0.36995 0.25324 0.80968 0.0
H262 H 0.25848 0.29919 0.77497 0.0
H263 H 0.28972 0.232 0.75335 0.0
H264 H 0.22234 0.26626 0.70546 0.0
H265 H 0.20433 0.22446 0.70724 0.0
H266 H 0.30601 0.22437 0.70591 0.0
H267 H 0.30431 0.192 0.67537 0.0
H268 H 0.20433 0.30869 0.77686 0.0
H269 H 0.22588 0.30711 0.69163 0.0
H270 H 0.20248 0.19189 0.67715 0.0
H271 H 0.17263 0.34232 0.76921 0.0
H272 H 0.19368 0.34063 0.68399 0.0
C273 C 0.25387 0.84391 0.34341 0.0
C274 C 0.2549 0.83871 0.37112 0.0
C275 C 0.25287 0.82596 0.32516 0.0
C276 C 0.25276 0.80236 0.33417 0.0
C277 C 0.25338 0.79712 0.3619 0.0
C278 C 0.25454 0.8151 0.38017 0.0
C279 C 0.25243 0.78336 0.3146 0.0
C280 C 0.27154 0.78586 0.29091 0.0
C281 C 0.2713 0.76823 0.27208 0.0
C282 C 0.25135 0.74799 0.27698 0.0
C283 C 0.23202 0.74516 0.30046 0.0
C284 C 0.23293 0.76279 0.31934 0.0
C285 C 0.21031 0.72399 0.30479 0.0
C286 C 0.19087 0.7166 0.28418 0.0
C287 C 0.2091 0.71091 0.32927 0.0
C288 C 0.18914 0.69062 0.33289 0.0
C289 C 0.16965 0.68329 0.31227 0.0
C290 C 0.29185 0.77093 0.24727 0.0
C291 C 0.29409 0.79216 0.232 0.0
C292 C 0.30929 0.75225 0.23865 0.0
C293 C 0.32859 0.75475 0.21529 0.0
C294 C 0.33069 0.77593 0.19991 0.0
C295 C 0.3132 0.7946 0.2085 0.0
C296 C 0.17062 0.69656 0.28794 0.0
H297 H 0.25441 0.86191 0.33575 0.0
H298 H 0.25205 0.83058 0.30395 0.0
H299 H 0.25353 0.77913 0.36948 0.0
H300 H 0.25502 0.8105 0.4014 0.0
H301 H 0.28725 0.80136 0.28741 0.0
H302 H 0.21764 0.76085 0.33725 0.0
H303 H 0.25075 0.73442 0.26239 0.0
H304 H 0.19116 0.72645 0.26518 0.0
H305 H 0.22395 0.71617 0.34543 0.0
H306 H 0.18872 0.68077 0.3519 0.0
H307 H 0.28074 0.8068 0.23803 0.0
H308 H 0.30825 0.73574 0.25012 0.0
H309 H 0.15603 0.69123 0.27164 0.0
H310 H 0.31452 0.81119 0.1972 0.0
H311 H 0.34157 0.73998 0.20906 0.0
C312 C 0.06953 0.54548 0.35808 0.0
C313 C 0.081 0.55246 0.38241 0.0
C314 C 0.06534 0.5386 0.40197 0.0
C315 C 0.04514 0.5241 0.3886 0.0
N316 N 0.04714 0.52763 0.3616 0.0
Co317 Co 0.02033 0.51151 0.33471 0.0
N318 N 0.99584 0.49221 0.36373 0.0
C319 C 0.9999 0.4928 0.39048 0.0
C320 C 0.9809 0.47666 0.40536 0.0
C321 C 0.96391 0.46479 0.38705 0.0
C322 C 0.97344 0.47453 0.36192 0.0
N323 N 0.99338 0.49558 0.30782 0.0
C324 C 0.97083 0.47788 0.31135 0.0
C325 C 0.95788 0.47189 0.28723 0.0
C326 C 0.9733 0.4859 0.26766 0.0
C327 C 0.99455 0.49969 0.28089 0.0
N328 N 0.04499 0.53059 0.30564 0.0
C329 C 0.04148 0.52959 0.27884 0.0
C330 C 0.06179 0.54478 0.26387 0.0
C331 C 0.07907 0.55644 0.28218 0.0
C332 C 0.06808 0.54776 0.30738 0.0
N333 N 0.05078 0.48646 0.3319 0.0
C334 C 0.09236 0.44983 0.32767 0.0
C335 C 0.07995 0.46019 0.30487 0.0
C336 C 0.05945 0.47827 0.30741 0.0
C337 C 0.08373 0.45826 0.35268 0.0
C338 C 0.06316 0.47647 0.35431 0.0
N339 N 0.98996 0.53665 0.33747 0.0
C340 C 0.96066 0.56683 0.31617 0.0
C341 C 0.95117 0.57503 0.34105 0.0
C342 C 0.9607 0.56321 0.36415 0.0
C343 C 0.97981 0.54418 0.36192 0.0
C344 C 0.97974 0.54778 0.31487 0.0
H345 H 0.98639 0.53604 0.38026 0.0
H346 H 0.98639 0.54271 0.29528 0.0
H347 H 0.05071 0.48516 0.28924 0.0
H348 H 0.05753 0.4821 0.37392 0.0
C349 C 0.02296 0.50782 0.4009 0.0
C350 C 0.07955 0.55702 0.33231 0.0
C351 C 0.96172 0.46562 0.33689 0.0
C352 C 0.01752 0.5153 0.26843 0.0
H353 H 0.09835 0.56649 0.38583 0.0
H354 H 0.06778 0.53943 0.42345 0.0
H355 H 0.98016 0.47344 0.4269 0.0
H356 H 0.947 0.45023 0.39171 0.0
H357 H 0.93963 0.45843 0.28405 0.0
H358 H 0.97005 0.4856 0.24625 0.0
H359 H 0.06331 0.54748 0.24226 0.0
H360 H 0.09729 0.57013 0.27752 0.0
H361 H 0.08553 0.45409 0.28505 0.0
H362 H 0.093 0.45099 0.37093 0.0
H363 H 0.95419 0.57546 0.29764 0.0
H364 H 0.9535 0.56861 0.38392 0.0
C365 C 0.06037 0.55711 0.74602 0.0
C366 C 0.07119 0.56457 0.77038 0.0
C367 C 0.0535 0.55219 0.79001 0.0
C368 C 0.03312 0.53782 0.77661 0.0
N369 N 0.03692 0.54008 0.74955 0.0
Co370 Co 0.01232 0.52255 0.72235 0.0
N371 N 0.98479 0.50558 0.75124 0.0
C372 C 0.98562 0.50848 0.77802 0.0
C373 C 0.96388 0.4943 0.79282 0.0
C374 C 0.94845 0.48133 0.77447 0.0
C375 C 0.96189 0.4883 0.74944 0.0
N376 N 0.98798 0.50472 0.6952 0.0
C377 C 0.96521 0.48717 0.69877 0.0
C378 C 0.95588 0.47861 0.67444 0.0
C379 C 0.97338 0.49114 0.65482 0.0
C380 C 0.99246 0.50645 0.66819 0.0
N381 N 0.03961 0.53979 0.69346 0.0
C382 C 0.03783 0.5376 0.66664 0.0
C383 C 0.05855 0.55251 0.65173 0.0
C384 C 0.07433 0.56523 0.67008 0.0
C385 C 0.06238 0.55719 0.69525 0.0
N386 N 0.04242 0.49716 0.72412 0.0
C387 C 0.08418 0.4605 0.7271 0.0
C388 C 0.07614 0.47021 0.70231 0.0
C389 C 0.05543 0.48841 0.70129 0.0
C390 C 0.07091 0.46948 0.7503 0.0
C391 C 0.05036 0.4876 0.74838 0.0
N392 N 0.98229 0.54802 0.72063 0.0
C393 C 0.95232 0.57527 0.69502 0.0
C394 C 0.94306 0.58625 0.71835 0.0
C395 C 0.95307 0.57735 0.74284 0.0
C396 C 0.97235 0.55838 0.74352 0.0
C397 C 0.97182 0.55635 0.6966 0.0
H398 H 0.97912 0.55261 0.76285 0.0
H399 H 0.97842 0.54897 0.67809 0.0
H400 H 0.05026 0.49508 0.68182 0.0
H401 H 0.04104 0.49344 0.76685 0.0
C402 C 0.00875 0.52328 0.78878 0.0
C403 C 0.07241 0.56732 0.72017 0.0
C404 C 0.95288 0.47733 0.72473 0.0
C405 C 0.01572 0.52193 0.65602 0.0
H406 H 0.08957 0.57793 0.7736 0.0
H407 H 0.0548 0.55388 0.81148 0.0
H408 H 0.9603 0.49305 0.81444 0.0
H409 H 0.92986 0.4679 0.77904 0.0
H410 H 0.93871 0.46443 0.67115 0.0
H411 H 0.97284 0.48892 0.63338 0.0
H412 H 0.06135 0.55429 0.63008 0.0
H413 H 0.09217 0.57916 0.66537 0.0
H414 H 0.08602 0.46401 0.68374 0.0
H415 H 0.07593 0.46232 0.77001 0.0
H416 H 0.94519 0.58156 0.67553 0.0
H417 H 0.94597 0.58491 0.76155 0.0
C418 C 0.28774 0.97988 0.56185 0.0
C419 C 0.31697 0.97211 0.56856 0.0
C420 C 0.339 0.98452 0.55239 0.0
C421 C 0.32211 0.99901 0.53668 0.0
N422 N 0.29055 0.99667 0.54181 0.0
Co423 Co 0.25728 0.01394 0.52296 0.0
N424 N 0.28982 0.03184 0.4989 0.0
C425 C 0.32131 0.02927 0.49793 0.0
C426 C 0.33762 0.04391 0.47927 0.0
C427 C 0.31531 0.05688 0.46787 0.0
C428 C 0.28657 0.04949 0.48047 0.0
N429 N 0.22409 0.03152 0.50436 0.0
C430 C 0.22716 0.04975 0.48602 0.0
C431 C 0.19802 0.058 0.47986 0.0
C432 C 0.17581 0.04453 0.49472 0.0
C433 C 0.1925 0.02903 0.50925 0.0
N434 N 0.2247 0.99587 0.54687 0.0
C435 C 0.19303 0.99748 0.54671 0.0
C436 C 0.17666 0.98297 0.56544 0.0
C437 C 0.19914 0.9712 0.57826 0.0
C438 C 0.22808 0.97915 0.56643 0.0
N439 N 0.2607 0.03891 0.54947 0.0
C440 C 0.2653 0.07574 0.5854 0.0
C441 C 0.23597 0.06568 0.57897 0.0
C442 C 0.23423 0.04739 0.56124 0.0
C443 C 0.29235 0.06679 0.57386 0.0
C444 C 0.28954 0.04856 0.55603 0.0
N445 N 0.25383 0.98887 0.49636 0.0
C446 C 0.22191 0.96242 0.47028 0.0
C447 C 0.24871 0.9522 0.46009 0.0
C448 C 0.27813 0.96082 0.46813 0.0
C449 C 0.28013 0.97904 0.48599 0.0
C450 C 0.22497 0.9805 0.48825 0.0
H451 H 0.30327 0.98477 0.49113 0.0
H452 H 0.20358 0.98725 0.49543 0.0
H453 H 0.21117 0.04048 0.55725 0.0
H454 H 0.31099 0.04272 0.54759 0.0
C455 C 0.3351 0.01414 0.51607 0.0
C456 C 0.25801 0.9702 0.57446 0.0
C457 C 0.25714 0.06045 0.47496 0.0
C458 C 0.17938 0.01305 0.52898 0.0
H459 H 0.32193 0.95858 0.58329 0.0
H460 H 0.36427 0.98284 0.55179 0.0
H461 H 0.36284 0.04541 0.47498 0.0
H462 H 0.31976 0.07058 0.45241 0.0
H463 H 0.19318 0.07263 0.46658 0.0
H464 H 0.15057 0.04637 0.49555 0.0
H465 H 0.15138 0.9812 0.56936 0.0
H466 H 0.19469 0.95821 0.5945 0.0
H467 H 0.21434 0.07176 0.58775 0.0
H468 H 0.31562 0.07412 0.5781 0.0
H469 H 0.19853 0.95622 0.46483 0.0
H470 H 0.29964 0.95372 0.46047 0.0
C471 C 0.47201 0.80029 0.06706 0.0
C472 C 0.46506 0.82152 0.07781 0.0
C473 C 0.48319 0.83847 0.06361 0.0
C474 C 0.50027 0.82668 0.04521 0.0
N475 N 0.49387 0.80323 0.04649 0.0
Co476 Co 0.51544 0.77933 0.025 0.0
N477 N 0.54318 0.80422 0.00496 0.0
C478 C 0.54223 0.82767 0.00726 0.0
C479 C 0.56256 0.84049 0.98972 0.0
C480 C 0.57725 0.82431 0.97512 0.0
C481 C 0.56518 0.80242 0.98483 0.0
N482 N 0.53782 0.75534 0.00436 0.0
C483 C 0.56148 0.75806 0.9853 0.0
C484 C 0.57119 0.7366 0.97703 0.0
C485 C 0.55257 0.71975 0.99092 0.0
C486 C 0.53287 0.73178 0.00702 0.0
N487 N 0.4869 0.75451 0.04424 0.0
C488 C 0.48555 0.73127 0.04 0.0
C489 C 0.46322 0.71862 0.05592 0.0
C490 C 0.44963 0.73471 0.07144 0.0
C491 C 0.46473 0.7563 0.06419 0.0
N492 N 0.48418 0.78194 0.99646 0.0
C493 C 0.4423 0.78594 0.95406 0.0
C494 C 0.45349 0.76429 0.96183 0.0
C495 C 0.47408 0.76269 0.98292 0.0
C496 C 0.45203 0.80549 0.96824 0.0
C497 C 0.47275 0.80311 0.98918 0.0
N498 N 0.5467 0.77675 0.05345 0.0
C499 C 0.57307 0.75336 0.08621 0.0
C500 C 0.59007 0.77316 0.09477 0.0
C501 C 0.58506 0.79478 0.08208 0.0
C502 C 0.56341 0.79618 0.06173 0.0
C503 C 0.55184 0.75551 0.06566 0.0
H504 H 0.56055 0.81319 0.05305 0.0
H505 H 0.5397 0.73973 0.06014 0.0
H506 H 0.48179 0.74569 0.98764 0.0
H507 H 0.4793 0.81873 0.99901 0.0
C508 C 0.52243 0.8371 0.02646 0.0
C509 C 0.45809 0.77776 0.07764 0.0
C510 C 0.57489 0.78048 0.97391 0.0
C511 C 0.50789 0.72157 0.02317 0.0
H512 H 0.44891 0.82448 0.09446 0.0
H513 H 0.48413 0.85714 0.06658 0.0
H514 H 0.56614 0.85936 0.98767 0.0
H515 H 0.59466 0.82828 0.95898 0.0
H516 H 0.58952 0.73343 0.96219 0.0
H517 H 0.5529 0.70097 0.98908 0.0
H518 H 0.45819 0.69985 0.05681 0.0
H519 H 0.43123 0.73091 0.08683 0.0
H520 H 0.44699 0.74862 0.95133 0.0
H521 H 0.44362 0.8226 0.96334 0.0
H522 H 0.57568 0.73622 0.09558 0.0
H523 H 0.59796 0.81062 0.08761 0.0
C524 C 0.81506 0.98834 0.57539 0.0
C525 C 0.84397 0.98166 0.58432 0.0
C526 C 0.86668 0.99475 0.56959 0.0
C527 C 0.8505 0.00848 0.55244 0.0
N528 N 0.81875 0.00518 0.55544 0.0
Co529 Co 0.78647 0.02035 0.53318 0.0
N530 N 0.8201 0.03853 0.51041 0.0
C531 C 0.85168 0.03811 0.51293 0.0
C532 C 0.86889 0.05343 0.49561 0.0
C533 C 0.84705 0.06452 0.48126 0.0
C534 C 0.81759 0.05512 0.49053 0.0
N535 N 0.75418 0.03534 0.51078 0.0
C536 C 0.7579 0.05177 0.49039 0.0
C537 C 0.72912 0.05722 0.48014 0.0
C538 C 0.70637 0.04422 0.49496 0.0
C539 C 0.72245 0.03148 0.51321 0.0
N540 N 0.75281 0.00236 0.5561 0.0
C541 C 0.7212 0.00333 0.55417 0.0
C542 C 0.70403 0.989 0.57262 0.0
C543 C 0.72592 0.97799 0.58703 0.0
C544 C 0.75533 0.98616 0.57637 0.0
N545 N 0.78537 0.04673 0.55798 0.0
C546 C 0.78361 0.08575 0.59092 0.0
C547 C 0.75587 0.07471 0.58222 0.0
C548 C 0.75728 0.05545 0.56597 0.0
C549 C 0.81227 0.07655 0.58332 0.0
C550 C 0.8126 0.05718 0.56703 0.0
N551 N 0.78751 0.99393 0.50844 0.0
C552 C 0.76012 0.96273 0.48565 0.0
C553 C 0.78863 0.95408 0.47679 0.0
C554 C 0.81661 0.96621 0.48331 0.0
C555 C 0.81552 0.98594 0.499 0.0
C556 C 0.76011 0.98249 0.5012 0.0
H557 H 0.83765 0.99421 0.50356 0.0
H558 H 0.73757 0.988 0.50735 0.0
H559 H 0.73527 0.04805 0.55997 0.0
H560 H 0.83519 0.05116 0.56178 0.0
C561 C 0.86447 0.0239 0.53257 0.0
C562 C 0.78486 0.97751 0.58574 0.0
C563 C 0.78796 0.06315 0.48052 0.0
C564 C 0.70836 0.0168 0.5338 0.0
H565 H 0.84835 0.96836 0.5995 0.0
H566 H 0.89199 0.99393 0.57078 0.0
H567 H 0.89427 0.0566 0.49409 0.0
H568 H 0.85236 0.07834 0.4661 0.0
H569 H 0.72495 0.06958 0.46387 0.0
H570 H 0.68108 0.04438 0.49302 0.0
H571 H 0.67861 0.98647 0.57492 0.0
H572 H 0.72081 0.96511 0.60329 0.0
H573 H 0.733 0.08083 0.58799 0.0
H574 H 0.83447 0.08454 0.5894 0.0
H575 H 0.73776 0.95431 0.4806 0.0
H576 H 0.83933 0.96019 0.47694 0.0
C577 C 0.47146 0.27925 0.06868 0.0
C578 C 0.45989 0.30077 0.07449 0.0
C579 C 0.4767 0.31715 0.05835 0.0
C580 C 0.49736 0.30473 0.04359 0.0
N581 N 0.49449 0.28135 0.04907 0.0
Co582 Co 0.51999 0.25677 0.03252 0.0
N583 N 0.54785 0.28112 0.01177 0.0
C584 C 0.54646 0.30466 0.01262 0.0
C585 C 0.569 0.31691 0.99654 0.0
C586 C 0.58576 0.30022 0.9846 0.0
C587 C 0.57225 0.27866 0.994 0.0
N588 N 0.54491 0.23213 0.01534 0.0
C589 C 0.56899 0.2343 0.99663 0.0
C590 C 0.5785 0.21259 0.98906 0.0
C591 C 0.5598 0.19612 0.00348 0.0
C592 C 0.5399 0.20863 0.01885 0.0
N593 N 0.49279 0.23248 0.05404 0.0
C594 C 0.49481 0.20897 0.05397 0.0
C595 C 0.47442 0.19687 0.07213 0.0
C596 C 0.4588 0.21366 0.08496 0.0
C597 C 0.47053 0.23511 0.07372 0.0
N598 N 0.49059 0.2553 0.00234 0.0
C599 C 0.45106 0.25302 0.95803 0.0
C600 C 0.45698 0.23288 0.97333 0.0
C601 C 0.47659 0.2344 0.99517 0.0
C602 C 0.46495 0.27436 0.96557 0.0
C603 C 0.48433 0.2751 0.98759 0.0
N604 N 0.54929 0.25823 0.06259 0.0
C605 C 0.58069 0.23884 0.09529 0.0
C606 C 0.58814 0.26006 0.10715 0.0
C607 C 0.57633 0.2804 0.09603 0.0
C608 C 0.55733 0.27913 0.07381 0.0
C609 C 0.56126 0.23831 0.07328 0.0
H610 H 0.54922 0.29527 0.06619 0.0
H611 H 0.55592 0.22153 0.06546 0.0
H612 H 0.48015 0.21837 0.00581 0.0
H613 H 0.49419 0.29193 0.99206 0.0
C614 C 0.52226 0.31468 0.02712 0.0
C615 C 0.46098 0.25751 0.08329 0.0
C616 C 0.58296 0.25641 0.98492 0.0
C617 C 0.51675 0.19883 0.03716 0.0
H618 H 0.44183 0.3043 0.08944 0.0
H619 H 0.47503 0.33597 0.05826 0.0
H620 H 0.57241 0.33572 0.99341 0.0
H621 H 0.6054 0.30354 0.97026 0.0
H622 H 0.59688 0.20899 0.97443 0.0
H623 H 0.56053 0.17727 0.00276 0.0
H624 H 0.47179 0.17811 0.07602 0.0
H625 H 0.44127 0.21048 0.10117 0.0
H626 H 0.44636 0.21594 0.96865 0.0
H627 H 0.46146 0.29048 0.95424 0.0
H628 H 0.58918 0.22261 0.10334 0.0
H629 H 0.5819 0.2973 0.10432 0.0
H630 H 0.18868 0.37368 0.29822 0.0
H631 H 0.14199 0.33776 0.36759 0.0
H632 H 0.109 0.3709 0.37395 0.0
H633 H 0.09257 0.40978 0.35918 0.0
H634 H 0.1404 0.44592 0.29047 0.0
H635 H 0.17393 0.41307 0.28467 0.0
C636 C 0.17162 0.3732 0.31498 0.0
C637 C 0.16785 0.35319 0.33236 0.0
C638 C 0.15283 0.39236 0.31861 0.0
C639 C 0.14514 0.35277 0.35366 0.0
C640 C 0.12637 0.37178 0.35742 0.0
C641 C 0.11061 0.4106 0.34316 0.0
C642 C 0.11382 0.43027 0.32521 0.0
C643 C 0.12989 0.39163 0.33993 0.0
C644 C 0.13706 0.43087 0.30433 0.0
C645 C 0.15636 0.41213 0.30106 0.0
H646 H 0.17938 0.64867 0.71256 0.0
H647 H 0.10214 0.68777 0.7421 0.0
H648 H 0.06653 0.65289 0.74112 0.0
H649 H 0.0575 0.61084 0.73313 0.0
H650 H 0.13494 0.57134 0.70565 0.0
H651 H 0.17051 0.60669 0.70493 0.0
C652 C 0.15483 0.64955 0.719 0.0
C653 C 0.14354 0.6709 0.72736 0.0
C654 C 0.13455 0.62931 0.71885 0.0
C655 C 0.11145 0.67173 0.73516 0.0
C656 C 0.09108 0.65173 0.73482 0.0
C657 C 0.08219 0.61013 0.72696 0.0
C658 C 0.09379 0.58878 0.71932 0.0
C659 C 0.10239 0.63041 0.72685 0.0
C660 C 0.1257 0.58777 0.71144 0.0
C661 C 0.14593 0.60791 0.71108 0.0
H662 H 0.88901 0.67168 0.35799 0.0
H663 H 0.83523 0.64794 0.29147 0.0
H664 H 0.86231 0.61147 0.29194 0.0
H665 H 0.90232 0.58675 0.31022 0.0
H666 H 0.95776 0.61093 0.37554 0.0
H667 H 0.92882 0.64662 0.37667 0.0
C668 C 0.88332 0.65858 0.34352 0.0
C669 C 0.86006 0.66261 0.32475 0.0
C670 C 0.89924 0.63766 0.3437 0.0
C671 C 0.85269 0.64523 0.3064 0.0
C672 C 0.86832 0.6244 0.30652 0.0
C673 C 0.90821 0.59987 0.32463 0.0
C674 C 0.9323 0.59614 0.34269 0.0
C675 C 0.89178 0.6205 0.32494 0.0
C676 C 0.93912 0.61317 0.36159 0.0
C677 C 0.92274 0.6337 0.36211 0.0
H678 H 0.84972 0.39353 0.72463 0.0
H679 H 0.92481 0.35702 0.7607 0.0
H680 H 0.95916 0.39267 0.75655 0.0
H681 H 0.96767 0.43462 0.74357 0.0
H682 H 0.89209 0.47157 0.70957 0.0
H683 H 0.85788 0.43549 0.71237 0.0
C684 C 0.87348 0.39338 0.73183 0.0
C685 C 0.88458 0.37251 0.74292 0.0
C686 C 0.89299 0.41407 0.72981 0.0
C687 C 0.91571 0.37265 0.75168 0.0
C688 C 0.93535 0.39311 0.74951 0.0
C689 C 0.94368 0.43462 0.73679 0.0
C690 C 0.93227 0.45545 0.72622 0.0
C691 C 0.92421 0.41392 0.73871 0.0
C692 C 0.90122 0.45554 0.71758 0.0
C693 C 0.88176 0.43498 0.71922 0.0
H694 H 0.27626 0.1622 0.42069 0.0
H695 H 0.22143 0.12942 0.35999 0.0
H696 H 0.21861 0.09223 0.38618 0.0
H697 H 0.23257 0.06885 0.42617 0.0
H698 H 0.28456 0.10222 0.48808 0.0
H699 H 0.28812 0.13931 0.46158 0.0
C700 C 0.26376 0.14686 0.41326 0.0
C701 C 0.24917 0.14843 0.38847 0.0
C702 C 0.26184 0.12569 0.42861 0.0
C703 C 0.23269 0.12859 0.37911 0.0
C704 C 0.23118 0.10734 0.39401 0.0
C705 C 0.24436 0.08437 0.43386 0.0
C706 C 0.25814 0.08301 0.45899 0.0
C707 C 0.2457 0.10567 0.41877 0.0
C708 C 0.27374 0.10303 0.46876 0.0
C709 C 0.27575 0.12416 0.45365 0.0
H710 H 0.36777 0.80732 0.8491 0.0
H711 H 0.31973 0.74131 0.87445 0.0
H712 H 0.35174 0.73919 0.91404 0.0
H713 H 0.39388 0.7557 0.94107 0.0
H714 H 0.44324 0.82112 0.91514 0.0
H715 H 0.4097 0.82413 0.87661 0.0
C716 C 0.36413 0.79261 0.86345 0.0
C717 C 0.34152 0.77446 0.85878 0.0
C718 C 0.38277 0.79142 0.88613 0.0
C719 C 0.33728 0.75536 0.87741 0.0
C720 C 0.35547 0.75418 0.9001 0.0
C721 C 0.3975 0.77055 0.92691 0.0
C722 C 0.42114 0.78811 0.93105 0.0
C723 C 0.37848 0.772 0.90454 0.0
C724 C 0.425 0.80746 0.91271 0.0
C725 C 0.40596 0.80913 0.89052 0.0
H726 H 0.76934 0.85727 0.42094 0.0
H727 H 0.84407 0.88878 0.36827 0.0
H728 H 0.8464 0.92362 0.39514 0.0
H729 H 0.82609 0.94565 0.43291 0.0
H730 H 0.75179 0.91372 0.48578 0.0
H731 H 0.75052 0.87857 0.45958 0.0
C732 C 0.78646 0.87161 0.41555 0.0
C733 C 0.80647 0.87039 0.39259 0.0
C734 C 0.78763 0.89161 0.43105 0.0
C735 C 0.82814 0.88935 0.38566 0.0
C736 C 0.82957 0.90925 0.40108 0.0
C737 C 0.80987 0.9309 0.43887 0.0
C738 C 0.78893 0.93243 0.46119 0.0
C739 C 0.80926 0.91066 0.4237 0.0
C740 C 0.76781 0.91321 0.46844 0.0
C741 C 0.76717 0.89303 0.45355 0.0
H742 H 0.69941 0.25116 0.90344 0.0
H743 H 0.63015 0.2726 0.8477 0.0
H744 H 0.59035 0.27245 0.88429 0.0
H745 H 0.57521 0.26664 0.93238 0.0
H746 H 0.64438 0.24591 0.98818 0.0
H747 H 0.68444 0.24563 0.95146 0.0
C748 C 0.67568 0.25599 0.89932 0.0
C749 C 0.66782 0.26185 0.87283 0.0
C750 C 0.65294 0.25604 0.9205 0.0
C751 C 0.63678 0.2677 0.86782 0.0
C752 C 0.61403 0.26777 0.88876 0.0
C753 C 0.59912 0.2621 0.93632 0.0
C754 C 0.60712 0.25628 0.96268 0.0
C755 C 0.62184 0.262 0.91516 0.0
C756 C 0.63797 0.25039 0.96788 0.0
C757 C 0.66074 0.25025 0.94695 0.0
H758 H 0.27138 0.89683 0.67061 0.0
H759 H 0.22252 0.85179 0.61622 0.0
H760 H 0.22202 0.88419 0.58314 0.0
H761 H 0.23532 0.9255 0.56946 0.0
H762 H 0.28088 0.97114 0.62471 0.0
H763 H 0.28235 0.93846 0.65786 0.0
C764 C 0.26021 0.8941 0.6517 0.0
C765 C 0.24722 0.87172 0.646 0.0
C766 C 0.25937 0.91298 0.6329 0.0
C767 C 0.23334 0.8686 0.62108 0.0
C768 C 0.23278 0.8872 0.60216 0.0
C769 C 0.24541 0.92818 0.58885 0.0
C770 C 0.25813 0.95048 0.59476 0.0
C771 C 0.24577 0.90943 0.60783 0.0
C772 C 0.27113 0.95398 0.61984 0.0
C773 C 0.27194 0.93535 0.63872 0.0
H774 H 0.68969 0.74977 0.18182 0.0
H775 H 0.66194 0.81592 0.21085 0.0
H776 H 0.6256 0.81966 0.17424 0.0
H777 H 0.60094 0.80372 0.1346 0.0
H778 H 0.63022 0.7382 0.10458 0.0
H779 H 0.66617 0.73441 0.14129 0.0
C780 C 0.67554 0.76493 0.18018 0.0
C781 C 0.67843 0.78251 0.19903 0.0
C782 C 0.65483 0.76702 0.15901 0.0
C783 C 0.66032 0.80224 0.19645 0.0
C784 C 0.63944 0.80434 0.1756 0.0
C785 C 0.61546 0.78875 0.13582 0.0
C786 C 0.61265 0.77124 0.11681 0.0
C787 C 0.63649 0.78682 0.15678 0.0
C788 C 0.63137 0.75177 0.11912 0.0
C789 C 0.65215 0.74964 0.14003 0.0
H790 H 0.76029 0.17913 0.65071 0.0
H791 H 0.83411 0.15367 0.69923 0.0
H792 H 0.83788 0.11969 0.67128 0.0
H793 H 0.81913 0.09661 0.63379 0.0
H794 H 0.74556 0.12244 0.58514 0.0
H795 H 0.74234 0.15655 0.61275 0.0
C796 C 0.77706 0.16607 0.65528 0.0
C797 C 0.79682 0.16893 0.67707 0.0
C798 C 0.77901 0.14653 0.63921 0.0
C799 C 0.81882 0.15203 0.68242 0.0
C800 C 0.82088 0.13252 0.66653 0.0
C801 C 0.80263 0.10982 0.62904 0.0
C802 C 0.78249 0.10682 0.60749 0.0
C803 C 0.80102 0.12954 0.64492 0.0
C804 C 0.76097 0.12403 0.60187 0.0
C805 C 0.75923 0.14365 0.61756 0.0
H806 H 0.39992 0.26668 0.1994 0.0
H807 H 0.31669 0.24241 0.15926 0.0
H808 H 0.34749 0.24117 0.11708 0.0
H809 H 0.39839 0.24666 0.0915 0.0
H810 H 0.48155 0.27058 0.13153 0.0
H811 H 0.45068 0.27214 0.17393 0.0
C812 C 0.38858 0.26094 0.18147 0.0
C813 C 0.35603 0.25467 0.18252 0.0
C814 C 0.40647 0.26019 0.15728 0.0
C815 C 0.34162 0.24762 0.15897 0.0
C816 C 0.35924 0.24678 0.13486 0.0
C817 C 0.40956 0.25215 0.10962 0.0
C818 C 0.442 0.25837 0.10875 0.0
C819 C 0.39166 0.253 0.13377 0.0
C820 C 0.45652 0.26566 0.13204 0.0
C821 C 0.43891 0.26653 0.15617 0.0
H822 H 0.8438 0.66417 0.7062 0.0
H823 H 0.90363 0.69707 0.76366 0.0
H824 H 0.93798 0.66434 0.7625 0.0
H825 H 0.95059 0.62606 0.74595 0.0
H826 H 0.89123 0.59292 0.68841 0.0
H827 H 0.85765 0.62632 0.68829 0.0
C828 C 0.86457 0.66432 0.71821 0.0
C829 C 0.87091 0.68301 0.73517 0.0
C830 C 0.88437 0.64542 0.71739 0.0
C831 C 0.8978 0.68276 0.7508 0.0
C832 C 0.91759 0.66409 0.75004 0.0
C833 C 0.9302 0.62608 0.73348 0.0
C834 C 0.92331 0.60693 0.71737 0.0
C835 C 0.91093 0.64523 0.73364 0.0
C836 C 0.89719 0.60748 0.70089 0.0
C837 C 0.87787 0.62652 0.70092 0.0
H838 H 0.85924 0.38088 0.34426 0.0
H839 H 0.9353 0.34675 0.30503 0.0
H840 H 0.96922 0.38263 0.30613 0.0
H841 H 0.97716 0.42397 0.31791 0.0
H842 H 0.90088 0.45843 0.356 0.0
H843 H 0.86714 0.42219 0.35598 0.0
C844 C 0.88334 0.38125 0.3362 0.0
C845 C 0.89475 0.36117 0.32462 0.0
C846 C 0.90263 0.40201 0.33672 0.0
C847 C 0.92588 0.36203 0.31386 0.0
C848 C 0.94532 0.38251 0.31456 0.0
C849 C 0.95314 0.42339 0.32622 0.0
C850 C 0.94142 0.44358 0.33715 0.0
C851 C 0.93391 0.40262 0.32583 0.0
C852 C 0.91029 0.44291 0.34772 0.0
C853 C 0.89108 0.42226 0.34765 0.0
H854 H 0.18107 0.38387 0.75431 0.0
H855 H 0.13746 0.35099 0.68756 0.0
H856 H 0.10463 0.38443 0.68123 0.0
H857 H 0.08671 0.42228 0.69599 0.0
H858 H 0.13091 0.45506 0.76262 0.0
H859 H 0.16469 0.42224 0.76791 0.0
C860 C 0.16426 0.38397 0.73846 0.0
C861 C 0.16159 0.3649 0.72155 0.0
C862 C 0.14542 0.40318 0.735 0.0
C863 C 0.14014 0.36551 0.70076 0.0
C864 C 0.12125 0.38458 0.69721 0.0
C865 C 0.10401 0.4224 0.71143 0.0
C866 C 0.10602 0.44107 0.72902 0.0
C867 C 0.12353 0.40345 0.71434 0.0
C868 C 0.12841 0.44076 0.74911 0.0
C869 C 0.14788 0.42204 0.75208 0.0
H870 H 0.18433 0.64014 0.33114 0.0
H871 H 0.10737 0.67834 0.3012 0.0
H872 H 0.07252 0.6428 0.30546 0.0
H873 H 0.06414 0.60058 0.31692 0.0
H874 H 0.14141 0.56192 0.34499 0.0
H875 H 0.17596 0.59784 0.34252 0.0
C876 C 0.15984 0.64068 0.32581 0.0
C877 C 0.1484 0.66181 0.3159 0.0
C878 C 0.14006 0.62009 0.32797 0.0
C879 C 0.11675 0.66222 0.30869 0.0
C880 C 0.09681 0.64194 0.31118 0.0
C881 C 0.08855 0.60017 0.32253 0.0
C882 C 0.10033 0.57887 0.33134 0.0
C883 C 0.10825 0.62075 0.32062 0.0
C884 C 0.13195 0.57828 0.3384 0.0
C885 C 0.15163 0.59876 0.33693 0.0
H886 H 0.79309 0.90153 0.68 0.0
H887 H 0.75182 0.85733 0.62074 0.0
H888 H 0.75282 0.89068 0.58877 0.0
H889 H 0.76499 0.93266 0.57755 0.0
H890 H 0.80281 0.97724 0.63759 0.0
H891 H 0.80297 0.94361 0.66957 0.0
C892 C 0.78389 0.89916 0.66025 0.0
C893 C 0.77254 0.87677 0.65291 0.0
C894 C 0.78382 0.91855 0.64209 0.0
C895 C 0.76131 0.87415 0.62692 0.0
C896 C 0.76159 0.89329 0.60862 0.0
C897 C 0.77314 0.93489 0.5977 0.0
C898 C 0.78413 0.95718 0.6053 0.0
C899 C 0.77278 0.91556 0.61598 0.0
C900 C 0.79451 0.9601 0.6314 0.0
C901 C 0.79457 0.94092 0.64961 0.0
H902 H 0.65574 0.27377 0.21673 0.0
H903 H 0.72268 0.23052 0.17847 0.0
H904 H 0.69037 0.22842 0.13895 0.0
H905 H 0.64318 0.23913 0.11514 0.0
H906 H 0.57687 0.28313 0.15304 0.0
H907 H 0.60878 0.28473 0.19279 0.0
C908 C 0.66309 0.26376 0.1998 0.0
C909 C 0.69148 0.25227 0.20052 0.0
C910 C 0.64456 0.26284 0.17706 0.0
C911 C 0.70101 0.23965 0.17829 0.0
C912 C 0.68251 0.23838 0.15574 0.0
C913 C 0.63566 0.24894 0.13219 0.0
C914 C 0.60772 0.26097 0.13117 0.0
C915 C 0.65426 0.24993 0.15489 0.0
C916 C 0.59846 0.27389 0.15325 0.0
C917 C 0.61661 0.27473 0.17602 0.0
H918 H 0.28928 0.15115 0.67303 0.0
H919 H 0.21456 0.18355 0.63149 0.0
H920 H 0.2115 0.1513 0.60098 0.0
H921 H 0.23014 0.11401 0.58577 0.0
H922 H 0.30563 0.08193 0.62639 0.0
H923 H 0.30882 0.11424 0.65709 0.0
C924 C 0.27255 0.15132 0.65713 0.0
C925 C 0.25206 0.16977 0.65476 0.0
C926 C 0.27114 0.13281 0.63937 0.0
C927 C 0.23025 0.16943 0.63419 0.0
C928 C 0.22861 0.15105 0.61657 0.0
C929 C 0.24714 0.11401 0.60147 0.0
C930 C 0.26752 0.09554 0.60384 0.0
C931 C 0.24885 0.13262 0.61902 0.0
C932 C 0.28983 0.09602 0.62398 0.0
C933 C 0.29156 0.11443 0.64163 0.0
H934 H 0.39061 0.76229 0.19232 0.0
H935 H 0.31609 0.79531 0.15136 0.0
H936 H 0.34901 0.79915 0.11 0.0
H937 H 0.39887 0.79244 0.08515 0.0
H938 H 0.47329 0.75964 0.12614 0.0
H939 H 0.44053 0.7561 0.16777 0.0
C940 C 0.38152 0.77019 0.17429 0.0
C941 C 0.35093 0.77846 0.17491 0.0
C942 C 0.40057 0.77234 0.1506 0.0
C943 C 0.33967 0.78901 0.15148 0.0
C944 C 0.35841 0.7911 0.1278 0.0
C945 C 0.40779 0.78467 0.10333 0.0
C946 C 0.43829 0.77639 0.10288 0.0
C947 C 0.38887 0.78279 0.1271 0.0
C948 C 0.44981 0.76616 0.12628 0.0
C949 C 0.43112 0.76414 0.14998 0.0
H950 H 0.80352 0.14 0.38565 0.0
H951 H 0.75494 0.18005 0.44402 0.0
H952 H 0.75257 0.14651 0.47621 0.0
H953 H 0.76526 0.10587 0.48799 0.0
H954 H 0.8111 0.06518 0.42876 0.0
H955 H 0.81378 0.0988 0.39661 0.0
C956 C 0.79252 0.14133 0.40547 0.0
C957 C 0.77963 0.16244 0.41259 0.0
C958 C 0.79082 0.12188 0.42365 0.0
C959 C 0.76496 0.16392 0.43813 0.0
C960 C 0.76367 0.14479 0.45652 0.0
C961 C 0.77567 0.10446 0.46797 0.0
C962 C 0.78834 0.08333 0.46071 0.0
C963 C 0.77661 0.12371 0.44954 0.0
C964 C 0.80156 0.08145 0.43473 0.0
C965 C 0.80305 0.10062 0.41642 0.0
H966 H 0.37569 0.23392 0.85313 0.0
H967 H 0.33675 0.29925 0.87388 0.0
H968 H 0.36885 0.30085 0.91336 0.0
H969 H 0.40799 0.28382 0.94205 0.0
H970 H 0.44871 0.21935 0.92041 0.0
H971 H 0.41585 0.21731 0.88136 0.0
C972 C 0.37444 0.24863 0.86613 0.0
C973 C 0.35369 0.26638 0.86051 0.0
C974 C 0.39321 0.24957 0.88875 0.0
C975 C 0.35209 0.28513 0.87788 0.0
C976 C 0.3706 0.28615 0.90041 0.0
C977 C 0.40995 0.26943 0.92867 0.0
C978 C 0.43084 0.25177 0.93427 0.0
C979 C 0.39124 0.26848 0.90605 0.0
C980 C 0.43255 0.23304 0.91689 0.0
C981 C 0.41391 0.23192 0.89441 0.0
H982 H 0.22203 0.87831 0.3713 0.0
H983 H 0.29235 0.84221 0.41436 0.0
H984 H 0.2965 0.87395 0.44566 0.0
H985 H 0.28054 0.91216 0.46061 0.0
H986 H 0.2106 0.94843 0.41731 0.0
H987 H 0.20598 0.91647 0.38631 0.0
C988 C 0.23842 0.87746 0.38743 0.0
C989 C 0.25687 0.85789 0.39043 0.0
C990 C 0.24076 0.89581 0.40533 0.0
C991 C 0.2776 0.85691 0.41174 0.0
C992 C 0.28014 0.87513 0.42956 0.0
C993 C 0.26447 0.91315 0.44426 0.0
C994 C 0.246 0.9327 0.44127 0.0
C995 C 0.26191 0.8947 0.42651 0.0
C996 C 0.22488 0.9335 0.42024 0.0
C997 C 0.22233 0.91528 0.40242 0.0
H998 H 0.68712 0.7885 0.88666 0.0
H999 H 0.61419 0.75885 0.8382 0.0
H1000 H 0.57635 0.75828 0.87644 0.0
H1001 H 0.56386 0.76664 0.92368 0.0
H1002 H 0.6371 0.79498 0.97252 0.0
H1003 H 0.67499 0.79594 0.93412 0.0
C1004 C 0.66289 0.78205 0.88448 0.0
C1005 C 0.65341 0.77381 0.85965 0.0
C1006 C 0.64136 0.78163 0.90658 0.0
C1007 C 0.62208 0.76513 0.85718 0.0
C1008 C 0.60042 0.7649 0.87898 0.0
C1009 C 0.58817 0.77297 0.92576 0.0
C1010 C 0.59783 0.78091 0.95062 0.0
C1011 C 0.60979 0.77313 0.90376 0.0
C1012 C 0.62929 0.78899 0.95339 0.0
C1013 C 0.65087 0.78948 0.93151 0.0
loop_
_geom_bond_atom_site_label_1
_geom_bond_atom_site_label_2
_geom_bond_distance
_geom_bond_site_symmetry_2
_ccdc_geom_bond_type
C0 C1 1.386 . S
C0 C2 1.397 . S
C0 H24 0.931 . S
C1 C0 1.386 . S
C1 C5 1.397 . S
C2 C0 1.397 . S
C2 C3 1.384 . S
C2 H25 0.930 . S
C3 C2 1.384 . S
C3 C4 1.377 . S
C3 C6 1.481 . S
C4 C3 1.377 . S
C4 C5 1.389 . S
C4 H26 0.929 . S
C5 C1 1.397 . S
C5 C4 1.389 . S
C5 H27 0.931 . S
C6 C3 1.481 . S
C6 C7 1.387 . S
C6 C11 1.390 . S
C7 C6 1.387 . S
C7 C8 1.401 . S
C7 H28 0.930 . S
C8 C7 1.401 . S
C8 C9 1.376 . S
C8 C17 1.511 . S
C9 C8 1.376 . S
C9 C10 1.392 . S
C9 H30 0.931 . S
C10 C9 1.392 . S
C10 C11 1.361 . S
C10 C12 1.500 . S
C11 C6 1.390 . S
C11 C10 1.361 . S
C11 H29 0.931 . S
C12 C10 1.500 . S
C12 C13 1.371 . S
C12 C14 1.365 . S
C13 C12 1.371 . S
C13 C23 1.386 . S
C13 H31 0.931 . S
C14 C12 1.365 . S
C14 C15 1.409 . S
C14 H32 0.929 . S
C15 C14 1.409 . S
C15 C16 1.380 . S
C15 H33 0.930 . S
C16 C15 1.380 . S
C16 C23 1.357 . S
C17 C8 1.511 . S
C17 C18 1.341 . S
C17 C19 1.371 . S
C18 C17 1.341 . S
C18 C22 1.394 . S
C18 H34 0.930 . S
C19 C17 1.371 . S
C19 C20 1.392 . S
C19 H35 0.931 . S
C20 C19 1.392 . S
C20 C21 1.331 . S
C20 H38 0.932 . S
C21 C20 1.331 . S
C21 C22 1.336 . S
C22 C18 1.394 . S
C22 C21 1.336 . S
C22 H37 0.929 . S
C23 C13 1.386 . S
C23 C16 1.357 . S
C23 H36 0.928 . S
H24 C0 0.931 . S
H25 C2 0.930 . S
H26 C4 0.929 . S
H27 C5 0.931 . S
H28 C7 0.930 . S
H29 C11 0.931 . S
H30 C9 0.931 . S
H31 C13 0.931 . S
H32 C14 0.929 . S
H33 C15 0.930 . S
H34 C18 0.930 . S
H35 C19 0.931 . S
H36 C23 0.928 . S
H37 C22 0.929 . S
H38 C20 0.932 . S
C39 C40 1.386 . S
C39 C41 1.397 . S
C39 H63 0.931 . S
C40 C39 1.386 . S
C40 C44 1.397 . S
C41 C39 1.397 . S
C41 C42 1.384 . S
C41 H64 0.930 . S
C42 C41 1.384 . S
C42 C43 1.377 . S
C42 C45 1.481 . S
C43 C42 1.377 . S
C43 C44 1.389 . S
C43 H65 0.929 . S
C44 C40 1.397 . S
C44 C43 1.389 . S
C44 H66 0.931 . S
C45 C42 1.481 . S
C45 C46 1.387 . S
C45 C50 1.390 . S
C46 C45 1.387 . S
C46 C47 1.401 . S
C46 H67 0.930 . S
C47 C46 1.401 . S
C47 C48 1.376 . S
C47 C56 1.511 . S
C48 C47 1.376 . S
C48 C49 1.392 . S
C48 H69 0.931 . S
C49 C48 1.392 . S
C49 C50 1.361 . S
C49 C51 1.500 . S
C50 C45 1.390 . S
C50 C49 1.361 . S
C50 H68 0.931 . S
C51 C49 1.500 . S
C51 C52 1.371 . S
C51 C53 1.365 . S
C52 C51 1.371 . S
C52 C62 1.386 . S
C52 H70 0.931 . S
C53 C51 1.365 . S
C53 C54 1.409 . S
C53 H71 0.929 . S
C54 C53 1.409 . S
C54 C55 1.380 . S
C54 H72 0.930 . S
C55 C54 1.380 . S
C55 C62 1.357 . S
C56 C47 1.511 . S
C56 C57 1.341 . S
C56 C58 1.371 . S
C57 C56 1.341 . S
C57 C61 1.394 . S
C57 H73 0.930 . S
C58 C56 1.371 . S
C58 C59 1.392 . S
C58 H74 0.931 . S
C59 C58 1.392 . S
C59 C60 1.331 . S
C59 H77 0.932 . S
C60 C59 1.331 . S
C60 C61 1.336 . S
C61 C57 1.394 . S
C61 C60 1.336 . S
C61 H76 0.929 . S
C62 C52 1.386 . S
C62 C55 1.357 . S
C62 H75 0.928 . S
H63 C39 0.931 . S
H64 C41 0.930 . S
H65 C43 0.929 . S
H66 C44 0.931 . S
H67 C46 0.930 . S
H68 C50 0.931 . S
H69 C48 0.931 . S
H70 C52 0.931 . S
H71 C53 0.929 . S
H72 C54 0.930 . S
H73 C57 0.930 . S
H74 C58 0.931 . S
H75 C62 0.928 . S
H76 C61 0.929 . S
H77 C59 0.932 . S
C78 C79 1.386 . S
C78 C80 1.397 . S
C78 H102 0.931 . S
C79 C78 1.386 . S
C79 C83 1.397 . S
C80 C78 1.397 . S
C80 C81 1.384 . S
C80 H103 0.930 . S
C81 C80 1.384 . S
C81 C82 1.377 . S
C81 C84 1.481 . S
C82 C81 1.377 . S
C82 C83 1.389 . S
C82 H104 0.929 . S
C83 C79 1.397 . S
C83 C82 1.389 . S
C83 H105 0.931 . S
C84 C81 1.481 . S
C84 C85 1.387 . S
C84 C89 1.390 . S
C85 C84 1.387 . S
C85 C86 1.401 . S
C85 H106 0.930 . S
C86 C85 1.401 . S
C86 C87 1.376 . S
C86 C95 1.511 . S
C87 C86 1.376 . S
C87 C88 1.392 . S
C87 H108 0.931 . S
C88 C87 1.392 . S
C88 C89 1.361 . S
C88 C90 1.500 . S
C89 C84 1.390 . S
C89 C88 1.361 . S
C89 H107 0.931 . S
C90 C88 1.500 . S
C90 C91 1.371 . S
C90 C92 1.365 . S
C91 C90 1.371 . S
C91 C101 1.386 . S
C91 H109 0.931 . S
C92 C90 1.365 . S
C92 C93 1.409 . S
C92 H110 0.929 . S
C93 C92 1.409 . S
C93 C94 1.380 . S
C93 H111 0.930 . S
C94 C93 1.380 . S
C94 C101 1.357 . S
C95 C86 1.511 . S
C95 C96 1.341 . S
C95 C97 1.371 . S
C96 C95 1.341 . S
C96 C100 1.394 . S
C96 H112 0.930 . S
C97 C95 1.371 . S
C97 C98 1.392 . S
C97 H113 0.931 . S
C98 C97 1.392 . S
C98 C99 1.331 . S
C98 H116 0.932 . S
C99 C98 1.331 . S
C99 C100 1.336 . S
C100 C96 1.394 . S
C100 C99 1.336 . S
C100 H115 0.929 . S
C101 C91 1.386 . S
C101 C94 1.357 . S
C101 H114 0.928 . S
H102 C78 0.931 . S
H103 C80 0.930 . S
H104 C82 0.929 . S
H105 C83 0.931 . S
H106 C85 0.930 . S
H107 C89 0.931 . S
H108 C87 0.931 . S
H109 C91 0.931 . S
H110 C92 0.929 . S
H111 C93 0.930 . S
H112 C96 0.930 . S
H113 C97 0.931 . S
H114 C101 0.928 . S
H115 C100 0.929 . S
H116 C98 0.932 . S
C117 C118 1.386 . S
C117 C119 1.397 . S
C117 H141 0.931 . S
C118 C117 1.386 . S
C118 C122 1.397 . S
C119 C117 1.397 . S
C119 C120 1.384 . S
C119 H142 0.930 . S
C120 C119 1.384 . S
C120 C121 1.377 . S
C120 C123 1.481 . S
C121 C120 1.377 . S
C121 C122 1.389 . S
C121 H143 0.929 . S
C122 C118 1.397 . S
C122 C121 1.389 . S
C122 H144 0.931 . S
C123 C120 1.481 . S
C123 C124 1.387 . S
C123 C128 1.390 . S
C124 C123 1.387 . S
C124 C125 1.401 . S
C124 H145 0.930 . S
C125 C124 1.401 . S
C125 C126 1.376 . S
C125 C134 1.511 . S
C126 C125 1.376 . S
C126 C127 1.392 . S
C126 H147 0.931 . S
C127 C126 1.392 . S
C127 C128 1.361 . S
C127 C129 1.500 . S
C128 C123 1.390 . S
C128 C127 1.361 . S
C128 H146 0.931 . S
C129 C127 1.500 . S
C129 C130 1.371 . S
C129 C131 1.365 . S
C130 C129 1.371 . S
C130 C140 1.386 . S
C130 H148 0.931 . S
C131 C129 1.365 . S
C131 C132 1.409 . S
C131 H149 0.929 . S
C132 C131 1.409 . S
C132 C133 1.380 . S
C132 H150 0.930 . S
C133 C132 1.380 . S
C133 C140 1.357 . S
C134 C125 1.511 . S
C134 C135 1.341 . S
C134 C136 1.371 . S
C135 C134 1.341 . S
C135 C139 1.394 . S
C135 H151 0.930 . S
C136 C134 1.371 . S
C136 C137 1.392 . S
C136 H152 0.931 . S
C137 C136 1.392 . S
C137 C138 1.331 . S
C137 H155 0.932 . S
C138 C137 1.331 . S
C138 C139 1.336 . S
C139 C135 1.394 . S
C139 C138 1.336 . S
C139 H154 0.929 . S
C140 C130 1.386 . S
C140 C133 1.357 . S
C140 H153 0.928 . S
H141 C117 0.931 . S
H142 C119 0.930 . S
H143 C121 0.929 . S
H144 C122 0.931 . S
H145 C124 0.930 . S
H146 C128 0.931 . S
H147 C126 0.931 . S
H148 C130 0.931 . S
H149 C131 0.929 . S
H150 C132 0.930 . S
H151 C135 0.930 . S
H152 C136 0.931 . S
H153 C140 0.928 . S
H154 C139 0.929 . S
H155 C137 0.932 . S
C156 C157 1.386 . S
C156 C158 1.397 . S
C156 H180 0.931 . S
C157 C156 1.386 . S
C157 C161 1.397 . S
C158 C156 1.397 . S
C158 C159 1.384 . S
C158 H181 0.930 . S
C159 C158 1.384 . S
C159 C160 1.377 . S
C159 C162 1.481 . S
C160 C159 1.377 . S
C160 C161 1.389 . S
C160 H182 0.929 . S
C161 C157 1.397 . S
C161 C160 1.389 . S
C161 H183 0.931 . S
C162 C159 1.481 . S
C162 C163 1.387 . S
C162 C167 1.390 . S
C163 C162 1.387 . S
C163 C164 1.401 . S
C163 H184 0.930 . S
C164 C163 1.401 . S
C164 C165 1.376 . S
C164 C173 1.511 . S
C165 C164 1.376 . S
C165 C166 1.392 . S
C165 H186 0.931 . S
C166 C165 1.392 . S
C166 C167 1.361 . S
C166 C168 1.500 . S
C167 C162 1.390 . S
C167 C166 1.361 . S
C167 H185 0.931 . S
C168 C166 1.500 . S
C168 C169 1.371 . S
C168 C170 1.365 . S
C169 C168 1.371 . S
C169 C179 1.386 . S
C169 H187 0.931 . S
C170 C168 1.365 . S
C170 C171 1.409 . S
C170 H188 0.929 . S
C171 C170 1.409 . S
C171 C172 1.380 . S
C171 H189 0.930 . S
C172 C171 1.380 . S
C172 C179 1.357 . S
C173 C164 1.511 . S
C173 C174 1.341 . S
C173 C175 1.371 . S
C174 C173 1.341 . S
C174 C178 1.394 . S
C174 H190 0.930 . S
C175 C173 1.371 . S
C175 C176 1.392 . S
C175 H191 0.931 . S
C176 C175 1.392 . S
C176 C177 1.331 . S
C176 H194 0.932 . S
C177 C176 1.331 . S
C177 C178 1.336 . S
C178 C174 1.394 . S
C178 C177 1.336 . S
C178 H193 0.929 . S
C179 C169 1.386 . S
C179 C172 1.357 . S
C179 H192 0.928 . S
H180 C156 0.931 . S
H181 C158 0.930 . S
H182 C160 0.929 . S
H183 C161 0.931 . S
H184 C163 0.930 . S
H185 C167 0.931 . S
H186 C165 0.931 . S
H187 C169 0.931 . S
H188 C170 0.929 . S
H189 C171 0.930 . S
H190 C174 0.930 . S
H191 C175 0.931 . S
H192 C179 0.928 . S
H193 C178 0.929 . S
H194 C176 0.932 . S
C195 C196 1.386 . S
C195 C197 1.397 . S
C195 H219 0.931 . S
C196 C195 1.386 . S
C196 C200 1.397 . S
C197 C195 1.397 . S
C197 C198 1.384 . S
C197 H220 0.930 . S
C198 C197 1.384 . S
C198 C199 1.377 . S
C198 C201 1.481 . S
C199 C198 1.377 . S
C199 C200 1.389 . S
C199 H221 0.929 . S
C200 C196 1.397 . S
C200 C199 1.389 . S
C200 H222 0.931 . S
C201 C198 1.481 . S
C201 C202 1.387 . S
C201 C206 1.390 . S
C202 C201 1.387 . S
C202 C203 1.401 . S
C202 H223 0.930 . S
C203 C202 1.401 . S
C203 C204 1.376 . S
C203 C212 1.511 . S
C204 C203 1.376 . S
C204 C205 1.392 . S
C204 H225 0.931 . S
C205 C204 1.392 . S
C205 C206 1.361 . S
C205 C207 1.500 . S
C206 C201 1.390 . S
C206 C205 1.361 . S
C206 H224 0.931 . S
C207 C205 1.500 . S
C207 C208 1.371 . S
C207 C209 1.365 . S
C208 C207 1.371 . S
C208 C218 1.386 . S
C208 H226 0.931 . S
C209 C207 1.365 . S
C209 C210 1.409 . S
C209 H227 0.929 . S
C210 C209 1.409 . S
C210 C211 1.380 . S
C210 H228 0.930 . S
C211 C210 1.380 . S
C211 C218 1.357 . S
C212 C203 1.511 . S
C212 C213 1.341 . S
C212 C214 1.371 . S
C213 C212 1.341 . S
C213 C217 1.394 . S
C213 H229 0.930 . S
C214 C212 1.371 . S
C214 C215 1.392 . S
C214 H230 0.931 . S
C215 C214 1.392 . S
C215 C216 1.331 . S
C215 H233 0.932 . S
C216 C215 1.331 . S
C216 C217 1.336 . S
C217 C213 1.394 . S
C217 C216 1.336 . S
C217 H232 0.929 . S
C218 C208 1.386 . S
C218 C211 1.357 . S
C218 H231 0.928 . S
H219 C195 0.931 . S
H220 C197 0.930 . S
H221 C199 0.929 . S
H222 C200 0.931 . S
H223 C202 0.930 . S
H224 C206 0.931 . S
H225 C204 0.931 . S
H226 C208 0.931 . S
H227 C209 0.929 . S
H228 C210 0.930 . S
H229 C213 0.930 . S
H230 C214 0.931 . S
H231 C218 0.928 . S
H232 C217 0.929 . S
H233 C215 0.932 . S
C234 C235 1.386 . S
C234 C236 1.397 . S
C234 H258 0.931 . S
C235 C234 1.386 . S
C235 C239 1.397 . S
C236 C234 1.397 . S
C236 C237 1.384 . S
C236 H259 0.930 . S
C237 C236 1.384 . S
C237 C238 1.377 . S
C237 C240 1.481 . S
C238 C237 1.377 . S
C238 C239 1.389 . S
C238 H260 0.929 . S
C239 C235 1.397 . S
C239 C238 1.389 . S
C239 H261 0.931 . S
C240 C237 1.481 . S
C240 C241 1.387 . S
C240 C245 1.390 . S
C241 C240 1.387 . S
C241 C242 1.401 . S
C241 H262 0.930 . S
C242 C241 1.401 . S
C242 C243 1.376 . S
C242 C251 1.511 . S
C243 C242 1.376 . S
C243 C244 1.392 . S
C243 H264 0.931 . S
C244 C243 1.392 . S
C244 C245 1.361 . S
C244 C246 1.500 . S
C245 C240 1.390 . S
C245 C244 1.361 . S
C245 H263 0.931 . S
C246 C244 1.500 . S
C246 C247 1.371 . S
C246 C248 1.365 . S
C247 C246 1.371 . S
C247 C257 1.386 . S
C247 H265 0.931 . S
C248 C246 1.365 . S
C248 C249 1.409 . S
C248 H266 0.929 . S
C249 C248 1.409 . S
C249 C250 1.380 . S
C249 H267 0.930 . S
C250 C249 1.380 . S
C250 C257 1.357 . S
C251 C242 1.511 . S
C251 C252 1.341 . S
C251 C253 1.371 . S
C252 C251 1.341 . S
C252 C256 1.394 . S
C252 H268 0.930 . S
C253 C251 1.371 . S
C253 C254 1.392 . S
C253 H269 0.931 . S
C254 C253 1.392 . S
C254 C255 1.331 . S
C254 H272 0.932 . S
C255 C254 1.331 . S
C255 C256 1.336 . S
C256 C252 1.394 . S
C256 C255 1.336 . S
C256 H271 0.929 . S
C257 C247 1.386 . S
C257 C250 1.357 . S
C257 H270 0.928 . S
H258 C234 0.931 . S
H259 C236 0.930 . S
H260 C238 0.929 . S
H261 C239 0.931 . S
H262 C241 0.930 . S
H263 C245 0.931 . S
H264 C243 0.931 . S
H265 C247 0.931 . S
H266 C248 0.929 . S
H267 C249 0.930 . S
H268 C252 0.930 . S
H269 C253 0.931 . S
H270 C257 0.928 . S
H271 C256 0.929 . S
H272 C254 0.932 . S
C273 C274 1.386 . S
C273 C275 1.397 . S
C273 H297 0.931 . S
C274 C273 1.386 . S
C274 C278 1.397 . S
C275 C273 1.397 . S
C275 C276 1.384 . S
C275 H298 0.930 . S
C276 C275 1.384 . S
C276 C277 1.377 . S
C276 C279 1.481 . S
C277 C276 1.377 . S
C277 C278 1.389 . S
C277 H299 0.929 . S
C278 C274 1.397 . S
C278 C277 1.389 . S
C278 H300 0.931 . S
C279 C276 1.481 . S
C279 C280 1.387 . S
C279 C284 1.390 . S
C280 C279 1.387 . S
C280 C281 1.401 . S
C280 H301 0.930 . S
C281 C280 1.401 . S
C281 C282 1.376 . S
C281 C290 1.511 . S
C282 C281 1.376 . S
C282 C283 1.392 . S
C282 H303 0.931 . S
C283 C282 1.392 . S
C283 C284 1.361 . S
C283 C285 1.500 . S
C284 C279 1.390 . S
C284 C283 1.361 . S
C284 H302 0.931 . S
C285 C283 1.500 . S
C285 C286 1.371 . S
C285 C287 1.365 . S
C286 C285 1.371 . S
C286 C296 1.386 . S
C286 H304 0.931 . S
C287 C285 1.365 . S
C287 C288 1.409 . S
C287 H305 0.929 . S
C288 C287 1.409 . S
C288 C289 1.380 . S
C288 H306 0.930 . S
C289 C288 1.380 . S
C289 C296 1.357 . S
C290 C281 1.511 . S
C290 C291 1.341 . S
C290 C292 1.371 . S
C291 C290 1.341 . S
C291 C295 1.394 . S
C291 H307 0.930 . S
C292 C290 1.371 . S
C292 C293 1.392 . S
C292 H308 0.931 . S
C293 C292 1.392 . S
C293 C294 1.331 . S
C293 H311 0.932 . S
C294 C293 1.331 . S
C294 C295 1.336 . S
C295 C291 1.394 . S
C295 C294 1.336 . S
C295 H310 0.929 . S
C296 C286 1.386 . S
C296 C289 1.357 . S
C296 H309 0.928 . S
H297 C273 0.931 . S
H298 C275 0.930 . S
H299 C277 0.929 . S
H300 C278 0.931 . S
H301 C280 0.930 . S
H302 C284 0.931 . S
H303 C282 0.931 . S
H304 C286 0.931 . S
H305 C287 0.929 . S
H306 C288 0.930 . S
H307 C291 0.930 . S
H308 C292 0.931 . S
H309 C296 0.928 . S
H310 C295 0.929 . S
H311 C293 0.932 . S
C312 C313 1.443 . S
C312 N316 1.376 . S
C312 C350 1.389 . S
C313 C312 1.443 . S
C313 C314 1.340 . S
C313 H353 0.951 . S
C314 C313 1.340 . S
C314 C315 1.439 . S
C314 H354 0.950 . S
C315 C314 1.439 . S
C315 N316 1.374 . S
C315 C349 1.395 . S
N316 C312 1.376 . S
N316 C315 1.374 . S
N316 Co317 2.008 . S
Co317 N316 2.008 . S
Co317 N318 1.994 . S
Co317 N323 2.008 . S
Co317 N328 1.995 . S
Co317 N333 2.282 . S
Co317 N339 2.282 1_455 S
N318 Co317 1.994 . S
N318 C319 1.375 . S
N318 C322 1.384 1_455 S
C319 N318 1.375 . S
C319 C320 1.437 1_455 S
C319 C349 1.400 . S
C320 C319 1.437 1_655 S
C320 C321 1.339 . S
C320 H355 0.949 . S
C321 C320 1.339 . S
C321 C322 1.439 . S
C321 H356 0.950 . S
C322 N318 1.384 1_655 S
C322 C321 1.439 . S
C322 C351 1.392 . S
N323 Co317 2.008 . S
N323 C324 1.376 1_455 S
N323 C327 1.374 . S
C324 N323 1.376 1_655 S
C324 C325 1.443 . S
C324 C351 1.389 . S
C325 C324 1.443 . S
C325 C326 1.340 . S
C325 H357 0.951 . S
C326 C325 1.340 . S
C326 C327 1.439 1_655 S
C326 H358 0.950 . S
C327 N323 1.374 . S
C327 C326 1.439 1_455 S
C327 C352 1.395 . S
N328 Co317 1.995 . S
N328 C329 1.376 . S
N328 C332 1.383 . S
C329 N328 1.376 . S
C329 C330 1.446 . S
C329 C352 1.391 . S
C330 C329 1.446 . S
C330 C331 1.339 . S
C330 H359 0.949 . S
C331 C330 1.339 . S
C331 C332 1.439 . S
C331 H360 0.950 . S
C332 N328 1.383 . S
C332 C331 1.439 . S
C332 C350 1.392 . S
N333 Co317 2.282 . S
N333 C336 1.332 . S
N333 C338 1.332 . S
C334 C335 1.386 . S
C334 C337 1.388 . S
C335 C334 1.386 . S
C335 C336 1.382 . S
C335 H361 0.950 . S
C336 N333 1.332 . S
C336 C335 1.382 . S
C336 H347 0.952 . S
C337 C334 1.388 . S
C337 C338 1.382 . S
C337 H362 0.950 . S
C338 N333 1.332 . S
C338 C337 1.382 . S
C338 H348 0.948 . S
N339 Co317 2.282 1_655 S
N339 C343 1.332 . S
N339 C344 1.332 . S
C340 C341 1.388 . S
C340 C344 1.382 . S
C340 H363 0.950 . S
C341 C340 1.388 . S
C341 C342 1.386 . S
C342 C341 1.386 . S
C342 C343 1.382 . S
C342 H364 0.950 . S
C343 N339 1.332 . S
C343 C342 1.382 . S
C343 H345 0.952 . S
C344 N339 1.332 . S
C344 C340 1.382 . S
C344 H346 0.948 . S
H345 C343 0.952 . S
H346 C344 0.948 . S
H347 C336 0.952 . S
H348 C338 0.948 . S
C349 C315 1.395 . S
C349 C319 1.400 . S
C350 C312 1.389 . S
C350 C332 1.392 . S
C351 C322 1.392 . S
C351 C324 1.389 . S
C352 C327 1.395 . S
C352 C329 1.391 . S
H353 C313 0.951 . S
H354 C314 0.950 . S
H355 C320 0.949 . S
H356 C321 0.950 . S
H357 C325 0.951 . S
H358 C326 0.950 . S
H359 C330 0.949 . S
H360 C331 0.950 . S
H361 C335 0.950 . S
H362 C337 0.950 . S
H363 C340 0.950 . S
H364 C342 0.950 . S
C365 C366 1.443 . S
C365 N369 1.376 . S
C365 C403 1.389 . S
C366 C365 1.443 . S
C366 C367 1.340 . S
C366 H406 0.951 . S
C367 C366 1.340 . S
C367 C368 1.439 . S
C367 H407 0.950 . S
C368 C367 1.439 . S
C368 N369 1.374 . S
C368 C402 1.395 . S
N369 C365 1.376 . S
N369 C368 1.374 . S
N369 Co370 2.008 . S
Co370 N369 2.008 . S
Co370 N371 1.995 1_455 S
Co370 N376 2.008 1_455 S
Co370 N381 1.995 . S
Co370 N386 2.282 . S
Co370 N392 2.282 1_455 S
N371 Co370 1.995 1_655 S
N371 C372 1.376 . S
N371 C375 1.383 . S
C372 N371 1.376 . S
C372 C373 1.446 . S
C372 C402 1.391 1_655 S
C373 C372 1.446 . S
C373 C374 1.339 . S
C373 H408 0.949 . S
C374 C373 1.339 . S
C374 C375 1.439 . S
C374 H409 0.950 . S
C375 N371 1.383 . S
C375 C374 1.439 . S
C375 C404 1.392 . S
N376 Co370 2.008 1_655 S
N376 C377 1.376 . S
N376 C380 1.374 . S
C377 N376 1.376 . S
C377 C378 1.443 . S
C377 C404 1.389 . S
C378 C377 1.443 . S
C378 C379 1.340 . S
C378 H410 0.951 . S
C379 C378 1.340 . S
C379 C380 1.439 . S
C379 H411 0.950 . S
C380 N376 1.374 . S
C380 C379 1.439 . S
C380 C405 1.395 1_655 S
N381 Co370 1.995 . S
N381 C382 1.376 . S
N381 C385 1.383 . S
C382 N381 1.376 . S
C382 C383 1.446 . S
C382 C405 1.391 . S
C383 C382 1.446 . S
C383 C384 1.339 . S
C383 H412 0.949 . S
C384 C383 1.339 . S
C384 C385 1.439 . S
C384 H413 0.950 . S
C385 N381 1.383 . S
C385 C384 1.439 . S
C385 C403 1.392 . S
N386 Co370 2.282 . S
N386 C389 1.332 . S
N386 C391 1.332 . S
C387 C388 1.386 . S
C387 C390 1.388 . S
C388 C387 1.386 . S
C388 C389 1.382 . S
C388 H414 0.950 . S
C389 N386 1.332 . S
C389 C388 1.382 . S
C389 H400 0.952 . S
C390 C387 1.388 . S
C390 C391 1.382 . S
C390 H415 0.950 . S
C391 N386 1.332 . S
C391 C390 1.382 . S
C391 H401 0.948 . S
N392 Co370 2.282 1_655 S
N392 C396 1.332 . S
N392 C397 1.332 . S
C393 C394 1.388 . S
C393 C397 1.382 . S
C393 H416 0.950 . S
C394 C393 1.388 . S
C394 C395 1.386 . S
C395 C394 1.386 . S
C395 C396 1.382 . S
C395 H417 0.950 . S
C396 N392 1.332 . S
C396 C395 1.382 . S
C396 H398 0.952 . S
C397 N392 1.332 . S
C397 C393 1.382 . S
C397 H399 0.948 . S
H398 C396 0.952 . S
H399 C397 0.948 . S
H400 C389 0.952 . S
H401 C391 0.948 . S
C402 C368 1.395 . S
C402 C372 1.391 1_455 S
C403 C365 1.389 . S
C403 C385 1.392 . S
C404 C375 1.392 . S
C404 C377 1.389 . S
C405 C380 1.395 1_455 S
C405 C382 1.391 . S
H406 C366 0.951 . S
H407 C367 0.950 . S
H408 C373 0.949 . S
H409 C374 0.950 . S
H410 C378 0.951 . S
H411 C379 0.950 . S
H412 C383 0.949 . S
H413 C384 0.950 . S
H414 C388 0.950 . S
H415 C390 0.950 . S
H416 C393 0.950 . S
H417 C395 0.950 . S
C418 C419 1.443 . S
C418 N422 1.376 . S
C418 C456 1.389 . S
C419 C418 1.443 . S
C419 C420 1.340 . S
C419 H459 0.951 . S
C420 C419 1.340 . S
C420 C421 1.439 . S
C420 H460 0.950 . S
C421 C420 1.439 . S
C421 N422 1.374 . S
C421 C455 1.395 1_565 S
N422 C418 1.376 . S
N422 C421 1.374 . S
N422 Co423 2.008 1_565 S
Co423 N422 2.008 1_545 S
Co423 N424 1.995 . S
Co423 N429 2.008 . S
Co423 N434 1.995 1_545 S
Co423 N439 2.282 . S
Co423 N445 2.282 1_545 S
N424 Co423 1.995 . S
N424 C425 1.376 . S
N424 C428 1.383 . S
C425 N424 1.376 . S
C425 C426 1.446 . S
C425 C455 1.391 . S
C426 C425 1.446 . S
C426 C427 1.339 . S
C426 H461 0.949 . S
C427 C426 1.339 . S
C427 C428 1.439 . S
C427 H462 0.950 . S
C428 N424 1.383 . S
C428 C427 1.439 . S
C428 C457 1.392 . S
N429 Co423 2.008 . S
N429 C430 1.376 . S
N429 C433 1.374 . S
C430 N429 1.376 . S
C430 C431 1.443 . S
C430 C457 1.389 . S
C431 C430 1.443 . S
C431 C432 1.340 . S
C431 H463 0.951 . S
C432 C431 1.340 . S
C432 C433 1.439 . S
C432 H464 0.950 . S
C433 N429 1.374 . S
C433 C432 1.439 . S
C433 C458 1.395 . S
N434 Co423 1.995 1_565 S
N434 C435 1.376 . S
N434 C438 1.383 . S
C435 N434 1.376 . S
C435 C436 1.446 . S
C435 C458 1.391 1_565 S
C436 C435 1.446 . S
C436 C437 1.339 . S
C436 H465 0.949 . S
C437 C436 1.339 . S
C437 C438 1.439 . S
C437 H466 0.950 . S
C438 N434 1.383 . S
C438 C437 1.439 . S
C438 C456 1.392 . S
N439 Co423 2.282 . S
N439 C442 1.332 . S
N439 C444 1.332 . S
C440 C441 1.386 . S
C440 C443 1.388 . S
C441 C440 1.386 . S
C441 C442 1.382 . S
C441 H467 0.950 . S
C442 N439 1.332 . S
C442 C441 1.382 . S
C442 H453 0.952 . S
C443 C440 1.388 . S
C443 C444 1.382 . S
C443 H468 0.950 . S
C444 N439 1.332 . S
C444 C443 1.382 . S
C444 H454 0.948 . S
N445 Co423 2.282 1_565 S
N445 C449 1.332 . S
N445 C450 1.332 . S
C446 C447 1.388 . S
C446 C450 1.382 . S
C446 H469 0.950 . S
C447 C446 1.388 . S
C447 C448 1.386 . S
C448 C447 1.386 . S
C448 C449 1.382 . S
C448 H470 0.950 . S
C449 N445 1.332 . S
C449 C448 1.382 . S
C449 H451 0.952 . S
C450 N445 1.332 . S
C450 C446 1.382 . S
C450 H452 0.948 . S
H451 C449 0.952 . S
H452 C450 0.948 . S
H453 C442 0.952 . S
H454 C444 0.948 . S
C455 C421 1.395 1_545 S
C455 C425 1.391 . S
C456 C418 1.389 . S
C456 C438 1.392 . S
C457 C428 1.392 . S
C457 C430 1.389 . S
C458 C433 1.395 . S
C458 C435 1.391 1_545 S
H459 C419 0.951 . S
H460 C420 0.950 . S
H461 C426 0.949 . S
H462 C427 0.950 . S
H463 C431 0.951 . S
H464 C432 0.950 . S
H465 C436 0.949 . S
H466 C437 0.950 . S
H467 C441 0.950 . S
H468 C443 0.950 . S
H469 C446 0.950 . S
H470 C448 0.950 . S
C471 C472 1.443 . S
C471 N475 1.376 . S
C471 C509 1.389 . S
C472 C471 1.443 . S
C472 C473 1.340 . S
C472 H512 0.951 . S
C473 C472 1.340 . S
C473 C474 1.439 . S
C473 H513 0.950 . S
C474 C473 1.439 . S
C474 N475 1.374 . S
C474 C508 1.395 . S
N475 C471 1.376 . S
N475 C474 1.374 . S
N475 Co476 2.008 . S
Co476 N475 2.008 . S
Co476 N477 1.991 1_554 S
Co476 N482 2.008 1_554 S
Co476 N487 1.995 . S
Co476 N492 2.282 1_554 S
Co476 N498 2.282 . S
N477 Co476 1.991 1_556 S
N477 C478 1.375 1_556 S
N477 C481 1.389 . S
C478 N477 1.375 1_554 S
C478 C479 1.446 1_554 S
C478 C508 1.391 . S
C479 C478 1.446 1_556 S
C479 C480 1.339 . S
C479 H514 0.949 . S
C480 C479 1.339 . S
C480 C481 1.439 . S
C480 H515 0.950 . S
C481 N477 1.389 . S
C481 C480 1.439 . S
C481 C510 1.392 . S
N482 Co476 2.008 1_556 S
N482 C483 1.376 . S
N482 C486 1.374 . S
C483 N482 1.376 . S
C483 C484 1.443 . S
C483 C510 1.389 . S
C484 C483 1.443 . S
C484 C485 1.340 . S
C484 H516 0.951 . S
C485 C484 1.340 . S
C485 C486 1.439 . S
C485 H517 0.950 . S
C486 N482 1.374 . S
C486 C485 1.439 . S
C486 C511 1.395 1_556 S
N487 Co476 1.995 . S
N487 C488 1.376 . S
N487 C491 1.383 . S
C488 N487 1.376 . S
C488 C489 1.446 . S
C488 C511 1.391 . S
C489 C488 1.446 . S
C489 C490 1.339 . S
C489 H518 0.949 . S
C490 C489 1.339 . S
C490 C491 1.439 . S
C490 H519 0.950 . S
C491 N487 1.383 . S
C491 C490 1.439 . S
C491 C509 1.392 . S
N492 Co476 2.282 1_556 S
N492 C495 1.332 . S
N492 C497 1.332 . S
C493 C494 1.386 . S
C493 C496 1.388 . S
C494 C493 1.386 . S
C494 C495 1.382 . S
C494 H520 0.950 . S
C495 N492 1.332 . S
C495 C494 1.382 . S
C495 H506 0.952 . S
C496 C493 1.388 . S
C496 C497 1.382 . S
C496 H521 0.950 . S
C497 N492 1.332 . S
C497 C496 1.382 . S
C497 H507 0.948 . S
N498 Co476 2.282 . S
N498 C502 1.332 . S
N498 C503 1.332 . S
C499 C500 1.388 . S
C499 C503 1.382 . S
C499 H522 0.950 . S
C500 C499 1.388 . S
C500 C501 1.386 . S
C501 C500 1.386 . S
C501 C502 1.382 . S
C501 H523 0.950 . S
C502 N498 1.332 . S
C502 C501 1.382 . S
C502 H504 0.952 . S
C503 N498 1.332 . S
C503 C499 1.382 . S
C503 H505 0.948 . S
H504 C502 0.952 . S
H505 C503 0.948 . S
H506 C495 0.952 . S
H507 C497 0.948 . S
C508 C474 1.395 . S
C508 C478 1.391 . S
C509 C471 1.389 . S
C509 C491 1.392 . S
C510 C481 1.392 . S
C510 C483 1.389 . S
C511 C486 1.395 1_554 S
C511 C488 1.391 . S
H512 C472 0.951 . S
H513 C473 0.950 . S
H514 C479 0.949 . S
H515 C480 0.950 . S
H516 C484 0.951 . S
H517 C485 0.950 . S
H518 C489 0.949 . S
H519 C490 0.950 . S
H520 C494 0.950 . S
H521 C496 0.950 . S
H522 C499 0.950 . S
H523 C501 0.950 . S
C524 C525 1.443 . S
C524 N528 1.362 1_565 S
C524 C562 1.389 . S
C525 C524 1.443 . S
C525 C526 1.340 . S
C525 H565 0.951 . S
C526 C525 1.340 . S
C526 C527 1.439 1_565 S
C526 H566 0.950 . S
C527 C526 1.439 1_545 S
C527 N528 1.374 . S
C527 C561 1.395 . S
N528 C524 1.362 1_545 S
N528 C527 1.374 . S
N528 Co529 2.018 . S
Co529 N528 2.018 . S
Co529 N530 1.995 . S
Co529 N535 2.008 . S
Co529 N540 1.995 . S
Co529 N545 2.282 . S
Co529 N551 2.282 1_545 S
N530 Co529 1.995 . S
N530 C531 1.376 . S
N530 C534 1.383 . S
C531 N530 1.376 . S
C531 C532 1.446 . S
C531 C561 1.391 . S
C532 C531 1.446 . S
C532 C533 1.339 . S
C532 H567 0.949 . S
C533 C532 1.339 . S
C533 C534 1.439 . S
C533 H568 0.950 . S
C534 N530 1.383 . S
C534 C533 1.439 . S
C534 C563 1.392 . S
N535 Co529 2.008 . S
N535 C536 1.376 . S
N535 C539 1.374 . S
C536 N535 1.376 . S
C536 C537 1.443 . S
C536 C563 1.389 . S
C537 C536 1.443 . S
C537 C538 1.340 . S
C537 H569 0.951 . S
C538 C537 1.340 . S
C538 C539 1.439 . S
C538 H570 0.950 . S
C539 N535 1.374 . S
C539 C538 1.439 . S
C539 C564 1.395 . S
N540 Co529 1.995 . S
N540 C541 1.376 . S
N540 C544 1.383 1_545 S
C541 N540 1.376 . S
C541 C542 1.446 1_545 S
C541 C564 1.391 . S
C542 C541 1.446 1_565 S
C542 C543 1.339 . S
C542 H571 0.949 . S
C543 C542 1.339 . S
C543 C544 1.439 . S
C543 H572 0.950 . S
C544 N540 1.383 1_565 S
C544 C543 1.439 . S
C544 C562 1.392 . S
N545 Co529 2.282 . S
N545 C548 1.332 . S
N545 C550 1.332 . S
C546 C547 1.386 . S
C546 C549 1.388 . S
C547 C546 1.386 . S
C547 C548 1.382 . S
C547 H573 0.950 . S
C548 N545 1.332 . S
C548 C547 1.382 . S
C548 H559 0.952 . S
C549 C546 1.388 . S
C549 C550 1.382 . S
C549 H574 0.950 . S
C550 N545 1.332 . S
C550 C549 1.382 . S
C550 H560 0.948 . S
N551 Co529 2.282 1_565 S
N551 C555 1.332 . S
N551 C556 1.332 . S
C552 C553 1.388 . S
C552 C556 1.382 . S
C552 H575 0.950 . S
C553 C552 1.388 . S
C553 C554 1.386 . S
C554 C553 1.386 . S
C554 C555 1.382 . S
C554 H576 0.950 . S
C555 N551 1.332 . S
C555 C554 1.382 . S
C555 H557 0.952 . S
C556 N551 1.332 . S
C556 C552 1.382 . S
C556 H558 0.948 . S
H557 C555 0.952 . S
H558 C556 0.948 . S
H559 C548 0.952 . S
H560 C550 0.948 . S
C561 C527 1.395 . S
C561 C531 1.391 . S
C562 C524 1.389 . S
C562 C544 1.392 . S
C563 C534 1.392 . S
C563 C536 1.389 . S
C564 C539 1.395 . S
C564 C541 1.391 . S
H565 C525 0.951 . S
H566 C526 0.950 . S
H567 C532 0.949 . S
H568 C533 0.950 . S
H569 C537 0.951 . S
H570 C538 0.950 . S
H571 C542 0.949 . S
H572 C543 0.950 . S
H573 C547 0.950 . S
H574 C549 0.950 . S
H575 C552 0.950 . S
H576 C554 0.950 . S
C577 C578 1.443 . S
C577 N581 1.376 . S
C577 C615 1.389 . S
C578 C577 1.443 . S
C578 C579 1.340 . S
C578 H618 0.951 . S
C579 C578 1.340 . S
C579 C580 1.439 . S
C579 H619 0.950 . S
C580 C579 1.439 . S
C580 N581 1.374 . S
C580 C614 1.395 . S
N581 C577 1.376 . S
N581 C580 1.374 . S
N581 Co582 2.008 . S
Co582 N581 2.008 . S
Co582 N583 1.995 . S
Co582 N588 2.008 . S
Co582 N593 1.995 . S
Co582 N598 2.282 1_554 S
Co582 N604 2.282 . S
N583 Co582 1.995 . S
N583 C584 1.376 . S
N583 C587 1.383 1_554 S
C584 N583 1.376 . S
C584 C585 1.446 1_554 S
C584 C614 1.391 . S
C585 C584 1.446 1_556 S
C585 C586 1.339 . S
C585 H620 0.949 . S
C586 C585 1.339 . S
C586 C587 1.439 . S
C586 H621 0.950 . S
C587 N583 1.383 1_556 S
C587 C586 1.439 . S
C587 C616 1.392 . S
N588 Co582 2.008 . S
N588 C589 1.376 1_554 S
N588 C592 1.374 . S
C589 N588 1.376 1_556 S
C589 C590 1.443 . S
C589 C616 1.389 . S
C590 C589 1.443 . S
C590 C591 1.340 . S
C590 H622 0.951 . S
C591 C590 1.340 . S
C591 C592 1.439 1_556 S
C591 H623 0.950 . S
C592 N588 1.374 . S
C592 C591 1.439 1_554 S
C592 C617 1.395 . S
N593 Co582 1.995 . S
N593 C594 1.376 . S
N593 C597 1.383 . S
C594 N593 1.376 . S
C594 C595 1.446 . S
C594 C617 1.391 . S
C595 C594 1.446 . S
C595 C596 1.339 . S
C595 H624 0.949 . S
C596 C595 1.339 . S
C596 C597 1.439 . S
C596 H625 0.950 . S
C597 N593 1.383 . S
C597 C596 1.439 . S
C597 C615 1.392 . S
N598 Co582 2.282 1_556 S
N598 C601 1.332 . S
N598 C603 1.332 . S
C599 C600 1.386 . S
C599 C602 1.388 . S
C600 C599 1.386 . S
C600 C601 1.382 . S
C600 H626 0.950 . S
C601 N598 1.332 . S
C601 C600 1.382 . S
C601 H612 0.952 1_556 S
C602 C599 1.388 . S
C602 C603 1.382 . S
C602 H627 0.950 . S
C603 N598 1.332 . S
C603 C602 1.382 . S
C603 H613 0.948 . S
N604 Co582 2.282 . S
N604 C608 1.332 . S
N604 C609 1.332 . S
C605 C606 1.388 . S
C605 C609 1.382 . S
C605 H628 0.950 . S
C606 C605 1.388 . S
C606 C607 1.386 . S
C607 C606 1.386 . S
C607 C608 1.382 . S
C607 H629 0.950 . S
C608 N604 1.332 . S
C608 C607 1.382 . S
C608 H610 0.952 . S
C609 N604 1.332 . S
C609 C605 1.382 . S
C609 H611 0.948 . S
H610 C608 0.952 . S
H611 C609 0.948 . S
H612 C601 0.952 1_554 S
H613 C603 0.948 . S
C614 C580 1.395 . S
C614 C584 1.391 . S
C615 C577 1.389 . S
C615 C597 1.392 . S
C616 C587 1.392 . S
C616 C589 1.389 . S
C617 C592 1.395 . S
C617 C594 1.391 . S
H618 C578 0.951 . S
H619 C579 0.950 . S
H620 C585 0.949 . S
H621 C586 0.950 . S
H622 C590 0.951 . S
H623 C591 0.950 . S
H624 C595 0.949 . S
H625 C596 0.950 . S
H626 C600 0.950 . S
H627 C602 0.950 . S
H628 C605 0.950 . S
H629 C607 0.950 . S
H630 C636 0.930 . S
H631 C639 0.930 . S
H632 C640 0.930 . S
H633 C641 0.930 . S
H634 C644 0.930 . S
H635 C645 0.930 . S
C636 H630 0.930 . S
C636 C637 1.355 . S
C636 C638 1.415 . S
C637 C636 1.355 . S
C637 C639 1.419 . S
C638 C636 1.415 . S
C638 C643 1.425 . S
C638 C645 1.409 . S
C639 H631 0.930 . S
C639 C637 1.419 . S
C639 C640 1.362 . S
C640 H632 0.930 . S
C640 C639 1.362 . S
C640 C643 1.409 . S
C641 H633 0.930 . S
C641 C642 1.355 . S
C641 C643 1.415 . S
C642 C641 1.355 . S
C642 C644 1.419 . S
C643 C638 1.425 . S
C643 C640 1.409 . S
C643 C641 1.415 . S
C644 H634 0.930 . S
C644 C642 1.419 . S
C644 C645 1.362 . S
C645 H635 0.930 . S
C645 C638 1.409 . S
C645 C644 1.362 . S
H646 C652 0.930 . S
H647 C655 0.930 . S
H648 C656 0.930 . S
H649 C657 0.930 . S
H650 C660 0.930 . S
H651 C661 0.930 . S
C652 H646 0.930 . S
C652 C653 1.355 . S
C652 C654 1.415 . S
C653 C652 1.355 . S
C653 C655 1.419 . S
C654 C652 1.415 . S
C654 C659 1.425 . S
C654 C661 1.409 . S
C655 H647 0.930 . S
C655 C653 1.419 . S
C655 C656 1.362 . S
C656 H648 0.930 . S
C656 C655 1.362 . S
C656 C659 1.409 . S
C657 H649 0.930 . S
C657 C658 1.355 . S
C657 C659 1.415 . S
C658 C657 1.355 . S
C658 C660 1.419 . S
C659 C654 1.425 . S
C659 C656 1.409 . S
C659 C657 1.415 . S
C660 H650 0.930 . S
C660 C658 1.419 . S
C660 C661 1.362 . S
C661 H651 0.930 . S
C661 C654 1.409 . S
C661 C660 1.362 . S
H662 C668 0.930 . S
H663 C671 0.930 . S
H664 C672 0.930 . S
H665 C673 0.930 . S
H666 C676 0.930 . S
H667 C677 0.930 . S
C668 H662 0.930 . S
C668 C669 1.355 . S
C668 C670 1.415 . S
C669 C668 1.355 . S
C669 C671 1.419 . S
C670 C668 1.415 . S
C670 C675 1.425 . S
C670 C677 1.409 . S
C671 H663 0.930 . S
C671 C669 1.419 . S
C671 C672 1.362 . S
C672 H664 0.930 . S
C672 C671 1.362 . S
C672 C675 1.409 . S
C673 H665 0.930 . S
C673 C674 1.355 . S
C673 C675 1.415 . S
C674 C673 1.355 . S
C674 C676 1.419 . S
C675 C670 1.425 . S
C675 C672 1.409 . S
C675 C673 1.415 . S
C676 H666 0.930 . S
C676 C674 1.419 . S
C676 C677 1.362 . S
C677 H667 0.930 . S
C677 C670 1.409 . S
C677 C676 1.362 . S
H678 C684 0.930 . S
H679 C687 0.930 . S
H680 C688 0.930 . S
H681 C689 0.930 . S
H682 C692 0.930 . S
H683 C693 0.930 . S
C684 H678 0.930 . S
C684 C685 1.355 . S
C684 C686 1.415 . S
C685 C684 1.355 . S
C685 C687 1.419 . S
C686 C684 1.415 . S
C686 C691 1.425 . S
C686 C693 1.409 . S
C687 H679 0.930 . S
C687 C685 1.419 . S
C687 C688 1.362 . S
C688 H680 0.930 . S
C688 C687 1.362 . S
C688 C691 1.409 . S
C689 H681 0.930 . S
C689 C690 1.355 . S
C689 C691 1.415 . S
C690 C689 1.355 . S
C690 C692 1.419 . S
C691 C686 1.425 . S
C691 C688 1.409 . S
C691 C689 1.415 . S
C692 H682 0.930 . S
C692 C690 1.419 . S
C692 C693 1.362 . S
C693 H683 0.930 . S
C693 C686 1.409 . S
C693 C692 1.362 . S
H694 C700 0.930 . S
H695 C703 0.930 . S
H696 C704 0.930 . S
H697 C705 0.930 . S
H698 C708 0.930 . S
H699 C709 0.930 . S
C700 H694 0.930 . S
C700 C701 1.355 . S
C700 C702 1.415 . S
C701 C700 1.355 . S
C701 C703 1.419 . S
C702 C700 1.415 . S
C702 C707 1.425 . S
C702 C709 1.409 . S
C703 H695 0.930 . S
C703 C701 1.419 . S
C703 C704 1.362 . S
C704 H696 0.930 . S
C704 C703 1.362 . S
C704 C707 1.409 . S
C705 H697 0.930 . S
C705 C706 1.355 . S
C705 C707 1.415 . S
C706 C705 1.355 . S
C706 C708 1.419 . S
C707 C702 1.425 . S
C707 C704 1.409 . S
C707 C705 1.415 . S
C708 H698 0.930 . S
C708 C706 1.419 . S
C708 C709 1.362 . S
C709 H699 0.930 . S
C709 C702 1.409 . S
C709 C708 1.362 . S
H710 C716 0.930 . S
H711 C719 0.930 . S
H712 C720 0.930 . S
H713 C721 0.930 . S
H714 C724 0.930 . S
H715 C725 0.930 . S
C716 H710 0.930 . S
C716 C717 1.355 . S
C716 C718 1.415 . S
C717 C716 1.355 . S
C717 C719 1.419 . S
C718 C716 1.415 . S
C718 C723 1.425 . S
C718 C725 1.409 . S
C719 H711 0.930 . S
C719 C717 1.419 . S
C719 C720 1.362 . S
C720 H712 0.930 . S
C720 C719 1.362 . S
C720 C723 1.409 . S
C721 H713 0.930 . S
C721 C722 1.355 . S
C721 C723 1.415 . S
C722 C721 1.355 . S
C722 C724 1.419 . S
C723 C718 1.425 . S
C723 C720 1.409 . S
C723 C721 1.415 . S
C724 H714 0.930 . S
C724 C722 1.419 . S
C724 C725 1.362 . S
C725 H715 0.930 . S
C725 C718 1.409 . S
C725 C724 1.362 . S
H726 C732 0.930 . S
H727 C735 0.930 . S
H728 C736 0.930 . S
H729 C737 0.930 . S
H730 C740 0.930 . S
H731 C741 0.930 . S
C732 H726 0.930 . S
C732 C733 1.355 . S
C732 C734 1.415 . S
C733 C732 1.355 . S
C733 C735 1.419 . S
C734 C732 1.415 . S
C734 C739 1.425 . S
C734 C741 1.409 . S
C735 H727 0.930 . S
C735 C733 1.419 . S
C735 C736 1.362 . S
C736 H728 0.930 . S
C736 C735 1.362 . S
C736 C739 1.409 . S
C737 H729 0.930 . S
C737 C738 1.355 . S
C737 C739 1.415 . S
C738 C737 1.355 . S
C738 C740 1.419 . S
C739 C734 1.425 . S
C739 C736 1.409 . S
C739 C737 1.415 . S
C740 H730 0.930 . S
C740 C738 1.419 . S
C740 C741 1.362 . S
C741 H731 0.930 . S
C741 C734 1.409 . S
C741 C740 1.362 . S
H742 C748 0.930 . S
H743 C751 0.930 . S
H744 C752 0.930 . S
H745 C753 0.930 . S
H746 C756 0.930 . S
H747 C757 0.930 . S
C748 H742 0.930 . S
C748 C749 1.355 . S
C748 C750 1.415 . S
C749 C748 1.355 . S
C749 C751 1.419 . S
C750 C748 1.415 . S
C750 C755 1.425 . S
C750 C757 1.409 . S
C751 H743 0.930 . S
C751 C749 1.419 . S
C751 C752 1.362 . S
C752 H744 0.930 . S
C752 C751 1.362 . S
C752 C755 1.409 . S
C753 H745 0.930 . S
C753 C754 1.355 . S
C753 C755 1.415 . S
C754 C753 1.355 . S
C754 C756 1.419 . S
C755 C750 1.425 . S
C755 C752 1.409 . S
C755 C753 1.415 . S
C756 H746 0.930 . S
C756 C754 1.419 . S
C756 C757 1.362 . S
C757 H747 0.930 . S
C757 C750 1.409 . S
C757 C756 1.362 . S
H758 C764 0.930 . S
H759 C767 0.930 . S
H760 C768 0.930 . S
H761 C769 0.930 . S
H762 C772 0.930 . S
H763 C773 0.930 . S
C764 H758 0.930 . S
C764 C765 1.355 . S
C764 C766 1.415 . S
C765 C764 1.355 . S
C765 C767 1.419 . S
C766 C764 1.415 . S
C766 C771 1.425 . S
C766 C773 1.409 . S
C767 H759 0.930 . S
C767 C765 1.419 . S
C767 C768 1.362 . S
C768 H760 0.930 . S
C768 C767 1.362 . S
C768 C771 1.409 . S
C769 H761 0.930 . S
C769 C770 1.355 . S
C769 C771 1.415 . S
C770 C769 1.355 . S
C770 C772 1.419 . S
C771 C766 1.425 . S
C771 C768 1.409 . S
C771 C769 1.415 . S
C772 H762 0.930 . S
C772 C770 1.419 . S
C772 C773 1.362 . S
C773 H763 0.930 . S
C773 C766 1.409 . S
C773 C772 1.362 . S
H774 C780 0.930 . S
H775 C783 0.930 . S
H776 C784 0.930 . S
H777 C785 0.930 . S
H778 C788 0.930 . S
H779 C789 0.930 . S
C780 H774 0.930 . S
C780 C781 1.355 . S
C780 C782 1.415 . S
C781 C780 1.355 . S
C781 C783 1.419 . S
C782 C780 1.415 . S
C782 C787 1.425 . S
C782 C789 1.409 . S
C783 H775 0.930 . S
C783 C781 1.419 . S
C783 C784 1.362 . S
C784 H776 0.930 . S
C784 C783 1.362 . S
C784 C787 1.409 . S
C785 H777 0.930 . S
C785 C786 1.355 . S
C785 C787 1.415 . S
C786 C785 1.355 . S
C786 C788 1.419 . S
C787 C782 1.425 . S
C787 C784 1.409 . S
C787 C785 1.415 . S
C788 H778 0.930 . S
C788 C786 1.419 . S
C788 C789 1.362 . S
C789 H779 0.930 . S
C789 C782 1.409 . S
C789 C788 1.362 . S
H790 C796 0.930 . S
H791 C799 0.930 . S
H792 C800 0.930 . S
H793 C801 0.930 . S
H794 C804 0.930 . S
H795 C805 0.930 . S
C796 H790 0.930 . S
C796 C797 1.355 . S
C796 C798 1.415 . S
C797 C796 1.355 . S
C797 C799 1.419 . S
C798 C796 1.415 . S
C798 C803 1.425 . S
C798 C805 1.409 . S
C799 H791 0.930 . S
C799 C797 1.419 . S
C799 C800 1.362 . S
C800 H792 0.930 . S
C800 C799 1.362 . S
C800 C803 1.409 . S
C801 H793 0.930 . S
C801 C802 1.355 . S
C801 C803 1.415 . S
C802 C801 1.355 . S
C802 C804 1.419 . S
C803 C798 1.425 . S
C803 C800 1.409 . S
C803 C801 1.415 . S
C804 H794 0.930 . S
C804 C802 1.419 . S
C804 C805 1.362 . S
C805 H795 0.930 . S
C805 C798 1.409 . S
C805 C804 1.362 . S
H806 C812 0.930 . S
H807 C815 0.930 . S
H808 C816 0.930 . S
H809 C817 0.930 . S
H810 C820 0.930 . S
H811 C821 0.930 . S
C812 H806 0.930 . S
C812 C813 1.355 . S
C812 C814 1.415 . S
C813 C812 1.355 . S
C813 C815 1.419 . S
C814 C812 1.415 . S
C814 C819 1.425 . S
C814 C821 1.409 . S
C815 H807 0.930 . S
C815 C813 1.419 . S
C815 C816 1.362 . S
C816 H808 0.930 . S
C816 C815 1.362 . S
C816 C819 1.409 . S
C817 H809 0.930 . S
C817 C818 1.355 . S
C817 C819 1.415 . S
C818 C817 1.355 . S
C818 C820 1.419 . S
C819 C814 1.425 . S
C819 C816 1.409 . S
C819 C817 1.415 . S
C820 H810 0.930 . S
C820 C818 1.419 . S
C820 C821 1.362 . S
C821 H811 0.930 . S
C821 C814 1.409 . S
C821 C820 1.362 . S
H822 C828 0.930 . S
H823 C831 0.930 . S
H824 C832 0.930 . S
H825 C833 0.930 . S
H826 C836 0.930 . S
H827 C837 0.930 . S
C828 H822 0.930 . S
C828 C829 1.355 . S
C828 C830 1.415 . S
C829 C828 1.355 . S
C829 C831 1.419 . S
C830 C828 1.415 . S
C830 C835 1.425 . S
C830 C837 1.409 . S
C831 H823 0.930 . S
C831 C829 1.419 . S
C831 C832 1.362 . S
C832 H824 0.930 . S
C832 C831 1.362 . S
C832 C835 1.409 . S
C833 H825 0.930 . S
C833 C834 1.355 . S
C833 C835 1.415 . S
C834 C833 1.355 . S
C834 C836 1.419 . S
C835 C830 1.425 . S
C835 C832 1.409 . S
C835 C833 1.415 . S
C836 H826 0.930 . S
C836 C834 1.419 . S
C836 C837 1.362 . S
C837 H827 0.930 . S
C837 C830 1.409 . S
C837 C836 1.362 . S
H838 C844 0.930 . S
H839 C847 0.930 . S
H840 C848 0.930 . S
H841 C849 0.930 . S
H842 C852 0.930 . S
H843 C853 0.930 . S
C844 H838 0.930 . S
C844 C845 1.355 . S
C844 C846 1.415 . S
C845 C844 1.355 . S
C845 C847 1.419 . S
C846 C844 1.415 . S
C846 C851 1.425 . S
C846 C853 1.409 . S
C847 H839 0.930 . S
C847 C845 1.419 . S
C847 C848 1.362 . S
C848 H840 0.930 . S
C848 C847 1.362 . S
C848 C851 1.409 . S
C849 H841 0.930 . S
C849 C850 1.355 . S
C849 C851 1.415 . S
C850 C849 1.355 . S
C850 C852 1.419 . S
C851 C846 1.425 . S
C851 C848 1.409 . S
C851 C849 1.415 . S
C852 H842 0.930 . S
C852 C850 1.419 . S
C852 C853 1.362 . S
C853 H843 0.930 . S
C853 C846 1.409 . S
C853 C852 1.362 . S
H854 C860 0.930 . S
H855 C863 0.930 . S
H856 C864 0.930 . S
H857 C865 0.930 . S
H858 C868 0.930 . S
H859 C869 0.930 . S
C860 H854 0.930 . S
C860 C861 1.355 . S
C860 C862 1.415 . S
C861 C860 1.355 . S
C861 C863 1.419 . S
C862 C860 1.415 . S
C862 C867 1.425 . S
C862 C869 1.409 . S
C863 H855 0.930 . S
C863 C861 1.419 . S
C863 C864 1.362 . S
C864 H856 0.930 . S
C864 C863 1.362 . S
C864 C867 1.409 . S
C865 H857 0.930 . S
C865 C866 1.355 . S
C865 C867 1.415 . S
C866 C865 1.355 . S
C866 C868 1.419 . S
C867 C862 1.425 . S
C867 C864 1.409 . S
C867 C865 1.415 . S
C868 H858 0.930 . S
C868 C866 1.419 . S
C868 C869 1.362 . S
C869 H859 0.930 . S
C869 C862 1.409 . S
C869 C868 1.362 . S
H870 C876 0.930 . S
H871 C879 0.930 . S
H872 C880 0.930 . S
H873 C881 0.930 . S
H874 C884 0.930 . S
H875 C885 0.930 . S
C876 H870 0.930 . S
C876 C877 1.355 . S
C876 C878 1.415 . S
C877 C876 1.355 . S
C877 C879 1.419 . S
C878 C876 1.415 . S
C878 C883 1.425 . S
C878 C885 1.409 . S
C879 H871 0.930 . S
C879 C877 1.419 . S
C879 C880 1.362 . S
C880 H872 0.930 . S
C880 C879 1.362 . S
C880 C883 1.409 . S
C881 H873 0.930 . S
C881 C882 1.355 . S
C881 C883 1.415 . S
C882 C881 1.355 . S
C882 C884 1.419 . S
C883 C878 1.425 . S
C883 C880 1.409 . S
C883 C881 1.415 . S
C884 H874 0.930 . S
C884 C882 1.419 . S
C884 C885 1.362 . S
C885 H875 0.930 . S
C885 C878 1.409 . S
C885 C884 1.362 . S
H886 C892 0.930 . S
H887 C895 0.930 . S
H888 C896 0.930 . S
H889 C897 0.930 . S
H890 C900 0.930 . S
H891 C901 0.930 . S
C892 H886 0.930 . S
C892 C893 1.355 . S
C892 C894 1.415 . S
C893 C892 1.355 . S
C893 C895 1.419 . S
C894 C892 1.415 . S
C894 C899 1.425 . S
C894 C901 1.409 . S
C895 H887 0.930 . S
C895 C893 1.419 . S
C895 C896 1.362 . S
C896 H888 0.930 . S
C896 C895 1.362 . S
C896 C899 1.409 . S
C897 H889 0.930 . S
C897 C898 1.355 . S
C897 C899 1.415 . S
C898 C897 1.355 . S
C898 C900 1.419 . S
C899 C894 1.425 . S
C899 C896 1.409 . S
C899 C897 1.415 . S
C900 H890 0.930 . S
C900 C898 1.419 . S
C900 C901 1.362 . S
C901 H891 0.930 . S
C901 C894 1.409 . S
C901 C900 1.362 . S
H902 C908 0.930 . S
H903 C911 0.930 . S
H904 C912 0.930 . S
H905 C913 0.930 . S
H906 C916 0.930 . S
H907 C917 0.930 . S
C908 H902 0.930 . S
C908 C909 1.355 . S
C908 C910 1.415 . S
C909 C908 1.355 . S
C909 C911 1.419 . S
C910 C908 1.415 . S
C910 C915 1.425 . S
C910 C917 1.409 . S
C911 H903 0.930 . S
C911 C909 1.419 . S
C911 C912 1.362 . S
C912 H904 0.930 . S
C912 C911 1.362 . S
C912 C915 1.409 . S
C913 H905 0.930 . S
C913 C914 1.355 . S
C913 C915 1.415 . S
C914 C913 1.355 . S
C914 C916 1.419 . S
C915 C910 1.425 . S
C915 C912 1.409 . S
C915 C913 1.415 . S
C916 H906 0.930 . S
C916 C914 1.419 . S
C916 C917 1.362 . S
C917 H907 0.930 . S
C917 C910 1.409 . S
C917 C916 1.362 . S
H918 C924 0.930 . S
H919 C927 0.930 . S
H920 C928 0.930 . S
H921 C929 0.930 . S
H922 C932 0.930 . S
H923 C933 0.930 . S
C924 H918 0.930 . S
C924 C925 1.355 . S
C924 C926 1.415 . S
C925 C924 1.355 . S
C925 C927 1.419 . S
C926 C924 1.415 . S
C926 C931 1.425 . S
C926 C933 1.409 . S
C927 H919 0.930 . S
C927 C925 1.419 . S
C927 C928 1.362 . S
C928 H920 0.930 . S
C928 C927 1.362 . S
C928 C931 1.409 . S
C929 H921 0.930 . S
C929 C930 1.355 . S
C929 C931 1.415 . S
C930 C929 1.355 . S
C930 C932 1.419 . S
C931 C926 1.425 . S
C931 C928 1.409 . S
C931 C929 1.415 . S
C932 H922 0.930 . S
C932 C930 1.419 . S
C932 C933 1.362 . S
C933 H923 0.930 . S
C933 C926 1.409 . S
C933 C932 1.362 . S
H934 C940 0.930 . S
H935 C943 0.930 . S
H936 C944 0.930 . S
H937 C945 0.930 . S
H938 C948 0.930 . S
H939 C949 0.930 . S
C940 H934 0.930 . S
C940 C941 1.355 . S
C940 C942 1.415 . S
C941 C940 1.355 . S
C941 C943 1.419 . S
C942 C940 1.415 . S
C942 C947 1.425 . S
C942 C949 1.409 . S
C943 H935 0.930 . S
C943 C941 1.419 . S
C943 C944 1.362 . S
C944 H936 0.930 . S
C944 C943 1.362 . S
C944 C947 1.409 . S
C945 H937 0.930 . S
C945 C946 1.355 . S
C945 C947 1.415 . S
C946 C945 1.355 . S
C946 C948 1.419 . S
C947 C942 1.425 . S
C947 C944 1.409 . S
C947 C945 1.415 . S
C948 H938 0.930 . S
C948 C946 1.419 . S
C948 C949 1.362 . S
C949 H939 0.930 . S
C949 C942 1.409 . S
C949 C948 1.362 . S
H950 C956 0.930 . S
H951 C959 0.930 . S
H952 C960 0.930 . S
H953 C961 0.930 . S
H954 C964 0.930 . S
H955 C965 0.930 . S
C956 H950 0.930 . S
C956 C957 1.355 . S
C956 C958 1.415 . S
C957 C956 1.355 . S
C957 C959 1.419 . S
C958 C956 1.415 . S
C958 C963 1.425 . S
C958 C965 1.409 . S
C959 H951 0.930 . S
C959 C957 1.419 . S
C959 C960 1.362 . S
C960 H952 0.930 . S
C960 C959 1.362 . S
C960 C963 1.409 . S
C961 H953 0.930 . S
C961 C962 1.355 . S
C961 C963 1.415 . S
C962 C961 1.355 . S
C962 C964 1.419 . S
C963 C958 1.425 . S
C963 C960 1.409 . S
C963 C961 1.415 . S
C964 H954 0.930 . S
C964 C962 1.419 . S
C964 C965 1.362 . S
C965 H955 0.930 . S
C965 C958 1.409 . S
C965 C964 1.362 . S
H966 C972 0.930 . S
H967 C975 0.930 . S
H968 C976 0.930 . S
H969 C977 0.930 . S
H970 C980 0.930 . S
H971 C981 0.930 . S
C972 H966 0.930 . S
C972 C973 1.355 . S
C972 C974 1.415 . S
C973 C972 1.355 . S
C973 C975 1.419 . S
C974 C972 1.415 . S
C974 C979 1.425 . S
C974 C981 1.409 . S
C975 H967 0.930 . S
C975 C973 1.419 . S
C975 C976 1.362 . S
C976 H968 0.930 . S
C976 C975 1.362 . S
C976 C979 1.409 . S
C977 H969 0.930 . S
C977 C978 1.355 . S
C977 C979 1.415 . S
C978 C977 1.355 . S
C978 C980 1.419 . S
C979 C974 1.425 . S
C979 C976 1.409 . S
C979 C977 1.415 . S
C980 H970 0.930 . S
C980 C978 1.419 . S
C980 C981 1.362 . S
C981 H971 0.930 . S
C981 C974 1.409 . S
C981 C980 1.362 . S
H982 C988 0.930 . S
H983 C991 0.930 . S
H984 C992 0.930 . S
H985 C993 0.930 . S
H986 C996 0.930 . S
H987 C997 0.930 . S
C988 H982 0.930 . S
C988 C989 1.355 . S
C988 C990 1.415 . S
C989 C988 1.355 . S
C989 C991 1.419 . S
C990 C988 1.415 . S
C990 C995 1.425 . S
C990 C997 1.409 . S
C991 H983 0.930 . S
C991 C989 1.419 . S
C991 C992 1.362 . S
C992 H984 0.930 . S
C992 C991 1.362 . S
C992 C995 1.409 . S
C993 H985 0.930 . S
C993 C994 1.355 . S
C993 C995 1.415 . S
C994 C993 1.355 . S
C994 C996 1.419 . S
C995 C990 1.425 . S
C995 C992 1.409 . S
C995 C993 1.415 . S
C996 H986 0.930 . S
C996 C994 1.419 . S
C996 C997 1.362 . S
C997 H987 0.930 . S
C997 C990 1.409 . S
C997 C996 1.362 . S
H998 C1004 0.930 . S
H999 C1007 0.930 . S
H1000 C1008 0.930 . S
H1001 C1009 0.930 . S
H1002 C1012 0.930 . S
H1003 C1013 0.930 . S
C1004 H998 0.930 . S
C1004 C1005 1.355 . S
C1004 C1006 1.415 . S
C1005 C1004 1.355 . S
C1005 C1007 1.419 . S
C1006 C1004 1.415 . S
C1006 C1011 1.425 . S
C1006 C1013 1.409 . S
C1007 H999 0.930 . S
C1007 C1005 1.419 . S
C1007 C1008 1.362 . S
C1008 H1000 0.930 . S
C1008 C1007 1.362 . S
C1008 C1011 1.409 . S
C1009 H1001 0.930 . S
C1009 C1010 1.355 . S
C1009 C1011 1.415 . S
C1010 C1009 1.355 . S
C1010 C1012 1.419 . S
C1011 C1006 1.425 . S
C1011 C1008 1.409 . S
C1011 C1009 1.415 . S
C1012 H1002 0.930 . S
C1012 C1010 1.419 . S
C1012 C1013 1.362 . S
C1013 H1003 0.930 . S
C1013 C1006 1.409 . S
C1013 C1012 1.362 . S
C642 C334 1.549 . S
C637 C16 1.563 . S
C658 C403 1.535 . S
C653 C55 1.536 . S
C674 C341 1.561 . S
C669 C99 1.561 . S
C690 C404 1.517 . S
C685 C138 1.529 . S
C706 C457 1.555 . S
C701 C1 1.560 . S
C722 C493 1.525 . S
C717 C40 1.520 . S
C733 C94 1.547 . S
C738 C553 1.550 . S
C754 C616 1.521 . S
C749 C133 1.521 . S
C770 C456 1.522 . S
C765 C60 1.531 . S
C781 C79 1.524 . S
C786 C500 1.516 . S
C802 C546 1.533 . S
C797 C118 1.530 . S
C818 C615 1.528 . S
C813 C21 1.525 . S
C829 C177 1.543 . S
C834 C394 1.546 . S
C850 C351 1.552 . S
C845 C211 1.549 . S
C861 C255 1.532 . S
C866 C387 1.532 . S
C877 C289 1.557 . S
C882 C350 1.552 . S
C898 C562 1.546 . S
C893 C157 1.550 . S
C914 C606 1.517 . S
C909 C196 1.517 . S
C930 C440 1.544 . S
C925 C250 1.558 . S
C941 C294 1.513 . S
C946 C509 1.525 . S
C962 C563 1.547 . S
C957 C216 1.550 . S
C978 C599 1.532 . S
C973 C235 1.523 . S
C994 C447 1.567 . S
C989 C274 1.575 . S
C1005 C172 1.530 . S
C1010 C510 1.532 . S
