# Generated by pormake.
# Topology anh, (6,3)-cn, num edge types: 1
# Building blocks:
#     Node 0, Type 0, BuildingBlock: BETFAJ_clean_sbu_0, # of connection points: 6
#     Node 1, Type 0, BuildingBlock: BETFAJ_clean_sbu_0, # of connection points: 6
#     Node 2, Type 0, BuildingBlock: BETFAJ_clean_sbu_0, # of connection points: 6
#     Node 3, Type 1, BuildingBlock: PAMTOO_clean_linker_0, # of connection points: 3
#     Node 4, Type 1, BuildingBlock: PAMTOO_clean_linker_0, # of connection points: 3
#     Node 5, Type 1, BuildingBlock: PAMTOO_clean_linker_0, # of connection points: 3
#     Node 6, Type 1, BuildingBlock: PAMTOO_clean_linker_0, # of connection points: 3
#     Node 7, Type 1, BuildingBlock: PAMTOO_clean_linker_0, # of connection points: 3
#     Node 8, Type 1, BuildingBlock: PAMTOO_clean_linker_0, # of connection points: 3
#     Edge 9, Type (0, 1), BuildingBlock: MIFKUJ_clean_linker_0, # of connection points: 2
#     Edge 10, Type (0, 1), BuildingBlock: MIFKUJ_clean_linker_0, # of connection points: 2
#     Edge 11, Type (0, 1), BuildingBlock: MIFKUJ_clean_linker_0, # of connection points: 2
#     Edge 12, Type (0, 1), BuildingBlock: MIFKUJ_clean_linker_0, # of connection points: 2
#     Edge 13, Type (0, 1), BuildingBlock: MIFKUJ_clean_linker_0, # of connection points: 2
#     Edge 14, Type (0, 1), BuildingBlock: MIFKUJ_clean_linker_0, # of connection points: 2
#     Edge 15, Type (0, 1), BuildingBlock: MIFKUJ_clean_linker_0, # of connection points: 2
#     Edge 16, Type (0, 1), BuildingBlock: MIFKUJ_clean_linker_0, # of connection points: 2
#     Edge 17, Type (0, 1), BuildingBlock: MIFKUJ_clean_linker_0, # of connection points: 2
#     Edge 18, Type (0, 1), BuildingBlock: MIFKUJ_clean_linker_0, # of connection points: 2
#     Edge 19, Type (0, 1), BuildingBlock: MIFKUJ_clean_linker_0, # of connection points: 2
#     Edge 20, Type (0, 1), BuildingBlock: MIFKUJ_clean_linker_0, # of connection points: 2
#     Edge 21, Type (0, 1), BuildingBlock: MIFKUJ_clean_linker_0, # of connection points: 2
#     Edge 22, Type (0, 1), BuildingBlock: MIFKUJ_clean_linker_0, # of connection points: 2
#     Edge 23, Type (0, 1), BuildingBlock: MIFKUJ_clean_linker_0, # of connection points: 2
#     Edge 24, Type (0, 1), BuildingBlock: MIFKUJ_clean_linker_0, # of connection points: 2
#     Edge 25, Type (0, 1), BuildingBlock: MIFKUJ_clean_linker_0, # of connection points: 2
#     Edge 26, Type (0, 1), BuildingBlock: MIFKUJ_clean_linker_0, # of connection points: 2
# Relax obj value: 0.134
# Max RMSD: 0.168
# Mean RMSD: 0.121
data_MOF--net-anh--node1-BETFAJ_clean_sbu_0--node2-PAMTOO_clean_linker_0--edge1-MIFKUJ_clean_linker_0
_symmetry_space_group_name_H-M    P1
_symmetry_Int_Tables_number       1
_symmetry_cell_setting            triclinic
loop_
_symmetry_equiv_pos_as_xyz
'x, y, z'
_cell_length_a     39.629685
_cell_length_b     46.958585
_cell_length_c     64.522763
_cell_angle_alpha  87.674335
_cell_angle_beta   93.546408
_cell_angle_gamma 128.27669
loop_
_atom_site_label
_atom_site_type_symbol
_atom_site_fract_x
_atom_site_fract_y
_atom_site_fract_z
_atom_type_partial_charge
Sm0 Sm 0.18522 0.56556 0.15277 0.0
Sm1 Sm 0.12437 0.58668 0.16322 0.0
C2 C 0.23978 0.55602 0.14042 0.0
C3 C 0.24743 0.52964 0.14546 0.0
C4 C 0.2887 0.5398 0.14396 0.0
C5 C 0.29681 0.51544 0.14962 0.0
C6 C 0.26367 0.48048 0.15682 0.0
C7 C 0.22231 0.47043 0.15834 0.0
C8 C 0.21431 0.4949 0.15281 0.0
C9 C 0.1664 0.56097 0.1935 0.0
C10 C 0.22533 0.6518 0.15565 0.0
C11 C 0.07608 0.59562 0.18382 0.0
C12 C 1.02999 0.57815 0.1832 0.0
C13 C 1.01487 0.59354 0.19363 0.0
C14 C 0.97074 0.57641 0.19328 0.0
C15 C 0.9412 0.54359 0.18248 0.0
C16 C 0.95675 0.52827 0.17214 0.0
C17 C 1.00073 0.54548 0.17243 0.0
C18 C 0.12484 0.57965 0.12071 0.0
C19 C 0.08218 0.50061 0.15545 0.0
O20 O 0.24912 0.57794 0.15555 0.0
O21 O 0.20352 0.54357 0.1301 0.0
O22 O 0.17429 0.58537 0.18087 0.0
O23 O 0.17097 0.53895 0.18513 0.0
O24 O 0.22767 0.62772 0.14731 0.0
O25 O 0.19088 0.64229 0.16498 0.0
O26 O 0.08618 0.57484 0.19039 0.0
O27 O 0.09696 0.61528 0.16754 0.0
O28 O 0.1443 0.5758 0.13516 0.0
O29 O 0.10267 0.58798 0.12875 0.0
O30 O 0.07847 0.52404 0.16351 0.0
O31 O 0.11852 0.51027 0.14817 0.0
H32 H 0.31468 0.56663 0.13847 0.0
H33 H 0.32885 0.52376 0.14804 0.0
H34 H 0.19628 0.44379 0.16401 0.0
H35 H 0.18235 0.48678 0.1544 0.0
H36 H 1.03714 0.61878 0.20202 0.0
H37 H 0.95986 0.5891 0.20119 0.0
H38 H 0.93488 0.50275 0.16398 0.0
H39 H 1.01193 0.53318 0.16434 0.0
Sm40 Sm 0.65287 0.03114 0.48128 0.0
Sm41 Sm 0.60173 0.05652 0.46569 0.0
C42 C 0.68259 1.00045 0.50222 0.0
C43 C 0.6773 0.96628 0.50333 0.0
C44 C 0.64527 0.93655 0.51515 0.0
C45 C 0.64257 0.90541 0.51728 0.0
C46 C 0.67192 0.90332 0.5077 0.0
C47 C 0.70347 0.93285 0.49562 0.0
C48 C 0.70625 0.96398 0.49356 0.0
C49 C 0.65091 0.03836 0.43883 0.0
C50 C 0.54876 0.97062 0.46935 0.0
C51 C 0.57289 0.0906 0.44884 0.0
C52 C 0.57743 0.12318 0.45453 0.0
C53 C 0.60516 0.15604 0.44379 0.0
C54 C 0.61147 0.1874 0.44983 0.0
C55 C 0.59005 0.18657 0.46672 0.0
C56 C 0.56153 0.15346 0.47713 0.0
C57 C 0.55527 0.12217 0.47112 0.0
C58 C 0.60678 0.05063 0.50827 0.0
C59 C 0.70641 0.11652 0.47435 0.0
O60 O 0.65117 0.99967 0.50843 0.0
O61 O 0.70071 0.02115 0.48592 0.0
O62 O 0.61937 0.02578 0.44997 0.0
O63 O 0.68327 0.04412 0.44966 0.0
O64 O 0.5821 0.97856 0.48112 0.0
O65 O 0.5508 0.99601 0.45841 0.0
O66 O 0.60755 0.09615 0.44295 0.0
O67 O 0.55015 0.06211 0.46085 0.0
O68 O 0.63708 0.06345 0.49638 0.0
O69 O 0.57281 0.04254 0.49801 0.0
O70 O 0.67243 0.1074 0.46276 0.0
O71 O 0.70489 0.0924 0.48641 0.0
H72 H 0.62269 0.93754 0.52307 0.0
H73 H 0.61821 0.88338 0.52691 0.0
H74 H 0.7262 0.932 0.48776 0.0
H75 H 0.73153 0.98647 0.48448 0.0
H76 H 0.62256 0.15766 0.4309 0.0
H77 H 0.63389 0.21248 0.44155 0.0
H78 H 0.54384 0.15164 0.48993 0.0
H79 H 0.53336 0.09731 0.47967 0.0
Sm80 Sm 0.67152 0.57789 0.84224 0.0
Sm81 Sm 0.60728 0.49126 0.84188 0.0
C82 C 0.71175 0.64775 0.83517 0.0
C83 C 0.70101 0.67247 0.83055 0.0
C84 C 0.67741 0.66906 0.81233 0.0
C85 C 0.66871 0.69346 0.8081 0.0
C86 C 0.68325 0.72168 0.82203 0.0
C87 C 0.70624 0.72457 0.8404 0.0
C88 C 0.71518 0.70037 0.84454 0.0
C89 C 0.65426 0.54309 0.8798 0.0
C90 C 0.56438 0.53358 0.84189 0.0
C91 C 0.56641 0.42317 0.8535 0.0
C92 C 0.5674 0.39348 0.84765 0.0
C93 C 0.59272 0.38683 0.85961 0.0
C94 C 0.59522 0.35982 0.85393 0.0
C95 C 0.57268 0.33885 0.83601 0.0
C96 C 0.54706 0.34534 0.8241 0.0
C97 C 0.54427 0.3722 0.8299 0.0
C98 C 0.62901 0.51643 0.80175 0.0
C99 C 0.71498 0.53709 0.84193 0.0
O100 O 0.7027 0.62489 0.82067 0.0
O101 O 0.70398 0.6336 0.85383 0.0
O102 O 0.62771 0.53414 0.86481 0.0
O103 O 0.69213 0.57287 0.87576 0.0
O104 O 0.60378 0.56466 0.83965 0.0
O105 O 0.55755 0.50209 0.84419 0.0
O106 O 0.60101 0.45056 0.86349 0.0
O107 O 0.54989 0.43325 0.83967 0.0
O108 O 0.64178 0.53516 0.81798 0.0
O109 O 0.60259 0.4823 0.80654 0.0
O110 O 0.67616 0.50646 0.84588 0.0
O111 O 0.72091 0.5678 0.83773 0.0
H112 H 0.66598 0.64781 0.80122 0.0
H113 H 0.65139 0.69062 0.79368 0.0
H114 H 0.71729 0.74551 0.85167 0.0
H115 H 0.73335 0.70353 0.85872 0.0
H116 H 0.61103 0.40284 0.8733 0.0
H117 H 0.6147 0.35528 0.86371 0.0
H118 H 0.5297 0.33015 0.81005 0.0
H119 H 0.52447 0.37659 0.82029 0.0
H120 H 0.7313 0.14337 0.22193 0.0
H121 H 0.62193 0.03276 0.20813 0.0
H122 H 0.69359 0.10704 0.15847 0.0
H123 H 0.59718 0.04284 0.14269 0.0
C124 C 0.59125 0.0329 0.15899 0.0
O125 O 0.62832 0.0399 0.16792 0.0
H126 H 0.58246 0.04781 0.16715 0.0
C127 C 0.70979 0.12207 0.21071 0.0
C128 C 0.71669 0.12943 0.18942 0.0
C129 C 0.67557 0.08734 0.21762 0.0
C130 C 0.64834 0.05974 0.20303 0.0
C131 C 0.65459 0.0669 0.18176 0.0
C132 C 0.68863 0.10176 0.17494 0.0
H133 H 0.69192 0.6265 0.58446 0.0
H134 H 0.67872 0.52883 0.5783 0.0
H135 H 0.66757 0.5794 0.52429 0.0
H136 H 0.60952 0.49983 0.52055 0.0
C137 C 0.62472 0.49376 0.53314 0.0
O138 O 0.66564 0.52493 0.53803 0.0
H139 H 0.60427 0.48393 0.54683 0.0
C140 C 0.68757 0.60587 0.5749 0.0
C141 C 0.68076 0.60665 0.55337 0.0
C142 C 0.68642 0.57773 0.58424 0.0
C143 C 0.67931 0.55063 0.57154 0.0
C144 C 0.67265 0.55129 0.55 0.0
C145 C 0.67314 0.57918 0.54094 0.0
H146 H 1.06428 0.5348 0.8989 0.0
H147 H 0.18011 0.54557 0.89728 0.0
H148 H 0.11527 0.54201 0.8401 0.0
H149 H 0.16597 0.50656 0.83786 0.0
C150 C 0.18407 0.51895 0.85288 0.0
O151 O 0.18341 0.54753 0.85711 0.0
H152 H 0.16662 0.4973 0.86486 0.0
C153 C 0.08807 0.53674 0.89007 0.0
C154 C 0.08496 0.53779 0.86831 0.0
C155 C 0.12213 0.53966 0.90066 0.0
C156 C 0.15366 0.54323 0.88924 0.0
C157 C 0.15131 0.54338 0.86745 0.0
C158 C 0.11693 0.54108 0.8569 0.0
H159 H 1.05705 0.47232 0.40926 0.0
H160 H 0.16715 0.58313 0.42153 0.0
H161 H 0.10221 0.50959 0.47225 0.0
H162 H 0.15164 0.59314 0.48616 0.0
C163 C 0.15961 0.59991 0.46958 0.0
O164 O 0.16547 0.57634 0.4618 0.0
H165 H 0.13207 0.59693 0.46125 0.0
C166 C 0.07985 0.49361 0.42022 0.0
C167 C 0.0756 0.48619 0.44165 0.0
C168 C 0.11277 0.52834 0.4127 0.0
C169 C 0.14117 0.55625 0.42694 0.0
C170 C 0.13696 0.54946 0.44832 0.0
C171 C 0.10437 0.51457 0.45567 0.0
H172 H 0.63692 0.98154 0.72892 0.0
H173 H 0.62948 0.06798 0.73755 0.0
H174 H 0.63773 0.01395 0.79054 0.0
H175 H 0.58788 0.03902 0.8008 0.0
C176 C 0.59272 0.05301 0.78569 0.0
O177 O 0.6311 0.06427 0.77806 0.0
H178 H 0.56522 0.0333 0.77484 0.0
C179 C 0.63615 0.99893 0.7391 0.0
C180 C 0.63745 0.99438 0.7607 0.0
C181 C 0.63364 0.02557 0.73054 0.0
C182 C 0.63169 0.04741 0.74385 0.0
C183 C 0.63329 0.04326 0.76542 0.0
C184 C 0.63682 0.01715 0.77384 0.0
H185 H 0.56825 0.39806 0.08685 0.0
H186 H 0.43435 0.32517 0.06711 0.0
H187 H 0.47088 0.34504 0.13204 0.0
H188 H 0.40555 0.27333 0.12243 0.0
C189 C 0.38367 0.27853 0.11501 0.0
O190 O 0.40617 0.31124 0.10451 0.0
H191 H 0.36104 0.25612 0.10393 0.0
C192 C 0.53467 0.37929 0.09059 0.0
C193 C 0.52359 0.37295 0.11145 0.0
C194 C 0.50284 0.3625 0.07447 0.0
C195 C 0.4594 0.33795 0.07936 0.0
C196 C 0.44802 0.33136 0.1001 0.0
C197 C 0.48003 0.34924 0.11608 0.0
H198 H 0.21438 0.4094 0.14559 0.0
H199 H 0.23133 0.36778 0.15113 0.0
H200 H 0.34861 0.45041 0.18543 0.0
H201 H 0.33201 0.49249 0.17957 0.0
H202 H 0.36601 0.42421 0.15779 0.0
H203 H 0.26433 0.37049 0.20939 0.0
H204 H 0.19658 0.34519 0.22602 0.0
H205 H 0.12652 0.25916 0.18125 0.0
H206 H 0.19375 0.28423 0.16412 0.0
H207 H 0.41167 0.30399 0.1547 0.0
H208 H 0.38606 0.32943 0.17514 0.0
H209 H 0.27814 0.28608 0.13138 0.0
H210 H 0.30397 0.26107 0.1108 0.0
H211 H 0.26246 0.29296 0.17438 0.0
H212 H 0.36491 0.36365 0.11822 0.0
H213 H 0.4334 0.38881 0.10226 0.0
H214 H 0.5031 0.44252 0.15939 0.0
H215 H 0.4349 0.41766 0.17564 0.0
C216 C 0.24331 0.41845 0.1547 0.0
C217 C 0.27199 0.45423 0.16205 0.0
C218 C 0.25289 0.39455 0.15797 0.0
C219 C 0.29102 0.40575 0.16895 0.0
C220 C 0.31897 0.44112 0.17695 0.0
C221 C 0.30958 0.46517 0.17351 0.0
C222 C 0.30381 0.38193 0.16976 0.0
C223 C 0.34378 0.3958 0.16209 0.0
C224 C 0.27488 0.34471 0.17521 0.0
C225 C 0.23417 0.32939 0.1854 0.0
C226 C 0.23445 0.34633 0.20298 0.0
C227 C 0.19613 0.33199 0.21252 0.0
C228 C 0.15727 0.30061 0.20468 0.0
C229 C 0.15666 0.28347 0.18731 0.0
C230 C 0.1949 0.2977 0.1777 0.0
C231 C 0.38139 0.29843 0.15003 0.0
C232 C 0.35976 0.28069 0.13119 0.0
C233 C 0.36681 0.31295 0.1617 0.0
C234 C 0.33053 0.30993 0.15459 0.0
C235 C 0.30607 0.28848 0.13716 0.0
C236 C 0.32079 0.27418 0.12542 0.0
C237 C 0.32375 0.33533 0.162 0.0
C238 C 0.28502 0.32172 0.17096 0.0
C239 C 0.35396 0.37294 0.15805 0.0
C240 C 0.39494 0.38867 0.14815 0.0
C241 C 0.39488 0.38082 0.12735 0.0
C242 C 0.4336 0.39503 0.11826 0.0
C243 C 0.47256 0.41717 0.12982 0.0
C244 C 0.47289 0.42535 0.15046 0.0
C245 C 0.43424 0.4113 0.1596 0.0
H246 H 0.50249 0.428 0.12278 0.0
H247 H 0.12763 0.28955 0.2121 0.0
H248 H 0.72415 0.16918 0.4468 0.0
H249 H 0.78899 0.23191 0.44547 0.0
H250 H 0.84311 0.21397 0.49971 0.0
H251 H 0.77839 0.1504 0.50075 0.0
H252 H 0.82472 0.28657 0.46986 0.0
H253 H 0.95284 0.27002 0.49756 0.0
H254 H 0.96394 0.22374 0.49818 0.0
H255 H 0.87868 0.17305 0.44426 0.0
H256 H 0.8675 0.21926 0.44318 0.0
H257 H 1.02423 0.4649 0.47489 0.0
H258 H 0.96494 0.4029 0.48523 0.0
H259 H 0.98923 0.36089 0.43491 0.0
H260 H 1.04959 0.42233 0.42523 0.0
H261 H 0.96965 0.31916 0.46677 0.0
H262 H 0.90885 0.37178 0.4316 0.0
H263 H 0.89561 0.41644 0.42583 0.0
H264 H 0.84324 0.39262 0.48608 0.0
H265 H 0.85652 0.34802 0.49227 0.0
C266 C 0.7498 0.17844 0.45847 0.0
C267 C 0.74613 0.15467 0.47384 0.0
C268 C 0.78688 0.21447 0.45773 0.0
C269 C 0.82117 0.22777 0.4724 0.0
C270 C 0.81741 0.20426 0.488 0.0
C271 C 0.78036 0.16794 0.48861 0.0
C272 C 0.86075 0.26613 0.47096 0.0
C273 C 0.85645 0.29368 0.46935 0.0
C274 C 0.9022 0.27556 0.47009 0.0
C275 C 0.90895 0.24782 0.47047 0.0
C276 C 0.93655 0.24903 0.48582 0.0
C277 C 0.94285 0.22281 0.48625 0.0
C278 C 0.92189 0.19539 0.47132 0.0
C279 C 0.89474 0.19421 0.45587 0.0
C280 C 0.88838 0.22038 0.45536 0.0
C281 C 1.0174 0.44242 0.46627 0.0
C282 C 1.04133 0.44868 0.44903 0.0
C283 C 0.98322 0.40698 0.47207 0.0
C284 C 0.97205 0.37715 0.46063 0.0
C285 C 0.99699 0.38336 0.44395 0.0
C286 C 1.03125 0.41862 0.43827 0.0
C287 C 0.93349 0.3395 0.46528 0.0
C288 C 0.93801 0.31211 0.46762 0.0
C289 C 0.89202 0.33004 0.46616 0.0
C290 C 0.88421 0.35695 0.46251 0.0
C291 C 0.89483 0.37629 0.44368 0.0
C292 C 0.88724 0.40153 0.44032 0.0
C293 C 0.86875 0.40746 0.45561 0.0
C294 C 0.85767 0.38807 0.47427 0.0
C295 C 0.86518 0.36279 0.47771 0.0
H296 H 0.86285 0.42697 0.45298 0.0
H297 H 0.92679 0.17511 0.47169 0.0
H298 H 0.73792 0.79485 0.82957 0.0
H299 H 0.72573 0.83906 0.82121 0.0
H300 H 0.59992 0.75443 0.79441 0.0
H301 H 0.61113 0.70961 0.80337 0.0
H302 H 0.65098 0.81689 0.76891 0.0
H303 H 0.60518 0.78673 0.83917 0.0
H304 H 0.61306 0.77813 0.8766 0.0
H305 H 0.72379 0.89022 0.88228 0.0
H306 H 0.71694 0.89938 0.8448 0.0
H307 H 0.58227 0.92271 0.75117 0.0
H308 H 0.58631 0.87493 0.7635 0.0
H309 H 0.70045 0.95307 0.8012 0.0
H310 H 0.69524 1.00066 0.78948 0.0
H311 H 0.65363 0.89244 0.8216 0.0
H312 H 0.70409 0.92374 0.75265 0.0
H313 H 0.70107 0.93464 0.71512 0.0
H314 H 0.58873 0.82378 0.70659 0.0
H315 H 0.5907 0.81235 0.74415 0.0
C316 C 0.70729 0.7854 0.82225 0.0
C317 C 0.67546 0.74854 0.8172 0.0
C318 C 0.7005 0.8108 0.81739 0.0
C319 C 0.66187 0.79998 0.80729 0.0
C320 C 0.63001 0.76332 0.80217 0.0
C321 C 0.6366 0.73779 0.8072 0.0
C322 C 0.65543 0.82723 0.80153 0.0
C323 C 0.65082 0.83302 0.78042 0.0
C324 C 0.65676 0.84906 0.81656 0.0
C325 C 0.66077 0.84365 0.83913 0.0
C326 C 0.63142 0.80948 0.84836 0.0
C327 C 0.63566 0.80451 0.8696 0.0
C328 C 0.66896 0.83359 0.8818 0.0
C329 C 0.69803 0.86771 0.87281 0.0
C330 C 0.69396 0.87282 0.85157 0.0
C331 C 0.60804 0.92955 0.76218 0.0
C332 C 0.63868 0.96532 0.76927 0.0
C333 C 0.61048 0.90231 0.76916 0.0
C334 C 0.64431 0.91051 0.78291 0.0
C335 C 0.67417 0.94607 0.79053 0.0
C336 C 0.67124 0.97324 0.78384 0.0
C337 C 0.64907 0.88218 0.7889 0.0
C338 C 0.65355 0.87624 0.81005 0.0
C339 C 0.64838 0.86059 0.77387 0.0
C340 C 0.64731 0.86729 0.75124 0.0
C341 C 0.67857 0.90175 0.74279 0.0
C342 C 0.67707 0.90801 0.72151 0.0
C343 C 0.64466 0.87994 0.70849 0.0
C344 C 0.61377 0.84551 0.71671 0.0
C345 C 0.61508 0.83912 0.73799 0.0
H346 H 0.64355 0.88485 0.69202 0.0
H347 H 0.67219 0.82969 0.89824 0.0
H348 H 0.89196 0.53568 0.21383 0.0
H349 H 0.81414 0.5041 0.2122 0.0
H350 H 0.80718 0.47892 0.14779 0.0
H351 H 0.88448 0.51083 0.14912 0.0
H352 H 0.76341 0.51533 0.18719 0.0
H353 H 0.7199 0.39379 0.1385 0.0
H354 H 0.74486 0.35739 0.13566 0.0
H355 H 0.79744 0.38444 0.19839 0.0
H356 H 0.77214 0.4205 0.20176 0.0
H357 H 0.59493 0.44393 0.11327 0.0
H358 H 0.65798 0.47074 0.13681 0.0
H359 H 0.59279 0.37033 0.17133 0.0
H360 H 0.52992 0.34284 0.14716 0.0
H361 H 0.66552 0.38943 0.16022 0.0
H362 H 0.62574 0.45007 0.19453 0.0
H363 H 0.59935 0.48512 0.19859 0.0
H364 H 0.70956 0.57675 0.16856 0.0
H365 H 0.7363 0.5421 0.16397 0.0
C366 C 0.87387 0.5237 0.19928 0.0
C367 C 0.89436 0.52545 0.18165 0.0
C368 C 0.82946 0.50556 0.19842 0.0
C369 C 0.80491 0.48868 0.17999 0.0
C370 C 0.82544 0.49111 0.1623 0.0
C371 C 0.86964 0.50927 0.16311 0.0
C372 C 0.75779 0.46864 0.17875 0.0
C373 C 0.74173 0.48766 0.18154 0.0
C374 C 0.72942 0.43211 0.17214 0.0
C375 C 0.74422 0.40999 0.17035 0.0
C376 C 0.73649 0.39177 0.15175 0.0
C377 C 0.75076 0.37123 0.15003 0.0
C378 C 0.77275 0.36864 0.16682 0.0
C379 C 0.78046 0.38653 0.18538 0.0
C380 C 0.7662 0.40706 0.1872 0.0
C381 C 0.5938 0.42771 0.12605 0.0
C382 C 0.55791 0.39109 0.12815 0.0
C383 C 0.62966 0.44324 0.13972 0.0
C384 C 0.63015 0.42262 0.15593 0.0
C385 C 0.59311 0.38676 0.15894 0.0
C386 C 0.55717 0.37113 0.14519 0.0
C387 C 0.67142 0.43684 0.16735 0.0
C388 C 0.6866 0.41672 0.16647 0.0
C389 C 0.69865 0.47212 0.176 0.0
C390 C 0.68302 0.49338 0.17888 0.0
C391 C 0.64427 0.47763 0.18868 0.0
C392 C 0.62924 0.49744 0.19108 0.0
C393 C 0.65276 0.53313 0.18384 0.0
C394 C 0.69141 0.54911 0.17419 0.0
C395 C 0.70656 0.5294 0.17172 0.0
H396 H 0.64106 0.54842 0.18571 0.0
H397 H 0.78376 0.35275 0.16542 0.0
H398 H 0.47185 0.94385 0.44875 0.0
H399 H 0.40602 0.88093 0.44747 0.0
H400 H 0.46951 0.84803 0.4859 0.0
H401 H 0.53549 0.91072 0.48717 0.0
H402 H 0.42247 0.80138 0.45374 0.0
H403 H 0.40085 0.85686 0.50666 0.0
H404 H 0.39742 0.90264 0.52132 0.0
H405 H 0.29728 0.87491 0.47608 0.0
H406 H 0.30056 0.82928 0.46094 0.0
H407 H 0.23904 0.62892 0.48749 0.0
H408 H 0.30527 0.69178 0.48579 0.0
H409 H 0.23776 0.72023 0.44673 0.0
H410 H 0.17158 0.65738 0.44839 0.0
H411 H 0.28629 0.76923 0.47804 0.0
H412 H 0.30634 0.71196 0.42591 0.0
H413 H 0.30964 0.66585 0.41167 0.0
H414 H 0.41268 0.69663 0.45575 0.0
H415 H 0.40954 0.74258 0.47049 0.0
C416 C 0.47189 0.92325 0.45689 0.0
C417 C 0.50896 0.93242 0.46813 0.0
C418 C 0.43416 0.88729 0.4562 0.0
C419 C 0.43271 0.8598 0.46675 0.0
C420 C 0.46987 0.86877 0.47765 0.0
C421 C 0.50755 0.90471 0.47842 0.0
C422 C 0.39233 0.82176 0.46664 0.0
C423 C 0.39281 0.79429 0.45927 0.0
C424 C 0.35338 0.81258 0.47343 0.0
C425 C 0.35129 0.83994 0.48252 0.0
C426 C 0.37836 0.86074 0.49972 0.0
C427 C 0.37639 0.88662 0.50814 0.0
C428 C 0.34724 0.89176 0.4996 0.0
C429 C 0.3199 0.87095 0.48265 0.0
C430 C 0.32178 0.84506 0.47415 0.0
C431 C 0.23856 0.64863 0.47846 0.0
C432 C 0.20038 0.63838 0.46803 0.0
C433 C 0.27632 0.68444 0.47745 0.0
C434 C 0.27654 0.71065 0.466 0.0
C435 C 0.23832 0.70045 0.45564 0.0
C436 C 0.20062 0.66459 0.45655 0.0
C437 C 0.31645 0.74884 0.46519 0.0
C438 C 0.3159 0.77633 0.47242 0.0
C439 C 0.35533 0.75801 0.4583 0.0
C440 C 0.35741 0.73048 0.44944 0.0
C441 C 0.32946 0.70869 0.43269 0.0
C442 C 0.33134 0.68262 0.42451 0.0
C443 C 0.36128 0.67825 0.43283 0.0
C444 C 0.38947 0.70002 0.44934 0.0
C445 C 0.38767 0.7261 0.4576 0.0
H446 H 0.3627 0.65806 0.42647 0.0
H447 H 0.34575 0.9118 0.50614 0.0
H448 H 0.64362 0.34086 0.83938 0.0
H449 H 0.64837 0.29363 0.83029 0.0
H450 H 0.51527 0.22612 0.80826 0.0
H451 H 0.5094 0.27224 0.81861 0.0
H452 H 0.52987 0.18684 0.82977 0.0
H453 H 0.60221 0.27357 0.7748 0.0
H454 H 0.65542 0.33399 0.75956 0.0
H455 H 0.75841 0.33735 0.78843 0.0
H456 H 0.70579 0.27713 0.80408 0.0
H457 H 0.53 0.05967 0.7747 0.0
H458 H 0.52878 0.10968 0.78231 0.0
H459 H 0.65509 0.16778 0.81253 0.0
H460 H 0.65634 0.11759 0.80497 0.0
H461 H 0.64529 0.21214 0.78671 0.0
H462 H 0.57137 0.12477 0.84155 0.0
H463 H 0.51724 0.06397 0.85613 0.0
H464 H 0.41579 0.0617 0.82616 0.0
H465 H 0.46937 0.12231 0.81116 0.0
C466 C 0.61513 0.31582 0.83284 0.0
C467 C 0.57606 0.31047 0.82979 0.0
C468 C 0.61811 0.28899 0.82734 0.0
C469 C 0.58238 0.25646 0.81825 0.0
C470 C 0.54338 0.25103 0.81515 0.0
C471 C 0.5402 0.27766 0.82089 0.0
C472 C 0.58524 0.22765 0.81252 0.0
C473 C 0.55476 0.19235 0.82008 0.0
C474 C 0.61832 0.23487 0.80029 0.0
C475 C 0.65004 0.27098 0.79077 0.0
C476 C 0.6362 0.2873 0.77802 0.0
C477 C 0.66626 0.3215 0.76929 0.0
C478 C 0.71026 0.33954 0.77307 0.0
C479 C 0.72431 0.32336 0.78554 0.0
C480 C 0.69438 0.28918 0.79432 0.0
C481 C 0.55769 0.08329 0.78275 0.0
C482 C 0.59353 0.08504 0.789 0.0
C483 C 0.5569 0.11175 0.78716 0.0
C484 C 0.59176 0.14236 0.79806 0.0
C485 C 0.62794 0.14447 0.80402 0.0
C486 C 0.62864 0.11588 0.7997 0.0
C487 C 0.58973 0.17152 0.80382 0.0
C488 C 0.6204 0.20679 0.79633 0.0
C489 C 0.55666 0.16428 0.81598 0.0
C490 C 0.52439 0.12792 0.82507 0.0
C491 C 0.53753 0.11118 0.83793 0.0
C492 C 0.50695 0.07678 0.8463 0.0
C493 C 0.46311 0.05895 0.84203 0.0
C494 C 0.44976 0.07553 0.82943 0.0
C495 C 0.48022 0.10992 0.82101 0.0
H496 H 0.43948 0.03231 0.84852 0.0
H497 H 0.73348 0.36602 0.76631 0.0
H498 H 0.73995 0.9021 0.51396 0.0
H499 H 0.73822 0.84942 0.51862 0.0
H500 H 0.59952 0.77858 0.5135 0.0
H501 H 0.60095 0.83133 0.50857 0.0
H502 H 0.62846 0.75853 0.5454 0.0
H503 H 0.65585 0.78611 0.47358 0.0
H504 H 0.6922 0.8245 0.44295 0.0
H505 H 0.81092 0.84764 0.46585 0.0
H506 H 0.77542 0.80979 0.4968 0.0
H507 H 0.61234 0.59914 0.5346 0.0
H508 H 0.60839 0.64797 0.52401 0.0
H509 H 0.74301 0.72769 0.54146 0.0
H510 H 0.74666 0.67897 0.55263 0.0
H511 H 0.71147 0.73989 0.50121 0.0
H512 H 0.68442 0.71603 0.57427 0.0
H513 H 0.64737 0.67624 0.60436 0.0
H514 H 0.52652 0.64503 0.57819 0.0
H515 H 0.56281 0.68411 0.54769 0.0
C516 C 0.70903 0.87533 0.51354 0.0
C517 C 0.67058 0.871 0.5107 0.0
C518 C 0.70811 0.8452 0.51627 0.0
C519 C 0.66876 0.81 0.51613 0.0
C520 C 0.63026 0.8055 0.51362 0.0
C521 C 0.63114 0.83569 0.51087 0.0
C522 C 0.66811 0.77808 0.51892 0.0
C523 C 0.64599 0.75414 0.53549 0.0
C524 C 0.69153 0.77258 0.50621 0.0
C525 C 0.71304 0.79536 0.48761 0.0
C526 C 0.68979 0.79962 0.47218 0.0
C527 C 0.71023 0.82124 0.45474 0.0
C528 C 0.75387 0.83856 0.45248 0.0
C529 C 0.77713 0.83423 0.46764 0.0
C530 C 0.75686 0.81267 0.48512 0.0
C531 C 0.64115 0.62711 0.5358 0.0
C532 C 0.67983 0.63553 0.54431 0.0
C533 C 0.63886 0.65487 0.52983 0.0
C534 C 0.67541 0.69134 0.532 0.0
C535 C 0.71455 0.6997 0.5396 0.0
C536 C 0.71661 0.67198 0.54598 0.0
C537 C 0.67222 0.72083 0.52771 0.0
C538 C 0.69364 0.74423 0.51092 0.0
C539 C 0.64807 0.72577 0.54015 0.0
C540 C 0.62624 0.70262 0.55857 0.0
C541 C 0.64988 0.70039 0.57482 0.0
C542 C 0.62904 0.67802 0.59198 0.0
C543 C 0.5846 0.65804 0.59317 0.0
C544 C 0.56094 0.66047 0.57723 0.0
C545 C 0.58163 0.68272 0.56 0.0
H546 H 0.56853 0.64075 0.60647 0.0
H547 H 0.76963 0.85528 0.43896 0.0
H548 H 0.80048 0.59418 0.8354 0.0
H549 H 0.86251 0.59441 0.83742 0.0
H550 H 0.7795 0.48029 0.85208 0.0
H551 H 0.7174 0.48006 0.85046 0.0
H552 H 0.84926 0.51142 0.87599 0.0
H553 H 0.82781 0.51778 0.80186 0.0
H554 H 0.82027 0.54321 0.76931 0.0
H555 H 0.94403 0.64534 0.78213 0.0
H556 H 0.95241 0.62053 0.81475 0.0
H557 H 0.99962 0.47935 0.86627 0.0
H558 H 0.93793 0.47905 0.85924 0.0
H559 H 1.02419 0.59311 0.84451 0.0
H560 H 0.08598 0.59299 0.85101 0.0
H561 H 0.95397 0.56343 0.82048 0.0
H562 H 0.97775 0.55887 0.89337 0.0
H563 H 0.98831 0.53544 0.92595 0.0
H564 H 0.86238 0.43349 0.91675 0.0
H565 H 0.85136 0.45611 0.8839 0.0
C566 C 0.79517 0.56899 0.83897 0.0
C567 C 0.75331 0.53707 0.84268 0.0
C568 C 0.83098 0.5691 0.84 0.0
C569 C 0.82639 0.53724 0.84462 0.0
C570 C 0.7846 0.50539 0.84844 0.0
C571 C 0.74877 0.50526 0.84744 0.0
C572 C 0.86488 0.53719 0.84596 0.0
C573 C 0.87162 0.52231 0.86363 0.0
C574 C 0.89565 0.55244 0.83034 0.0
C575 C 0.89053 0.56741 0.81083 0.0
C576 C 0.85327 0.54573 0.7978 0.0
C577 C 0.84887 0.56001 0.77933 0.0
C578 C 0.88149 0.5959 0.77372 0.0
C579 C 0.91873 0.61756 0.78651 0.0
C580 C 0.92339 0.60338 0.80496 0.0
C581 C 1.0054 0.5041 0.86083 0.0
C582 C 1.04794 0.53598 0.85875 0.0
C583 C 0.96997 0.50411 0.85715 0.0
C584 C 0.97574 0.53627 0.85177 0.0
C585 C 1.01822 0.56781 0.84867 0.0
C586 C 1.05375 0.5677 0.85221 0.0
C587 C 0.93793 0.5372 0.85036 0.0
C588 C 0.93147 0.55239 0.83278 0.0
C589 C 0.90765 0.52261 0.86617 0.0
C590 C 0.91389 0.50907 0.88606 0.0
C591 C 0.9524 0.53137 0.89823 0.0
C592 C 0.95848 0.51824 0.91675 0.0
C593 C 0.92607 0.48297 0.92339 0.0
C594 C 0.88748 0.46079 0.91156 0.0
C595 C 0.88129 0.47375 0.89299 0.0
H596 H 0.93083 0.47284 0.93773 0.0
H597 H 0.87796 0.60689 0.75942 0.0
H598 H 0.29944 0.68422 0.13471 0.0
H599 H 0.36219 0.74839 0.13469 0.0
H600 H 0.30034 0.77188 0.17568 0.0
H601 H 0.2372 0.7081 0.17538 0.0
H602 H 0.33759 0.82189 0.14694 0.0
H603 H 0.38133 0.76622 0.19309 0.0
H604 H 0.39403 0.72231 0.20342 0.0
H605 H 0.48334 0.76206 0.1551 0.0
H606 H 0.47073 0.8059 0.1443 0.0
H607 H 0.51938 0.99547 0.1822 0.0
H608 H 0.45849 0.9305 0.18112 0.0
H609 H 0.52036 0.91475 0.13532 0.0
H610 H 0.58141 0.97991 0.13641 0.0
H611 H 0.48416 0.86108 0.16537 0.0
H612 H 0.44081 0.91812 0.12014 0.0
H613 H 0.4279 0.96215 0.11067 0.0
H614 H 0.33743 0.91973 0.15867 0.0
H615 H 0.35026 0.87575 0.16862 0.0
C616 C 0.29911 0.70303 0.14369 0.0
C617 C 0.2632 0.69087 0.15509 0.0
C618 C 0.33517 0.73975 0.14375 0.0
C619 C 0.33637 0.76502 0.15543 0.0
C620 C 0.3003 0.75299 0.16656 0.0
C621 C 0.26415 0.7164 0.16639 0.0
C622 C 0.37499 0.804 0.15607 0.0
C623 C 0.36953 0.83039 0.15123 0.0
C624 C 0.41694 0.81528 0.16122 0.0
C625 C 0.42475 0.78908 0.16775 0.0
C626 C 0.40344 0.76542 0.18457 0.0
C627 C 0.41066 0.74057 0.19053 0.0
C628 C 0.43938 0.73933 0.17989 0.0
C629 C 0.46105 0.76301 0.16331 0.0
C630 C 0.45391 0.78789 0.15727 0.0
C631 C 0.51996 0.97809 0.17194 0.0
C632 C 0.55475 0.99265 0.15918 0.0
C633 C 0.48516 0.94103 0.1713 0.0
C634 C 0.48457 0.91782 0.15792 0.0
C635 C 0.52004 0.93215 0.14569 0.0
C636 C 0.55478 0.96928 0.14627 0.0
C637 C 0.44656 0.87879 0.15643 0.0
C638 C 0.45218 0.85246 0.16107 0.0
C639 C 0.40469 0.86754 0.15125 0.0
C640 C 0.39682 0.89388 0.14525 0.0
C641 C 0.41842 0.91837 0.12878 0.0
C642 C 0.41107 0.94329 0.12331 0.0
C643 C 0.38195 0.9438 0.1341 0.0
C644 C 0.36003 0.91934 0.15035 0.0
C645 C 0.3673 0.89439 0.1559 0.0
H646 H 0.37629 0.96311 0.12983 0.0
H647 H 0.44492 0.72007 0.18452 0.0
H648 H 0.59872 0.24019 0.44265 0.0
H649 H 0.60993 0.29454 0.45429 0.0
H650 H 0.60943 0.26308 0.51808 0.0
H651 H 0.59865 0.20893 0.50659 0.0
H652 H 0.55935 0.28302 0.51185 0.0
H653 H 0.70229 0.33168 0.49628 0.0
H654 H 0.75893 0.34327 0.47476 0.0
H655 H 0.73512 0.39994 0.43008 0.0
H656 H 0.67765 0.38803 0.45114 0.0
H657 H 0.62876 0.44693 0.55763 0.0
H658 H 0.62808 0.39711 0.54669 0.0
H659 H 0.62536 0.42564 0.48253 0.0
H660 H 0.62654 0.47572 0.49351 0.0
H661 H 0.67878 0.40778 0.48944 0.0
H662 H 0.53348 0.35625 0.50468 0.0
H663 H 0.47648 0.34379 0.52632 0.0
H664 H 0.50595 0.29234 0.57217 0.0
H665 H 0.56354 0.30494 0.55091 0.0
C666 C 0.60152 0.24505 0.45916 0.0
C667 C 0.59766 0.22009 0.47367 0.0
C668 C 0.60789 0.27614 0.46579 0.0
C669 C 0.61083 0.28305 0.48707 0.0
C670 C 0.60712 0.25827 0.50158 0.0
C671 C 0.60077 0.22722 0.49497 0.0
C672 C 0.61644 0.31552 0.49424 0.0
C673 C 0.58586 0.31033 0.50719 0.0
C674 C 0.65053 0.35114 0.48783 0.0
C675 C 0.68533 0.35863 0.4752 0.0
C676 C 0.70887 0.34636 0.48178 0.0
C677 C 0.74118 0.35303 0.46968 0.0
C678 C 0.75059 0.37229 0.45105 0.0
C679 C 0.72776 0.38499 0.44451 0.0
C680 C 0.69531 0.37828 0.45652 0.0
C681 C 0.62816 0.44252 0.54122 0.0
C682 C 0.62673 0.46451 0.52638 0.0
C683 C 0.6277 0.4141 0.53497 0.0
C684 C 0.62587 0.40721 0.51377 0.0
C685 C 0.6265 0.43029 0.49896 0.0
C686 C 0.62697 0.45873 0.50521 0.0
C687 C 0.62167 0.37518 0.50703 0.0
C688 C 0.65242 0.38045 0.49414 0.0
C689 C 0.58781 0.33958 0.51354 0.0
C690 C 0.5531 0.33187 0.5263 0.0
C691 C 0.52802 0.34253 0.51945 0.0
C692 C 0.49557 0.3354 0.53163 0.0
C693 C 0.48768 0.31738 0.55064 0.0
C694 C 0.51215 0.30635 0.55746 0.0
C695 C 0.54467 0.31346 0.54535 0.0
H696 H 0.46253 0.31188 0.56005 0.0
H697 H 0.77558 0.3774 0.44169 0.0
H698 H 0.47693 0.47656 0.8392 0.0
H699 H 0.41659 0.47827 0.84061 0.0
H700 H 0.50588 0.59416 0.84922 0.0
H701 H 0.56609 0.59271 0.84678 0.0
H702 H 0.38416 0.49164 0.86675 0.0
H703 H 0.46355 0.63617 0.8356 0.0
H704 H 0.52021 0.68062 0.8119 0.0
H705 H 0.49894 0.59398 0.77752 0.0
H706 H 0.44199 0.54904 0.80091 0.0
H707 H 0.2404 0.52994 0.88528 0.0
H708 H 0.30681 0.53659 0.88374 0.0
H709 H 0.29622 0.53751 0.81688 0.0
H710 H 0.23036 0.5315 0.81848 0.0
H711 H 0.37814 0.58171 0.82779 0.0
H712 H 0.26329 0.45909 0.84658 0.0
H713 H 0.20361 0.4105 0.86752 0.0
H714 H 0.28992 0.44621 0.92127 0.0
H715 H 0.35003 0.49532 0.9007 0.0
C716 C 0.48386 0.50252 0.84122 0.0
C717 C 0.5269 0.5345 0.84267 0.0
C718 C 0.44903 0.50349 0.84213 0.0
C719 C 0.45575 0.53643 0.8447 0.0
C720 C 0.49886 0.56832 0.84657 0.0
C721 C 0.53367 0.56743 0.84532 0.0
C722 C 0.41787 0.53713 0.84573 0.0
C723 C 0.38324 0.51153 0.8582 0.0
C724 C 0.41528 0.56258 0.83455 0.0
C725 C 0.44877 0.58929 0.82011 0.0
C726 C 0.47084 0.62662 0.82292 0.0
C727 C 0.50305 0.65189 0.80956 0.0
C728 C 0.51321 0.64013 0.79324 0.0
C729 C 0.49111 0.60306 0.7902 0.0
C730 C 0.45891 0.57768 0.80351 0.0
C731 C 0.25274 0.53236 0.87026 0.0
C732 C 0.22969 0.53013 0.85203 0.0
C733 C 0.29065 0.53573 0.86934 0.0
C734 C 0.30676 0.53677 0.85015 0.0
C735 C 0.28499 0.53661 0.83195 0.0
C736 C 0.24713 0.53327 0.83287 0.0
C737 C 0.34485 0.53648 0.84896 0.0
C738 C 0.37937 0.56206 0.83643 0.0
C739 C 0.34702 0.51061 0.85977 0.0
C740 C 0.31103 0.48108 0.87215 0.0
C741 C 0.26946 0.45672 0.8629 0.0
C742 C 0.23558 0.42907 0.87469 0.0
C743 C 0.24295 0.42533 0.89572 0.0
C744 C 0.28425 0.44918 0.90499 0.0
C745 C 0.31824 0.47691 0.89327 0.0
H746 H 0.21667 0.40391 0.90483 0.0
H747 H 0.53816 0.65972 0.78293 0.0
H748 H 0.08043 0.44136 0.1564 0.0
H749 H 1.0176 0.37759 0.15928 0.0
H750 H 0.93473 0.40824 0.15632 0.0
H751 H 0.99766 0.47204 0.1546 0.0
H752 H 0.90822 0.36196 0.18427 0.0
H753 H 0.94221 0.36257 0.11469 0.0
H754 H 0.98677 0.37369 0.0857 0.0
H755 H 1.01276 0.30467 0.11453 0.0
H756 H 0.96837 0.29317 0.14374 0.0
H757 H 0.71497 0.17842 0.16621 0.0
H758 H 0.77666 0.24105 0.15753 0.0
H759 H 0.8632 0.22474 0.18835 0.0
H760 H 0.80157 0.16266 0.19763 0.0
H761 H 0.88487 0.26223 0.14472 0.0
H762 H 0.84771 0.26472 0.21522 0.0
H763 H 0.79641 0.25222 0.2409 0.0
H764 H 0.77002 0.31632 0.20541 0.0
H765 H 0.82079 0.32872 0.17935 0.0
C766 C 1.04875 0.43442 0.15615 0.0
C767 C 1.04402 0.46174 0.1553 0.0
C768 C 1.0127 0.39786 0.15768 0.0
C769 C 0.971 0.38772 0.15776 0.0
C770 C 0.96635 0.4151 0.15639 0.0
C771 C 1.00241 0.45165 0.15534 0.0
C772 C 0.93252 0.34893 0.16039 0.0
C773 C 0.90303 0.3404 0.17531 0.0
C774 C 0.92535 0.3203 0.14895 0.0
C775 C 0.9523 0.32729 0.1315 0.0
C776 C 0.95769 0.34998 0.11493 0.0
C777 C 0.98286 0.35631 0.09844 0.0
C778 C 1.00277 0.34006 0.09832 0.0
C779 C 0.99738 0.3173 0.11466 0.0
C780 C 0.97212 0.31078 0.13116 0.0
C781 C 0.74724 0.18822 0.17091 0.0
C782 C 0.75374 0.16595 0.18256 0.0
C783 C 0.78233 0.22386 0.16598 0.0
C784 C 0.82441 0.23741 0.17228 0.0
C785 C 0.83099 0.2147 0.18328 0.0
C786 C 0.79589 0.1794 0.18861 0.0
C787 C 0.86139 0.27588 0.16847 0.0
C788 C 0.89039 0.28414 0.15345 0.0
C789 C 0.86755 0.30436 0.17938 0.0
C790 C 0.83754 0.29723 0.19521 0.0
C791 C 0.83064 0.27583 0.21278 0.0
C792 C 0.80176 0.26885 0.22744 0.0
C793 C 0.77987 0.28338 0.22475 0.0
C794 C 0.78695 0.30504 0.20745 0.0
C795 C 0.81576 0.31206 0.19275 0.0
H796 H 0.75752 0.27794 0.23611 0.0
H797 H 1.02226 0.34501 0.08554 0.0
H798 H 0.08122 0.58535 0.08877 0.0
H799 H 0.08243 0.57705 0.05168 0.0
H800 H 0.17341 0.55621 0.06501 0.0
H801 H 0.17195 0.56426 0.10215 0.0
H802 H 0.14567 0.61257 0.02486 0.0
H803 H 0.15273 0.49317 0.02984 0.0
H804 H 0.13161 0.44251 0.05351 0.0
H805 H 1.03068 0.44123 0.07561 0.0
H806 H 1.05063 0.49134 0.0518 0.0
H807 H 0.19262 0.587 0.9262 0.0
H808 H 0.19522 0.5919 0.96405 0.0
H809 H 1.06087 0.49931 0.96504 0.0
H810 H 1.05813 0.49413 0.92726 0.0
H811 H 0.10943 0.49862 -0.00207 0.0
H812 H 0.08622 0.57981 0.9659 0.0
H813 H 0.10243 0.6291 0.94231 0.0
H814 H 0.22531 0.70346 0.9743 0.0
H815 H 0.21006 0.65442 -0.0021 0.0
C816 C 0.10147 0.579 0.08377 0.0
C817 C 0.12629 0.57519 0.09833 0.0
C818 C 0.10225 0.57438 0.06258 0.0
C819 C 0.12771 0.56569 0.05554 0.0
C820 C 0.15304 0.56239 0.07007 0.0
C821 C 0.15224 0.56702 0.09129 0.0
C822 C 0.12745 0.55991 0.03302 0.0
C823 C 0.13794 0.58771 0.01902 0.0
C824 C 0.11677 0.52728 0.0253 0.0
C825 C 0.10353 0.49629 0.03919 0.0
C826 C 0.12586 0.48191 0.03965 0.0
C827 C 0.11409 0.45329 0.0531 0.0
C828 C 0.07992 0.43873 0.06611 0.0
C829 C 1.05721 0.45257 0.06558 0.0
C830 C 1.06874 0.48109 0.05211 0.0
C831 C 0.16387 0.56729 0.93454 0.0
C832 C 0.12511 0.54031 0.92375 0.0
C833 C 0.16533 0.57023 0.95614 0.0
C834 C 0.12814 0.54615 0.96734 0.0
C835 C 0.08993 0.51818 0.95672 0.0
C836 C 0.08835 0.5154 0.93513 0.0
C837 C 0.12824 0.55149 0.98989 0.0
C838 C 0.11761 0.5236 0.00385 0.0
C839 C 0.13807 0.58379 -0.00242 0.0
C840 C 0.14719 0.61337 0.98352 0.0
C841 C 0.11684 0.6066 0.9678 0.0
C842 C 0.12583 0.6345 0.95444 0.0
C843 C 0.16493 0.66937 0.95677 0.0
C844 C 0.19507 0.67643 0.97249 0.0
C845 C 0.18626 0.6486 0.98587 0.0
H846 H 0.17183 0.69094 0.94642 0.0
H847 H 0.07104 0.41673 0.07658 0.0
H848 H 0.60392 0.05181 0.41408 0.0
H849 H 0.60503 0.05904 0.37628 0.0
H850 H 0.69226 0.03324 0.37446 0.0
H851 H 0.69401 0.02933 0.41229 0.0
H852 H 0.71872 0.08307 0.34988 0.0
H853 H 0.57673 0.97272 0.35854 0.0
H854 H 0.5041 0.93237 0.37228 0.0
H855 H 0.47521 1.00059 0.34537 0.0
H856 H 0.54789 0.04162 0.33169 0.0
H857 H 0.66985 0.03448 0.24043 0.0
H858 H 0.66155 0.0241 0.27806 0.0
H859 H 0.65609 0.11246 0.2828 0.0
H860 H 0.66567 0.12366 0.2453 0.0
H861 H 0.58689 0.03028 0.30464 0.0
H862 H 0.73731 0.14222 0.29843 0.0
H863 H 0.80827 0.17542 0.28322 0.0
H864 H 0.81734 0.09246 0.30459 0.0
H865 H 0.74605 0.0585 0.31961 0.0
C866 C 0.62323 0.0477 0.40551 0.0
C867 C 0.64895 0.04013 0.416 0.0
C868 C 0.62357 0.05146 0.38387 0.0
C869 C 0.64817 0.04608 0.37227 0.0
C870 C 0.67316 0.03776 0.3829 0.0
C871 C 0.67402 0.03533 0.40453 0.0
C872 C 0.64939 0.05048 0.34921 0.0
C873 C 0.68962 0.07104 0.34013 0.0
C874 C 0.61172 0.03516 0.33617 0.0
C875 C 0.5679 0.01042 0.34426 0.0
C876 C 0.55498 0.97923 0.35566 0.0
C877 C 0.51379 0.95623 0.36343 0.0
C878 C 0.4851 0.96396 0.35975 0.0
C879 C 0.49749 0.99466 0.34823 0.0
C880 C 0.53866 0.01778 0.34045 0.0
C881 C 0.6666 0.05148 0.24953 0.0
C882 C 0.66855 0.07993 0.24009 0.0
C883 C 0.66184 0.04554 0.27093 0.0
C884 C 0.65814 0.0675 0.28307 0.0
C885 C 0.6588 0.09523 0.2736 0.0
C886 C 0.66449 0.1017 0.25228 0.0
C887 C 0.65583 0.06267 0.30584 0.0
C888 C 0.61558 0.04207 0.31469 0.0
C889 C 0.69318 0.07698 0.31865 0.0
C890 C 0.73622 0.09767 0.30991 0.0
C891 C 0.75427 0.13092 0.29969 0.0
C892 C 0.79457 0.1499 0.29115 0.0
C893 C 0.81725 0.13601 0.29288 0.0
C894 C 0.79972 0.10316 0.30322 0.0
C895 C 0.75939 0.08405 0.31176 0.0
H896 H 0.84845 0.15074 0.28626 0.0
H897 H 0.45324 0.94613 0.36578 0.0
H898 H 0.59213 0.47636 0.767 0.0
H899 H 0.61267 0.49519 0.73134 0.0
H900 H 0.71321 0.60481 0.75181 0.0
H901 H 0.69226 0.5859 0.78799 0.0
H902 H 0.66676 0.59996 0.71484 0.0
H903 H 0.73965 0.55412 0.74139 0.0
H904 H 0.745 0.51005 0.75991 0.0
H905 H 0.65883 0.42923 0.71408 0.0
H906 H 0.65147 0.4723 0.69569 0.0
H907 H 0.7411 0.63344 0.61164 0.0
H908 H 0.74199 0.63058 0.64962 0.0
H909 H 0.64108 0.51492 0.64685 0.0
H910 H 0.63962 0.51757 0.60898 0.0
H911 H 0.70239 0.5327 0.6766 0.0
H912 H 0.6192 0.5729 0.65427 0.0
H913 H 0.60785 0.61382 0.63614 0.0
H914 H 0.71051 0.70292 0.67367 0.0
H915 H 0.72296 0.66263 0.69179 0.0
C916 C 0.61849 0.50457 0.76397 0.0
C917 C 0.64079 0.52967 0.78027 0.0
C918 C 0.63023 0.51526 0.74357 0.0
C919 C 0.66492 0.55123 0.73897 0.0
C920 C 0.68646 0.57686 0.75509 0.0
C921 C 0.67452 0.56609 0.77568 0.0
C922 C 0.67875 0.56104 0.71728 0.0
C923 C 0.67559 0.58595 0.70656 0.0
C924 C 0.68957 0.54223 0.70645 0.0
C925 C 0.69487 0.51649 0.71718 0.0
C926 C 0.72161 0.5269 0.7353 0.0
C927 C 0.72501 0.50208 0.74579 0.0
C928 C 0.70246 0.46694 0.73813 0.0
C929 C 0.67634 0.45649 0.71998 0.0
C930 C 0.67247 0.48109 0.70953 0.0
C931 C 0.71912 0.60738 0.61913 0.0
C932 C 0.6901 0.57574 0.60725 0.0
C933 C 0.71975 0.60581 0.64083 0.0
C934 C 0.69128 0.57261 0.65106 0.0
C935 C 0.66341 0.54083 0.63927 0.0
C936 C 0.66273 0.54237 0.6176 0.0
C937 C 0.68912 0.57077 0.67401 0.0
C938 C 0.69453 0.54734 0.68496 0.0
C939 C 0.68007 0.59072 0.68498 0.0
C940 C 0.67236 0.61486 0.67421 0.0
C941 C 0.63959 0.60129 0.65854 0.0
C942 C 0.63292 0.62435 0.64828 0.0
C943 C 0.65852 0.66096 0.65371 0.0
C944 C 0.69077 0.67457 0.66945 0.0
C945 C 0.69765 0.65164 0.67972 0.0
H946 H 0.65327 0.67876 0.64578 0.0
H947 H 0.70519 0.44779 0.74627 0.0
H948 H 0.67399 0.06228 0.53162 0.0
H949 H 0.68034 0.0591 0.56955 0.0
H950 H 0.55565 0.03274 0.57409 0.0
H951 H 0.54885 0.03538 0.53619 0.0
H952 H 0.62136 0.08813 0.60189 0.0
H953 H 0.56225 0.96763 0.57931 0.0
H954 H 0.56181 0.92414 0.55887 0.0
H955 H 0.68361 0.96238 0.58784 0.0
H956 H 0.68514 1.00657 0.6082 0.0
H957 H 0.57817 0.03023 0.70639 0.0
H958 H 0.57567 0.03589 0.66856 0.0
H959 H 0.68571 0.03796 0.66552 0.0
H960 H 0.68737 0.03117 0.70328 0.0
H961 H 0.63031 0.99653 0.63648 0.0
H962 H 0.69255 0.11595 0.65883 0.0
H963 H 0.69909 0.16313 0.67858 0.0
H964 H 0.58022 0.1323 0.64973 0.0
H965 H 0.57265 0.08456 0.63 0.0
C966 C 0.64795 0.05576 0.54073 0.0
C967 C 0.61089 0.04899 0.53104 0.0
C968 C 0.6516 0.05393 0.56234 0.0
C969 C 0.61838 0.04557 0.57455 0.0
C970 C 0.58161 0.03926 0.5649 0.0
C971 C 0.57772 0.04066 0.54329 0.0
C972 C 0.6218 0.04321 0.59742 0.0
C973 C 0.62281 0.06787 0.60953 0.0
C974 C 0.62519 0.01754 0.60721 0.0
C975 C 0.624 0.99066 0.59514 0.0
C976 C 0.58911 0.96698 0.5812 0.0
C977 C 0.58864 0.94217 0.56965 0.0
C978 C 0.62269 0.94053 0.57204 0.0
C979 C 0.65727 0.96369 0.586 0.0
C980 C 0.65794 0.98861 0.59755 0.0
C981 C 0.60198 0.03218 0.69762 0.0
C982 C 0.633 0.03034 0.70772 0.0
C983 C 0.60063 0.0355 0.67602 0.0
C984 C 0.63089 0.03786 0.66416 0.0
C985 C 0.66198 0.03613 0.67429 0.0
C986 C 0.66294 0.03229 0.69585 0.0
C987 C 0.62957 0.04138 0.64117 0.0
C988 C 0.62899 0.01694 0.62896 0.0
C989 C 0.62742 0.06774 0.63126 0.0
C990 C 0.63183 0.09643 0.64309 0.0
C991 C 0.66763 0.11903 0.65682 0.0
C992 C 0.67155 0.14591 0.66799 0.0
C993 C 0.64003 0.15065 0.66546 0.0
C994 C 0.60458 0.12856 0.6517 0.0
C995 C 0.60047 0.10161 0.6405 0.0
H996 H 0.64313 0.17148 0.67412 0.0
H997 H 0.62222 0.92125 0.56313 0.0
H998 H 0.70526 0.56014 0.91513 0.0
H999 H 0.68397 0.52651 0.94815 0.0
H1000 H 0.55625 0.44609 0.92153 0.0
H1001 H 0.57681 0.47991 0.88888 0.0
H1002 H 0.61727 0.51048 0.97239 0.0
H1003 H 0.52184 0.36261 0.94275 0.0
H1004 H 0.52546 0.32799 0.91647 0.0
H1005 H 0.66124 0.41316 0.91268 0.0
H1006 H 0.65857 0.44813 0.93911 0.0
H1007 H 0.47038 0.38483 0.04577 0.0
H1008 H 0.4993 0.41308 0.01203 0.0
H1009 H 0.59373 0.39526 0.02091 0.0
H1010 H 0.56484 0.3669 0.05466 0.0
H1011 H 0.55809 0.38174 0.98025 0.0
H1012 H 0.62409 0.47446 0.03205 0.0
H1013 H 0.62467 0.50747 0.061 0.0
H1014 H 0.55586 0.5342 0.02213 0.0
H1015 H 0.55422 0.50079 -0.00697 0.0
C1016 C 0.67276 0.53519 0.91634 0.0
C1017 C 0.64274 0.52252 0.89945 0.0
C1018 C 0.66068 0.51604 0.93515 0.0
C1019 C 0.6187 0.48366 0.93715 0.0
C1020 C 0.58897 0.47073 0.92019 0.0
C1021 C 0.60077 0.49013 0.90156 0.0
C1022 C 0.60471 0.46446 0.95733 0.0
C1023 C 0.6045 0.48239 0.97413 0.0
C1024 C 0.58836 0.4279 0.9596 0.0
C1025 C 0.58991 0.40809 0.94283 0.0
C1026 C 0.55246 0.374 0.93628 0.0
C1027 C 0.55436 0.35427 0.92139 0.0
C1028 C 0.59359 0.36828 0.91302 0.0
C1029 C 0.63089 0.40232 0.91924 0.0
C1030 C 0.62916 0.42218 0.93411 0.0
C1031 C 0.4966 0.38614 0.04027 0.0
C1032 C 0.51547 0.37376 0.05278 0.0
C1033 C 0.51331 0.40254 0.02112 0.0
C1034 C 0.54897 0.40664 0.01417 0.0
C1035 C 0.56629 0.39244 0.02608 0.0
C1036 C 0.54986 0.37634 0.04532 0.0
C1037 C 0.56961 0.42746 -0.00498 0.0
C1038 C 0.57095 0.40985 0.97845 0.0
C1039 C 0.58737 0.4644 -0.00699 0.0
C1040 C 0.5887 0.48484 0.01041 0.0
C1041 C 0.60878 0.48713 0.02972 0.0
C1042 C 0.60934 0.50595 0.04615 0.0
C1043 C 0.59023 0.52286 0.04342 0.0
C1044 C 0.57061 0.52105 0.02423 0.0
C1045 C 0.56988 0.5022 0.00776 0.0
H1046 H 0.5907 0.53742 0.05616 0.0
H1047 H 0.59507 0.35275 0.90171 0.0
H1048 H 0.16713 0.61027 0.21515 0.0
H1049 H 0.15423 0.60794 0.25213 0.0
H1050 H 0.13199 0.50571 0.25814 0.0
H1051 H 0.14431 0.50771 0.22128 0.0
H1052 H 0.0734 0.50487 0.27839 0.0
H1053 H 0.22819 0.58426 0.27307 0.0
H1054 H 0.2971 0.63761 0.26 0.0
H1055 H 0.27549 0.70814 0.28506 0.0
H1056 H 0.20612 0.65513 0.29805 0.0
H1057 H 0.10775 0.48495 0.3838 0.0
H1058 H 0.11342 0.49409 0.34632 0.0
H1059 H 0.13545 0.59562 0.35257 0.0
H1060 H 0.12973 0.58657 0.3903 0.0
H1061 H 0.18961 0.60138 0.3258 0.0
H1062 H 1.03842 0.52195 0.33466 0.0
H1063 H 0.96991 0.46848 0.34795 0.0
H1064 H 0.98407 0.39802 0.31625 0.0
H1065 H 1.05303 0.45106 0.30302 0.0
C1066 C 0.15917 0.58721 0.22438 0.0
C1067 C 0.15686 0.55922 0.21544 0.0
C1068 C 0.15198 0.58598 0.24547 0.0
C1069 C 0.14255 0.55681 0.25791 0.0
C1070 C 0.13921 0.52846 0.24883 0.0
C1071 C 0.14644 0.52971 0.2278 0.0
C1072 C 0.1372 0.55594 0.28052 0.0
C1073 C 0.09887 0.52585 0.28878 0.0
C1074 C 0.16997 0.58388 0.29399 0.0
C1075 C 0.21177 0.61574 0.28631 0.0
C1076 C 0.23798 0.61114 0.27565 0.0
C1077 C 0.27714 0.64131 0.26828 0.0
C1078 C 0.2906 0.67624 0.27164 0.0
C1079 C 0.26498 0.68107 0.28244 0.0
C1080 C 0.22576 0.65097 0.28981 0.0
C1081 C 0.11344 0.5091 0.37721 0.0
C1082 C 0.11778 0.53484 0.38999 0.0
C1083 C 0.1167 0.5143 0.35578 0.0
C1084 C 0.12405 0.5452 0.34661 0.0
C1085 C 0.12954 0.57148 0.35933 0.0
C1086 C 0.12638 0.56633 0.38086 0.0
C1087 C 0.12619 0.54983 0.32373 0.0
C1088 C 0.16385 0.58063 0.31541 0.0
C1089 C 0.09277 0.52254 0.31018 0.0
C1090 C 1.05108 0.49052 0.31796 0.0
C1091 C 1.02708 0.49505 0.33063 0.0
C1092 C 0.98814 0.46482 0.33815 0.0
C1093 C 0.97268 0.42988 0.33298 0.0
C1094 C 0.99609 0.42511 0.32025 0.0
C1095 C 1.03509 0.45525 0.31272 0.0
H1096 H 0.94253 0.40651 0.33881 0.0
H1097 H 0.32092 0.69956 0.26592 0.0
loop_
_geom_bond_atom_site_label_1
_geom_bond_atom_site_label_2
_geom_bond_distance
_geom_bond_site_symmetry_2
_ccdc_geom_bond_type
Sm0 C2 2.846 . S
Sm0 O20 2.543 . S
Sm0 O21 2.450 . S
Sm0 O22 2.681 1_455 S
Sm0 O23 2.464 . S
Sm0 O24 2.396 . S
Sm0 O28 2.386 . S
Sm0 O31 2.408 1_455 S
Sm1 C11 2.846 . S
Sm1 O22 2.386 . S
Sm1 O25 2.408 1_655 S
Sm1 O26 2.543 . S
Sm1 O27 2.450 . S
Sm1 O28 2.681 1_655 S
Sm1 O29 2.464 . S
Sm1 O30 2.396 . S
C2 Sm0 2.846 . S
C2 C3 1.506 . S
C2 O20 1.261 . S
C2 O21 1.242 . S
C3 C2 1.506 . S
C3 C4 1.358 . S
C3 C8 1.382 . S
C4 C3 1.358 . S
C4 C5 1.385 . S
C4 H32 0.930 . S
C5 C4 1.385 . S
C5 C6 1.395 . S
C5 H33 0.929 . S
C6 C5 1.395 . S
C6 C7 1.335 . S
C7 C6 1.335 . S
C7 C8 1.398 . S
C7 H34 0.930 . S
C8 C3 1.382 . S
C8 C7 1.398 . S
C8 H35 0.929 . S
C9 O22 1.271 1_455 S
C9 O23 1.251 . S
C10 O24 1.252 . S
C10 O25 1.272 . S
C11 Sm1 2.846 . S
C11 C12 1.506 . S
C11 O26 1.261 . S
C11 O27 1.242 . S
C12 C11 1.506 . S
C12 C13 1.358 . S
C12 C17 1.382 . S
C13 C12 1.358 . S
C13 C14 1.385 . S
C13 H36 0.930 . S
C14 C13 1.385 . S
C14 C15 1.395 . S
C14 H37 0.929 . S
C15 C14 1.395 . S
C15 C16 1.335 . S
C16 C15 1.335 . S
C16 C17 1.398 . S
C16 H38 0.930 . S
C17 C12 1.382 . S
C17 C16 1.398 . S
C17 H39 0.929 . S
C18 O28 1.271 . S
C18 O29 1.251 1_455 S
C19 O30 1.252 . S
C19 O31 1.272 . S
O20 Sm0 2.543 . S
O20 C2 1.261 . S
O21 Sm0 2.450 . S
O21 C2 1.242 . S
O22 Sm0 2.681 1_655 S
O22 Sm1 2.386 . S
O22 C9 1.271 1_655 S
O23 Sm0 2.464 . S
O23 C9 1.251 . S
O24 Sm0 2.396 . S
O24 C10 1.252 . S
O25 Sm1 2.408 1_455 S
O25 C10 1.272 . S
O26 Sm1 2.543 . S
O26 C11 1.261 . S
O27 Sm1 2.450 . S
O27 C11 1.242 . S
O28 Sm0 2.386 . S
O28 Sm1 2.681 1_455 S
O28 C18 1.271 . S
O29 Sm1 2.464 . S
O29 C18 1.251 1_655 S
O30 Sm1 2.396 . S
O30 C19 1.252 . S
O31 Sm0 2.408 1_655 S
O31 C19 1.272 . S
H32 C4 0.930 . S
H33 C5 0.929 . S
H34 C7 0.930 . S
H35 C8 0.929 . S
H36 C13 0.930 . S
H37 C14 0.929 . S
H38 C16 0.930 . S
H39 C17 0.929 . S
Sm40 C42 2.846 1_545 S
Sm40 O60 2.543 1_545 S
Sm40 O61 2.450 1_545 S
Sm40 O62 2.681 . S
Sm40 O63 2.464 . S
Sm40 O64 2.396 1_545 S
Sm40 O68 2.386 . S
Sm40 O71 2.408 . S
Sm41 C51 2.846 . S
Sm41 O62 2.386 . S
Sm41 O65 2.408 1_545 S
Sm41 O66 2.543 . S
Sm41 O67 2.450 . S
Sm41 O68 2.681 . S
Sm41 O69 2.464 . S
Sm41 O70 2.396 . S
C42 Sm40 2.846 1_565 S
C42 C43 1.506 . S
C42 O60 1.261 . S
C42 O61 1.242 . S
C43 C42 1.506 . S
C43 C44 1.358 . S
C43 C48 1.382 . S
C44 C43 1.358 . S
C44 C45 1.385 . S
C44 H72 0.930 . S
C45 C44 1.385 . S
C45 C46 1.395 . S
C45 H73 0.929 . S
C46 C45 1.395 . S
C46 C47 1.335 . S
C47 C46 1.335 . S
C47 C48 1.398 . S
C47 H74 0.930 . S
C48 C43 1.382 . S
C48 C47 1.398 . S
C48 H75 0.929 . S
C49 O62 1.271 . S
C49 O63 1.251 . S
C50 O64 1.252 . S
C50 O65 1.272 . S
C51 Sm41 2.846 . S
C51 C52 1.506 . S
C51 O66 1.261 . S
C51 O67 1.242 . S
C52 C51 1.506 . S
C52 C53 1.358 . S
C52 C57 1.382 . S
C53 C52 1.358 . S
C53 C54 1.385 . S
C53 H76 0.930 . S
C54 C53 1.385 . S
C54 C55 1.395 . S
C54 H77 0.929 . S
C55 C54 1.395 . S
C55 C56 1.335 . S
C56 C55 1.335 . S
C56 C57 1.398 . S
C56 H78 0.930 . S
C57 C52 1.382 . S
C57 C56 1.398 . S
C57 H79 0.929 . S
C58 O68 1.271 . S
C58 O69 1.251 . S
C59 O70 1.252 . S
C59 O71 1.272 . S
O60 Sm40 2.543 1_565 S
O60 C42 1.261 . S
O61 Sm40 2.450 1_565 S
O61 C42 1.242 . S
O62 Sm40 2.681 . S
O62 Sm41 2.386 . S
O62 C49 1.271 . S
O63 Sm40 2.464 . S
O63 C49 1.251 . S
O64 Sm40 2.396 1_565 S
O64 C50 1.252 . S
O65 Sm41 2.408 1_565 S
O65 C50 1.272 . S
O66 Sm41 2.543 . S
O66 C51 1.261 . S
O67 Sm41 2.450 . S
O67 C51 1.242 . S
O68 Sm40 2.386 . S
O68 Sm41 2.681 . S
O68 C58 1.271 . S
O69 Sm41 2.464 . S
O69 C58 1.251 . S
O70 Sm41 2.396 . S
O70 C59 1.252 . S
O71 Sm40 2.408 . S
O71 C59 1.272 . S
H72 C44 0.930 . S
H73 C45 0.929 . S
H74 C47 0.930 . S
H75 C48 0.929 . S
H76 C53 0.930 . S
H77 C54 0.929 . S
H78 C56 0.930 . S
H79 C57 0.929 . S
Sm80 C82 2.846 . S
Sm80 O100 2.543 . S
Sm80 O101 2.450 . S
Sm80 O102 2.681 . S
Sm80 O103 2.464 . S
Sm80 O104 2.396 . S
Sm80 O108 2.386 . S
Sm80 O111 2.408 . S
Sm81 C91 2.846 . S
Sm81 O102 2.386 . S
Sm81 O105 2.408 . S
Sm81 O106 2.543 . S
Sm81 O107 2.450 . S
Sm81 O108 2.681 . S
Sm81 O109 2.464 . S
Sm81 O110 2.396 . S
C82 Sm80 2.846 . S
C82 C83 1.506 . S
C82 O100 1.261 . S
C82 O101 1.242 . S
C83 C82 1.506 . S
C83 C84 1.358 . S
C83 C88 1.382 . S
C84 C83 1.358 . S
C84 C85 1.385 . S
C84 H112 0.930 . S
C85 C84 1.385 . S
C85 C86 1.395 . S
C85 H113 0.929 . S
C86 C85 1.395 . S
C86 C87 1.335 . S
C87 C86 1.335 . S
C87 C88 1.398 . S
C87 H114 0.930 . S
C88 C83 1.382 . S
C88 C87 1.398 . S
C88 H115 0.929 . S
C89 O102 1.271 . S
C89 O103 1.251 . S
C90 O104 1.252 . S
C90 O105 1.272 . S
C91 Sm81 2.846 . S
C91 C92 1.506 . S
C91 O106 1.261 . S
C91 O107 1.242 . S
C92 C91 1.506 . S
C92 C93 1.358 . S
C92 C97 1.382 . S
C93 C92 1.358 . S
C93 C94 1.385 . S
C93 H116 0.930 . S
C94 C93 1.385 . S
C94 C95 1.395 . S
C94 H117 0.929 . S
C95 C94 1.395 . S
C95 C96 1.335 . S
C96 C95 1.335 . S
C96 C97 1.398 . S
C96 H118 0.930 . S
C97 C92 1.382 . S
C97 C96 1.398 . S
C97 H119 0.929 . S
C98 O108 1.271 . S
C98 O109 1.251 . S
C99 O110 1.252 . S
C99 O111 1.272 . S
O100 Sm80 2.543 . S
O100 C82 1.261 . S
O101 Sm80 2.450 . S
O101 C82 1.242 . S
O102 Sm80 2.681 . S
O102 Sm81 2.386 . S
O102 C89 1.271 . S
O103 Sm80 2.464 . S
O103 C89 1.251 . S
O104 Sm80 2.396 . S
O104 C90 1.252 . S
O105 Sm81 2.408 . S
O105 C90 1.272 . S
O106 Sm81 2.543 . S
O106 C91 1.261 . S
O107 Sm81 2.450 . S
O107 C91 1.242 . S
O108 Sm80 2.386 . S
O108 Sm81 2.681 . S
O108 C98 1.271 . S
O109 Sm81 2.464 . S
O109 C98 1.251 . S
O110 Sm81 2.396 . S
O110 C99 1.252 . S
O111 Sm80 2.408 . S
O111 C99 1.272 . S
H112 C84 0.930 . S
H113 C85 0.929 . S
H114 C87 0.930 . S
H115 C88 0.929 . S
H116 C93 0.930 . S
H117 C94 0.929 . S
H118 C96 0.930 . S
H119 C97 0.929 . S
H120 C127 0.929 . S
H121 C130 0.930 . S
H122 C132 0.929 . S
H123 C124 0.969 . S
C124 H123 0.969 . S
C124 O125 1.550 . S
C124 H126 0.973 . S
O125 C124 1.550 . S
O125 C131 1.412 . S
H126 C124 0.973 . S
C127 H120 0.929 . S
C127 C128 1.400 . S
C127 C129 1.364 . S
C128 C127 1.400 . S
C128 C132 1.377 . S
C129 C127 1.364 . S
C129 C130 1.374 1_545 S
C130 H121 0.930 . S
C130 C129 1.374 1_565 S
C130 C131 1.383 . S
C131 O125 1.412 . S
C131 C130 1.383 . S
C131 C132 1.394 1_565 S
C132 H122 0.929 . S
C132 C128 1.377 . S
C132 C131 1.394 1_545 S
H133 C140 0.929 . S
H134 C143 0.930 . S
H135 C145 0.929 . S
H136 C137 0.969 . S
C137 H136 0.969 . S
C137 O138 1.550 . S
C137 H139 0.973 . S
O138 C137 1.550 . S
O138 C144 1.412 . S
H139 C137 0.973 . S
C140 H133 0.929 . S
C140 C141 1.400 . S
C140 C142 1.364 . S
C141 C140 1.400 . S
C141 C145 1.377 . S
C142 C140 1.364 . S
C142 C143 1.374 . S
C143 H134 0.930 . S
C143 C142 1.374 . S
C143 C144 1.383 . S
C144 O138 1.412 . S
C144 C143 1.383 . S
C144 C145 1.394 . S
C145 H135 0.929 . S
C145 C141 1.377 . S
C145 C144 1.394 . S
H146 C153 0.929 . S
H147 C156 0.930 . S
H148 C158 0.929 . S
H149 C150 0.969 . S
C150 H149 0.969 . S
C150 O151 1.550 . S
C150 H152 0.973 . S
O151 C150 1.550 . S
O151 C157 1.412 . S
H152 C150 0.973 . S
C153 H146 0.929 . S
C153 C154 1.400 . S
C153 C155 1.364 . S
C154 C153 1.400 . S
C154 C158 1.377 . S
C155 C153 1.364 . S
C155 C156 1.374 . S
C156 H147 0.930 . S
C156 C155 1.374 . S
C156 C157 1.383 . S
C157 O151 1.412 . S
C157 C156 1.383 . S
C157 C158 1.394 . S
C158 H148 0.929 . S
C158 C154 1.377 . S
C158 C157 1.394 . S
H159 C166 0.929 1_655 S
H160 C169 0.930 . S
H161 C171 0.929 . S
H162 C163 0.969 . S
C163 H162 0.969 . S
C163 O164 1.550 . S
C163 H165 0.973 . S
O164 C163 1.550 . S
O164 C170 1.412 . S
H165 C163 0.973 . S
C166 H159 0.929 1_455 S
C166 C167 1.400 . S
C166 C168 1.364 . S
C167 C166 1.400 . S
C167 C171 1.378 . S
C168 C166 1.364 . S
C168 C169 1.374 . S
C169 H160 0.930 . S
C169 C168 1.374 . S
C169 C170 1.383 . S
C170 O164 1.412 . S
C170 C169 1.383 . S
C170 C171 1.394 . S
C171 H161 0.929 . S
C171 C167 1.378 . S
C171 C170 1.394 . S
H172 C179 0.929 . S
H173 C182 0.930 . S
H174 C184 0.929 . S
H175 C176 0.969 . S
C176 H175 0.969 . S
C176 O177 1.550 . S
C176 H178 0.973 . S
O177 C176 1.550 . S
O177 C183 1.412 . S
H178 C176 0.973 . S
C179 H172 0.929 . S
C179 C180 1.400 . S
C179 C181 1.364 1_565 S
C180 C179 1.400 . S
C180 C184 1.377 1_565 S
C181 C179 1.364 1_545 S
C181 C182 1.374 . S
C182 H173 0.930 . S
C182 C181 1.374 . S
C182 C183 1.383 . S
C183 O177 1.412 . S
C183 C182 1.383 . S
C183 C184 1.394 . S
C184 H174 0.929 . S
C184 C180 1.377 1_545 S
C184 C183 1.394 . S
H185 C192 0.929 . S
H186 C195 0.930 . S
H187 C197 0.929 . S
H188 C189 0.969 . S
C189 H188 0.969 . S
C189 O190 1.550 . S
C189 H191 0.973 . S
O190 C189 1.550 . S
O190 C196 1.412 . S
H191 C189 0.973 . S
C192 H185 0.929 . S
C192 C193 1.400 . S
C192 C194 1.364 . S
C193 C192 1.400 . S
C193 C197 1.377 . S
C194 C192 1.364 . S
C194 C195 1.374 . S
C195 H186 0.930 . S
C195 C194 1.374 . S
C195 C196 1.383 . S
C196 O190 1.412 . S
C196 C195 1.383 . S
C196 C197 1.394 . S
C197 H187 0.929 . S
C197 C193 1.377 . S
C197 C196 1.394 . S
H198 C216 0.951 . S
H199 C218 0.951 . S
H200 C220 0.950 . S
H201 C221 0.950 . S
H202 C223 0.950 . S
H203 C226 0.950 . S
H204 C227 0.950 . S
H205 C229 0.950 . S
H206 C230 0.950 . S
H207 C231 0.951 . S
H208 C233 0.951 . S
H209 C235 0.950 . S
H210 C236 0.950 . S
H211 C238 0.950 . S
H212 C241 0.950 . S
H213 C242 0.950 . S
H214 C244 0.950 . S
H215 C245 0.950 . S
C216 H198 0.951 . S
C216 C217 1.366 . S
C216 C218 1.388 . S
C217 C216 1.366 . S
C217 C221 1.385 . S
C218 H199 0.951 . S
C218 C216 1.388 . S
C218 C219 1.366 . S
C219 C218 1.366 . S
C219 C220 1.414 . S
C219 C222 1.499 . S
C220 H200 0.950 . S
C220 C219 1.414 . S
C220 C221 1.374 . S
C221 H201 0.950 . S
C221 C217 1.385 . S
C221 C220 1.374 . S
C222 C219 1.499 . S
C222 C223 1.373 . S
C222 C224 1.389 . S
C223 H202 0.950 . S
C223 C222 1.373 . S
C223 C239 1.377 . S
C224 C222 1.389 . S
C224 C225 1.524 . S
C224 C238 1.377 . S
C225 C224 1.524 . S
C225 C226 1.397 . S
C225 C230 1.363 . S
C226 H203 0.950 . S
C226 C225 1.397 . S
C226 C227 1.334 . S
C227 H204 0.950 . S
C227 C226 1.334 . S
C227 C228 1.287 . S
C228 C227 1.287 . S
C228 C229 1.524 . S
C228 H247 0.913 . S
C229 H205 0.950 . S
C229 C228 1.524 . S
C229 C230 1.415 . S
C230 H206 0.950 . S
C230 C225 1.363 . S
C230 C229 1.415 . S
C231 H207 0.951 . S
C231 C232 1.366 . S
C231 C233 1.388 . S
C232 C231 1.366 . S
C232 C236 1.385 . S
C233 H208 0.951 . S
C233 C231 1.388 . S
C233 C234 1.366 . S
C234 C233 1.366 . S
C234 C235 1.414 . S
C234 C237 1.499 . S
C235 H209 0.950 . S
C235 C234 1.414 . S
C235 C236 1.374 . S
C236 H210 0.950 . S
C236 C232 1.385 . S
C236 C235 1.374 . S
C237 C234 1.499 . S
C237 C238 1.373 . S
C237 C239 1.389 . S
C238 H211 0.950 . S
C238 C224 1.377 . S
C238 C237 1.373 . S
C239 C223 1.377 . S
C239 C237 1.389 . S
C239 C240 1.524 . S
C240 C239 1.524 . S
C240 C241 1.397 . S
C240 C245 1.363 . S
C241 H212 0.950 . S
C241 C240 1.397 . S
C241 C242 1.334 . S
C242 H213 0.950 . S
C242 C241 1.334 . S
C242 C243 1.287 . S
C243 C242 1.287 . S
C243 C244 1.524 . S
C243 H246 0.999 . S
C244 H214 0.950 . S
C244 C243 1.524 . S
C244 C245 1.415 . S
C245 H215 0.950 . S
C245 C240 1.363 . S
C245 C244 1.415 . S
H246 C243 0.999 . S
H247 C228 0.913 . S
H248 C266 0.951 . S
H249 C268 0.951 . S
H250 C270 0.950 . S
H251 C271 0.950 . S
H252 C273 0.950 . S
H253 C276 0.950 . S
H254 C277 0.950 . S
H255 C279 0.950 . S
H256 C280 0.950 . S
H257 C281 0.951 . S
H258 C283 0.951 . S
H259 C285 0.950 . S
H260 C286 0.950 . S
H261 C288 0.950 . S
H262 C291 0.950 . S
H263 C292 0.950 . S
H264 C294 0.950 . S
H265 C295 0.950 . S
C266 H248 0.951 . S
C266 C267 1.366 . S
C266 C268 1.388 . S
C267 C266 1.366 . S
C267 C271 1.385 . S
C268 H249 0.951 . S
C268 C266 1.388 . S
C268 C269 1.366 . S
C269 C268 1.366 . S
C269 C270 1.414 . S
C269 C272 1.499 . S
C270 H250 0.950 . S
C270 C269 1.414 . S
C270 C271 1.374 . S
C271 H251 0.950 . S
C271 C267 1.385 . S
C271 C270 1.374 . S
C272 C269 1.499 . S
C272 C273 1.373 . S
C272 C274 1.389 . S
C273 H252 0.950 . S
C273 C272 1.373 . S
C273 C289 1.377 . S
C274 C272 1.389 . S
C274 C275 1.524 . S
C274 C288 1.377 . S
C275 C274 1.524 . S
C275 C276 1.397 . S
C275 C280 1.363 . S
C276 H253 0.950 . S
C276 C275 1.397 . S
C276 C277 1.334 . S
C277 H254 0.950 . S
C277 C276 1.334 . S
C277 C278 1.287 . S
C278 C277 1.287 . S
C278 C279 1.524 . S
C278 H297 0.913 . S
C279 H255 0.950 . S
C279 C278 1.524 . S
C279 C280 1.415 . S
C280 H256 0.950 . S
C280 C275 1.363 . S
C280 C279 1.415 . S
C281 H257 0.951 . S
C281 C282 1.366 . S
C281 C283 1.388 . S
C282 C281 1.366 . S
C282 C286 1.385 . S
C283 H258 0.951 . S
C283 C281 1.388 . S
C283 C284 1.366 . S
C284 C283 1.366 . S
C284 C285 1.414 . S
C284 C287 1.499 . S
C285 H259 0.950 . S
C285 C284 1.414 . S
C285 C286 1.374 . S
C286 H260 0.950 . S
C286 C282 1.385 . S
C286 C285 1.374 . S
C287 C284 1.499 . S
C287 C288 1.373 . S
C287 C289 1.389 . S
C288 H261 0.950 . S
C288 C274 1.377 . S
C288 C287 1.373 . S
C289 C273 1.377 . S
C289 C287 1.389 . S
C289 C290 1.524 . S
C290 C289 1.524 . S
C290 C291 1.397 . S
C290 C295 1.363 . S
C291 H262 0.950 . S
C291 C290 1.397 . S
C291 C292 1.334 . S
C292 H263 0.950 . S
C292 C291 1.334 . S
C292 C293 1.287 . S
C293 C292 1.287 . S
C293 C294 1.524 . S
C293 H296 0.999 . S
C294 H264 0.950 . S
C294 C293 1.524 . S
C294 C295 1.415 . S
C295 H265 0.950 . S
C295 C290 1.363 . S
C295 C294 1.415 . S
H296 C293 0.999 . S
H297 C278 0.913 . S
H298 C316 0.951 . S
H299 C318 0.951 . S
H300 C320 0.950 . S
H301 C321 0.950 . S
H302 C323 0.950 . S
H303 C326 0.950 . S
H304 C327 0.950 . S
H305 C329 0.950 . S
H306 C330 0.950 . S
H307 C331 0.951 . S
H308 C333 0.951 . S
H309 C335 0.950 . S
H310 C336 0.950 1_545 S
H311 C338 0.950 . S
H312 C341 0.950 . S
H313 C342 0.950 . S
H314 C344 0.950 . S
H315 C345 0.950 . S
C316 H298 0.951 . S
C316 C317 1.366 . S
C316 C318 1.388 . S
C317 C316 1.366 . S
C317 C321 1.385 . S
C318 H299 0.951 . S
C318 C316 1.388 . S
C318 C319 1.366 . S
C319 C318 1.366 . S
C319 C320 1.414 . S
C319 C322 1.499 . S
C320 H300 0.950 . S
C320 C319 1.414 . S
C320 C321 1.374 . S
C321 H301 0.950 . S
C321 C317 1.385 . S
C321 C320 1.374 . S
C322 C319 1.499 . S
C322 C323 1.373 . S
C322 C324 1.389 . S
C323 H302 0.950 . S
C323 C322 1.373 . S
C323 C339 1.377 . S
C324 C322 1.389 . S
C324 C325 1.524 . S
C324 C338 1.377 . S
C325 C324 1.524 . S
C325 C326 1.397 . S
C325 C330 1.363 . S
C326 H303 0.950 . S
C326 C325 1.397 . S
C326 C327 1.334 . S
C327 H304 0.950 . S
C327 C326 1.334 . S
C327 C328 1.287 . S
C328 C327 1.287 . S
C328 C329 1.524 . S
C328 H347 0.913 . S
C329 H305 0.950 . S
C329 C328 1.524 . S
C329 C330 1.415 . S
C330 H306 0.950 . S
C330 C325 1.363 . S
C330 C329 1.415 . S
C331 H307 0.951 . S
C331 C332 1.366 . S
C331 C333 1.388 . S
C332 C331 1.366 . S
C332 C336 1.385 . S
C333 H308 0.951 . S
C333 C331 1.388 . S
C333 C334 1.366 . S
C334 C333 1.366 . S
C334 C335 1.414 . S
C334 C337 1.499 . S
C335 H309 0.950 . S
C335 C334 1.414 . S
C335 C336 1.374 . S
C336 H310 0.950 1_565 S
C336 C332 1.385 . S
C336 C335 1.374 . S
C337 C334 1.499 . S
C337 C338 1.373 . S
C337 C339 1.389 . S
C338 H311 0.950 . S
C338 C324 1.377 . S
C338 C337 1.373 . S
C339 C323 1.377 . S
C339 C337 1.389 . S
C339 C340 1.524 . S
C340 C339 1.524 . S
C340 C341 1.397 . S
C340 C345 1.363 . S
C341 H312 0.950 . S
C341 C340 1.397 . S
C341 C342 1.334 . S
C342 H313 0.950 . S
C342 C341 1.334 . S
C342 C343 1.287 . S
C343 C342 1.287 . S
C343 C344 1.524 . S
C343 H346 0.999 . S
C344 H314 0.950 . S
C344 C343 1.524 . S
C344 C345 1.415 . S
C345 H315 0.950 . S
C345 C340 1.363 . S
C345 C344 1.415 . S
H346 C343 0.999 . S
H347 C328 0.913 . S
H348 C366 0.951 . S
H349 C368 0.951 . S
H350 C370 0.950 . S
H351 C371 0.950 . S
H352 C373 0.950 . S
H353 C376 0.950 . S
H354 C377 0.950 . S
H355 C379 0.950 . S
H356 C380 0.950 . S
H357 C381 0.951 . S
H358 C383 0.951 . S
H359 C385 0.950 . S
H360 C386 0.950 . S
H361 C388 0.950 . S
H362 C391 0.950 . S
H363 C392 0.950 . S
H364 C394 0.950 . S
H365 C395 0.950 . S
C366 H348 0.951 . S
C366 C367 1.366 . S
C366 C368 1.388 . S
C367 C366 1.366 . S
C367 C371 1.385 . S
C368 H349 0.951 . S
C368 C366 1.388 . S
C368 C369 1.366 . S
C369 C368 1.366 . S
C369 C370 1.414 . S
C369 C372 1.499 . S
C370 H350 0.950 . S
C370 C369 1.414 . S
C370 C371 1.374 . S
C371 H351 0.950 . S
C371 C367 1.385 . S
C371 C370 1.374 . S
C372 C369 1.499 . S
C372 C373 1.373 . S
C372 C374 1.389 . S
C373 H352 0.950 . S
C373 C372 1.373 . S
C373 C389 1.377 . S
C374 C372 1.389 . S
C374 C375 1.524 . S
C374 C388 1.377 . S
C375 C374 1.524 . S
C375 C376 1.397 . S
C375 C380 1.363 . S
C376 H353 0.950 . S
C376 C375 1.397 . S
C376 C377 1.334 . S
C377 H354 0.950 . S
C377 C376 1.334 . S
C377 C378 1.287 . S
C378 C377 1.287 . S
C378 C379 1.524 . S
C378 H397 0.913 . S
C379 H355 0.950 . S
C379 C378 1.524 . S
C379 C380 1.415 . S
C380 H356 0.950 . S
C380 C375 1.363 . S
C380 C379 1.415 . S
C381 H357 0.951 . S
C381 C382 1.366 . S
C381 C383 1.388 . S
C382 C381 1.366 . S
C382 C386 1.385 . S
C383 H358 0.951 . S
C383 C381 1.388 . S
C383 C384 1.366 . S
C384 C383 1.366 . S
C384 C385 1.414 . S
C384 C387 1.499 . S
C385 H359 0.950 . S
C385 C384 1.414 . S
C385 C386 1.374 . S
C386 H360 0.950 . S
C386 C382 1.385 . S
C386 C385 1.374 . S
C387 C384 1.499 . S
C387 C388 1.373 . S
C387 C389 1.389 . S
C388 H361 0.950 . S
C388 C374 1.377 . S
C388 C387 1.373 . S
C389 C373 1.377 . S
C389 C387 1.389 . S
C389 C390 1.524 . S
C390 C389 1.524 . S
C390 C391 1.397 . S
C390 C395 1.363 . S
C391 H362 0.950 . S
C391 C390 1.397 . S
C391 C392 1.334 . S
C392 H363 0.950 . S
C392 C391 1.334 . S
C392 C393 1.287 . S
C393 C392 1.287 . S
C393 C394 1.524 . S
C393 H396 0.999 . S
C394 H364 0.950 . S
C394 C393 1.524 . S
C394 C395 1.415 . S
C395 H365 0.950 . S
C395 C390 1.363 . S
C395 C394 1.415 . S
H396 C393 0.999 . S
H397 C378 0.913 . S
H398 C416 0.951 . S
H399 C418 0.951 . S
H400 C420 0.950 . S
H401 C421 0.950 . S
H402 C423 0.950 . S
H403 C426 0.950 . S
H404 C427 0.950 . S
H405 C429 0.950 . S
H406 C430 0.950 . S
H407 C431 0.951 . S
H408 C433 0.951 . S
H409 C435 0.950 . S
H410 C436 0.950 . S
H411 C438 0.950 . S
H412 C441 0.950 . S
H413 C442 0.950 . S
H414 C444 0.950 . S
H415 C445 0.950 . S
C416 H398 0.951 . S
C416 C417 1.366 . S
C416 C418 1.388 . S
C417 C416 1.366 . S
C417 C421 1.385 . S
C418 H399 0.951 . S
C418 C416 1.388 . S
C418 C419 1.366 . S
C419 C418 1.366 . S
C419 C420 1.414 . S
C419 C422 1.499 . S
C420 H400 0.950 . S
C420 C419 1.414 . S
C420 C421 1.374 . S
C421 H401 0.950 . S
C421 C417 1.385 . S
C421 C420 1.374 . S
C422 C419 1.499 . S
C422 C423 1.373 . S
C422 C424 1.389 . S
C423 H402 0.950 . S
C423 C422 1.373 . S
C423 C439 1.377 . S
C424 C422 1.389 . S
C424 C425 1.524 . S
C424 C438 1.377 . S
C425 C424 1.524 . S
C425 C426 1.397 . S
C425 C430 1.363 . S
C426 H403 0.950 . S
C426 C425 1.397 . S
C426 C427 1.334 . S
C427 H404 0.950 . S
C427 C426 1.334 . S
C427 C428 1.287 . S
C428 C427 1.287 . S
C428 C429 1.524 . S
C428 H447 0.913 . S
C429 H405 0.950 . S
C429 C428 1.524 . S
C429 C430 1.415 . S
C430 H406 0.950 . S
C430 C425 1.363 . S
C430 C429 1.415 . S
C431 H407 0.951 . S
C431 C432 1.366 . S
C431 C433 1.388 . S
C432 C431 1.366 . S
C432 C436 1.385 . S
C433 H408 0.951 . S
C433 C431 1.388 . S
C433 C434 1.366 . S
C434 C433 1.366 . S
C434 C435 1.414 . S
C434 C437 1.499 . S
C435 H409 0.950 . S
C435 C434 1.414 . S
C435 C436 1.374 . S
C436 H410 0.950 . S
C436 C432 1.385 . S
C436 C435 1.374 . S
C437 C434 1.499 . S
C437 C438 1.373 . S
C437 C439 1.389 . S
C438 H411 0.950 . S
C438 C424 1.377 . S
C438 C437 1.373 . S
C439 C423 1.377 . S
C439 C437 1.389 . S
C439 C440 1.524 . S
C440 C439 1.524 . S
C440 C441 1.397 . S
C440 C445 1.363 . S
C441 H412 0.950 . S
C441 C440 1.397 . S
C441 C442 1.334 . S
C442 H413 0.950 . S
C442 C441 1.334 . S
C442 C443 1.287 . S
C443 C442 1.287 . S
C443 C444 1.524 . S
C443 H446 0.999 . S
C444 H414 0.950 . S
C444 C443 1.524 . S
C444 C445 1.415 . S
C445 H415 0.950 . S
C445 C440 1.363 . S
C445 C444 1.415 . S
H446 C443 0.999 . S
H447 C428 0.913 . S
H448 C466 0.951 . S
H449 C468 0.951 . S
H450 C470 0.950 . S
H451 C471 0.950 . S
H452 C473 0.950 . S
H453 C476 0.950 . S
H454 C477 0.950 . S
H455 C479 0.950 . S
H456 C480 0.950 . S
H457 C481 0.951 . S
H458 C483 0.951 . S
H459 C485 0.950 . S
H460 C486 0.950 . S
H461 C488 0.950 . S
H462 C491 0.950 . S
H463 C492 0.950 . S
H464 C494 0.950 . S
H465 C495 0.950 . S
C466 H448 0.951 . S
C466 C467 1.366 . S
C466 C468 1.388 . S
C467 C466 1.366 . S
C467 C471 1.385 . S
C468 H449 0.951 . S
C468 C466 1.388 . S
C468 C469 1.366 . S
C469 C468 1.366 . S
C469 C470 1.414 . S
C469 C472 1.499 . S
C470 H450 0.950 . S
C470 C469 1.414 . S
C470 C471 1.374 . S
C471 H451 0.950 . S
C471 C467 1.385 . S
C471 C470 1.374 . S
C472 C469 1.499 . S
C472 C473 1.373 . S
C472 C474 1.389 . S
C473 H452 0.950 . S
C473 C472 1.373 . S
C473 C489 1.377 . S
C474 C472 1.389 . S
C474 C475 1.524 . S
C474 C488 1.377 . S
C475 C474 1.524 . S
C475 C476 1.397 . S
C475 C480 1.363 . S
C476 H453 0.950 . S
C476 C475 1.397 . S
C476 C477 1.334 . S
C477 H454 0.950 . S
C477 C476 1.334 . S
C477 C478 1.287 . S
C478 C477 1.287 . S
C478 C479 1.524 . S
C478 H497 0.913 . S
C479 H455 0.950 . S
C479 C478 1.524 . S
C479 C480 1.415 . S
C480 H456 0.950 . S
C480 C475 1.363 . S
C480 C479 1.415 . S
C481 H457 0.951 . S
C481 C482 1.366 . S
C481 C483 1.388 . S
C482 C481 1.366 . S
C482 C486 1.385 . S
C483 H458 0.951 . S
C483 C481 1.388 . S
C483 C484 1.366 . S
C484 C483 1.366 . S
C484 C485 1.414 . S
C484 C487 1.499 . S
C485 H459 0.950 . S
C485 C484 1.414 . S
C485 C486 1.374 . S
C486 H460 0.950 . S
C486 C482 1.385 . S
C486 C485 1.374 . S
C487 C484 1.499 . S
C487 C488 1.373 . S
C487 C489 1.389 . S
C488 H461 0.950 . S
C488 C474 1.377 . S
C488 C487 1.373 . S
C489 C473 1.377 . S
C489 C487 1.389 . S
C489 C490 1.524 . S
C490 C489 1.524 . S
C490 C491 1.397 . S
C490 C495 1.363 . S
C491 H462 0.950 . S
C491 C490 1.397 . S
C491 C492 1.334 . S
C492 H463 0.950 . S
C492 C491 1.334 . S
C492 C493 1.287 . S
C493 C492 1.287 . S
C493 C494 1.524 . S
C493 H496 0.999 . S
C494 H464 0.950 . S
C494 C493 1.524 . S
C494 C495 1.415 . S
C495 H465 0.950 . S
C495 C490 1.363 . S
C495 C494 1.415 . S
H496 C493 0.999 . S
H497 C478 0.913 . S
H498 C516 0.951 . S
H499 C518 0.951 . S
H500 C520 0.950 . S
H501 C521 0.950 . S
H502 C523 0.950 . S
H503 C526 0.950 . S
H504 C527 0.950 . S
H505 C529 0.950 . S
H506 C530 0.950 . S
H507 C531 0.951 . S
H508 C533 0.951 . S
H509 C535 0.950 . S
H510 C536 0.950 . S
H511 C538 0.950 . S
H512 C541 0.950 . S
H513 C542 0.950 . S
H514 C544 0.950 . S
H515 C545 0.950 . S
C516 H498 0.951 . S
C516 C517 1.366 . S
C516 C518 1.388 . S
C517 C516 1.366 . S
C517 C521 1.385 . S
C518 H499 0.951 . S
C518 C516 1.388 . S
C518 C519 1.366 . S
C519 C518 1.366 . S
C519 C520 1.414 . S
C519 C522 1.499 . S
C520 H500 0.950 . S
C520 C519 1.414 . S
C520 C521 1.374 . S
C521 H501 0.950 . S
C521 C517 1.385 . S
C521 C520 1.374 . S
C522 C519 1.499 . S
C522 C523 1.373 . S
C522 C524 1.389 . S
C523 H502 0.950 . S
C523 C522 1.373 . S
C523 C539 1.377 . S
C524 C522 1.389 . S
C524 C525 1.524 . S
C524 C538 1.377 . S
C525 C524 1.524 . S
C525 C526 1.397 . S
C525 C530 1.363 . S
C526 H503 0.950 . S
C526 C525 1.397 . S
C526 C527 1.334 . S
C527 H504 0.950 . S
C527 C526 1.334 . S
C527 C528 1.287 . S
C528 C527 1.287 . S
C528 C529 1.524 . S
C528 H547 0.913 . S
C529 H505 0.950 . S
C529 C528 1.524 . S
C529 C530 1.415 . S
C530 H506 0.950 . S
C530 C525 1.363 . S
C530 C529 1.415 . S
C531 H507 0.951 . S
C531 C532 1.366 . S
C531 C533 1.388 . S
C532 C531 1.366 . S
C532 C536 1.385 . S
C533 H508 0.951 . S
C533 C531 1.388 . S
C533 C534 1.366 . S
C534 C533 1.366 . S
C534 C535 1.414 . S
C534 C537 1.499 . S
C535 H509 0.950 . S
C535 C534 1.414 . S
C535 C536 1.374 . S
C536 H510 0.950 . S
C536 C532 1.385 . S
C536 C535 1.374 . S
C537 C534 1.499 . S
C537 C538 1.373 . S
C537 C539 1.389 . S
C538 H511 0.950 . S
C538 C524 1.377 . S
C538 C537 1.373 . S
C539 C523 1.377 . S
C539 C537 1.389 . S
C539 C540 1.524 . S
C540 C539 1.524 . S
C540 C541 1.397 . S
C540 C545 1.363 . S
C541 H512 0.950 . S
C541 C540 1.397 . S
C541 C542 1.334 . S
C542 H513 0.950 . S
C542 C541 1.334 . S
C542 C543 1.287 . S
C543 C542 1.287 . S
C543 C544 1.524 . S
C543 H546 0.999 . S
C544 H514 0.950 . S
C544 C543 1.524 . S
C544 C545 1.415 . S
C545 H515 0.950 . S
C545 C540 1.363 . S
C545 C544 1.415 . S
H546 C543 0.999 . S
H547 C528 0.913 . S
H548 C566 0.951 . S
H549 C568 0.951 . S
H550 C570 0.950 . S
H551 C571 0.950 . S
H552 C573 0.950 . S
H553 C576 0.950 . S
H554 C577 0.950 . S
H555 C579 0.950 . S
H556 C580 0.950 . S
H557 C581 0.951 . S
H558 C583 0.951 . S
H559 C585 0.950 . S
H560 C586 0.950 1_455 S
H561 C588 0.950 . S
H562 C591 0.950 . S
H563 C592 0.950 . S
H564 C594 0.950 . S
H565 C595 0.950 . S
C566 H548 0.951 . S
C566 C567 1.366 . S
C566 C568 1.388 . S
C567 C566 1.366 . S
C567 C571 1.385 . S
C568 H549 0.951 . S
C568 C566 1.388 . S
C568 C569 1.366 . S
C569 C568 1.366 . S
C569 C570 1.414 . S
C569 C572 1.499 . S
C570 H550 0.950 . S
C570 C569 1.414 . S
C570 C571 1.374 . S
C571 H551 0.950 . S
C571 C567 1.385 . S
C571 C570 1.374 . S
C572 C569 1.499 . S
C572 C573 1.373 . S
C572 C574 1.389 . S
C573 H552 0.950 . S
C573 C572 1.373 . S
C573 C589 1.377 . S
C574 C572 1.389 . S
C574 C575 1.524 . S
C574 C588 1.377 . S
C575 C574 1.524 . S
C575 C576 1.397 . S
C575 C580 1.363 . S
C576 H553 0.950 . S
C576 C575 1.397 . S
C576 C577 1.334 . S
C577 H554 0.950 . S
C577 C576 1.334 . S
C577 C578 1.287 . S
C578 C577 1.287 . S
C578 C579 1.524 . S
C578 H597 0.913 . S
C579 H555 0.950 . S
C579 C578 1.524 . S
C579 C580 1.415 . S
C580 H556 0.950 . S
C580 C575 1.363 . S
C580 C579 1.415 . S
C581 H557 0.951 . S
C581 C582 1.366 . S
C581 C583 1.388 . S
C582 C581 1.366 . S
C582 C586 1.385 . S
C583 H558 0.951 . S
C583 C581 1.388 . S
C583 C584 1.366 . S
C584 C583 1.366 . S
C584 C585 1.414 . S
C584 C587 1.499 . S
C585 H559 0.950 . S
C585 C584 1.414 . S
C585 C586 1.374 . S
C586 H560 0.950 1_655 S
C586 C582 1.385 . S
C586 C585 1.374 . S
C587 C584 1.499 . S
C587 C588 1.373 . S
C587 C589 1.389 . S
C588 H561 0.950 . S
C588 C574 1.377 . S
C588 C587 1.373 . S
C589 C573 1.377 . S
C589 C587 1.389 . S
C589 C590 1.524 . S
C590 C589 1.524 . S
C590 C591 1.397 . S
C590 C595 1.363 . S
C591 H562 0.950 . S
C591 C590 1.397 . S
C591 C592 1.334 . S
C592 H563 0.950 . S
C592 C591 1.334 . S
C592 C593 1.287 . S
C593 C592 1.287 . S
C593 C594 1.524 . S
C593 H596 0.999 . S
C594 H564 0.950 . S
C594 C593 1.524 . S
C594 C595 1.415 . S
C595 H565 0.950 . S
C595 C590 1.363 . S
C595 C594 1.415 . S
H596 C593 0.999 . S
H597 C578 0.913 . S
H598 C616 0.951 . S
H599 C618 0.951 . S
H600 C620 0.950 . S
H601 C621 0.950 . S
H602 C623 0.950 . S
H603 C626 0.950 . S
H604 C627 0.950 . S
H605 C629 0.950 . S
H606 C630 0.950 . S
H607 C631 0.951 . S
H608 C633 0.951 . S
H609 C635 0.950 . S
H610 C636 0.950 . S
H611 C638 0.950 . S
H612 C641 0.950 . S
H613 C642 0.950 . S
H614 C644 0.950 . S
H615 C645 0.950 . S
C616 H598 0.951 . S
C616 C617 1.366 . S
C616 C618 1.388 . S
C617 C616 1.366 . S
C617 C621 1.385 . S
C618 H599 0.951 . S
C618 C616 1.388 . S
C618 C619 1.366 . S
C619 C618 1.366 . S
C619 C620 1.414 . S
C619 C622 1.499 . S
C620 H600 0.950 . S
C620 C619 1.414 . S
C620 C621 1.374 . S
C621 H601 0.950 . S
C621 C617 1.385 . S
C621 C620 1.374 . S
C622 C619 1.499 . S
C622 C623 1.373 . S
C622 C624 1.389 . S
C623 H602 0.950 . S
C623 C622 1.373 . S
C623 C639 1.377 . S
C624 C622 1.389 . S
C624 C625 1.524 . S
C624 C638 1.377 . S
C625 C624 1.524 . S
C625 C626 1.397 . S
C625 C630 1.363 . S
C626 H603 0.950 . S
C626 C625 1.397 . S
C626 C627 1.334 . S
C627 H604 0.950 . S
C627 C626 1.334 . S
C627 C628 1.287 . S
C628 C627 1.287 . S
C628 C629 1.524 . S
C628 H647 0.913 . S
C629 H605 0.950 . S
C629 C628 1.524 . S
C629 C630 1.415 . S
C630 H606 0.950 . S
C630 C625 1.363 . S
C630 C629 1.415 . S
C631 H607 0.951 . S
C631 C632 1.366 . S
C631 C633 1.388 . S
C632 C631 1.366 . S
C632 C636 1.385 . S
C633 H608 0.951 . S
C633 C631 1.388 . S
C633 C634 1.366 . S
C634 C633 1.366 . S
C634 C635 1.414 . S
C634 C637 1.499 . S
C635 H609 0.950 . S
C635 C634 1.414 . S
C635 C636 1.374 . S
C636 H610 0.950 . S
C636 C632 1.385 . S
C636 C635 1.374 . S
C637 C634 1.499 . S
C637 C638 1.373 . S
C637 C639 1.389 . S
C638 H611 0.950 . S
C638 C624 1.377 . S
C638 C637 1.373 . S
C639 C623 1.377 . S
C639 C637 1.389 . S
C639 C640 1.524 . S
C640 C639 1.524 . S
C640 C641 1.397 . S
C640 C645 1.363 . S
C641 H612 0.950 . S
C641 C640 1.397 . S
C641 C642 1.334 . S
C642 H613 0.950 . S
C642 C641 1.334 . S
C642 C643 1.287 . S
C643 C642 1.287 . S
C643 C644 1.524 . S
C643 H646 0.999 . S
C644 H614 0.950 . S
C644 C643 1.524 . S
C644 C645 1.415 . S
C645 H615 0.950 . S
C645 C640 1.363 . S
C645 C644 1.415 . S
H646 C643 0.999 . S
H647 C628 0.913 . S
H648 C666 0.951 . S
H649 C668 0.951 . S
H650 C670 0.950 . S
H651 C671 0.950 . S
H652 C673 0.950 . S
H653 C676 0.950 . S
H654 C677 0.950 . S
H655 C679 0.950 . S
H656 C680 0.950 . S
H657 C681 0.951 . S
H658 C683 0.951 . S
H659 C685 0.950 . S
H660 C686 0.950 . S
H661 C688 0.950 . S
H662 C691 0.950 . S
H663 C692 0.950 . S
H664 C694 0.950 . S
H665 C695 0.950 . S
C666 H648 0.951 . S
C666 C667 1.366 . S
C666 C668 1.388 . S
C667 C666 1.366 . S
C667 C671 1.385 . S
C668 H649 0.951 . S
C668 C666 1.388 . S
C668 C669 1.366 . S
C669 C668 1.366 . S
C669 C670 1.414 . S
C669 C672 1.499 . S
C670 H650 0.950 . S
C670 C669 1.414 . S
C670 C671 1.374 . S
C671 H651 0.950 . S
C671 C667 1.385 . S
C671 C670 1.374 . S
C672 C669 1.499 . S
C672 C673 1.373 . S
C672 C674 1.389 . S
C673 H652 0.950 . S
C673 C672 1.373 . S
C673 C689 1.377 . S
C674 C672 1.389 . S
C674 C675 1.524 . S
C674 C688 1.377 . S
C675 C674 1.524 . S
C675 C676 1.397 . S
C675 C680 1.363 . S
C676 H653 0.950 . S
C676 C675 1.397 . S
C676 C677 1.334 . S
C677 H654 0.950 . S
C677 C676 1.334 . S
C677 C678 1.287 . S
C678 C677 1.287 . S
C678 C679 1.524 . S
C678 H697 0.913 . S
C679 H655 0.950 . S
C679 C678 1.524 . S
C679 C680 1.415 . S
C680 H656 0.950 . S
C680 C675 1.363 . S
C680 C679 1.415 . S
C681 H657 0.951 . S
C681 C682 1.366 . S
C681 C683 1.388 . S
C682 C681 1.366 . S
C682 C686 1.385 . S
C683 H658 0.951 . S
C683 C681 1.388 . S
C683 C684 1.366 . S
C684 C683 1.366 . S
C684 C685 1.414 . S
C684 C687 1.499 . S
C685 H659 0.950 . S
C685 C684 1.414 . S
C685 C686 1.374 . S
C686 H660 0.950 . S
C686 C682 1.385 . S
C686 C685 1.374 . S
C687 C684 1.499 . S
C687 C688 1.373 . S
C687 C689 1.389 . S
C688 H661 0.950 . S
C688 C674 1.377 . S
C688 C687 1.373 . S
C689 C673 1.377 . S
C689 C687 1.389 . S
C689 C690 1.524 . S
C690 C689 1.524 . S
C690 C691 1.397 . S
C690 C695 1.363 . S
C691 H662 0.950 . S
C691 C690 1.397 . S
C691 C692 1.334 . S
C692 H663 0.950 . S
C692 C691 1.334 . S
C692 C693 1.287 . S
C693 C692 1.287 . S
C693 C694 1.524 . S
C693 H696 0.999 . S
C694 H664 0.950 . S
C694 C693 1.524 . S
C694 C695 1.415 . S
C695 H665 0.950 . S
C695 C690 1.363 . S
C695 C694 1.415 . S
H696 C693 0.999 . S
H697 C678 0.913 . S
H698 C716 0.951 . S
H699 C718 0.951 . S
H700 C720 0.950 . S
H701 C721 0.950 . S
H702 C723 0.950 . S
H703 C726 0.950 . S
H704 C727 0.950 . S
H705 C729 0.950 . S
H706 C730 0.950 . S
H707 C731 0.951 . S
H708 C733 0.951 . S
H709 C735 0.950 . S
H710 C736 0.950 . S
H711 C738 0.950 . S
H712 C741 0.950 . S
H713 C742 0.950 . S
H714 C744 0.950 . S
H715 C745 0.950 . S
C716 H698 0.951 . S
C716 C717 1.366 . S
C716 C718 1.388 . S
C717 C716 1.366 . S
C717 C721 1.385 . S
C718 H699 0.951 . S
C718 C716 1.388 . S
C718 C719 1.366 . S
C719 C718 1.366 . S
C719 C720 1.414 . S
C719 C722 1.499 . S
C720 H700 0.950 . S
C720 C719 1.414 . S
C720 C721 1.374 . S
C721 H701 0.950 . S
C721 C717 1.385 . S
C721 C720 1.374 . S
C722 C719 1.499 . S
C722 C723 1.373 . S
C722 C724 1.389 . S
C723 H702 0.950 . S
C723 C722 1.373 . S
C723 C739 1.377 . S
C724 C722 1.389 . S
C724 C725 1.524 . S
C724 C738 1.377 . S
C725 C724 1.524 . S
C725 C726 1.397 . S
C725 C730 1.363 . S
C726 H703 0.950 . S
C726 C725 1.397 . S
C726 C727 1.334 . S
C727 H704 0.950 . S
C727 C726 1.334 . S
C727 C728 1.287 . S
C728 C727 1.287 . S
C728 C729 1.524 . S
C728 H747 0.913 . S
C729 H705 0.950 . S
C729 C728 1.524 . S
C729 C730 1.415 . S
C730 H706 0.950 . S
C730 C725 1.363 . S
C730 C729 1.415 . S
C731 H707 0.951 . S
C731 C732 1.366 . S
C731 C733 1.388 . S
C732 C731 1.366 . S
C732 C736 1.385 . S
C733 H708 0.951 . S
C733 C731 1.388 . S
C733 C734 1.366 . S
C734 C733 1.366 . S
C734 C735 1.414 . S
C734 C737 1.499 . S
C735 H709 0.950 . S
C735 C734 1.414 . S
C735 C736 1.374 . S
C736 H710 0.950 . S
C736 C732 1.385 . S
C736 C735 1.374 . S
C737 C734 1.499 . S
C737 C738 1.373 . S
C737 C739 1.389 . S
C738 H711 0.950 . S
C738 C724 1.377 . S
C738 C737 1.373 . S
C739 C723 1.377 . S
C739 C737 1.389 . S
C739 C740 1.524 . S
C740 C739 1.524 . S
C740 C741 1.397 . S
C740 C745 1.363 . S
C741 H712 0.950 . S
C741 C740 1.397 . S
C741 C742 1.334 . S
C742 H713 0.950 . S
C742 C741 1.334 . S
C742 C743 1.287 . S
C743 C742 1.287 . S
C743 C744 1.524 . S
C743 H746 0.999 . S
C744 H714 0.950 . S
C744 C743 1.524 . S
C744 C745 1.415 . S
C745 H715 0.950 . S
C745 C740 1.363 . S
C745 C744 1.415 . S
H746 C743 0.999 . S
H747 C728 0.913 . S
H748 C766 0.951 . S
H749 C768 0.951 . S
H750 C770 0.950 . S
H751 C771 0.950 . S
H752 C773 0.950 . S
H753 C776 0.950 . S
H754 C777 0.950 . S
H755 C779 0.950 . S
H756 C780 0.950 . S
H757 C781 0.951 . S
H758 C783 0.951 . S
H759 C785 0.950 . S
H760 C786 0.950 . S
H761 C788 0.950 . S
H762 C791 0.950 . S
H763 C792 0.950 . S
H764 C794 0.950 . S
H765 C795 0.950 . S
C766 H748 0.951 . S
C766 C767 1.366 . S
C766 C768 1.388 . S
C767 C766 1.366 . S
C767 C771 1.385 . S
C768 H749 0.951 . S
C768 C766 1.388 . S
C768 C769 1.366 . S
C769 C768 1.366 . S
C769 C770 1.414 . S
C769 C772 1.499 . S
C770 H750 0.950 . S
C770 C769 1.414 . S
C770 C771 1.374 . S
C771 H751 0.950 . S
C771 C767 1.385 . S
C771 C770 1.374 . S
C772 C769 1.499 . S
C772 C773 1.373 . S
C772 C774 1.389 . S
C773 H752 0.950 . S
C773 C772 1.373 . S
C773 C789 1.377 . S
C774 C772 1.389 . S
C774 C775 1.524 . S
C774 C788 1.377 . S
C775 C774 1.524 . S
C775 C776 1.397 . S
C775 C780 1.363 . S
C776 H753 0.950 . S
C776 C775 1.397 . S
C776 C777 1.334 . S
C777 H754 0.950 . S
C777 C776 1.334 . S
C777 C778 1.287 . S
C778 C777 1.287 . S
C778 C779 1.524 . S
C778 H797 0.913 . S
C779 H755 0.950 . S
C779 C778 1.524 . S
C779 C780 1.415 . S
C780 H756 0.950 . S
C780 C775 1.363 . S
C780 C779 1.415 . S
C781 H757 0.951 . S
C781 C782 1.366 . S
C781 C783 1.388 . S
C782 C781 1.366 . S
C782 C786 1.385 . S
C783 H758 0.951 . S
C783 C781 1.388 . S
C783 C784 1.366 . S
C784 C783 1.366 . S
C784 C785 1.414 . S
C784 C787 1.499 . S
C785 H759 0.950 . S
C785 C784 1.414 . S
C785 C786 1.374 . S
C786 H760 0.950 . S
C786 C782 1.385 . S
C786 C785 1.374 . S
C787 C784 1.499 . S
C787 C788 1.373 . S
C787 C789 1.389 . S
C788 H761 0.950 . S
C788 C774 1.377 . S
C788 C787 1.373 . S
C789 C773 1.377 . S
C789 C787 1.389 . S
C789 C790 1.524 . S
C790 C789 1.524 . S
C790 C791 1.397 . S
C790 C795 1.363 . S
C791 H762 0.950 . S
C791 C790 1.397 . S
C791 C792 1.334 . S
C792 H763 0.950 . S
C792 C791 1.334 . S
C792 C793 1.287 . S
C793 C792 1.287 . S
C793 C794 1.524 . S
C793 H796 0.999 . S
C794 H764 0.950 . S
C794 C793 1.524 . S
C794 C795 1.415 . S
C795 H765 0.950 . S
C795 C790 1.363 . S
C795 C794 1.415 . S
H796 C793 0.999 . S
H797 C778 0.913 . S
H798 C816 0.951 . S
H799 C818 0.951 . S
H800 C820 0.950 . S
H801 C821 0.950 . S
H802 C823 0.950 . S
H803 C826 0.950 . S
H804 C827 0.950 1_455 S
H805 C829 0.950 . S
H806 C830 0.950 . S
H807 C831 0.951 . S
H808 C833 0.951 . S
H809 C835 0.950 1_655 S
H810 C836 0.950 . S
H811 C838 0.950 1_556 S
H812 C841 0.950 . S
H813 C842 0.950 . S
H814 C844 0.950 . S
H815 C845 0.950 . S
C816 H798 0.951 . S
C816 C817 1.366 1_655 S
C816 C818 1.388 . S
C817 C816 1.366 1_455 S
C817 C821 1.385 . S
C818 H799 0.951 . S
C818 C816 1.388 . S
C818 C819 1.366 1_655 S
C819 C818 1.366 1_455 S
C819 C820 1.414 . S
C819 C822 1.499 . S
C820 H800 0.950 . S
C820 C819 1.414 . S
C820 C821 1.374 . S
C821 H801 0.950 . S
C821 C817 1.385 . S
C821 C820 1.374 . S
C822 C819 1.499 . S
C822 C823 1.373 . S
C822 C824 1.389 . S
C823 H802 0.950 . S
C823 C822 1.373 . S
C823 C839 1.377 . S
C824 C822 1.389 . S
C824 C825 1.524 1_455 S
C824 C838 1.377 . S
C825 C824 1.524 1_655 S
C825 C826 1.397 1_655 S
C825 C830 1.363 . S
C826 H803 0.950 . S
C826 C825 1.397 1_455 S
C826 C827 1.334 1_455 S
C827 H804 0.950 1_655 S
C827 C826 1.334 1_655 S
C827 C828 1.287 . S
C828 C827 1.287 . S
C828 C829 1.524 . S
C828 H847 0.913 . S
C829 H805 0.950 . S
C829 C828 1.524 . S
C829 C830 1.415 . S
C830 H806 0.950 . S
C830 C825 1.363 . S
C830 C829 1.415 . S
C831 H807 0.951 . S
C831 C832 1.366 . S
C831 C833 1.388 . S
C832 C831 1.366 . S
C832 C836 1.385 . S
C833 H808 0.951 . S
C833 C831 1.388 . S
C833 C834 1.366 . S
C834 C833 1.366 . S
C834 C835 1.414 . S
C834 C837 1.499 . S
C835 H809 0.950 1_455 S
C835 C834 1.414 . S
C835 C836 1.374 . S
C836 H810 0.950 . S
C836 C832 1.385 . S
C836 C835 1.374 . S
C837 C834 1.499 . S
C837 C838 1.373 1_556 S
C837 C839 1.389 1_556 S
C838 H811 0.950 1_554 S
C838 C824 1.377 . S
C838 C837 1.373 1_554 S
C839 C823 1.377 . S
C839 C837 1.389 1_554 S
C839 C840 1.524 1_554 S
C840 C839 1.524 1_556 S
C840 C841 1.397 . S
C840 C845 1.363 1_556 S
C841 H812 0.950 . S
C841 C840 1.397 . S
C841 C842 1.334 . S
C842 H813 0.950 . S
C842 C841 1.334 . S
C842 C843 1.287 . S
C843 C842 1.287 . S
C843 C844 1.524 1_556 S
C843 H846 0.999 . S
C844 H814 0.950 . S
C844 C843 1.524 1_554 S
C844 C845 1.415 . S
C845 H815 0.950 . S
C845 C840 1.363 1_554 S
C845 C844 1.415 . S
H846 C843 0.999 . S
H847 C828 0.913 . S
H848 C866 0.951 . S
H849 C868 0.951 . S
H850 C870 0.950 . S
H851 C871 0.950 . S
H852 C873 0.950 . S
H853 C876 0.950 . S
H854 C877 0.950 . S
H855 C879 0.950 . S
H856 C880 0.950 . S
H857 C881 0.951 . S
H858 C883 0.951 . S
H859 C885 0.950 . S
H860 C886 0.950 . S
H861 C888 0.950 . S
H862 C891 0.950 . S
H863 C892 0.950 . S
H864 C894 0.950 . S
H865 C895 0.950 . S
C866 H848 0.951 . S
C866 C867 1.366 . S
C866 C868 1.388 . S
C867 C866 1.366 . S
C867 C871 1.385 1_545 S
C868 H849 0.951 . S
C868 C866 1.388 . S
C868 C869 1.366 . S
C869 C868 1.366 . S
C869 C870 1.414 1_545 S
C869 C872 1.499 . S
C870 H850 0.950 . S
C870 C869 1.414 1_565 S
C870 C871 1.374 . S
C871 H851 0.950 . S
C871 C867 1.385 1_565 S
C871 C870 1.374 . S
C872 C869 1.499 . S
C872 C873 1.373 . S
C872 C874 1.389 . S
C873 H852 0.950 . S
C873 C872 1.373 . S
C873 C889 1.377 . S
C874 C872 1.389 . S
C874 C875 1.524 . S
C874 C888 1.377 . S
C875 C874 1.524 . S
C875 C876 1.397 1_545 S
C875 C880 1.363 . S
C876 H853 0.950 . S
C876 C875 1.397 1_565 S
C876 C877 1.334 . S
C877 H854 0.950 . S
C877 C876 1.334 . S
C877 C878 1.287 1_565 S
C878 C877 1.287 1_545 S
C878 C879 1.524 . S
C878 H897 0.913 . S
C879 H855 0.950 . S
C879 C878 1.524 . S
C879 C880 1.415 . S
C880 H856 0.950 . S
C880 C875 1.363 . S
C880 C879 1.415 . S
C881 H857 0.951 . S
C881 C882 1.366 1_565 S
C881 C883 1.388 . S
C882 C881 1.366 1_545 S
C882 C886 1.385 . S
C883 H858 0.951 . S
C883 C881 1.388 . S
C883 C884 1.366 1_565 S
C884 C883 1.366 1_545 S
C884 C885 1.414 . S
C884 C887 1.499 . S
C885 H859 0.950 . S
C885 C884 1.414 . S
C885 C886 1.374 . S
C886 H860 0.950 . S
C886 C882 1.385 . S
C886 C885 1.374 . S
C887 C884 1.499 . S
C887 C888 1.373 . S
C887 C889 1.389 . S
C888 H861 0.950 . S
C888 C874 1.377 . S
C888 C887 1.373 . S
C889 C873 1.377 . S
C889 C887 1.389 . S
C889 C890 1.524 . S
C890 C889 1.524 . S
C890 C891 1.397 . S
C890 C895 1.363 1_545 S
C891 H862 0.950 . S
C891 C890 1.397 . S
C891 C892 1.334 . S
C892 H863 0.950 . S
C892 C891 1.334 . S
C892 C893 1.287 . S
C893 C892 1.287 . S
C893 C894 1.524 1_545 S
C893 H896 0.999 . S
C894 H864 0.950 . S
C894 C893 1.524 1_565 S
C894 C895 1.415 . S
C895 H865 0.950 . S
C895 C890 1.363 1_565 S
C895 C894 1.415 . S
H896 C893 0.999 . S
H897 C878 0.913 . S
H898 C916 0.951 . S
H899 C918 0.951 . S
H900 C920 0.950 . S
H901 C921 0.950 . S
H902 C923 0.950 . S
H903 C926 0.950 . S
H904 C927 0.950 . S
H905 C929 0.950 . S
H906 C930 0.950 . S
H907 C931 0.951 . S
H908 C933 0.951 . S
H909 C935 0.950 . S
H910 C936 0.950 . S
H911 C938 0.950 . S
H912 C941 0.950 . S
H913 C942 0.950 . S
H914 C944 0.950 . S
H915 C945 0.950 . S
C916 H898 0.951 . S
C916 C917 1.366 . S
C916 C918 1.388 . S
C917 C916 1.366 . S
C917 C921 1.385 . S
C918 H899 0.951 . S
C918 C916 1.388 . S
C918 C919 1.366 . S
C919 C918 1.366 . S
C919 C920 1.414 . S
C919 C922 1.499 . S
C920 H900 0.950 . S
C920 C919 1.414 . S
C920 C921 1.374 . S
C921 H901 0.950 . S
C921 C917 1.385 . S
C921 C920 1.374 . S
C922 C919 1.499 . S
C922 C923 1.373 . S
C922 C924 1.389 . S
C923 H902 0.950 . S
C923 C922 1.373 . S
C923 C939 1.377 . S
C924 C922 1.389 . S
C924 C925 1.524 . S
C924 C938 1.377 . S
C925 C924 1.524 . S
C925 C926 1.397 . S
C925 C930 1.363 . S
C926 H903 0.950 . S
C926 C925 1.397 . S
C926 C927 1.334 . S
C927 H904 0.950 . S
C927 C926 1.334 . S
C927 C928 1.287 . S
C928 C927 1.287 . S
C928 C929 1.524 . S
C928 H947 0.913 . S
C929 H905 0.950 . S
C929 C928 1.524 . S
C929 C930 1.415 . S
C930 H906 0.950 . S
C930 C925 1.363 . S
C930 C929 1.415 . S
C931 H907 0.951 . S
C931 C932 1.366 . S
C931 C933 1.388 . S
C932 C931 1.366 . S
C932 C936 1.385 . S
C933 H908 0.951 . S
C933 C931 1.388 . S
C933 C934 1.366 . S
C934 C933 1.366 . S
C934 C935 1.414 . S
C934 C937 1.499 . S
C935 H909 0.950 . S
C935 C934 1.414 . S
C935 C936 1.374 . S
C936 H910 0.950 . S
C936 C932 1.385 . S
C936 C935 1.374 . S
C937 C934 1.499 . S
C937 C938 1.373 . S
C937 C939 1.389 . S
C938 H911 0.950 . S
C938 C924 1.377 . S
C938 C937 1.373 . S
C939 C923 1.377 . S
C939 C937 1.389 . S
C939 C940 1.524 . S
C940 C939 1.524 . S
C940 C941 1.397 . S
C940 C945 1.363 . S
C941 H912 0.950 . S
C941 C940 1.397 . S
C941 C942 1.334 . S
C942 H913 0.950 . S
C942 C941 1.334 . S
C942 C943 1.287 . S
C943 C942 1.287 . S
C943 C944 1.524 . S
C943 H946 0.999 . S
C944 H914 0.950 . S
C944 C943 1.524 . S
C944 C945 1.415 . S
C945 H915 0.950 . S
C945 C940 1.363 . S
C945 C944 1.415 . S
H946 C943 0.999 . S
H947 C928 0.913 . S
H948 C966 0.951 . S
H949 C968 0.951 . S
H950 C970 0.950 . S
H951 C971 0.950 . S
H952 C973 0.950 . S
H953 C976 0.950 . S
H954 C977 0.950 . S
H955 C979 0.950 . S
H956 C980 0.950 . S
H957 C981 0.951 . S
H958 C983 0.951 . S
H959 C985 0.950 . S
H960 C986 0.950 . S
H961 C988 0.950 . S
H962 C991 0.950 . S
H963 C992 0.950 . S
H964 C994 0.950 . S
H965 C995 0.950 . S
C966 H948 0.951 . S
C966 C967 1.366 . S
C966 C968 1.388 . S
C967 C966 1.366 . S
C967 C971 1.385 . S
C968 H949 0.951 . S
C968 C966 1.388 . S
C968 C969 1.366 . S
C969 C968 1.366 . S
C969 C970 1.414 . S
C969 C972 1.499 . S
C970 H950 0.950 . S
C970 C969 1.414 . S
C970 C971 1.374 . S
C971 H951 0.950 . S
C971 C967 1.385 . S
C971 C970 1.374 . S
C972 C969 1.499 . S
C972 C973 1.373 . S
C972 C974 1.389 1_545 S
C973 H952 0.950 . S
C973 C972 1.373 . S
C973 C989 1.377 . S
C974 C972 1.389 1_565 S
C974 C975 1.524 . S
C974 C988 1.377 . S
C975 C974 1.524 . S
C975 C976 1.397 . S
C975 C980 1.363 . S
C976 H953 0.950 . S
C976 C975 1.397 . S
C976 C977 1.334 . S
C977 H954 0.950 . S
C977 C976 1.334 . S
C977 C978 1.287 . S
C978 C977 1.287 . S
C978 C979 1.524 . S
C978 H997 0.913 . S
C979 H955 0.950 . S
C979 C978 1.524 . S
C979 C980 1.415 . S
C980 H956 0.950 . S
C980 C975 1.363 . S
C980 C979 1.415 . S
C981 H957 0.951 . S
C981 C982 1.366 . S
C981 C983 1.388 . S
C982 C981 1.366 . S
C982 C986 1.385 . S
C983 H958 0.951 . S
C983 C981 1.388 . S
C983 C984 1.366 . S
C984 C983 1.366 . S
C984 C985 1.414 . S
C984 C987 1.499 . S
C985 H959 0.950 . S
C985 C984 1.414 . S
C985 C986 1.374 . S
C986 H960 0.950 . S
C986 C982 1.385 . S
C986 C985 1.374 . S
C987 C984 1.499 . S
C987 C988 1.373 1_545 S
C987 C989 1.389 . S
C988 H961 0.950 . S
C988 C974 1.377 . S
C988 C987 1.373 1_565 S
C989 C973 1.377 . S
C989 C987 1.389 . S
C989 C990 1.524 . S
C990 C989 1.524 . S
C990 C991 1.397 . S
C990 C995 1.363 . S
C991 H962 0.950 . S
C991 C990 1.397 . S
C991 C992 1.334 . S
C992 H963 0.950 . S
C992 C991 1.334 . S
C992 C993 1.287 . S
C993 C992 1.287 . S
C993 C994 1.524 . S
C993 H996 0.999 . S
C994 H964 0.950 . S
C994 C993 1.524 . S
C994 C995 1.415 . S
C995 H965 0.950 . S
C995 C990 1.363 . S
C995 C994 1.415 . S
H996 C993 0.999 . S
H997 C978 0.913 . S
H998 C1016 0.951 . S
H999 C1018 0.951 . S
H1000 C1020 0.950 . S
H1001 C1021 0.950 . S
H1002 C1023 0.950 . S
H1003 C1026 0.950 . S
H1004 C1027 0.950 . S
H1005 C1029 0.950 . S
H1006 C1030 0.950 . S
H1007 C1031 0.951 . S
H1008 C1033 0.951 . S
H1009 C1035 0.950 . S
H1010 C1036 0.950 . S
H1011 C1038 0.950 . S
H1012 C1041 0.950 . S
H1013 C1042 0.950 . S
H1014 C1044 0.950 . S
H1015 C1045 0.918 1_556 S
C1016 H998 0.951 . S
C1016 C1017 1.366 . S
C1016 C1018 1.388 . S
C1017 C1016 1.366 . S
C1017 C1021 1.385 . S
C1018 H999 0.951 . S
C1018 C1016 1.388 . S
C1018 C1019 1.366 . S
C1019 C1018 1.366 . S
C1019 C1020 1.414 . S
C1019 C1022 1.499 . S
C1020 H1000 0.950 . S
C1020 C1019 1.414 . S
C1020 C1021 1.374 . S
C1021 H1001 0.950 . S
C1021 C1017 1.385 . S
C1021 C1020 1.374 . S
C1022 C1019 1.499 . S
C1022 C1023 1.373 . S
C1022 C1024 1.389 . S
C1023 H1002 0.950 . S
C1023 C1022 1.373 . S
C1023 C1039 1.377 . S
C1024 C1022 1.389 . S
C1024 C1025 1.524 . S
C1024 C1038 1.377 . S
C1025 C1024 1.524 . S
C1025 C1026 1.397 . S
C1025 C1030 1.363 . S
C1026 H1003 0.950 . S
C1026 C1025 1.397 . S
C1026 C1027 1.334 . S
C1027 H1004 0.950 . S
C1027 C1026 1.334 . S
C1027 C1028 1.287 . S
C1028 C1027 1.287 . S
C1028 C1029 1.524 . S
C1028 H1047 0.913 . S
C1029 H1005 0.950 . S
C1029 C1028 1.524 . S
C1029 C1030 1.415 . S
C1030 H1006 0.950 . S
C1030 C1025 1.363 . S
C1030 C1029 1.415 . S
C1031 H1007 0.951 . S
C1031 C1032 1.366 . S
C1031 C1033 1.388 . S
C1032 C1031 1.366 . S
C1032 C1036 1.385 . S
C1033 H1008 0.951 . S
C1033 C1031 1.388 . S
C1033 C1034 1.366 . S
C1034 C1033 1.366 . S
C1034 C1035 1.414 . S
C1034 C1037 1.499 . S
C1035 H1009 0.950 . S
C1035 C1034 1.414 . S
C1035 C1036 1.374 . S
C1036 H1010 0.950 . S
C1036 C1032 1.385 . S
C1036 C1035 1.374 . S
C1037 C1034 1.499 . S
C1037 C1038 1.373 1_554 S
C1037 C1039 1.389 1_554 S
C1038 H1011 0.950 . S
C1038 C1024 1.377 . S
C1038 C1037 1.373 1_556 S
C1039 C1023 1.377 . S
C1039 C1037 1.389 1_556 S
C1039 C1040 1.524 1_556 S
C1040 C1039 1.524 1_554 S
C1040 C1041 1.397 . S
C1040 C1045 1.363 . S
C1041 H1012 0.950 . S
C1041 C1040 1.397 . S
C1041 C1042 1.334 . S
C1042 H1013 0.950 . S
C1042 C1041 1.334 . S
C1042 C1043 1.287 . S
C1043 C1042 1.287 . S
C1043 C1044 1.524 . S
C1043 H1046 0.999 . S
C1044 H1014 0.950 . S
C1044 C1043 1.524 . S
C1044 C1045 1.415 . S
C1045 H1015 0.918 1_554 S
C1045 C1040 1.363 . S
C1045 C1044 1.415 . S
H1046 C1043 0.999 . S
H1047 C1028 0.913 . S
H1048 C1066 0.951 . S
H1049 C1068 0.951 . S
H1050 C1070 0.950 . S
H1051 C1071 0.950 . S
H1052 C1073 0.950 . S
H1053 C1076 0.950 . S
H1054 C1077 0.950 . S
H1055 C1079 0.950 . S
H1056 C1080 0.950 . S
H1057 C1081 0.951 . S
H1058 C1083 0.951 . S
H1059 C1085 0.950 . S
H1060 C1086 0.950 . S
H1061 C1088 0.950 . S
H1062 C1091 0.950 . S
H1063 C1092 0.950 . S
H1064 C1094 0.950 . S
H1065 C1095 0.950 . S
C1066 H1048 0.951 . S
C1066 C1067 1.366 1_455 S
C1066 C1068 1.388 . S
C1067 C1066 1.366 1_655 S
C1067 C1071 1.385 . S
C1068 H1049 0.951 . S
C1068 C1066 1.388 . S
C1068 C1069 1.366 . S
C1069 C1068 1.366 . S
C1069 C1070 1.414 1_455 S
C1069 C1072 1.499 . S
C1070 H1050 0.950 . S
C1070 C1069 1.414 1_655 S
C1070 C1071 1.374 . S
C1071 H1051 0.950 . S
C1071 C1067 1.385 . S
C1071 C1070 1.374 . S
C1072 C1069 1.499 . S
C1072 C1073 1.373 1_455 S
C1072 C1074 1.389 . S
C1073 H1052 0.950 . S
C1073 C1072 1.373 1_655 S
C1073 C1089 1.377 . S
C1074 C1072 1.389 . S
C1074 C1075 1.524 . S
C1074 C1088 1.377 . S
C1075 C1074 1.524 . S
C1075 C1076 1.397 . S
C1075 C1080 1.363 . S
C1076 H1053 0.950 . S
C1076 C1075 1.397 . S
C1076 C1077 1.334 . S
C1077 H1054 0.950 . S
C1077 C1076 1.334 . S
C1077 C1078 1.287 . S
C1078 C1077 1.287 . S
C1078 C1079 1.524 . S
C1078 H1097 0.913 . S
C1079 H1055 0.950 . S
C1079 C1078 1.524 . S
C1079 C1080 1.415 . S
C1080 H1056 0.950 . S
C1080 C1075 1.363 . S
C1080 C1079 1.415 . S
C1081 H1057 0.951 . S
C1081 C1082 1.366 1_655 S
C1081 C1083 1.388 . S
C1082 C1081 1.366 1_455 S
C1082 C1086 1.385 . S
C1083 H1058 0.951 . S
C1083 C1081 1.388 . S
C1083 C1084 1.366 1_655 S
C1084 C1083 1.366 1_455 S
C1084 C1085 1.414 . S
C1084 C1087 1.499 . S
C1085 H1059 0.950 . S
C1085 C1084 1.414 . S
C1085 C1086 1.374 . S
C1086 H1060 0.950 . S
C1086 C1082 1.385 . S
C1086 C1085 1.374 . S
C1087 C1084 1.499 . S
C1087 C1088 1.373 . S
C1087 C1089 1.389 1_455 S
C1088 H1061 0.950 . S
C1088 C1074 1.377 . S
C1088 C1087 1.373 . S
C1089 C1073 1.377 . S
C1089 C1087 1.389 1_655 S
C1089 C1090 1.524 . S
C1090 C1089 1.524 . S
C1090 C1091 1.397 . S
C1090 C1095 1.363 . S
C1091 H1062 0.950 . S
C1091 C1090 1.397 . S
C1091 C1092 1.334 . S
C1092 H1063 0.950 . S
C1092 C1091 1.334 . S
C1092 C1093 1.287 . S
C1093 C1092 1.287 . S
C1093 C1094 1.524 . S
C1093 H1096 0.999 . S
C1094 H1064 0.950 . S
C1094 C1093 1.524 . S
C1094 C1095 1.415 . S
C1095 H1065 0.950 . S
C1095 C1090 1.363 . S
C1095 C1094 1.415 . S
H1096 C1093 0.999 . S
H1097 C1078 0.913 . S
C217 C6 0.476 . S
C232 C189 0.550 . S
C267 C59 1.791 . S
C282 C167 1.765 1_655 S
C317 C86 1.101 . S
C332 C180 1.095 . S
C367 C15 0.294 . S
C382 C193 0.188 . S
C432 C163 1.868 . S
C417 C50 2.003 . S
C482 C176 1.239 . S
C467 C95 1.310 . S
C517 C46 1.051 . S
C532 C141 1.044 . S
C567 C99 2.985 . S
C582 C154 2.951 1_655 S
C617 C10 2.001 . S
C632 C124 1.869 . S
C682 C137 1.262 . S
C667 C55 1.323 . S
C732 C150 2.870 . S
C717 C90 3.029 . S
C767 C19 1.797 . S
C782 C128 1.781 . S
C832 C155 1.734 . S
C817 C18 1.688 . S
C867 C49 1.464 . S
C882 C129 1.500 . S
C917 C98 1.513 . S
C932 C142 1.604 . S
C982 C181 1.548 . S
C967 C58 1.473 . S
C1032 C194 1.348 . S
C1017 C89 1.329 . S
C1067 C9 1.439 1_655 S
C1082 C168 1.491 . S
