# Generated by pormake.
# Topology zzz, (3,6)-cn, num edge types: 1
# Building blocks:
#     Node 0, Type 0, BuildingBlock: QEWDON_clean_linker_0, # of connection points: 3
#     Node 1, Type 0, BuildingBlock: QEWDON_clean_linker_0, # of connection points: 3
#     Node 2, Type 0, BuildingBlock: QEWDON_clean_linker_0, # of connection points: 3
#     Node 3, Type 0, BuildingBlock: QEWDON_clean_linker_0, # of connection points: 3
#     Node 4, Type 0, BuildingBlock: QEWDON_clean_linker_0, # of connection points: 3
#     Node 5, Type 0, BuildingBlock: QEWDON_clean_linker_0, # of connection points: 3
#     Node 6, Type 0, BuildingBlock: QEWDON_clean_linker_0, # of connection points: 3
#     Node 7, Type 0, BuildingBlock: QEWDON_clean_linker_0, # of connection points: 3
#     Node 8, Type 1, BuildingBlock: KUMJIN_clean_sbu_1, # of connection points: 6
#     Node 9, Type 1, BuildingBlock: KUMJIN_clean_sbu_1, # of connection points: 6
#     Node 10, Type 1, BuildingBlock: KUMJIN_clean_sbu_1, # of connection points: 6
#     Node 11, Type 1, BuildingBlock: KUMJIN_clean_sbu_1, # of connection points: 6
#     Edge 12, Type (0, 1), BuildingBlock: XUDNAN_clean_linker_2, # of connection points: 2
#     Edge 13, Type (0, 1), BuildingBlock: XUDNAN_clean_linker_2, # of connection points: 2
#     Edge 14, Type (0, 1), BuildingBlock: XUDNAN_clean_linker_2, # of connection points: 2
#     Edge 15, Type (0, 1), BuildingBlock: XUDNAN_clean_linker_2, # of connection points: 2
#     Edge 16, Type (0, 1), BuildingBlock: XUDNAN_clean_linker_2, # of connection points: 2
#     Edge 17, Type (0, 1), BuildingBlock: XUDNAN_clean_linker_2, # of connection points: 2
#     Edge 18, Type (0, 1), BuildingBlock: XUDNAN_clean_linker_2, # of connection points: 2
#     Edge 19, Type (0, 1), BuildingBlock: XUDNAN_clean_linker_2, # of connection points: 2
#     Edge 20, Type (0, 1), BuildingBlock: XUDNAN_clean_linker_2, # of connection points: 2
#     Edge 21, Type (0, 1), BuildingBlock: XUDNAN_clean_linker_2, # of connection points: 2
#     Edge 22, Type (0, 1), BuildingBlock: XUDNAN_clean_linker_2, # of connection points: 2
#     Edge 23, Type (0, 1), BuildingBlock: XUDNAN_clean_linker_2, # of connection points: 2
#     Edge 24, Type (0, 1), BuildingBlock: XUDNAN_clean_linker_2, # of connection points: 2
#     Edge 25, Type (0, 1), BuildingBlock: XUDNAN_clean_linker_2, # of connection points: 2
#     Edge 26, Type (0, 1), BuildingBlock: XUDNAN_clean_linker_2, # of connection points: 2
#     Edge 27, Type (0, 1), BuildingBlock: XUDNAN_clean_linker_2, # of connection points: 2
#     Edge 28, Type (0, 1), BuildingBlock: XUDNAN_clean_linker_2, # of connection points: 2
#     Edge 29, Type (0, 1), BuildingBlock: XUDNAN_clean_linker_2, # of connection points: 2
#     Edge 30, Type (0, 1), BuildingBlock: XUDNAN_clean_linker_2, # of connection points: 2
#     Edge 31, Type (0, 1), BuildingBlock: XUDNAN_clean_linker_2, # of connection points: 2
#     Edge 32, Type (0, 1), BuildingBlock: XUDNAN_clean_linker_2, # of connection points: 2
#     Edge 33, Type (0, 1), BuildingBlock: XUDNAN_clean_linker_2, # of connection points: 2
#     Edge 34, Type (0, 1), BuildingBlock: XUDNAN_clean_linker_2, # of connection points: 2
#     Edge 35, Type (0, 1), BuildingBlock: XUDNAN_clean_linker_2, # of connection points: 2
# Relax obj value: 0.115
# Max RMSD: 0.094
# Mean RMSD: 0.038
data_MOF--net-zzz--node1-KUMJIN_clean_sbu_1--node2-QEWDON_clean_linker_0--edge1-XUDNAN_clean_linker_2
_symmetry_space_group_name_H-M    P1
_symmetry_Int_Tables_number       1
_symmetry_cell_setting            triclinic
loop_
_symmetry_equiv_pos_as_xyz
'x, y, z'
_cell_length_a     53.699574
_cell_length_b     53.870132
_cell_length_c     15.486516
_cell_angle_alpha  89.879507
_cell_angle_beta   90.105769
_cell_angle_gamma 89.965739
loop_
_atom_site_label
_atom_site_type_symbol
_atom_site_fract_x
_atom_site_fract_y
_atom_site_fract_z
_atom_type_partial_charge
H0 H 0.7749 0.54536 0.11357 0.0
C1 C 0.78722 0.54379 0.16867 0.0
C2 C 0.81188 0.53733 0.15299 0.0
C3 C 0.77863 0.54856 0.25254 0.0
H4 H 0.84839 0.53187 0.2054 0.0
C5 C 0.82917 0.53629 0.22044 0.0
C6 C 0.82235 0.54224 0.3054 0.0
C7 C 0.79676 0.5483 0.3213 0.0
C8 C 0.75113 0.55492 0.26399 0.0
H9 H 0.79116 0.55243 0.38674 0.0
C10 C 0.7324 0.54716 0.20334 0.0
C11 C 0.70718 0.55538 0.2087 0.0
C12 C 0.74347 0.5702 0.33234 0.0
H13 H 0.75669 0.57702 0.37937 0.0
C14 C 0.71864 0.57772 0.33983 0.0
H15 H 0.73736 0.53493 0.15097 0.0
C16 C 0.70079 0.5706 0.27885 0.0
H17 H 0.6818 0.57682 0.28778 0.0
H18 H 0.7132 0.58949 0.39313 0.0
H19 H 1.00074 0.78027 0.11642 0.0
C20 C 1.00602 0.79265 0.16819 0.0
C21 C 1.00969 0.81765 0.14779 0.0
C22 C 1.00997 0.78342 0.252 0.0
H23 H 1.01768 0.85398 0.19773 0.0
C24 C 1.01452 0.83465 0.21404 0.0
C25 C 1.01734 0.82697 0.30025 0.0
C26 C 1.01535 0.80107 0.31911 0.0
C27 C 1.00872 0.75542 0.26542 0.0
H28 H 0.01897 0.79477 0.38432 0.0
C29 C 1.01382 0.73822 0.19697 0.0
C30 C 1.01051 0.71209 0.2068 0.0
C31 C 1.00117 0.74555 0.3451 0.0
H32 H 0.99677 0.75762 0.39874 0.0
C33 C 0.99845 0.71992 0.35626 0.0
H34 H 0.02018 0.74512 0.13535 0.0
C35 C 1.0029 0.70343 0.28829 0.0
H36 H 1.00074 0.68376 0.30053 0.0
H37 H 0.9926 0.71274 0.41832 0.0
H38 H 0.77757 1.01236 0.11625 0.0
C39 C 0.767 1.01358 0.17552 0.0
C40 C 0.74292 1.00375 0.17664 0.0
C41 C 0.77674 0.02593 0.24849 0.0
H42 H 0.709 0.99948 0.24773 0.0
C43 C 0.72786 1.00672 0.24937 0.0
C44 C 0.73584 0.02004 0.32153 0.0
C45 C 0.76077 0.02893 0.32227 0.0
C46 C 0.80241 0.03761 0.24276 0.0
H47 H 0.76728 0.03867 0.37898 0.0
C48 C 0.82155 0.02826 0.18709 0.0
C49 C 0.84447 0.04115 0.17591 0.0
C50 C 0.80739 0.05959 0.28855 0.0
H51 H 0.79348 0.06798 0.32965 0.0
C52 C 0.83011 0.07185 0.27984 0.0
H53 H 0.81857 1.01129 0.15128 0.0
C54 C 0.84835 0.06288 0.22409 0.0
H55 H 0.86572 0.073 0.21924 0.0
H56 H 0.83348 0.08873 0.31577 0.0
H57 H 0.53417 0.78025 0.10301 0.0
C58 C 0.53249 0.76875 0.15996 0.0
C59 C 0.5269 0.74384 0.14731 0.0
C60 C 0.53593 0.7786 0.243 0.0
H61 H 0.52213 0.70795 0.20426 0.0
C62 C 0.5259 0.72738 0.21697 0.0
C63 C 0.5309 0.73538 0.3014 0.0
C64 C 0.53574 0.76131 0.31434 0.0
C65 C 0.54053 0.80653 0.25094 0.0
H66 H 0.53893 0.76774 0.37947 0.0
C67 C 0.53398 0.82373 0.18338 0.0
C68 C 0.54089 0.84926 0.18584 0.0
C69 C 0.55277 0.81628 0.32364 0.0
H70 H 0.55855 0.80442 0.3764 0.0
C71 C 0.55859 0.84154 0.32864 0.0
H72 H 0.52328 0.81758 0.1284 0.0
C73 C 0.55305 0.85775 0.2606 0.0
H74 H 0.55904 0.87687 0.26599 0.0
H75 H 0.5682 0.84854 0.38508 0.0
H76 H 0.28412 0.50814 0.2257 0.0
C77 C 0.272 0.50963 0.1701 0.0
C78 C 0.2469 0.50336 0.18075 0.0
C79 C 0.28098 0.51952 0.09206 0.0
H80 H 0.21066 0.50234 0.12156 0.0
C81 C 0.23021 0.50654 0.11197 0.0
C82 C 0.23782 0.51628 0.03247 0.0
C83 C 0.26353 0.52236 0.02203 0.0
C84 C 0.30752 0.52955 0.0903 0.0
H85 H 0.26956 0.52986 0.9607 0.0
C86 C 0.32673 0.5208 0.14769 0.0
C87 C 0.35001 0.53334 0.15552 0.0
C88 C 0.31312 0.55014 0.03782 0.0
H89 H 0.29936 0.55799 0.99462 0.0
C90 C 0.33624 0.5619 0.04296 0.0
H91 H 0.32356 0.50471 0.188 0.0
C92 C 0.3543 0.55386 0.10156 0.0
H93 H 0.37189 0.56368 0.10407 0.0
H94 H 0.34 0.57782 1.00226 0.0
H95 H 0.03251 0.28799 0.24749 0.0
C96 C 0.03489 0.27489 0.19521 0.0
C97 C 0.03303 0.24971 0.21466 0.0
C98 C 0.03723 0.28337 0.11013 0.0
H99 H 0.03239 0.21257 0.1653 0.0
C100 C 0.03493 0.23197 0.14885 0.0
C101 C 0.03748 0.23897 0.06176 0.0
C102 C 0.0383 0.26504 0.04266 0.0
C103 C 0.03477 0.3112 0.09538 0.0
H104 H 0.03965 0.27094 0.97601 0.0
C105 C 0.04193 0.32905 0.15972 0.0
C106 C 0.03449 0.35435 0.15403 0.0
C107 C 0.0218 0.32 0.02261 0.0
H108 H 1.01561 0.30738 0.97272 0.0
C109 C 1.01524 0.34505 0.01535 0.0
H110 H 0.05255 0.32327 0.21572 0.0
C111 C 0.02109 0.36192 0.0808 0.0
H112 H 1.01531 0.3811 0.07377 0.0
H113 H 1.00493 0.35135 0.95931 0.0
H114 H 0.26984 0.06772 0.19839 0.0
C115 C 0.28109 0.06238 0.14357 0.0
C116 C 0.30297 0.07572 0.12787 0.0
C117 C 0.27492 0.04126 0.09422 0.0
H118 H 0.33654 0.07793 0.05306 0.0
C119 C 0.31923 0.06793 0.06265 0.0
C120 C 0.3151 0.04624 0.01553 0.0
C121 C 0.2923 0.03336 0.02918 0.0
C122 C 0.25205 0.02624 0.11923 0.0
H123 H 0.28871 1.01692 0.99127 0.0
C124 C 0.23103 0.03693 0.16268 0.0
C125 C 0.21131 0.0219 0.19509 0.0
C126 C 0.252 1.00038 0.10643 0.0
H127 H 0.26756 0.99104 0.07646 0.0
C128 C 0.2323 0.98572 0.13531 0.0
H129 H 0.23013 0.05675 0.17321 0.0
C130 C 0.21233 0.99624 0.17946 0.0
H131 H 0.1975 0.98415 0.20125 0.0
H132 H 0.23273 0.96587 0.12476 0.0
H133 H 0.5146 0.27978 0.24961 0.0
C134 C 0.51486 0.29133 0.19247 0.0
C135 C 0.51862 0.31667 0.20366 0.0
C136 C 0.51199 0.28102 0.10974 0.0
H137 H 0.51944 0.35243 0.14533 0.0
C138 C 0.5178 0.33272 0.13287 0.0
C139 C 0.5156 0.32398 0.04795 0.0
C140 C 0.51243 0.29774 0.0367 0.0
C141 C 0.50785 0.25308 0.10329 0.0
H142 H 0.51091 0.29047 0.97188 0.0
C143 C 0.51605 0.23601 0.16906 0.0
C144 C 0.5089 0.21053 0.16877 0.0
C145 C 0.49369 0.24339 0.03486 0.0
H146 H 0.48669 0.25532 0.98406 0.0
C147 C 0.48741 0.21822 0.03238 0.0
H148 H 0.52762 0.2424 0.22165 0.0
C149 C 0.49462 0.20208 0.09865 0.0
H150 H 0.4892 0.18277 0.09427 0.0
H151 H 0.47641 0.21121 0.97911 0.0
Eu152 Eu 1.00241 0.03992 0.58869 0.0
C153 C 0.06742 0.04586 0.94243 0.0
N154 N 0.07291 0.04563 0.85709 0.0
C155 C 0.10556 0.07524 0.87989 0.0
C156 C 0.08003 0.06179 0.99978 0.0
C157 C 0.0923 0.05927 0.82548 0.0
C158 C 0.09924 0.07668 0.96733 0.0
C159 C 0.04404 0.02836 0.06127 0.0
C160 C 0.05014 0.02905 0.97287 0.0
C161 C 0.05537 0.04525 0.11823 0.0
C162 C 0.07354 0.06177 0.08767 0.0
Eu163 Eu 0.05003 1.01802 0.76918 0.0
N164 N 0.04041 1.01238 0.91674 0.0
C165 C 0.02727 1.01024 0.08982 0.0
C166 C 0.02588 0.99334 0.94563 0.0
C167 C 1.01859 0.99231 0.03216 0.0
H168 H 0.09711 0.05809 0.75781 0.0
H169 H 1.00633 0.97769 0.05433 0.0
H170 H 0.94914 0.02301 0.69298 0.0
H171 H 0.04117 1.00416 0.28839 0.0
H172 H 0.0196 0.97913 0.90149 0.0
H173 H 0.02136 1.00955 0.15634 0.0
H174 H 0.03642 0.03405 0.40689 0.0
H175 H 0.12061 0.08641 0.85445 0.0
H176 H 0.05083 0.04511 0.18639 0.0
H177 H 0.08277 0.0741 0.13269 0.0
H178 H 0.9191 0.98875 0.69054 0.0
H179 H 0.10958 0.08899 0.00944 0.0
H180 H 1.01185 0.96891 0.27479 0.0
N181 N 0.97178 1.00824 0.59273 0.0
C182 C 0.97244 0.99202 0.5252 0.0
C183 C 0.93435 0.98907 0.64495 0.0
C184 C 0.95458 0.97291 0.51792 0.0
C185 C 0.95209 1.00799 0.64847 0.0
C186 C 0.93585 0.97117 0.58027 0.0
N187 N 1.00671 1.01429 0.46646 0.0
C188 C 0.02403 1.01834 0.40351 0.0
C189 C 0.99139 0.97846 0.39053 0.0
C190 C 0.99025 0.99515 0.46048 0.0
C191 C 1.01008 0.98164 0.32853 0.0
C192 C 0.02654 1.00159 0.33545 0.0
H193 H 0.92183 0.95674 0.57687 0.0
H194 H 0.94169 0.94203 0.44054 0.0
H195 H 0.97441 0.94632 0.33085 0.0
O196 O 0.99746 0.07236 0.50475 0.0
O197 O 0.02806 1.00587 0.57704 0.0
O198 O 0.02602 0.98776 0.70742 0.0
O199 O 0.96613 0.04902 0.53368 0.0
O200 O 0.04088 0.05339 0.54918 0.0
O201 O 0.06714 0.03181 0.64232 0.0
O202 O 0.0729 0.98888 0.82855 0.0
O203 O 0.04343 0.06034 0.77724 0.0
O204 O 1.01155 0.07138 0.68271 0.0
O205 O 0.08291 1.0041 0.70419 0.0
O206 O 1.00878 1.00807 0.78152 0.0
O207 O 0.98907 0.04206 0.72823 0.0
C208 C 0.02572 0.98552 0.62322 0.0
C209 C 0.95979 0.09201 0.54455 0.0
C210 C 0.96028 0.13614 0.57936 0.0
C211 C 0.9412 0.13233 0.63985 0.0
C212 C 0.94051 0.08854 0.60508 0.0
C213 C 0.93114 0.10868 0.65151 0.0
C214 C 0.96871 0.11597 0.52973 0.0
C215 C 0.06307 0.04494 0.57144 0.0
C216 C 0.97324 0.07067 0.5069 0.0
C217 C 0.9554 0.95665 0.4473 0.0
C218 C 0.97393 0.9592 0.38446 0.0
C219 C 0.02787 0.07688 0.744 0.0
C220 C 0.08998 0.96173 0.72212 0.0
C221 C 0.07609 0.91873 0.70751 0.0
C222 C 0.0912 0.91634 0.63373 0.0
C223 C 0.10548 0.95866 0.65007 0.0
C224 C 0.07588 0.94158 0.75165 0.0
C225 C 0.10603 0.93609 0.60614 0.0
C226 C 0.99104 0.02477 0.78757 0.0
C227 C 0.08701 0.98659 0.76035 0.0
H228 H 0.93436 0.14747 0.67912 0.0
H229 H 0.93316 0.07023 0.61863 0.0
H230 H 0.91652 0.10581 0.6985 0.0
H231 H 0.98301 0.11863 0.48131 0.0
H232 H 0.09146 0.89936 0.59655 0.0
H233 H 0.11667 0.97394 0.62654 0.0
H234 H 0.06485 0.94383 0.80947 0.0
H235 H 0.11762 0.93405 0.54948 0.0
Eu236 Eu 0.53505 0.04934 0.77321 0.0
C237 C 0.53837 0.95784 0.50308 0.0
N238 N 0.54474 0.9821 0.49473 0.0
C239 C 0.57927 0.97083 0.4047 0.0
C240 C 0.55289 0.93895 0.4651 0.0
C241 C 0.56416 0.98886 0.44293 0.0
C242 C 0.57386 0.94573 0.41704 0.0
C243 C 0.50824 0.92714 0.54976 0.0
C244 C 0.51628 0.95202 0.54423 0.0
C245 C 0.52322 0.90815 0.51577 0.0
C246 C 0.54548 0.91404 0.47338 0.0
Eu247 Eu 0.5185 1.01141 0.56348 0.0
N248 N 0.50214 0.97078 0.57583 0.0
C249 C 0.48511 0.92215 0.58758 0.0
C250 C 0.47893 0.96617 0.60818 0.0
C251 C 0.47027 0.9418 0.61595 0.0
H252 H 0.56769 1.00818 0.42934 0.0
H253 H 0.45211 0.93819 0.64352 0.0
H254 H 0.48026 0.07853 0.79575 0.0
H255 H 0.6285 0.08932 0.73889 0.0
H256 H 0.46733 0.98127 0.6298 0.0
H257 H 0.4783 0.90329 0.59327 0.0
H258 H 0.59813 0.05678 0.77434 0.0
H259 H 0.59481 0.9763 0.36457 0.0
H260 H 0.51745 0.88891 0.52001 0.0
H261 H 0.55648 0.89927 0.4452 0.0
H262 H 0.463 0.12081 0.77713 0.0
H263 H 0.58542 0.93179 0.38653 0.0
H264 H 0.61404 0.13165 0.70232 0.0
N265 N 0.51694 0.08906 0.75976 0.0
C266 C 0.5328 0.108 0.7411 0.0
C267 C 0.4826 0.1174 0.76604 0.0
C268 C 0.52377 0.13238 0.72987 0.0
C269 C 0.49237 0.09352 0.77635 0.0
C270 C 0.49829 0.13685 0.74146 0.0
N271 N 0.56645 0.07939 0.74757 0.0
C272 C 0.59141 0.07469 0.75361 0.0
C273 C 0.575 0.12246 0.7165 0.0
C274 C 0.55815 0.10299 0.73393 0.0
C275 C 0.60052 0.11721 0.71555 0.0
C276 C 0.60876 0.09332 0.73571 0.0
H277 H 0.49065 0.15534 0.73344 0.0
H278 H 0.53379 0.17034 0.6992 0.0
H279 H 0.57862 0.16169 0.68778 0.0
O280 O 0.55193 0.06528 0.88845 0.0
O281 O 0.5165 0.06662 0.65209 0.0
O282 O 0.53822 0.04822 0.54636 0.0
O283 O 0.51938 0.04232 0.90155 0.0
O284 O 0.56869 0.02823 0.71674 0.0
O285 O 0.55873 0.02532 0.57223 0.0
O286 O 0.48944 0.03283 0.49884 0.0
O287 O 0.51747 0.98953 0.69122 0.0
O288 O 0.54592 1.0084 0.78126 0.0
O289 O 0.51034 1.00464 0.42678 0.0
O290 O 0.48429 0.02505 0.63924 0.0
O291 O 0.49607 0.03302 0.78051 0.0
C292 C 0.52813 0.06828 0.57765 0.0
C293 C 0.55031 0.03881 0.00844 0.0
C294 C 0.58569 1.01348 0.05302 0.0
C295 C 0.57554 1.0118 0.13646 0.0
C296 C 0.54029 0.03689 0.09166 0.0
C297 C 0.55285 0.02333 0.15534 0.0
C298 C 0.57283 0.02681 0.9892 0.0
C299 C 0.57535 0.02583 0.63501 0.0
C300 C 0.53752 0.05341 0.94161 0.0
C301 C 0.54042 0.15154 0.70889 0.0
C302 C 0.56595 0.1466 0.70229 0.0
C303 C 0.53221 0.98911 0.75956 0.0
C304 C 0.47951 0.02853 0.34646 0.0
C305 C 0.44856 0.05463 0.27566 0.0
C306 C 0.45617 0.04535 0.19524 0.0
C307 C 0.48657 1.01899 0.26576 0.0
C308 C 0.46032 0.04614 0.35096 0.0
C309 C 0.47492 0.02743 0.19052 0.0
C310 C 0.47889 0.02871 0.72162 0.0
C311 C 0.49371 0.02223 0.42467 0.0
H312 H 0.58529 1.00189 0.18723 0.0
H313 H 0.52292 0.04604 0.10743 0.0
H314 H 0.54519 0.02204 0.21979 0.0
H315 H 0.58053 0.02805 0.92461 0.0
H316 H 0.44725 0.05157 0.13642 0.0
H317 H 0.50144 1.00548 0.26057 0.0
H318 H 0.45479 0.0537 0.41288 0.0
H319 H 0.48053 0.02017 0.12839 0.0
Eu320 Eu 0.55511 0.51842 0.58375 0.0
C321 C 0.47223 0.49484 0.8296 0.0
N322 N 0.47256 0.51059 0.76055 0.0
C323 C 0.43457 0.49264 0.70789 0.0
C324 C 0.45372 0.47639 0.83735 0.0
C325 C 0.45317 0.51073 0.70334 0.0
C326 C 0.43513 0.47506 0.77414 0.0
C327 C 0.48952 0.48227 0.96828 0.0
C328 C 0.48978 0.49786 0.89504 0.0
C329 C 0.47169 0.46331 0.97433 0.0
C330 C 0.45385 0.46037 0.90906 0.0
Eu331 Eu 0.50618 0.53925 0.75751 0.0
N332 N 0.50725 0.51599 0.88672 0.0
C333 C 0.50716 0.48627 0.0335 0.0
C334 C 0.52388 0.52061 0.95145 0.0
C335 C 0.52432 0.5056 0.02519 0.0
H336 H 0.45139 0.52515 0.65545 0.0
H337 H 0.53789 0.50895 0.07555 0.0
H338 H 0.60304 0.55753 0.61029 0.0
H339 H 0.5115 0.49351 0.27578 0.0
H340 H 0.5369 0.53577 0.94627 0.0
H341 H 0.50755 0.47471 0.09083 0.0
H342 H 0.52684 0.48615 0.42421 0.0
H343 H 0.41955 0.49256 0.66115 0.0
H344 H 0.4713 0.45104 0.02984 0.0
H345 H 0.4399 0.44597 0.91554 0.0
H346 H 0.62197 0.59375 0.53631 0.0
H347 H 0.42056 0.4612 0.77788 0.0
H348 H 0.52137 0.53295 0.20105 0.0
N349 N 0.57555 0.55195 0.51334 0.0
C350 C 0.56739 0.55825 0.43347 0.0
C351 C 0.60649 0.58406 0.50692 0.0
C352 C 0.57747 0.57875 0.3889 0.0
C353 C 0.59588 0.56352 0.54831 0.0
C354 C 0.59686 0.59207 0.42771 0.0
N355 N 0.54361 0.52179 0.43559 0.0
C356 C 0.53088 0.50362 0.39269 0.0
C357 C 0.54293 0.54745 0.30784 0.0
C358 C 0.5506 0.54274 0.39349 0.0
C359 C 0.5279 0.5299 0.26642 0.0
C360 C 0.52231 0.50763 0.3084 0.0
H361 H 0.60514 0.60793 0.39563 0.0
H362 H 0.57598 0.60037 0.27073 0.0
H363 H 0.54555 0.57296 0.1997 0.0
O364 O 0.5753 0.48887 0.51584 0.0
O365 O 0.55179 0.55942 0.62344 0.0
O366 O 0.51037 0.56463 0.63934 0.0
O367 O 0.59243 0.50746 0.62298 0.0
O368 O 0.51439 0.50673 0.55946 0.0
O369 O 0.49221 0.5388 0.61775 0.0
O370 O 0.50613 0.57532 0.82232 0.0
O371 O 0.52605 0.50153 0.7744 0.0
O372 O 0.53002 0.48751 0.63652 0.0
O373 O 0.47253 0.55332 0.81862 0.0
O374 O 0.54658 0.54922 0.79681 0.0
O375 O 0.56798 0.51876 0.7238 0.0
C376 C 0.53191 0.57335 0.6138 0.0
C377 C 0.59895 0.46468 0.61641 0.0
C378 C 0.59113 0.42059 0.63712 0.0
C379 C 0.60664 0.42038 0.70979 0.0
C380 C 0.61528 0.46409 0.68767 0.0
C381 C 0.61874 0.44217 0.73483 0.0
C382 C 0.58703 0.44275 0.5916 0.0
C383 C 0.49475 0.52142 0.55891 0.0
C384 C 0.59333 0.48841 0.57229 0.0
C385 C 0.56874 0.5845 0.30564 0.0
C386 C 0.55142 0.56888 0.2652 0.0
C387 C 0.52621 0.48305 0.71901 0.0
C388 C 0.46888 0.59543 0.78002 0.0
C389 C 0.46811 0.63826 0.72999 0.0
C390 C 0.44738 0.63318 0.67809 0.0
C391 C 0.44823 0.59038 0.72636 0.0
C392 C 0.47871 0.61944 0.78087 0.0
C393 C 0.43762 0.60917 0.67582 0.0
C394 C 0.56655 0.53507 0.78689 0.0
C395 C 0.48185 0.57541 0.82768 0.0
H396 H 0.61008 0.4033 0.74487 0.0
H397 H 0.62507 0.48068 0.70771 0.0
H398 H 0.63108 0.44201 0.79016 0.0
H399 H 0.57473 0.44269 0.53595 0.0
H400 H 0.43872 0.64775 0.64024 0.0
H401 H 0.4404 0.57189 0.72245 0.0
H402 H 0.49452 0.62362 0.82208 0.0
H403 H 0.42173 0.60513 0.63514 0.0
Eu404 Eu 0.04346 0.558 0.57697 0.0
C405 C 0.06004 0.4783 0.8424 0.0
N406 N 0.04554 0.47835 0.77003 0.0
C407 C 0.06311 0.43926 0.72736 0.0
C408 C 0.07767 0.4593 0.85716 0.0
C409 C 0.04572 0.45832 0.71603 0.0
C410 C 0.07953 0.44002 0.79719 0.0
C411 C 0.07037 0.49646 0.98162 0.0
C412 C 0.05637 0.49656 0.90448 0.0
C413 C 0.08859 0.47814 0.99465 0.0
C414 C 0.09227 0.45965 0.93253 0.0
Eu415 Eu 1.01834 0.51301 0.75506 0.0
N416 N 0.03894 0.51439 0.88961 0.0
C417 C 0.06543 0.51463 0.04385 0.0
C418 C 0.03333 0.53152 0.95133 0.0
C419 C 0.04665 0.53208 0.02895 0.0
H420 H 0.03209 0.45639 0.66546 0.0
H421 H 0.04238 0.54592 0.0773 0.0
H422 H 1.0126 0.6105 0.61701 0.0
H423 H 0.05163 0.5098 0.26653 0.0
H424 H 1.01855 0.54475 0.94096 0.0
H425 H 0.07572 0.51511 0.10407 0.0
H426 H 0.06556 0.52341 0.41061 0.0
H427 H 0.0635 0.42375 0.68308 0.0
H428 H 0.09965 0.47786 0.05326 0.0
H429 H 0.10604 0.44533 0.94441 0.0
H430 H 0.97803 0.63524 0.55401 0.0
H431 H 0.09281 0.42508 0.80624 0.0
H432 H 1.01306 0.52717 0.20285 0.0
N433 N 1.01195 0.58355 0.51709 0.0
C434 C 1.00257 0.57688 0.43924 0.0
C435 C 0.98465 0.61877 0.52134 0.0
C436 C 0.98281 0.59023 0.40111 0.0
C437 C 1.00423 0.60488 0.55656 0.0
C438 C 0.97358 0.61116 0.44402 0.0
N439 N 0.03393 0.54642 0.43238 0.0
C440 C 0.04819 0.53044 0.38512 0.0
C441 C 1.00546 0.55081 0.31261 0.0
C442 C 1.01374 0.55746 0.39592 0.0
C443 C 1.01881 0.53281 0.26697 0.0
C444 C 0.04057 0.52296 0.30273 0.0
H445 H 0.95842 0.62193 0.41686 0.0
H446 H 0.95811 0.59253 0.2905 0.0
H447 H 0.97795 0.55795 0.21288 0.0
O448 O 0.07202 0.57397 0.49239 0.0
O449 O 1.0019 0.55781 0.61287 0.0
O450 O 0.99491 0.51699 0.63213 0.0
O451 O 0.06306 0.5918 0.6123 0.0
O452 O 0.05374 0.51691 0.55934 0.0
O453 O 0.02038 0.49655 0.61806 0.0
O454 O 0.98121 0.5162 0.81188 0.0
O455 O 0.05661 0.53141 0.77616 0.0
O456 O 0.07142 0.53126 0.63911 0.0
O457 O 1.00107 0.48131 0.81854 0.0
O458 O 1.01052 0.55439 0.78738 0.0
O459 O 0.04202 0.57394 0.71249 0.0
C460 C 0.98703 0.53863 0.60489 0.0
C461 C 0.10529 0.58832 0.58116 0.0
C462 C 0.14389 0.56448 0.59216 0.0
C463 C 0.15113 0.5791 0.663 0.0
C464 C 0.11317 0.60312 0.65069 0.0
C465 C 0.13594 0.59848 0.69127 0.0
C466 C 0.12106 0.56947 0.55106 0.0
C467 C 0.03858 0.49768 0.56119 0.0
C468 C 0.07925 0.58985 0.55069 0.0
C469 C 0.97349 0.58273 0.32047 0.0
C470 C 0.98479 0.56302 0.27631 0.0
C471 C 0.07549 0.52976 0.72271 0.0
C472 C 0.95915 0.47994 0.774 0.0
C473 C 0.91583 0.47956 0.72823 0.0
C474 C 0.9205 0.45919 0.67464 0.0
C475 C 0.96385 0.45984 0.71805 0.0
C476 C 0.93512 0.48978 0.77785 0.0
C477 C 0.94459 0.44958 0.66885 0.0
C478 C 0.02516 0.57389 0.77418 0.0
C479 C 0.97948 0.49219 0.82206 0.0
H480 H 0.16839 0.57545 0.69702 0.0
H481 H 0.10124 0.61763 0.67581 0.0
H482 H 0.14161 0.60961 0.74598 0.0
H483 H 0.11533 0.55842 0.49623 0.0
H484 H 0.90557 0.45076 0.63787 0.0
H485 H 0.98239 0.45214 0.71159 0.0
H486 H 0.9313 0.50526 0.82058 0.0
H487 H 0.94833 0.43405 0.62652 0.0
H488 H 0.19052 1.00285 0.34389 0.0
H489 H 0.1823 0.06355 0.16198 0.0
H490 H 0.14403 0.07711 0.23861 0.0
H491 H 0.12616 0.98837 0.36057 0.0
H492 H 0.12726 0.98075 0.4737 0.0
H493 H 0.15454 0.97665 0.40791 0.0
H494 H 0.18019 1.00476 0.50991 0.0
H495 H 0.15322 1.00867 0.57755 0.0
H496 H 0.16904 0.0355 0.53468 0.0
H497 H 0.10379 0.0819 0.33309 0.0
H498 H 0.06912 0.07917 0.43865 0.0
H499 H 0.10526 1.01599 0.55919 0.0
C500 C 0.18083 1.01914 0.32022 0.0
C501 C 0.18963 0.03208 0.24626 0.0
C502 C 0.17627 0.0534 0.21862 0.0
C503 C 0.15434 0.06114 0.26164 0.0
C504 C 0.14598 0.0476 0.33329 0.0
C505 C 0.15911 0.02718 0.36272 0.0
C506 C 0.1463 1.01543 0.44008 0.0
C507 C 0.13809 0.98873 0.41932 0.0
C508 C 0.1632 1.01614 0.5203 0.0
C509 C 0.12395 0.03244 0.45056 0.0
C510 C 0.12379 0.05077 0.38796 0.0
C511 C 0.10412 0.0678 0.38298 0.0
C512 C 0.08441 0.06613 0.44342 0.0
C513 C 0.08447 0.04774 0.50925 0.0
C514 C 0.1047 0.03077 0.51191 0.0
H515 H 0.48006 0.17362 0.24525 0.0
H516 H 0.55405 0.20574 0.25425 0.0
H517 H 0.56653 0.17414 0.36252 0.0
H518 H 0.47518 0.15783 0.47351 0.0
H519 H 0.45897 0.1291 0.45352 0.0
H520 H 0.4558 0.15462 0.37894 0.0
H521 H 0.47041 0.12635 0.25393 0.0
H522 H 0.4735 0.10082 0.32875 0.0
H523 H 0.49958 0.10999 0.26319 0.0
H524 H 0.57213 0.13551 0.46031 0.0
H525 H 0.56892 0.09702 0.54759 0.0
H526 H 0.49046 0.09197 0.4861 0.0
C527 C 0.49891 0.17417 0.27008 0.0
C528 C 0.51604 0.19245 0.24012 0.0
C529 C 0.5404 0.19232 0.27586 0.0
C530 C 0.54772 0.17424 0.33733 0.0
C531 C 0.53047 0.15636 0.36421 0.0
C532 C 0.50643 0.15644 0.3324 0.0
C533 C 0.49148 0.13506 0.371 0.0
C534 C 0.46903 0.14475 0.42231 0.0
C535 C 0.48325 0.11698 0.29991 0.0
C536 C 0.51067 0.123 0.43026 0.0
C537 C 0.53323 0.1353 0.42417 0.0
C538 C 0.55435 0.12626 0.4669 0.0
C539 C 0.55235 0.1044 0.51686 0.0
C540 C 0.52927 0.09203 0.52696 0.0
C541 C 0.50817 0.10152 0.48253 0.0
H542 H 0.37772 0.56318 0.26512 0.0
H543 H 0.36859 0.48634 0.1892 0.0
H544 H 0.40458 0.47473 0.28167 0.0
H545 H 0.44419 0.56423 0.27034 0.0
H546 H 0.44629 0.58391 0.36406 0.0
H547 H 0.41959 0.58598 0.29382 0.0
H548 H 0.39036 0.57772 0.42367 0.0
H549 H 0.41703 0.57582 0.49413 0.0
H550 H 0.39517 0.55048 0.48951 0.0
H551 H 0.44442 0.4722 0.37737 0.0
H552 H 0.48016 0.47831 0.4769 0.0
H553 H 0.46193 0.55648 0.49532 0.0
C554 C 0.38316 0.54384 0.26818 0.0
C555 C 0.37013 0.52569 0.21898 0.0
C556 C 0.37793 0.50061 0.22622 0.0
C557 C 0.39856 0.49388 0.27833 0.0
C558 C 0.41124 0.51233 0.32441 0.0
C559 C 0.40349 0.53678 0.32083 0.0
C560 C 0.41995 0.5531 0.37744 0.0
C561 C 0.43329 0.57298 0.32316 0.0
C562 C 0.40472 0.56498 0.45052 0.0
C563 C 0.43837 0.53415 0.41287 0.0
C564 C 0.43324 0.51074 0.38103 0.0
C565 C 0.44833 0.49047 0.40293 0.0
C566 C 0.46877 0.49413 0.45926 0.0
C567 C 0.47402 0.51784 0.49443 0.0
C568 C 0.45846 0.53804 0.47023 0.0
H569 H 1.00197 0.38063 0.25857 0.0
H570 H 0.0804 0.37211 0.20146 0.0
H571 H 0.09009 0.40739 0.29874 0.0
H572 H 0.99995 0.44635 0.27064 0.0
H573 H 0.97886 0.4478 0.36089 0.0
H574 H 0.97812 0.4215 0.28931 0.0
H575 H 0.9849 0.39183 0.41909 0.0
H576 H 0.98545 0.4181 0.49099 0.0
H577 H 1.01117 0.3966 0.48976 0.0
H578 H 0.09069 0.44652 0.39419 0.0
H579 H 0.08285 0.48227 0.49058 0.0
H580 H 1.00429 0.4639 0.49547 0.0
C581 C 0.02123 0.38594 0.26783 0.0
C582 C 0.0405 0.37335 0.22252 0.0
C583 C 0.06539 0.38111 0.23602 0.0
C584 C 0.07102 0.4013 0.29088 0.0
C585 C 0.05161 0.41351 0.33361 0.0
C586 C 0.02722 0.40575 0.32411 0.0
C587 C 1.00985 0.42181 0.3785 0.0
C588 C 0.99056 0.43515 0.3214 0.0
C589 C 0.99709 0.40615 0.44874 0.0
C590 C 0.0281 0.44021 0.41827 0.0
C591 C 0.0521 0.4352 0.39112 0.0
C592 C 0.07198 0.4503 0.41642 0.0
C593 C 0.06732 0.47074 0.47107 0.0
C594 C 0.04298 0.47605 0.50138 0.0
C595 C 0.02317 0.46035 0.47437 0.0
H596 H 0.87269 0.06956 0.06399 0.0
H597 H 0.86277 0.99361 0.15037 0.0
H598 H 0.89908 0.98085 0.06193 0.0
H599 H 0.89186 0.05483 0.84369 0.0
H600 H 0.91387 0.08002 0.83895 0.0
H601 H 0.88657 0.08261 0.90575 0.0
H602 H 0.91463 0.09184 0.03814 0.0
H603 H 0.94197 0.08906 0.97168 0.0
H604 H 0.93885 0.07019 0.0673 0.0
H605 H 0.93884 0.97706 0.96744 0.0
H606 H 0.97501 0.98208 0.86993 0.0
H607 H 0.95863 0.06059 0.84626 0.0
C608 C 0.87802 0.05017 0.06426 0.0
C609 C 0.86471 0.03262 0.11505 0.0
C610 C 0.87234 1.00743 0.11193 0.0
C611 C 0.89314 1.00005 0.06217 0.0
C612 C 0.90615 1.01798 0.01473 0.0
C613 C 0.89859 0.0425 0.01463 0.0
C614 C 0.9156 0.05828 0.95843 0.0
C615 C 0.9011 0.0696 0.88219 0.0
C616 C 0.92852 0.07854 0.01211 0.0
C617 C 0.93417 0.03897 0.92757 0.0
C618 C 0.92851 1.01581 0.96074 0.0
C619 C 0.94331 0.99518 0.94144 0.0
C620 C 0.96407 0.99825 0.88653 0.0
C621 C 0.97008 0.02179 0.85105 0.0
C622 C 0.95475 0.04234 0.8724 0.0
H623 H 0.53143 0.90062 0.18416 0.0
H624 H 0.54261 0.83816 0.01162 0.0
H625 H 0.5404 0.86657 0.88687 0.0
H626 H 0.48916 0.9367 0.04176 0.0
H627 H 0.50272 0.96596 0.07303 0.0
H628 H 0.50246 0.94032 0.14797 0.0
H629 H 0.54971 0.94493 0.16511 0.0
H630 H 0.55109 0.9693 0.08545 0.0
H631 H 0.56946 0.94148 0.07195 0.0
H632 H 0.53894 0.9024 0.77872 0.0
H633 H 0.53833 0.94205 0.69861 0.0
H634 H 0.53009 0.98227 0.93859 0.0
C635 C 0.53325 0.89272 0.12031 0.0
C636 C 0.53707 0.86668 0.10926 0.0
C637 C 0.53918 0.85766 0.02339 0.0
C638 C 0.53811 0.8738 0.95151 0.0
C639 C 0.53481 0.89924 0.96509 0.0
C640 C 0.53217 0.90863 0.04743 0.0
C641 C 0.52997 0.93689 0.04439 0.0
C642 C 0.50456 0.94547 0.07883 0.0
C643 C 0.55135 0.9489 0.0949 0.0
C644 C 0.5323 0.94203 0.94772 0.0
C645 C 0.53471 0.91993 0.90317 0.0
C646 C 0.53689 0.91971 0.81332 0.0
C647 C 0.53635 0.94242 0.76793 0.0
C648 C 0.53389 0.96542 0.81132 0.0
C649 C 0.53213 0.9651 0.90305 0.0
H650 H 0.6661 0.58277 0.14797 0.0
H651 H 0.70249 0.51121 0.11888 0.0
H652 H 0.67024 0.49885 0.01422 0.0
H653 H 0.60227 0.55871 0.13499 0.0
H654 H 0.59054 0.58517 0.07633 0.0
H655 H 0.61639 0.58875 0.14965 0.0
H656 H 0.6429 0.60765 0.02649 0.0
H657 H 0.61713 0.60417 0.95288 0.0
H658 H 0.64689 0.59054 0.92753 0.0
H659 H 0.63359 0.49342 0.91459 0.0
H660 H 0.59701 0.49609 0.82023 0.0
H661 H 0.58302 0.57127 0.9076 0.0
C662 C 0.6673 0.56436 0.12049 0.0
C663 C 0.68739 0.54808 0.14285 0.0
C664 C 0.68796 0.52438 0.10301 0.0
C665 C 0.66942 0.51703 0.04368 0.0
C666 C 0.65003 0.53341 0.02394 0.0
C667 C 0.6488 0.55663 0.06095 0.0
C668 C 0.62592 0.57069 0.02735 0.0
C669 C 0.60771 0.57616 0.10148 0.0
C670 C 0.63368 0.59469 0.98079 0.0
C671 C 0.61479 0.55194 0.96419 0.0
C672 C 0.62897 0.53048 0.96461 0.0
C673 C 0.62263 0.51028 0.91323 0.0
C674 C 0.60175 0.51211 0.85882 0.0
C675 C 0.58718 0.5341 0.85363 0.0
C676 C 0.59366 0.5542 0.90894 0.0
H677 H 0.98751 0.66611 0.17163 0.0
H678 H 0.04501 0.71562 0.0747 0.0
H679 H 0.05339 0.68639 0.95673 0.0
H680 H 0.02135 0.60877 0.12581 0.0
H681 H 0.99394 0.5916 0.09532 0.0
H682 H 0.9916 0.61662 0.17201 0.0
H683 H 0.9581 0.63769 0.07661 0.0
H684 H 0.96042 0.61278 0.99951 0.0
H685 H 0.96496 0.64444 0.96508 0.0
H686 H 0.05641 0.65205 0.84961 0.0
H687 H 0.05443 0.61503 0.75992 0.0
H688 H 0.99568 0.58504 0.92243 0.0
C689 C 1.00204 0.67088 0.12625 0.0
C690 C 1.01535 0.69382 0.13364 0.0
C691 C 0.03394 0.69888 0.07095 0.0
C692 C 0.03907 0.68213 1.00355 0.0
C693 C 0.02569 0.65996 0.99862 0.0
C694 C 1.00759 0.65415 0.05832 0.0
C695 C 0.99626 0.62871 0.03786 0.0
C696 C 1.00107 0.61034 0.11218 0.0
C697 C 0.96827 0.63105 0.01862 0.0
C698 C 1.01072 0.62124 0.95693 0.0
C699 C 0.02759 0.6397 0.93626 0.0
C700 C 0.04326 0.63753 0.86536 0.0
C701 C 0.04187 0.61611 0.81426 0.0
C702 C 0.02488 0.5965 0.83264 0.0
C703 C 1.00896 0.59935 0.90568 0.0
H704 H 0.05229 0.21292 0.31648 0.0
H705 H 0.9944 0.26886 0.30556 0.0
H706 H 0.97511 0.2513 0.43552 0.0
H707 H 1.01737 0.16581 0.35075 0.0
H708 H 0.03631 0.14867 0.42645 0.0
H709 H 0.05064 0.1703 0.35424 0.0
H710 H 0.07016 0.19364 0.48396 0.0
H711 H 0.05581 0.17185 0.55716 0.0
H712 H 0.05048 0.20466 0.56996 0.0
H713 H 0.95506 0.22111 0.52885 0.0
H714 H 0.93739 0.1818 0.58135 0.0
H715 H 1.00917 0.1462 0.54696 0.0
C716 C 0.0362 0.222 0.34422 0.0
C717 C 0.02491 0.24223 0.30188 0.0
C718 C 1.00359 0.25358 0.33816 0.0
C719 C 0.99254 0.24378 0.41227 0.0
C720 C 1.00328 0.22292 0.45023 0.0
C721 C 0.02506 0.21249 0.41881 0.0
C722 C 0.03036 0.18778 0.46152 0.0
C723 C 0.03383 0.16694 0.39423 0.0
C724 C 0.05305 0.18961 0.52174 0.0
C725 C 1.00665 0.18459 0.51286 0.0
C726 C 0.99166 0.20541 0.50823 0.0
C727 C 0.96697 0.20504 0.53626 0.0
C728 C 0.95703 0.18257 0.56593 0.0
C729 C 0.97181 0.16085 0.56711 0.0
C730 C 0.99729 0.16242 0.54544 0.0
H731 H 0.311 0.06662 0.29557 0.0
H732 H 0.31983 0.12303 0.10041 0.0
H733 H 0.36005 0.13478 0.16254 0.0
H734 H 0.3601 0.09924 0.46918 0.0
H735 H 0.36949 0.06822 0.49855 0.0
H736 H 0.3371 0.07503 0.47817 0.0
H737 H 0.33618 0.0394 0.36724 0.0
H738 H 0.36837 0.03308 0.3839 0.0
H739 H 0.3573 0.04013 0.27656 0.0
H740 H 0.40286 0.12266 0.17877 0.0
H741 H 0.44098 0.09727 0.18275 0.0
H742 H 0.40799 0.04991 0.3768 0.0
C743 C 0.3205 0.08292 0.27149 0.0
C744 C 0.3131 0.09335 0.19202 0.0
C745 C 0.32551 0.11465 0.161 0.0
C746 C 0.34863 0.12125 0.19567 0.0
C747 C 0.35827 0.10698 0.26333 0.0
C748 C 0.3439 0.08921 0.30522 0.0
C749 C 0.36003 0.07266 0.36189 0.0
C750 C 0.35648 0.0792 0.45762 0.0
C751 C 0.35519 0.04472 0.34615 0.0
C752 C 0.3856 0.08047 0.33148 0.0
C753 C 0.38431 0.10095 0.27737 0.0
C754 C 0.40442 0.10766 0.22505 0.0
C755 C 0.42594 0.09298 0.22677 0.0
C756 C 0.42745 0.0721 0.28172 0.0
C757 C 0.40744 0.06642 0.33687 0.0
H758 H 0.56022 0.34283 0.23026 0.0
H759 H 0.49666 0.31188 0.36432 0.0
H760 H 0.51188 0.33046 0.50177 0.0
H761 H 0.60584 0.33623 0.4039 0.0
H762 H 0.6205 0.36532 0.3769 0.0
H763 H 0.60582 0.34711 0.29371 0.0
H764 H 0.57815 0.38477 0.25078 0.0
H765 H 0.59295 0.4031 0.33281 0.0
H766 H 0.55956 0.39976 0.33229 0.0
H767 H 0.53229 0.35732 0.61995 0.0
H768 H 0.55488 0.38992 0.70266 0.0
H769 H 0.60452 0.40109 0.48659 0.0
C770 C 0.5496 0.33978 0.28877 0.0
C771 C 0.52725 0.32628 0.2874 0.0
C772 C 0.51388 0.32233 0.36485 0.0
C773 C 0.52243 0.33269 0.44281 0.0
C774 C 0.5445 0.34642 0.44145 0.0
C775 C 0.55787 0.34976 0.36604 0.0
C776 C 0.57978 0.36675 0.37816 0.0
C777 C 0.60444 0.35302 0.36225 0.0
C778 C 0.57745 0.38995 0.32013 0.0
C779 C 0.57654 0.37305 0.472 0.0
C780 C 0.55627 0.36112 0.50838 0.0
C781 C 0.54847 0.36631 0.59253 0.0
C782 C 0.56132 0.38472 0.63907 0.0
C783 C 0.58133 0.39756 0.60036 0.0
C784 C 0.58949 0.39103 0.51751 0.0
H785 H 0.25781 0.52735 0.32973 0.0
H786 H 0.21224 0.46825 0.2255 0.0
H787 H 0.18552 0.47002 0.35412 0.0
H788 H 0.24362 0.51144 0.57818 0.0
H789 H 0.24414 0.54426 0.60046 0.0
H790 H 0.26534 0.53127 0.52235 0.0
H791 H 0.24926 0.56284 0.40915 0.0
H792 H 0.22772 0.57543 0.48507 0.0
H793 H 0.21648 0.56364 0.38331 0.0
H794 H 0.15631 0.48896 0.45223 0.0
H795 H 0.1299 0.5193 0.52522 0.0
H796 H 0.19449 0.56513 0.57742 0.0
C797 C 0.24326 0.51362 0.33692 0.0
C798 C 0.23693 0.49781 0.26775 0.0
C799 C 0.21724 0.48064 0.27772 0.0
C800 C 0.2021 0.4814 0.35099 0.0
C801 C 0.2073 0.49899 0.41448 0.0
C802 C 0.22804 0.5142 0.40995 0.0
C803 C 0.22689 0.53466 0.47688 0.0
C804 C 0.24614 0.53012 0.54874 0.0
C805 C 0.23024 0.56063 0.43605 0.0
C806 C 0.20076 0.53081 0.51038 0.0
C807 C 0.19014 0.50957 0.47611 0.0
C808 C 0.16474 0.50488 0.48312 0.0
C809 C 0.14977 0.52246 0.52417 0.0
C810 C 0.16021 0.54438 0.55933 0.0
C811 C 0.18615 0.54808 0.55457 0.0
H812 H 0.99351 0.86049 0.06753 0.0
H813 H 0.03469 0.79238 0.02315 0.0
H814 H 0.04839 0.80815 0.88267 0.0
H815 H 0.97896 0.87357 0.82557 0.0
H816 H 0.98321 0.90642 0.84206 0.0
H817 H 0.97029 0.88744 0.92698 0.0
H818 H 1.00451 0.90286 0.03176 0.0
H819 H 1.01759 0.92176 0.94785 0.0
H820 H 0.0368 0.8992 1.00257 0.0
H821 H 0.06735 0.83462 0.77335 0.0
H822 H 0.08756 0.86895 0.69723 0.0
H823 H 0.03175 0.91974 0.79803 0.0
C824 C 1.0046 0.84858 0.02654 0.0
C825 C 1.01283 0.82515 0.05617 0.0
C826 C 0.02764 0.81016 1.00134 0.0
C827 C 0.03559 0.81898 0.92117 0.0
C828 C 0.0283 0.84268 0.89581 0.0
C829 C 1.01263 0.85712 0.94577 0.0
C830 C 1.01048 0.88317 0.90936 0.0
C831 C 0.98417 0.88792 0.87386 0.0
C832 C 1.0178 0.90288 0.97689 0.0
C833 C 0.02931 0.8817 0.83691 0.0
C834 C 0.03891 0.85804 0.82884 0.0
C835 C 0.05932 0.85303 0.7763 0.0
C836 C 0.07069 0.87279 0.73286 0.0
C837 C 0.06151 0.89734 0.74148 0.0
C838 C 0.03977 0.90143 0.79111 0.0
H839 H 0.726 0.03019 0.04244 0.0
H840 H 0.72986 0.95599 0.14655 0.0
H841 H 0.68982 0.94589 0.07875 0.0
H842 H 0.67443 0.04342 0.10043 0.0
H843 H 0.66108 0.06034 0.01101 0.0
H844 H 0.69413 0.05849 0.02182 0.0
H845 H 0.69831 0.03967 0.8695 0.0
H846 H 0.66501 0.04199 0.85574 0.0
H847 H 0.68045 1.01261 0.84064 0.0
H848 H 0.64527 0.95081 0.07219 0.0
H849 H 0.60275 0.96683 0.09045 0.0
H850 H 0.62493 0.0371 0.97983 0.0
C851 C 0.71932 1.01123 0.04363 0.0
C852 C 0.73076 0.99381 0.09887 0.0
C853 C 0.72143 0.96937 0.10308 0.0
C854 C 0.69848 0.96361 0.06533 0.0
C855 C 0.68554 0.98239 0.02215 0.0
C856 C 0.69615 1.00548 1.00694 0.0
C857 C 0.67668 0.02395 0.97598 0.0
C858 C 0.67659 0.0479 0.0307 0.0
C859 C 0.68033 0.0299 0.87974 0.0
C860 C 0.65325 1.00887 0.98949 0.0
C861 C 0.65876 0.98472 0.01356 0.0
C862 C 0.64059 0.96911 0.04822 0.0
C863 C 0.61643 0.97837 0.05903 0.0
C864 C 0.61043 1.00283 0.03368 0.0
C865 C 0.62893 1.01796 0.99627 0.0
H866 H 0.48162 0.73273 0.08361 0.0
H867 H 0.55972 0.73565 0.01675 0.0
H868 H 0.55011 0.71838 0.87222 0.0
H869 H 0.46928 0.67707 1.00285 0.0
H870 H 0.43843 0.68382 0.96298 0.0
H871 H 0.45108 0.70172 0.04982 0.0
H872 H 0.44339 0.74196 0.96101 0.0
H873 H 0.43117 0.72385 0.87272 0.0
H874 H 0.45664 0.745 0.85465 0.0
H875 H 0.5339 0.69191 0.75567 0.0
H876 H 0.51302 0.65697 0.68268 0.0
H877 H 0.44454 0.6741 0.81557 0.0
C878 C 0.49647 0.73027 0.03714 0.0
C879 C 0.52129 0.7352 0.05985 0.0
C880 C 0.54057 0.73179 0.99925 0.0
C881 C 0.53521 0.72233 0.91709 0.0
C882 C 0.51044 0.71708 0.89659 0.0
C883 C 0.49133 0.72119 0.95476 0.0
C884 C 0.46696 0.71073 0.92269 0.0
C885 C 0.45583 0.69223 0.98841 0.0
C886 C 0.44845 0.73164 0.90149 0.0
C887 C 0.47574 0.69797 0.84138 0.0
C888 C 0.50074 0.70253 0.82574 0.0
C889 C 0.51414 0.68899 0.7647 0.0
C890 C 0.50218 0.66929 0.72304 0.0
C891 C 0.47713 0.66363 0.7423 0.0
C892 C 0.46338 0.67904 0.79754 0.0
H893 H 0.82213 0.49216 0.08714 0.0
H894 H 0.81928 0.57023 0.02235 0.0
H895 H 0.83607 0.56105 0.87694 0.0
H896 H 0.87747 0.47972 1.0046 0.0
H897 H 0.87054 0.44921 0.96334 0.0
H898 H 0.85271 0.46147 0.05096 0.0
H899 H 0.81222 0.45451 0.96237 0.0
H900 H 0.83025 0.44262 0.87338 0.0
H901 H 0.80916 0.46823 0.85661 0.0
H902 H 0.86219 0.54523 0.75886 0.0
H903 H 0.89688 0.52455 0.6833 0.0
H904 H 0.88027 0.45596 0.81607 0.0
C905 C 0.82442 0.50708 0.04084 0.0
C906 C 0.81963 0.53177 0.06443 0.0
C907 C 0.82291 0.55116 1.00413 0.0
C908 C 0.83213 0.54606 0.92148 0.0
C909 C 0.8373 0.52143 0.90014 0.0
C910 C 0.83326 0.5022 0.95791 0.0
C911 C 0.84364 0.47798 0.92472 0.0
C912 C 0.8622 0.46647 0.98969 0.0
C913 C 0.82255 0.45976 0.90296 0.0
C914 C 0.8564 0.48702 0.84357 0.0
C915 C 0.85178 0.51199 0.8287 0.0
C916 C 0.86517 0.52551 0.76741 0.0
C917 C 0.88476 0.51367 0.72444 0.0
C918 C 0.8905 0.48864 0.74296 0.0
C919 C 0.87528 0.47481 0.79879 0.0
H920 H 0.05926 0.19185 0.06662 0.0
H921 H 1.013 0.23852 0.90356 0.0
H922 H 1.00647 0.20298 0.80468 0.0
H923 H 0.0878 0.15643 0.89098 0.0
H924 H 0.08833 0.12777 0.95072 0.0
H925 H 0.0904 0.15689 1.00709 0.0
H926 H 0.05236 0.14517 0.10036 0.0
H927 H 0.05019 0.11581 0.04544 0.0
H928 H 0.02365 0.1363 0.04836 0.0
H929 H 1.00177 0.16046 0.73019 0.0
H930 H 1.00284 0.1172 0.6782 0.0
H931 H 0.05255 0.09755 0.88818 0.0
C932 C 0.04786 0.1948 0.00981 0.0
C933 C 0.03665 0.21847 0.99385 0.0
C934 C 0.02214 0.22106 0.91766 0.0
C935 C 1.0181 0.20074 0.8613 0.0
C936 C 0.02879 0.17763 0.88074 0.0
C937 C 0.04368 0.17469 0.95276 0.0
C938 C 0.05308 0.14794 0.95912 0.0
C939 C 0.0816 0.14722 0.95155 0.0
C940 C 0.0443 0.13558 0.04333 0.0
C941 C 0.04075 0.13601 0.88057 0.0
C942 C 0.0268 0.15352 0.83636 0.0
C943 C 1.01301 0.14682 0.76359 0.0
C944 C 1.01366 0.12196 0.73468 0.0
C945 C 0.02798 0.10345 0.77769 0.0
C946 C 0.04169 0.11091 0.85222 0.0
H947 H 0.365 0.04323 0.0556 0.0
H948 H 0.31352 0.03001 0.84483 0.0
H949 H 0.34945 0.02252 0.74695 0.0
H950 H 0.40835 0.07745 0.93613 0.0
H951 H 0.43566 0.06558 0.98971 0.0
H952 H 0.40644 0.06688 0.04646 0.0
H953 H 0.40863 0.02025 0.08015 0.0
H954 H 0.43803 1.01783 0.02481 0.0
H955 H 0.41242 0.99824 0.99356 0.0
H956 H 0.39261 0.01996 0.66888 0.0
H957 H 0.43669 0.0204 0.62248 0.0
H958 H 0.4594 0.03622 0.88567 0.0
C959 C 0.36113 0.03843 0.98902 0.0
C960 C 0.33613 0.03727 0.95829 0.0
C961 C 0.33225 0.03078 0.87064 0.0
C962 C 0.35267 0.0267 0.81437 0.0
C963 C 0.37703 0.02899 0.84639 0.0
C964 C 0.3812 0.03447 0.93229 0.0
C965 C 0.40893 0.03694 0.95098 0.0
C966 C 0.4152 0.06327 0.98274 0.0
C967 C 0.4175 1.01714 0.01628 0.0
C968 C 0.41995 0.03219 0.86219 0.0
C969 C 0.40132 0.02759 0.80247 0.0
C970 C 0.40718 0.02333 0.71577 0.0
C971 C 0.43244 0.02365 0.68984 0.0
C972 C 0.45194 0.0282 0.74995 0.0
C973 C 0.44526 0.03251 0.83747 0.0
H974 H 0.544 0.36717 0.04123 0.0
H975 H 0.49057 0.32555 0.88889 0.0
H976 H 0.48887 0.36052 0.78392 0.0
H977 H 0.51311 0.42496 0.02367 0.0
H978 H 0.54148 0.44286 0.02125 0.0
H979 H 0.54079 0.41337 0.07598 0.0
H980 H 0.57783 0.39848 0.9827 0.0
H981 H 0.57839 0.42783 0.92666 0.0
H982 H 0.57532 0.39937 0.86665 0.0
H983 H 0.4926 0.4025 0.69632 0.0
H984 H 0.49945 0.44547 0.64293 0.0
H985 H 0.54554 0.46089 0.86602 0.0
C986 C 0.53164 0.36516 0.98646 0.0
C987 C 0.51704 0.34322 0.9754 0.0
C988 C 0.50209 0.34172 0.89985 0.0
C989 C 0.50086 0.36174 0.83998 0.0
C990 C 0.51452 0.38348 0.85611 0.0
C991 C 0.52963 0.38514 0.928 0.0
C992 C 0.54144 0.41078 0.93471 0.0
C993 C 0.53373 0.42376 0.01889 0.0
C994 C 0.56994 0.409 0.92725 0.0
C995 C 0.53034 0.42371 0.85631 0.0
C996 C 0.5153 0.40756 0.81032 0.0
C997 C 0.5041 0.41518 0.73298 0.0
C998 C 0.50818 0.43968 0.70277 0.0
C999 C 0.52283 0.45677 0.7504 0.0
C1000 C 0.53397 0.44848 0.82843 0.0
H1001 H 0.19286 0.54081 0.04921 0.0
H1002 H 0.23648 0.49935 0.86382 0.0
H1003 H 0.20002 0.49844 0.76477 0.0
H1004 H 0.13621 0.50943 0.0205 0.0
H1005 H 0.11655 0.53642 0.03032 0.0
H1006 H 0.14646 0.53572 0.08295 0.0
H1007 H 0.1592 0.57621 1.00419 0.0
H1008 H 0.12914 0.57718 0.95231 0.0
H1009 H 0.15709 0.5778 0.88808 0.0
H1010 H 0.15629 0.49737 0.69458 0.0
H1011 H 0.11235 0.50247 0.6482 0.0
H1012 H 0.09739 0.5463 0.87593 0.0
C1013 C 0.19496 0.53198 0.98689 0.0
C1014 C 0.21785 0.52022 0.96449 0.0
C1015 C 0.21951 0.50879 0.88239 0.0
C1016 C 0.1987 0.50796 0.82606 0.0
C1017 C 0.1762 0.51889 0.85187 0.0
C1018 C 0.17444 0.5312 0.9297 0.0
C1019 C 0.14814 0.54132 0.94282 0.0
C1020 C 0.13614 0.53004 0.02398 0.0
C1021 C 0.14842 0.56982 0.94711 0.0
C1022 C 0.13511 0.53237 0.8612 0.0
C1023 C 0.15161 0.51934 0.80978 0.0
C1024 C 0.14358 0.50826 0.73323 0.0
C1025 C 0.11858 0.51141 0.70687 0.0
C1026 C 0.10156 0.52562 0.75603 0.0
C1027 C 0.10996 0.53574 0.83559 0.0
H1028 H 0.99266 0.84731 0.44452 0.0
H1029 H 0.06027 0.85305 0.29351 0.0
H1030 H 0.07033 0.89263 0.36481 0.0
H1031 H 0.97613 0.90818 0.44136 0.0
H1032 H 0.96612 0.9124 0.55194 0.0
H1033 H 0.96461 0.88225 0.50233 0.0
H1034 H 0.99054 0.86296 0.61939 0.0
H1035 H 0.99367 0.89206 0.67574 0.0
H1036 H 0.02097 0.87477 0.64386 0.0
H1037 H 0.06938 0.935 0.43069 0.0
H1038 H 0.06226 0.97399 0.51008 0.0
H1039 H 0.99791 0.94133 0.63479 0.0
C1040 C 1.0101 0.85637 0.42929 0.0
C1041 C 0.02583 0.84664 0.36347 0.0
C1042 C 0.04807 0.85973 0.34403 0.0
C1043 C 0.05386 0.88245 0.38387 0.0
C1044 C 0.03758 0.89205 0.44535 0.0
C1045 C 1.01657 0.8791 0.47046 0.0
C1046 C 1.00225 0.89411 0.538 0.0
C1047 C 0.97569 0.89962 0.50659 0.0
C1048 C 1.00182 0.88018 0.62451 0.0
C1049 C 1.01795 0.91787 0.54396 0.0
C1050 C 0.0381 0.91615 0.48889 0.0
C1051 C 0.05409 0.93625 0.4759 0.0
C1052 C 0.04989 0.95844 0.52138 0.0
C1053 C 0.03004 0.9607 0.58087 0.0
C1054 C 1.01382 0.93997 0.59226 0.0
H1055 H 0.68826 0.0374 0.29977 0.0
H1056 H 0.73917 1.01257 0.49931 0.0
H1057 H 0.70438 1.01324 0.60542 0.0
H1058 H 0.64893 0.07748 0.43508 0.0
H1059 H 0.621 0.06878 0.37797 0.0
H1060 H 0.65049 0.06897 0.32267 0.0
H1061 H 0.64363 0.02319 0.27834 0.0
H1062 H 0.61434 0.02267 0.33456 0.0
H1063 H 0.63806 1.00017 0.36068 0.0
H1064 H 0.66133 1.01318 0.68727 0.0
H1065 H 0.61706 1.0139 0.73388 0.0
H1066 H 0.59552 0.03867 0.47796 0.0
C1067 C 0.69231 0.03253 0.36624 0.0
C1068 C 0.71669 0.025 0.3909 0.0
C1069 C 0.72091 1.01875 0.47868 0.0
C1070 C 0.7011 1.01887 0.53925 0.0
C1071 C 0.67708 0.02542 0.51151 0.0
C1072 C 0.67283 0.03241 0.42682 0.0
C1073 C 0.64538 0.03754 0.41083 0.0
C1074 C 0.64121 0.06482 0.38514 0.0
C1075 C 0.63474 0.01984 0.34206 0.0
C1076 C 0.63456 0.03206 0.49931 0.0
C1077 C 0.65299 0.02519 0.55708 0.0
C1078 C 0.64694 1.01873 0.64222 0.0
C1079 C 0.62166 0.0192 0.66832 0.0
C1080 C 0.60247 0.026 0.60968 0.0
C1081 C 0.6094 0.03279 0.52443 0.0
H1082 H 0.49856 0.69597 0.3331 0.0
H1083 H 0.56733 0.72865 0.42555 0.0
H1084 H 0.57422 0.69183 0.51905 0.0
H1085 H 0.48038 0.66632 0.53989 0.0
H1086 H 0.46771 0.63921 0.48788 0.0
H1087 H 0.46712 0.66879 0.43329 0.0
H1088 H 0.49046 0.64974 0.3033 0.0
H1089 H 0.49102 0.62008 0.35716 0.0
H1090 H 0.51969 0.63401 0.32108 0.0
H1091 H 0.57608 0.64842 0.58994 0.0
H1092 H 0.57038 0.60553 0.64378 0.0
H1093 H 0.49938 0.60125 0.51143 0.0
C1094 C 0.51486 0.69569 0.37434 0.0
C1095 C 0.53237 0.71564 0.3716 0.0
C1096 C 0.5534 0.71412 0.42685 0.0
C1097 C 0.55758 0.69303 0.47972 0.0
C1098 C 0.54043 0.67343 0.47828 0.0
C1099 C 0.51918 0.67485 0.4282 0.0
C1100 C 0.50382 0.65109 0.43708 0.0
C1101 C 0.47824 0.65669 0.47692 0.0
C1102 C 0.50109 0.63796 0.34944 0.0
C1103 C 0.51989 0.63583 0.49876 0.0
C1104 C 0.54106 0.649 0.52114 0.0
C1105 C 0.55938 0.63824 0.57342 0.0
C1106 C 0.55603 0.6137 0.60352 0.0
C1107 C 0.53441 0.59982 0.58258 0.0
C1108 C 0.51599 0.61134 0.5299 0.0
H1109 H 0.86124 0.50896 0.33489 0.0
H1110 H 0.83147 0.57898 0.42568 0.0
H1111 H 0.86933 0.585 0.51517 0.0
H1112 H 0.89151 0.49062 0.53944 0.0
H1113 H 0.91798 0.47679 0.48649 0.0
H1114 H 0.88804 0.47716 0.43372 0.0
H1115 H 0.90729 0.49932 0.30148 0.0
H1116 H 0.93732 0.49891 0.35341 0.0
H1117 H 0.92421 0.52788 0.31679 0.0
H1118 H 0.91358 0.58577 0.58104 0.0
H1119 H 0.95672 0.57871 0.63188 0.0
H1120 H 0.95723 0.50687 0.50682 0.0
C1121 C 0.8624 0.52539 0.3748 0.0
C1122 C 0.84295 0.54349 0.37281 0.0
C1123 C 0.8456 0.56464 0.42641 0.0
C1124 C 0.86729 0.56832 0.47698 0.0
C1125 C 0.88636 0.55055 0.47494 0.0
C1126 C 0.88385 0.52921 0.42645 0.0
C1127 C 0.90714 0.51306 0.43466 0.0
C1128 C 0.90079 0.48791 0.47607 0.0
C1129 C 0.91972 0.50959 0.34632 0.0
C1130 C 0.92335 0.52868 0.49449 0.0
C1131 C 0.91112 0.55042 0.51602 0.0
C1132 C 0.923 0.56859 0.56553 0.0
C1133 C 0.94767 0.56446 0.59396 0.0
C1134 C 0.96052 0.54214 0.57454 0.0
C1135 C 0.94791 0.52395 0.52439 0.0
loop_
_geom_bond_atom_site_label_1
_geom_bond_atom_site_label_2
_geom_bond_distance
_geom_bond_site_symmetry_2
_ccdc_geom_bond_type
H0 C1 0.949 . S
C1 H0 0.949 . S
C1 C2 1.395 . S
C1 C3 1.391 . S
C2 C1 1.395 . S
C2 C5 1.390 . S
C3 C1 1.391 . S
C3 C7 1.387 . S
C3 C8 1.491 . S
H4 C5 0.950 . S
C5 C2 1.390 . S
C5 H4 0.950 . S
C5 C6 1.378 . S
C6 C5 1.378 . S
C6 C7 1.409 . S
C7 C3 1.387 . S
C7 C6 1.409 . S
C7 H9 0.951 . S
C8 C3 1.491 . S
C8 C10 1.382 . S
C8 C12 1.404 . S
H9 C7 0.951 . S
C10 C8 1.382 . S
C10 C11 1.390 . S
C10 H15 0.949 . S
C11 C10 1.390 . S
C11 C16 1.399 . S
C12 C8 1.404 . S
C12 H13 0.950 . S
C12 C14 1.375 . S
H13 C12 0.950 . S
C14 C12 1.375 . S
C14 C16 1.382 . S
C14 H18 0.950 . S
H15 C10 0.949 . S
C16 C11 1.399 . S
C16 C14 1.382 . S
C16 H17 0.952 . S
H17 C16 0.952 . S
H18 C14 0.950 . S
H19 C20 0.949 . S
C20 H19 0.949 . S
C20 C21 1.395 . S
C20 C22 1.391 . S
C21 C20 1.395 . S
C21 C24 1.390 . S
C22 C20 1.391 . S
C22 C26 1.387 . S
C22 C27 1.491 . S
H23 C24 0.950 . S
C24 C21 1.390 . S
C24 H23 0.950 . S
C24 C25 1.378 . S
C25 C24 1.378 . S
C25 C26 1.409 . S
C26 C22 1.387 . S
C26 C25 1.409 . S
C26 H28 0.951 . S
C27 C22 1.491 . S
C27 C29 1.382 . S
C27 C31 1.404 . S
H28 C26 0.951 . S
C29 C27 1.382 . S
C29 C30 1.390 . S
C29 H34 0.949 . S
C30 C29 1.390 . S
C30 C35 1.399 . S
C31 C27 1.404 . S
C31 H32 0.950 . S
C31 C33 1.375 . S
H32 C31 0.950 . S
C33 C31 1.375 . S
C33 C35 1.382 . S
C33 H37 0.950 . S
H34 C29 0.949 . S
C35 C30 1.399 . S
C35 C33 1.382 . S
C35 H36 0.952 . S
H36 C35 0.952 . S
H37 C33 0.950 . S
H38 C39 0.949 . S
C39 H38 0.949 . S
C39 C40 1.395 . S
C39 C41 1.391 . S
C40 C39 1.395 . S
C40 C43 1.390 . S
C41 C39 1.391 . S
C41 C45 1.387 . S
C41 C46 1.491 . S
H42 C43 0.950 . S
C43 C40 1.390 . S
C43 H42 0.950 . S
C43 C44 1.378 . S
C44 C43 1.378 . S
C44 C45 1.409 . S
C45 C41 1.387 . S
C45 C44 1.409 . S
C45 H47 0.951 . S
C46 C41 1.491 . S
C46 C48 1.382 . S
C46 C50 1.404 . S
H47 C45 0.951 . S
C48 C46 1.382 . S
C48 C49 1.390 . S
C48 H53 0.949 . S
C49 C48 1.390 . S
C49 C54 1.399 . S
C50 C46 1.404 . S
C50 H51 0.950 . S
C50 C52 1.375 . S
H51 C50 0.950 . S
C52 C50 1.375 . S
C52 C54 1.382 . S
C52 H56 0.950 . S
H53 C48 0.949 . S
C54 C49 1.399 . S
C54 C52 1.382 . S
C54 H55 0.952 . S
H55 C54 0.952 . S
H56 C52 0.950 . S
H57 C58 0.949 . S
C58 H57 0.949 . S
C58 C59 1.395 . S
C58 C60 1.391 . S
C59 C58 1.395 . S
C59 C62 1.390 . S
C60 C58 1.391 . S
C60 C64 1.387 . S
C60 C65 1.491 . S
H61 C62 0.950 . S
C62 C59 1.390 . S
C62 H61 0.950 . S
C62 C63 1.378 . S
C63 C62 1.378 . S
C63 C64 1.409 . S
C64 C60 1.387 . S
C64 C63 1.409 . S
C64 H66 0.951 . S
C65 C60 1.491 . S
C65 C67 1.382 . S
C65 C69 1.404 . S
H66 C64 0.951 . S
C67 C65 1.382 . S
C67 C68 1.390 . S
C67 H72 0.949 . S
C68 C67 1.390 . S
C68 C73 1.399 . S
C69 C65 1.404 . S
C69 H70 0.950 . S
C69 C71 1.375 . S
H70 C69 0.950 . S
C71 C69 1.375 . S
C71 C73 1.382 . S
C71 H75 0.950 . S
H72 C67 0.949 . S
C73 C68 1.399 . S
C73 C71 1.382 . S
C73 H74 0.952 . S
H74 C73 0.952 . S
H75 C71 0.950 . S
H76 C77 0.949 . S
C77 H76 0.949 . S
C77 C78 1.395 . S
C77 C79 1.391 . S
C78 C77 1.395 . S
C78 C81 1.390 1_554 S
C79 C77 1.391 . S
C79 C83 1.387 1_554 S
C79 C84 1.491 . S
H80 C81 0.950 . S
C81 C78 1.390 1_556 S
C81 H80 0.950 . S
C81 C82 1.378 . S
C82 C81 1.378 . S
C82 C83 1.409 . S
C83 C79 1.387 1_556 S
C83 C82 1.409 . S
C83 H85 0.951 . S
C84 C79 1.491 . S
C84 C86 1.382 . S
C84 C88 1.404 1_554 S
H85 C83 0.951 . S
C86 C84 1.382 . S
C86 C87 1.390 . S
C86 H91 0.949 . S
C87 C86 1.390 . S
C87 C92 1.399 . S
C88 C84 1.404 1_556 S
C88 H89 0.950 . S
C88 C90 1.375 . S
H89 C88 0.950 . S
C90 C88 1.375 . S
C90 C92 1.382 1_556 S
C90 H94 0.950 . S
H91 C86 0.949 . S
C92 C87 1.399 . S
C92 C90 1.382 1_554 S
C92 H93 0.952 . S
H93 C92 0.952 . S
H94 C90 0.950 . S
H95 C96 0.949 . S
C96 H95 0.949 . S
C96 C97 1.395 . S
C96 C98 1.391 . S
C97 C96 1.395 . S
C97 C100 1.385 1_554 S
C98 C96 1.391 . S
C98 C102 1.387 1_554 S
C98 C103 1.491 . S
H99 C100 0.950 . S
C100 C97 1.385 1_556 S
C100 H99 0.950 . S
C100 C101 1.383 . S
C101 C100 1.383 . S
C101 C102 1.409 . S
C102 C98 1.387 1_556 S
C102 C101 1.409 . S
C102 H104 0.951 . S
C103 C98 1.491 . S
C103 C105 1.382 . S
C103 C107 1.404 1_554 S
H104 C102 0.951 . S
C105 C103 1.382 . S
C105 C106 1.390 . S
C105 H110 0.949 . S
C106 C105 1.390 . S
C106 C111 1.399 . S
C107 C103 1.404 1_556 S
C107 H108 0.955 . S
C107 C109 1.375 . S
H108 C107 0.955 . S
C109 C107 1.375 . S
C109 C111 1.382 1_556 S
C109 H113 0.950 1_455 S
H110 C105 0.949 . S
C111 C106 1.399 . S
C111 C109 1.382 1_554 S
C111 H112 0.952 . S
H112 C111 0.952 . S
H113 C109 0.950 1_655 S
H114 C115 0.949 . S
C115 H114 0.949 . S
C115 C116 1.395 . S
C115 C117 1.391 . S
C116 C115 1.395 . S
C116 C119 1.390 1_554 S
C117 C115 1.391 . S
C117 C121 1.387 1_554 S
C117 C122 1.491 . S
H118 C119 0.950 . S
C119 C116 1.390 1_556 S
C119 H118 0.950 . S
C119 C120 1.378 . S
C120 C119 1.378 . S
C120 C121 1.409 . S
C121 C117 1.387 1_556 S
C121 C120 1.409 . S
C121 H123 0.951 . S
C122 C117 1.491 . S
C122 C124 1.382 . S
C122 C126 1.404 1_554 S
H123 C121 0.951 . S
C124 C122 1.382 . S
C124 C125 1.390 . S
C124 H129 0.949 . S
C125 C124 1.390 . S
C125 C130 1.399 . S
C126 C122 1.404 1_556 S
C126 H127 0.950 . S
C126 C128 1.375 . S
H127 C126 0.950 . S
C128 C126 1.375 . S
C128 C130 1.382 1_556 S
C128 H132 0.950 1_545 S
H129 C124 0.949 . S
C130 C125 1.399 . S
C130 C128 1.382 1_554 S
C130 H131 0.952 . S
H131 C130 0.952 . S
H132 C128 0.950 1_565 S
H133 C134 0.949 . S
C134 H133 0.949 . S
C134 C135 1.395 . S
C134 C136 1.391 . S
C135 C134 1.395 . S
C135 C138 1.390 1_554 S
C136 C134 1.391 . S
C136 C140 1.387 1_554 S
C136 C141 1.491 . S
H137 C138 0.950 . S
C138 C135 1.390 1_556 S
C138 H137 0.950 . S
C138 C139 1.378 . S
C139 C138 1.378 . S
C139 C140 1.409 . S
C140 C136 1.387 1_556 S
C140 C139 1.409 . S
C140 H142 0.951 . S
C141 C136 1.491 . S
C141 C143 1.382 . S
C141 C145 1.404 1_554 S
H142 C140 0.951 . S
C143 C141 1.382 . S
C143 C144 1.390 . S
C143 H148 0.949 . S
C144 C143 1.390 . S
C144 C149 1.399 . S
C145 C141 1.404 1_556 S
C145 H146 0.950 . S
C145 C147 1.375 . S
H146 C145 0.950 . S
C147 C145 1.375 . S
C147 C149 1.382 1_556 S
C147 H151 0.950 . S
H148 C143 0.949 . S
C149 C144 1.399 . S
C149 C147 1.382 1_554 S
C149 H150 0.952 . S
H150 C149 0.952 . S
H151 C147 0.950 . S
Eu152 N181 2.600 . S
Eu152 N187 2.562 . S
Eu152 O196 2.462 1_655 S
Eu152 O197 2.373 1_545 S
Eu152 O199 2.432 . S
Eu152 O200 2.291 1_655 S
Eu152 O204 2.335 1_655 S
Eu152 O207 2.372 . S
Eu152 C216 2.787 . S
C153 N154 1.365 . S
C153 C156 1.405 . S
C153 C160 1.448 . S
N154 C153 1.365 . S
N154 C157 1.319 . S
N154 Eu163 2.600 1_545 S
C155 C157 1.397 . S
C155 C158 1.367 . S
C155 H175 0.931 . S
C156 C153 1.405 . S
C156 C158 1.403 . S
C156 C162 1.439 1_556 S
C157 N154 1.319 . S
C157 C155 1.397 . S
C157 H168 0.930 1_545 S
C158 C155 1.367 . S
C158 C156 1.403 . S
C158 H179 0.929 . S
C159 C160 1.430 1_554 S
C159 C161 1.387 . S
C159 C165 1.404 . S
C160 C153 1.448 . S
C160 C159 1.430 1_556 S
C160 N164 1.351 . S
C161 C159 1.387 . S
C161 C162 1.374 . S
C161 H176 0.931 . S
C162 C156 1.439 1_554 S
C162 C161 1.374 . S
C162 H177 0.931 . S
Eu163 N154 2.600 1_565 S
Eu163 N164 2.562 1_565 S
Eu163 O198 2.335 . S
Eu163 O201 2.376 . S
Eu163 O202 2.462 . S
Eu163 O203 2.373 1_565 S
Eu163 O205 2.432 . S
Eu163 O206 2.291 1_465 S
Eu163 C227 2.787 . S
N164 C160 1.351 . S
N164 Eu163 2.562 1_545 S
N164 C166 1.325 . S
C165 C159 1.404 . S
C165 C167 1.366 . S
C165 H173 0.930 . S
C166 N164 1.325 . S
C166 C167 1.416 1_556 S
C166 H172 0.929 1_455 S
C167 C165 1.366 . S
C167 C166 1.416 1_554 S
C167 H169 0.930 1_455 S
H168 C157 0.930 1_565 S
H169 C167 0.930 1_655 S
H170 C185 0.930 . S
H171 C192 0.930 . S
H172 C166 0.929 1_655 S
H173 C165 0.930 . S
H174 C188 0.929 . S
H175 C155 0.931 . S
H176 C161 0.931 . S
H177 C162 0.931 . S
H178 C183 0.931 . S
H179 C158 0.929 . S
H180 C191 0.930 . S
N181 Eu152 2.600 . S
N181 C182 1.365 . S
N181 C185 1.319 . S
C182 N181 1.365 . S
C182 C184 1.405 1_545 S
C182 C190 1.448 . S
C183 H178 0.931 . S
C183 C185 1.397 . S
C183 C186 1.367 1_545 S
C184 C182 1.405 1_565 S
C184 C186 1.403 . S
C184 C217 1.439 . S
C185 H170 0.930 . S
C185 N181 1.319 . S
C185 C183 1.397 . S
C186 C183 1.367 1_565 S
C186 C184 1.403 . S
C186 H193 0.929 . S
N187 Eu152 2.562 . S
N187 C188 1.325 1_655 S
N187 C190 1.351 . S
C188 H174 0.929 . S
C188 N187 1.325 1_455 S
C188 C192 1.416 1_545 S
C189 C190 1.430 1_565 S
C189 C191 1.404 . S
C189 C218 1.387 . S
C190 C182 1.448 . S
C190 N187 1.351 . S
C190 C189 1.430 1_545 S
C191 H180 0.930 . S
C191 C189 1.404 . S
C191 C192 1.366 1_655 S
C192 H171 0.930 . S
C192 C188 1.416 1_565 S
C192 C191 1.366 1_455 S
H193 C186 0.929 . S
H194 C217 0.931 . S
H195 C218 0.931 . S
O196 Eu152 2.462 1_455 S
O196 C216 1.252 1_455 S
O197 Eu152 2.373 1_565 S
O197 C208 1.249 . S
O198 Eu163 2.335 . S
O198 C208 1.264 1_455 S
O199 Eu152 2.432 . S
O199 C216 1.268 . S
O200 Eu152 2.291 1_455 S
O200 C215 1.255 . S
O201 Eu163 2.376 . S
O201 C215 1.239 1_565 S
O202 Eu163 2.462 . S
O202 C227 1.252 . S
O203 Eu163 2.373 1_545 S
O203 C219 1.249 . S
O204 Eu152 2.335 1_455 S
O204 C219 1.264 . S
O205 Eu163 2.432 . S
O205 C227 1.268 . S
O206 Eu163 2.291 1_645 S
O206 C226 1.255 . S
O207 Eu152 2.372 . S
O207 C226 1.257 . S
C208 O197 1.249 . S
C208 O198 1.264 1_655 S
C209 C212 1.382 . S
C209 C214 1.390 1_655 S
C209 C216 1.506 . S
C210 C211 1.436 . S
C210 C214 1.388 1_655 S
C211 C210 1.436 . S
C211 C213 1.372 . S
C211 H228 0.931 . S
C212 C209 1.382 . S
C212 C213 1.390 . S
C212 H229 0.931 . S
C213 C211 1.372 . S
C213 C212 1.390 . S
C213 H230 0.929 . S
C214 C209 1.390 1_455 S
C214 C210 1.388 1_455 S
C214 H231 0.930 . S
C215 O200 1.255 . S
C215 O201 1.239 1_545 S
C216 Eu152 2.787 . S
C216 O196 1.252 1_655 S
C216 O199 1.268 . S
C216 C209 1.506 . S
C217 C184 1.439 . S
C217 H194 0.931 . S
C217 C218 1.374 . S
C218 C189 1.387 . S
C218 H195 0.931 . S
C218 C217 1.374 . S
C219 O203 1.249 . S
C219 O204 1.264 . S
C220 C223 1.382 . S
C220 C224 1.390 . S
C220 C227 1.506 . S
C221 C222 1.398 . S
C221 C224 1.392 . S
C222 C221 1.398 . S
C222 C225 1.372 . S
C222 H232 0.931 1_556 S
C223 C220 1.382 . S
C223 C225 1.390 . S
C223 H233 0.931 . S
C224 C220 1.390 . S
C224 C221 1.392 . S
C224 H234 0.930 1_455 S
C225 C222 1.372 . S
C225 C223 1.390 . S
C225 H235 0.929 . S
C226 O206 1.255 . S
C226 O207 1.257 . S
C227 Eu163 2.787 . S
C227 O202 1.252 . S
C227 O205 1.268 . S
C227 C220 1.506 . S
H228 C211 0.931 . S
H229 C212 0.931 . S
H230 C213 0.929 . S
H231 C214 0.930 . S
H232 C222 0.931 1_554 S
H233 C223 0.931 . S
H234 C224 0.930 1_655 S
H235 C225 0.929 . S
Eu236 N265 2.600 . S
Eu236 N271 2.562 . S
Eu236 O280 2.462 . S
Eu236 O281 2.373 . S
Eu236 O283 2.432 . S
Eu236 O284 2.291 . S
Eu236 O288 2.335 1_545 S
Eu236 O291 2.372 . S
Eu236 C300 2.787 . S
C237 N238 1.365 . S
C237 C240 1.405 . S
C237 C244 1.448 . S
N238 C237 1.365 . S
N238 C241 1.319 . S
N238 Eu247 2.600 . S
C239 C241 1.397 . S
C239 C242 1.367 . S
C239 H259 0.931 . S
C240 C237 1.405 . S
C240 C242 1.403 . S
C240 C246 1.439 . S
C241 N238 1.319 . S
C241 C239 1.397 . S
C241 H252 0.930 . S
C242 C239 1.367 . S
C242 C240 1.403 . S
C242 H263 0.929 . S
C243 C244 1.430 . S
C243 C245 1.387 . S
C243 C249 1.404 . S
C244 C237 1.448 . S
C244 C243 1.430 . S
C244 N248 1.351 . S
C245 C243 1.387 . S
C245 C246 1.374 . S
C245 H260 0.931 . S
C246 C240 1.439 . S
C246 C245 1.374 . S
C246 H261 0.931 . S
Eu247 N238 2.600 . S
Eu247 N248 2.562 . S
Eu247 O282 2.335 1_565 S
Eu247 O285 2.372 . S
Eu247 O286 2.463 . S
Eu247 O287 2.373 . S
Eu247 O289 2.432 . S
Eu247 O290 2.291 1_565 S
Eu247 C311 2.787 . S
N248 C244 1.351 . S
N248 Eu247 2.562 . S
N248 C250 1.325 . S
C249 C243 1.404 . S
C249 C251 1.366 . S
C249 H257 0.930 . S
C250 N248 1.325 . S
C250 C251 1.416 . S
C250 H256 0.929 . S
C251 C249 1.366 . S
C251 C250 1.416 . S
C251 H253 0.930 . S
H252 C241 0.930 . S
H253 C251 0.930 . S
H254 C269 0.930 . S
H255 C276 0.930 . S
H256 C250 0.929 . S
H257 C249 0.930 . S
H258 C272 0.929 . S
H259 C239 0.931 . S
H260 C245 0.931 . S
H261 C246 0.931 . S
H262 C267 0.931 . S
H263 C242 0.929 . S
H264 C275 0.930 . S
N265 Eu236 2.600 . S
N265 C266 1.365 . S
N265 C269 1.319 . S
C266 N265 1.365 . S
C266 C268 1.405 . S
C266 C274 1.448 . S
C267 H262 0.931 . S
C267 C269 1.397 . S
C267 C270 1.367 . S
C268 C266 1.405 . S
C268 C270 1.403 . S
C268 C301 1.439 . S
C269 H254 0.930 . S
C269 N265 1.319 . S
C269 C267 1.397 . S
C270 C267 1.367 . S
C270 C268 1.403 . S
C270 H277 0.929 . S
N271 Eu236 2.562 . S
N271 C272 1.325 . S
N271 C274 1.351 . S
C272 H258 0.929 . S
C272 N271 1.325 . S
C272 C276 1.416 . S
C273 C274 1.430 . S
C273 C275 1.404 . S
C273 C302 1.387 . S
C274 C266 1.448 . S
C274 N271 1.351 . S
C274 C273 1.430 . S
C275 H264 0.930 . S
C275 C273 1.404 . S
C275 C276 1.366 . S
C276 H255 0.930 . S
C276 C272 1.416 . S
C276 C275 1.366 . S
H277 C270 0.929 . S
H278 C301 0.931 . S
H279 C302 0.931 . S
O280 Eu236 2.462 . S
O280 C300 1.252 . S
O281 Eu236 2.373 . S
O281 C292 1.249 . S
O282 Eu247 2.335 1_545 S
O282 C292 1.264 . S
O283 Eu236 2.432 . S
O283 C300 1.268 . S
O284 Eu236 2.291 . S
O284 C299 1.255 . S
O285 Eu247 2.372 . S
O285 C299 1.257 1_565 S
O286 Eu247 2.463 . S
O286 C311 1.253 . S
O287 Eu247 2.373 . S
O287 C303 1.249 . S
O288 Eu236 2.335 1_565 S
O288 C303 1.264 . S
O289 Eu247 2.432 . S
O289 C311 1.268 . S
O290 Eu247 2.291 1_545 S
O290 C310 1.255 . S
O291 Eu236 2.372 . S
O291 C310 1.257 . S
C292 O281 1.249 . S
C292 O282 1.264 . S
C293 C296 1.382 1_556 S
C293 C298 1.390 . S
C293 C300 1.506 . S
C294 C295 1.398 . S
C294 C298 1.392 1_554 S
C295 C294 1.398 . S
C295 C297 1.372 . S
C295 H312 0.931 . S
C296 C293 1.382 1_554 S
C296 C297 1.390 . S
C296 H313 0.931 . S
C297 C295 1.372 . S
C297 C296 1.390 . S
C297 H314 0.929 . S
C298 C293 1.390 . S
C298 C294 1.392 1_556 S
C298 H315 0.930 . S
C299 O284 1.255 . S
C299 O285 1.257 1_545 S
C300 Eu236 2.787 . S
C300 O280 1.252 . S
C300 O283 1.268 . S
C300 C293 1.506 . S
C301 C268 1.439 . S
C301 H278 0.931 . S
C301 C302 1.374 . S
C302 C273 1.387 . S
C302 H279 0.931 . S
C302 C301 1.374 . S
C303 O287 1.249 . S
C303 O288 1.264 . S
C304 C307 1.382 1_545 S
C304 C308 1.390 . S
C304 C311 1.506 1_545 S
C305 C306 1.398 . S
C305 C308 1.392 . S
C306 C305 1.398 . S
C306 C309 1.372 1_545 S
C306 H316 0.931 . S
C307 C304 1.382 1_565 S
C307 C309 1.390 . S
C307 H317 0.931 . S
C308 C304 1.390 . S
C308 C305 1.392 . S
C308 H318 0.930 . S
C309 C306 1.372 1_565 S
C309 C307 1.390 . S
C309 H319 0.929 . S
C310 O290 1.255 . S
C310 O291 1.257 . S
C311 Eu247 2.787 . S
C311 O286 1.253 . S
C311 O289 1.268 . S
C311 C304 1.506 1_565 S
H312 C295 0.931 . S
H313 C296 0.931 . S
H314 C297 0.929 . S
H315 C298 0.930 . S
H316 C306 0.931 . S
H317 C307 0.931 . S
H318 C308 0.930 . S
H319 C309 0.929 . S
Eu320 N349 2.600 . S
Eu320 N355 2.562 . S
Eu320 O364 2.462 . S
Eu320 O365 2.373 . S
Eu320 O367 2.432 . S
Eu320 O368 2.291 . S
Eu320 O372 2.335 . S
Eu320 O375 2.372 . S
Eu320 C384 2.787 . S
C321 N322 1.365 . S
C321 C324 1.405 . S
C321 C328 1.448 . S
N322 C321 1.365 . S
N322 C325 1.319 . S
N322 Eu331 2.600 . S
C323 C325 1.397 . S
C323 C326 1.367 . S
C323 H343 0.931 . S
C324 C321 1.405 . S
C324 C326 1.403 . S
C324 C330 1.439 1_556 S
C325 N322 1.319 . S
C325 C323 1.397 . S
C325 H336 0.930 . S
C326 C323 1.367 . S
C326 C324 1.403 . S
C326 H347 0.929 . S
C327 C328 1.430 1_554 S
C327 C329 1.387 . S
C327 C333 1.404 . S
C328 C321 1.448 . S
C328 C327 1.430 1_556 S
C328 N332 1.351 . S
C329 C327 1.387 . S
C329 C330 1.374 . S
C329 H344 0.931 . S
C330 C324 1.439 1_554 S
C330 C329 1.374 . S
C330 H345 0.931 . S
Eu331 N322 2.600 . S
Eu331 N332 2.562 . S
Eu331 O366 2.335 . S
Eu331 O369 2.372 . S
Eu331 O370 2.462 . S
Eu331 O371 2.373 . S
Eu331 O373 2.432 . S
Eu331 O374 2.291 . S
Eu331 C395 2.787 . S
N332 C328 1.351 . S
N332 Eu331 2.562 . S
N332 C334 1.325 . S
C333 C327 1.404 . S
C333 C335 1.366 . S
C333 H341 0.930 . S
C334 N332 1.325 . S
C334 C335 1.416 1_556 S
C334 H340 0.929 . S
C335 C333 1.366 . S
C335 C334 1.416 1_554 S
C335 H337 0.930 . S
H336 C325 0.930 . S
H337 C335 0.930 . S
H338 C353 0.930 . S
H339 C360 0.930 . S
H340 C334 0.929 . S
H341 C333 0.930 . S
H342 C356 0.929 . S
H343 C323 0.931 . S
H344 C329 0.931 . S
H345 C330 0.931 . S
H346 C351 0.931 . S
H347 C326 0.929 . S
H348 C359 0.930 . S
N349 Eu320 2.600 . S
N349 C350 1.365 . S
N349 C353 1.319 . S
C350 N349 1.365 . S
C350 C352 1.405 . S
C350 C358 1.448 . S
C351 H346 0.931 . S
C351 C353 1.397 . S
C351 C354 1.367 . S
C352 C350 1.405 . S
C352 C354 1.403 . S
C352 C385 1.439 . S
C353 H338 0.930 . S
C353 N349 1.319 . S
C353 C351 1.397 . S
C354 C351 1.367 . S
C354 C352 1.403 . S
C354 H361 0.929 . S
N355 Eu320 2.562 . S
N355 C356 1.325 . S
N355 C358 1.351 . S
C356 H342 0.929 . S
C356 N355 1.325 . S
C356 C360 1.416 . S
C357 C358 1.430 . S
C357 C359 1.404 . S
C357 C386 1.387 . S
C358 C350 1.448 . S
C358 N355 1.351 . S
C358 C357 1.430 . S
C359 H348 0.930 . S
C359 C357 1.404 . S
C359 C360 1.366 . S
C360 H339 0.930 . S
C360 C356 1.416 . S
C360 C359 1.366 . S
H361 C354 0.929 . S
H362 C385 0.931 . S
H363 C386 0.931 . S
O364 Eu320 2.462 . S
O364 C384 1.252 . S
O365 Eu320 2.373 . S
O365 C376 1.249 . S
O366 Eu331 2.335 . S
O366 C376 1.264 . S
O367 Eu320 2.432 . S
O367 C384 1.268 . S
O368 Eu320 2.291 . S
O368 C383 1.255 . S
O369 Eu331 2.372 . S
O369 C383 1.257 . S
O370 Eu331 2.462 . S
O370 C395 1.252 . S
O371 Eu331 2.373 . S
O371 C387 1.249 . S
O372 Eu320 2.335 . S
O372 C387 1.264 . S
O373 Eu331 2.432 . S
O373 C395 1.268 . S
O374 Eu331 2.291 . S
O374 C394 1.255 . S
O375 Eu320 2.372 . S
O375 C394 1.257 . S
C376 O365 1.249 . S
C376 O366 1.264 . S
C377 C380 1.382 . S
C377 C382 1.390 . S
C377 C384 1.506 . S
C378 C379 1.398 . S
C378 C382 1.392 . S
C379 C378 1.398 . S
C379 C381 1.372 . S
C379 H396 0.931 . S
C380 C377 1.382 . S
C380 C381 1.390 . S
C380 H397 0.931 . S
C381 C379 1.372 . S
C381 C380 1.390 . S
C381 H398 0.929 . S
C382 C377 1.390 . S
C382 C378 1.392 . S
C382 H399 0.930 . S
C383 O368 1.255 . S
C383 O369 1.257 . S
C384 Eu320 2.787 . S
C384 O364 1.252 . S
C384 O367 1.268 . S
C384 C377 1.506 . S
C385 C352 1.439 . S
C385 H362 0.931 . S
C385 C386 1.374 . S
C386 C357 1.387 . S
C386 H363 0.931 . S
C386 C385 1.374 . S
C387 O371 1.249 . S
C387 O372 1.264 . S
C388 C391 1.382 . S
C388 C392 1.390 . S
C388 C395 1.506 . S
C389 C390 1.398 . S
C389 C392 1.392 . S
C390 C389 1.398 . S
C390 C393 1.372 . S
C390 H400 0.931 1_556 S
C391 C388 1.382 . S
C391 C393 1.390 . S
C391 H401 0.931 . S
C392 C388 1.390 . S
C392 C389 1.392 . S
C392 H402 0.930 . S
C393 C390 1.372 . S
C393 C391 1.390 . S
C393 H403 0.929 . S
C394 O374 1.255 . S
C394 O375 1.257 . S
C395 Eu331 2.787 . S
C395 O370 1.252 . S
C395 O373 1.268 . S
C395 C388 1.506 . S
H396 C379 0.931 . S
H397 C380 0.931 . S
H398 C381 0.929 . S
H399 C382 0.930 . S
H400 C390 0.931 1_554 S
H401 C391 0.931 . S
H402 C392 0.930 . S
H403 C393 0.929 . S
Eu404 N433 2.600 . S
Eu404 N439 2.562 . S
Eu404 O448 2.462 . S
Eu404 O449 2.373 1_455 S
Eu404 O451 2.432 . S
Eu404 O452 2.291 . S
Eu404 O456 2.335 . S
Eu404 O459 2.372 . S
Eu404 C468 2.787 . S
C405 N406 1.365 . S
C405 C408 1.405 . S
C405 C412 1.448 . S
N406 C405 1.365 . S
N406 C409 1.319 1_455 S
N406 Eu415 2.600 1_455 S
C407 C409 1.397 1_455 S
C407 C410 1.367 . S
C407 H427 0.931 . S
C408 C405 1.405 . S
C408 C410 1.403 . S
C408 C414 1.439 1_556 S
C409 N406 1.319 1_655 S
C409 C407 1.397 1_655 S
C409 H420 0.930 . S
C410 C407 1.367 . S
C410 C408 1.403 . S
C410 H431 0.929 . S
C411 C412 1.430 1_554 S
C411 C413 1.387 . S
C411 C417 1.404 . S
C412 C405 1.448 . S
C412 C411 1.430 1_556 S
C412 N416 1.351 . S
C413 C411 1.387 . S
C413 C414 1.374 . S
C413 H428 0.931 . S
C414 C408 1.439 1_554 S
C414 C413 1.374 . S
C414 H429 0.931 . S
Eu415 N406 2.600 1_655 S
Eu415 N416 2.562 1_655 S
Eu415 O450 2.335 . S
Eu415 O453 2.372 . S
Eu415 O454 2.462 . S
Eu415 O455 2.373 1_655 S
Eu415 O457 2.432 . S
Eu415 O458 2.291 1_655 S
Eu415 C479 2.787 . S
N416 C412 1.351 . S
N416 Eu415 2.562 1_455 S
N416 C418 1.325 . S
C417 C411 1.404 . S
C417 C419 1.366 . S
C417 H425 0.930 . S
C418 N416 1.325 . S
C418 C419 1.416 1_556 S
C418 H424 0.929 . S
C419 C417 1.366 . S
C419 C418 1.416 1_554 S
C419 H421 0.930 . S
H420 C409 0.930 . S
H421 C419 0.930 . S
H422 C437 0.930 . S
H423 C444 0.930 . S
H424 C418 0.929 . S
H425 C417 0.930 . S
H426 C440 0.929 . S
H427 C407 0.931 . S
H428 C413 0.931 . S
H429 C414 0.931 . S
H430 C435 0.931 . S
H431 C410 0.929 . S
H432 C443 0.930 . S
N433 Eu404 2.600 . S
N433 C434 1.365 . S
N433 C437 1.319 . S
C434 N433 1.365 . S
C434 C436 1.405 1_455 S
C434 C442 1.448 1_455 S
C435 H430 0.931 . S
C435 C437 1.397 . S
C435 C438 1.367 1_455 S
C436 C434 1.405 1_655 S
C436 C438 1.403 . S
C436 C469 1.439 . S
C437 H422 0.930 . S
C437 N433 1.319 . S
C437 C435 1.397 . S
C438 C435 1.367 1_655 S
C438 C436 1.403 . S
C438 H445 0.929 . S
N439 Eu404 2.562 . S
N439 C440 1.325 . S
N439 C442 1.353 1_455 S
C440 H426 0.929 . S
C440 N439 1.325 . S
C440 C444 1.416 1_455 S
C441 C442 1.428 . S
C441 C443 1.404 . S
C441 C470 1.387 . S
C442 C434 1.448 1_655 S
C442 N439 1.353 1_655 S
C442 C441 1.428 . S
C443 H432 0.930 . S
C443 C441 1.404 . S
C443 C444 1.366 . S
C444 H423 0.930 . S
C444 C440 1.416 1_655 S
C444 C443 1.366 . S
H445 C438 0.929 . S
H446 C469 0.931 . S
H447 C470 0.931 . S
O448 Eu404 2.462 . S
O448 C468 1.252 . S
O449 Eu404 2.373 1_655 S
O449 C460 1.249 . S
O450 Eu415 2.335 . S
O450 C460 1.264 . S
O451 Eu404 2.432 . S
O451 C468 1.268 . S
O452 Eu404 2.291 . S
O452 C467 1.255 . S
O453 Eu415 2.372 . S
O453 C467 1.257 1_655 S
O454 Eu415 2.462 . S
O454 C479 1.252 . S
O455 Eu415 2.373 1_455 S
O455 C471 1.249 . S
O456 Eu404 2.335 . S
O456 C471 1.264 . S
O457 Eu415 2.432 . S
O457 C479 1.268 . S
O458 Eu415 2.291 1_455 S
O458 C478 1.255 . S
O459 Eu404 2.372 . S
O459 C478 1.257 . S
C460 O449 1.249 . S
C460 O450 1.264 . S
C461 C464 1.382 . S
C461 C466 1.390 . S
C461 C468 1.506 . S
C462 C463 1.398 . S
C462 C466 1.392 . S
C463 C462 1.398 . S
C463 C465 1.372 . S
C463 H480 0.931 . S
C464 C461 1.382 . S
C464 C465 1.390 . S
C464 H481 0.931 . S
C465 C463 1.372 . S
C465 C464 1.390 . S
C465 H482 0.929 . S
C466 C461 1.390 . S
C466 C462 1.392 . S
C466 H483 0.930 . S
C467 O452 1.255 . S
C467 O453 1.257 1_455 S
C468 Eu404 2.787 . S
C468 O448 1.252 . S
C468 O451 1.268 . S
C468 C461 1.506 . S
C469 C436 1.439 . S
C469 H446 0.931 . S
C469 C470 1.374 . S
C470 C441 1.387 . S
C470 H447 0.931 . S
C470 C469 1.374 . S
C471 O455 1.249 . S
C471 O456 1.264 . S
C472 C475 1.382 . S
C472 C476 1.390 . S
C472 C479 1.506 . S
C473 C474 1.398 . S
C473 C476 1.392 . S
C474 C473 1.398 . S
C474 C477 1.372 . S
C474 H484 0.931 1_556 S
C475 C472 1.382 . S
C475 C477 1.390 . S
C475 H485 0.931 . S
C476 C472 1.390 . S
C476 C473 1.392 . S
C476 H486 0.930 . S
C477 C474 1.372 . S
C477 C475 1.390 . S
C477 H487 0.929 . S
C478 O458 1.255 . S
C478 O459 1.257 . S
C479 Eu415 2.787 . S
C479 O454 1.252 . S
C479 O457 1.268 . S
C479 C472 1.506 . S
H480 C463 0.931 . S
H481 C464 0.931 . S
H482 C465 0.929 . S
H483 C466 0.930 . S
H484 C474 0.931 1_554 S
H485 C475 0.931 . S
H486 C476 0.930 . S
H487 C477 0.929 . S
H488 C500 0.930 . S
H489 C502 0.930 . S
H490 C503 0.930 . S
H491 C507 0.959 . S
H492 C507 0.959 . S
H493 C507 0.961 . S
H494 C508 0.960 . S
H495 C508 0.961 . S
H496 C508 0.959 . S
H497 C511 0.929 1_565 S
H498 C512 0.931 1_565 S
H499 C514 0.930 . S
C500 H488 0.930 . S
C500 C501 1.399 . S
C500 C505 1.399 . S
C501 C500 1.399 . S
C501 C502 1.376 . S
C502 H489 0.930 . S
C502 C501 1.376 . S
C502 C503 1.388 . S
C503 H490 0.930 . S
C503 C502 1.388 . S
C503 C504 1.390 . S
C504 C503 1.390 . S
C504 C505 1.394 . S
C504 C510 1.465 . S
C505 C500 1.399 . S
C505 C504 1.394 . S
C505 C506 1.516 . S
C506 C505 1.516 . S
C506 C507 1.502 . S
C506 C508 1.561 . S
C506 C509 1.526 . S
C507 H491 0.959 . S
C507 H492 0.959 . S
C507 H493 0.961 . S
C507 C506 1.502 . S
C508 H494 0.960 . S
C508 H495 0.961 . S
C508 H496 0.959 . S
C508 C506 1.561 . S
C509 C506 1.526 . S
C509 C510 1.396 . S
C509 C514 1.390 . S
C510 C504 1.465 . S
C510 C509 1.396 . S
C510 C511 1.399 . S
C511 H497 0.929 1_545 S
C511 C510 1.399 . S
C511 C512 1.385 . S
C512 H498 0.931 1_545 S
C512 C511 1.385 . S
C512 C513 1.389 . S
C513 C512 1.389 . S
C513 C514 1.387 . S
C514 H499 0.930 . S
C514 C509 1.390 . S
C514 C513 1.387 . S
H515 C527 0.930 . S
H516 C529 0.930 . S
H517 C530 0.930 . S
H518 C534 0.959 . S
H519 C534 0.959 . S
H520 C534 0.961 . S
H521 C535 0.960 . S
H522 C535 0.961 . S
H523 C535 0.959 . S
H524 C538 0.929 . S
H525 C539 0.931 . S
H526 C541 0.930 . S
C527 H515 0.930 . S
C527 C528 1.399 . S
C527 C532 1.399 . S
C528 C527 1.399 . S
C528 C529 1.376 . S
C529 H516 0.930 . S
C529 C528 1.376 . S
C529 C530 1.388 . S
C530 H517 0.930 . S
C530 C529 1.388 . S
C530 C531 1.390 . S
C531 C530 1.390 . S
C531 C532 1.394 . S
C531 C537 1.465 . S
C532 C527 1.399 . S
C532 C531 1.394 . S
C532 C533 1.516 . S
C533 C532 1.516 . S
C533 C534 1.502 . S
C533 C535 1.561 . S
C533 C536 1.526 . S
C534 H518 0.959 . S
C534 H519 0.959 . S
C534 H520 0.961 . S
C534 C533 1.502 . S
C535 H521 0.960 . S
C535 H522 0.961 . S
C535 H523 0.959 . S
C535 C533 1.561 . S
C536 C533 1.526 . S
C536 C537 1.396 . S
C536 C541 1.390 . S
C537 C531 1.465 . S
C537 C536 1.396 . S
C537 C538 1.399 . S
C538 H524 0.929 . S
C538 C537 1.399 . S
C538 C539 1.385 . S
C539 H525 0.931 . S
C539 C538 1.385 . S
C539 C540 1.389 . S
C540 C539 1.389 . S
C540 C541 1.387 . S
C541 H526 0.930 . S
C541 C536 1.390 . S
C541 C540 1.387 . S
H542 C554 0.930 . S
H543 C556 0.930 . S
H544 C557 0.930 . S
H545 C561 0.959 . S
H546 C561 0.959 . S
H547 C561 0.961 . S
H548 C562 0.960 . S
H549 C562 0.961 . S
H550 C562 0.959 . S
H551 C565 0.929 . S
H552 C566 0.931 . S
H553 C568 0.930 . S
C554 H542 0.930 . S
C554 C555 1.399 . S
C554 C559 1.399 . S
C555 C554 1.399 . S
C555 C556 1.376 . S
C556 H543 0.930 . S
C556 C555 1.376 . S
C556 C557 1.388 . S
C557 H544 0.930 . S
C557 C556 1.388 . S
C557 C558 1.390 . S
C558 C557 1.390 . S
C558 C559 1.394 . S
C558 C564 1.465 . S
C559 C554 1.399 . S
C559 C558 1.394 . S
C559 C560 1.516 . S
C560 C559 1.516 . S
C560 C561 1.502 . S
C560 C562 1.561 . S
C560 C563 1.526 . S
C561 H545 0.959 . S
C561 H546 0.959 . S
C561 H547 0.961 . S
C561 C560 1.502 . S
C562 H548 0.960 . S
C562 H549 0.961 . S
C562 H550 0.959 . S
C562 C560 1.561 . S
C563 C560 1.526 . S
C563 C564 1.396 . S
C563 C568 1.390 . S
C564 C558 1.465 . S
C564 C563 1.396 . S
C564 C565 1.399 . S
C565 H551 0.929 . S
C565 C564 1.399 . S
C565 C566 1.385 . S
C566 H552 0.931 . S
C566 C565 1.385 . S
C566 C567 1.389 . S
C567 C566 1.389 . S
C567 C568 1.387 . S
C568 H553 0.930 . S
C568 C563 1.390 . S
C568 C567 1.387 . S
H569 C581 0.930 . S
H570 C583 0.930 . S
H571 C584 0.930 . S
H572 C588 0.959 . S
H573 C588 0.959 . S
H574 C588 0.961 . S
H575 C589 0.960 . S
H576 C589 0.961 . S
H577 C589 0.959 . S
H578 C592 0.929 . S
H579 C593 0.931 . S
H580 C595 0.930 . S
C581 H569 0.930 . S
C581 C582 1.399 . S
C581 C586 1.399 . S
C582 C581 1.399 . S
C582 C583 1.376 . S
C583 H570 0.930 . S
C583 C582 1.376 . S
C583 C584 1.388 . S
C584 H571 0.930 . S
C584 C583 1.388 . S
C584 C585 1.390 . S
C585 C584 1.390 . S
C585 C586 1.394 . S
C585 C591 1.465 . S
C586 C581 1.399 . S
C586 C585 1.394 . S
C586 C587 1.516 . S
C587 C586 1.516 . S
C587 C588 1.502 . S
C587 C589 1.561 . S
C587 C590 1.526 . S
C588 H572 0.959 . S
C588 H573 0.959 . S
C588 H574 0.961 . S
C588 C587 1.502 . S
C589 H575 0.960 . S
C589 H576 0.961 . S
C589 H577 0.959 . S
C589 C587 1.561 . S
C590 C587 1.526 . S
C590 C591 1.396 . S
C590 C595 1.390 . S
C591 C585 1.465 . S
C591 C590 1.396 . S
C591 C592 1.399 . S
C592 H578 0.929 . S
C592 C591 1.399 . S
C592 C593 1.385 . S
C593 H579 0.931 . S
C593 C592 1.385 . S
C593 C594 1.389 . S
C594 C593 1.389 . S
C594 C595 1.387 . S
C595 H580 0.930 . S
C595 C590 1.390 . S
C595 C594 1.387 . S
H596 C608 0.930 . S
H597 C610 0.930 . S
H598 C611 0.930 . S
H599 C615 0.959 . S
H600 C615 0.959 . S
H601 C615 0.961 . S
H602 C616 0.960 . S
H603 C616 0.961 . S
H604 C616 0.959 . S
H605 C619 0.929 . S
H606 C620 0.931 . S
H607 C622 0.930 . S
C608 H596 0.930 . S
C608 C609 1.399 1_545 S
C608 C613 1.399 . S
C609 C608 1.399 1_565 S
C609 C610 1.376 . S
C610 H597 0.930 . S
C610 C609 1.376 . S
C610 C611 1.388 . S
C611 H598 0.930 . S
C611 C610 1.388 . S
C611 C612 1.390 . S
C612 C611 1.390 . S
C612 C613 1.394 1_565 S
C612 C618 1.465 1_554 S
C613 C608 1.399 . S
C613 C612 1.394 1_545 S
C613 C614 1.516 . S
C614 C613 1.516 . S
C614 C615 1.502 1_554 S
C614 C616 1.561 . S
C614 C617 1.526 1_554 S
C615 H599 0.959 . S
C615 H600 0.959 . S
C615 H601 0.961 . S
C615 C614 1.502 1_556 S
C616 H602 0.960 . S
C616 H603 0.961 . S
C616 H604 0.959 . S
C616 C614 1.561 . S
C617 C614 1.526 1_556 S
C617 C618 1.396 1_545 S
C617 C622 1.390 . S
C618 C612 1.465 1_556 S
C618 C617 1.396 1_565 S
C618 C619 1.399 . S
C619 H605 0.929 . S
C619 C618 1.399 . S
C619 C620 1.385 . S
C620 H606 0.931 . S
C620 C619 1.385 . S
C620 C621 1.389 . S
C621 C620 1.389 . S
C621 C622 1.387 1_565 S
C622 H607 0.930 . S
C622 C617 1.390 . S
C622 C621 1.387 1_545 S
H623 C635 0.930 . S
H624 C637 0.930 . S
H625 C638 0.930 1_556 S
H626 C642 0.959 . S
H627 C642 0.959 . S
H628 C642 0.961 . S
H629 C643 0.960 . S
H630 C643 0.961 . S
H631 C643 0.959 . S
H632 C646 0.929 . S
H633 C647 0.931 . S
H634 C649 0.930 . S
C635 H623 0.930 . S
C635 C636 1.399 . S
C635 C640 1.399 . S
C636 C635 1.399 . S
C636 C637 1.376 . S
C637 H624 0.930 . S
C637 C636 1.376 . S
C637 C638 1.388 . S
C638 H625 0.930 1_554 S
C638 C637 1.388 . S
C638 C639 1.390 . S
C639 C638 1.390 . S
C639 C640 1.394 . S
C639 C645 1.465 1_554 S
C640 C635 1.399 . S
C640 C639 1.394 . S
C640 C641 1.516 . S
C641 C640 1.516 . S
C641 C642 1.502 . S
C641 C643 1.561 . S
C641 C644 1.526 1_554 S
C642 H626 0.959 . S
C642 H627 0.959 . S
C642 H628 0.961 . S
C642 C641 1.502 . S
C643 H629 0.960 . S
C643 H630 0.961 . S
C643 H631 0.959 . S
C643 C641 1.561 . S
C644 C641 1.526 1_556 S
C644 C645 1.396 . S
C644 C649 1.390 . S
C645 C639 1.465 1_556 S
C645 C644 1.396 . S
C645 C646 1.399 . S
C646 H632 0.929 . S
C646 C645 1.399 . S
C646 C647 1.385 . S
C647 H633 0.931 . S
C647 C646 1.385 . S
C647 C648 1.389 . S
C648 C647 1.389 . S
C648 C649 1.387 . S
C649 H634 0.930 . S
C649 C644 1.390 . S
C649 C648 1.387 . S
H650 C662 0.930 . S
H651 C664 0.930 . S
H652 C665 0.930 . S
H653 C669 0.959 . S
H654 C669 0.959 1_556 S
H655 C669 0.961 . S
H656 C670 0.960 . S
H657 C670 0.961 . S
H658 C670 0.959 . S
H659 C673 0.929 . S
H660 C674 0.931 . S
H661 C676 0.930 . S
C662 H650 0.930 . S
C662 C663 1.399 . S
C662 C667 1.399 . S
C663 C662 1.399 . S
C663 C664 1.376 . S
C664 H651 0.930 . S
C664 C663 1.376 . S
C664 C665 1.388 . S
C665 H652 0.930 . S
C665 C664 1.388 . S
C665 C666 1.390 . S
C666 C665 1.390 . S
C666 C667 1.394 . S
C666 C672 1.465 1_554 S
C667 C662 1.399 . S
C667 C666 1.394 . S
C667 C668 1.516 1_554 S
C668 C667 1.516 1_556 S
C668 C669 1.502 1_556 S
C668 C670 1.561 . S
C668 C671 1.526 . S
C669 H653 0.959 . S
C669 H654 0.959 1_554 S
C669 H655 0.961 . S
C669 C668 1.502 1_554 S
C670 H656 0.960 . S
C670 H657 0.961 . S
C670 H658 0.959 . S
C670 C668 1.561 . S
C671 C668 1.526 . S
C671 C672 1.396 . S
C671 C676 1.390 . S
C672 C666 1.465 1_556 S
C672 C671 1.396 . S
C672 C673 1.399 . S
C673 H659 0.929 . S
C673 C672 1.399 . S
C673 C674 1.385 . S
C674 H660 0.931 . S
C674 C673 1.385 . S
C674 C675 1.389 . S
C675 C674 1.389 . S
C675 C676 1.387 . S
C676 H661 0.930 . S
C676 C671 1.390 . S
C676 C675 1.387 . S
H677 C689 0.930 . S
H678 C691 0.930 . S
H679 C692 0.930 . S
H680 C696 0.959 . S
H681 C696 0.959 . S
H682 C696 0.961 . S
H683 C697 0.960 . S
H684 C697 0.961 . S
H685 C697 0.959 . S
H686 C700 0.929 1_554 S
H687 C701 0.931 . S
H688 C703 0.930 . S
C689 H677 0.930 . S
C689 C690 1.399 . S
C689 C694 1.399 . S
C690 C689 1.399 . S
C690 C691 1.376 1_655 S
C691 H678 0.930 . S
C691 C690 1.376 1_455 S
C691 C692 1.388 . S
C692 H679 0.930 . S
C692 C691 1.388 . S
C692 C693 1.381 1_455 S
C693 C692 1.381 1_655 S
C693 C694 1.408 . S
C693 C699 1.463 1_654 S
C694 C689 1.399 . S
C694 C693 1.408 . S
C694 C695 1.516 1_554 S
C695 C694 1.516 1_556 S
C695 C696 1.502 . S
C695 C697 1.561 . S
C695 C698 1.526 . S
C696 H680 0.959 . S
C696 H681 0.959 . S
C696 H682 0.961 . S
C696 C695 1.502 . S
C697 H683 0.960 . S
C697 H684 0.961 . S
C697 H685 0.959 . S
C697 C695 1.561 . S
C698 C695 1.526 . S
C698 C699 1.396 1_655 S
C698 C703 1.390 . S
C699 C693 1.463 1_456 S
C699 C698 1.396 1_455 S
C699 C700 1.399 . S
C700 H686 0.929 1_556 S
C700 C699 1.399 . S
C700 C701 1.385 . S
C701 H687 0.931 . S
C701 C700 1.385 . S
C701 C702 1.401 . S
C702 C701 1.401 . S
C702 C703 1.376 1_455 S
C703 H688 0.930 . S
C703 C698 1.390 . S
C703 C702 1.376 1_655 S
H704 C716 0.930 . S
H705 C718 0.930 1_556 S
H706 C719 0.930 . S
H707 C723 0.959 . S
H708 C723 0.959 . S
H709 C723 0.961 . S
H710 C724 0.960 . S
H711 C724 0.961 . S
H712 C724 0.959 1_655 S
H713 C727 0.929 1_655 S
H714 C728 0.914 1_655 S
H715 C730 0.930 . S
C716 H704 0.930 . S
C716 C717 1.399 . S
C716 C721 1.399 . S
C717 C716 1.399 . S
C717 C718 1.376 . S
C718 H705 0.930 1_554 S
C718 C717 1.376 . S
C718 C719 1.388 . S
C719 H706 0.930 . S
C719 C718 1.388 . S
C719 C720 1.390 . S
C720 C719 1.390 . S
C720 C721 1.394 . S
C720 C726 1.465 . S
C721 C716 1.399 . S
C721 C720 1.394 . S
C721 C722 1.516 . S
C722 C721 1.516 . S
C722 C723 1.502 . S
C722 C724 1.561 . S
C722 C725 1.526 . S
C723 H707 0.959 . S
C723 H708 0.959 . S
C723 H709 0.961 . S
C723 C722 1.502 . S
C724 H710 0.960 . S
C724 H711 0.961 . S
C724 H712 0.959 1_455 S
C724 C722 1.561 . S
C725 C722 1.526 . S
C725 C726 1.396 . S
C725 C730 1.390 . S
C726 C720 1.465 . S
C726 C725 1.396 . S
C726 C727 1.399 . S
C727 H713 0.929 1_455 S
C727 C726 1.399 . S
C727 C728 1.390 . S
C728 H714 0.914 1_455 S
C728 C727 1.390 . S
C728 C729 1.403 . S
C729 C728 1.403 . S
C729 C730 1.387 . S
C730 H715 0.930 . S
C730 C725 1.390 . S
C730 C729 1.387 . S
H731 C743 0.930 . S
H732 C745 0.930 . S
H733 C746 0.930 . S
H734 C750 0.959 . S
H735 C750 0.959 . S
H736 C750 0.961 . S
H737 C751 0.960 . S
H738 C751 0.961 . S
H739 C751 0.959 . S
H740 C754 0.929 . S
H741 C755 0.931 . S
H742 C757 0.898 1_565 S
C743 H731 0.930 . S
C743 C744 1.399 . S
C743 C748 1.399 . S
C744 C743 1.399 . S
C744 C745 1.376 . S
C745 H732 0.930 . S
C745 C744 1.376 . S
C745 C746 1.388 . S
C746 H733 0.930 . S
C746 C745 1.388 . S
C746 C747 1.390 . S
C747 C746 1.390 . S
C747 C748 1.394 . S
C747 C753 1.465 . S
C748 C743 1.399 . S
C748 C747 1.394 . S
C748 C749 1.516 1_545 S
C749 C748 1.516 1_565 S
C749 C750 1.502 . S
C749 C751 1.561 . S
C749 C752 1.526 1_565 S
C750 H734 0.959 . S
C750 H735 0.959 . S
C750 H736 0.961 . S
C750 C749 1.502 . S
C751 H737 0.960 . S
C751 H738 0.961 . S
C751 H739 0.959 . S
C751 C749 1.561 . S
C752 C749 1.526 1_545 S
C752 C753 1.396 . S
C752 C757 1.403 . S
C753 C747 1.465 . S
C753 C752 1.396 . S
C753 C754 1.399 . S
C754 H740 0.929 . S
C754 C753 1.399 . S
C754 C755 1.385 . S
C755 H741 0.931 . S
C755 C754 1.385 . S
C755 C756 1.389 . S
C756 C755 1.389 . S
C756 C757 1.406 . S
C757 H742 0.898 1_545 S
C757 C752 1.403 . S
C757 C756 1.406 . S
H758 C770 0.930 . S
H759 C772 0.930 . S
H760 C773 0.930 . S
H761 C777 0.959 . S
H762 C777 0.959 . S
H763 C777 0.961 . S
H764 C778 0.960 . S
H765 C778 0.961 . S
H766 C778 0.959 . S
H767 C781 0.929 . S
H768 C782 0.931 . S
H769 C784 0.930 . S
C770 H758 0.930 . S
C770 C771 1.399 . S
C770 C775 1.399 . S
C771 C770 1.399 . S
C771 C772 1.376 . S
C772 H759 0.930 . S
C772 C771 1.376 . S
C772 C773 1.388 . S
C773 H760 0.930 . S
C773 C772 1.388 . S
C773 C774 1.390 . S
C774 C773 1.390 . S
C774 C775 1.394 . S
C774 C780 1.465 . S
C775 C770 1.399 . S
C775 C774 1.394 . S
C775 C776 1.516 . S
C776 C775 1.516 . S
C776 C777 1.502 . S
C776 C778 1.561 . S
C776 C779 1.526 . S
C777 H761 0.959 . S
C777 H762 0.959 . S
C777 H763 0.961 . S
C777 C776 1.502 . S
C778 H764 0.960 . S
C778 H765 0.961 . S
C778 H766 0.959 . S
C778 C776 1.561 . S
C779 C776 1.526 . S
C779 C780 1.396 . S
C779 C784 1.390 . S
C780 C774 1.465 . S
C780 C779 1.396 . S
C780 C781 1.399 . S
C781 H767 0.929 . S
C781 C780 1.399 . S
C781 C782 1.385 . S
C782 H768 0.931 . S
C782 C781 1.385 . S
C782 C783 1.389 . S
C783 C782 1.389 . S
C783 C784 1.387 . S
C784 H769 0.930 . S
C784 C779 1.390 . S
C784 C783 1.387 . S
H785 C797 0.930 . S
H786 C799 0.930 . S
H787 C800 0.930 . S
H788 C804 0.959 . S
H789 C804 0.959 . S
H790 C804 0.961 . S
H791 C805 0.960 . S
H792 C805 0.961 . S
H793 C805 0.959 . S
H794 C808 0.929 . S
H795 C809 0.931 . S
H796 C811 0.930 . S
C797 H785 0.930 . S
C797 C798 1.399 . S
C797 C802 1.399 . S
C798 C797 1.399 . S
C798 C799 1.376 . S
C799 H786 0.930 . S
C799 C798 1.376 . S
C799 C800 1.388 . S
C800 H787 0.930 . S
C800 C799 1.388 . S
C800 C801 1.390 . S
C801 C800 1.390 . S
C801 C802 1.394 . S
C801 C807 1.465 . S
C802 C797 1.399 . S
C802 C801 1.394 . S
C802 C803 1.516 . S
C803 C802 1.516 . S
C803 C804 1.502 . S
C803 C805 1.561 . S
C803 C806 1.526 . S
C804 H788 0.959 . S
C804 H789 0.959 . S
C804 H790 0.961 . S
C804 C803 1.502 . S
C805 H791 0.960 . S
C805 H792 0.961 . S
C805 H793 0.959 . S
C805 C803 1.561 . S
C806 C803 1.526 . S
C806 C807 1.396 . S
C806 C811 1.390 . S
C807 C801 1.465 . S
C807 C806 1.396 . S
C807 C808 1.399 . S
C808 H794 0.929 . S
C808 C807 1.399 . S
C808 C809 1.385 . S
C809 H795 0.931 . S
C809 C808 1.385 . S
C809 C810 1.389 . S
C810 C809 1.389 . S
C810 C811 1.387 . S
C811 H796 0.930 . S
C811 C806 1.390 . S
C811 C810 1.387 . S
H812 C824 0.930 . S
H813 C826 0.930 . S
H814 C827 0.930 . S
H815 C831 0.959 1_455 S
H816 C831 0.959 . S
H817 C831 0.961 . S
H818 C832 0.960 . S
H819 C832 0.961 . S
H820 C832 0.959 1_554 S
H821 C835 0.929 . S
H822 C836 0.931 . S
H823 C838 0.930 . S
C824 H812 0.930 . S
C824 C825 1.399 . S
C824 C829 1.399 . S
C825 C824 1.399 . S
C825 C826 1.376 . S
C826 H813 0.930 . S
C826 C825 1.376 . S
C826 C827 1.388 . S
C827 H814 0.930 . S
C827 C826 1.388 . S
C827 C828 1.390 . S
C828 C827 1.390 . S
C828 C829 1.394 . S
C828 C834 1.465 . S
C829 C824 1.399 . S
C829 C828 1.394 . S
C829 C830 1.516 . S
C830 C829 1.516 . S
C830 C831 1.502 1_554 S
C830 C832 1.561 1_554 S
C830 C833 1.526 . S
C831 H815 0.959 1_655 S
C831 H816 0.959 . S
C831 H817 0.961 . S
C831 C830 1.502 1_556 S
C832 H818 0.960 . S
C832 H819 0.961 . S
C832 H820 0.959 1_556 S
C832 C830 1.561 1_556 S
C833 C830 1.526 . S
C833 C834 1.396 . S
C833 C838 1.390 1_554 S
C834 C828 1.465 . S
C834 C833 1.396 . S
C834 C835 1.399 1_655 S
C835 H821 0.929 . S
C835 C834 1.399 1_455 S
C835 C836 1.385 . S
C836 H822 0.931 . S
C836 C835 1.385 . S
C836 C837 1.389 . S
C837 C836 1.389 . S
C837 C838 1.387 1_454 S
C838 H823 0.930 . S
C838 C833 1.390 1_556 S
C838 C837 1.387 1_656 S
H839 C851 0.930 1_545 S
H840 C853 0.930 . S
H841 C854 0.930 . S
H842 C858 0.959 . S
H843 C858 0.959 . S
H844 C858 0.961 . S
H845 C859 0.960 . S
H846 C859 0.961 . S
H847 C859 0.959 . S
H848 C862 0.929 . S
H849 C863 0.931 . S
H850 C865 0.930 . S
C851 H839 0.930 1_565 S
C851 C852 1.399 . S
C851 C856 1.398 1_565 S
C852 C851 1.399 . S
C852 C853 1.376 . S
C853 H840 0.930 . S
C853 C852 1.376 . S
C853 C854 1.388 . S
C854 H841 0.930 . S
C854 C853 1.388 . S
C854 C855 1.390 . S
C855 C854 1.390 . S
C855 C856 1.383 1_565 S
C855 C861 1.465 . S
C856 C851 1.398 1_545 S
C856 C855 1.383 1_545 S
C856 C857 1.527 . S
C857 C856 1.527 . S
C857 C858 1.502 . S
C857 C859 1.561 . S
C857 C860 1.526 . S
C858 H842 0.959 . S
C858 H843 0.959 . S
C858 H844 0.961 . S
C858 C857 1.502 . S
C859 H845 0.960 . S
C859 H846 0.961 . S
C859 H847 0.959 . S
C859 C857 1.561 . S
C860 C857 1.526 . S
C860 C861 1.396 1_545 S
C860 C865 1.390 . S
C861 C855 1.465 . S
C861 C860 1.396 1_565 S
C861 C862 1.399 1_554 S
C862 H848 0.929 . S
C862 C861 1.399 1_556 S
C862 C863 1.385 . S
C863 H849 0.931 . S
C863 C862 1.385 . S
C863 C864 1.389 1_565 S
C864 C863 1.389 1_545 S
C864 C865 1.387 1_556 S
C865 H850 0.930 . S
C865 C860 1.390 . S
C865 C864 1.387 1_554 S
H866 C878 0.930 . S
H867 C880 0.930 . S
H868 C881 0.930 . S
H869 C885 0.959 . S
H870 C885 0.959 . S
H871 C885 0.961 . S
H872 C886 0.960 . S
H873 C886 0.961 . S
H874 C886 0.959 . S
H875 C889 0.929 . S
H876 C890 0.931 . S
H877 C892 0.930 . S
C878 H866 0.930 . S
C878 C879 1.399 . S
C878 C883 1.399 . S
C879 C878 1.399 . S
C879 C880 1.376 . S
C880 H867 0.930 . S
C880 C879 1.376 . S
C880 C881 1.388 . S
C881 H868 0.930 . S
C881 C880 1.388 . S
C881 C882 1.390 . S
C882 C881 1.390 . S
C882 C883 1.394 . S
C882 C888 1.465 . S
C883 C878 1.399 . S
C883 C882 1.394 . S
C883 C884 1.516 . S
C884 C883 1.516 . S
C884 C885 1.502 . S
C884 C886 1.561 . S
C884 C887 1.526 . S
C885 H869 0.959 . S
C885 H870 0.959 . S
C885 H871 0.961 . S
C885 C884 1.502 . S
C886 H872 0.960 . S
C886 H873 0.961 . S
C886 H874 0.959 . S
C886 C884 1.561 . S
C887 C884 1.526 . S
C887 C888 1.396 . S
C887 C892 1.390 . S
C888 C882 1.465 . S
C888 C887 1.396 . S
C888 C889 1.399 1_554 S
C889 H875 0.929 . S
C889 C888 1.399 1_556 S
C889 C890 1.385 . S
C890 H876 0.931 . S
C890 C889 1.385 . S
C890 C891 1.389 . S
C891 C890 1.389 . S
C891 C892 1.387 1_556 S
C892 H877 0.930 . S
C892 C887 1.390 . S
C892 C891 1.387 1_554 S
H893 C905 0.930 . S
H894 C907 0.930 . S
H895 C908 0.930 . S
H896 C912 0.959 . S
H897 C912 0.959 . S
H898 C912 0.961 . S
H899 C913 0.960 . S
H900 C913 0.961 . S
H901 C913 0.959 . S
H902 C916 0.929 . S
H903 C917 0.931 . S
H904 C919 0.930 . S
C905 H893 0.930 . S
C905 C906 1.399 . S
C905 C910 1.399 . S
C906 C905 1.399 . S
C906 C907 1.376 . S
C907 H894 0.930 . S
C907 C906 1.376 . S
C907 C908 1.388 . S
C908 H895 0.930 . S
C908 C907 1.388 . S
C908 C909 1.390 . S
C909 C908 1.390 . S
C909 C910 1.394 . S
C909 C915 1.465 . S
C910 C905 1.399 . S
C910 C909 1.394 . S
C910 C911 1.516 . S
C911 C910 1.516 . S
C911 C912 1.502 . S
C911 C913 1.561 . S
C911 C914 1.526 . S
C912 H896 0.959 . S
C912 H897 0.959 . S
C912 H898 0.961 . S
C912 C911 1.502 . S
C913 H899 0.960 . S
C913 H900 0.961 . S
C913 H901 0.959 . S
C913 C911 1.561 . S
C914 C911 1.526 . S
C914 C915 1.396 . S
C914 C919 1.390 . S
C915 C909 1.465 . S
C915 C914 1.396 . S
C915 C916 1.399 1_554 S
C916 H902 0.929 . S
C916 C915 1.399 1_556 S
C916 C917 1.385 . S
C917 H903 0.931 . S
C917 C916 1.385 . S
C917 C918 1.389 . S
C918 C917 1.389 . S
C918 C919 1.387 1_556 S
C919 H904 0.930 . S
C919 C914 1.390 . S
C919 C918 1.387 1_554 S
H920 C932 0.930 . S
H921 C934 0.930 . S
H922 C935 0.930 . S
H923 C939 0.959 . S
H924 C939 0.959 . S
H925 C939 0.961 . S
H926 C940 0.960 1_554 S
H927 C940 0.961 1_554 S
H928 C940 0.959 . S
H929 C943 0.910 1_655 S
H930 C944 0.931 . S
H931 C946 0.930 . S
C932 H920 0.930 . S
C932 C933 1.399 . S
C932 C937 1.399 . S
C933 C932 1.399 . S
C933 C934 1.376 . S
C934 H921 0.930 . S
C934 C933 1.376 . S
C934 C935 1.388 . S
C935 H922 0.930 . S
C935 C934 1.388 . S
C935 C936 1.390 . S
C936 C935 1.390 . S
C936 C937 1.394 . S
C936 C942 1.465 . S
C937 C932 1.399 . S
C937 C936 1.394 . S
C937 C938 1.516 . S
C938 C937 1.516 . S
C938 C939 1.502 . S
C938 C940 1.561 . S
C938 C941 1.526 . S
C939 H923 0.959 . S
C939 H924 0.959 . S
C939 H925 0.961 . S
C939 C938 1.502 . S
C940 H926 0.960 1_556 S
C940 H927 0.961 1_556 S
C940 H928 0.959 . S
C940 C938 1.561 . S
C941 C938 1.526 . S
C941 C942 1.396 . S
C941 C946 1.390 . S
C942 C936 1.465 . S
C942 C941 1.396 . S
C942 C943 1.399 . S
C943 H929 0.910 1_455 S
C943 C942 1.399 . S
C943 C944 1.385 . S
C944 H930 0.931 . S
C944 C943 1.385 . S
C944 C945 1.389 . S
C945 C944 1.389 . S
C945 C946 1.387 . S
C946 H931 0.930 . S
C946 C941 1.390 . S
C946 C945 1.387 . S
H947 C959 0.930 . S
H948 C961 0.930 . S
H949 C962 0.930 . S
H950 C966 0.959 . S
H951 C966 0.959 1_565 S
H952 C966 0.961 1_565 S
H953 C967 0.960 . S
H954 C967 0.961 . S
H955 C967 0.959 . S
H956 C970 0.929 . S
H957 C971 0.931 . S
H958 C973 0.896 1_565 S
C959 H947 0.930 . S
C959 C960 1.399 . S
C959 C964 1.399 . S
C960 C959 1.399 . S
C960 C961 1.376 . S
C961 H948 0.930 . S
C961 C960 1.376 . S
C961 C962 1.388 . S
C962 H949 0.930 . S
C962 C961 1.388 . S
C962 C963 1.390 . S
C963 C962 1.390 . S
C963 C964 1.394 . S
C963 C969 1.465 . S
C964 C959 1.399 . S
C964 C963 1.394 . S
C964 C965 1.516 . S
C965 C964 1.516 . S
C965 C966 1.502 . S
C965 C967 1.561 1_545 S
C965 C968 1.526 . S
C966 H950 0.959 . S
C966 H951 0.959 1_545 S
C966 H952 0.961 1_545 S
C966 C965 1.502 . S
C967 H953 0.960 . S
C967 H954 0.961 . S
C967 H955 0.959 . S
C967 C965 1.561 1_565 S
C968 C965 1.526 . S
C968 C969 1.396 . S
C968 C973 1.390 . S
C969 C963 1.465 . S
C969 C968 1.396 . S
C969 C970 1.399 . S
C970 H956 0.929 . S
C970 C969 1.399 . S
C970 C971 1.385 . S
C971 H957 0.931 . S
C971 C970 1.385 . S
C971 C972 1.389 . S
C972 C971 1.389 . S
C972 C973 1.387 . S
C973 H958 0.896 1_545 S
C973 C968 1.390 . S
C973 C972 1.387 . S
H974 C986 0.930 . S
H975 C988 0.930 . S
H976 C989 0.930 . S
H977 C993 0.959 . S
H978 C993 0.959 . S
H979 C993 0.961 . S
H980 C994 0.960 . S
H981 C994 0.961 . S
H982 C994 0.959 . S
H983 C997 0.929 . S
H984 C998 0.931 . S
H985 C1000 0.930 . S
C986 H974 0.930 . S
C986 C987 1.399 . S
C986 C991 1.399 . S
C987 C986 1.399 . S
C987 C988 1.376 . S
C988 H975 0.930 . S
C988 C987 1.376 . S
C988 C989 1.388 . S
C989 H976 0.930 . S
C989 C988 1.388 . S
C989 C990 1.390 . S
C990 C989 1.390 . S
C990 C991 1.394 . S
C990 C996 1.465 . S
C991 C986 1.399 . S
C991 C990 1.394 . S
C991 C992 1.516 . S
C992 C991 1.516 . S
C992 C993 1.502 . S
C992 C994 1.561 . S
C992 C995 1.526 . S
C993 H977 0.959 . S
C993 H978 0.959 . S
C993 H979 0.961 . S
C993 C992 1.502 . S
C994 H980 0.960 . S
C994 H981 0.961 . S
C994 H982 0.959 . S
C994 C992 1.561 . S
C995 C992 1.526 . S
C995 C996 1.396 . S
C995 C1000 1.390 . S
C996 C990 1.465 . S
C996 C995 1.396 . S
C996 C997 1.399 . S
C997 H983 0.929 . S
C997 C996 1.399 . S
C997 C998 1.385 . S
C998 H984 0.931 . S
C998 C997 1.385 . S
C998 C999 1.389 . S
C999 C998 1.389 . S
C999 C1000 1.387 . S
C1000 H985 0.930 . S
C1000 C995 1.390 . S
C1000 C999 1.387 . S
H1001 C1013 0.930 . S
H1002 C1015 0.930 . S
H1003 C1016 0.930 . S
H1004 C1020 0.959 . S
H1005 C1020 0.959 1_554 S
H1006 C1020 0.961 1_554 S
H1007 C1021 0.960 . S
H1008 C1021 0.961 . S
H1009 C1021 0.959 . S
H1010 C1024 0.929 . S
H1011 C1025 0.931 . S
H1012 C1027 0.930 . S
C1013 H1001 0.930 . S
C1013 C1014 1.399 . S
C1013 C1018 1.399 . S
C1014 C1013 1.399 . S
C1014 C1015 1.376 . S
C1015 H1002 0.930 . S
C1015 C1014 1.376 . S
C1015 C1016 1.388 . S
C1016 H1003 0.930 . S
C1016 C1015 1.388 . S
C1016 C1017 1.390 . S
C1017 C1016 1.390 . S
C1017 C1018 1.394 . S
C1017 C1023 1.465 . S
C1018 C1013 1.399 . S
C1018 C1017 1.394 . S
C1018 C1019 1.516 . S
C1019 C1018 1.516 . S
C1019 C1020 1.502 . S
C1019 C1021 1.561 . S
C1019 C1022 1.526 . S
C1020 H1004 0.959 . S
C1020 H1005 0.959 1_556 S
C1020 H1006 0.961 1_556 S
C1020 C1019 1.502 . S
C1021 H1007 0.960 . S
C1021 H1008 0.961 . S
C1021 H1009 0.959 . S
C1021 C1019 1.561 . S
C1022 C1019 1.526 . S
C1022 C1023 1.396 . S
C1022 C1027 1.390 . S
C1023 C1017 1.465 . S
C1023 C1022 1.396 . S
C1023 C1024 1.399 . S
C1024 H1010 0.929 . S
C1024 C1023 1.399 . S
C1024 C1025 1.385 . S
C1025 H1011 0.931 . S
C1025 C1024 1.385 . S
C1025 C1026 1.389 . S
C1026 C1025 1.389 . S
C1026 C1027 1.387 . S
C1027 H1012 0.930 . S
C1027 C1022 1.390 . S
C1027 C1026 1.387 . S
H1028 C1040 0.930 . S
H1029 C1042 0.930 . S
H1030 C1043 0.930 . S
H1031 C1047 0.959 . S
H1032 C1047 0.959 . S
H1033 C1047 0.961 . S
H1034 C1048 0.960 . S
H1035 C1048 0.961 . S
H1036 C1048 0.959 . S
H1037 C1051 0.926 1_455 S
H1038 C1052 0.931 1_455 S
H1039 C1054 0.930 . S
C1040 H1028 0.930 . S
C1040 C1041 1.399 . S
C1040 C1045 1.399 . S
C1041 C1040 1.399 . S
C1041 C1042 1.376 . S
C1042 H1029 0.930 . S
C1042 C1041 1.376 . S
C1042 C1043 1.388 . S
C1043 H1030 0.930 . S
C1043 C1042 1.388 . S
C1043 C1044 1.390 . S
C1044 C1043 1.390 . S
C1044 C1045 1.394 . S
C1044 C1050 1.465 . S
C1045 C1040 1.399 . S
C1045 C1044 1.394 . S
C1045 C1046 1.516 . S
C1046 C1045 1.516 . S
C1046 C1047 1.502 . S
C1046 C1048 1.561 1_655 S
C1046 C1049 1.526 . S
C1047 H1031 0.959 . S
C1047 H1032 0.959 . S
C1047 H1033 0.961 . S
C1047 C1046 1.502 . S
C1048 H1034 0.960 . S
C1048 H1035 0.961 . S
C1048 H1036 0.959 . S
C1048 C1046 1.561 1_455 S
C1049 C1046 1.526 . S
C1049 C1050 1.396 . S
C1049 C1054 1.390 . S
C1050 C1044 1.465 . S
C1050 C1049 1.396 . S
C1050 C1051 1.399 . S
C1051 H1037 0.926 1_655 S
C1051 C1050 1.399 . S
C1051 C1052 1.385 . S
C1052 H1038 0.931 1_655 S
C1052 C1051 1.385 . S
C1052 C1053 1.389 . S
C1053 C1052 1.389 . S
C1053 C1054 1.387 . S
C1054 H1039 0.930 . S
C1054 C1049 1.390 . S
C1054 C1053 1.387 . S
H1055 C1067 0.930 . S
H1056 C1069 0.930 . S
H1057 C1070 0.930 . S
H1058 C1074 0.959 . S
H1059 C1074 0.959 . S
H1060 C1074 0.961 . S
H1061 C1075 0.960 . S
H1062 C1075 0.961 . S
H1063 C1075 0.959 . S
H1064 C1078 0.929 . S
H1065 C1079 0.931 . S
H1066 C1081 0.930 . S
C1067 H1055 0.930 . S
C1067 C1068 1.399 1_545 S
C1067 C1072 1.398 1_545 S
C1068 C1067 1.399 1_565 S
C1068 C1069 1.376 . S
C1069 H1056 0.930 . S
C1069 C1068 1.376 . S
C1069 C1070 1.388 . S
C1070 H1057 0.930 . S
C1070 C1069 1.388 . S
C1070 C1071 1.390 . S
C1071 C1070 1.390 . S
C1071 C1072 1.401 . S
C1071 C1077 1.465 . S
C1072 C1067 1.398 1_565 S
C1072 C1071 1.401 . S
C1072 C1073 1.511 1_565 S
C1073 C1072 1.511 1_545 S
C1073 C1074 1.502 . S
C1073 C1075 1.561 . S
C1073 C1076 1.526 . S
C1074 H1058 0.959 . S
C1074 H1059 0.959 . S
C1074 H1060 0.961 . S
C1074 C1073 1.502 . S
C1075 H1061 0.960 . S
C1075 H1062 0.961 . S
C1075 H1063 0.959 . S
C1075 C1073 1.561 . S
C1076 C1073 1.526 . S
C1076 C1077 1.396 1_545 S
C1076 C1081 1.390 . S
C1077 C1071 1.465 . S
C1077 C1076 1.396 1_565 S
C1077 C1078 1.399 . S
C1078 H1064 0.929 . S
C1078 C1077 1.399 . S
C1078 C1079 1.385 . S
C1079 H1065 0.931 . S
C1079 C1078 1.385 . S
C1079 C1080 1.389 . S
C1080 C1079 1.389 . S
C1080 C1081 1.387 1_565 S
C1081 H1066 0.930 . S
C1081 C1076 1.390 . S
C1081 C1080 1.387 1_545 S
H1082 C1094 0.930 . S
H1083 C1096 0.930 . S
H1084 C1097 0.930 . S
H1085 C1101 0.959 . S
H1086 C1101 0.959 . S
H1087 C1101 0.961 . S
H1088 C1102 0.960 . S
H1089 C1102 0.961 . S
H1090 C1102 0.959 . S
H1091 C1105 0.929 . S
H1092 C1106 0.931 . S
H1093 C1108 0.930 . S
C1094 H1082 0.930 . S
C1094 C1095 1.399 . S
C1094 C1099 1.399 . S
C1095 C1094 1.399 . S
C1095 C1096 1.376 . S
C1096 H1083 0.930 . S
C1096 C1095 1.376 . S
C1096 C1097 1.388 . S
C1097 H1084 0.930 . S
C1097 C1096 1.388 . S
C1097 C1098 1.390 . S
C1098 C1097 1.390 . S
C1098 C1099 1.394 . S
C1098 C1104 1.465 . S
C1099 C1094 1.399 . S
C1099 C1098 1.394 . S
C1099 C1100 1.516 . S
C1100 C1099 1.516 . S
C1100 C1101 1.502 . S
C1100 C1102 1.561 . S
C1100 C1103 1.526 . S
C1101 H1085 0.959 . S
C1101 H1086 0.959 . S
C1101 H1087 0.961 . S
C1101 C1100 1.502 . S
C1102 H1088 0.960 . S
C1102 H1089 0.961 . S
C1102 H1090 0.959 . S
C1102 C1100 1.561 . S
C1103 C1100 1.526 . S
C1103 C1104 1.396 . S
C1103 C1108 1.390 . S
C1104 C1098 1.465 . S
C1104 C1103 1.396 . S
C1104 C1105 1.399 . S
C1105 H1091 0.929 . S
C1105 C1104 1.399 . S
C1105 C1106 1.385 . S
C1106 H1092 0.931 . S
C1106 C1105 1.385 . S
C1106 C1107 1.389 . S
C1107 C1106 1.389 . S
C1107 C1108 1.387 . S
C1108 H1093 0.930 . S
C1108 C1103 1.390 . S
C1108 C1107 1.387 . S
H1109 C1121 0.930 . S
H1110 C1123 0.930 . S
H1111 C1124 0.930 . S
H1112 C1128 0.959 . S
H1113 C1128 0.959 . S
H1114 C1128 0.961 . S
H1115 C1129 0.960 . S
H1116 C1129 0.961 . S
H1117 C1129 0.959 . S
H1118 C1132 0.929 . S
H1119 C1133 0.931 . S
H1120 C1135 0.930 . S
C1121 H1109 0.930 . S
C1121 C1122 1.399 . S
C1121 C1126 1.399 . S
C1122 C1121 1.399 . S
C1122 C1123 1.376 . S
C1123 H1110 0.930 . S
C1123 C1122 1.376 . S
C1123 C1124 1.388 . S
C1124 H1111 0.930 . S
C1124 C1123 1.388 . S
C1124 C1125 1.390 . S
C1125 C1124 1.390 . S
C1125 C1126 1.394 . S
C1125 C1131 1.465 . S
C1126 C1121 1.399 . S
C1126 C1125 1.394 . S
C1126 C1127 1.516 . S
C1127 C1126 1.516 . S
C1127 C1128 1.502 . S
C1127 C1129 1.561 . S
C1127 C1130 1.526 . S
C1128 H1112 0.959 . S
C1128 H1113 0.959 . S
C1128 H1114 0.961 . S
C1128 C1127 1.502 . S
C1129 H1115 0.960 . S
C1129 H1116 0.961 . S
C1129 H1117 0.959 . S
C1129 C1127 1.561 . S
C1130 C1127 1.526 . S
C1130 C1131 1.396 . S
C1130 C1135 1.390 . S
C1131 C1125 1.465 . S
C1131 C1130 1.396 . S
C1131 C1132 1.399 . S
C1132 H1118 0.929 . S
C1132 C1131 1.399 . S
C1132 C1133 1.385 . S
C1133 H1119 0.931 . S
C1133 C1132 1.385 . S
C1133 C1134 1.389 . S
C1134 C1133 1.389 . S
C1134 C1135 1.387 . S
C1135 H1120 0.930 . S
C1135 C1130 1.390 . S
C1135 C1134 1.387 . S
C501 C125 1.942 . S
C513 C215 1.999 . S
C540 C292 2.034 . S
C528 C144 1.920 . S
C567 C383 2.027 . S
C555 C87 1.966 . S
C594 C467 1.989 . S
C582 C106 1.938 . S
C621 C226 2.026 1_565 S
C609 C49 1.996 . S
C636 C68 1.997 . S
C648 C303 2.028 . S
C663 C11 2.024 . S
C675 C394 1.994 . S
C690 C30 2.015 . S
C702 C478 1.986 . S
C729 C210 0.646 1_455 S
C717 C97 0.589 . S
C756 C305 0.643 . S
C744 C116 0.631 . S
C783 C378 0.710 . S
C771 C135 0.734 . S
C798 C78 0.673 . S
C810 C462 0.757 . S
C825 C21 0.599 . S
C837 C221 0.711 1_554 S
C864 C294 0.739 1_556 S
C852 C40 0.730 . S
C891 C389 0.700 . S
C879 C59 0.744 . S
C906 C2 0.729 . S
C918 C473 0.722 . S
C933 C101 1.961 . S
C945 C219 2.093 . S
C960 C120 1.986 . S
C972 C310 2.138 . S
C999 C387 2.133 . S
C987 C139 1.920 . S
C1026 C471 2.109 . S
C1014 C82 2.001 . S
C1041 C25 1.905 . S
C1053 C208 2.121 . S
C1080 C299 2.138 1_565 S
C1068 C44 1.935 . S
C1107 C376 2.127 . S
C1095 C63 1.921 . S
C1122 C6 1.950 . S
C1134 C460 2.121 . S
