# Generated by pormake.
# Topology ctn, (3,4)-cn, num edge types: 1
# Building blocks:
#     Node 0, Type 0, BuildingBlock: KAKCAD_clean_linker_0, # of connection points: 3
#     Node 1, Type 0, BuildingBlock: KAKCAD_clean_linker_0, # of connection points: 3
#     Node 2, Type 0, BuildingBlock: KAKCAD_clean_linker_0, # of connection points: 3
#     Node 3, Type 0, BuildingBlock: KAKCAD_clean_linker_0, # of connection points: 3
#     Node 4, Type 0, BuildingBlock: KAKCAD_clean_linker_0, # of connection points: 3
#     Node 5, Type 0, BuildingBlock: KAKCAD_clean_linker_0, # of connection points: 3
#     Node 6, Type 0, BuildingBlock: KAKCAD_clean_linker_0, # of connection points: 3
#     Node 7, Type 0, BuildingBlock: KAKCAD_clean_linker_0, # of connection points: 3
#     Node 8, Type 0, BuildingBlock: KAKCAD_clean_linker_0, # of connection points: 3
#     Node 9, Type 0, BuildingBlock: KAKCAD_clean_linker_0, # of connection points: 3
#     Node 10, Type 0, BuildingBlock: KAKCAD_clean_linker_0, # of connection points: 3
#     Node 11, Type 0, BuildingBlock: KAKCAD_clean_linker_0, # of connection points: 3
#     Node 12, Type 0, BuildingBlock: KAKCAD_clean_linker_0, # of connection points: 3
#     Node 13, Type 0, BuildingBlock: KAKCAD_clean_linker_0, # of connection points: 3
#     Node 14, Type 0, BuildingBlock: KAKCAD_clean_linker_0, # of connection points: 3
#     Node 15, Type 0, BuildingBlock: KAKCAD_clean_linker_0, # of connection points: 3
#     Node 16, Type 1, BuildingBlock: NAHDIM_clean_sbu_0, # of connection points: 4
#     Node 17, Type 1, BuildingBlock: NAHDIM_clean_sbu_0, # of connection points: 4
#     Node 18, Type 1, BuildingBlock: NAHDIM_clean_sbu_0, # of connection points: 4
#     Node 19, Type 1, BuildingBlock: NAHDIM_clean_sbu_0, # of connection points: 4
#     Node 20, Type 1, BuildingBlock: NAHDIM_clean_sbu_0, # of connection points: 4
#     Node 21, Type 1, BuildingBlock: NAHDIM_clean_sbu_0, # of connection points: 4
#     Node 22, Type 1, BuildingBlock: NAHDIM_clean_sbu_0, # of connection points: 4
#     Node 23, Type 1, BuildingBlock: NAHDIM_clean_sbu_0, # of connection points: 4
#     Node 24, Type 1, BuildingBlock: NAHDIM_clean_sbu_0, # of connection points: 4
#     Node 25, Type 1, BuildingBlock: NAHDIM_clean_sbu_0, # of connection points: 4
#     Node 26, Type 1, BuildingBlock: NAHDIM_clean_sbu_0, # of connection points: 4
#     Node 27, Type 1, BuildingBlock: NAHDIM_clean_sbu_0, # of connection points: 4
#     Edge 28, Type (0, 1), BuildingBlock: TEMPAE_clean_linker_10, # of connection points: 2
#     Edge 29, Type (0, 1), BuildingBlock: TEMPAE_clean_linker_10, # of connection points: 2
#     Edge 30, Type (0, 1), BuildingBlock: TEMPAE_clean_linker_10, # of connection points: 2
#     Edge 31, Type (0, 1), BuildingBlock: TEMPAE_clean_linker_10, # of connection points: 2
#     Edge 32, Type (0, 1), BuildingBlock: TEMPAE_clean_linker_10, # of connection points: 2
#     Edge 33, Type (0, 1), BuildingBlock: TEMPAE_clean_linker_10, # of connection points: 2
#     Edge 34, Type (0, 1), BuildingBlock: TEMPAE_clean_linker_10, # of connection points: 2
#     Edge 35, Type (0, 1), BuildingBlock: TEMPAE_clean_linker_10, # of connection points: 2
#     Edge 36, Type (0, 1), BuildingBlock: TEMPAE_clean_linker_10, # of connection points: 2
#     Edge 37, Type (0, 1), BuildingBlock: TEMPAE_clean_linker_10, # of connection points: 2
#     Edge 38, Type (0, 1), BuildingBlock: TEMPAE_clean_linker_10, # of connection points: 2
#     Edge 39, Type (0, 1), BuildingBlock: TEMPAE_clean_linker_10, # of connection points: 2
#     Edge 40, Type (0, 1), BuildingBlock: TEMPAE_clean_linker_10, # of connection points: 2
#     Edge 41, Type (0, 1), BuildingBlock: TEMPAE_clean_linker_10, # of connection points: 2
#     Edge 42, Type (0, 1), BuildingBlock: TEMPAE_clean_linker_10, # of connection points: 2
#     Edge 43, Type (0, 1), BuildingBlock: TEMPAE_clean_linker_10, # of connection points: 2
#     Edge 44, Type (0, 1), BuildingBlock: TEMPAE_clean_linker_10, # of connection points: 2
#     Edge 45, Type (0, 1), BuildingBlock: TEMPAE_clean_linker_10, # of connection points: 2
#     Edge 46, Type (0, 1), BuildingBlock: TEMPAE_clean_linker_10, # of connection points: 2
#     Edge 47, Type (0, 1), BuildingBlock: TEMPAE_clean_linker_10, # of connection points: 2
#     Edge 48, Type (0, 1), BuildingBlock: TEMPAE_clean_linker_10, # of connection points: 2
#     Edge 49, Type (0, 1), BuildingBlock: TEMPAE_clean_linker_10, # of connection points: 2
#     Edge 50, Type (0, 1), BuildingBlock: TEMPAE_clean_linker_10, # of connection points: 2
#     Edge 51, Type (0, 1), BuildingBlock: TEMPAE_clean_linker_10, # of connection points: 2
#     Edge 52, Type (0, 1), BuildingBlock: TEMPAE_clean_linker_10, # of connection points: 2
#     Edge 53, Type (0, 1), BuildingBlock: TEMPAE_clean_linker_10, # of connection points: 2
#     Edge 54, Type (0, 1), BuildingBlock: TEMPAE_clean_linker_10, # of connection points: 2
#     Edge 55, Type (0, 1), BuildingBlock: TEMPAE_clean_linker_10, # of connection points: 2
#     Edge 56, Type (0, 1), BuildingBlock: TEMPAE_clean_linker_10, # of connection points: 2
#     Edge 57, Type (0, 1), BuildingBlock: TEMPAE_clean_linker_10, # of connection points: 2
#     Edge 58, Type (0, 1), BuildingBlock: TEMPAE_clean_linker_10, # of connection points: 2
#     Edge 59, Type (0, 1), BuildingBlock: TEMPAE_clean_linker_10, # of connection points: 2
#     Edge 60, Type (0, 1), BuildingBlock: TEMPAE_clean_linker_10, # of connection points: 2
#     Edge 61, Type (0, 1), BuildingBlock: TEMPAE_clean_linker_10, # of connection points: 2
#     Edge 62, Type (0, 1), BuildingBlock: TEMPAE_clean_linker_10, # of connection points: 2
#     Edge 63, Type (0, 1), BuildingBlock: TEMPAE_clean_linker_10, # of connection points: 2
#     Edge 64, Type (0, 1), BuildingBlock: TEMPAE_clean_linker_10, # of connection points: 2
#     Edge 65, Type (0, 1), BuildingBlock: TEMPAE_clean_linker_10, # of connection points: 2
#     Edge 66, Type (0, 1), BuildingBlock: TEMPAE_clean_linker_10, # of connection points: 2
#     Edge 67, Type (0, 1), BuildingBlock: TEMPAE_clean_linker_10, # of connection points: 2
#     Edge 68, Type (0, 1), BuildingBlock: TEMPAE_clean_linker_10, # of connection points: 2
#     Edge 69, Type (0, 1), BuildingBlock: TEMPAE_clean_linker_10, # of connection points: 2
#     Edge 70, Type (0, 1), BuildingBlock: TEMPAE_clean_linker_10, # of connection points: 2
#     Edge 71, Type (0, 1), BuildingBlock: TEMPAE_clean_linker_10, # of connection points: 2
#     Edge 72, Type (0, 1), BuildingBlock: TEMPAE_clean_linker_10, # of connection points: 2
#     Edge 73, Type (0, 1), BuildingBlock: TEMPAE_clean_linker_10, # of connection points: 2
#     Edge 74, Type (0, 1), BuildingBlock: TEMPAE_clean_linker_10, # of connection points: 2
#     Edge 75, Type (0, 1), BuildingBlock: TEMPAE_clean_linker_10, # of connection points: 2
# Relax obj value: 0.002
# Max RMSD: 0.033
# Mean RMSD: 0.016
data_MOF--net-ctn--node1-NAHDIM_clean_sbu_0--node2-KAKCAD_clean_linker_0--edge1-TEMPAE_clean_linker_10
_symmetry_space_group_name_H-M    P1
_symmetry_Int_Tables_number       1
_symmetry_cell_setting            triclinic
loop_
_symmetry_equiv_pos_as_xyz
'x, y, z'
_cell_length_a     68.355413
_cell_length_b     68.626094
_cell_length_c     67.885045
_cell_angle_alpha  91.242199
_cell_angle_beta   90.340782
_cell_angle_gamma 92.341075
loop_
_atom_site_label
_atom_site_type_symbol
_atom_site_fract_x
_atom_site_fract_y
_atom_site_fract_z
_atom_type_partial_charge
C0 C 0.02819 0.08615 0.9763 0.0
C1 C 0.02246 0.10472 0.9825 0.0
C2 C 0.03101 0.07162 0.99001 0.0
C3 C 0.0282 0.07536 0.01022 0.0
C4 C 0.02247 0.09395 0.0164 0.0
C5 C 0.01961 0.10846 0.00269 0.0
C6 C 0.0314 0.06001 0.02485 0.0
C7 C 0.04747 0.04798 0.02312 0.0
C8 C 0.0508 0.03363 0.03707 0.0
C9 C 0.03781 0.03141 0.0529 0.0
C10 C 0.02174 0.04337 0.05494 0.0
C11 C 0.01859 0.05757 0.0408 0.0
C12 C 0.00846 0.04132 0.07205 0.0
C13 C 0.00219 0.02277 0.07845 0.0
C14 C 0.00227 0.05793 0.08234 0.0
C15 C 0.99024 0.05604 0.0988 0.0
C16 C 0.98411 0.03749 0.10532 0.0
C17 C 0.0681 0.0213 0.03533 0.0
C18 C 0.07373 0.0138 0.01688 0.0
C19 C 0.07924 0.01713 0.05208 0.0
C20 C 0.09567 0.00578 0.05041 0.0
C21 C 0.10138 0.99838 0.03194 0.0
C22 C 0.09019 0.00249 0.0152 0.0
C23 C 0.99012 0.02087 0.0949 0.0
H24 H 0.03026 0.08278 0.96081 0.0
H25 H 0.03516 0.05736 0.98476 0.0
H26 H 0.02051 0.09741 0.03189 0.0
H27 H 0.01549 0.12272 0.00794 0.0
H28 H 0.05776 0.05021 0.01122 0.0
H29 H 0.00594 0.06652 0.04205 0.0
H30 H 0.04032 0.02044 0.06378 0.0
H31 H 0.00657 0.0097 0.07071 0.0
H32 H 0.007 0.07242 0.07787 0.0
H33 H 0.9857 0.06911 0.10642 0.0
H34 H 0.06535 0.0166 0.00372 0.0
H35 H 0.07544 0.02287 0.06648 0.0
H36 H 0.98578 0.00638 0.09966 0.0
H37 H 0.09431 0.99717 0.00073 0.0
H38 H 0.10385 0.00271 0.06362 0.0
C39 C 0.34128 0.73991 0.26679 0.0
C40 C 0.3533 0.72493 0.27272 0.0
C41 C 0.32624 0.7361 0.25305 0.0
C42 C 0.32288 0.71723 0.24497 0.0
C43 C 0.33491 0.70226 0.25086 0.0
C44 C 0.34997 0.70607 0.26457 0.0
C45 C 0.30676 0.71312 0.23055 0.0
C46 C 0.30336 0.72613 0.21533 0.0
C47 C 0.28804 0.72241 0.20169 0.0
C48 C 0.27603 0.70543 0.20348 0.0
C49 C 0.2793 0.69221 0.21853 0.0
C50 C 0.29468 0.69618 0.232 0.0
C51 C 0.26666 0.67426 0.22023 0.0
C52 C 0.24623 0.67497 0.21835 0.0
C53 C 0.27498 0.65628 0.22383 0.0
C54 C 0.26311 0.63937 0.22556 0.0
C55 C 0.24265 0.64008 0.2238 0.0
C56 C 0.28473 0.73612 0.18548 0.0
C57 C 0.28638 0.7564 0.18894 0.0
C58 C 0.27996 0.72903 0.16639 0.0
C59 C 0.27687 0.7419 0.15114 0.0
C60 C 0.27857 0.76216 0.15461 0.0
C61 C 0.28338 0.76928 0.17366 0.0
C62 C 0.23434 0.65807 0.22015 0.0
H63 H 0.34331 0.75453 0.273 0.0
H64 H 0.31703 0.74787 0.249 0.0
H65 H 0.33286 0.68763 0.24467 0.0
H66 H 0.35918 0.69429 0.26859 0.0
H67 H 0.31301 0.73893 0.2138 0.0
H68 H 0.29695 0.68627 0.24395 0.0
H69 H 0.26412 0.70245 0.1931 0.0
H70 H 0.23939 0.68867 0.21583 0.0
H71 H 0.29071 0.65525 0.22506 0.0
H72 H 0.26999 0.62569 0.22804 0.0
H73 H 0.28974 0.76235 0.20354 0.0
H74 H 0.27891 0.7135 0.16314 0.0
H75 H 0.21861 0.65915 0.21901 0.0
H76 H 0.28455 0.78483 0.17681 0.0
H77 H 0.27345 0.736 0.13653 0.0
C78 C 0.99515 0.48313 0.10462 0.0
C79 C 0.01551 0.48121 0.10355 0.0
C80 C 0.98348 0.48088 0.08772 0.0
C81 C 0.9919 0.47668 0.06935 0.0
C82 C 0.01225 0.47471 0.06828 0.0
C83 C 0.02393 0.47696 0.08519 0.0
C84 C 0.97947 0.47442 0.05138 0.0
C85 C 0.96428 0.48716 0.04814 0.0
C86 C 0.9523 0.48505 0.0313 0.0
C87 C 0.95568 0.46999 0.01754 0.0
C88 C 0.97086 0.45716 0.02051 0.0
C89 C 0.98269 0.45949 0.03746 0.0
C90 C 0.97427 0.44114 0.0061 0.0
C91 C 0.95851 0.42942 0.99856 0.0
C92 C 0.99336 0.43725 6e-05 0.0
C93 C 0.99666 0.42185 0.98688 0.0
C94 C 0.98094 0.40993 0.97952 0.0
C95 C 0.93634 0.49867 0.02811 0.0
C96 C 0.92423 0.50406 0.0438 0.0
C97 C 0.93328 0.50661 0.00949 0.0
C98 C 0.91854 0.51981 0.00667 0.0
C99 C 0.90653 0.52531 0.02241 0.0
C100 C 0.90948 0.51721 0.04098 0.0
C101 C 0.96182 0.41394 0.98545 0.0
H102 H 0.98825 0.4866 0.11851 0.0
H103 H 0.96781 0.48228 0.08907 0.0
H104 H 0.0192 0.47166 0.05431 0.0
H105 H 0.03955 0.4752 0.08392 0.0
H106 H 0.96206 0.49905 0.05855 0.0
H107 H 0.99408 0.4493 0.04007 0.0
H108 H 0.94647 0.46823 0.00452 0.0
H109 H 0.94366 0.43193 0.00316 0.0
H110 H 0.00576 0.44622 0.00543 0.0
H111 H 0.01153 0.41937 0.98234 0.0
H112 H 0.92604 0.49795 0.05825 0.0
H113 H 0.94255 0.50292 0.99718 0.0
H114 H 0.94941 0.40487 0.98029 0.0
H115 H 0.90025 0.52089 0.05331 0.0
H116 H 0.91679 0.52598 0.99225 0.0
C117 C 0.69888 0.76066 0.14208 0.0
C118 C 0.71797 0.75493 0.13795 0.0
C119 C 0.69543 0.77337 0.15792 0.0
C120 C 0.711 0.78066 0.16991 0.0
C121 C 0.73005 0.77481 0.16587 0.0
C122 C 0.7335 0.76207 0.15008 0.0
C123 C 0.70749 0.79447 0.18649 0.0
C124 C 0.69165 0.79125 0.19923 0.0
C125 C 0.6885 0.80414 0.21516 0.0
C126 C 0.70141 0.8204 0.21823 0.0
C127 C 0.7173 0.82387 0.20556 0.0
C128 C 0.72015 0.81085 0.18969 0.0
C129 C 0.73097 0.84103 0.20883 0.0
C130 C 0.72392 0.8593 0.21438 0.0
C131 C 0.75121 0.83929 0.2062 0.0
C132 C 0.76408 0.85546 0.20884 0.0
C133 C 0.75704 0.87375 0.21431 0.0
C134 C 0.67184 0.80048 0.2287 0.0
C135 C 0.6533 0.79442 0.22124 0.0
C136 C 0.67438 0.80294 0.24918 0.0
C137 C 0.65873 0.7994 0.26192 0.0
C138 C 0.6402 0.7933 0.25446 0.0
C139 C 0.63766 0.79087 0.23398 0.0
C140 C 0.73681 0.87547 0.21712 0.0
H141 H 0.68665 0.75559 0.13285 0.0
H142 H 0.68063 0.7778 0.16055 0.0
H143 H 0.7423 0.77993 0.17506 0.0
H144 H 0.74832 0.75766 0.1475 0.0
H145 H 0.68208 0.77839 0.19708 0.0
H146 H 0.73204 0.81369 0.17953 0.0
H147 H 0.69911 0.83035 0.23053 0.0
H148 H 0.70839 0.86118 0.21634 0.0
H149 H 0.75716 0.82538 0.20217 0.0
H150 H 0.77955 0.85367 0.20635 0.0
H151 H 0.65082 0.79267 0.20552 0.0
H152 H 0.68856 0.8073 0.2554 0.0
H153 H 0.73094 0.8893 0.22155 0.0
H154 H 0.62348 0.78646 0.22778 0.0
H155 H 0.66122 0.80113 0.27764 0.0
C156 C 0.97411 0.98179 0.4179 0.0
C157 C 0.98091 0.98211 0.39836 0.0
C158 C 0.9871 0.97947 0.43357 0.0
C159 C 0.00716 0.97777 0.43006 0.0
C160 C 0.01401 0.97807 0.41063 0.0
C161 C 0.00102 0.98003 0.39494 0.0
C162 C 0.02103 0.97584 0.4466 0.0
C163 C 0.01792 0.96119 0.46045 0.0
C164 C 0.03148 0.95887 0.47575 0.0
C165 C 0.04802 0.97166 0.4773 0.0
C166 C 0.05112 0.98668 0.46378 0.0
C167 C 0.03758 0.98854 0.44835 0.0
C168 C 0.06836 0.00051 0.46588 0.0
C169 C 0.07467 0.00735 0.48463 0.0
C170 C 0.07854 0.0071 0.4492 0.0
C171 C 0.09459 0.02027 0.45122 0.0
C172 C 0.10094 0.02705 0.46997 0.0
C173 C 0.02857 0.94292 0.48996 0.0
C174 C 0.0101 0.93898 0.49828 0.0
C175 C 0.0443 0.93154 0.49531 0.0
C176 C 0.04163 0.91655 0.50871 0.0
C177 C 0.02319 0.91263 0.51713 0.0
C178 C 0.00744 0.92401 0.51176 0.0
C179 C 0.09081 0.02037 0.48665 0.0
H180 H 0.95881 0.98367 0.42116 0.0
H181 H 0.98154 0.97941 0.44849 0.0
H182 H 0.02943 0.97655 0.40758 0.0
H183 H 0.00676 0.97975 0.38011 0.0
H184 H 0.00528 0.9512 0.4589 0.0
H185 H 0.0396 0.00017 0.43792 0.0
H186 H 0.0585 0.96989 0.4891 0.0
H187 H 0.06702 0.0028 0.49778 0.0
H188 H 0.07423 0.00197 0.43455 0.0
H189 H 0.10191 0.02527 0.43804 0.0
H190 H 0.99777 0.94766 0.4946 0.0
H191 H 0.05863 0.93405 0.48889 0.0
H192 H 0.09546 0.02507 0.50134 0.0
H193 H 0.99311 0.92153 0.51818 0.0
H194 H 0.05398 0.90782 0.51226 0.0
C195 C 0.14463 0.71566 0.75506 0.0
C196 C 0.14008 0.73419 0.74835 0.0
C197 C 0.16039 0.71353 0.76794 0.0
C198 C 0.17189 0.72989 0.7744 0.0
C199 C 0.16743 0.7484 0.76759 0.0
C200 C 0.15172 0.75052 0.7547 0.0
C201 C 0.18844 0.72775 0.78832 0.0
C202 C 0.20145 0.7126 0.78567 0.0
C203 C 0.21732 0.71073 0.79864 0.0
C204 C 0.22006 0.72419 0.81439 0.0
C205 C 0.20714 0.73937 0.81733 0.0
C206 C 0.19135 0.74099 0.80423 0.0
C207 C 0.21017 0.75354 0.83404 0.0
C208 C 0.21621 0.74727 0.85261 0.0
C209 C 0.20718 0.7735 0.83149 0.0
C210 C 0.2102 0.78685 0.84714 0.0
C211 C 0.21641 0.78056 0.86562 0.0
C212 C 0.23115 0.69481 0.79568 0.0
C213 C 0.22418 0.67577 0.79074 0.0
C214 C 0.25142 0.69851 0.79799 0.0
C215 C 0.26442 0.68349 0.79554 0.0
C216 C 0.25745 0.66442 0.79072 0.0
C217 C 0.23719 0.66073 0.7883 0.0
C218 C 0.21936 0.76065 0.86821 0.0
H219 H 0.13579 0.70283 0.75065 0.0
H220 H 0.16334 0.69912 0.77312 0.0
H221 H 0.17623 0.76123 0.77207 0.0
H222 H 0.14881 0.76495 0.74952 0.0
H223 H 0.19953 0.70259 0.77318 0.0
H224 H 0.18101 0.75235 0.80665 0.0
H225 H 0.23232 0.72285 0.82439 0.0
H226 H 0.2183 0.73197 0.85518 0.0
H227 H 0.20283 0.77887 0.8173 0.0
H228 H 0.20803 0.80216 0.84469 0.0
H229 H 0.20863 0.67242 0.78902 0.0
H230 H 0.25727 0.71307 0.80157 0.0
H231 H 0.22389 0.75538 0.88239 0.0
H232 H 0.23139 0.64623 0.78437 0.0
H233 H 0.27993 0.68677 0.79769 0.0
C234 C 0.98344 0.60391 0.49952 0.0
C235 C 0.9834 0.60219 0.52012 0.0
C236 C 0.97953 0.58759 0.48728 0.0
C237 C 0.97545 0.5692 0.49535 0.0
C238 C 0.97528 0.56747 0.51594 0.0
C239 C 0.97925 0.58379 0.52819 0.0
C240 C 0.97144 0.55189 0.48229 0.0
C241 C 0.98303 0.54876 0.46562 0.0
C242 C 0.97924 0.53257 0.45294 0.0
C243 C 0.96359 0.51944 0.45713 0.0
C244 C 0.95193 0.52229 0.47383 0.0
C245 C 0.95598 0.53852 0.48636 0.0
C246 C 0.93536 0.50846 0.47813 0.0
C247 C 0.92221 0.50211 0.46313 0.0
C248 C 0.93245 0.50174 0.49733 0.0
C249 C 0.91664 0.48898 0.50148 0.0
C250 C 0.90331 0.48278 0.48654 0.0
C251 C 0.99186 0.52934 0.43554 0.0
C252 C 0.99821 0.54511 0.424 0.0
C253 C 0.99806 0.51058 0.43065 0.0
C254 C 0.01057 0.50771 0.41474 0.0
C255 C 0.01716 0.52353 0.40339 0.0
C256 C 0.01074 0.54225 0.40813 0.0
C257 C 0.90631 0.48946 0.4673 0.0
H258 H 0.98624 0.61793 0.49285 0.0
H259 H 0.97947 0.58942 0.47147 0.0
H260 H 0.97241 0.55344 0.52256 0.0
H261 H 0.97937 0.58193 0.544 0.0
H262 H 0.99536 0.55871 0.46278 0.0
H263 H 0.94673 0.54105 0.499 0.0
H264 H 0.96048 0.50695 0.4474 0.0
H265 H 0.92396 0.50726 0.44825 0.0
H266 H 0.94252 0.5062 0.50911 0.0
H267 H 0.91496 0.48386 0.51637 0.0
H268 H 0.9935 0.55971 0.42724 0.0
H269 H 0.99357 0.49815 0.43935 0.0
H270 H 0.89616 0.48522 0.45552 0.0
H271 H 0.01569 0.55478 0.3998 0.0
H272 H 0.01508 0.49307 0.41132 0.0
C273 C 0.79949 0.7356 0.84377 0.0
C274 C 0.78055 0.72768 0.8472 0.0
C275 C 0.8027 0.74947 0.82929 0.0
C276 C 0.78701 0.75589 0.81804 0.0
C277 C 0.76806 0.74805 0.82142 0.0
C278 C 0.76487 0.734 0.83577 0.0
C279 C 0.79047 0.77089 0.80297 0.0
C280 C 0.80586 0.76919 0.78956 0.0
C281 C 0.80977 0.78363 0.7756 0.0
C282 C 0.79798 0.79993 0.77523 0.0
C283 C 0.78236 0.80174 0.78842 0.0
C284 C 0.77867 0.78711 0.80222 0.0
C285 C 0.76996 0.81897 0.78786 0.0
C286 C 0.77848 0.83779 0.78581 0.0
C287 C 0.7495 0.81668 0.78929 0.0
C288 C 0.73779 0.83285 0.78852 0.0
C289 C 0.74629 0.85167 0.78635 0.0
C290 C 0.82607 0.78156 0.76137 0.0
C291 C 0.84373 0.77357 0.76728 0.0
C292 C 0.82402 0.78726 0.74172 0.0
C293 C 0.83921 0.78492 0.7283 0.0
C294 C 0.85674 0.77663 0.73414 0.0
C295 C 0.8588 0.77101 0.75382 0.0
C296 C 0.76677 0.85397 0.78507 0.0
H297 H 0.81184 0.73138 0.85255 0.0
H298 H 0.81741 0.75549 0.82715 0.0
H299 H 0.75575 0.75263 0.81279 0.0
H300 H 0.75015 0.728 0.8378 0.0
H301 H 0.81454 0.75632 0.78979 0.0
H302 H 0.76697 0.78863 0.81278 0.0
H303 H 0.80092 0.81124 0.76463 0.0
H304 H 0.79422 0.84005 0.78499 0.0
H305 H 0.7425 0.80232 0.79063 0.0
H306 H 0.72204 0.83057 0.78925 0.0
H307 H 0.84597 0.76929 0.78237 0.0
H308 H 0.81055 0.79325 0.73656 0.0
H309 H 0.77377 0.86832 0.7837 0.0
H310 H 0.87198 0.76433 0.75881 0.0
H311 H 0.83719 0.78967 0.71334 0.0
C312 C 0.29785 0.24022 0.34679 0.0
C313 C 0.27942 0.23092 0.34975 0.0
C314 C 0.30042 0.25405 0.33215 0.0
C315 C 0.28458 0.25901 0.32026 0.0
C316 C 0.26614 0.24979 0.32319 0.0
C317 C 0.26361 0.23582 0.33772 0.0
C318 C 0.28733 0.27381 0.30486 0.0
C319 C 0.30335 0.27312 0.29209 0.0
C320 C 0.3063 0.28721 0.27759 0.0
C321 C 0.29297 0.30217 0.27603 0.0
C322 C 0.27681 0.30302 0.28867 0.0
C323 C 0.27406 0.28873 0.303 0.0
C324 C 0.26286 0.31892 0.28704 0.0
C325 C 0.26972 0.3383 0.28463 0.0
C326 C 0.24258 0.31483 0.28805 0.0
C327 C 0.22944 0.3298 0.28667 0.0
C328 C 0.2363 0.34919 0.28432 0.0
C329 C 0.32314 0.28605 0.26395 0.0
C330 C 0.34155 0.28081 0.27095 0.0
C331 C 0.32083 0.28963 0.24377 0.0
C332 C 0.33649 0.28768 0.23084 0.0
C333 C 0.35479 0.28206 0.23779 0.0
C334 C 0.35717 0.27879 0.25802 0.0
C335 C 0.25658 0.35328 0.28332 0.0
H336 H 0.31026 0.23708 0.35602 0.0
H337 H 0.31473 0.26113 0.33036 0.0
H338 H 0.25374 0.25319 0.31405 0.0
H339 H 0.24929 0.22872 0.33939 0.0
H340 H 0.31327 0.26126 0.29317 0.0
H341 H 0.26189 0.28953 0.3131 0.0
H342 H 0.29515 0.31315 0.26493 0.0
H343 H 0.28528 0.34192 0.28399 0.0
H344 H 0.23686 0.30001 0.28974 0.0
H345 H 0.2139 0.32623 0.28766 0.0
H346 H 0.34389 0.2782 0.28645 0.0
H347 H 0.30679 0.29351 0.23788 0.0
H348 H 0.26229 0.36806 0.28132 0.0
H349 H 0.371 0.27424 0.26384 0.0
H350 H 0.33424 0.29053 0.21538 0.0
C351 C 0.49397 0.98217 0.60855 0.0
C352 C 0.51438 0.98048 0.60806 0.0
C353 C 0.48283 0.98002 0.59127 0.0
C354 C 0.49186 0.97607 0.57315 0.0
C355 C 0.51226 0.97432 0.57268 0.0
C356 C 0.52341 0.97652 0.58994 0.0
C357 C 0.48006 0.97385 0.55477 0.0
C358 C 0.46517 0.98673 0.55087 0.0
C359 C 0.45399 0.9848 0.53346 0.0
C360 C 0.45794 0.96982 0.51979 0.0
C361 C 0.47277 0.95675 0.52348 0.0
C362 C 0.48371 0.95888 0.54104 0.0
C363 C 0.47675 0.94071 0.50919 0.0
C364 C 0.46127 0.93001 0.49975 0.0
C365 C 0.4961 0.9357 0.50524 0.0
C366 C 0.49988 0.92012 0.49245 0.0
C367 C 0.4844 0.90927 0.48324 0.0
C368 C 0.43824 0.9985 0.52964 0.0
C369 C 0.4255 0.00384 0.54482 0.0
C370 C 0.43593 0.0065 0.51092 0.0
C371 C 0.4213 0.01969 0.50751 0.0
C372 C 0.40867 0.02514 0.52276 0.0
C373 C 0.41088 0.017 0.54142 0.0
C374 C 0.46507 0.91448 0.48686 0.0
H375 H 0.48663 0.98537 0.62227 0.0
H376 H 0.46711 0.98128 0.59211 0.0
H377 H 0.51966 0.97146 0.55891 0.0
H378 H 0.53909 0.97495 0.58914 0.0
H379 H 0.46258 0.99859 0.56121 0.0
H380 H 0.4948 0.94854 0.54429 0.0
H381 H 0.44941 0.96831 0.5063 0.0
H382 H 0.4462 0.93331 0.50267 0.0
H383 H 0.50837 0.94387 0.51198 0.0
H384 H 0.51494 0.91661 0.48969 0.0
H385 H 0.42671 0.99768 0.55932 0.0
H386 H 0.44568 0.00285 0.499 0.0
H387 H 0.45285 0.90623 0.48011 0.0
H388 H 0.40115 0.02063 0.55336 0.0
H389 H 0.4201 0.02588 0.49304 0.0
C390 C 0.20751 0.25558 0.6443 0.0
C391 C 0.22735 0.25206 0.64097 0.0
C392 C 0.20209 0.26833 0.65945 0.0
C393 C 0.21641 0.27786 0.67155 0.0
C394 C 0.23623 0.27426 0.66827 0.0
C395 C 0.24164 0.2615 0.65315 0.0
C396 C 0.21074 0.29164 0.68747 0.0
C397 C 0.19477 0.28709 0.6997 0.0
C398 C 0.18959 0.29995 0.715 0.0
C399 C 0.20051 0.31758 0.71793 0.0
C400 C 0.2165 0.32235 0.70581 0.0
C401 C 0.22145 0.30933 0.69059 0.0
C402 C 0.22818 0.34085 0.70907 0.0
C403 C 0.21894 0.35846 0.71284 0.0
C404 C 0.24872 0.341 0.70826 0.0
C405 C 0.25979 0.35839 0.71103 0.0
C406 C 0.25058 0.37603 0.71464 0.0
C407 C 0.17303 0.29475 0.72817 0.0
C408 C 0.15533 0.28668 0.72036 0.0
C409 C 0.17489 0.2976 0.74867 0.0
C410 C 0.15943 0.29239 0.7611 0.0
C411 C 0.14175 0.28428 0.7533 0.0
C412 C 0.13984 0.28154 0.73279 0.0
C413 C 0.23003 0.37588 0.71558 0.0
H414 H 0.19615 0.24836 0.63528 0.0
H415 H 0.18671 0.27093 0.66152 0.0
H416 H 0.24759 0.28121 0.67749 0.0
H417 H 0.25705 0.25922 0.65085 0.0
H418 H 0.18674 0.27323 0.69769 0.0
H419 H 0.23348 0.31315 0.68089 0.0
H420 H 0.19664 0.32754 0.72975 0.0
H421 H 0.20313 0.35882 0.71331 0.0
H422 H 0.25627 0.32761 0.70571 0.0
H423 H 0.27561 0.35796 0.71058 0.0
H424 H 0.15343 0.28445 0.70461 0.0
H425 H 0.18841 0.30361 0.75513 0.0
H426 H 0.22251 0.38928 0.71812 0.0
H427 H 0.12644 0.27518 0.72637 0.0
H428 H 0.16126 0.29484 0.77683 0.0
C429 C 0.84187 0.24143 0.75821 0.0
C430 C 0.85448 0.22665 0.76334 0.0
C431 C 0.82538 0.23713 0.74643 0.0
C432 C 0.8211 0.21795 0.73955 0.0
C433 C 0.8336 0.20314 0.74484 0.0
C434 C 0.85012 0.20745 0.75659 0.0
C435 C 0.80385 0.21348 0.72661 0.0
C436 C 0.79941 0.22598 0.71124 0.0
C437 C 0.78327 0.22182 0.69877 0.0
C438 C 0.77155 0.20488 0.70172 0.0
C439 C 0.77565 0.19224 0.7171 0.0
C440 C 0.79185 0.19668 0.72948 0.0
C441 C 0.76295 0.17448 0.72023 0.0
C442 C 0.74253 0.175 0.71782 0.0
C443 C 0.77112 0.15682 0.72545 0.0
C444 C 0.75917 0.14008 0.72808 0.0
C445 C 0.73878 0.14056 0.72542 0.0
C446 C 0.7786 0.23522 0.68269 0.0
C447 C 0.77939 0.25551 0.68612 0.0
C448 C 0.77315 0.22784 0.66389 0.0
C449 C 0.76854 0.24048 0.64885 0.0
C450 C 0.76925 0.26076 0.6523 0.0
C451 C 0.77475 0.26814 0.67109 0.0
C452 C 0.73061 0.15824 0.72028 0.0
H453 H 0.84492 0.25639 0.76305 0.0
H454 H 0.81591 0.24882 0.74277 0.0
H455 H 0.83079 0.18825 0.73962 0.0
H456 H 0.85945 0.19572 0.76047 0.0
H457 H 0.80884 0.23875 0.70867 0.0
H458 H 0.79489 0.18731 0.74167 0.0
H459 H 0.75915 0.20157 0.69204 0.0
H460 H 0.73569 0.18841 0.71409 0.0
H461 H 0.7868 0.15584 0.72724 0.0
H462 H 0.76593 0.12678 0.73228 0.0
H463 H 0.78337 0.26163 0.7005 0.0
H464 H 0.7726 0.21228 0.66075 0.0
H465 H 0.715 0.1591 0.71787 0.0
H466 H 0.77562 0.28371 0.67414 0.0
H467 H 0.7642 0.23435 0.63457 0.0
C468 C 0.52928 0.58698 0.48202 0.0
C469 C 0.52415 0.60559 0.48867 0.0
C470 C 0.53168 0.57204 0.49535 0.0
C471 C 0.52909 0.57541 0.51566 0.0
C472 C 0.52397 0.59406 0.52231 0.0
C473 C 0.52149 0.60898 0.50895 0.0
C474 C 0.53176 0.55952 0.52983 0.0
C475 C 0.54714 0.54673 0.52743 0.0
C476 C 0.5497 0.53152 0.5406 0.0
C477 C 0.53662 0.52914 0.55631 0.0
C478 C 0.52128 0.54188 0.55902 0.0
C479 C 0.51895 0.55705 0.54577 0.0
C480 C 0.50765 0.53936 0.57571 0.0
C481 C 0.49875 0.52099 0.57937 0.0
C482 C 0.50352 0.55529 0.58813 0.0
C483 C 0.49087 0.55285 0.60405 0.0
C484 C 0.4819 0.53451 0.60764 0.0
C485 C 0.56626 0.51839 0.53808 0.0
C486 C 0.57106 0.51112 0.51929 0.0
C487 C 0.57762 0.51337 0.55438 0.0
C488 C 0.59361 0.50154 0.5519 0.0
C489 C 0.59853 0.49442 0.53308 0.0
C490 C 0.587 0.49923 0.51682 0.0
C491 C 0.48587 0.51862 0.59511 0.0
H492 H 0.53116 0.58387 0.46644 0.0
H493 H 0.53531 0.55776 0.48972 0.0
H494 H 0.52215 0.59722 0.53787 0.0
H495 H 0.51778 0.62326 0.51452 0.0
H496 H 0.55749 0.54893 0.51556 0.0
H497 H 0.50682 0.5666 0.54763 0.0
H498 H 0.53842 0.5174 0.56652 0.0
H499 H 0.50162 0.50852 0.56992 0.0
H500 H 0.5103 0.56957 0.58566 0.0
H501 H 0.48795 0.56534 0.61346 0.0
H502 H 0.56246 0.51459 0.50648 0.0
H503 H 0.57438 0.51889 0.56902 0.0
H504 H 0.47921 0.50431 0.59767 0.0
H505 H 0.59053 0.4941 0.50211 0.0
H506 H 0.60212 0.49792 0.56473 0.0
C507 C 0.47449 0.48178 0.91825 0.0
C508 C 0.48133 0.4839 0.89887 0.0
C509 C 0.48753 0.47876 0.93372 0.0
C510 C 0.50769 0.4781 0.93016 0.0
C511 C 0.5146 0.4803 0.91089 0.0
C512 C 0.50156 0.48301 0.89539 0.0
C513 C 0.52158 0.47512 0.9465 0.0
C514 C 0.51845 0.45959 0.95936 0.0
C515 C 0.53195 0.45631 0.97449 0.0
C516 C 0.54851 0.46898 0.97685 0.0
C517 C 0.55171 0.48475 0.96424 0.0
C518 C 0.53818 0.48763 0.94903 0.0
C519 C 0.56909 0.49827 0.96696 0.0
C520 C 0.57532 0.50441 0.98595 0.0
C521 C 0.57946 0.5053 0.95058 0.0
C522 C 0.59558 0.51828 0.95312 0.0
C523 C 0.60179 0.52446 0.97211 0.0
C524 C 0.52896 0.4394 0.98755 0.0
C525 C 0.51032 0.43463 0.99511 0.0
C526 C 0.54468 0.42777 0.99233 0.0
C527 C 0.5418 0.41162 0.0043 0.0
C528 C 0.52314 0.40678 0.01178 0.0
C529 C 0.50745 0.4185 0.00712 0.0
C530 C 0.59151 0.51732 0.9885 0.0
H531 H 0.45907 0.4827 0.92156 0.0
H532 H 0.4819 0.47726 0.94852 0.0
H533 H 0.53008 0.4796 0.90777 0.0
H534 H 0.50735 0.48415 0.88063 0.0
H535 H 0.50584 0.44968 0.95713 0.0
H536 H 0.54029 0.4999 0.93936 0.0
H537 H 0.55896 0.46651 0.9885 0.0
H538 H 0.56754 0.49945 -0.00112 0.0
H539 H 0.57519 0.50068 0.93576 0.0
H540 H 0.60304 0.52366 0.94017 0.0
H541 H 0.49796 0.44342 0.99181 0.0
H542 H 0.55917 0.43096 0.98657 0.0
H543 H 0.59605 0.5216 0.00333 0.0
H544 H 0.49286 0.41504 0.01251 0.0
H545 H 0.55421 0.40297 0.00779 0.0
C546 C 0.63698 0.20763 0.26042 0.0
C547 C 0.6354 0.22486 0.24984 0.0
C548 C 0.65233 0.20576 0.27384 0.0
C549 C 0.66614 0.22123 0.27713 0.0
C550 C 0.66439 0.23856 0.26676 0.0
C551 C 0.64924 0.2403 0.25311 0.0
C552 C 0.68257 0.21918 0.2911 0.0
C553 C 0.69433 0.20294 0.28966 0.0
C554 C 0.71038 0.20118 0.30241 0.0
C555 C 0.7143 0.21569 0.31696 0.0
C556 C 0.70251 0.23192 0.31877 0.0
C557 C 0.68674 0.23363 0.30564 0.0
C558 C 0.70669 0.247 0.33441 0.0
C559 C 0.71204 0.24153 0.35347 0.0
C560 C 0.70552 0.26694 0.3304 0.0
C561 C 0.70972 0.28108 0.34511 0.0
C562 C 0.71526 0.27557 0.3641 0.0
C563 C 0.72334 0.18446 0.30024 0.0
C564 C 0.71543 0.16544 0.29695 0.0
C565 C 0.74378 0.18749 0.30124 0.0
C566 C 0.75605 0.17185 0.29897 0.0
C567 C 0.74816 0.15282 0.29565 0.0
C568 C 0.72771 0.14978 0.2947 0.0
C569 C 0.71631 0.25565 0.36813 0.0
H570 H 0.62652 0.19551 0.25805 0.0
H571 H 0.65335 0.19229 0.28173 0.0
H572 H 0.67495 0.25063 0.26898 0.0
H573 H 0.64824 0.25377 0.24519 0.0
H574 H 0.69139 0.19201 0.27813 0.0
H575 H 0.6774 0.24597 0.30698 0.0
H576 H 0.72664 0.21437 0.32687 0.0
H577 H 0.71273 0.22629 0.35714 0.0
H578 H 0.70168 0.27163 0.3158 0.0
H579 H 0.70898 0.29634 0.34154 0.0
H580 H 0.69972 0.16264 0.29634 0.0
H581 H 0.75033 0.20202 0.30343 0.0
H582 H 0.7202 0.25096 0.38273 0.0
H583 H 0.72119 0.13525 0.29241 0.0
H584 H 0.77175 0.17472 0.29944 0.0
C585 C 0.47551 0.10988 0.994 0.0
C586 C 0.4795 0.1085 0.01429 0.0
C587 C 0.47197 0.0931 0.98231 0.0
C588 C 0.47189 0.07462 0.99072 0.0
C589 C 0.47538 0.07313 0.01099 0.0
C590 C 0.47934 0.08987 0.02263 0.0
C591 C 0.46877 0.05689 0.97823 0.0
C592 C 0.48104 0.05365 0.96214 0.0
C593 C 0.47856 0.03667 0.95034 0.0
C594 C 0.46337 0.02305 0.95465 0.0
C595 C 0.45074 0.02624 0.97059 0.0
C596 C 0.45371 0.04317 0.98245 0.0
C597 C 0.43424 0.01211 0.9746 0.0
C598 C 0.42322 0.00338 0.95898 0.0
C599 C 0.42918 0.00748 0.99404 0.0
C600 C 0.41335 0.99458 0.99776 0.0
C601 C 0.40228 0.98592 0.98214 0.0
C602 C 0.49205 0.0331 0.93372 0.0
C603 C 0.49789 0.04835 0.92128 0.0
C604 C 0.49952 0.01454 0.93043 0.0
C605 C 0.51271 0.01135 0.91517 0.0
C606 C 0.51869 0.02665 0.90285 0.0
C607 C 0.51107 0.04516 0.90602 0.0
C608 C 0.40748 0.9904 0.9627 0.0
H609 H 0.47504 0.12393 0.9871 0.0
H610 H 0.46915 0.09455 0.9667 0.0
H611 H 0.47556 0.05896 0.01771 0.0
H612 H 0.48269 0.08814 0.03809 0.0
H613 H 0.49291 0.06413 0.9592 0.0
H614 H 0.444 0.04601 0.99465 0.0
H615 H 0.46136 0.00995 0.94554 0.0
H616 H 0.42654 0.00679 0.94383 0.0
H617 H 0.43749 0.01376 0.00641 0.0
H618 H 0.40963 0.99162 0.01292 0.0
H619 H 0.49224 0.06276 0.92331 0.0
H620 H 0.49545 0.00254 0.93988 0.0
H621 H 0.39943 0.9838 0.95031 0.0
H622 H 0.51553 0.05729 0.89689 0.0
H623 H 0.51817 0.99687 0.91296 0.0
C624 C 0.22126 0.91841 0.01655 0.0
O625 O 0.2345 0.92313 0.00335 0.0
O626 O 0.23943 0.8691 0.99708 0.0
Zn627 Zn 0.24578 0.88589 0.02114 0.0
O628 O 0.27038 0.90249 0.01705 0.0
C629 C 0.25843 0.85272 0.04183 0.0
O630 O 0.26483 0.84801 0.02423 0.0
O631 O 0.22317 0.90304 0.02638 0.0
C632 C 0.28498 0.89609 0.00778 0.0
O633 O 0.28412 0.87811 0.0007 0.0
C634 C 0.24197 0.87495 0.97961 0.0
O635 O 0.24904 0.89276 0.97684 0.0
O636 O 0.24962 0.86855 0.04422 0.0
C637 C 0.14226 0.45787 0.27206 0.0
O638 O 0.12688 0.45891 0.28349 0.0
O639 O 0.10929 0.49572 0.2782 0.0
Zn640 Zn 0.12738 0.49287 0.25519 0.0
O641 O 0.14361 0.51755 0.25183 0.0
C642 C 0.09885 0.50026 0.22615 0.0
O643 O 0.097 0.51575 0.2376 0.0
O644 O 0.14522 0.47071 0.25908 0.0
C645 C 0.15748 0.51785 0.23946 0.0
O646 O 0.16083 0.50192 0.22915 0.0
C647 C 0.1131 0.50773 0.29234 0.0
O648 O 0.12941 0.51854 0.29204 0.0
O649 O 0.11129 0.48785 0.23075 0.0
C650 C 0.79781 0.61839 0.0035 0.0
O651 O 0.80091 0.63524 0.99499 0.0
O652 O 0.763 0.64533 0.97872 0.0
Zn653 Zn 0.75779 0.63001 0.00316 0.0
O654 O 0.73352 0.61271 -0.00035 0.0
C655 C 0.74436 0.66375 0.02345 0.0
O656 O 0.73748 0.66719 0.00582 0.0
O657 O 0.78051 0.61324 0.00851 0.0
C658 C 0.71866 0.61791 0.99005 0.0
O659 O 0.71902 0.63517 0.98205 0.0
C660 C 0.76102 0.63779 0.96154 0.0
O661 O 0.75545 0.6193 0.95949 0.0
O662 O 0.75393 0.6485 0.026 0.0
C663 C 0.83991 0.04339 0.27201 0.0
O664 O 0.83763 0.02671 0.28104 0.0
O665 O 0.88616 0.0177 0.27818 0.0
Zn666 Zn 0.87016 0.02259 0.25394 0.0
O667 O 0.85211 -0.00075 0.24819 0.0
C668 C 0.90302 0.01883 0.22768 0.0
O669 O 0.90774 0.00537 0.24011 0.0
O670 O 0.85348 0.04538 0.25941 0.0
C671 C 0.8514 0.98985 0.23186 0.0
O672 O 0.86309 0.99529 0.21753 0.0
C673 C 0.89102 0.0006 0.28241 0.0
O674 O 0.88558 0.98585 0.27069 0.0
O675 O 0.88765 0.02824 0.23072 0.0
C676 C 0.29905 0.1168 0.50226 0.0
O677 O 0.30193 0.13369 0.49376 0.0
O678 O 0.26383 0.14495 0.47944 0.0
Zn679 Zn 0.25893 0.12828 0.503 0.0
O680 O 0.23486 0.11103 0.49843 0.0
C681 C 0.26415 0.16147 0.52944 0.0
O682 O 0.27771 0.16665 0.51673 0.0
O683 O 0.28188 0.11159 0.50762 0.0
C684 C 0.21987 0.11739 0.48992 0.0
O685 O 0.22023 0.13551 0.48403 0.0
C686 C 0.26212 0.13802 0.46199 0.0
O687 O 0.25709 0.11947 0.45924 0.0
O688 O 0.25446 0.14544 0.52667 0.0
C689 C 0.35153 0.55571 0.77455 0.0
O690 O 0.36534 0.55323 0.7877 0.0
O691 O 0.38379 0.51742 0.77965 0.0
Zn692 Zn 0.36716 0.52132 0.75556 0.0
O693 O 0.35005 0.49733 0.75036 0.0
C694 C 0.39269 0.51231 0.72342 0.0
O695 O 0.38981 0.49453 0.72989 0.0
O696 O 0.34985 0.54401 0.75981 0.0
C697 C 0.33607 0.49772 0.73797 0.0
O698 O 0.33315 0.51395 0.72866 0.0
C699 C 0.39122 0.50109 0.7828 0.0
O700 O 0.38784 0.48652 0.77023 0.0
O701 O 0.38436 0.52631 0.73207 0.0
C702 C 0.71715 0.41405 0.51121 0.0
O703 O 0.72866 0.41754 0.49614 0.0
O704 O 0.73849 0.36694 0.4933 0.0
Zn705 Zn 0.7442 0.38407 0.51718 0.0
O706 O 0.768 0.40145 0.51247 0.0
C707 C 0.73766 0.35243 0.54343 0.0
O708 O 0.72251 0.34886 0.5317 0.0
O709 O 0.72101 0.40027 0.52261 0.0
C710 C 0.78506 0.39552 0.51576 0.0
O711 O 0.78698 0.37793 0.52258 0.0
C712 C 0.74454 0.37126 0.47622 0.0
O713 O 0.75496 0.38755 0.47387 0.0
O714 O 0.74905 0.3671 0.54024 0.0
C715 C 0.65958 0.96623 0.77325 0.0
O716 O 0.66289 0.9825 0.78352 0.0
O717 O 0.61248 0.99229 0.78094 0.0
Zn718 Zn 0.62939 0.98855 0.75714 0.0
O719 O 0.6474 0.01218 0.75347 0.0
C720 C 0.59795 0.99561 0.73082 0.0
O721 O 0.59551 0.00998 0.74356 0.0
O722 O 0.64562 0.96525 0.76079 0.0
C723 C 0.64968 0.02046 0.73703 0.0
O724 O 0.63999 0.01349 0.72148 0.0
C725 C 0.61536 0.00628 0.79331 0.0
O726 O 0.63021 0.01873 0.79086 0.0
O727 O 0.61182 0.98417 0.73354 0.0
C728 C 0.00309 0.21424 0.88849 0.0
O729 O 0.99345 0.21132 0.87181 0.0
O730 O 0.97961 0.24839 0.86002 0.0
Zn731 Zn 0.00371 0.25432 0.87645 0.0
O732 O -0.00085 0.2778 0.8938 0.0
C733 C 0.03049 0.24845 0.84442 0.0
O734 O 0.01939 0.23259 0.8413 0.0
O735 O 0.00902 0.23146 0.89344 0.0
C736 C 0.00518 0.29483 0.88908 0.0
O737 O 0.01472 0.29714 0.8725 0.0
C738 C 0.97542 0.25896 0.84559 0.0
O739 O 0.98707 0.27401 0.84149 0.0
O740 O 0.02666 0.25981 0.85878 0.0
C741 C 0.50567 0.71397 0.39305 0.0
O742 O 0.49689 0.71047 0.376 0.0
O743 O 0.48243 0.74722 0.36309 0.0
Zn744 Zn 0.50626 0.7536 0.37985 0.0
O745 O 0.50184 0.77779 0.39634 0.0
C746 C 0.52701 0.76749 0.34632 0.0
O747 O 0.50982 0.7745 0.34256 0.0
O748 O 0.51113 0.73138 0.39778 0.0
C749 C 0.51295 0.79308 0.39607 0.0
O750 O 0.52839 0.79346 0.38464 0.0
C751 C 0.46536 0.75192 0.36813 0.0
O752 O 0.46297 0.76111 0.38507 0.0
O753 O 0.52923 0.75782 0.36188 0.0
C754 C 0.00518 0.80071 0.61016 0.0
O755 O 0.99739 0.80313 0.62765 0.0
O756 O 0.97961 0.76492 0.6368 0.0
Zn757 Zn 0.0045 0.76079 0.62187 0.0
O758 O 0.00119 0.7365 0.60476 0.0
C759 C 0.02497 0.74992 0.65709 0.0
O760 O 0.00778 0.74196 0.6614 0.0
O761 O 0.00967 0.7837 0.60451 0.0
C762 C 0.01088 0.72131 0.6072 0.0
O763 O 0.02403 0.72119 0.62137 0.0
C764 C 0.9682 0.75083 0.64182 0.0
O765 O 0.9726 0.73288 0.63707 0.0
O766 O 0.02705 0.75881 0.64095 0.0
C767 C 0.49776 0.28816 0.09453 0.0
O768 O 0.48208 0.27686 0.09107 0.0
O769 O 0.47729 0.26644 0.13968 0.0
Zn770 Zn 0.50182 0.26093 0.12486 0.0
O771 O 0.49682 0.23774 0.10665 0.0
C772 C 0.52725 0.23939 0.15038 0.0
O773 O 0.51712 0.22405 0.14344 0.0
O774 O 0.50905 0.28419 0.10869 0.0
C775 C 0.51073 0.22873 0.09877 0.0
O776 O 0.52893 0.23455 0.10265 0.0
C777 C 0.46935 0.25348 0.15044 0.0
O778 O 0.47722 0.23638 0.15142 0.0
O779 O 0.52335 0.25626 0.14444 0.0
C780 C 0.20622 0.80886 0.88646 0.0
C781 C 0.21993 0.79476 0.88213 0.0
C782 C 0.20933 0.82227 0.90217 0.0
C783 C 0.22663 0.82164 0.91367 0.0
C784 C 0.24058 0.80753 0.90925 0.0
C785 C 0.23702 0.79419 0.89358 0.0
C786 C 0.19403 0.83698 0.90659 0.0
C787 C 0.25929 0.80653 0.92108 0.0
C788 C 0.24349 0.86665 0.94361 0.0
C789 C 0.23759 0.86158 0.96264 0.0
C790 C 0.23992 0.85382 0.92749 0.0
C791 C 0.23007 0.83559 0.93048 0.0
C792 C 0.22381 0.83051 0.94959 0.0
C793 C 0.22773 0.84353 0.96547 0.0
C794 C 0.24694 0.85965 0.90732 0.0
C795 C 0.21311 0.81126 0.9533 0.0
H796 H 0.19291 0.80919 0.87774 0.0
H797 H 0.24774 0.78345 0.89009 0.0
H798 H 0.1885 0.8351 0.92179 0.0
H799 H 0.2006 0.85199 0.90582 0.0
H800 H 0.18142 0.83559 0.89618 0.0
H801 H 0.26877 0.79487 0.91553 0.0
H802 H 0.26766 0.82071 0.92062 0.0
H803 H 0.25583 0.80377 0.93674 0.0
H804 H 0.25116 0.88054 0.94133 0.0
H805 H 0.22305 0.83954 0.98012 0.0
H806 H 0.23443 0.85939 0.89682 0.0
H807 H 0.25746 0.84901 0.90169 0.0
H808 H 0.25418 0.87444 0.90745 0.0
H809 H 0.19979 0.80972 0.94388 0.0
H810 H 0.20871 0.80978 0.96895 0.0
H811 H 0.22257 0.79906 0.94929 0.0
C812 C 0.02868 0.5304 0.36915 0.0
C813 C 0.03101 0.52064 0.38691 0.0
C814 C 0.04198 0.52823 0.35368 0.0
C815 C 0.05793 0.51594 0.35599 0.0
C816 C 0.06026 0.5059 0.37378 0.0
C817 C 0.0468 0.50841 0.38905 0.0
C818 C 0.03901 0.53915 0.33489 0.0
C819 C 0.07708 0.49265 0.37676 0.0
C820 C 0.0825 0.49709 0.30979 0.0
C821 C 0.09916 0.50966 0.30879 0.0
C822 C 0.06902 0.49889 0.32515 0.0
C823 C 0.07223 0.51367 0.3398 0.0
C824 C 0.08903 0.52637 0.33892 0.0
C825 C 0.10233 0.52419 0.32344 0.0
C826 C 0.05131 0.48501 0.32568 0.0
C827 C 0.09288 0.54236 0.35426 0.0
H828 H 0.01636 0.53966 0.36729 0.0
H829 H 0.04885 0.50105 0.40283 0.0
H830 H 0.05203 0.54885 0.33205 0.0
H831 H 0.03742 0.52872 0.32221 0.0
H832 H 0.02586 0.54815 0.33545 0.0
H833 H 0.07658 0.48558 0.39133 0.0
H834 H 0.07686 0.4811 0.36506 0.0
H835 H 0.0912 0.50109 0.37556 0.0
H836 H 0.07997 0.48578 0.29856 0.0
H837 H 0.11514 0.53398 0.32276 0.0
H838 H 0.03773 0.49329 0.325 0.0
H839 H 0.05107 0.47708 0.33975 0.0
H840 H 0.05108 0.47415 0.31328 0.0
H841 H 0.08059 0.55243 0.35444 0.0
H842 H 0.10669 0.55095 0.35152 0.0
H843 H 0.09374 0.53601 0.36911 0.0
C844 C 0.79077 0.69885 0.86633 0.0
C845 C 0.77716 0.7132 0.86293 0.0
C846 C 0.78831 0.6858 0.88182 0.0
C847 C 0.77169 0.68693 0.89404 0.0
C848 C 0.7576 0.70099 0.89038 0.0
C849 C 0.76057 0.71404 0.87496 0.0
C850 C 0.80371 0.67108 0.88537 0.0
C851 C 0.7396 0.70253 0.90302 0.0
C852 C 0.75718 0.64366 0.92552 0.0
C853 C 0.76428 0.64998 0.94409 0.0
C854 C 0.75952 0.65552 0.90903 0.0
C855 C 0.76942 0.67398 0.91118 0.0
C856 C 0.77694 0.68026 0.92983 0.0
C857 C 0.77415 0.66824 0.94609 0.0
C858 C 0.7511 0.64847 0.88941 0.0
C859 C 0.78782 0.69973 0.93264 0.0
H860 H 0.80344 0.69785 0.8569 0.0
H861 H 0.7501 0.72522 0.87265 0.0
H862 H 0.81035 0.67367 0.9002 0.0
H863 H 0.79694 0.65611 0.88509 0.0
H864 H 0.81554 0.67179 0.87423 0.0
H865 H 0.72945 0.71342 0.89746 0.0
H866 H 0.7316 0.68815 0.90362 0.0
H867 H 0.74397 0.70679 0.91833 0.0
H868 H 0.74945 0.62961 0.92391 0.0
H869 H 0.77978 0.67314 0.9604 0.0
H870 H 0.7628 0.64822 0.87817 0.0
H871 H 0.74007 0.65869 0.88431 0.0
H872 H 0.74403 0.63364 0.89015 0.0
H873 H 0.80046 0.70071 0.92248 0.0
H874 H 0.79328 0.70217 0.94798 0.0
H875 H 0.77806 0.71168 0.92897 0.0
C876 C 0.9481 0.97629 0.38181 0.0
C877 C 0.96716 0.98474 0.3816 0.0
C878 C 0.93503 0.97876 0.36613 0.0
C879 C 0.94129 0.98958 0.34964 0.0
C880 C 0.96051 0.99803 0.34924 0.0
C881 C 0.97311 0.99571 0.36531 0.0
C882 C 0.91453 0.96979 0.36718 0.0
C883 C 0.96779 0.00947 0.3318 0.0
C884 C 0.91451 0.98084 0.30093 0.0
C885 C 0.90335 0.99747 0.29989 0.0
C886 C 0.9269 0.97805 0.31708 0.0
C887 C 0.92779 0.99204 0.33273 0.0
C888 C 0.91619 0.00863 0.33198 0.0
C889 C 0.90426 0.01126 0.31545 0.0
C890 C 0.93936 0.96038 0.31719 0.0
C891 C 0.91646 0.02364 0.34859 0.0
H892 H 0.94342 0.96754 0.39414 0.0
H893 H 0.98763 0.00265 0.36513 0.0
H894 H 0.90366 0.9812 0.36538 0.0
H895 H 0.91207 0.95895 0.35497 0.0
H896 H 0.91172 0.96241 0.38136 0.0
H897 H 0.98333 0.01462 0.33354 0.0
H898 H 0.96635 0.00031 0.31815 0.0
H899 H 0.95873 0.02233 0.32975 0.0
H900 H 0.91394 0.97021 0.28887 0.0
H901 H 0.89551 0.02406 0.31476 0.0
H902 H 0.93625 0.95171 0.33049 0.0
H903 H 0.95508 0.96508 0.31782 0.0
H904 H 0.93683 0.9508 0.30394 0.0
H905 H 0.91293 0.01649 0.36271 0.0
H906 H 0.90586 0.03521 0.34615 0.0
H907 H 0.93133 0.03061 0.35019 0.0
C908 C 0.22421 0.23942 0.60617 0.0
C909 C 0.23314 0.23866 0.62477 0.0
C910 C 0.22957 0.2269 0.5907 0.0
C911 C 0.24422 0.21331 0.59393 0.0
C912 C 0.25333 0.21249 0.61265 0.0
C913 C 0.24768 0.22519 0.62786 0.0
C914 C 0.21956 0.22822 0.57091 0.0
C915 C 0.26896 0.19813 0.61665 0.0
C916 C 0.24472 0.16903 0.55955 0.0
C917 C 0.25958 0.17446 0.54634 0.0
C918 C 0.23971 0.18146 0.57522 0.0
C919 C 0.24981 0.19976 0.57775 0.0
C920 C 0.26499 0.20524 0.56465 0.0
C921 C 0.2697 0.19252 0.54908 0.0
C922 C 0.22345 0.17511 0.58892 0.0
C923 C 0.2761 0.22465 0.56693 0.0
H924 H 0.21316 0.25 0.60363 0.0
H925 H 0.25446 0.22438 0.64228 0.0
H926 H 0.23058 0.23148 0.55938 0.0
H927 H 0.21216 0.214 0.56684 0.0
H928 H 0.20853 0.23966 0.57081 0.0
H929 H 0.27482 0.19957 0.63193 0.0
H930 H 0.26292 0.18301 0.61422 0.0
H931 H 0.28126 0.20032 0.60623 0.0
H932 H 0.23682 0.1551 0.55756 0.0
H933 H 0.28121 0.19682 0.53896 0.0
H934 H 0.21143 0.18548 0.58826 0.0
H935 H 0.22891 0.17532 0.60435 0.0
H936 H 0.21734 0.16023 0.58519 0.0
H937 H 0.26586 0.23669 0.56556 0.0
H938 H 0.28778 0.22654 0.55575 0.0
H939 H 0.28287 0.22605 0.58181 0.0
C940 C 0.47435 0.53848 0.64343 0.0
C941 C 0.46853 0.53189 0.62453 0.0
C942 C 0.46205 0.53563 0.65967 0.0
C943 C 0.44338 0.52624 0.65683 0.0
C944 C 0.43731 0.51985 0.6377 0.0
C945 C 0.45005 0.52261 0.62178 0.0
C946 C 0.46915 0.54236 0.67989 0.0
C947 C 0.41739 0.51006 0.63406 0.0
C948 C 0.41856 0.50177 0.70017 0.0
C949 C 0.40561 0.51595 0.7064 0.0
C950 C 0.43106 0.50502 0.68416 0.0
C951 C 0.43035 0.52274 0.67394 0.0
C952 C 0.41721 0.53705 0.68006 0.0
C953 C 0.40509 0.53355 0.69633 0.0
C954 C 0.4451 0.48953 0.67825 0.0
C955 C 0.41585 0.556 0.66933 0.0
H956 H 0.48873 0.54551 0.64555 0.0
H957 H 0.44549 0.51769 0.60712 0.0
H958 H 0.4589 0.5528 0.6864 0.0
H959 H 0.46947 0.52972 0.6898 0.0
H960 H 0.48402 0.5495 0.67956 0.0
H961 H 0.41465 0.50658 0.6182 0.0
H962 H 0.41606 0.49634 0.64237 0.0
H963 H 0.4058 0.51964 0.63948 0.0
H964 H 0.41912 0.48819 0.70797 0.0
H965 H 0.39504 0.54452 0.70103 0.0
H966 H 0.46036 0.49572 0.67875 0.0
H967 H 0.44207 0.48446 0.66287 0.0
H968 H 0.44409 0.47672 0.68797 0.0
H969 H 0.43023 0.56411 0.66977 0.0
H970 H 0.40465 0.5655 0.67577 0.0
H971 H 0.41212 0.55298 0.65359 0.0
C972 C 0.77128 0.27119 0.61722 0.0
C973 C 0.76424 0.27419 0.63636 0.0
C974 C 0.76677 0.28384 0.60205 0.0
C975 C 0.75493 0.29987 0.60614 0.0
C976 C 0.74771 0.30294 0.6254 0.0
C977 C 0.75246 0.29006 0.64029 0.0
C978 C 0.77479 0.28015 0.58169 0.0
C979 C 0.73498 0.31984 0.63028 0.0
C980 C 0.75839 0.34273 0.57178 0.0
C981 C 0.7418 0.33922 0.55975 0.0
C982 C 0.76278 0.33008 0.587 0.0
C983 C 0.75027 0.31355 0.59027 0.0
C984 C 0.73342 0.30999 0.5783 0.0
C985 C 0.72939 0.32287 0.56317 0.0
C986 C 0.78087 0.33434 0.59948 0.0
C987 C 0.71974 0.2925 0.58139 0.0
H988 H 0.78059 0.25908 0.61417 0.0
H989 H 0.74677 0.29229 0.655 0.0
H990 H 0.7626 0.27844 0.57084 0.0
H991 H 0.78417 0.29285 0.5772 0.0
H992 H 0.78356 0.26688 0.58089 0.0
H993 H 0.73047 0.32012 0.64598 0.0
H994 H 0.74297 0.33381 0.62712 0.0
H995 H 0.72164 0.319 0.62088 0.0
H996 H 0.76807 0.35532 0.56924 0.0
H997 H 0.71654 0.32006 0.55395 0.0
H998 H 0.79085 0.32203 0.59819 0.0
H999 H 0.77679 0.33579 0.61523 0.0
H1000 H 0.78898 0.34792 0.59515 0.0
H1001 H 0.72781 0.27889 0.57945 0.0
H1002 H 0.70712 0.29196 0.57098 0.0
H1003 H 0.71408 0.29276 0.59667 0.0
C1004 C 0.54396 0.99391 0.62644 0.0
C1005 C 0.52626 0.98284 0.62637 0.0
C1006 C 0.55546 0.99612 0.64358 0.0
C1007 C 0.54909 0.98701 0.66105 0.0
C1008 C 0.53119 0.9759 0.66112 0.0
C1009 C 0.51997 0.97396 0.64377 0.0
C1010 C 0.57442 0.00817 0.64298 0.0
C1011 C 0.52399 0.96591 0.67947 0.0
C1012 C 0.58764 0.97766 0.69977 0.0
C1013 C 0.58515 0.99316 0.71321 0.0
C1014 C 0.57587 0.97539 0.68282 0.0
C1015 C 0.56131 0.98897 0.67921 0.0
C1016 C 0.55862 0.00457 0.69277 0.0
C1017 C 0.57057 0.00647 0.70963 0.0
C1018 C 0.57912 0.95854 0.66869 0.0
C1019 C 0.54324 0.01934 0.68937 0.0
H1020 H 0.54874 0.00103 0.6131 0.0
H1021 H 0.5064 0.96521 0.64372 0.0
H1022 H 0.57416 0.02029 0.65405 0.0
H1023 H 0.58685 -0.00094 0.64687 0.0
H1024 H 0.57719 0.01443 0.62825 0.0
H1025 H 0.50961 0.95803 0.67714 0.0
H1026 H 0.53479 0.95533 0.6843 0.0
H1027 H 0.52256 0.9768 0.69164 0.0
H1028 H 0.59885 0.9673 0.70243 0.0
H1029 H 0.56855 0.01849 0.71994 0.0
H1030 H 0.58323 0.96414 0.65401 0.0
H1031 H 0.56537 0.94953 0.66673 0.0
H1032 H 0.5908 0.94904 0.67384 0.0
H1033 H 0.54614 0.0269 0.67534 0.0
H1034 H 0.54283 0.03046 0.70148 0.0
H1035 H 0.52857 0.01188 0.68799 0.0
C1036 C 0.89014 0.22332 0.77058 0.0
C1037 C 0.87222 0.23131 0.77554 0.0
C1038 C 0.90707 0.22774 0.78184 0.0
C1039 C 0.90604 0.24046 0.79846 0.0
C1040 C 0.88799 0.24856 0.80357 0.0
C1041 C 0.87129 0.24389 0.79204 0.0
C1042 C 0.92608 0.21887 0.77592 0.0
C1043 C 0.88632 0.26211 0.82125 0.0
C1044 C 0.94532 0.23815 0.83797 0.0
C1045 C 0.95767 0.25427 0.83353 0.0
C1046 C 0.92846 0.2335 0.82669 0.0
C1047 C 0.92384 0.24524 0.81056 0.0
C1048 C 0.93624 0.26152 0.80597 0.0
C1049 C 0.95301 0.26585 0.81752 0.0
C1050 C 0.91558 0.21601 0.83201 0.0
C1051 C 0.93177 0.27436 0.78886 0.0
H1052 H 0.89099 0.2138 0.75768 0.0
H1053 H 0.85743 0.24992 0.79607 0.0
H1054 H 0.93725 0.23058 0.77287 0.0
H1055 H 0.93178 0.21026 0.78819 0.0
H1056 H 0.92439 0.2092 0.76263 0.0
H1057 H 0.87123 0.26725 0.82317 0.0
H1058 H 0.89065 0.25459 0.83481 0.0
H1059 H 0.89649 0.27501 0.81973 0.0
H1060 H 0.94881 0.22911 0.85031 0.0
H1061 H 0.96248 0.27832 0.81398 0.0
H1062 H 0.9145 0.20548 0.81938 0.0
H1063 H 0.90054 0.22062 0.83522 0.0
H1064 H 0.9212 0.20841 0.84504 0.0
H1065 H 0.9311 0.26554 0.77497 0.0
H1066 H 0.9429 0.28646 0.78725 0.0
H1067 H 0.91722 0.28069 0.79087 0.0
C1068 C 0.50191 0.87868 0.47601 0.0
C1069 C 0.48845 0.89234 0.47017 0.0
C1070 C 0.50584 0.8625 0.46392 0.0
C1071 C 0.49616 0.86002 0.44549 0.0
C1072 C 0.48258 0.87379 0.43949 0.0
C1073 C 0.47883 0.88977 0.45195 0.0
C1074 C 0.52028 0.84802 0.4709 0.0
C1075 C 0.4721 0.87169 0.41987 0.0
C1076 C 0.51969 0.82777 0.40699 0.0
C1077 C 0.50852 0.81028 0.40855 0.0
C1078 C 0.51569 0.84415 0.41879 0.0
C1079 C 0.50024 0.84296 0.43254 0.0
C1080 C 0.48887 0.82537 0.43416 0.0
C1081 C 0.49311 0.80925 0.4221 0.0
C1082 C 0.52805 0.86272 0.41659 0.0
C1083 C 0.47234 0.82353 0.44875 0.0
H1084 H 0.50917 0.88049 0.49021 0.0
H1085 H 0.46855 0.90042 0.44733 0.0
H1086 H 0.513 0.83331 0.47165 0.0
H1087 H 0.53246 0.847 0.46026 0.0
H1088 H 0.52652 0.85206 0.48565 0.0
H1089 H 0.46204 0.88372 0.41736 0.0
H1090 H 0.48292 0.87146 0.40776 0.0
H1091 H 0.4635 0.85763 0.41904 0.0
H1092 H 0.53158 0.82871 0.39651 0.0
H1093 H 0.48441 0.79579 0.42341 0.0
H1094 H 0.53561 0.86664 0.43072 0.0
H1095 H 0.51859 0.87493 0.41299 0.0
H1096 H 0.53925 0.86139 0.40489 0.0
H1097 H 0.47806 0.82628 0.46393 0.0
H1098 H 0.46481 0.80887 0.44807 0.0
H1099 H 0.46141 0.83466 0.4459 0.0
C1100 C 0.12899 0.26854 0.78384 0.0
C1101 C 0.12538 0.27864 0.76654 0.0
C1102 C 0.11368 0.26322 0.79657 0.0
C1103 C 0.09433 0.2682 0.79191 0.0
C1104 C 0.09058 0.27835 0.77444 0.0
C1105 C 0.10616 0.28342 0.76194 0.0
C1106 C 0.11822 0.2523 0.81502 0.0
C1107 C 0.07015 0.28401 0.76905 0.0
C1108 C 0.0519 0.24041 0.81583 0.0
C1109 C 0.04696 0.25335 0.83112 0.0
C1110 C 0.06734 0.24502 0.80299 0.0
C1111 C 0.07803 0.26302 0.80546 0.0
C1112 C 0.07314 0.27613 0.82087 0.0
C1113 C 0.05769 0.27112 0.83353 0.0
C1114 C 0.07221 0.23066 0.78676 0.0
C1115 C 0.08418 0.29549 0.82392 0.0
H1116 H 0.14379 0.26459 0.78732 0.0
H1117 H 0.10334 0.29142 0.7487 0.0
H1118 H 0.11383 0.26085 0.8282 0.0
H1119 H 0.10967 0.23821 0.81506 0.0
H1120 H 0.13402 0.24933 0.81637 0.0
H1121 H 0.06967 0.29167 0.75482 0.0
H1122 H 0.06021 0.27083 0.76802 0.0
H1123 H 0.06436 0.29369 0.78075 0.0
H1124 H 0.0437 0.22665 0.81388 0.0
H1125 H 0.05395 0.28123 0.84528 0.0
H1126 H 0.08765 0.2265 0.78822 0.0
H1127 H 0.07068 0.23752 0.77221 0.0
H1128 H 0.0626 0.21721 0.78694 0.0
H1129 H 0.09993 0.29311 0.82651 0.0
H1130 H 0.07852 0.30405 0.83659 0.0
H1131 H 0.08311 0.30429 0.81046 0.0
C1132 C 0.50551 0.63341 0.476 0.0
C1133 C 0.52159 0.62144 0.47449 0.0
C1134 C 0.50287 0.64841 0.46265 0.0
C1135 C 0.51671 0.65155 0.4475 0.0
C1136 C 0.53299 0.63954 0.44591 0.0
C1137 C 0.53522 0.62459 0.45941 0.0
C1138 C 0.48525 0.66085 0.46472 0.0
C1139 C 0.54812 0.64255 0.43002 0.0
C1140 C 0.50103 0.67905 0.40251 0.0
C1141 C 0.50881 0.69791 0.40679 0.0
C1142 C 0.50354 0.6638 0.41561 0.0
C1143 C 0.51417 0.66748 0.43335 0.0
C1144 C 0.52222 0.68643 0.43767 0.0
C1145 C 0.5194 0.70143 0.42437 0.0
C1146 C 0.49468 0.64378 0.41055 0.0
C1147 C 0.53373 0.69087 0.4564 0.0
H1148 H 0.49482 0.63086 0.4875 0.0
H1149 H 0.54779 0.6155 0.45834 0.0
H1150 H 0.49005 0.67638 0.46695 0.0
H1151 H 0.47634 0.65981 0.45099 0.0
H1152 H 0.47581 0.65644 0.47726 0.0
H1153 H 0.55991 0.63191 0.43079 0.0
H1154 H 0.54105 0.64115 0.41528 0.0
H1155 H 0.55486 0.65751 0.43136 0.0
H1156 H 0.4928 0.67621 0.38898 0.0
H1157 H 0.52551 0.71595 0.42777 0.0
H1158 H 0.48415 0.63923 0.42211 0.0
H1159 H 0.50628 0.63294 0.41012 0.0
H1160 H 0.48693 0.6433 0.3961 0.0
H1161 H 0.52438 0.68788 0.46938 0.0
H1162 H 0.53933 0.70629 0.45741 0.0
H1163 H 0.54634 0.68124 0.45726 0.0
C1164 C 0.8924 0.77636 0.72558 0.0
C1165 C 0.87273 0.77357 0.71976 0.0
C1166 C 0.90763 0.77274 0.71244 0.0
C1167 C 0.90311 0.76653 0.69287 0.0
C1168 C 0.88334 0.7641 0.68672 0.0
C1169 C 0.86838 0.76748 0.70029 0.0
C1170 C 0.92857 0.77536 0.71957 0.0
C1171 C 0.87798 0.75773 0.66588 0.0
C1172 C 0.9437 0.77344 0.65548 0.0
C1173 C 0.95089 0.75461 0.65404 0.0
C1174 C 0.9278 0.77742 0.66768 0.0
C1175 C 0.91915 0.76229 0.67895 0.0
C1176 C 0.92621 0.74322 0.67739 0.0
C1177 C 0.94191 0.73957 0.66481 0.0
C1178 C 0.92043 0.79787 0.66871 0.0
C1179 C 0.91751 0.72678 0.68939 0.0
H1180 H 0.89593 0.78142 0.74046 0.0
H1181 H 0.85326 0.76499 0.69569 0.0
H1182 H 0.93613 0.76144 0.71773 0.0
H1183 H 0.93658 0.78635 0.71058 0.0
H1184 H 0.92959 0.78012 0.7353 0.0
H1185 H 0.86192 0.75742 0.6632 0.0
H1186 H 0.88519 0.76773 0.65527 0.0
H1187 H 0.88334 0.74294 0.66278 0.0
H1188 H 0.95052 0.78509 0.64707 0.0
H1189 H 0.94747 0.72501 0.66382 0.0
H1190 H 0.92252 0.80407 0.68383 0.0
H1191 H 0.9045 0.79759 0.66541 0.0
H1192 H 0.9281 0.80772 0.65823 0.0
H1193 H 0.91935 0.73037 0.70533 0.0
H1194 H 0.92444 0.7127 0.68619 0.0
H1195 H 0.90157 0.72489 0.68641 0.0
C1196 C 0.00363 0.88416 0.53033 0.0
C1197 C 0.0204 0.89663 0.53136 0.0
C1198 C 0.00099 0.86877 0.54344 0.0
C1199 C 0.01552 0.86573 0.55786 0.0
C1200 C 0.03242 0.87832 0.55908 0.0
C1201 C 0.03463 0.89365 0.54584 0.0
C1202 C 0.98276 0.85565 0.54172 0.0
C1203 C 0.04823 0.87551 0.57428 0.0
C1204 C 0.00135 0.83581 0.60234 0.0
C1205 C 0.0082 0.81746 0.59699 0.0
C1206 C 0.00369 0.85169 0.58977 0.0
C1207 C 0.01318 0.84915 0.57147 0.0
C1208 C 0.0203 0.83072 0.56608 0.0
C1209 C 0.01768 0.81508 0.57888 0.0
C1210 C 0.99584 0.87113 0.59597 0.0
C1211 C 0.0306 0.82751 0.54672 0.0
H1212 H 0.99269 0.88622 0.51901 0.0
H1213 H 0.04749 0.90341 0.54692 0.0
H1214 H 0.98682 0.84046 0.53832 0.0
H1215 H 0.97487 0.85549 0.55596 0.0
H1216 H 0.97261 0.86032 0.53005 0.0
H1217 H 0.06041 0.88667 0.57335 0.0
H1218 H 0.04195 0.87622 0.5893 0.0
H1219 H 0.05429 0.86085 0.57227 0.0
H1220 H 0.99398 0.83777 0.61629 0.0
H1221 H 0.02306 0.80096 0.57466 0.0
H1222 H 0.98477 0.87558 0.58511 0.0
H1223 H 0.00783 0.88252 0.59623 0.0
H1224 H 0.98898 0.87073 0.61076 0.0
H1225 H 0.02066 0.83061 0.5343 0.0
H1226 H 0.03553 0.81235 0.54486 0.0
H1227 H 0.04354 0.83773 0.54572 0.0
C1228 C 0.11071 0.75207 0.73776 0.0
C1229 C 0.12319 0.73654 0.73487 0.0
C1230 C 0.09473 0.75453 0.72514 0.0
C1231 C 0.0911 0.7411 0.7093 0.0
C1232 C 0.1036 0.72538 0.70631 0.0
C1233 C 0.11952 0.7233 0.71913 0.0
C1234 C 0.08168 0.77146 0.7288 0.0
C1235 C 0.10017 0.71077 0.68956 0.0
C1236 C 0.03978 0.73684 0.68759 0.0
C1237 C 0.04186 0.74788 0.67052 0.0
C1238 C 0.05571 0.73449 0.70032 0.0
C1239 C 0.07412 0.74345 0.69591 0.0
C1240 C 0.07632 0.75468 0.67876 0.0
C1241 C 0.06016 0.75674 0.66625 0.0
C1242 C 0.05283 0.72236 0.71846 0.0
C1243 C 0.09574 0.76451 0.67364 0.0
H1244 H 0.11329 0.76218 0.75007 0.0
H1245 H 0.12925 0.71142 0.71667 0.0
H1246 H 0.0813 0.78066 0.71558 0.0
H1247 H 0.06647 0.76596 0.73149 0.0
H1248 H 0.08666 0.78074 0.74162 0.0
H1249 H 0.1112 0.69932 0.68933 0.0
H1250 H 0.08539 0.70361 0.6908 0.0
H1251 H 0.10066 0.71833 0.67529 0.0
H1252 H 0.02571 0.72991 0.69099 0.0
H1253 H 0.06188 0.7653 0.65309 0.0
H1254 H 0.05653 0.73132 0.73187 0.0
H1255 H 0.06287 0.71005 0.71808 0.0
H1256 H 0.03757 0.71635 0.71977 0.0
H1257 H 0.10064 0.7747 0.68575 0.0
H1258 H 0.09499 0.77278 0.65978 0.0
H1259 H 0.10704 0.75345 0.67198 0.0
C1260 C 0.00276 0.6331 0.52838 0.0
C1261 C 0.98769 0.61954 0.5331 0.0
C1262 C 0.00683 0.64969 0.54036 0.0
C1263 C 0.99561 0.65274 0.55752 0.0
C1264 C 0.98047 0.63906 0.56246 0.0
C1265 C 0.97667 0.62264 0.55017 0.0
C1266 C 0.0231 0.66397 0.53463 0.0
C1267 C 0.9682 0.64185 0.58066 0.0
C1268 C 0.01691 0.68663 0.5978 0.0
C1269 C 0.00712 0.70382 0.59439 0.0
C1270 C 0.01329 0.66987 0.58592 0.0
C1271 C -0.00039 0.67036 0.57023 0.0
C1272 C 0.98973 0.68767 0.56665 0.0
C1273 C 0.99358 0.70419 0.5788 0.0
C1274 C 0.02406 0.65163 0.59019 0.0
C1275 C 0.97509 0.68874 0.55 0.0
H1276 H 0.01153 0.63064 0.51538 0.0
H1277 H 0.96484 0.61235 0.55376 0.0
H1278 H 0.01718 0.67862 0.53261 0.0
H1279 H 0.03423 0.6654 0.54659 0.0
H1280 H 0.03043 0.65946 0.5208 0.0
H1281 H 0.95722 0.62968 0.5826 0.0
H1282 H 0.97776 0.64302 0.59394 0.0
H1283 H 0.96041 0.65568 0.57977 0.0
H1284 H 0.02737 0.6862 0.60984 0.0
H1285 H 0.98596 0.71741 0.57605 0.0
H1286 H 0.03256 0.64718 0.57709 0.0
H1287 H 0.01341 0.63947 0.59331 0.0
H1288 H 0.03425 0.65366 0.60295 0.0
H1289 H 0.98222 0.68537 0.53575 0.0
H1290 H 0.96872 0.70334 0.54914 0.0
H1291 H 0.96301 0.67766 0.55191 0.0
C1292 C 0.7658 0.90922 0.20997 0.0
C1293 C 0.77077 0.89096 0.21694 0.0
C1294 C 0.77871 0.92555 0.21221 0.0
C1295 C 0.79707 0.92352 0.22152 0.0
C1296 C 0.8022 0.90514 0.22855 0.0
C1297 C 0.78895 0.8891 0.22625 0.0
C1298 C 0.77272 0.94496 0.2046 0.0
C1299 C 0.82168 0.90243 0.23854 0.0
C1300 C 0.83787 0.96125 0.21192 0.0
C1301 C 0.83744 0.97295 0.22909 0.0
C1302 C 0.82478 0.9451 0.20924 0.0
C1303 C 0.81089 0.94066 0.22403 0.0
C1304 C 0.8103 0.95249 0.24133 0.0
C1305 C 0.82363 0.96846 0.24368 0.0
C1306 C 0.8259 0.93273 0.19065 0.0
C1307 C 0.7956 0.94827 0.25737 0.0
H1308 H 0.7519 0.91071 0.20251 0.0
H1309 H 0.79278 0.87511 0.23194 0.0
H1310 H 0.773 0.956 0.21679 0.0
H1311 H 0.78329 0.95021 0.19337 0.0
H1312 H 0.75783 0.94412 0.19791 0.0
H1313 H 0.82355 0.8871 0.24288 0.0
H1314 H 0.8338 0.9068 0.22855 0.0
H1315 H 0.82306 0.91198 0.25191 0.0
H1316 H 0.84852 0.9646 0.2006 0.0
H1317 H 0.82315 0.97747 0.25697 0.0
H1318 H 0.81165 0.9324 0.18272 0.0
H1319 H 0.82888 0.91747 0.19442 0.0
H1320 H 0.8375 0.93819 0.18054 0.0
H1321 H 0.78051 0.94837 0.25126 0.0
H1322 H 0.7969 0.95905 0.2698 0.0
H1323 H 0.79765 0.9335 0.26319 0.0
C1324 C 0.77791 0.13484 0.30492 0.0
C1325 C 0.76129 0.13629 0.29291 0.0
C1326 C 0.79078 0.11965 0.30209 0.0
C1327 C 0.7869 0.10554 0.2869 0.0
C1328 C 0.77002 0.10676 0.27489 0.0
C1329 C 0.75742 0.12214 0.27802 0.0
C1330 C 0.80861 0.11877 0.31523 0.0
C1331 C 0.76541 0.09197 0.25854 0.0
C1332 C 0.82915 0.07728 0.26659 0.0
C1333 C 0.82658 0.05942 0.27611 0.0
C1334 C 0.81639 0.09246 0.27007 0.0
C1335 C 0.80068 0.08969 0.28335 0.0
C1336 C 0.79808 0.07176 0.29309 0.0
C1337 C 0.81107 0.05684 0.28937 0.0
C1338 C 0.81965 0.11142 0.25944 0.0
C1339 C 0.78147 0.0683 0.30734 0.0
H1340 H 0.78082 0.14558 0.31663 0.0
H1341 H 0.74473 0.12331 0.26853 0.0
H1342 H 0.80853 0.1046 0.32279 0.0
H1343 H 0.82209 0.11975 0.30621 0.0
H1344 H 0.80937 0.13072 0.32655 0.0
H1345 H 0.75141 0.0947 0.25087 0.0
H1346 H 0.77737 0.09233 0.24756 0.0
H1347 H 0.76449 0.07706 0.26455 0.0
H1348 H 0.84111 0.07941 0.25635 0.0
H1349 H 0.80898 0.04309 0.29678 0.0
H1350 H 0.82162 0.12368 0.27028 0.0
H1351 H 0.8066 0.11432 0.25033 0.0
H1352 H 0.83267 0.11129 0.24974 0.0
H1353 H 0.78236 0.07944 0.31943 0.0
H1354 H 0.78161 0.0536 0.31387 0.0
H1355 H 0.76724 0.0698 0.29969 0.0
C1356 C 0.38609 0.95878 0.0011 0.0
C1357 C 0.38522 0.97246 0.98608 0.0
C1358 C 0.37002 0.94613 0.00506 0.0
C1359 C 0.35272 0.94706 0.99361 0.0
C1360 C 0.35177 0.96074 0.97837 0.0
C1361 C 0.36798 0.97333 0.97486 0.0
C1362 C 0.37154 0.93177 0.02149 0.0
C1363 C 0.33358 0.96212 0.96581 0.0
C1364 C 0.31717 0.90309 0.99155 0.0
C1365 C 0.30251 0.90895 0.0045 0.0
C1366 C 0.33364 0.91532 0.98792 0.0
C1367 C 0.33556 0.93378 0.99761 0.0
C1368 C 0.32093 0.93969 0.01087 0.0
C1369 C 0.30453 0.92724 0.01409 0.0
C1370 C 0.34887 0.90861 0.97354 0.0
C1371 C 0.32257 0.95921 0.0216 0.0
H1372 H 0.39944 0.95781 0.00965 0.0
H1373 H 0.36706 0.98406 0.96344 0.0
H1374 H 0.35984 0.93413 0.03244 0.0
H1375 H 0.36934 0.91665 0.01552 0.0
H1376 H 0.38594 0.93306 0.02917 0.0
H1377 H 0.33535 0.97329 0.95429 0.0
H1378 H 0.32989 0.9478 0.95852 0.0
H1379 H 0.32099 0.96582 0.97521 0.0
H1380 H 0.31568 0.88901 0.98403 0.0
H1381 H 0.29329 0.93184 0.02417 0.0
H1382 H 0.3634 0.90857 0.98089 0.0
H1383 H 0.35015 0.9189 0.96119 0.0
H1384 H 0.34529 0.89375 0.96737 0.0
H1385 H 0.33644 0.96048 0.0302 0.0
H1386 H 0.31016 0.96142 0.03179 0.0
H1387 H 0.323 0.97113 0.01082 0.0
C1388 C 0.22586 0.38276 0.2933 0.0
C1389 C 0.22234 0.36509 0.28288 0.0
C1390 C 0.21284 0.39796 0.29199 0.0
C1391 C 0.19593 0.39541 0.27992 0.0
C1392 C 0.19226 0.37758 0.26941 0.0
C1393 C 0.20551 0.36262 0.27104 0.0
C1394 C 0.21717 0.41675 0.30347 0.0
C1395 C 0.17443 0.37438 0.25631 0.0
C1396 C 0.15323 0.42808 0.2889 0.0
C1397 C 0.15601 0.44193 0.27418 0.0
C1398 C 0.16617 0.41289 0.291 0.0
C1399 C 0.18221 0.41151 0.27803 0.0
C1400 C 0.18512 0.42545 0.26316 0.0
C1401 C 0.172 0.44051 0.26143 0.0
C1402 C 0.16265 0.3983 0.30707 0.0
C1403 C 0.20206 0.42442 0.24904 0.0
H1404 H 0.23873 0.38463 0.30267 0.0
H1405 H 0.20286 0.34907 0.26278 0.0
H1406 H 0.21861 0.4291 0.29323 0.0
H1407 H 0.20486 0.41978 0.31351 0.0
H1408 H 0.23084 0.4163 0.31236 0.0
H1409 H 0.17357 0.35956 0.24936 0.0
H1410 H 0.16094 0.37646 0.26497 0.0
H1411 H 0.1747 0.38531 0.2445 0.0
H1412 H 0.14094 0.4291 0.29883 0.0
H1413 H 0.17426 0.45114 0.25 0.0
H1414 H 0.17563 0.39822 0.31696 0.0
H1415 H 0.16058 0.38341 0.30051 0.0
H1416 H 0.1496 0.40153 0.31605 0.0
H1417 H 0.21611 0.42514 0.25735 0.0
H1418 H 0.20227 0.43642 0.23832 0.0
H1419 H 0.20124 0.41029 0.24076 0.0
C1420 C 0.1181 0.05612 0.48638 0.0
C1421 C 0.11812 0.04094 0.47219 0.0
C1422 C 0.13445 0.06893 0.4891 0.0
C1423 C 0.15113 0.06667 0.47716 0.0
C1424 C 0.15114 0.05166 0.46254 0.0
C1425 C 0.13468 0.03889 0.46032 0.0
C1426 C 0.13396 0.08471 0.50492 0.0
C1427 C 0.16863 0.04891 0.44944 0.0
C1428 C 0.18747 0.10977 0.47364 0.0
C1429 C 0.20228 0.10446 0.48661 0.0
C1430 C 0.17079 0.09753 0.47028 0.0
C1431 C 0.16879 0.07971 0.48034 0.0
C1432 C 0.18364 0.07433 0.49353 0.0
C1433 C 0.20027 0.08672 0.49641 0.0
C1434 C 0.15535 0.1036 0.45591 0.0
C1435 C 0.1819 0.05555 0.5047 0.0
H1436 H 0.10524 0.05804 0.49537 0.0
H1437 H 0.13496 0.02706 0.44951 0.0
H1438 H 0.1459 0.08283 0.51577 0.0
H1439 H 0.13649 0.09925 0.49834 0.0
H1440 H 0.11979 0.08458 0.51287 0.0
H1441 H 0.16594 0.03712 0.43816 0.0
H1442 H 0.17251 0.06267 0.44183 0.0
H1443 H 0.18149 0.04527 0.45849 0.0
H1444 H 0.189 0.12341 0.46594 0.0
H1445 H 0.21163 0.08258 0.50653 0.0
H1446 H 0.14112 0.1048 0.46352 0.0
H1447 H 0.15324 0.09233 0.44403 0.0
H1448 H 0.15924 0.1178 0.4491 0.0
H1449 H 0.16842 0.0553 0.51374 0.0
H1450 H 0.19467 0.0536 0.51455 0.0
H1451 H 0.1806 0.04293 0.49422 0.0
C1452 C 0.73214 0.10451 0.72073 0.0
C1453 C 0.72606 0.12266 0.72774 0.0
C1454 C 0.72011 0.08758 0.72247 0.0
C1455 C 0.70145 0.08887 0.73121 0.0
C1456 C 0.69524 0.1071 0.73838 0.0
C1457 C 0.70766 0.12375 0.73668 0.0
C1458 C 0.72729 0.06835 0.71478 0.0
C1459 C 0.67539 0.10905 0.74772 0.0
C1460 C 0.6628 0.04923 0.71858 0.0
C1461 C 0.66304 0.03785 0.73548 0.0
C1462 C 0.6752 0.06591 0.71702 0.0
C1463 C 0.68831 0.07119 0.73264 0.0
C1464 C 0.68876 0.05966 0.74966 0.0
C1465 C 0.67602 0.04319 0.75093 0.0
C1466 C 0.67417 0.07798 0.69873 0.0
C1467 C 0.7027 0.06472 0.76651 0.0
H1468 H 0.74619 0.10356 0.71354 0.0
H1469 H 0.70297 0.13763 0.74244 0.0
H1470 H 0.72689 0.0575 0.72667 0.0
H1471 H 0.71748 0.06252 0.70278 0.0
H1472 H 0.74245 0.06971 0.70903 0.0
H1473 H 0.67273 0.1243 0.75248 0.0
H1474 H 0.66372 0.10409 0.73711 0.0
H1475 H 0.67407 0.09959 0.76072 0.0
H1476 H 0.65274 0.04524 0.70662 0.0
H1477 H 0.67635 0.03441 0.764 0.0
H1478 H 0.68866 0.07879 0.69146 0.0
H1479 H 0.67042 0.09312 0.70279 0.0
H1480 H 0.66312 0.07192 0.68794 0.0
H1481 H 0.718 0.06521 0.76112 0.0
H1482 H 0.70145 0.05406 0.77857 0.0
H1483 H 0.69979 0.07943 0.77265 0.0
C1484 C 0.38178 0.03789 0.50202 0.0
C1485 C 0.39319 0.03924 0.51927 0.0
C1486 C 0.36676 0.05082 0.49881 0.0
C1487 C 0.36307 0.06541 0.51322 0.0
C1488 C 0.3747 0.06701 0.53054 0.0
C1489 C 0.38963 0.05392 0.53334 0.0
C1490 C 0.35463 0.04866 0.48017 0.0
C1491 C 0.37123 0.08243 0.5462 0.0
C1492 C 0.33429 0.109 0.49839 0.0
C1493 C 0.31551 0.10379 0.50522 0.0
C1494 C 0.34994 0.09663 0.50087 0.0
C1495 C 0.3467 0.07868 0.51043 0.0
C1496 C 0.3278 0.07337 0.51742 0.0
C1497 C 0.31243 0.08598 0.51471 0.0
C1498 C 0.3699 0.10274 0.49321 0.0
C1499 C 0.32381 0.05435 0.52774 0.0
H1500 H 0.38432 0.02645 0.49119 0.0
H1501 H 0.39861 0.05522 0.54656 0.0
H1502 H 0.33911 0.04521 0.4839 0.0
H1503 H 0.35506 0.0626 0.47218 0.0
H1504 H 0.35981 0.03698 0.47014 0.0
H1505 H 0.38184 0.08197 0.55863 0.0
H1506 H 0.37236 0.09713 0.53972 0.0
H1507 H 0.35621 0.08042 0.55212 0.0
H1508 H 0.33679 0.12271 0.49101 0.0
H1509 H 0.29797 0.08184 0.52005 0.0
H1510 H 0.37484 0.09175 0.4823 0.0
H1511 H 0.38074 0.10344 0.50546 0.0
H1512 H 0.36999 0.11718 0.48611 0.0
H1513 H 0.32744 0.04193 0.51788 0.0
H1514 H 0.30829 0.0524 0.53231 0.0
H1515 H 0.33329 0.05372 0.54102 0.0
C1516 C 0.63359 0.48755 0.53986 0.0
C1517 C 0.61582 0.48229 0.53035 0.0
C1518 C 0.6502 0.47649 0.53707 0.0
C1519 C 0.64897 0.45976 0.5245 0.0
C1520 C 0.63105 0.45428 0.51497 0.0
C1521 C 0.61468 0.46563 0.51799 0.0
C1522 C 0.6691 0.48282 0.54741 0.0
C1523 C 0.62917 0.43645 0.50155 0.0
C1524 C 0.69585 0.44139 0.50243 0.0
C1525 C 0.6998 0.42584 0.51471 0.0
C1526 C 0.67937 0.45259 0.50548 0.0
C1527 C 0.66652 0.44807 0.52116 0.0
C1528 C 0.67042 0.43241 0.53362 0.0
C1529 C 0.68703 0.42149 0.53026 0.0
C1530 C 0.6757 0.46922 0.49191 0.0
C1531 C 0.65701 0.42716 0.55047 0.0
H1532 H 0.63461 0.50056 0.54922 0.0
H1533 H 0.60091 0.46139 0.5108 0.0
H1534 H 0.67421 0.47089 0.55666 0.0
H1535 H 0.68065 0.48595 0.53637 0.0
H1536 H 0.66752 0.49604 0.55691 0.0
H1537 H 0.61413 0.43408 0.49542 0.0
H1538 H 0.63957 0.43795 0.48914 0.0
H1539 H 0.63304 0.4233 0.50971 0.0
H1540 H 0.70565 0.44486 0.49039 0.0
H1541 H 0.68995 0.40948 0.53981 0.0
H1542 H 0.67516 0.48309 0.50057 0.0
H1543 H 0.66129 0.46681 0.48447 0.0
H1544 H 0.68718 0.4709 0.48048 0.0
H1545 H 0.65601 0.43982 0.5608 0.0
H1546 H 0.66211 0.41454 0.55879 0.0
H1547 H 0.64202 0.42356 0.54478 0.0
C1548 C 0.73632 0.28876 0.39195 0.0
C1549 C 0.71991 0.2905 0.37972 0.0
C1550 C 0.7406 0.30239 0.4072 0.0
C1551 C 0.72811 0.3181 0.41034 0.0
C1552 C 0.71167 0.32011 0.39787 0.0
C1553 C 0.70778 0.30628 0.38267 0.0
C1554 C 0.75834 0.29985 0.42012 0.0
C1555 C 0.69798 0.33662 0.40084 0.0
C1556 C 0.72806 0.34107 0.46164 0.0
C1557 C 0.74005 0.35792 0.45922 0.0
C1558 C 0.72388 0.32811 0.44578 0.0
C1559 C 0.73194 0.33206 0.42707 0.0
C1560 C 0.74394 0.3491 0.42447 0.0
C1561 C 0.74783 0.36186 0.44059 0.0
C1562 C 0.71096 0.31011 0.4491 0.0
C1563 C 0.75284 0.35374 0.40472 0.0
H1564 H 0.74589 0.27673 0.38953 0.0
H1565 H 0.69498 0.30757 0.37336 0.0
H1566 H 0.76806 0.3132 0.41995 0.0
H1567 H 0.75372 0.29772 0.43558 0.0
H1568 H 0.7669 0.28719 0.41533 0.0
H1569 H 0.68624 0.33649 0.38945 0.0
H1570 H 0.69107 0.33562 0.41555 0.0
H1571 H 0.70629 0.35084 0.40047 0.0
H1572 H 0.72194 0.33793 0.47598 0.0
H1573 H 0.75711 0.37484 0.43859 0.0
H1574 H 0.71923 0.29684 0.44587 0.0
H1575 H 0.69822 0.3098 0.43888 0.0
H1576 H 0.70548 0.3094 0.46445 0.0
H1577 H 0.76247 0.3419 0.4 0.0
H1578 H 0.76157 0.36775 0.40507 0.0
H1579 H 0.74114 0.35453 0.3934 0.0
C1580 C 0.54955 0.01245 0.89031 0.0
C1581 C 0.53302 0.02339 0.88689 0.0
C1582 C 0.5633 0.00941 0.87542 0.0
C1583 C 0.56045 0.01752 0.85668 0.0
C1584 C 0.5438 0.02856 0.85312 0.0
C1585 C 0.53027 0.03134 0.86827 0.0
C1586 C 0.58091 0.99757 0.87976 0.0
C1587 C 0.54025 0.03738 0.83329 0.0
C1588 C 0.60414 0.02487 0.823 0.0
C1589 C 0.60166 0.00887 0.80988 0.0
C1590 C 0.59091 0.02779 0.8384 0.0
C1591 C 0.57484 0.01438 0.84074 0.0
C1592 C 0.57237 0.9981 0.82769 0.0
C1593 C 0.5858 0.99554 0.81241 0.0
C1594 C 0.59399 0.04534 0.85204 0.0
C1595 C 0.55543 0.98347 0.82976 0.0
H1596 H 0.55189 0.0065 0.90476 0.0
H1597 H 0.51739 0.03959 0.86547 0.0
H1598 H 0.58125 0.98486 0.86941 0.0
H1599 H 0.59455 0.00654 0.87749 0.0
H1600 H 0.58092 0.99219 0.89507 0.0
H1601 H 0.52665 0.04571 0.83298 0.0
H1602 H 0.55279 0.04732 0.82945 0.0
H1603 H 0.53913 0.02572 0.82172 0.0
H1604 H 0.61635 0.03524 0.82115 0.0
H1605 H 0.58378 0.98313 0.80236 0.0
H1606 H 0.59514 0.0406 0.86751 0.0
H1607 H 0.5812 0.05474 0.85117 0.0
H1608 H 0.6074 0.05421 0.84843 0.0
H1609 H 0.55565 0.97712 0.84465 0.0
H1610 H 0.55578 0.97142 0.81859 0.0
H1611 H 0.54138 0.99085 0.82822 0.0
C1612 C 0.25972 0.21603 0.37704 0.0
C1613 C 0.27669 0.21636 0.3655 0.0
C1614 C 0.25717 0.20271 0.39228 0.0
C1615 C 0.27204 0.18956 0.39623 0.0
C1616 C 0.28912 0.18968 0.38457 0.0
C1617 C 0.29119 0.203 0.36927 0.0
C1618 C 0.23869 0.20293 0.40436 0.0
C1619 C 0.30534 0.17592 0.38842 0.0
C1620 C 0.27391 0.16961 0.44783 0.0
C1621 C 0.26515 0.15091 0.44503 0.0
C1622 C 0.27649 0.18223 0.432 0.0
C1623 C 0.26995 0.17606 0.41296 0.0
C1624 C 0.26118 0.15717 0.41001 0.0
C1625 C 0.25899 0.14476 0.42608 0.0
C1626 C 0.28612 0.20219 0.43567 0.0
C1627 C 0.25386 0.1502 0.38994 0.0
H1628 H 0.24856 0.22647 0.37443 0.0
H1629 H 0.30419 0.20293 0.36021 0.0
H1630 H 0.23142 0.18817 0.40426 0.0
H1631 H 0.24236 0.2069 0.41991 0.0
H1632 H 0.22813 0.21343 0.39879 0.0
H1633 H 0.31758 0.17771 0.37784 0.0
H1634 H 0.3112 0.17848 0.40358 0.0
H1635 H 0.29954 0.16059 0.38746 0.0
H1636 H 0.27881 0.17442 0.46242 0.0
H1637 H 0.25214 0.13035 0.42384 0.0
H1638 H 0.2758 0.21362 0.43189 0.0
H1639 H 0.29909 0.20417 0.42606 0.0
H1640 H 0.29086 0.20454 0.45126 0.0
H1641 H 0.24244 0.15991 0.38465 0.0
H1642 H 0.24759 0.13501 0.39007 0.0
H1643 H 0.26599 0.1509 0.37915 0.0
C1644 C 0.44901 0.47722 0.88169 0.0
C1645 C 0.46749 0.48693 0.8823 0.0
C1646 C 0.43597 0.47974 0.86599 0.0
C1647 C 0.44168 0.49197 0.85035 0.0
C1648 C 0.46025 0.50185 0.85086 0.0
C1649 C 0.47284 0.49937 0.86691 0.0
C1650 C 0.41615 0.46916 0.86606 0.0
C1651 C 0.46694 0.51486 0.83432 0.0
C1652 C 0.41666 0.4832 0.80073 0.0
C1653 C 0.40384 0.49862 0.80024 0.0
C1654 C 0.4291 0.48091 0.81694 0.0
C1655 C 0.4284 0.49412 0.8332 0.0
C1656 C 0.41525 0.50953 0.83293 0.0
C1657 C 0.40325 0.51171 0.81635 0.0
C1658 C 0.44318 0.46451 0.81655 0.0
C1659 C 0.41386 0.52368 0.85016 0.0
H1660 H 0.44481 0.46736 0.89332 0.0
H1661 H 0.4869 0.50726 0.86741 0.0
H1662 H 0.40441 0.47971 0.86437 0.0
H1663 H 0.41491 0.45872 0.85337 0.0
H1664 H 0.41356 0.46101 0.87982 0.0
H1665 H 0.4819 0.52138 0.8369 0.0
H1666 H 0.46684 0.50637 0.82022 0.0
H1667 H 0.45667 0.52682 0.83257 0.0
H1668 H 0.41725 0.47312 0.78825 0.0
H1669 H 0.39326 0.52357 0.81608 0.0
H1670 H 0.44043 0.45486 0.82923 0.0
H1671 H 0.45844 0.47055 0.81802 0.0
H1672 H 0.44194 0.45554 0.80275 0.0
H1673 H 0.41046 0.51562 0.8638 0.0
H1674 H 0.40244 0.53449 0.84788 0.0
H1675 H 0.42814 0.53167 0.85259 0.0
C1676 C 0.7092 0.72533 0.11696 0.0
C1677 C 0.72175 0.74162 0.12099 0.0
C1678 C 0.7127 0.71258 0.10105 0.0
C1679 C 0.72918 0.71621 0.08894 0.0
C1680 C 0.74188 0.73264 0.0929 0.0
C1681 C 0.73799 0.74517 0.10886 0.0
C1682 C 0.69884 0.69519 0.09726 0.0
C1683 C 0.75958 0.73699 0.08027 0.0
C1684 C 0.74852 0.67397 0.0589 0.0
C1685 C 0.74067 0.67726 0.04018 0.0
C1686 C 0.74492 0.68656 0.0749 0.0
C1687 C 0.73316 0.70278 0.07212 0.0
C1688 C 0.72522 0.70621 0.05328 0.0
C1689 C 0.72909 0.69342 0.03752 0.0
C1690 C 0.7537 0.6825 0.09479 0.0
C1691 C 0.71257 0.72336 0.04978 0.0
H1692 H 0.69676 0.72238 0.12643 0.0
H1693 H 0.74758 0.7579 0.11172 0.0
H1694 H 0.69264 0.69569 0.08215 0.0
H1695 H 0.70689 0.68152 0.0982 0.0
H1696 H 0.68657 0.69457 0.10793 0.0
H1697 H 0.76805 0.75033 0.08539 0.0
H1698 H 0.76939 0.72451 0.08036 0.0
H1699 H 0.75494 0.73896 0.06477 0.0
H1700 H 0.7575 0.66152 0.06107 0.0
H1701 H 0.72294 0.69606 0.02312 0.0
H1702 H 0.74191 0.68048 0.10581 0.0
H1703 H 0.76317 0.69515 0.0999 0.0
H1704 H 0.76257 0.66929 0.09448 0.0
H1705 H 0.69954 0.72251 0.05945 0.0
H1706 H 0.70752 0.72398 0.03423 0.0
H1707 H 0.72083 0.73718 0.05364 0.0
C1708 C 0.97609 0.0469 0.14009 0.0
C1709 C 0.97178 0.03546 0.12313 0.0
C1710 C 0.96486 0.04482 0.1572 0.0
C1711 C 0.94894 0.03098 0.15733 0.0
C1712 C 0.94439 0.01952 0.1402 0.0
C1713 C 0.95588 0.02189 0.1233 0.0
C1714 C 0.9702 0.05725 0.17522 0.0
C1715 C 0.92746 0.00466 0.13977 0.0
C1716 C 0.93169 0.01157 0.20645 0.0
C1717 C 0.91499 0.02233 0.2099 0.0
C1718 C 0.94292 0.01432 0.18944 0.0
C1719 C 0.93732 0.02816 0.17554 0.0
C1720 C 0.92057 0.03918 0.17899 0.0
C1721 C 0.9096 0.03614 0.19614 0.0
C1722 C 0.96071 0.00231 0.18626 0.0
C1723 C 0.91418 0.05408 0.1645 0.0
H1724 H 0.98852 0.05723 0.14012 0.0
H1725 H 0.95234 0.01319 0.11014 0.0
H1726 H 0.95744 0.06558 0.18004 0.0
H1727 H 0.97416 0.04778 0.18756 0.0
H1728 H 0.98269 0.0677 0.17253 0.0
H1729 H 0.92564 0.99718 0.12516 0.0
H1730 H 0.92976 0.99351 0.15105 0.0
H1731 H 0.91366 0.01184 0.14348 0.0
H1732 H 0.93597 0.00088 0.217 0.0
H1733 H 0.89671 0.04451 0.19869 0.0
H1734 H 0.97393 0.01204 0.18462 0.0
H1735 H 0.95896 0.99348 0.17243 0.0
H1736 H 0.96322 0.99232 0.19861 0.0
H1737 H 0.92616 0.06521 0.16231 0.0
H1738 H 0.90092 0.06159 0.16946 0.0
H1739 H 0.911 0.0469 0.14996 0.0
C1740 C 0.28847 0.7918 0.13564 0.0
C1741 C 0.27542 0.7758 0.13836 0.0
C1742 C 0.28584 0.80463 0.12013 0.0
C1743 C 0.26972 0.80142 0.10711 0.0
C1744 C 0.2564 0.78539 0.10988 0.0
C1745 C 0.25945 0.77273 0.12545 0.0
C1746 C 0.30043 0.82149 0.11753 0.0
C1747 C 0.23896 0.78159 0.09638 0.0
C1748 C 0.25314 0.8438 0.07703 0.0
C1749 C 0.26138 0.8397 0.0586 0.0
C1750 C 0.25573 0.83146 0.09297 0.0
C1751 C 0.26691 0.81469 0.09042 0.0
C1752 C 0.27536 0.81053 0.0719 0.0
C1753 C 0.27245 0.82306 0.05619 0.0
C1754 C 0.24644 0.83631 0.1125 0.0
C1755 C 0.28746 0.79282 0.06867 0.0
H1756 H 0.30095 0.79408 0.14547 0.0
H1757 H 0.24921 0.76051 0.12766 0.0
H1758 H 0.30745 0.82027 0.10289 0.0
H1759 H 0.29282 0.83547 0.11801 0.0
H1760 H 0.31205 0.82207 0.12907 0.0
H1761 H 0.22983 0.76864 0.10073 0.0
H1762 H 0.22969 0.79448 0.09644 0.0
H1763 H 0.24398 0.77923 0.08103 0.0
H1764 H 0.24454 0.85662 0.079 0.0
H1765 H 0.27891 0.8198 0.04202 0.0
H1766 H 0.25787 0.83808 0.12414 0.0
H1767 H 0.23629 0.82414 0.11685 0.0
H1768 H 0.23816 0.84989 0.11204 0.0
H1769 H 0.3 0.79329 0.07913 0.0
H1770 H 0.2932 0.79177 0.05342 0.0
H1771 H 0.27849 0.77937 0.07161 0.0
C1772 C 0.04582 0.49444 0.12089 0.0
C1773 C 0.02791 0.48375 0.12151 0.0
C1774 C 0.05759 0.49712 0.1378 0.0
C1775 C 0.05127 0.48894 0.15575 0.0
C1776 C 0.03324 0.4781 0.15648 0.0
C1777 C 0.02179 0.47561 0.13933 0.0
C1778 C 0.07674 0.5088 0.13649 0.0
C1779 C 0.02605 0.46913 0.17537 0.0
C1780 C 0.08918 0.48116 0.19557 0.0
C1781 C 0.08667 0.49734 0.20816 0.0
C1782 C 0.07776 0.47826 0.17844 0.0
C1783 C 0.06348 0.49183 0.17383 0.0
C1784 C 0.06085 0.50817 0.18647 0.0
C1785 C 0.07249 0.51074 0.20348 0.0
C1786 C 0.081 0.46068 0.16526 0.0
C1787 C 0.04572 0.52292 0.18203 0.0
H1788 H 0.05051 0.50098 0.10722 0.0
H1789 H 0.00809 0.46711 0.13983 0.0
H1790 H 0.07658 0.52166 0.14666 0.0
H1791 H 0.08901 0.49982 0.14115 0.0
H1792 H 0.07966 0.51395 0.12135 0.0
H1793 H 0.01168 0.46113 0.17344 0.0
H1794 H 0.03685 0.45887 0.18084 0.0
H1795 H 0.02459 0.48067 0.1869 0.0
H1796 H 0.10012 0.47074 0.19906 0.0
H1797 H 0.07045 0.52326 0.21314 0.0
H1798 H 0.08504 0.46544 0.15026 0.0
H1799 H 0.06725 0.45158 0.16384 0.0
H1800 H 0.09271 0.4515 0.17095 0.0
H1801 H 0.04869 0.52948 0.1675 0.0
H1802 H 0.0455 0.53482 0.19338 0.0
H1803 H 0.03095 0.51562 0.18114 0.0
C1804 C 0.37269 0.71575 0.30232 0.0
C1805 C 0.36931 0.72896 0.28729 0.0
C1806 C 0.38797 0.71922 0.31599 0.0
C1807 C 0.40012 0.73633 0.31462 0.0
C1808 C 0.39669 0.7498 0.29962 0.0
C1809 C 0.38134 0.74594 0.28611 0.0
C1810 C 0.39118 0.70454 0.33181 0.0
C1811 C 0.40939 0.76819 0.29768 0.0
C1812 C 0.4299 0.75413 0.35936 0.0
C1813 C 0.44851 0.74753 0.35475 0.0
C1814 C 0.41396 0.75049 0.34649 0.0
C1815 C 0.41671 0.73995 0.32863 0.0
C1816 C 0.4354 0.73306 0.324 0.0
C1817 C 0.45108 0.73695 0.3371 0.0
C1818 C 0.39423 0.7581 0.35188 0.0
C1819 C 0.43887 0.72169 0.30512 0.0
H1820 H 0.36327 0.70274 0.30347 0.0
H1821 H 0.37896 0.75607 0.27439 0.0
H1822 H 0.40605 0.69877 0.33045 0.0
H1823 H 0.39032 0.71168 0.34658 0.0
H1824 H 0.38028 0.69209 0.33099 0.0
H1825 H 0.40445 0.77741 0.28551 0.0
H1826 H 0.40929 0.7769 0.31164 0.0
H1827 H 0.42476 0.76438 0.29491 0.0
H1828 H 0.4278 0.76232 0.37296 0.0
H1829 H 0.4654 0.73175 0.33343 0.0
H1830 H 0.38311 0.74588 0.35217 0.0
H1831 H 0.38947 0.76835 0.34056 0.0
H1832 H 0.39446 0.76577 0.36647 0.0
H1833 H 0.42893 0.7085 0.30429 0.0
H1834 H 0.45421 0.71707 0.30388 0.0
H1835 H 0.43551 0.73071 0.29226 0.0
C1836 C 0.97203 0.389 0.94979 0.0
C1837 C 0.98452 0.39319 0.96594 0.0
C1838 C 0.97513 0.37309 0.93701 0.0
C1839 C 0.99118 0.36117 0.94041 0.0
C1840 C 0.00391 0.36538 0.9566 0.0
C1841 C 0.00038 0.38129 0.9692 0.0
C1842 C 0.96123 0.36901 0.91991 0.0
C1843 C 0.02119 0.353 0.96067 0.0
C1844 C 0.9897 0.30964 0.91885 0.0
C1845 C 0.00149 0.31183 0.90212 0.0
C1846 C 0.98611 0.32562 0.93135 0.0
C1847 C 0.9946 0.34419 0.9271 0.0
C1848 C 0.0065 0.34651 0.91025 0.0
C1849 C 0.00975 0.33031 0.89793 0.0
C1850 C 0.97325 0.32262 0.94914 0.0
C1851 C 0.01589 0.36609 0.90532 0.0
H1852 H 0.95991 0.39828 0.94701 0.0
H1853 H 0.00992 0.38425 0.98182 0.0
H1854 H 0.96937 0.36955 0.90583 0.0
H1855 H 0.95445 0.35411 0.92097 0.0
H1856 H 0.9494 0.37962 0.91938 0.0
H1857 H 0.0299 0.35847 0.97365 0.0
H1858 H 0.01604 0.33775 0.96332 0.0
H1859 H 0.03091 0.35269 0.94765 0.0
H1860 H 0.98321 0.29543 0.92216 0.0
H1861 H 0.0189 0.33212 0.88506 0.0
H1862 H 0.96065 0.33228 0.94848 0.0
H1863 H 0.98161 0.32664 0.96278 0.0
H1864 H 0.96754 0.30729 0.95023 0.0
H1865 H 0.00446 0.37695 0.90349 0.0
H1866 H 0.02467 0.36546 0.89162 0.0
H1867 H 0.02558 0.37144 0.91762 0.0
C1868 C 0.6203 0.80225 0.28392 0.0
C1869 C 0.62359 0.78946 0.268 0.0
C1870 C 0.60466 0.7988 0.29683 0.0
C1871 C 0.59202 0.78214 0.29373 0.0
C1872 C 0.59527 0.76916 0.27771 0.0
C1873 C 0.61102 0.77298 0.26503 0.0
C1874 C 0.60159 0.813 0.31372 0.0
C1875 C 0.58212 0.75121 0.27399 0.0
C1876 C 0.56199 0.76364 0.33684 0.0
C1877 C 0.54364 0.77115 0.33285 0.0
C1878 C 0.57788 0.76709 0.32421 0.0
C1879 C 0.57533 0.77834 0.30722 0.0
C1880 C 0.55686 0.78595 0.30311 0.0
C1881 C 0.54122 0.78226 0.31597 0.0
C1882 C 0.59738 0.75873 0.32905 0.0
C1883 C 0.55361 0.79802 0.28512 0.0
H1884 H 0.62983 0.81514 0.28613 0.0
H1885 H 0.61366 0.76291 0.2529 0.0
H1886 H 0.58692 0.81922 0.31247 0.0
H1887 H 0.60206 0.80532 0.32791 0.0
H1888 H 0.61282 0.82518 0.31416 0.0
H1889 H 0.58664 0.7426 0.26086 0.0
H1890 H 0.58229 0.74172 0.28701 0.0
H1891 H 0.5668 0.75548 0.27178 0.0
H1892 H 0.56399 0.75504 0.34985 0.0
H1893 H 0.52709 0.78813 0.31278 0.0
H1894 H 0.60875 0.77066 0.33076 0.0
H1895 H 0.60199 0.74905 0.31678 0.0
H1896 H 0.59692 0.75024 0.34281 0.0
H1897 H 0.56374 0.81108 0.28549 0.0
H1898 H 0.53835 0.8029 0.28405 0.0
H1899 H 0.55691 0.78944 0.2716 0.0
C1900 C 0.03319 0.12345 0.95292 0.0
C1901 C 0.01958 0.12024 0.968 0.0
C1902 C 0.03088 0.1384 0.93942 0.0
C1903 C 0.01455 0.15036 0.94105 0.0
C1904 C 0.00065 0.14704 0.95611 0.0
C1905 C 0.00335 0.13203 0.96942 0.0
C1906 C 0.04604 0.14157 0.92359 0.0
C1907 C 0.98299 0.15943 0.95823 0.0
C1908 C 0.01727 0.2008 0.91917 0.0
C1909 C 0.00653 0.19776 0.90162 0.0
C1910 C 0.0202 0.18544 0.93202 0.0
C1911 C 0.01215 0.16659 0.92722 0.0
C1912 C 0.00147 0.16336 0.90944 0.0
C1913 C 0.99881 0.17898 0.89684 0.0
C1914 C 0.03173 0.18942 0.95083 0.0
C1915 C 0.99266 0.14345 0.90387 0.0
H1916 H 0.04587 0.11451 0.9519 0.0
H1917 H 0.99266 0.12942 0.9809 0.0
H1918 H 0.03896 0.14067 0.90884 0.0
H1919 H 0.05302 0.1564 0.92533 0.0
H1920 H 0.05764 0.13072 0.92407 0.0
H1921 H 0.97338 0.15472 0.97054 0.0
H1922 H 0.98778 0.17491 0.9609 0.0
H1923 H 0.97427 0.15873 0.94438 0.0
H1924 H 0.02333 0.21525 0.92297 0.0
H1925 H 0.9905 0.1765 0.88331 0.0
H1926 H 0.04424 0.17965 0.95151 0.0
H1927 H 0.02232 0.18625 0.96373 0.0
H1928 H 0.03745 0.20478 0.95214 0.0
H1929 H 0.00424 0.13259 0.90338 0.0
H1930 H 0.9851 0.14328 0.88932 0.0
H1931 H 0.98195 0.13869 0.91519 0.0
C1932 C 0.36783 0.26959 0.20567 0.0
C1933 C 0.37122 0.27906 0.22398 0.0
C1934 C 0.38333 0.26582 0.19289 0.0
C1935 C 0.4027 0.27151 0.19862 0.0
C1936 C 0.40621 0.28134 0.21692 0.0
C1937 C 0.39042 0.28507 0.22934 0.0
C1938 C 0.37903 0.25539 0.17343 0.0
C1939 C 0.42669 0.28763 0.22352 0.0
C1940 C 0.44472 0.2445 0.1761 0.0
C1941 C 0.45189 0.25784 0.16226 0.0
C1942 C 0.42862 0.24873 0.18792 0.0
C1943 C 0.41939 0.26666 0.18576 0.0
C1944 C 0.42635 0.28005 0.17161 0.0
C1945 C 0.44256 0.27551 0.16006 0.0
C1946 C 0.42166 0.23412 0.20294 0.0
C1947 C 0.41676 0.29925 0.16879 0.0
H1948 H 0.35307 0.26468 0.20153 0.0
H1949 H 0.39312 0.29267 0.24331 0.0
H1950 H 0.3853 0.26399 0.16116 0.0
H1951 H 0.38606 0.24109 0.17313 0.0
H1952 H 0.36307 0.25284 0.17073 0.0
H1953 H 0.42688 0.29548 0.23801 0.0
H1954 H 0.43579 0.27467 0.22468 0.0
H1955 H 0.43366 0.29729 0.21246 0.0
H1956 H 0.45186 0.23083 0.17791 0.0
H1957 H 0.44797 0.28586 0.14934 0.0
H1958 H 0.40601 0.2299 0.20029 0.0
H1959 H 0.42281 0.24081 0.21796 0.0
H1960 H 0.43025 0.22072 0.20257 0.0
H1961 H 0.40097 0.29665 0.16537 0.0
H1962 H 0.42359 0.3078 0.15675 0.0
H1963 H 0.41781 0.30814 0.18263 0.0
C1964 C 0.52837 0.37174 0.01899 0.0
C1965 C 0.52001 0.38943 0.02421 0.0
C1966 C 0.52524 0.35512 0.03039 0.0
C1967 C 0.51347 0.35624 0.04743 0.0
C1968 C 0.50512 0.37409 0.05288 0.0
C1969 C 0.50848 0.39048 0.04119 0.0
C1970 C 0.53433 0.3363 0.02409 0.0
C1971 C 0.49256 0.37585 0.07101 0.0
C1972 C 0.48956 0.30958 0.06658 0.0
C1973 C 0.50198 0.30543 0.08234 0.0
C1974 C 0.49319 0.32602 0.05505 0.0
C1975 C 0.50962 0.33864 0.05939 0.0
C1976 C 0.52228 0.3345 0.0752 0.0
C1977 C 0.51831 0.31793 0.08648 0.0
C1978 C 0.4794 0.32996 0.03826 0.0
C1979 C 0.53994 0.34764 0.08025 0.0
H1980 H 0.53709 0.3708 0.00574 0.0
H1981 H 0.50219 0.40418 0.04543 0.0
H1982 H 0.54362 0.33101 0.03614 0.0
H1983 H 0.52268 0.32489 0.02105 0.0
H1984 H 0.54344 0.33799 0.01068 0.0
H1985 H 0.48737 0.39085 0.07336 0.0
H1986 H 0.47962 0.36559 0.0697 0.0
H1987 H 0.50095 0.37177 0.08424 0.0
H1988 H 0.47693 0.29999 0.06326 0.0
H1989 H 0.52799 0.31483 0.09863 0.0
H1990 H 0.48758 0.33062 0.02421 0.0
H1991 H 0.47282 0.34433 0.04064 0.0
H1992 H 0.4674 0.3186 0.03669 0.0
H1993 H 0.54977 0.34874 0.06734 0.0
H1994 H 0.54839 0.34231 0.09293 0.0
H1995 H 0.53526 0.36258 0.08388 0.0
C1996 C 0.62379 0.23249 0.21607 0.0
C1997 C 0.61947 0.22668 0.23526 0.0
C1998 C 0.60886 0.23424 0.20204 0.0
C1999 C 0.58913 0.23042 0.2075 0.0
C2000 C 0.58469 0.22464 0.22693 0.0
C2001 C 0.59996 0.22266 0.24054 0.0
C2002 C 0.61418 0.2401 0.18138 0.0
C2003 C 0.56381 0.22077 0.23337 0.0
C2004 C 0.54998 0.25308 0.17659 0.0
C2005 C 0.54303 0.23708 0.165 0.0
C2006 C 0.56482 0.25105 0.19067 0.0
C2007 C 0.57314 0.23267 0.19292 0.0
C2008 C 0.56628 0.2165 0.18116 0.0
C2009 C 0.55117 0.21886 0.16745 0.0
C2010 C 0.57155 0.26855 0.20318 0.0
C2011 C 0.57503 0.19675 0.18294 0.0
H2012 H 0.63892 0.23541 0.21196 0.0
H2013 H 0.59665 0.21831 0.25546 0.0
H2014 H 0.60842 0.22886 0.17061 0.0
H2015 H 0.60732 0.25398 0.17783 0.0
H2016 H 0.63026 0.24202 0.17938 0.0
H2017 H 0.56285 0.21655 0.24905 0.0
H2018 H 0.55528 0.23401 0.23134 0.0
H2019 H 0.55678 0.20894 0.22409 0.0
H2020 H 0.54364 0.26717 0.17484 0.0
H2021 H 0.54592 0.20647 0.15844 0.0
H2022 H 0.58732 0.27199 0.20067 0.0
H2023 H 0.56983 0.26525 0.21902 0.0
H2024 H 0.56322 0.28169 0.19993 0.0
H2025 H 0.59099 0.19795 0.18002 0.0
H2026 H 0.5682 0.18572 0.17253 0.0
H2027 H 0.5732 0.19145 0.19816 0.0
C2028 C 0.4779 0.12754 0.04629 0.0
C2029 C 0.48407 0.12637 0.02662 0.0
C2030 C 0.48248 0.14412 0.05815 0.0
C2031 C 0.49305 0.16014 0.05002 0.0
C2032 C 0.4991 0.15922 0.03015 0.0
C2033 C 0.49477 0.14227 0.01878 0.0
C2034 C 0.47605 0.14445 0.0794 0.0
C2035 C 0.51012 0.17617 0.02088 0.0
C2036 C 0.48856 0.20937 0.07578 0.0
C2037 C 0.50643 0.21141 0.086 0.0
C2038 C 0.48416 0.19289 0.06373 0.0
C2039 C 0.49774 0.1779 0.06232 0.0
C2040 C 0.51575 0.17984 0.07273 0.0
C2041 C 0.51999 0.19672 0.08426 0.0
C2042 C 0.46502 0.19156 0.05246 0.0
C2043 C 0.5304 0.16395 0.07195 0.0
H2044 H 0.46933 0.11555 0.05245 0.0
H2045 H 0.49999 0.14145 0.00376 0.0
H2046 H 0.48891 0.14737 0.08924 0.0
H2047 H 0.46588 0.15642 0.08196 0.0
H2048 H 0.4686 0.1305 0.08367 0.0
H2049 H 0.51312 0.17341 0.00502 0.0
H2050 H 0.50158 0.18953 0.02233 0.0
H2051 H 0.52426 0.17916 0.02868 0.0
H2052 H 0.47811 0.22079 0.07701 0.0
H2053 H 0.53375 0.19822 0.0923 0.0
H2054 H 0.45606 0.17868 0.05719 0.0
H2055 H 0.46785 0.18954 0.03648 0.0
H2056 H 0.45636 0.20478 0.05465 0.0
H2057 H 0.52348 0.15009 0.07712 0.0
H2058 H 0.54359 0.1676 0.08115 0.0
H2059 H 0.53509 0.16136 0.05654 0.0
C2060 C 0.2786 0.39857 0.70536 0.0
C2061 C 0.26245 0.39449 0.71747 0.0
C2062 C 0.29035 0.41563 0.70825 0.0
C2063 C 0.2858 0.42896 0.72358 0.0
C2064 C 0.26934 0.42511 0.73565 0.0
C2065 C 0.25786 0.4079 0.73246 0.0
C2066 C 0.30776 0.41927 0.69504 0.0
C2067 C 0.26406 0.439 0.75215 0.0
C2068 C 0.32683 0.4627 0.74373 0.0
C2069 C 0.32319 0.48016 0.73425 0.0
C2070 C 0.31473 0.44594 0.7404 0.0
C2071 C 0.29861 0.44667 0.72731 0.0
C2072 C 0.29483 0.46424 0.71771 0.0
C2073 C 0.30719 0.48079 0.72127 0.0
C2074 C 0.31925 0.42743 0.75087 0.0
C2075 C 0.27774 0.46555 0.70367 0.0
H2076 H 0.28202 0.38841 0.69355 0.0
H2077 H 0.24553 0.40473 0.742 0.0
H2078 H 0.30661 0.43348 0.68771 0.0
H2079 H 0.32142 0.42011 0.70397 0.0
H2080 H 0.30904 0.40765 0.68352 0.0
H2081 H 0.25039 0.43422 0.75973 0.0
H2082 H 0.27613 0.44021 0.76316 0.0
H2083 H 0.26216 0.45379 0.74633 0.0
H2084 H 0.33917 0.46208 0.75376 0.0
H2085 H 0.30427 0.49423 0.71391 0.0
H2086 H 0.32188 0.4156 0.73992 0.0
H2087 H 0.30653 0.42258 0.75986 0.0
H2088 H 0.3323 0.42932 0.76066 0.0
H2089 H 0.27908 0.45484 0.69132 0.0
H2090 H 0.27675 0.48033 0.69747 0.0
H2091 H 0.26385 0.46179 0.71136 0.0
C2092 C 0.2889 0.65154 0.77813 0.0
C2093 C 0.27129 0.64844 0.78832 0.0
C2094 C 0.30219 0.63662 0.77589 0.0
C2095 C 0.29773 0.61815 0.78399 0.0
C2096 C 0.27998 0.6149 0.79427 0.0
C2097 C 0.26698 0.6301 0.79632 0.0
C2098 C 0.32095 0.6406 0.76477 0.0
C2099 C 0.27476 0.5954 0.80314 0.0
C2100 C 0.32309 0.57427 0.7629 0.0
C2101 C 0.33788 0.57177 0.77694 0.0
C2102 C 0.30993 0.58931 0.76502 0.0
C2103 C 0.31159 0.60216 0.78157 0.0
C2104 C 0.32648 0.59976 0.79579 0.0
C2105 C 0.33946 0.58458 0.7933 0.0
C2106 C 0.29422 0.59142 0.74955 0.0
C2107 C 0.32868 0.61321 0.81364 0.0
H2108 H 0.2922 0.6656 0.77169 0.0
H2109 H 0.25352 0.6277 0.80444 0.0
H2110 H 0.33373 0.6379 0.77434 0.0
H2111 H 0.32164 0.63049 0.75184 0.0
H2112 H 0.32231 0.65582 0.75955 0.0
H2113 H 0.26036 0.59525 0.81066 0.0
H2114 H 0.2743 0.58381 0.79147 0.0
H2115 H 0.28615 0.59165 0.81397 0.0
H2116 H 0.32174 0.56443 0.7502 0.0
H2117 H 0.35082 0.58276 0.80422 0.0
H2118 H 0.29567 0.60608 0.74301 0.0
H2119 H 0.27955 0.59017 0.75641 0.0
H2120 H 0.29494 0.58023 0.73753 0.0
H2121 H 0.33116 0.62849 0.80894 0.0
H2122 H 0.34102 0.60937 0.82334 0.0
H2123 H 0.315 0.61263 0.82236 0.0
C2124 C 0.88028 0.45445 0.47786 0.0
C2125 C 0.88621 0.4696 0.49106 0.0
C2126 C 0.86393 0.44215 0.48178 0.0
C2127 C 0.85335 0.44498 0.4994 0.0
C2128 C 0.85935 0.4601 0.51288 0.0
C2129 C 0.87565 0.47228 0.50851 0.0
C2130 C 0.85792 0.4262 0.46703 0.0
C2131 C 0.84845 0.46351 0.53186 0.0
C2132 C 0.80062 0.42564 0.50156 0.0
C2133 C 0.80252 0.40819 0.51167 0.0
C2134 C 0.81707 0.4377 0.49739 0.0
C2135 C 0.83583 0.43226 0.50362 0.0
C2136 C 0.83785 0.41473 0.51391 0.0
C2137 C 0.82117 0.40285 0.51774 0.0
C2138 C 0.81437 0.45622 0.48624 0.0
C2139 C 0.85762 0.40856 0.52093 0.0
H2140 H 0.88852 0.4521 0.46449 0.0
H2141 H 0.87994 0.48413 0.51864 0.0
H2142 H 0.8581 0.41179 0.4741 0.0
H2143 H 0.84271 0.42821 0.46188 0.0
H2144 H 0.86769 0.42597 0.45401 0.0
H2145 H 0.85534 0.47555 0.54102 0.0
H2146 H 0.83312 0.46711 0.52856 0.0
H2147 H 0.84791 0.45003 0.5406 0.0
H2148 H 0.78627 0.42982 0.49674 0.0
H2149 H 0.82274 0.38943 0.52561 0.0
H2150 H 0.82309 0.45598 0.47251 0.0
H2151 H 0.81983 0.46901 0.49524 0.0
H2152 H 0.7988 0.45828 0.48231 0.0
H2153 H 0.86759 0.40695 0.50821 0.0
H2154 H 0.85668 0.39455 0.52883 0.0
H2155 H 0.86436 0.41997 0.53095 0.0
C2156 C 0.73782 0.88325 0.77126 0.0
C2157 C 0.73381 0.86881 0.78515 0.0
C2158 C 0.72593 0.89932 0.76966 0.0
C2159 C 0.70961 0.90096 0.78223 0.0
C2160 C 0.70556 0.88654 0.7964 0.0
C2161 C 0.71772 0.87064 0.7977 0.0
C2162 C 0.73069 0.91441 0.75436 0.0
C2163 C 0.68829 0.88784 0.81007 0.0
C2164 C 0.68816 0.95082 0.78893 0.0
C2165 C 0.67216 0.94942 0.77586 0.0
C2166 C 0.70041 0.9351 0.79126 0.0
C2167 C 0.69655 0.9176 0.78027 0.0
C2168 C 0.68034 0.91603 0.76718 0.0
C2169 C 0.66835 0.93197 0.76512 0.0
C2170 C 0.71759 0.93729 0.80533 0.0
C2171 C 0.67575 0.89756 0.75525 0.0
H2172 H 0.75007 0.88179 0.76135 0.0
H2173 H 0.71471 0.85967 0.80865 0.0
H2174 H 0.71837 0.91501 0.74371 0.0
H2175 H 0.73259 0.92907 0.76149 0.0
H2176 H 0.74422 0.91126 0.74609 0.0
H2177 H 0.68732 0.87555 0.82046 0.0
H2178 H 0.68937 0.90175 0.81873 0.0
H2179 H 0.6745 0.88784 0.80137 0.0
H2180 H 0.6912 0.96424 0.79729 0.0
H2181 H 0.65601 0.93075 0.75501 0.0
H2182 H 0.73144 0.93536 0.79722 0.0
H2183 H 0.71655 0.92579 0.81656 0.0
H2184 H 0.71841 0.95177 0.81301 0.0
H2185 H 0.68826 0.8943 0.74556 0.0
H2186 H 0.66242 0.89861 0.74594 0.0
H2187 H 0.67355 0.88506 0.7652 0.0
C2188 C 0.61846 0.55351 0.98898 0.0
C2189 C 0.61888 0.53836 0.97479 0.0
C2190 C 0.63452 0.5667 0.99171 0.0
C2191 C 0.65132 0.56478 0.97986 0.0
C2192 C 0.65181 0.54961 0.96545 0.0
C2193 C 0.63561 0.53653 0.96314 0.0
C2194 C 0.6335 0.58268 0.00728 0.0
C2195 C 0.66948 0.54714 0.95251 0.0
C2196 C 0.68616 0.60883 0.97462 0.0
C2197 C 0.70131 0.60447 0.98762 0.0
C2198 C 0.66978 0.59603 0.97195 0.0
C2199 C 0.66847 0.57856 0.98265 0.0
C2200 C 0.68363 0.57416 0.99592 0.0
C2201 C 0.69991 0.58713 0.99819 0.0
C2202 C 0.65395 0.60112 0.95755 0.0
C2203 C 0.68265 0.55573 0.0077 0.0
H2204 H 0.60547 0.55521 0.99783 0.0
H2205 H 0.63616 0.52469 0.95235 0.0
H2206 H 0.64566 0.58154 0.01804 0.0
H2207 H 0.63531 0.59715 0.00039 0.0
H2208 H 0.61942 0.58207 0.01537 0.0
H2209 H 0.66736 0.53482 0.94172 0.0
H2210 H 0.67269 0.56071 0.94432 0.0
H2211 H 0.68251 0.54452 0.96174 0.0
H2212 H 0.68717 0.62217 0.96636 0.0
H2213 H 0.71152 0.58369 0.00832 0.0
H2214 H 0.6397 0.60183 0.96522 0.0
H2215 H 0.65228 0.58957 0.9459 0.0
H2216 H 0.65715 0.61531 0.95043 0.0
H2217 H 0.66918 0.55521 0.01675 0.0
H2218 H 0.69553 0.5546 0.01762 0.0
H2219 H 0.68186 0.54278 0.99761 0.0
C2220 C 0.23403 0.60875 0.24058 0.0
C2221 C 0.23002 0.62212 0.22589 0.0
C2222 C 0.22226 0.59171 0.24273 0.0
C2223 C 0.20605 0.58801 0.22995 0.0
C2224 C 0.20188 0.60145 0.21512 0.0
C2225 C 0.21395 0.61833 0.21324 0.0
C2226 C 0.22715 0.57771 0.25872 0.0
C2227 C 0.18469 0.59798 0.20122 0.0
C2228 C 0.18589 0.53583 0.22416 0.0
C2229 C 0.16976 0.53585 0.23683 0.0
C2230 C 0.1978 0.55274 0.22172 0.0
C2231 C 0.19341 0.57008 0.23215 0.0
C2232 C 0.17707 0.57025 0.24485 0.0
C2233 C 0.16546 0.55312 0.24707 0.0
C2234 C 0.21515 0.552 0.2081 0.0
C2235 C 0.1719 0.58851 0.25615 0.0
H2236 H 0.24625 0.61172 0.25059 0.0
H2237 H 0.21093 0.62847 0.20169 0.0
H2238 H 0.21468 0.57609 0.26902 0.0
H2239 H 0.2296 0.56307 0.25216 0.0
H2240 H 0.24042 0.58262 0.26728 0.0
H2241 H 0.18337 0.60994 0.19059 0.0
H2242 H 0.18622 0.58407 0.19284 0.0
H2243 H 0.17091 0.59659 0.20972 0.0
H2244 H 0.18932 0.52255 0.21621 0.0
H2245 H 0.153 0.55328 0.25686 0.0
H2246 H 0.22884 0.55573 0.21646 0.0
H2247 H 0.21389 0.56299 0.19646 0.0
H2248 H 0.21646 0.53741 0.20093 0.0
H2249 H 0.18424 0.5934 0.26599 0.0
H2250 H 0.15856 0.58627 0.26522 0.0
H2251 H 0.16945 0.60046 0.24578 0.0
C2252 C 0.87906 0.53827 0.00261 0.0
C2253 C 0.89098 0.53948 0.01952 0.0
C2254 C 0.86414 0.5514 -0.00015 0.0
C2255 C 0.86105 0.56605 0.01436 0.0
C2256 C 0.87311 0.56745 0.03139 0.0
C2257 C 0.88795 0.55416 0.03375 0.0
C2258 C 0.85154 0.54946 0.9815 0.0
C2259 C 0.87025 0.58291 0.04717 0.0
C2260 C 0.83293 0.61013 -0.00029 0.0
C2261 C 0.81412 0.60526 0.00668 0.0
C2262 C 0.84838 0.59754 0.00217 0.0
C2263 C 0.84494 0.5797 0.0119 0.0
C2264 C 0.82605 0.57478 0.01914 0.0
C2265 C 0.81086 0.58761 0.01642 0.0
C2266 C 0.86835 0.60323 0.99422 0.0
C2267 C 0.82185 0.55592 0.02967 0.0
H2268 H 0.88117 0.52682 0.99168 0.0
H2269 H 0.89731 0.55536 0.0467 0.0
H2270 H 0.83604 0.54644 0.98561 0.0
H2271 H 0.85216 0.56336 0.97344 0.0
H2272 H 0.85617 0.53758 0.9714 0.0
H2273 H 0.88101 0.58214 0.05943 0.0
H2274 H 0.87167 0.59762 0.04073 0.0
H2275 H 0.85528 0.58127 0.0533 0.0
H2276 H 0.83557 0.62373 0.99214 0.0
H2277 H 0.79638 0.58374 0.0219 0.0
H2278 H 0.87283 0.59218 0.98315 0.0
H2279 H 0.87939 0.6036 0.00628 0.0
H2280 H 0.86866 0.61773 0.98723 0.0
H2281 H 0.82491 0.54335 0.01977 0.0
H2282 H 0.80642 0.55439 0.03464 0.0
H2283 H 0.83164 0.55509 0.0427 0.0
C2284 C 0.13618 0.99196 0.04069 0.0
C2285 C 0.11903 0.98656 0.03012 0.0
C2286 C 0.15301 0.98104 0.039 0.0
C2287 C 0.15271 0.96436 0.02636 0.0
C2288 C 0.13546 0.95879 0.01567 0.0
C2289 C 0.11881 0.96993 0.01772 0.0
C2290 C 0.17114 0.98741 0.05063 0.0
C2291 C 0.1346 0.94108 0.00205 0.0
C2292 C 0.20099 0.94637 0.0073 0.0
C2293 C 0.20399 0.93046 0.01944 0.0
C2294 C 0.1844 0.95757 0.00945 0.0
C2295 C 0.17052 0.95281 0.02415 0.0
C2296 C 0.17355 0.93692 0.0366 0.0
C2297 C 0.19023 0.9259 0.03407 0.0
C2298 C 0.18161 0.97439 0.99586 0.0
C2299 C 0.1591 0.93148 0.05251 0.0
H2300 H 0.13654 0.00495 0.05009 0.0
H2301 H 0.10554 0.96551 0.00972 0.0
H2302 H 0.17572 0.97541 0.0601 0.0
H2303 H 0.18339 0.99077 0.04043 0.0
H2304 H 0.16884 0.00051 0.06011 0.0
H2305 H 0.12007 0.93873 0.99479 0.0
H2306 H 0.14591 0.94269 0.99048 0.0
H2307 H 0.13786 0.92786 0.0104 0.0
H2308 H 0.21152 0.94998 0.99594 0.0
H2309 H 0.19246 0.91366 0.04354 0.0
H2310 H 0.18035 0.98813 0.00458 0.0
H2311 H 0.16779 0.97196 0.98735 0.0
H2312 H 0.19388 0.97632 0.98533 0.0
H2313 H 0.15726 0.94411 0.06272 0.0
H2314 H 0.16378 0.91892 0.06118 0.0
H2315 H 0.14455 0.92769 0.04583 0.0
loop_
_geom_bond_atom_site_label_1
_geom_bond_atom_site_label_2
_geom_bond_distance
_geom_bond_site_symmetry_2
_ccdc_geom_bond_type
C0 C1 1.386 . S
C0 C2 1.397 . S
C0 H24 0.931 . S
C1 C0 1.386 . S
C1 C5 1.397 1_556 S
C2 C0 1.397 . S
C2 C3 1.384 1_556 S
C2 H25 0.930 . S
C3 C2 1.384 1_554 S
C3 C4 1.377 . S
C3 C6 1.481 . S
C4 C3 1.377 . S
C4 C5 1.389 . S
C4 H26 0.929 . S
C5 C1 1.397 1_554 S
C5 C4 1.389 . S
C5 H27 0.931 . S
C6 C3 1.481 . S
C6 C7 1.387 . S
C6 C11 1.390 . S
C7 C6 1.387 . S
C7 C8 1.401 . S
C7 H28 0.930 . S
C8 C7 1.401 . S
C8 C9 1.376 . S
C8 C17 1.511 . S
C9 C8 1.376 . S
C9 C10 1.392 . S
C9 H30 0.931 . S
C10 C9 1.392 . S
C10 C11 1.361 . S
C10 C12 1.500 . S
C11 C6 1.390 . S
C11 C10 1.361 . S
C11 H29 0.931 . S
C12 C10 1.500 . S
C12 C13 1.371 . S
C12 C14 1.365 . S
C13 C12 1.371 . S
C13 C23 1.386 1_455 S
C13 H31 0.931 . S
C14 C12 1.365 . S
C14 C15 1.409 1_455 S
C14 H32 0.929 . S
C15 C14 1.409 1_655 S
C15 C16 1.380 . S
C15 H33 0.930 . S
C16 C15 1.380 . S
C16 C23 1.357 . S
C17 C8 1.511 . S
C17 C18 1.341 . S
C17 C19 1.371 . S
C18 C17 1.341 . S
C18 C22 1.394 . S
C18 H34 0.930 . S
C19 C17 1.371 . S
C19 C20 1.392 1_545 S
C19 H35 0.931 . S
C20 C19 1.392 1_565 S
C20 C21 1.331 . S
C20 H38 0.932 . S
C21 C20 1.331 . S
C21 C22 1.336 1_565 S
C22 C18 1.394 . S
C22 C21 1.336 1_545 S
C22 H37 0.929 . S
C23 C13 1.386 1_655 S
C23 C16 1.357 . S
C23 H36 0.928 . S
H24 C0 0.931 . S
H25 C2 0.930 . S
H26 C4 0.929 . S
H27 C5 0.931 . S
H28 C7 0.930 . S
H29 C11 0.931 . S
H30 C9 0.931 . S
H31 C13 0.931 . S
H32 C14 0.929 . S
H33 C15 0.930 . S
H34 C18 0.930 . S
H35 C19 0.931 . S
H36 C23 0.928 . S
H37 C22 0.929 . S
H38 C20 0.932 . S
C39 C40 1.386 . S
C39 C41 1.397 . S
C39 H63 0.931 . S
C40 C39 1.386 . S
C40 C44 1.397 . S
C41 C39 1.397 . S
C41 C42 1.384 . S
C41 H64 0.930 . S
C42 C41 1.384 . S
C42 C43 1.377 . S
C42 C45 1.481 . S
C43 C42 1.377 . S
C43 C44 1.389 . S
C43 H65 0.929 . S
C44 C40 1.397 . S
C44 C43 1.389 . S
C44 H66 0.931 . S
C45 C42 1.481 . S
C45 C46 1.387 . S
C45 C50 1.390 . S
C46 C45 1.387 . S
C46 C47 1.401 . S
C46 H67 0.930 . S
C47 C46 1.401 . S
C47 C48 1.376 . S
C47 C56 1.511 . S
C48 C47 1.376 . S
C48 C49 1.392 . S
C48 H69 0.931 . S
C49 C48 1.392 . S
C49 C50 1.361 . S
C49 C51 1.500 . S
C50 C45 1.390 . S
C50 C49 1.361 . S
C50 H68 0.931 . S
C51 C49 1.500 . S
C51 C52 1.371 . S
C51 C53 1.365 . S
C52 C51 1.371 . S
C52 C62 1.386 . S
C52 H70 0.931 . S
C53 C51 1.365 . S
C53 C54 1.409 . S
C53 H71 0.929 . S
C54 C53 1.409 . S
C54 C55 1.380 . S
C54 H72 0.930 . S
C55 C54 1.380 . S
C55 C62 1.357 . S
C56 C47 1.511 . S
C56 C57 1.341 . S
C56 C58 1.371 . S
C57 C56 1.341 . S
C57 C61 1.394 . S
C57 H73 0.930 . S
C58 C56 1.371 . S
C58 C59 1.392 . S
C58 H74 0.931 . S
C59 C58 1.392 . S
C59 C60 1.331 . S
C59 H77 0.932 . S
C60 C59 1.331 . S
C60 C61 1.336 . S
C61 C57 1.394 . S
C61 C60 1.336 . S
C61 H76 0.929 . S
C62 C52 1.386 . S
C62 C55 1.357 . S
C62 H75 0.928 . S
H63 C39 0.931 . S
H64 C41 0.930 . S
H65 C43 0.929 . S
H66 C44 0.931 . S
H67 C46 0.930 . S
H68 C50 0.931 . S
H69 C48 0.931 . S
H70 C52 0.931 . S
H71 C53 0.929 . S
H72 C54 0.930 . S
H73 C57 0.930 . S
H74 C58 0.931 . S
H75 C62 0.928 . S
H76 C61 0.929 . S
H77 C59 0.932 . S
C78 C79 1.386 1_655 S
C78 C80 1.397 . S
C78 H102 0.931 . S
C79 C78 1.386 1_455 S
C79 C83 1.397 . S
C80 C78 1.397 . S
C80 C81 1.384 . S
C80 H103 0.930 . S
C81 C80 1.384 . S
C81 C82 1.377 1_655 S
C81 C84 1.481 . S
C82 C81 1.377 1_455 S
C82 C83 1.389 . S
C82 H104 0.929 . S
C83 C79 1.397 . S
C83 C82 1.389 . S
C83 H105 0.931 . S
C84 C81 1.481 . S
C84 C85 1.387 . S
C84 C89 1.390 . S
C85 C84 1.387 . S
C85 C86 1.401 . S
C85 H106 0.930 . S
C86 C85 1.401 . S
C86 C87 1.376 . S
C86 C95 1.511 . S
C87 C86 1.376 . S
C87 C88 1.392 . S
C87 H108 0.931 . S
C88 C87 1.392 . S
C88 C89 1.361 . S
C88 C90 1.500 . S
C89 C84 1.390 . S
C89 C88 1.361 . S
C89 H107 0.931 . S
C90 C88 1.500 . S
C90 C91 1.378 . S
C90 C92 1.365 . S
C91 C90 1.378 . S
C91 C101 1.378 1_554 S
C91 H109 0.933 . S
C92 C90 1.365 . S
C92 C93 1.409 1_554 S
C92 H110 0.894 1_655 S
C93 C92 1.409 1_556 S
C93 C94 1.380 . S
C93 H111 0.930 1_655 S
C94 C93 1.380 . S
C94 C101 1.357 . S
C95 C86 1.511 . S
C95 C96 1.341 . S
C95 C97 1.371 . S
C96 C95 1.341 . S
C96 C100 1.394 . S
C96 H112 0.930 . S
C97 C95 1.371 . S
C97 C98 1.392 . S
C97 H113 0.931 . S
C98 C97 1.392 . S
C98 C99 1.331 . S
C98 H116 0.932 1_554 S
C99 C98 1.331 . S
C99 C100 1.336 . S
C100 C96 1.394 . S
C100 C99 1.336 . S
C100 H115 0.929 . S
C101 C91 1.378 1_556 S
C101 C94 1.357 . S
C101 H114 0.928 . S
H102 C78 0.931 . S
H103 C80 0.930 . S
H104 C82 0.929 . S
H105 C83 0.931 . S
H106 C85 0.930 . S
H107 C89 0.931 . S
H108 C87 0.931 . S
H109 C91 0.933 . S
H110 C92 0.894 1_455 S
H111 C93 0.930 1_455 S
H112 C96 0.930 . S
H113 C97 0.931 . S
H114 C101 0.928 . S
H115 C100 0.929 . S
H116 C98 0.932 1_556 S
C117 C118 1.386 . S
C117 C119 1.397 . S
C117 H141 0.931 . S
C118 C117 1.386 . S
C118 C122 1.397 . S
C119 C117 1.397 . S
C119 C120 1.384 . S
C119 H142 0.930 . S
C120 C119 1.384 . S
C120 C121 1.377 . S
C120 C123 1.481 . S
C121 C120 1.377 . S
C121 C122 1.389 . S
C121 H143 0.929 . S
C122 C118 1.397 . S
C122 C121 1.389 . S
C122 H144 0.931 . S
C123 C120 1.481 . S
C123 C124 1.387 . S
C123 C128 1.390 . S
C124 C123 1.387 . S
C124 C125 1.401 . S
C124 H145 0.930 . S
C125 C124 1.401 . S
C125 C126 1.376 . S
C125 C134 1.511 . S
C126 C125 1.376 . S
C126 C127 1.392 . S
C126 H147 0.931 . S
C127 C126 1.392 . S
C127 C128 1.361 . S
C127 C129 1.500 . S
C128 C123 1.390 . S
C128 C127 1.361 . S
C128 H146 0.931 . S
C129 C127 1.500 . S
C129 C130 1.371 . S
C129 C131 1.365 . S
C130 C129 1.371 . S
C130 C140 1.386 . S
C130 H148 0.931 . S
C131 C129 1.365 . S
C131 C132 1.409 . S
C131 H149 0.929 . S
C132 C131 1.409 . S
C132 C133 1.380 . S
C132 H150 0.930 . S
C133 C132 1.380 . S
C133 C140 1.357 . S
C134 C125 1.511 . S
C134 C135 1.341 . S
C134 C136 1.371 . S
C135 C134 1.341 . S
C135 C139 1.394 . S
C135 H151 0.930 . S
C136 C134 1.371 . S
C136 C137 1.392 . S
C136 H152 0.931 . S
C137 C136 1.392 . S
C137 C138 1.331 . S
C137 H155 0.932 . S
C138 C137 1.331 . S
C138 C139 1.336 . S
C139 C135 1.394 . S
C139 C138 1.336 . S
C139 H154 0.929 . S
C140 C130 1.386 . S
C140 C133 1.357 . S
C140 H153 0.928 . S
H141 C117 0.931 . S
H142 C119 0.930 . S
H143 C121 0.929 . S
H144 C122 0.931 . S
H145 C124 0.930 . S
H146 C128 0.931 . S
H147 C126 0.931 . S
H148 C130 0.931 . S
H149 C131 0.929 . S
H150 C132 0.930 . S
H151 C135 0.930 . S
H152 C136 0.931 . S
H153 C140 0.928 . S
H154 C139 0.929 . S
H155 C137 0.932 . S
C156 C157 1.386 . S
C156 C158 1.397 . S
C156 H180 0.931 . S
C157 C156 1.386 . S
C157 C161 1.397 1_655 S
C158 C156 1.397 . S
C158 C159 1.384 1_655 S
C158 H181 0.930 . S
C159 C158 1.384 1_455 S
C159 C160 1.377 . S
C159 C162 1.481 . S
C160 C159 1.377 . S
C160 C161 1.389 . S
C160 H182 0.929 . S
C161 C157 1.397 1_455 S
C161 C160 1.389 . S
C161 H183 0.931 . S
C162 C159 1.481 . S
C162 C163 1.387 . S
C162 C167 1.390 . S
C163 C162 1.387 . S
C163 C164 1.401 . S
C163 H184 0.930 . S
C164 C163 1.401 . S
C164 C165 1.376 . S
C164 C173 1.511 . S
C165 C164 1.376 . S
C165 C166 1.392 . S
C165 H186 0.931 . S
C166 C165 1.392 . S
C166 C167 1.361 . S
C166 C168 1.536 . S
C167 C162 1.390 . S
C167 C166 1.361 . S
C167 H185 0.931 . S
C168 C166 1.536 . S
C168 C169 1.363 1_565 S
C168 C170 1.339 1_565 S
C169 C168 1.363 1_545 S
C169 C179 1.386 . S
C169 H187 0.931 1_545 S
C170 C168 1.339 1_545 S
C170 C171 1.409 . S
C170 H188 0.929 . S
C171 C170 1.409 . S
C171 C172 1.380 . S
C171 H189 0.930 . S
C172 C171 1.380 . S
C172 C179 1.357 . S
C173 C164 1.511 . S
C173 C174 1.341 . S
C173 C175 1.371 . S
C174 C173 1.341 . S
C174 C178 1.394 . S
C174 H190 0.930 . S
C175 C173 1.371 . S
C175 C176 1.392 . S
C175 H191 0.931 . S
C176 C175 1.392 . S
C176 C177 1.331 . S
C176 H194 0.932 . S
C177 C176 1.331 . S
C177 C178 1.336 . S
C178 C174 1.394 . S
C178 C177 1.336 . S
C178 H193 0.882 1_455 S
C179 C169 1.386 . S
C179 C172 1.357 . S
C179 H192 0.928 . S
H180 C156 0.931 . S
H181 C158 0.930 . S
H182 C160 0.929 . S
H183 C161 0.931 . S
H184 C163 0.930 . S
H185 C167 0.931 . S
H186 C165 0.931 . S
H187 C169 0.931 1_565 S
H188 C170 0.929 . S
H189 C171 0.930 . S
H190 C174 0.930 . S
H191 C175 0.931 . S
H192 C179 0.928 . S
H193 C178 0.882 1_655 S
H194 C176 0.932 . S
C195 C196 1.386 . S
C195 C197 1.397 . S
C195 H219 0.931 . S
C196 C195 1.386 . S
C196 C200 1.397 . S
C197 C195 1.397 . S
C197 C198 1.384 . S
C197 H220 0.930 . S
C198 C197 1.384 . S
C198 C199 1.377 . S
C198 C201 1.481 . S
C199 C198 1.377 . S
C199 C200 1.389 . S
C199 H221 0.929 . S
C200 C196 1.397 . S
C200 C199 1.389 . S
C200 H222 0.931 . S
C201 C198 1.481 . S
C201 C202 1.387 . S
C201 C206 1.390 . S
C202 C201 1.387 . S
C202 C203 1.401 . S
C202 H223 0.930 . S
C203 C202 1.401 . S
C203 C204 1.376 . S
C203 C212 1.511 . S
C204 C203 1.376 . S
C204 C205 1.392 . S
C204 H225 0.931 . S
C205 C204 1.392 . S
C205 C206 1.361 . S
C205 C207 1.500 . S
C206 C201 1.390 . S
C206 C205 1.361 . S
C206 H224 0.931 . S
C207 C205 1.500 . S
C207 C208 1.371 . S
C207 C209 1.365 . S
C208 C207 1.371 . S
C208 C218 1.386 . S
C208 H226 0.931 . S
C209 C207 1.365 . S
C209 C210 1.409 . S
C209 H227 0.929 . S
C210 C209 1.409 . S
C210 C211 1.380 . S
C210 H228 0.930 . S
C211 C210 1.380 . S
C211 C218 1.357 . S
C212 C203 1.511 . S
C212 C213 1.341 . S
C212 C214 1.371 . S
C213 C212 1.341 . S
C213 C217 1.394 . S
C213 H229 0.930 . S
C214 C212 1.371 . S
C214 C215 1.392 . S
C214 H230 0.931 . S
C215 C214 1.392 . S
C215 C216 1.331 . S
C215 H233 0.932 . S
C216 C215 1.331 . S
C216 C217 1.336 . S
C217 C213 1.394 . S
C217 C216 1.336 . S
C217 H232 0.929 . S
C218 C208 1.386 . S
C218 C211 1.357 . S
C218 H231 0.928 . S
H219 C195 0.931 . S
H220 C197 0.930 . S
H221 C199 0.929 . S
H222 C200 0.931 . S
H223 C202 0.930 . S
H224 C206 0.931 . S
H225 C204 0.931 . S
H226 C208 0.931 . S
H227 C209 0.929 . S
H228 C210 0.930 . S
H229 C213 0.930 . S
H230 C214 0.931 . S
H231 C218 0.928 . S
H232 C217 0.929 . S
H233 C215 0.932 . S
C234 C235 1.386 . S
C234 C236 1.397 . S
C234 H258 0.931 . S
C235 C234 1.386 . S
C235 C239 1.397 . S
C236 C234 1.397 . S
C236 C237 1.384 . S
C236 H259 0.930 . S
C237 C236 1.384 . S
C237 C238 1.377 . S
C237 C240 1.481 . S
C238 C237 1.377 . S
C238 C239 1.389 . S
C238 H260 0.929 . S
C239 C235 1.397 . S
C239 C238 1.389 . S
C239 H261 0.931 . S
C240 C237 1.481 . S
C240 C241 1.387 . S
C240 C245 1.390 . S
C241 C240 1.387 . S
C241 C242 1.401 . S
C241 H262 0.930 . S
C242 C241 1.401 . S
C242 C243 1.376 . S
C242 C251 1.511 . S
C243 C242 1.376 . S
C243 C244 1.392 . S
C243 H264 0.931 . S
C244 C243 1.392 . S
C244 C245 1.361 . S
C244 C246 1.500 . S
C245 C240 1.390 . S
C245 C244 1.361 . S
C245 H263 0.931 . S
C246 C244 1.500 . S
C246 C247 1.371 . S
C246 C248 1.365 . S
C247 C246 1.371 . S
C247 C257 1.386 . S
C247 H265 0.931 . S
C248 C246 1.365 . S
C248 C249 1.409 . S
C248 H266 0.929 . S
C249 C248 1.409 . S
C249 C250 1.380 . S
C249 H267 0.930 . S
C250 C249 1.380 . S
C250 C257 1.357 . S
C251 C242 1.511 . S
C251 C252 1.341 1_655 S
C251 C253 1.371 . S
C252 C251 1.341 1_455 S
C252 C256 1.394 . S
C252 H268 0.930 . S
C253 C251 1.371 . S
C253 C254 1.392 1_655 S
C253 H269 0.931 . S
C254 C253 1.392 1_455 S
C254 C255 1.331 . S
C254 H272 0.932 . S
C255 C254 1.331 . S
C255 C256 1.336 . S
C256 C252 1.394 . S
C256 C255 1.336 . S
C256 H271 0.929 . S
C257 C247 1.386 . S
C257 C250 1.357 . S
C257 H270 0.928 . S
H258 C234 0.931 . S
H259 C236 0.930 . S
H260 C238 0.929 . S
H261 C239 0.931 . S
H262 C241 0.930 . S
H263 C245 0.931 . S
H264 C243 0.931 . S
H265 C247 0.931 . S
H266 C248 0.929 . S
H267 C249 0.930 . S
H268 C252 0.930 . S
H269 C253 0.931 . S
H270 C257 0.928 . S
H271 C256 0.929 . S
H272 C254 0.932 . S
C273 C274 1.386 . S
C273 C275 1.397 . S
C273 H297 0.931 . S
C274 C273 1.386 . S
C274 C278 1.397 . S
C275 C273 1.397 . S
C275 C276 1.384 . S
C275 H298 0.930 . S
C276 C275 1.384 . S
C276 C277 1.377 . S
C276 C279 1.481 . S
C277 C276 1.377 . S
C277 C278 1.389 . S
C277 H299 0.929 . S
C278 C274 1.397 . S
C278 C277 1.389 . S
C278 H300 0.931 . S
C279 C276 1.481 . S
C279 C280 1.387 . S
C279 C284 1.390 . S
C280 C279 1.387 . S
C280 C281 1.401 . S
C280 H301 0.930 . S
C281 C280 1.401 . S
C281 C282 1.376 . S
C281 C290 1.511 . S
C282 C281 1.376 . S
C282 C283 1.392 . S
C282 H303 0.931 . S
C283 C282 1.392 . S
C283 C284 1.361 . S
C283 C285 1.500 . S
C284 C279 1.390 . S
C284 C283 1.361 . S
C284 H302 0.931 . S
C285 C283 1.500 . S
C285 C286 1.371 . S
C285 C287 1.365 . S
C286 C285 1.371 . S
C286 C296 1.386 . S
C286 H304 0.931 . S
C287 C285 1.365 . S
C287 C288 1.409 . S
C287 H305 0.929 . S
C288 C287 1.409 . S
C288 C289 1.380 . S
C288 H306 0.930 . S
C289 C288 1.380 . S
C289 C296 1.357 . S
C290 C281 1.511 . S
C290 C291 1.341 . S
C290 C292 1.371 . S
C291 C290 1.341 . S
C291 C295 1.394 . S
C291 H307 0.930 . S
C292 C290 1.371 . S
C292 C293 1.392 . S
C292 H308 0.931 . S
C293 C292 1.392 . S
C293 C294 1.331 . S
C293 H311 0.932 . S
C294 C293 1.331 . S
C294 C295 1.336 . S
C295 C291 1.394 . S
C295 C294 1.336 . S
C295 H310 0.929 . S
C296 C286 1.386 . S
C296 C289 1.357 . S
C296 H309 0.928 . S
H297 C273 0.931 . S
H298 C275 0.930 . S
H299 C277 0.929 . S
H300 C278 0.931 . S
H301 C280 0.930 . S
H302 C284 0.931 . S
H303 C282 0.931 . S
H304 C286 0.931 . S
H305 C287 0.929 . S
H306 C288 0.930 . S
H307 C291 0.930 . S
H308 C292 0.931 . S
H309 C296 0.928 . S
H310 C295 0.929 . S
H311 C293 0.932 . S
C312 C313 1.386 . S
C312 C314 1.397 . S
C312 H336 0.931 . S
C313 C312 1.386 . S
C313 C317 1.397 . S
C314 C312 1.397 . S
C314 C315 1.384 . S
C314 H337 0.930 . S
C315 C314 1.384 . S
C315 C316 1.377 . S
C315 C318 1.481 . S
C316 C315 1.377 . S
C316 C317 1.389 . S
C316 H338 0.929 . S
C317 C313 1.397 . S
C317 C316 1.389 . S
C317 H339 0.931 . S
C318 C315 1.481 . S
C318 C319 1.387 . S
C318 C323 1.390 . S
C319 C318 1.387 . S
C319 C320 1.401 . S
C319 H340 0.930 . S
C320 C319 1.401 . S
C320 C321 1.376 . S
C320 C329 1.511 . S
C321 C320 1.376 . S
C321 C322 1.392 . S
C321 H342 0.931 . S
C322 C321 1.392 . S
C322 C323 1.361 . S
C322 C324 1.500 . S
C323 C318 1.390 . S
C323 C322 1.361 . S
C323 H341 0.931 . S
C324 C322 1.500 . S
C324 C325 1.371 . S
C324 C326 1.365 . S
C325 C324 1.371 . S
C325 C335 1.386 . S
C325 H343 0.931 . S
C326 C324 1.365 . S
C326 C327 1.409 . S
C326 H344 0.929 . S
C327 C326 1.409 . S
C327 C328 1.380 . S
C327 H345 0.930 . S
C328 C327 1.380 . S
C328 C335 1.357 . S
C329 C320 1.511 . S
C329 C330 1.341 . S
C329 C331 1.371 . S
C330 C329 1.341 . S
C330 C334 1.394 . S
C330 H346 0.930 . S
C331 C329 1.371 . S
C331 C332 1.392 . S
C331 H347 0.931 . S
C332 C331 1.392 . S
C332 C333 1.331 . S
C332 H350 0.932 . S
C333 C332 1.331 . S
C333 C334 1.336 . S
C334 C330 1.394 . S
C334 C333 1.336 . S
C334 H349 0.929 . S
C335 C325 1.386 . S
C335 C328 1.357 . S
C335 H348 0.928 . S
H336 C312 0.931 . S
H337 C314 0.930 . S
H338 C316 0.929 . S
H339 C317 0.931 . S
H340 C319 0.930 . S
H341 C323 0.931 . S
H342 C321 0.931 . S
H343 C325 0.931 . S
H344 C326 0.929 . S
H345 C327 0.930 . S
H346 C330 0.930 . S
H347 C331 0.931 . S
H348 C335 0.928 . S
H349 C334 0.929 . S
H350 C332 0.932 . S
C351 C352 1.386 . S
C351 C353 1.397 . S
C351 H375 0.931 . S
C352 C351 1.386 . S
C352 C356 1.397 . S
C353 C351 1.397 . S
C353 C354 1.384 . S
C353 H376 0.930 . S
C354 C353 1.384 . S
C354 C355 1.377 . S
C354 C357 1.481 . S
C355 C354 1.377 . S
C355 C356 1.389 . S
C355 H377 0.929 . S
C356 C352 1.397 . S
C356 C355 1.389 . S
C356 H378 0.931 . S
C357 C354 1.481 . S
C357 C358 1.387 . S
C357 C362 1.390 . S
C358 C357 1.387 . S
C358 C359 1.401 . S
C358 H379 0.930 . S
C359 C358 1.401 . S
C359 C360 1.376 . S
C359 C368 1.511 . S
C360 C359 1.376 . S
C360 C361 1.392 . S
C360 H381 0.931 . S
C361 C360 1.392 . S
C361 C362 1.361 . S
C361 C363 1.500 . S
C362 C357 1.390 . S
C362 C361 1.361 . S
C362 H380 0.931 . S
C363 C361 1.500 . S
C363 C364 1.371 . S
C363 C365 1.365 . S
C364 C363 1.371 . S
C364 C374 1.386 . S
C364 H382 0.931 . S
C365 C363 1.365 . S
C365 C366 1.409 . S
C365 H383 0.929 . S
C366 C365 1.409 . S
C366 C367 1.380 . S
C366 H384 0.930 . S
C367 C366 1.380 . S
C367 C374 1.357 . S
C368 C359 1.511 . S
C368 C369 1.341 1_565 S
C368 C370 1.371 . S
C369 C368 1.341 1_545 S
C369 C373 1.394 . S
C369 H385 0.930 . S
C370 C368 1.371 . S
C370 C371 1.392 1_565 S
C370 H386 0.931 . S
C371 C370 1.392 1_545 S
C371 C372 1.331 . S
C371 H389 0.932 . S
C372 C371 1.331 . S
C372 C373 1.336 . S
C373 C369 1.394 . S
C373 C372 1.336 . S
C373 H388 0.929 . S
C374 C364 1.386 . S
C374 C367 1.357 . S
C374 H387 0.928 . S
H375 C351 0.931 . S
H376 C353 0.930 . S
H377 C355 0.929 . S
H378 C356 0.931 . S
H379 C358 0.930 . S
H380 C362 0.931 . S
H381 C360 0.931 . S
H382 C364 0.931 . S
H383 C365 0.929 . S
H384 C366 0.930 . S
H385 C369 0.930 . S
H386 C370 0.931 . S
H387 C374 0.928 . S
H388 C373 0.929 . S
H389 C371 0.932 . S
C390 C391 1.386 . S
C390 C392 1.397 . S
C390 H414 0.931 . S
C391 C390 1.386 . S
C391 C395 1.397 . S
C392 C390 1.397 . S
C392 C393 1.384 . S
C392 H415 0.930 . S
C393 C392 1.384 . S
C393 C394 1.377 . S
C393 C396 1.481 . S
C394 C393 1.377 . S
C394 C395 1.389 . S
C394 H416 0.929 . S
C395 C391 1.397 . S
C395 C394 1.389 . S
C395 H417 0.931 . S
C396 C393 1.481 . S
C396 C397 1.387 . S
C396 C401 1.390 . S
C397 C396 1.387 . S
C397 C398 1.401 . S
C397 H418 0.930 . S
C398 C397 1.401 . S
C398 C399 1.376 . S
C398 C407 1.511 . S
C399 C398 1.376 . S
C399 C400 1.392 . S
C399 H420 0.931 . S
C400 C399 1.392 . S
C400 C401 1.361 . S
C400 C402 1.500 . S
C401 C396 1.390 . S
C401 C400 1.361 . S
C401 H419 0.931 . S
C402 C400 1.500 . S
C402 C403 1.371 . S
C402 C404 1.365 . S
C403 C402 1.371 . S
C403 C413 1.386 . S
C403 H421 0.931 . S
C404 C402 1.365 . S
C404 C405 1.409 . S
C404 H422 0.929 . S
C405 C404 1.409 . S
C405 C406 1.380 . S
C405 H423 0.930 . S
C406 C405 1.380 . S
C406 C413 1.357 . S
C407 C398 1.511 . S
C407 C408 1.341 . S
C407 C409 1.371 . S
C408 C407 1.341 . S
C408 C412 1.394 . S
C408 H424 0.930 . S
C409 C407 1.371 . S
C409 C410 1.392 . S
C409 H425 0.931 . S
C410 C409 1.392 . S
C410 C411 1.331 . S
C410 H428 0.932 . S
C411 C410 1.331 . S
C411 C412 1.336 . S
C412 C408 1.394 . S
C412 C411 1.336 . S
C412 H427 0.929 . S
C413 C403 1.386 . S
C413 C406 1.357 . S
C413 H426 0.928 . S
H414 C390 0.931 . S
H415 C392 0.930 . S
H416 C394 0.929 . S
H417 C395 0.931 . S
H418 C397 0.930 . S
H419 C401 0.931 . S
H420 C399 0.931 . S
H421 C403 0.931 . S
H422 C404 0.929 . S
H423 C405 0.930 . S
H424 C408 0.930 . S
H425 C409 0.931 . S
H426 C413 0.928 . S
H427 C412 0.929 . S
H428 C410 0.932 . S
C429 C430 1.386 . S
C429 C431 1.397 . S
C429 H453 0.931 . S
C430 C429 1.386 . S
C430 C434 1.397 . S
C431 C429 1.397 . S
C431 C432 1.384 . S
C431 H454 0.930 . S
C432 C431 1.384 . S
C432 C433 1.377 . S
C432 C435 1.481 . S
C433 C432 1.377 . S
C433 C434 1.389 . S
C433 H455 0.929 . S
C434 C430 1.397 . S
C434 C433 1.389 . S
C434 H456 0.931 . S
C435 C432 1.481 . S
C435 C436 1.387 . S
C435 C440 1.390 . S
C436 C435 1.387 . S
C436 C437 1.401 . S
C436 H457 0.930 . S
C437 C436 1.401 . S
C437 C438 1.376 . S
C437 C446 1.511 . S
C438 C437 1.376 . S
C438 C439 1.392 . S
C438 H459 0.931 . S
C439 C438 1.392 . S
C439 C440 1.361 . S
C439 C441 1.500 . S
C440 C435 1.390 . S
C440 C439 1.361 . S
C440 H458 0.931 . S
C441 C439 1.500 . S
C441 C442 1.371 . S
C441 C443 1.365 . S
C442 C441 1.371 . S
C442 C452 1.386 . S
C442 H460 0.931 . S
C443 C441 1.365 . S
C443 C444 1.409 . S
C443 H461 0.929 . S
C444 C443 1.409 . S
C444 C445 1.380 . S
C444 H462 0.930 . S
C445 C444 1.380 . S
C445 C452 1.357 . S
C446 C437 1.511 . S
C446 C447 1.341 . S
C446 C448 1.371 . S
C447 C446 1.341 . S
C447 C451 1.394 . S
C447 H463 0.930 . S
C448 C446 1.371 . S
C448 C449 1.392 . S
C448 H464 0.931 . S
C449 C448 1.392 . S
C449 C450 1.331 . S
C449 H467 0.932 . S
C450 C449 1.331 . S
C450 C451 1.336 . S
C451 C447 1.394 . S
C451 C450 1.336 . S
C451 H466 0.929 . S
C452 C442 1.386 . S
C452 C445 1.357 . S
C452 H465 0.928 . S
H453 C429 0.931 . S
H454 C431 0.930 . S
H455 C433 0.929 . S
H456 C434 0.931 . S
H457 C436 0.930 . S
H458 C440 0.931 . S
H459 C438 0.931 . S
H460 C442 0.931 . S
H461 C443 0.929 . S
H462 C444 0.930 . S
H463 C447 0.930 . S
H464 C448 0.931 . S
H465 C452 0.928 . S
H466 C451 0.929 . S
H467 C449 0.932 . S
C468 C469 1.386 . S
C468 C470 1.397 . S
C468 H492 0.931 . S
C469 C468 1.386 . S
C469 C473 1.397 . S
C470 C468 1.397 . S
C470 C471 1.384 . S
C470 H493 0.930 . S
C471 C470 1.384 . S
C471 C472 1.377 . S
C471 C474 1.481 . S
C472 C471 1.377 . S
C472 C473 1.389 . S
C472 H494 0.929 . S
C473 C469 1.397 . S
C473 C472 1.389 . S
C473 H495 0.931 . S
C474 C471 1.481 . S
C474 C475 1.387 . S
C474 C479 1.390 . S
C475 C474 1.387 . S
C475 C476 1.401 . S
C475 H496 0.930 . S
C476 C475 1.401 . S
C476 C477 1.376 . S
C476 C485 1.511 . S
C477 C476 1.376 . S
C477 C478 1.392 . S
C477 H498 0.931 . S
C478 C477 1.392 . S
C478 C479 1.361 . S
C478 C480 1.500 . S
C479 C474 1.390 . S
C479 C478 1.361 . S
C479 H497 0.931 . S
C480 C478 1.500 . S
C480 C481 1.371 . S
C480 C482 1.365 . S
C481 C480 1.371 . S
C481 C491 1.386 . S
C481 H499 0.931 . S
C482 C480 1.365 . S
C482 C483 1.409 . S
C482 H500 0.929 . S
C483 C482 1.409 . S
C483 C484 1.380 . S
C483 H501 0.930 . S
C484 C483 1.380 . S
C484 C491 1.357 . S
C485 C476 1.511 . S
C485 C486 1.341 . S
C485 C487 1.371 . S
C486 C485 1.341 . S
C486 C490 1.394 . S
C486 H502 0.930 . S
C487 C485 1.371 . S
C487 C488 1.392 . S
C487 H503 0.931 . S
C488 C487 1.392 . S
C488 C489 1.331 . S
C488 H506 0.932 . S
C489 C488 1.331 . S
C489 C490 1.336 . S
C490 C486 1.394 . S
C490 C489 1.336 . S
C490 H505 0.929 . S
C491 C481 1.386 . S
C491 C484 1.357 . S
C491 H504 0.928 . S
H492 C468 0.931 . S
H493 C470 0.930 . S
H494 C472 0.929 . S
H495 C473 0.931 . S
H496 C475 0.930 . S
H497 C479 0.931 . S
H498 C477 0.931 . S
H499 C481 0.931 . S
H500 C482 0.929 . S
H501 C483 0.930 . S
H502 C486 0.930 . S
H503 C487 0.931 . S
H504 C491 0.928 . S
H505 C490 0.929 . S
H506 C488 0.932 . S
C507 C508 1.386 . S
C507 C509 1.397 . S
C507 H531 0.931 . S
C508 C507 1.386 . S
C508 C512 1.397 . S
C509 C507 1.397 . S
C509 C510 1.384 . S
C509 H532 0.930 . S
C510 C509 1.384 . S
C510 C511 1.377 . S
C510 C513 1.481 . S
C511 C510 1.377 . S
C511 C512 1.389 . S
C511 H533 0.929 . S
C512 C508 1.397 . S
C512 C511 1.389 . S
C512 H534 0.931 . S
C513 C510 1.481 . S
C513 C514 1.387 . S
C513 C518 1.390 . S
C514 C513 1.387 . S
C514 C515 1.401 . S
C514 H535 0.930 . S
C515 C514 1.401 . S
C515 C516 1.376 . S
C515 C524 1.511 . S
C516 C515 1.376 . S
C516 C517 1.392 . S
C516 H537 0.931 . S
C517 C516 1.392 . S
C517 C518 1.361 . S
C517 C519 1.500 . S
C518 C513 1.390 . S
C518 C517 1.361 . S
C518 H536 0.931 . S
C519 C517 1.500 . S
C519 C520 1.371 . S
C519 C521 1.365 . S
C520 C519 1.371 . S
C520 C530 1.386 . S
C520 H538 0.931 . S
C521 C519 1.365 . S
C521 C522 1.409 . S
C521 H539 0.929 . S
C522 C521 1.409 . S
C522 C523 1.380 . S
C522 H540 0.930 . S
C523 C522 1.380 . S
C523 C530 1.357 . S
C524 C515 1.511 . S
C524 C525 1.341 . S
C524 C526 1.371 . S
C525 C524 1.341 . S
C525 C529 1.370 1_556 S
C525 H541 0.930 . S
C526 C524 1.371 . S
C526 C527 1.392 1_556 S
C526 H542 0.931 . S
C527 C526 1.392 1_554 S
C527 C528 1.331 . S
C527 H545 0.932 . S
C528 C527 1.331 . S
C528 C529 1.359 . S
C529 C525 1.370 1_554 S
C529 C528 1.359 . S
C529 H544 0.932 . S
C530 C520 1.386 . S
C530 C523 1.357 . S
C530 H543 0.906 1_556 S
H531 C507 0.931 . S
H532 C509 0.930 . S
H533 C511 0.929 . S
H534 C512 0.931 . S
H535 C514 0.930 . S
H536 C518 0.931 . S
H537 C516 0.931 . S
H538 C520 0.931 . S
H539 C521 0.929 . S
H540 C522 0.930 . S
H541 C525 0.930 . S
H542 C526 0.931 . S
H543 C530 0.906 1_554 S
H544 C529 0.932 . S
H545 C527 0.932 . S
C546 C547 1.386 . S
C546 C548 1.397 . S
C546 H570 0.931 . S
C547 C546 1.386 . S
C547 C551 1.397 . S
C548 C546 1.397 . S
C548 C549 1.384 . S
C548 H571 0.930 . S
C549 C548 1.384 . S
C549 C550 1.377 . S
C549 C552 1.481 . S
C550 C549 1.377 . S
C550 C551 1.389 . S
C550 H572 0.929 . S
C551 C547 1.397 . S
C551 C550 1.389 . S
C551 H573 0.931 . S
C552 C549 1.481 . S
C552 C553 1.387 . S
C552 C557 1.390 . S
C553 C552 1.387 . S
C553 C554 1.401 . S
C553 H574 0.930 . S
C554 C553 1.401 . S
C554 C555 1.376 . S
C554 C563 1.511 . S
C555 C554 1.376 . S
C555 C556 1.392 . S
C555 H576 0.931 . S
C556 C555 1.392 . S
C556 C557 1.361 . S
C556 C558 1.500 . S
C557 C552 1.390 . S
C557 C556 1.361 . S
C557 H575 0.931 . S
C558 C556 1.500 . S
C558 C559 1.371 . S
C558 C560 1.365 . S
C559 C558 1.371 . S
C559 C569 1.386 . S
C559 H577 0.931 . S
C560 C558 1.365 . S
C560 C561 1.409 . S
C560 H578 0.929 . S
C561 C560 1.409 . S
C561 C562 1.380 . S
C561 H579 0.930 . S
C562 C561 1.380 . S
C562 C569 1.357 . S
C563 C554 1.511 . S
C563 C564 1.341 . S
C563 C565 1.371 . S
C564 C563 1.341 . S
C564 C568 1.394 . S
C564 H580 0.930 . S
C565 C563 1.371 . S
C565 C566 1.392 . S
C565 H581 0.931 . S
C566 C565 1.392 . S
C566 C567 1.331 . S
C566 H584 0.932 . S
C567 C566 1.331 . S
C567 C568 1.336 . S
C568 C564 1.394 . S
C568 C567 1.336 . S
C568 H583 0.929 . S
C569 C559 1.386 . S
C569 C562 1.357 . S
C569 H582 0.928 . S
H570 C546 0.931 . S
H571 C548 0.930 . S
H572 C550 0.929 . S
H573 C551 0.931 . S
H574 C553 0.930 . S
H575 C557 0.931 . S
H576 C555 0.931 . S
H577 C559 0.931 . S
H578 C560 0.929 . S
H579 C561 0.930 . S
H580 C564 0.930 . S
H581 C565 0.931 . S
H582 C569 0.928 . S
H583 C568 0.929 . S
H584 C566 0.932 . S
C585 C586 1.386 1_556 S
C585 C587 1.397 . S
C585 H609 0.931 . S
C586 C585 1.386 1_554 S
C586 C590 1.397 . S
C587 C585 1.397 . S
C587 C588 1.384 . S
C587 H610 0.930 . S
C588 C587 1.384 . S
C588 C589 1.377 1_556 S
C588 C591 1.481 . S
C589 C588 1.377 1_554 S
C589 C590 1.389 . S
C589 H611 0.929 . S
C590 C586 1.397 . S
C590 C589 1.389 . S
C590 H612 0.931 . S
C591 C588 1.481 . S
C591 C592 1.387 . S
C591 C596 1.390 . S
C592 C591 1.387 . S
C592 C593 1.401 . S
C592 H613 0.930 . S
C593 C592 1.401 . S
C593 C594 1.376 . S
C593 C602 1.511 . S
C594 C593 1.376 . S
C594 C595 1.392 . S
C594 H615 0.931 . S
C595 C594 1.392 . S
C595 C596 1.361 . S
C595 C597 1.500 . S
C596 C591 1.390 . S
C596 C595 1.361 . S
C596 H614 0.931 . S
C597 C595 1.500 . S
C597 C598 1.371 . S
C597 C599 1.365 . S
C598 C597 1.371 . S
C598 C608 1.386 1_545 S
C598 H616 0.931 . S
C599 C597 1.365 . S
C599 C600 1.425 . S
C599 H617 0.929 1_556 S
C600 C599 1.425 . S
C600 C601 1.368 1_545 S
C600 H618 0.926 1_546 S
C601 C600 1.368 1_565 S
C601 C608 1.357 . S
C602 C593 1.511 . S
C602 C603 1.341 . S
C602 C604 1.371 . S
C603 C602 1.341 . S
C603 C607 1.394 . S
C603 H619 0.930 . S
C604 C602 1.371 . S
C604 C605 1.392 . S
C604 H620 0.931 . S
C605 C604 1.392 . S
C605 C606 1.331 . S
C605 H623 0.947 . S
C606 C605 1.331 . S
C606 C607 1.336 . S
C607 C603 1.394 . S
C607 C606 1.336 . S
C607 H622 0.929 . S
C608 C598 1.386 1_565 S
C608 C601 1.357 . S
C608 H621 0.928 . S
H609 C585 0.931 . S
H610 C587 0.930 . S
H611 C589 0.929 . S
H612 C590 0.931 . S
H613 C592 0.930 . S
H614 C596 0.931 . S
H615 C594 0.931 . S
H616 C598 0.931 . S
H617 C599 0.929 1_554 S
H618 C600 0.926 1_564 S
H619 C603 0.930 . S
H620 C604 0.931 . S
H621 C608 0.928 . S
H622 C607 0.929 . S
H623 C605 0.947 . S
C624 O625 1.160 1_554 S
C624 O631 1.185 . S
O625 C624 1.160 1_556 S
O626 Zn627 1.899 1_556 S
O626 C634 1.284 . S
Zn627 O626 1.899 1_554 S
Zn627 O628 2.032 . S
Zn627 O631 2.086 . S
Zn627 O636 1.977 . S
O628 Zn627 2.032 . S
O628 C632 1.278 . S
C629 O630 1.203 . S
C629 O636 1.267 . S
O630 C629 1.203 . S
O631 C624 1.185 . S
O631 Zn627 2.086 . S
C632 O628 1.278 . S
C632 O633 1.211 . S
O633 C632 1.211 . S
C634 O626 1.284 . S
C634 O635 1.273 . S
O635 C634 1.273 . S
O636 Zn627 1.977 . S
O636 C629 1.267 . S
C637 O638 1.160 . S
C637 O644 1.185 . S
O638 C637 1.160 . S
O639 Zn640 1.899 . S
O639 C647 1.284 . S
Zn640 O639 1.899 . S
Zn640 O641 2.032 . S
Zn640 O644 2.086 . S
Zn640 O649 1.977 . S
O641 Zn640 2.032 . S
O641 C645 1.278 . S
C642 O643 1.203 . S
C642 O649 1.267 . S
O643 C642 1.203 . S
O644 C637 1.185 . S
O644 Zn640 2.086 . S
C645 O641 1.278 . S
C645 O646 1.211 . S
O646 C645 1.211 . S
C647 O639 1.284 . S
C647 O648 1.273 . S
O648 C647 1.273 . S
O649 Zn640 1.977 . S
O649 C642 1.267 . S
C650 O651 1.160 1_554 S
C650 O657 1.185 . S
O651 C650 1.160 1_556 S
O652 Zn653 1.899 1_556 S
O652 C660 1.284 . S
Zn653 O652 1.899 1_554 S
Zn653 O654 2.032 1_554 S
Zn653 O657 2.086 . S
Zn653 O662 1.977 . S
O654 Zn653 2.032 1_556 S
O654 C658 1.278 . S
C655 O656 1.203 . S
C655 O662 1.267 . S
O656 C655 1.203 . S
O657 C650 1.185 . S
O657 Zn653 2.086 . S
C658 O654 1.278 . S
C658 O659 1.211 1_556 S
O659 C658 1.211 1_554 S
C660 O652 1.284 . S
C660 O661 1.273 . S
O661 C660 1.273 . S
O662 Zn653 1.977 . S
O662 C655 1.267 . S
C663 O664 1.160 . S
C663 O670 1.185 . S
O664 C663 1.160 . S
O665 Zn666 1.899 . S
O665 C673 1.284 . S
Zn666 O665 1.899 . S
Zn666 O667 2.039 . S
Zn666 O670 2.086 . S
Zn666 O675 1.977 . S
O667 Zn666 2.039 . S
O667 C671 1.267 1_545 S
C668 O669 1.203 . S
C668 O675 1.267 . S
O669 C668 1.203 . S
O670 C663 1.185 . S
O670 Zn666 2.086 . S
C671 O667 1.267 1_565 S
C671 O672 1.211 . S
O672 C671 1.211 . S
C673 O665 1.284 . S
C673 O674 1.273 1_545 S
O674 C673 1.273 1_565 S
O675 Zn666 1.977 . S
O675 C668 1.267 . S
C676 O677 1.160 . S
C676 O683 1.185 . S
O677 C676 1.160 . S
O678 Zn679 1.899 . S
O678 C686 1.284 . S
Zn679 O678 1.899 . S
Zn679 O680 2.032 . S
Zn679 O683 2.086 . S
Zn679 O688 1.977 . S
O680 Zn679 2.032 . S
O680 C684 1.278 . S
C681 O682 1.203 . S
C681 O688 1.267 . S
O682 C681 1.203 . S
O683 C676 1.185 . S
O683 Zn679 2.086 . S
C684 O680 1.278 . S
C684 O685 1.211 . S
O685 C684 1.211 . S
C686 O678 1.284 . S
C686 O687 1.273 . S
O687 C686 1.273 . S
O688 Zn679 1.977 . S
O688 C681 1.267 . S
C689 O690 1.160 . S
C689 O696 1.185 . S
O690 C689 1.160 . S
O691 Zn692 1.899 . S
O691 C699 1.284 . S
Zn692 O691 1.899 . S
Zn692 O693 2.032 . S
Zn692 O696 2.086 . S
Zn692 O701 1.977 . S
O693 Zn692 2.032 . S
O693 C697 1.278 . S
C694 O695 1.203 . S
C694 O701 1.267 . S
O695 C694 1.203 . S
O696 C689 1.185 . S
O696 Zn692 2.086 . S
C697 O693 1.278 . S
C697 O698 1.211 . S
O698 C697 1.211 . S
C699 O691 1.284 . S
C699 O700 1.273 . S
O700 C699 1.273 . S
O701 Zn692 1.977 . S
O701 C694 1.267 . S
C702 O703 1.160 . S
C702 O709 1.185 . S
O703 C702 1.160 . S
O704 Zn705 1.899 . S
O704 C712 1.284 . S
Zn705 O704 1.899 . S
Zn705 O706 2.032 . S
Zn705 O709 2.086 . S
Zn705 O714 1.977 . S
O706 Zn705 2.032 . S
O706 C710 1.278 . S
C707 O708 1.203 . S
C707 O714 1.267 . S
O708 C707 1.203 . S
O709 C702 1.185 . S
O709 Zn705 2.086 . S
C710 O706 1.278 . S
C710 O711 1.211 . S
O711 C710 1.211 . S
C712 O704 1.284 . S
C712 O713 1.273 . S
O713 C712 1.273 . S
O714 Zn705 1.977 . S
O714 C707 1.267 . S
C715 O716 1.160 . S
C715 O722 1.185 . S
O716 C715 1.160 . S
O717 Zn718 1.899 . S
O717 C725 1.284 1_565 S
Zn718 O717 1.899 . S
Zn718 O719 2.032 1_565 S
Zn718 O722 2.086 . S
Zn718 O727 1.977 . S
O719 Zn718 2.032 1_545 S
O719 C723 1.278 . S
C720 O721 1.203 1_565 S
C720 O727 1.267 . S
O721 C720 1.203 1_545 S
O722 C715 1.185 . S
O722 Zn718 2.086 . S
C723 O719 1.278 . S
C723 O724 1.211 . S
O724 C723 1.211 . S
C725 O717 1.284 1_545 S
C725 O726 1.273 . S
O726 C725 1.273 . S
O727 Zn718 1.977 . S
O727 C720 1.267 . S
C728 O729 1.160 1_455 S
C728 O735 1.185 . S
O729 C728 1.160 1_655 S
O730 Zn731 1.899 1_655 S
O730 C738 1.284 . S
Zn731 O730 1.899 1_455 S
Zn731 O732 2.032 1_455 S
Zn731 O735 2.086 . S
Zn731 O740 1.977 . S
O732 Zn731 2.032 1_655 S
O732 C736 1.276 1_655 S
C733 O734 1.203 . S
C733 O740 1.267 . S
O734 C733 1.203 . S
O735 C728 1.185 . S
O735 Zn731 2.086 . S
C736 O732 1.276 1_455 S
C736 O737 1.220 . S
O737 C736 1.220 . S
C738 O730 1.284 . S
C738 O739 1.273 . S
O739 C738 1.273 . S
O740 Zn731 1.977 . S
O740 C733 1.267 . S
C741 O742 1.160 . S
C741 O748 1.185 . S
O742 C741 1.160 . S
O743 Zn744 1.899 . S
O743 C751 1.284 . S
Zn744 O743 1.899 . S
Zn744 O745 2.032 . S
Zn744 O748 2.086 . S
Zn744 O753 1.977 . S
O745 Zn744 2.032 . S
O745 C749 1.278 . S
C746 O747 1.203 . S
C746 O753 1.267 . S
O747 C746 1.203 . S
O748 C741 1.185 . S
O748 Zn744 2.086 . S
C749 O745 1.278 . S
C749 O750 1.211 . S
O750 C749 1.211 . S
C751 O743 1.284 . S
C751 O752 1.273 . S
O752 C751 1.273 . S
O753 Zn744 1.977 . S
O753 C746 1.267 . S
C754 O755 1.160 1_455 S
C754 O761 1.185 . S
O755 C754 1.160 1_655 S
O756 Zn757 1.899 1_655 S
O756 C764 1.284 . S
Zn757 O756 1.899 1_455 S
Zn757 O758 2.032 1_455 S
Zn757 O761 2.086 . S
Zn757 O766 1.977 . S
O758 Zn757 2.032 1_655 S
O758 C762 1.276 1_655 S
C759 O760 1.203 . S
C759 O766 1.267 . S
O760 C759 1.203 . S
O761 C754 1.185 . S
O761 Zn757 2.086 . S
C762 O758 1.276 1_455 S
C762 O763 1.216 . S
O763 C762 1.216 . S
C764 O756 1.284 . S
C764 O765 1.273 . S
O765 C764 1.273 . S
O766 Zn757 1.977 . S
O766 C759 1.267 . S
C767 O768 1.160 . S
C767 O774 1.185 . S
O768 C767 1.160 . S
O769 Zn770 1.899 . S
O769 C777 1.284 . S
Zn770 O769 1.899 . S
Zn770 O771 2.032 . S
Zn770 O774 2.086 . S
Zn770 O779 1.977 . S
O771 Zn770 2.032 . S
O771 C775 1.278 . S
C772 O773 1.203 . S
C772 O779 1.267 . S
O773 C772 1.203 . S
O774 C767 1.185 . S
O774 Zn770 2.086 . S
C775 O771 1.278 . S
C775 O776 1.211 . S
O776 C775 1.211 . S
C777 O769 1.284 . S
C777 O778 1.273 . S
O778 C777 1.273 . S
O779 Zn770 1.977 . S
O779 C772 1.267 . S
C780 C781 1.391 . S
C780 C782 1.394 . S
C780 H796 0.931 . S
C781 C780 1.391 . S
C781 C785 1.376 . S
C782 C780 1.394 . S
C782 C783 1.369 . S
C782 C786 1.531 . S
C783 C782 1.369 . S
C783 C784 1.410 . S
C783 C791 1.503 . S
C784 C783 1.410 . S
C784 C785 1.392 . S
C784 C787 1.511 . S
C785 C781 1.376 . S
C785 C784 1.392 . S
C785 H797 0.929 . S
C786 C782 1.531 . S
C786 H798 0.960 . S
C786 H799 0.962 . S
C786 H800 0.960 . S
C787 C784 1.511 . S
C787 H801 0.961 . S
C787 H802 0.961 . S
C787 H803 0.961 . S
C788 C789 1.370 . S
C788 C790 1.363 . S
C788 H804 0.931 . S
C789 C788 1.370 . S
C789 C793 1.408 . S
C790 C788 1.363 . S
C790 C791 1.370 . S
C790 C794 1.524 . S
C791 C783 1.503 . S
C791 C790 1.370 . S
C791 C792 1.403 . S
C792 C791 1.403 . S
C792 C793 1.404 . S
C792 C795 1.539 . S
C793 C789 1.408 . S
C793 C792 1.404 . S
C793 H805 0.930 . S
C794 C790 1.524 . S
C794 H806 0.956 . S
C794 H807 0.961 . S
C794 H808 0.961 . S
C795 C792 1.539 . S
C795 H809 0.958 . S
C795 H810 0.961 . S
C795 H811 0.960 . S
H796 C780 0.931 . S
H797 C785 0.929 . S
H798 C786 0.960 . S
H799 C786 0.962 . S
H800 C786 0.960 . S
H801 C787 0.961 . S
H802 C787 0.961 . S
H803 C787 0.961 . S
H804 C788 0.931 . S
H805 C793 0.930 . S
H806 C794 0.956 . S
H807 C794 0.961 . S
H808 C794 0.961 . S
H809 C795 0.958 . S
H810 C795 0.961 . S
H811 C795 0.960 . S
C812 C813 1.391 . S
C812 C814 1.394 . S
C812 H828 0.931 . S
C813 C812 1.391 . S
C813 C817 1.376 . S
C814 C812 1.394 . S
C814 C815 1.369 . S
C814 C818 1.531 . S
C815 C814 1.369 . S
C815 C816 1.410 . S
C815 C823 1.503 . S
C816 C815 1.410 . S
C816 C817 1.392 . S
C816 C819 1.511 . S
C817 C813 1.376 . S
C817 C816 1.392 . S
C817 H829 0.929 . S
C818 C814 1.531 . S
C818 H830 0.960 . S
C818 H831 0.962 . S
C818 H832 0.960 . S
C819 C816 1.511 . S
C819 H833 0.961 . S
C819 H834 0.961 . S
C819 H835 0.961 . S
C820 C821 1.370 . S
C820 C822 1.363 . S
C820 H836 0.931 . S
C821 C820 1.370 . S
C821 C825 1.408 . S
C822 C820 1.363 . S
C822 C823 1.370 . S
C822 C826 1.524 . S
C823 C815 1.503 . S
C823 C822 1.370 . S
C823 C824 1.403 . S
C824 C823 1.403 . S
C824 C825 1.404 . S
C824 C827 1.539 . S
C825 C821 1.408 . S
C825 C824 1.404 . S
C825 H837 0.930 . S
C826 C822 1.524 . S
C826 H838 0.956 . S
C826 H839 0.961 . S
C826 H840 0.961 . S
C827 C824 1.539 . S
C827 H841 0.958 . S
C827 H842 0.961 . S
C827 H843 0.960 . S
H828 C812 0.931 . S
H829 C817 0.929 . S
H830 C818 0.960 . S
H831 C818 0.962 . S
H832 C818 0.960 . S
H833 C819 0.961 . S
H834 C819 0.961 . S
H835 C819 0.961 . S
H836 C820 0.931 . S
H837 C825 0.930 . S
H838 C826 0.956 . S
H839 C826 0.961 . S
H840 C826 0.961 . S
H841 C827 0.958 . S
H842 C827 0.961 . S
H843 C827 0.960 . S
C844 C845 1.391 . S
C844 C846 1.394 . S
C844 H860 0.931 . S
C845 C844 1.391 . S
C845 C849 1.376 . S
C846 C844 1.394 . S
C846 C847 1.369 . S
C846 C850 1.531 . S
C847 C846 1.369 . S
C847 C848 1.410 . S
C847 C855 1.503 . S
C848 C847 1.410 . S
C848 C849 1.392 . S
C848 C851 1.511 . S
C849 C845 1.376 . S
C849 C848 1.392 . S
C849 H861 0.929 . S
C850 C846 1.531 . S
C850 H862 0.960 . S
C850 H863 0.962 . S
C850 H864 0.960 . S
C851 C848 1.511 . S
C851 H865 0.961 . S
C851 H866 0.961 . S
C851 H867 0.961 . S
C852 C853 1.370 . S
C852 C854 1.363 . S
C852 H868 0.931 . S
C853 C852 1.370 . S
C853 C857 1.408 . S
C854 C852 1.363 . S
C854 C855 1.370 . S
C854 C858 1.524 . S
C855 C847 1.503 . S
C855 C854 1.370 . S
C855 C856 1.403 . S
C856 C855 1.403 . S
C856 C857 1.404 . S
C856 C859 1.539 . S
C857 C853 1.408 . S
C857 C856 1.404 . S
C857 H869 0.930 . S
C858 C854 1.524 . S
C858 H870 0.956 . S
C858 H871 0.961 . S
C858 H872 0.961 . S
C859 C856 1.539 . S
C859 H873 0.958 . S
C859 H874 0.961 . S
C859 H875 0.960 . S
H860 C844 0.931 . S
H861 C849 0.929 . S
H862 C850 0.960 . S
H863 C850 0.962 . S
H864 C850 0.960 . S
H865 C851 0.961 . S
H866 C851 0.961 . S
H867 C851 0.961 . S
H868 C852 0.931 . S
H869 C857 0.930 . S
H870 C858 0.956 . S
H871 C858 0.961 . S
H872 C858 0.961 . S
H873 C859 0.958 . S
H874 C859 0.961 . S
H875 C859 0.960 . S
C876 C877 1.391 . S
C876 C878 1.394 . S
C876 H892 0.931 . S
C877 C876 1.391 . S
C877 C881 1.376 1_565 S
C878 C876 1.394 . S
C878 C879 1.370 . S
C878 C882 1.531 . S
C879 C878 1.370 . S
C879 C880 1.409 1_565 S
C879 C887 1.503 1_565 S
C880 C879 1.409 1_545 S
C880 C881 1.392 . S
C880 C883 1.511 . S
C881 C877 1.376 1_545 S
C881 C880 1.392 . S
C881 H893 0.929 . S
C882 C878 1.531 . S
C882 H894 0.960 . S
C882 H895 0.962 . S
C882 H896 0.960 . S
C883 C880 1.511 . S
C883 H897 0.961 . S
C883 H898 0.961 . S
C883 H899 0.961 . S
C884 C885 1.370 1_565 S
C884 C886 1.363 . S
C884 H900 0.931 . S
C885 C884 1.370 1_545 S
C885 C889 1.408 . S
C886 C884 1.363 . S
C886 C887 1.370 1_565 S
C886 C890 1.524 . S
C887 C879 1.503 1_545 S
C887 C886 1.370 1_545 S
C887 C888 1.403 . S
C888 C887 1.403 . S
C888 C889 1.404 . S
C888 C891 1.539 . S
C889 C885 1.408 . S
C889 C888 1.404 . S
C889 H901 0.930 . S
C890 C886 1.524 . S
C890 H902 0.956 . S
C890 H903 0.961 . S
C890 H904 0.961 . S
C891 C888 1.539 . S
C891 H905 0.958 . S
C891 H906 0.961 . S
C891 H907 0.960 . S
H892 C876 0.931 . S
H893 C881 0.929 . S
H894 C882 0.960 . S
H895 C882 0.962 . S
H896 C882 0.960 . S
H897 C883 0.961 . S
H898 C883 0.961 . S
H899 C883 0.961 . S
H900 C884 0.931 . S
H901 C889 0.930 . S
H902 C890 0.956 . S
H903 C890 0.961 . S
H904 C890 0.961 . S
H905 C891 0.958 . S
H906 C891 0.961 . S
H907 C891 0.960 . S
C908 C909 1.391 . S
C908 C910 1.394 . S
C908 H924 0.931 . S
C909 C908 1.391 . S
C909 C913 1.376 . S
C910 C908 1.394 . S
C910 C911 1.369 . S
C910 C914 1.531 . S
C911 C910 1.369 . S
C911 C912 1.410 . S
C911 C919 1.503 . S
C912 C911 1.410 . S
C912 C913 1.392 . S
C912 C915 1.511 . S
C913 C909 1.376 . S
C913 C912 1.392 . S
C913 H925 0.929 . S
C914 C910 1.531 . S
C914 H926 0.960 . S
C914 H927 0.962 . S
C914 H928 0.960 . S
C915 C912 1.511 . S
C915 H929 0.961 . S
C915 H930 0.961 . S
C915 H931 0.961 . S
C916 C917 1.370 . S
C916 C918 1.363 . S
C916 H932 0.931 . S
C917 C916 1.370 . S
C917 C921 1.408 . S
C918 C916 1.363 . S
C918 C919 1.370 . S
C918 C922 1.524 . S
C919 C911 1.503 . S
C919 C918 1.370 . S
C919 C920 1.403 . S
C920 C919 1.403 . S
C920 C921 1.404 . S
C920 C923 1.539 . S
C921 C917 1.408 . S
C921 C920 1.404 . S
C921 H933 0.930 . S
C922 C918 1.524 . S
C922 H934 0.956 . S
C922 H935 0.961 . S
C922 H936 0.961 . S
C923 C920 1.539 . S
C923 H937 0.958 . S
C923 H938 0.961 . S
C923 H939 0.960 . S
H924 C908 0.931 . S
H925 C913 0.929 . S
H926 C914 0.960 . S
H927 C914 0.962 . S
H928 C914 0.960 . S
H929 C915 0.961 . S
H930 C915 0.961 . S
H931 C915 0.961 . S
H932 C916 0.931 . S
H933 C921 0.930 . S
H934 C922 0.956 . S
H935 C922 0.961 . S
H936 C922 0.961 . S
H937 C923 0.958 . S
H938 C923 0.961 . S
H939 C923 0.960 . S
C940 C941 1.391 . S
C940 C942 1.394 . S
C940 H956 0.931 . S
C941 C940 1.391 . S
C941 C945 1.376 . S
C942 C940 1.394 . S
C942 C943 1.369 . S
C942 C946 1.531 . S
C943 C942 1.369 . S
C943 C944 1.410 . S
C943 C951 1.503 . S
C944 C943 1.410 . S
C944 C945 1.392 . S
C944 C947 1.511 . S
C945 C941 1.376 . S
C945 C944 1.392 . S
C945 H957 0.929 . S
C946 C942 1.531 . S
C946 H958 0.960 . S
C946 H959 0.962 . S
C946 H960 0.960 . S
C947 C944 1.511 . S
C947 H961 0.961 . S
C947 H962 0.961 . S
C947 H963 0.961 . S
C948 C949 1.370 . S
C948 C950 1.363 . S
C948 H964 0.931 . S
C949 C948 1.370 . S
C949 C953 1.408 . S
C950 C948 1.363 . S
C950 C951 1.370 . S
C950 C954 1.524 . S
C951 C943 1.503 . S
C951 C950 1.370 . S
C951 C952 1.403 . S
C952 C951 1.403 . S
C952 C953 1.404 . S
C952 C955 1.539 . S
C953 C949 1.408 . S
C953 C952 1.404 . S
C953 H965 0.930 . S
C954 C950 1.524 . S
C954 H966 0.956 . S
C954 H967 0.961 . S
C954 H968 0.961 . S
C955 C952 1.539 . S
C955 H969 0.958 . S
C955 H970 0.961 . S
C955 H971 0.960 . S
H956 C940 0.931 . S
H957 C945 0.929 . S
H958 C946 0.960 . S
H959 C946 0.962 . S
H960 C946 0.960 . S
H961 C947 0.961 . S
H962 C947 0.961 . S
H963 C947 0.961 . S
H964 C948 0.931 . S
H965 C953 0.930 . S
H966 C954 0.956 . S
H967 C954 0.961 . S
H968 C954 0.961 . S
H969 C955 0.958 . S
H970 C955 0.961 . S
H971 C955 0.960 . S
C972 C973 1.391 . S
C972 C974 1.394 . S
C972 H988 0.931 . S
C973 C972 1.391 . S
C973 C977 1.376 . S
C974 C972 1.394 . S
C974 C975 1.369 . S
C974 C978 1.531 . S
C975 C974 1.369 . S
C975 C976 1.410 . S
C975 C983 1.503 . S
C976 C975 1.410 . S
C976 C977 1.392 . S
C976 C979 1.511 . S
C977 C973 1.376 . S
C977 C976 1.392 . S
C977 H989 0.929 . S
C978 C974 1.531 . S
C978 H990 0.960 . S
C978 H991 0.962 . S
C978 H992 0.960 . S
C979 C976 1.511 . S
C979 H993 0.961 . S
C979 H994 0.961 . S
C979 H995 0.961 . S
C980 C981 1.370 . S
C980 C982 1.363 . S
C980 H996 0.931 . S
C981 C980 1.370 . S
C981 C985 1.408 . S
C982 C980 1.363 . S
C982 C983 1.370 . S
C982 C986 1.524 . S
C983 C975 1.503 . S
C983 C982 1.370 . S
C983 C984 1.403 . S
C984 C983 1.403 . S
C984 C985 1.404 . S
C984 C987 1.539 . S
C985 C981 1.408 . S
C985 C984 1.404 . S
C985 H997 0.930 . S
C986 C982 1.524 . S
C986 H998 0.956 . S
C986 H999 0.961 . S
C986 H1000 0.961 . S
C987 C984 1.539 . S
C987 H1001 0.958 . S
C987 H1002 0.961 . S
C987 H1003 0.960 . S
H988 C972 0.931 . S
H989 C977 0.929 . S
H990 C978 0.960 . S
H991 C978 0.962 . S
H992 C978 0.960 . S
H993 C979 0.961 . S
H994 C979 0.961 . S
H995 C979 0.961 . S
H996 C980 0.931 . S
H997 C985 0.930 . S
H998 C986 0.956 . S
H999 C986 0.961 . S
H1000 C986 0.961 . S
H1001 C987 0.958 . S
H1002 C987 0.961 . S
H1003 C987 0.960 . S
C1004 C1005 1.391 . S
C1004 C1006 1.394 . S
C1004 H1020 0.931 . S
C1005 C1004 1.391 . S
C1005 C1009 1.376 . S
C1006 C1004 1.394 . S
C1006 C1007 1.369 . S
C1006 C1010 1.531 . S
C1007 C1006 1.369 . S
C1007 C1008 1.410 . S
C1007 C1015 1.503 . S
C1008 C1007 1.410 . S
C1008 C1009 1.392 . S
C1008 C1011 1.511 . S
C1009 C1005 1.376 . S
C1009 C1008 1.392 . S
C1009 H1021 0.929 . S
C1010 C1006 1.531 . S
C1010 H1022 0.994 . S
C1010 H1023 0.962 . S
C1010 H1024 0.960 . S
C1011 C1008 1.511 . S
C1011 H1025 0.961 . S
C1011 H1026 0.961 . S
C1011 H1027 0.961 1_565 S
C1012 C1013 1.370 . S
C1012 C1014 1.363 . S
C1012 H1028 0.931 . S
C1013 C1012 1.370 . S
C1013 C1017 1.408 1_565 S
C1014 C1012 1.363 . S
C1014 C1015 1.370 . S
C1014 C1018 1.524 . S
C1015 C1007 1.503 . S
C1015 C1014 1.370 . S
C1015 C1016 1.403 1_565 S
C1016 C1015 1.403 1_545 S
C1016 C1017 1.404 . S
C1016 C1019 1.539 . S
C1017 C1013 1.408 1_545 S
C1017 C1016 1.404 . S
C1017 H1029 0.930 . S
C1018 C1014 1.524 . S
C1018 H1030 0.956 . S
C1018 H1031 0.961 . S
C1018 H1032 0.961 . S
C1019 C1016 1.539 . S
C1019 H1033 0.958 . S
C1019 H1034 0.961 . S
C1019 H1035 0.960 . S
H1020 C1004 0.931 . S
H1021 C1009 0.929 . S
H1022 C1010 0.994 . S
H1023 C1010 0.962 . S
H1024 C1010 0.960 . S
H1025 C1011 0.961 . S
H1026 C1011 0.961 . S
H1027 C1011 0.961 1_545 S
H1028 C1012 0.931 . S
H1029 C1017 0.930 . S
H1030 C1018 0.956 . S
H1031 C1018 0.961 . S
H1032 C1018 0.961 . S
H1033 C1019 0.958 . S
H1034 C1019 0.961 . S
H1035 C1019 0.960 . S
C1036 C1037 1.391 . S
C1036 C1038 1.394 . S
C1036 H1052 0.931 . S
C1037 C1036 1.391 . S
C1037 C1041 1.376 . S
C1038 C1036 1.394 . S
C1038 C1039 1.369 . S
C1038 C1042 1.531 . S
C1039 C1038 1.369 . S
C1039 C1040 1.410 . S
C1039 C1047 1.503 . S
C1040 C1039 1.410 . S
C1040 C1041 1.392 . S
C1040 C1043 1.511 . S
C1041 C1037 1.376 . S
C1041 C1040 1.392 . S
C1041 H1053 0.929 . S
C1042 C1038 1.531 . S
C1042 H1054 0.960 . S
C1042 H1055 0.962 . S
C1042 H1056 0.960 . S
C1043 C1040 1.511 . S
C1043 H1057 0.961 . S
C1043 H1058 0.961 . S
C1043 H1059 0.961 . S
C1044 C1045 1.370 . S
C1044 C1046 1.363 . S
C1044 H1060 0.931 . S
C1045 C1044 1.370 . S
C1045 C1049 1.408 . S
C1046 C1044 1.363 . S
C1046 C1047 1.370 . S
C1046 C1050 1.524 . S
C1047 C1039 1.503 . S
C1047 C1046 1.370 . S
C1047 C1048 1.403 . S
C1048 C1047 1.403 . S
C1048 C1049 1.404 . S
C1048 C1051 1.539 . S
C1049 C1045 1.408 . S
C1049 C1048 1.404 . S
C1049 H1061 0.930 . S
C1050 C1046 1.524 . S
C1050 H1062 0.956 . S
C1050 H1063 0.961 . S
C1050 H1064 0.961 . S
C1051 C1048 1.539 . S
C1051 H1065 0.958 . S
C1051 H1066 0.961 . S
C1051 H1067 0.960 . S
H1052 C1036 0.931 . S
H1053 C1041 0.929 . S
H1054 C1042 0.960 . S
H1055 C1042 0.962 . S
H1056 C1042 0.960 . S
H1057 C1043 0.961 . S
H1058 C1043 0.961 . S
H1059 C1043 0.961 . S
H1060 C1044 0.931 . S
H1061 C1049 0.930 . S
H1062 C1050 0.956 . S
H1063 C1050 0.961 . S
H1064 C1050 0.961 . S
H1065 C1051 0.958 . S
H1066 C1051 0.961 . S
H1067 C1051 0.960 . S
C1068 C1069 1.391 . S
C1068 C1070 1.394 . S
C1068 H1084 0.931 . S
C1069 C1068 1.391 . S
C1069 C1073 1.376 . S
C1070 C1068 1.394 . S
C1070 C1071 1.369 . S
C1070 C1074 1.531 . S
C1071 C1070 1.369 . S
C1071 C1072 1.410 . S
C1071 C1079 1.503 . S
C1072 C1071 1.410 . S
C1072 C1073 1.392 . S
C1072 C1075 1.511 . S
C1073 C1069 1.376 . S
C1073 C1072 1.392 . S
C1073 H1085 0.929 . S
C1074 C1070 1.531 . S
C1074 H1086 0.960 . S
C1074 H1087 0.962 . S
C1074 H1088 0.960 . S
C1075 C1072 1.511 . S
C1075 H1089 0.961 . S
C1075 H1090 0.961 . S
C1075 H1091 0.961 . S
C1076 C1077 1.370 . S
C1076 C1078 1.363 . S
C1076 H1092 0.931 . S
C1077 C1076 1.370 . S
C1077 C1081 1.408 . S
C1078 C1076 1.363 . S
C1078 C1079 1.370 . S
C1078 C1082 1.524 . S
C1079 C1071 1.503 . S
C1079 C1078 1.370 . S
C1079 C1080 1.403 . S
C1080 C1079 1.403 . S
C1080 C1081 1.404 . S
C1080 C1083 1.539 . S
C1081 C1077 1.408 . S
C1081 C1080 1.404 . S
C1081 H1093 0.930 . S
C1082 C1078 1.524 . S
C1082 H1094 0.956 . S
C1082 H1095 0.961 . S
C1082 H1096 0.961 . S
C1083 C1080 1.539 . S
C1083 H1097 0.958 . S
C1083 H1098 0.961 . S
C1083 H1099 0.960 . S
H1084 C1068 0.931 . S
H1085 C1073 0.929 . S
H1086 C1074 0.960 . S
H1087 C1074 0.962 . S
H1088 C1074 0.960 . S
H1089 C1075 0.961 . S
H1090 C1075 0.961 . S
H1091 C1075 0.961 . S
H1092 C1076 0.931 . S
H1093 C1081 0.930 . S
H1094 C1082 0.956 . S
H1095 C1082 0.961 . S
H1096 C1082 0.961 . S
H1097 C1083 0.958 . S
H1098 C1083 0.961 . S
H1099 C1083 0.960 . S
C1100 C1101 1.391 . S
C1100 C1102 1.394 . S
C1100 H1116 0.931 . S
C1101 C1100 1.391 . S
C1101 C1105 1.376 . S
C1102 C1100 1.394 . S
C1102 C1103 1.369 . S
C1102 C1106 1.531 . S
C1103 C1102 1.369 . S
C1103 C1104 1.410 . S
C1103 C1111 1.503 . S
C1104 C1103 1.410 . S
C1104 C1105 1.392 . S
C1104 C1107 1.511 . S
C1105 C1101 1.376 . S
C1105 C1104 1.392 . S
C1105 H1117 0.929 . S
C1106 C1102 1.531 . S
C1106 H1118 0.960 . S
C1106 H1119 0.962 . S
C1106 H1120 0.960 . S
C1107 C1104 1.511 . S
C1107 H1121 0.961 . S
C1107 H1122 0.961 . S
C1107 H1123 0.961 . S
C1108 C1109 1.370 . S
C1108 C1110 1.363 . S
C1108 H1124 0.931 . S
C1109 C1108 1.370 . S
C1109 C1113 1.408 . S
C1110 C1108 1.363 . S
C1110 C1111 1.370 . S
C1110 C1114 1.524 . S
C1111 C1103 1.503 . S
C1111 C1110 1.370 . S
C1111 C1112 1.403 . S
C1112 C1111 1.403 . S
C1112 C1113 1.404 . S
C1112 C1115 1.539 . S
C1113 C1109 1.408 . S
C1113 C1112 1.404 . S
C1113 H1125 0.930 . S
C1114 C1110 1.524 . S
C1114 H1126 0.956 . S
C1114 H1127 0.961 . S
C1114 H1128 0.961 . S
C1115 C1112 1.539 . S
C1115 H1129 0.958 . S
C1115 H1130 0.961 . S
C1115 H1131 0.960 . S
H1116 C1100 0.931 . S
H1117 C1105 0.929 . S
H1118 C1106 0.960 . S
H1119 C1106 0.962 . S
H1120 C1106 0.960 . S
H1121 C1107 0.961 . S
H1122 C1107 0.961 . S
H1123 C1107 0.961 . S
H1124 C1108 0.931 . S
H1125 C1113 0.930 . S
H1126 C1114 0.956 . S
H1127 C1114 0.961 . S
H1128 C1114 0.961 . S
H1129 C1115 0.958 . S
H1130 C1115 0.961 . S
H1131 C1115 0.960 . S
C1132 C1133 1.391 . S
C1132 C1134 1.394 . S
C1132 H1148 0.931 . S
C1133 C1132 1.391 . S
C1133 C1137 1.376 . S
C1134 C1132 1.394 . S
C1134 C1135 1.369 . S
C1134 C1138 1.531 . S
C1135 C1134 1.369 . S
C1135 C1136 1.410 . S
C1135 C1143 1.503 . S
C1136 C1135 1.410 . S
C1136 C1137 1.392 . S
C1136 C1139 1.511 . S
C1137 C1133 1.376 . S
C1137 C1136 1.392 . S
C1137 H1149 0.929 . S
C1138 C1134 1.531 . S
C1138 H1150 0.960 . S
C1138 H1151 0.962 . S
C1138 H1152 0.960 . S
C1139 C1136 1.511 . S
C1139 H1153 0.961 . S
C1139 H1154 0.961 . S
C1139 H1155 0.961 . S
C1140 C1141 1.370 . S
C1140 C1142 1.363 . S
C1140 H1156 0.931 . S
C1141 C1140 1.370 . S
C1141 C1145 1.408 . S
C1142 C1140 1.363 . S
C1142 C1143 1.370 . S
C1142 C1146 1.524 . S
C1143 C1135 1.503 . S
C1143 C1142 1.370 . S
C1143 C1144 1.403 . S
C1144 C1143 1.403 . S
C1144 C1145 1.404 . S
C1144 C1147 1.539 . S
C1145 C1141 1.408 . S
C1145 C1144 1.404 . S
C1145 H1157 0.930 . S
C1146 C1142 1.524 . S
C1146 H1158 0.956 . S
C1146 H1159 0.961 . S
C1146 H1160 0.961 . S
C1147 C1144 1.539 . S
C1147 H1161 0.958 . S
C1147 H1162 0.961 . S
C1147 H1163 0.960 . S
H1148 C1132 0.931 . S
H1149 C1137 0.929 . S
H1150 C1138 0.960 . S
H1151 C1138 0.962 . S
H1152 C1138 0.960 . S
H1153 C1139 0.961 . S
H1154 C1139 0.961 . S
H1155 C1139 0.961 . S
H1156 C1140 0.931 . S
H1157 C1145 0.930 . S
H1158 C1146 0.956 . S
H1159 C1146 0.961 . S
H1160 C1146 0.961 . S
H1161 C1147 0.958 . S
H1162 C1147 0.961 . S
H1163 C1147 0.960 . S
C1164 C1165 1.391 . S
C1164 C1166 1.394 . S
C1164 H1180 0.931 . S
C1165 C1164 1.391 . S
C1165 C1169 1.376 . S
C1166 C1164 1.394 . S
C1166 C1167 1.369 . S
C1166 C1170 1.531 . S
C1167 C1166 1.369 . S
C1167 C1168 1.410 . S
C1167 C1175 1.503 . S
C1168 C1167 1.410 . S
C1168 C1169 1.392 . S
C1168 C1171 1.511 . S
C1169 C1165 1.376 . S
C1169 C1168 1.392 . S
C1169 H1181 0.929 . S
C1170 C1166 1.531 . S
C1170 H1182 0.960 . S
C1170 H1183 0.962 . S
C1170 H1184 0.960 . S
C1171 C1168 1.511 . S
C1171 H1185 0.961 . S
C1171 H1186 0.961 . S
C1171 H1187 0.961 . S
C1172 C1173 1.370 . S
C1172 C1174 1.363 . S
C1172 H1188 0.931 . S
C1173 C1172 1.370 . S
C1173 C1177 1.408 . S
C1174 C1172 1.363 . S
C1174 C1175 1.370 . S
C1174 C1178 1.524 . S
C1175 C1167 1.503 . S
C1175 C1174 1.370 . S
C1175 C1176 1.403 . S
C1176 C1175 1.403 . S
C1176 C1177 1.404 . S
C1176 C1179 1.539 . S
C1177 C1173 1.408 . S
C1177 C1176 1.404 . S
C1177 H1189 0.930 . S
C1178 C1174 1.524 . S
C1178 H1190 0.956 . S
C1178 H1191 0.961 . S
C1178 H1192 0.961 . S
C1179 C1176 1.539 . S
C1179 H1193 0.958 . S
C1179 H1194 0.961 . S
C1179 H1195 0.960 . S
H1180 C1164 0.931 . S
H1181 C1169 0.929 . S
H1182 C1170 0.960 . S
H1183 C1170 0.962 . S
H1184 C1170 0.960 . S
H1185 C1171 0.961 . S
H1186 C1171 0.961 . S
H1187 C1171 0.961 . S
H1188 C1172 0.931 . S
H1189 C1177 0.930 . S
H1190 C1178 0.956 . S
H1191 C1178 0.961 . S
H1192 C1178 0.961 . S
H1193 C1179 0.958 . S
H1194 C1179 0.961 . S
H1195 C1179 0.960 . S
C1196 C1197 1.391 . S
C1196 C1198 1.394 . S
C1196 H1212 0.931 . S
C1197 C1196 1.391 . S
C1197 C1201 1.376 . S
C1198 C1196 1.394 . S
C1198 C1199 1.369 . S
C1198 C1202 1.531 1_455 S
C1199 C1198 1.369 . S
C1199 C1200 1.410 . S
C1199 C1207 1.503 . S
C1200 C1199 1.410 . S
C1200 C1201 1.392 . S
C1200 C1203 1.511 . S
C1201 C1197 1.376 . S
C1201 C1200 1.392 . S
C1201 H1213 0.929 . S
C1202 C1198 1.531 1_655 S
C1202 H1214 0.960 1_655 S
C1202 H1215 0.962 . S
C1202 H1216 0.960 . S
C1203 C1200 1.511 . S
C1203 H1217 0.961 . S
C1203 H1218 0.961 . S
C1203 H1219 0.961 . S
C1204 C1205 1.378 . S
C1204 C1206 1.365 . S
C1204 H1220 0.921 1_455 S
C1205 C1204 1.378 . S
C1205 C1209 1.408 . S
C1206 C1204 1.365 . S
C1206 C1207 1.370 . S
C1206 C1210 1.524 1_455 S
C1207 C1199 1.503 . S
C1207 C1206 1.370 . S
C1207 C1208 1.403 . S
C1208 C1207 1.403 . S
C1208 C1209 1.404 . S
C1208 C1211 1.539 . S
C1209 C1205 1.408 . S
C1209 C1208 1.404 . S
C1209 H1221 0.930 . S
C1210 C1206 1.524 1_655 S
C1210 H1222 0.956 . S
C1210 H1223 0.986 . S
C1210 H1224 0.961 . S
C1211 C1208 1.539 . S
C1211 H1225 0.958 . S
C1211 H1226 0.961 . S
C1211 H1227 0.960 . S
H1212 C1196 0.931 . S
H1213 C1201 0.929 . S
H1214 C1202 0.960 1_455 S
H1215 C1202 0.962 . S
H1216 C1202 0.960 . S
H1217 C1203 0.961 . S
H1218 C1203 0.961 . S
H1219 C1203 0.961 . S
H1220 C1204 0.921 1_655 S
H1221 C1209 0.930 . S
H1222 C1210 0.956 . S
H1223 C1210 0.986 . S
H1224 C1210 0.961 . S
H1225 C1211 0.958 . S
H1226 C1211 0.961 . S
H1227 C1211 0.960 . S
C1228 C1229 1.391 . S
C1228 C1230 1.394 . S
C1228 H1244 0.931 . S
C1229 C1228 1.391 . S
C1229 C1233 1.376 . S
C1230 C1228 1.394 . S
C1230 C1231 1.369 . S
C1230 C1234 1.531 . S
C1231 C1230 1.369 . S
C1231 C1232 1.410 . S
C1231 C1239 1.503 . S
C1232 C1231 1.410 . S
C1232 C1233 1.392 . S
C1232 C1235 1.511 . S
C1233 C1229 1.376 . S
C1233 C1232 1.392 . S
C1233 H1245 0.929 . S
C1234 C1230 1.531 . S
C1234 H1246 0.960 . S
C1234 H1247 0.962 . S
C1234 H1248 0.960 . S
C1235 C1232 1.511 . S
C1235 H1249 0.961 . S
C1235 H1250 0.961 . S
C1235 H1251 0.961 . S
C1236 C1237 1.370 . S
C1236 C1238 1.363 . S
C1236 H1252 0.931 . S
C1237 C1236 1.370 . S
C1237 C1241 1.408 . S
C1238 C1236 1.363 . S
C1238 C1239 1.370 . S
C1238 C1242 1.524 . S
C1239 C1231 1.503 . S
C1239 C1238 1.370 . S
C1239 C1240 1.403 . S
C1240 C1239 1.403 . S
C1240 C1241 1.404 . S
C1240 C1243 1.539 . S
C1241 C1237 1.408 . S
C1241 C1240 1.404 . S
C1241 H1253 0.930 . S
C1242 C1238 1.524 . S
C1242 H1254 0.956 . S
C1242 H1255 0.961 . S
C1242 H1256 0.961 . S
C1243 C1240 1.539 . S
C1243 H1257 0.958 . S
C1243 H1258 0.961 . S
C1243 H1259 0.960 . S
H1244 C1228 0.931 . S
H1245 C1233 0.929 . S
H1246 C1234 0.960 . S
H1247 C1234 0.962 . S
H1248 C1234 0.960 . S
H1249 C1235 0.961 . S
H1250 C1235 0.961 . S
H1251 C1235 0.961 . S
H1252 C1236 0.931 . S
H1253 C1241 0.930 . S
H1254 C1242 0.956 . S
H1255 C1242 0.961 . S
H1256 C1242 0.961 . S
H1257 C1243 0.958 . S
H1258 C1243 0.961 . S
H1259 C1243 0.960 . S
C1260 C1261 1.391 . S
C1260 C1262 1.394 . S
C1260 H1276 0.931 . S
C1261 C1260 1.391 . S
C1261 C1265 1.376 . S
C1262 C1260 1.394 . S
C1262 C1263 1.369 . S
C1262 C1266 1.531 1_655 S
C1263 C1262 1.369 . S
C1263 C1264 1.410 . S
C1263 C1271 1.503 . S
C1264 C1263 1.410 . S
C1264 C1265 1.392 . S
C1264 C1267 1.511 . S
C1265 C1261 1.376 . S
C1265 C1264 1.392 . S
C1265 H1277 0.929 . S
C1266 C1262 1.531 1_455 S
C1266 H1278 0.966 . S
C1266 H1279 0.962 . S
C1266 H1280 0.960 . S
C1267 C1264 1.511 . S
C1267 H1281 0.961 . S
C1267 H1282 0.961 . S
C1267 H1283 0.961 . S
C1268 C1269 1.370 1_455 S
C1268 C1270 1.363 . S
C1268 H1284 0.931 . S
C1269 C1268 1.370 1_655 S
C1269 C1273 1.408 . S
C1270 C1268 1.363 . S
C1270 C1271 1.370 1_455 S
C1270 C1274 1.524 . S
C1271 C1263 1.503 . S
C1271 C1270 1.370 1_655 S
C1271 C1272 1.403 . S
C1272 C1271 1.403 . S
C1272 C1273 1.404 . S
C1272 C1275 1.539 . S
C1273 C1269 1.408 . S
C1273 C1272 1.404 . S
C1273 H1285 0.930 . S
C1274 C1270 1.524 . S
C1274 H1286 0.956 . S
C1274 H1287 0.961 . S
C1274 H1288 0.961 . S
C1275 C1272 1.539 . S
C1275 H1289 0.958 . S
C1275 H1290 0.961 . S
C1275 H1291 0.960 . S
H1276 C1260 0.931 . S
H1277 C1265 0.929 . S
H1278 C1266 0.966 . S
H1279 C1266 0.962 . S
H1280 C1266 0.960 . S
H1281 C1267 0.961 . S
H1282 C1267 0.961 . S
H1283 C1267 0.961 . S
H1284 C1268 0.931 . S
H1285 C1273 0.930 . S
H1286 C1274 0.956 . S
H1287 C1274 0.961 . S
H1288 C1274 0.961 . S
H1289 C1275 0.958 . S
H1290 C1275 0.961 . S
H1291 C1275 0.960 . S
C1292 C1293 1.391 . S
C1292 C1294 1.394 . S
C1292 H1308 0.931 . S
C1293 C1292 1.391 . S
C1293 C1297 1.376 . S
C1294 C1292 1.394 . S
C1294 C1295 1.369 . S
C1294 C1298 1.531 . S
C1295 C1294 1.369 . S
C1295 C1296 1.410 . S
C1295 C1303 1.503 . S
C1296 C1295 1.410 . S
C1296 C1297 1.392 . S
C1296 C1299 1.511 . S
C1297 C1293 1.376 . S
C1297 C1296 1.392 . S
C1297 H1309 0.929 . S
C1298 C1294 1.531 . S
C1298 H1310 0.960 . S
C1298 H1311 0.962 . S
C1298 H1312 0.960 . S
C1299 C1296 1.511 . S
C1299 H1313 0.961 . S
C1299 H1314 0.961 . S
C1299 H1315 0.961 . S
C1300 C1301 1.370 . S
C1300 C1302 1.363 . S
C1300 H1316 0.931 . S
C1301 C1300 1.370 . S
C1301 C1305 1.408 . S
C1302 C1300 1.363 . S
C1302 C1303 1.370 . S
C1302 C1306 1.524 . S
C1303 C1295 1.503 . S
C1303 C1302 1.370 . S
C1303 C1304 1.403 . S
C1304 C1303 1.403 . S
C1304 C1305 1.404 . S
C1304 C1307 1.539 . S
C1305 C1301 1.408 . S
C1305 C1304 1.404 . S
C1305 H1317 0.930 . S
C1306 C1302 1.524 . S
C1306 H1318 0.956 . S
C1306 H1319 0.961 . S
C1306 H1320 0.961 . S
C1307 C1304 1.539 . S
C1307 H1321 0.958 . S
C1307 H1322 0.961 . S
C1307 H1323 0.960 . S
H1308 C1292 0.931 . S
H1309 C1297 0.929 . S
H1310 C1298 0.960 . S
H1311 C1298 0.962 . S
H1312 C1298 0.960 . S
H1313 C1299 0.961 . S
H1314 C1299 0.961 . S
H1315 C1299 0.961 . S
H1316 C1300 0.931 . S
H1317 C1305 0.930 . S
H1318 C1306 0.956 . S
H1319 C1306 0.961 . S
H1320 C1306 0.961 . S
H1321 C1307 0.958 . S
H1322 C1307 0.961 . S
H1323 C1307 0.960 . S
C1324 C1325 1.391 . S
C1324 C1326 1.394 . S
C1324 H1340 0.931 . S
C1325 C1324 1.391 . S
C1325 C1329 1.376 . S
C1326 C1324 1.394 . S
C1326 C1327 1.369 . S
C1326 C1330 1.531 . S
C1327 C1326 1.369 . S
C1327 C1328 1.410 . S
C1327 C1335 1.503 . S
C1328 C1327 1.410 . S
C1328 C1329 1.392 . S
C1328 C1331 1.511 . S
C1329 C1325 1.376 . S
C1329 C1328 1.392 . S
C1329 H1341 0.929 . S
C1330 C1326 1.531 . S
C1330 H1342 0.960 . S
C1330 H1343 0.962 . S
C1330 H1344 0.960 . S
C1331 C1328 1.511 . S
C1331 H1345 0.961 . S
C1331 H1346 0.961 . S
C1331 H1347 0.961 . S
C1332 C1333 1.370 . S
C1332 C1334 1.363 . S
C1332 H1348 0.931 . S
C1333 C1332 1.370 . S
C1333 C1337 1.408 . S
C1334 C1332 1.363 . S
C1334 C1335 1.370 . S
C1334 C1338 1.524 . S
C1335 C1327 1.503 . S
C1335 C1334 1.370 . S
C1335 C1336 1.403 . S
C1336 C1335 1.403 . S
C1336 C1337 1.404 . S
C1336 C1339 1.539 . S
C1337 C1333 1.408 . S
C1337 C1336 1.404 . S
C1337 H1349 0.930 . S
C1338 C1334 1.524 . S
C1338 H1350 0.956 . S
C1338 H1351 0.961 . S
C1338 H1352 0.961 . S
C1339 C1336 1.539 . S
C1339 H1353 0.958 . S
C1339 H1354 0.961 . S
C1339 H1355 0.960 . S
H1340 C1324 0.931 . S
H1341 C1329 0.929 . S
H1342 C1330 0.960 . S
H1343 C1330 0.962 . S
H1344 C1330 0.960 . S
H1345 C1331 0.961 . S
H1346 C1331 0.961 . S
H1347 C1331 0.961 . S
H1348 C1332 0.931 . S
H1349 C1337 0.930 . S
H1350 C1338 0.956 . S
H1351 C1338 0.961 . S
H1352 C1338 0.961 . S
H1353 C1339 0.958 . S
H1354 C1339 0.961 . S
H1355 C1339 0.960 . S
C1356 C1357 1.391 1_554 S
C1356 C1358 1.394 . S
C1356 H1372 0.931 . S
C1357 C1356 1.391 1_556 S
C1357 C1361 1.376 . S
C1358 C1356 1.394 . S
C1358 C1359 1.369 1_554 S
C1358 C1362 1.531 . S
C1359 C1358 1.369 1_556 S
C1359 C1360 1.410 . S
C1359 C1367 1.503 . S
C1360 C1359 1.410 . S
C1360 C1361 1.392 . S
C1360 C1363 1.511 . S
C1361 C1357 1.376 . S
C1361 C1360 1.392 . S
C1361 H1373 0.929 . S
C1362 C1358 1.531 . S
C1362 H1374 0.960 . S
C1362 H1375 0.962 . S
C1362 H1376 0.960 . S
C1363 C1360 1.511 . S
C1363 H1377 0.961 . S
C1363 H1378 0.961 . S
C1363 H1379 0.961 . S
C1364 C1365 1.370 1_556 S
C1364 C1366 1.363 . S
C1364 H1380 0.931 . S
C1365 C1364 1.370 1_554 S
C1365 C1369 1.408 . S
C1366 C1364 1.363 . S
C1366 C1367 1.370 . S
C1366 C1370 1.524 . S
C1367 C1359 1.503 . S
C1367 C1366 1.370 . S
C1367 C1368 1.403 1_556 S
C1368 C1367 1.403 1_554 S
C1368 C1369 1.404 . S
C1368 C1371 1.539 . S
C1369 C1365 1.408 . S
C1369 C1368 1.404 . S
C1369 H1381 0.930 . S
C1370 C1366 1.524 . S
C1370 H1382 0.956 . S
C1370 H1383 0.961 . S
C1370 H1384 0.961 . S
C1371 C1368 1.539 . S
C1371 H1385 0.958 . S
C1371 H1386 0.961 . S
C1371 H1387 0.960 . S
H1372 C1356 0.931 . S
H1373 C1361 0.929 . S
H1374 C1362 0.960 . S
H1375 C1362 0.962 . S
H1376 C1362 0.960 . S
H1377 C1363 0.961 . S
H1378 C1363 0.961 . S
H1379 C1363 0.961 . S
H1380 C1364 0.931 . S
H1381 C1369 0.930 . S
H1382 C1370 0.956 . S
H1383 C1370 0.961 . S
H1384 C1370 0.961 . S
H1385 C1371 0.958 . S
H1386 C1371 0.961 . S
H1387 C1371 0.960 . S
C1388 C1389 1.391 . S
C1388 C1390 1.394 . S
C1388 H1404 0.931 . S
C1389 C1388 1.391 . S
C1389 C1393 1.376 . S
C1390 C1388 1.394 . S
C1390 C1391 1.369 . S
C1390 C1394 1.531 . S
C1391 C1390 1.369 . S
C1391 C1392 1.410 . S
C1391 C1399 1.503 . S
C1392 C1391 1.410 . S
C1392 C1393 1.392 . S
C1392 C1395 1.511 . S
C1393 C1389 1.376 . S
C1393 C1392 1.392 . S
C1393 H1405 0.929 . S
C1394 C1390 1.531 . S
C1394 H1406 0.960 . S
C1394 H1407 0.962 . S
C1394 H1408 0.960 . S
C1395 C1392 1.511 . S
C1395 H1409 0.961 . S
C1395 H1410 0.961 . S
C1395 H1411 0.961 . S
C1396 C1397 1.370 . S
C1396 C1398 1.363 . S
C1396 H1412 0.931 . S
C1397 C1396 1.370 . S
C1397 C1401 1.408 . S
C1398 C1396 1.363 . S
C1398 C1399 1.370 . S
C1398 C1402 1.524 . S
C1399 C1391 1.503 . S
C1399 C1398 1.370 . S
C1399 C1400 1.403 . S
C1400 C1399 1.403 . S
C1400 C1401 1.404 . S
C1400 C1403 1.539 . S
C1401 C1397 1.408 . S
C1401 C1400 1.404 . S
C1401 H1413 0.930 . S
C1402 C1398 1.524 . S
C1402 H1414 0.956 . S
C1402 H1415 0.961 . S
C1402 H1416 0.961 . S
C1403 C1400 1.539 . S
C1403 H1417 0.958 . S
C1403 H1418 0.961 . S
C1403 H1419 0.960 . S
H1404 C1388 0.931 . S
H1405 C1393 0.929 . S
H1406 C1394 0.960 . S
H1407 C1394 0.962 . S
H1408 C1394 0.960 . S
H1409 C1395 0.961 . S
H1410 C1395 0.961 . S
H1411 C1395 0.961 . S
H1412 C1396 0.931 . S
H1413 C1401 0.930 . S
H1414 C1402 0.956 . S
H1415 C1402 0.961 . S
H1416 C1402 0.961 . S
H1417 C1403 0.958 . S
H1418 C1403 0.961 . S
H1419 C1403 0.960 . S
C1420 C1421 1.391 . S
C1420 C1422 1.394 . S
C1420 H1436 0.931 . S
C1421 C1420 1.391 . S
C1421 C1425 1.376 . S
C1422 C1420 1.394 . S
C1422 C1423 1.369 . S
C1422 C1426 1.531 . S
C1423 C1422 1.369 . S
C1423 C1424 1.410 . S
C1423 C1431 1.503 . S
C1424 C1423 1.410 . S
C1424 C1425 1.392 . S
C1424 C1427 1.511 . S
C1425 C1421 1.376 . S
C1425 C1424 1.392 . S
C1425 H1437 0.929 . S
C1426 C1422 1.531 . S
C1426 H1438 0.960 . S
C1426 H1439 0.962 . S
C1426 H1440 0.960 . S
C1427 C1424 1.511 . S
C1427 H1441 0.961 . S
C1427 H1442 0.961 . S
C1427 H1443 0.961 . S
C1428 C1429 1.370 . S
C1428 C1430 1.363 . S
C1428 H1444 0.931 . S
C1429 C1428 1.370 . S
C1429 C1433 1.408 . S
C1430 C1428 1.363 . S
C1430 C1431 1.370 . S
C1430 C1434 1.524 . S
C1431 C1423 1.503 . S
C1431 C1430 1.370 . S
C1431 C1432 1.403 . S
C1432 C1431 1.403 . S
C1432 C1433 1.404 . S
C1432 C1435 1.539 . S
C1433 C1429 1.408 . S
C1433 C1432 1.404 . S
C1433 H1445 0.930 . S
C1434 C1430 1.524 . S
C1434 H1446 0.956 . S
C1434 H1447 0.961 . S
C1434 H1448 0.961 . S
C1435 C1432 1.539 . S
C1435 H1449 0.958 . S
C1435 H1450 0.961 . S
C1435 H1451 0.960 . S
H1436 C1420 0.931 . S
H1437 C1425 0.929 . S
H1438 C1426 0.960 . S
H1439 C1426 0.962 . S
H1440 C1426 0.960 . S
H1441 C1427 0.961 . S
H1442 C1427 0.961 . S
H1443 C1427 0.961 . S
H1444 C1428 0.931 . S
H1445 C1433 0.930 . S
H1446 C1434 0.956 . S
H1447 C1434 0.961 . S
H1448 C1434 0.961 . S
H1449 C1435 0.958 . S
H1450 C1435 0.961 . S
H1451 C1435 0.960 . S
C1452 C1453 1.391 . S
C1452 C1454 1.394 . S
C1452 H1468 0.931 . S
C1453 C1452 1.391 . S
C1453 C1457 1.376 . S
C1454 C1452 1.394 . S
C1454 C1455 1.369 . S
C1454 C1458 1.531 . S
C1455 C1454 1.369 . S
C1455 C1456 1.410 . S
C1455 C1463 1.503 . S
C1456 C1455 1.410 . S
C1456 C1457 1.392 . S
C1456 C1459 1.511 . S
C1457 C1453 1.376 . S
C1457 C1456 1.392 . S
C1457 H1469 0.929 . S
C1458 C1454 1.531 . S
C1458 H1470 0.960 . S
C1458 H1471 0.962 . S
C1458 H1472 0.960 . S
C1459 C1456 1.511 . S
C1459 H1473 0.961 . S
C1459 H1474 0.961 . S
C1459 H1475 0.961 . S
C1460 C1461 1.370 . S
C1460 C1462 1.363 . S
C1460 H1476 0.931 . S
C1461 C1460 1.370 . S
C1461 C1465 1.408 . S
C1462 C1460 1.363 . S
C1462 C1463 1.370 . S
C1462 C1466 1.524 . S
C1463 C1455 1.503 . S
C1463 C1462 1.370 . S
C1463 C1464 1.403 . S
C1464 C1463 1.403 . S
C1464 C1465 1.404 . S
C1464 C1467 1.539 . S
C1465 C1461 1.408 . S
C1465 C1464 1.404 . S
C1465 H1477 0.930 . S
C1466 C1462 1.524 . S
C1466 H1478 0.956 . S
C1466 H1479 0.961 . S
C1466 H1480 0.961 . S
C1467 C1464 1.539 . S
C1467 H1481 0.958 . S
C1467 H1482 0.961 . S
C1467 H1483 0.960 . S
H1468 C1452 0.931 . S
H1469 C1457 0.929 . S
H1470 C1458 0.960 . S
H1471 C1458 0.962 . S
H1472 C1458 0.960 . S
H1473 C1459 0.961 . S
H1474 C1459 0.961 . S
H1475 C1459 0.961 . S
H1476 C1460 0.931 . S
H1477 C1465 0.930 . S
H1478 C1466 0.956 . S
H1479 C1466 0.961 . S
H1480 C1466 0.961 . S
H1481 C1467 0.958 . S
H1482 C1467 0.961 . S
H1483 C1467 0.960 . S
C1484 C1485 1.391 . S
C1484 C1486 1.394 . S
C1484 H1500 0.931 . S
C1485 C1484 1.391 . S
C1485 C1489 1.376 . S
C1486 C1484 1.394 . S
C1486 C1487 1.369 . S
C1486 C1490 1.531 . S
C1487 C1486 1.369 . S
C1487 C1488 1.410 . S
C1487 C1495 1.503 . S
C1488 C1487 1.410 . S
C1488 C1489 1.392 . S
C1488 C1491 1.511 . S
C1489 C1485 1.376 . S
C1489 C1488 1.392 . S
C1489 H1501 0.929 . S
C1490 C1486 1.531 . S
C1490 H1502 0.960 . S
C1490 H1503 0.962 . S
C1490 H1504 0.960 . S
C1491 C1488 1.511 . S
C1491 H1505 0.961 . S
C1491 H1506 0.961 . S
C1491 H1507 0.961 . S
C1492 C1493 1.370 . S
C1492 C1494 1.363 . S
C1492 H1508 0.931 . S
C1493 C1492 1.370 . S
C1493 C1497 1.408 . S
C1494 C1492 1.363 . S
C1494 C1495 1.370 . S
C1494 C1498 1.524 . S
C1495 C1487 1.503 . S
C1495 C1494 1.370 . S
C1495 C1496 1.403 . S
C1496 C1495 1.403 . S
C1496 C1497 1.404 . S
C1496 C1499 1.539 . S
C1497 C1493 1.408 . S
C1497 C1496 1.404 . S
C1497 H1509 0.930 . S
C1498 C1494 1.524 . S
C1498 H1510 0.956 . S
C1498 H1511 0.961 . S
C1498 H1512 0.961 . S
C1499 C1496 1.539 . S
C1499 H1513 0.958 . S
C1499 H1514 0.961 . S
C1499 H1515 0.960 . S
H1500 C1484 0.931 . S
H1501 C1489 0.929 . S
H1502 C1490 0.960 . S
H1503 C1490 0.962 . S
H1504 C1490 0.960 . S
H1505 C1491 0.961 . S
H1506 C1491 0.961 . S
H1507 C1491 0.961 . S
H1508 C1492 0.931 . S
H1509 C1497 0.930 . S
H1510 C1498 0.956 . S
H1511 C1498 0.961 . S
H1512 C1498 0.961 . S
H1513 C1499 0.958 . S
H1514 C1499 0.961 . S
H1515 C1499 0.960 . S
C1516 C1517 1.391 . S
C1516 C1518 1.394 . S
C1516 H1532 0.931 . S
C1517 C1516 1.391 . S
C1517 C1521 1.376 . S
C1518 C1516 1.394 . S
C1518 C1519 1.369 . S
C1518 C1522 1.531 . S
C1519 C1518 1.369 . S
C1519 C1520 1.410 . S
C1519 C1527 1.503 . S
C1520 C1519 1.410 . S
C1520 C1521 1.392 . S
C1520 C1523 1.511 . S
C1521 C1517 1.376 . S
C1521 C1520 1.392 . S
C1521 H1533 0.929 . S
C1522 C1518 1.531 . S
C1522 H1534 0.960 . S
C1522 H1535 0.962 . S
C1522 H1536 0.960 . S
C1523 C1520 1.511 . S
C1523 H1537 0.961 . S
C1523 H1538 0.961 . S
C1523 H1539 0.961 . S
C1524 C1525 1.370 . S
C1524 C1526 1.363 . S
C1524 H1540 0.931 . S
C1525 C1524 1.370 . S
C1525 C1529 1.408 . S
C1526 C1524 1.363 . S
C1526 C1527 1.370 . S
C1526 C1530 1.524 . S
C1527 C1519 1.503 . S
C1527 C1526 1.370 . S
C1527 C1528 1.403 . S
C1528 C1527 1.403 . S
C1528 C1529 1.404 . S
C1528 C1531 1.539 . S
C1529 C1525 1.408 . S
C1529 C1528 1.404 . S
C1529 H1541 0.930 . S
C1530 C1526 1.524 . S
C1530 H1542 0.956 . S
C1530 H1543 0.961 . S
C1530 H1544 0.961 . S
C1531 C1528 1.539 . S
C1531 H1545 0.958 . S
C1531 H1546 0.961 . S
C1531 H1547 0.960 . S
H1532 C1516 0.931 . S
H1533 C1521 0.929 . S
H1534 C1522 0.960 . S
H1535 C1522 0.962 . S
H1536 C1522 0.960 . S
H1537 C1523 0.961 . S
H1538 C1523 0.961 . S
H1539 C1523 0.961 . S
H1540 C1524 0.931 . S
H1541 C1529 0.930 . S
H1542 C1530 0.956 . S
H1543 C1530 0.961 . S
H1544 C1530 0.961 . S
H1545 C1531 0.958 . S
H1546 C1531 0.961 . S
H1547 C1531 0.960 . S
C1548 C1549 1.391 . S
C1548 C1550 1.394 . S
C1548 H1564 0.931 . S
C1549 C1548 1.391 . S
C1549 C1553 1.376 . S
C1550 C1548 1.394 . S
C1550 C1551 1.369 . S
C1550 C1554 1.531 . S
C1551 C1550 1.369 . S
C1551 C1552 1.410 . S
C1551 C1559 1.503 . S
C1552 C1551 1.410 . S
C1552 C1553 1.392 . S
C1552 C1555 1.511 . S
C1553 C1549 1.376 . S
C1553 C1552 1.392 . S
C1553 H1565 0.929 . S
C1554 C1550 1.531 . S
C1554 H1566 0.960 . S
C1554 H1567 0.962 . S
C1554 H1568 0.960 . S
C1555 C1552 1.511 . S
C1555 H1569 0.961 . S
C1555 H1570 0.961 . S
C1555 H1571 0.961 . S
C1556 C1557 1.370 . S
C1556 C1558 1.363 . S
C1556 H1572 0.931 . S
C1557 C1556 1.370 . S
C1557 C1561 1.408 . S
C1558 C1556 1.363 . S
C1558 C1559 1.370 . S
C1558 C1562 1.524 . S
C1559 C1551 1.503 . S
C1559 C1558 1.370 . S
C1559 C1560 1.403 . S
C1560 C1559 1.403 . S
C1560 C1561 1.404 . S
C1560 C1563 1.539 . S
C1561 C1557 1.408 . S
C1561 C1560 1.404 . S
C1561 H1573 0.930 . S
C1562 C1558 1.524 . S
C1562 H1574 0.956 . S
C1562 H1575 0.961 . S
C1562 H1576 0.961 . S
C1563 C1560 1.539 . S
C1563 H1577 0.958 . S
C1563 H1578 0.961 . S
C1563 H1579 0.960 . S
H1564 C1548 0.931 . S
H1565 C1553 0.929 . S
H1566 C1554 0.960 . S
H1567 C1554 0.962 . S
H1568 C1554 0.960 . S
H1569 C1555 0.961 . S
H1570 C1555 0.961 . S
H1571 C1555 0.961 . S
H1572 C1556 0.931 . S
H1573 C1561 0.930 . S
H1574 C1562 0.956 . S
H1575 C1562 0.961 . S
H1576 C1562 0.961 . S
H1577 C1563 0.958 . S
H1578 C1563 0.961 . S
H1579 C1563 0.960 . S
C1580 C1581 1.391 . S
C1580 C1582 1.394 . S
C1580 H1596 0.931 . S
C1581 C1580 1.391 . S
C1581 C1585 1.376 . S
C1582 C1580 1.394 . S
C1582 C1583 1.369 . S
C1582 C1586 1.531 1_545 S
C1583 C1582 1.369 . S
C1583 C1584 1.410 . S
C1583 C1591 1.503 . S
C1584 C1583 1.410 . S
C1584 C1585 1.392 . S
C1584 C1587 1.511 . S
C1585 C1581 1.376 . S
C1585 C1584 1.392 . S
C1585 H1597 0.929 . S
C1586 C1582 1.531 1_565 S
C1586 H1598 0.960 . S
C1586 H1599 0.962 1_565 S
C1586 H1600 0.960 . S
C1587 C1584 1.511 . S
C1587 H1601 0.961 . S
C1587 H1602 0.961 . S
C1587 H1603 0.961 . S
C1588 C1589 1.370 . S
C1588 C1590 1.363 . S
C1588 H1604 0.931 . S
C1589 C1588 1.370 . S
C1589 C1593 1.408 1_545 S
C1590 C1588 1.363 . S
C1590 C1591 1.370 . S
C1590 C1594 1.524 . S
C1591 C1583 1.503 . S
C1591 C1590 1.370 . S
C1591 C1592 1.403 1_545 S
C1592 C1591 1.403 1_565 S
C1592 C1593 1.404 . S
C1592 C1595 1.539 . S
C1593 C1589 1.408 1_565 S
C1593 C1592 1.404 . S
C1593 H1605 0.930 . S
C1594 C1590 1.524 . S
C1594 H1606 0.956 . S
C1594 H1607 0.961 . S
C1594 H1608 0.961 . S
C1595 C1592 1.539 . S
C1595 H1609 0.958 . S
C1595 H1610 0.961 . S
C1595 H1611 0.960 . S
H1596 C1580 0.931 . S
H1597 C1585 0.929 . S
H1598 C1586 0.960 . S
H1599 C1586 0.962 1_545 S
H1600 C1586 0.960 . S
H1601 C1587 0.961 . S
H1602 C1587 0.961 . S
H1603 C1587 0.961 . S
H1604 C1588 0.931 . S
H1605 C1593 0.930 . S
H1606 C1594 0.956 . S
H1607 C1594 0.961 . S
H1608 C1594 0.961 . S
H1609 C1595 0.958 . S
H1610 C1595 0.961 . S
H1611 C1595 0.960 . S
C1612 C1613 1.391 . S
C1612 C1614 1.394 . S
C1612 H1628 0.931 . S
C1613 C1612 1.391 . S
C1613 C1617 1.376 . S
C1614 C1612 1.394 . S
C1614 C1615 1.369 . S
C1614 C1618 1.531 . S
C1615 C1614 1.369 . S
C1615 C1616 1.410 . S
C1615 C1623 1.503 . S
C1616 C1615 1.410 . S
C1616 C1617 1.392 . S
C1616 C1619 1.511 . S
C1617 C1613 1.376 . S
C1617 C1616 1.392 . S
C1617 H1629 0.929 . S
C1618 C1614 1.531 . S
C1618 H1630 0.960 . S
C1618 H1631 0.962 . S
C1618 H1632 0.960 . S
C1619 C1616 1.511 . S
C1619 H1633 0.961 . S
C1619 H1634 0.961 . S
C1619 H1635 0.961 . S
C1620 C1621 1.370 . S
C1620 C1622 1.363 . S
C1620 H1636 0.931 . S
C1621 C1620 1.370 . S
C1621 C1625 1.408 . S
C1622 C1620 1.363 . S
C1622 C1623 1.370 . S
C1622 C1626 1.524 . S
C1623 C1615 1.503 . S
C1623 C1622 1.370 . S
C1623 C1624 1.403 . S
C1624 C1623 1.403 . S
C1624 C1625 1.404 . S
C1624 C1627 1.539 . S
C1625 C1621 1.408 . S
C1625 C1624 1.404 . S
C1625 H1637 0.930 . S
C1626 C1622 1.524 . S
C1626 H1638 0.956 . S
C1626 H1639 0.961 . S
C1626 H1640 0.961 . S
C1627 C1624 1.539 . S
C1627 H1641 0.958 . S
C1627 H1642 0.961 . S
C1627 H1643 0.960 . S
H1628 C1612 0.931 . S
H1629 C1617 0.929 . S
H1630 C1618 0.960 . S
H1631 C1618 0.962 . S
H1632 C1618 0.960 . S
H1633 C1619 0.961 . S
H1634 C1619 0.961 . S
H1635 C1619 0.961 . S
H1636 C1620 0.931 . S
H1637 C1625 0.930 . S
H1638 C1626 0.956 . S
H1639 C1626 0.961 . S
H1640 C1626 0.961 . S
H1641 C1627 0.958 . S
H1642 C1627 0.961 . S
H1643 C1627 0.960 . S
C1644 C1645 1.391 . S
C1644 C1646 1.394 . S
C1644 H1660 0.931 . S
C1645 C1644 1.391 . S
C1645 C1649 1.376 . S
C1646 C1644 1.394 . S
C1646 C1647 1.369 . S
C1646 C1650 1.531 . S
C1647 C1646 1.369 . S
C1647 C1648 1.410 . S
C1647 C1655 1.503 . S
C1648 C1647 1.410 . S
C1648 C1649 1.392 . S
C1648 C1651 1.511 . S
C1649 C1645 1.376 . S
C1649 C1648 1.392 . S
C1649 H1661 0.929 . S
C1650 C1646 1.531 . S
C1650 H1662 0.960 . S
C1650 H1663 0.962 . S
C1650 H1664 0.960 . S
C1651 C1648 1.511 . S
C1651 H1665 0.961 . S
C1651 H1666 0.961 . S
C1651 H1667 0.961 . S
C1652 C1653 1.370 . S
C1652 C1654 1.363 . S
C1652 H1668 0.931 . S
C1653 C1652 1.370 . S
C1653 C1657 1.408 . S
C1654 C1652 1.363 . S
C1654 C1655 1.370 . S
C1654 C1658 1.524 . S
C1655 C1647 1.503 . S
C1655 C1654 1.370 . S
C1655 C1656 1.403 . S
C1656 C1655 1.403 . S
C1656 C1657 1.404 . S
C1656 C1659 1.539 . S
C1657 C1653 1.408 . S
C1657 C1656 1.404 . S
C1657 H1669 0.930 . S
C1658 C1654 1.524 . S
C1658 H1670 0.956 . S
C1658 H1671 0.961 . S
C1658 H1672 0.961 . S
C1659 C1656 1.539 . S
C1659 H1673 0.958 . S
C1659 H1674 0.961 . S
C1659 H1675 0.960 . S
H1660 C1644 0.931 . S
H1661 C1649 0.929 . S
H1662 C1650 0.960 . S
H1663 C1650 0.962 . S
H1664 C1650 0.960 . S
H1665 C1651 0.961 . S
H1666 C1651 0.961 . S
H1667 C1651 0.961 . S
H1668 C1652 0.931 . S
H1669 C1657 0.930 . S
H1670 C1658 0.956 . S
H1671 C1658 0.961 . S
H1672 C1658 0.961 . S
H1673 C1659 0.958 . S
H1674 C1659 0.961 . S
H1675 C1659 0.960 . S
C1676 C1677 1.391 . S
C1676 C1678 1.394 . S
C1676 H1692 0.931 . S
C1677 C1676 1.391 . S
C1677 C1681 1.376 . S
C1678 C1676 1.394 . S
C1678 C1679 1.369 . S
C1678 C1682 1.531 . S
C1679 C1678 1.369 . S
C1679 C1680 1.410 . S
C1679 C1687 1.503 . S
C1680 C1679 1.410 . S
C1680 C1681 1.392 . S
C1680 C1683 1.511 . S
C1681 C1677 1.376 . S
C1681 C1680 1.392 . S
C1681 H1693 0.929 . S
C1682 C1678 1.531 . S
C1682 H1694 0.960 . S
C1682 H1695 0.962 . S
C1682 H1696 0.960 . S
C1683 C1680 1.511 . S
C1683 H1697 0.961 . S
C1683 H1698 0.961 . S
C1683 H1699 0.961 . S
C1684 C1685 1.370 . S
C1684 C1686 1.363 . S
C1684 H1700 0.931 . S
C1685 C1684 1.370 . S
C1685 C1689 1.408 . S
C1686 C1684 1.363 . S
C1686 C1687 1.370 . S
C1686 C1690 1.524 . S
C1687 C1679 1.503 . S
C1687 C1686 1.370 . S
C1687 C1688 1.403 . S
C1688 C1687 1.403 . S
C1688 C1689 1.404 . S
C1688 C1691 1.539 . S
C1689 C1685 1.408 . S
C1689 C1688 1.404 . S
C1689 H1701 0.930 . S
C1690 C1686 1.524 . S
C1690 H1702 0.956 . S
C1690 H1703 0.961 . S
C1690 H1704 0.961 . S
C1691 C1688 1.539 . S
C1691 H1705 0.958 . S
C1691 H1706 0.961 . S
C1691 H1707 0.960 . S
H1692 C1676 0.931 . S
H1693 C1681 0.929 . S
H1694 C1682 0.960 . S
H1695 C1682 0.962 . S
H1696 C1682 0.960 . S
H1697 C1683 0.961 . S
H1698 C1683 0.961 . S
H1699 C1683 0.961 . S
H1700 C1684 0.931 . S
H1701 C1689 0.930 . S
H1702 C1690 0.956 . S
H1703 C1690 0.961 . S
H1704 C1690 0.961 . S
H1705 C1691 0.958 . S
H1706 C1691 0.961 . S
H1707 C1691 0.960 . S
C1708 C1709 1.391 . S
C1708 C1710 1.394 . S
C1708 H1724 0.931 . S
C1709 C1708 1.391 . S
C1709 C1713 1.376 . S
C1710 C1708 1.394 . S
C1710 C1711 1.369 . S
C1710 C1714 1.531 . S
C1711 C1710 1.369 . S
C1711 C1712 1.410 . S
C1711 C1719 1.503 . S
C1712 C1711 1.410 . S
C1712 C1713 1.392 . S
C1712 C1715 1.511 . S
C1713 C1709 1.376 . S
C1713 C1712 1.392 . S
C1713 H1725 0.929 . S
C1714 C1710 1.531 . S
C1714 H1726 0.960 . S
C1714 H1727 0.962 . S
C1714 H1728 0.960 . S
C1715 C1712 1.511 . S
C1715 H1729 0.961 . S
C1715 H1730 0.961 . S
C1715 H1731 0.961 . S
C1716 C1717 1.370 . S
C1716 C1718 1.363 . S
C1716 H1732 0.931 1_545 S
C1717 C1716 1.370 . S
C1717 C1721 1.408 . S
C1718 C1716 1.363 . S
C1718 C1719 1.370 . S
C1718 C1722 1.524 1_545 S
C1719 C1711 1.503 . S
C1719 C1718 1.370 . S
C1719 C1720 1.403 . S
C1720 C1719 1.403 . S
C1720 C1721 1.404 . S
C1720 C1723 1.539 . S
C1721 C1717 1.408 . S
C1721 C1720 1.404 . S
C1721 H1733 0.930 . S
C1722 C1718 1.524 1_565 S
C1722 H1734 0.948 1_565 S
C1722 H1735 0.961 . S
C1722 H1736 0.961 . S
C1723 C1720 1.539 . S
C1723 H1737 0.958 . S
C1723 H1738 0.961 . S
C1723 H1739 0.960 . S
H1724 C1708 0.931 . S
H1725 C1713 0.929 . S
H1726 C1714 0.960 . S
H1727 C1714 0.962 . S
H1728 C1714 0.960 . S
H1729 C1715 0.961 . S
H1730 C1715 0.961 . S
H1731 C1715 0.961 . S
H1732 C1716 0.931 1_565 S
H1733 C1721 0.930 . S
H1734 C1722 0.948 1_545 S
H1735 C1722 0.961 . S
H1736 C1722 0.961 . S
H1737 C1723 0.958 . S
H1738 C1723 0.961 . S
H1739 C1723 0.960 . S
C1740 C1741 1.391 . S
C1740 C1742 1.394 . S
C1740 H1756 0.931 . S
C1741 C1740 1.391 . S
C1741 C1745 1.376 . S
C1742 C1740 1.394 . S
C1742 C1743 1.369 . S
C1742 C1746 1.531 . S
C1743 C1742 1.369 . S
C1743 C1744 1.410 . S
C1743 C1751 1.503 . S
C1744 C1743 1.410 . S
C1744 C1745 1.392 . S
C1744 C1747 1.511 . S
C1745 C1741 1.376 . S
C1745 C1744 1.392 . S
C1745 H1757 0.929 . S
C1746 C1742 1.531 . S
C1746 H1758 0.960 . S
C1746 H1759 0.962 . S
C1746 H1760 0.960 . S
C1747 C1744 1.511 . S
C1747 H1761 0.961 . S
C1747 H1762 0.961 . S
C1747 H1763 0.961 . S
C1748 C1749 1.370 . S
C1748 C1750 1.363 . S
C1748 H1764 0.931 . S
C1749 C1748 1.370 . S
C1749 C1753 1.408 . S
C1750 C1748 1.363 . S
C1750 C1751 1.370 . S
C1750 C1754 1.524 . S
C1751 C1743 1.503 . S
C1751 C1750 1.370 . S
C1751 C1752 1.403 . S
C1752 C1751 1.403 . S
C1752 C1753 1.404 . S
C1752 C1755 1.539 . S
C1753 C1749 1.408 . S
C1753 C1752 1.404 . S
C1753 H1765 0.930 . S
C1754 C1750 1.524 . S
C1754 H1766 0.956 . S
C1754 H1767 0.961 . S
C1754 H1768 0.961 . S
C1755 C1752 1.539 . S
C1755 H1769 0.958 . S
C1755 H1770 0.961 . S
C1755 H1771 0.960 . S
H1756 C1740 0.931 . S
H1757 C1745 0.929 . S
H1758 C1746 0.960 . S
H1759 C1746 0.962 . S
H1760 C1746 0.960 . S
H1761 C1747 0.961 . S
H1762 C1747 0.961 . S
H1763 C1747 0.961 . S
H1764 C1748 0.931 . S
H1765 C1753 0.930 . S
H1766 C1754 0.956 . S
H1767 C1754 0.961 . S
H1768 C1754 0.961 . S
H1769 C1755 0.958 . S
H1770 C1755 0.961 . S
H1771 C1755 0.960 . S
C1772 C1773 1.391 . S
C1772 C1774 1.394 . S
C1772 H1788 0.931 . S
C1773 C1772 1.391 . S
C1773 C1777 1.376 . S
C1774 C1772 1.394 . S
C1774 C1775 1.369 . S
C1774 C1778 1.531 . S
C1775 C1774 1.369 . S
C1775 C1776 1.410 . S
C1775 C1783 1.503 . S
C1776 C1775 1.410 . S
C1776 C1777 1.392 . S
C1776 C1779 1.511 . S
C1777 C1773 1.376 . S
C1777 C1776 1.392 . S
C1777 H1789 0.929 . S
C1778 C1774 1.531 . S
C1778 H1790 0.960 . S
C1778 H1791 0.962 . S
C1778 H1792 0.960 . S
C1779 C1776 1.511 . S
C1779 H1793 0.961 . S
C1779 H1794 0.961 . S
C1779 H1795 0.961 . S
C1780 C1781 1.370 . S
C1780 C1782 1.363 . S
C1780 H1796 0.931 . S
C1781 C1780 1.370 . S
C1781 C1785 1.408 . S
C1782 C1780 1.363 . S
C1782 C1783 1.370 . S
C1782 C1786 1.524 . S
C1783 C1775 1.503 . S
C1783 C1782 1.370 . S
C1783 C1784 1.403 . S
C1784 C1783 1.403 . S
C1784 C1785 1.404 . S
C1784 C1787 1.539 . S
C1785 C1781 1.408 . S
C1785 C1784 1.404 . S
C1785 H1797 0.930 . S
C1786 C1782 1.524 . S
C1786 H1798 0.956 . S
C1786 H1799 0.961 . S
C1786 H1800 0.961 . S
C1787 C1784 1.539 . S
C1787 H1801 0.958 . S
C1787 H1802 0.961 . S
C1787 H1803 0.960 . S
H1788 C1772 0.931 . S
H1789 C1777 0.929 . S
H1790 C1778 0.960 . S
H1791 C1778 0.962 . S
H1792 C1778 0.960 . S
H1793 C1779 0.961 . S
H1794 C1779 0.961 . S
H1795 C1779 0.961 . S
H1796 C1780 0.931 . S
H1797 C1785 0.930 . S
H1798 C1786 0.956 . S
H1799 C1786 0.961 . S
H1800 C1786 0.961 . S
H1801 C1787 0.958 . S
H1802 C1787 0.961 . S
H1803 C1787 0.960 . S
C1804 C1805 1.391 . S
C1804 C1806 1.394 . S
C1804 H1820 0.931 . S
C1805 C1804 1.391 . S
C1805 C1809 1.376 . S
C1806 C1804 1.394 . S
C1806 C1807 1.369 . S
C1806 C1810 1.531 . S
C1807 C1806 1.369 . S
C1807 C1808 1.410 . S
C1807 C1815 1.503 . S
C1808 C1807 1.410 . S
C1808 C1809 1.392 . S
C1808 C1811 1.511 . S
C1809 C1805 1.376 . S
C1809 C1808 1.392 . S
C1809 H1821 0.929 . S
C1810 C1806 1.531 . S
C1810 H1822 0.960 . S
C1810 H1823 0.962 . S
C1810 H1824 0.960 . S
C1811 C1808 1.511 . S
C1811 H1825 0.961 . S
C1811 H1826 0.961 . S
C1811 H1827 0.961 . S
C1812 C1813 1.370 . S
C1812 C1814 1.363 . S
C1812 H1828 0.931 . S
C1813 C1812 1.370 . S
C1813 C1817 1.408 . S
C1814 C1812 1.363 . S
C1814 C1815 1.370 . S
C1814 C1818 1.524 . S
C1815 C1807 1.503 . S
C1815 C1814 1.370 . S
C1815 C1816 1.403 . S
C1816 C1815 1.403 . S
C1816 C1817 1.404 . S
C1816 C1819 1.539 . S
C1817 C1813 1.408 . S
C1817 C1816 1.404 . S
C1817 H1829 0.930 . S
C1818 C1814 1.524 . S
C1818 H1830 0.956 . S
C1818 H1831 0.961 . S
C1818 H1832 0.961 . S
C1819 C1816 1.539 . S
C1819 H1833 0.958 . S
C1819 H1834 0.961 . S
C1819 H1835 0.960 . S
H1820 C1804 0.931 . S
H1821 C1809 0.929 . S
H1822 C1810 0.960 . S
H1823 C1810 0.962 . S
H1824 C1810 0.960 . S
H1825 C1811 0.961 . S
H1826 C1811 0.961 . S
H1827 C1811 0.961 . S
H1828 C1812 0.931 . S
H1829 C1817 0.930 . S
H1830 C1818 0.956 . S
H1831 C1818 0.961 . S
H1832 C1818 0.961 . S
H1833 C1819 0.958 . S
H1834 C1819 0.961 . S
H1835 C1819 0.960 . S
C1836 C1837 1.391 . S
C1836 C1838 1.394 . S
C1836 H1852 0.931 . S
C1837 C1836 1.391 . S
C1837 C1841 1.397 . S
C1838 C1836 1.394 . S
C1838 C1839 1.369 . S
C1838 C1842 1.531 . S
C1839 C1838 1.369 . S
C1839 C1840 1.410 1_655 S
C1839 C1847 1.503 . S
C1840 C1839 1.410 1_455 S
C1840 C1841 1.388 1_455 S
C1840 C1843 1.511 . S
C1841 C1837 1.397 . S
C1841 C1840 1.388 1_655 S
C1841 H1853 0.912 1_655 S
C1842 C1838 1.531 . S
C1842 H1854 0.960 . S
C1842 H1855 0.962 . S
C1842 H1856 0.960 . S
C1843 C1840 1.511 . S
C1843 H1857 0.961 . S
C1843 H1858 0.961 . S
C1843 H1859 0.961 . S
C1844 C1845 1.370 . S
C1844 C1846 1.363 . S
C1844 H1860 0.931 . S
C1845 C1844 1.370 . S
C1845 C1849 1.408 . S
C1846 C1844 1.363 . S
C1846 C1847 1.370 . S
C1846 C1850 1.524 . S
C1847 C1839 1.503 . S
C1847 C1846 1.370 . S
C1847 C1848 1.403 . S
C1848 C1847 1.403 . S
C1848 C1849 1.404 . S
C1848 C1851 1.539 . S
C1849 C1845 1.408 . S
C1849 C1848 1.404 . S
C1849 H1861 0.943 . S
C1850 C1846 1.524 . S
C1850 H1862 0.956 . S
C1850 H1863 0.961 . S
C1850 H1864 0.961 . S
C1851 C1848 1.539 . S
C1851 H1865 0.958 . S
C1851 H1866 0.961 1_655 S
C1851 H1867 0.953 1_655 S
H1852 C1836 0.931 . S
H1853 C1841 0.912 1_455 S
H1854 C1842 0.960 . S
H1855 C1842 0.962 . S
H1856 C1842 0.960 . S
H1857 C1843 0.961 . S
H1858 C1843 0.961 . S
H1859 C1843 0.961 . S
H1860 C1844 0.931 . S
H1861 C1849 0.943 . S
H1862 C1850 0.956 . S
H1863 C1850 0.961 . S
H1864 C1850 0.961 . S
H1865 C1851 0.958 . S
H1866 C1851 0.961 1_455 S
H1867 C1851 0.953 1_455 S
C1868 C1869 1.391 . S
C1868 C1870 1.394 . S
C1868 H1884 0.931 . S
C1869 C1868 1.391 . S
C1869 C1873 1.376 . S
C1870 C1868 1.394 . S
C1870 C1871 1.369 . S
C1870 C1874 1.531 . S
C1871 C1870 1.369 . S
C1871 C1872 1.410 . S
C1871 C1879 1.503 . S
C1872 C1871 1.410 . S
C1872 C1873 1.392 . S
C1872 C1875 1.511 . S
C1873 C1869 1.376 . S
C1873 C1872 1.392 . S
C1873 H1885 0.929 . S
C1874 C1870 1.531 . S
C1874 H1886 0.960 . S
C1874 H1887 0.962 . S
C1874 H1888 0.960 . S
C1875 C1872 1.511 . S
C1875 H1889 0.961 . S
C1875 H1890 0.961 . S
C1875 H1891 0.961 . S
C1876 C1877 1.370 . S
C1876 C1878 1.363 . S
C1876 H1892 0.931 . S
C1877 C1876 1.370 . S
C1877 C1881 1.408 . S
C1878 C1876 1.363 . S
C1878 C1879 1.370 . S
C1878 C1882 1.524 . S
C1879 C1871 1.503 . S
C1879 C1878 1.370 . S
C1879 C1880 1.403 . S
C1880 C1879 1.403 . S
C1880 C1881 1.404 . S
C1880 C1883 1.539 . S
C1881 C1877 1.408 . S
C1881 C1880 1.404 . S
C1881 H1893 0.930 . S
C1882 C1878 1.524 . S
C1882 H1894 0.956 . S
C1882 H1895 0.961 . S
C1882 H1896 0.961 . S
C1883 C1880 1.539 . S
C1883 H1897 0.958 . S
C1883 H1898 0.961 . S
C1883 H1899 0.960 . S
H1884 C1868 0.931 . S
H1885 C1873 0.929 . S
H1886 C1874 0.960 . S
H1887 C1874 0.962 . S
H1888 C1874 0.960 . S
H1889 C1875 0.961 . S
H1890 C1875 0.961 . S
H1891 C1875 0.961 . S
H1892 C1876 0.931 . S
H1893 C1881 0.930 . S
H1894 C1882 0.956 . S
H1895 C1882 0.961 . S
H1896 C1882 0.961 . S
H1897 C1883 0.958 . S
H1898 C1883 0.961 . S
H1899 C1883 0.960 . S
C1900 C1901 1.391 . S
C1900 C1902 1.394 . S
C1900 H1916 0.931 . S
C1901 C1900 1.391 . S
C1901 C1905 1.376 . S
C1902 C1900 1.394 . S
C1902 C1903 1.369 . S
C1902 C1906 1.531 . S
C1903 C1902 1.369 . S
C1903 C1904 1.410 . S
C1903 C1911 1.503 . S
C1904 C1903 1.410 . S
C1904 C1905 1.392 . S
C1904 C1907 1.511 1_455 S
C1905 C1901 1.376 . S
C1905 C1904 1.392 . S
C1905 H1917 0.929 1_455 S
C1906 C1902 1.531 . S
C1906 H1918 0.960 . S
C1906 H1919 0.962 . S
C1906 H1920 0.960 . S
C1907 C1904 1.511 1_655 S
C1907 H1921 0.961 . S
C1907 H1922 0.961 . S
C1907 H1923 0.961 . S
C1908 C1909 1.370 . S
C1908 C1910 1.363 . S
C1908 H1924 0.931 . S
C1909 C1908 1.370 . S
C1909 C1913 1.414 . S
C1910 C1908 1.363 . S
C1910 C1911 1.370 . S
C1910 C1914 1.524 . S
C1911 C1903 1.503 . S
C1911 C1910 1.370 . S
C1911 C1912 1.403 . S
C1912 C1911 1.403 . S
C1912 C1913 1.406 . S
C1912 C1915 1.539 1_455 S
C1913 C1909 1.414 . S
C1913 C1912 1.406 . S
C1913 H1925 0.923 1_455 S
C1914 C1910 1.524 . S
C1914 H1926 0.956 . S
C1914 H1927 0.961 . S
C1914 H1928 0.961 . S
C1915 C1912 1.539 1_655 S
C1915 H1929 0.968 . S
C1915 H1930 0.961 . S
C1915 H1931 0.960 . S
H1916 C1900 0.931 . S
H1917 C1905 0.929 1_655 S
H1918 C1906 0.960 . S
H1919 C1906 0.962 . S
H1920 C1906 0.960 . S
H1921 C1907 0.961 . S
H1922 C1907 0.961 . S
H1923 C1907 0.961 . S
H1924 C1908 0.931 . S
H1925 C1913 0.923 1_655 S
H1926 C1914 0.956 . S
H1927 C1914 0.961 . S
H1928 C1914 0.961 . S
H1929 C1915 0.968 . S
H1930 C1915 0.961 . S
H1931 C1915 0.960 . S
C1932 C1933 1.391 . S
C1932 C1934 1.394 . S
C1932 H1948 0.931 . S
C1933 C1932 1.391 . S
C1933 C1937 1.376 . S
C1934 C1932 1.394 . S
C1934 C1935 1.369 . S
C1934 C1938 1.531 . S
C1935 C1934 1.369 . S
C1935 C1936 1.410 . S
C1935 C1943 1.503 . S
C1936 C1935 1.410 . S
C1936 C1937 1.392 . S
C1936 C1939 1.511 . S
C1937 C1933 1.376 . S
C1937 C1936 1.392 . S
C1937 H1949 0.929 . S
C1938 C1934 1.531 . S
C1938 H1950 0.960 . S
C1938 H1951 0.962 . S
C1938 H1952 0.960 . S
C1939 C1936 1.511 . S
C1939 H1953 0.961 . S
C1939 H1954 0.961 . S
C1939 H1955 0.961 . S
C1940 C1941 1.370 . S
C1940 C1942 1.363 . S
C1940 H1956 0.931 . S
C1941 C1940 1.370 . S
C1941 C1945 1.408 . S
C1942 C1940 1.363 . S
C1942 C1943 1.370 . S
C1942 C1946 1.524 . S
C1943 C1935 1.503 . S
C1943 C1942 1.370 . S
C1943 C1944 1.403 . S
C1944 C1943 1.403 . S
C1944 C1945 1.404 . S
C1944 C1947 1.539 . S
C1945 C1941 1.408 . S
C1945 C1944 1.404 . S
C1945 H1957 0.930 . S
C1946 C1942 1.524 . S
C1946 H1958 0.956 . S
C1946 H1959 0.961 . S
C1946 H1960 0.961 . S
C1947 C1944 1.539 . S
C1947 H1961 0.958 . S
C1947 H1962 0.961 . S
C1947 H1963 0.960 . S
H1948 C1932 0.931 . S
H1949 C1937 0.929 . S
H1950 C1938 0.960 . S
H1951 C1938 0.962 . S
H1952 C1938 0.960 . S
H1953 C1939 0.961 . S
H1954 C1939 0.961 . S
H1955 C1939 0.961 . S
H1956 C1940 0.931 . S
H1957 C1945 0.930 . S
H1958 C1946 0.956 . S
H1959 C1946 0.961 . S
H1960 C1946 0.961 . S
H1961 C1947 0.958 . S
H1962 C1947 0.961 . S
H1963 C1947 0.960 . S
C1964 C1965 1.391 . S
C1964 C1966 1.394 . S
C1964 H1980 0.931 . S
C1965 C1964 1.391 . S
C1965 C1969 1.376 . S
C1966 C1964 1.394 . S
C1966 C1967 1.369 . S
C1966 C1970 1.531 . S
C1967 C1966 1.369 . S
C1967 C1968 1.410 . S
C1967 C1975 1.503 . S
C1968 C1967 1.410 . S
C1968 C1969 1.392 . S
C1968 C1971 1.511 . S
C1969 C1965 1.376 . S
C1969 C1968 1.392 . S
C1969 H1981 0.929 . S
C1970 C1966 1.531 . S
C1970 H1982 0.960 . S
C1970 H1983 0.962 . S
C1970 H1984 0.960 . S
C1971 C1968 1.511 . S
C1971 H1985 0.961 . S
C1971 H1986 0.961 . S
C1971 H1987 0.961 . S
C1972 C1973 1.370 . S
C1972 C1974 1.363 . S
C1972 H1988 0.931 . S
C1973 C1972 1.370 . S
C1973 C1977 1.408 . S
C1974 C1972 1.363 . S
C1974 C1975 1.370 . S
C1974 C1978 1.524 . S
C1975 C1967 1.503 . S
C1975 C1974 1.370 . S
C1975 C1976 1.403 . S
C1976 C1975 1.403 . S
C1976 C1977 1.404 . S
C1976 C1979 1.539 . S
C1977 C1973 1.408 . S
C1977 C1976 1.404 . S
C1977 H1989 0.930 . S
C1978 C1974 1.524 . S
C1978 H1990 0.956 . S
C1978 H1991 0.961 . S
C1978 H1992 0.961 . S
C1979 C1976 1.539 . S
C1979 H1993 0.958 . S
C1979 H1994 0.961 . S
C1979 H1995 0.960 . S
H1980 C1964 0.931 . S
H1981 C1969 0.929 . S
H1982 C1970 0.960 . S
H1983 C1970 0.962 . S
H1984 C1970 0.960 . S
H1985 C1971 0.961 . S
H1986 C1971 0.961 . S
H1987 C1971 0.961 . S
H1988 C1972 0.931 . S
H1989 C1977 0.930 . S
H1990 C1978 0.956 . S
H1991 C1978 0.961 . S
H1992 C1978 0.961 . S
H1993 C1979 0.958 . S
H1994 C1979 0.961 . S
H1995 C1979 0.960 . S
C1996 C1997 1.391 . S
C1996 C1998 1.394 . S
C1996 H2012 0.931 . S
C1997 C1996 1.391 . S
C1997 C2001 1.376 . S
C1998 C1996 1.394 . S
C1998 C1999 1.369 . S
C1998 C2002 1.531 . S
C1999 C1998 1.369 . S
C1999 C2000 1.410 . S
C1999 C2007 1.503 . S
C2000 C1999 1.410 . S
C2000 C2001 1.392 . S
C2000 C2003 1.511 . S
C2001 C1997 1.376 . S
C2001 C2000 1.392 . S
C2001 H2013 0.929 . S
C2002 C1998 1.531 . S
C2002 H2014 0.960 . S
C2002 H2015 0.962 . S
C2002 H2016 0.960 . S
C2003 C2000 1.511 . S
C2003 H2017 0.961 . S
C2003 H2018 0.961 . S
C2003 H2019 0.961 . S
C2004 C2005 1.370 . S
C2004 C2006 1.363 . S
C2004 H2020 0.931 . S
C2005 C2004 1.370 . S
C2005 C2009 1.408 . S
C2006 C2004 1.363 . S
C2006 C2007 1.370 . S
C2006 C2010 1.524 . S
C2007 C1999 1.503 . S
C2007 C2006 1.370 . S
C2007 C2008 1.403 . S
C2008 C2007 1.403 . S
C2008 C2009 1.404 . S
C2008 C2011 1.539 . S
C2009 C2005 1.408 . S
C2009 C2008 1.404 . S
C2009 H2021 0.930 . S
C2010 C2006 1.524 . S
C2010 H2022 0.956 . S
C2010 H2023 0.961 . S
C2010 H2024 0.961 . S
C2011 C2008 1.539 . S
C2011 H2025 0.958 . S
C2011 H2026 0.961 . S
C2011 H2027 0.960 . S
H2012 C1996 0.931 . S
H2013 C2001 0.929 . S
H2014 C2002 0.960 . S
H2015 C2002 0.962 . S
H2016 C2002 0.960 . S
H2017 C2003 0.961 . S
H2018 C2003 0.961 . S
H2019 C2003 0.961 . S
H2020 C2004 0.931 . S
H2021 C2009 0.930 . S
H2022 C2010 0.956 . S
H2023 C2010 0.961 . S
H2024 C2010 0.961 . S
H2025 C2011 0.958 . S
H2026 C2011 0.961 . S
H2027 C2011 0.960 . S
C2028 C2029 1.391 . S
C2028 C2030 1.394 . S
C2028 H2044 0.931 . S
C2029 C2028 1.391 . S
C2029 C2033 1.376 . S
C2030 C2028 1.394 . S
C2030 C2031 1.369 . S
C2030 C2034 1.531 . S
C2031 C2030 1.369 . S
C2031 C2032 1.410 . S
C2031 C2039 1.503 . S
C2032 C2031 1.410 . S
C2032 C2033 1.392 . S
C2032 C2035 1.511 . S
C2033 C2029 1.376 . S
C2033 C2032 1.392 . S
C2033 H2045 0.929 . S
C2034 C2030 1.531 . S
C2034 H2046 0.960 . S
C2034 H2047 0.962 . S
C2034 H2048 0.960 . S
C2035 C2032 1.511 . S
C2035 H2049 0.961 . S
C2035 H2050 0.961 . S
C2035 H2051 0.961 . S
C2036 C2037 1.370 . S
C2036 C2038 1.363 . S
C2036 H2052 0.931 . S
C2037 C2036 1.370 . S
C2037 C2041 1.408 . S
C2038 C2036 1.363 . S
C2038 C2039 1.370 . S
C2038 C2042 1.524 . S
C2039 C2031 1.503 . S
C2039 C2038 1.370 . S
C2039 C2040 1.403 . S
C2040 C2039 1.403 . S
C2040 C2041 1.404 . S
C2040 C2043 1.539 . S
C2041 C2037 1.408 . S
C2041 C2040 1.404 . S
C2041 H2053 0.930 . S
C2042 C2038 1.524 . S
C2042 H2054 0.956 . S
C2042 H2055 0.961 . S
C2042 H2056 0.961 . S
C2043 C2040 1.539 . S
C2043 H2057 0.958 . S
C2043 H2058 0.961 . S
C2043 H2059 0.960 . S
H2044 C2028 0.931 . S
H2045 C2033 0.929 . S
H2046 C2034 0.960 . S
H2047 C2034 0.962 . S
H2048 C2034 0.960 . S
H2049 C2035 0.961 . S
H2050 C2035 0.961 . S
H2051 C2035 0.961 . S
H2052 C2036 0.931 . S
H2053 C2041 0.930 . S
H2054 C2042 0.956 . S
H2055 C2042 0.961 . S
H2056 C2042 0.961 . S
H2057 C2043 0.958 . S
H2058 C2043 0.961 . S
H2059 C2043 0.960 . S
C2060 C2061 1.391 . S
C2060 C2062 1.394 . S
C2060 H2076 0.931 . S
C2061 C2060 1.391 . S
C2061 C2065 1.376 . S
C2062 C2060 1.394 . S
C2062 C2063 1.369 . S
C2062 C2066 1.531 . S
C2063 C2062 1.369 . S
C2063 C2064 1.410 . S
C2063 C2071 1.503 . S
C2064 C2063 1.410 . S
C2064 C2065 1.392 . S
C2064 C2067 1.511 . S
C2065 C2061 1.376 . S
C2065 C2064 1.392 . S
C2065 H2077 0.929 . S
C2066 C2062 1.531 . S
C2066 H2078 0.960 . S
C2066 H2079 0.962 . S
C2066 H2080 0.960 . S
C2067 C2064 1.511 . S
C2067 H2081 0.961 . S
C2067 H2082 0.961 . S
C2067 H2083 0.961 . S
C2068 C2069 1.370 . S
C2068 C2070 1.363 . S
C2068 H2084 0.931 . S
C2069 C2068 1.370 . S
C2069 C2073 1.408 . S
C2070 C2068 1.363 . S
C2070 C2071 1.370 . S
C2070 C2074 1.524 . S
C2071 C2063 1.503 . S
C2071 C2070 1.370 . S
C2071 C2072 1.403 . S
C2072 C2071 1.403 . S
C2072 C2073 1.404 . S
C2072 C2075 1.539 . S
C2073 C2069 1.408 . S
C2073 C2072 1.404 . S
C2073 H2085 0.930 . S
C2074 C2070 1.524 . S
C2074 H2086 0.956 . S
C2074 H2087 0.961 . S
C2074 H2088 0.961 . S
C2075 C2072 1.539 . S
C2075 H2089 0.958 . S
C2075 H2090 0.961 . S
C2075 H2091 0.960 . S
H2076 C2060 0.931 . S
H2077 C2065 0.929 . S
H2078 C2066 0.960 . S
H2079 C2066 0.962 . S
H2080 C2066 0.960 . S
H2081 C2067 0.961 . S
H2082 C2067 0.961 . S
H2083 C2067 0.961 . S
H2084 C2068 0.931 . S
H2085 C2073 0.930 . S
H2086 C2074 0.956 . S
H2087 C2074 0.961 . S
H2088 C2074 0.961 . S
H2089 C2075 0.958 . S
H2090 C2075 0.961 . S
H2091 C2075 0.960 . S
C2092 C2093 1.391 . S
C2092 C2094 1.394 . S
C2092 H2108 0.931 . S
C2093 C2092 1.391 . S
C2093 C2097 1.376 . S
C2094 C2092 1.394 . S
C2094 C2095 1.369 . S
C2094 C2098 1.531 . S
C2095 C2094 1.369 . S
C2095 C2096 1.410 . S
C2095 C2103 1.503 . S
C2096 C2095 1.410 . S
C2096 C2097 1.392 . S
C2096 C2099 1.511 . S
C2097 C2093 1.376 . S
C2097 C2096 1.392 . S
C2097 H2109 0.929 . S
C2098 C2094 1.531 . S
C2098 H2110 0.960 . S
C2098 H2111 0.962 . S
C2098 H2112 0.960 . S
C2099 C2096 1.511 . S
C2099 H2113 0.961 . S
C2099 H2114 0.961 . S
C2099 H2115 0.961 . S
C2100 C2101 1.370 . S
C2100 C2102 1.363 . S
C2100 H2116 0.931 . S
C2101 C2100 1.370 . S
C2101 C2105 1.408 . S
C2102 C2100 1.363 . S
C2102 C2103 1.370 . S
C2102 C2106 1.524 . S
C2103 C2095 1.503 . S
C2103 C2102 1.370 . S
C2103 C2104 1.403 . S
C2104 C2103 1.403 . S
C2104 C2105 1.404 . S
C2104 C2107 1.539 . S
C2105 C2101 1.408 . S
C2105 C2104 1.404 . S
C2105 H2117 0.930 . S
C2106 C2102 1.524 . S
C2106 H2118 0.956 . S
C2106 H2119 0.961 . S
C2106 H2120 0.961 . S
C2107 C2104 1.539 . S
C2107 H2121 0.958 . S
C2107 H2122 0.961 . S
C2107 H2123 0.960 . S
H2108 C2092 0.931 . S
H2109 C2097 0.929 . S
H2110 C2098 0.960 . S
H2111 C2098 0.962 . S
H2112 C2098 0.960 . S
H2113 C2099 0.961 . S
H2114 C2099 0.961 . S
H2115 C2099 0.961 . S
H2116 C2100 0.931 . S
H2117 C2105 0.930 . S
H2118 C2106 0.956 . S
H2119 C2106 0.961 . S
H2120 C2106 0.961 . S
H2121 C2107 0.958 . S
H2122 C2107 0.961 . S
H2123 C2107 0.960 . S
C2124 C2125 1.391 . S
C2124 C2126 1.394 . S
C2124 H2140 0.931 . S
C2125 C2124 1.391 . S
C2125 C2129 1.376 . S
C2126 C2124 1.394 . S
C2126 C2127 1.369 . S
C2126 C2130 1.531 . S
C2127 C2126 1.369 . S
C2127 C2128 1.410 . S
C2127 C2135 1.503 . S
C2128 C2127 1.410 . S
C2128 C2129 1.392 . S
C2128 C2131 1.511 . S
C2129 C2125 1.376 . S
C2129 C2128 1.392 . S
C2129 H2141 0.929 . S
C2130 C2126 1.531 . S
C2130 H2142 0.960 . S
C2130 H2143 0.962 . S
C2130 H2144 0.960 . S
C2131 C2128 1.511 . S
C2131 H2145 0.961 . S
C2131 H2146 0.961 . S
C2131 H2147 0.961 . S
C2132 C2133 1.370 . S
C2132 C2134 1.363 . S
C2132 H2148 0.931 . S
C2133 C2132 1.370 . S
C2133 C2137 1.408 . S
C2134 C2132 1.363 . S
C2134 C2135 1.370 . S
C2134 C2138 1.524 . S
C2135 C2127 1.503 . S
C2135 C2134 1.370 . S
C2135 C2136 1.403 . S
C2136 C2135 1.403 . S
C2136 C2137 1.404 . S
C2136 C2139 1.539 . S
C2137 C2133 1.408 . S
C2137 C2136 1.404 . S
C2137 H2149 0.930 . S
C2138 C2134 1.524 . S
C2138 H2150 0.956 . S
C2138 H2151 0.961 . S
C2138 H2152 0.961 . S
C2139 C2136 1.539 . S
C2139 H2153 0.958 . S
C2139 H2154 0.961 . S
C2139 H2155 0.960 . S
H2140 C2124 0.931 . S
H2141 C2129 0.929 . S
H2142 C2130 0.960 . S
H2143 C2130 0.962 . S
H2144 C2130 0.960 . S
H2145 C2131 0.961 . S
H2146 C2131 0.961 . S
H2147 C2131 0.961 . S
H2148 C2132 0.931 . S
H2149 C2137 0.930 . S
H2150 C2138 0.956 . S
H2151 C2138 0.961 . S
H2152 C2138 0.961 . S
H2153 C2139 0.958 . S
H2154 C2139 0.961 . S
H2155 C2139 0.960 . S
C2156 C2157 1.391 . S
C2156 C2158 1.394 . S
C2156 H2172 0.931 . S
C2157 C2156 1.391 . S
C2157 C2161 1.376 . S
C2158 C2156 1.394 . S
C2158 C2159 1.369 . S
C2158 C2162 1.531 . S
C2159 C2158 1.369 . S
C2159 C2160 1.410 . S
C2159 C2167 1.503 . S
C2160 C2159 1.410 . S
C2160 C2161 1.392 . S
C2160 C2163 1.511 . S
C2161 C2157 1.376 . S
C2161 C2160 1.392 . S
C2161 H2173 0.929 . S
C2162 C2158 1.531 . S
C2162 H2174 0.960 . S
C2162 H2175 0.962 . S
C2162 H2176 0.960 . S
C2163 C2160 1.511 . S
C2163 H2177 0.961 . S
C2163 H2178 0.961 . S
C2163 H2179 0.961 . S
C2164 C2165 1.370 . S
C2164 C2166 1.363 . S
C2164 H2180 0.931 . S
C2165 C2164 1.370 . S
C2165 C2169 1.408 . S
C2166 C2164 1.363 . S
C2166 C2167 1.370 . S
C2166 C2170 1.524 . S
C2167 C2159 1.503 . S
C2167 C2166 1.370 . S
C2167 C2168 1.403 . S
C2168 C2167 1.403 . S
C2168 C2169 1.404 . S
C2168 C2171 1.539 . S
C2169 C2165 1.408 . S
C2169 C2168 1.404 . S
C2169 H2181 0.930 . S
C2170 C2166 1.524 . S
C2170 H2182 0.956 . S
C2170 H2183 0.961 . S
C2170 H2184 0.961 . S
C2171 C2168 1.539 . S
C2171 H2185 0.958 . S
C2171 H2186 0.961 . S
C2171 H2187 0.960 . S
H2172 C2156 0.931 . S
H2173 C2161 0.929 . S
H2174 C2162 0.960 . S
H2175 C2162 0.962 . S
H2176 C2162 0.960 . S
H2177 C2163 0.961 . S
H2178 C2163 0.961 . S
H2179 C2163 0.961 . S
H2180 C2164 0.931 . S
H2181 C2169 0.930 . S
H2182 C2170 0.956 . S
H2183 C2170 0.961 . S
H2184 C2170 0.961 . S
H2185 C2171 0.958 . S
H2186 C2171 0.961 . S
H2187 C2171 0.960 . S
C2188 C2189 1.391 . S
C2188 C2190 1.394 . S
C2188 H2204 0.931 1_556 S
C2189 C2188 1.391 . S
C2189 C2193 1.376 . S
C2190 C2188 1.394 . S
C2190 C2191 1.369 . S
C2190 C2194 1.531 1_556 S
C2191 C2190 1.369 . S
C2191 C2192 1.410 . S
C2191 C2199 1.503 . S
C2192 C2191 1.410 . S
C2192 C2193 1.392 . S
C2192 C2195 1.511 . S
C2193 C2189 1.376 . S
C2193 C2192 1.392 . S
C2193 H2205 0.929 . S
C2194 C2190 1.531 1_554 S
C2194 H2206 0.960 . S
C2194 H2207 0.962 . S
C2194 H2208 0.960 . S
C2195 C2192 1.511 . S
C2195 H2209 0.961 . S
C2195 H2210 0.961 . S
C2195 H2211 0.961 . S
C2196 C2197 1.370 . S
C2196 C2198 1.363 . S
C2196 H2212 0.931 . S
C2197 C2196 1.370 . S
C2197 C2201 1.408 . S
C2198 C2196 1.363 . S
C2198 C2199 1.370 . S
C2198 C2202 1.524 . S
C2199 C2191 1.503 . S
C2199 C2198 1.370 . S
C2199 C2200 1.403 . S
C2200 C2199 1.403 . S
C2200 C2201 1.404 . S
C2200 C2203 1.539 . S
C2201 C2197 1.408 . S
C2201 C2200 1.404 . S
C2201 H2213 0.930 . S
C2202 C2198 1.524 . S
C2202 H2214 0.956 . S
C2202 H2215 0.961 . S
C2202 H2216 0.961 . S
C2203 C2200 1.539 . S
C2203 H2217 0.958 1_556 S
C2203 H2218 0.961 . S
C2203 H2219 0.960 . S
H2204 C2188 0.931 1_554 S
H2205 C2193 0.929 . S
H2206 C2194 0.960 . S
H2207 C2194 0.962 . S
H2208 C2194 0.960 . S
H2209 C2195 0.961 . S
H2210 C2195 0.961 . S
H2211 C2195 0.961 . S
H2212 C2196 0.931 . S
H2213 C2201 0.930 . S
H2214 C2202 0.956 . S
H2215 C2202 0.961 . S
H2216 C2202 0.961 . S
H2217 C2203 0.958 1_554 S
H2218 C2203 0.961 . S
H2219 C2203 0.960 . S
C2220 C2221 1.391 . S
C2220 C2222 1.394 . S
C2220 H2236 0.931 . S
C2221 C2220 1.391 . S
C2221 C2225 1.376 . S
C2222 C2220 1.394 . S
C2222 C2223 1.369 . S
C2222 C2226 1.531 . S
C2223 C2222 1.369 . S
C2223 C2224 1.410 . S
C2223 C2231 1.503 . S
C2224 C2223 1.410 . S
C2224 C2225 1.392 . S
C2224 C2227 1.511 . S
C2225 C2221 1.376 . S
C2225 C2224 1.392 . S
C2225 H2237 0.929 . S
C2226 C2222 1.531 . S
C2226 H2238 0.960 . S
C2226 H2239 0.962 . S
C2226 H2240 0.960 . S
C2227 C2224 1.511 . S
C2227 H2241 0.961 . S
C2227 H2242 0.961 . S
C2227 H2243 0.961 . S
C2228 C2229 1.370 . S
C2228 C2230 1.363 . S
C2228 H2244 0.931 . S
C2229 C2228 1.370 . S
C2229 C2233 1.408 . S
C2230 C2228 1.363 . S
C2230 C2231 1.370 . S
C2230 C2234 1.524 . S
C2231 C2223 1.503 . S
C2231 C2230 1.370 . S
C2231 C2232 1.403 . S
C2232 C2231 1.403 . S
C2232 C2233 1.404 . S
C2232 C2235 1.539 . S
C2233 C2229 1.408 . S
C2233 C2232 1.404 . S
C2233 H2245 0.930 . S
C2234 C2230 1.524 . S
C2234 H2246 0.956 . S
C2234 H2247 0.961 . S
C2234 H2248 0.961 . S
C2235 C2232 1.539 . S
C2235 H2249 0.958 . S
C2235 H2250 0.961 . S
C2235 H2251 0.960 . S
H2236 C2220 0.931 . S
H2237 C2225 0.929 . S
H2238 C2226 0.960 . S
H2239 C2226 0.962 . S
H2240 C2226 0.960 . S
H2241 C2227 0.961 . S
H2242 C2227 0.961 . S
H2243 C2227 0.961 . S
H2244 C2228 0.931 . S
H2245 C2233 0.930 . S
H2246 C2234 0.956 . S
H2247 C2234 0.961 . S
H2248 C2234 0.961 . S
H2249 C2235 0.958 . S
H2250 C2235 0.961 . S
H2251 C2235 0.960 . S
C2252 C2253 1.391 . S
C2252 C2254 1.394 . S
C2252 H2268 0.931 . S
C2253 C2252 1.391 . S
C2253 C2257 1.376 . S
C2254 C2252 1.394 . S
C2254 C2255 1.369 . S
C2254 C2258 1.531 1_554 S
C2255 C2254 1.369 . S
C2255 C2256 1.410 . S
C2255 C2263 1.503 . S
C2256 C2255 1.410 . S
C2256 C2257 1.392 . S
C2256 C2259 1.511 . S
C2257 C2253 1.376 . S
C2257 C2256 1.392 . S
C2257 H2269 0.929 . S
C2258 C2254 1.531 1_556 S
C2258 H2270 0.960 1_556 S
C2258 H2271 0.962 . S
C2258 H2272 0.960 . S
C2259 C2256 1.511 . S
C2259 H2273 0.961 . S
C2259 H2274 0.961 . S
C2259 H2275 0.961 . S
C2260 C2261 1.370 1_556 S
C2260 C2262 1.358 1_556 S
C2260 H2276 0.931 . S
C2261 C2260 1.370 1_554 S
C2261 C2265 1.408 . S
C2262 C2260 1.358 1_554 S
C2262 C2263 1.394 . S
C2262 C2266 1.506 1_554 S
C2263 C2255 1.503 . S
C2263 C2262 1.394 . S
C2263 C2264 1.403 . S
C2264 C2263 1.403 . S
C2264 C2265 1.404 . S
C2264 C2267 1.539 . S
C2265 C2261 1.408 . S
C2265 C2264 1.404 . S
C2265 H2277 0.930 . S
C2266 C2262 1.506 1_556 S
C2266 H2278 0.956 . S
C2266 H2279 0.961 . S
C2266 H2280 0.961 . S
C2267 C2264 1.539 . S
C2267 H2281 0.958 . S
C2267 H2282 0.961 . S
C2267 H2283 0.960 . S
H2268 C2252 0.931 . S
H2269 C2257 0.929 . S
H2270 C2258 0.960 1_554 S
H2271 C2258 0.962 . S
H2272 C2258 0.960 . S
H2273 C2259 0.961 . S
H2274 C2259 0.961 . S
H2275 C2259 0.961 . S
H2276 C2260 0.931 . S
H2277 C2265 0.930 . S
H2278 C2266 0.956 . S
H2279 C2266 0.961 . S
H2280 C2266 0.961 . S
H2281 C2267 0.958 . S
H2282 C2267 0.961 . S
H2283 C2267 0.960 . S
C2284 C2285 1.391 . S
C2284 C2286 1.394 . S
C2284 H2300 0.931 . S
C2285 C2284 1.391 . S
C2285 C2289 1.376 . S
C2286 C2284 1.394 . S
C2286 C2287 1.369 . S
C2286 C2290 1.531 . S
C2287 C2286 1.369 . S
C2287 C2288 1.410 . S
C2287 C2295 1.503 . S
C2288 C2287 1.410 . S
C2288 C2289 1.392 . S
C2288 C2291 1.511 1_554 S
C2289 C2285 1.376 . S
C2289 C2288 1.392 . S
C2289 H2301 0.929 . S
C2290 C2286 1.531 . S
C2290 H2302 0.960 . S
C2290 H2303 0.962 . S
C2290 H2304 0.960 . S
C2291 C2288 1.511 1_556 S
C2291 H2305 0.961 . S
C2291 H2306 0.961 . S
C2291 H2307 0.961 . S
C2292 C2293 1.370 . S
C2292 C2294 1.363 . S
C2292 H2308 0.931 . S
C2293 C2292 1.370 . S
C2293 C2297 1.408 . S
C2294 C2292 1.363 . S
C2294 C2295 1.370 . S
C2294 C2298 1.524 . S
C2295 C2287 1.503 . S
C2295 C2294 1.370 . S
C2295 C2296 1.403 . S
C2296 C2295 1.403 . S
C2296 C2297 1.404 . S
C2296 C2299 1.539 . S
C2297 C2293 1.408 . S
C2297 C2296 1.404 . S
C2297 H2309 0.930 . S
C2298 C2294 1.524 . S
C2298 H2310 0.956 . S
C2298 H2311 0.936 1_554 S
C2298 H2312 0.987 . S
C2299 C2296 1.539 . S
C2299 H2313 0.958 . S
C2299 H2314 0.961 . S
C2299 H2315 0.960 . S
H2300 C2284 0.931 . S
H2301 C2289 0.929 . S
H2302 C2290 0.960 . S
H2303 C2290 0.962 . S
H2304 C2290 0.960 . S
H2305 C2291 0.961 . S
H2306 C2291 0.961 . S
H2307 C2291 0.961 . S
H2308 C2292 0.931 . S
H2309 C2297 0.930 . S
H2310 C2298 0.956 . S
H2311 C2298 0.936 1_556 S
H2312 C2298 0.987 . S
H2313 C2299 0.958 . S
H2314 C2299 0.961 . S
H2315 C2299 0.960 . S
C789 C634 1.409 . S
C781 C211 1.414 . S
C821 C647 1.593 . S
C813 C255 1.608 . S
C845 C274 1.449 . S
C853 C660 1.449 . S
C885 C673 1.530 . S
C877 C157 1.535 . S
C917 C681 1.468 . S
C909 C391 1.500 . S
C949 C694 1.421 . S
C941 C484 1.429 . S
C973 C450 1.513 . S
C981 C707 1.489 . S
C1013 C720 1.494 . S
C1005 C352 1.517 . S
C1037 C430 1.431 . S
C1045 C738 1.421 . S
C1077 C749 1.529 . S
C1069 C367 1.547 . S
C1101 C411 1.468 . S
C1109 C733 1.450 . S
C1141 C741 1.466 . S
C1133 C469 1.480 . S
C1165 C294 1.493 . S
C1173 C764 1.479 . S
C1197 C177 1.515 . S
C1205 C754 1.499 . S
C1229 C196 1.503 . S
C1237 C759 1.490 . S
C1261 C235 1.561 . S
C1269 C762 1.542 1_655 S
C1293 C133 1.440 . S
C1301 C671 1.432 . S
C1325 C567 1.416 . S
C1333 C663 1.396 . S
C1365 C632 1.546 . S
C1357 C601 1.567 . S
C1397 C637 1.502 . S
C1389 C328 1.511 . S
C1421 C172 1.535 . S
C1429 C684 1.512 . S
C1461 C723 1.516 . S
C1453 C445 1.527 . S
C1493 C676 1.508 . S
C1485 C372 1.518 . S
C1525 C702 1.441 . S
C1517 C489 1.463 . S
C1557 C712 1.406 . S
C1549 C562 1.409 . S
C1581 C606 1.604 . S
C1589 C725 1.602 . S
C1613 C313 1.453 . S
C1621 C686 1.437 . S
C1653 C699 1.529 . S
C1645 C508 1.535 . S
C1677 C118 1.501 . S
C1685 C655 1.462 . S
C1717 C668 1.421 . S
C1709 C16 1.429 . S
C1749 C629 1.482 . S
C1741 C60 1.516 . S
C1781 C642 1.493 . S
C1773 C79 1.514 . S
C1805 C40 1.434 . S
C1813 C751 1.430 . S
C1837 C94 1.551 . S
C1845 C736 1.505 1_655 S
C1869 C138 1.472 . S
C1877 C746 1.439 . S
C1901 C1 1.482 . S
C1909 C728 1.447 . S
C1941 C777 1.490 . S
C1933 C333 1.487 . S
C1973 C767 1.487 . S
C1965 C528 1.512 . S
C2005 C772 1.476 . S
C1997 C547 1.505 . S
C2029 C586 1.569 . S
C2037 C775 1.526 . S
C2061 C406 1.453 . S
C2069 C697 1.421 . S
C2101 C689 1.392 . S
C2093 C216 1.413 . S
C2133 C710 1.537 . S
C2125 C250 1.570 . S
C2165 C715 1.497 . S
C2157 C289 1.516 . S
C2189 C523 1.534 . S
C2197 C658 1.519 . S
C2229 C645 1.508 . S
C2221 C55 1.531 . S
C2253 C99 1.518 . S
C2261 C650 1.508 . S
C2293 C624 1.433 . S
C2285 C21 1.464 . S
