# Generated by pormake.
# Topology tsx, (6,3)-cn, num edge types: 1
# Building blocks:
#     Node 0, Type 0, BuildingBlock: MIDCAF_clean_sbu_0, # of connection points: 6
#     Node 1, Type 0, BuildingBlock: MIDCAF_clean_sbu_0, # of connection points: 6
#     Node 2, Type 1, BuildingBlock: INOVEN_clean_linker_0, # of connection points: 3
#     Node 3, Type 1, BuildingBlock: INOVEN_clean_linker_0, # of connection points: 3
#     Node 4, Type 1, BuildingBlock: INOVEN_clean_linker_0, # of connection points: 3
#     Node 5, Type 1, BuildingBlock: INOVEN_clean_linker_0, # of connection points: 3
#     Edge 6, Type (0, 1), BuildingBlock: CIFDUS_clean_linker_0, # of connection points: 2
#     Edge 7, Type (0, 1), BuildingBlock: CIFDUS_clean_linker_0, # of connection points: 2
#     Edge 8, Type (0, 1), BuildingBlock: CIFDUS_clean_linker_0, # of connection points: 2
#     Edge 9, Type (0, 1), BuildingBlock: CIFDUS_clean_linker_0, # of connection points: 2
#     Edge 10, Type (0, 1), BuildingBlock: CIFDUS_clean_linker_0, # of connection points: 2
#     Edge 11, Type (0, 1), BuildingBlock: CIFDUS_clean_linker_0, # of connection points: 2
#     Edge 12, Type (0, 1), BuildingBlock: CIFDUS_clean_linker_0, # of connection points: 2
#     Edge 13, Type (0, 1), BuildingBlock: CIFDUS_clean_linker_0, # of connection points: 2
#     Edge 14, Type (0, 1), BuildingBlock: CIFDUS_clean_linker_0, # of connection points: 2
#     Edge 15, Type (0, 1), BuildingBlock: CIFDUS_clean_linker_0, # of connection points: 2
#     Edge 16, Type (0, 1), BuildingBlock: CIFDUS_clean_linker_0, # of connection points: 2
#     Edge 17, Type (0, 1), BuildingBlock: CIFDUS_clean_linker_0, # of connection points: 2
# Relax obj value: 0.075
# Max RMSD: 0.147
# Mean RMSD: 0.103
data_MOF--net-tsx--node1-MIDCAF_clean_sbu_0--node2-INOVEN_clean_linker_0--edge1-CIFDUS_clean_linker_0
_symmetry_space_group_name_H-M    P1
_symmetry_Int_Tables_number       1
_symmetry_cell_setting            triclinic
loop_
_symmetry_equiv_pos_as_xyz
'x, y, z'
_cell_length_a     17.396942
_cell_length_b     18.813084
_cell_length_c     31.073517
_cell_angle_alpha  90.528765
_cell_angle_beta   104.14453
_cell_angle_gamma 89.614959
loop_
_atom_site_label
_atom_site_type_symbol
_atom_site_fract_x
_atom_site_fract_y
_atom_site_fract_z
_atom_type_partial_charge
Zn0 Zn 0.8889 -0.00926 0.95096 0.0
Zn1 Zn 0.1446 0.95973 0.04172 0.0
Zn2 Zn 0.01892 0.9822 0.99483 0.0
C3 C 0.14866 0.0951 0.00861 0.0
C4 C 0.13615 0.86267 0.97844 0.0
O5 O 0.93949 0.9156 0.02424 0.0
O6 O 0.84753 0.8965 0.96276 0.0
C7 C 0.92145 0.11797 0.99433 0.0
O8 O 0.07403 0.08807 0.00561 0.0
O9 O 0.19384 0.04166 0.01781 0.0
O10 O 0.16167 0.86311 0.0201 0.0
O11 O 0.08712 0.91141 0.95982 0.0
O12 O 0.86444 0.07477 0.98481 0.0
O13 O 0.99116 0.09653 0.99286 0.0
O14 O 0.02413 0.94234 0.92915 0.0
O15 O 0.92183 0.00675 0.89457 0.0
C16 C 0.98247 0.97036 0.89337 0.0
O17 O 0.99792 0.9428 0.05736 0.0
O18 O 0.1157 0.97073 0.09928 0.0
C19 C 0.87852 0.88044 0.0026 0.0
C20 C 0.04459 0.9534 0.09592 0.0
Zn21 Zn 0.72336 0.52977 0.54937 0.0
Zn22 Zn 0.46771 0.52231 0.46561 0.0
Zn23 Zn 0.59379 0.5264 0.50838 0.0
C24 C 0.56058 0.51136 0.40816 0.0
C25 C 0.47305 0.64907 0.50451 0.0
O26 O 0.58622 0.48724 0.57336 0.0
O27 O 0.69632 0.54121 0.60754 0.0
C28 C 0.72947 0.42128 0.49486 0.0
O29 O 0.60395 0.4848 0.444 0.0
O30 O 0.49804 0.5448 0.40936 0.0
O31 O 0.42385 0.59881 0.49764 0.0
O32 O 0.54478 0.6365 0.50215 0.0
O33 O 0.76248 0.43663 0.53464 0.0
O34 O 0.66788 0.45729 0.47474 0.0
O35 O 0.62725 0.63918 0.51364 0.0
O36 O 0.75326 0.61514 0.51993 0.0
C37 C 0.69715 0.65972 0.51272 0.0
O38 O 0.52708 0.45428 0.54179 0.0
O39 O 0.44747 0.42233 0.47839 0.0
C40 C 0.63287 0.51056 0.6094 0.0
C41 C 0.47524 0.41094 0.51921 0.0
H42 H 0.18 0.02429 0.47358 0.0
H43 H 0.20499 0.90861 0.35801 0.0
H44 H 0.99461 0.03276 0.35307 0.0
N45 N 0.04254 0.08496 0.43671 0.0
N46 N 0.98025 0.11524 0.41649 0.0
C47 C 0.15686 0.00874 0.4392 0.0
C48 C 0.2012 0.96333 0.41838 0.0
C49 C 0.08324 0.03537 0.41547 0.0
C50 C 0.05225 0.01369 0.3711 0.0
C51 C 0.09531 0.96703 0.35015 0.0
C52 C 0.17028 0.94343 0.37397 0.0
H53 H 0.02552 0.01835 0.52387 0.0
H54 H 0.94079 0.94817 0.63539 0.0
H55 H 0.13781 0.09143 0.65563 0.0
N56 N 0.14033 0.09813 0.56877 0.0
N57 N 0.1988 0.13029 0.59169 0.0
C58 C 0.02902 0.01863 0.55919 0.0
C59 C 0.97532 0.97874 0.57601 0.0
C60 C 0.08795 0.0587 0.58761 0.0
C61 C 0.0928 0.05995 0.63345 0.0
C62 C 0.03954 0.02012 0.65072 0.0
C63 C 0.98124 0.97962 0.62189 0.0
H64 H 0.58126 0.47255 0.98105 0.0
H65 H 0.71519 0.42982 0.88402 0.0
H66 H 0.50824 0.56258 0.85061 0.0
N67 N 0.47218 0.55222 0.93038 0.0
N68 N 0.425 0.59361 0.9059 0.0
C69 C 0.59105 0.47951 0.94825 0.0
C70 C 0.65663 0.44728 0.93697 0.0
C71 C 0.53724 0.52069 0.91732 0.0
C72 C 0.54918 0.53034 0.8746 0.0
C73 C 0.61446 0.49873 0.86291 0.0
C74 C 0.66736 0.45722 0.8941 0.0
H75 H 0.44068 0.46757 0.02586 0.0
H76 H 0.41264 0.38292 0.14918 0.0
H77 H 0.61223 0.51505 0.14796 0.0
N78 N 0.56919 0.54419 0.06056 0.0
N79 N 0.63023 0.57705 0.07983 0.0
C80 C 0.46151 0.46202 0.06147 0.0
C81 C 0.41836 0.42101 0.08495 0.0
C82 C 0.53067 0.49735 0.08413 0.0
C83 C 0.55837 0.48879 0.13031 0.0
C84 C 0.51638 0.44736 0.15405 0.0
C85 C 0.44624 0.41416 0.13107 0.0
H86 H 0.12392 0.22143 0.04644 0.0
H87 H 0.25851 0.12132 0.96305 0.0
H88 H 0.34723 0.22328 0.97235 0.0
H89 H 0.40161 0.32865 0.01607 0.0
H90 H 0.27391 0.42433 0.10444 0.0
H91 H 0.16714 0.33787 0.08101 0.0
C92 C 0.17097 0.22341 0.02911 0.0
C93 C 0.18522 0.16421 0.00434 0.0
C94 C 0.224 0.28101 0.03624 0.0
C95 C 0.24693 0.16651 0.98246 0.0
C96 C 0.29793 0.22455 0.98797 0.0
C97 C 0.34911 0.33188 0.02899 0.0
C98 C 0.34586 0.38193 0.06224 0.0
C99 C 0.28945 0.2804 0.01658 0.0
C100 C 0.27787 0.38549 0.07909 0.0
C101 C 0.21701 0.33594 0.06585 0.0
H102 H 0.1919 0.73284 0.00496 0.0
H103 H 0.16082 0.87767 0.89535 0.0
H104 H 0.24109 0.80003 0.85978 0.0
H105 H 0.33564 0.69913 0.86563 0.0
H106 H 0.37315 0.56122 0.97888 0.0
H107 H 0.27567 0.6278 0.0076 0.0
C108 C 0.20157 0.74675 0.97288 0.0
C109 C 0.17023 0.81052 0.95257 0.0
C110 C 0.25032 0.70361 0.95382 0.0
C111 C 0.18282 0.82797 0.91103 0.0
C112 C 0.2298 0.78415 0.8911 0.0
C113 C 0.32114 0.68344 0.89619 0.0
C114 C 0.36196 0.62635 0.92038 0.0
C115 C 0.26605 0.72309 0.91298 0.0
C116 C 0.34323 0.60567 0.95997 0.0
C117 C 0.28741 0.64366 0.97637 0.0
H118 H 0.74961 0.8014 0.96472 0.0
H119 H 0.92824 0.82862 0.08738 0.0
H120 H 0.86751 0.73456 0.12137 0.0
H121 H 0.76113 0.646 0.11658 0.0
H122 H 0.58203 0.62178 0.99445 0.0
H123 H 0.64588 0.71236 0.9595 0.0
C124 C 0.77557 0.78687 -0.0011 0.0
C125 C 0.84324 0.82264 0.02354 0.0
C126 C 0.74037 0.73282 0.01815 0.0
C127 C 0.87596 0.80262 0.06772 0.0
C128 C 0.84132 0.74862 0.08715 0.0
C129 C 0.73687 0.66056 0.08222 0.0
C130 C 0.66791 0.627 0.05795 0.0
C131 C 0.77328 0.71365 0.06274 0.0
C132 C 0.63583 0.6461 0.01355 0.0
C133 C 0.67206 0.69828 0.99372 0.0
H134 H 0.80179 0.168 0.02648 0.0
H135 H 0.99707 0.23633 0.97447 0.0
H136 H 0.93782 0.35516 0.96151 0.0
H137 H 0.81673 0.42862 0.94955 0.0
H138 H 0.61478 0.35125 0.99275 0.0
H139 H 0.69121 0.24848 0.02597 0.0
C140 C 0.83244 0.20957 0.0134 0.0
C141 C 0.90253 0.19331 0.00041 0.0
C142 C 0.79601 0.27599 0.00391 0.0
C143 C 0.9428 0.24764 0.98449 0.0
C144 C 0.90836 0.31526 0.97658 0.0
C145 C 0.78974 0.38967 0.96672 0.0
C146 C 0.70919 0.39669 0.96732 0.0
C147 C 0.83266 0.32841 0.98361 0.0
C148 C 0.67625 0.34734 0.99135 0.0
C149 C 0.71975 0.28794 0.01002 0.0
H150 H 0.80923 0.71281 0.47659 0.0
H151 H 0.63142 0.77452 0.5451 0.0
H152 H 0.69672 0.88947 0.56438 0.0
H153 H 0.82001 0.95896 0.57546 0.0
H154 H 1.00175 0.89085 0.51102 0.0
H155 H 0.91864 0.79279 0.47555 0.0
C156 C 0.7835 0.75247 0.49455 0.0
C157 C 0.71706 0.73513 0.51038 0.0
C158 C 0.82298 0.81671 0.50688 0.0
C159 C 0.68294 0.78686 0.53283 0.0
C160 C 0.72086 0.85213 0.54431 0.0
C161 C 0.84065 0.92327 0.55301 0.0
C162 C 0.91762 0.93096 0.54675 0.0
C163 C 0.79351 0.86558 0.5338 0.0
C164 C 0.94296 0.88585 0.51661 0.0
C165 C 0.89569 0.8294 0.49655 0.0
H166 H 0.85323 0.33698 0.53265 0.0
H167 H 0.6847 0.37492 0.40793 0.0
H168 H 0.7468 0.28079 0.37279 0.0
H169 H 0.85255 0.18925 0.37777 0.0
H170 H 0.02097 0.15612 0.50304 0.0
H171 H 0.95527 0.24658 0.53796 0.0
C172 C 0.82964 0.32492 0.49773 0.0
C173 C 0.76426 0.36336 0.47284 0.0
C174 C 0.86588 0.27137 0.47799 0.0
C175 C 0.73475 0.34634 0.42776 0.0
C176 C 0.77041 0.29253 0.40772 0.0
C177 C 0.87417 0.20199 0.41273 0.0
C178 C 0.94111 0.16615 0.43777 0.0
C179 C 0.83639 0.25497 0.43251 0.0
C180 C 0.96941 0.18273 0.48307 0.0
C181 C 0.93193 0.23463 0.50303 0.0
H182 H 0.36051 0.32109 0.47799 0.0
H183 H 0.51486 0.36664 0.60645 0.0
H184 H 0.44273 0.28079 0.64054 0.0
H185 H 0.32846 0.19873 0.63365 0.0
H186 H 0.17848 0.15464 0.50372 0.0
H187 H 0.257 0.23342 0.47019 0.0
C188 C 0.37914 0.31222 0.51348 0.0
C189 C 0.44115 0.35238 0.53996 0.0
C190 C 0.33799 0.26289 0.53247 0.0
C191 C 0.46536 0.33855 0.58563 0.0
C192 C 0.42446 0.28908 0.60502 0.0
C193 C 0.31396 0.20623 0.59801 0.0
C194 C 0.24784 0.17156 0.57136 0.0
C195 C 0.35937 0.25219 0.57883 0.0
C196 C 0.22903 0.18087 0.52507 0.0
C197 C 0.27382 0.22603 0.50583 0.0
H198 H 0.49835 0.76806 0.46144 0.0
H199 H 0.37585 0.68926 0.55598 0.0
H200 H 0.28878 0.79322 0.54461 0.0
H201 H 0.22832 0.88967 0.49492 0.0
H202 H 0.34255 0.96225 0.39515 0.0
H203 H 0.45233 0.87919 0.4216 0.0
C204 C 0.45473 0.77544 0.48081 0.0
C205 C 0.44276 0.72123 0.50917 0.0
C206 C 0.40204 0.83362 0.47229 0.0
C207 C 0.38559 0.73052 0.53381 0.0
C208 C 0.33537 0.78961 0.52702 0.0
C209 C 0.27881 0.88912 0.48019 0.0
C210 C 0.27705 0.93098 0.44283 0.0
C211 C 0.33995 0.83916 0.49439 0.0
C212 C 0.34247 0.92967 0.42371 0.0
C213 C 0.40498 0.88195 0.43866 0.0
H214 H 0.06564 0.85113 0.15766 0.0
H215 H 0.9656 0.05933 0.12514 0.0
H216 H 0.96202 0.07978 0.20256 0.0
H217 H 0.01285 0.04697 0.28076 0.0
H218 H 0.10874 0.83635 0.31297 0.0
H219 H 0.08815 0.80805 0.23437 0.0
C220 C 0.03994 0.89957 0.16741 0.0
C221 C 0.01562 0.95362 0.13629 0.0
C222 C 0.03946 0.91124 0.212 0.0
C223 C 0.98352 0.0168 0.14884 0.0
C224 C 0.98251 0.02879 0.19313 0.0
C225 C 0.02689 -0.00592 0.27074 0.0
C226 C 0.06519 0.94491 0.30289 0.0
C227 C 0.01412 0.97772 0.22534 0.0
C228 C 0.08233 0.8764 0.28899 0.0
C229 C 0.07006 0.85986 0.24399 0.0
H230 H 1.00637 0.08 0.8445 0.0
H231 H 0.01166 0.85127 0.84898 0.0
H232 H 0.03595 0.84625 0.77433 0.0
H233 H 0.04411 0.90794 0.70565 0.0
H234 H 0.04038 0.13709 0.70256 0.0
H235 H 0.02806 0.14146 0.77926 0.0
C236 C 0.01388 0.02919 0.82917 0.0
C237 C 1.00719 0.96606 0.85159 0.0
C238 C 0.02772 0.02705 0.78667 0.0
C239 C 0.01717 0.90035 0.83203 0.0
C240 C 0.03058 0.89761 0.78943 0.0
C241 C 0.04135 0.95868 0.72208 0.0
C242 C 0.04237 0.02215 0.69863 0.0
C243 C 0.03421 0.96067 0.7661 0.0
C244 C 0.03989 0.08771 0.72015 0.0
C245 C 0.03239 0.09018 0.76381 0.0
H246 H 0.73515 0.52358 0.68915 0.0
H247 H 0.48811 0.4865 0.62763 0.0
H248 H 0.45974 0.48039 0.70103 0.0
H249 H 0.50646 0.48611 0.78304 0.0
H250 H 0.75309 0.52983 0.84238 0.0
H251 H 0.78011 0.53423 0.76915 0.0
C252 C 0.67494 0.51408 0.69164 0.0
C253 C 0.61411 0.50392 0.65304 0.0
C254 C 0.65899 0.51265 0.73354 0.0
C255 C 0.53642 0.49227 0.65692 0.0
C256 C 0.52007 0.48969 0.69884 0.0
C257 C 0.56579 0.49749 0.77977 0.0
C258 C 0.62785 0.50721 0.818 0.0
C259 C 0.58099 0.49998 0.73741 0.0
C260 C 0.70464 0.5213 0.81343 0.0
C261 C 0.72012 0.52388 0.77163 0.0
H262 H 0.55256 0.39342 0.35735 0.0
H263 H 0.60801 0.6165 0.36298 0.0
H264 H 0.6089 0.61461 0.28437 0.0
H265 H 0.57354 0.55373 0.21253 0.0
H266 H 0.51598 0.33046 0.206 0.0
H267 H 0.53663 0.32782 0.28661 0.0
C268 C 0.56792 0.44067 0.34157 0.0
C269 C 0.58154 0.5047 0.36553 0.0
C270 C 0.56616 0.43944 0.29616 0.0
C271 C 0.59861 0.56652 0.34488 0.0
C272 C 0.59842 0.56553 0.29999 0.0
C273 C 0.56775 0.50395 0.22875 0.0
C274 C 0.54196 0.44271 0.20318 0.0
C275 C 0.57931 0.5029 0.27497 0.0
C276 C 0.53394 0.37882 0.22485 0.0
C277 C 0.54607 0.37715 0.27094 0.0
loop_
_geom_bond_atom_site_label_1
_geom_bond_atom_site_label_2
_geom_bond_distance
_geom_bond_site_symmetry_2
_ccdc_geom_bond_type
Zn0 O6 1.920 1_545 S
Zn0 O12 1.898 . S
Zn0 O15 1.905 1_545 S
Zn1 O9 1.905 . S
Zn1 O10 1.898 1_545 S
Zn1 O18 1.920 1_545 S
Zn2 O5 2.079 1_445 S
Zn2 O8 2.114 . S
Zn2 O11 2.120 1_545 S
Zn2 O13 2.120 1_455 S
Zn2 O14 2.114 1_554 S
Zn2 O17 2.080 . S
C3 O8 1.166 . S
C3 O9 1.182 . S
C4 O10 1.167 . S
C4 O11 1.299 . S
O5 Zn2 2.079 1_665 S
O5 C19 1.309 . S
O6 Zn0 1.920 1_565 S
O6 C19 1.234 1_556 S
C7 O12 1.167 . S
C7 O13 1.299 1_556 S
O8 Zn2 2.114 . S
O8 C3 1.166 . S
O9 Zn1 1.905 . S
O9 C3 1.182 . S
O10 Zn1 1.898 1_565 S
O10 C4 1.167 . S
O11 Zn2 2.120 1_565 S
O11 C4 1.299 . S
O12 Zn0 1.898 . S
O12 C7 1.167 . S
O13 Zn2 2.120 1_655 S
O13 C7 1.299 1_554 S
O14 Zn2 2.114 1_556 S
O14 C16 1.166 1_445 S
O15 Zn0 1.905 1_565 S
O15 C16 1.182 . S
C16 O14 1.166 1_665 S
C16 O15 1.182 . S
O17 Zn2 2.080 . S
O17 C20 1.305 1_545 S
O18 Zn1 1.920 1_565 S
O18 C20 1.234 . S
C19 O5 1.309 . S
C19 O6 1.234 1_554 S
C20 O17 1.305 1_565 S
C20 O18 1.234 . S
Zn21 O27 1.920 . S
Zn21 O33 1.898 . S
Zn21 O36 1.905 . S
Zn22 O30 1.905 . S
Zn22 O31 1.898 . S
Zn22 O39 1.920 . S
Zn23 O26 2.080 . S
Zn23 O29 2.114 . S
Zn23 O32 2.120 . S
Zn23 O34 2.120 . S
Zn23 O35 2.114 . S
Zn23 O38 2.080 . S
C24 O29 1.166 . S
C24 O30 1.182 . S
C25 O31 1.167 . S
C25 O32 1.299 . S
O26 Zn23 2.080 . S
O26 C40 1.305 . S
O27 Zn21 1.920 . S
O27 C40 1.234 . S
C28 O33 1.167 . S
C28 O34 1.299 . S
O29 Zn23 2.114 . S
O29 C24 1.166 . S
O30 Zn22 1.905 . S
O30 C24 1.182 . S
O31 Zn22 1.898 . S
O31 C25 1.167 . S
O32 Zn23 2.120 . S
O32 C25 1.299 . S
O33 Zn21 1.898 . S
O33 C28 1.167 . S
O34 Zn23 2.120 . S
O34 C28 1.299 . S
O35 Zn23 2.114 . S
O35 C37 1.166 . S
O36 Zn21 1.905 . S
O36 C37 1.182 . S
C37 O35 1.166 . S
C37 O36 1.182 . S
O38 Zn23 2.080 . S
O38 C41 1.305 . S
O39 Zn22 1.920 . S
O39 C41 1.234 . S
C40 O26 1.305 . S
C40 O27 1.234 . S
C41 O38 1.305 . S
C41 O39 1.234 . S
H42 C47 0.929 . S
H43 C52 0.931 . S
H44 C50 0.930 . S
N45 N46 1.234 1_455 S
N45 C49 1.453 . S
N46 N45 1.234 1_655 S
C47 H42 0.929 . S
C47 C48 1.373 . S
C47 C49 1.368 1_565 S
C48 C47 1.373 . S
C48 C52 1.397 . S
C49 N45 1.453 . S
C49 C47 1.368 1_545 S
C49 C50 1.373 . S
C50 H44 0.930 . S
C50 C49 1.373 . S
C50 C51 1.371 . S
C51 C50 1.371 . S
C51 C52 1.383 1_545 S
C52 H43 0.931 . S
C52 C48 1.397 . S
C52 C51 1.383 1_565 S
H53 C58 0.929 . S
H54 C63 0.931 . S
H55 C61 0.930 . S
N56 N57 1.234 . S
N56 C60 1.453 . S
N57 N56 1.234 . S
C58 H53 0.929 . S
C58 C59 1.373 . S
C58 C60 1.368 1_665 S
C59 C58 1.373 . S
C59 C63 1.397 . S
C60 N56 1.453 . S
C60 C58 1.368 1_445 S
C60 C61 1.373 . S
C61 H55 0.930 . S
C61 C60 1.373 . S
C61 C62 1.371 1_455 S
C62 C61 1.371 1_655 S
C62 C63 1.383 1_545 S
C63 H54 0.931 . S
C63 C59 1.397 . S
C63 C62 1.383 1_565 S
H64 C69 0.929 . S
H65 C74 0.931 . S
H66 C72 0.930 . S
N67 N68 1.234 . S
N67 C71 1.453 . S
N68 N67 1.234 . S
C69 H64 0.929 . S
C69 C70 1.373 . S
C69 C71 1.368 . S
C70 C69 1.373 . S
C70 C74 1.397 . S
C71 N67 1.453 . S
C71 C69 1.368 . S
C71 C72 1.373 . S
C72 H66 0.930 . S
C72 C71 1.373 . S
C72 C73 1.371 . S
C73 C72 1.371 . S
C73 C74 1.383 . S
C74 H65 0.931 . S
C74 C70 1.397 . S
C74 C73 1.383 . S
H75 C80 0.929 . S
H76 C85 0.931 . S
H77 C83 0.930 . S
N78 N79 1.234 . S
N78 C82 1.453 . S
N79 N78 1.234 . S
C80 H75 0.929 . S
C80 C81 1.373 . S
C80 C82 1.368 . S
C81 C80 1.373 . S
C81 C85 1.397 . S
C82 N78 1.453 . S
C82 C80 1.368 . S
C82 C83 1.373 . S
C83 H77 0.930 . S
C83 C82 1.373 . S
C83 C84 1.371 . S
C84 C83 1.371 . S
C84 C85 1.383 . S
C85 H76 0.931 . S
C85 C81 1.397 . S
C85 C84 1.383 . S
H86 C92 0.930 . S
H87 C95 0.930 . S
H88 C96 0.919 1_556 S
H89 C97 0.930 . S
H90 C100 0.930 . S
H91 C101 0.930 . S
C92 H86 0.930 . S
C92 C93 1.355 . S
C92 C94 1.415 . S
C93 C92 1.355 . S
C93 C95 1.419 1_554 S
C94 C92 1.415 . S
C94 C99 1.425 . S
C94 C101 1.409 . S
C95 H87 0.930 . S
C95 C93 1.419 1_556 S
C95 C96 1.364 1_556 S
C96 H88 0.919 1_554 S
C96 C95 1.364 1_554 S
C96 C99 1.419 . S
C97 H89 0.930 . S
C97 C98 1.355 . S
C97 C99 1.415 . S
C98 C97 1.355 . S
C98 C100 1.419 . S
C99 C94 1.425 . S
C99 C96 1.419 . S
C99 C97 1.415 . S
C100 H90 0.930 . S
C100 C98 1.419 . S
C100 C101 1.362 . S
C101 H91 0.930 . S
C101 C94 1.409 . S
C101 C100 1.362 . S
H102 C108 0.930 . S
H103 C111 0.930 . S
H104 C112 0.930 . S
H105 C113 0.930 . S
H106 C116 0.930 . S
H107 C117 0.930 . S
C108 H102 0.930 . S
C108 C109 1.355 . S
C108 C110 1.415 . S
C109 C108 1.355 . S
C109 C111 1.419 . S
C110 C108 1.415 . S
C110 C115 1.425 . S
C110 C117 1.409 . S
C111 H103 0.930 . S
C111 C109 1.419 . S
C111 C112 1.362 . S
C112 H104 0.930 . S
C112 C111 1.362 . S
C112 C115 1.409 . S
C113 H105 0.930 . S
C113 C114 1.355 . S
C113 C115 1.415 . S
C114 C113 1.355 . S
C114 C116 1.419 . S
C115 C110 1.425 . S
C115 C112 1.409 . S
C115 C113 1.415 . S
C116 H106 0.930 . S
C116 C114 1.419 . S
C116 C117 1.362 . S
C117 H107 0.930 . S
C117 C110 1.409 . S
C117 C116 1.362 . S
H118 C124 0.930 1_556 S
H119 C127 0.930 . S
H120 C128 0.930 . S
H121 C129 0.930 . S
H122 C132 0.930 . S
H123 C133 0.930 1_556 S
C124 H118 0.930 1_554 S
C124 C125 1.355 . S
C124 C126 1.415 . S
C125 C124 1.355 . S
C125 C127 1.419 . S
C126 C124 1.415 . S
C126 C131 1.425 . S
C126 C133 1.409 . S
C127 H119 0.930 . S
C127 C125 1.419 . S
C127 C128 1.362 . S
C128 H120 0.930 . S
C128 C127 1.362 . S
C128 C131 1.409 . S
C129 H121 0.930 . S
C129 C130 1.355 . S
C129 C131 1.415 . S
C130 C129 1.355 . S
C130 C132 1.419 . S
C131 C126 1.425 . S
C131 C128 1.409 . S
C131 C129 1.415 . S
C132 H122 0.930 . S
C132 C130 1.419 . S
C132 C133 1.362 . S
C133 H123 0.930 1_554 S
C133 C126 1.409 . S
C133 C132 1.362 . S
H134 C140 0.930 1_554 S
H135 C143 0.930 . S
H136 C144 0.930 . S
H137 C145 0.930 . S
H138 C148 0.930 . S
H139 C149 0.930 1_554 S
C140 H134 0.930 1_556 S
C140 C141 1.355 . S
C140 C142 1.415 . S
C141 C140 1.355 . S
C141 C143 1.419 . S
C142 C140 1.415 . S
C142 C147 1.425 . S
C142 C149 1.409 . S
C143 H135 0.930 . S
C143 C141 1.419 . S
C143 C144 1.362 . S
C144 H136 0.930 . S
C144 C143 1.362 . S
C144 C147 1.409 . S
C145 H137 0.930 . S
C145 C146 1.355 . S
C145 C147 1.415 . S
C146 C145 1.355 . S
C146 C148 1.419 . S
C147 C142 1.425 . S
C147 C144 1.409 . S
C147 C145 1.415 . S
C148 H138 0.930 . S
C148 C146 1.419 . S
C148 C149 1.362 . S
C149 H139 0.930 1_556 S
C149 C142 1.409 . S
C149 C148 1.362 . S
H150 C156 0.930 . S
H151 C159 0.930 . S
H152 C160 0.930 . S
H153 C161 0.930 . S
H154 C164 0.930 . S
H155 C165 0.930 . S
C156 H150 0.930 . S
C156 C157 1.355 . S
C156 C158 1.415 . S
C157 C156 1.355 . S
C157 C159 1.419 . S
C158 C156 1.415 . S
C158 C163 1.425 . S
C158 C165 1.409 . S
C159 H151 0.930 . S
C159 C157 1.419 . S
C159 C160 1.362 . S
C160 H152 0.930 . S
C160 C159 1.362 . S
C160 C163 1.409 . S
C161 H153 0.930 . S
C161 C162 1.355 . S
C161 C163 1.415 . S
C162 C161 1.355 . S
C162 C164 1.419 . S
C163 C158 1.425 . S
C163 C160 1.409 . S
C163 C161 1.415 . S
C164 H154 0.930 . S
C164 C162 1.419 . S
C164 C165 1.362 . S
C165 H155 0.930 . S
C165 C158 1.409 . S
C165 C164 1.362 . S
H166 C172 0.930 . S
H167 C175 0.930 . S
H168 C176 0.930 . S
H169 C177 0.930 . S
H170 C180 0.930 1_455 S
H171 C181 0.930 . S
C172 H166 0.930 . S
C172 C173 1.355 . S
C172 C174 1.415 . S
C173 C172 1.355 . S
C173 C175 1.419 . S
C174 C172 1.415 . S
C174 C179 1.425 . S
C174 C181 1.409 . S
C175 H167 0.930 . S
C175 C173 1.419 . S
C175 C176 1.362 . S
C176 H168 0.930 . S
C176 C175 1.362 . S
C176 C179 1.409 . S
C177 H169 0.930 . S
C177 C178 1.355 . S
C177 C179 1.415 . S
C178 C177 1.355 . S
C178 C180 1.419 . S
C179 C174 1.425 . S
C179 C176 1.409 . S
C179 C177 1.415 . S
C180 H170 0.930 1_655 S
C180 C178 1.419 . S
C180 C181 1.362 . S
C181 H171 0.930 . S
C181 C174 1.409 . S
C181 C180 1.362 . S
H182 C188 0.930 . S
H183 C191 0.930 . S
H184 C192 0.930 . S
H185 C193 0.930 . S
H186 C196 0.930 . S
H187 C197 0.930 . S
C188 H182 0.930 . S
C188 C189 1.355 . S
C188 C190 1.415 . S
C189 C188 1.355 . S
C189 C191 1.419 . S
C190 C188 1.415 . S
C190 C195 1.425 . S
C190 C197 1.409 . S
C191 H183 0.930 . S
C191 C189 1.419 . S
C191 C192 1.362 . S
C192 H184 0.930 . S
C192 C191 1.362 . S
C192 C195 1.409 . S
C193 H185 0.930 . S
C193 C194 1.355 . S
C193 C195 1.415 . S
C194 C193 1.355 . S
C194 C196 1.419 . S
C195 C190 1.425 . S
C195 C192 1.409 . S
C195 C193 1.415 . S
C196 H186 0.930 . S
C196 C194 1.419 . S
C196 C197 1.362 . S
C197 H187 0.930 . S
C197 C190 1.409 . S
C197 C196 1.362 . S
H198 C204 0.930 . S
H199 C207 0.930 . S
H200 C208 0.930 . S
H201 C209 0.930 . S
H202 C212 0.930 . S
H203 C213 0.930 . S
C204 H198 0.930 . S
C204 C205 1.355 . S
C204 C206 1.415 . S
C205 C204 1.355 . S
C205 C207 1.419 . S
C206 C204 1.415 . S
C206 C211 1.425 . S
C206 C213 1.409 . S
C207 H199 0.930 . S
C207 C205 1.419 . S
C207 C208 1.362 . S
C208 H200 0.930 . S
C208 C207 1.362 . S
C208 C211 1.409 . S
C209 H201 0.930 . S
C209 C210 1.355 . S
C209 C211 1.415 . S
C210 C209 1.355 . S
C210 C212 1.419 . S
C211 C206 1.425 . S
C211 C208 1.409 . S
C211 C209 1.415 . S
C212 H202 0.930 . S
C212 C210 1.419 . S
C212 C213 1.362 . S
C213 H203 0.930 . S
C213 C206 1.409 . S
C213 C212 1.362 . S
H214 C220 0.930 . S
H215 C223 0.930 . S
H216 C224 0.930 . S
H217 C225 0.930 . S
H218 C228 0.930 . S
H219 C229 0.930 . S
C220 H214 0.930 . S
C220 C221 1.355 . S
C220 C222 1.415 . S
C221 C220 1.355 . S
C221 C223 1.419 1_565 S
C222 C220 1.415 . S
C222 C227 1.425 1_565 S
C222 C229 1.409 . S
C223 H215 0.930 . S
C223 C221 1.419 1_545 S
C223 C224 1.362 . S
C224 H216 0.930 . S
C224 C223 1.362 . S
C224 C227 1.409 . S
C225 H217 0.930 . S
C225 C226 1.355 . S
C225 C227 1.415 . S
C226 C225 1.355 . S
C226 C228 1.419 1_545 S
C227 C222 1.425 1_545 S
C227 C224 1.409 . S
C227 C225 1.415 . S
C228 H218 0.930 . S
C228 C226 1.419 1_565 S
C228 C229 1.362 . S
C229 H219 0.930 . S
C229 C222 1.409 . S
C229 C228 1.362 . S
H230 C236 0.930 . S
H231 C239 0.930 . S
H232 C240 0.930 1_655 S
H233 C241 0.930 1_655 S
H234 C244 0.930 . S
H235 C245 0.930 . S
C236 H230 0.930 . S
C236 C237 1.355 1_545 S
C236 C238 1.415 . S
C237 C236 1.355 1_565 S
C237 C239 1.419 . S
C238 C236 1.415 . S
C238 C243 1.425 1_545 S
C238 C245 1.409 . S
C239 H231 0.930 . S
C239 C237 1.419 . S
C239 C240 1.362 . S
C240 H232 0.930 1_455 S
C240 C239 1.362 . S
C240 C243 1.409 . S
C241 H233 0.930 1_455 S
C241 C242 1.356 1_565 S
C241 C243 1.413 . S
C242 C241 1.356 1_545 S
C242 C244 1.419 . S
C243 C238 1.425 1_565 S
C243 C240 1.409 . S
C243 C241 1.413 . S
C244 H234 0.930 . S
C244 C242 1.419 . S
C244 C245 1.362 . S
C245 H235 0.930 . S
C245 C238 1.409 . S
C245 C244 1.362 . S
H246 C252 0.930 . S
H247 C255 0.930 . S
H248 C256 0.930 . S
H249 C257 0.930 . S
H250 C260 0.930 . S
H251 C261 0.930 . S
C252 H246 0.930 . S
C252 C253 1.355 . S
C252 C254 1.415 . S
C253 C252 1.355 . S
C253 C255 1.419 . S
C254 C252 1.415 . S
C254 C259 1.425 . S
C254 C261 1.409 . S
C255 H247 0.930 . S
C255 C253 1.419 . S
C255 C256 1.362 . S
C256 H248 0.930 . S
C256 C255 1.362 . S
C256 C259 1.409 . S
C257 H249 0.930 . S
C257 C258 1.355 . S
C257 C259 1.415 . S
C258 C257 1.355 . S
C258 C260 1.419 . S
C259 C254 1.425 . S
C259 C256 1.409 . S
C259 C257 1.415 . S
C260 H250 0.930 . S
C260 C258 1.419 . S
C260 C261 1.362 . S
C261 H251 0.930 . S
C261 C254 1.409 . S
C261 C260 1.362 . S
H262 C268 0.930 . S
H263 C271 0.930 . S
H264 C272 0.930 . S
H265 C273 0.930 . S
H266 C276 0.930 . S
H267 C277 0.930 . S
C268 H262 0.930 . S
C268 C269 1.355 . S
C268 C270 1.415 . S
C269 C268 1.355 . S
C269 C271 1.419 . S
C270 C268 1.415 . S
C270 C275 1.425 . S
C270 C277 1.409 . S
C271 H263 0.930 . S
C271 C269 1.419 . S
C271 C272 1.362 . S
C272 H264 0.930 . S
C272 C271 1.362 . S
C272 C275 1.409 . S
C273 H265 0.930 . S
C273 C274 1.355 . S
C273 C275 1.415 . S
C274 C273 1.355 . S
C274 C276 1.419 . S
C275 C270 1.425 . S
C275 C272 1.409 . S
C275 C273 1.415 . S
C276 H266 0.930 . S
C276 C274 1.419 . S
C276 C277 1.362 . S
C277 H267 0.930 . S
C277 C270 1.409 . S
C277 C276 1.362 . S
C98 C81 1.329 . S
C93 C3 1.251 . S
C109 C4 1.397 1_556 S
C114 N68 1.506 . S
C125 C19 1.442 . S
C130 N79 1.537 . S
C141 C7 1.229 . S
C146 C70 1.366 . S
C157 C37 1.177 . S
C162 C59 1.368 . S
C173 C28 1.481 . S
C178 N46 1.536 . S
C194 N57 1.540 . S
C189 C41 1.499 . S
C210 C48 1.364 . S
C205 C25 1.175 . S
C221 C20 1.338 . S
C226 C51 1.468 . S
C237 C16 1.406 1_455 S
C242 C62 1.551 1_455 S
C258 C73 1.490 . S
C253 C40 1.412 . S
C269 C24 1.407 . S
C274 C84 1.510 . S
