# Generated by pormake.
# Topology hwx, (6,3)-cn, num edge types: 1
# Building blocks:
#     Node 0, Type 0, BuildingBlock: OJICUG_clean_sbu_0, # of connection points: 6
#     Node 1, Type 0, BuildingBlock: OJICUG_clean_sbu_0, # of connection points: 6
#     Node 2, Type 0, BuildingBlock: OJICUG_clean_sbu_0, # of connection points: 6
#     Node 3, Type 0, BuildingBlock: OJICUG_clean_sbu_0, # of connection points: 6
#     Node 4, Type 1, BuildingBlock: ESEHIV_clean_linker_0, # of connection points: 3
#     Node 5, Type 1, BuildingBlock: ESEHIV_clean_linker_0, # of connection points: 3
#     Node 6, Type 1, BuildingBlock: ESEHIV_clean_linker_0, # of connection points: 3
#     Node 7, Type 1, BuildingBlock: ESEHIV_clean_linker_0, # of connection points: 3
#     Node 8, Type 1, BuildingBlock: ESEHIV_clean_linker_0, # of connection points: 3
#     Node 9, Type 1, BuildingBlock: ESEHIV_clean_linker_0, # of connection points: 3
#     Node 10, Type 1, BuildingBlock: ESEHIV_clean_linker_0, # of connection points: 3
#     Node 11, Type 1, BuildingBlock: ESEHIV_clean_linker_0, # of connection points: 3
#     Edge 12, Type (0, 1), BuildingBlock: ZUJKAS_clean_linker_0, # of connection points: 2
#     Edge 13, Type (0, 1), BuildingBlock: ZUJKAS_clean_linker_0, # of connection points: 2
#     Edge 14, Type (0, 1), BuildingBlock: ZUJKAS_clean_linker_0, # of connection points: 2
#     Edge 15, Type (0, 1), BuildingBlock: ZUJKAS_clean_linker_0, # of connection points: 2
#     Edge 16, Type (0, 1), BuildingBlock: ZUJKAS_clean_linker_0, # of connection points: 2
#     Edge 17, Type (0, 1), BuildingBlock: ZUJKAS_clean_linker_0, # of connection points: 2
#     Edge 18, Type (0, 1), BuildingBlock: ZUJKAS_clean_linker_0, # of connection points: 2
#     Edge 19, Type (0, 1), BuildingBlock: ZUJKAS_clean_linker_0, # of connection points: 2
#     Edge 20, Type (0, 1), BuildingBlock: ZUJKAS_clean_linker_0, # of connection points: 2
#     Edge 21, Type (0, 1), BuildingBlock: ZUJKAS_clean_linker_0, # of connection points: 2
#     Edge 22, Type (0, 1), BuildingBlock: ZUJKAS_clean_linker_0, # of connection points: 2
#     Edge 23, Type (0, 1), BuildingBlock: ZUJKAS_clean_linker_0, # of connection points: 2
#     Edge 24, Type (0, 1), BuildingBlock: ZUJKAS_clean_linker_0, # of connection points: 2
#     Edge 25, Type (0, 1), BuildingBlock: ZUJKAS_clean_linker_0, # of connection points: 2
#     Edge 26, Type (0, 1), BuildingBlock: ZUJKAS_clean_linker_0, # of connection points: 2
#     Edge 27, Type (0, 1), BuildingBlock: ZUJKAS_clean_linker_0, # of connection points: 2
#     Edge 28, Type (0, 1), BuildingBlock: ZUJKAS_clean_linker_0, # of connection points: 2
#     Edge 29, Type (0, 1), BuildingBlock: ZUJKAS_clean_linker_0, # of connection points: 2
#     Edge 30, Type (0, 1), BuildingBlock: ZUJKAS_clean_linker_0, # of connection points: 2
#     Edge 31, Type (0, 1), BuildingBlock: ZUJKAS_clean_linker_0, # of connection points: 2
#     Edge 32, Type (0, 1), BuildingBlock: ZUJKAS_clean_linker_0, # of connection points: 2
#     Edge 33, Type (0, 1), BuildingBlock: ZUJKAS_clean_linker_0, # of connection points: 2
#     Edge 34, Type (0, 1), BuildingBlock: ZUJKAS_clean_linker_0, # of connection points: 2
#     Edge 35, Type (0, 1), BuildingBlock: ZUJKAS_clean_linker_0, # of connection points: 2
# Relax obj value: 0.076
# Max RMSD: 0.101
# Mean RMSD: 0.093
data_MOF--net-hwx--node1-OJICUG_clean_sbu_0--node2-ESEHIV_clean_linker_0--edge1-ZUJKAS_clean_linker_0
_symmetry_space_group_name_H-M    P1
_symmetry_Int_Tables_number       1
_symmetry_cell_setting            triclinic
loop_
_symmetry_equiv_pos_as_xyz
'x, y, z'
_cell_length_a     61.979109
_cell_length_b     61.977103
_cell_length_c     27.99138
_cell_angle_alpha  89.848912
_cell_angle_beta   90.133983
_cell_angle_gamma 89.974732
loop_
_atom_site_label
_atom_site_type_symbol
_atom_site_fract_x
_atom_site_fract_y
_atom_site_fract_z
_atom_type_partial_charge
Sc0 Sc 0.21718 0.21798 0.06233 0.0
Sc1 Sc 0.181 0.18225 0.00546 0.0
Sc2 Sc 0.21566 0.21549 0.9373 0.0
O3 O 0.20457 0.20521 0.00169 0.0
C4 C 0.21285 0.25948 0.99563 0.0
C5 C 0.16718 0.21433 0.08869 0.0
C6 C 0.16517 0.21089 0.91713 0.0
C7 C 0.21289 0.16828 0.09001 0.0
C8 C 0.25921 0.21399 -0.00231 0.0
C9 C 0.21081 0.16485 0.92083 0.0
O10 O 0.21403 0.25051 0.03643 0.0
O11 O 0.16264 0.2 0.05782 0.0
O12 O 0.18381 0.21837 0.90832 0.0
O13 O 0.22152 0.18677 0.09408 0.0
O14 O 0.24895 0.21365 0.9584 0.0
O15 O 0.19686 0.1619 0.95353 0.0
O16 O 0.24989 0.21571 0.03781 0.0
O17 O 0.19775 0.16428 0.06057 0.0
O18 O 0.21877 0.18323 0.9113 0.0
O19 O 0.18608 0.22179 0.0943 0.0
O20 O 0.21355 0.24895 0.95677 0.0
O21 O 0.16151 0.19769 0.95103 0.0
Sc22 Sc 0.27411 0.71868 0.42912 0.0
Sc23 Sc 0.30915 0.68399 0.49272 0.0
Sc24 Sc 0.27346 0.7187 0.55429 0.0
O25 O 0.28561 0.70709 0.49208 0.0
C26 C 0.27717 0.76146 0.49123 0.0
C27 C 0.32447 0.71451 0.40762 0.0
C28 C 0.32376 0.71467 0.57821 0.0
C29 C 0.27845 0.66835 0.40805 0.0
C30 C 0.231 0.71568 0.49044 0.0
C31 C 0.27823 0.66848 0.57721 0.0
O32 O 0.27671 0.75162 0.45153 0.0
O33 O 0.32829 0.70029 0.43933 0.0
O34 O 0.30498 0.72226 0.58509 0.0
O35 O 0.2704 0.6869 0.40052 0.0
O36 O 0.24055 0.71627 0.53059 0.0
O37 O 0.29282 0.66501 0.54629 0.0
O38 O 0.241 0.71665 0.45099 0.0
O39 O 0.29294 0.66476 0.43935 0.0
O40 O 0.26984 0.68694 0.58381 0.0
O41 O 0.30581 0.72224 0.40004 0.0
O42 O 0.2758 0.75181 0.53125 0.0
O43 O 0.32784 0.70072 0.54621 0.0
Sc44 Sc 0.77453 0.7751 0.93458 0.0
Sc45 Sc 0.8097 0.80832 0.00096 0.0
Sc46 Sc 0.77308 0.77372 0.05975 0.0
O47 O 0.78582 0.78572 -0.00157 0.0
C48 C 0.73118 0.77847 0.99393 0.0
C49 C 0.78066 0.82559 0.91516 0.0
C50 C 0.77786 0.82347 0.08419 0.0
C51 C 0.82495 0.77802 0.915 0.0
C52 C 0.77603 0.73158 0.99621 0.0
C53 C 0.82331 0.77693 0.08578 0.0
O54 O 0.74146 0.77925 0.95482 0.0
O55 O 0.79375 0.82875 0.94946 0.0
O56 O 0.76862 0.80531 0.0884 0.0
O57 O 0.80637 0.77004 0.90781 0.0
O58 O 0.77619 0.74096 0.03648 0.0
O59 O 0.82802 0.79024 0.0528 0.0
O60 O 0.77471 0.74177 0.95682 0.0
O61 O 0.82856 0.79251 0.94615 0.0
O62 O 0.80419 0.77035 0.09321 0.0
O63 O 0.77314 0.80708 0.90499 0.0
O64 O 0.74036 0.77563 0.03407 0.0
O65 O 0.79362 0.82678 0.05601 0.0
Sc66 Sc 0.71814 0.27435 0.55582 0.0
Sc67 Sc 0.68288 0.3097 0.49453 0.0
Sc68 Sc 0.7164 0.27386 0.43063 0.0
O69 O 0.70577 0.286 0.49366 0.0
C70 C 0.76006 0.2771 0.49069 0.0
C71 C 0.71442 0.32472 0.57815 0.0
C72 C 0.71252 0.32408 0.40685 0.0
C73 C 0.66837 0.27936 0.58138 0.0
C74 C 0.71401 0.23134 0.49425 0.0
C75 C 0.66586 0.2789 0.4113 0.0
O76 O 0.7508 0.27684 0.53113 0.0
O77 O 0.70044 0.32879 0.54604 0.0
O78 O 0.72006 0.3053 0.40001 0.0
O79 O 0.68685 0.27085 0.58682 0.0
O80 O 0.71387 0.24097 0.45417 0.0
O81 O 0.66279 0.29322 0.44306 0.0
O82 O 0.71579 0.24126 0.53368 0.0
O83 O 0.66448 0.29386 0.55019 0.0
O84 O 0.68428 0.27074 0.40297 0.0
O85 O 0.72183 0.30591 0.58569 0.0
O86 O 0.74977 0.27576 0.45149 0.0
O87 O 0.69875 0.32823 0.4392 0.0
H88 H 0.23307 0.54924 0.99122 0.0
H89 H 0.21597 0.49109 0.91744 0.0
H90 H 0.21383 0.49333 0.07137 0.0
C91 C 0.22761 0.53262 0.99223 0.0
C92 C 0.22372 0.52262 0.03631 0.0
C93 C 0.22462 0.52141 0.94936 0.0
C94 C 0.21742 0.49999 0.95057 0.0
C95 C 0.21373 0.48963 0.99457 0.0
C96 C 0.2165 0.50121 0.03728 0.0
H97 H 0.93837 0.71771 0.50378 0.0
H98 H -0.00302 0.71096 0.42336 0.0
H99 H -0.00143 0.70768 0.57684 0.0
C100 C 0.9556 0.71476 0.50259 0.0
C101 C 0.9672 0.71267 0.54547 0.0
C102 C 0.96618 0.71417 0.45829 0.0
C103 C 0.98854 0.71064 0.45722 0.0
C104 C 0.00034 0.70836 0.49984 0.0
C105 C 0.98954 0.70931 0.54381 0.0
H106 H 0.77515 0.43848 -0.00211 0.0
H107 H 0.78386 0.4991 0.06946 0.0
H108 H 0.78081 0.49697 0.91605 0.0
C109 C 0.77774 0.45576 0.99627 0.0
C110 C 0.77793 0.46623 0.95172 0.0
C111 C 0.77976 0.46749 0.03889 0.0
C112 C 0.78272 0.4899 0.03667 0.0
C113 C 0.78326 0.5006 0.99241 0.0
C114 C 0.78096 0.48865 0.95015 0.0
H115 H 0.05236 0.2739 0.50119 0.0
H116 H 0.99262 0.28034 0.57766 0.0
H117 H 0.99354 0.28641 0.4246 0.0
C118 C 0.03518 0.27713 0.50136 0.0
C119 C 0.02434 0.28043 0.45786 0.0
C120 C 0.02388 0.27693 0.54482 0.0
C121 C 0.00157 0.28081 0.54447 0.0
C122 C 0.99054 0.28439 0.50127 0.0
C123 C 0.00205 0.28427 0.45816 0.0
H124 H 0.7278 0.93968 0.50817 0.0
H125 H 0.71661 0.00079 0.57595 0.0
H126 H 0.71358 0.99556 0.42279 0.0
C127 C 0.72401 0.95672 0.50572 0.0
C128 C 0.72107 0.96619 0.46063 0.0
C129 C 0.72242 0.96904 0.54755 0.0
C130 C 0.71705 0.99098 0.54397 0.0
C131 C 0.71378 0.00066 0.49907 0.0
C132 C 0.71563 0.9881 0.45757 0.0
H133 H 0.55158 0.22356 0.00319 0.0
H134 H 0.49087 0.21158 0.07216 0.0
H135 H 0.49473 0.2125 0.91871 0.0
C136 C 0.53462 0.21942 0.00096 0.0
C137 C 0.52467 0.21797 0.95599 0.0
C138 C 0.52256 0.2171 0.04306 0.0
C139 C 0.50035 0.21296 0.03981 0.0
C140 C 0.49016 0.21145 0.99507 0.0
C141 C 0.50248 0.21378 0.95336 0.0
H142 H 0.26696 0.05214 0.51736 0.0
H143 H 0.27791 0.99577 0.43186 0.0
H144 H 0.28473 0.99246 0.58492 0.0
C145 C 0.27156 0.03531 0.51472 0.0
C146 C 0.27567 0.0234 0.55643 0.0
C147 C 0.27261 0.0255 0.46966 0.0
C148 C 0.27801 0.00356 0.46648 0.0
C149 C 0.28212 0.99138 0.50798 0.0
C150 C 0.28127 0.00157 0.55271 0.0
H151 H 0.44001 0.7701 0.98806 0.0
H152 H 0.49931 0.78467 0.91598 0.0
H153 H 0.49723 0.78254 0.06997 0.0
C154 C 0.45694 0.77448 0.98947 0.0
C155 C 0.46734 0.77589 0.03383 0.0
C156 C 0.4683 0.7779 0.9469 0.0
C157 C 0.49037 0.78278 0.94895 0.0
C158 C 0.50102 0.78455 0.99324 0.0
C159 C 0.48924 0.7814 0.0356 0.0
H160 H 0.17027 0.24724 0.15281 0.0
H161 H 0.143 0.25968 0.20872 0.0
H162 H 0.09781 0.21321 0.15302 0.0
H163 H 0.12511 0.2005 0.09624 0.0
H164 H 0.08145 0.25833 0.17129 0.0
H165 H 0.12453 0.22034 0.32421 0.0
H166 H 0.14107 0.23682 0.28612 0.0
H167 H 0.12921 0.21254 0.26297 0.0
C168 C 0.15454 0.23962 0.1521 0.0
C169 C 0.14999 0.22263 0.12037 0.0
C170 C 0.13898 0.24682 0.18411 0.0
C171 C 0.11858 0.23716 0.18523 0.0
C172 C 0.11357 0.22077 0.15261 0.0
H173 H 0.0115 0.25737 0.37992 0.0
H174 H 0.03293 0.24843 0.30949 0.0
C175 C 0.12919 0.21352 0.12036 0.0
C176 C 0.10303 0.24368 0.22227 0.0
H177 H 0.09621 0.24452 0.34301 0.0
C178 C 0.08449 0.2552 0.20885 0.0
C179 C 0.10717 0.23949 0.27106 0.0
C180 C 0.12647 0.22646 0.28712 0.0
C181 C 0.07026 0.26331 0.24344 0.0
C182 C 0.07469 0.25951 0.29231 0.0
C183 C 0.09302 0.2476 0.30548 0.0
C184 C 0.06056 0.26744 0.33087 0.0
C185 C 0.05097 0.27637 0.22762 0.0
C186 C 0.06897 0.28122 0.36597 0.0
C187 C 0.0568 0.28633 0.40626 0.0
C188 C 0.03604 0.27765 0.41219 0.0
C189 C 0.02731 0.26458 0.37597 0.0
C190 C 0.03952 0.25945 0.33569 0.0
H191 H 0.05261 0.28207 0.19014 0.0
H192 H 0.03628 0.26619 0.22988 0.0
H193 H 0.04862 0.29055 0.2512 0.0
H194 H 0.08523 0.28748 0.36286 0.0
H195 H 0.06384 0.29659 0.43341 0.0
H196 H 0.24191 0.66673 0.632 0.0
H197 H 0.23135 0.63833 0.68774 0.0
H198 H 0.28736 0.60117 0.64834 0.0
H199 H 0.29792 0.62936 0.59157 0.0
H200 H 0.24946 0.57605 0.66121 0.0
H201 H 0.26477 0.63138 0.81334 0.0
H202 H 0.24583 0.6416 0.77026 0.0
H203 H 0.27348 0.63737 0.75332 0.0
C204 C 0.25195 0.65248 0.6349 0.0
C205 C 0.27097 0.65046 0.60792 0.0
C206 C 0.24587 0.63627 0.66676 0.0
C207 C 0.25881 0.61791 0.67272 0.0
C208 C 0.27723 0.61531 0.64429 0.0
H209 H 0.26248 0.54075 0.92754 0.0
H210 H 0.27104 0.56179 0.85615 0.0
C211 C 0.28326 0.63146 0.61202 0.0
C212 C 0.25388 0.60216 0.71087 0.0
H213 H 0.24903 0.59768 0.83171 0.0
C214 C 0.24939 0.58069 0.69854 0.0
C215 C 0.25411 0.6083 0.75948 0.0
C216 C 0.26 0.63086 0.77507 0.0
C217 C 0.24487 0.56516 0.73379 0.0
C218 C 0.24459 0.57146 0.78229 0.0
C219 C 0.24917 0.59292 0.79443 0.0
C220 C 0.24025 0.55615 0.82171 0.0
C221 C 0.2409 0.54212 0.71896 0.0
C222 C 0.22026 0.54561 0.8255 0.0
C223 C 0.21542 0.53339 0.86621 0.0
C224 C 0.23038 0.53194 0.90382 0.0
C225 C 0.25062 0.54186 0.89914 0.0
C226 C 0.25552 0.5538 0.85841 0.0
H227 H 0.24705 0.53889 0.68241 0.0
H228 H 0.24868 0.53067 0.74426 0.0
H229 H 0.22329 0.53893 0.71905 0.0
H230 H 0.20809 0.54756 0.798 0.0
H231 H 0.19967 0.52595 0.8693 0.0
H232 H 0.86703 0.78116 0.07381 0.0
H233 H 0.89564 0.76752 0.12622 0.0
H234 H 0.8477 0.74098 0.22113 0.0
H235 H 0.81913 0.754 0.16868 0.0
H236 H 0.90382 0.77795 0.21661 0.0
H237 H 0.88788 0.69044 0.20801 0.0
H238 H 0.87601 0.70932 0.16634 0.0
H239 H 0.86392 0.70489 0.22404 0.0
C240 C 0.86258 0.77227 0.10566 0.0
C241 C 0.84077 0.76863 0.11697 0.0
C242 C 0.87895 0.76444 0.13546 0.0
C243 C 0.87381 0.75283 0.17701 0.0
C244 C 0.85207 0.7493 0.18848 0.0
H245 H 0.93547 0.74515 0.44484 0.0
H246 H 0.9157 0.75361 0.37196 0.0
C247 C 0.83573 0.75695 0.15861 0.0
C248 C 0.89096 0.74577 0.21048 0.0
H249 H 0.90746 0.70283 0.27782 0.0
C250 C 0.90489 0.76144 0.22935 0.0
C251 C 0.8927 0.72413 0.22637 0.0
C252 C 0.87947 0.70621 0.20468 0.0
C253 C 0.91951 0.75634 0.26593 0.0
C254 C 0.9198 0.73516 0.28487 0.0
C255 C 0.90694 0.71916 0.26383 0.0
C256 C 0.93202 0.72975 0.32876 0.0
C257 C 0.93426 0.77381 0.28442 0.0
C258 C 0.9472 0.71295 0.32913 0.0
C259 C 0.95827 0.70772 0.37123 0.0
C260 C 0.95417 0.71912 0.41365 0.0
C261 C 0.93879 0.73581 0.41304 0.0
C262 C 0.92773 0.74094 0.37116 0.0
H263 H 0.93747 0.78617 0.25649 0.0
H264 H 0.92638 0.78206 0.3149 0.0
H265 H 0.9499 0.76707 0.29688 0.0
H266 H 0.95055 0.70396 0.29684 0.0
H267 H 0.96988 0.69466 0.37068 0.0
H268 H 0.73712 0.32091 0.66113 0.0
H269 H 0.74929 0.34955 0.71382 0.0
H270 H 0.72262 0.39725 0.61792 0.0
H271 H 0.70972 0.36847 0.56514 0.0
H272 H 0.77683 0.38285 0.69958 0.0
H273 H 0.69471 0.41312 0.74377 0.0
H274 H 0.69899 0.38812 0.71237 0.0
H275 H 0.70163 0.41344 0.6815 0.0
C276 C 0.73381 0.33747 0.65101 0.0
C277 C 0.72227 0.34239 0.60905 0.0
C278 C 0.74085 0.35384 0.6812 0.0
C279 C 0.73666 0.3755 0.67008 0.0
C280 C 0.72564 0.3806 0.62763 0.0
H281 H 0.79635 0.47106 0.86305 0.0
H282 H 0.78688 0.45196 0.78947 0.0
C283 C 0.71835 0.36415 0.59748 0.0
C284 C 0.7435 0.39241 0.70412 0.0
H285 H 0.72394 0.42945 0.78285 0.0
C286 C 0.76534 0.39324 0.71749 0.0
C287 C 0.72839 0.40582 0.72748 0.0
C288 C 0.7046 0.40505 0.71596 0.0
C289 C 0.77235 0.40637 0.75517 0.0
C290 C 0.75716 0.41946 0.77917 0.0
C291 C 0.73552 0.4194 0.76426 0.0
C292 C 0.76283 0.43161 0.82285 0.0
C293 C 0.79567 0.40516 0.77066 0.0
C294 C 0.75209 0.42689 0.86563 0.0
C295 C 0.75712 0.43802 0.90734 0.0
C296 C 0.77316 0.45406 0.9073 0.0
C297 C 0.78389 0.45884 0.86428 0.0
C298 C 0.77866 0.4478 0.82231 0.0
H299 H 0.80403 0.39092 0.75533 0.0
H300 H 0.80424 0.41986 0.75833 0.0
H301 H 0.79698 0.40436 0.8102 0.0
H302 H 0.73975 0.41451 0.86677 0.0
H303 H 0.74813 0.43428 0.93944 0.0
H304 H 0.62417 0.29414 0.41094 0.0
H305 H 0.59424 0.282 0.36035 0.0
H306 H 0.63584 0.23468 0.29543 0.0
H307 H 0.66562 0.24638 0.34573 0.0
H308 H 0.5938 0.28285 0.2611 0.0
H309 H 0.58217 0.19937 0.32652 0.0
H310 H 0.59681 0.21945 0.3602 0.0
H311 H 0.60983 0.20501 0.31256 0.0
C312 C 0.62689 0.28099 0.38626 0.0
C313 C 0.64734 0.27128 0.38238 0.0
C314 C 0.60976 0.27406 0.35749 0.0
C315 C 0.61275 0.25719 0.32484 0.0
C316 C 0.63305 0.24736 0.32124 0.0
H317 H 0.56156 0.20196 0.07412 0.0
H318 H 0.58053 0.21155 0.14785 0.0
C319 C 0.65013 0.25426 0.34978 0.0
C320 C 0.59538 0.25093 0.29137 0.0
H321 H 0.56867 0.2071 0.24735 0.0
C322 C 0.58791 0.26641 0.25865 0.0
C323 C 0.5878 0.22945 0.28836 0.0
C324 C 0.59441 0.21242 0.32412 0.0
C325 C 0.57407 0.26069 0.22109 0.0
C326 C 0.5673 0.23899 0.21678 0.0
C327 C 0.57398 0.2237 0.25075 0.0
C328 C 0.55475 0.23159 0.175 0.0
C329 C 0.56775 0.27763 0.18481 0.0
C330 C 0.53379 0.23925 0.16665 0.0
C331 C 0.52298 0.23392 0.12446 0.0
C332 C 0.53297 0.22076 0.09009 0.0
C333 C 0.5536 0.21235 0.09967 0.0
C334 C 0.56437 0.21769 0.14183 0.0
H335 H 0.57739 0.29264 0.18866 0.0
H336 H 0.56984 0.2714 0.14794 0.0
H337 H 0.55048 0.28182 0.18955 0.0
H338 H 0.52604 0.24982 0.19217 0.0
H339 H 0.50718 0.24079 0.11794 0.0
H340 H 0.23958 0.16544 0.84733 0.0
H341 H 0.25159 0.13537 0.79869 0.0
H342 H 0.21189 0.09184 0.88063 0.0
H343 H 0.19935 0.12209 0.92964 0.0
H344 H 0.27265 0.09683 0.8255 0.0
H345 H 0.19235 0.08209 0.74153 0.0
H346 H 0.1982 0.1064 0.77444 0.0
H347 H 0.19362 0.0815 0.80571 0.0
C348 C 0.23332 0.14952 0.85526 0.0
C349 C 0.21831 0.14625 0.89224 0.0
C350 C 0.24031 0.13232 0.82745 0.0
C351 C 0.2325 0.11147 0.83586 0.0
C352 C 0.21787 0.10792 0.87325 0.0
H353 H 0.25426 0.00647 0.63283 0.0
H354 H 0.24565 0.02441 0.70822 0.0
C355 C 0.21077 0.1252 0.90122 0.0
C356 C 0.23939 0.09384 0.80395 0.0
H357 H 0.22169 0.06245 0.71201 0.0
C358 C 0.26149 0.08903 0.80114 0.0
C359 C 0.22475 0.0837 0.7724 0.0
C360 C 0.20091 0.08869 0.7732 0.0
C361 C 0.26946 0.07499 0.7662 0.0
C362 C 0.25496 0.06579 0.73304 0.0
C363 C 0.23274 0.06961 0.73755 0.0
C364 C 0.26253 0.0539 0.69062 0.0
C365 C 0.29337 0.07052 0.76435 0.0
C366 C 0.27501 0.06453 0.65604 0.0
C367 C 0.27997 0.05435 0.61305 0.0
C368 C 0.27246 0.03339 0.60388 0.0
C369 C 0.26051 0.02253 0.6392 0.0
C370 C 0.25549 0.03276 0.68214 0.0
H371 H 0.3011 0.07308 0.79974 0.0
H372 H 0.29664 0.05375 0.75249 0.0
H373 H 0.301 0.08176 0.73851 0.0
H374 H 0.28022 0.08102 0.66155 0.0
H375 H 0.28928 0.06304 0.58655 0.0
H376 H 0.36228 0.69408 0.38475 0.0
H377 H 0.38985 0.70666 0.32857 0.0
H378 H 0.35467 0.76613 0.30862 0.0
H379 H 0.32685 0.75342 0.36325 0.0
H380 H 0.36329 0.74756 0.22603 0.0
H381 H 0.43811 0.75041 0.33462 0.0
H382 H 0.42482 0.72472 0.33729 0.0
H383 H 0.41164 0.74822 0.36103 0.0
C384 C 0.36064 0.70996 0.36888 0.0
C385 C 0.34232 0.72266 0.37788 0.0
C386 C 0.37647 0.7172 0.33711 0.0
C387 C 0.37441 0.73743 0.31479 0.0
C388 C 0.35657 0.75047 0.32544 0.0
H389 H 0.46563 0.79828 0.11799 0.0
H390 H 0.44395 0.78942 0.18884 0.0
C391 C 0.34065 0.74314 0.3565 0.0
C392 C 0.38941 0.74412 0.27647 0.0
H393 H 0.4425 0.75231 0.24958 0.0
C394 C 0.38059 0.74878 0.23139 0.0
C395 C 0.41194 0.74591 0.28361 0.0
C396 C 0.42219 0.74226 0.33189 0.0
C397 C 0.39368 0.75477 0.19297 0.0
C398 C 0.41629 0.75554 0.19944 0.0
C399 C 0.42516 0.75144 0.24474 0.0
C400 C 0.43083 0.76004 0.15894 0.0
C401 C 0.38314 0.76032 0.14581 0.0
C402 C 0.43099 0.74613 0.11954 0.0
C403 C 0.44312 0.75122 0.07925 0.0
C404 C 0.45549 0.77019 0.07786 0.0
C405 C 0.45615 0.78361 0.11822 0.0
C406 C 0.44383 0.77857 0.15856 0.0
H407 H 0.36594 0.76488 0.15043 0.0
H408 H 0.39167 0.77382 0.1278 0.0
H409 H 0.38374 0.74603 0.12204 0.0
H410 H 0.42141 0.73152 0.11966 0.0
H411 H 0.44275 0.74034 0.04902 0.0
H412 H 0.78602 0.86871 0.934 0.0
H413 H 0.77344 0.89925 0.88569 0.0
H414 H 0.74715 0.85509 0.78191 0.0
H415 H 0.75909 0.82463 0.83015 0.0
H416 H 0.78442 0.9107 0.79738 0.0
H417 H 0.6969 0.89509 0.80003 0.0
H418 H 0.71534 0.88177 0.84052 0.0
H419 H 0.71104 0.8714 0.78112 0.0
C420 C 0.77745 0.86552 0.901 0.0
C421 C 0.77348 0.84422 0.88604 0.0
C422 C 0.77021 0.88298 0.87358 0.0
C423 C 0.75888 0.87944 0.83085 0.0
C424 C 0.7552 0.85821 0.81558 0.0
H425 H 0.75545 0.94144 0.56762 0.0
H426 H 0.76361 0.92377 0.64317 0.0
C427 C 0.76225 0.8408 0.84303 0.0
C428 C 0.75218 0.89771 0.80005 0.0
H429 H 0.7102 0.91532 0.73135 0.0
C430 C 0.76807 0.91204 0.78373 0.0
C431 C 0.73074 0.89988 0.78322 0.0
C432 C 0.71251 0.88634 0.80264 0.0
C433 C 0.76349 0.92726 0.74802 0.0
C434 C 0.74264 0.92771 0.72734 0.0
C435 C 0.7263 0.91468 0.74655 0.0
C436 C 0.73812 0.93963 0.68255 0.0
C437 C 0.7812 0.94229 0.73194 0.0
C438 C 0.72063 0.95397 0.67913 0.0
C439 C 0.71557 0.96377 0.63543 0.0
C440 C 0.72784 0.95922 0.59445 0.0
C441 C 0.74546 0.94504 0.59829 0.0
C442 C 0.75041 0.93521 0.64173 0.0
H443 H 0.79257 0.94576 0.7617 0.0
H444 H 0.79056 0.93447 0.70301 0.0
H445 H 0.7746 0.95778 0.71826 0.0
H446 H 0.71078 0.95738 0.71013 0.0
H447 H 0.70181 0.97451 0.63347 0.0
H448 H 0.82388 0.74462 0.85194 0.0
H449 H 0.85214 0.73301 0.79769 0.0
H450 H 0.8949 0.78152 0.85425 0.0
H451 H 0.86655 0.79344 0.90936 0.0
H452 H 0.87141 0.76364 0.72957 0.0
H453 H 0.93096 0.72314 0.8495 0.0
H454 H 0.90291 0.72611 0.86573 0.0
H455 H 0.92045 0.74909 0.86679 0.0
C456 C 0.8393 0.75281 0.85334 0.0
C457 C 0.84285 0.77014 0.88477 0.0
C458 C 0.85546 0.74605 0.82237 0.0
C459 C 0.87554 0.75635 0.82226 0.0
C460 C 0.87951 0.77324 0.85435 0.0
H461 H 0.98052 0.73781 0.61979 0.0
H462 H 0.9597 0.7479 0.69056 0.0
C463 C 0.86328 0.78007 0.88558 0.0
C464 C 0.89142 0.75044 0.7854 0.0
H465 H 0.93873 0.72355 0.76694 0.0
C466 C 0.8862 0.75497 0.73769 0.0
C467 C 0.91068 0.7393 0.79643 0.0
C468 C 0.9167 0.73396 0.84732 0.0
C469 C 0.89959 0.74832 0.70039 0.0
C470 C 0.91846 0.73643 0.71116 0.0
C471 C 0.92409 0.73247 0.75899 0.0
C472 C 0.93227 0.72791 0.67272 0.0
C473 C 0.89343 0.75408 0.64971 0.0
C474 C 0.924 0.7127 0.64049 0.0
C475 C 0.9358 0.70691 0.60014 0.0
C476 C 0.95614 0.71614 0.59164 0.0
C477 C 0.96495 0.73033 0.62562 0.0
C478 C 0.95308 0.73617 0.66593 0.0
H479 H 0.88172 0.76765 0.64843 0.0
H480 H 0.90787 0.75859 0.62851 0.0
H481 H 0.88578 0.73989 0.6325 0.0
H482 H 0.90807 0.70591 0.64568 0.0
H483 H 0.92879 0.6957 0.57488 0.0
H484 H 0.74351 0.32149 0.33812 0.0
H485 H 0.75556 0.34966 0.28384 0.0
H486 H 0.71152 0.39472 0.34867 0.0
H487 H 0.69927 0.36651 0.40397 0.0
H488 H 0.72698 0.37177 0.21963 0.0
H489 H 0.7707 0.42741 0.34227 0.0
H490 H 0.76532 0.3996 0.35769 0.0
H491 H 0.74395 0.41909 0.35922 0.0
C492 C 0.73638 0.33739 0.34128 0.0
C493 C 0.72027 0.34167 0.37533 0.0
C494 C 0.74338 0.35348 0.31022 0.0
C495 C 0.73454 0.37424 0.31256 0.0
C496 C 0.71874 0.37883 0.34687 0.0
H497 H 0.75454 0.48062 0.11325 0.0
H498 H 0.74433 0.45952 0.18375 0.0
C499 C 0.71168 0.36266 0.37818 0.0
C500 C 0.741 0.39042 0.27655 0.0
H501 H 0.7694 0.43709 0.26058 0.0
C502 C 0.73617 0.38611 0.22857 0.0
C503 C 0.75287 0.40911 0.28857 0.0
C504 C 0.75869 0.41415 0.33967 0.0
C505 C 0.7432 0.39982 0.19203 0.0
C506 C 0.75568 0.41814 0.2038 0.0
C507 C 0.75999 0.42288 0.25187 0.0
C508 C 0.76451 0.43223 0.16606 0.0
C509 C 0.73723 0.3946 0.14102 0.0
C510 C 0.77987 0.42413 0.13406 0.0
C511 C 0.78577 0.43612 0.09393 0.0
C512 C 0.77645 0.45644 0.08531 0.0
C513 C 0.76213 0.46509 0.11916 0.0
C514 C 0.75621 0.45305 0.15932 0.0
H515 H 0.72359 0.38301 0.13903 0.0
H516 H 0.73274 0.40947 0.12108 0.0
H517 H 0.75133 0.38722 0.12295 0.0
H518 H 0.78663 0.40816 0.13916 0.0
H519 H 0.79708 0.42921 0.06878 0.0
H520 H 0.12153 0.20633 0.93206 0.0
H521 H 0.0922 0.21893 0.87997 0.0
H522 H 0.13894 0.24373 0.77996 0.0
H523 H 0.16811 0.23179 0.83178 0.0
H524 H 0.10648 0.2724 0.79708 0.0
H525 H 0.07363 0.19101 0.75503 0.0
H526 H 0.07475 0.19808 0.8172 0.0
H527 H 0.09934 0.19468 0.78421 0.0
C528 C 0.12552 0.21442 0.89889 0.0
C529 C 0.14717 0.21799 0.88603 0.0
C530 C 0.10875 0.22155 0.86916 0.0
C531 C 0.11342 0.23208 0.82592 0.0
C532 C 0.13498 0.2357 0.81325 0.0
H533 H 0.05437 0.24567 0.55789 0.0
H534 H 0.07331 0.23615 0.63124 0.0
C535 C 0.15165 0.22879 0.84295 0.0
C536 C 0.09617 0.2393 0.79292 0.0
H537 H 0.05797 0.22056 0.71554 0.0
C538 C 0.09564 0.26115 0.77963 0.0
C539 C 0.08216 0.22451 0.77022 0.0
C540 C 0.0825 0.20073 0.78198 0.0
C541 C 0.0823 0.26846 0.74243 0.0
C542 C 0.06871 0.25356 0.71884 0.0
C543 C 0.06841 0.23192 0.73384 0.0
C544 C 0.05658 0.25947 0.67511 0.0
C545 C 0.08388 0.29175 0.72685 0.0
C546 C 0.04079 0.2757 0.67545 0.0
C547 C 0.03022 0.28155 0.63314 0.0
C548 C 0.03512 0.27108 0.58995 0.0
C549 C 0.0506 0.25448 0.59018 0.0
C550 C 0.06124 0.2488 0.63224 0.0
H551 H 0.09826 0.29989 0.74224 0.0
H552 H 0.08469 0.293 0.68731 0.0
H553 H 0.06932 0.30058 0.73897 0.0
H554 H 0.03669 0.28388 0.70834 0.0
H555 H 0.0184 0.29441 0.63417 0.0
H556 H 0.24006 0.66597 0.36123 0.0
H557 H 0.22766 0.63764 0.30759 0.0
H558 H 0.28633 0.60191 0.33348 0.0
H559 H 0.29863 0.63002 0.38851 0.0
H560 H 0.24752 0.62769 0.22671 0.0
H561 H 0.24156 0.55441 0.33971 0.0
H562 H 0.24362 0.5812 0.36455 0.0
H563 H 0.26737 0.56738 0.344 0.0
C564 C 0.25024 0.65196 0.356 0.0
C565 C 0.27043 0.6503 0.3787 0.0
C566 C 0.24307 0.63574 0.32552 0.0
C567 C 0.25597 0.61759 0.31687 0.0
C568 C 0.27588 0.61554 0.3405 0.0
H569 H 0.25975 0.54561 0.05753 0.0
H570 H 0.26661 0.56739 0.12853 0.0
C571 C 0.28298 0.63169 0.3716 0.0
C572 C 0.24963 0.60221 0.27907 0.0
H573 H 0.24156 0.54884 0.25479 0.0
C574 C 0.24599 0.61048 0.23305 0.0
C575 C 0.24744 0.5798 0.28749 0.0
C576 C 0.24999 0.57018 0.33673 0.0
C577 C 0.2408 0.59693 0.19489 0.0
C578 C 0.23973 0.57443 0.20274 0.0
C579 C 0.24267 0.56612 0.24896 0.0
C580 C 0.23634 0.55943 0.16263 0.0
C581 C 0.23657 0.60681 0.1464 0.0
C582 C 0.2174 0.54714 0.15936 0.0
C583 C 0.21343 0.53463 0.11875 0.0
C584 C 0.22838 0.53436 0.08106 0.0
C585 C 0.24775 0.54594 0.0856 0.0
C586 C 0.25172 0.5583 0.12612 0.0
H587 H 0.23234 0.62419 0.14912 0.0
H588 H 0.25134 0.60546 0.12428 0.0
H589 H 0.22328 0.59828 0.12765 0.0
H590 H 0.2054 0.54781 0.18741 0.0
H591 H 0.1984 0.5258 0.11607 0.0
H592 H 0.32135 0.74487 0.64881 0.0
H593 H 0.3498 0.7563 0.7032 0.0
H594 H 0.39469 0.71344 0.63409 0.0
H595 H 0.36626 0.70182 0.57886 0.0
H596 H 0.37259 0.72621 0.76439 0.0
H597 H 0.42703 0.77292 0.6444 0.0
H598 H 0.39907 0.76791 0.62969 0.0
H599 H 0.4185 0.74659 0.62491 0.0
C600 C 0.33728 0.73792 0.64471 0.0
C601 C 0.34146 0.7223 0.60953 0.0
C602 C 0.35353 0.74455 0.67583 0.0
C603 C 0.37431 0.73583 0.67231 0.0
C604 C 0.37877 0.72056 0.63681 0.0
H605 H 0.48194 0.75418 0.87049 0.0
H606 H 0.46072 0.74435 0.79967 0.0
C607 C 0.36247 0.71386 0.60553 0.0
C608 C 0.39066 0.74168 0.70839 0.0
H609 H 0.43723 0.77008 0.72557 0.0
C610 C 0.38678 0.73571 0.75591 0.0
C611 C 0.40919 0.75391 0.69691 0.0
C612 C 0.41378 0.76088 0.64629 0.0
C613 C 0.40076 0.74199 0.79261 0.0
C614 C 0.41886 0.7549 0.7815 0.0
C615 C 0.4232 0.76032 0.73379 0.0
C616 C 0.43292 0.76336 0.81968 0.0
C617 C 0.39599 0.73483 0.8431 0.0
C618 C 0.42453 0.77793 0.85305 0.0
C619 C 0.43653 0.78354 0.8933 0.0
C620 C 0.45717 0.77475 0.90063 0.0
C621 C 0.46611 0.76127 0.86553 0.0
C622 C 0.45403 0.7556 0.82523 0.0
H623 H 0.38478 0.72085 0.84397 0.0
H624 H 0.41107 0.73034 0.86222 0.0
H625 H 0.38832 0.74833 0.86275 0.0
H626 H 0.40835 0.7843 0.84887 0.0
H627 H 0.42941 0.79421 0.9195 0.0
H628 H 0.738 0.82722 0.12344 0.0
H629 H 0.72527 0.85482 0.1784 0.0
H630 H 0.78663 0.88738 0.16856 0.0
H631 H 0.79935 0.86001 0.11225 0.0
H632 H 0.74267 0.86132 0.26412 0.0
H633 H 0.74488 0.93764 0.16067 0.0
H634 H 0.7463 0.91147 0.13263 0.0
H635 H 0.76998 0.92321 0.15926 0.0
C636 C 0.74873 0.8404 0.13246 0.0
C637 C 0.76977 0.84135 0.11393 0.0
C638 C 0.74138 0.85621 0.1637 0.0
C639 C 0.75493 0.87323 0.17728 0.0
C640 C 0.77573 0.87464 0.15773 0.0
H641 H 0.7548 0.93922 0.44417 0.0
H642 H 0.7616 0.91744 0.3733 0.0
C643 C 0.78304 0.85891 0.12587 0.0
C644 C 0.74807 0.88794 0.21589 0.0
H645 H 0.74208 0.94097 0.24591 0.0
C646 C 0.74232 0.87872 0.2599 0.0
C647 C 0.7474 0.91062 0.21018 0.0
C648 C 0.75226 0.92133 0.16298 0.0
C649 C 0.73652 0.89157 0.29881 0.0
C650 C 0.73696 0.91425 0.29389 0.0
C651 C 0.742 0.92354 0.24954 0.0
C652 C 0.7332 0.92842 0.33529 0.0
C653 C 0.73007 0.88074 0.345 0.0
C654 C 0.71528 0.94222 0.33665 0.0
C655 C 0.71129 0.95468 0.37728 0.0
C656 C 0.72523 0.95347 0.41692 0.0
C657 C 0.74349 0.94007 0.41466 0.0
C658 C 0.74746 0.9277 0.37418 0.0
H659 H 0.72487 0.86379 0.33913 0.0
H660 H 0.74411 0.8805 0.36966 0.0
H661 H 0.71674 0.88964 0.36264 0.0
H662 H 0.70416 0.94299 0.30677 0.0
H663 H 0.69712 0.9649 0.3781 0.0
H664 H 0.67047 0.24769 0.64905 0.0
H665 H 0.64292 0.23732 0.70638 0.0
H666 H 0.59924 0.28425 0.64608 0.0
H667 H 0.62684 0.29489 0.5879 0.0
H668 H 0.62384 0.26831 0.77235 0.0
H669 H 0.56371 0.22629 0.6572 0.0
H670 H 0.59154 0.22961 0.63958 0.0
H671 H 0.5735 0.25221 0.63769 0.0
C672 C 0.65499 0.25578 0.64748 0.0
C673 C 0.65094 0.27227 0.61395 0.0
C674 C 0.63925 0.24976 0.68031 0.0
C675 C 0.6191 0.25995 0.68018 0.0
C676 C 0.61468 0.27605 0.64623 0.0
H677 H 0.51287 0.24328 0.88027 0.0
H678 H 0.53491 0.25342 0.81133 0.0
C679 C 0.63049 0.28216 0.61321 0.0
C680 C 0.60346 0.25457 0.71801 0.0
H681 H 0.55591 0.22862 0.73952 0.0
C682 C 0.60893 0.25971 0.76524 0.0
C683 C 0.58404 0.24349 0.7083 0.0
C684 C 0.57776 0.23741 0.65803 0.0
C685 C 0.59556 0.25383 0.80333 0.0
C686 C 0.57647 0.2421 0.79389 0.0
C687 C 0.57068 0.23745 0.74651 0.0
C688 C 0.56252 0.23441 0.83307 0.0
C689 C 0.60194 0.26035 0.85335 0.0
C690 C 0.57059 0.21986 0.86721 0.0
C691 C 0.55807 0.21402 0.90654 0.0
C692 C 0.5372 0.2225 0.9121 0.0
C693 C 0.52883 0.23634 0.87671 0.0
C694 C 0.5414 0.24222 0.83744 0.0
H695 H 0.61364 0.27393 0.85317 0.0
H696 H 0.5876 0.26518 0.8745 0.0
H697 H 0.60971 0.24643 0.87156 0.0
H698 H 0.58673 0.21334 0.86385 0.0
H699 H 0.56479 0.20308 0.93288 0.0
H700 H 0.25145 0.16637 0.13666 0.0
H701 H 0.26353 0.13923 0.19395 0.0
H702 H 0.20409 0.10412 0.17421 0.0
H703 H 0.1921 0.13098 0.11559 0.0
H704 H 0.24471 0.13095 0.27679 0.0
H705 H 0.24767 0.05574 0.17046 0.0
H706 H 0.24566 0.0821 0.14323 0.0
H707 H 0.22202 0.06909 0.16686 0.0
C708 C 0.24103 0.15274 0.14404 0.0
C709 C 0.22075 0.15088 0.12181 0.0
C710 C 0.248 0.13721 0.17669 0.0
C711 C 0.23482 0.11954 0.18805 0.0
C712 C 0.21475 0.11735 0.16517 0.0
H713 H 0.23773 0.05155 0.4565 0.0
H714 H 0.22898 0.07351 0.38646 0.0
C715 C 0.20785 0.13279 0.13194 0.0
C716 C 0.24129 0.10468 0.22705 0.0
H717 H 0.24913 0.05164 0.25555 0.0
C718 C 0.24584 0.11362 0.27197 0.0
C719 C 0.243 0.08211 0.22062 0.0
C720 C 0.23954 0.07169 0.17256 0.0
C721 C 0.25163 0.10062 0.31089 0.0
C722 C 0.25232 0.07797 0.30509 0.0
C723 C 0.2483 0.069 0.25995 0.0
C724 C 0.2569 0.06346 0.34588 0.0
C725 C 0.25717 0.1113 0.35776 0.0
C726 C 0.27503 0.04989 0.34544 0.0
C727 C 0.28 0.0372 0.38537 0.0
C728 C 0.26691 0.03798 0.42627 0.0
C729 C 0.24837 0.05103 0.42587 0.0
C730 C 0.24335 0.06355 0.38592 0.0
H731 H 0.26192 0.12844 0.35262 0.0
H732 H 0.24281 0.11099 0.38135 0.0
H733 H 0.27054 0.10272 0.37623 0.0
H734 H 0.28561 0.04953 0.31469 0.0
H735 H 0.29437 0.02725 0.38479 0.0
H736 H 0.21227 0.28517 0.91584 0.0
H737 H 0.2088 0.32443 0.91248 0.0
H738 H 0.20424 0.32677 0.06603 0.0
H739 H 0.20758 0.28754 0.07005 0.0
H740 H 0.17287 0.35318 0.0122 0.0
H741 H 0.25854 0.36523 0.95871 0.0
H742 H 0.24308 0.34649 0.92359 0.0
H743 H 0.24902 0.34036 0.98493 0.0
C744 C 0.21049 0.29399 0.94896 0.0
C745 C 0.21041 0.2832 0.99328 0.0
C746 C 0.20851 0.3164 0.94689 0.0
C747 C 0.20643 0.32836 0.98902 0.0
C748 C 0.20585 0.3177 0.03318 0.0
H749 H 0.23223 0.45989 0.05336 0.0
H750 H 0.22787 0.4208 0.05149 0.0
C751 C 0.20788 0.29531 0.03535 0.0
C752 C 0.20571 0.35211 0.98737 0.0
H753 H 0.2369 0.39629 0.96533 0.0
C754 C 0.18677 0.36267 0.00169 0.0
C755 C 0.22399 0.36427 0.97396 0.0
C756 C 0.24491 0.35361 0.95972 0.0
C757 C 0.18572 0.38528 0.00324 0.0
C758 C 0.20405 0.3974 0.99001 0.0
C759 C 0.22288 0.38682 0.97523 0.0
C760 C 0.20462 0.42109 0.99378 0.0
C761 C 0.16534 0.39607 0.02028 0.0
C762 C 0.19273 0.43409 0.96222 0.0
C763 C 0.19509 0.45652 0.96334 0.0
C764 C 0.20938 0.46615 0.99606 0.0
C765 C 0.22081 0.453 0.02834 0.0
C766 C 0.21847 0.43067 0.02712 0.0
H767 H 0.15371 0.38433 0.03565 0.0
H768 H 0.16918 0.40844 0.04766 0.0
H769 H 0.15745 0.40441 0.98976 0.0
H770 H 0.18214 0.42688 0.9359 0.0
H771 H 0.18604 0.46629 0.93818 0.0
H772 H 0.20379 0.70994 0.56639 0.0
H773 H 0.16457 0.70621 0.56442 0.0
H774 H 0.16513 0.7124 0.41097 0.0
H775 H 0.20434 0.71629 0.41233 0.0
H776 H 0.13503 0.73938 0.45864 0.0
H777 H 0.12897 0.65382 0.51665 0.0
H778 H 0.14545 0.67053 0.55434 0.0
H779 H 0.15364 0.66543 0.49389 0.0
C780 C 0.19563 0.71047 0.53215 0.0
C781 C 0.20724 0.71343 0.4895 0.0
C782 C 0.17323 0.70817 0.53112 0.0
C783 C 0.1621 0.70873 0.48751 0.0
C784 C 0.17354 0.71178 0.44493 0.0
H785 H 0.02514 0.68292 0.44208 0.0
H786 H 0.06468 0.68229 0.43701 0.0
C787 C 0.19594 0.71402 0.44585 0.0
C788 C 0.13836 0.70714 0.48655 0.0
H789 H 0.09629 0.6741 0.51529 0.0
C790 C 0.12654 0.72507 0.47068 0.0
C791 C 0.12744 0.68834 0.50183 0.0
C792 C 0.13949 0.66833 0.51726 0.0
C793 C 0.10395 0.72495 0.47107 0.0
C794 C 0.09304 0.70648 0.48815 0.0
C795 C 0.10482 0.68828 0.50261 0.0
C796 C 0.06936 0.70609 0.49244 0.0
C797 C 0.09188 0.74457 0.4534 0.0
C798 C 0.05915 0.7194 0.52585 0.0
C799 C 0.03671 0.71979 0.52885 0.0
C800 C 0.02415 0.70683 0.49847 0.0
C801 C 0.03447 0.69318 0.46563 0.0
C802 C 0.05697 0.69273 0.46283 0.0
H803 H 0.10235 0.75537 0.4318 0.0
H804 H 0.07773 0.73977 0.43147 0.0
H805 H 0.08588 0.75386 0.4845 0.0
H806 H 0.06855 0.72967 0.54924 0.0
H807 H 0.0292 0.73065 0.55409 0.0
H808 H 0.77915 0.70535 0.91787 0.0
H809 H 0.78159 0.66597 0.91682 0.0
H810 H 0.77934 0.66456 0.07072 0.0
H811 H 0.77677 0.70385 0.07242 0.0
H812 H 0.81359 0.6387 0.96395 0.0
H813 H 0.72955 0.62413 0.02548 0.0
H814 H 0.73826 0.64974 0.00145 0.0
H815 H 0.74521 0.64229 0.06158 0.0
C816 C 0.77911 0.6967 0.95154 0.0
C817 C 0.7776 0.70777 0.99523 0.0
C818 C 0.78058 0.67423 0.95081 0.0
C819 C 0.78042 0.66249 0.99365 0.0
C820 C 0.7792 0.67342 0.03729 0.0
H821 H 0.81017 0.52719 0.04276 0.0
H822 H 0.81052 0.56677 0.04219 0.0
C823 C 0.77778 0.69587 0.03812 0.0
C824 C 0.7814 0.63874 0.99273 0.0
H825 H 0.75226 0.5936 0.01878 0.0
C826 C 0.80021 0.62878 0.97586 0.0
C827 C 0.76381 0.62601 0.00798 0.0
C828 C 0.74297 0.63601 0.02481 0.0
C829 C 0.80197 0.60623 0.97429 0.0
C830 C 0.78451 0.59351 0.99034 0.0
C831 C 0.76564 0.6035 0.00681 0.0
C832 C 0.78517 0.56975 0.98927 0.0
C833 C 0.82228 0.59617 0.95481 0.0
C834 C 0.77066 0.55849 0.9601 0.0
C835 C 0.77033 0.53602 0.96057 0.0
C836 C 0.78446 0.52442 0.99044 0.0
C837 C 0.79908 0.53575 0.01951 0.0
C838 C 0.79942 0.55828 0.01892 0.0
H839 H 0.83229 0.60805 0.935 0.0
H840 H 0.83205 0.58969 0.98487 0.0
H841 H 0.81834 0.58254 0.93063 0.0
H842 H 0.75943 0.56714 0.9373 0.0
H843 H 0.75863 0.52773 0.93843 0.0
H844 H 0.78774 0.28158 0.56631 0.0
H845 H 0.82684 0.28575 0.56386 0.0
H846 H 0.82538 0.2825 0.41003 0.0
H847 H 0.7862 0.27811 0.41188 0.0
H848 H 0.85606 0.25543 0.45297 0.0
H849 H 0.86171 0.33907 0.52211 0.0
H850 H 0.84588 0.32136 0.55887 0.0
H851 H 0.83688 0.32775 0.49939 0.0
C852 C 0.79566 0.2818 0.53187 0.0
C853 C 0.78379 0.27951 0.48927 0.0
C854 C 0.818 0.28437 0.53058 0.0
C855 C 0.82886 0.2848 0.48675 0.0
C856 C 0.81718 0.28238 0.44417 0.0
H857 H 0.96594 0.31312 0.45059 0.0
H858 H 0.92644 0.31412 0.44477 0.0
C859 C 0.79481 0.27984 0.44536 0.0
C860 C 0.85258 0.28666 0.48563 0.0
H861 H 0.8945 0.31873 0.52029 0.0
C862 C 0.86449 0.26935 0.46725 0.0
C863 C 0.86343 0.30496 0.50379 0.0
C864 C 0.85134 0.32445 0.52175 0.0
C865 C 0.88707 0.2695 0.46815 0.0
C866 C 0.8979 0.28733 0.48849 0.0
C867 C 0.88604 0.30501 0.50524 0.0
C868 C 0.92155 0.28753 0.49377 0.0
C869 C 0.89919 0.25057 0.44755 0.0
C870 C 0.93166 0.27258 0.52407 0.0
C871 C 0.95409 0.27195 0.52741 0.0
C872 C 0.96676 0.28633 0.50059 0.0
C873 C 0.95654 0.30173 0.47128 0.0
C874 C 0.93406 0.30238 0.46807 0.0
H875 H 0.8889 0.24092 0.42307 0.0
H876 H 0.9137 0.25607 0.42777 0.0
H877 H 0.9046 0.23987 0.47709 0.0
H878 H 0.92218 0.26119 0.5446 0.0
H879 H 0.96151 0.25976 0.54986 0.0
H880 H 0.71608 0.20444 0.57189 0.0
H881 H 0.7135 0.16511 0.57262 0.0
H882 H 0.70474 0.16501 0.41979 0.0
H883 H 0.70717 0.20435 0.41843 0.0
H884 H 0.67536 0.13749 0.47458 0.0
H885 H 0.76218 0.12544 0.51837 0.0
H886 H 0.74764 0.14352 0.55678 0.0
H887 H 0.75179 0.15062 0.49526 0.0
C888 C 0.71357 0.19611 0.53838 0.0
C889 C 0.71202 0.20757 0.49502 0.0
C890 C 0.71213 0.17365 0.53893 0.0
C891 C 0.70914 0.16229 0.49622 0.0
C892 C 0.7071 0.1736 0.45306 0.0
H893 H 0.7335 0.02858 0.43788 0.0
H894 H 0.73032 0.06783 0.4357 0.0
C895 C 0.70859 0.19606 0.4524 0.0
C896 C 0.70869 0.13852 0.49634 0.0
H897 H 0.74027 0.09432 0.51575 0.0
C898 C 0.6895 0.12798 0.48362 0.0
C899 C 0.72727 0.12634 0.50772 0.0
C900 C 0.74848 0.13698 0.51997 0.0
C901 C 0.68839 0.10539 0.48229 0.0
C902 C 0.70691 0.09322 0.49428 0.0
C903 C 0.7261 0.10379 0.5068 0.0
C904 C 0.70703 0.06945 0.49302 0.0
C905 C 0.66761 0.09468 0.46725 0.0
C906 C 0.69482 0.05746 0.52578 0.0
C907 C 0.69652 0.03499 0.52697 0.0
C908 C 0.71048 0.02425 0.49544 0.0
C909 C 0.72234 0.03636 0.46206 0.0
C910 C 0.72066 0.05877 0.46097 0.0
H911 H 0.65629 0.10627 0.45009 0.0
H912 H 0.67086 0.08128 0.44199 0.0
H913 H 0.65958 0.08775 0.49919 0.0
H914 H 0.68445 0.06551 0.55123 0.0
H915 H 0.68714 0.02604 0.55293 0.0
H916 H 0.28712 0.21579 0.0735 0.0
H917 H 0.32643 0.2135 0.07164 0.0
H918 H 0.32463 0.20597 0.91861 0.0
H919 H 0.28525 0.2081 0.91986 0.0
H920 H 0.35273 0.17627 0.96994 0.0
H921 H 0.36568 0.26236 0.01768 0.0
H922 H 0.34807 0.24755 0.05676 0.0
H923 H 0.34015 0.25234 0.9959 0.0
C924 C 0.29502 0.21364 0.03938 0.0
C925 C 0.28301 0.2123 0.99676 0.0
C926 C 0.31749 0.21238 0.03844 0.0
C927 C 0.32832 0.20981 0.99495 0.0
C928 C 0.31646 0.20803 0.95248 0.0
H929 H 0.46259 0.23357 0.93697 0.0
H930 H 0.42326 0.23143 0.93488 0.0
C931 C 0.29398 0.20933 0.9533 0.0
C932 C 0.35208 0.20927 0.99372 0.0
H933 H 0.39665 0.24012 0.01418 0.0
C934 C 0.36239 0.19019 0.97954 0.0
C935 C 0.36448 0.22758 0.00584 0.0
C936 C 0.3541 0.24871 0.01955 0.0
C937 C 0.38497 0.18887 0.97769 0.0
C938 C 0.39736 0.20706 0.99075 0.0
C939 C 0.38702 0.22619 0.00447 0.0
C940 C 0.42115 0.20685 0.98967 0.0
C941 C 0.39539 0.16821 0.96111 0.0
C942 C 0.43289 0.19363 0.02106 0.0
C943 C 0.4554 0.19471 0.02217 0.0
C944 C 0.46644 0.20909 0.99195 0.0
C945 C 0.45457 0.22208 0.9601 0.0
C946 C 0.43212 0.22099 0.95907 0.0
H947 H 0.3837 0.15752 0.94254 0.0
H948 H 0.40904 0.17167 0.93662 0.0
H949 H 0.40188 0.15936 0.99252 0.0
H950 H 0.42464 0.18285 0.04545 0.0
H951 H 0.46415 0.18446 0.0469 0.0
H952 H 0.26984 0.78984 0.56411 0.0
H953 H 0.27421 0.82903 0.56241 0.0
H954 H 0.29598 0.82564 0.41635 0.0
H955 H 0.29112 0.78657 0.41722 0.0
H956 H 0.31009 0.8536 0.54658 0.0
H957 H 0.24811 0.86978 0.40716 0.0
H958 H 0.2507 0.84392 0.43631 0.0
H959 H 0.26887 0.85136 0.38905 0.0
C960 C 0.27547 0.79744 0.53156 0.0
C961 C 0.27988 0.78513 0.49064 0.0
C962 C 0.278 0.81981 0.53068 0.0
C963 C 0.28507 0.83023 0.489 0.0
C964 C 0.28998 0.81795 0.44847 0.0
H965 H 0.30538 0.96877 0.44118 0.0
H966 H 0.30881 0.92945 0.43444 0.0
C967 C 0.28724 0.79562 0.44912 0.0
C968 C 0.28735 0.85395 0.48822 0.0
H969 H 0.26839 0.89965 0.43419 0.0
C970 C 0.30104 0.86367 0.52189 0.0
C971 C 0.27553 0.86701 0.45585 0.0
C972 C 0.25982 0.85754 0.42032 0.0
C973 C 0.30297 0.88616 0.52455 0.0
C974 C 0.29092 0.89912 0.49272 0.0
C975 C 0.27772 0.88949 0.45817 0.0
C976 C 0.2901 0.92272 0.49784 0.0
C977 C 0.31756 0.896 0.56175 0.0
C978 C 0.27834 0.93169 0.53549 0.0
C979 C 0.27602 0.95397 0.53901 0.0
C980 C 0.2856 0.96773 0.50507 0.0
C981 C 0.29766 0.95862 0.46763 0.0
C982 C 0.29977 0.93623 0.46389 0.0
H983 H 0.32879 0.88393 0.57746 0.0
H984 H 0.32711 0.90941 0.54605 0.0
H985 H 0.30757 0.9028 0.59095 0.0
H986 H 0.27048 0.92138 0.5615 0.0
H987 H 0.26618 0.96034 0.56761 0.0
H988 H 0.70218 0.76847 0.06397 0.0
H989 H 0.66303 0.77293 0.06145 0.0
H990 H 0.66765 0.80022 0.91989 0.0
H991 H 0.70673 0.79524 0.92146 0.0
H992 H 0.63849 0.809 0.05155 0.0
H993 H 0.62366 0.75308 0.90016 0.0
H994 H 0.64931 0.75455 0.93053 0.0
H995 H 0.64212 0.77451 0.88652 0.0
C996 C 0.69487 0.77534 0.03221 0.0
C997 C 0.70753 0.78128 0.99271 0.0
C998 C 0.67251 0.77792 0.03088 0.0
C999 C 0.66244 0.78657 0.99018 0.0
C1000 C 0.67506 0.793 0.95114 0.0
H1001 H 0.52551 0.81136 0.93706 0.0
H1002 H 0.56494 0.81439 0.936 0.0
C1003 C 0.6974 0.79019 0.95219 0.0
C1004 C 0.63872 0.78887 0.98887 0.0
H1005 H 0.59357 0.77256 0.92898 0.0
C1006 C 0.62867 0.80108 0.02469 0.0
C1007 C 0.62598 0.77848 0.95376 0.0
C1008 C 0.63576 0.76425 0.91582 0.0
C1009 C 0.60616 0.803 0.02657 0.0
C1010 C 0.59353 0.79251 0.99172 0.0
C1011 C 0.6035 0.78071 0.95532 0.0
C1012 C 0.56984 0.7921 0.99455 0.0
C1013 C 0.59591 0.81597 0.06597 0.0
C1014 C 0.5598 0.77855 0.02782 0.0
C1015 C 0.53742 0.77648 0.02803 0.0
C1016 C 0.52468 0.78804 0.99509 0.0
C1017 C 0.53486 0.80204 0.9625 0.0
C1018 C 0.55732 0.80392 0.96203 0.0
H1019 H 0.60793 0.82587 0.08565 0.0
H1020 H 0.58324 0.82677 0.05114 0.0
H1021 H 0.58804 0.80485 0.09171 0.0
H1022 H 0.56935 0.76909 0.05269 0.0
H1023 H 0.53019 0.76522 0.05294 0.0
loop_
_geom_bond_atom_site_label_1
_geom_bond_atom_site_label_2
_geom_bond_distance
_geom_bond_site_symmetry_2
_ccdc_geom_bond_type
Sc0 O3 2.031 . S
Sc0 O10 2.105 . S
Sc0 O13 2.105 . S
Sc0 O16 2.105 . S
Sc0 O19 2.105 . S
Sc1 O3 2.025 . S
Sc1 O11 2.110 . S
Sc1 O15 2.100 1_554 S
Sc1 O17 2.110 . S
Sc1 O21 2.100 1_554 S
Sc2 O3 2.019 1_556 S
Sc2 O12 2.105 . S
Sc2 O14 2.105 . S
Sc2 O18 2.105 . S
Sc2 O20 2.105 . S
O3 Sc0 2.031 . S
O3 Sc1 2.025 . S
O3 Sc2 2.019 1_554 S
C4 O10 1.273 . S
C4 O20 1.263 1_554 S
C5 O11 1.268 . S
C5 O19 1.268 . S
C6 O12 1.268 . S
C6 O21 1.268 . S
C7 O13 1.268 . S
C7 O17 1.268 . S
C8 O14 1.261 1_554 S
C8 O16 1.275 . S
C9 O15 1.268 . S
C9 O18 1.268 . S
O10 Sc0 2.105 . S
O10 C4 1.273 . S
O11 Sc1 2.110 . S
O11 C5 1.268 . S
O12 Sc2 2.105 . S
O12 C6 1.268 . S
O13 Sc0 2.105 . S
O13 C7 1.268 . S
O14 Sc2 2.105 . S
O14 C8 1.261 1_556 S
O15 Sc1 2.100 1_556 S
O15 C9 1.268 . S
O16 Sc0 2.105 . S
O16 C8 1.275 . S
O17 Sc1 2.110 . S
O17 C7 1.268 . S
O18 Sc2 2.105 . S
O18 C9 1.268 . S
O19 Sc0 2.105 . S
O19 C5 1.268 . S
O20 Sc2 2.105 . S
O20 C4 1.263 1_556 S
O21 Sc1 2.100 1_556 S
O21 C6 1.268 . S
Sc22 O25 2.025 . S
Sc22 O32 2.105 . S
Sc22 O35 2.105 . S
Sc22 O38 2.105 . S
Sc22 O41 2.105 . S
Sc23 O25 2.025 . S
Sc23 O33 2.105 . S
Sc23 O37 2.105 . S
Sc23 O39 2.105 . S
Sc23 O43 2.105 . S
Sc24 O25 2.025 . S
Sc24 O34 2.105 . S
Sc24 O36 2.105 . S
Sc24 O40 2.105 . S
Sc24 O42 2.105 . S
O25 Sc22 2.025 . S
O25 Sc23 2.025 . S
O25 Sc24 2.025 . S
C26 O32 1.268 . S
C26 O42 1.268 . S
C27 O33 1.268 . S
C27 O41 1.268 . S
C28 O34 1.268 . S
C28 O43 1.268 . S
C29 O35 1.268 . S
C29 O39 1.268 . S
C30 O36 1.268 . S
C30 O38 1.268 . S
C31 O37 1.268 . S
C31 O40 1.268 . S
O32 Sc22 2.105 . S
O32 C26 1.268 . S
O33 Sc23 2.105 . S
O33 C27 1.268 . S
O34 Sc24 2.105 . S
O34 C28 1.268 . S
O35 Sc22 2.105 . S
O35 C29 1.268 . S
O36 Sc24 2.105 . S
O36 C30 1.268 . S
O37 Sc23 2.105 . S
O37 C31 1.268 . S
O38 Sc22 2.105 . S
O38 C30 1.268 . S
O39 Sc23 2.105 . S
O39 C29 1.268 . S
O40 Sc24 2.105 . S
O40 C31 1.268 . S
O41 Sc22 2.105 . S
O41 C27 1.268 . S
O42 Sc24 2.105 . S
O42 C26 1.268 . S
O43 Sc23 2.105 . S
O43 C28 1.268 . S
Sc44 O47 2.019 1_556 S
Sc44 O54 2.105 . S
Sc44 O57 2.105 . S
Sc44 O60 2.105 . S
Sc44 O63 2.105 . S
Sc45 O47 2.025 . S
Sc45 O55 2.100 1_554 S
Sc45 O59 2.110 . S
Sc45 O61 2.100 1_554 S
Sc45 O65 2.110 . S
Sc46 O47 2.031 . S
Sc46 O56 2.105 . S
Sc46 O58 2.105 . S
Sc46 O62 2.105 . S
Sc46 O64 2.105 . S
O47 Sc44 2.019 1_554 S
O47 Sc45 2.025 . S
O47 Sc46 2.031 . S
C48 O54 1.263 1_554 S
C48 O64 1.273 . S
C49 O55 1.268 . S
C49 O63 1.268 . S
C50 O56 1.268 . S
C50 O65 1.268 . S
C51 O57 1.268 . S
C51 O61 1.268 . S
C52 O58 1.275 . S
C52 O60 1.261 1_554 S
C53 O59 1.268 . S
C53 O62 1.268 . S
O54 Sc44 2.105 . S
O54 C48 1.263 1_556 S
O55 Sc45 2.100 1_556 S
O55 C49 1.268 . S
O56 Sc46 2.105 . S
O56 C50 1.268 . S
O57 Sc44 2.105 . S
O57 C51 1.268 . S
O58 Sc46 2.105 . S
O58 C52 1.275 . S
O59 Sc45 2.110 . S
O59 C53 1.268 . S
O60 Sc44 2.105 . S
O60 C52 1.261 1_556 S
O61 Sc45 2.100 1_556 S
O61 C51 1.268 . S
O62 Sc46 2.105 . S
O62 C53 1.268 . S
O63 Sc44 2.105 . S
O63 C49 1.268 . S
O64 Sc46 2.105 . S
O64 C48 1.273 . S
O65 Sc45 2.110 . S
O65 C50 1.268 . S
Sc66 O69 2.025 . S
Sc66 O76 2.105 . S
Sc66 O79 2.105 . S
Sc66 O82 2.105 . S
Sc66 O85 2.105 . S
Sc67 O69 2.025 . S
Sc67 O77 2.105 . S
Sc67 O81 2.105 . S
Sc67 O83 2.105 . S
Sc67 O87 2.105 . S
Sc68 O69 2.025 . S
Sc68 O78 2.105 . S
Sc68 O80 2.105 . S
Sc68 O84 2.105 . S
Sc68 O86 2.105 . S
O69 Sc66 2.025 . S
O69 Sc67 2.025 . S
O69 Sc68 2.025 . S
C70 O76 1.268 . S
C70 O86 1.268 . S
C71 O77 1.268 . S
C71 O85 1.268 . S
C72 O78 1.268 . S
C72 O87 1.268 . S
C73 O79 1.268 . S
C73 O83 1.268 . S
C74 O80 1.268 . S
C74 O82 1.268 . S
C75 O81 1.268 . S
C75 O84 1.268 . S
O76 Sc66 2.105 . S
O76 C70 1.268 . S
O77 Sc67 2.105 . S
O77 C71 1.268 . S
O78 Sc68 2.105 . S
O78 C72 1.268 . S
O79 Sc66 2.105 . S
O79 C73 1.268 . S
O80 Sc68 2.105 . S
O80 C74 1.268 . S
O81 Sc67 2.105 . S
O81 C75 1.268 . S
O82 Sc66 2.105 . S
O82 C74 1.268 . S
O83 Sc67 2.105 . S
O83 C73 1.268 . S
O84 Sc68 2.105 . S
O84 C75 1.268 . S
O85 Sc66 2.105 . S
O85 C71 1.268 . S
O86 Sc68 2.105 . S
O86 C70 1.268 . S
O87 Sc67 2.105 . S
O87 C72 1.268 . S
H88 C91 0.931 . S
H89 C94 0.928 . S
H90 C96 0.930 . S
C91 H88 0.931 . S
C91 C92 1.403 1_556 S
C91 C93 1.370 . S
C92 C91 1.403 1_554 S
C92 C96 1.429 . S
C93 C91 1.370 . S
C93 C94 1.372 . S
C94 H89 0.928 . S
C94 C93 1.372 . S
C94 C95 1.402 . S
C95 C94 1.402 . S
C95 C96 1.392 1_556 S
C96 H90 0.930 . S
C96 C92 1.429 . S
C96 C95 1.392 1_554 S
H97 C100 0.931 . S
H98 C103 0.928 . S
H99 C105 0.932 . S
C100 H97 0.931 . S
C100 C101 1.413 . S
C100 C102 1.360 . S
C101 C100 1.413 . S
C101 C105 1.429 . S
C102 C100 1.360 . S
C102 C103 1.372 . S
C103 H98 0.928 . S
C103 C102 1.372 . S
C103 C104 1.404 1_655 S
C104 C103 1.404 1_455 S
C104 C105 1.391 1_455 S
C105 H99 0.932 . S
C105 C101 1.429 . S
C105 C104 1.391 1_655 S
H106 C109 0.931 . S
H107 C112 0.928 . S
H108 C114 0.930 . S
C109 H106 0.931 . S
C109 C110 1.413 1_554 S
C109 C111 1.360 . S
C110 C109 1.413 1_556 S
C110 C114 1.429 . S
C111 C109 1.360 . S
C111 C112 1.372 . S
C112 H107 0.928 . S
C112 C111 1.372 . S
C112 C113 1.418 . S
C113 C112 1.418 . S
C113 C114 1.376 1_554 S
C114 H108 0.930 . S
C114 C110 1.429 . S
C114 C113 1.376 1_556 S
H115 C118 0.931 . S
H116 C121 0.928 . S
H117 C123 0.937 . S
C118 H115 0.931 . S
C118 C119 1.413 . S
C118 C120 1.360 . S
C119 C118 1.413 . S
C119 C123 1.429 . S
C120 C118 1.360 . S
C120 C121 1.372 . S
C121 H116 0.928 . S
C121 C120 1.372 . S
C121 C122 1.404 1_455 S
C122 C121 1.404 1_655 S
C122 C123 1.391 1_655 S
C123 H117 0.937 . S
C123 C119 1.429 . S
C123 C122 1.391 1_455 S
H124 C127 0.931 . S
H125 C130 0.928 . S
H126 C132 0.932 . S
C127 H124 0.931 . S
C127 C128 1.413 . S
C127 C129 1.360 . S
C128 C127 1.413 . S
C128 C132 1.429 . S
C129 C127 1.360 . S
C129 C130 1.372 . S
C130 H125 0.928 . S
C130 C129 1.372 . S
C130 C131 1.404 1_565 S
C131 C130 1.404 1_545 S
C131 C132 1.391 1_545 S
C132 H126 0.932 . S
C132 C128 1.429 . S
C132 C131 1.391 1_565 S
H133 C136 0.931 . S
H134 C139 0.928 . S
H135 C141 0.930 . S
C136 H133 0.931 . S
C136 C137 1.413 1_554 S
C136 C138 1.360 . S
C137 C136 1.413 1_556 S
C137 C141 1.429 . S
C138 C136 1.360 . S
C138 C139 1.372 . S
C139 H134 0.928 . S
C139 C138 1.372 . S
C139 C140 1.418 . S
C140 C139 1.418 . S
C140 C141 1.376 1_554 S
C141 H135 0.930 . S
C141 C137 1.429 . S
C141 C140 1.376 1_556 S
H142 C145 0.931 . S
H143 C148 0.928 . S
H144 C150 0.937 . S
C145 H142 0.931 . S
C145 C146 1.413 . S
C145 C147 1.360 . S
C146 C145 1.413 . S
C146 C150 1.429 . S
C147 C145 1.360 . S
C147 C148 1.372 . S
C148 H143 0.928 . S
C148 C147 1.372 . S
C148 C149 1.404 1_545 S
C149 C148 1.404 1_565 S
C149 C150 1.391 1_565 S
C150 H144 0.937 . S
C150 C146 1.429 . S
C150 C149 1.391 1_545 S
H151 C154 0.931 . S
H152 C157 0.928 . S
H153 C159 0.930 . S
C154 H151 0.931 . S
C154 C155 1.403 1_556 S
C154 C156 1.370 . S
C155 C154 1.403 1_554 S
C155 C159 1.429 . S
C156 C154 1.370 . S
C156 C157 1.372 . S
C157 H152 0.928 . S
C157 C156 1.372 . S
C157 C158 1.402 . S
C158 C157 1.402 . S
C158 C159 1.392 1_556 S
C159 H153 0.930 . S
C159 C155 1.429 . S
C159 C158 1.392 1_554 S
H160 C168 0.929 . S
H161 C170 0.930 . S
H162 C172 0.930 . S
H163 C175 0.929 . S
H164 C178 0.930 . S
H165 C180 0.960 . S
H166 C180 0.960 . S
H167 C180 0.960 . S
C168 H160 0.929 . S
C168 C169 1.377 . S
C168 C170 1.384 . S
C169 C168 1.377 . S
C169 C175 1.390 . S
C170 H161 0.930 . S
C170 C168 1.384 . S
C170 C171 1.372 . S
C171 C170 1.372 . S
C171 C172 1.400 . S
C171 C176 1.490 . S
C172 H162 0.930 . S
C172 C171 1.400 . S
C172 C175 1.386 . S
H173 C189 0.930 . S
H174 C190 0.931 . S
C175 H163 0.929 . S
C175 C169 1.390 . S
C175 C172 1.386 . S
C176 C171 1.490 . S
C176 C178 1.395 . S
C176 C179 1.403 . S
H177 C183 0.930 . S
C178 H164 0.930 . S
C178 C176 1.395 . S
C178 C181 1.403 . S
C179 C176 1.403 . S
C179 C180 1.524 . S
C179 C183 1.400 . S
C180 H165 0.960 . S
C180 H166 0.960 . S
C180 H167 0.960 . S
C180 C179 1.524 . S
C181 C178 1.403 . S
C181 C182 1.392 . S
C181 C185 1.495 . S
C182 C181 1.392 . S
C182 C183 1.385 . S
C182 C184 1.478 . S
C183 H177 0.930 . S
C183 C179 1.400 . S
C183 C182 1.385 . S
C184 C182 1.478 . S
C184 C186 1.381 . S
C184 C190 1.383 . S
C185 C181 1.495 . S
C185 H191 0.959 . S
C185 H192 0.961 . S
C185 H193 0.960 . S
C186 C184 1.381 . S
C186 C187 1.394 . S
C186 H194 0.930 . S
C187 C186 1.394 . S
C187 C188 1.383 . S
C187 H195 0.929 . S
C188 C187 1.383 . S
C188 C189 1.377 . S
C189 H173 0.930 . S
C189 C188 1.377 . S
C189 C190 1.379 . S
C190 H174 0.931 . S
C190 C184 1.383 . S
C190 C189 1.379 . S
H191 C185 0.959 . S
H192 C185 0.961 . S
H193 C185 0.960 . S
H194 C186 0.930 . S
H195 C187 0.929 . S
H196 C204 0.929 . S
H197 C206 0.930 . S
H198 C208 0.930 . S
H199 C211 0.929 . S
H200 C214 0.930 . S
H201 C216 0.960 . S
H202 C216 0.960 . S
H203 C216 0.960 . S
C204 H196 0.929 . S
C204 C205 1.377 . S
C204 C206 1.384 . S
C205 C204 1.377 . S
C205 C211 1.390 . S
C206 H197 0.930 . S
C206 C204 1.384 . S
C206 C207 1.372 . S
C207 C206 1.372 . S
C207 C208 1.400 . S
C207 C212 1.490 . S
C208 H198 0.930 . S
C208 C207 1.400 . S
C208 C211 1.386 . S
H209 C225 0.930 . S
H210 C226 0.931 . S
C211 H199 0.929 . S
C211 C205 1.390 . S
C211 C208 1.386 . S
C212 C207 1.490 . S
C212 C214 1.395 . S
C212 C215 1.403 . S
H213 C219 0.930 . S
C214 H200 0.930 . S
C214 C212 1.395 . S
C214 C217 1.403 . S
C215 C212 1.403 . S
C215 C216 1.524 . S
C215 C219 1.400 . S
C216 H201 0.960 . S
C216 H202 0.960 . S
C216 H203 0.960 . S
C216 C215 1.524 . S
C217 C214 1.403 . S
C217 C218 1.392 . S
C217 C221 1.495 . S
C218 C217 1.392 . S
C218 C219 1.385 . S
C218 C220 1.478 . S
C219 H213 0.930 . S
C219 C215 1.400 . S
C219 C218 1.385 . S
C220 C218 1.478 . S
C220 C222 1.381 . S
C220 C226 1.383 . S
C221 C217 1.495 . S
C221 H227 0.959 . S
C221 H228 0.961 . S
C221 H229 0.960 . S
C222 C220 1.381 . S
C222 C223 1.394 . S
C222 H230 0.930 . S
C223 C222 1.394 . S
C223 C224 1.383 . S
C223 H231 0.929 . S
C224 C223 1.383 . S
C224 C225 1.377 . S
C225 H209 0.930 . S
C225 C224 1.377 . S
C225 C226 1.379 . S
C226 H210 0.931 . S
C226 C220 1.383 . S
C226 C225 1.379 . S
H227 C221 0.959 . S
H228 C221 0.961 . S
H229 C221 0.960 . S
H230 C222 0.930 . S
H231 C223 0.929 . S
H232 C240 0.929 . S
H233 C242 0.930 . S
H234 C244 0.930 . S
H235 C247 0.929 . S
H236 C250 0.930 . S
H237 C252 0.960 . S
H238 C252 0.960 . S
H239 C252 0.960 . S
C240 H232 0.929 . S
C240 C241 1.377 . S
C240 C242 1.384 . S
C241 C240 1.377 . S
C241 C247 1.390 . S
C242 H233 0.930 . S
C242 C240 1.384 . S
C242 C243 1.372 . S
C243 C242 1.372 . S
C243 C244 1.400 . S
C243 C248 1.490 . S
C244 H234 0.930 . S
C244 C243 1.400 . S
C244 C247 1.386 . S
H245 C261 0.930 . S
H246 C262 0.931 . S
C247 H235 0.929 . S
C247 C241 1.390 . S
C247 C244 1.386 . S
C248 C243 1.490 . S
C248 C250 1.395 . S
C248 C251 1.403 . S
H249 C255 0.930 . S
C250 H236 0.930 . S
C250 C248 1.395 . S
C250 C253 1.403 . S
C251 C248 1.403 . S
C251 C252 1.524 . S
C251 C255 1.400 . S
C252 H237 0.960 . S
C252 H238 0.960 . S
C252 H239 0.960 . S
C252 C251 1.524 . S
C253 C250 1.403 . S
C253 C254 1.392 . S
C253 C257 1.495 . S
C254 C253 1.392 . S
C254 C255 1.385 . S
C254 C256 1.478 . S
C255 H249 0.930 . S
C255 C251 1.400 . S
C255 C254 1.385 . S
C256 C254 1.478 . S
C256 C258 1.381 . S
C256 C262 1.383 . S
C257 C253 1.495 . S
C257 H263 0.959 . S
C257 H264 0.961 . S
C257 H265 0.960 . S
C258 C256 1.381 . S
C258 C259 1.394 . S
C258 H266 0.930 . S
C259 C258 1.394 . S
C259 C260 1.383 . S
C259 H267 0.929 . S
C260 C259 1.383 . S
C260 C261 1.377 . S
C261 H245 0.930 . S
C261 C260 1.377 . S
C261 C262 1.379 . S
C262 H246 0.931 . S
C262 C256 1.383 . S
C262 C261 1.379 . S
H263 C257 0.959 . S
H264 C257 0.961 . S
H265 C257 0.960 . S
H266 C258 0.930 . S
H267 C259 0.929 . S
H268 C276 0.929 . S
H269 C278 0.930 . S
H270 C280 0.930 . S
H271 C283 0.929 . S
H272 C286 0.930 . S
H273 C288 0.960 . S
H274 C288 0.960 . S
H275 C288 0.960 . S
C276 H268 0.929 . S
C276 C277 1.377 . S
C276 C278 1.384 . S
C277 C276 1.377 . S
C277 C283 1.390 . S
C278 H269 0.930 . S
C278 C276 1.384 . S
C278 C279 1.372 . S
C279 C278 1.372 . S
C279 C280 1.400 . S
C279 C284 1.490 . S
C280 H270 0.930 . S
C280 C279 1.400 . S
C280 C283 1.386 . S
H281 C297 0.930 . S
H282 C298 0.931 . S
C283 H271 0.929 . S
C283 C277 1.390 . S
C283 C280 1.386 . S
C284 C279 1.490 . S
C284 C286 1.395 . S
C284 C287 1.403 . S
H285 C291 0.930 . S
C286 H272 0.930 . S
C286 C284 1.395 . S
C286 C289 1.403 . S
C287 C284 1.403 . S
C287 C288 1.524 . S
C287 C291 1.400 . S
C288 H273 0.960 . S
C288 H274 0.960 . S
C288 H275 0.960 . S
C288 C287 1.524 . S
C289 C286 1.403 . S
C289 C290 1.392 . S
C289 C293 1.495 . S
C290 C289 1.392 . S
C290 C291 1.385 . S
C290 C292 1.478 . S
C291 H285 0.930 . S
C291 C287 1.400 . S
C291 C290 1.385 . S
C292 C290 1.478 . S
C292 C294 1.381 . S
C292 C298 1.383 . S
C293 C289 1.495 . S
C293 H299 0.959 . S
C293 H300 0.961 . S
C293 H301 0.960 . S
C294 C292 1.381 . S
C294 C295 1.394 . S
C294 H302 0.930 . S
C295 C294 1.394 . S
C295 C296 1.383 . S
C295 H303 0.929 . S
C296 C295 1.383 . S
C296 C297 1.377 . S
C297 H281 0.930 . S
C297 C296 1.377 . S
C297 C298 1.379 . S
C298 H282 0.931 . S
C298 C292 1.383 . S
C298 C297 1.379 . S
H299 C293 0.959 . S
H300 C293 0.961 . S
H301 C293 0.960 . S
H302 C294 0.930 . S
H303 C295 0.929 . S
H304 C312 0.929 . S
H305 C314 0.930 . S
H306 C316 0.930 . S
H307 C319 0.929 . S
H308 C322 0.930 . S
H309 C324 0.960 . S
H310 C324 0.960 . S
H311 C324 0.960 . S
C312 H304 0.929 . S
C312 C313 1.377 . S
C312 C314 1.384 . S
C313 C312 1.377 . S
C313 C319 1.390 . S
C314 H305 0.930 . S
C314 C312 1.384 . S
C314 C315 1.372 . S
C315 C314 1.372 . S
C315 C316 1.400 . S
C315 C320 1.490 . S
C316 H306 0.930 . S
C316 C315 1.400 . S
C316 C319 1.386 . S
H317 C333 0.930 . S
H318 C334 0.931 . S
C319 H307 0.929 . S
C319 C313 1.390 . S
C319 C316 1.386 . S
C320 C315 1.490 . S
C320 C322 1.395 . S
C320 C323 1.403 . S
H321 C327 0.930 . S
C322 H308 0.930 . S
C322 C320 1.395 . S
C322 C325 1.403 . S
C323 C320 1.403 . S
C323 C324 1.524 . S
C323 C327 1.400 . S
C324 H309 0.960 . S
C324 H310 0.960 . S
C324 H311 0.960 . S
C324 C323 1.524 . S
C325 C322 1.403 . S
C325 C326 1.392 . S
C325 C329 1.495 . S
C326 C325 1.392 . S
C326 C327 1.385 . S
C326 C328 1.478 . S
C327 H321 0.930 . S
C327 C323 1.400 . S
C327 C326 1.385 . S
C328 C326 1.478 . S
C328 C330 1.381 . S
C328 C334 1.383 . S
C329 C325 1.495 . S
C329 H335 0.959 . S
C329 H336 0.961 . S
C329 H337 0.960 . S
C330 C328 1.381 . S
C330 C331 1.394 . S
C330 H338 0.930 . S
C331 C330 1.394 . S
C331 C332 1.383 . S
C331 H339 0.929 . S
C332 C331 1.383 . S
C332 C333 1.377 . S
C333 H317 0.930 . S
C333 C332 1.377 . S
C333 C334 1.379 . S
C334 H318 0.931 . S
C334 C328 1.383 . S
C334 C333 1.379 . S
H335 C329 0.959 . S
H336 C329 0.961 . S
H337 C329 0.960 . S
H338 C330 0.930 . S
H339 C331 0.929 . S
H340 C348 0.929 . S
H341 C350 0.930 . S
H342 C352 0.930 . S
H343 C355 0.929 . S
H344 C358 0.930 . S
H345 C360 0.960 . S
H346 C360 0.960 . S
H347 C360 0.960 . S
C348 H340 0.929 . S
C348 C349 1.377 . S
C348 C350 1.384 . S
C349 C348 1.377 . S
C349 C355 1.390 . S
C350 H341 0.930 . S
C350 C348 1.384 . S
C350 C351 1.372 . S
C351 C350 1.372 . S
C351 C352 1.400 . S
C351 C356 1.490 . S
C352 H342 0.930 . S
C352 C351 1.400 . S
C352 C355 1.386 . S
H353 C369 0.930 . S
H354 C370 0.931 . S
C355 H343 0.929 . S
C355 C349 1.390 . S
C355 C352 1.386 . S
C356 C351 1.490 . S
C356 C358 1.395 . S
C356 C359 1.403 . S
H357 C363 0.930 . S
C358 H344 0.930 . S
C358 C356 1.395 . S
C358 C361 1.403 . S
C359 C356 1.403 . S
C359 C360 1.524 . S
C359 C363 1.400 . S
C360 H345 0.960 . S
C360 H346 0.960 . S
C360 H347 0.960 . S
C360 C359 1.524 . S
C361 C358 1.403 . S
C361 C362 1.392 . S
C361 C365 1.495 . S
C362 C361 1.392 . S
C362 C363 1.385 . S
C362 C364 1.478 . S
C363 H357 0.930 . S
C363 C359 1.400 . S
C363 C362 1.385 . S
C364 C362 1.478 . S
C364 C366 1.381 . S
C364 C370 1.383 . S
C365 C361 1.495 . S
C365 H371 0.959 . S
C365 H372 0.961 . S
C365 H373 0.960 . S
C366 C364 1.381 . S
C366 C367 1.394 . S
C366 H374 0.930 . S
C367 C366 1.394 . S
C367 C368 1.383 . S
C367 H375 0.929 . S
C368 C367 1.383 . S
C368 C369 1.377 . S
C369 H353 0.930 . S
C369 C368 1.377 . S
C369 C370 1.379 . S
C370 H354 0.931 . S
C370 C364 1.383 . S
C370 C369 1.379 . S
H371 C365 0.959 . S
H372 C365 0.961 . S
H373 C365 0.960 . S
H374 C366 0.930 . S
H375 C367 0.929 . S
H376 C384 0.929 . S
H377 C386 0.930 . S
H378 C388 0.930 . S
H379 C391 0.929 . S
H380 C394 0.930 . S
H381 C396 0.960 . S
H382 C396 0.960 . S
H383 C396 0.960 . S
C384 H376 0.929 . S
C384 C385 1.377 . S
C384 C386 1.384 . S
C385 C384 1.377 . S
C385 C391 1.390 . S
C386 H377 0.930 . S
C386 C384 1.384 . S
C386 C387 1.372 . S
C387 C386 1.372 . S
C387 C388 1.400 . S
C387 C392 1.490 . S
C388 H378 0.930 . S
C388 C387 1.400 . S
C388 C391 1.386 . S
H389 C405 0.930 . S
H390 C406 0.931 . S
C391 H379 0.929 . S
C391 C385 1.390 . S
C391 C388 1.386 . S
C392 C387 1.490 . S
C392 C394 1.395 . S
C392 C395 1.403 . S
H393 C399 0.930 . S
C394 H380 0.930 . S
C394 C392 1.395 . S
C394 C397 1.403 . S
C395 C392 1.403 . S
C395 C396 1.524 . S
C395 C399 1.400 . S
C396 H381 0.960 . S
C396 H382 0.960 . S
C396 H383 0.960 . S
C396 C395 1.524 . S
C397 C394 1.403 . S
C397 C398 1.392 . S
C397 C401 1.495 . S
C398 C397 1.392 . S
C398 C399 1.385 . S
C398 C400 1.478 . S
C399 H393 0.930 . S
C399 C395 1.400 . S
C399 C398 1.385 . S
C400 C398 1.478 . S
C400 C402 1.381 . S
C400 C406 1.383 . S
C401 C397 1.495 . S
C401 H407 0.959 . S
C401 H408 0.961 . S
C401 H409 0.960 . S
C402 C400 1.381 . S
C402 C403 1.394 . S
C402 H410 0.930 . S
C403 C402 1.394 . S
C403 C404 1.383 . S
C403 H411 0.929 . S
C404 C403 1.383 . S
C404 C405 1.377 . S
C405 H389 0.930 . S
C405 C404 1.377 . S
C405 C406 1.379 . S
C406 H390 0.931 . S
C406 C400 1.383 . S
C406 C405 1.379 . S
H407 C401 0.959 . S
H408 C401 0.961 . S
H409 C401 0.960 . S
H410 C402 0.930 . S
H411 C403 0.929 . S
H412 C420 0.929 . S
H413 C422 0.930 . S
H414 C424 0.930 . S
H415 C427 0.929 . S
H416 C430 0.930 . S
H417 C432 0.960 . S
H418 C432 0.960 . S
H419 C432 0.960 . S
C420 H412 0.929 . S
C420 C421 1.377 . S
C420 C422 1.384 . S
C421 C420 1.377 . S
C421 C427 1.390 . S
C422 H413 0.930 . S
C422 C420 1.384 . S
C422 C423 1.372 . S
C423 C422 1.372 . S
C423 C424 1.400 . S
C423 C428 1.490 . S
C424 H414 0.930 . S
C424 C423 1.400 . S
C424 C427 1.386 . S
H425 C441 0.930 . S
H426 C442 0.931 . S
C427 H415 0.929 . S
C427 C421 1.390 . S
C427 C424 1.386 . S
C428 C423 1.490 . S
C428 C430 1.395 . S
C428 C431 1.403 . S
H429 C435 0.930 . S
C430 H416 0.930 . S
C430 C428 1.395 . S
C430 C433 1.403 . S
C431 C428 1.403 . S
C431 C432 1.524 . S
C431 C435 1.400 . S
C432 H417 0.960 . S
C432 H418 0.960 . S
C432 H419 0.960 . S
C432 C431 1.524 . S
C433 C430 1.403 . S
C433 C434 1.392 . S
C433 C437 1.495 . S
C434 C433 1.392 . S
C434 C435 1.385 . S
C434 C436 1.478 . S
C435 H429 0.930 . S
C435 C431 1.400 . S
C435 C434 1.385 . S
C436 C434 1.478 . S
C436 C438 1.381 . S
C436 C442 1.383 . S
C437 C433 1.495 . S
C437 H443 0.959 . S
C437 H444 0.961 . S
C437 H445 0.960 . S
C438 C436 1.381 . S
C438 C439 1.394 . S
C438 H446 0.930 . S
C439 C438 1.394 . S
C439 C440 1.383 . S
C439 H447 0.929 . S
C440 C439 1.383 . S
C440 C441 1.377 . S
C441 H425 0.930 . S
C441 C440 1.377 . S
C441 C442 1.379 . S
C442 H426 0.931 . S
C442 C436 1.383 . S
C442 C441 1.379 . S
H443 C437 0.959 . S
H444 C437 0.961 . S
H445 C437 0.960 . S
H446 C438 0.930 . S
H447 C439 0.929 . S
H448 C456 0.929 . S
H449 C458 0.930 . S
H450 C460 0.930 . S
H451 C463 0.929 . S
H452 C466 0.930 . S
H453 C468 0.960 . S
H454 C468 0.960 . S
H455 C468 0.960 . S
C456 H448 0.929 . S
C456 C457 1.377 . S
C456 C458 1.384 . S
C457 C456 1.377 . S
C457 C463 1.390 . S
C458 H449 0.930 . S
C458 C456 1.384 . S
C458 C459 1.372 . S
C459 C458 1.372 . S
C459 C460 1.400 . S
C459 C464 1.490 . S
C460 H450 0.930 . S
C460 C459 1.400 . S
C460 C463 1.386 . S
H461 C477 0.930 . S
H462 C478 0.931 . S
C463 H451 0.929 . S
C463 C457 1.390 . S
C463 C460 1.386 . S
C464 C459 1.490 . S
C464 C466 1.395 . S
C464 C467 1.403 . S
H465 C471 0.930 . S
C466 H452 0.930 . S
C466 C464 1.395 . S
C466 C469 1.403 . S
C467 C464 1.403 . S
C467 C468 1.524 . S
C467 C471 1.400 . S
C468 H453 0.960 . S
C468 H454 0.960 . S
C468 H455 0.960 . S
C468 C467 1.524 . S
C469 C466 1.403 . S
C469 C470 1.392 . S
C469 C473 1.495 . S
C470 C469 1.392 . S
C470 C471 1.385 . S
C470 C472 1.478 . S
C471 H465 0.930 . S
C471 C467 1.400 . S
C471 C470 1.385 . S
C472 C470 1.478 . S
C472 C474 1.381 . S
C472 C478 1.383 . S
C473 C469 1.495 . S
C473 H479 0.959 . S
C473 H480 0.961 . S
C473 H481 0.960 . S
C474 C472 1.381 . S
C474 C475 1.394 . S
C474 H482 0.930 . S
C475 C474 1.394 . S
C475 C476 1.383 . S
C475 H483 0.929 . S
C476 C475 1.383 . S
C476 C477 1.377 . S
C477 H461 0.930 . S
C477 C476 1.377 . S
C477 C478 1.379 . S
C478 H462 0.931 . S
C478 C472 1.383 . S
C478 C477 1.379 . S
H479 C473 0.959 . S
H480 C473 0.961 . S
H481 C473 0.960 . S
H482 C474 0.930 . S
H483 C475 0.929 . S
H484 C492 0.929 . S
H485 C494 0.930 . S
H486 C496 0.930 . S
H487 C499 0.929 . S
H488 C502 0.930 . S
H489 C504 0.960 . S
H490 C504 0.960 . S
H491 C504 0.960 . S
C492 H484 0.929 . S
C492 C493 1.377 . S
C492 C494 1.384 . S
C493 C492 1.377 . S
C493 C499 1.390 . S
C494 H485 0.930 . S
C494 C492 1.384 . S
C494 C495 1.372 . S
C495 C494 1.372 . S
C495 C496 1.400 . S
C495 C500 1.490 . S
C496 H486 0.930 . S
C496 C495 1.400 . S
C496 C499 1.386 . S
H497 C513 0.930 . S
H498 C514 0.931 . S
C499 H487 0.929 . S
C499 C493 1.390 . S
C499 C496 1.386 . S
C500 C495 1.490 . S
C500 C502 1.395 . S
C500 C503 1.403 . S
H501 C507 0.930 . S
C502 H488 0.930 . S
C502 C500 1.395 . S
C502 C505 1.403 . S
C503 C500 1.403 . S
C503 C504 1.524 . S
C503 C507 1.400 . S
C504 H489 0.960 . S
C504 H490 0.960 . S
C504 H491 0.960 . S
C504 C503 1.524 . S
C505 C502 1.403 . S
C505 C506 1.392 . S
C505 C509 1.495 . S
C506 C505 1.392 . S
C506 C507 1.385 . S
C506 C508 1.478 . S
C507 H501 0.930 . S
C507 C503 1.400 . S
C507 C506 1.385 . S
C508 C506 1.478 . S
C508 C510 1.381 . S
C508 C514 1.383 . S
C509 C505 1.495 . S
C509 H515 0.959 . S
C509 H516 0.961 . S
C509 H517 0.960 . S
C510 C508 1.381 . S
C510 C511 1.394 . S
C510 H518 0.930 . S
C511 C510 1.394 . S
C511 C512 1.383 . S
C511 H519 0.929 . S
C512 C511 1.383 . S
C512 C513 1.377 . S
C513 H497 0.930 . S
C513 C512 1.377 . S
C513 C514 1.379 . S
C514 H498 0.931 . S
C514 C508 1.383 . S
C514 C513 1.379 . S
H515 C509 0.959 . S
H516 C509 0.961 . S
H517 C509 0.960 . S
H518 C510 0.930 . S
H519 C511 0.929 . S
H520 C528 0.929 . S
H521 C530 0.930 . S
H522 C532 0.930 . S
H523 C535 0.929 . S
H524 C538 0.930 . S
H525 C540 0.960 . S
H526 C540 0.960 . S
H527 C540 0.960 . S
C528 H520 0.929 . S
C528 C529 1.377 . S
C528 C530 1.384 . S
C529 C528 1.377 . S
C529 C535 1.390 . S
C530 H521 0.930 . S
C530 C528 1.384 . S
C530 C531 1.372 . S
C531 C530 1.372 . S
C531 C532 1.400 . S
C531 C536 1.490 . S
C532 H522 0.930 . S
C532 C531 1.400 . S
C532 C535 1.386 . S
H533 C549 0.930 . S
H534 C550 0.931 . S
C535 H523 0.929 . S
C535 C529 1.390 . S
C535 C532 1.386 . S
C536 C531 1.490 . S
C536 C538 1.395 . S
C536 C539 1.403 . S
H537 C543 0.930 . S
C538 H524 0.930 . S
C538 C536 1.395 . S
C538 C541 1.403 . S
C539 C536 1.403 . S
C539 C540 1.524 . S
C539 C543 1.400 . S
C540 H525 0.960 . S
C540 H526 0.960 . S
C540 H527 0.960 . S
C540 C539 1.524 . S
C541 C538 1.403 . S
C541 C542 1.392 . S
C541 C545 1.495 . S
C542 C541 1.392 . S
C542 C543 1.385 . S
C542 C544 1.478 . S
C543 H537 0.930 . S
C543 C539 1.400 . S
C543 C542 1.385 . S
C544 C542 1.478 . S
C544 C546 1.381 . S
C544 C550 1.383 . S
C545 C541 1.495 . S
C545 H551 0.959 . S
C545 H552 0.961 . S
C545 H553 0.960 . S
C546 C544 1.381 . S
C546 C547 1.394 . S
C546 H554 0.930 . S
C547 C546 1.394 . S
C547 C548 1.383 . S
C547 H555 0.929 . S
C548 C547 1.383 . S
C548 C549 1.377 . S
C549 H533 0.930 . S
C549 C548 1.377 . S
C549 C550 1.379 . S
C550 H534 0.931 . S
C550 C544 1.383 . S
C550 C549 1.379 . S
H551 C545 0.959 . S
H552 C545 0.961 . S
H553 C545 0.960 . S
H554 C546 0.930 . S
H555 C547 0.929 . S
H556 C564 0.929 . S
H557 C566 0.930 . S
H558 C568 0.930 . S
H559 C571 0.929 . S
H560 C574 0.930 . S
H561 C576 0.960 . S
H562 C576 0.960 . S
H563 C576 0.960 . S
C564 H556 0.929 . S
C564 C565 1.377 . S
C564 C566 1.384 . S
C565 C564 1.377 . S
C565 C571 1.390 . S
C566 H557 0.930 . S
C566 C564 1.384 . S
C566 C567 1.372 . S
C567 C566 1.372 . S
C567 C568 1.400 . S
C567 C572 1.490 . S
C568 H558 0.930 . S
C568 C567 1.400 . S
C568 C571 1.386 . S
H569 C585 0.930 . S
H570 C586 0.931 . S
C571 H559 0.929 . S
C571 C565 1.390 . S
C571 C568 1.386 . S
C572 C567 1.490 . S
C572 C574 1.395 . S
C572 C575 1.403 . S
H573 C579 0.930 . S
C574 H560 0.930 . S
C574 C572 1.395 . S
C574 C577 1.403 . S
C575 C572 1.403 . S
C575 C576 1.524 . S
C575 C579 1.400 . S
C576 H561 0.960 . S
C576 H562 0.960 . S
C576 H563 0.960 . S
C576 C575 1.524 . S
C577 C574 1.403 . S
C577 C578 1.392 . S
C577 C581 1.495 . S
C578 C577 1.392 . S
C578 C579 1.385 . S
C578 C580 1.478 . S
C579 H573 0.930 . S
C579 C575 1.400 . S
C579 C578 1.385 . S
C580 C578 1.478 . S
C580 C582 1.381 . S
C580 C586 1.383 . S
C581 C577 1.495 . S
C581 H587 0.959 . S
C581 H588 0.961 . S
C581 H589 0.960 . S
C582 C580 1.381 . S
C582 C583 1.394 . S
C582 H590 0.930 . S
C583 C582 1.394 . S
C583 C584 1.383 . S
C583 H591 0.929 . S
C584 C583 1.383 . S
C584 C585 1.377 . S
C585 H569 0.930 . S
C585 C584 1.377 . S
C585 C586 1.379 . S
C586 H570 0.931 . S
C586 C580 1.383 . S
C586 C585 1.379 . S
H587 C581 0.959 . S
H588 C581 0.961 . S
H589 C581 0.960 . S
H590 C582 0.930 . S
H591 C583 0.929 . S
H592 C600 0.929 . S
H593 C602 0.930 . S
H594 C604 0.930 . S
H595 C607 0.929 . S
H596 C610 0.930 . S
H597 C612 0.960 . S
H598 C612 0.960 . S
H599 C612 0.960 . S
C600 H592 0.929 . S
C600 C601 1.377 . S
C600 C602 1.384 . S
C601 C600 1.377 . S
C601 C607 1.390 . S
C602 H593 0.930 . S
C602 C600 1.384 . S
C602 C603 1.372 . S
C603 C602 1.372 . S
C603 C604 1.400 . S
C603 C608 1.490 . S
C604 H594 0.930 . S
C604 C603 1.400 . S
C604 C607 1.386 . S
H605 C621 0.930 . S
H606 C622 0.931 . S
C607 H595 0.929 . S
C607 C601 1.390 . S
C607 C604 1.386 . S
C608 C603 1.490 . S
C608 C610 1.395 . S
C608 C611 1.403 . S
H609 C615 0.930 . S
C610 H596 0.930 . S
C610 C608 1.395 . S
C610 C613 1.403 . S
C611 C608 1.403 . S
C611 C612 1.524 . S
C611 C615 1.400 . S
C612 H597 0.960 . S
C612 H598 0.960 . S
C612 H599 0.960 . S
C612 C611 1.524 . S
C613 C610 1.403 . S
C613 C614 1.392 . S
C613 C617 1.495 . S
C614 C613 1.392 . S
C614 C615 1.385 . S
C614 C616 1.478 . S
C615 H609 0.930 . S
C615 C611 1.400 . S
C615 C614 1.385 . S
C616 C614 1.478 . S
C616 C618 1.381 . S
C616 C622 1.383 . S
C617 C613 1.495 . S
C617 H623 0.959 . S
C617 H624 0.961 . S
C617 H625 0.960 . S
C618 C616 1.381 . S
C618 C619 1.394 . S
C618 H626 0.930 . S
C619 C618 1.394 . S
C619 C620 1.383 . S
C619 H627 0.929 . S
C620 C619 1.383 . S
C620 C621 1.377 . S
C621 H605 0.930 . S
C621 C620 1.377 . S
C621 C622 1.379 . S
C622 H606 0.931 . S
C622 C616 1.383 . S
C622 C621 1.379 . S
H623 C617 0.959 . S
H624 C617 0.961 . S
H625 C617 0.960 . S
H626 C618 0.930 . S
H627 C619 0.929 . S
H628 C636 0.929 . S
H629 C638 0.930 . S
H630 C640 0.930 . S
H631 C643 0.929 . S
H632 C646 0.930 . S
H633 C648 0.960 . S
H634 C648 0.960 . S
H635 C648 0.960 . S
C636 H628 0.929 . S
C636 C637 1.377 . S
C636 C638 1.384 . S
C637 C636 1.377 . S
C637 C643 1.390 . S
C638 H629 0.930 . S
C638 C636 1.384 . S
C638 C639 1.372 . S
C639 C638 1.372 . S
C639 C640 1.400 . S
C639 C644 1.490 . S
C640 H630 0.930 . S
C640 C639 1.400 . S
C640 C643 1.386 . S
H641 C657 0.930 . S
H642 C658 0.931 . S
C643 H631 0.929 . S
C643 C637 1.390 . S
C643 C640 1.386 . S
C644 C639 1.490 . S
C644 C646 1.395 . S
C644 C647 1.403 . S
H645 C651 0.930 . S
C646 H632 0.930 . S
C646 C644 1.395 . S
C646 C649 1.403 . S
C647 C644 1.403 . S
C647 C648 1.524 . S
C647 C651 1.400 . S
C648 H633 0.960 . S
C648 H634 0.960 . S
C648 H635 0.960 . S
C648 C647 1.524 . S
C649 C646 1.403 . S
C649 C650 1.392 . S
C649 C653 1.495 . S
C650 C649 1.392 . S
C650 C651 1.385 . S
C650 C652 1.478 . S
C651 H645 0.930 . S
C651 C647 1.400 . S
C651 C650 1.385 . S
C652 C650 1.478 . S
C652 C654 1.381 . S
C652 C658 1.383 . S
C653 C649 1.495 . S
C653 H659 0.959 . S
C653 H660 0.961 . S
C653 H661 0.960 . S
C654 C652 1.381 . S
C654 C655 1.394 . S
C654 H662 0.930 . S
C655 C654 1.394 . S
C655 C656 1.383 . S
C655 H663 0.929 . S
C656 C655 1.383 . S
C656 C657 1.377 . S
C657 H641 0.930 . S
C657 C656 1.377 . S
C657 C658 1.379 . S
C658 H642 0.931 . S
C658 C652 1.383 . S
C658 C657 1.379 . S
H659 C653 0.959 . S
H660 C653 0.961 . S
H661 C653 0.960 . S
H662 C654 0.930 . S
H663 C655 0.929 . S
H664 C672 0.929 . S
H665 C674 0.930 . S
H666 C676 0.930 . S
H667 C679 0.929 . S
H668 C682 0.930 . S
H669 C684 0.960 . S
H670 C684 0.960 . S
H671 C684 0.960 . S
C672 H664 0.929 . S
C672 C673 1.377 . S
C672 C674 1.384 . S
C673 C672 1.377 . S
C673 C679 1.390 . S
C674 H665 0.930 . S
C674 C672 1.384 . S
C674 C675 1.372 . S
C675 C674 1.372 . S
C675 C676 1.400 . S
C675 C680 1.490 . S
C676 H666 0.930 . S
C676 C675 1.400 . S
C676 C679 1.386 . S
H677 C693 0.930 . S
H678 C694 0.931 . S
C679 H667 0.929 . S
C679 C673 1.390 . S
C679 C676 1.386 . S
C680 C675 1.490 . S
C680 C682 1.395 . S
C680 C683 1.403 . S
H681 C687 0.930 . S
C682 H668 0.930 . S
C682 C680 1.395 . S
C682 C685 1.403 . S
C683 C680 1.403 . S
C683 C684 1.524 . S
C683 C687 1.400 . S
C684 H669 0.960 . S
C684 H670 0.960 . S
C684 H671 0.960 . S
C684 C683 1.524 . S
C685 C682 1.403 . S
C685 C686 1.392 . S
C685 C689 1.495 . S
C686 C685 1.392 . S
C686 C687 1.385 . S
C686 C688 1.478 . S
C687 H681 0.930 . S
C687 C683 1.400 . S
C687 C686 1.385 . S
C688 C686 1.478 . S
C688 C690 1.381 . S
C688 C694 1.383 . S
C689 C685 1.495 . S
C689 H695 0.959 . S
C689 H696 0.961 . S
C689 H697 0.960 . S
C690 C688 1.381 . S
C690 C691 1.394 . S
C690 H698 0.930 . S
C691 C690 1.394 . S
C691 C692 1.383 . S
C691 H699 0.929 . S
C692 C691 1.383 . S
C692 C693 1.377 . S
C693 H677 0.930 . S
C693 C692 1.377 . S
C693 C694 1.379 . S
C694 H678 0.931 . S
C694 C688 1.383 . S
C694 C693 1.379 . S
H695 C689 0.959 . S
H696 C689 0.961 . S
H697 C689 0.960 . S
H698 C690 0.930 . S
H699 C691 0.929 . S
H700 C708 0.929 . S
H701 C710 0.930 . S
H702 C712 0.930 . S
H703 C715 0.929 . S
H704 C718 0.930 . S
H705 C720 0.960 . S
H706 C720 0.960 . S
H707 C720 0.960 . S
C708 H700 0.929 . S
C708 C709 1.377 . S
C708 C710 1.384 . S
C709 C708 1.377 . S
C709 C715 1.390 . S
C710 H701 0.930 . S
C710 C708 1.384 . S
C710 C711 1.372 . S
C711 C710 1.372 . S
C711 C712 1.400 . S
C711 C716 1.490 . S
C712 H702 0.930 . S
C712 C711 1.400 . S
C712 C715 1.386 . S
H713 C729 0.930 . S
H714 C730 0.931 . S
C715 H703 0.929 . S
C715 C709 1.390 . S
C715 C712 1.386 . S
C716 C711 1.490 . S
C716 C718 1.395 . S
C716 C719 1.403 . S
H717 C723 0.930 . S
C718 H704 0.930 . S
C718 C716 1.395 . S
C718 C721 1.403 . S
C719 C716 1.403 . S
C719 C720 1.524 . S
C719 C723 1.400 . S
C720 H705 0.960 . S
C720 H706 0.960 . S
C720 H707 0.960 . S
C720 C719 1.524 . S
C721 C718 1.403 . S
C721 C722 1.392 . S
C721 C725 1.495 . S
C722 C721 1.392 . S
C722 C723 1.385 . S
C722 C724 1.478 . S
C723 H717 0.930 . S
C723 C719 1.400 . S
C723 C722 1.385 . S
C724 C722 1.478 . S
C724 C726 1.381 . S
C724 C730 1.383 . S
C725 C721 1.495 . S
C725 H731 0.959 . S
C725 H732 0.961 . S
C725 H733 0.960 . S
C726 C724 1.381 . S
C726 C727 1.394 . S
C726 H734 0.930 . S
C727 C726 1.394 . S
C727 C728 1.383 . S
C727 H735 0.929 . S
C728 C727 1.383 . S
C728 C729 1.377 . S
C729 H713 0.930 . S
C729 C728 1.377 . S
C729 C730 1.379 . S
C730 H714 0.931 . S
C730 C724 1.383 . S
C730 C729 1.379 . S
H731 C725 0.959 . S
H732 C725 0.961 . S
H733 C725 0.960 . S
H734 C726 0.930 . S
H735 C727 0.929 . S
H736 C744 0.929 . S
H737 C746 0.930 . S
H738 C748 0.930 . S
H739 C751 0.929 . S
H740 C754 0.930 . S
H741 C756 0.960 . S
H742 C756 0.960 . S
H743 C756 0.960 1_554 S
C744 H736 0.929 . S
C744 C745 1.384 . S
C744 C746 1.384 . S
C745 C744 1.384 . S
C745 C751 1.383 1_556 S
C746 H737 0.930 . S
C746 C744 1.384 . S
C746 C747 1.372 . S
C747 C746 1.372 . S
C747 C748 1.400 1_556 S
C747 C752 1.490 . S
C748 H738 0.930 . S
C748 C747 1.400 1_554 S
C748 C751 1.386 . S
H749 C765 0.930 . S
H750 C766 0.931 . S
C751 H739 0.929 . S
C751 C745 1.383 1_554 S
C751 C748 1.386 . S
C752 C747 1.490 . S
C752 C754 1.395 . S
C752 C755 1.403 . S
H753 C759 0.930 1_554 S
C754 H740 0.930 . S
C754 C752 1.395 . S
C754 C757 1.403 . S
C755 C752 1.403 . S
C755 C756 1.524 . S
C755 C759 1.400 . S
C756 H741 0.960 . S
C756 H742 0.960 . S
C756 H743 0.960 1_556 S
C756 C755 1.524 . S
C757 C754 1.403 . S
C757 C758 1.392 . S
C757 C761 1.495 . S
C758 C757 1.392 . S
C758 C759 1.385 . S
C758 C760 1.478 1_556 S
C759 H753 0.930 1_556 S
C759 C755 1.400 . S
C759 C758 1.385 . S
C760 C758 1.478 1_554 S
C760 C762 1.382 1_554 S
C760 C766 1.382 . S
C761 C757 1.495 . S
C761 H767 0.959 . S
C761 H768 0.961 1_556 S
C761 H769 0.960 . S
C762 C760 1.382 1_556 S
C762 C763 1.394 . S
C762 H770 0.930 . S
C763 C762 1.394 . S
C763 C764 1.370 1_556 S
C763 H771 0.929 . S
C764 C763 1.370 1_554 S
C764 C765 1.390 . S
C765 H749 0.930 . S
C765 C764 1.390 . S
C765 C766 1.379 . S
C766 H750 0.931 . S
C766 C760 1.382 . S
C766 C765 1.379 . S
H767 C761 0.959 . S
H768 C761 0.961 1_554 S
H769 C761 0.960 . S
H770 C762 0.930 . S
H771 C763 0.929 . S
H772 C780 0.929 . S
H773 C782 0.930 . S
H774 C784 0.930 . S
H775 C787 0.929 . S
H776 C790 0.930 . S
H777 C792 0.960 . S
H778 C792 0.960 . S
H779 C792 0.960 . S
C780 H772 0.929 . S
C780 C781 1.377 . S
C780 C782 1.384 . S
C781 C780 1.377 . S
C781 C787 1.390 . S
C782 H773 0.930 . S
C782 C780 1.384 . S
C782 C783 1.372 . S
C783 C782 1.372 . S
C783 C784 1.400 . S
C783 C788 1.490 . S
C784 H774 0.930 . S
C784 C783 1.400 . S
C784 C787 1.386 . S
H785 C801 0.930 . S
H786 C802 0.931 . S
C787 H775 0.929 . S
C787 C781 1.390 . S
C787 C784 1.386 . S
C788 C783 1.490 . S
C788 C790 1.395 . S
C788 C791 1.403 . S
H789 C795 0.930 . S
C790 H776 0.930 . S
C790 C788 1.395 . S
C790 C793 1.403 . S
C791 C788 1.403 . S
C791 C792 1.524 . S
C791 C795 1.400 . S
C792 H777 0.960 . S
C792 H778 0.960 . S
C792 H779 0.960 . S
C792 C791 1.524 . S
C793 C790 1.403 . S
C793 C794 1.392 . S
C793 C797 1.495 . S
C794 C793 1.392 . S
C794 C795 1.385 . S
C794 C796 1.478 . S
C795 H789 0.930 . S
C795 C791 1.400 . S
C795 C794 1.385 . S
C796 C794 1.478 . S
C796 C798 1.381 . S
C796 C802 1.383 . S
C797 C793 1.495 . S
C797 H803 0.959 . S
C797 H804 0.961 . S
C797 H805 0.960 . S
C798 C796 1.381 . S
C798 C799 1.394 . S
C798 H806 0.930 . S
C799 C798 1.394 . S
C799 C800 1.383 . S
C799 H807 0.929 . S
C800 C799 1.383 . S
C800 C801 1.377 . S
C801 H785 0.930 . S
C801 C800 1.377 . S
C801 C802 1.379 . S
C802 H786 0.931 . S
C802 C796 1.383 . S
C802 C801 1.379 . S
H803 C797 0.959 . S
H804 C797 0.961 . S
H805 C797 0.960 . S
H806 C798 0.930 . S
H807 C799 0.929 . S
H808 C816 0.929 . S
H809 C818 0.930 . S
H810 C820 0.930 . S
H811 C823 0.929 . S
H812 C826 0.930 . S
H813 C828 0.960 . S
H814 C828 0.960 . S
H815 C828 0.960 . S
C816 H808 0.929 . S
C816 C817 1.377 1_556 S
C816 C818 1.384 . S
C817 C816 1.377 1_554 S
C817 C823 1.390 . S
C818 H809 0.930 . S
C818 C816 1.384 . S
C818 C819 1.372 . S
C819 C818 1.372 . S
C819 C820 1.400 1_556 S
C819 C824 1.490 . S
C820 H810 0.930 . S
C820 C819 1.400 1_554 S
C820 C823 1.386 . S
H821 C837 0.930 . S
H822 C838 0.931 . S
C823 H811 0.929 . S
C823 C817 1.390 . S
C823 C820 1.386 . S
C824 C819 1.490 . S
C824 C826 1.395 . S
C824 C827 1.403 1_556 S
H825 C831 0.930 . S
C826 H812 0.930 . S
C826 C824 1.395 . S
C826 C829 1.403 . S
C827 C824 1.403 1_554 S
C827 C828 1.524 . S
C827 C831 1.400 . S
C828 H813 0.960 . S
C828 H814 0.960 . S
C828 H815 0.960 . S
C828 C827 1.524 . S
C829 C826 1.403 . S
C829 C830 1.392 . S
C829 C833 1.495 . S
C830 C829 1.392 . S
C830 C831 1.385 1_556 S
C830 C832 1.478 . S
C831 H825 0.930 . S
C831 C827 1.400 . S
C831 C830 1.385 1_554 S
C832 C830 1.478 . S
C832 C834 1.381 . S
C832 C838 1.383 1_556 S
C833 C829 1.495 . S
C833 H839 0.959 . S
C833 H840 0.961 . S
C833 H841 0.960 . S
C834 C832 1.381 . S
C834 C835 1.394 . S
C834 H842 0.930 . S
C835 C834 1.394 . S
C835 C836 1.383 . S
C835 H843 0.929 . S
C836 C835 1.383 . S
C836 C837 1.377 1_556 S
C837 H821 0.930 . S
C837 C836 1.377 1_554 S
C837 C838 1.379 . S
C838 H822 0.931 . S
C838 C832 1.383 1_554 S
C838 C837 1.379 . S
H839 C833 0.959 . S
H840 C833 0.961 . S
H841 C833 0.960 . S
H842 C834 0.930 . S
H843 C835 0.929 . S
H844 C852 0.929 . S
H845 C854 0.930 . S
H846 C856 0.930 . S
H847 C859 0.929 . S
H848 C862 0.930 . S
H849 C864 0.960 . S
H850 C864 0.960 . S
H851 C864 0.960 . S
C852 H844 0.929 . S
C852 C853 1.377 . S
C852 C854 1.384 . S
C853 C852 1.377 . S
C853 C859 1.390 . S
C854 H845 0.930 . S
C854 C852 1.384 . S
C854 C855 1.372 . S
C855 C854 1.372 . S
C855 C856 1.400 . S
C855 C860 1.490 . S
C856 H846 0.930 . S
C856 C855 1.400 . S
C856 C859 1.386 . S
H857 C873 0.930 . S
H858 C874 0.931 . S
C859 H847 0.929 . S
C859 C853 1.390 . S
C859 C856 1.386 . S
C860 C855 1.490 . S
C860 C862 1.395 . S
C860 C863 1.403 . S
H861 C867 0.930 . S
C862 H848 0.930 . S
C862 C860 1.395 . S
C862 C865 1.403 . S
C863 C860 1.403 . S
C863 C864 1.524 . S
C863 C867 1.400 . S
C864 H849 0.960 . S
C864 H850 0.960 . S
C864 H851 0.960 . S
C864 C863 1.524 . S
C865 C862 1.403 . S
C865 C866 1.392 . S
C865 C869 1.495 . S
C866 C865 1.392 . S
C866 C867 1.385 . S
C866 C868 1.478 . S
C867 H861 0.930 . S
C867 C863 1.400 . S
C867 C866 1.385 . S
C868 C866 1.478 . S
C868 C870 1.381 . S
C868 C874 1.383 . S
C869 C865 1.495 . S
C869 H875 0.959 . S
C869 H876 0.961 . S
C869 H877 0.960 . S
C870 C868 1.381 . S
C870 C871 1.394 . S
C870 H878 0.930 . S
C871 C870 1.394 . S
C871 C872 1.383 . S
C871 H879 0.929 . S
C872 C871 1.383 . S
C872 C873 1.377 . S
C873 H857 0.930 . S
C873 C872 1.377 . S
C873 C874 1.379 . S
C874 H858 0.931 . S
C874 C868 1.383 . S
C874 C873 1.379 . S
H875 C869 0.959 . S
H876 C869 0.961 . S
H877 C869 0.960 . S
H878 C870 0.930 . S
H879 C871 0.929 . S
H880 C888 0.929 . S
H881 C890 0.930 . S
H882 C892 0.930 . S
H883 C895 0.929 . S
H884 C898 0.930 . S
H885 C900 0.960 . S
H886 C900 0.960 . S
H887 C900 0.960 . S
C888 H880 0.929 . S
C888 C889 1.377 . S
C888 C890 1.384 . S
C889 C888 1.377 . S
C889 C895 1.390 . S
C890 H881 0.930 . S
C890 C888 1.384 . S
C890 C891 1.372 . S
C891 C890 1.372 . S
C891 C892 1.400 . S
C891 C896 1.490 . S
C892 H882 0.930 . S
C892 C891 1.400 . S
C892 C895 1.386 . S
H893 C909 0.930 . S
H894 C910 0.931 . S
C895 H883 0.929 . S
C895 C889 1.390 . S
C895 C892 1.386 . S
C896 C891 1.490 . S
C896 C898 1.395 . S
C896 C899 1.403 . S
H897 C903 0.930 . S
C898 H884 0.930 . S
C898 C896 1.395 . S
C898 C901 1.403 . S
C899 C896 1.403 . S
C899 C900 1.524 . S
C899 C903 1.400 . S
C900 H885 0.960 . S
C900 H886 0.960 . S
C900 H887 0.960 . S
C900 C899 1.524 . S
C901 C898 1.403 . S
C901 C902 1.392 . S
C901 C905 1.495 . S
C902 C901 1.392 . S
C902 C903 1.385 . S
C902 C904 1.478 . S
C903 H897 0.930 . S
C903 C899 1.400 . S
C903 C902 1.385 . S
C904 C902 1.478 . S
C904 C906 1.381 . S
C904 C910 1.383 . S
C905 C901 1.495 . S
C905 H911 0.959 . S
C905 H912 0.961 . S
C905 H913 0.960 . S
C906 C904 1.381 . S
C906 C907 1.394 . S
C906 H914 0.930 . S
C907 C906 1.394 . S
C907 C908 1.383 . S
C907 H915 0.929 . S
C908 C907 1.383 . S
C908 C909 1.377 . S
C909 H893 0.930 . S
C909 C908 1.377 . S
C909 C910 1.379 . S
C910 H894 0.931 . S
C910 C904 1.383 . S
C910 C909 1.379 . S
H911 C905 0.959 . S
H912 C905 0.961 . S
H913 C905 0.960 . S
H914 C906 0.930 . S
H915 C907 0.929 . S
H916 C924 0.929 . S
H917 C926 0.930 . S
H918 C928 0.930 . S
H919 C931 0.929 . S
H920 C934 0.930 . S
H921 C936 0.960 1_556 S
H922 C936 0.964 . S
H923 C936 0.956 1_556 S
C924 H916 0.929 . S
C924 C925 1.377 . S
C924 C926 1.384 . S
C925 C924 1.377 . S
C925 C931 1.390 1_554 S
C926 H917 0.930 . S
C926 C924 1.384 . S
C926 C927 1.372 . S
C927 C926 1.372 . S
C927 C928 1.400 1_554 S
C927 C932 1.490 . S
C928 H918 0.930 . S
C928 C927 1.400 1_556 S
C928 C931 1.386 . S
H929 C945 0.930 . S
H930 C946 0.931 . S
C931 H919 0.929 . S
C931 C925 1.390 1_556 S
C931 C928 1.386 . S
C932 C927 1.490 . S
C932 C934 1.395 . S
C932 C935 1.404 . S
H933 C939 0.930 . S
C934 H920 0.930 . S
C934 C932 1.395 . S
C934 C937 1.403 . S
C935 C932 1.404 . S
C935 C936 1.524 . S
C935 C939 1.400 1_554 S
C936 H921 0.960 1_554 S
C936 H922 0.964 . S
C936 H923 0.956 1_554 S
C936 C935 1.524 . S
C937 C934 1.403 . S
C937 C938 1.392 . S
C937 C941 1.495 . S
C938 C937 1.392 . S
C938 C939 1.385 1_554 S
C938 C940 1.478 . S
C939 H933 0.930 . S
C939 C935 1.400 1_556 S
C939 C938 1.385 1_556 S
C940 C938 1.478 . S
C940 C942 1.401 . S
C940 C946 1.362 1_554 S
C941 C937 1.495 . S
C941 H947 0.959 . S
C941 H948 0.961 1_554 S
C941 H949 0.960 . S
C942 C940 1.401 . S
C942 C943 1.394 . S
C942 H950 0.930 . S
C943 C942 1.394 . S
C943 C944 1.384 . S
C943 H951 0.929 . S
C944 C943 1.384 . S
C944 C945 1.377 1_554 S
C945 H929 0.930 . S
C945 C944 1.377 1_556 S
C945 C946 1.379 . S
C946 H930 0.931 . S
C946 C940 1.362 1_556 S
C946 C945 1.379 . S
H947 C941 0.959 . S
H948 C941 0.961 1_556 S
H949 C941 0.960 . S
H950 C942 0.930 . S
H951 C943 0.929 . S
H952 C960 0.929 . S
H953 C962 0.930 . S
H954 C964 0.930 . S
H955 C967 0.929 . S
H956 C970 0.930 . S
H957 C972 0.960 . S
H958 C972 0.960 . S
H959 C972 0.960 . S
C960 H952 0.929 . S
C960 C961 1.377 . S
C960 C962 1.384 . S
C961 C960 1.377 . S
C961 C967 1.390 . S
C962 H953 0.930 . S
C962 C960 1.384 . S
C962 C963 1.372 . S
C963 C962 1.372 . S
C963 C964 1.400 . S
C963 C968 1.490 . S
C964 H954 0.930 . S
C964 C963 1.400 . S
C964 C967 1.386 . S
H965 C981 0.930 . S
H966 C982 0.931 . S
C967 H955 0.929 . S
C967 C961 1.390 . S
C967 C964 1.386 . S
C968 C963 1.490 . S
C968 C970 1.395 . S
C968 C971 1.403 . S
H969 C975 0.930 . S
C970 H956 0.930 . S
C970 C968 1.395 . S
C970 C973 1.403 . S
C971 C968 1.403 . S
C971 C972 1.524 . S
C971 C975 1.400 . S
C972 H957 0.960 . S
C972 H958 0.960 . S
C972 H959 0.960 . S
C972 C971 1.524 . S
C973 C970 1.403 . S
C973 C974 1.392 . S
C973 C977 1.495 . S
C974 C973 1.392 . S
C974 C975 1.385 . S
C974 C976 1.478 . S
C975 H969 0.930 . S
C975 C971 1.400 . S
C975 C974 1.385 . S
C976 C974 1.478 . S
C976 C978 1.381 . S
C976 C982 1.383 . S
C977 C973 1.495 . S
C977 H983 0.959 . S
C977 H984 0.961 . S
C977 H985 0.960 . S
C978 C976 1.381 . S
C978 C979 1.394 . S
C978 H986 0.930 . S
C979 C978 1.394 . S
C979 C980 1.383 . S
C979 H987 0.929 . S
C980 C979 1.383 . S
C980 C981 1.377 . S
C981 H965 0.930 . S
C981 C980 1.377 . S
C981 C982 1.379 . S
C982 H966 0.931 . S
C982 C976 1.383 . S
C982 C981 1.379 . S
H983 C977 0.959 . S
H984 C977 0.961 . S
H985 C977 0.960 . S
H986 C978 0.930 . S
H987 C979 0.929 . S
H988 C996 0.929 . S
H989 C998 0.930 . S
H990 C1000 0.930 . S
H991 C1003 0.929 . S
H992 C1006 0.930 . S
H993 C1008 0.960 . S
H994 C1008 0.960 . S
H995 C1008 0.960 . S
C996 H988 0.929 . S
C996 C997 1.377 1_554 S
C996 C998 1.384 . S
C997 C996 1.377 1_556 S
C997 C1003 1.390 . S
C998 H989 0.930 . S
C998 C996 1.384 . S
C998 C999 1.372 . S
C999 C998 1.372 . S
C999 C1000 1.399 1_554 S
C999 C1004 1.490 . S
C1000 H990 0.930 . S
C1000 C999 1.399 1_556 S
C1000 C1003 1.386 . S
H1001 C1017 0.930 . S
H1002 C1018 0.931 . S
C1003 H991 0.929 . S
C1003 C997 1.390 . S
C1003 C1000 1.386 . S
C1004 C999 1.490 . S
C1004 C1006 1.395 . S
C1004 C1007 1.403 1_554 S
H1005 C1011 0.930 . S
C1006 H992 0.930 . S
C1006 C1004 1.395 . S
C1006 C1009 1.403 . S
C1007 C1004 1.403 1_556 S
C1007 C1008 1.524 . S
C1007 C1011 1.400 . S
C1008 H993 0.960 . S
C1008 H994 0.960 . S
C1008 H995 0.960 . S
C1008 C1007 1.524 . S
C1009 C1006 1.403 . S
C1009 C1010 1.392 . S
C1009 C1013 1.495 . S
C1010 C1009 1.392 . S
C1010 C1011 1.385 1_554 S
C1010 C1012 1.478 . S
C1011 H1005 0.930 . S
C1011 C1007 1.400 . S
C1011 C1010 1.385 1_556 S
C1012 C1010 1.478 . S
C1012 C1014 1.381 . S
C1012 C1018 1.383 . S
C1013 C1009 1.495 . S
C1013 H1019 0.959 . S
C1013 H1020 0.961 . S
C1013 H1021 0.960 . S
C1014 C1012 1.381 . S
C1014 C1015 1.394 . S
C1014 H1022 0.930 . S
C1015 C1014 1.394 . S
C1015 C1016 1.383 . S
C1015 H1023 0.929 . S
C1016 C1015 1.383 . S
C1016 C1017 1.377 . S
C1017 H1001 0.930 . S
C1017 C1016 1.377 . S
C1017 C1018 1.379 . S
C1018 H1002 0.931 . S
C1018 C1012 1.383 . S
C1018 C1017 1.379 . S
H1019 C1013 0.959 . S
H1020 C1013 0.961 . S
H1021 C1013 0.960 . S
H1022 C1014 0.930 . S
H1023 C1015 0.929 . S
C169 C5 1.379 . S
C188 C119 1.409 . S
C205 C31 1.381 . S
C224 C93 1.409 . S
C260 C102 1.406 . S
C241 C53 1.383 . S
C277 C71 1.377 . S
C296 C110 1.397 . S
C332 C138 1.390 . S
C313 C75 1.384 . S
C368 C146 1.407 . S
C349 C9 1.376 . S
C404 C155 1.390 . S
C385 C27 1.380 . S
C440 C129 1.401 . S
C421 C49 1.384 . S
C457 C51 1.385 . S
C476 C101 1.392 . S
C493 C72 1.382 . S
C512 C111 1.385 . S
C529 C6 1.385 . S
C548 C120 1.403 . S
C584 C92 1.396 . S
C565 C29 1.385 . S
C601 C28 1.384 . S
C620 C156 1.387 . S
C656 C128 1.398 . S
C637 C50 1.385 . S
C692 C137 1.389 . S
C673 C73 1.383 . S
C709 C7 1.385 . S
C728 C147 1.396 . S
C764 C95 1.476 1_554 S
C745 C4 1.461 1_556 S
C800 C104 1.463 . S
C781 C30 1.463 . S
C817 C52 1.459 . S
C836 C113 1.474 1_556 S
C853 C70 1.461 . S
C872 C122 1.463 . S
C908 C131 1.476 . S
C889 C74 1.461 . S
C925 C8 1.461 . S
C944 C140 1.476 . S
C961 C26 1.459 . S
C980 C149 1.472 . S
C997 C48 1.460 1_556 S
C1016 C158 1.466 1_554 S
