# Generated by pormake.
# Topology anh, (6,3)-cn, num edge types: 1
# Building blocks:
#     Node 0, Type 0, BuildingBlock: BETGAK_clean_sbu_0, # of connection points: 6
#     Node 1, Type 0, BuildingBlock: BETGAK_clean_sbu_0, # of connection points: 6
#     Node 2, Type 0, BuildingBlock: BETGAK_clean_sbu_0, # of connection points: 6
#     Node 3, Type 1, BuildingBlock: PAMTOO_clean_linker_0, # of connection points: 3
#     Node 4, Type 1, BuildingBlock: PAMTOO_clean_linker_0, # of connection points: 3
#     Node 5, Type 1, BuildingBlock: PAMTOO_clean_linker_0, # of connection points: 3
#     Node 6, Type 1, BuildingBlock: PAMTOO_clean_linker_0, # of connection points: 3
#     Node 7, Type 1, BuildingBlock: PAMTOO_clean_linker_0, # of connection points: 3
#     Node 8, Type 1, BuildingBlock: PAMTOO_clean_linker_0, # of connection points: 3
#     Edge 9, Type (0, 1), BuildingBlock: EZIPEK_clean_linker_0, # of connection points: 2
#     Edge 10, Type (0, 1), BuildingBlock: EZIPEK_clean_linker_0, # of connection points: 2
#     Edge 11, Type (0, 1), BuildingBlock: EZIPEK_clean_linker_0, # of connection points: 2
#     Edge 12, Type (0, 1), BuildingBlock: EZIPEK_clean_linker_0, # of connection points: 2
#     Edge 13, Type (0, 1), BuildingBlock: EZIPEK_clean_linker_0, # of connection points: 2
#     Edge 14, Type (0, 1), BuildingBlock: EZIPEK_clean_linker_0, # of connection points: 2
#     Edge 15, Type (0, 1), BuildingBlock: EZIPEK_clean_linker_0, # of connection points: 2
#     Edge 16, Type (0, 1), BuildingBlock: EZIPEK_clean_linker_0, # of connection points: 2
#     Edge 17, Type (0, 1), BuildingBlock: EZIPEK_clean_linker_0, # of connection points: 2
#     Edge 18, Type (0, 1), BuildingBlock: EZIPEK_clean_linker_0, # of connection points: 2
#     Edge 19, Type (0, 1), BuildingBlock: EZIPEK_clean_linker_0, # of connection points: 2
#     Edge 20, Type (0, 1), BuildingBlock: EZIPEK_clean_linker_0, # of connection points: 2
#     Edge 21, Type (0, 1), BuildingBlock: EZIPEK_clean_linker_0, # of connection points: 2
#     Edge 22, Type (0, 1), BuildingBlock: EZIPEK_clean_linker_0, # of connection points: 2
#     Edge 23, Type (0, 1), BuildingBlock: EZIPEK_clean_linker_0, # of connection points: 2
#     Edge 24, Type (0, 1), BuildingBlock: EZIPEK_clean_linker_0, # of connection points: 2
#     Edge 25, Type (0, 1), BuildingBlock: EZIPEK_clean_linker_0, # of connection points: 2
#     Edge 26, Type (0, 1), BuildingBlock: EZIPEK_clean_linker_0, # of connection points: 2
# Relax obj value: 0.231
# Max RMSD: 0.211
# Mean RMSD: 0.133
data_MOF--net-anh--node1-BETGAK_clean_sbu_0--node2-PAMTOO_clean_linker_0--edge1-EZIPEK_clean_linker_0
_symmetry_space_group_name_H-M    P1
_symmetry_Int_Tables_number       1
_symmetry_cell_setting            triclinic
loop_
_symmetry_equiv_pos_as_xyz
'x, y, z'
_cell_length_a     21.632465
_cell_length_b     28.997463
_cell_length_c     36.184223
_cell_angle_alpha  88.211463
_cell_angle_beta   91.25607
_cell_angle_gamma 133.08687
loop_
_atom_site_label
_atom_site_type_symbol
_atom_site_fract_x
_atom_site_fract_y
_atom_site_fract_z
_atom_type_partial_charge
La0 La 0.34593 0.59668 0.15369 0.0
La1 La 0.21019 0.59577 0.16926 0.0
C2 C 0.43094 0.57627 0.12602 0.0
C3 C 0.40968 0.51956 0.11265 0.0
C4 C 0.32857 0.46901 0.09873 0.0
C5 C 0.30755 0.41398 0.08787 0.0
C6 C 0.36743 0.40893 0.09084 0.0
C7 C 0.44872 0.45954 0.10442 0.0
C8 C 0.46972 0.51462 0.11527 0.0
C9 C 0.33443 0.61433 0.22365 0.0
C10 C 0.40386 0.7276 0.15827 0.0
C11 C 1.1083 0.60179 0.19429 0.0
C12 C 1.01475 0.55527 0.19467 0.0
C13 C 0.97188 0.56351 0.16996 0.0
C14 C 0.88519 0.51426 0.16411 0.0
C15 C 0.83991 0.45634 0.18316 0.0
C16 C 0.88056 0.44992 0.21057 0.0
C17 C 0.96768 0.499 0.21615 0.0
C18 C 0.2172 0.57375 0.09998 0.0
C19 C 1.15525 0.46466 0.16743 0.0
O20 O 0.40032 0.59586 0.10678 0.0
O21 O 0.4223 0.57682 0.16161 0.0
O22 O 0.40468 0.63978 0.20727 0.0
O23 O 0.27431 0.57723 0.2016 0.0
O24 O 0.42415 0.69726 0.14558 0.0
O25 O 0.32741 0.69728 0.17167 0.0
O26 O 1.14347 0.62396 0.16159 0.0
O27 O 1.14429 0.58759 0.21464 0.0
O28 O 1.14828 0.54917 0.11702 0.0
O29 O 0.27933 0.61308 0.12086 0.0
O30 O 1.13427 0.49526 0.17881 0.0
O31 O 0.23109 0.495 0.15351 0.0
H32 H 0.2813 0.47182 0.09657 0.0
H33 H 0.2445 0.37514 0.07755 0.0
H34 H 0.4954 0.45603 0.10695 0.0
H35 H 0.5324 0.55303 0.12613 0.0
H36 H 1.00631 0.60659 0.15344 0.0
H37 H 0.85439 0.52002 0.14304 0.0
H38 H 0.84617 0.40551 0.22561 0.0
H39 H 0.99861 0.49134 0.23577 0.0
La40 La 0.87464 0.11251 0.4853 0.0
La41 La 0.7514 0.12739 0.46979 0.0
C42 C 0.94749 0.0808 0.51487 0.0
C43 C 0.9252 1.02066 0.52249 0.0
C44 C 0.97279 1.01013 0.50612 0.0
C45 C 0.95372 0.95399 0.51336 0.0
C46 C 0.88719 0.90782 0.53734 0.0
C47 C 0.83886 0.91777 0.55346 0.0
C48 C 0.85759 0.97375 0.54607 0.0
C49 C 0.85709 0.12771 0.41486 0.0
C50 C 0.67804 0.98959 0.47512 0.0
C51 C 0.67816 0.16145 0.44457 0.0
C52 C 0.68962 0.21598 0.45338 0.0
C53 C 0.73095 0.24874 0.48619 0.0
C54 C 0.73997 0.29952 0.49529 0.0
C55 C 0.70815 0.31833 0.47158 0.0
C56 C 0.66855 0.28654 0.43837 0.0
C57 C 0.65932 0.23555 0.42931 0.0
C58 C 0.77169 0.1157 0.54042 0.0
C59 C 0.95194 0.24994 0.47666 0.0
O60 O 0.95657 0.09784 0.48 0.0
O61 O 0.90654 0.09088 0.53354 0.0
O62 O 0.92552 0.14547 0.42947 0.0
O63 O 0.79859 0.09603 0.43859 0.0
O64 O 0.75321 1.0142 0.48727 0.0
O65 O 0.66547 1.02571 0.46159 0.0
O66 O 0.64786 0.11973 0.47144 0.0
O67 O 0.74221 0.17479 0.42826 0.0
O68 O 0.70438 0.10045 0.52665 0.0
O69 O 0.82739 0.14418 0.51562 0.0
O70 O 0.87558 0.22545 0.4662 0.0
O71 O 0.96461 0.21432 0.49063 0.0
H72 H 1.02517 0.04559 0.4879 0.0
H73 H 0.99167 0.94694 0.50081 0.0
H74 H 0.7874 0.88253 0.5721 0.0
H75 H 0.81967 0.98042 0.55911 0.0
H76 H 0.75501 0.23433 0.50502 0.0
H77 H 0.77045 0.32348 0.52104 0.0
H78 H 0.64343 0.30049 0.41988 0.0
H79 H 0.62771 0.21097 0.40382 0.0
La80 La 0.78992 0.61928 0.85733 0.0
La81 La 0.66535 0.48145 0.85044 0.0
C82 C 0.87626 0.73647 0.85268 0.0
C83 C 0.86584 0.77771 0.83546 0.0
C84 C 0.80396 0.77691 0.84799 0.0
C85 C 0.79729 0.81796 0.83221 0.0
C86 C 0.85182 0.86008 0.80351 0.0
C87 C 0.91258 0.86024 0.79049 0.0
C88 C 0.91989 0.81967 0.80652 0.0
C89 C 0.74501 0.55391 0.91983 0.0
C90 C 0.59306 0.54373 0.85267 0.0
C91 C 0.58451 0.36572 0.85837 0.0
C92 C 0.60624 0.32922 0.84902 0.0
C93 C 0.65861 0.34749 0.81859 0.0
C94 C 0.68114 0.31395 0.81025 0.0
C95 C 0.65179 0.26174 0.83227 0.0
C96 C 0.59999 0.2436 0.86287 0.0
C97 C 0.57739 0.27726 0.87123 0.0
C98 C 0.70411 0.54128 0.78628 0.0
C99 C 0.86682 0.56014 0.85323 0.0
O100 O 0.8271 0.70039 0.88062 0.0
O101 O 0.88474 0.70674 0.83018 0.0
O102 O 0.82114 0.60673 0.91297 0.0
O103 O 0.69782 0.5416 0.89345 0.0
O104 O 0.67121 0.59644 0.84349 0.0
O105 O 0.5773 0.49221 0.86278 0.0
O106 O 0.57433 0.38955 0.83034 0.0
O107 O 0.62999 0.40659 0.88458 0.0
O108 O 0.62968 0.48874 0.79568 0.0
O109 O 0.75542 0.55818 0.81239 0.0
O110 O 0.78714 0.5048 0.85581 0.0
O111 O 0.88325 0.61297 0.84902 0.0
H112 H 0.76115 0.74506 0.87017 0.0
H113 H 0.74998 0.81723 0.84252 0.0
H114 H 0.95507 0.89244 0.76831 0.0
H115 H 0.96813 0.82127 0.79642 0.0
H116 H 0.68232 0.38783 0.80131 0.0
H117 H 0.72146 0.32865 0.78665 0.0
H118 H 0.57714 0.20347 0.88018 0.0
H119 H 0.53773 0.26293 0.89503 0.0
H120 H 0.94072 0.22709 0.25655 0.0
H121 H 0.73119 1.02739 0.24466 0.0
H122 H 0.85015 0.14911 0.14804 0.0
H123 H 0.65665 1.02355 0.13291 0.0
C124 C 0.65209 1.0046 0.16087 0.0
O125 O 0.73176 1.03079 0.17226 0.0
H126 H 0.628 1.02091 0.17761 0.0
C127 C 0.89694 0.18666 0.23901 0.0
C128 C 0.9023 0.19577 0.20053 0.0
C129 C 0.8349 0.12633 0.25524 0.0
C130 C 0.77828 0.07424 0.23242 0.0
C131 C 0.78361 0.08218 0.19383 0.0
C132 C 0.84582 0.143 0.17785 0.0
H133 H 0.79318 0.68957 0.63523 0.0
H134 H 0.78761 0.54067 0.61602 0.0
H135 H 0.83667 0.66206 0.52624 0.0
H136 H 0.7157 0.53698 0.50432 0.0
C137 C 0.72359 0.51293 0.52569 0.0
O138 O 0.79969 0.55711 0.54407 0.0
H139 H 0.67237 0.48974 0.54656 0.0
C140 C 0.79958 0.66414 0.61692 0.0
C141 C 0.82001 0.68335 0.5797 0.0
C142 C 0.78992 0.61372 0.63084 0.0
C143 C 0.79653 0.58056 0.60621 0.0
C144 C 0.80928 0.59613 0.56836 0.0
C145 C 0.82444 0.64906 0.55538 0.0
H146 H 1.1005 0.558 0.94125 0.0
H147 H 0.3098 0.5717 0.93041 0.0
H148 H 0.18583 0.56447 0.83286 0.0
H149 H 0.28402 0.51586 0.81692 0.0
C150 C 0.30235 0.52382 0.84657 0.0
O151 O 0.31067 0.57302 0.85841 0.0
H152 H 0.24742 0.47809 0.85983 0.0
C153 C 1.14181 0.5594 0.9237 0.0
C154 C 1.13366 0.55969 0.88505 0.0
C155 C 0.20489 0.56373 0.94003 0.0
C156 C 0.25973 0.56674 0.91774 0.0
C157 C 0.25224 0.56547 0.87915 0.0
C158 C 0.18943 0.56255 0.86268 0.0
H159 H 0.18535 0.48216 0.3815 0.0
H160 H 0.39796 0.68146 0.39312 0.0
H161 H 0.26774 0.56271 0.48985 0.0
H162 H 0.35967 0.70557 0.50574 0.0
C163 C 0.38172 0.71795 0.47658 0.0
O164 O 0.39326 0.6792 0.46521 0.0
H165 H 0.32874 0.70861 0.46176 0.0
C166 C 0.2272 0.52294 0.39897 0.0
C167 C 0.218 0.51517 0.43756 0.0
C168 C 0.2918 0.58276 0.38286 0.0
C169 C 0.34695 0.63529 0.40541 0.0
C170 C 0.33735 0.62838 0.44385 0.0
C171 C 0.2732 0.56825 0.46002 0.0
H172 H 0.82647 1.01946 0.68816 0.0
H173 H 0.79837 0.1488 0.71235 0.0
H174 H 0.82171 0.05981 0.80113 0.0
H175 H 0.7229 0.08752 0.82879 0.0
C176 C 0.72518 0.10758 0.80164 0.0
O177 O 0.8011 0.13712 0.78439 0.0
H178 H 0.67042 0.06514 0.78655 0.0
C179 C 0.82273 0.04465 0.70808 0.0
C180 C 0.82592 1.03509 0.7461 0.0
C181 C 0.81279 0.08565 0.69583 0.0
C182 C 0.8066 0.11741 0.72166 0.0
C183 C 0.8094 0.10781 0.75956 0.0
C184 C 0.81987 0.0672 0.77173 0.0
H185 H 0.67069 0.40827 0.07031 0.0
H186 H 0.45974 0.29218 -0.00401 0.0
H187 H 0.44983 0.21792 0.10298 0.0
H188 H 0.25829 0.14383 0.07404 0.0
C189 C 0.29156 0.18069 0.0519 0.0
O190 O 0.36423 0.19417 0.04183 0.0
H191 H 0.24455 0.15531 0.02926 0.0
C192 C 0.60749 0.36362 0.06432 0.0
C193 C 0.56445 0.3142 0.09058 0.0
C194 C 0.57025 0.35597 0.03031 0.0
C195 C 0.48878 0.29835 0.02242 0.0
C196 C 0.44449 0.2488 0.04889 0.0
C197 C 0.483 0.25645 0.08282 0.0
C198 C 0.32723 0.3076 0.10895 0.0
C199 C 0.34442 0.34978 0.08066 0.0
C200 C 0.31951 0.27973 0.03354 0.0
C201 C 0.30881 0.23958 0.06207 0.0
N202 N 0.32516 0.22597 0.12713 0.0
N203 N 0.36946 0.3821 0.01646 0.0
C204 C 0.319 0.25641 0.09985 0.0
C205 C 0.34345 0.33734 0.04303 0.0
N206 N 0.31704 0.31574 0.14461 0.0
N207 N 0.30753 0.26337 -0.00274 0.0
H208 H 0.38649 0.42454 0.02231 0.0
H209 H 0.3811 0.37989 0.98911 0.0
H210 H 0.30021 0.22631 0.98789 0.0
H211 H 0.30182 0.2855 0.97615 0.0
H212 H 0.32328 0.35306 0.15249 0.0
H213 H 0.29453 0.28229 0.16571 0.0
H214 H 0.34245 0.24164 0.15419 0.0
H215 H 0.32269 0.18952 0.12261 0.0
C216 C 1.01699 0.36222 0.48174 0.0
C217 C 1.02526 0.31953 0.4718 0.0
C218 C 1.16989 0.40974 0.45029 0.0
C219 C 1.15523 0.45005 0.45379 0.0
N220 N 1.06178 0.46422 0.47014 0.0
N221 N 1.10743 0.3037 0.44035 0.0
C222 C 1.07808 0.42633 0.469 0.0
C223 C 1.10154 0.34352 0.45482 0.0
N224 N 0.9525 0.34213 0.50438 0.0
N225 N 0.24948 0.43482 0.44255 0.0
H226 H 1.05879 0.2549 0.44119 0.0
H227 H 1.15793 0.31935 0.42395 0.0
H228 H 0.30123 0.48328 0.43916 0.0
H229 H 0.26572 0.40824 0.44339 0.0
H230 H 0.94726 0.37232 0.51499 0.0
H231 H 0.90949 0.29659 0.51588 0.0
H232 H 1.0028 0.44746 0.47702 0.0
H233 H 1.10553 0.5116 0.46161 0.0
C234 C 0.77493 0.88223 0.76614 0.0
C235 C 0.84636 0.90508 0.78765 0.0
C236 C 0.90928 1.01369 0.77717 0.0
C237 C 0.83376 0.99026 0.75934 0.0
N238 N 0.6888 0.90158 0.74215 0.0
N239 N 0.97493 0.99128 0.81923 0.0
C240 C 0.76488 0.92429 0.75518 0.0
C241 C 0.91191 0.97053 0.79467 0.0
N242 N 0.71788 0.82077 0.75534 0.0
N243 N 0.97926 0.07709 0.77651 0.0
H244 H 0.97865 0.96113 0.83304 0.0
H245 H 1.01911 1.03749 0.82846 0.0
H246 H 0.97999 0.11015 0.76363 0.0
H247 H 1.03864 0.09632 0.78568 0.0
H248 H 0.66943 0.80314 0.73647 0.0
H249 H 0.72346 0.78864 0.76263 0.0
H250 H 0.63385 0.85373 0.74231 0.0
H251 H 0.67848 0.93074 0.73418 0.0
C252 C 0.74245 0.35884 0.14546 0.0
C253 C 0.75356 0.40106 0.17026 0.0
C254 C 0.616 0.36318 0.15244 0.0
C255 C 0.60899 0.32537 0.12555 0.0
N256 N 0.64681 0.26942 0.10532 0.0
N257 N 0.69259 0.43049 0.2055 0.0
C258 C 0.66547 0.31652 0.12562 0.0
C259 C 0.68673 0.39826 0.17676 0.0
N260 N 0.80795 0.36314 0.13818 0.0
N261 N 0.55802 0.36857 0.15278 0.0
H262 H 0.74442 0.45642 0.22344 0.0
H263 H 0.64379 0.42731 0.2134 0.0
H264 H 0.5045 0.34156 0.13584 0.0
H265 H 0.5641 0.40076 0.1687 0.0
H266 H 0.80704 0.33994 0.11648 0.0
H267 H 0.86562 0.3931 0.15212 0.0
H268 H 0.68205 0.257 0.10657 0.0
H269 H 0.59092 0.23867 0.0901 0.0
C270 C 0.59065 0.88042 0.50484 0.0
C271 C 0.60815 0.91928 0.4738 0.0
C272 C 0.48338 0.82536 0.44178 0.0
C273 C 0.4648 0.78704 0.47334 0.0
N274 N 0.52011 0.77528 0.52775 0.0
N275 N 0.58897 0.92466 0.40841 0.0
C276 C 0.52467 0.81369 0.50257 0.0
C277 C 0.55948 0.89062 0.44099 0.0
N278 N 0.63411 0.90663 0.53726 0.0
N279 N 0.42896 0.79993 0.41241 0.0
H280 H 0.64712 0.97116 0.40614 0.0
H281 H 0.56106 0.90492 0.38284 0.0
H282 H 0.3782 0.75167 0.40923 0.0
H283 H 0.43269 0.82724 0.39148 0.0
H284 H 0.61604 0.88066 0.56189 0.0
H285 H 0.68398 0.95481 0.54081 0.0
H286 H 0.56754 0.79206 0.54707 0.0
H287 H 0.47423 0.72614 0.52675 0.0
C288 C 0.74031 0.23581 0.84331 0.0
C289 C 0.67543 0.22598 0.82303 0.0
C290 C 0.66272 0.15389 0.78243 0.0
C291 C 0.71562 0.15434 0.80673 0.0
N292 N 0.81135 0.19989 0.85895 0.0
N293 N 0.56882 0.17165 0.77528 0.0
C294 C 0.7569 0.19695 0.83667 0.0
C295 C 0.63519 0.18411 0.79303 0.0
N296 N 0.78778 0.28369 0.86804 0.0
N297 N 0.64137 0.12685 0.74859 0.0
H298 H 0.54695 0.19313 0.78202 0.0
H299 H 0.53091 0.13608 0.75604 0.0
H300 H 0.66419 0.10751 0.73871 0.0
H301 H 0.60954 0.13043 0.72849 0.0
H302 H 0.84206 0.29816 0.8808 0.0
H303 H 0.77693 0.31272 0.87371 0.0
H304 H 0.83387 0.22285 0.88409 0.0
H305 H 0.83253 0.17772 0.85295 0.0
C306 C 0.79761 0.79096 0.533 0.0
C307 C 0.87067 0.85018 0.54699 0.0
C308 C 0.91593 0.80072 0.57729 0.0
C309 C 0.83858 0.7407 0.56671 0.0
N310 N 0.70039 0.67684 0.53868 0.0
N311 N 0.99231 0.91046 0.58745 0.0
C312 C 0.77788 0.73522 0.54559 0.0
C313 C 0.92809 0.85488 0.57047 0.0
N314 N 0.7484 0.78826 0.50703 0.0
N315 N 0.97862 0.80612 0.59305 0.0
H316 H 1.00312 0.95125 0.58345 0.0
H317 H 1.03028 0.91472 0.60803 0.0
H318 H 0.97224 0.76745 0.59828 0.0
H319 H 1.03959 0.84932 0.59778 0.0
H320 H 0.69942 0.74744 0.49294 0.0
H321 H 0.7609 0.82817 0.49725 0.0
H322 H 0.65015 0.66984 0.52701 0.0
H323 H 0.68398 0.63496 0.54719 0.0
C324 C 1.01401 0.61216 0.87771 0.0
C325 C 0.93974 0.56324 0.85718 0.0
C326 C 0.99595 0.51258 0.85154 0.0
C327 C 1.07192 0.56382 0.86974 0.0
N328 N 1.16233 0.67136 0.88916 0.0
N329 N 0.87542 0.4777 0.8151 0.0
C330 C 1.08384 0.61662 0.87893 0.0
C331 C 0.93517 0.51651 0.84131 0.0
N332 N 1.01667 0.65184 0.89869 0.0
N333 N 0.98014 0.45923 0.84501 0.0
H334 H 0.83464 0.48247 0.80476 0.0
H335 H 0.87345 0.44633 0.80046 0.0
H336 H 1.02326 0.45499 0.85164 0.0
H337 H 0.92188 0.41784 0.83555 0.0
H338 H 1.06606 0.6836 0.9169 0.0
H339 H 0.96594 0.64824 0.90181 0.0
H340 H 1.17665 0.71332 0.89282 0.0
H341 H 0.21504 0.6765 0.88992 0.0
C342 C 0.4932 0.82899 0.19332 0.0
C343 C 0.47038 0.79806 0.1592 0.0
C344 C 0.58099 0.90119 0.1286 0.0
C345 C 0.59117 0.93244 0.16107 0.0
N346 N 0.55095 0.92329 0.22497 0.0
N347 N 0.48725 0.8059 0.09295 0.0
C348 C 0.54544 0.89558 0.19362 0.0
C349 C 0.51293 0.83449 0.12642 0.0
N350 N 0.47017 0.79541 0.22574 0.0
N351 N 0.63805 0.93451 0.10033 0.0
H352 H 0.43804 0.75728 0.09007 0.0
H353 H 0.50991 0.83109 0.06787 0.0
H354 H 0.69199 0.98259 0.10149 0.0
H355 H 0.63745 0.91297 0.07762 0.0
H356 H 0.49155 0.81618 0.25157 0.0
H357 H 0.43913 0.74793 0.22644 0.0
H358 H 0.51037 0.89737 0.24741 0.0
H359 H 0.59158 0.97176 0.22815 0.0
C360 C 0.7872 0.43329 0.47805 0.0
C361 C 0.71145 0.36881 0.48266 0.0
C362 C 0.63955 0.39971 0.50673 0.0
C363 C 0.71803 0.46367 0.50712 0.0
N364 N 0.85498 0.54296 0.47848 0.0
N365 N 0.56794 0.2896 0.50505 0.0
C366 C 0.78898 0.48116 0.48857 0.0
C367 C 0.63813 0.35174 0.49778 0.0
N368 N 0.85789 0.44855 0.46447 0.0
N369 N 0.56544 0.38517 0.51213 0.0
H370 H 0.56362 0.25267 0.4986 0.0
H371 H 0.51668 0.27493 0.52036 0.0
H372 H 0.56253 0.41934 0.51486 0.0
H373 H 0.50595 0.34008 0.50878 0.0
H374 H 0.91791 0.49391 0.46471 0.0
H375 H 0.85766 0.4149 0.45482 0.0
H376 H 0.90557 0.55848 0.46228 0.0
H377 H 0.8546 0.57819 0.48257 0.0
C378 C 0.4699 0.52066 0.88433 0.0
C379 C 0.52259 0.54313 0.85266 0.0
C380 C 0.44695 0.57049 0.82297 0.0
C381 C 0.38503 0.53778 0.85155 0.0
N382 N 0.34038 0.4837 0.9111 0.0
N383 N 0.55239 0.58167 0.78936 0.0
C384 C 0.39765 0.51376 0.8828 0.0
C385 C 0.50924 0.56654 0.82145 0.0
N386 N 0.49124 0.50884 0.91667 0.0
N387 N 0.44741 0.60648 0.79748 0.0
H388 H 0.59559 0.57693 0.78625 0.0
H389 H 0.53885 0.59259 0.76461 0.0
H390 H 0.40482 0.6122 0.79826 0.0
H391 H 0.49582 0.63632 0.77825 0.0
H392 H 0.4619 0.49945 0.94189 0.0
H393 H 0.54385 0.51424 0.91918 0.0
H394 H 0.33821 0.45654 0.93154 0.0
H395 H 0.29282 0.48396 0.91373 0.0
C396 C 1.11524 0.36323 0.18923 0.0
C397 C 1.09247 0.39421 0.17128 0.0
C398 C 0.94437 0.29284 0.16885 0.0
C399 C 0.96796 0.26164 0.18518 0.0
N400 N 1.07908 0.26441 0.2011 0.0
N401 N 0.98989 0.38398 0.134 0.0
C402 C 1.05467 0.29607 0.192 0.0
C403 C 1.0084 0.35764 0.15803 0.0
N404 N 0.19247 0.39757 0.20592 0.0
N405 N 0.86087 0.26194 0.16541 0.0
H406 H 1.03479 0.43088 0.12496 0.0
H407 H 0.93266 0.35721 0.11977 0.0
H408 H 0.81161 0.2147 0.17318 0.0
H409 H 0.84074 0.28479 0.15765 0.0
H410 H 0.2086 0.37722 0.22263 0.0
H411 H 0.23749 0.44669 0.20635 0.0
H412 H 1.14226 0.28647 0.20293 0.0
H413 H 1.03616 0.21519 0.20297 0.0
C414 C 0.1829 0.51532 0.04161 0.0
C415 C 0.22115 0.57287 0.05903 0.0
C416 C 0.26021 0.62615 -0.00181 0.0
C417 C 0.21495 0.56741 0.98092 0.0
N418 N 1.12599 0.45472 0.98541 0.0
N419 N 0.28148 0.6801 0.05368 0.0
C420 C 1.17463 0.51162 0.00243 0.0
C421 C 0.25659 0.62776 0.0373 0.0
N422 N 1.15577 0.46437 0.06252 0.0
N423 N 0.30713 0.68055 0.97715 0.0
H424 H 0.27733 0.68281 0.08203 0.0
H425 H 0.29903 0.71889 0.03888 0.0
H426 H 0.30984 0.68103 0.94837 0.0
H427 H 0.34894 0.72544 0.98833 0.0
H428 H 1.13658 0.42351 0.05156 0.0
H429 H 1.15868 0.46473 0.09121 0.0
H430 H 1.08642 0.41137 -0.00046 0.0
H431 H 1.12064 0.45041 0.95674 0.0
C432 C 0.83517 0.07713 0.35481 0.0
C433 C 0.84285 0.12247 0.37438 0.0
C434 C 0.82193 0.15641 0.31677 0.0
C435 C 0.82923 0.11934 0.29638 0.0
N436 N 0.85818 0.0521 0.29655 0.0
N437 N 0.8664 0.21671 0.37186 0.0
C438 C 0.83925 0.08115 0.31549 0.0
C439 C 0.84218 0.16519 0.35487 0.0
N440 N 0.82439 1.0305 0.37366 0.0
N441 N 0.79506 0.1829 0.29989 0.0
H442 H 0.88856 0.22754 0.39892 0.0
H443 H 0.87392 0.25217 0.35775 0.0
H444 H 0.77641 0.17544 0.27222 0.0
H445 H 0.78251 0.2062 0.31447 0.0
H446 H 0.81023 0.9927 0.3606 0.0
H447 H 0.82185 1.02649 0.40246 0.0
H448 H 0.87437 1.02905 0.30959 0.0
H449 H 0.86609 0.05627 0.26796 0.0
C450 C 0.78485 0.62417 0.73535 0.0
C451 C 0.72914 0.55996 0.74678 0.0
C452 C 0.70317 0.53058 0.68186 0.0
C453 C 0.77028 0.59484 0.67092 0.0
N454 N 0.89155 0.70089 0.69078 0.0
N455 N 0.65611 0.45297 0.72963 0.0
C456 C 0.81654 0.64125 0.69873 0.0
C457 C 0.69448 0.51323 0.71972 0.0
N458 N 0.80307 0.66839 0.75834 0.0
N459 N 0.64476 0.48646 0.65687 0.0
H460 H 0.65535 0.43935 0.75672 0.0
H461 H 0.6354 0.41911 0.71018 0.0
H462 H 0.64335 0.49786 0.62945 0.0
H463 H 0.59163 0.44011 0.66472 0.0
H464 H 0.83893 0.71532 0.74994 0.0
H465 H 0.77248 0.65585 0.78364 0.0
H466 H 0.92901 0.73447 0.71115 0.0
H467 H 0.92067 0.71411 0.665 0.0
C468 C 0.7141 0.05272 0.60052 0.0
C469 C 0.78304 0.10792 0.58024 0.0
C470 C 0.87396 0.14399 0.635 0.0
C471 C 0.80324 0.09237 0.65585 0.0
N472 N 0.65283 1.00322 0.66061 0.0
N473 N 0.92169 0.21414 0.58225 0.0
C474 C 0.72233 0.04843 0.63924 0.0
C475 C 0.86147 0.1557 0.59845 0.0
N476 N 0.64166 1.00299 0.58283 0.0
N477 N 0.95319 0.18196 0.65012 0.0
H478 H 0.91234 0.22743 0.5573 0.0
H479 H 0.97662 0.25215 0.59577 0.0
H480 H 0.96442 0.17562 0.67715 0.0
H481 H 1.00811 0.21608 0.63481 0.0
H482 H 0.5939 0.95929 0.59566 0.0
H483 H 0.6322 1.00208 0.55447 0.0
H484 H 0.59093 0.97503 0.65097 0.0
H485 H 0.65643 0.99721 0.6889 0.0
C486 C 0.65688 0.50523 0.97721 0.0
C487 C 0.71497 0.51325 0.95343 0.0
C488 C 0.67767 0.4184 0.97983 0.0
C489 C 0.61837 0.40943 0.00326 0.0
N490 N 0.563 0.44991 0.03029 0.0
N491 N 0.80177 0.49164 0.94119 0.0
C492 C 0.61147 0.4547 0.00383 0.0
C493 C 0.73211 0.47426 0.95762 0.0
N494 N 0.64585 0.54632 0.97426 0.0
N495 N 0.68059 0.37288 0.9782 0.0
H496 H 0.84575 0.5348 0.92722 0.0
H497 H 0.82141 0.46759 0.94524 0.0
H498 H 0.64254 0.33167 -0.00546 0.0
H499 H 0.71573 0.37353 0.95859 0.0
H500 H 0.59855 0.54001 0.98783 0.0
H501 H 0.68313 0.58638 0.95693 0.0
H502 H 0.56098 0.48416 0.03457 0.0
H503 H 0.52793 0.41286 0.04975 0.0
C504 C 0.29442 0.63059 0.28348 0.0
C505 C 0.32372 0.60641 0.2645 0.0
C506 C 0.33796 0.5707 0.32375 0.0
C507 C 0.30234 0.59042 0.34211 0.0
N508 N 0.23267 0.62886 0.3392 0.0
N509 N 0.35758 0.54235 0.26589 0.0
C510 C 0.27663 0.6175 0.3219 0.0
C511 C 0.34121 0.57339 0.28445 0.0
N512 N 0.2862 0.66797 0.26515 0.0
N513 N 0.37089 0.55105 0.3439 0.0
H514 H 0.36013 0.54264 0.23716 0.0
H515 H 0.36104 0.51155 0.27878 0.0
H516 H 0.36918 0.54804 0.37273 0.0
H517 H 0.40615 0.54281 0.33229 0.0
H518 H 0.27588 0.69366 0.27829 0.0
H519 H 0.29594 0.67707 0.23691 0.0
H520 H 0.20355 0.6416 0.32514 0.0
H521 H 0.21883 0.62028 0.3674 0.0
loop_
_geom_bond_atom_site_label_1
_geom_bond_atom_site_label_2
_geom_bond_distance
_geom_bond_site_symmetry_2
_ccdc_geom_bond_type
La0 C2 2.928 . S
La0 O20 2.521 . S
La0 O21 2.628 . S
La0 O22 2.554 . S
La0 O23 2.757 1_455 S
La0 O24 2.470 . S
La0 O29 2.482 . S
La0 O31 2.503 1_455 S
La1 C11 2.928 . S
La1 O23 2.482 . S
La1 O25 2.503 1_655 S
La1 O26 2.521 . S
La1 O27 2.628 . S
La1 O28 2.554 . S
La1 O29 2.757 1_655 S
La1 O30 2.470 . S
C2 La0 2.928 . S
C2 C3 1.503 . S
C2 O20 1.261 . S
C2 O21 1.243 . S
C3 C2 1.503 . S
C3 C4 1.394 . S
C3 C8 1.373 . S
C4 C3 1.394 . S
C4 C5 1.380 . S
C4 H32 0.930 . S
C5 C4 1.380 . S
C5 C6 1.376 . S
C5 H33 0.930 . S
C6 C5 1.376 . S
C6 C7 1.370 . S
C7 C6 1.370 . S
C7 C8 1.396 . S
C7 H34 0.929 . S
C8 C3 1.373 . S
C8 C7 1.396 . S
C8 H35 0.929 . S
C9 O22 1.240 . S
C9 O23 1.289 1_455 S
C10 O24 1.258 . S
C10 O25 1.256 . S
C11 La1 2.928 . S
C11 C12 1.503 . S
C11 O26 1.261 . S
C11 O27 1.243 . S
C12 C11 1.503 . S
C12 C13 1.394 . S
C12 C17 1.373 . S
C13 C12 1.394 . S
C13 C14 1.380 . S
C13 H36 0.930 . S
C14 C13 1.380 . S
C14 C15 1.376 . S
C14 H37 0.930 . S
C15 C14 1.376 . S
C15 C16 1.370 . S
C16 C15 1.370 . S
C16 C17 1.396 . S
C16 H38 0.929 . S
C17 C12 1.373 . S
C17 C16 1.396 . S
C17 H39 0.929 . S
C18 O28 1.240 1_455 S
C18 O29 1.289 . S
C19 O30 1.258 . S
C19 O31 1.256 . S
O20 La0 2.521 . S
O20 C2 1.261 . S
O21 La0 2.628 . S
O21 C2 1.243 . S
O22 La0 2.554 . S
O22 C9 1.240 . S
O23 La0 2.757 1_655 S
O23 La1 2.482 . S
O23 C9 1.289 1_655 S
O24 La0 2.470 . S
O24 C10 1.258 . S
O25 La1 2.503 1_455 S
O25 C10 1.256 . S
O26 La1 2.521 . S
O26 C11 1.261 . S
O27 La1 2.628 . S
O27 C11 1.243 . S
O28 La1 2.554 . S
O28 C18 1.240 1_655 S
O29 La0 2.482 . S
O29 La1 2.757 1_455 S
O29 C18 1.289 . S
O30 La1 2.470 . S
O30 C19 1.258 . S
O31 La0 2.503 1_655 S
O31 C19 1.256 . S
H32 C4 0.930 . S
H33 C5 0.930 . S
H34 C7 0.929 . S
H35 C8 0.929 . S
H36 C13 0.930 . S
H37 C14 0.930 . S
H38 C16 0.929 . S
H39 C17 0.929 . S
La40 C42 2.928 1_545 S
La40 O60 2.521 1_545 S
La40 O61 2.628 1_545 S
La40 O62 2.554 . S
La40 O63 2.757 . S
La40 O64 2.470 1_545 S
La40 O69 2.482 . S
La40 O71 2.503 . S
La41 C51 2.928 . S
La41 O63 2.482 . S
La41 O65 2.503 1_545 S
La41 O66 2.521 . S
La41 O67 2.628 . S
La41 O68 2.554 . S
La41 O69 2.757 . S
La41 O70 2.470 . S
C42 La40 2.928 1_565 S
C42 C43 1.503 . S
C42 O60 1.261 . S
C42 O61 1.243 . S
C43 C42 1.503 . S
C43 C44 1.394 . S
C43 C48 1.373 . S
C44 C43 1.394 . S
C44 C45 1.380 . S
C44 H72 0.930 . S
C45 C44 1.380 . S
C45 C46 1.376 . S
C45 H73 0.930 . S
C46 C45 1.376 . S
C46 C47 1.370 . S
C47 C46 1.370 . S
C47 C48 1.396 . S
C47 H74 0.929 . S
C48 C43 1.373 . S
C48 C47 1.396 . S
C48 H75 0.929 . S
C49 O62 1.240 . S
C49 O63 1.289 . S
C50 O64 1.258 . S
C50 O65 1.256 . S
C51 La41 2.928 . S
C51 C52 1.503 . S
C51 O66 1.261 . S
C51 O67 1.243 . S
C52 C51 1.503 . S
C52 C53 1.394 . S
C52 C57 1.373 . S
C53 C52 1.394 . S
C53 C54 1.380 . S
C53 H76 0.930 . S
C54 C53 1.380 . S
C54 C55 1.376 . S
C54 H77 0.930 . S
C55 C54 1.376 . S
C55 C56 1.370 . S
C56 C55 1.370 . S
C56 C57 1.396 . S
C56 H78 0.929 . S
C57 C52 1.373 . S
C57 C56 1.396 . S
C57 H79 0.929 . S
C58 O68 1.240 . S
C58 O69 1.289 . S
C59 O70 1.258 . S
C59 O71 1.256 . S
O60 La40 2.521 1_565 S
O60 C42 1.261 . S
O61 La40 2.628 1_565 S
O61 C42 1.243 . S
O62 La40 2.554 . S
O62 C49 1.240 . S
O63 La40 2.757 . S
O63 La41 2.482 . S
O63 C49 1.289 . S
O64 La40 2.470 1_565 S
O64 C50 1.258 . S
O65 La41 2.503 1_565 S
O65 C50 1.256 . S
O66 La41 2.521 . S
O66 C51 1.261 . S
O67 La41 2.628 . S
O67 C51 1.243 . S
O68 La41 2.554 . S
O68 C58 1.240 . S
O69 La40 2.482 . S
O69 La41 2.757 . S
O69 C58 1.289 . S
O70 La41 2.470 . S
O70 C59 1.258 . S
O71 La40 2.503 . S
O71 C59 1.256 . S
H72 C44 0.930 . S
H73 C45 0.930 . S
H74 C47 0.929 . S
H75 C48 0.929 . S
H76 C53 0.930 . S
H77 C54 0.930 . S
H78 C56 0.929 . S
H79 C57 0.929 . S
La80 C82 2.928 . S
La80 O100 2.521 . S
La80 O101 2.628 . S
La80 O102 2.554 . S
La80 O103 2.757 . S
La80 O104 2.470 . S
La80 O109 2.482 . S
La80 O111 2.503 . S
La81 C91 2.928 . S
La81 O103 2.482 . S
La81 O105 2.503 . S
La81 O106 2.521 . S
La81 O107 2.628 . S
La81 O108 2.554 . S
La81 O109 2.757 . S
La81 O110 2.470 . S
C82 La80 2.928 . S
C82 C83 1.503 . S
C82 O100 1.261 . S
C82 O101 1.243 . S
C83 C82 1.503 . S
C83 C84 1.394 . S
C83 C88 1.373 . S
C84 C83 1.394 . S
C84 C85 1.380 . S
C84 H112 0.930 . S
C85 C84 1.380 . S
C85 C86 1.376 . S
C85 H113 0.930 . S
C86 C85 1.376 . S
C86 C87 1.370 . S
C87 C86 1.370 . S
C87 C88 1.396 . S
C87 H114 0.929 . S
C88 C83 1.373 . S
C88 C87 1.396 . S
C88 H115 0.929 . S
C89 O102 1.240 . S
C89 O103 1.289 . S
C90 O104 1.258 . S
C90 O105 1.256 . S
C91 La81 2.928 . S
C91 C92 1.503 . S
C91 O106 1.261 . S
C91 O107 1.243 . S
C92 C91 1.503 . S
C92 C93 1.394 . S
C92 C97 1.373 . S
C93 C92 1.394 . S
C93 C94 1.380 . S
C93 H116 0.930 . S
C94 C93 1.380 . S
C94 C95 1.376 . S
C94 H117 0.930 . S
C95 C94 1.376 . S
C95 C96 1.370 . S
C96 C95 1.370 . S
C96 C97 1.396 . S
C96 H118 0.929 . S
C97 C92 1.373 . S
C97 C96 1.396 . S
C97 H119 0.929 . S
C98 O108 1.240 . S
C98 O109 1.289 . S
C99 O110 1.258 . S
C99 O111 1.256 . S
O100 La80 2.521 . S
O100 C82 1.261 . S
O101 La80 2.628 . S
O101 C82 1.243 . S
O102 La80 2.554 . S
O102 C89 1.240 . S
O103 La80 2.757 . S
O103 La81 2.482 . S
O103 C89 1.289 . S
O104 La80 2.470 . S
O104 C90 1.258 . S
O105 La81 2.503 . S
O105 C90 1.256 . S
O106 La81 2.521 . S
O106 C91 1.261 . S
O107 La81 2.628 . S
O107 C91 1.243 . S
O108 La81 2.554 . S
O108 C98 1.240 . S
O109 La80 2.482 . S
O109 La81 2.757 . S
O109 C98 1.289 . S
O110 La81 2.470 . S
O110 C99 1.258 . S
O111 La80 2.503 . S
O111 C99 1.256 . S
H112 C84 0.930 . S
H113 C85 0.930 . S
H114 C87 0.929 . S
H115 C88 0.929 . S
H116 C93 0.930 . S
H117 C94 0.930 . S
H118 C96 0.929 . S
H119 C97 0.929 . S
H120 C127 0.929 . S
H121 C130 0.930 . S
H122 C132 0.929 . S
H123 C124 0.969 . S
C124 H123 0.969 . S
C124 O125 1.550 . S
C124 H126 0.973 . S
O125 C124 1.550 . S
O125 C131 1.412 . S
H126 C124 0.973 . S
C127 H120 0.929 . S
C127 C128 1.400 . S
C127 C129 1.364 . S
C128 C127 1.400 . S
C128 C132 1.377 . S
C129 C127 1.364 . S
C129 C130 1.374 1_545 S
C130 H121 0.930 . S
C130 C129 1.374 1_565 S
C130 C131 1.383 . S
C131 O125 1.412 . S
C131 C130 1.383 . S
C131 C132 1.394 1_565 S
C132 H122 0.929 . S
C132 C128 1.377 . S
C132 C131 1.394 1_545 S
H133 C140 0.929 . S
H134 C143 0.930 . S
H135 C145 0.929 . S
H136 C137 0.969 . S
C137 H136 0.969 . S
C137 O138 1.550 . S
C137 H139 0.973 . S
O138 C137 1.550 . S
O138 C144 1.412 . S
H139 C137 0.973 . S
C140 H133 0.929 . S
C140 C141 1.400 . S
C140 C142 1.364 . S
C141 C140 1.400 . S
C141 C145 1.377 . S
C142 C140 1.364 . S
C142 C143 1.374 . S
C143 H134 0.930 . S
C143 C142 1.374 . S
C143 C144 1.383 . S
C144 O138 1.412 . S
C144 C143 1.383 . S
C144 C145 1.394 . S
C145 H135 0.929 . S
C145 C141 1.377 . S
C145 C144 1.394 . S
H146 C153 0.929 1_655 S
H147 C156 0.930 . S
H148 C158 0.929 . S
H149 C150 0.969 . S
C150 H149 0.969 . S
C150 O151 1.550 . S
C150 H152 0.973 . S
O151 C150 1.550 . S
O151 C157 1.412 . S
H152 C150 0.973 . S
C153 H146 0.929 1_455 S
C153 C154 1.400 . S
C153 C155 1.364 . S
C154 C153 1.400 . S
C154 C158 1.377 . S
C155 C153 1.364 . S
C155 C156 1.374 . S
C156 H147 0.930 . S
C156 C155 1.374 . S
C156 C157 1.383 . S
C157 O151 1.412 . S
C157 C156 1.383 . S
C157 C158 1.394 . S
C158 H148 0.929 . S
C158 C154 1.377 . S
C158 C157 1.394 . S
H159 C166 0.929 . S
H160 C169 0.930 . S
H161 C171 0.929 . S
H162 C163 0.969 . S
C163 H162 0.969 . S
C163 O164 1.550 . S
C163 H165 0.973 . S
O164 C163 1.550 . S
O164 C170 1.412 . S
H165 C163 0.973 . S
C166 H159 0.929 . S
C166 C167 1.400 . S
C166 C168 1.364 1_655 S
C167 C166 1.400 . S
C167 C171 1.377 1_655 S
C168 C166 1.364 1_455 S
C168 C169 1.374 . S
C169 H160 0.930 . S
C169 C168 1.374 . S
C169 C170 1.383 . S
C170 O164 1.412 . S
C170 C169 1.383 . S
C170 C171 1.394 . S
C171 H161 0.929 . S
C171 C167 1.377 1_455 S
C171 C170 1.394 . S
H172 C179 0.929 . S
H173 C182 0.930 . S
H174 C184 0.929 . S
H175 C176 0.969 . S
C176 H175 0.969 . S
C176 O177 1.550 . S
C176 H178 0.973 . S
O177 C176 1.550 . S
O177 C183 1.412 . S
H178 C176 0.973 . S
C179 H172 0.929 . S
C179 C180 1.400 . S
C179 C181 1.364 1_565 S
C180 C179 1.400 . S
C180 C184 1.377 . S
C181 C179 1.364 1_545 S
C181 C182 1.374 . S
C182 H173 0.930 . S
C182 C181 1.374 . S
C182 C183 1.383 . S
C183 O177 1.412 . S
C183 C182 1.383 . S
C183 C184 1.394 1_545 S
C184 H174 0.929 . S
C184 C180 1.377 . S
C184 C183 1.394 1_565 S
H185 C192 0.929 . S
H186 C195 0.930 . S
H187 C197 0.929 . S
H188 C189 0.969 . S
C189 H188 0.969 . S
C189 O190 1.550 . S
C189 H191 0.973 . S
O190 C189 1.550 . S
O190 C196 1.412 . S
H191 C189 0.973 . S
C192 H185 0.929 . S
C192 C193 1.400 . S
C192 C194 1.364 . S
C193 C192 1.400 . S
C193 C197 1.377 . S
C194 C192 1.364 . S
C194 C195 1.374 . S
C195 H186 0.930 . S
C195 C194 1.374 . S
C195 C196 1.383 . S
C196 O190 1.412 . S
C196 C195 1.383 . S
C196 C197 1.394 . S
C197 H187 0.929 . S
C197 C193 1.377 . S
C197 C196 1.394 . S
C198 C199 1.363 . S
C198 C204 1.379 . S
C198 N206 1.356 . S
C199 C198 1.363 . S
C199 C205 1.363 . S
C200 C201 1.363 . S
C200 C205 1.379 . S
C200 N207 1.356 . S
C201 C200 1.363 . S
C201 C204 1.363 . S
N202 C204 1.356 . S
N202 H214 0.984 . S
N202 H215 0.985 . S
N203 C205 1.356 . S
N203 H208 0.984 . S
N203 H209 0.985 . S
C204 C198 1.379 . S
C204 C201 1.363 . S
C204 N202 1.356 . S
C205 C199 1.363 . S
C205 C200 1.379 . S
C205 N203 1.356 . S
N206 C198 1.356 . S
N206 H212 0.984 . S
N206 H213 0.984 . S
N207 C200 1.356 . S
N207 H210 0.984 . S
N207 H211 0.985 . S
H208 N203 0.984 . S
H209 N203 0.985 . S
H210 N207 0.984 . S
H211 N207 0.985 . S
H212 N206 0.984 . S
H213 N206 0.984 . S
H214 N202 0.984 . S
H215 N202 0.985 . S
C216 C217 1.363 . S
C216 C222 1.379 . S
C216 N224 1.356 . S
C217 C216 1.363 . S
C217 C223 1.363 . S
C218 C219 1.363 . S
C218 C223 1.379 . S
C218 N225 1.356 . S
C219 C218 1.363 . S
C219 C222 1.363 . S
N220 C222 1.356 . S
N220 H232 0.984 . S
N220 H233 0.985 . S
N221 C223 1.356 . S
N221 H226 0.984 . S
N221 H227 0.985 . S
C222 C216 1.379 . S
C222 C219 1.363 . S
C222 N220 1.356 . S
C223 C217 1.363 . S
C223 C218 1.379 . S
C223 N221 1.356 . S
N224 C216 1.356 . S
N224 H230 0.984 . S
N224 H231 0.984 . S
N225 C218 1.356 . S
N225 H228 0.984 . S
N225 H229 0.985 . S
H226 N221 0.984 . S
H227 N221 0.985 . S
H228 N225 0.984 . S
H229 N225 0.985 . S
H230 N224 0.984 . S
H231 N224 0.984 . S
H232 N220 0.984 . S
H233 N220 0.985 . S
C234 C235 1.363 . S
C234 C240 1.379 . S
C234 N242 1.356 . S
C235 C234 1.363 . S
C235 C241 1.363 . S
C236 C237 1.363 . S
C236 C241 1.379 . S
C236 N243 1.356 1_565 S
C237 C236 1.363 . S
C237 C240 1.363 . S
N238 C240 1.356 . S
N238 H250 0.984 . S
N238 H251 0.985 . S
N239 C241 1.356 . S
N239 H244 0.984 . S
N239 H245 0.985 1_565 S
C240 C234 1.379 . S
C240 C237 1.363 . S
C240 N238 1.356 . S
C241 C235 1.363 . S
C241 C236 1.379 . S
C241 N239 1.356 . S
N242 C234 1.356 . S
N242 H248 0.984 . S
N242 H249 0.984 . S
N243 C236 1.356 1_545 S
N243 H246 0.984 . S
N243 H247 0.985 . S
H244 N239 0.984 . S
H245 N239 0.985 1_545 S
H246 N243 0.984 . S
H247 N243 0.985 . S
H248 N242 0.984 . S
H249 N242 0.984 . S
H250 N238 0.984 . S
H251 N238 0.985 . S
C252 C253 1.363 . S
C252 C258 1.379 . S
C252 N260 1.356 . S
C253 C252 1.363 . S
C253 C259 1.363 . S
C254 C255 1.363 . S
C254 C259 1.379 . S
C254 N261 1.356 . S
C255 C254 1.363 . S
C255 C258 1.363 . S
N256 C258 1.356 . S
N256 H268 0.984 . S
N256 H269 0.985 . S
N257 C259 1.356 . S
N257 H262 0.984 . S
N257 H263 0.985 . S
C258 C252 1.379 . S
C258 C255 1.363 . S
C258 N256 1.356 . S
C259 C253 1.363 . S
C259 C254 1.379 . S
C259 N257 1.356 . S
N260 C252 1.356 . S
N260 H266 0.984 . S
N260 H267 0.984 . S
N261 C254 1.356 . S
N261 H264 0.984 . S
N261 H265 0.985 . S
H262 N257 0.984 . S
H263 N257 0.985 . S
H264 N261 0.984 . S
H265 N261 0.985 . S
H266 N260 0.984 . S
H267 N260 0.984 . S
H268 N256 0.984 . S
H269 N256 0.985 . S
C270 C271 1.363 . S
C270 C276 1.379 . S
C270 N278 1.356 . S
C271 C270 1.363 . S
C271 C277 1.363 . S
C272 C273 1.363 . S
C272 C277 1.379 . S
C272 N279 1.356 . S
C273 C272 1.363 . S
C273 C276 1.363 . S
N274 C276 1.356 . S
N274 H286 0.984 . S
N274 H287 0.985 . S
N275 C277 1.356 . S
N275 H280 0.984 . S
N275 H281 0.985 . S
C276 C270 1.379 . S
C276 C273 1.363 . S
C276 N274 1.356 . S
C277 C271 1.363 . S
C277 C272 1.379 . S
C277 N275 1.356 . S
N278 C270 1.356 . S
N278 H284 0.984 . S
N278 H285 0.984 . S
N279 C272 1.356 . S
N279 H282 0.984 . S
N279 H283 0.985 . S
H280 N275 0.984 . S
H281 N275 0.985 . S
H282 N279 0.984 . S
H283 N279 0.985 . S
H284 N278 0.984 . S
H285 N278 0.984 . S
H286 N274 0.984 . S
H287 N274 0.985 . S
C288 C289 1.363 . S
C288 C294 1.379 . S
C288 N296 1.356 . S
C289 C288 1.363 . S
C289 C295 1.363 . S
C290 C291 1.363 . S
C290 C295 1.379 . S
C290 N297 1.356 . S
C291 C290 1.363 . S
C291 C294 1.363 . S
N292 C294 1.356 . S
N292 H304 0.984 . S
N292 H305 0.985 . S
N293 C295 1.356 . S
N293 H298 0.984 . S
N293 H299 0.985 . S
C294 C288 1.379 . S
C294 C291 1.363 . S
C294 N292 1.356 . S
C295 C289 1.363 . S
C295 C290 1.379 . S
C295 N293 1.356 . S
N296 C288 1.356 . S
N296 H302 0.984 . S
N296 H303 0.984 . S
N297 C290 1.356 . S
N297 H300 0.984 . S
N297 H301 0.985 . S
H298 N293 0.984 . S
H299 N293 0.985 . S
H300 N297 0.984 . S
H301 N297 0.985 . S
H302 N296 0.984 . S
H303 N296 0.984 . S
H304 N292 0.984 . S
H305 N292 0.985 . S
C306 C307 1.363 . S
C306 C312 1.379 . S
C306 N314 1.356 . S
C307 C306 1.363 . S
C307 C313 1.363 . S
C308 C309 1.363 . S
C308 C313 1.379 . S
C308 N315 1.356 . S
C309 C308 1.363 . S
C309 C312 1.363 . S
N310 C312 1.356 . S
N310 H322 0.984 . S
N310 H323 0.985 . S
N311 C313 1.356 . S
N311 H316 0.984 . S
N311 H317 0.985 . S
C312 C306 1.379 . S
C312 C309 1.363 . S
C312 N310 1.356 . S
C313 C307 1.363 . S
C313 C308 1.379 . S
C313 N311 1.356 . S
N314 C306 1.356 . S
N314 H320 0.984 . S
N314 H321 0.984 . S
N315 C308 1.356 . S
N315 H318 0.984 . S
N315 H319 0.985 . S
H316 N311 0.984 . S
H317 N311 0.985 . S
H318 N315 0.984 . S
H319 N315 0.985 . S
H320 N314 0.984 . S
H321 N314 0.984 . S
H322 N310 0.984 . S
H323 N310 0.985 . S
C324 C325 1.363 . S
C324 C330 1.379 . S
C324 N332 1.356 . S
C325 C324 1.363 . S
C325 C331 1.363 . S
C326 C327 1.363 . S
C326 C331 1.379 . S
C326 N333 1.356 . S
C327 C326 1.363 . S
C327 C330 1.363 . S
N328 C330 1.356 . S
N328 H340 0.984 1_655 S
N328 H341 0.985 1_655 S
N329 C331 1.356 . S
N329 H334 0.984 . S
N329 H335 0.985 . S
C330 C324 1.379 . S
C330 C327 1.363 . S
C330 N328 1.356 . S
C331 C325 1.363 . S
C331 C326 1.379 . S
C331 N329 1.356 . S
N332 C324 1.356 . S
N332 H338 0.984 . S
N332 H339 0.984 . S
N333 C326 1.356 . S
N333 H336 0.984 . S
N333 H337 0.985 . S
H334 N329 0.984 . S
H335 N329 0.985 . S
H336 N333 0.984 . S
H337 N333 0.985 . S
H338 N332 0.984 . S
H339 N332 0.984 . S
H340 N328 0.984 1_455 S
H341 N328 0.985 1_455 S
C342 C343 1.363 . S
C342 C348 1.379 . S
C342 N350 1.356 . S
C343 C342 1.363 . S
C343 C349 1.363 . S
C344 C345 1.363 . S
C344 C349 1.379 . S
C344 N351 1.356 . S
C345 C344 1.363 . S
C345 C348 1.363 . S
N346 C348 1.356 . S
N346 H358 0.984 . S
N346 H359 0.985 . S
N347 C349 1.356 . S
N347 H352 0.984 . S
N347 H353 0.985 . S
C348 C342 1.379 . S
C348 C345 1.363 . S
C348 N346 1.356 . S
C349 C343 1.363 . S
C349 C344 1.379 . S
C349 N347 1.356 . S
N350 C342 1.356 . S
N350 H356 0.984 . S
N350 H357 0.984 . S
N351 C344 1.356 . S
N351 H354 0.984 . S
N351 H355 0.985 . S
H352 N347 0.984 . S
H353 N347 0.985 . S
H354 N351 0.984 . S
H355 N351 0.985 . S
H356 N350 0.984 . S
H357 N350 0.984 . S
H358 N346 0.984 . S
H359 N346 0.985 . S
C360 C361 1.363 . S
C360 C366 1.379 . S
C360 N368 1.356 . S
C361 C360 1.363 . S
C361 C367 1.363 . S
C362 C363 1.363 . S
C362 C367 1.379 . S
C362 N369 1.356 . S
C363 C362 1.363 . S
C363 C366 1.363 . S
N364 C366 1.356 . S
N364 H376 0.984 . S
N364 H377 0.985 . S
N365 C367 1.356 . S
N365 H370 0.984 . S
N365 H371 0.985 . S
C366 C360 1.379 . S
C366 C363 1.363 . S
C366 N364 1.356 . S
C367 C361 1.363 . S
C367 C362 1.379 . S
C367 N365 1.356 . S
N368 C360 1.356 . S
N368 H374 0.984 . S
N368 H375 0.984 . S
N369 C362 1.356 . S
N369 H372 0.984 . S
N369 H373 0.985 . S
H370 N365 0.984 . S
H371 N365 0.985 . S
H372 N369 0.984 . S
H373 N369 0.985 . S
H374 N368 0.984 . S
H375 N368 0.984 . S
H376 N364 0.984 . S
H377 N364 0.985 . S
C378 C379 1.363 . S
C378 C384 1.379 . S
C378 N386 1.356 . S
C379 C378 1.363 . S
C379 C385 1.363 . S
C380 C381 1.363 . S
C380 C385 1.379 . S
C380 N387 1.356 . S
C381 C380 1.363 . S
C381 C384 1.363 . S
N382 C384 1.356 . S
N382 H394 0.984 . S
N382 H395 0.985 . S
N383 C385 1.356 . S
N383 H388 0.984 . S
N383 H389 0.985 . S
C384 C378 1.379 . S
C384 C381 1.363 . S
C384 N382 1.356 . S
C385 C379 1.363 . S
C385 C380 1.379 . S
C385 N383 1.356 . S
N386 C378 1.356 . S
N386 H392 0.984 . S
N386 H393 0.984 . S
N387 C380 1.356 . S
N387 H390 0.984 . S
N387 H391 0.985 . S
H388 N383 0.984 . S
H389 N383 0.985 . S
H390 N387 0.984 . S
H391 N387 0.985 . S
H392 N386 0.984 . S
H393 N386 0.984 . S
H394 N382 0.984 . S
H395 N382 0.985 . S
C396 C397 1.363 . S
C396 C402 1.379 . S
C396 N404 1.356 . S
C397 C396 1.363 . S
C397 C403 1.363 . S
C398 C399 1.363 . S
C398 C403 1.379 . S
C398 N405 1.356 . S
C399 C398 1.363 . S
C399 C402 1.363 . S
N400 C402 1.356 . S
N400 H412 0.984 . S
N400 H413 0.985 . S
N401 C403 1.356 . S
N401 H406 0.984 . S
N401 H407 0.985 . S
C402 C396 1.379 . S
C402 C399 1.363 . S
C402 N400 1.356 . S
C403 C397 1.363 . S
C403 C398 1.379 . S
C403 N401 1.356 . S
N404 C396 1.356 . S
N404 H410 0.984 . S
N404 H411 0.984 . S
N405 C398 1.356 . S
N405 H408 0.984 . S
N405 H409 0.985 . S
H406 N401 0.984 . S
H407 N401 0.985 . S
H408 N405 0.984 . S
H409 N405 0.985 . S
H410 N404 0.984 . S
H411 N404 0.984 . S
H412 N400 0.984 . S
H413 N400 0.985 . S
C414 C415 1.363 . S
C414 C420 1.362 1_554 S
C414 N422 1.356 . S
C415 C414 1.363 . S
C415 C421 1.363 . S
C416 C417 1.363 . S
C416 C421 1.379 1_556 S
C416 N423 1.356 . S
C417 C416 1.363 . S
C417 C420 1.372 . S
N418 C420 1.369 . S
N418 H430 0.984 . S
N418 H431 0.985 . S
N419 C421 1.362 . S
N419 H424 0.985 1_455 S
N419 H425 0.978 1_455 S
C420 C414 1.362 1_556 S
C420 C417 1.372 . S
C420 N418 1.369 . S
C421 C415 1.363 . S
C421 C416 1.379 1_554 S
C421 N419 1.362 . S
N422 C414 1.356 . S
N422 H428 0.984 . S
N422 H429 0.984 . S
N423 C416 1.356 . S
N423 H426 0.984 . S
N423 H427 0.985 . S
H424 N419 0.985 1_655 S
H425 N419 0.978 1_655 S
H426 N423 0.984 . S
H427 N423 0.985 . S
H428 N422 0.984 . S
H429 N422 0.984 . S
H430 N418 0.984 . S
H431 N418 0.985 . S
C432 C433 1.363 1_565 S
C432 C438 1.379 . S
C432 N440 1.356 . S
C433 C432 1.363 1_545 S
C433 C439 1.363 . S
C434 C435 1.363 . S
C434 C439 1.379 . S
C434 N441 1.356 . S
C435 C434 1.363 . S
C435 C438 1.363 1_545 S
N436 C438 1.356 . S
N436 H448 0.984 . S
N436 H449 0.985 . S
N437 C439 1.356 . S
N437 H442 0.984 . S
N437 H443 0.985 . S
C438 C432 1.379 . S
C438 C435 1.363 1_565 S
C438 N436 1.356 . S
C439 C433 1.363 . S
C439 C434 1.379 . S
C439 N437 1.356 . S
N440 C432 1.356 . S
N440 H446 0.984 . S
N440 H447 0.984 . S
N441 C434 1.356 . S
N441 H444 0.984 . S
N441 H445 0.985 . S
H442 N437 0.984 . S
H443 N437 0.985 . S
H444 N441 0.984 . S
H445 N441 0.985 . S
H446 N440 0.984 . S
H447 N440 0.984 . S
H448 N436 0.984 . S
H449 N436 0.985 . S
C450 C451 1.363 . S
C450 C456 1.379 . S
C450 N458 1.356 . S
C451 C450 1.363 . S
C451 C457 1.363 . S
C452 C453 1.363 . S
C452 C457 1.379 . S
C452 N459 1.356 . S
C453 C452 1.363 . S
C453 C456 1.363 . S
N454 C456 1.356 . S
N454 H466 0.984 . S
N454 H467 0.985 . S
N455 C457 1.356 . S
N455 H460 0.984 . S
N455 H461 0.985 . S
C456 C450 1.379 . S
C456 C453 1.363 . S
C456 N454 1.356 . S
C457 C451 1.363 . S
C457 C452 1.379 . S
C457 N455 1.356 . S
N458 C450 1.356 . S
N458 H464 0.984 . S
N458 H465 0.984 . S
N459 C452 1.356 . S
N459 H462 0.984 . S
N459 H463 0.985 . S
H460 N455 0.984 . S
H461 N455 0.985 . S
H462 N459 0.984 . S
H463 N459 0.985 . S
H464 N458 0.984 . S
H465 N458 0.984 . S
H466 N454 0.984 . S
H467 N454 0.985 . S
C468 C469 1.363 1_565 S
C468 C474 1.379 . S
C468 N476 1.356 . S
C469 C468 1.363 1_545 S
C469 C475 1.363 . S
C470 C471 1.363 . S
C470 C475 1.379 . S
C470 N477 1.356 . S
C471 C470 1.363 . S
C471 C474 1.363 1_545 S
N472 C474 1.356 . S
N472 H484 0.984 . S
N472 H485 0.985 . S
N473 C475 1.356 . S
N473 H478 0.984 . S
N473 H479 0.985 . S
C474 C468 1.379 . S
C474 C471 1.363 1_565 S
C474 N472 1.356 . S
C475 C469 1.363 . S
C475 C470 1.379 . S
C475 N473 1.356 . S
N476 C468 1.356 . S
N476 H482 0.984 . S
N476 H483 0.984 . S
N477 C470 1.356 . S
N477 H480 0.984 . S
N477 H481 0.985 . S
H478 N473 0.984 . S
H479 N473 0.985 . S
H480 N477 0.984 . S
H481 N477 0.985 . S
H482 N476 0.984 . S
H483 N476 0.984 . S
H484 N472 0.984 . S
H485 N472 0.985 . S
C486 C487 1.363 . S
C486 C492 1.379 . S
C486 N494 1.356 . S
C487 C486 1.363 . S
C487 C493 1.363 . S
C488 C489 1.363 . S
C488 C493 1.379 1_554 S
C488 N495 1.356 . S
C489 C488 1.363 . S
C489 C492 1.363 1_554 S
N490 C492 1.356 1_554 S
N490 H502 0.984 . S
N490 H503 0.985 . S
N491 C493 1.356 . S
N491 H496 0.984 . S
N491 H497 0.985 . S
C492 C486 1.379 . S
C492 C489 1.363 1_556 S
C492 N490 1.356 1_556 S
C493 C487 1.363 . S
C493 C488 1.379 1_556 S
C493 N491 1.356 . S
N494 C486 1.356 . S
N494 H500 0.984 . S
N494 H501 0.984 . S
N495 C488 1.356 . S
N495 H498 0.984 . S
N495 H499 0.985 . S
H496 N491 0.984 . S
H497 N491 0.985 . S
H498 N495 0.984 . S
H499 N495 0.985 . S
H500 N494 0.984 . S
H501 N494 0.984 . S
H502 N490 0.984 . S
H503 N490 0.985 . S
C504 C505 1.363 1_455 S
C504 C510 1.379 . S
C504 N512 1.356 . S
C505 C504 1.363 1_655 S
C505 C511 1.363 . S
C506 C507 1.363 1_655 S
C506 C511 1.379 . S
C506 N513 1.356 . S
C507 C506 1.363 1_455 S
C507 C510 1.363 . S
N508 C510 1.356 . S
N508 H520 0.984 . S
N508 H521 0.985 . S
N509 C511 1.356 . S
N509 H514 0.984 . S
N509 H515 0.985 . S
C510 C504 1.379 . S
C510 C507 1.363 . S
C510 N508 1.356 . S
C511 C505 1.363 . S
C511 C506 1.379 . S
C511 N509 1.356 . S
N512 C504 1.356 . S
N512 H518 0.984 . S
N512 H519 0.984 . S
N513 C506 1.356 . S
N513 H516 0.984 . S
N513 H517 0.985 . S
H514 N509 0.984 . S
H515 N509 0.985 . S
H516 N513 0.984 . S
H517 N513 0.985 . S
H518 N512 0.984 . S
H519 N512 0.984 . S
H520 N508 0.984 . S
H521 N508 0.985 . S
C199 C6 0.963 . S
C201 C189 1.083 . S
C217 C59 1.873 . S
C219 C167 1.847 . S
C235 C86 1.365 . S
C237 C180 1.407 . S
C253 C15 0.737 . S
C255 C193 0.721 . S
C273 C163 1.858 . S
C271 C50 2.027 . S
C291 C176 1.366 . S
C289 C95 1.377 . S
C307 C46 1.156 . S
C309 C141 1.169 . S
C325 C99 3.102 . S
C327 C154 3.071 1_655 S
C343 C10 2.044 . S
C345 C124 1.899 . S
C363 C137 1.433 . S
C361 C55 1.402 . S
C381 C150 2.937 . S
C379 C90 3.114 . S
C397 C19 1.883 . S
C399 C128 1.887 . S
C417 C155 1.785 . S
C415 C18 1.729 . S
C433 C49 1.440 . S
C435 C129 1.472 . S
C451 C98 1.481 . S
C453 C142 1.603 . S
C471 C181 1.533 . S
C469 C58 1.446 . S
C489 C194 1.258 . S
C487 C89 1.270 . S
C505 C9 1.387 1_655 S
C507 C168 1.450 . S
