# Generated by pormake.
# Topology pto, (3,4)-cn, num edge types: 1
# Building blocks:
#     Node 0, Type 0, BuildingBlock: OLANEW_clean_sbu_2, # of connection points: 3
#     Node 1, Type 0, BuildingBlock: OLANEW_clean_sbu_2, # of connection points: 3
#     Node 2, Type 0, BuildingBlock: OLANEW_clean_sbu_2, # of connection points: 3
#     Node 3, Type 0, BuildingBlock: OLANEW_clean_sbu_2, # of connection points: 3
#     Node 4, Type 0, BuildingBlock: OLANEW_clean_sbu_2, # of connection points: 3
#     Node 5, Type 0, BuildingBlock: OLANEW_clean_sbu_2, # of connection points: 3
#     Node 6, Type 0, BuildingBlock: OLANEW_clean_sbu_2, # of connection points: 3
#     Node 7, Type 0, BuildingBlock: OLANEW_clean_sbu_2, # of connection points: 3
#     Node 8, Type 1, BuildingBlock: MUDLON_clean_linker_0, # of connection points: 4
#     Node 9, Type 1, BuildingBlock: MUDLON_clean_linker_0, # of connection points: 4
#     Node 10, Type 1, BuildingBlock: MUDLON_clean_linker_0, # of connection points: 4
#     Node 11, Type 1, BuildingBlock: MUDLON_clean_linker_0, # of connection points: 4
#     Node 12, Type 1, BuildingBlock: MUDLON_clean_linker_0, # of connection points: 4
#     Node 13, Type 1, BuildingBlock: MUDLON_clean_linker_0, # of connection points: 4
#     Edge 14, Type (0, 1), BuildingBlock: OJICUG_clean_linker_0, # of connection points: 2
#     Edge 15, Type (0, 1), BuildingBlock: OJICUG_clean_linker_0, # of connection points: 2
#     Edge 16, Type (0, 1), BuildingBlock: OJICUG_clean_linker_0, # of connection points: 2
#     Edge 17, Type (0, 1), BuildingBlock: OJICUG_clean_linker_0, # of connection points: 2
#     Edge 18, Type (0, 1), BuildingBlock: OJICUG_clean_linker_0, # of connection points: 2
#     Edge 19, Type (0, 1), BuildingBlock: OJICUG_clean_linker_0, # of connection points: 2
#     Edge 20, Type (0, 1), BuildingBlock: OJICUG_clean_linker_0, # of connection points: 2
#     Edge 21, Type (0, 1), BuildingBlock: OJICUG_clean_linker_0, # of connection points: 2
#     Edge 22, Type (0, 1), BuildingBlock: OJICUG_clean_linker_0, # of connection points: 2
#     Edge 23, Type (0, 1), BuildingBlock: OJICUG_clean_linker_0, # of connection points: 2
#     Edge 24, Type (0, 1), BuildingBlock: OJICUG_clean_linker_0, # of connection points: 2
#     Edge 25, Type (0, 1), BuildingBlock: OJICUG_clean_linker_0, # of connection points: 2
#     Edge 26, Type (0, 1), BuildingBlock: OJICUG_clean_linker_0, # of connection points: 2
#     Edge 27, Type (0, 1), BuildingBlock: OJICUG_clean_linker_0, # of connection points: 2
#     Edge 28, Type (0, 1), BuildingBlock: OJICUG_clean_linker_0, # of connection points: 2
#     Edge 29, Type (0, 1), BuildingBlock: OJICUG_clean_linker_0, # of connection points: 2
#     Edge 30, Type (0, 1), BuildingBlock: OJICUG_clean_linker_0, # of connection points: 2
#     Edge 31, Type (0, 1), BuildingBlock: OJICUG_clean_linker_0, # of connection points: 2
#     Edge 32, Type (0, 1), BuildingBlock: OJICUG_clean_linker_0, # of connection points: 2
#     Edge 33, Type (0, 1), BuildingBlock: OJICUG_clean_linker_0, # of connection points: 2
#     Edge 34, Type (0, 1), BuildingBlock: OJICUG_clean_linker_0, # of connection points: 2
#     Edge 35, Type (0, 1), BuildingBlock: OJICUG_clean_linker_0, # of connection points: 2
#     Edge 36, Type (0, 1), BuildingBlock: OJICUG_clean_linker_0, # of connection points: 2
#     Edge 37, Type (0, 1), BuildingBlock: OJICUG_clean_linker_0, # of connection points: 2
# Relax obj value: 0.012
# Max RMSD: 0.126
# Mean RMSD: 0.065
data_MOF--net-pto--node1-OLANEW_clean_sbu_2--node2-MUDLON_clean_linker_0--edge1-OJICUG_clean_linker_0
_symmetry_space_group_name_H-M    P1
_symmetry_Int_Tables_number       1
_symmetry_cell_setting            triclinic
loop_
_symmetry_equiv_pos_as_xyz
'x, y, z'
_cell_length_a     31.94748
_cell_length_b     57.269761
_cell_length_c     44.624799
_cell_angle_alpha  92.843423
_cell_angle_beta   88.599002
_cell_angle_gamma 107.0619
loop_
_atom_site_label
_atom_site_type_symbol
_atom_site_fract_x
_atom_site_fract_y
_atom_site_fract_z
_atom_type_partial_charge
O0 O 0.37383 0.3506 0.31132 0.0
Cd1 Cd 0.33399 0.34918 0.3589 0.0
O2 O 0.39687 0.39073 0.3104 0.0
Cd3 Cd 0.35704 0.39571 0.34927 0.0
O4 O 0.30572 0.40445 0.37677 0.0
C5 C 0.30541 0.42659 0.37979 0.0
O6 O 0.33716 0.4436 0.36746 0.0
C7 C 0.39614 0.36987 0.29883 0.0
C8 C 0.3544 0.31603 0.3956 0.0
O9 O 0.32192 0.30915 0.37766 0.0
O10 O 0.37688 0.33863 0.39642 0.0
O11 O 0.27716 0.9135 0.80395 0.0
Cd12 Cd 0.22854 0.9321 0.7791 0.0
O13 O 0.25862 0.88224 0.77176 0.0
Cd14 Cd 0.25921 0.84801 0.74772 0.0
O15 O 0.24077 0.81303 0.72214 0.0
C16 C 0.21359 0.79485 0.73391 0.0
O17 O 0.19927 0.79758 0.76133 0.0
C18 C 0.28119 0.89302 0.79424 0.0
C19 C 0.26873 0.95424 0.72737 0.0
O20 O 0.27368 0.96609 0.7528 0.0
O21 O 0.24442 0.932 0.72638 0.0
O22 O 0.83144 0.79052 0.34055 0.0
Cd23 Cd 0.79887 0.75244 0.31129 0.0
O24 O 0.84123 0.81454 0.30241 0.0
Cd25 Cd 0.80918 0.78556 0.26984 0.0
O26 O 0.76168 0.77596 0.23369 0.0
C27 C 0.75578 0.79458 0.22216 0.0
O28 O 0.77913 0.8164 0.23207 0.0
C29 C 0.84493 0.81176 0.33019 0.0
C30 C 0.82767 0.71495 0.33284 0.0
O31 O 0.84732 0.72749 0.31091 0.0
O32 O 0.79388 0.71986 0.34429 0.0
O33 O 0.80684 0.30726 0.63796 0.0
Cd34 Cd 0.76304 0.26762 0.65567 0.0
O35 O 0.76597 0.32699 0.66234 0.0
Cd36 Cd 0.72262 0.29649 0.68568 0.0
O37 O 0.68056 0.29517 0.72516 0.0
C38 C 0.67287 0.3155 0.7308 0.0
O39 O 0.68922 0.33338 0.71261 0.0
C40 C 0.798 0.32712 0.64485 0.0
C41 C 0.78368 0.22921 0.62375 0.0
O42 O 0.754 0.23807 0.61464 0.0
O43 O 0.80346 0.2384 0.64814 0.0
O44 O 0.74667 0.78685 0.61356 0.0
Cd45 Cd 0.71725 0.74753 0.63692 0.0
O46 O 0.78147 0.80739 0.65299 0.0
Cd47 Cd 0.75115 0.77878 0.68389 0.0
O48 O 0.71068 0.77238 0.72442 0.0
C49 C 0.67031 0.7706 0.72198 0.0
O50 O 0.65427 0.77022 0.69506 0.0
C51 C 0.77179 0.80644 0.62543 0.0
C52 C 0.77691 0.7204 0.63081 0.0
O53 O 0.75265 0.72173 0.60892 0.0
O54 O 0.77274 0.73163 0.65575 0.0
O55 O 0.85726 0.2901 0.31547 0.0
Cd56 Cd 0.82191 0.25194 0.28709 0.0
O57 O 0.79809 0.29066 0.34132 0.0
Cd58 Cd 0.75767 0.26324 0.31005 0.0
O59 O 0.72721 0.2624 0.26661 0.0
C60 C 0.74632 0.28089 0.25156 0.0
O61 O 0.78193 0.2966 0.26258 0.0
C62 C 0.83886 0.29968 0.33627 0.0
C63 C 0.82964 0.21281 0.31914 0.0
O64 O 0.85908 0.22317 0.30009 0.0
O65 O 0.79598 0.22058 0.32249 0.0
O66 O 0.17861 0.33766 0.81583 0.0
Cd67 Cd 0.1157 0.33299 0.78377 0.0
O68 O 0.20091 0.31553 0.78123 0.0
Cd69 Cd 0.24742 0.29947 0.75764 0.0
O70 O 0.28786 0.28573 0.72528 0.0
C71 C 0.2851 0.26313 0.72263 0.0
O72 O 0.25826 0.24786 0.74042 0.0
C73 C 0.20695 0.32738 0.80641 0.0
C74 C 0.12269 0.37378 0.75009 0.0
O75 O 0.10362 0.37151 0.77585 0.0
O76 O 0.13907 0.35688 0.74038 0.0
O77 O 0.36653 0.8463 0.30637 0.0
Cd78 Cd 0.3303 0.84694 0.35523 0.0
O79 O 0.30384 0.82632 0.28536 0.0
Cd80 Cd 0.26816 0.81772 0.32765 0.0
O81 O 0.23209 0.78979 0.35795 0.0
C82 C 0.23947 0.7692 0.35409 0.0
O83 O 0.2686 0.76687 0.33374 0.0
C84 C 0.34464 0.83705 0.28301 0.0
C85 C 0.36019 0.89082 0.38903 0.0
O86 O 0.37586 0.87297 0.39273 0.0
O87 O 0.33094 0.88809 0.36894 0.0
H88 H 0.9536 0.42155 0.46473 0.0
N89 N 0.02101 0.4546 0.44036 0.0
H90 H 0.90757 0.38342 0.44088 0.0
H91 H 0.02156 0.44047 0.38063 0.0
H92 H 0.97548 0.4031 0.35671 0.0
H93 H 0.08037 0.47799 0.39803 0.0
H94 H 0.15251 0.47302 0.38806 0.0
H95 H 0.06324 0.43128 0.47302 0.0
H96 H 0.13621 0.42646 0.46339 0.0
H97 H 0.0318 0.48871 0.48432 0.0
H98 H 0.99353 0.47418 0.39159 0.0
H99 H 0.02642 0.5303 0.48174 0.0
H100 H 0.98651 0.515 0.38923 0.0
H101 H 0.96243 0.65423 0.45441 0.0
H102 H 0.90987 0.67104 0.43094 0.0
H103 H 0.91503 0.62713 0.35018 0.0
H104 H 0.96725 0.61029 0.37388 0.0
H105 H 0.04176 0.63596 0.37136 0.0
H106 H 0.10466 0.66931 0.35776 0.0
H107 H 0.12551 0.69255 0.45109 0.0
H108 H 0.06249 0.6581 0.46496 0.0
H109 H 0.97962 0.59779 0.47375 0.0
H110 H 0.97806 0.55499 0.47739 0.0
H111 H 0.03291 0.55574 0.38781 0.0
N112 N 0.00714 0.62649 0.42804 0.0
H113 H 0.03278 0.59767 0.38399 0.0
C114 C 0.99099 0.43396 0.42468 0.0
C115 C 0.958 0.41772 0.44105 0.0
C116 C 0.93178 0.39597 0.42738 0.0
C117 C 0.93821 0.39007 0.39696 0.0
C118 C 0.97026 0.40681 0.38033 0.0
C119 C 0.99644 0.42841 0.39399 0.0
C120 C 0.06624 0.45498 0.43644 0.0
C121 C 0.09249 0.46712 0.41285 0.0
C122 C 0.13396 0.46431 0.40718 0.0
C123 C 0.15007 0.44926 0.42486 0.0
C124 C 0.12452 0.43795 0.44915 0.0
C125 C 0.08305 0.44081 0.45484 0.0
C126 C 0.01302 0.47808 0.4384 0.0
C127 C 0.02146 0.49431 0.4636 0.0
C128 C 0.01819 0.51805 0.46209 0.0
C129 C 0.0062 0.5261 0.43521 0.0
C130 C 0.99657 0.5096 0.41015 0.0
C131 C 0.00017 0.48595 0.41162 0.0
C132 C 0.9691 0.63121 0.41598 0.0
C133 C 0.95107 0.64765 0.43201 0.0
C134 C 0.92107 0.65723 0.41854 0.0
C135 C 0.90874 0.65061 0.38857 0.0
C136 C 0.92443 0.6328 0.37317 0.0
C137 C 0.95418 0.62307 0.38679 0.0
C138 C 0.0478 0.64399 0.41948 0.0
C139 C 0.06057 0.6474 0.3892 0.0
C140 C 0.09657 0.66672 0.38132 0.0
C141 C 0.12007 0.68344 0.40338 0.0
C142 C 0.10793 0.67987 0.43367 0.0
C143 C 0.07226 0.66018 0.44161 0.0
C144 C 0.00652 0.60121 0.42883 0.0
C145 C 0.99109 0.58859 0.4549 0.0
C146 C 0.99049 0.5642 0.45698 0.0
C147 C 0.00542 0.55185 0.4329 0.0
C148 C 0.02051 0.56448 0.40665 0.0
C149 C 0.02088 0.5888 0.40456 0.0
H150 H 0.98525 0.46498 0.663 0.0
N151 N 0.03736 0.47907 0.6136 0.0
H152 H 0.92089 0.42981 0.66551 0.0
H153 H 0.9954 0.4514 0.56759 0.0
H154 H 0.93096 0.41526 0.57015 0.0
H155 H 0.07632 0.44531 0.59803 0.0
H156 H 0.10864 0.42352 0.63178 0.0
H157 H 0.06956 0.49704 0.67032 0.0
H158 H 0.10329 0.47604 0.70363 0.0
H159 H 0.00662 0.50541 0.65801 0.0
H160 H 0.06567 0.50966 0.56981 0.0
H161 H 0.00791 0.54766 0.65734 0.0
H162 H 0.06321 0.55172 0.56752 0.0
H163 H 0.99678 0.66648 0.66125 0.0
H164 H 0.93255 0.68039 0.66559 0.0
H165 H 0.90901 0.66411 0.57058 0.0
H166 H 0.97676 0.65256 0.56607 0.0
H167 H 0.08059 0.69792 0.59153 0.0
H168 H 0.13079 0.73055 0.62163 0.0
H169 H 0.11714 0.68156 0.69429 0.0
H170 H 0.06581 0.64937 0.6644 0.0
H171 H 0.97699 0.6171 0.64001 0.0
H172 H 0.97664 0.57482 0.63977 0.0
H173 H 0.0927 0.59162 0.58315 0.0
N174 N 0.0343 0.65408 0.60902 0.0
H175 H 0.09014 0.63363 0.58127 0.0
C176 C 0.99473 0.46129 0.61484 0.0
C177 C 0.97262 0.45512 0.64231 0.0
C178 C 0.9359 0.43474 0.64379 0.0
C179 C 0.9209 0.4198 0.61802 0.0
C180 C 0.94193 0.42644 0.59037 0.0
C181 C 0.97838 0.44713 0.58882 0.0
C182 C 0.06916 0.47249 0.63139 0.0
C183 C 0.08346 0.45261 0.62081 0.0
C184 C 0.102 0.44012 0.64026 0.0
C185 C 0.10746 0.44757 0.67079 0.0
C186 C 0.09808 0.46925 0.68053 0.0
C187 C 0.07884 0.4815 0.66117 0.0
C188 C 0.03733 0.50433 0.61418 0.0
C189 C 0.01995 0.51534 0.63837 0.0
C190 C 0.01997 0.5397 0.63771 0.0
C191 C 0.03562 0.55349 0.61235 0.0
C192 C 0.05192 0.54215 0.58785 0.0
C193 C 0.05309 0.51797 0.58895 0.0
C194 C 0.99264 0.65919 0.61299 0.0
C195 C 0.97824 0.66611 0.64121 0.0
C196 C 0.94059 0.67372 0.64375 0.0
C197 C 0.9152 0.67378 0.61839 0.0
C198 C 0.92817 0.6652 0.59054 0.0
C199 C 0.96667 0.65826 0.58789 0.0
C200 C 0.06946 0.67125 0.62554 0.0
C201 C 0.08925 0.69413 0.6137 0.0
C202 C 0.11805 0.71272 0.63096 0.0
C203 C 0.12781 0.70876 0.66052 0.0
C204 C 0.10982 0.68535 0.67179 0.0
C205 C 0.08082 0.6668 0.65456 0.0
C206 C 0.03335 0.6287 0.61013 0.0
C207 C 0.00203 0.61175 0.62711 0.0
C208 C 0.0023 0.5874 0.62733 0.0
C209 C 0.03474 0.57945 0.6115 0.0
C210 C 0.06648 0.59664 0.59507 0.0
C211 C 0.06542 0.62082 0.59417 0.0
H212 H 0.34698 0.1828 0.5675 0.0
N213 N 0.42587 0.20614 0.54153 0.0
H214 H 0.316 0.19609 0.61343 0.0
H215 H 0.46464 0.24285 0.57951 0.0
H216 H 0.43432 0.25602 0.62608 0.0
H217 H 0.48255 0.23527 0.50512 0.0
H218 H 0.46674 0.26068 0.46683 0.0
H219 H 0.34427 0.20527 0.52254 0.0
H220 H 0.32829 0.23071 0.48496 0.0
H221 H 0.36392 0.16844 0.51225 0.0
H222 H 0.48552 0.18665 0.5603 0.0
H223 H 0.36332 0.12584 0.50746 0.0
H224 H 0.48425 0.1438 0.55684 0.0
H225 H 0.33323 0.00506 0.54729 0.0
H226 H 0.29712 0.98702 0.59273 0.0
H227 H 0.419 0.01448 0.64052 0.0
H228 H 0.45519 0.03278 0.5946 0.0
H229 H 0.47492 0.00551 0.52482 0.0
H230 H 0.46601 0.97383 0.48474 0.0
H231 H 0.34477 0.98645 0.45956 0.0
H232 H 0.35571 0.01906 0.49833 0.0
H233 H 0.34909 0.04876 0.54024 0.0
H234 H 0.35131 0.09138 0.53719 0.0
H235 H 0.49187 0.11119 0.52488 0.0
N236 N 0.4201 0.0309 0.54079 0.0
H237 H 0.48938 0.06843 0.52953 0.0
C238 C 0.40825 0.21194 0.57005 0.0
C239 C 0.36646 0.19864 0.58027 0.0
C240 C 0.34885 0.2062 0.60669 0.0
C241 C 0.3726 0.22719 0.62339 0.0
C242 C 0.4149 0.23999 0.61353 0.0
C243 C 0.43243 0.23242 0.58711 0.0
C244 C 0.41486 0.21835 0.51668 0.0
C245 C 0.44882 0.23391 0.50035 0.0
C246 C 0.43971 0.24854 0.47873 0.0
C247 C 0.39624 0.24786 0.473 0.0
C248 C 0.36209 0.23152 0.48858 0.0
C249 C 0.37125 0.21695 0.51022 0.0
C250 C 0.42521 0.18094 0.53647 0.0
C251 C 0.39073 0.1634 0.52162 0.0
C252 C 0.39019 0.13886 0.51914 0.0
C253 C 0.42372 0.13124 0.53175 0.0
C254 C 0.4583 0.14894 0.54629 0.0
C255 C 0.459 0.17345 0.54849 0.0
C256 C 0.39732 0.0202 0.56742 0.0
C257 C 0.35245 0.00722 0.56736 0.0
C258 C 0.33173 0.99679 0.59344 0.0
C259 C 0.35523 0.9992 0.62019 0.0
C260 C 0.39991 0.01246 0.62032 0.0
C261 C 0.42068 0.02281 0.59415 0.0
C262 C 0.4159 0.01442 0.51482 0.0
C263 C 0.44692 0.00167 0.5102 0.0
C264 C 0.44142 0.98338 0.48749 0.0
C265 C 0.4042 0.97715 0.46912 0.0
C266 C 0.37403 0.99076 0.473 0.0
C267 C 0.38 0.00935 0.49544 0.0
C268 C 0.41936 0.05544 0.53563 0.0
C269 C 0.38039 0.06218 0.5368 0.0
C270 C 0.38168 0.08667 0.53476 0.0
C271 C 0.42185 0.10489 0.5311 0.0
C272 C 0.46045 0.09781 0.52841 0.0
C273 C 0.45913 0.07337 0.53078 0.0
H274 H 0.50317 0.75528 0.13824 0.0
N275 N 0.49341 0.78906 0.10269 0.0
H276 H 0.5696 0.75462 0.16378 0.0
H277 H 0.5772 0.81893 0.09181 0.0
H278 H 0.64341 0.81765 0.11588 0.0
H279 H 0.5245 0.83372 0.13249 0.0
H280 H 0.48739 0.85011 0.17316 0.0
H281 H 0.41212 0.77022 0.12245 0.0
H282 H 0.37513 0.78607 0.16372 0.0
H283 H 0.46371 0.75814 0.05647 0.0
H284 H 0.51896 0.8348 0.07976 0.0
H285 H 0.46173 0.76751 0.00379 0.0
H286 H 0.52071 0.84424 0.02738 0.0
H287 H 0.47447 0.79019 0.85439 0.0
H288 H 0.51149 0.77035 0.81685 0.0
H289 H 0.63378 0.82575 0.83605 0.0
H290 H 0.59641 0.84533 0.87358 0.0
H291 H 0.52187 0.87285 0.85706 0.0
H292 H 0.46536 0.88666 0.83386 0.0
H293 H 0.36658 0.82272 0.86427 0.0
H294 H 0.42388 0.80867 0.88639 0.0
H295 H 0.51186 0.78853 0.90986 0.0
H296 H 0.50509 0.77847 0.96199 0.0
H297 H 0.48309 0.84809 0.98601 0.0
N298 N 0.51159 0.83269 0.887 0.0
H299 H 0.49383 0.85899 0.93382 0.0
C300 C 0.53466 0.78704 0.1131 0.0
C301 C 0.5339 0.76866 0.1329 0.0
C302 C 0.57198 0.76827 0.14737 0.0
C303 C 0.61186 0.78626 0.14213 0.0
C304 C 0.61309 0.80383 0.12094 0.0
C305 C 0.57494 0.8044 0.10681 0.0
C306 C 0.47086 0.80066 0.12437 0.0
C307 C 0.49153 0.82347 0.13869 0.0
C308 C 0.47041 0.83273 0.16218 0.0
C309 C 0.42834 0.81938 0.17185 0.0
C310 C 0.40723 0.79705 0.15663 0.0
C311 C 0.42832 0.78786 0.13313 0.0
C312 C 0.49195 0.7956 0.07202 0.0
C313 C 0.47575 0.77698 0.05011 0.0
C314 C 0.47509 0.7824 0.01997 0.0
C315 C 0.49149 0.80667 0.01097 0.0
C316 C 0.50706 0.82537 0.03321 0.0
C317 C 0.50664 0.81996 0.06339 0.0
C318 C 0.53283 0.81942 0.86649 0.0
C319 C 0.50925 0.79796 0.85057 0.0
C320 C 0.53045 0.78665 0.82916 0.0
C321 C 0.57555 0.7965 0.82343 0.0
C322 C 0.59916 0.81749 0.84019 0.0
C323 C 0.57791 0.8288 0.86148 0.0
C324 C 0.47704 0.83999 0.87362 0.0
C325 C 0.488 0.86187 0.85861 0.0
C326 C 0.45559 0.86976 0.84557 0.0
C327 C 0.41128 0.85595 0.84747 0.0
C328 C 0.40036 0.83372 0.86217 0.0
C329 C 0.43299 0.82574 0.87503 0.0
C330 C 0.50361 0.8248 0.91753 0.0
C331 C 0.50565 0.8018 0.92608 0.0
C332 C 0.50124 0.79585 0.95623 0.0
C333 C 0.4937 0.81244 0.97858 0.0
C334 C 0.49001 0.83501 0.96977 0.0
C335 C 0.49558 0.84119 0.93978 0.0
H336 H 0.79986 0.11188 0.49599 0.0
N337 N 0.886 0.1159 0.48328 0.0
H338 H 0.7727 0.13628 0.53356 0.0
H339 H 0.93186 0.14561 0.52612 0.0
H340 H 0.90518 0.17089 0.56325 0.0
H341 H 0.94037 0.1531 0.45611 0.0
H342 H 0.92611 0.17282 0.41171 0.0
H343 H 0.81539 0.09843 0.44651 0.0
H344 H 0.80039 0.11822 0.40207 0.0
H345 H 0.82142 0.07682 0.50549 0.0
H346 H 0.94812 0.09745 0.46194 0.0
H347 H 0.82449 0.0351 0.50766 0.0
H348 H 0.95029 0.05527 0.46218 0.0
H349 H 0.81404 0.91627 0.49134 0.0
H350 H 0.78037 0.88521 0.52696 0.0
H351 H 0.90179 0.9035 0.57574 0.0
H352 H 0.93475 0.93532 0.54044 0.0
H353 H 0.95636 0.91848 0.47541 0.0
H354 H 0.95073 0.88824 0.4337 0.0
H355 H 0.83955 0.90686 0.40016 0.0
H356 H 0.84499 0.93668 0.44169 0.0
H357 H 0.82507 0.95709 0.48398 0.0
H358 H 0.8206 0.99853 0.481 0.0
H359 H 0.96062 0.02646 0.49358 0.0
N360 N 0.90028 0.94342 0.4899 0.0
H361 H 0.96492 0.98465 0.49447 0.0
C362 C 0.86809 0.1268 0.50838 0.0
C363 C 0.823 0.1242 0.51107 0.0
C364 C 0.80752 0.13842 0.53241 0.0
C365 C 0.83676 0.15581 0.55123 0.0
C366 C 0.88161 0.15753 0.5494 0.0
C367 C 0.897 0.14313 0.52819 0.0
C368 C 0.87893 0.12453 0.45464 0.0
C369 C 0.91022 0.14512 0.44396 0.0
C370 C 0.90201 0.15628 0.41858 0.0
C371 C 0.86202 0.14712 0.40347 0.0
C372 C 0.8313 0.12581 0.41346 0.0
C373 C 0.83982 0.11448 0.43876 0.0
C374 C 0.88508 0.09057 0.48391 0.0
C375 C 0.84985 0.07247 0.49615 0.0
C376 C 0.85146 0.04835 0.49711 0.0
C377 C 0.88783 0.04164 0.48533 0.0
C378 C 0.92225 0.05971 0.47226 0.0
C379 C 0.92094 0.08384 0.47181 0.0
C380 C 0.87699 0.92835 0.51343 0.0
C381 C 0.833 0.91429 0.51027 0.0
C382 C 0.81396 0.89618 0.53042 0.0
C383 C 0.83856 0.89159 0.55397 0.0
C384 C 0.88176 0.90664 0.55803 0.0
C385 C 0.90069 0.92484 0.53792 0.0
C386 C 0.90142 0.93 0.46181 0.0
C387 C 0.93158 0.91649 0.45855 0.0
C388 C 0.92809 0.89912 0.43493 0.0
C389 C 0.89453 0.89512 0.41384 0.0
C390 C 0.86598 0.90971 0.41596 0.0
C391 C 0.86914 0.92687 0.43983 0.0
C392 C 0.89567 0.96769 0.48896 0.0
C393 C 0.85492 0.97202 0.48574 0.0
C394 C 0.85233 0.99592 0.4844 0.0
C395 C 0.89026 0.01606 0.48686 0.0
C396 C 0.93077 0.01155 0.4908 0.0
C397 C 0.93335 0.98765 0.4916 0.0
H398 H 0.54726 0.30557 0.1453 0.0
N399 N 0.57819 0.34975 0.11897 0.0
H400 H 0.59156 0.28534 0.17145 0.0
H401 H 0.66386 0.35731 0.11198 0.0
H402 H 0.70887 0.33575 0.13571 0.0
H403 H 0.59872 0.38458 0.16218 0.0
H404 H 0.55298 0.39085 0.20486 0.0
H405 H 0.49095 0.32587 0.12696 0.0
H406 H 0.44487 0.3323 0.16898 0.0
H407 H 0.52796 0.30965 0.08709 0.0
H408 H 0.59928 0.38583 0.08168 0.0
H409 H 0.50318 0.30883 0.03537 0.0
H410 H 0.57704 0.38505 0.02967 0.0
H411 H 0.48496 0.30709 0.87755 0.0
H412 H 0.52971 0.29742 0.83642 0.0
H413 H 0.61554 0.37149 0.84316 0.0
H414 H 0.56947 0.38117 0.88366 0.0
H415 H 0.46616 0.38437 0.87795 0.0
H416 H 0.39367 0.37805 0.85658 0.0
H417 H 0.35242 0.30487 0.88913 0.0
H418 H 0.42531 0.3115 0.9105 0.0
H419 H 0.50606 0.31218 0.93166 0.0
H420 H 0.52533 0.3104 0.98398 0.0
H421 H 0.51539 0.38357 0.00152 0.0
N422 N 0.49524 0.35223 0.90507 0.0
H423 H 0.49884 0.3856 0.9488 0.0
C424 C 0.60245 0.33361 0.12764 0.0
C425 C 0.58247 0.31218 0.14288 0.0
C426 C 0.60808 0.30038 0.15762 0.0
C427 C 0.65413 0.30931 0.15663 0.0
C428 C 0.67363 0.32892 0.13814 0.0
C429 C 0.64801 0.34111 0.12416 0.0
C430 C 0.54841 0.35491 0.14135 0.0
C431 C 0.56491 0.37344 0.16335 0.0
C432 C 0.5387 0.37699 0.18763 0.0
C433 C 0.49535 0.36196 0.19039 0.0
C434 C 0.47832 0.34396 0.16771 0.0
C435 C 0.50458 0.34043 0.14343 0.0
C436 C 0.56495 0.34798 0.08819 0.0
C437 C 0.53839 0.32616 0.07466 0.0
C438 C 0.52459 0.3257 0.04501 0.0
C439 C 0.53758 0.34697 0.02836 0.0
C440 C 0.56526 0.3685 0.04194 0.0
C441 C 0.57845 0.36898 0.07155 0.0
C442 C 0.52371 0.34504 0.88337 0.0
C443 C 0.51352 0.3212 0.87033 0.0
C444 C 0.53937 0.31563 0.84691 0.0
C445 C 0.5759 0.33376 0.83623 0.0
C446 C 0.58709 0.35724 0.8504 0.0
C447 C 0.56112 0.36279 0.87367 0.0
C448 C 0.45097 0.34846 0.89564 0.0
C449 C 0.44117 0.36713 0.88081 0.0
C450 C 0.39979 0.36349 0.86872 0.0
C451 C 0.36739 0.34094 0.87112 0.0
C452 C 0.37691 0.32235 0.88668 0.0
C453 C 0.41838 0.32612 0.89899 0.0
C454 C 0.50203 0.34934 0.93626 0.0
C455 C 0.50815 0.32783 0.94676 0.0
C456 C 0.5188 0.32677 0.97682 0.0
C457 C 0.52277 0.34702 0.99696 0.0
C458 C 0.51405 0.36791 0.98654 0.0
C459 C 0.50413 0.36906 0.95651 0.0
C460 C 0.26556 0.45703 0.39534 0.0
C461 C 0.26766 0.43283 0.39431 0.0
H462 H 0.22708 0.48131 0.40626 0.0
C463 C 0.23214 0.41444 0.40563 0.0
H464 H 0.29245 0.47167 0.38698 0.0
C465 C 0.19464 0.41996 0.41659 0.0
C466 C 0.19181 0.444 0.41647 0.0
H467 H 0.2327 0.3956 0.40522 0.0
H468 H 0.16716 0.40519 0.42398 0.0
C469 C 0.22802 0.46255 0.40626 0.0
C470 C 0.2094 0.7688 0.68648 0.0
C471 C 0.19503 0.77174 0.71607 0.0
H472 H 0.20025 0.74636 0.64592 0.0
C473 C 0.16084 0.7529 0.72794 0.0
H474 H 0.23591 0.78288 0.67672 0.0
C475 C 0.14017 0.7321 0.71022 0.0
C476 C 0.15334 0.72954 0.68023 0.0
H477 H 0.14895 0.75455 0.75065 0.0
H478 H 0.1126 0.71852 0.71972 0.0
C479 C 0.18882 0.74791 0.66877 0.0
C480 C 0.8288 0.68606 0.37305 0.0
C481 C 0.8449 0.69625 0.34552 0.0
H482 H 0.83612 0.66338 0.40819 0.0
C483 C 0.87943 0.68948 0.33109 0.0
H484 H 0.80213 0.69085 0.3847 0.0
C485 C 0.89863 0.67364 0.34444 0.0
C486 C 0.88393 0.66436 0.37263 0.0
H487 H 0.89248 0.69693 0.30982 0.0
H488 H 0.92638 0.6696 0.33332 0.0
C489 C 0.84829 0.67038 0.38655 0.0
C490 C 0.81914 0.3728 0.64516 0.0
C491 C 0.8265 0.35078 0.63448 0.0
H492 H 0.84298 0.41189 0.64797 0.0
C493 C 0.86283 0.35183 0.6156 0.0
H494 H 0.79134 0.37272 0.65958 0.0
C495 C 0.8923 0.37439 0.60881 0.0
C496 C 0.88612 0.39629 0.62093 0.0
H497 H 0.86935 0.33523 0.60691 0.0
H498 H 0.92109 0.37464 0.59534 0.0
C499 C 0.84871 0.39528 0.63856 0.0
C500 C 0.40174 0.30615 0.43408 0.0
C501 C 0.36567 0.29842 0.41481 0.0
H502 H 0.43947 0.29633 0.4676 0.0
C503 C 0.34045 0.27374 0.41413 0.0
H504 H 0.42185 0.32503 0.43515 0.0
C505 C 0.35075 0.25723 0.43261 0.0
C506 C 0.38656 0.26501 0.45214 0.0
H507 H 0.31257 0.26716 0.39942 0.0
H508 H 0.3307 0.23833 0.43157 0.0
C509 C 0.41207 0.28964 0.45251 0.0
C510 C 0.30896 0.85783 0.80692 0.0
C511 C 0.31336 0.883 0.8083 0.0
H512 H 0.33668 0.82951 0.81772 0.0
C513 C 0.34908 0.89897 0.82367 0.0
H514 H 0.28089 0.84491 0.79646 0.0
C515 C 0.38038 0.89011 0.83661 0.0
C516 C 0.37686 0.86504 0.83448 0.0
H517 H 0.35321 0.91845 0.82545 0.0
H518 H 0.40729 0.90299 0.84844 0.0
C519 C 0.34051 0.84894 0.81973 0.0
C520 C 0.87245 0.83064 0.38051 0.0
C521 C 0.86208 0.83342 0.35073 0.0
H522 H 0.89122 0.84807 0.42369 0.0
C523 C 0.86563 0.85701 0.34128 0.0
H524 H 0.87014 0.81274 0.38847 0.0
C525 C 0.87742 0.87722 0.36153 0.0
C526 C 0.88656 0.8743 0.39149 0.0
H527 H 0.85783 0.85979 0.3185 0.0
H528 H 0.87873 0.89509 0.35389 0.0
C529 C 0.8848 0.85089 0.40063 0.0
C530 C 0.63337 0.30178 0.7792 0.0
C531 C 0.64736 0.31959 0.75762 0.0
H532 H 0.60041 0.2924 0.82131 0.0
C533 C 0.63755 0.34187 0.76209 0.0
H534 H 0.64056 0.28445 0.77644 0.0
C535 C 0.6145 0.34636 0.78756 0.0
C536 C 0.6008 0.32873 0.80936 0.0
H537 H 0.6476 0.35595 0.74584 0.0
H538 H 0.6069 0.36359 0.78996 0.0
C539 C 0.6103 0.30631 0.80485 0.0
C540 C 0.31969 0.98965 0.70159 0.0
C541 C 0.29072 0.96582 0.69998 0.0
H542 H 0.36262 0.01893 0.67764 0.0
C543 C 0.28322 0.95306 0.67198 0.0
H544 H 0.32618 0.99998 0.72283 0.0
C545 C 0.30414 0.96391 0.64614 0.0
C546 C 0.33317 0.98772 0.64773 0.0
H547 H 0.2612 0.93465 0.66997 0.0
H548 H 0.298 0.95351 0.62493 0.0
C549 C 0.34079 1.00046 0.67575 0.0
C550 C 0.69532 0.76902 0.18904 0.0
C551 C 0.72109 0.79211 0.19984 0.0
H552 H 0.64114 0.74899 0.16176 0.0
C553 C 0.7122 0.81311 0.19016 0.0
H554 H 0.7015 0.75249 0.19598 0.0
C555 C 0.67749 0.81112 0.17093 0.0
C556 C 0.65093 0.78807 0.1606 0.0
H557 H 0.73131 0.83119 0.19809 0.0
H558 H 0.67061 0.82773 0.16503 0.0
C559 C 0.66061 0.76702 0.16956 0.0
C560 C 0.82673 0.19899 0.61679 0.0
C561 C 0.7955 0.20941 0.60615 0.0
H562 H 0.86355 0.17352 0.6082 0.0
C563 C 0.77652 0.20123 0.57804 0.0
H564 H 0.84179 0.2048 0.63844 0.0
C565 C 0.78925 0.18348 0.56062 0.0
C566 C 0.8211 0.17335 0.57093 0.0
H567 H 0.75246 0.2089 0.56913 0.0
H568 H 0.77503 0.17829 0.53861 0.0
C569 C 0.83934 0.18114 0.59939 0.0
C570 C 0.41985 0.34494 0.25779 0.0
C571 C 0.42102 0.36797 0.27083 0.0
H572 H 0.44258 0.32502 0.22243 0.0
C573 C 0.44616 0.38909 0.25683 0.0
H574 H 0.40089 0.32829 0.26798 0.0
C575 C 0.46987 0.38719 0.23053 0.0
C576 C 0.46887 0.36415 0.21763 0.0
H577 H 0.44765 0.40712 0.26621 0.0
H578 H 0.48883 0.40378 0.22022 0.0
C579 C 0.44348 0.34305 0.23151 0.0
C580 C 0.8319 0.70669 0.59959 0.0
C581 C 0.80984 0.707 0.62709 0.0
H582 H 0.88331 0.69707 0.57552 0.0
C583 C 0.82056 0.69514 0.65121 0.0
H584 H 0.82439 0.71588 0.58069 0.0
C585 C 0.85316 0.68337 0.64799 0.0
C586 C 0.87701 0.68395 0.62086 0.0
H587 H 0.80355 0.69486 0.67256 0.0
H588 H 0.85972 0.67399 0.66697 0.0
C589 C 0.86551 0.69564 0.59661 0.0
C590 C 0.90971 0.33149 0.34821 0.0
C591 C 0.86445 0.32195 0.35335 0.0
H592 H 0.96841 0.36008 0.35827 0.0
C593 C 0.84377 0.33453 0.37389 0.0
H594 H 0.92679 0.32222 0.3327 0.0
C595 C 0.86768 0.35647 0.38839 0.0
C596 C 0.91276 0.36628 0.38265 0.0
H597 H 0.80892 0.32772 0.37833 0.0
H598 H 0.85062 0.36604 0.4035 0.0
C599 C 0.93355 0.35333 0.36271 0.0
C600 C 0.14703 0.39804 0.70416 0.0
C601 C 0.12349 0.39458 0.73141 0.0
H602 H 0.16191 0.41808 0.66406 0.0
C603 C 0.09841 0.41031 0.73986 0.0
H604 H 0.16703 0.38637 0.69715 0.0
C605 C 0.09498 0.42823 0.72077 0.0
C606 C 0.11693 0.43109 0.69283 0.0
H607 H 0.07985 0.40814 0.7607 0.0
H608 H 0.07322 0.43898 0.72737 0.0
C609 C 0.14396 0.41618 0.68514 0.0
C610 C 0.21506 0.72408 0.36059 0.0
C611 C 0.21259 0.74751 0.36965 0.0
H612 H 0.18785 0.68541 0.3644 0.0
C613 C 0.18233 0.74973 0.39222 0.0
H614 H 0.23814 0.7217 0.34337 0.0
C615 C 0.15379 0.72887 0.40447 0.0
C616 C 0.15474 0.70544 0.39415 0.0
H617 H 0.17977 0.76753 0.39978 0.0
H618 H 0.12955 0.73103 0.42092 0.0
C619 C 0.18627 0.70327 0.37258 0.0
C620 C 0.81357 0.85071 0.62067 0.0
C621 C 0.78888 0.82829 0.6073 0.0
H622 H 0.84781 0.8884 0.61453 0.0
C623 C 0.78005 0.82703 0.57648 0.0
H624 H 0.82076 0.85237 0.6444 0.0
C625 C 0.7957 0.84763 0.55938 0.0
C626 C 0.82044 0.87006 0.57268 0.0
H627 H 0.76124 0.81005 0.56543 0.0
H628 H 0.78913 0.84581 0.53555 0.0
C629 C 0.82915 0.87137 0.60354 0.0
C630 C 0.7409 0.31025 0.21355 0.0
C631 C 0.72599 0.28666 0.22454 0.0
H632 H 0.7297 0.33602 0.18445 0.0
C633 C 0.68986 0.26959 0.21085 0.0
H634 H 0.7686 0.3239 0.22359 0.0
C635 C 0.66793 0.27639 0.1875 0.0
C636 C 0.68126 0.30051 0.1777 0.0
H637 H 0.6779 0.25117 0.21863 0.0
H638 H 0.63989 0.26287 0.1777 0.0
C639 C 0.71866 0.31715 0.19069 0.0
C640 C 0.3052 0.2289 0.69439 0.0
C641 C 0.30967 0.25401 0.69848 0.0
H642 H 0.32207 0.20074 0.66777 0.0
C643 C 0.33657 0.27028 0.67851 0.0
H644 H 0.28489 0.21588 0.70945 0.0
C645 C 0.35764 0.26159 0.65457 0.0
C646 C 0.3524 0.23643 0.65003 0.0
H647 H 0.34071 0.28973 0.68097 0.0
H648 H 0.37699 0.27457 0.63909 0.0
C649 C 0.32632 0.2202 0.67042 0.0
C650 C 0.34203 0.82811 0.22751 0.0
C651 C 0.36684 0.8364 0.25359 0.0
H652 H 0.34205 0.8169 0.18107 0.0
C653 C 0.41261 0.84167 0.25167 0.0
H654 H 0.30672 0.82414 0.22812 0.0
C655 C 0.43284 0.83722 0.22472 0.0
C656 C 0.40773 0.82756 0.19907 0.0
H657 H 0.43268 0.84805 0.27134 0.0
H658 H 0.4679 0.84013 0.22449 0.0
C659 C 0.36225 0.82382 0.20056 0.0
C660 C 0.87534 0.18754 0.33707 0.0
C661 C 0.83568 0.19355 0.33807 0.0
H662 H 0.91452 0.16784 0.3567 0.0
C663 C 0.80312 0.18219 0.35881 0.0
H664 H 0.90101 0.19586 0.32126 0.0
C665 C 0.81086 0.16608 0.37905 0.0
C666 C 0.8514 0.1611 0.37908 0.0
H667 H 0.77215 0.18636 0.36009 0.0
H668 H 0.78588 0.15849 0.39564 0.0
C669 C 0.88315 0.17155 0.35742 0.0
C670 C 0.26775 0.31177 0.82308 0.0
C671 C 0.24692 0.33024 0.82391 0.0
H672 H 0.32222 0.30065 0.83743 0.0
C673 C 0.26441 0.35158 0.84186 0.0
H674 H 0.25415 0.29476 0.81033 0.0
C675 C 0.30301 0.35483 0.85771 0.0
C676 C 0.32464 0.33667 0.8562 0.0
H677 H 0.24875 0.36602 0.84315 0.0
H678 H 0.31609 0.37163 0.87104 0.0
C679 C 0.30626 0.31495 0.83907 0.0
C680 C 0.36329 0.93457 0.40089 0.0
C681 C 0.37407 0.91348 0.40829 0.0
H682 H 0.36562 0.97144 0.41359 0.0
C683 C 0.39662 0.91388 0.43501 0.0
H684 H 0.34619 0.93488 0.38033 0.0
C685 C 0.40694 0.93462 0.4544 0.0
C686 C 0.39559 0.95567 0.44737 0.0
H687 H 0.40513 0.89787 0.44145 0.0
H688 H 0.42261 0.93378 0.47539 0.0
C689 C 0.3742 0.95548 0.4201 0.0
C690 C 0.6631 0.77814 0.77743 0.0
C691 C 0.64383 0.77326 0.74893 0.0
H692 H 0.65638 0.78899 0.8235 0.0
C693 C 0.60023 0.77345 0.74597 0.0
H694 H 0.69654 0.778 0.78055 0.0
C695 C 0.57731 0.77983 0.77056 0.0
C696 C 0.59751 0.78619 0.79864 0.0
H697 H 0.58434 0.7697 0.72436 0.0
H698 H 0.54456 0.78103 0.76716 0.0
C699 C 0.64021 0.78459 0.80201 0.0
loop_
_geom_bond_atom_site_label_1
_geom_bond_atom_site_label_2
_geom_bond_distance
_geom_bond_site_symmetry_2
_ccdc_geom_bond_type
O0 Cd1 2.300 . S
O0 C7 1.275 . S
Cd1 O0 2.300 . S
Cd1 O9 2.381 . S
Cd1 O10 2.378 . S
O2 Cd3 2.385 . S
O2 C7 1.255 . S
Cd3 O2 2.385 . S
Cd3 O4 2.317 . S
O4 Cd3 2.317 . S
O4 C5 1.232 . S
C5 O4 1.232 . S
C5 O6 1.218 . S
O6 C5 1.218 . S
C7 O0 1.275 . S
C7 O2 1.255 . S
C8 O9 1.258 . S
C8 O10 1.256 . S
O9 Cd1 2.381 . S
O9 C8 1.258 . S
O10 Cd1 2.378 . S
O10 C8 1.256 . S
O11 Cd12 2.300 . S
O11 C18 1.275 . S
Cd12 O11 2.300 . S
Cd12 O20 2.381 . S
Cd12 O21 2.378 . S
O13 Cd14 2.385 . S
O13 C18 1.255 . S
Cd14 O13 2.385 . S
Cd14 O15 2.317 . S
O15 Cd14 2.317 . S
O15 C16 1.232 . S
C16 O15 1.232 . S
C16 O17 1.218 . S
O17 C16 1.218 . S
C18 O11 1.275 . S
C18 O13 1.255 . S
C19 O20 1.258 . S
C19 O21 1.256 . S
O20 Cd12 2.381 . S
O20 C19 1.258 . S
O21 Cd12 2.378 . S
O21 C19 1.256 . S
O22 Cd23 2.300 . S
O22 C29 1.275 . S
Cd23 O22 2.300 . S
Cd23 O31 2.381 . S
Cd23 O32 2.378 . S
O24 Cd25 2.385 . S
O24 C29 1.255 . S
Cd25 O24 2.385 . S
Cd25 O26 2.317 . S
O26 Cd25 2.317 . S
O26 C27 1.232 . S
C27 O26 1.232 . S
C27 O28 1.218 . S
O28 C27 1.218 . S
C29 O22 1.275 . S
C29 O24 1.255 . S
C30 O31 1.258 . S
C30 O32 1.256 . S
O31 Cd23 2.381 . S
O31 C30 1.258 . S
O32 Cd23 2.378 . S
O32 C30 1.256 . S
O33 Cd34 2.300 . S
O33 C40 1.275 . S
Cd34 O33 2.300 . S
Cd34 O42 2.381 . S
Cd34 O43 2.378 . S
O35 Cd36 2.385 . S
O35 C40 1.255 . S
Cd36 O35 2.385 . S
Cd36 O37 2.317 . S
O37 Cd36 2.317 . S
O37 C38 1.232 . S
C38 O37 1.232 . S
C38 O39 1.218 . S
O39 C38 1.218 . S
C40 O33 1.275 . S
C40 O35 1.255 . S
C41 O42 1.258 . S
C41 O43 1.256 . S
O42 Cd34 2.381 . S
O42 C41 1.258 . S
O43 Cd34 2.378 . S
O43 C41 1.256 . S
O44 Cd45 2.300 . S
O44 C51 1.275 . S
Cd45 O44 2.300 . S
Cd45 O53 2.381 . S
Cd45 O54 2.378 . S
O46 Cd47 2.385 . S
O46 C51 1.255 . S
Cd47 O46 2.385 . S
Cd47 O48 2.317 . S
O48 Cd47 2.317 . S
O48 C49 1.232 . S
C49 O48 1.232 . S
C49 O50 1.218 . S
O50 C49 1.218 . S
C51 O44 1.275 . S
C51 O46 1.255 . S
C52 O53 1.258 . S
C52 O54 1.256 . S
O53 Cd45 2.381 . S
O53 C52 1.258 . S
O54 Cd45 2.378 . S
O54 C52 1.256 . S
O55 Cd56 2.300 . S
O55 C62 1.275 . S
Cd56 O55 2.300 . S
Cd56 O64 2.381 . S
Cd56 O65 2.378 . S
O57 Cd58 2.385 . S
O57 C62 1.255 . S
Cd58 O57 2.385 . S
Cd58 O59 2.317 . S
O59 Cd58 2.317 . S
O59 C60 1.232 . S
C60 O59 1.232 . S
C60 O61 1.218 . S
O61 C60 1.218 . S
C62 O55 1.275 . S
C62 O57 1.255 . S
C63 O64 1.258 . S
C63 O65 1.256 . S
O64 Cd56 2.381 . S
O64 C63 1.258 . S
O65 Cd56 2.378 . S
O65 C63 1.256 . S
O66 Cd67 2.300 . S
O66 C73 1.275 . S
Cd67 O66 2.300 . S
Cd67 O75 2.381 . S
Cd67 O76 2.378 . S
O68 Cd69 2.385 . S
O68 C73 1.255 . S
Cd69 O68 2.385 . S
Cd69 O70 2.317 . S
O70 Cd69 2.317 . S
O70 C71 1.232 . S
C71 O70 1.232 . S
C71 O72 1.218 . S
O72 C71 1.218 . S
C73 O66 1.275 . S
C73 O68 1.255 . S
C74 O75 1.258 . S
C74 O76 1.256 . S
O75 Cd67 2.381 . S
O75 C74 1.258 . S
O76 Cd67 2.378 . S
O76 C74 1.256 . S
O77 Cd78 2.300 . S
O77 C84 1.275 . S
Cd78 O77 2.300 . S
Cd78 O86 2.381 . S
Cd78 O87 2.378 . S
O79 Cd80 2.385 . S
O79 C84 1.255 . S
Cd80 O79 2.385 . S
Cd80 O81 2.317 . S
O81 Cd80 2.317 . S
O81 C82 1.232 . S
C82 O81 1.232 . S
C82 O83 1.218 . S
O83 C82 1.218 . S
C84 O77 1.275 . S
C84 O79 1.255 . S
C85 O86 1.258 . S
C85 O87 1.256 . S
O86 Cd78 2.381 . S
O86 C85 1.258 . S
O87 Cd78 2.378 . S
O87 C85 1.256 . S
H88 C115 0.929 1_455 S
N89 C114 1.433 . S
N89 C120 1.435 . S
N89 C126 1.423 . S
H90 C116 0.930 . S
H91 C119 0.931 . S
H92 C118 0.929 . S
H93 C121 0.930 . S
H94 C122 0.932 . S
H95 C125 0.929 . S
H96 C124 0.931 . S
H97 C127 0.929 . S
H98 C131 0.932 . S
H99 C128 0.931 . S
H100 C130 0.929 . S
H101 C133 0.929 . S
H102 C134 0.930 . S
H103 C136 0.929 . S
H104 C137 0.942 . S
H105 C139 0.930 . S
H106 C140 0.932 . S
H107 C142 0.931 . S
H108 C143 0.929 . S
H109 C145 0.929 . S
H110 C146 0.931 . S
H111 C148 0.929 . S
N112 C132 1.433 . S
N112 C138 1.435 . S
N112 C144 1.423 . S
H113 C149 0.932 . S
C114 N89 1.433 . S
C114 C115 1.363 1_455 S
C114 C119 1.370 1_455 S
C115 H88 0.929 1_655 S
C115 C114 1.363 1_655 S
C115 C116 1.385 . S
C116 H90 0.930 . S
C116 C115 1.385 . S
C116 C117 1.357 . S
C117 C116 1.357 . S
C117 C118 1.406 . S
C118 H92 0.929 . S
C118 C117 1.406 . S
C118 C119 1.391 . S
C119 H91 0.931 . S
C119 C114 1.370 1_655 S
C119 C118 1.391 . S
C120 N89 1.435 . S
C120 C121 1.358 . S
C120 C125 1.371 . S
C121 H93 0.930 . S
C121 C120 1.358 . S
C121 C122 1.405 . S
C122 H94 0.932 . S
C122 C121 1.405 . S
C122 C123 1.383 . S
C123 C122 1.383 . S
C123 C124 1.393 . S
C124 H96 0.931 . S
C124 C123 1.393 . S
C124 C125 1.382 . S
C125 H95 0.929 . S
C125 C120 1.371 . S
C125 C124 1.382 . S
C126 N89 1.423 . S
C126 C127 1.362 . S
C126 C131 1.388 . S
C127 H97 0.929 . S
C127 C126 1.362 . S
C127 C128 1.376 . S
C128 H99 0.931 . S
C128 C127 1.376 . S
C128 C129 1.396 . S
C129 C128 1.396 . S
C129 C130 1.348 . S
C129 C147 1.472 . S
C130 H100 0.929 . S
C130 C129 1.348 . S
C130 C131 1.443 . S
C131 H98 0.932 . S
C131 C126 1.388 . S
C131 C130 1.443 . S
C132 N112 1.433 . S
C132 C133 1.363 . S
C132 C137 1.370 1_455 S
C133 H101 0.929 . S
C133 C132 1.363 . S
C133 C134 1.385 1_455 S
C134 H102 0.930 . S
C134 C133 1.385 1_655 S
C134 C135 1.357 . S
C135 C134 1.357 . S
C135 C136 1.406 . S
C136 H103 0.929 . S
C136 C135 1.406 . S
C136 C137 1.391 . S
C137 H104 0.942 . S
C137 C132 1.370 1_655 S
C137 C136 1.391 . S
C138 N112 1.435 . S
C138 C139 1.358 . S
C138 C143 1.371 . S
C139 H105 0.930 . S
C139 C138 1.358 . S
C139 C140 1.405 . S
C140 H106 0.932 . S
C140 C139 1.405 . S
C140 C141 1.383 . S
C141 C140 1.383 . S
C141 C142 1.393 . S
C142 H107 0.931 . S
C142 C141 1.393 . S
C142 C143 1.382 . S
C143 H108 0.929 . S
C143 C138 1.371 . S
C143 C142 1.382 . S
C144 N112 1.423 . S
C144 C145 1.362 . S
C144 C149 1.388 . S
C145 H109 0.929 . S
C145 C144 1.362 . S
C145 C146 1.376 . S
C146 H110 0.931 . S
C146 C145 1.376 . S
C146 C147 1.396 . S
C147 C129 1.472 . S
C147 C146 1.396 . S
C147 C148 1.348 . S
C148 H111 0.929 . S
C148 C147 1.348 . S
C148 C149 1.443 . S
C149 H113 0.932 . S
C149 C144 1.388 . S
C149 C148 1.443 . S
H150 C177 0.929 . S
N151 C176 1.433 1_455 S
N151 C182 1.435 . S
N151 C188 1.423 . S
H152 C178 0.930 . S
H153 C181 0.931 . S
H154 C180 0.929 . S
H155 C183 0.930 . S
H156 C184 0.932 . S
H157 C187 0.929 . S
H158 C186 0.931 . S
H159 C189 0.929 . S
H160 C193 0.932 . S
H161 C190 0.931 . S
H162 C192 0.929 . S
H163 C195 0.929 . S
H164 C196 0.930 . S
H165 C198 0.929 . S
H166 C199 0.931 . S
H167 C201 0.930 . S
H168 C202 0.932 . S
H169 C204 0.931 . S
H170 C205 0.929 . S
H171 C207 0.929 . S
H172 C208 0.931 . S
H173 C210 0.929 . S
N174 C194 1.433 1_455 S
N174 C200 1.435 . S
N174 C206 1.423 . S
H175 C211 0.932 . S
C176 N151 1.433 1_655 S
C176 C177 1.363 . S
C176 C181 1.370 . S
C177 H150 0.929 . S
C177 C176 1.363 . S
C177 C178 1.385 . S
C178 H152 0.930 . S
C178 C177 1.385 . S
C178 C179 1.357 . S
C179 C178 1.357 . S
C179 C180 1.406 . S
C180 H154 0.929 . S
C180 C179 1.406 . S
C180 C181 1.391 . S
C181 H153 0.931 . S
C181 C176 1.370 . S
C181 C180 1.391 . S
C182 N151 1.435 . S
C182 C183 1.358 . S
C182 C187 1.371 . S
C183 H155 0.930 . S
C183 C182 1.358 . S
C183 C184 1.405 . S
C184 H156 0.932 . S
C184 C183 1.405 . S
C184 C185 1.383 . S
C185 C184 1.383 . S
C185 C186 1.393 . S
C186 H158 0.931 . S
C186 C185 1.393 . S
C186 C187 1.382 . S
C187 H157 0.929 . S
C187 C182 1.371 . S
C187 C186 1.382 . S
C188 N151 1.423 . S
C188 C189 1.362 1_455 S
C188 C193 1.388 . S
C189 H159 0.929 . S
C189 C188 1.362 1_655 S
C189 C190 1.376 . S
C190 H161 0.931 . S
C190 C189 1.376 . S
C190 C191 1.396 1_655 S
C191 C190 1.396 1_455 S
C191 C192 1.348 . S
C191 C209 1.472 . S
C192 H162 0.929 . S
C192 C191 1.348 . S
C192 C193 1.443 . S
C193 H160 0.932 . S
C193 C188 1.388 . S
C193 C192 1.443 . S
C194 N174 1.433 1_655 S
C194 C195 1.363 . S
C194 C199 1.370 . S
C195 H163 0.929 . S
C195 C194 1.363 . S
C195 C196 1.385 . S
C196 H164 0.930 . S
C196 C195 1.385 . S
C196 C197 1.357 . S
C197 C196 1.357 . S
C197 C198 1.406 . S
C198 H165 0.929 . S
C198 C197 1.406 . S
C198 C199 1.391 . S
C199 H166 0.931 . S
C199 C194 1.370 . S
C199 C198 1.391 . S
C200 N174 1.435 . S
C200 C201 1.358 . S
C200 C205 1.371 . S
C201 H167 0.930 . S
C201 C200 1.358 . S
C201 C202 1.405 . S
C202 H168 0.932 . S
C202 C201 1.405 . S
C202 C203 1.383 . S
C203 C202 1.383 . S
C203 C204 1.393 . S
C204 H169 0.931 . S
C204 C203 1.393 . S
C204 C205 1.382 . S
C205 H170 0.929 . S
C205 C200 1.371 . S
C205 C204 1.382 . S
C206 N174 1.423 . S
C206 C207 1.362 1_455 S
C206 C211 1.388 . S
C207 H171 0.929 . S
C207 C206 1.362 1_655 S
C207 C208 1.376 . S
C208 H172 0.931 . S
C208 C207 1.376 . S
C208 C209 1.396 1_655 S
C209 C191 1.472 . S
C209 C208 1.396 1_455 S
C209 C210 1.348 . S
C210 H173 0.929 . S
C210 C209 1.348 . S
C210 C211 1.443 . S
C211 H175 0.932 . S
C211 C206 1.388 . S
C211 C210 1.443 . S
H212 C239 0.929 . S
N213 C238 1.433 . S
N213 C244 1.435 . S
N213 C250 1.423 . S
H214 C240 0.930 . S
H215 C243 0.931 . S
H216 C242 0.929 . S
H217 C245 0.930 . S
H218 C246 0.932 . S
H219 C249 0.929 . S
H220 C248 0.931 . S
H221 C251 0.929 . S
H222 C255 0.932 . S
H223 C252 0.931 . S
H224 C254 0.929 . S
H225 C257 0.929 . S
H226 C258 0.930 . S
H227 C260 0.929 . S
H228 C261 0.931 . S
H229 C263 0.930 1_545 S
H230 C264 0.932 . S
H231 C266 0.931 . S
H232 C267 0.929 . S
H233 C269 0.929 . S
H234 C270 0.931 . S
H235 C272 0.929 . S
N236 C256 1.433 . S
N236 C262 1.435 . S
N236 C268 1.423 . S
H237 C273 0.932 . S
C238 N213 1.433 . S
C238 C239 1.363 . S
C238 C243 1.370 . S
C239 H212 0.929 . S
C239 C238 1.363 . S
C239 C240 1.385 . S
C240 H214 0.930 . S
C240 C239 1.385 . S
C240 C241 1.357 . S
C241 C240 1.357 . S
C241 C242 1.406 . S
C242 H216 0.929 . S
C242 C241 1.406 . S
C242 C243 1.391 . S
C243 H215 0.931 . S
C243 C238 1.370 . S
C243 C242 1.391 . S
C244 N213 1.435 . S
C244 C245 1.358 . S
C244 C249 1.371 . S
C245 H217 0.930 . S
C245 C244 1.358 . S
C245 C246 1.405 . S
C246 H218 0.932 . S
C246 C245 1.405 . S
C246 C247 1.383 . S
C247 C246 1.383 . S
C247 C248 1.393 . S
C248 H220 0.931 . S
C248 C247 1.393 . S
C248 C249 1.382 . S
C249 H219 0.929 . S
C249 C244 1.371 . S
C249 C248 1.382 . S
C250 N213 1.423 . S
C250 C251 1.362 . S
C250 C255 1.388 . S
C251 H221 0.929 . S
C251 C250 1.362 . S
C251 C252 1.376 . S
C252 H223 0.931 . S
C252 C251 1.376 . S
C252 C253 1.396 . S
C253 C252 1.396 . S
C253 C254 1.348 . S
C253 C271 1.472 . S
C254 H224 0.929 . S
C254 C253 1.348 . S
C254 C255 1.443 . S
C255 H222 0.932 . S
C255 C250 1.388 . S
C255 C254 1.443 . S
C256 N236 1.433 . S
C256 C257 1.363 1_545 S
C256 C261 1.370 . S
C257 H225 0.929 . S
C257 C256 1.363 1_565 S
C257 C258 1.385 . S
C258 H226 0.930 . S
C258 C257 1.385 . S
C258 C259 1.357 1_565 S
C259 C258 1.357 1_545 S
C259 C260 1.406 . S
C260 H227 0.929 . S
C260 C259 1.406 . S
C260 C261 1.391 . S
C261 H228 0.931 . S
C261 C256 1.370 . S
C261 C260 1.391 . S
C262 N236 1.435 . S
C262 C263 1.355 1_545 S
C262 C267 1.371 . S
C263 H229 0.930 1_565 S
C263 C262 1.355 1_565 S
C263 C264 1.408 . S
C264 H230 0.932 . S
C264 C263 1.408 . S
C264 C265 1.383 . S
C265 C264 1.383 . S
C265 C266 1.393 . S
C266 H231 0.931 . S
C266 C265 1.393 . S
C266 C267 1.382 1_565 S
C267 H232 0.929 . S
C267 C262 1.371 . S
C267 C266 1.382 1_545 S
C268 N236 1.423 . S
C268 C269 1.362 . S
C268 C273 1.388 . S
C269 H233 0.929 . S
C269 C268 1.362 . S
C269 C270 1.376 . S
C270 H234 0.931 . S
C270 C269 1.376 . S
C270 C271 1.396 . S
C271 C253 1.472 . S
C271 C270 1.396 . S
C271 C272 1.348 . S
C272 H235 0.929 . S
C272 C271 1.348 . S
C272 C273 1.443 . S
C273 H237 0.932 . S
C273 C268 1.388 . S
C273 C272 1.443 . S
H274 C301 0.929 . S
N275 C300 1.433 . S
N275 C306 1.435 . S
N275 C312 1.423 . S
H276 C302 0.930 . S
H277 C305 0.931 . S
H278 C304 0.929 . S
H279 C307 0.930 . S
H280 C308 0.932 . S
H281 C311 0.929 . S
H282 C310 0.931 . S
H283 C313 0.929 . S
H284 C317 0.932 . S
H285 C314 0.931 . S
H286 C316 0.929 . S
H287 C319 0.929 . S
H288 C320 0.930 . S
H289 C322 0.929 . S
H290 C323 0.931 . S
H291 C325 0.930 . S
H292 C326 0.932 . S
H293 C328 0.931 . S
H294 C329 0.929 . S
H295 C331 0.929 . S
H296 C332 0.931 . S
H297 C334 0.929 . S
N298 C318 1.433 . S
N298 C324 1.435 . S
N298 C330 1.423 . S
H299 C335 0.932 . S
C300 N275 1.433 . S
C300 C301 1.363 . S
C300 C305 1.370 . S
C301 H274 0.929 . S
C301 C300 1.363 . S
C301 C302 1.385 . S
C302 H276 0.930 . S
C302 C301 1.385 . S
C302 C303 1.357 . S
C303 C302 1.357 . S
C303 C304 1.406 . S
C304 H278 0.929 . S
C304 C303 1.406 . S
C304 C305 1.391 . S
C305 H277 0.931 . S
C305 C300 1.370 . S
C305 C304 1.391 . S
C306 N275 1.435 . S
C306 C307 1.358 . S
C306 C311 1.371 . S
C307 H279 0.930 . S
C307 C306 1.358 . S
C307 C308 1.405 . S
C308 H280 0.932 . S
C308 C307 1.405 . S
C308 C309 1.383 . S
C309 C308 1.383 . S
C309 C310 1.393 . S
C310 H282 0.931 . S
C310 C309 1.393 . S
C310 C311 1.382 . S
C311 H281 0.929 . S
C311 C306 1.371 . S
C311 C310 1.382 . S
C312 N275 1.423 . S
C312 C313 1.362 . S
C312 C317 1.388 . S
C313 H283 0.929 . S
C313 C312 1.362 . S
C313 C314 1.376 . S
C314 H285 0.931 . S
C314 C313 1.376 . S
C314 C315 1.396 . S
C315 C314 1.396 . S
C315 C316 1.348 . S
C315 C333 1.461 1_554 S
C316 H286 0.929 . S
C316 C315 1.348 . S
C316 C317 1.443 . S
C317 H284 0.932 . S
C317 C312 1.388 . S
C317 C316 1.443 . S
C318 N298 1.433 . S
C318 C319 1.363 . S
C318 C323 1.370 . S
C319 H287 0.929 . S
C319 C318 1.363 . S
C319 C320 1.385 . S
C320 H288 0.930 . S
C320 C319 1.385 . S
C320 C321 1.357 . S
C321 C320 1.357 . S
C321 C322 1.406 . S
C322 H289 0.929 . S
C322 C321 1.406 . S
C322 C323 1.391 . S
C323 H290 0.931 . S
C323 C318 1.370 . S
C323 C322 1.391 . S
C324 N298 1.435 . S
C324 C325 1.358 . S
C324 C329 1.371 . S
C325 H291 0.930 . S
C325 C324 1.358 . S
C325 C326 1.405 . S
C326 H292 0.932 . S
C326 C325 1.405 . S
C326 C327 1.383 . S
C327 C326 1.383 . S
C327 C328 1.393 . S
C328 H293 0.931 . S
C328 C327 1.393 . S
C328 C329 1.382 . S
C329 H294 0.929 . S
C329 C324 1.371 . S
C329 C328 1.382 . S
C330 N298 1.423 . S
C330 C331 1.362 . S
C330 C335 1.388 . S
C331 H295 0.929 . S
C331 C330 1.362 . S
C331 C332 1.376 . S
C332 H296 0.931 . S
C332 C331 1.376 . S
C332 C333 1.403 . S
C333 C315 1.461 1_556 S
C333 C332 1.403 . S
C333 C334 1.353 . S
C334 H297 0.929 . S
C334 C333 1.353 . S
C334 C335 1.443 . S
C335 H299 0.932 . S
C335 C330 1.388 . S
C335 C334 1.443 . S
H336 C363 0.929 . S
N337 C362 1.433 . S
N337 C368 1.435 . S
N337 C374 1.423 . S
H338 C364 0.930 . S
H339 C367 0.931 . S
H340 C366 0.929 . S
H341 C369 0.930 . S
H342 C370 0.932 . S
H343 C373 0.929 . S
H344 C372 0.931 . S
H345 C375 0.929 . S
H346 C379 0.932 . S
H347 C376 0.931 . S
H348 C378 0.929 . S
H349 C381 0.929 . S
H350 C382 0.930 . S
H351 C384 0.929 . S
H352 C385 0.931 . S
H353 C387 0.930 . S
H354 C388 0.932 . S
H355 C390 0.931 . S
H356 C391 0.929 . S
H357 C393 0.929 . S
H358 C394 0.931 . S
H359 C396 0.929 1_545 S
N360 C380 1.433 . S
N360 C386 1.435 . S
N360 C392 1.423 . S
H361 C397 0.932 . S
C362 N337 1.433 . S
C362 C363 1.363 . S
C362 C367 1.370 . S
C363 H336 0.929 . S
C363 C362 1.363 . S
C363 C364 1.385 . S
C364 H338 0.930 . S
C364 C363 1.385 . S
C364 C365 1.357 . S
C365 C364 1.357 . S
C365 C366 1.406 . S
C366 H340 0.929 . S
C366 C365 1.406 . S
C366 C367 1.391 . S
C367 H339 0.931 . S
C367 C362 1.370 . S
C367 C366 1.391 . S
C368 N337 1.435 . S
C368 C369 1.358 . S
C368 C373 1.371 . S
C369 H341 0.930 . S
C369 C368 1.358 . S
C369 C370 1.405 . S
C370 H342 0.932 . S
C370 C369 1.405 . S
C370 C371 1.383 . S
C371 C370 1.383 . S
C371 C372 1.393 . S
C372 H344 0.931 . S
C372 C371 1.393 . S
C372 C373 1.382 . S
C373 H343 0.929 . S
C373 C368 1.371 . S
C373 C372 1.382 . S
C374 N337 1.423 . S
C374 C375 1.362 . S
C374 C379 1.388 . S
C375 H345 0.929 . S
C375 C374 1.362 . S
C375 C376 1.376 . S
C376 H347 0.931 . S
C376 C375 1.376 . S
C376 C377 1.396 . S
C377 C376 1.396 . S
C377 C378 1.348 . S
C377 C395 1.472 . S
C378 H348 0.929 . S
C378 C377 1.348 . S
C378 C379 1.443 . S
C379 H346 0.932 . S
C379 C374 1.388 . S
C379 C378 1.443 . S
C380 N360 1.433 . S
C380 C381 1.363 . S
C380 C385 1.370 . S
C381 H349 0.929 . S
C381 C380 1.363 . S
C381 C382 1.385 . S
C382 H350 0.930 . S
C382 C381 1.385 . S
C382 C383 1.357 . S
C383 C382 1.357 . S
C383 C384 1.406 . S
C384 H351 0.929 . S
C384 C383 1.406 . S
C384 C385 1.391 . S
C385 H352 0.931 . S
C385 C380 1.370 . S
C385 C384 1.391 . S
C386 N360 1.435 . S
C386 C387 1.358 . S
C386 C391 1.371 . S
C387 H353 0.930 . S
C387 C386 1.358 . S
C387 C388 1.405 . S
C388 H354 0.932 . S
C388 C387 1.405 . S
C388 C389 1.383 . S
C389 C388 1.383 . S
C389 C390 1.393 . S
C390 H355 0.931 . S
C390 C389 1.393 . S
C390 C391 1.382 . S
C391 H356 0.929 . S
C391 C386 1.371 . S
C391 C390 1.382 . S
C392 N360 1.423 . S
C392 C393 1.362 . S
C392 C397 1.388 . S
C393 H357 0.929 . S
C393 C392 1.362 . S
C393 C394 1.376 . S
C394 H358 0.931 . S
C394 C393 1.376 . S
C394 C395 1.396 1_565 S
C395 C377 1.472 . S
C395 C394 1.396 1_545 S
C395 C396 1.348 1_545 S
C396 H359 0.929 1_565 S
C396 C395 1.348 1_565 S
C396 C397 1.443 . S
C397 H361 0.932 . S
C397 C392 1.388 . S
C397 C396 1.443 . S
H398 C425 0.929 . S
N399 C424 1.433 . S
N399 C430 1.435 . S
N399 C436 1.423 . S
H400 C426 0.930 . S
H401 C429 0.931 . S
H402 C428 0.929 . S
H403 C431 0.930 . S
H404 C432 0.932 . S
H405 C435 0.929 . S
H406 C434 0.931 . S
H407 C437 0.929 . S
H408 C441 0.932 . S
H409 C438 0.931 . S
H410 C440 0.929 . S
H411 C443 0.929 . S
H412 C444 0.930 . S
H413 C446 0.929 . S
H414 C447 0.931 . S
H415 C449 0.930 . S
H416 C450 0.932 . S
H417 C452 0.931 . S
H418 C453 0.929 . S
H419 C455 0.929 . S
H420 C456 0.931 . S
H421 C458 0.929 . S
N422 C442 1.433 . S
N422 C448 1.435 . S
N422 C454 1.423 . S
H423 C459 0.932 . S
C424 N399 1.433 . S
C424 C425 1.363 . S
C424 C429 1.370 . S
C425 H398 0.929 . S
C425 C424 1.363 . S
C425 C426 1.385 . S
C426 H400 0.930 . S
C426 C425 1.385 . S
C426 C427 1.357 . S
C427 C426 1.357 . S
C427 C428 1.406 . S
C428 H402 0.929 . S
C428 C427 1.406 . S
C428 C429 1.391 . S
C429 H401 0.931 . S
C429 C424 1.370 . S
C429 C428 1.391 . S
C430 N399 1.435 . S
C430 C431 1.358 . S
C430 C435 1.371 . S
C431 H403 0.930 . S
C431 C430 1.358 . S
C431 C432 1.405 . S
C432 H404 0.932 . S
C432 C431 1.405 . S
C432 C433 1.383 . S
C433 C432 1.383 . S
C433 C434 1.393 . S
C434 H406 0.931 . S
C434 C433 1.393 . S
C434 C435 1.382 . S
C435 H405 0.929 . S
C435 C430 1.371 . S
C435 C434 1.382 . S
C436 N399 1.423 . S
C436 C437 1.362 . S
C436 C441 1.388 . S
C437 H407 0.929 . S
C437 C436 1.362 . S
C437 C438 1.376 . S
C438 H409 0.931 . S
C438 C437 1.376 . S
C438 C439 1.396 . S
C439 C438 1.396 . S
C439 C440 1.348 . S
C439 C457 1.457 1_554 S
C440 H410 0.929 . S
C440 C439 1.348 . S
C440 C441 1.443 . S
C441 H408 0.932 . S
C441 C436 1.388 . S
C441 C440 1.443 . S
C442 N422 1.433 . S
C442 C443 1.363 . S
C442 C447 1.370 . S
C443 H411 0.929 . S
C443 C442 1.363 . S
C443 C444 1.385 . S
C444 H412 0.930 . S
C444 C443 1.385 . S
C444 C445 1.357 . S
C445 C444 1.357 . S
C445 C446 1.406 . S
C446 H413 0.929 . S
C446 C445 1.406 . S
C446 C447 1.391 . S
C447 H414 0.931 . S
C447 C442 1.370 . S
C447 C446 1.391 . S
C448 N422 1.435 . S
C448 C449 1.358 . S
C448 C453 1.371 . S
C449 H415 0.930 . S
C449 C448 1.358 . S
C449 C450 1.405 . S
C450 H416 0.932 . S
C450 C449 1.405 . S
C450 C451 1.383 . S
C451 C450 1.383 . S
C451 C452 1.393 . S
C452 H417 0.931 . S
C452 C451 1.393 . S
C452 C453 1.382 . S
C453 H418 0.929 . S
C453 C448 1.371 . S
C453 C452 1.382 . S
C454 N422 1.423 . S
C454 C455 1.362 . S
C454 C459 1.388 . S
C455 H419 0.929 . S
C455 C454 1.362 . S
C455 C456 1.376 . S
C456 H420 0.931 . S
C456 C455 1.376 . S
C456 C457 1.405 . S
C457 C439 1.457 1_556 S
C457 C456 1.405 . S
C457 C458 1.356 . S
C458 H421 0.929 . S
C458 C457 1.356 . S
C458 C459 1.443 . S
C459 H423 0.932 . S
C459 C454 1.388 . S
C459 C458 1.443 . S
C460 C461 1.387 . S
C460 H464 0.950 . S
C460 C469 1.390 . S
C461 C460 1.387 . S
C461 C463 1.387 . S
H462 C469 0.950 . S
C463 C461 1.387 . S
C463 C465 1.390 . S
C463 H467 0.950 . S
H464 C460 0.950 . S
C465 C463 1.390 . S
C465 C466 1.387 . S
C465 H468 0.950 . S
C466 C465 1.387 . S
C466 C469 1.387 . S
H467 C463 0.950 . S
H468 C465 0.950 . S
C469 C460 1.390 . S
C469 H462 0.950 . S
C469 C466 1.387 . S
C470 C471 1.387 . S
C470 H474 0.950 . S
C470 C479 1.390 . S
C471 C470 1.387 . S
C471 C473 1.387 . S
H472 C479 0.950 . S
C473 C471 1.387 . S
C473 C475 1.390 . S
C473 H477 0.950 . S
H474 C470 0.950 . S
C475 C473 1.390 . S
C475 C476 1.387 . S
C475 H478 0.950 . S
C476 C475 1.387 . S
C476 C479 1.387 . S
H477 C473 0.950 . S
H478 C475 0.950 . S
C479 C470 1.390 . S
C479 H472 0.950 . S
C479 C476 1.387 . S
C480 C481 1.387 . S
C480 H484 0.950 . S
C480 C489 1.390 . S
C481 C480 1.387 . S
C481 C483 1.387 . S
H482 C489 0.950 . S
C483 C481 1.387 . S
C483 C485 1.390 . S
C483 H487 0.950 . S
H484 C480 0.950 . S
C485 C483 1.390 . S
C485 C486 1.387 . S
C485 H488 0.950 . S
C486 C485 1.387 . S
C486 C489 1.387 . S
H487 C483 0.950 . S
H488 C485 0.950 . S
C489 C480 1.390 . S
C489 H482 0.950 . S
C489 C486 1.387 . S
C490 C491 1.387 . S
C490 H494 0.950 . S
C490 C499 1.390 . S
C491 C490 1.387 . S
C491 C493 1.387 . S
H492 C499 0.950 . S
C493 C491 1.387 . S
C493 C495 1.390 . S
C493 H497 0.950 . S
H494 C490 0.950 . S
C495 C493 1.390 . S
C495 C496 1.387 . S
C495 H498 0.950 . S
C496 C495 1.387 . S
C496 C499 1.387 . S
H497 C493 0.950 . S
H498 C495 0.950 . S
C499 C490 1.390 . S
C499 H492 0.950 . S
C499 C496 1.387 . S
C500 C501 1.387 . S
C500 H504 0.950 . S
C500 C509 1.390 . S
C501 C500 1.387 . S
C501 C503 1.387 . S
H502 C509 0.950 . S
C503 C501 1.387 . S
C503 C505 1.390 . S
C503 H507 0.950 . S
H504 C500 0.950 . S
C505 C503 1.390 . S
C505 C506 1.387 . S
C505 H508 0.950 . S
C506 C505 1.387 . S
C506 C509 1.387 . S
H507 C503 0.950 . S
H508 C505 0.950 . S
C509 C500 1.390 . S
C509 H502 0.950 . S
C509 C506 1.387 . S
C510 C511 1.387 . S
C510 H514 0.950 . S
C510 C519 1.390 . S
C511 C510 1.387 . S
C511 C513 1.387 . S
H512 C519 0.950 . S
C513 C511 1.387 . S
C513 C515 1.390 . S
C513 H517 0.950 . S
H514 C510 0.950 . S
C515 C513 1.390 . S
C515 C516 1.387 . S
C515 H518 0.950 . S
C516 C515 1.387 . S
C516 C519 1.387 . S
H517 C513 0.950 . S
H518 C515 0.950 . S
C519 C510 1.390 . S
C519 H512 0.950 . S
C519 C516 1.387 . S
C520 C521 1.387 . S
C520 H524 0.950 . S
C520 C529 1.390 . S
C521 C520 1.387 . S
C521 C523 1.387 . S
H522 C529 0.950 . S
C523 C521 1.387 . S
C523 C525 1.390 . S
C523 H527 0.950 . S
H524 C520 0.950 . S
C525 C523 1.390 . S
C525 C526 1.387 . S
C525 H528 0.950 . S
C526 C525 1.387 . S
C526 C529 1.387 . S
H527 C523 0.950 . S
H528 C525 0.950 . S
C529 C520 1.390 . S
C529 H522 0.950 . S
C529 C526 1.387 . S
C530 C531 1.387 . S
C530 H534 0.950 . S
C530 C539 1.390 . S
C531 C530 1.387 . S
C531 C533 1.387 . S
H532 C539 0.950 . S
C533 C531 1.387 . S
C533 C535 1.390 . S
C533 H537 0.950 . S
H534 C530 0.950 . S
C535 C533 1.390 . S
C535 C536 1.387 . S
C535 H538 0.950 . S
C536 C535 1.387 . S
C536 C539 1.387 . S
H537 C533 0.950 . S
H538 C535 0.950 . S
C539 C530 1.390 . S
C539 H532 0.950 . S
C539 C536 1.387 . S
C540 C541 1.387 . S
C540 H544 0.950 . S
C540 C549 1.390 . S
C541 C540 1.387 . S
C541 C543 1.387 . S
H542 C549 0.950 . S
C543 C541 1.387 . S
C543 C545 1.390 . S
C543 H547 0.950 . S
H544 C540 0.950 . S
C545 C543 1.390 . S
C545 C546 1.387 . S
C545 H548 0.950 . S
C546 C545 1.387 . S
C546 C549 1.387 . S
H547 C543 0.950 . S
H548 C545 0.950 . S
C549 C540 1.390 . S
C549 H542 0.950 . S
C549 C546 1.387 . S
C550 C551 1.387 . S
C550 H554 0.950 . S
C550 C559 1.390 . S
C551 C550 1.387 . S
C551 C553 1.387 . S
H552 C559 0.950 . S
C553 C551 1.387 . S
C553 C555 1.390 . S
C553 H557 0.950 . S
H554 C550 0.950 . S
C555 C553 1.390 . S
C555 C556 1.387 . S
C555 H558 0.950 . S
C556 C555 1.387 . S
C556 C559 1.387 . S
H557 C553 0.950 . S
H558 C555 0.950 . S
C559 C550 1.390 . S
C559 H552 0.950 . S
C559 C556 1.387 . S
C560 C561 1.387 . S
C560 H564 0.950 . S
C560 C569 1.390 . S
C561 C560 1.387 . S
C561 C563 1.387 . S
H562 C569 0.950 . S
C563 C561 1.387 . S
C563 C565 1.390 . S
C563 H567 0.950 . S
H564 C560 0.950 . S
C565 C563 1.390 . S
C565 C566 1.387 . S
C565 H568 0.950 . S
C566 C565 1.387 . S
C566 C569 1.387 . S
H567 C563 0.950 . S
H568 C565 0.950 . S
C569 C560 1.390 . S
C569 H562 0.950 . S
C569 C566 1.387 . S
C570 C571 1.387 . S
C570 H574 0.950 . S
C570 C579 1.390 . S
C571 C570 1.387 . S
C571 C573 1.387 . S
H572 C579 0.950 . S
C573 C571 1.387 . S
C573 C575 1.390 . S
C573 H577 0.950 . S
H574 C570 0.950 . S
C575 C573 1.390 . S
C575 C576 1.387 . S
C575 H578 0.950 . S
C576 C575 1.387 . S
C576 C579 1.387 . S
H577 C573 0.950 . S
H578 C575 0.950 . S
C579 C570 1.390 . S
C579 H572 0.950 . S
C579 C576 1.387 . S
C580 C581 1.387 . S
C580 H584 0.950 . S
C580 C589 1.390 . S
C581 C580 1.387 . S
C581 C583 1.387 . S
H582 C589 0.950 . S
C583 C581 1.387 . S
C583 C585 1.390 . S
C583 H587 0.950 . S
H584 C580 0.950 . S
C585 C583 1.390 . S
C585 C586 1.387 . S
C585 H588 0.950 . S
C586 C585 1.387 . S
C586 C589 1.387 . S
H587 C583 0.950 . S
H588 C585 0.950 . S
C589 C580 1.390 . S
C589 H582 0.950 . S
C589 C586 1.387 . S
C590 C591 1.387 . S
C590 H594 0.950 . S
C590 C599 1.390 . S
C591 C590 1.387 . S
C591 C593 1.387 . S
H592 C599 0.950 . S
C593 C591 1.387 . S
C593 C595 1.390 . S
C593 H597 0.950 . S
H594 C590 0.950 . S
C595 C593 1.390 . S
C595 C596 1.387 . S
C595 H598 0.950 . S
C596 C595 1.387 . S
C596 C599 1.387 . S
H597 C593 0.950 . S
H598 C595 0.950 . S
C599 C590 1.390 . S
C599 H592 0.950 . S
C599 C596 1.387 . S
C600 C601 1.387 . S
C600 H604 0.950 . S
C600 C609 1.390 . S
C601 C600 1.387 . S
C601 C603 1.387 . S
H602 C609 0.950 . S
C603 C601 1.387 . S
C603 C605 1.390 . S
C603 H607 0.950 . S
H604 C600 0.950 . S
C605 C603 1.390 . S
C605 C606 1.387 . S
C605 H608 0.950 . S
C606 C605 1.387 . S
C606 C609 1.387 . S
H607 C603 0.950 . S
H608 C605 0.950 . S
C609 C600 1.390 . S
C609 H602 0.950 . S
C609 C606 1.387 . S
C610 C611 1.387 . S
C610 H614 0.950 . S
C610 C619 1.390 . S
C611 C610 1.387 . S
C611 C613 1.387 . S
H612 C619 0.950 . S
C613 C611 1.387 . S
C613 C615 1.390 . S
C613 H617 0.950 . S
H614 C610 0.950 . S
C615 C613 1.390 . S
C615 C616 1.387 . S
C615 H618 0.950 . S
C616 C615 1.387 . S
C616 C619 1.387 . S
H617 C613 0.950 . S
H618 C615 0.950 . S
C619 C610 1.390 . S
C619 H612 0.950 . S
C619 C616 1.387 . S
C620 C621 1.387 . S
C620 H624 0.950 . S
C620 C629 1.390 . S
C621 C620 1.387 . S
C621 C623 1.387 . S
H622 C629 0.950 . S
C623 C621 1.387 . S
C623 C625 1.390 . S
C623 H627 0.950 . S
H624 C620 0.950 . S
C625 C623 1.390 . S
C625 C626 1.387 . S
C625 H628 0.950 . S
C626 C625 1.387 . S
C626 C629 1.387 . S
H627 C623 0.950 . S
H628 C625 0.950 . S
C629 C620 1.390 . S
C629 H622 0.950 . S
C629 C626 1.387 . S
C630 C631 1.387 . S
C630 H634 0.950 . S
C630 C639 1.390 . S
C631 C630 1.387 . S
C631 C633 1.387 . S
H632 C639 0.950 . S
C633 C631 1.387 . S
C633 C635 1.390 . S
C633 H637 0.950 . S
H634 C630 0.950 . S
C635 C633 1.390 . S
C635 C636 1.387 . S
C635 H638 0.950 . S
C636 C635 1.387 . S
C636 C639 1.387 . S
H637 C633 0.950 . S
H638 C635 0.950 . S
C639 C630 1.390 . S
C639 H632 0.950 . S
C639 C636 1.387 . S
C640 C641 1.387 . S
C640 H644 0.950 . S
C640 C649 1.390 . S
C641 C640 1.387 . S
C641 C643 1.387 . S
H642 C649 0.950 . S
C643 C641 1.387 . S
C643 C645 1.390 . S
C643 H647 0.950 . S
H644 C640 0.950 . S
C645 C643 1.390 . S
C645 C646 1.387 . S
C645 H648 0.950 . S
C646 C645 1.387 . S
C646 C649 1.387 . S
H647 C643 0.950 . S
H648 C645 0.950 . S
C649 C640 1.390 . S
C649 H642 0.950 . S
C649 C646 1.387 . S
C650 C651 1.387 . S
C650 H654 0.950 . S
C650 C659 1.390 . S
C651 C650 1.387 . S
C651 C653 1.387 . S
H652 C659 0.950 . S
C653 C651 1.387 . S
C653 C655 1.390 . S
C653 H657 0.950 . S
H654 C650 0.950 . S
C655 C653 1.390 . S
C655 C656 1.387 . S
C655 H658 0.950 . S
C656 C655 1.387 . S
C656 C659 1.387 . S
H657 C653 0.950 . S
H658 C655 0.950 . S
C659 C650 1.390 . S
C659 H652 0.950 . S
C659 C656 1.387 . S
C660 C661 1.387 . S
C660 H664 0.950 . S
C660 C669 1.390 . S
C661 C660 1.387 . S
C661 C663 1.387 . S
H662 C669 0.950 . S
C663 C661 1.387 . S
C663 C665 1.390 . S
C663 H667 0.950 . S
H664 C660 0.950 . S
C665 C663 1.390 . S
C665 C666 1.387 . S
C665 H668 0.950 . S
C666 C665 1.387 . S
C666 C669 1.387 . S
H667 C663 0.950 . S
H668 C665 0.950 . S
C669 C660 1.390 . S
C669 H662 0.950 . S
C669 C666 1.387 . S
C670 C671 1.387 . S
C670 H674 0.950 . S
C670 C679 1.390 . S
C671 C670 1.387 . S
C671 C673 1.387 . S
H672 C679 0.950 . S
C673 C671 1.387 . S
C673 C675 1.390 . S
C673 H677 0.950 . S
H674 C670 0.950 . S
C675 C673 1.390 . S
C675 C676 1.387 . S
C675 H678 0.950 . S
C676 C675 1.387 . S
C676 C679 1.387 . S
H677 C673 0.950 . S
H678 C675 0.950 . S
C679 C670 1.390 . S
C679 H672 0.950 . S
C679 C676 1.387 . S
C680 C681 1.387 . S
C680 H684 0.950 . S
C680 C689 1.390 . S
C681 C680 1.387 . S
C681 C683 1.387 . S
H682 C689 0.950 . S
C683 C681 1.387 . S
C683 C685 1.390 . S
C683 H687 0.950 . S
H684 C680 0.950 . S
C685 C683 1.390 . S
C685 C686 1.387 . S
C685 H688 0.950 . S
C686 C685 1.387 . S
C686 C689 1.387 . S
H687 C683 0.950 . S
H688 C685 0.950 . S
C689 C680 1.390 . S
C689 H682 0.950 . S
C689 C686 1.387 . S
C690 C691 1.387 . S
C690 H694 0.950 . S
C690 C699 1.390 . S
C691 C690 1.387 . S
C691 C693 1.387 . S
H692 C699 0.950 . S
C693 C691 1.387 . S
C693 C695 1.390 . S
C693 H697 0.950 . S
H694 C690 0.950 . S
C695 C693 1.390 . S
C695 C696 1.387 . S
C695 H698 0.950 . S
C696 C695 1.387 . S
C696 C699 1.387 . S
H697 C693 0.950 . S
H698 C695 0.950 . S
C699 C690 1.390 . S
C699 H692 0.950 . S
C699 C696 1.387 . S
C466 C123 1.504 . S
C461 C5 1.422 . S
C476 C203 1.684 . S
C471 C16 1.498 . S
C486 C135 1.611 . S
C481 C30 1.728 . S
C496 C179 1.824 . S
C491 C40 2.009 . S
C506 C247 1.342 . S
C501 C8 1.383 . S
C516 C327 1.457 . S
C511 C18 1.405 . S
C521 C29 1.843 . S
C526 C389 1.844 . S
C536 C445 1.555 . S
C531 C38 1.373 . S
C546 C259 1.385 1_565 S
C541 C19 1.537 . S
C551 C27 1.556 . S
C556 C303 1.527 . S
C566 C365 1.724 . S
C561 C41 1.907 . S
C576 C433 1.437 . S
C571 C7 1.474 . S
C581 C52 1.909 . S
C586 C197 1.724 . S
C596 C117 1.535 . S
C591 C62 1.586 . S
C601 C74 1.612 . S
C606 C185 1.540 . S
C611 C82 1.134 . S
C616 C141 1.367 . S
C626 C383 1.945 . S
C621 C51 2.003 . S
C636 C427 1.564 . S
C631 C60 1.464 . S
C646 C241 1.441 . S
C641 C71 1.232 . S
C651 C84 1.384 . S
C656 C309 1.392 . S
C666 C371 1.723 . S
C661 C63 1.771 . S
C676 C451 1.492 . S
C671 C73 1.451 . S
C686 C265 1.407 . S
C681 C85 1.499 . S
C691 C49 1.385 . S
C696 C321 1.570 . S
