# Generated by pormake.
# Topology llk, (3,12)-cn, num edge types: 1
# Building blocks:
#     Node 0, Type 0, BuildingBlock: BETDIP_clean_linker_0, # of connection points: 3
#     Node 1, Type 0, BuildingBlock: BETDIP_clean_linker_0, # of connection points: 3
#     Node 2, Type 0, BuildingBlock: BETDIP_clean_linker_0, # of connection points: 3
#     Node 3, Type 0, BuildingBlock: BETDIP_clean_linker_0, # of connection points: 3
#     Node 4, Type 0, BuildingBlock: BETDIP_clean_linker_0, # of connection points: 3
#     Node 5, Type 0, BuildingBlock: BETDIP_clean_linker_0, # of connection points: 3
#     Node 6, Type 0, BuildingBlock: BETDIP_clean_linker_0, # of connection points: 3
#     Node 7, Type 0, BuildingBlock: BETDIP_clean_linker_0, # of connection points: 3
#     Node 8, Type 0, BuildingBlock: BETDIP_clean_linker_0, # of connection points: 3
#     Node 9, Type 0, BuildingBlock: BETDIP_clean_linker_0, # of connection points: 3
#     Node 10, Type 0, BuildingBlock: BETDIP_clean_linker_0, # of connection points: 3
#     Node 11, Type 0, BuildingBlock: BETDIP_clean_linker_0, # of connection points: 3
#     Node 12, Type 0, BuildingBlock: BETDIP_clean_linker_0, # of connection points: 3
#     Node 13, Type 0, BuildingBlock: BETDIP_clean_linker_0, # of connection points: 3
#     Node 14, Type 0, BuildingBlock: BETDIP_clean_linker_0, # of connection points: 3
#     Node 15, Type 0, BuildingBlock: BETDIP_clean_linker_0, # of connection points: 3
#     Node 16, Type 0, BuildingBlock: BETDIP_clean_linker_0, # of connection points: 3
#     Node 17, Type 0, BuildingBlock: BETDIP_clean_linker_0, # of connection points: 3
#     Node 18, Type 0, BuildingBlock: BETDIP_clean_linker_0, # of connection points: 3
#     Node 19, Type 0, BuildingBlock: BETDIP_clean_linker_0, # of connection points: 3
#     Node 20, Type 0, BuildingBlock: BETDIP_clean_linker_0, # of connection points: 3
#     Node 21, Type 0, BuildingBlock: BETDIP_clean_linker_0, # of connection points: 3
#     Node 22, Type 0, BuildingBlock: BETDIP_clean_linker_0, # of connection points: 3
#     Node 23, Type 0, BuildingBlock: BETDIP_clean_linker_0, # of connection points: 3
#     Node 24, Type 1, BuildingBlock: EZIPEK_clean_sbu_0, # of connection points: 12
#     Node 25, Type 1, BuildingBlock: EZIPEK_clean_sbu_0, # of connection points: 12
#     Node 26, Type 1, BuildingBlock: EZIPEK_clean_sbu_0, # of connection points: 12
#     Node 27, Type 1, BuildingBlock: EZIPEK_clean_sbu_0, # of connection points: 12
#     Node 28, Type 1, BuildingBlock: EZIPEK_clean_sbu_0, # of connection points: 12
#     Node 29, Type 1, BuildingBlock: EZIPEK_clean_sbu_0, # of connection points: 12
#     Edge 30, Type (0, 1), BuildingBlock: AJUNOK_clean_linker_0, # of connection points: 2
#     Edge 31, Type (0, 1), BuildingBlock: AJUNOK_clean_linker_0, # of connection points: 2
#     Edge 32, Type (0, 1), BuildingBlock: AJUNOK_clean_linker_0, # of connection points: 2
#     Edge 33, Type (0, 1), BuildingBlock: AJUNOK_clean_linker_0, # of connection points: 2
#     Edge 34, Type (0, 1), BuildingBlock: AJUNOK_clean_linker_0, # of connection points: 2
#     Edge 35, Type (0, 1), BuildingBlock: AJUNOK_clean_linker_0, # of connection points: 2
#     Edge 36, Type (0, 1), BuildingBlock: AJUNOK_clean_linker_0, # of connection points: 2
#     Edge 37, Type (0, 1), BuildingBlock: AJUNOK_clean_linker_0, # of connection points: 2
#     Edge 38, Type (0, 1), BuildingBlock: AJUNOK_clean_linker_0, # of connection points: 2
#     Edge 39, Type (0, 1), BuildingBlock: AJUNOK_clean_linker_0, # of connection points: 2
#     Edge 40, Type (0, 1), BuildingBlock: AJUNOK_clean_linker_0, # of connection points: 2
#     Edge 41, Type (0, 1), BuildingBlock: AJUNOK_clean_linker_0, # of connection points: 2
#     Edge 42, Type (0, 1), BuildingBlock: AJUNOK_clean_linker_0, # of connection points: 2
#     Edge 43, Type (0, 1), BuildingBlock: AJUNOK_clean_linker_0, # of connection points: 2
#     Edge 44, Type (0, 1), BuildingBlock: AJUNOK_clean_linker_0, # of connection points: 2
#     Edge 45, Type (0, 1), BuildingBlock: AJUNOK_clean_linker_0, # of connection points: 2
#     Edge 46, Type (0, 1), BuildingBlock: AJUNOK_clean_linker_0, # of connection points: 2
#     Edge 47, Type (0, 1), BuildingBlock: AJUNOK_clean_linker_0, # of connection points: 2
#     Edge 48, Type (0, 1), BuildingBlock: AJUNOK_clean_linker_0, # of connection points: 2
#     Edge 49, Type (0, 1), BuildingBlock: AJUNOK_clean_linker_0, # of connection points: 2
#     Edge 50, Type (0, 1), BuildingBlock: AJUNOK_clean_linker_0, # of connection points: 2
#     Edge 51, Type (0, 1), BuildingBlock: AJUNOK_clean_linker_0, # of connection points: 2
#     Edge 52, Type (0, 1), BuildingBlock: AJUNOK_clean_linker_0, # of connection points: 2
#     Edge 53, Type (0, 1), BuildingBlock: AJUNOK_clean_linker_0, # of connection points: 2
#     Edge 54, Type (0, 1), BuildingBlock: AJUNOK_clean_linker_0, # of connection points: 2
#     Edge 55, Type (0, 1), BuildingBlock: AJUNOK_clean_linker_0, # of connection points: 2
#     Edge 56, Type (0, 1), BuildingBlock: AJUNOK_clean_linker_0, # of connection points: 2
#     Edge 57, Type (0, 1), BuildingBlock: AJUNOK_clean_linker_0, # of connection points: 2
#     Edge 58, Type (0, 1), BuildingBlock: AJUNOK_clean_linker_0, # of connection points: 2
#     Edge 59, Type (0, 1), BuildingBlock: AJUNOK_clean_linker_0, # of connection points: 2
#     Edge 60, Type (0, 1), BuildingBlock: AJUNOK_clean_linker_0, # of connection points: 2
#     Edge 61, Type (0, 1), BuildingBlock: AJUNOK_clean_linker_0, # of connection points: 2
#     Edge 62, Type (0, 1), BuildingBlock: AJUNOK_clean_linker_0, # of connection points: 2
#     Edge 63, Type (0, 1), BuildingBlock: AJUNOK_clean_linker_0, # of connection points: 2
#     Edge 64, Type (0, 1), BuildingBlock: AJUNOK_clean_linker_0, # of connection points: 2
#     Edge 65, Type (0, 1), BuildingBlock: AJUNOK_clean_linker_0, # of connection points: 2
#     Edge 66, Type (0, 1), BuildingBlock: AJUNOK_clean_linker_0, # of connection points: 2
#     Edge 67, Type (0, 1), BuildingBlock: AJUNOK_clean_linker_0, # of connection points: 2
#     Edge 68, Type (0, 1), BuildingBlock: AJUNOK_clean_linker_0, # of connection points: 2
#     Edge 69, Type (0, 1), BuildingBlock: AJUNOK_clean_linker_0, # of connection points: 2
#     Edge 70, Type (0, 1), BuildingBlock: AJUNOK_clean_linker_0, # of connection points: 2
#     Edge 71, Type (0, 1), BuildingBlock: AJUNOK_clean_linker_0, # of connection points: 2
#     Edge 72, Type (0, 1), BuildingBlock: AJUNOK_clean_linker_0, # of connection points: 2
#     Edge 73, Type (0, 1), BuildingBlock: AJUNOK_clean_linker_0, # of connection points: 2
#     Edge 74, Type (0, 1), BuildingBlock: AJUNOK_clean_linker_0, # of connection points: 2
#     Edge 75, Type (0, 1), BuildingBlock: AJUNOK_clean_linker_0, # of connection points: 2
#     Edge 76, Type (0, 1), BuildingBlock: AJUNOK_clean_linker_0, # of connection points: 2
#     Edge 77, Type (0, 1), BuildingBlock: AJUNOK_clean_linker_0, # of connection points: 2
#     Edge 78, Type (0, 1), BuildingBlock: AJUNOK_clean_linker_0, # of connection points: 2
#     Edge 79, Type (0, 1), BuildingBlock: AJUNOK_clean_linker_0, # of connection points: 2
#     Edge 80, Type (0, 1), BuildingBlock: AJUNOK_clean_linker_0, # of connection points: 2
#     Edge 81, Type (0, 1), BuildingBlock: AJUNOK_clean_linker_0, # of connection points: 2
#     Edge 82, Type (0, 1), BuildingBlock: AJUNOK_clean_linker_0, # of connection points: 2
#     Edge 83, Type (0, 1), BuildingBlock: AJUNOK_clean_linker_0, # of connection points: 2
#     Edge 84, Type (0, 1), BuildingBlock: AJUNOK_clean_linker_0, # of connection points: 2
#     Edge 85, Type (0, 1), BuildingBlock: AJUNOK_clean_linker_0, # of connection points: 2
#     Edge 86, Type (0, 1), BuildingBlock: AJUNOK_clean_linker_0, # of connection points: 2
#     Edge 87, Type (0, 1), BuildingBlock: AJUNOK_clean_linker_0, # of connection points: 2
#     Edge 88, Type (0, 1), BuildingBlock: AJUNOK_clean_linker_0, # of connection points: 2
#     Edge 89, Type (0, 1), BuildingBlock: AJUNOK_clean_linker_0, # of connection points: 2
#     Edge 90, Type (0, 1), BuildingBlock: AJUNOK_clean_linker_0, # of connection points: 2
#     Edge 91, Type (0, 1), BuildingBlock: AJUNOK_clean_linker_0, # of connection points: 2
#     Edge 92, Type (0, 1), BuildingBlock: AJUNOK_clean_linker_0, # of connection points: 2
#     Edge 93, Type (0, 1), BuildingBlock: AJUNOK_clean_linker_0, # of connection points: 2
#     Edge 94, Type (0, 1), BuildingBlock: AJUNOK_clean_linker_0, # of connection points: 2
#     Edge 95, Type (0, 1), BuildingBlock: AJUNOK_clean_linker_0, # of connection points: 2
#     Edge 96, Type (0, 1), BuildingBlock: AJUNOK_clean_linker_0, # of connection points: 2
#     Edge 97, Type (0, 1), BuildingBlock: AJUNOK_clean_linker_0, # of connection points: 2
#     Edge 98, Type (0, 1), BuildingBlock: AJUNOK_clean_linker_0, # of connection points: 2
#     Edge 99, Type (0, 1), BuildingBlock: AJUNOK_clean_linker_0, # of connection points: 2
#     Edge 100, Type (0, 1), BuildingBlock: AJUNOK_clean_linker_0, # of connection points: 2
#     Edge 101, Type (0, 1), BuildingBlock: AJUNOK_clean_linker_0, # of connection points: 2
# Relax obj value: 0.076
# Max RMSD: 0.174
# Mean RMSD: 0.135
data_MOF--net-llk--node1-EZIPEK_clean_sbu_0--node2-BETDIP_clean_linker_0--edge1-AJUNOK_clean_linker_0
_symmetry_space_group_name_H-M    P1
_symmetry_Int_Tables_number       1
_symmetry_cell_setting            triclinic
loop_
_symmetry_equiv_pos_as_xyz
'x, y, z'
_cell_length_a     35.55341
_cell_length_b     35.718734
_cell_length_c     35.887854
_cell_angle_alpha  89.95295
_cell_angle_beta   89.920298
_cell_angle_gamma 89.93209
loop_
_atom_site_label
_atom_site_type_symbol
_atom_site_fract_x
_atom_site_fract_y
_atom_site_fract_z
_atom_type_partial_charge
H0 H 0.02331 0.25711 0.21393 0.0
H1 H 0.01923 0.27425 0.33269 0.0
H2 H 0.01993 0.36886 0.25925 0.0
H3 H 0.07665 0.22731 0.31538 0.0
C4 C 0.05184 0.21019 0.31064 0.0
C5 C 0.02175 0.27575 0.23767 0.0
C6 C 0.02082 0.31506 0.23222 0.0
C7 C 0.02256 0.26099 0.27433 0.0
C8 C 0.0204 0.28553 0.30466 0.0
C9 C 0.01989 0.3242 0.29942 0.0
C10 C 0.01999 0.33874 0.2633 0.0
N11 N 0.02701 0.22195 0.28161 0.0
H12 H 0.82039 0.99451 0.26694 0.0
H13 H 0.7002 1.00214 0.28209 0.0
H14 H 0.77274 0.01044 0.37645 0.0
H15 H 0.71225 0.94665 0.23828 0.0
C16 C 0.72155 0.96857 0.21936 0.0
C17 C 0.79615 0.99846 0.28483 0.0
C18 C 0.80099 1.00294 0.32377 0.0
C19 C 0.7594 0.99728 0.26959 0.0
C20 C 0.72841 1.00202 0.29331 0.0
C21 C 0.73323 1.00686 0.33146 0.0
C22 C 0.76931 1.00742 0.34655 0.0
N23 N 0.75292 0.99069 0.23088 0.0
H24 H 0.01544 0.81601 0.26655 0.0
H25 H 0.01957 0.69644 0.28358 0.0
H26 H 0.0114 0.76957 0.37743 0.0
H27 H 0.07245 0.71176 0.23688 0.0
C28 C 0.0486 0.71874 0.21921 0.0
C29 C 0.0154 0.79205 0.28506 0.0
C30 C 0.01141 0.79724 0.3241 0.0
C31 C 0.01966 0.75538 0.27033 0.0
C32 C 0.01834 0.72465 0.29464 0.0
C33 C 0.01469 0.7297 0.33295 0.0
C34 C 0.0125 0.76583 0.34745 0.0
N35 N 0.02468 0.74858 0.2314 0.0
H36 H 0.20988 0.01942 0.26916 0.0
H37 H 0.33014 1.00563 0.27355 0.0
H38 H 0.26585 1.00336 0.37454 0.0
H39 H 0.29955 0.07218 0.22588 0.0
C40 C 0.29922 0.04468 0.21295 0.0
C41 C 0.23516 0.01439 0.28519 0.0
C42 C 0.2333 0.0116 0.32457 0.0
C43 C 0.27044 0.0128 0.26686 0.0
C44 C 0.30319 1.00715 0.28766 0.0
C45 C 0.30149 1.00314 0.32627 0.0
C46 C 0.26674 1.0055 0.34441 0.0
N47 N 0.27383 0.01754 0.22766 0.0
H48 H 0.02032 0.76292 0.82323 0.0
H49 H 0.0106 0.74577 0.70474 0.0
H50 H 0.99859 0.65286 0.77905 0.0
H51 H 0.0688 0.78766 0.71771 0.0
C52 C 0.04665 0.80742 0.72492 0.0
C53 C 0.01454 0.74471 0.79982 0.0
C54 C 0.00945 0.70578 0.80557 0.0
C55 C 0.0148 0.75934 0.76308 0.0
C56 C 0.00914 0.73501 0.73293 0.0
C57 C 1.00362 0.69677 0.73859 0.0
C58 C 1.00274 0.68266 0.77481 0.0
N59 N 0.02295 0.79775 0.75563 0.0
H60 H 0.2082 0.99914 0.77185 0.0
H61 H 0.32818 0.01114 0.75853 0.0
H62 H 0.25609 0.02124 0.66372 0.0
H63 H 0.31355 0.95289 0.80159 0.0
C64 C 0.30587 0.97581 0.82004 0.0
C65 C 0.23235 1.00522 0.75444 0.0
C66 C 0.22787 0.00968 0.71549 0.0
C67 C 0.26887 1.00609 0.7702 0.0
C68 C 0.30008 0.01196 0.74693 0.0
C69 C 0.29551 0.01699 0.70868 0.0
C70 C 0.25945 0.01726 0.69353 0.0
N71 N 0.2751 0.99892 0.80881 0.0
H72 H 0.01902 0.20414 0.77418 0.0
H73 H 0.01773 0.32339 0.75529 0.0
H74 H 0.01534 0.24815 0.66242 0.0
H75 H 0.07267 0.30739 0.80274 0.0
C76 C 0.04823 0.30175 0.8201 0.0
C77 C 0.01796 0.22779 0.75531 0.0
C78 C 0.01629 0.22185 0.71632 0.0
C79 C 0.01971 0.26477 0.76947 0.0
C80 C 0.01792 0.29502 0.7446 0.0
C81 C 0.01586 0.2892 0.70624 0.0
C82 C 0.01572 0.2527 0.69231 0.0
N83 N 0.02382 0.27233 0.80831 0.0
H84 H 0.76512 0.02637 0.82299 0.0
H85 H 0.75386 0.99943 0.70654 0.0
H86 H 0.65541 1.00944 0.77481 0.0
H87 H 0.81689 0.95794 0.7437 0.0
C88 C 0.8231 0.98707 0.73741 0.0
C89 C 0.74754 0.01965 0.79931 0.0
C90 C 0.70791 0.01813 0.80345 0.0
C91 C 0.7642 0.01242 0.76413 0.0
C92 C 0.74122 1.0041 0.73366 0.0
C93 C 0.70217 1.00329 0.73734 0.0
C94 C 0.6858 0.00986 0.77217 0.0
N95 N 0.80372 0.01514 0.75821 0.0
H96 H 0.20738 0.25909 0.02432 0.0
H97 H 0.32695 0.27006 1.00664 0.0
H98 H 0.25948 0.3681 0.02056 0.0
H99 H 0.30384 0.22018 0.96017 0.0
C100 C 0.29911 0.20494 0.98601 0.0
C101 C 0.23215 0.27646 0.02133 0.0
C102 C 0.22907 0.31596 0.02391 0.0
C103 C 0.26762 0.25969 0.01445 0.0
C104 C 0.29948 0.28252 1.01097 0.0
C105 C 0.29646 0.32131 0.01289 0.0
C106 C 0.26145 0.33782 0.01915 0.0
N107 N 0.27198 0.22011 1.01122 0.0
H108 H 0.20696 0.76256 0.01777 0.0
H109 H 0.32703 0.75274 0.0311 0.0
H110 H 0.26025 0.654 0.02253 0.0
H111 H 0.30398 0.80335 0.07832 0.0
C112 C 0.29887 0.81809 0.05228 0.0
C113 C 0.23193 0.74539 0.02051 0.0
C114 C 0.22912 0.70578 0.01931 0.0
C115 C 0.26746 0.76256 0.02557 0.0
C116 C 0.29961 0.74001 0.02838 0.0
C117 C 0.29696 0.70118 0.02777 0.0
C118 C 0.26192 0.68431 0.02326 0.0
N119 N 0.27159 0.80223 0.02778 0.0
H120 H 0.7659 0.20625 0.02203 0.0
H121 H 0.75652 0.32439 0.99927 0.0
H122 H 0.65689 0.25846 1.01207 0.0
H123 H 0.81345 0.29008 0.95367 0.0
C124 C 0.82352 0.29284 0.98211 0.0
C125 C 0.74866 0.23074 0.01699 0.0
C126 C 0.70887 0.22779 0.01738 0.0
C127 C 0.76597 0.26576 1.00988 0.0
C128 C 0.74345 0.29736 1.00388 0.0
C129 C 0.70436 0.29475 1.00474 0.0
C130 C 0.68734 0.26013 1.01123 0.0
N131 N 0.80579 0.27014 1.00976 0.0
H132 H 0.76523 0.81663 1.01075 0.0
H133 H 0.75869 0.69851 0.0337 0.0
H134 H 0.65743 0.76234 0.02116 0.0
H135 H 0.82005 0.73828 0.07775 0.0
C136 C 0.82569 0.73206 0.04863 0.0
C137 C 0.7485 0.79182 0.01583 0.0
C138 C 0.70873 0.79411 0.01614 0.0
C139 C 0.76654 0.75713 0.02244 0.0
C140 C 0.74486 0.72509 0.02871 0.0
C141 C 0.70569 0.7267 0.02718 0.0
C142 C 0.6879 0.7612 0.02162 0.0
N143 N 0.80635 0.75353 0.0212 0.0
H144 H 0.51024 0.75804 0.7144 0.0
H145 H 0.52084 0.77439 0.83302 0.0
H146 H 0.50278 0.86875 0.76196 0.0
H147 H 0.57318 0.72697 0.81251 0.0
C148 C 0.54806 0.71007 0.80872 0.0
C149 C 0.51035 0.7764 0.7384 0.0
C150 C 0.50515 0.81555 0.73368 0.0
C151 C 0.5163 0.76136 0.77455 0.0
C152 C 0.51639 0.78555 0.80528 0.0
C153 C 0.51116 0.82394 0.80077 0.0
C154 C 0.50603 0.83872 0.76517 0.0
N155 N 0.52212 0.72226 0.7808 0.0
H156 H 0.32037 0.50412 0.76757 0.0
H157 H 0.20028 0.49035 0.77785 0.0
H158 H 0.26673 0.50861 0.87533 0.0
H159 H 0.22316 0.44184 0.72898 0.0
C160 C 0.22828 0.46756 0.71355 0.0
C161 C 0.2953 0.5028 0.78469 0.0
C162 C 0.298 0.5069 0.82392 0.0
C163 C 0.25978 0.49659 0.76786 0.0
C164 C 0.22755 0.49505 0.79039 0.0
C165 C 0.23 0.4998 0.82886 0.0
C166 C 0.26507 0.50537 0.84533 0.0
N167 N 0.25572 0.49259 0.72848 0.0
H168 H 0.50884 0.31589 0.76594 0.0
H169 H 0.52423 0.19728 0.78343 0.0
H170 H 0.51067 0.26989 0.87713 0.0
H171 H 0.57035 0.21549 0.73231 0.0
C172 C 0.54469 0.22059 0.71661 0.0
C173 C 0.51134 0.29212 0.78452 0.0
C174 C 0.50888 0.29733 0.82368 0.0
C175 C 0.51736 0.25573 0.76973 0.0
C176 C 0.5204 0.22533 0.79429 0.0
C177 C 0.51834 0.23046 0.83272 0.0
C178 C 0.5126 0.26623 0.84717 0.0
N179 N 0.51985 0.24888 0.73055 0.0
H180 H 0.70866 0.51778 0.76676 0.0
H181 H 0.82926 0.50952 0.77634 0.0
H182 H 0.76064 0.49782 0.87349 0.0
H183 H 0.80853 0.56932 0.73344 0.0
C184 C 0.80349 0.54494 0.71605 0.0
C185 C 0.73341 0.51243 0.78351 0.0
C186 C 0.73009 0.50811 0.82266 0.0
C187 C 0.76949 0.5126 0.7666 0.0
C188 C 0.80155 0.50788 0.78885 0.0
C189 C 0.79833 0.50317 0.82723 0.0
C190 C 0.76275 0.50184 0.84358 0.0
N191 N 0.77442 0.52006 0.72786 0.0
H192 H 0.52586 0.2628 0.32403 0.0
H193 H 0.50423 0.24951 0.2067 0.0
H194 H 0.5105 0.15291 0.27716 0.0
H195 H 0.57036 0.28953 0.22029 0.0
C196 C 0.54753 0.30886 0.22644 0.0
C197 C 0.5195 0.24498 0.30048 0.0
C198 C 0.51715 0.2056 0.30524 0.0
C199 C 0.51606 0.26072 0.26433 0.0
C200 C 0.50784 0.23733 0.23414 0.0
C201 C 0.50574 0.19858 0.23852 0.0
C202 C 0.51065 0.18308 0.27394 0.0
N203 N 0.52348 0.29928 0.25695 0.0
H204 H 0.70601 0.51543 0.27199 0.0
H205 H 0.82681 0.51163 0.26154 0.0
H206 H 0.75843 0.51426 0.16362 0.0
H207 H 0.80596 0.45811 0.3087 0.0
C208 C 0.79996 0.48303 0.32509 0.0
C209 C 0.73103 0.51481 0.25476 0.0
C210 C 0.72791 0.51687 0.21538 0.0
C211 C 0.76705 0.51154 0.27152 0.0
C212 C 0.79919 0.51182 0.24884 0.0
C213 C 0.79614 0.5128 0.21016 0.0
C214 C 0.76064 0.5146 0.19378 0.0
N215 N 0.77183 0.50786 0.31087 0.0
H216 H 0.51886 0.70435 0.27144 0.0
H217 H 0.52392 0.82409 0.25659 0.0
H218 H 0.51526 0.75292 0.16132 0.0
H219 H 0.57766 0.80437 0.30417 0.0
C220 C 0.55262 0.79933 0.32086 0.0
C221 C 0.51916 0.72861 0.25331 0.0
C222 C 0.5158 0.72408 0.21414 0.0
C223 C 0.5232 0.76497 0.26874 0.0
C224 C 0.52269 0.79613 0.24495 0.0
C225 C 0.51973 0.79178 0.20649 0.0
C226 C 0.51673 0.75597 0.19137 0.0
N227 N 0.52748 0.77102 0.30785 0.0
H228 H 0.26501 0.50359 0.32322 0.0
H229 H 0.25469 0.51979 0.20482 0.0
H230 H 0.15626 0.52244 0.27378 0.0
H231 H 0.31867 0.56712 0.24302 0.0
C232 C 0.32382 0.53776 0.23692 0.0
C233 C 0.24771 0.50933 0.29906 0.0
C234 C 0.20817 0.51215 0.30281 0.0
C235 C 0.2646 0.51376 0.26355 0.0
C236 C 0.24188 0.5193 0.23222 0.0
C237 C 0.20288 0.52143 0.2357 0.0
C238 C 0.18654 0.51963 0.27109 0.0
N239 N 0.30407 0.5104 0.25821 0.0
H240 H 0.70751 0.75857 0.53218 0.0
H241 H 0.82791 0.76917 0.52247 0.0
H242 H 0.76062 0.86667 0.54054 0.0
H243 H 0.80827 0.72364 0.47283 0.0
C244 C 0.80098 0.70615 0.49658 0.0
C245 C 0.73262 0.77571 0.53274 0.0
C246 C 0.72968 0.81492 0.53791 0.0
C247 C 0.76832 0.75899 0.52725 0.0
C248 C 0.80055 0.7816 0.52726 0.0
C249 C 0.79785 0.82018 0.53215 0.0
C250 C 0.76257 0.83651 0.53764 0.0
N251 N 0.77234 0.71976 0.52098 0.0
H252 H 0.70669 0.2621 0.52397 0.0
H253 H 0.82747 0.25435 0.52685 0.0
H254 H 0.76163 0.15521 0.53834 0.0
H255 H 0.80691 0.30596 0.57638 0.0
C256 C 0.79968 0.31983 0.55035 0.0
C257 C 0.7319 0.24537 0.52717 0.0
C258 C 0.72955 0.20585 0.52977 0.0
C259 C 0.76748 0.26308 0.5285 0.0
C260 C 0.8002 0.24113 0.52946 0.0
C261 C 0.79803 0.20236 0.53231 0.0
C262 C 0.76287 0.18532 0.53459 0.0
N263 N 0.77119 0.30277 0.52822 0.0
H264 H 0.26589 0.70442 0.53003 0.0
H265 H 0.25753 0.82355 0.51344 0.0
H266 H 0.15748 0.75699 0.51716 0.0
H267 H 0.31843 0.78317 0.46384 0.0
C268 C 0.32482 0.78956 0.49275 0.0
C269 C 0.24886 0.72914 0.52537 0.0
C270 C 0.20914 0.72637 0.52477 0.0
C271 C 0.26634 0.76434 0.51993 0.0
C272 C 0.24415 0.79637 0.51522 0.0
C273 C 0.20503 0.79386 0.51508 0.0
C274 C 0.18791 0.75883 0.51852 0.0
N275 N 0.30607 0.76857 0.52097 0.0
H276 H 0.26798 0.31676 0.51929 0.0
H277 H 0.25821 0.19647 0.52294 0.0
H278 H 0.1591 0.26419 0.51441 0.0
H279 H 0.31092 0.22885 0.57808 0.0
C280 C 0.32313 0.2273 0.55035 0.0
C281 C 0.25075 0.2918 0.51837 0.0
C282 C 0.21101 0.29487 0.51787 0.0
C283 C 0.26788 0.25594 0.52004 0.0
C284 C 0.24525 0.22388 0.52073 0.0
C285 C 0.20618 0.22684 0.51941 0.0
C286 C 0.18948 0.26211 0.51645 0.0
N287 N 0.30759 0.2514 0.5226 0.0
C288 C 0.01719 0.91777 0.60801 0.0
C289 C 0.01211 0.92269 0.42587 0.0
C290 C 0.01403 0.09878 0.61273 0.0
C291 C 0.01857 0.1039 0.43012 0.0
C292 C 0.92431 0.10177 0.52097 0.0
C293 C 0.92366 0.9213 0.5203 0.0
C294 C 0.10533 0.10112 0.52378 0.0
C295 C 0.10514 0.92067 0.5156 0.0
C296 C 0.10653 0.0139 0.42804 0.0
C297 C 0.92477 0.00986 0.4274 0.0
C298 C 0.10496 1.00745 0.61054 0.0
C299 C 0.92373 1.00768 0.6103 0.0
Eu300 Eu 0.01436 0.94032 0.51747 0.0
O301 O 0.98164 0.97912 0.48515 0.0
O302 O 0.04799 0.97698 0.55134 0.0
Eu303 Eu 0.9436 0.01139 0.519 0.0
Eu304 Eu 0.08616 0.01082 0.51906 0.0
O305 O 0.98106 0.97717 0.5515 0.0
O306 O 0.0484 0.97831 0.48501 0.0
Eu307 Eu 0.01458 1.00909 0.58979 0.0
Eu308 Eu 0.01533 0.01272 0.44812 0.0
O309 O 0.98127 0.04356 0.55321 0.0
O310 O 0.98145 0.04538 0.48629 0.0
O311 O 0.04824 0.04492 0.48688 0.0
O312 O 0.04811 0.04319 0.55302 0.0
Eu313 Eu 0.01474 0.08183 0.52092 0.0
O314 O 0.01646 0.90744 0.57214 0.0
O315 O 0.0107 0.91057 0.46119 0.0
O316 O 0.01505 0.11143 0.57759 0.0
O317 O 0.01807 0.11444 0.46598 0.0
O318 O 0.91282 0.06637 0.51863 0.0
O319 O 0.91239 0.95684 0.51947 0.0
O320 O 0.11756 0.06587 0.52158 0.0
O321 O 0.11744 0.95588 0.51554 0.0
O322 O 0.07085 0.01247 0.41659 0.0
O323 O 0.96038 0.01311 0.41621 0.0
O324 O 0.06932 0.00977 0.62175 0.0
O325 O 0.95953 1.00568 0.621 0.0
O326 O 0.06966 0.1124 0.52387 0.0
O327 O 0.95982 0.11352 0.52241 0.0
O328 O 0.06945 0.90943 0.51648 0.0
O329 O 0.95913 0.90921 0.52006 0.0
O330 O 0.01516 0.95835 0.41519 0.0
O331 O 0.01682 0.0686 0.41806 0.0
O332 O 0.01644 0.95316 0.61997 0.0
O333 O 0.01312 0.06296 0.62307 0.0
O334 O 0.91171 0.01091 0.57499 0.0
O335 O 0.91297 1.0082 0.46288 0.0
O336 O 0.11674 1.00661 0.57503 0.0
O337 O 0.11773 0.01442 0.46367 0.0
C338 C 0.51498 0.91654 0.10487 0.0
C339 C 0.509 0.09628 0.11431 0.0
C340 C 0.51437 0.92607 0.92516 0.0
C341 C 0.51744 0.1062 0.93493 0.0
C342 C 0.60634 0.01889 0.93001 0.0
C343 C 0.6052 1.00498 0.11029 0.0
C344 C 0.42259 0.01092 0.92872 0.0
C345 C 0.42101 0.01226 0.10873 0.0
C346 C 0.42149 0.10154 0.01895 0.0
C347 C 0.6057 0.10173 0.02493 0.0
C348 C 0.42147 0.92072 0.01833 0.0
C349 C 0.60542 0.92049 0.01419 0.0
Eu350 Eu 0.51317 1.00746 0.08997 0.0
O351 O 0.54737 0.04287 0.05489 0.0
O352 O 0.47968 0.97604 0.05098 0.0
Eu353 Eu 0.58539 0.01111 0.01998 0.0
Eu354 Eu 0.44254 0.01124 0.01897 0.0
O355 O 0.54679 0.97639 0.05079 0.0
O356 O 0.48028 0.04246 0.05379 0.0
Eu357 Eu 0.51349 0.94046 0.01591 0.0
Eu358 Eu 0.51374 0.08212 0.02352 0.0
O359 O 0.54749 0.97977 0.98501 0.0
O360 O 0.54719 0.04587 0.98892 0.0
O361 O 0.48045 0.04656 0.9879 0.0
O362 O 0.48059 0.97986 0.98448 0.0
Eu363 Eu 0.51429 0.01513 0.94917 0.0
O364 O 0.51439 0.95123 0.1184 0.0
O365 O 0.51106 0.06032 0.12382 0.0
O366 O 0.51737 0.962 0.91563 0.0
O367 O 0.51344 0.07174 0.92129 0.0
O368 O 0.61775 0.01416 0.96516 0.0
O369 O 0.61675 1.00725 0.07494 0.0
O370 O 0.41108 0.01095 0.9641 0.0
O371 O 0.41024 0.01378 0.07323 0.0
O372 O 0.4573 0.11336 0.02001 0.0
O373 O 0.56984 0.11305 0.02754 0.0
O374 O 0.45733 0.9092 0.01671 0.0
O375 O 0.56951 0.9093 1.0124 0.0
O376 O 0.45854 0.01227 0.91748 0.0
O377 O 0.57046 0.02031 0.91877 0.0
O378 O 0.45652 1.00886 0.12081 0.0
O379 O 0.56912 1.0052 0.12119 0.0
O380 O 0.50986 0.11012 0.0798 0.0
O381 O 0.51891 0.11568 0.97077 0.0
O382 O 0.51443 0.90669 0.06906 0.0
O383 O 0.51156 0.91254 0.95966 0.0
O384 O 0.61698 0.95586 0.01758 0.0
O385 O 0.61711 0.06628 0.02144 0.0
O386 O 0.41046 0.95644 0.01919 0.0
O387 O 0.41057 0.06588 0.01874 0.0
C388 C 0.01377 0.41769 0.10815 0.0
C389 C 0.0163 0.42031 0.92783 0.0
C390 C 0.01555 0.60138 0.11047 0.0
C391 C 0.01349 0.60359 0.93062 0.0
C392 C 0.92235 0.60269 0.02326 0.0
C393 C 0.92179 0.41953 0.01399 0.0
C394 C 0.10374 0.60193 0.01779 0.0
C395 C 0.10325 0.41889 0.02441 0.0
C396 C 0.10463 0.50618 0.93066 0.0
C397 C 0.92356 0.51135 0.92838 0.0
C398 C 0.10228 0.5136 0.11014 0.0
C399 C 0.92123 0.51023 0.10827 0.0
Eu400 Eu 0.01258 0.43954 0.01851 0.0
O401 O 0.97998 0.47813 0.98562 0.0
O402 O 0.04556 0.47684 0.05241 0.0
Eu403 Eu 0.94162 0.51111 0.0185 0.0
Eu404 Eu 0.08397 0.51044 0.02031 0.0
O405 O 0.97858 0.47683 0.0519 0.0
O406 O 0.04648 0.47773 0.98645 0.0
Eu407 Eu 0.01192 0.50967 0.08997 0.0
Eu408 Eu 0.0139 0.51157 0.94876 0.0
O409 O 0.97922 0.54363 0.05247 0.0
O410 O 0.97982 0.54478 0.98598 0.0
O411 O 0.04691 0.54442 0.98693 0.0
O412 O 0.04559 0.54328 0.05309 0.0
Eu413 Eu 0.01298 0.58166 0.02018 0.0
O414 O 0.01145 0.40678 0.07271 0.0
O415 O 0.01483 0.40857 0.96316 0.0
O416 O 0.01495 0.61279 0.07509 0.0
O417 O 0.01104 0.61443 0.96609 0.0
O418 O 0.91005 0.56735 0.02018 0.0
O419 O 0.90997 0.4552 0.01456 0.0
O420 O 0.11523 0.56622 0.01628 0.0
O421 O 0.1147 0.45456 0.02613 0.0
O422 O 0.06945 0.50992 0.91845 0.0
O423 O 0.9592 0.51004 0.9169 0.0
O424 O 0.06664 0.51013 0.121 0.0
O425 O 0.95654 0.50909 0.12056 0.0
O426 O 0.06812 0.61335 0.0202 0.0
O427 O 0.95822 0.6133 0.02433 0.0
O428 O 0.0678 0.40756 0.01997 0.0
O429 O 0.95746 0.40819 0.01551 0.0
O430 O 0.01585 0.45622 0.91705 0.0
O431 O 0.01581 0.56808 0.91877 0.0
O432 O 0.01494 0.4532 0.1201 0.0
O433 O 0.01455 0.56551 0.12168 0.0
O434 O 0.91007 0.51113 0.07286 0.0
O435 O 0.91165 0.51311 0.96352 0.0
O436 O 0.1147 0.51524 0.07514 0.0
O437 O 0.11554 0.505 0.96615 0.0
C438 C 0.51708 0.4177 0.108 0.0
C439 C 0.5138 0.59881 0.11161 0.0
C440 C 0.50965 0.42223 0.92582 0.0
C441 C 0.51724 0.6034 0.92894 0.0
C442 C 0.60412 0.51251 0.92637 0.0
C443 C 0.60517 0.51102 0.10947 0.0
C444 C 0.42246 0.51294 0.9283 0.0
C445 C 0.42402 0.51233 0.11068 0.0
C446 C 0.42348 0.60126 0.02496 0.0
C447 C 0.60474 0.60071 0.02441 0.0
C448 C 0.4225 0.42149 0.01405 0.0
C449 C 0.60352 0.42033 1.00991 0.0
Eu450 Eu 0.51468 0.50877 0.08923 0.0
O451 O 0.54721 0.54286 0.05171 0.0
O452 O 0.47985 0.47637 0.05207 0.0
Eu453 Eu 0.58523 0.51061 0.018 0.0
Eu454 Eu 0.44276 0.51125 0.01939 0.0
O455 O 0.54789 0.47617 0.05085 0.0
O456 O 0.48157 0.54291 0.05232 0.0
Eu457 Eu 0.51314 0.43994 0.01734 0.0
Eu458 Eu 0.51393 0.58174 0.01984 0.0
O459 O 0.54647 0.47842 0.98486 0.0
O460 O 0.54728 0.54477 0.98563 0.0
O461 O 0.4799 0.54534 0.98584 0.0
O462 O 0.48047 0.479 0.98542 0.0
Eu463 Eu 0.51344 0.51236 0.94769 0.0
O464 O 0.51493 0.45307 0.11986 0.0
O465 O 0.51677 0.56308 0.12207 0.0
O466 O 0.51312 0.45783 0.91506 0.0
O467 O 0.51439 0.56808 0.91712 0.0
O468 O 0.61581 0.5136 0.96188 0.0
O469 O 0.6166 0.51219 0.07384 0.0
O470 O 0.41112 0.51496 0.96389 0.0
O471 O 0.41149 0.51019 0.07552 0.0
O472 O 0.45876 0.61332 0.02118 0.0
O473 O 0.56906 0.61212 0.02533 0.0
O474 O 0.45771 0.40906 0.01712 0.0
O475 O 0.56777 0.40929 1.01012 0.0
O476 O 0.45804 0.51099 0.91672 0.0
O477 O 0.56833 0.51112 0.91538 0.0
O478 O 0.45999 0.5126 0.12102 0.0
O479 O 0.56963 0.50839 0.12091 0.0
O480 O 0.5112 0.61111 0.07641 0.0
O481 O 0.51782 0.61408 0.96476 0.0
O482 O 0.5171 0.40723 0.07213 0.0
O483 O 0.50823 0.41016 0.96115 0.0
O484 O 0.61604 0.45524 0.0144 0.0
O485 O 0.61665 0.56552 0.02049 0.0
O486 O 0.41139 0.45707 0.01429 0.0
O487 O 0.4121 0.56581 0.02496 0.0
C488 C 0.01313 0.41393 0.604 0.0
C489 C 0.01517 0.42524 0.42453 0.0
C490 C 0.01237 0.59433 0.61455 0.0
C491 C 0.01323 0.60514 0.43493 0.0
C492 C 0.92154 0.59971 0.52488 0.0
C493 C 0.92184 0.42006 0.51428 0.0
C494 C 0.10574 0.60084 0.52574 0.0
C495 C 0.10648 0.41979 0.51638 0.0
C496 C 0.1052 0.51116 0.42814 0.0
C497 C 0.92093 0.51288 0.43088 0.0
C498 C 0.10805 0.50273 0.60807 0.0
C499 C 0.924 0.5096 0.61105 0.0
Eu500 Eu 0.01425 0.43901 0.51551 0.0
O501 O 0.98059 0.47851 0.485 0.0
O502 O 0.0484 0.47497 0.54977 0.0
Eu503 Eu 0.94343 0.50971 0.5206 0.0
Eu504 Eu 0.08595 0.51039 0.51836 0.0
O505 O 0.98124 0.4743 0.55164 0.0
O506 O 0.04724 0.47894 0.48446 0.0
Eu507 Eu 0.01573 0.50536 0.59008 0.0
Eu508 Eu 0.0134 0.51397 0.44907 0.0
O509 O 0.98189 0.54051 0.55481 0.0
O510 O 0.98031 0.54508 0.4887 0.0
O511 O 0.04739 0.54551 0.48769 0.0
O512 O 0.04833 0.54135 0.55415 0.0
Eu513 Eu 0.01389 0.58067 0.5237 0.0
O514 O 0.01206 0.40461 0.56809 0.0
O515 O 0.01708 0.41138 0.45898 0.0
O516 O 0.01026 0.60809 0.58011 0.0
O517 O 0.01271 0.6147 0.47081 0.0
O518 O 0.9111 0.56398 0.5233 0.0
O519 O 0.91136 0.45562 0.51788 0.0
O520 O 0.1175 0.56565 0.52097 0.0
O521 O 0.11796 0.45533 0.51522 0.0
O522 O 0.06913 0.51136 0.41738 0.0
O523 O 0.95664 0.51366 0.41875 0.0
O524 O 0.07236 0.50096 0.62003 0.0
O525 O 0.96001 0.50794 0.62197 0.0
O526 O 0.06976 0.61184 0.52782 0.0
O527 O 0.9573 0.61171 0.52494 0.0
O528 O 0.07063 0.40827 0.51737 0.0
O529 O 0.95762 0.40802 0.51286 0.0
O530 O 0.01236 0.46118 0.41514 0.0
O531 O 0.01439 0.57055 0.42112 0.0
O532 O 0.0151 0.4485 0.61785 0.0
O533 O 0.01655 0.55844 0.62389 0.0
O534 O 0.91224 0.50918 0.57576 0.0
O535 O 0.91047 0.51195 0.46658 0.0
O536 O 0.11869 0.50695 0.57262 0.0
O537 O 0.11729 0.51228 0.46327 0.0
C538 C 0.50737 0.91721 0.60808 0.0
C539 C 0.52074 0.91902 0.42785 0.0
C540 C 0.51349 0.10065 0.61031 0.0
C541 C 0.51801 0.10251 0.4302 0.0
C542 C 0.42237 0.10073 0.5199 0.0
C543 C 0.4243 0.91736 0.51377 0.0
C544 C 0.60363 0.10196 0.52473 0.0
C545 C 0.60528 0.91877 0.52587 0.0
C546 C 0.60818 0.01149 0.43292 0.0
C547 C 0.42683 1.00552 0.42652 0.0
C548 C 0.6008 1.00376 0.61248 0.0
C549 C 0.42025 0.01172 0.60619 0.0
Eu550 Eu 0.51482 0.93861 0.51836 0.0
O551 O 0.4825 0.9768 0.4849 0.0
O552 O 0.54591 0.97656 0.55308 0.0
Eu553 Eu 0.44282 1.00905 0.51701 0.0
Eu554 Eu 0.58498 0.01022 0.52217 0.0
O555 O 0.47967 0.97555 0.55096 0.0
O556 O 0.5493 0.97688 0.48686 0.0
Eu557 Eu 0.51112 1.00907 0.58989 0.0
Eu558 Eu 0.51679 0.01046 0.44861 0.0
O559 O 0.47911 0.04243 0.55143 0.0
O560 O 0.4812 0.04333 0.485 0.0
O561 O 0.54815 0.04354 0.48791 0.0
O562 O 0.54569 0.0431 0.55407 0.0
Eu563 Eu 0.5132 0.08083 0.51993 0.0
O564 O 0.51211 0.90616 0.57286 0.0
O565 O 0.5187 0.90743 0.4632 0.0
O566 O 0.51141 0.112 0.57495 0.0
O567 O 0.51485 0.11341 0.46562 0.0
O568 O 0.41076 0.06501 0.51886 0.0
O569 O 0.41175 0.95268 0.51633 0.0
O570 O 0.61533 0.06631 0.52425 0.0
O571 O 0.61651 0.95456 0.52644 0.0
O572 O 0.57321 0.01026 0.41973 0.0
O573 O 0.4626 1.00826 0.41562 0.0
O574 O 0.56473 1.0026 0.62242 0.0
O575 O 0.45528 0.01352 0.61907 0.0
O576 O 0.56789 0.11324 0.52344 0.0
O577 O 0.45799 0.11215 0.51997 0.0
O578 O 0.56995 0.90703 0.52195 0.0
O579 O 0.46024 0.90684 0.51315 0.0
O580 O 0.52022 0.95492 0.41694 0.0
O581 O 0.51963 0.06691 0.41846 0.0
O582 O 0.5052 0.95279 0.61971 0.0
O583 O 0.51499 0.06481 0.6215 0.0
O584 O 0.41 1.00833 0.57067 0.0
O585 O 0.41409 1.00608 0.46143 0.0
O586 O 0.61409 1.00868 0.57807 0.0
O587 O 0.61843 0.01186 0.46864 0.0
C588 C 0.18897 0.16164 0.50079 0.0
C589 C 0.18239 0.19329 0.52319 0.0
C590 C 0.16481 0.13074 0.5023 0.0
C591 C 0.13334 0.13096 0.52598 0.0
H592 H 0.21213 0.16129 0.48115 0.0
H593 H 0.1698 0.10735 0.48373 0.0
S594 S 0.1069 0.20472 0.59378 0.0
N595 N 0.14486 0.22099 0.57282 0.0
N596 N 0.09867 0.16359 0.57452 0.0
C597 C 0.12747 0.16166 0.54962 0.0
C598 C 0.15224 0.19271 0.54852 0.0
C599 C 0.83127 0.14828 0.50426 0.0
C600 C 0.83199 0.17885 0.5289 0.0
C601 C 0.86185 0.12414 0.50123 0.0
C602 C 0.89451 0.13002 0.52226 0.0
H603 H 0.80669 0.14276 0.48731 0.0
H604 H 0.85977 0.10051 0.48242 0.0
S605 S 0.91142 0.20669 0.58974 0.0
N606 N 0.86834 0.21423 0.57423 0.0
N607 N 0.92667 0.16901 0.56771 0.0
C608 C 0.89637 0.16119 0.54602 0.0
C609 C 0.86487 0.18564 0.54952 0.0
C610 C 0.8293 0.87648 0.5063 0.0
C611 C 0.83144 0.84415 0.52851 0.0
C612 C 0.85964 0.90087 0.50346 0.0
C613 C 0.89364 0.89331 0.52181 0.0
H614 H 0.80381 0.88325 0.49119 0.0
H615 H 0.85628 0.92605 0.48701 0.0
S616 S 0.91406 0.8124 0.58328 0.0
N617 N 0.87018 0.80595 0.56963 0.0
N618 N 0.92819 0.85133 0.56274 0.0
C619 C 0.89677 0.86057 0.54323 0.0
C620 C 0.86543 0.83602 0.54689 0.0
C621 C 0.15251 0.83085 0.54166 0.0
C622 C 0.18156 0.82791 0.5152 0.0
C623 C 0.12859 0.86168 0.54201 0.0
C624 C 0.13315 0.89085 0.5163 0.0
H625 H 0.14805 0.80901 0.56217 0.0
H626 H 0.10623 0.8627 0.5625 0.0
S627 S 0.20541 0.8977 0.44226 0.0
N628 N 0.21406 0.85726 0.46301 0.0
N629 N 0.16912 0.91612 0.46451 0.0
C630 C 0.16279 0.88923 0.49057 0.0
C631 C 0.18705 0.85747 0.48983 0.0
C632 C 0.52452 0.18169 0.17365 0.0
C633 C 0.50268 0.17397 0.20553 0.0
C634 C 0.52552 0.15687 0.14363 0.0
C635 C 0.50551 0.1231 0.14493 0.0
H636 H 0.5421 0.20641 0.17234 0.0
H637 H 0.54325 0.16345 0.11993 0.0
S638 S 0.44125 0.09122 0.21996 0.0
N639 N 0.45736 0.13196 0.2346 0.0
N640 N 0.46167 0.08386 0.17928 0.0
C641 C 0.48289 0.11534 0.17607 0.0
C642 C 0.48085 0.14115 0.20611 0.0
C643 C 0.83187 0.53818 0.1563 0.0
C644 C 0.82993 0.51289 0.18628 0.0
C645 C 0.86195 0.53733 0.13142 0.0
C646 C 0.89142 0.51168 0.13615 0.0
H647 H 0.80973 0.55856 0.15177 0.0
H648 H 0.86215 0.55687 0.10829 0.0
S649 S 0.90025 0.43978 0.20999 0.0
N650 N 0.86008 0.46122 0.21913 0.0
N651 N 0.9177 0.46081 0.17279 0.0
C652 C 0.89065 0.48699 0.1665 0.0
C653 C 0.85961 0.48733 0.19156 0.0
C654 C 0.49023 0.82747 0.15469 0.0
C655 C 0.51867 0.82469 0.18174 0.0
C656 C 0.4891 0.85769 0.13006 0.0
C657 C 0.51614 0.88609 0.13191 0.0
H658 H 0.46867 0.80616 0.1526 0.0
H659 H 0.46677 0.85912 0.10969 0.0
S660 S 0.59724 0.89123 0.19626 0.0
N661 N 0.57524 0.85229 0.2081 0.0
N662 N 0.5725 0.9097 0.1619 0.0
C663 C 0.54452 0.884 0.15889 0.0
C664 C 0.54593 0.85306 0.18383 0.0
C665 C 0.1482 0.49506 0.20217 0.0
C666 C 0.17855 0.52026 0.20245 0.0
C667 C 0.12408 0.49299 0.17183 0.0
C668 C 0.12996 0.51517 0.14016 0.0
H669 H 0.14293 0.47669 0.22564 0.0
H670 H 0.10052 0.47386 0.17328 0.0
S671 S 0.20501 0.58577 0.12652 0.0
N672 N 0.21288 0.56847 0.16852 0.0
N673 N 0.16793 0.56322 0.11034 0.0
C674 C 0.16059 0.53992 0.1394 0.0
C675 C 0.18487 0.5427 0.17083 0.0
C676 C 0.53468 0.88121 0.83239 0.0
C677 C 0.51198 0.84904 0.83329 0.0
C678 C 0.53545 0.90591 0.86247 0.0
C679 C 0.51387 0.89901 0.89454 0.0
H680 H 0.55206 0.88726 0.80831 0.0
H681 H 0.55329 0.93044 0.86069 0.0
S682 S 0.44842 0.81974 0.90997 0.0
N683 N 0.46628 0.81231 0.86811 0.0
N684 N 0.46839 0.8585 0.92523 0.0
C685 C 0.49116 0.8669 0.89593 0.0
C686 C 0.49007 0.84193 0.86512 0.0
C687 C 0.19606 0.47837 0.88561 0.0
C688 C 0.19597 0.49926 0.85241 0.0
C689 C 0.16593 0.48027 0.91043 0.0
C690 C 0.13444 0.50271 0.90263 0.0
H691 H 0.21993 0.46089 0.89278 0.0
H692 H 0.16743 0.46424 0.93603 0.0
S693 S 0.1198 0.56191 0.819 0.0
N694 N 0.16164 0.54278 0.81277 0.0
N695 N 0.10412 0.54518 0.859 0.0
C696 C 0.13321 0.52254 0.86888 0.0
C697 C 0.16422 0.5211 0.84381 0.0
C698 C 0.49722 0.16691 0.85164 0.0
C699 C 0.52059 0.19799 0.85788 0.0
C700 C 0.49709 0.13666 0.87629 0.0
C701 C 0.52002 0.13685 0.90806 0.0
H702 H 0.47821 0.16642 0.82808 0.0
H703 H 0.47806 0.11357 0.87109 0.0
S704 S 0.58963 0.20934 0.93441 0.0
N705 N 0.56978 0.2256 0.89606 0.0
N706 N 0.56901 0.16882 0.94295 0.0
C707 C 0.54445 0.16711 0.91398 0.0
C708 C 0.54484 0.19774 0.88873 0.0
C709 C 0.83154 0.53048 0.88131 0.0
C710 C 0.83182 0.50526 0.85126 0.0
C711 C 0.86199 0.53292 0.90547 0.0
C712 C 0.89404 0.51066 0.90011 0.0
H713 H 0.80745 0.54843 0.88633 0.0
H714 H 0.86032 0.55223 0.92869 0.0
S715 S 0.90936 0.44082 0.82531 0.0
N716 N 0.86692 0.45785 0.81711 0.0
N717 N 0.92501 0.46311 0.8625 0.0
C718 C 0.89539 0.48613 0.86959 0.0
C719 C 0.86404 0.48329 0.8451 0.0
C720 C 0.65043 0.69161 0.05175 0.0
C721 C 0.68297 0.6922 0.0295 0.0
C722 C 0.62585 0.6612 0.05077 0.0
C723 C 0.63324 0.63015 0.0279 0.0
H724 H 0.64345 0.71523 0.06938 0.0
H725 H 0.60055 0.66227 0.06765 0.0
S726 S 0.71537 0.61714 0.96554 0.0
N727 N 0.72171 0.65876 0.98444 0.0
N728 N 0.67604 0.60083 0.98387 0.0
C729 C 0.66655 0.62948 1.00692 0.0
C730 C 0.69133 0.66074 1.00741 0.0
C731 C 0.3618 0.68492 1.00682 0.0
C732 C 0.3311 0.67801 0.03064 0.0
C733 C 0.39287 0.66089 1.00634 0.0
C734 C 0.3938 0.62921 0.02943 0.0
H735 H 0.3611 0.70815 0.9874 0.0
H736 H 0.41534 0.66608 0.98657 0.0
S737 S 0.32354 0.60233 0.10104 0.0
N738 N 0.30576 0.6401 0.08111 0.0
N739 N 0.36394 0.59444 0.07969 0.0
C740 C 0.36436 0.62322 0.05485 0.0
C741 C 0.33298 0.64778 0.05557 0.0
C742 C 0.36115 0.33798 0.03324 0.0
C743 C 0.33027 0.34476 1.00972 0.0
C744 C 0.39207 0.36212 0.03337 0.0
C745 C 0.39265 0.39374 1.0102 0.0
H746 H 0.36075 0.31473 0.05264 0.0
H747 H 0.41476 0.35699 0.05285 0.0
S748 S 0.32171 0.42025 0.93928 0.0
N749 N 0.30422 0.38254 0.95957 0.0
N750 N 0.36226 0.42831 0.96016 0.0
C751 C 0.36298 0.39964 0.98511 0.0
C752 C 0.3317 0.37501 0.9848 0.0
C753 C 0.68865 0.35954 0.02496 0.0
C754 C 0.68105 0.32873 1.00175 0.0
C755 C 0.66424 0.39021 0.02624 0.0
C756 C 0.63142 0.39068 1.00462 0.0
H757 H 0.71272 0.3592 0.04345 0.0
H758 H 0.67013 0.41275 0.04554 0.0
S759 S 0.60194 0.31974 0.93516 0.0
N760 N 0.64094 0.30262 0.95347 0.0
N761 N 0.59457 0.3601 0.95636 0.0
C762 C 0.62458 0.36107 0.97981 0.0
C763 C 0.64955 0.33006 0.97827 0.0
C764 C 0.02787 0.63927 0.70797 0.0
C765 C 1.00401 0.6707 0.70673 0.0
C766 C 0.03035 0.61471 0.67792 0.0
C767 C 0.00952 0.62104 0.64536 0.0
H768 H 0.0453 0.6339 0.73214 0.0
H769 H 0.04919 0.59092 0.68 0.0
S770 S 0.94146 0.698 0.62868 0.0
N771 N 0.95784 0.7059 0.67099 0.0
N772 N 0.96323 0.65996 0.61381 0.0
C773 C 0.98543 0.65221 0.64364 0.0
C774 C 0.98253 0.67703 0.67452 0.0
C775 C 0.32785 0.99219 0.65271 0.0
C776 C 0.32824 0.01654 0.68349 0.0
C777 C 0.35796 0.99079 0.62797 0.0
C778 C 0.38981 0.01317 0.63352 0.0
H779 H 0.3041 0.97386 0.64777 0.0
H780 H 0.35642 0.97179 0.6045 0.0
S781 S 0.40492 0.08167 0.70955 0.0
N782 N 0.36286 0.06391 0.71795 0.0
N783 N 0.42043 0.06039 0.67167 0.0
C784 C 0.39106 0.0372 0.66443 0.0
C785 C 0.36001 0.03907 0.68944 0.0
C786 C 0.03939 0.35139 0.68453 0.0
C787 C 0.01403 0.32143 0.6806 0.0
C788 C 0.03842 0.38185 0.66001 0.0
C789 C 0.01238 0.38296 0.6307 0.0
H790 H 0.06049 0.35098 0.70628 0.0
H791 H 0.05875 0.40415 0.66342 0.0
S792 S 0.93768 0.31361 0.61095 0.0
N793 N 0.96027 0.29633 0.64721 0.0
N794 N 0.95922 0.35319 0.60046 0.0
C795 C 0.98647 0.35366 0.62693 0.0
C796 C 0.98712 0.32294 0.65208 0.0
C797 C 0.68518 0.0223 0.67284 0.0
C798 C 0.67829 0.99938 0.70401 0.0
C799 C 0.66066 0.02249 0.64248 0.0
C800 C 0.62828 1.00009 0.64261 0.0
H801 H 0.70888 0.04136 0.67252 0.0
H802 H 0.6662 0.04147 0.61956 0.0
S803 S 0.60058 0.93106 0.71482 0.0
N804 N 0.63924 0.9506 0.73125 0.0
N805 N 0.59255 0.95149 0.6743 0.0
C806 C 0.622 0.9757 0.67269 0.0
C807 C 0.64717 0.97522 0.70343 0.0
C808 C 0.99364 0.37945 0.33273 0.0
C809 C 0.01933 0.34954 0.33181 0.0
C810 C 0.99241 0.40379 0.36309 0.0
C811 C 0.01642 0.39865 0.39366 0.0
H812 H 0.97415 0.38388 0.30997 0.0
H813 H 0.97224 0.42656 0.36281 0.0
S814 S 0.09077 0.32667 0.4037 0.0
N815 N 0.0711 0.31766 0.36301 0.0
N816 N 0.06777 0.363 0.4208 0.0
C817 C 0.04238 0.3691 0.39315 0.0
C818 C 0.04409 0.34461 0.36199 0.0
C819 C 0.67418 0.98003 0.35721 0.0
C820 C 0.70024 1.00957 0.35593 0.0
C821 C 0.6437 0.98118 0.38186 0.0
C822 C 0.63849 0.01196 0.40553 0.0
H823 H 0.67798 0.95555 0.33979 0.0
H824 H 0.62479 0.95748 0.38322 0.0
S825 S 0.69589 0.09824 0.40895 0.0
N826 N 0.71729 0.0715 0.37794 0.0
N827 N 0.65926 0.07394 0.42376 0.0
C828 C 0.66341 0.04221 0.4034 0.0
C829 C 0.69456 0.04095 0.37862 0.0
C830 C 0.03943 0.66806 0.35485 0.0
C831 C 0.01287 0.69711 0.35808 0.0
C832 C 0.03891 0.63767 0.37944 0.0
C833 C 0.01216 0.63586 0.40815 0.0
H834 H 0.06117 0.66922 0.33369 0.0
H835 H 0.06013 0.61604 0.37665 0.0
S836 S 0.93397 0.70215 0.42552 0.0
N837 N 0.95693 0.72015 0.38978 0.0
N838 N 0.95687 0.66353 0.43683 0.0
C839 C 0.98491 0.66406 0.41107 0.0
C840 C 0.98504 0.69462 0.38577 0.0
C841 C 0.36605 0.02466 0.3429 0.0
C842 C 0.33625 0.99928 0.34833 0.0
C843 C 0.39677 0.02529 0.36724 0.0
C844 C 0.39816 1.00085 0.39779 0.0
H845 H 0.36472 0.04539 0.32088 0.0
H846 H 0.41839 0.0463 0.36336 0.0
S847 S 0.33077 0.92506 0.42047 0.0
N848 N 0.31277 0.94584 0.38341 0.0
N849 N 0.37005 0.94779 0.4298 0.0
C850 C 0.36988 0.97384 0.40214 0.0
C851 C 0.33896 0.97286 0.37719 0.0
C852 C 0.01739 0.15341 0.33547 0.0
C853 C 0.04009 0.18497 0.34166 0.0
C854 C 0.0097 0.12782 0.36447 0.0
C855 C 0.02364 0.13332 0.40093 0.0
H856 H 0.00668 0.1477 0.30782 0.0
H857 H 0.99307 0.10325 0.35812 0.0
S858 S 0.08231 0.21336 0.43194 0.0
N859 N 0.07505 0.22127 0.38718 0.0
N860 N 0.05995 0.17401 0.44151 0.0
C861 C 0.04503 0.16573 0.40765 0.0
C862 C 0.05344 0.19127 0.37806 0.0
C863 C 0.86082 0.03308 0.3454 0.0
C864 C 0.83796 1.00103 0.34293 0.0
C865 C 0.8898 0.03544 0.3721 0.0
C866 C 0.89613 1.00621 0.39771 0.0
H867 H 0.85492 0.0572 0.32804 0.0
H868 H 0.9062 0.06092 0.37385 0.0
S869 S 0.84692 0.91492 0.40003 0.0
N870 N 0.82586 0.93837 0.36627 0.0
N871 N 0.87989 0.943 0.41638 0.0
C872 C 0.87478 0.97343 0.39422 0.0
C873 C 0.84579 0.97081 0.36685 0.0
C874 C 0.03531 0.86132 0.34176 0.0
C875 C 0.0065 0.83432 0.34278 0.0
C876 C 0.03624 0.89096 0.36779 0.0
C877 C 0.00884 0.89408 0.39606 0.0
H878 H 0.05849 0.85817 0.32239 0.0
H879 H 0.05966 0.91024 0.36713 0.0
S880 S 0.92495 0.83381 0.40767 0.0
N881 N 0.94754 0.81556 0.37175 0.0
N882 N 0.95024 0.87012 0.42107 0.0
C883 C 0.97885 0.86867 0.39593 0.0
C884 C 0.97739 0.83919 0.36912 0.0
C885 C 0.19834 0.03804 0.37938 0.0
C886 C 0.19777 0.01606 0.34669 0.0
C887 C 0.16861 0.03745 0.4051 0.0
C888 C 0.1364 0.01563 0.39893 0.0
H889 H 0.22272 0.05499 0.38588 0.0
H890 H 0.17108 0.05404 0.43024 0.0
S891 S 0.11913 0.95508 0.31667 0.0
N892 N 0.16131 0.97289 0.30903 0.0
N893 N 0.10456 0.9731 0.35656 0.0
C894 C 0.13431 0.99518 0.36539 0.0
C895 C 0.16509 0.99518 0.33943 0.0
C896 C 0.02082 0.86977 0.70358 0.0
C897 C 0.035 0.83406 0.69516 0.0
C898 C 0.0142 0.89629 0.67518 0.0
C899 C 0.02081 0.88788 0.63718 0.0
H900 H 0.01624 0.87778 0.73233 0.0
H901 H 1.00439 0.92384 0.68324 0.0
S902 S 0.05366 0.79605 0.60071 0.0
N903 N 0.05291 0.79051 0.64637 0.0
N904 N 0.03927 0.83934 0.59313 0.0
C905 C 0.03299 0.85131 0.62853 0.0
C906 C 0.04045 0.82475 0.65746 0.0
C907 C 0.16223 0.02914 0.69766 0.0
C908 C 0.192 1.00333 0.69513 0.0
C909 C 0.13326 0.02956 0.67083 0.0
C910 C 0.13378 1.00483 0.6402 0.0
H911 H 0.16249 0.05045 0.71912 0.0
H912 H 0.11139 0.0506 0.67302 0.0
S913 S 0.20283 0.9289 0.62366 0.0
N914 N 0.21776 0.94974 0.66195 0.0
N915 N 0.16435 0.95156 0.61114 0.0
C916 C 0.16223 0.9777 0.63858 0.0
C917 C 0.191 0.97663 0.66621 0.0
C918 C 0.04936 0.17078 0.68213 0.0
C919 C 0.01597 0.18437 0.69843 0.0
C920 C 0.0486 0.14226 0.65512 0.0
C921 C 0.0144 0.12677 0.64307 0.0
H922 H 0.07603 0.18378 0.68876 0.0
H923 H 0.07483 0.13304 0.64277 0.0
S924 S 0.91948 0.15083 0.67832 0.0
N925 N 0.94798 0.17892 0.70153 0.0
N926 N 0.94666 0.12513 0.65103 0.0
C927 C 0.98105 0.13879 0.66028 0.0
C928 C 0.9818 0.16773 0.68783 0.0
C929 C 0.87482 0.9672 0.69506 0.0
C930 C 0.84861 0.9949 0.70525 0.0
C931 C 0.89831 0.97152 0.66392 0.0
C932 C 0.89583 1.00322 0.6408 0.0
H933 H 0.87743 0.94191 0.71157 0.0
H934 H 0.91865 0.94973 0.65779 0.0
S935 S 0.83136 0.08371 0.65414 0.0
N936 N 0.82139 0.05538 0.68925 0.0
N937 N 0.86503 0.06291 0.62997 0.0
C938 C 0.86944 0.03103 0.65013 0.0
C939 C 0.84596 0.02704 0.68254 0.0
C940 C 0.3413 0.99855 0.17878 0.0
C941 C 0.32942 0.03565 0.18548 0.0
C942 C 0.37179 0.99083 0.15468 0.0
C943 C 0.39111 0.01992 0.13642 0.0
H944 H 0.3274 0.97543 0.19263 0.0
H945 H 0.38004 0.962 0.15001 0.0
S946 S 0.37044 0.12135 0.14335 0.0
N947 N 0.33945 0.10145 0.17139 0.0
N948 N 0.3955 0.08675 0.12552 0.0
C949 C 0.37912 0.05684 0.14242 0.0
C950 C 0.34866 0.06474 0.16717 0.0
C951 C 0.98909 0.33746 0.17385 0.0
C952 C 0.02215 0.33351 0.19508 0.0
C953 C 0.98679 0.36395 0.14474 0.0
C954 C 0.01724 0.38775 0.13651 0.0
H955 H 0.96423 0.32157 0.18121 0.0
H956 H 0.96053 0.36702 0.12976 0.0
S957 S 0.11102 0.38603 0.18122 0.0
N958 N 0.08672 0.35374 0.20378 0.0
N959 N 0.08227 0.40332 0.14942 0.0
C960 C 0.05088 0.38276 0.15623 0.0
C961 C 0.05337 0.35568 0.18542 0.0
C962 C 0.70182 0.99048 0.15556 0.0
C963 C 0.69277 0.98265 0.1928 0.0
C964 C 0.6735 0.99868 0.12932 0.0
C965 C 0.63498 0.99995 0.13949 0.0
H966 H 0.7308 0.98867 0.14623 0.0
H967 H 0.68192 1.00315 0.10071 0.0
S968 S 0.59772 0.98637 0.23544 0.0
N969 N 0.6434 0.97917 0.2394 0.0
N970 N 0.59049 0.99621 0.1911 0.0
C971 C 0.62612 0.99418 0.17736 0.0
C972 C 0.65484 0.98505 0.20374 0.0
C973 C 0.04994 0.65253 0.19705 0.0
C974 C 0.03674 0.68943 0.19207 0.0
C975 C 0.0415 0.62393 0.17151 0.0
C976 C 0.02021 0.63117 0.13931 0.0
H977 H 0.06728 0.64569 0.22091 0.0
H978 H 0.05301 0.59625 0.17639 0.0
S979 S 0.97814 0.72296 0.11354 0.0
N980 N 1.00014 0.73138 0.15318 0.0
N981 N 0.98523 0.67818 0.10439 0.0
C982 C 0.0064 0.66795 0.13419 0.0
C983 C 0.01436 0.6969 0.16076 0.0
C984 C 0.37196 0.97448 0.84298 0.0
C985 C 0.33495 0.98797 0.84732 0.0
C986 C 0.40046 0.98357 0.86843 0.0
C987 C 0.39301 1.0059 0.89981 0.0
H988 H 0.37895 0.95643 0.81975 0.0
H989 H 0.42824 0.97173 0.86419 0.0
S990 S 0.30117 0.04971 0.92332 0.0
N991 N 0.29277 0.02627 0.88453 0.0
N992 N 0.34603 0.04261 0.93306 0.0
C993 C 0.35623 0.0202 0.9042 0.0
C994 C 0.32732 0.01147 0.87776 0.0
C995 C 0.01658 0.32489 0.879 0.0
C996 C 0.03619 0.33227 0.84579 0.0
C997 C 0.0094 0.35365 0.90504 0.0
C998 C 0.02087 0.39098 0.89843 0.0
H999 H 0.00805 0.29653 0.88561 0.0
H1000 H 0.99519 0.34645 0.93076 0.0
S1001 S 0.07028 0.42506 0.81364 0.0
N1002 N 0.06503 0.3797 0.80658 0.0
N1003 N 0.051 0.43356 0.85463 0.0
C1004 C 0.03892 0.39877 0.86435 0.0
C1005 C 0.04676 0.36949 0.83831 0.0
C1006 C 0.69327 1.00024 0.86995 0.0
C1007 C 0.68788 0.02462 0.83955 0.0
C1008 C 0.6678 0.99966 0.9002 0.0
C1009 C 0.63577 0.023 0.90072 0.0
H1010 H 0.71592 0.97994 0.8693 0.0
H1011 H 0.67206 0.97936 0.92224 0.0
S1012 S 0.61247 0.09615 0.83106 0.0
N1013 N 0.65088 0.07606 0.8145 0.0
N1014 N 0.60292 0.07433 0.87053 0.0
C1015 C 0.6316 0.04915 0.87175 0.0
C1016 C 0.65768 0.05015 0.84144 0.0
C1017 C 0.04154 0.6573 0.84389 0.0
C1018 C 0.01488 0.68654 0.84202 0.0
C1019 C 0.0412 0.63114 0.87299 0.0
C1020 C 0.01473 0.63348 0.90191 0.0
H1021 H 0.06151 0.65335 0.82138 0.0
H1022 H 0.06142 0.60848 0.87248 0.0
S1023 S 0.94062 0.706 0.91192 0.0
N1024 N 0.96228 0.71713 0.87264 0.0
N1025 N 0.9626 0.66869 0.92838 0.0
C1026 C 0.98941 0.66386 0.90181 0.0
C1027 C 0.98931 0.69026 0.87166 0.0
C1028 C 0.16325 0.3327 1.00404 0.0
C1029 C 0.19281 0.33622 0.02985 0.0
C1030 C 0.13336 0.35869 1.00335 0.0
C1031 C 0.13244 0.38938 0.028 0.0
H1032 H 0.16441 0.31116 0.98283 0.0
H1033 H 0.11193 0.35587 0.9821 0.0
S1034 S 0.1995 0.40758 0.10481 0.0
N1035 N 0.21632 0.36991 0.08391 0.0
N1036 N 0.16103 0.41908 0.08173 0.0
C1037 C 0.16044 0.39175 0.05539 0.0
C1038 C 0.19032 0.36504 0.05659 0.0
C1039 C 0.19179 0.65462 0.98949 0.0
C1040 C 0.19302 0.68494 0.01469 0.0
C1041 C 0.16269 0.62819 0.99049 0.0
C1042 C 0.13298 0.63146 0.01605 0.0
H1043 H 0.21463 0.65026 0.96993 0.0
H1044 H 0.16371 0.60474 0.97136 0.0
S1045 S 0.12104 0.7066 0.08641 0.0
N1046 N 0.16091 0.71718 0.06515 0.0
N1047 N 0.10518 0.66838 0.06587 0.0
C1048 C 0.13248 0.66274 0.03993 0.0
C1049 C 0.16264 0.68934 0.03944 0.0
C1050 C 0.36667 0.18602 0.98424 0.0
C1051 C 0.33019 0.17998 0.99842 0.0
C1052 C 0.39658 0.16176 0.99279 0.0
C1053 C 0.39097 0.12986 0.01505 0.0
H1054 H 0.37205 0.20956 0.96595 0.0
H1055 H 0.42389 0.16714 0.98043 0.0
S1056 S 0.30102 0.10211 0.06015 0.0
N1057 N 0.29051 0.14091 0.0373 0.0
N1058 N 0.34612 0.09426 0.05219 0.0
C1059 C 0.3547 0.12391 0.03004 0.0
C1060 C 0.32448 0.14925 0.02207 0.0
C1061 C 0.85666 0.33591 0.02794 0.0
C1062 C 0.84825 0.32546 0.99099 0.0
C1063 C 0.87942 0.36737 0.0356 0.0
C1064 C 0.89397 0.38968 1.00661 0.0
H1065 H 0.84583 0.31964 0.05106 0.0
H1066 H 0.88611 0.37399 0.06429 0.0
S1067 S 0.88134 0.37403 0.90545 0.0
N1068 N 0.85714 0.33997 0.92532 0.0
N1069 N 0.89933 0.39876 0.93993 0.0
C1070 C 0.88573 0.37962 0.96979 0.0
C1071 C 0.86296 0.34766 0.96195 0.0
C1072 C 0.65566 0.83048 0.98764 0.0
C1073 C 0.68739 0.82989 1.01125 0.0
C1074 C 0.62978 0.86014 0.98835 0.0
C1075 C 0.63485 0.89097 1.01208 0.0
H1076 H 0.64991 0.80695 0.9695 0.0
H1077 H 0.60526 0.85862 0.9705 0.0
S1078 S 0.71413 0.90462 0.07785 0.0
N1079 N 0.72293 0.86372 0.05816 0.0
N1080 N 0.67498 0.92019 0.05848 0.0
C1081 C 0.66749 0.89192 0.03431 0.0
C1082 C 0.69362 0.8613 0.03404 0.0
C1083 C 0.87453 0.68607 0.06763 0.0
C1084 C 0.84961 0.69885 0.03999 0.0
C1085 C 0.89695 0.65423 0.06215 0.0
C1086 C 0.89482 0.63325 0.02913 0.0
H1087 H 0.87705 0.7011 0.09373 0.0
H1088 H 0.91629 0.64596 0.08397 0.0
S1089 S 0.83303 0.65324 0.9485 0.0
N1090 N 0.82344 0.68714 0.97841 0.0
N1091 N 0.86538 0.62678 0.96854 0.0
C1092 C 0.86953 0.64502 1.00145 0.0
C1093 C 0.847 0.67799 1.00674 0.0
C1094 C 0.32351 0.87665 0.02173 0.0
C1095 C 0.33029 0.84182 0.03853 0.0
C1096 C 0.35331 0.90146 0.01395 0.0
C1097 C 0.39112 0.89195 0.02186 0.0
H1098 H 0.29489 0.88556 0.01624 0.0
H1099 H 0.34651 0.92865 1.00243 0.0
S1100 S 0.42365 0.80144 0.06153 0.0
N1101 N 0.37739 0.79787 0.06065 0.0
N1102 N 0.43333 0.84309 0.04401 0.0
C1103 C 0.3982 0.85599 0.03634 0.0
C1104 C 0.36783 0.83134 0.04529 0.0
C1105 C 0.65729 0.19172 0.04874 0.0
C1106 C 0.68802 0.19199 0.02377 0.0
C1107 C 0.63129 0.16218 0.04938 0.0
C1108 C 0.63528 0.13116 0.02567 0.0
H1109 H 0.65231 0.21548 0.06684 0.0
H1110 H 0.60751 0.16397 0.06824 0.0
S1111 S 0.71134 0.11704 0.95611 0.0
N1112 N 0.72122 0.1579 0.97529 0.0
N1113 N 0.67312 0.10169 0.97741 0.0
C1114 C 0.66687 0.13001 1.0019 0.0
C1115 C 0.6931 0.16049 1.00083 0.0
C1116 C 0.51319 0.65391 0.83475 0.0
C1117 C 0.5375 0.68447 0.83997 0.0
C1118 C 0.50612 0.62822 0.86386 0.0
C1119 C 0.52227 0.63267 0.89955 0.0
H1120 H 0.50057 0.6491 0.80774 0.0
H1121 H 0.48807 0.60447 0.85824 0.0
S1122 S 0.58642 0.70942 0.92793 0.0
N1123 N 0.57684 0.71837 0.8838 0.0
N1124 N 0.56285 0.67101 0.93833 0.0
C1125 C 0.54554 0.66395 0.90532 0.0
C1126 C 0.55333 0.68954 0.87559 0.0
C1127 C 0.33622 0.54016 0.87219 0.0
C1128 C 0.33409 0.51203 0.84461 0.0
C1129 C 0.36489 0.54034 0.89904 0.0
C1130 C 0.3932 0.51296 0.8989 0.0
H1131 H 0.31436 0.56123 0.87413 0.0
H1132 H 0.36468 0.56187 0.9203 0.0
S1133 S 0.40179 0.43391 0.83247 0.0
N1134 N 0.36348 0.45632 0.81886 0.0
N1135 N 0.41838 0.45768 0.86833 0.0
C1136 C 0.39266 0.48575 0.87053 0.0
C1137 C 0.36296 0.48512 0.84354 0.0
C1138 C 0.53319 0.36072 0.84208 0.0
C1139 C 0.50378 0.33436 0.84226 0.0
C1140 C 0.53426 0.39008 0.86834 0.0
C1141 C 0.50633 0.39368 0.89599 0.0
H1142 H 0.55674 0.35718 0.82322 0.0
H1143 H 0.55817 0.40875 0.86839 0.0
S1144 S 0.42112 0.33494 0.90566 0.0
N1145 N 0.44416 0.31628 0.8702 0.0
N1146 N 0.44674 0.37079 0.91968 0.0
C1147 C 0.47584 0.36886 0.89514 0.0
C1148 C 0.47438 0.33947 0.86819 0.0
C1149 C 0.69496 0.53625 0.87615 0.0
C1150 C 0.69432 0.51342 0.84404 0.0
C1151 C 0.66555 0.53597 0.90212 0.0
C1152 C 0.63349 0.51381 0.89677 0.0
H1153 H 0.71937 0.55336 0.88218 0.0
H1154 H 0.66817 0.55295 0.92688 0.0
S1155 S 0.61559 0.45193 0.81561 0.0
N1156 N 0.65773 0.46961 0.80734 0.0
N1157 N 0.60129 0.47061 0.85531 0.0
C1158 C 0.63109 0.49282 0.86355 0.0
C1159 C 0.66167 0.49238 0.83734 0.0
C1160 C 0.51736 0.36884 0.20328 0.0
C1161 C 0.5364 0.33513 0.19601 0.0
C1162 C 0.51046 0.39499 0.17456 0.0
C1163 C 0.52163 0.38812 0.13731 0.0
H1164 H 0.50892 0.37565 0.23148 0.0
H1165 H 0.49663 0.42104 0.18175 0.0
S1166 S 0.56996 0.30226 0.10359 0.0
N1167 N 0.56469 0.29533 0.14878 0.0
N1168 N 0.5512 0.34367 0.09504 0.0
C1169 C 0.53933 0.35366 0.12966 0.0
C1170 C 0.54687 0.32747 0.15893 0.0
C1171 C 0.66447 0.49188 0.19616 0.0
C1172 C 0.69169 0.52043 0.19457 0.0
C1173 C 0.63581 0.48942 0.16907 0.0
C1174 C 0.63407 0.51485 0.13902 0.0
H1175 H 0.66661 0.47014 0.21712 0.0
H1176 H 0.61594 0.4665 0.17066 0.0
S1177 S 0.6949 0.59784 0.12536 0.0
N1178 N 0.71181 0.57738 0.1631 0.0
N1179 N 0.65913 0.57176 0.11182 0.0
C1180 C 0.65967 0.54464 0.13841 0.0
C1181 C 0.68809 0.54772 0.16631 0.0
C1182 C 0.48327 0.68376 0.16732 0.0
C1183 C 0.51142 0.68725 0.19484 0.0
C1184 C 0.48396 0.65475 0.14101 0.0
C1185 C 0.51227 0.62735 0.14161 0.0
H1186 H 0.46163 0.705 0.16478 0.0
H1187 H 0.46254 0.65417 0.11956 0.0
S1188 S 0.59093 0.62152 0.20914 0.0
N1189 N 0.56756 0.65951 0.22179 0.0
N1190 N 0.56785 0.60386 0.1733 0.0
C1191 C 0.53919 0.62887 0.17033 0.0
C1192 C 0.53894 0.65899 0.19679 0.0
C1193 C 0.37881 0.55339 0.19709 0.0
C1194 C 0.34923 0.52861 0.20519 0.0
C1195 C 0.40241 0.54782 0.16626 0.0
C1196 C 0.39664 0.51796 0.1414 0.0
H1197 H 0.38394 0.57727 0.21497 0.0
H1198 H 0.42528 0.56734 0.16163 0.0
S1199 S 0.32181 0.44618 0.14845 0.0
N1200 N 0.31492 0.47325 0.18519 0.0
N1201 N 0.3585 0.46378 0.12619 0.0
C1202 C 0.36663 0.49339 0.14846 0.0
C1203 C 0.34314 0.49842 0.18066 0.0
C1204 C 0.82825 0.51023 0.65972 0.0
C1205 C 0.8347 0.53302 0.69096 0.0
C1206 C 0.8575 0.50187 0.63446 0.0
C1207 C 0.89448 0.51516 0.64009 0.0
H1208 H 0.8002 0.49989 0.65403 0.0
H1209 H 0.851 0.48525 0.61009 0.0
S1210 S 0.92621 0.57438 0.71896 0.0
N1211 N 0.88091 0.56778 0.72681 0.0
N1212 N 0.93574 0.5514 0.68019 0.0
C1213 C 0.9014 0.53681 0.67206 0.0
C1214 C 0.87157 0.54594 0.69723 0.0
C1215 C 0.52932 0.83293 0.66987 0.0
C1216 C 0.50049 0.83449 0.6968 0.0
C1217 C 0.53061 0.8588 0.64011 0.0
C1218 C 0.50356 0.8875 0.63678 0.0
H1219 H 0.55224 0.8132 0.67312 0.0
H1220 H 0.55405 0.85762 0.62081 0.0
S1221 S 0.41957 0.90044 0.69658 0.0
N1222 N 0.44177 0.86432 0.71516 0.0
N1223 N 0.44515 0.91341 0.66038 0.0
C1224 C 0.47353 0.88793 0.66213 0.0
C1225 C 0.47171 0.86125 0.69175 0.0
C1226 C 0.1625 0.46249 0.69007 0.0
C1227 C 0.19809 0.4796 0.68728 0.0
C1228 C 0.13322 0.47135 0.66534 0.0
C1229 C 0.13848 0.49703 0.6361 0.0
H1230 H 0.15722 0.44186 0.71157 0.0
H1231 H 0.10659 0.45693 0.66846 0.0
S1232 S 0.22588 0.55076 0.61728 0.0
N1233 N 0.23647 0.52474 0.65391 0.0
N1234 N 0.18187 0.54059 0.60657 0.0
C1235 C 0.17382 0.5148 0.63324 0.0
C1236 C 0.20346 0.50633 0.65906 0.0
C1237 C 0.54918 0.15448 0.6946 0.0
C1238 C 0.53283 0.19024 0.69057 0.0
C1239 C 0.54124 0.12519 0.6697 0.0
C1240 C 0.51726 0.13061 0.63905 0.0
H1241 H 0.56873 0.14914 0.71713 0.0
H1242 H 0.55529 0.09855 0.67367 0.0
S1243 S 0.46562 0.21833 0.61678 0.0
N1244 N 0.48991 0.22881 0.6546 0.0
N1245 N 0.47572 0.17424 0.60704 0.0
C1246 C 0.49999 0.16603 0.6351 0.0
C1247 C 0.50753 0.19568 0.66104 0.0
C1248 C 0.8674 0.483 0.34408 0.0
C1249 C 0.83033 0.49518 0.35099 0.0
C1250 C 0.89681 0.49063 0.36905 0.0
C1251 C 0.89027 0.50993 0.40259 0.0
H1252 H 0.87368 0.46692 0.31925 0.0
H1253 H 0.92459 0.47986 0.36268 0.0
S1254 S 0.79846 0.54937 0.43316 0.0
N1255 N 0.78899 0.52918 0.39283 0.0
N1256 N 0.84384 0.54265 0.44051 0.0
C1257 C 0.8534 0.52311 0.40944 0.0
C1258 C 0.82358 0.51599 0.38346 0.0
C1259 C 0.52067 0.82324 0.37939 0.0
C1260 C 0.54083 0.83016 0.34639 0.0
C1261 C 0.51359 0.85222 0.40524 0.0
C1262 C 0.52562 0.8894 0.39865 0.0
H1263 H 0.51156 0.79506 0.38596 0.0
H1264 H 0.49891 0.84533 0.43079 0.0
S1265 S 0.57682 0.92227 0.31447 0.0
N1266 N 0.57116 0.87695 0.30758 0.0
N1267 N 0.55686 0.9313 0.35503 0.0
C1268 C 0.54428 0.89673 0.36479 0.0
C1269 C 0.55218 0.86717 0.33902 0.0
C1270 C 0.19231 0.53068 0.36884 0.0
C1271 C 0.18741 0.50623 0.33849 0.0
C1272 C 0.16631 0.53136 0.3986 0.0
C1273 C 0.13422 0.50816 0.39851 0.0
H1274 H 0.2151 0.55077 0.36857 0.0
H1275 H 0.17035 0.5514 0.42087 0.0
S1276 S 0.11173 0.43526 0.32859 0.0
N1277 N 0.15062 0.455 0.3128 0.0
N1278 N 0.10151 0.45723 0.36779 0.0
C1279 C 0.13031 0.48218 0.36949 0.0
C1280 C 0.15701 0.48092 0.33979 0.0
C1281 C 0.54763 0.15503 0.34292 0.0
C1282 C 0.52263 0.18576 0.34156 0.0
C1283 C 0.54631 0.12871 0.37194 0.0
C1284 C 0.52059 0.13242 0.40143 0.0
H1285 H 0.56699 0.15009 0.32009 0.0
H1286 H 0.56516 0.10486 0.37089 0.0
S1287 S 0.45125 0.20927 0.41321 0.0
N1288 N 0.47266 0.21923 0.37351 0.0
N1289 N 0.47129 0.17065 0.42906 0.0
C1290 C 0.49719 0.16432 0.40192 0.0
C1291 C 0.49803 0.19083 0.37184 0.0
C1292 C 0.66681 0.83261 0.51097 0.0
C1293 C 0.69316 0.83549 0.54009 0.0
C1294 C 0.63757 0.85902 0.50705 0.0
C1295 C 0.63427 0.88956 0.53166 0.0
H1296 H 0.67013 0.81123 0.48983 0.0
H1297 H 0.61856 0.85656 0.48361 0.0
S1298 S 0.69182 0.90623 0.61597 0.0
N1299 N 0.71046 0.86841 0.5969 0.0
N1300 N 0.65665 0.91852 0.58855 0.0
C1301 C 0.65886 0.89138 0.5621 0.0
C1302 C 0.68793 0.86417 0.56661 0.0
C1303 C 0.6956 0.15056 0.50411 0.0
C1304 C 0.69403 0.18389 0.52514 0.0
C1305 C 0.66653 0.1244 0.50494 0.0
C1306 C 0.63322 0.13122 0.52464 0.0
H1307 H 0.72048 0.14362 0.48803 0.0
H1308 H 0.67046 0.09827 0.49033 0.0
S1309 S 0.61262 0.21523 0.58196 0.0
N1310 N 0.65555 0.22268 0.56582 0.0
N1311 N 0.59905 0.17467 0.56442 0.0
C1312 C 0.62984 0.16543 0.54394 0.0
C1313 C 0.66048 0.19163 0.54457 0.0
C1314 C 0.86878 0.69027 0.50461 0.0
C1315 C 0.83084 0.68018 0.50951 0.0
C1316 C 0.89806 0.66496 0.51222 0.0
C1317 C 0.89056 0.62806 0.52369 0.0
H1318 H 0.87586 0.71781 0.49414 0.0
H1319 H 0.92674 0.67402 0.50746 0.0
S1320 S 0.79561 0.58935 0.54466 0.0
N1321 N 0.7872 0.63242 0.53006 0.0
N1322 N 0.84177 0.58417 0.54335 0.0
C1323 C 0.85255 0.61834 0.53061 0.0
C1324 C 0.82284 0.64456 0.52366 0.0
C1325 C 0.37653 0.83204 0.47313 0.0
C1326 C 0.34996 0.82199 0.50042 0.0
C1327 C 0.39991 0.86331 0.47762 0.0
C1328 C 0.3968 0.88664 0.50899 0.0
H1329 H 0.37955 0.81531 0.44813 0.0
H1330 H 0.42058 0.86939 0.45623 0.0
S1331 S 0.33088 0.87401 0.58802 0.0
N1332 N 0.32163 0.83845 0.56003 0.0
N1333 N 0.36483 0.89812 0.56765 0.0
C1334 C 0.36991 0.87756 0.53623 0.0
C1335 C 0.34667 0.84499 0.53217 0.0
C1336 C 0.192 0.35882 0.49388 0.0
C1337 C 0.18998 0.33092 0.52155 0.0
C1338 C 0.16562 0.38845 0.49287 0.0
C1339 C 0.136 0.39053 0.51898 0.0
H1340 H 0.21279 0.3567 0.4719 0.0
H1341 H 0.16736 0.40883 0.47056 0.0
S1342 S 0.1213 0.32747 0.59967 0.0
N1343 N 0.15851 0.3101 0.57814 0.0
N1344 N 0.10849 0.36445 0.57513 0.0
C1345 C 0.1349 0.36395 0.5477 0.0
C1346 C 0.16205 0.33456 0.5493 0.0
C1347 C 0.35965 0.18615 0.5051 0.0
C1348 C 0.34821 0.1948 0.54175 0.0
C1349 C 0.38261 0.1547 0.49766 0.0
C1350 C 0.3942 0.13054 0.52649 0.0
H1351 H 0.35109 0.20382 0.48209 0.0
H1352 H 0.39174 0.14952 0.46931 0.0
S1353 S 0.37362 0.14152 0.62703 0.0
N1354 N 0.35157 0.17697 0.60709 0.0
N1355 N 0.39394 0.11809 0.59284 0.0
C1356 C 0.38305 0.1389 0.563 0.0
C1357 C 0.3602 0.17092 0.57067 0.0
C1358 C 0.86763 0.33185 0.5384 0.0
C1359 C 0.82993 0.34292 0.53369 0.0
C1360 C 0.89749 0.35567 0.52866 0.0
C1361 C 0.89073 0.39207 0.51538 0.0
H1362 H 0.87406 0.30492 0.55074 0.0
H1363 H 0.92598 0.3462 0.53353 0.0
S1364 S 0.7968 0.4319 0.4923 0.0
N1365 N 0.78734 0.39026 0.51006 0.0
N1366 N 0.84308 0.4358 0.49285 0.0
C1367 C 0.853 0.40229 0.50788 0.0
C1368 C 0.82269 0.37755 0.51693 0.0
C1369 C 0.19314 0.66 0.50663 0.0
C1370 C 0.18809 0.69069 0.53071 0.0
C1371 C 0.1672 0.63011 0.50612 0.0
C1372 C 0.13505 0.63029 0.52921 0.0
H1373 H 0.21599 0.6601 0.48663 0.0
H1374 H 0.17132 0.60771 0.48619 0.0
S1375 S 0.11235 0.70099 0.60143 0.0
N1376 N 0.15123 0.71671 0.58167 0.0
N1377 N 0.10223 0.6615 0.57979 0.0
C1378 C 0.13107 0.65961 0.55493 0.0
C1379 C 0.15768 0.68949 0.55597 0.0
loop_
_geom_bond_atom_site_label_1
_geom_bond_atom_site_label_2
_geom_bond_distance
_geom_bond_site_symmetry_2
_ccdc_geom_bond_type
H0 C5 0.929 . S
H1 C8 0.928 1_655 S
H2 C10 0.930 . S
H3 C4 1.016 . S
C4 H3 1.016 . S
C4 N11 1.286 1_455 S
C5 H0 0.929 . S
C5 C6 1.397 1_655 S
C5 C7 1.361 . S
C6 C5 1.397 1_455 S
C6 C10 1.390 . S
C7 C5 1.361 . S
C7 C8 1.393 1_655 S
C7 N11 1.413 . S
C8 H1 0.928 1_455 S
C8 C7 1.393 1_455 S
C8 C9 1.399 . S
C9 C8 1.399 . S
C9 C10 1.381 . S
C10 H2 0.930 . S
C10 C6 1.390 . S
C10 C9 1.381 . S
N11 C4 1.286 1_655 S
N11 C7 1.413 . S
H12 C17 0.930 . S
H13 C20 0.930 . S
H14 C22 0.930 . S
H15 C16 1.024 . S
C16 H15 1.024 . S
C16 N23 1.275 1_565 S
C17 H12 0.930 . S
C17 C18 1.397 . S
C17 C19 1.361 . S
C18 C17 1.397 . S
C18 C22 1.390 1_545 S
C19 C17 1.361 . S
C19 C20 1.393 . S
C19 N23 1.413 . S
C20 H13 0.930 . S
C20 C19 1.393 . S
C20 C21 1.399 . S
C21 C20 1.399 . S
C21 C22 1.381 1_545 S
C22 H14 0.930 . S
C22 C18 1.390 1_565 S
C22 C21 1.381 1_565 S
N23 C16 1.275 1_545 S
N23 C19 1.413 . S
H24 C29 0.931 . S
H25 C32 0.930 . S
H26 C34 0.930 . S
H27 C28 1.016 . S
C28 H27 1.016 . S
C28 N35 1.286 1_455 S
C29 H24 0.931 . S
C29 C30 1.395 1_655 S
C29 C31 1.362 . S
C30 C29 1.395 1_455 S
C30 C34 1.390 . S
C31 C29 1.362 . S
C31 C32 1.393 1_655 S
C31 N35 1.413 . S
C32 H25 0.930 . S
C32 C31 1.393 1_455 S
C32 C33 1.399 . S
C33 C32 1.399 . S
C33 C34 1.381 . S
C34 H26 0.930 . S
C34 C30 1.390 . S
C34 C33 1.381 . S
N35 C28 1.286 1_655 S
N35 C31 1.413 . S
H36 C41 0.930 . S
H37 C44 0.930 . S
H38 C46 0.930 . S
H39 C40 1.016 . S
C40 H39 1.016 . S
C40 N47 1.286 1_545 S
C41 H36 0.930 . S
C41 C42 1.397 . S
C41 C43 1.361 . S
C42 C41 1.397 . S
C42 C46 1.390 1_565 S
C43 C41 1.361 . S
C43 C44 1.393 . S
C43 N47 1.413 . S
C44 H37 0.930 . S
C44 C43 1.393 . S
C44 C45 1.401 . S
C45 C44 1.401 . S
C45 C46 1.379 1_565 S
C46 H38 0.930 . S
C46 C42 1.390 1_545 S
C46 C45 1.379 1_545 S
N47 C40 1.286 1_565 S
N47 C43 1.413 . S
H48 C53 0.930 1_655 S
H49 C56 0.929 1_655 S
H50 C58 0.930 . S
H51 C52 1.016 . S
C52 H51 1.016 . S
C52 N59 1.286 1_455 S
C53 H48 0.930 1_455 S
C53 C54 1.397 . S
C53 C55 1.361 1_455 S
C54 C53 1.397 . S
C54 C58 1.390 . S
C55 C53 1.361 1_655 S
C55 C56 1.393 1_655 S
C55 N59 1.413 . S
C56 H49 0.929 1_455 S
C56 C55 1.393 1_455 S
C56 C57 1.399 . S
C57 C56 1.399 . S
C57 C58 1.381 . S
C58 H50 0.930 . S
C58 C54 1.390 . S
C58 C57 1.381 . S
N59 C52 1.286 1_655 S
N59 C55 1.413 . S
H60 C65 0.930 . S
H61 C68 0.930 . S
H62 C70 0.930 . S
H63 C64 1.021 . S
C64 H63 1.021 . S
C64 N71 1.279 1_565 S
C65 H60 0.930 . S
C65 C66 1.397 . S
C65 C67 1.361 . S
C66 C65 1.397 . S
C66 C70 1.390 1_545 S
C67 C65 1.361 . S
C67 C68 1.393 . S
C67 N71 1.413 . S
C68 H61 0.930 . S
C68 C67 1.393 . S
C68 C69 1.399 . S
C69 C68 1.399 . S
C69 C70 1.381 1_545 S
C70 H62 0.930 . S
C70 C66 1.390 1_565 S
C70 C69 1.381 1_565 S
N71 C64 1.279 1_545 S
N71 C67 1.413 . S
H72 C77 0.930 . S
H73 C80 0.931 . S
H74 C82 0.930 . S
H75 C76 1.016 . S
C76 H75 1.016 . S
C76 N83 1.286 1_455 S
C77 H72 0.930 . S
C77 C78 1.396 1_655 S
C77 C79 1.361 . S
C78 C77 1.396 1_455 S
C78 C82 1.390 . S
C79 C77 1.361 . S
C79 C80 1.393 1_655 S
C79 N83 1.413 . S
C80 H73 0.931 . S
C80 C79 1.393 1_455 S
C80 C81 1.399 . S
C81 C80 1.399 . S
C81 C82 1.381 . S
C82 H74 0.930 . S
C82 C78 1.390 . S
C82 C81 1.381 . S
N83 C76 1.286 1_655 S
N83 C79 1.413 . S
H84 C89 0.930 . S
H85 C92 0.930 . S
H86 C94 0.930 . S
H87 C88 1.023 . S
C88 H87 1.023 . S
C88 N95 1.277 1_565 S
C89 H84 0.930 . S
C89 C90 1.397 . S
C89 C91 1.361 . S
C90 C89 1.397 . S
C90 C94 1.390 1_545 S
C91 C89 1.361 . S
C91 C92 1.393 . S
C91 N95 1.413 . S
C92 H85 0.930 . S
C92 C91 1.393 . S
C92 C93 1.399 . S
C93 C92 1.399 . S
C93 C94 1.381 1_545 S
C94 H86 0.930 . S
C94 C90 1.390 1_565 S
C94 C93 1.381 1_565 S
N95 C88 1.277 1_545 S
N95 C91 1.413 . S
H96 C101 0.930 . S
H97 C104 0.930 . S
H98 C106 0.930 1_556 S
H99 C100 1.016 1_556 S
C100 H99 1.016 1_554 S
C100 N107 1.286 . S
C101 H96 0.930 . S
C101 C102 1.397 . S
C101 C103 1.361 . S
C102 C101 1.397 . S
C102 C106 1.390 . S
C103 C101 1.361 . S
C103 C104 1.393 . S
C103 N107 1.413 . S
C104 H97 0.930 . S
C104 C103 1.393 . S
C104 C105 1.399 . S
C105 C104 1.399 . S
C105 C106 1.381 . S
C106 H98 0.930 1_554 S
C106 C102 1.390 . S
C106 C105 1.381 . S
N107 C100 1.286 . S
N107 C103 1.413 . S
H108 C113 0.930 . S
H109 C116 0.930 1_556 S
H110 C118 0.930 . S
H111 C112 1.016 . S
C112 H111 1.016 . S
C112 N119 1.286 1_554 S
C113 H108 0.930 . S
C113 C114 1.397 1_556 S
C113 C115 1.361 . S
C114 C113 1.397 1_554 S
C114 C118 1.390 . S
C115 C113 1.361 . S
C115 C116 1.393 1_556 S
C115 N119 1.413 . S
C116 H109 0.930 1_554 S
C116 C115 1.393 1_554 S
C116 C117 1.399 . S
C117 C116 1.399 . S
C117 C118 1.381 . S
C118 H110 0.930 . S
C118 C114 1.390 . S
C118 C117 1.381 . S
N119 C112 1.286 1_556 S
N119 C115 1.413 . S
H120 C125 0.930 . S
H121 C128 0.930 . S
H122 C130 0.930 1_556 S
H123 C124 1.016 1_556 S
C124 H123 1.016 1_554 S
C124 N131 1.286 . S
C125 H120 0.930 . S
C125 C126 1.397 . S
C125 C127 1.361 . S
C126 C125 1.397 . S
C126 C130 1.390 . S
C127 C125 1.361 . S
C127 C128 1.393 . S
C127 N131 1.413 . S
C128 H121 0.930 . S
C128 C127 1.393 . S
C128 C129 1.399 . S
C129 C128 1.399 . S
C129 C130 1.381 . S
C130 H122 0.930 1_554 S
C130 C126 1.390 . S
C130 C129 1.381 . S
N131 C124 1.286 . S
N131 C127 1.413 . S
H132 C137 0.930 . S
H133 C140 0.928 1_556 S
H134 C142 0.930 . S
H135 C136 1.016 . S
C136 H135 1.016 . S
C136 N143 1.286 1_554 S
C137 H132 0.930 . S
C137 C138 1.397 1_556 S
C137 C139 1.361 . S
C138 C137 1.397 1_554 S
C138 C142 1.390 . S
C139 C137 1.361 . S
C139 C140 1.392 1_556 S
C139 N143 1.413 . S
C140 H133 0.928 1_554 S
C140 C139 1.392 1_554 S
C140 C141 1.402 . S
C141 C140 1.402 . S
C141 C142 1.381 . S
C142 H134 0.930 . S
C142 C138 1.390 . S
C142 C141 1.381 . S
N143 C136 1.286 1_556 S
N143 C139 1.413 . S
H144 C149 0.930 . S
H145 C152 0.930 . S
H146 C154 0.930 . S
H147 C148 1.016 . S
C148 H147 1.016 . S
C148 N155 1.286 . S
C149 H144 0.930 . S
C149 C150 1.397 . S
C149 C151 1.361 . S
C150 C149 1.397 . S
C150 C154 1.390 . S
C151 C149 1.361 . S
C151 C152 1.393 . S
C151 N155 1.413 . S
C152 H145 0.930 . S
C152 C151 1.393 . S
C152 C153 1.399 . S
C153 C152 1.399 . S
C153 C154 1.381 . S
C154 H146 0.930 . S
C154 C150 1.390 . S
C154 C153 1.381 . S
N155 C148 1.286 . S
N155 C151 1.413 . S
H156 C161 0.930 . S
H157 C164 0.930 . S
H158 C166 0.930 . S
H159 C160 1.016 . S
C160 H159 1.016 . S
C160 N167 1.286 . S
C161 H156 0.930 . S
C161 C162 1.397 . S
C161 C163 1.361 . S
C162 C161 1.397 . S
C162 C166 1.390 . S
C163 C161 1.361 . S
C163 C164 1.393 . S
C163 N167 1.413 . S
C164 H157 0.930 . S
C164 C163 1.393 . S
C164 C165 1.399 . S
C165 C164 1.399 . S
C165 C166 1.381 . S
C166 H158 0.930 . S
C166 C162 1.390 . S
C166 C165 1.381 . S
N167 C160 1.286 . S
N167 C163 1.413 . S
H168 C173 0.930 . S
H169 C176 0.930 . S
H170 C178 0.930 . S
H171 C172 1.016 . S
C172 H171 1.016 . S
C172 N179 1.286 . S
C173 H168 0.930 . S
C173 C174 1.397 . S
C173 C175 1.361 . S
C174 C173 1.397 . S
C174 C178 1.390 . S
C175 C173 1.361 . S
C175 C176 1.393 . S
C175 N179 1.413 . S
C176 H169 0.930 . S
C176 C175 1.393 . S
C176 C177 1.399 . S
C177 C176 1.399 . S
C177 C178 1.381 . S
C178 H170 0.930 . S
C178 C174 1.390 . S
C178 C177 1.381 . S
N179 C172 1.286 . S
N179 C175 1.413 . S
H180 C185 0.930 . S
H181 C188 0.930 . S
H182 C190 0.930 . S
H183 C184 1.016 . S
C184 H183 1.016 . S
C184 N191 1.286 . S
C185 H180 0.930 . S
C185 C186 1.397 . S
C185 C187 1.361 . S
C186 C185 1.397 . S
C186 C190 1.390 . S
C187 C185 1.361 . S
C187 C188 1.393 . S
C187 N191 1.413 . S
C188 H181 0.930 . S
C188 C187 1.393 . S
C188 C189 1.399 . S
C189 C188 1.399 . S
C189 C190 1.381 . S
C190 H182 0.930 . S
C190 C186 1.390 . S
C190 C189 1.381 . S
N191 C184 1.286 . S
N191 C187 1.413 . S
H192 C197 0.930 . S
H193 C200 0.930 . S
H194 C202 0.930 . S
H195 C196 1.016 . S
C196 H195 1.016 . S
C196 N203 1.286 . S
C197 H192 0.930 . S
C197 C198 1.397 . S
C197 C199 1.361 . S
C198 C197 1.397 . S
C198 C202 1.390 . S
C199 C197 1.361 . S
C199 C200 1.393 . S
C199 N203 1.413 . S
C200 H193 0.930 . S
C200 C199 1.393 . S
C200 C201 1.399 . S
C201 C200 1.399 . S
C201 C202 1.381 . S
C202 H194 0.930 . S
C202 C198 1.390 . S
C202 C201 1.381 . S
N203 C196 1.286 . S
N203 C199 1.413 . S
H204 C209 0.930 . S
H205 C212 0.930 . S
H206 C214 0.930 . S
H207 C208 1.016 . S
C208 H207 1.016 . S
C208 N215 1.286 . S
C209 H204 0.930 . S
C209 C210 1.397 . S
C209 C211 1.361 . S
C210 C209 1.397 . S
C210 C214 1.390 . S
C211 C209 1.361 . S
C211 C212 1.393 . S
C211 N215 1.413 . S
C212 H205 0.930 . S
C212 C211 1.393 . S
C212 C213 1.399 . S
C213 C212 1.399 . S
C213 C214 1.381 . S
C214 H206 0.930 . S
C214 C210 1.390 . S
C214 C213 1.381 . S
N215 C208 1.286 . S
N215 C211 1.413 . S
H216 C221 0.930 . S
H217 C224 0.930 . S
H218 C226 0.930 . S
H219 C220 1.016 . S
C220 H219 1.016 . S
C220 N227 1.286 . S
C221 H216 0.930 . S
C221 C222 1.397 . S
C221 C223 1.361 . S
C222 C221 1.397 . S
C222 C226 1.390 . S
C223 C221 1.361 . S
C223 C224 1.393 . S
C223 N227 1.413 . S
C224 H217 0.930 . S
C224 C223 1.393 . S
C224 C225 1.399 . S
C225 C224 1.399 . S
C225 C226 1.381 . S
C226 H218 0.930 . S
C226 C222 1.390 . S
C226 C225 1.381 . S
N227 C220 1.286 . S
N227 C223 1.413 . S
H228 C233 0.930 . S
H229 C236 0.930 . S
H230 C238 0.930 . S
H231 C232 1.016 . S
C232 H231 1.016 . S
C232 N239 1.286 . S
C233 H228 0.930 . S
C233 C234 1.397 . S
C233 C235 1.361 . S
C234 C233 1.397 . S
C234 C238 1.390 . S
C235 C233 1.361 . S
C235 C236 1.393 . S
C235 N239 1.413 . S
C236 H229 0.930 . S
C236 C235 1.393 . S
C236 C237 1.399 . S
C237 C236 1.399 . S
C237 C238 1.381 . S
C238 H230 0.930 . S
C238 C234 1.390 . S
C238 C237 1.381 . S
N239 C232 1.286 . S
N239 C235 1.413 . S
H240 C245 0.930 . S
H241 C248 0.930 . S
H242 C250 0.930 . S
H243 C244 1.016 . S
C244 H243 1.016 . S
C244 N251 1.286 . S
C245 H240 0.930 . S
C245 C246 1.397 . S
C245 C247 1.361 . S
C246 C245 1.397 . S
C246 C250 1.390 . S
C247 C245 1.361 . S
C247 C248 1.393 . S
C247 N251 1.413 . S
C248 H241 0.930 . S
C248 C247 1.393 . S
C248 C249 1.399 . S
C249 C248 1.399 . S
C249 C250 1.381 . S
C250 H242 0.930 . S
C250 C246 1.390 . S
C250 C249 1.381 . S
N251 C244 1.286 . S
N251 C247 1.413 . S
H252 C257 0.930 . S
H253 C260 0.930 . S
H254 C262 0.930 . S
H255 C256 1.016 . S
C256 H255 1.016 . S
C256 N263 1.286 . S
C257 H252 0.930 . S
C257 C258 1.397 . S
C257 C259 1.361 . S
C258 C257 1.397 . S
C258 C262 1.390 . S
C259 C257 1.361 . S
C259 C260 1.393 . S
C259 N263 1.413 . S
C260 H253 0.930 . S
C260 C259 1.393 . S
C260 C261 1.399 . S
C261 C260 1.399 . S
C261 C262 1.381 . S
C262 H254 0.930 . S
C262 C258 1.390 . S
C262 C261 1.381 . S
N263 C256 1.286 . S
N263 C259 1.413 . S
H264 C269 0.930 . S
H265 C272 0.930 . S
H266 C274 0.930 . S
H267 C268 1.016 . S
C268 H267 1.016 . S
C268 N275 1.286 . S
C269 H264 0.930 . S
C269 C270 1.397 . S
C269 C271 1.361 . S
C270 C269 1.397 . S
C270 C274 1.390 . S
C271 C269 1.361 . S
C271 C272 1.393 . S
C271 N275 1.413 . S
C272 H265 0.930 . S
C272 C271 1.393 . S
C272 C273 1.399 . S
C273 C272 1.399 . S
C273 C274 1.381 . S
C274 H266 0.930 . S
C274 C270 1.390 . S
C274 C273 1.381 . S
N275 C268 1.286 . S
N275 C271 1.413 . S
H276 C281 0.930 . S
H277 C284 0.930 . S
H278 C286 0.930 . S
H279 C280 1.016 . S
C280 H279 1.016 . S
C280 N287 1.286 . S
C281 H276 0.930 . S
C281 C282 1.397 . S
C281 C283 1.361 . S
C282 C281 1.397 . S
C282 C286 1.390 . S
C283 C281 1.361 . S
C283 C284 1.393 . S
C283 N287 1.413 . S
C284 H277 0.930 . S
C284 C283 1.393 . S
C284 C285 1.399 . S
C285 C284 1.399 . S
C285 C286 1.381 . S
C286 H278 0.930 . S
C286 C282 1.390 . S
C286 C285 1.381 . S
N287 C280 1.286 . S
N287 C283 1.413 . S
C288 O314 1.283 . S
C288 O332 1.283 . S
C289 O315 1.283 . S
C289 O330 1.283 . S
C290 O316 1.283 . S
C290 O333 1.283 . S
C291 O317 1.283 . S
C291 O331 1.283 . S
C292 O318 1.283 . S
C292 O327 1.283 . S
C293 O319 1.283 . S
C293 O329 1.283 . S
C294 O320 1.283 . S
C294 O326 1.283 . S
C295 O321 1.283 . S
C295 O328 1.283 . S
C296 O322 1.283 . S
C296 O337 1.283 . S
C297 O323 1.283 . S
C297 O335 1.283 . S
C298 O324 1.283 . S
C298 O336 1.283 . S
C299 O325 1.283 . S
C299 O334 1.283 . S
Eu300 O301 2.370 1_455 S
Eu300 O302 2.370 . S
Eu300 O305 2.370 1_455 S
Eu300 O306 2.370 . S
Eu300 O314 2.363 . S
Eu300 O315 2.363 . S
Eu300 O328 2.363 . S
Eu300 O329 2.363 1_455 S
O301 Eu300 2.370 1_655 S
O301 Eu303 2.363 1_565 S
O301 Eu308 2.363 1_665 S
O302 Eu300 2.370 . S
O302 Eu304 2.363 1_565 S
O302 Eu307 2.363 1_565 S
Eu303 O301 2.363 1_545 S
Eu303 O305 2.363 1_545 S
Eu303 O309 2.377 . S
Eu303 O310 2.377 . S
Eu303 O318 2.375 . S
Eu303 O319 2.351 1_545 S
Eu303 O334 2.363 . S
Eu303 O335 2.363 . S
Eu304 O302 2.363 1_545 S
Eu304 O306 2.363 1_545 S
Eu304 O311 2.377 . S
Eu304 O312 2.377 . S
Eu304 O320 2.375 . S
Eu304 O321 2.351 1_545 S
Eu304 O336 2.363 . S
Eu304 O337 2.363 . S
O305 Eu300 2.370 1_655 S
O305 Eu303 2.363 1_565 S
O305 Eu307 2.363 1_665 S
O306 Eu300 2.370 . S
O306 Eu304 2.363 1_565 S
O306 Eu308 2.363 1_565 S
Eu307 O302 2.363 1_545 S
Eu307 O305 2.363 1_445 S
Eu307 O309 2.378 1_455 S
Eu307 O312 2.378 . S
Eu307 O324 2.363 . S
Eu307 O325 2.363 1_455 S
Eu307 O332 2.350 1_545 S
Eu307 O333 2.376 . S
Eu308 O301 2.363 1_445 S
Eu308 O306 2.363 1_545 S
Eu308 O310 2.377 1_455 S
Eu308 O311 2.377 . S
Eu308 O322 2.363 . S
Eu308 O323 2.363 1_455 S
Eu308 O330 2.352 1_545 S
Eu308 O331 2.374 . S
O309 Eu303 2.377 . S
O309 Eu307 2.378 1_655 S
O309 Eu313 2.370 1_655 S
O310 Eu303 2.377 . S
O310 Eu308 2.377 1_655 S
O310 Eu313 2.370 1_655 S
O311 Eu304 2.377 . S
O311 Eu308 2.377 . S
O311 Eu313 2.370 . S
O312 Eu304 2.377 . S
O312 Eu307 2.378 . S
O312 Eu313 2.370 . S
Eu313 O309 2.370 1_455 S
Eu313 O310 2.370 1_455 S
Eu313 O311 2.370 . S
Eu313 O312 2.370 . S
Eu313 O316 2.363 . S
Eu313 O317 2.363 . S
Eu313 O326 2.363 . S
Eu313 O327 2.363 1_455 S
O314 C288 1.283 . S
O314 Eu300 2.363 . S
O315 C289 1.283 . S
O315 Eu300 2.363 . S
O316 C290 1.283 . S
O316 Eu313 2.363 . S
O317 C291 1.283 . S
O317 Eu313 2.363 . S
O318 C292 1.283 . S
O318 Eu303 2.375 . S
O319 C293 1.283 . S
O319 Eu303 2.351 1_565 S
O320 C294 1.283 . S
O320 Eu304 2.375 . S
O321 C295 1.283 . S
O321 Eu304 2.351 1_565 S
O322 C296 1.283 . S
O322 Eu308 2.363 . S
O323 C297 1.283 . S
O323 Eu308 2.363 1_655 S
O324 C298 1.283 . S
O324 Eu307 2.363 . S
O325 C299 1.283 . S
O325 Eu307 2.363 1_655 S
O326 C294 1.283 . S
O326 Eu313 2.363 . S
O327 C292 1.283 . S
O327 Eu313 2.363 1_655 S
O328 C295 1.283 . S
O328 Eu300 2.363 . S
O329 C293 1.283 . S
O329 Eu300 2.363 1_655 S
O330 C289 1.283 . S
O330 Eu308 2.352 1_565 S
O331 C291 1.283 . S
O331 Eu308 2.374 . S
O332 C288 1.283 . S
O332 Eu307 2.350 1_565 S
O333 C290 1.283 . S
O333 Eu307 2.376 . S
O334 C299 1.283 . S
O334 Eu303 2.363 . S
O335 C297 1.283 . S
O335 Eu303 2.363 . S
O336 C298 1.283 . S
O336 Eu304 2.363 . S
O337 C296 1.283 . S
O337 Eu304 2.363 . S
C338 O364 1.283 . S
C338 O382 1.283 . S
C339 O365 1.283 . S
C339 O380 1.283 . S
C340 O366 1.283 . S
C340 O383 1.283 . S
C341 O367 1.283 . S
C341 O381 1.283 . S
C342 O368 1.283 . S
C342 O377 1.283 . S
C343 O369 1.283 . S
C343 O379 1.283 . S
C344 O370 1.283 . S
C344 O376 1.283 . S
C345 O371 1.283 . S
C345 O378 1.283 . S
C346 O372 1.283 . S
C346 O387 1.283 . S
C347 O373 1.283 . S
C347 O385 1.283 . S
C348 O374 1.283 . S
C348 O386 1.283 . S
C349 O375 1.283 . S
C349 O384 1.283 . S
Eu350 O351 2.372 . S
Eu350 O352 2.368 1_545 S
Eu350 O355 2.368 1_545 S
Eu350 O356 2.372 . S
Eu350 O364 2.360 1_545 S
Eu350 O365 2.366 . S
Eu350 O378 2.363 . S
Eu350 O379 2.363 . S
O351 Eu350 2.372 . S
O351 Eu353 2.377 . S
O351 Eu358 2.370 . S
O352 Eu350 2.368 1_565 S
O352 Eu354 2.363 1_565 S
O352 Eu357 2.370 . S
Eu353 O351 2.377 . S
Eu353 O355 2.363 1_545 S
Eu353 O359 2.363 1_544 S
Eu353 O360 2.377 1_554 S
Eu353 O368 2.363 1_554 S
Eu353 O369 2.363 . S
Eu353 O384 2.352 1_545 S
Eu353 O385 2.374 . S
Eu354 O352 2.363 1_545 S
Eu354 O356 2.377 . S
Eu354 O361 2.377 1_554 S
Eu354 O362 2.363 1_544 S
Eu354 O370 2.363 1_554 S
Eu354 O371 2.363 . S
Eu354 O386 2.351 1_545 S
Eu354 O387 2.375 . S
O355 Eu350 2.368 1_565 S
O355 Eu353 2.363 1_565 S
O355 Eu357 2.370 . S
O356 Eu350 2.372 . S
O356 Eu354 2.377 . S
O356 Eu358 2.370 . S
Eu357 O352 2.370 . S
Eu357 O355 2.370 . S
Eu357 O359 2.370 1_554 S
Eu357 O362 2.370 1_554 S
Eu357 O374 2.363 . S
Eu357 O375 2.363 . S
Eu357 O382 2.363 . S
Eu357 O383 2.363 1_554 S
Eu358 O351 2.370 . S
Eu358 O356 2.370 . S
Eu358 O360 2.370 1_554 S
Eu358 O361 2.370 1_554 S
Eu358 O372 2.363 . S
Eu358 O373 2.363 . S
Eu358 O380 2.363 . S
Eu358 O381 2.363 1_554 S
O359 Eu353 2.363 1_566 S
O359 Eu357 2.370 1_556 S
O359 Eu363 2.358 1_565 S
O360 Eu353 2.377 1_556 S
O360 Eu358 2.370 1_556 S
O360 Eu363 2.382 . S
O361 Eu354 2.377 1_556 S
O361 Eu358 2.370 1_556 S
O361 Eu363 2.382 . S
O362 Eu354 2.363 1_566 S
O362 Eu357 2.370 1_556 S
O362 Eu363 2.358 1_565 S
Eu363 O359 2.358 1_545 S
Eu363 O360 2.382 . S
Eu363 O361 2.382 . S
Eu363 O362 2.358 1_545 S
Eu363 O366 2.343 1_545 S
Eu363 O367 2.383 . S
Eu363 O376 2.363 . S
Eu363 O377 2.363 . S
O364 C338 1.283 . S
O364 Eu350 2.360 1_565 S
O365 C339 1.283 . S
O365 Eu350 2.366 . S
O366 C340 1.283 . S
O366 Eu363 2.343 1_565 S
O367 C341 1.283 . S
O367 Eu363 2.383 . S
O368 C342 1.283 . S
O368 Eu353 2.363 1_556 S
O369 C343 1.283 . S
O369 Eu353 2.363 . S
O370 C344 1.283 . S
O370 Eu354 2.363 1_556 S
O371 C345 1.283 . S
O371 Eu354 2.363 . S
O372 C346 1.283 . S
O372 Eu358 2.363 . S
O373 C347 1.283 . S
O373 Eu358 2.363 . S
O374 C348 1.283 . S
O374 Eu357 2.363 . S
O375 C349 1.283 . S
O375 Eu357 2.363 . S
O376 C344 1.283 . S
O376 Eu363 2.363 . S
O377 C342 1.283 . S
O377 Eu363 2.363 . S
O378 C345 1.283 . S
O378 Eu350 2.363 . S
O379 C343 1.283 . S
O379 Eu350 2.363 . S
O380 C339 1.283 . S
O380 Eu358 2.363 . S
O381 C341 1.283 . S
O381 Eu358 2.363 1_556 S
O382 C338 1.283 . S
O382 Eu357 2.363 . S
O383 C340 1.283 . S
O383 Eu357 2.363 1_556 S
O384 C349 1.283 . S
O384 Eu353 2.352 1_565 S
O385 C347 1.283 . S
O385 Eu353 2.374 . S
O386 C348 1.283 . S
O386 Eu354 2.351 1_565 S
O387 C346 1.283 . S
O387 Eu354 2.375 . S
C388 O414 1.283 . S
C388 O432 1.283 . S
C389 O415 1.283 . S
C389 O430 1.283 . S
C390 O416 1.283 . S
C390 O433 1.283 . S
C391 O417 1.283 . S
C391 O431 1.283 . S
C392 O418 1.283 . S
C392 O427 1.283 . S
C393 O419 1.283 . S
C393 O429 1.283 . S
C394 O420 1.283 . S
C394 O426 1.283 . S
C395 O421 1.283 . S
C395 O428 1.283 . S
C396 O422 1.283 . S
C396 O437 1.283 . S
C397 O423 1.283 . S
C397 O435 1.283 . S
C398 O424 1.283 . S
C398 O436 1.283 . S
C399 O425 1.283 . S
C399 O434 1.283 . S
Eu400 O401 2.370 1_454 S
Eu400 O402 2.370 . S
Eu400 O405 2.370 1_455 S
Eu400 O406 2.370 1_554 S
Eu400 O414 2.363 . S
Eu400 O415 2.363 1_554 S
Eu400 O428 2.363 . S
Eu400 O429 2.363 1_455 S
O401 Eu400 2.370 1_656 S
O401 Eu403 2.370 1_556 S
O401 Eu408 2.370 1_655 S
O402 Eu400 2.370 . S
O402 Eu404 2.370 . S
O402 Eu407 2.370 . S
Eu403 O401 2.370 1_554 S
Eu403 O405 2.370 . S
Eu403 O409 2.370 . S
Eu403 O410 2.370 1_554 S
Eu403 O418 2.363 . S
Eu403 O419 2.363 . S
Eu403 O434 2.363 . S
Eu403 O435 2.363 1_554 S
Eu404 O402 2.370 . S
Eu404 O406 2.370 1_554 S
Eu404 O411 2.370 1_554 S
Eu404 O412 2.370 . S
Eu404 O420 2.363 . S
Eu404 O421 2.363 . S
Eu404 O436 2.363 . S
Eu404 O437 2.363 1_554 S
O405 Eu400 2.370 1_655 S
O405 Eu403 2.370 . S
O405 Eu407 2.370 1_655 S
O406 Eu400 2.370 1_556 S
O406 Eu404 2.370 1_556 S
O406 Eu408 2.370 . S
Eu407 O402 2.370 . S
Eu407 O405 2.370 1_455 S
Eu407 O409 2.370 1_455 S
Eu407 O412 2.370 . S
Eu407 O424 2.363 . S
Eu407 O425 2.363 1_455 S
Eu407 O432 2.363 . S
Eu407 O433 2.363 . S
Eu408 O401 2.370 1_455 S
Eu408 O406 2.370 . S
Eu408 O410 2.370 1_455 S
Eu408 O411 2.370 . S
Eu408 O422 2.363 . S
Eu408 O423 2.363 1_455 S
Eu408 O430 2.363 . S
Eu408 O431 2.363 . S
O409 Eu403 2.370 . S
O409 Eu407 2.370 1_655 S
O409 Eu413 2.370 1_655 S
O410 Eu403 2.370 1_556 S
O410 Eu408 2.370 1_655 S
O410 Eu413 2.370 1_656 S
O411 Eu404 2.370 1_556 S
O411 Eu408 2.370 . S
O411 Eu413 2.370 1_556 S
O412 Eu404 2.370 . S
O412 Eu407 2.370 . S
O412 Eu413 2.370 . S
Eu413 O409 2.370 1_455 S
Eu413 O410 2.370 1_454 S
Eu413 O411 2.370 1_554 S
Eu413 O412 2.370 . S
Eu413 O416 2.363 . S
Eu413 O417 2.363 1_554 S
Eu413 O426 2.363 . S
Eu413 O427 2.363 1_455 S
O414 C388 1.283 . S
O414 Eu400 2.363 . S
O415 C389 1.283 . S
O415 Eu400 2.363 1_556 S
O416 C390 1.283 . S
O416 Eu413 2.363 . S
O417 C391 1.283 . S
O417 Eu413 2.363 1_556 S
O418 C392 1.283 . S
O418 Eu403 2.363 . S
O419 C393 1.283 . S
O419 Eu403 2.363 . S
O420 C394 1.283 . S
O420 Eu404 2.363 . S
O421 C395 1.283 . S
O421 Eu404 2.363 . S
O422 C396 1.283 . S
O422 Eu408 2.363 . S
O423 C397 1.283 . S
O423 Eu408 2.363 1_655 S
O424 C398 1.283 . S
O424 Eu407 2.363 . S
O425 C399 1.283 . S
O425 Eu407 2.363 1_655 S
O426 C394 1.283 . S
O426 Eu413 2.363 . S
O427 C392 1.283 . S
O427 Eu413 2.363 1_655 S
O428 C395 1.283 . S
O428 Eu400 2.363 . S
O429 C393 1.283 . S
O429 Eu400 2.363 1_655 S
O430 C389 1.283 . S
O430 Eu408 2.363 . S
O431 C391 1.283 . S
O431 Eu408 2.363 . S
O432 C388 1.283 . S
O432 Eu407 2.363 . S
O433 C390 1.283 . S
O433 Eu407 2.363 . S
O434 C399 1.283 . S
O434 Eu403 2.363 . S
O435 C397 1.283 . S
O435 Eu403 2.363 1_556 S
O436 C398 1.283 . S
O436 Eu404 2.363 . S
O437 C396 1.283 . S
O437 Eu404 2.363 1_556 S
C438 O464 1.283 . S
C438 O482 1.283 . S
C439 O465 1.283 . S
C439 O480 1.283 . S
C440 O466 1.283 . S
C440 O483 1.283 . S
C441 O467 1.283 . S
C441 O481 1.283 . S
C442 O468 1.283 . S
C442 O477 1.283 . S
C443 O469 1.283 . S
C443 O479 1.283 . S
C444 O470 1.283 . S
C444 O476 1.283 . S
C445 O471 1.283 . S
C445 O478 1.283 . S
C446 O472 1.283 . S
C446 O487 1.283 . S
C447 O473 1.283 . S
C447 O485 1.283 . S
C448 O474 1.283 . S
C448 O486 1.283 . S
C449 O475 1.283 . S
C449 O484 1.283 . S
Eu450 O451 2.370 . S
Eu450 O452 2.370 . S
Eu450 O455 2.370 . S
Eu450 O456 2.370 . S
Eu450 O464 2.363 . S
Eu450 O465 2.363 . S
Eu450 O478 2.363 . S
Eu450 O479 2.363 . S
O451 Eu450 2.370 . S
O451 Eu453 2.370 . S
O451 Eu458 2.370 . S
O452 Eu450 2.370 . S
O452 Eu454 2.370 . S
O452 Eu457 2.370 . S
Eu453 O451 2.370 . S
Eu453 O455 2.370 . S
Eu453 O459 2.370 1_554 S
Eu453 O460 2.370 1_554 S
Eu453 O468 2.363 1_554 S
Eu453 O469 2.363 . S
Eu453 O484 2.363 . S
Eu453 O485 2.363 . S
Eu454 O452 2.370 . S
Eu454 O456 2.370 . S
Eu454 O461 2.370 1_554 S
Eu454 O462 2.370 1_554 S
Eu454 O470 2.363 1_554 S
Eu454 O471 2.363 . S
Eu454 O486 2.363 . S
Eu454 O487 2.363 . S
O455 Eu450 2.370 . S
O455 Eu453 2.370 . S
O455 Eu457 2.370 . S
O456 Eu450 2.370 . S
O456 Eu454 2.370 . S
O456 Eu458 2.370 . S
Eu457 O452 2.370 . S
Eu457 O455 2.370 . S
Eu457 O459 2.370 1_554 S
Eu457 O462 2.370 1_554 S
Eu457 O474 2.363 . S
Eu457 O475 2.363 . S
Eu457 O482 2.363 . S
Eu457 O483 2.363 1_554 S
Eu458 O451 2.370 . S
Eu458 O456 2.370 . S
Eu458 O460 2.370 1_554 S
Eu458 O461 2.370 1_554 S
Eu458 O472 2.363 . S
Eu458 O473 2.363 . S
Eu458 O480 2.363 . S
Eu458 O481 2.363 1_554 S
O459 Eu453 2.370 1_556 S
O459 Eu457 2.370 1_556 S
O459 Eu463 2.370 . S
O460 Eu453 2.370 1_556 S
O460 Eu458 2.370 1_556 S
O460 Eu463 2.370 . S
O461 Eu454 2.370 1_556 S
O461 Eu458 2.370 1_556 S
O461 Eu463 2.370 . S
O462 Eu454 2.370 1_556 S
O462 Eu457 2.370 1_556 S
O462 Eu463 2.370 . S
Eu463 O459 2.370 . S
Eu463 O460 2.370 . S
Eu463 O461 2.370 . S
Eu463 O462 2.370 . S
Eu463 O466 2.363 . S
Eu463 O467 2.363 . S
Eu463 O476 2.363 . S
Eu463 O477 2.363 . S
O464 C438 1.283 . S
O464 Eu450 2.363 . S
O465 C439 1.283 . S
O465 Eu450 2.363 . S
O466 C440 1.283 . S
O466 Eu463 2.363 . S
O467 C441 1.283 . S
O467 Eu463 2.363 . S
O468 C442 1.283 . S
O468 Eu453 2.363 1_556 S
O469 C443 1.283 . S
O469 Eu453 2.363 . S
O470 C444 1.283 . S
O470 Eu454 2.363 1_556 S
O471 C445 1.283 . S
O471 Eu454 2.363 . S
O472 C446 1.283 . S
O472 Eu458 2.363 . S
O473 C447 1.283 . S
O473 Eu458 2.363 . S
O474 C448 1.283 . S
O474 Eu457 2.363 . S
O475 C449 1.283 . S
O475 Eu457 2.363 . S
O476 C444 1.283 . S
O476 Eu463 2.363 . S
O477 C442 1.283 . S
O477 Eu463 2.363 . S
O478 C445 1.283 . S
O478 Eu450 2.363 . S
O479 C443 1.283 . S
O479 Eu450 2.363 . S
O480 C439 1.283 . S
O480 Eu458 2.363 . S
O481 C441 1.283 . S
O481 Eu458 2.363 1_556 S
O482 C438 1.283 . S
O482 Eu457 2.363 . S
O483 C440 1.283 . S
O483 Eu457 2.363 1_556 S
O484 C449 1.283 . S
O484 Eu453 2.363 . S
O485 C447 1.283 . S
O485 Eu453 2.363 . S
O486 C448 1.283 . S
O486 Eu454 2.363 . S
O487 C446 1.283 . S
O487 Eu454 2.363 . S
C488 O514 1.283 . S
C488 O532 1.283 . S
C489 O515 1.283 . S
C489 O530 1.283 . S
C490 O516 1.283 . S
C490 O533 1.283 . S
C491 O517 1.283 . S
C491 O531 1.283 . S
C492 O518 1.283 . S
C492 O527 1.283 . S
C493 O519 1.283 . S
C493 O529 1.283 . S
C494 O520 1.283 . S
C494 O526 1.283 . S
C495 O521 1.283 . S
C495 O528 1.283 . S
C496 O522 1.283 . S
C496 O537 1.283 . S
C497 O523 1.283 . S
C497 O535 1.283 . S
C498 O524 1.283 . S
C498 O536 1.283 . S
C499 O525 1.283 . S
C499 O534 1.283 . S
Eu500 O501 2.370 1_455 S
Eu500 O502 2.370 . S
Eu500 O505 2.370 1_455 S
Eu500 O506 2.370 . S
Eu500 O514 2.363 . S
Eu500 O515 2.363 . S
Eu500 O528 2.363 . S
Eu500 O529 2.363 1_455 S
O501 Eu500 2.370 1_655 S
O501 Eu503 2.370 . S
O501 Eu508 2.370 1_655 S
O502 Eu500 2.370 . S
O502 Eu504 2.370 . S
O502 Eu507 2.370 . S
Eu503 O501 2.370 . S
Eu503 O505 2.370 . S
Eu503 O509 2.370 . S
Eu503 O510 2.370 . S
Eu503 O518 2.363 . S
Eu503 O519 2.363 . S
Eu503 O534 2.363 . S
Eu503 O535 2.363 . S
Eu504 O502 2.370 . S
Eu504 O506 2.370 . S
Eu504 O511 2.370 . S
Eu504 O512 2.370 . S
Eu504 O520 2.363 . S
Eu504 O521 2.363 . S
Eu504 O536 2.363 . S
Eu504 O537 2.363 . S
O505 Eu500 2.370 1_655 S
O505 Eu503 2.370 . S
O505 Eu507 2.370 1_655 S
O506 Eu500 2.370 . S
O506 Eu504 2.370 . S
O506 Eu508 2.370 . S
Eu507 O502 2.370 . S
Eu507 O505 2.370 1_455 S
Eu507 O509 2.370 1_455 S
Eu507 O512 2.370 . S
Eu507 O524 2.363 . S
Eu507 O525 2.363 1_455 S
Eu507 O532 2.363 . S
Eu507 O533 2.363 . S
Eu508 O501 2.370 1_455 S
Eu508 O506 2.370 . S
Eu508 O510 2.370 1_455 S
Eu508 O511 2.370 . S
Eu508 O522 2.363 . S
Eu508 O523 2.363 1_455 S
Eu508 O530 2.363 . S
Eu508 O531 2.363 . S
O509 Eu503 2.370 . S
O509 Eu507 2.370 1_655 S
O509 Eu513 2.370 1_655 S
O510 Eu503 2.370 . S
O510 Eu508 2.370 1_655 S
O510 Eu513 2.370 1_655 S
O511 Eu504 2.370 . S
O511 Eu508 2.370 . S
O511 Eu513 2.370 . S
O512 Eu504 2.370 . S
O512 Eu507 2.370 . S
O512 Eu513 2.370 . S
Eu513 O509 2.370 1_455 S
Eu513 O510 2.370 1_455 S
Eu513 O511 2.370 . S
Eu513 O512 2.370 . S
Eu513 O516 2.363 . S
Eu513 O517 2.363 . S
Eu513 O526 2.363 . S
Eu513 O527 2.363 1_455 S
O514 C488 1.283 . S
O514 Eu500 2.363 . S
O515 C489 1.283 . S
O515 Eu500 2.363 . S
O516 C490 1.283 . S
O516 Eu513 2.363 . S
O517 C491 1.283 . S
O517 Eu513 2.363 . S
O518 C492 1.283 . S
O518 Eu503 2.363 . S
O519 C493 1.283 . S
O519 Eu503 2.363 . S
O520 C494 1.283 . S
O520 Eu504 2.363 . S
O521 C495 1.283 . S
O521 Eu504 2.363 . S
O522 C496 1.283 . S
O522 Eu508 2.363 . S
O523 C497 1.283 . S
O523 Eu508 2.363 1_655 S
O524 C498 1.283 . S
O524 Eu507 2.363 . S
O525 C499 1.283 . S
O525 Eu507 2.363 1_655 S
O526 C494 1.283 . S
O526 Eu513 2.363 . S
O527 C492 1.283 . S
O527 Eu513 2.363 1_655 S
O528 C495 1.283 . S
O528 Eu500 2.363 . S
O529 C493 1.283 . S
O529 Eu500 2.363 1_655 S
O530 C489 1.283 . S
O530 Eu508 2.363 . S
O531 C491 1.283 . S
O531 Eu508 2.363 . S
O532 C488 1.283 . S
O532 Eu507 2.363 . S
O533 C490 1.283 . S
O533 Eu507 2.363 . S
O534 C499 1.283 . S
O534 Eu503 2.363 . S
O535 C497 1.283 . S
O535 Eu503 2.363 . S
O536 C498 1.283 . S
O536 Eu504 2.363 . S
O537 C496 1.283 . S
O537 Eu504 2.363 . S
C538 O564 1.283 . S
C538 O582 1.283 . S
C539 O565 1.283 . S
C539 O580 1.283 . S
C540 O566 1.283 . S
C540 O583 1.283 . S
C541 O567 1.283 . S
C541 O581 1.283 . S
C542 O568 1.283 . S
C542 O577 1.283 . S
C543 O569 1.283 . S
C543 O579 1.283 . S
C544 O570 1.283 . S
C544 O576 1.283 . S
C545 O571 1.283 . S
C545 O578 1.283 . S
C546 O572 1.283 . S
C546 O587 1.283 . S
C547 O573 1.283 . S
C547 O585 1.283 . S
C548 O574 1.283 . S
C548 O586 1.283 . S
C549 O575 1.283 . S
C549 O584 1.283 . S
Eu550 O551 2.370 . S
Eu550 O552 2.370 . S
Eu550 O555 2.370 . S
Eu550 O556 2.370 . S
Eu550 O564 2.363 . S
Eu550 O565 2.363 . S
Eu550 O578 2.363 . S
Eu550 O579 2.363 . S
O551 Eu550 2.370 . S
O551 Eu553 2.363 1_565 S
O551 Eu558 2.364 1_565 S
O552 Eu550 2.370 . S
O552 Eu554 2.364 1_565 S
O552 Eu557 2.363 1_565 S
Eu553 O551 2.363 1_545 S
Eu553 O555 2.363 1_545 S
Eu553 O559 2.377 . S
Eu553 O560 2.377 . S
Eu553 O568 2.374 . S
Eu553 O569 2.352 1_545 S
Eu553 O584 2.363 . S
Eu553 O585 2.363 . S
Eu554 O552 2.364 1_545 S
Eu554 O556 2.364 1_545 S
Eu554 O561 2.377 . S
Eu554 O562 2.377 . S
Eu554 O570 2.374 . S
Eu554 O571 2.352 1_545 S
Eu554 O586 2.363 . S
Eu554 O587 2.363 . S
O555 Eu550 2.370 . S
O555 Eu553 2.363 1_565 S
O555 Eu557 2.363 1_565 S
O556 Eu550 2.370 . S
O556 Eu554 2.364 1_565 S
O556 Eu558 2.364 1_565 S
Eu557 O552 2.363 1_545 S
Eu557 O555 2.363 1_545 S
Eu557 O559 2.377 . S
Eu557 O562 2.377 . S
Eu557 O574 2.363 . S
Eu557 O575 2.363 . S
Eu557 O582 2.351 1_545 S
Eu557 O583 2.375 . S
Eu558 O551 2.364 1_545 S
Eu558 O556 2.364 1_545 S
Eu558 O560 2.376 . S
Eu558 O561 2.376 . S
Eu558 O572 2.363 . S
Eu558 O573 2.363 . S
Eu558 O580 2.353 1_545 S
Eu558 O581 2.373 . S
O559 Eu553 2.377 . S
O559 Eu557 2.377 . S
O559 Eu563 2.370 . S
O560 Eu553 2.377 . S
O560 Eu558 2.376 . S
O560 Eu563 2.370 . S
O561 Eu554 2.377 . S
O561 Eu558 2.376 . S
O561 Eu563 2.370 . S
O562 Eu554 2.377 . S
O562 Eu557 2.377 . S
O562 Eu563 2.370 . S
Eu563 O559 2.370 . S
Eu563 O560 2.370 . S
Eu563 O561 2.370 . S
Eu563 O562 2.370 . S
Eu563 O566 2.363 . S
Eu563 O567 2.363 . S
Eu563 O576 2.363 . S
Eu563 O577 2.363 . S
O564 C538 1.283 . S
O564 Eu550 2.363 . S
O565 C539 1.283 . S
O565 Eu550 2.363 . S
O566 C540 1.283 . S
O566 Eu563 2.363 . S
O567 C541 1.283 . S
O567 Eu563 2.363 . S
O568 C542 1.283 . S
O568 Eu553 2.374 . S
O569 C543 1.283 . S
O569 Eu553 2.352 1_565 S
O570 C544 1.283 . S
O570 Eu554 2.374 . S
O571 C545 1.283 . S
O571 Eu554 2.352 1_565 S
O572 C546 1.283 . S
O572 Eu558 2.363 . S
O573 C547 1.283 . S
O573 Eu558 2.363 . S
O574 C548 1.283 . S
O574 Eu557 2.363 . S
O575 C549 1.283 . S
O575 Eu557 2.363 . S
O576 C544 1.283 . S
O576 Eu563 2.363 . S
O577 C542 1.283 . S
O577 Eu563 2.363 . S
O578 C545 1.283 . S
O578 Eu550 2.363 . S
O579 C543 1.283 . S
O579 Eu550 2.363 . S
O580 C539 1.283 . S
O580 Eu558 2.353 1_565 S
O581 C541 1.283 . S
O581 Eu558 2.373 . S
O582 C538 1.283 . S
O582 Eu557 2.351 1_565 S
O583 C540 1.283 . S
O583 Eu557 2.375 . S
O584 C549 1.283 . S
O584 Eu553 2.363 . S
O585 C547 1.283 . S
O585 Eu553 2.363 . S
O586 C548 1.283 . S
O586 Eu554 2.363 . S
O587 C546 1.283 . S
O587 Eu554 2.363 . S
C588 C589 1.369 . S
C588 C590 1.419 . S
C588 H592 0.930 . S
C589 C588 1.369 . S
C589 C598 1.429 . S
C590 C588 1.419 . S
C590 C591 1.363 . S
C590 H593 0.929 . S
C591 C590 1.363 . S
C591 C597 1.428 . S
H592 C588 0.930 . S
H593 C590 0.929 . S
S594 N595 1.613 . S
S594 N596 1.610 . S
N595 S594 1.613 . S
N595 C598 1.350 . S
N596 S594 1.610 . S
N596 C597 1.351 . S
C597 C591 1.428 . S
C597 N596 1.351 . S
C597 C598 1.434 . S
C598 C589 1.429 . S
C598 N595 1.350 . S
C598 C597 1.434 . S
C599 C600 1.369 . S
C599 C601 1.419 . S
C599 H603 0.930 . S
C600 C599 1.369 . S
C600 C609 1.429 . S
C601 C599 1.419 . S
C601 C602 1.363 . S
C601 H604 0.929 . S
C602 C601 1.363 . S
C602 C608 1.428 . S
H603 C599 0.930 . S
H604 C601 0.929 . S
S605 N606 1.613 . S
S605 N607 1.610 . S
N606 S605 1.613 . S
N606 C609 1.350 . S
N607 S605 1.610 . S
N607 C608 1.351 . S
C608 C602 1.428 . S
C608 N607 1.351 . S
C608 C609 1.434 . S
C609 C600 1.429 . S
C609 N606 1.350 . S
C609 C608 1.434 . S
C610 C611 1.369 . S
C610 C612 1.419 . S
C610 H614 0.930 . S
C611 C610 1.369 . S
C611 C620 1.429 . S
C612 C610 1.419 . S
C612 C613 1.363 . S
C612 H615 0.929 . S
C613 C612 1.363 . S
C613 C619 1.428 . S
H614 C610 0.930 . S
H615 C612 0.929 . S
S616 N617 1.613 . S
S616 N618 1.610 . S
N617 S616 1.613 . S
N617 C620 1.350 . S
N618 S616 1.610 . S
N618 C619 1.351 . S
C619 C613 1.428 . S
C619 N618 1.351 . S
C619 C620 1.434 . S
C620 C611 1.429 . S
C620 N617 1.350 . S
C620 C619 1.434 . S
C621 C622 1.369 . S
C621 C623 1.419 . S
C621 H625 0.930 . S
C622 C621 1.369 . S
C622 C631 1.429 . S
C623 C621 1.419 . S
C623 C624 1.363 . S
C623 H626 0.929 . S
C624 C623 1.363 . S
C624 C630 1.428 . S
H625 C621 0.930 . S
H626 C623 0.929 . S
S627 N628 1.613 . S
S627 N629 1.610 . S
N628 S627 1.613 . S
N628 C631 1.350 . S
N629 S627 1.610 . S
N629 C630 1.351 . S
C630 C624 1.428 . S
C630 N629 1.351 . S
C630 C631 1.434 . S
C631 C622 1.429 . S
C631 N628 1.350 . S
C631 C630 1.434 . S
C632 C633 1.369 . S
C632 C634 1.419 . S
C632 H636 0.930 . S
C633 C632 1.369 . S
C633 C642 1.429 . S
C634 C632 1.419 . S
C634 C635 1.363 . S
C634 H637 0.929 . S
C635 C634 1.363 . S
C635 C641 1.428 . S
H636 C632 0.930 . S
H637 C634 0.929 . S
S638 N639 1.613 . S
S638 N640 1.610 . S
N639 S638 1.613 . S
N639 C642 1.350 . S
N640 S638 1.610 . S
N640 C641 1.351 . S
C641 C635 1.428 . S
C641 N640 1.351 . S
C641 C642 1.434 . S
C642 C633 1.429 . S
C642 N639 1.350 . S
C642 C641 1.434 . S
C643 C644 1.369 . S
C643 C645 1.419 . S
C643 H647 0.930 . S
C644 C643 1.369 . S
C644 C653 1.429 . S
C645 C643 1.419 . S
C645 C646 1.363 . S
C645 H648 0.929 . S
C646 C645 1.363 . S
C646 C652 1.428 . S
H647 C643 0.930 . S
H648 C645 0.929 . S
S649 N650 1.613 . S
S649 N651 1.610 . S
N650 S649 1.613 . S
N650 C653 1.350 . S
N651 S649 1.610 . S
N651 C652 1.351 . S
C652 C646 1.428 . S
C652 N651 1.351 . S
C652 C653 1.434 . S
C653 C644 1.429 . S
C653 N650 1.350 . S
C653 C652 1.434 . S
C654 C655 1.369 . S
C654 C656 1.419 . S
C654 H658 0.930 . S
C655 C654 1.369 . S
C655 C664 1.429 . S
C656 C654 1.419 . S
C656 C657 1.363 . S
C656 H659 0.929 . S
C657 C656 1.363 . S
C657 C663 1.428 . S
H658 C654 0.930 . S
H659 C656 0.929 . S
S660 N661 1.613 . S
S660 N662 1.610 . S
N661 S660 1.613 . S
N661 C664 1.350 . S
N662 S660 1.610 . S
N662 C663 1.351 . S
C663 C657 1.428 . S
C663 N662 1.351 . S
C663 C664 1.434 . S
C664 C655 1.429 . S
C664 N661 1.350 . S
C664 C663 1.434 . S
C665 C666 1.369 . S
C665 C667 1.419 . S
C665 H669 0.930 . S
C666 C665 1.369 . S
C666 C675 1.429 . S
C667 C665 1.419 . S
C667 C668 1.363 . S
C667 H670 0.929 . S
C668 C667 1.363 . S
C668 C674 1.428 . S
H669 C665 0.930 . S
H670 C667 0.929 . S
S671 N672 1.613 . S
S671 N673 1.610 . S
N672 S671 1.613 . S
N672 C675 1.350 . S
N673 S671 1.610 . S
N673 C674 1.351 . S
C674 C668 1.428 . S
C674 N673 1.351 . S
C674 C675 1.434 . S
C675 C666 1.429 . S
C675 N672 1.350 . S
C675 C674 1.434 . S
C676 C677 1.369 . S
C676 C678 1.419 . S
C676 H680 0.930 . S
C677 C676 1.369 . S
C677 C686 1.429 . S
C678 C676 1.419 . S
C678 C679 1.363 . S
C678 H681 0.929 . S
C679 C678 1.363 . S
C679 C685 1.428 . S
H680 C676 0.930 . S
H681 C678 0.929 . S
S682 N683 1.613 . S
S682 N684 1.610 . S
N683 S682 1.613 . S
N683 C686 1.350 . S
N684 S682 1.610 . S
N684 C685 1.351 . S
C685 C679 1.428 . S
C685 N684 1.351 . S
C685 C686 1.434 . S
C686 C677 1.429 . S
C686 N683 1.350 . S
C686 C685 1.434 . S
C687 C688 1.369 . S
C687 C689 1.419 . S
C687 H691 0.930 . S
C688 C687 1.369 . S
C688 C697 1.429 . S
C689 C687 1.419 . S
C689 C690 1.363 . S
C689 H692 0.929 . S
C690 C689 1.363 . S
C690 C696 1.428 . S
H691 C687 0.930 . S
H692 C689 0.929 . S
S693 N694 1.613 . S
S693 N695 1.610 . S
N694 S693 1.613 . S
N694 C697 1.350 . S
N695 S693 1.610 . S
N695 C696 1.351 . S
C696 C690 1.428 . S
C696 N695 1.351 . S
C696 C697 1.434 . S
C697 C688 1.429 . S
C697 N694 1.350 . S
C697 C696 1.434 . S
C698 C699 1.369 . S
C698 C700 1.419 . S
C698 H702 0.930 . S
C699 C698 1.369 . S
C699 C708 1.429 . S
C700 C698 1.419 . S
C700 C701 1.363 . S
C700 H703 0.929 . S
C701 C700 1.363 . S
C701 C707 1.428 . S
H702 C698 0.930 . S
H703 C700 0.929 . S
S704 N705 1.613 . S
S704 N706 1.610 . S
N705 S704 1.613 . S
N705 C708 1.350 . S
N706 S704 1.610 . S
N706 C707 1.351 . S
C707 C701 1.428 . S
C707 N706 1.351 . S
C707 C708 1.434 . S
C708 C699 1.429 . S
C708 N705 1.350 . S
C708 C707 1.434 . S
C709 C710 1.369 . S
C709 C711 1.419 . S
C709 H713 0.930 . S
C710 C709 1.369 . S
C710 C719 1.429 . S
C711 C709 1.419 . S
C711 C712 1.363 . S
C711 H714 0.929 . S
C712 C711 1.363 . S
C712 C718 1.428 . S
H713 C709 0.930 . S
H714 C711 0.929 . S
S715 N716 1.613 . S
S715 N717 1.610 . S
N716 S715 1.613 . S
N716 C719 1.350 . S
N717 S715 1.610 . S
N717 C718 1.351 . S
C718 C712 1.428 . S
C718 N717 1.351 . S
C718 C719 1.434 . S
C719 C710 1.429 . S
C719 N716 1.350 . S
C719 C718 1.434 . S
C720 C721 1.369 . S
C720 C722 1.419 . S
C720 H724 0.930 . S
C721 C720 1.369 . S
C721 C730 1.429 1_554 S
C722 C720 1.419 . S
C722 C723 1.363 . S
C722 H725 0.929 . S
C723 C722 1.363 . S
C723 C729 1.428 1_554 S
H724 C720 0.930 . S
H725 C722 0.929 . S
S726 N727 1.613 . S
S726 N728 1.610 . S
N727 S726 1.613 . S
N727 C730 1.350 . S
N728 S726 1.610 . S
N728 C729 1.351 . S
C729 C723 1.428 1_556 S
C729 N728 1.351 . S
C729 C730 1.434 . S
C730 C721 1.429 1_556 S
C730 N727 1.350 . S
C730 C729 1.434 . S
C731 C732 1.369 1_556 S
C731 C733 1.419 . S
C731 H735 0.930 . S
C732 C731 1.369 1_554 S
C732 C741 1.429 . S
C733 C731 1.419 . S
C733 C734 1.363 1_556 S
C733 H736 0.929 . S
C734 C733 1.363 1_554 S
C734 C740 1.428 . S
H735 C731 0.930 . S
H736 C733 0.929 . S
S737 N738 1.613 . S
S737 N739 1.610 . S
N738 S737 1.613 . S
N738 C741 1.350 . S
N739 S737 1.610 . S
N739 C740 1.351 . S
C740 C734 1.428 . S
C740 N739 1.351 . S
C740 C741 1.434 . S
C741 C732 1.429 . S
C741 N738 1.350 . S
C741 C740 1.434 . S
C742 C743 1.369 . S
C742 C744 1.419 . S
C742 H746 0.930 . S
C743 C742 1.369 . S
C743 C752 1.429 1_554 S
C744 C742 1.419 . S
C744 C745 1.363 . S
C744 H747 0.929 . S
C745 C744 1.363 . S
C745 C751 1.428 1_554 S
H746 C742 0.930 . S
H747 C744 0.929 . S
S748 N749 1.613 . S
S748 N750 1.610 . S
N749 S748 1.613 . S
N749 C752 1.350 . S
N750 S748 1.610 . S
N750 C751 1.351 . S
C751 C745 1.428 1_556 S
C751 N750 1.351 . S
C751 C752 1.434 . S
C752 C743 1.429 1_556 S
C752 N749 1.350 . S
C752 C751 1.434 . S
C753 C754 1.369 . S
C753 C755 1.419 . S
C753 H757 0.930 . S
C754 C753 1.369 . S
C754 C763 1.429 1_554 S
C755 C753 1.419 . S
C755 C756 1.363 . S
C755 H758 0.929 . S
C756 C755 1.363 . S
C756 C762 1.428 1_554 S
H757 C753 0.930 . S
H758 C755 0.929 . S
S759 N760 1.613 . S
S759 N761 1.610 . S
N760 S759 1.613 . S
N760 C763 1.350 . S
N761 S759 1.610 . S
N761 C762 1.351 . S
C762 C756 1.428 1_556 S
C762 N761 1.351 . S
C762 C763 1.434 . S
C763 C754 1.429 1_556 S
C763 N760 1.350 . S
C763 C762 1.434 . S
C764 C765 1.369 . S
C764 C766 1.419 . S
C764 H768 0.930 . S
C765 C764 1.369 . S
C765 C774 1.429 1_455 S
C766 C764 1.419 . S
C766 C767 1.363 . S
C766 H769 0.929 . S
C767 C766 1.363 . S
C767 C773 1.428 1_455 S
H768 C764 0.930 . S
H769 C766 0.929 . S
S770 N771 1.613 . S
S770 N772 1.610 . S
N771 S770 1.613 . S
N771 C774 1.350 . S
N772 S770 1.610 . S
N772 C773 1.351 . S
C773 C767 1.428 1_655 S
C773 N772 1.351 . S
C773 C774 1.434 . S
C774 C765 1.429 1_655 S
C774 N771 1.350 . S
C774 C773 1.434 . S
C775 C776 1.369 1_565 S
C775 C777 1.419 . S
C775 H779 0.930 . S
C776 C775 1.369 1_545 S
C776 C785 1.429 . S
C777 C775 1.419 . S
C777 C778 1.347 1_565 S
C777 H780 0.929 . S
C778 C777 1.347 1_545 S
C778 C784 1.446 . S
H779 C775 0.930 . S
H780 C777 0.929 . S
S781 N782 1.613 . S
S781 N783 1.610 . S
N782 S781 1.613 . S
N782 C785 1.350 . S
N783 S781 1.610 . S
N783 C784 1.351 . S
C784 C778 1.446 . S
C784 N783 1.351 . S
C784 C785 1.434 . S
C785 C776 1.429 . S
C785 N782 1.350 . S
C785 C784 1.434 . S
C786 C787 1.369 . S
C786 C788 1.419 . S
C786 H790 0.930 . S
C787 C786 1.369 . S
C787 C796 1.429 1_455 S
C788 C786 1.419 . S
C788 C789 1.363 . S
C788 H791 0.929 . S
C789 C788 1.363 . S
C789 C795 1.428 1_455 S
H790 C786 0.930 . S
H791 C788 0.929 . S
S792 N793 1.613 . S
S792 N794 1.610 . S
N793 S792 1.613 . S
N793 C796 1.350 . S
N794 S792 1.610 . S
N794 C795 1.351 . S
C795 C789 1.428 1_655 S
C795 N794 1.351 . S
C795 C796 1.434 . S
C796 C787 1.429 1_655 S
C796 N793 1.350 . S
C796 C795 1.434 . S
C797 C798 1.369 . S
C797 C799 1.419 . S
C797 H801 0.930 . S
C798 C797 1.369 . S
C798 C807 1.429 1_545 S
C799 C797 1.419 . S
C799 C800 1.364 . S
C799 H802 0.929 . S
C800 C799 1.364 . S
C800 C806 1.427 1_545 S
H801 C797 0.930 . S
H802 C799 0.929 . S
S803 N804 1.613 . S
S803 N805 1.610 . S
N804 S803 1.613 . S
N804 C807 1.350 . S
N805 S803 1.610 . S
N805 C806 1.351 . S
C806 C800 1.427 1_565 S
C806 N805 1.351 . S
C806 C807 1.434 . S
C807 C798 1.429 1_565 S
C807 N804 1.350 . S
C807 C806 1.434 . S
C808 C809 1.369 1_655 S
C808 C810 1.419 . S
C808 H812 0.930 . S
C809 C808 1.369 1_455 S
C809 C818 1.429 . S
C810 C808 1.419 . S
C810 C811 1.363 1_655 S
C810 H813 0.929 . S
C811 C810 1.363 1_455 S
C811 C817 1.428 . S
H812 C808 0.930 . S
H813 C810 0.929 . S
S814 N815 1.613 . S
S814 N816 1.610 . S
N815 S814 1.613 . S
N815 C818 1.350 . S
N816 S814 1.610 . S
N816 C817 1.351 . S
C817 C811 1.428 . S
C817 N816 1.351 . S
C817 C818 1.434 . S
C818 C809 1.429 . S
C818 N815 1.350 . S
C818 C817 1.434 . S
C819 C820 1.366 1_565 S
C819 C821 1.419 . S
C819 H823 0.930 . S
C820 C819 1.366 1_545 S
C820 C829 1.431 . S
C821 C819 1.419 . S
C821 C822 1.359 1_565 S
C821 H824 0.929 . S
C822 C821 1.359 1_545 S
C822 C828 1.432 . S
H823 C819 0.930 . S
H824 C821 0.929 . S
S825 N826 1.613 . S
S825 N827 1.610 . S
N826 S825 1.613 . S
N826 C829 1.350 . S
N827 S825 1.610 . S
N827 C828 1.351 . S
C828 C822 1.432 . S
C828 N827 1.351 . S
C828 C829 1.434 . S
C829 C820 1.431 . S
C829 N826 1.350 . S
C829 C828 1.434 . S
C830 C831 1.369 . S
C830 C832 1.419 . S
C830 H834 0.930 . S
C831 C830 1.369 . S
C831 C840 1.429 1_455 S
C832 C830 1.419 . S
C832 C833 1.363 . S
C832 H835 0.929 . S
C833 C832 1.363 . S
C833 C839 1.428 1_455 S
H834 C830 0.930 . S
H835 C832 0.929 . S
S836 N837 1.613 . S
S836 N838 1.610 . S
N837 S836 1.613 . S
N837 C840 1.350 . S
N838 S836 1.610 . S
N838 C839 1.351 . S
C839 C833 1.428 1_655 S
C839 N838 1.351 . S
C839 C840 1.434 . S
C840 C831 1.429 1_655 S
C840 N837 1.350 . S
C840 C839 1.434 . S
C841 C842 1.370 . S
C841 C843 1.419 . S
C841 H845 0.930 . S
C842 C841 1.370 . S
C842 C851 1.428 1_545 S
C843 C841 1.419 . S
C843 C844 1.365 . S
C843 H846 0.929 . S
C844 C843 1.365 . S
C844 C850 1.426 1_545 S
H845 C841 0.930 . S
H846 C843 0.929 . S
S847 N848 1.613 . S
S847 N849 1.610 . S
N848 S847 1.613 . S
N848 C851 1.350 . S
N849 S847 1.610 . S
N849 C850 1.351 . S
C850 C844 1.426 1_565 S
C850 N849 1.351 . S
C850 C851 1.434 . S
C851 C842 1.428 1_565 S
C851 N848 1.350 . S
C851 C850 1.434 . S
C852 C853 1.369 . S
C852 C854 1.419 . S
C852 H856 0.930 . S
C853 C852 1.369 . S
C853 C862 1.429 1_455 S
C854 C852 1.419 . S
C854 C855 1.363 . S
C854 H857 0.929 . S
C855 C854 1.363 . S
C855 C861 1.428 1_455 S
H856 C852 0.930 . S
H857 C854 0.929 . S
S858 N859 1.613 . S
S858 N860 1.610 . S
N859 S858 1.613 . S
N859 C862 1.350 . S
N860 S858 1.610 . S
N860 C861 1.351 . S
C861 C855 1.428 1_655 S
C861 N860 1.351 . S
C861 C862 1.434 . S
C862 C853 1.429 1_655 S
C862 N859 1.350 . S
C862 C861 1.434 . S
C863 C864 1.372 1_545 S
C863 C865 1.419 . S
C863 H867 0.930 . S
C864 C863 1.372 1_565 S
C864 C873 1.426 . S
C865 C863 1.419 . S
C865 C866 1.364 . S
C865 H868 0.929 . S
C866 C865 1.364 . S
C866 C872 1.428 1_545 S
H867 C863 0.930 . S
H868 C865 0.929 . S
S869 N870 1.613 . S
S869 N871 1.610 . S
N870 S869 1.613 . S
N870 C873 1.350 . S
N871 S869 1.610 . S
N871 C872 1.351 . S
C872 C866 1.428 1_565 S
C872 N871 1.351 . S
C872 C873 1.434 . S
C873 C864 1.426 . S
C873 N870 1.350 . S
C873 C872 1.434 . S
C874 C875 1.369 . S
C874 C876 1.419 . S
C874 H878 0.930 . S
C875 C874 1.369 . S
C875 C884 1.429 1_455 S
C876 C874 1.419 . S
C876 C877 1.363 . S
C876 H879 0.929 . S
C877 C876 1.363 . S
C877 C883 1.428 1_455 S
H878 C874 0.930 . S
H879 C876 0.929 . S
S880 N881 1.613 . S
S880 N882 1.610 . S
N881 S880 1.613 . S
N881 C884 1.350 . S
N882 S880 1.610 . S
N882 C883 1.351 . S
C883 C877 1.428 1_655 S
C883 N882 1.351 . S
C883 C884 1.434 . S
C884 C875 1.429 1_655 S
C884 N881 1.350 . S
C884 C883 1.434 . S
C885 C886 1.372 . S
C885 C887 1.419 . S
C885 H889 0.930 . S
C886 C885 1.372 . S
C886 C895 1.426 1_545 S
C887 C885 1.419 . S
C887 C888 1.366 . S
C887 H890 0.929 . S
C888 C887 1.366 . S
C888 C894 1.426 1_545 S
H889 C885 0.930 . S
H890 C887 0.929 . S
S891 N892 1.613 . S
S891 N893 1.610 . S
N892 S891 1.613 . S
N892 C895 1.350 . S
N893 S891 1.610 . S
N893 C894 1.351 . S
C894 C888 1.426 1_565 S
C894 N893 1.351 . S
C894 C895 1.434 . S
C895 C886 1.426 1_565 S
C895 N892 1.350 . S
C895 C894 1.434 . S
C896 C897 1.369 1_655 S
C896 C898 1.419 . S
C896 H900 0.930 . S
C897 C896 1.369 1_455 S
C897 C906 1.429 . S
C898 C896 1.419 . S
C898 C899 1.363 1_655 S
C898 H901 0.929 . S
C899 C898 1.363 1_455 S
C899 C905 1.428 . S
H900 C896 0.930 . S
H901 C898 0.929 . S
S902 N903 1.613 . S
S902 N904 1.610 . S
N903 S902 1.613 . S
N903 C906 1.350 . S
N904 S902 1.610 . S
N904 C905 1.351 . S
C905 C899 1.428 . S
C905 N904 1.351 . S
C905 C906 1.434 . S
C906 C897 1.429 . S
C906 N903 1.350 . S
C906 C905 1.434 . S
C907 C908 1.375 . S
C907 C909 1.419 . S
C907 H911 0.930 . S
C908 C907 1.375 . S
C908 C917 1.423 1_545 S
C909 C907 1.419 . S
C909 C910 1.368 . S
C909 H912 0.929 . S
C910 C909 1.368 . S
C910 C916 1.424 1_545 S
H911 C907 0.930 . S
H912 C909 0.929 . S
S913 N914 1.613 . S
S913 N915 1.610 . S
N914 S913 1.613 . S
N914 C917 1.350 . S
N915 S913 1.610 . S
N915 C916 1.351 . S
C916 C910 1.424 1_565 S
C916 N915 1.351 . S
C916 C917 1.434 . S
C917 C908 1.423 1_565 S
C917 N914 1.350 . S
C917 C916 1.434 . S
C918 C919 1.369 . S
C918 C920 1.419 . S
C918 H922 0.930 . S
C919 C918 1.369 . S
C919 C928 1.429 1_455 S
C920 C918 1.419 . S
C920 C921 1.363 . S
C920 H923 0.929 . S
C921 C920 1.363 . S
C921 C927 1.428 1_455 S
H922 C918 0.930 . S
H923 C920 0.929 . S
S924 N925 1.613 . S
S924 N926 1.610 . S
N925 S924 1.613 . S
N925 C928 1.350 . S
N926 S924 1.610 . S
N926 C927 1.351 . S
C927 C921 1.428 1_655 S
C927 N926 1.351 . S
C927 C928 1.434 . S
C928 C919 1.429 1_655 S
C928 N925 1.350 . S
C928 C927 1.434 . S
C929 C930 1.344 1_565 S
C929 C931 1.419 . S
C929 H933 0.930 . S
C930 C929 1.344 1_545 S
C930 C939 1.454 . S
C931 C929 1.419 . S
C931 C932 1.341 1_565 S
C931 H934 0.929 . S
C932 C931 1.341 1_545 S
C932 C938 1.452 . S
H933 C929 0.930 . S
H934 C931 0.929 . S
S935 N936 1.613 . S
S935 N937 1.610 . S
N936 S935 1.613 . S
N936 C939 1.350 . S
N937 S935 1.610 . S
N937 C938 1.351 . S
C938 C932 1.452 . S
C938 N937 1.351 . S
C938 C939 1.434 . S
C939 C930 1.454 . S
C939 N936 1.350 . S
C939 C938 1.434 . S
C940 C941 1.350 1_565 S
C940 C942 1.419 . S
C940 H944 0.930 . S
C941 C940 1.350 1_545 S
C941 C950 1.448 . S
C942 C940 1.419 . S
C942 C943 1.351 1_565 S
C942 H945 0.929 . S
C943 C942 1.351 1_545 S
C943 C949 1.440 . S
H944 C940 0.930 . S
H945 C942 0.929 . S
S946 N947 1.613 . S
S946 N948 1.610 . S
N947 S946 1.613 . S
N947 C950 1.350 . S
N948 S946 1.610 . S
N948 C949 1.351 . S
C949 C943 1.440 . S
C949 N948 1.351 . S
C949 C950 1.434 . S
C950 C941 1.448 . S
C950 N947 1.350 . S
C950 C949 1.434 . S
C951 C952 1.369 1_655 S
C951 C953 1.419 . S
C951 H955 0.930 . S
C952 C951 1.369 1_455 S
C952 C961 1.429 . S
C953 C951 1.419 . S
C953 C954 1.363 1_655 S
C953 H956 0.929 . S
C954 C953 1.363 1_455 S
C954 C960 1.428 . S
H955 C951 0.930 . S
H956 C953 0.929 . S
S957 N958 1.613 . S
S957 N959 1.610 . S
N958 S957 1.613 . S
N958 C961 1.350 . S
N959 S957 1.610 . S
N959 C960 1.351 . S
C960 C954 1.428 . S
C960 N959 1.351 . S
C960 C961 1.434 . S
C961 C952 1.429 . S
C961 N958 1.350 . S
C961 C960 1.434 . S
C962 C963 1.369 1_545 S
C962 C964 1.419 . S
C962 H966 0.930 . S
C963 C962 1.369 1_565 S
C963 C972 1.429 . S
C964 C962 1.419 . S
C964 C965 1.362 1_545 S
C964 H967 0.929 . S
C965 C964 1.362 1_565 S
C965 C971 1.429 . S
H966 C962 0.930 . S
H967 C964 0.929 . S
S968 N969 1.613 . S
S968 N970 1.610 . S
N969 S968 1.613 . S
N969 C972 1.350 . S
N970 S968 1.610 . S
N970 C971 1.351 . S
C971 C965 1.429 . S
C971 N970 1.351 . S
C971 C972 1.434 . S
C972 C963 1.429 . S
C972 N969 1.350 . S
C972 C971 1.434 . S
C973 C974 1.369 1_655 S
C973 C975 1.419 . S
C973 H977 0.930 . S
C974 C973 1.369 1_455 S
C974 C983 1.429 . S
C975 C973 1.419 . S
C975 C976 1.363 1_655 S
C975 H978 0.929 . S
C976 C975 1.363 1_455 S
C976 C982 1.428 . S
H977 C973 0.930 . S
H978 C975 0.929 . S
S979 N980 1.613 . S
S979 N981 1.610 . S
N980 S979 1.613 . S
N980 C983 1.350 . S
N981 S979 1.610 . S
N981 C982 1.351 . S
C982 C976 1.428 . S
C982 N981 1.351 . S
C982 C983 1.434 . S
C983 C974 1.429 . S
C983 N980 1.350 . S
C983 C982 1.434 . S
C984 C985 1.373 . S
C984 C986 1.419 . S
C984 H988 0.930 . S
C985 C984 1.373 . S
C985 C994 1.426 1_545 S
C986 C984 1.419 . S
C986 C987 1.367 . S
C986 H989 0.929 . S
C987 C986 1.367 . S
C987 C993 1.425 1_545 S
H988 C984 0.930 . S
H989 C986 0.929 . S
S990 N991 1.613 . S
S990 N992 1.610 . S
N991 S990 1.613 . S
N991 C994 1.350 . S
N992 S990 1.610 . S
N992 C993 1.351 . S
C993 C987 1.425 1_565 S
C993 N992 1.351 . S
C993 C994 1.434 . S
C994 C985 1.426 1_565 S
C994 N991 1.350 . S
C994 C993 1.434 . S
C995 C996 1.369 . S
C995 C997 1.419 . S
C995 H999 0.930 . S
C996 C995 1.369 . S
C996 C1005 1.429 1_455 S
C997 C995 1.419 . S
C997 C998 1.363 . S
C997 H1000 0.929 . S
C998 C997 1.363 . S
C998 C1004 1.427 1_455 S
H999 C995 0.930 . S
H1000 C997 0.929 . S
S1001 N1002 1.613 . S
S1001 N1003 1.610 . S
N1002 S1001 1.613 . S
N1002 C1005 1.350 . S
N1003 S1001 1.610 . S
N1003 C1004 1.352 . S
C1004 C998 1.427 1_655 S
C1004 N1003 1.352 . S
C1004 C1005 1.434 . S
C1005 C996 1.429 1_655 S
C1005 N1002 1.350 . S
C1005 C1004 1.434 . S
C1006 C1007 1.366 1_565 S
C1006 C1008 1.419 . S
C1006 H1010 0.930 . S
C1007 C1006 1.366 1_545 S
C1007 C1016 1.433 . S
C1008 C1006 1.419 . S
C1008 C1009 1.360 1_565 S
C1008 H1011 0.929 . S
C1009 C1008 1.360 1_545 S
C1009 C1015 1.433 . S
H1010 C1006 0.930 . S
H1011 C1008 0.929 . S
S1012 N1013 1.613 . S
S1012 N1014 1.610 . S
N1013 S1012 1.613 . S
N1013 C1016 1.350 . S
N1014 S1012 1.610 . S
N1014 C1015 1.351 . S
C1015 C1009 1.433 . S
C1015 N1014 1.351 . S
C1015 C1016 1.434 . S
C1016 C1007 1.433 . S
C1016 N1013 1.350 . S
C1016 C1015 1.434 . S
C1017 C1018 1.369 . S
C1017 C1019 1.419 . S
C1017 H1021 0.930 . S
C1018 C1017 1.369 . S
C1018 C1027 1.429 1_455 S
C1019 C1017 1.419 . S
C1019 C1020 1.363 . S
C1019 H1022 0.929 . S
C1020 C1019 1.363 . S
C1020 C1026 1.428 1_455 S
H1021 C1017 0.930 . S
H1022 C1019 0.929 . S
S1023 N1024 1.613 . S
S1023 N1025 1.610 . S
N1024 S1023 1.613 . S
N1024 C1027 1.350 . S
N1025 S1023 1.610 . S
N1025 C1026 1.351 . S
C1026 C1020 1.428 1_655 S
C1026 N1025 1.351 . S
C1026 C1027 1.434 . S
C1027 C1018 1.429 1_655 S
C1027 N1024 1.350 . S
C1027 C1026 1.434 . S
C1028 C1029 1.369 . S
C1028 C1030 1.419 . S
C1028 H1032 0.930 . S
C1029 C1028 1.369 . S
C1029 C1038 1.429 . S
C1030 C1028 1.419 . S
C1030 C1031 1.363 . S
C1030 H1033 0.929 . S
C1031 C1030 1.363 . S
C1031 C1037 1.428 . S
H1032 C1028 0.930 . S
H1033 C1030 0.929 . S
S1034 N1035 1.613 . S
S1034 N1036 1.611 . S
N1035 S1034 1.613 . S
N1035 C1038 1.350 1_556 S
N1036 S1034 1.611 . S
N1036 C1037 1.350 1_556 S
C1037 C1031 1.428 . S
C1037 N1036 1.350 1_554 S
C1037 C1038 1.434 . S
C1038 C1029 1.429 . S
C1038 N1035 1.350 1_554 S
C1038 C1037 1.434 . S
C1039 C1040 1.369 1_556 S
C1039 C1041 1.419 . S
C1039 H1043 0.930 . S
C1040 C1039 1.369 1_554 S
C1040 C1049 1.429 . S
C1041 C1039 1.419 . S
C1041 C1042 1.363 1_556 S
C1041 H1044 0.929 . S
C1042 C1041 1.363 1_554 S
C1042 C1048 1.428 . S
H1043 C1039 0.930 . S
H1044 C1041 0.929 . S
S1045 N1046 1.613 . S
S1045 N1047 1.610 . S
N1046 S1045 1.613 . S
N1046 C1049 1.350 . S
N1047 S1045 1.610 . S
N1047 C1048 1.351 . S
C1048 C1042 1.428 . S
C1048 N1047 1.351 . S
C1048 C1049 1.434 . S
C1049 C1040 1.429 . S
C1049 N1046 1.350 . S
C1049 C1048 1.434 . S
C1050 C1051 1.369 1_556 S
C1050 C1052 1.419 . S
C1050 H1054 0.930 . S
C1051 C1050 1.369 1_554 S
C1051 C1060 1.429 . S
C1052 C1050 1.419 . S
C1052 C1053 1.363 1_556 S
C1052 H1055 0.929 . S
C1053 C1052 1.363 1_554 S
C1053 C1059 1.428 . S
H1054 C1050 0.930 . S
H1055 C1052 0.929 . S
S1056 N1057 1.613 . S
S1056 N1058 1.610 . S
N1057 S1056 1.613 . S
N1057 C1060 1.350 . S
N1058 S1056 1.610 . S
N1058 C1059 1.351 . S
C1059 C1053 1.428 . S
C1059 N1058 1.351 . S
C1059 C1060 1.434 . S
C1060 C1051 1.429 . S
C1060 N1057 1.350 . S
C1060 C1059 1.434 . S
C1061 C1062 1.369 . S
C1061 C1063 1.419 . S
C1061 H1065 0.930 . S
C1062 C1061 1.369 . S
C1062 C1071 1.429 1_554 S
C1063 C1061 1.419 . S
C1063 C1064 1.363 . S
C1063 H1066 0.929 . S
C1064 C1063 1.363 . S
C1064 C1070 1.428 1_554 S
H1065 C1061 0.930 . S
H1066 C1063 0.929 . S
S1067 N1068 1.613 . S
S1067 N1069 1.610 . S
N1068 S1067 1.613 . S
N1068 C1071 1.350 . S
N1069 S1067 1.610 . S
N1069 C1070 1.351 . S
C1070 C1064 1.428 1_556 S
C1070 N1069 1.351 . S
C1070 C1071 1.434 . S
C1071 C1062 1.429 1_556 S
C1071 N1068 1.350 . S
C1071 C1070 1.434 . S
C1072 C1073 1.369 1_556 S
C1072 C1074 1.418 . S
C1072 H1076 0.931 . S
C1073 C1072 1.369 1_554 S
C1073 C1082 1.429 . S
C1074 C1072 1.418 . S
C1074 C1075 1.359 1_556 S
C1074 H1077 0.935 . S
C1075 C1074 1.359 1_554 S
C1075 C1081 1.428 . S
H1076 C1072 0.931 . S
H1077 C1074 0.935 . S
S1078 N1079 1.613 . S
S1078 N1080 1.610 . S
N1079 S1078 1.613 . S
N1079 C1082 1.350 . S
N1080 S1078 1.610 . S
N1080 C1081 1.351 . S
C1081 C1075 1.428 . S
C1081 N1080 1.351 . S
C1081 C1082 1.434 . S
C1082 C1073 1.429 . S
C1082 N1079 1.350 . S
C1082 C1081 1.434 . S
C1083 C1084 1.369 . S
C1083 C1085 1.419 . S
C1083 H1087 0.930 . S
C1084 C1083 1.369 . S
C1084 C1093 1.429 1_554 S
C1085 C1083 1.419 . S
C1085 C1086 1.363 . S
C1085 H1088 0.929 . S
C1086 C1085 1.363 . S
C1086 C1092 1.428 1_554 S
H1087 C1083 0.930 . S
H1088 C1085 0.929 . S
S1089 N1090 1.613 . S
S1089 N1091 1.610 . S
N1090 S1089 1.613 . S
N1090 C1093 1.350 . S
N1091 S1089 1.610 . S
N1091 C1092 1.351 . S
C1092 C1086 1.428 1_556 S
C1092 N1091 1.351 . S
C1092 C1093 1.434 . S
C1093 C1084 1.429 1_556 S
C1093 N1090 1.350 . S
C1093 C1092 1.434 . S
C1094 C1095 1.369 . S
C1094 C1096 1.419 . S
C1094 H1098 0.930 . S
C1095 C1094 1.369 . S
C1095 C1104 1.429 . S
C1096 C1094 1.419 . S
C1096 C1097 1.363 . S
C1096 H1099 0.929 . S
C1097 C1096 1.363 . S
C1097 C1103 1.429 . S
H1098 C1094 0.930 . S
H1099 C1096 0.929 . S
S1100 N1101 1.614 . S
S1100 N1102 1.610 . S
N1101 S1100 1.614 . S
N1101 C1104 1.349 1_556 S
N1102 S1100 1.610 . S
N1102 C1103 1.350 1_556 S
C1103 C1097 1.429 . S
C1103 N1102 1.350 1_554 S
C1103 C1104 1.434 . S
C1104 C1095 1.429 . S
C1104 N1101 1.349 1_554 S
C1104 C1103 1.434 . S
C1105 C1106 1.369 . S
C1105 C1107 1.419 . S
C1105 H1109 0.930 . S
C1106 C1105 1.369 . S
C1106 C1115 1.429 1_554 S
C1107 C1105 1.419 . S
C1107 C1108 1.363 . S
C1107 H1110 0.929 . S
C1108 C1107 1.363 . S
C1108 C1114 1.428 1_554 S
H1109 C1105 0.930 . S
H1110 C1107 0.929 . S
S1111 N1112 1.613 . S
S1111 N1113 1.610 . S
N1112 S1111 1.613 . S
N1112 C1115 1.350 . S
N1113 S1111 1.610 . S
N1113 C1114 1.351 . S
C1114 C1108 1.428 1_556 S
C1114 N1113 1.351 . S
C1114 C1115 1.434 . S
C1115 C1106 1.429 1_556 S
C1115 N1112 1.350 . S
C1115 C1114 1.434 . S
C1116 C1117 1.369 . S
C1116 C1118 1.419 . S
C1116 H1120 0.930 . S
C1117 C1116 1.369 . S
C1117 C1126 1.429 . S
C1118 C1116 1.419 . S
C1118 C1119 1.363 . S
C1118 H1121 0.929 . S
C1119 C1118 1.363 . S
C1119 C1125 1.428 . S
H1120 C1116 0.930 . S
H1121 C1118 0.929 . S
S1122 N1123 1.613 . S
S1122 N1124 1.610 . S
N1123 S1122 1.613 . S
N1123 C1126 1.350 . S
N1124 S1122 1.610 . S
N1124 C1125 1.351 . S
C1125 C1119 1.428 . S
C1125 N1124 1.351 . S
C1125 C1126 1.434 . S
C1126 C1117 1.429 . S
C1126 N1123 1.350 . S
C1126 C1125 1.434 . S
C1127 C1128 1.369 . S
C1127 C1129 1.419 . S
C1127 H1131 0.930 . S
C1128 C1127 1.369 . S
C1128 C1137 1.429 . S
C1129 C1127 1.419 . S
C1129 C1130 1.363 . S
C1129 H1132 0.929 . S
C1130 C1129 1.363 . S
C1130 C1136 1.428 . S
H1131 C1127 0.930 . S
H1132 C1129 0.929 . S
S1133 N1134 1.613 . S
S1133 N1135 1.610 . S
N1134 S1133 1.613 . S
N1134 C1137 1.350 . S
N1135 S1133 1.610 . S
N1135 C1136 1.351 . S
C1136 C1130 1.428 . S
C1136 N1135 1.351 . S
C1136 C1137 1.434 . S
C1137 C1128 1.429 . S
C1137 N1134 1.350 . S
C1137 C1136 1.434 . S
C1138 C1139 1.369 . S
C1138 C1140 1.419 . S
C1138 H1142 0.930 . S
C1139 C1138 1.369 . S
C1139 C1148 1.429 . S
C1140 C1138 1.419 . S
C1140 C1141 1.363 . S
C1140 H1143 0.929 . S
C1141 C1140 1.363 . S
C1141 C1147 1.428 . S
H1142 C1138 0.930 . S
H1143 C1140 0.929 . S
S1144 N1145 1.613 . S
S1144 N1146 1.610 . S
N1145 S1144 1.613 . S
N1145 C1148 1.350 . S
N1146 S1144 1.610 . S
N1146 C1147 1.351 . S
C1147 C1141 1.428 . S
C1147 N1146 1.351 . S
C1147 C1148 1.434 . S
C1148 C1139 1.429 . S
C1148 N1145 1.350 . S
C1148 C1147 1.434 . S
C1149 C1150 1.369 . S
C1149 C1151 1.419 . S
C1149 H1153 0.930 . S
C1150 C1149 1.369 . S
C1150 C1159 1.429 . S
C1151 C1149 1.419 . S
C1151 C1152 1.363 . S
C1151 H1154 0.929 . S
C1152 C1151 1.363 . S
C1152 C1158 1.428 . S
H1153 C1149 0.930 . S
H1154 C1151 0.929 . S
S1155 N1156 1.613 . S
S1155 N1157 1.610 . S
N1156 S1155 1.613 . S
N1156 C1159 1.350 . S
N1157 S1155 1.610 . S
N1157 C1158 1.351 . S
C1158 C1152 1.428 . S
C1158 N1157 1.351 . S
C1158 C1159 1.434 . S
C1159 C1150 1.429 . S
C1159 N1156 1.350 . S
C1159 C1158 1.434 . S
C1160 C1161 1.369 . S
C1160 C1162 1.419 . S
C1160 H1164 0.930 . S
C1161 C1160 1.369 . S
C1161 C1170 1.429 . S
C1162 C1160 1.419 . S
C1162 C1163 1.363 . S
C1162 H1165 0.929 . S
C1163 C1162 1.363 . S
C1163 C1169 1.428 . S
H1164 C1160 0.930 . S
H1165 C1162 0.929 . S
S1166 N1167 1.613 . S
S1166 N1168 1.610 . S
N1167 S1166 1.613 . S
N1167 C1170 1.350 . S
N1168 S1166 1.610 . S
N1168 C1169 1.351 . S
C1169 C1163 1.428 . S
C1169 N1168 1.351 . S
C1169 C1170 1.434 . S
C1170 C1161 1.429 . S
C1170 N1167 1.350 . S
C1170 C1169 1.434 . S
C1171 C1172 1.369 . S
C1171 C1173 1.419 . S
C1171 H1175 0.930 . S
C1172 C1171 1.369 . S
C1172 C1181 1.429 . S
C1173 C1171 1.419 . S
C1173 C1174 1.363 . S
C1173 H1176 0.929 . S
C1174 C1173 1.363 . S
C1174 C1180 1.428 . S
H1175 C1171 0.930 . S
H1176 C1173 0.929 . S
S1177 N1178 1.613 . S
S1177 N1179 1.610 . S
N1178 S1177 1.613 . S
N1178 C1181 1.350 . S
N1179 S1177 1.610 . S
N1179 C1180 1.351 . S
C1180 C1174 1.428 . S
C1180 N1179 1.351 . S
C1180 C1181 1.434 . S
C1181 C1172 1.429 . S
C1181 N1178 1.350 . S
C1181 C1180 1.434 . S
C1182 C1183 1.369 . S
C1182 C1184 1.419 . S
C1182 H1186 0.930 . S
C1183 C1182 1.369 . S
C1183 C1192 1.429 . S
C1184 C1182 1.419 . S
C1184 C1185 1.363 . S
C1184 H1187 0.929 . S
C1185 C1184 1.363 . S
C1185 C1191 1.428 . S
H1186 C1182 0.930 . S
H1187 C1184 0.929 . S
S1188 N1189 1.613 . S
S1188 N1190 1.610 . S
N1189 S1188 1.613 . S
N1189 C1192 1.350 . S
N1190 S1188 1.610 . S
N1190 C1191 1.351 . S
C1191 C1185 1.428 . S
C1191 N1190 1.351 . S
C1191 C1192 1.434 . S
C1192 C1183 1.429 . S
C1192 N1189 1.350 . S
C1192 C1191 1.434 . S
C1193 C1194 1.369 . S
C1193 C1195 1.419 . S
C1193 H1197 0.930 . S
C1194 C1193 1.369 . S
C1194 C1203 1.429 . S
C1195 C1193 1.419 . S
C1195 C1196 1.363 . S
C1195 H1198 0.929 . S
C1196 C1195 1.363 . S
C1196 C1202 1.428 . S
H1197 C1193 0.930 . S
H1198 C1195 0.929 . S
S1199 N1200 1.613 . S
S1199 N1201 1.610 . S
N1200 S1199 1.613 . S
N1200 C1203 1.350 . S
N1201 S1199 1.610 . S
N1201 C1202 1.351 . S
C1202 C1196 1.428 . S
C1202 N1201 1.351 . S
C1202 C1203 1.434 . S
C1203 C1194 1.429 . S
C1203 N1200 1.350 . S
C1203 C1202 1.434 . S
C1204 C1205 1.369 . S
C1204 C1206 1.419 . S
C1204 H1208 0.930 . S
C1205 C1204 1.369 . S
C1205 C1214 1.429 . S
C1206 C1204 1.419 . S
C1206 C1207 1.363 . S
C1206 H1209 0.929 . S
C1207 C1206 1.363 . S
C1207 C1213 1.428 . S
H1208 C1204 0.930 . S
H1209 C1206 0.929 . S
S1210 N1211 1.613 . S
S1210 N1212 1.610 . S
N1211 S1210 1.613 . S
N1211 C1214 1.350 . S
N1212 S1210 1.610 . S
N1212 C1213 1.351 . S
C1213 C1207 1.428 . S
C1213 N1212 1.351 . S
C1213 C1214 1.434 . S
C1214 C1205 1.429 . S
C1214 N1211 1.350 . S
C1214 C1213 1.434 . S
C1215 C1216 1.369 . S
C1215 C1217 1.419 . S
C1215 H1219 0.930 . S
C1216 C1215 1.369 . S
C1216 C1225 1.429 . S
C1217 C1215 1.419 . S
C1217 C1218 1.363 . S
C1217 H1220 0.929 . S
C1218 C1217 1.363 . S
C1218 C1224 1.428 . S
H1219 C1215 0.930 . S
H1220 C1217 0.929 . S
S1221 N1222 1.613 . S
S1221 N1223 1.610 . S
N1222 S1221 1.613 . S
N1222 C1225 1.350 . S
N1223 S1221 1.610 . S
N1223 C1224 1.351 . S
C1224 C1218 1.428 . S
C1224 N1223 1.351 . S
C1224 C1225 1.434 . S
C1225 C1216 1.429 . S
C1225 N1222 1.350 . S
C1225 C1224 1.434 . S
C1226 C1227 1.369 . S
C1226 C1228 1.419 . S
C1226 H1230 0.930 . S
C1227 C1226 1.369 . S
C1227 C1236 1.429 . S
C1228 C1226 1.419 . S
C1228 C1229 1.363 . S
C1228 H1231 0.929 . S
C1229 C1228 1.363 . S
C1229 C1235 1.428 . S
H1230 C1226 0.930 . S
H1231 C1228 0.929 . S
S1232 N1233 1.613 . S
S1232 N1234 1.610 . S
N1233 S1232 1.613 . S
N1233 C1236 1.350 . S
N1234 S1232 1.610 . S
N1234 C1235 1.351 . S
C1235 C1229 1.428 . S
C1235 N1234 1.351 . S
C1235 C1236 1.434 . S
C1236 C1227 1.429 . S
C1236 N1233 1.350 . S
C1236 C1235 1.434 . S
C1237 C1238 1.369 . S
C1237 C1239 1.419 . S
C1237 H1241 0.930 . S
C1238 C1237 1.369 . S
C1238 C1247 1.429 . S
C1239 C1237 1.419 . S
C1239 C1240 1.363 . S
C1239 H1242 0.929 . S
C1240 C1239 1.363 . S
C1240 C1246 1.428 . S
H1241 C1237 0.930 . S
H1242 C1239 0.929 . S
S1243 N1244 1.613 . S
S1243 N1245 1.610 . S
N1244 S1243 1.613 . S
N1244 C1247 1.350 . S
N1245 S1243 1.610 . S
N1245 C1246 1.351 . S
C1246 C1240 1.428 . S
C1246 N1245 1.351 . S
C1246 C1247 1.434 . S
C1247 C1238 1.429 . S
C1247 N1244 1.350 . S
C1247 C1246 1.434 . S
C1248 C1249 1.369 . S
C1248 C1250 1.419 . S
C1248 H1252 0.930 . S
C1249 C1248 1.369 . S
C1249 C1258 1.429 . S
C1250 C1248 1.419 . S
C1250 C1251 1.363 . S
C1250 H1253 0.929 . S
C1251 C1250 1.363 . S
C1251 C1257 1.428 . S
H1252 C1248 0.930 . S
H1253 C1250 0.929 . S
S1254 N1255 1.613 . S
S1254 N1256 1.610 . S
N1255 S1254 1.613 . S
N1255 C1258 1.350 . S
N1256 S1254 1.610 . S
N1256 C1257 1.351 . S
C1257 C1251 1.428 . S
C1257 N1256 1.351 . S
C1257 C1258 1.434 . S
C1258 C1249 1.429 . S
C1258 N1255 1.350 . S
C1258 C1257 1.434 . S
C1259 C1260 1.369 . S
C1259 C1261 1.419 . S
C1259 H1263 0.930 . S
C1260 C1259 1.369 . S
C1260 C1269 1.429 . S
C1261 C1259 1.419 . S
C1261 C1262 1.363 . S
C1261 H1264 0.929 . S
C1262 C1261 1.363 . S
C1262 C1268 1.428 . S
H1263 C1259 0.930 . S
H1264 C1261 0.929 . S
S1265 N1266 1.613 . S
S1265 N1267 1.610 . S
N1266 S1265 1.613 . S
N1266 C1269 1.350 . S
N1267 S1265 1.610 . S
N1267 C1268 1.351 . S
C1268 C1262 1.428 . S
C1268 N1267 1.351 . S
C1268 C1269 1.434 . S
C1269 C1260 1.429 . S
C1269 N1266 1.350 . S
C1269 C1268 1.434 . S
C1270 C1271 1.369 . S
C1270 C1272 1.419 . S
C1270 H1274 0.930 . S
C1271 C1270 1.369 . S
C1271 C1280 1.429 . S
C1272 C1270 1.419 . S
C1272 C1273 1.363 . S
C1272 H1275 0.929 . S
C1273 C1272 1.363 . S
C1273 C1279 1.428 . S
H1274 C1270 0.930 . S
H1275 C1272 0.929 . S
S1276 N1277 1.613 . S
S1276 N1278 1.610 . S
N1277 S1276 1.613 . S
N1277 C1280 1.350 . S
N1278 S1276 1.610 . S
N1278 C1279 1.351 . S
C1279 C1273 1.428 . S
C1279 N1278 1.351 . S
C1279 C1280 1.434 . S
C1280 C1271 1.429 . S
C1280 N1277 1.350 . S
C1280 C1279 1.434 . S
C1281 C1282 1.369 . S
C1281 C1283 1.419 . S
C1281 H1285 0.930 . S
C1282 C1281 1.369 . S
C1282 C1291 1.429 . S
C1283 C1281 1.419 . S
C1283 C1284 1.363 . S
C1283 H1286 0.929 . S
C1284 C1283 1.363 . S
C1284 C1290 1.428 . S
H1285 C1281 0.930 . S
H1286 C1283 0.929 . S
S1287 N1288 1.613 . S
S1287 N1289 1.610 . S
N1288 S1287 1.613 . S
N1288 C1291 1.350 . S
N1289 S1287 1.610 . S
N1289 C1290 1.351 . S
C1290 C1284 1.428 . S
C1290 N1289 1.351 . S
C1290 C1291 1.434 . S
C1291 C1282 1.429 . S
C1291 N1288 1.350 . S
C1291 C1290 1.434 . S
C1292 C1293 1.369 . S
C1292 C1294 1.419 . S
C1292 H1296 0.930 . S
C1293 C1292 1.369 . S
C1293 C1302 1.429 . S
C1294 C1292 1.419 . S
C1294 C1295 1.363 . S
C1294 H1297 0.929 . S
C1295 C1294 1.363 . S
C1295 C1301 1.428 . S
H1296 C1292 0.930 . S
H1297 C1294 0.929 . S
S1298 N1299 1.613 . S
S1298 N1300 1.610 . S
N1299 S1298 1.613 . S
N1299 C1302 1.350 . S
N1300 S1298 1.610 . S
N1300 C1301 1.351 . S
C1301 C1295 1.428 . S
C1301 N1300 1.351 . S
C1301 C1302 1.434 . S
C1302 C1293 1.429 . S
C1302 N1299 1.350 . S
C1302 C1301 1.434 . S
C1303 C1304 1.369 . S
C1303 C1305 1.419 . S
C1303 H1307 0.930 . S
C1304 C1303 1.369 . S
C1304 C1313 1.429 . S
C1305 C1303 1.419 . S
C1305 C1306 1.363 . S
C1305 H1308 0.929 . S
C1306 C1305 1.363 . S
C1306 C1312 1.428 . S
H1307 C1303 0.930 . S
H1308 C1305 0.929 . S
S1309 N1310 1.613 . S
S1309 N1311 1.610 . S
N1310 S1309 1.613 . S
N1310 C1313 1.350 . S
N1311 S1309 1.610 . S
N1311 C1312 1.351 . S
C1312 C1306 1.428 . S
C1312 N1311 1.351 . S
C1312 C1313 1.434 . S
C1313 C1304 1.429 . S
C1313 N1310 1.350 . S
C1313 C1312 1.434 . S
C1314 C1315 1.369 . S
C1314 C1316 1.419 . S
C1314 H1318 0.930 . S
C1315 C1314 1.369 . S
C1315 C1324 1.429 . S
C1316 C1314 1.419 . S
C1316 C1317 1.363 . S
C1316 H1319 0.929 . S
C1317 C1316 1.363 . S
C1317 C1323 1.428 . S
H1318 C1314 0.930 . S
H1319 C1316 0.929 . S
S1320 N1321 1.613 . S
S1320 N1322 1.610 . S
N1321 S1320 1.613 . S
N1321 C1324 1.350 . S
N1322 S1320 1.610 . S
N1322 C1323 1.351 . S
C1323 C1317 1.428 . S
C1323 N1322 1.351 . S
C1323 C1324 1.434 . S
C1324 C1315 1.429 . S
C1324 N1321 1.350 . S
C1324 C1323 1.434 . S
C1325 C1326 1.369 . S
C1325 C1327 1.419 . S
C1325 H1329 0.930 . S
C1326 C1325 1.369 . S
C1326 C1335 1.429 . S
C1327 C1325 1.419 . S
C1327 C1328 1.363 . S
C1327 H1330 0.929 . S
C1328 C1327 1.363 . S
C1328 C1334 1.428 . S
H1329 C1325 0.930 . S
H1330 C1327 0.929 . S
S1331 N1332 1.613 . S
S1331 N1333 1.610 . S
N1332 S1331 1.613 . S
N1332 C1335 1.350 . S
N1333 S1331 1.610 . S
N1333 C1334 1.351 . S
C1334 C1328 1.428 . S
C1334 N1333 1.351 . S
C1334 C1335 1.434 . S
C1335 C1326 1.429 . S
C1335 N1332 1.350 . S
C1335 C1334 1.434 . S
C1336 C1337 1.369 . S
C1336 C1338 1.419 . S
C1336 H1340 0.930 . S
C1337 C1336 1.369 . S
C1337 C1346 1.429 . S
C1338 C1336 1.419 . S
C1338 C1339 1.363 . S
C1338 H1341 0.929 . S
C1339 C1338 1.363 . S
C1339 C1345 1.428 . S
H1340 C1336 0.930 . S
H1341 C1338 0.929 . S
S1342 N1343 1.613 . S
S1342 N1344 1.610 . S
N1343 S1342 1.613 . S
N1343 C1346 1.350 . S
N1344 S1342 1.610 . S
N1344 C1345 1.351 . S
C1345 C1339 1.428 . S
C1345 N1344 1.351 . S
C1345 C1346 1.434 . S
C1346 C1337 1.429 . S
C1346 N1343 1.350 . S
C1346 C1345 1.434 . S
C1347 C1348 1.369 . S
C1347 C1349 1.419 . S
C1347 H1351 0.930 . S
C1348 C1347 1.369 . S
C1348 C1357 1.429 . S
C1349 C1347 1.419 . S
C1349 C1350 1.363 . S
C1349 H1352 0.929 . S
C1350 C1349 1.363 . S
C1350 C1356 1.428 . S
H1351 C1347 0.930 . S
H1352 C1349 0.929 . S
S1353 N1354 1.613 . S
S1353 N1355 1.610 . S
N1354 S1353 1.613 . S
N1354 C1357 1.350 . S
N1355 S1353 1.610 . S
N1355 C1356 1.351 . S
C1356 C1350 1.428 . S
C1356 N1355 1.351 . S
C1356 C1357 1.434 . S
C1357 C1348 1.429 . S
C1357 N1354 1.350 . S
C1357 C1356 1.434 . S
C1358 C1359 1.369 . S
C1358 C1360 1.419 . S
C1358 H1362 0.930 . S
C1359 C1358 1.369 . S
C1359 C1368 1.429 . S
C1360 C1358 1.419 . S
C1360 C1361 1.363 . S
C1360 H1363 0.929 . S
C1361 C1360 1.363 . S
C1361 C1367 1.428 . S
H1362 C1358 0.930 . S
H1363 C1360 0.929 . S
S1364 N1365 1.613 . S
S1364 N1366 1.610 . S
N1365 S1364 1.613 . S
N1365 C1368 1.350 . S
N1366 S1364 1.610 . S
N1366 C1367 1.351 . S
C1367 C1361 1.428 . S
C1367 N1366 1.351 . S
C1367 C1368 1.434 . S
C1368 C1359 1.429 . S
C1368 N1365 1.350 . S
C1368 C1367 1.434 . S
C1369 C1370 1.369 . S
C1369 C1371 1.419 . S
C1369 H1373 0.930 . S
C1370 C1369 1.369 . S
C1370 C1379 1.429 . S
C1371 C1369 1.419 . S
C1371 C1372 1.363 . S
C1371 H1374 0.929 . S
C1372 C1371 1.363 . S
C1372 C1378 1.428 . S
H1373 C1369 0.930 . S
H1374 C1371 0.929 . S
S1375 N1376 1.613 . S
S1375 N1377 1.610 . S
N1376 S1375 1.613 . S
N1376 C1379 1.350 . S
N1377 S1375 1.610 . S
N1377 C1378 1.351 . S
C1378 C1372 1.428 . S
C1378 N1377 1.351 . S
C1378 C1379 1.434 . S
C1379 C1370 1.429 . S
C1379 N1376 1.350 . S
C1379 C1378 1.434 . S
C591 C294 1.560 . S
C589 C285 1.563 . S
C600 C261 1.480 . S
C602 C292 1.480 . S
C613 C293 1.479 . S
C611 C249 1.480 . S
C622 C273 1.563 . S
C624 C295 1.562 . S
C635 C339 1.605 . S
C633 C201 1.610 . S
C646 C399 1.549 . S
C644 C213 1.551 . S
C655 C225 1.593 . S
C657 C338 1.591 . S
C668 C398 1.471 . S
C666 C237 1.472 . S
C677 C153 1.521 . S
C679 C340 1.519 . S
C690 C396 1.533 . S
C688 C165 1.533 . S
C699 C177 1.527 . S
C701 C341 1.525 . S
C710 C189 1.613 . S
C712 C397 1.612 . S
C723 C447 1.561 . S
C721 C141 1.562 . S
C732 C117 1.481 . S
C734 C446 1.479 . S
C743 C105 1.481 . S
C745 C448 1.479 . S
C756 C449 1.561 . S
C754 C129 1.563 . S
C765 C57 1.609 . S
C767 C490 1.606 . S
C776 C69 1.551 . S
C778 C549 1.549 . S
C787 C81 1.592 . S
C789 C488 1.591 . S
C798 C93 1.474 . S
C800 C548 1.470 . S
C811 C489 1.520 . S
C809 C9 1.521 . S
C822 C546 1.533 . S
C820 C21 1.534 . S
C831 C33 1.528 . S
C833 C491 1.523 . S
C844 C547 1.611 . S
C842 C45 1.613 1_545 S
C855 C291 1.499 . S
C853 C4 1.337 . S
C864 C18 1.499 1_565 S
C866 C297 1.553 . S
C875 C30 1.582 . S
C877 C289 1.629 . S
C886 C42 1.632 1_545 S
C888 C296 1.671 . S
C897 C52 1.349 . S
C899 C288 1.510 . S
C910 C298 1.630 . S
C908 C66 1.585 . S
C919 C78 1.599 . S
C921 C290 1.643 . S
C932 C299 1.410 . S
C930 C88 1.244 1_545 S
C943 C345 1.499 . S
C941 C40 1.367 . S
C952 C6 1.568 . S
C954 C388 1.616 . S
C965 C343 1.516 1_565 S
C963 C16 1.372 . S
C976 C390 1.486 . S
C974 C28 1.341 . S
C985 C64 1.324 1_545 S
C987 C344 1.466 . S
C998 C389 1.550 . S
C996 C76 1.400 . S
C1009 C342 1.613 . S
C1007 C90 1.567 . S
C1020 C391 1.707 . S
C1018 C54 1.676 . S
C1031 C395 1.555 . S
C1029 C102 1.499 . S
C1040 C114 1.508 . S
C1042 C394 1.555 . S
C1053 C346 1.424 . S
C1051 C100 1.282 . S
C1064 C393 1.441 . S
C1062 C124 1.301 . S
C1073 C138 1.586 . S
C1075 C349 1.625 . S
C1084 C136 1.289 . S
C1086 C392 1.443 . S
C1097 C348 1.427 . S
C1095 C112 1.272 . S
C1108 C347 1.625 . S
C1106 C126 1.587 . S
C1119 C441 1.499 . S
C1117 C148 1.338 . S
C1130 C444 1.553 . S
C1128 C162 1.500 . S
C1139 C174 1.581 . S
C1141 C440 1.629 . S
C1152 C442 1.671 . S
C1150 C186 1.632 . S
C1163 C438 1.510 . S
C1161 C196 1.347 . S
C1172 C210 1.585 . S
C1174 C443 1.630 . S
C1183 C222 1.602 . S
C1185 C439 1.642 . S
C1196 C445 1.411 . S
C1194 C232 1.243 . S
C1207 C499 1.501 . S
C1205 C184 1.356 . S
C1216 C150 1.569 . S
C1218 C538 1.616 . S
C1229 C498 1.514 . S
C1227 C160 1.381 . S
C1240 C540 1.486 . S
C1238 C172 1.341 . S
C1251 C497 1.467 . S
C1249 C208 1.324 . S
C1260 C220 1.403 . S
C1262 C539 1.549 . S
C1273 C496 1.613 . S
C1271 C234 1.566 . S
C1284 C541 1.707 . S
C1282 C198 1.675 . S
C1295 C545 1.555 . S
C1293 C246 1.499 . S
C1304 C258 1.509 . S
C1306 C544 1.555 . S
C1317 C492 1.423 . S
C1315 C244 1.286 . S
C1326 C268 1.291 . S
C1328 C543 1.443 . S
C1339 C495 1.625 . S
C1337 C282 1.580 . S
C1350 C542 1.440 . S
C1348 C280 1.303 . S
C1361 C493 1.424 . S
C1359 C256 1.288 . S
C1370 C270 1.582 . S
C1372 C494 1.625 . S
