# Generated by pormake.
# Topology llk, (3,12)-cn, num edge types: 1
# Building blocks:
#     Node 0, Type 0, BuildingBlock: CUQRIR_clean_linker_1, # of connection points: 3
#     Node 1, Type 0, BuildingBlock: CUQRIR_clean_linker_1, # of connection points: 3
#     Node 2, Type 0, BuildingBlock: CUQRIR_clean_linker_1, # of connection points: 3
#     Node 3, Type 0, BuildingBlock: CUQRIR_clean_linker_1, # of connection points: 3
#     Node 4, Type 0, BuildingBlock: CUQRIR_clean_linker_1, # of connection points: 3
#     Node 5, Type 0, BuildingBlock: CUQRIR_clean_linker_1, # of connection points: 3
#     Node 6, Type 0, BuildingBlock: CUQRIR_clean_linker_1, # of connection points: 3
#     Node 7, Type 0, BuildingBlock: CUQRIR_clean_linker_1, # of connection points: 3
#     Node 8, Type 0, BuildingBlock: CUQRIR_clean_linker_1, # of connection points: 3
#     Node 9, Type 0, BuildingBlock: CUQRIR_clean_linker_1, # of connection points: 3
#     Node 10, Type 0, BuildingBlock: CUQRIR_clean_linker_1, # of connection points: 3
#     Node 11, Type 0, BuildingBlock: CUQRIR_clean_linker_1, # of connection points: 3
#     Node 12, Type 0, BuildingBlock: CUQRIR_clean_linker_1, # of connection points: 3
#     Node 13, Type 0, BuildingBlock: CUQRIR_clean_linker_1, # of connection points: 3
#     Node 14, Type 0, BuildingBlock: CUQRIR_clean_linker_1, # of connection points: 3
#     Node 15, Type 0, BuildingBlock: CUQRIR_clean_linker_1, # of connection points: 3
#     Node 16, Type 0, BuildingBlock: CUQRIR_clean_linker_1, # of connection points: 3
#     Node 17, Type 0, BuildingBlock: CUQRIR_clean_linker_1, # of connection points: 3
#     Node 18, Type 0, BuildingBlock: CUQRIR_clean_linker_1, # of connection points: 3
#     Node 19, Type 0, BuildingBlock: CUQRIR_clean_linker_1, # of connection points: 3
#     Node 20, Type 0, BuildingBlock: CUQRIR_clean_linker_1, # of connection points: 3
#     Node 21, Type 0, BuildingBlock: CUQRIR_clean_linker_1, # of connection points: 3
#     Node 22, Type 0, BuildingBlock: CUQRIR_clean_linker_1, # of connection points: 3
#     Node 23, Type 0, BuildingBlock: CUQRIR_clean_linker_1, # of connection points: 3
#     Node 24, Type 1, BuildingBlock: EZIPEK_clean_sbu_0, # of connection points: 12
#     Node 25, Type 1, BuildingBlock: EZIPEK_clean_sbu_0, # of connection points: 12
#     Node 26, Type 1, BuildingBlock: EZIPEK_clean_sbu_0, # of connection points: 12
#     Node 27, Type 1, BuildingBlock: EZIPEK_clean_sbu_0, # of connection points: 12
#     Node 28, Type 1, BuildingBlock: EZIPEK_clean_sbu_0, # of connection points: 12
#     Node 29, Type 1, BuildingBlock: EZIPEK_clean_sbu_0, # of connection points: 12
#     Edge 30, Type (0, 1), BuildingBlock: OJICUG_clean_linker_0, # of connection points: 2
#     Edge 31, Type (0, 1), BuildingBlock: OJICUG_clean_linker_0, # of connection points: 2
#     Edge 32, Type (0, 1), BuildingBlock: OJICUG_clean_linker_0, # of connection points: 2
#     Edge 33, Type (0, 1), BuildingBlock: OJICUG_clean_linker_0, # of connection points: 2
#     Edge 34, Type (0, 1), BuildingBlock: OJICUG_clean_linker_0, # of connection points: 2
#     Edge 35, Type (0, 1), BuildingBlock: OJICUG_clean_linker_0, # of connection points: 2
#     Edge 36, Type (0, 1), BuildingBlock: OJICUG_clean_linker_0, # of connection points: 2
#     Edge 37, Type (0, 1), BuildingBlock: OJICUG_clean_linker_0, # of connection points: 2
#     Edge 38, Type (0, 1), BuildingBlock: OJICUG_clean_linker_0, # of connection points: 2
#     Edge 39, Type (0, 1), BuildingBlock: OJICUG_clean_linker_0, # of connection points: 2
#     Edge 40, Type (0, 1), BuildingBlock: OJICUG_clean_linker_0, # of connection points: 2
#     Edge 41, Type (0, 1), BuildingBlock: OJICUG_clean_linker_0, # of connection points: 2
#     Edge 42, Type (0, 1), BuildingBlock: OJICUG_clean_linker_0, # of connection points: 2
#     Edge 43, Type (0, 1), BuildingBlock: OJICUG_clean_linker_0, # of connection points: 2
#     Edge 44, Type (0, 1), BuildingBlock: OJICUG_clean_linker_0, # of connection points: 2
#     Edge 45, Type (0, 1), BuildingBlock: OJICUG_clean_linker_0, # of connection points: 2
#     Edge 46, Type (0, 1), BuildingBlock: OJICUG_clean_linker_0, # of connection points: 2
#     Edge 47, Type (0, 1), BuildingBlock: OJICUG_clean_linker_0, # of connection points: 2
#     Edge 48, Type (0, 1), BuildingBlock: OJICUG_clean_linker_0, # of connection points: 2
#     Edge 49, Type (0, 1), BuildingBlock: OJICUG_clean_linker_0, # of connection points: 2
#     Edge 50, Type (0, 1), BuildingBlock: OJICUG_clean_linker_0, # of connection points: 2
#     Edge 51, Type (0, 1), BuildingBlock: OJICUG_clean_linker_0, # of connection points: 2
#     Edge 52, Type (0, 1), BuildingBlock: OJICUG_clean_linker_0, # of connection points: 2
#     Edge 53, Type (0, 1), BuildingBlock: OJICUG_clean_linker_0, # of connection points: 2
#     Edge 54, Type (0, 1), BuildingBlock: OJICUG_clean_linker_0, # of connection points: 2
#     Edge 55, Type (0, 1), BuildingBlock: OJICUG_clean_linker_0, # of connection points: 2
#     Edge 56, Type (0, 1), BuildingBlock: OJICUG_clean_linker_0, # of connection points: 2
#     Edge 57, Type (0, 1), BuildingBlock: OJICUG_clean_linker_0, # of connection points: 2
#     Edge 58, Type (0, 1), BuildingBlock: OJICUG_clean_linker_0, # of connection points: 2
#     Edge 59, Type (0, 1), BuildingBlock: OJICUG_clean_linker_0, # of connection points: 2
#     Edge 60, Type (0, 1), BuildingBlock: OJICUG_clean_linker_0, # of connection points: 2
#     Edge 61, Type (0, 1), BuildingBlock: OJICUG_clean_linker_0, # of connection points: 2
#     Edge 62, Type (0, 1), BuildingBlock: OJICUG_clean_linker_0, # of connection points: 2
#     Edge 63, Type (0, 1), BuildingBlock: OJICUG_clean_linker_0, # of connection points: 2
#     Edge 64, Type (0, 1), BuildingBlock: OJICUG_clean_linker_0, # of connection points: 2
#     Edge 65, Type (0, 1), BuildingBlock: OJICUG_clean_linker_0, # of connection points: 2
#     Edge 66, Type (0, 1), BuildingBlock: OJICUG_clean_linker_0, # of connection points: 2
#     Edge 67, Type (0, 1), BuildingBlock: OJICUG_clean_linker_0, # of connection points: 2
#     Edge 68, Type (0, 1), BuildingBlock: OJICUG_clean_linker_0, # of connection points: 2
#     Edge 69, Type (0, 1), BuildingBlock: OJICUG_clean_linker_0, # of connection points: 2
#     Edge 70, Type (0, 1), BuildingBlock: OJICUG_clean_linker_0, # of connection points: 2
#     Edge 71, Type (0, 1), BuildingBlock: OJICUG_clean_linker_0, # of connection points: 2
#     Edge 72, Type (0, 1), BuildingBlock: OJICUG_clean_linker_0, # of connection points: 2
#     Edge 73, Type (0, 1), BuildingBlock: OJICUG_clean_linker_0, # of connection points: 2
#     Edge 74, Type (0, 1), BuildingBlock: OJICUG_clean_linker_0, # of connection points: 2
#     Edge 75, Type (0, 1), BuildingBlock: OJICUG_clean_linker_0, # of connection points: 2
#     Edge 76, Type (0, 1), BuildingBlock: OJICUG_clean_linker_0, # of connection points: 2
#     Edge 77, Type (0, 1), BuildingBlock: OJICUG_clean_linker_0, # of connection points: 2
#     Edge 78, Type (0, 1), BuildingBlock: OJICUG_clean_linker_0, # of connection points: 2
#     Edge 79, Type (0, 1), BuildingBlock: OJICUG_clean_linker_0, # of connection points: 2
#     Edge 80, Type (0, 1), BuildingBlock: OJICUG_clean_linker_0, # of connection points: 2
#     Edge 81, Type (0, 1), BuildingBlock: OJICUG_clean_linker_0, # of connection points: 2
#     Edge 82, Type (0, 1), BuildingBlock: OJICUG_clean_linker_0, # of connection points: 2
#     Edge 83, Type (0, 1), BuildingBlock: OJICUG_clean_linker_0, # of connection points: 2
#     Edge 84, Type (0, 1), BuildingBlock: OJICUG_clean_linker_0, # of connection points: 2
#     Edge 85, Type (0, 1), BuildingBlock: OJICUG_clean_linker_0, # of connection points: 2
#     Edge 86, Type (0, 1), BuildingBlock: OJICUG_clean_linker_0, # of connection points: 2
#     Edge 87, Type (0, 1), BuildingBlock: OJICUG_clean_linker_0, # of connection points: 2
#     Edge 88, Type (0, 1), BuildingBlock: OJICUG_clean_linker_0, # of connection points: 2
#     Edge 89, Type (0, 1), BuildingBlock: OJICUG_clean_linker_0, # of connection points: 2
#     Edge 90, Type (0, 1), BuildingBlock: OJICUG_clean_linker_0, # of connection points: 2
#     Edge 91, Type (0, 1), BuildingBlock: OJICUG_clean_linker_0, # of connection points: 2
#     Edge 92, Type (0, 1), BuildingBlock: OJICUG_clean_linker_0, # of connection points: 2
#     Edge 93, Type (0, 1), BuildingBlock: OJICUG_clean_linker_0, # of connection points: 2
#     Edge 94, Type (0, 1), BuildingBlock: OJICUG_clean_linker_0, # of connection points: 2
#     Edge 95, Type (0, 1), BuildingBlock: OJICUG_clean_linker_0, # of connection points: 2
#     Edge 96, Type (0, 1), BuildingBlock: OJICUG_clean_linker_0, # of connection points: 2
#     Edge 97, Type (0, 1), BuildingBlock: OJICUG_clean_linker_0, # of connection points: 2
#     Edge 98, Type (0, 1), BuildingBlock: OJICUG_clean_linker_0, # of connection points: 2
#     Edge 99, Type (0, 1), BuildingBlock: OJICUG_clean_linker_0, # of connection points: 2
#     Edge 100, Type (0, 1), BuildingBlock: OJICUG_clean_linker_0, # of connection points: 2
#     Edge 101, Type (0, 1), BuildingBlock: OJICUG_clean_linker_0, # of connection points: 2
# Relax obj value: 0.090
# Max RMSD: 0.208
# Mean RMSD: 0.156
data_MOF--net-llk--node1-EZIPEK_clean_sbu_0--node2-CUQRIR_clean_linker_1--edge1-OJICUG_clean_linker_0
_symmetry_space_group_name_H-M    P1
_symmetry_Int_Tables_number       1
_symmetry_cell_setting            triclinic
loop_
_symmetry_equiv_pos_as_xyz
'x, y, z'
_cell_length_a     32.604878
_cell_length_b     32.166541
_cell_length_c     31.643224
_cell_angle_alpha  90.000022
_cell_angle_beta   89.971994
_cell_angle_gamma 90.030121
loop_
_atom_site_label
_atom_site_type_symbol
_atom_site_fract_x
_atom_site_fract_y
_atom_site_fract_z
_atom_type_partial_charge
C0 C 0.03993 0.24989 0.2416 0.0
N1 N 0.04311 0.29185 0.23961 0.0
N2 N 0.05765 0.2354 0.27742 0.0
C3 C 1.01469 0.22376 0.21222 0.0
C4 C 0.0728 0.26998 0.29598 0.0
N5 N 0.06303 0.30436 0.27381 0.0
C6 C 0.09093 0.27092 0.3398 0.0
H7 H 0.98511 0.21621 0.22782 0.0
H8 H 0.03078 0.19402 0.20582 0.0
H9 H 1.00828 0.24016 0.18212 0.0
H10 H 0.1067 0.24118 0.347 0.0
H11 H 0.06607 0.27563 0.36328 0.0
H12 H 0.11291 0.29712 0.34277 0.0
C13 C 0.79266 0.9918 0.24548 0.0
N14 N 0.75154 0.98331 0.24373 0.0
N15 N 0.80861 0.98041 0.28353 0.0
C16 C 0.81763 0.01105 0.21082 0.0
C17 C 0.77637 0.96377 0.30405 0.0
N18 N 0.74164 0.9671 0.2811 0.0
C19 C 0.77772 0.94932 0.34949 0.0
H20 H 0.80797 0.99877 0.17961 0.0
H21 H 0.85076 1.00468 0.21556 0.0
H22 H 0.81306 0.04522 0.21121 0.0
H23 H 0.76555 0.97419 0.37032 0.0
H24 H 0.80944 0.94164 0.35947 0.0
H25 H 0.75832 0.9213 0.35365 0.0
C26 C 0.02411 0.77494 0.24383 0.0
N27 N 0.02067 0.77778 0.28643 0.0
N28 N 1.00621 0.73953 0.22956 0.0
C29 C 0.04846 0.80443 0.21696 0.0
C30 C 0.99079 0.72201 0.26497 0.0
N31 N 1.00068 0.74428 0.29966 0.0
C32 C 0.97197 0.67918 0.26649 0.0
H33 H 0.02898 0.8316 0.20905 0.0
H34 H 0.0584 0.78952 0.18705 0.0
H35 H 0.07559 0.81592 0.23464 0.0
H36 H 0.99645 0.65576 0.27163 0.0
H37 H 0.95613 0.6719 0.23633 0.0
H38 H 0.94987 0.67691 0.29309 0.0
C39 C 0.26876 0.98285 0.2412 0.0
N40 N 0.3096 0.97397 0.23961 0.0
N41 N 0.25193 0.96821 0.27747 0.0
C42 C 0.24476 1.00598 0.20832 0.0
C43 C 0.28336 0.94884 0.29678 0.0
N44 N 0.31883 0.95475 0.2756 0.0
C45 C 0.28077 0.93113 0.34096 0.0
H46 H 0.24969 0.03986 0.21251 0.0
H47 H 0.21147 0.9996 0.21179 0.0
H48 H 0.2548 0.99685 0.17614 0.0
H49 H 0.24882 0.9222 0.34902 0.0
H50 H 0.2915 0.95468 0.36409 0.0
H51 H 0.3007 0.90333 0.34376 0.0
C52 C 1.01231 0.77369 0.76772 0.0
N53 N 1.00315 0.73253 0.77047 0.0
N54 N 1.00435 0.78804 0.72825 0.0
C55 C 0.03046 0.79958 0.80241 0.0
C56 C 0.98964 0.75452 0.70753 0.0
N57 N 0.98962 0.72076 0.73276 0.0
C58 C 0.9803 0.75352 0.66082 0.0
H59 H 0.02163 0.83267 0.79854 0.0
H60 H 0.06439 0.79757 0.80072 0.0
H61 H 0.02023 0.78824 0.83381 0.0
H62 H 1.0064 0.73901 0.64379 0.0
H63 H 0.97509 0.7852 0.64804 0.0
H64 H 0.95256 0.73451 0.6547 0.0
C65 C 0.26768 0.02321 0.77305 0.0
N66 N 0.30839 0.01474 0.77475 0.0
N67 N 0.2492 1.0003 0.74253 0.0
C68 C 0.2468 0.05663 0.79816 0.0
C69 C 0.27992 0.97642 0.72748 0.0
N70 N 0.31638 0.98731 0.74446 0.0
C71 C 0.27572 0.94895 0.68901 0.0
H72 H 0.23217 0.04232 0.82628 0.0
H73 H 0.22237 0.07177 0.77922 0.0
H74 H 0.26925 0.08028 0.80901 0.0
H75 H 0.28065 0.96775 0.66003 0.0
H76 H 0.2446 0.93504 0.68753 0.0
H77 H 0.299 0.9238 0.68972 0.0
C78 C 1.00566 0.24924 0.76864 0.0
N79 N 0.99887 0.2455 0.72641 0.0
N80 N 0.99437 0.28752 0.78231 0.0
C81 C 0.02456 0.21672 0.79645 0.0
C82 C 0.97987 0.30638 0.74729 0.0
N83 N 0.98368 0.28152 0.71321 0.0
C84 C 0.96768 0.35162 0.74522 0.0
H85 H 1.0146 0.22101 0.82971 0.0
H86 H 0.05843 0.21989 0.79532 0.0
H87 H 0.01601 0.1851 0.78557 0.0
H88 H 0.99353 0.37008 0.7322 0.0
H89 H 0.95959 0.36388 0.77694 0.0
H90 H 0.94095 0.35565 0.72396 0.0
C91 C 0.79254 0.03322 0.76745 0.0
N92 N 0.75147 0.04188 0.76965 0.0
N93 N 0.80834 0.04512 0.72945 0.0
C94 C 0.81753 0.01317 0.80156 0.0
C95 C 0.77604 0.06219 0.70945 0.0
N96 N 0.74142 0.05859 0.73258 0.0
C97 C 0.77706 0.07703 0.66416 0.0
H98 H 0.80809 0.02492 0.83306 0.0
H99 H 0.85068 0.01943 0.79673 0.0
H100 H 0.8127 0.97905 0.80055 0.0
H101 H 0.76617 0.05176 0.64307 0.0
H102 H 0.80855 0.08608 0.65451 0.0
H103 H 0.75646 0.10415 0.66003 0.0
C104 C 0.27069 0.25349 0.02033 0.0
N105 N 0.31182 0.25082 0.02952 0.0
N106 N 0.25519 0.29139 0.03161 0.0
C107 C 0.2453 0.21983 1.00066 0.0
C108 C 0.28764 0.3108 0.04899 0.0
N109 N 0.32199 0.28749 0.04614 0.0
C110 C 0.28687 0.35526 0.06448 0.0
H111 H 0.25088 0.21941 0.96608 0.0
H112 H 0.21215 0.22554 1.00608 0.0
H113 H 0.25374 0.1891 0.01399 0.0
H114 H 0.25528 0.36546 0.07236 0.0
H115 H 0.29947 0.376 0.03961 0.0
H116 H 0.30616 0.35861 0.09312 0.0
C117 C 0.27059 0.7717 0.9918 0.0
N118 N 0.31183 0.77432 0.98319 0.0
N119 N 0.25508 0.73399 0.97992 0.0
C120 C 0.24509 0.80528 0.01146 0.0
C121 C 0.28767 0.71462 0.96281 0.0
N122 N 0.3221 0.73774 0.96643 0.0
C123 C 0.28696 0.67024 0.94712 0.0
H124 H 0.25055 0.80566 0.04605 0.0
H125 H 0.21196 0.79952 1.00591 0.0
H126 H 0.25357 0.83604 0.99822 0.0
H127 H 0.25553 0.6605 0.938 0.0
H128 H 0.29826 0.64926 0.9724 0.0
H129 H 0.30733 0.66674 0.91928 0.0
C130 C 0.73893 0.26231 0.97656 0.0
N131 N 0.7613 0.29753 0.97891 0.0
N132 N 0.75611 0.23163 0.99934 0.0
C133 C 0.69663 0.25966 0.95714 0.0
C134 C 0.79208 0.24831 0.01291 0.0
N135 N 0.79559 0.28865 0.99987 0.0
C136 C 0.82291 0.22486 0.03869 0.0
H137 H 0.67392 0.27399 0.97885 0.0
H138 H 0.68755 0.22694 0.95114 0.0
H139 H 0.69582 0.27683 0.92677 0.0
H140 H 0.81805 0.19084 0.0356 0.0
H141 H 0.81926 0.23337 0.07245 0.0
H142 H 0.85452 0.23271 0.02844 0.0
C143 C 0.7398 0.76232 0.03717 0.0
N144 N 0.76192 0.72699 0.03434 0.0
N145 N 0.75635 0.79273 0.01352 0.0
C146 C 0.69807 0.76527 0.05784 0.0
C147 C 0.79187 0.7759 0.99901 0.0
N148 N 0.79567 0.73569 0.01235 0.0
C149 C 0.82202 0.79911 0.9721 0.0
H150 H 0.67471 0.75078 0.037 0.0
H151 H 0.68929 0.79807 0.06377 0.0
H152 H 0.69809 0.74843 0.08841 0.0
H153 H 0.8171 0.83314 0.97481 0.0
H154 H 0.81762 0.79009 0.93857 0.0
H155 H 0.85388 0.79155 0.98167 0.0
C156 C 0.55741 0.75147 0.74414 0.0
N157 N 0.56336 0.79321 0.74121 0.0
N158 N 0.56707 0.73783 0.78346 0.0
C159 C 0.54047 0.72424 0.70985 0.0
C160 C 0.57949 0.7725 0.80387 0.0
N161 N 0.57649 0.80612 0.77866 0.0
C162 C 0.58911 0.77448 0.85045 0.0
H163 H 0.50652 0.72382 0.7122 0.0
H164 H 0.55165 0.69187 0.71361 0.0
H165 H 0.54932 0.73618 0.67824 0.0
H166 H 0.59801 0.74353 0.86293 0.0
H167 H 0.56166 0.78567 0.86782 0.0
H168 H 0.61446 0.79674 0.85635 0.0
C169 C 0.29263 0.49126 0.74506 0.0
N170 N 0.25162 0.48215 0.74317 0.0
N171 N 0.30879 0.47942 0.7829 0.0
C172 C 0.31723 0.51167 0.71084 0.0
C173 C 0.27681 0.46191 0.8031 0.0
N174 N 0.24199 0.46531 0.7803 0.0
C175 C 0.2784 0.44676 0.8483 0.0
H176 H 0.30771 0.49993 0.67937 0.0
H177 H 0.35046 0.50572 0.7154 0.0
H178 H 0.31213 0.54575 0.71202 0.0
H179 H 0.26588 0.47111 0.86956 0.0
H180 H 0.31023 0.43939 0.85815 0.0
H181 H 0.25942 0.41838 0.852 0.0
C182 C 0.54904 0.27319 0.7453 0.0
N183 N 0.55818 0.27727 0.78704 0.0
N184 N 0.55827 0.23431 0.73168 0.0
C185 C 0.52988 0.30602 0.71807 0.0
C186 C 0.57401 0.21546 0.76613 0.0
N187 N 0.57293 0.24095 0.79994 0.0
C188 C 0.58538 0.17001 0.76815 0.0
H189 H 0.49602 0.30396 0.72091 0.0
H190 H 0.53813 0.30112 0.68441 0.0
H191 H 0.5399 0.33746 0.72816 0.0
H192 H 0.59145 0.15713 0.73621 0.0
H193 H 0.55995 0.1523 0.78299 0.0
H194 H 0.61319 0.16568 0.78782 0.0
C195 C 0.76739 0.47878 0.74148 0.0
N196 N 0.80842 0.47091 0.73979 0.0
N197 N 0.75112 0.4643 0.77809 0.0
C198 C 0.74272 0.50086 0.70839 0.0
C199 C 0.78315 0.44613 0.79758 0.0
N200 N 0.81832 0.45247 0.77601 0.0
C201 C 0.78131 0.42932 0.84216 0.0
H202 H 0.74695 0.53489 0.712 0.0
H203 H 0.70959 0.49379 0.71216 0.0
H204 H 0.7528 0.49146 0.67629 0.0
H205 H 0.74969 0.41955 0.85058 0.0
H206 H 0.79139 0.45373 0.86468 0.0
H207 H 0.80213 0.40226 0.8455 0.0
C208 C 0.53875 0.27426 0.27101 0.0
N209 N 0.54172 0.23229 0.27335 0.0
N210 N 0.55504 0.28825 0.23418 0.0
C211 C 0.51494 0.30065 0.30138 0.0
C212 C 0.56902 0.25333 0.21529 0.0
N213 N 0.56019 0.21931 0.23846 0.0
C214 C 0.58566 0.25172 0.17087 0.0
H215 H 0.48185 0.29836 0.29354 0.0
H216 H 0.52448 0.33369 0.29897 0.0
H217 H 0.51915 0.28946 0.33425 0.0
H218 H 0.60109 0.28138 0.16254 0.0
H219 H 0.56004 0.24647 0.14843 0.0
H220 H 0.60762 0.22556 0.16754 0.0
C221 C 0.76889 0.54302 0.27126 0.0
N222 N 0.80994 0.55098 0.27267 0.0
N223 N 0.75221 0.55835 0.23523 0.0
C224 C 0.74452 0.52015 0.30407 0.0
C225 C 0.78398 0.57722 0.21593 0.0
N226 N 0.8194 0.57032 0.23681 0.0
C227 C 0.78159 0.59536 0.17191 0.0
H228 H 0.7489 0.48621 0.29977 0.0
H229 H 0.71133 0.52706 0.30067 0.0
H230 H 0.75469 0.52903 0.33628 0.0
H231 H 0.74983 0.60514 0.16417 0.0
H232 H 0.7916 0.57173 0.14851 0.0
H233 H 0.80222 0.62266 0.1692 0.0
C234 C 0.50644 0.75034 0.26747 0.0
N235 N 0.49982 0.74669 0.2252 0.0
N236 N 0.4955 0.78875 0.2811 0.0
C237 C 0.52479 0.71757 0.29538 0.0
C238 C 0.4814 0.8078 0.246 0.0
N239 N 0.48497 0.78285 0.21195 0.0
C240 C 0.46958 0.85313 0.2439 0.0
H241 H 0.51461 0.72187 0.32856 0.0
H242 H 0.55869 0.72039 0.29454 0.0
H243 H 0.51601 0.68605 0.28435 0.0
H244 H 0.49558 0.87134 0.23082 0.0
H245 H 0.4616 0.8655 0.2756 0.0
H246 H 0.44287 0.85737 0.22265 0.0
C247 C 0.29232 0.52995 0.26846 0.0
N248 N 0.25116 0.5383 0.27037 0.0
N249 N 0.30825 0.54165 0.23044 0.0
C250 C 0.31737 0.51063 0.30296 0.0
C251 C 0.27596 0.55829 0.21009 0.0
N252 N 0.24125 0.55474 0.2331 0.0
C253 C 0.27725 0.57299 0.16473 0.0
H254 H 0.30789 0.52293 0.33423 0.0
H255 H 0.35051 0.51692 0.29805 0.0
H256 H 0.31268 0.47647 0.30261 0.0
H257 H 0.26521 0.54815 0.14378 0.0
H258 H 0.30893 0.5809 0.15474 0.0
H259 H 0.25772 0.60092 0.16071 0.0
C260 C 0.77082 0.75338 0.52241 0.0
N261 N 0.81219 0.75035 0.53002 0.0
N262 N 0.75626 0.79174 0.53332 0.0
C263 C 0.74435 0.71958 0.50455 0.0
C264 C 0.78962 0.81115 0.5488 0.0
N265 N 0.82348 0.7872 0.54538 0.0
C266 C 0.79012 0.85601 0.56295 0.0
H267 H 0.74847 0.71849 0.46977 0.0
H268 H 0.71151 0.72567 0.51134 0.0
H269 H 0.75314 0.68902 0.51803 0.0
H270 H 0.75921 0.86643 0.57309 0.0
H271 H 0.80059 0.87597 0.53643 0.0
H272 H 0.81172 0.86021 0.58966 0.0
C273 C 0.76935 0.27031 0.49322 0.0
N274 N 0.81044 0.27265 0.48383 0.0
N275 N 0.7533 0.23292 0.48112 0.0
C276 C 0.74449 0.30381 0.51386 0.0
C277 C 0.78537 0.21351 0.46304 0.0
N278 N 0.82009 0.23623 0.46636 0.0
C279 C 0.78394 0.16938 0.44666 0.0
H280 H 0.75047 0.30356 0.54837 0.0
H281 H 0.71123 0.29847 0.50878 0.0
H282 H 0.75304 0.3347 0.50098 0.0
H283 H 0.75221 0.15997 0.43833 0.0
H284 H 0.79586 0.14794 0.47123 0.0
H285 H 0.80348 0.16623 0.41815 0.0
C286 C 0.23673 0.76331 0.47719 0.0
N287 N 0.26054 0.79762 0.47834 0.0
N288 N 0.25343 0.73221 0.49975 0.0
C289 C 0.19401 0.76198 0.45866 0.0
C290 C 0.29031 0.74765 0.5122 0.0
N291 N 0.29489 0.78772 0.49869 0.0
C292 C 0.32094 0.72344 0.5375 0.0
H293 H 0.17237 0.77803 0.48028 0.0
H294 H 0.18337 0.72956 0.45383 0.0
H295 H 0.19339 0.77816 0.42774 0.0
H296 H 0.31545 0.68955 0.53419 0.0
H297 H 0.31769 0.73174 0.57137 0.0
H298 H 0.35261 0.73085 0.5271 0.0
C299 C 0.24047 0.2639 0.54138 0.0
N300 N 0.26165 0.22802 0.53816 0.0
N301 N 0.2573 0.29387 0.51736 0.0
C302 C 0.19903 0.26782 0.56251 0.0
C303 C 0.29232 0.27621 0.50251 0.0
N304 N 0.29549 0.23596 0.51599 0.0
C305 C 0.32256 0.29877 0.47516 0.0
H306 H 0.17511 0.25394 0.54192 0.0
H307 H 0.19109 0.30083 0.56854 0.0
H308 H 0.19899 0.25097 0.59307 0.0
H309 H 0.31787 0.33288 0.47728 0.0
H310 H 0.31808 0.28923 0.44179 0.0
H311 H 0.35438 0.2912 0.48486 0.0
C312 C 0.03725 0.91817 0.6133 0.0
C313 C 0.03747 0.90876 0.40758 0.0
C314 C 0.02996 0.11752 0.60432 0.0
C315 C 0.03749 0.10805 0.39887 0.0
C316 C 0.93855 0.11326 0.49558 0.0
C317 C 0.94369 0.90792 0.51532 0.0
C318 C 0.13586 0.11325 0.50974 0.0
C319 C 0.14123 0.91881 0.50363 0.0
C320 C 0.13313 1.00755 0.40211 0.0
C321 C 0.93703 1.00698 0.40238 0.0
C322 C 0.13231 0.01722 0.6111 0.0
C323 C 0.93639 0.01789 0.60958 0.0
Eu324 Eu 0.04029 0.93465 0.50954 0.0
O325 O 1.0006 0.97314 0.47095 0.0
O326 O 0.07445 0.97891 0.54603 0.0
Eu327 Eu 0.95768 0.01109 0.50602 0.0
Eu328 Eu 0.11424 0.01539 0.50637 0.0
O329 O 1.00117 0.97717 0.54393 0.0
O330 O 0.07415 0.97622 0.47036 0.0
Eu331 Eu 0.03518 0.01684 0.58532 0.0
Eu332 Eu 0.03568 1.00955 0.42713 0.0
O333 O 0.99861 0.05102 0.5411 0.0
O334 O 0.9994 0.0474 0.46817 0.0
O335 O 0.07274 0.04965 0.46649 0.0
O336 O 0.07223 0.05267 0.54247 0.0
Eu337 Eu 0.03602 0.09185 0.5028 0.0
O338 O 0.04355 0.90358 0.57422 0.0
O339 O 0.03993 0.89721 0.44815 0.0
O340 O 0.02761 0.1286 0.56368 0.0
O341 O 0.03738 0.12316 0.43826 0.0
O342 O 0.92485 0.07409 0.50006 0.0
O343 O 0.92815 0.94641 0.51134 0.0
O344 O 0.14869 0.07447 0.50673 0.0
O345 O 0.1521 0.95831 0.50569 0.0
O346 O 0.09407 1.00477 0.3908 0.0
O347 O 0.9762 1.007 0.39043 0.0
O348 O 0.09318 0.0165 0.62247 0.0
O349 O 0.97548 0.02053 0.62149 0.0
O350 O 0.09697 0.12654 0.50927 0.0
O351 O 0.97721 0.12597 0.49549 0.0
O352 O 0.10308 0.90354 0.50473 0.0
O353 O 0.98298 0.89722 0.51538 0.0
O354 O 0.03496 0.94773 0.39375 0.0
O355 O 0.03722 0.06808 0.38814 0.0
O356 O 0.03153 0.95785 0.62359 0.0
O357 O 0.03526 0.07902 0.61874 0.0
O358 O 0.92333 0.01362 0.56955 0.0
O359 O 0.92369 1.00831 0.44249 0.0
O360 O 0.14654 0.01756 0.57121 0.0
O361 O 0.14701 0.01328 0.44169 0.0
C362 C 0.52255 0.89212 0.08224 0.0
C363 C 0.53338 0.08751 0.12836 0.0
C364 C 0.53809 0.93748 0.8847 0.0
C365 C 0.5387 0.13258 0.93091 0.0
C366 C 0.63054 0.02829 0.90465 0.0
C367 C 0.63087 0.99496 0.10849 0.0
C368 C 0.43026 0.02866 0.90562 0.0
C369 C 0.43142 0.99657 0.10864 0.0
C370 C 0.43131 0.11466 0.02079 0.0
C371 C 0.63337 0.10895 0.02309 0.0
C372 C 0.43037 0.91154 0.9911 0.0
C373 C 0.63236 0.91415 0.99111 0.0
Eu374 Eu 0.53119 0.99501 0.08467 0.0
O375 O 0.5675 0.0403 0.05138 0.0
O376 O 0.49497 0.96947 0.03427 0.0
Eu377 Eu 0.60825 0.01168 0.0067 0.0
Eu378 Eu 0.45236 0.013 0.00696 0.0
O379 O 0.56775 0.96685 0.03557 0.0
O380 O 0.49462 0.04069 0.05151 0.0
Eu381 Eu 0.53078 0.93508 0.98899 0.0
Eu382 Eu 0.53157 0.08948 0.02405 0.0
O383 O 0.56654 0.98441 0.96208 0.0
O384 O 0.56712 0.05577 0.97828 0.0
O385 O 0.49423 0.05701 0.97823 0.0
O386 O 0.49377 0.98425 0.96185 0.0
Eu387 Eu 0.53052 0.02965 0.92849 0.0
O388 O 0.52552 0.92754 0.10397 0.0
O389 O 0.53484 0.04643 0.1331 0.0
O390 O 0.53628 0.97853 0.88016 0.0
O391 O 0.53512 0.09722 0.90918 0.0
O392 O 0.64267 0.01768 0.94364 0.0
O393 O 0.64288 1.00609 0.0696 0.0
O394 O 0.41816 0.01964 0.94492 0.0
O395 O 0.41863 1.00695 0.06988 0.0
O396 O 0.47055 0.12542 0.02788 0.0
O397 O 0.59478 0.12206 0.03037 0.0
O398 O 0.46919 0.90093 0.98184 0.0
O399 O 0.59347 0.90097 0.98583 0.0
O400 O 0.46925 0.03474 0.89357 0.0
O401 O 0.59168 0.03609 0.89338 0.0
O402 O 0.47038 0.98963 0.11991 0.0
O403 O 0.59209 0.98665 0.11961 0.0
O404 O 0.53098 0.10848 0.09218 0.0
O405 O 0.53774 0.13704 0.9726 0.0
O406 O 0.52431 0.88759 0.04056 0.0
O407 O 0.53559 0.91606 0.92065 0.0
O408 O 0.64347 0.953 0.99907 0.0
O409 O 0.64394 0.07038 0.01311 0.0
O410 O 0.41825 0.94999 1.00228 0.0
O411 O 0.41856 0.07588 0.01195 0.0
C412 C 0.02604 0.41571 0.11193 0.0
C413 C 0.02472 0.4058 0.91072 0.0
C414 C 0.0259 0.61887 0.10037 0.0
C415 C 0.02442 0.60838 0.89827 0.0
C416 C 0.92545 0.61338 0.99953 0.0
C417 C 0.92521 0.41152 0.01136 0.0
C418 C 0.12532 0.61529 1.00085 0.0
C419 C 0.12504 0.40946 0.00989 0.0
C420 C 0.12356 0.50296 0.90265 0.0
C421 C 0.9301 0.49818 0.90249 0.0
C422 C 0.12314 0.52118 0.10918 0.0
C423 C 0.92976 0.52608 0.10832 0.0
Eu424 Eu 0.02555 0.434 0.01036 0.0
O425 O 0.98998 0.47442 0.97102 0.0
O426 O 0.06358 0.47702 0.04513 0.0
Eu427 Eu 0.94741 0.51244 1.0054 0.0
Eu428 Eu 0.10518 0.51237 1.00574 0.0
O429 O 0.9881 0.47698 0.04562 0.0
O430 O 0.06251 0.47405 0.97126 0.0
Eu431 Eu 0.02625 0.51607 0.08443 0.0
Eu432 Eu 0.02653 0.5085 0.92662 0.0
O433 O 0.99016 0.55048 0.0397 0.0
O434 O 0.98851 0.54781 0.96538 0.0
O435 O 0.06389 0.54777 0.96591 0.0
O436 O 0.0623 0.55078 0.03979 0.0
Eu437 Eu 0.02587 0.59109 1.00032 0.0
O438 O 0.02738 0.40168 0.07258 0.0
O439 O 0.02242 0.3955 0.9513 0.0
O440 O 0.02355 0.62939 0.0598 0.0
O441 O 0.02744 0.62318 0.9373 0.0
O442 O 0.91286 0.5739 1.00234 0.0
O443 O 0.91267 0.451 0.00833 0.0
O444 O 0.13859 0.57572 1.00336 0.0
O445 O 0.13842 0.44902 0.00799 0.0
O446 O 0.08484 0.5051 0.8903 0.0
O447 O 0.96895 0.4994 0.89053 0.0
O448 O 0.08427 0.5198 0.12117 0.0
O449 O 0.96852 0.52442 0.12043 0.0
O450 O 0.08604 0.62699 0.99902 0.0
O451 O 0.96458 0.62598 0.99758 0.0
O452 O 0.08567 0.39784 0.01129 0.0
O453 O 0.96432 0.399 0.01348 0.0
O454 O 0.02799 0.44445 0.89539 0.0
O455 O 0.02224 0.56819 0.88757 0.0
O456 O 0.02429 0.45579 0.12336 0.0
O457 O 0.02843 0.5801 0.11555 0.0
O458 O 0.91521 0.52123 0.06904 0.0
O459 O 0.91542 0.50363 0.94165 0.0
O460 O 0.13753 0.51856 0.0696 0.0
O461 O 0.13772 0.50528 0.94228 0.0
C462 C 0.53773 0.41807 0.11472 0.0
C463 C 0.53011 0.61764 0.10404 0.0
C464 C 0.53706 0.40728 0.90916 0.0
C465 C 0.53922 0.6069 0.89887 0.0
C466 C 0.63218 0.5041 0.9024 0.0
C467 C 0.63286 0.52059 0.11072 0.0
C468 C 0.43607 0.50701 0.90313 0.0
C469 C 0.43666 0.51704 0.11072 0.0
C470 C 0.43994 0.61448 0.99621 0.0
C471 C 0.63736 0.61045 0.00916 0.0
C472 C 0.4411 0.40926 0.0157 0.0
C473 C 0.63868 0.41585 1.00521 0.0
Eu474 Eu 0.53547 0.51667 0.086 0.0
O475 O 0.57268 0.5514 0.04245 0.0
O476 O 0.5002 0.47753 0.04503 0.0
Eu477 Eu 0.61372 0.51303 0.00658 0.0
Eu478 Eu 0.45722 0.512 0.00687 0.0
O479 O 0.57369 0.47742 0.04687 0.0
O480 O 0.49914 0.55116 0.04163 0.0
Eu481 Eu 0.53812 0.434 0.01075 0.0
Eu482 Eu 0.53701 0.59099 1.00279 0.0
O483 O 0.57248 0.47465 0.97111 0.0
O484 O 0.5727 0.54776 0.96656 0.0
O485 O 0.49937 0.54718 0.96837 0.0
O486 O 0.49918 0.47292 0.97178 0.0
Eu487 Eu 0.53476 0.5083 0.92739 0.0
O488 O 0.53748 0.45811 0.12537 0.0
O489 O 0.53389 0.5791 0.11886 0.0
O490 O 0.53338 0.4459 0.89454 0.0
O491 O 0.53799 0.5669 0.88815 0.0
O492 O 0.6462 0.51008 0.94187 0.0
O493 O 0.64667 0.51547 0.07103 0.0
O494 O 0.4229 0.50903 0.94333 0.0
O495 O 0.42333 0.51444 0.07064 0.0
O496 O 0.47887 0.62629 0.99527 0.0
O497 O 0.5987 0.62446 0.00872 0.0
O498 O 0.4801 0.39765 0.01457 0.0
O499 O 0.6003 0.40132 0.00768 0.0
O500 O 0.47518 0.50643 0.89105 0.0
O501 O 0.59308 0.50176 0.89111 0.0
O502 O 0.47584 0.51853 0.12258 0.0
O503 O 0.59381 0.52254 0.12226 0.0
O504 O 0.52924 0.62852 0.06329 0.0
O505 O 0.53924 0.622 0.93824 0.0
O506 O 0.53802 0.40296 0.07535 0.0
O507 O 0.53993 0.39633 0.9498 0.0
O508 O 0.65025 0.45518 1.00561 0.0
O509 O 0.64943 0.57139 0.00642 0.0
O510 O 0.42633 0.44814 0.01303 0.0
O511 O 0.42552 0.57566 1.00138 0.0
C512 C 0.02232 0.39131 0.58413 0.0
C513 C 0.03382 0.43408 0.38647 0.0
C514 C 0.02051 0.58685 0.62781 0.0
C515 C 0.02751 0.62989 0.42926 0.0
C516 C 0.92904 0.61224 0.52068 0.0
C517 C 0.92991 0.40881 0.49225 0.0
C518 C 0.13084 0.60911 0.5231 0.0
C519 C 0.13218 0.41388 0.49336 0.0
C520 C 0.13043 0.52647 0.40598 0.0
C521 C 0.93083 0.52659 0.40416 0.0
C522 C 0.12882 0.49619 0.6101 0.0
C523 C 0.92891 0.49356 0.60761 0.0
Eu524 Eu 0.03022 0.43353 0.49071 0.0
O525 O 0.99319 0.48186 0.46223 0.0
O526 O 0.06636 0.4665 0.53698 0.0
Eu527 Eu 0.95064 0.51055 0.5061 0.0
Eu528 Eu 0.10691 0.5113 0.50805 0.0
O529 O 0.99321 0.46781 0.535 0.0
O530 O 0.06637 0.48243 0.46336 0.0
Eu531 Eu 0.02891 0.49432 0.58529 0.0
Eu532 Eu 0.0304 0.52691 0.42898 0.0
O533 O 0.99276 0.53883 0.55031 0.0
O534 O 0.99333 0.55399 0.47815 0.0
O535 O 0.06626 0.55519 0.47832 0.0
O536 O 0.06556 0.54002 0.55255 0.0
Eu537 Eu 0.02928 0.58826 0.52365 0.0
O538 O 0.02431 0.38639 0.54255 0.0
O539 O 0.03157 0.41353 0.4229 0.0
O540 O 0.02362 0.60788 0.59169 0.0
O541 O 0.02601 0.63509 0.47091 0.0
O542 O 0.91657 0.57352 0.51098 0.0
O543 O 0.91717 0.4474 0.5019 0.0
O544 O 0.14196 0.5704 0.51437 0.0
O545 O 0.14277 0.45285 0.50154 0.0
O546 O 0.09163 0.53378 0.39427 0.0
O547 O 0.96995 0.53338 0.39331 0.0
O548 O 0.0898 0.48883 0.62133 0.0
O549 O 0.96774 0.48635 0.6191 0.0
O550 O 0.09198 0.62202 0.52926 0.0
O551 O 0.96806 0.62315 0.52833 0.0
O552 O 0.09346 0.40029 0.4875 0.0
O553 O 0.96904 0.39828 0.48435 0.0
O554 O 0.03439 0.47509 0.38121 0.0
O555 O 0.03031 0.59395 0.40852 0.0
O556 O 0.0247 0.42698 0.60547 0.0
O557 O 0.02248 0.54589 0.63295 0.0
O558 O 0.91646 0.50465 0.5689 0.0
O559 O 0.91759 0.51623 0.44278 0.0
O560 O 0.14118 0.50602 0.571 0.0
O561 O 0.14223 0.51657 0.4453 0.0
C562 C 0.53146 0.91513 0.6136 0.0
C563 C 0.52472 0.90521 0.41162 0.0
C564 C 0.52424 0.11726 0.6029 0.0
C565 C 0.52501 0.10849 0.40132 0.0
C566 C 0.42377 0.1115 0.50357 0.0
C567 C 0.42534 0.90925 0.51034 0.0
C568 C 0.62362 0.11458 0.50294 0.0
C569 C 0.62504 0.90891 0.51248 0.0
C570 C 0.62291 1.00272 0.40393 0.0
C571 C 0.42954 0.99828 0.40372 0.0
C572 C 0.62197 0.02439 0.61015 0.0
C573 C 0.42877 1.00517 0.61032 0.0
Eu574 Eu 0.5254 0.93242 0.51174 0.0
O575 O 0.48968 0.97301 0.47244 0.0
O576 O 0.56284 0.97605 0.54644 0.0
Eu577 Eu 0.44664 1.01048 0.50688 0.0
Eu578 Eu 0.60435 0.01154 0.50719 0.0
O579 O 0.48832 0.97579 0.5463 0.0
O580 O 0.56208 0.97292 0.4725 0.0
Eu581 Eu 0.52531 0.01484 0.58599 0.0
Eu582 Eu 0.5259 1.00787 0.4282 0.0
O583 O 0.48776 0.0497 0.54261 0.0
O584 O 0.48752 0.04646 0.46731 0.0
O585 O 0.56262 0.047 0.46807 0.0
O586 O 0.56108 0.04929 0.54137 0.0
Eu587 Eu 0.52424 0.08969 0.50295 0.0
O588 O 0.5253 0.90038 0.57492 0.0
O589 O 0.52294 0.89445 0.45214 0.0
O590 O 0.52689 0.12776 0.56238 0.0
O591 O 0.52572 0.12242 0.44075 0.0
O592 O 0.41149 0.07188 0.50661 0.0
O593 O 0.41262 0.94859 0.50647 0.0
O594 O 0.63717 0.07512 0.50538 0.0
O595 O 0.63806 0.94854 0.50992 0.0
O596 O 0.58412 1.00423 0.39173 0.0
O597 O 0.46837 1.00004 0.3918 0.0
O598 O 0.58301 0.02523 0.6219 0.0
O599 O 0.4676 1.00687 0.62237 0.0
O600 O 0.58424 0.12599 0.50091 0.0
O601 O 0.4628 0.1243 0.50099 0.0
O602 O 0.5858 0.89689 0.51395 0.0
O603 O 0.46442 0.89703 0.51406 0.0
O604 O 0.52727 0.94403 0.39662 0.0
O605 O 0.52396 0.06843 0.38969 0.0
O606 O 0.53467 0.95528 0.62405 0.0
O607 O 0.52098 0.07846 0.61791 0.0
O608 O 0.41436 1.00786 0.57082 0.0
O609 O 0.41479 1.00272 0.44297 0.0
O610 O 0.6365 0.01795 0.57108 0.0
O611 O 0.63705 1.00532 0.44357 0.0
C612 C 0.21819 0.17216 0.5656 0.0
C613 C 0.23831 0.19096 0.53148 0.0
H614 H 0.16757 0.13407 0.58504 0.0
C615 C 0.22547 0.18233 0.49001 0.0
H616 H 0.22764 0.1788 0.5977 0.0
C617 C 0.19073 0.15829 0.48287 0.0
C618 C 0.16864 0.14265 0.51716 0.0
H619 H 0.24039 0.19716 0.46338 0.0
H620 H 0.18079 0.1524 0.45074 0.0
C621 C 0.18333 0.14808 0.55844 0.0
C622 C 0.87892 0.19667 0.44038 0.0
C623 C 0.85782 0.21484 0.47424 0.0
H624 H 0.92023 0.14844 0.42086 0.0
C625 C 0.86527 0.20074 0.51556 0.0
H626 H 0.87287 0.2067 0.40832 0.0
C627 C 0.89071 0.1666 0.52257 0.0
C628 C 0.90918 0.14654 0.4883 0.0
H629 H 0.8485 0.21395 0.54189 0.0
H630 H 0.89542 0.15546 0.55453 0.0
C631 C 0.90467 0.16274 0.44741 0.0
C632 C 0.86848 0.82179 0.49532 0.0
C633 C 0.86201 0.80675 0.53648 0.0
H634 H 0.8982 0.86768 0.45664 0.0
C635 C 0.8853 0.82285 0.5699 0.0
H636 H 0.85001 0.81023 0.46941 0.0
C637 C 0.91227 0.85583 0.56276 0.0
C638 C 0.91555 0.87337 0.5223 0.0
H639 H 0.87998 0.81221 0.60191 0.0
H640 H 0.92924 0.86881 0.5891 0.0
C641 C 0.89483 0.85527 0.48829 0.0
C642 C 0.23032 0.84913 0.52466 0.0
C643 C 0.24092 0.83703 0.48343 0.0
H644 H 0.18841 0.88354 0.5634 0.0
C645 C 0.2213 0.85551 0.44884 0.0
H646 H 0.24499 0.83471 0.55164 0.0
C647 C 0.18819 0.88208 0.45557 0.0
C648 C 0.17505 0.89047 0.49688 0.0
H649 H 0.22919 0.84633 0.41693 0.0
H650 H 0.17208 0.89504 0.42866 0.0
C651 C 0.19736 0.87571 0.53139 0.0
C652 C 0.5786 0.14809 0.21717 0.0
C653 C 0.55029 0.18072 0.21876 0.0
H654 H 0.59444 0.09054 0.18679 0.0
C655 C 0.51337 0.17815 0.19636 0.0
H656 H 0.6073 0.15021 0.23421 0.0
C657 C 0.50586 0.14465 0.1701 0.0
C658 C 0.53538 0.11346 0.16578 0.0
H659 H 0.49156 0.20354 0.19744 0.0
H660 H 0.47846 0.14469 0.15068 0.0
C661 C 0.57104 0.11415 0.19064 0.0
C662 C 0.87783 0.58898 0.19202 0.0
C663 C 0.85439 0.55849 0.21232 0.0
H664 H 0.91946 0.6022 0.14128 0.0
C665 C 0.85707 0.51687 0.19902 0.0
H666 H 0.87552 0.62122 0.20157 0.0
C667 C 0.88049 0.50631 0.16386 0.0
C668 C 0.90175 0.53726 0.14204 0.0
H669 H 0.83842 0.49318 0.21396 0.0
H670 H 0.88176 0.47421 0.15353 0.0
C671 C 0.90167 0.57833 0.15708 0.0
C672 C 0.53465 0.80613 0.15967 0.0
C673 C 0.49354 0.79961 0.17102 0.0
H674 H 0.57632 0.84177 0.12178 0.0
C675 C 0.46212 0.81784 0.14731 0.0
H676 H 0.5591 0.79254 0.17827 0.0
C677 C 0.47188 0.84579 0.11519 0.0
C678 C 0.51306 0.85535 0.10686 0.0
H679 H 0.43035 0.81317 0.15612 0.0
H680 H 0.44742 0.8623 0.09919 0.0
C681 C 0.54445 0.83427 0.12785 0.0
C682 C 0.18254 0.57876 0.1918 0.0
C683 C 0.20352 0.54621 0.21169 0.0
H684 H 0.14145 0.59594 0.14185 0.0
C685 C 0.19563 0.50497 0.19952 0.0
H686 H 0.18884 0.6107 0.20046 0.0
C687 C 0.16988 0.4966 0.16539 0.0
C688 C 0.15172 0.52947 0.1434 0.0
H689 H 0.21226 0.47962 0.21413 0.0
H690 H 0.16496 0.46472 0.15555 0.0
C691 C 0.15668 0.57041 0.15775 0.0
C692 C 0.52653 0.85808 0.80063 0.0
C693 C 0.56767 0.84652 0.79519 0.0
H694 H 0.48458 0.89736 0.83416 0.0
C695 C 0.59897 0.87069 0.81277 0.0
H696 H 0.5022 0.83917 0.78743 0.0
C697 C 0.58899 0.90401 0.83896 0.0
C698 C 0.54774 0.91298 0.84757 0.0
H699 H 0.63075 0.86173 0.80885 0.0
H700 H 0.61332 0.92048 0.85526 0.0
C701 C 0.51652 0.89108 0.82711 0.0
C702 C 0.19623 0.51597 0.81216 0.0
C703 C 0.20451 0.47431 0.80195 0.0
H704 H 0.16486 0.55779 0.85397 0.0
C705 C 0.18375 0.44241 0.82314 0.0
H706 H 0.21266 0.54083 0.79645 0.0
C707 C 0.15764 0.45199 0.85663 0.0
C708 C 0.1522 0.49349 0.86894 0.0
H709 H 0.19026 0.4102 0.81583 0.0
H710 H 0.14251 0.42704 0.87361 0.0
C711 C 0.17015 0.52556 0.84562 0.0
C712 C 0.52531 0.21955 0.85495 0.0
C713 C 0.56599 0.22488 0.84147 0.0
H714 H 0.48453 0.18488 0.89473 0.0
C715 C 0.598 0.20578 0.86358 0.0
H716 H 0.50038 0.23386 0.83764 0.0
C717 C 0.589 0.17787 0.89596 0.0
C718 C 0.54802 0.16933 0.90623 0.0
H719 H 0.62943 0.2096 0.8532 0.0
H720 H 0.61373 0.16058 0.91062 0.0
C721 C 0.51627 0.19153 0.8871 0.0
C722 C 0.85677 0.5064 0.81223 0.0
C723 C 0.85378 0.4646 0.79957 0.0
H724 H 0.88205 0.54961 0.85684 0.0
C725 C 0.8775 0.43437 0.81988 0.0
H726 H 0.83793 0.5299 0.79727 0.0
C727 C 0.90183 0.44546 0.85431 0.0
C728 C 0.90211 0.4867 0.86884 0.0
H729 H 0.87497 0.40201 0.81083 0.0
H730 H 0.91973 0.42176 0.87021 0.0
C731 C 0.88066 0.5174 0.8469 0.0
C732 C 0.72065 0.67008 0.06303 0.0
C733 C 0.73976 0.68908 0.0284 0.0
H734 H 0.67092 0.63137 0.08371 0.0
C735 C 0.7265 0.67973 0.98724 0.0
H736 H 0.73045 0.67723 0.0949 0.0
C737 C 0.692 0.65511 0.98093 0.0
C738 C 0.6707 0.63945 0.01574 0.0
H739 H 0.74066 0.69467 0.96024 0.0
H740 H 0.68149 0.64895 0.94904 0.0
C741 C 0.68608 0.64531 0.0567 0.0
C742 C 0.36657 0.70206 0.01615 0.0
C743 C 0.35999 0.71685 0.97491 0.0
H744 H 0.39571 0.65597 0.055 0.0
C745 C 0.38195 0.69934 0.94128 0.0
H746 H 0.34911 0.71473 0.04228 0.0
C747 C 0.40762 0.66534 0.94834 0.0
C748 C 0.41114 0.64834 0.989 0.0
H749 H 0.37653 0.70981 0.90924 0.0
H750 H 0.42371 0.65147 0.9219 0.0
C751 C 0.39183 0.66776 0.02317 0.0
C752 C 0.36883 0.32054 0.99677 0.0
C753 C 0.36025 0.30796 0.03836 0.0
H754 H 0.40013 0.36442 0.95703 0.0
C755 C 0.38095 0.3269 0.07206 0.0
H756 H 0.35243 0.3067 0.97054 0.0
C757 C 0.40705 0.36046 0.0645 0.0
C758 C 0.41257 0.37527 0.02322 0.0
H759 H 0.37409 0.31796 0.10429 0.0
H760 H 0.4219 0.3757 0.09094 0.0
C761 C 0.3948 0.35419 0.9892 0.0
C762 C 0.72073 0.35507 0.95069 0.0
C763 C 0.73969 0.33568 0.98512 0.0
H764 H 0.67174 0.39487 0.9305 0.0
C765 C 0.72698 0.34524 0.02643 0.0
H766 H 0.73005 0.34765 0.91871 0.0
C767 C 0.69311 0.37065 0.03311 0.0
C768 C 0.67202 0.38692 0.99849 0.0
H769 H 0.74102 0.32992 0.05325 0.0
H770 H 0.68288 0.37687 0.06508 0.0
C771 C 0.6869 0.38071 0.95738 0.0
C772 C 0.03467 0.66313 0.71421 0.0
C773 C 0.9949 0.67965 0.71644 0.0
H774 H 0.07411 0.61912 0.68368 0.0
C775 C 0.96244 0.65958 0.69601 0.0
H776 H 0.05997 0.67879 0.72965 0.0
C777 C 0.97047 0.62576 0.66983 0.0
C778 C 1.01089 0.61185 0.66453 0.0
H779 H 0.9317 0.67221 0.69763 0.0
H780 H 0.94576 0.61266 0.65116 0.0
C781 C 0.04272 0.6293 0.68814 0.0
C782 C 0.37737 0.96218 0.70683 0.0
C783 C 0.3494 0.99391 0.71557 0.0
H784 H 0.42499 0.94111 0.66523 0.0
C785 C 0.34785 0.02935 0.68958 0.0
H786 H 0.37815 0.93443 0.72617 0.0
C787 C 0.37257 0.03225 0.65401 0.0
C788 C 0.39989 1.0002 0.64478 0.0
H789 H 0.32593 0.05382 0.69596 0.0
H790 H 0.37073 0.05959 0.63408 0.0
C791 C 0.40312 0.96565 0.67178 0.0
C792 C 0.0339 0.30538 0.66178 0.0
C793 C 0.99266 0.29855 0.67249 0.0
H794 H 0.07588 0.34139 0.62461 0.0
C795 C 0.96146 0.31674 0.64848 0.0
H796 H 0.05817 0.29182 0.68063 0.0
C797 C 0.9715 0.3449 0.61665 0.0
C798 C 1.01274 0.35472 0.60894 0.0
H799 H 0.92961 0.31186 0.65682 0.0
H800 H 0.94717 0.3613 0.60033 0.0
C801 C 0.04397 0.33374 0.63025 0.0
C802 C 0.68103 0.08174 0.69327 0.0
C803 C 0.70385 0.0494 0.71123 0.0
H804 H 0.63733 0.09878 0.64566 0.0
C805 C 0.69748 1.00834 0.69759 0.0
H806 H 0.68625 0.11358 0.70301 0.0
C807 C 0.67128 1.00011 0.66387 0.0
C808 C 0.65077 0.03286 0.64407 0.0
H809 H 0.7156 0.98325 0.71071 0.0
H810 H 0.66763 0.96845 0.65278 0.0
C811 C 0.65425 0.07343 0.65997 0.0
C812 C 0.01623 0.34281 0.31842 0.0
C813 C 0.05268 0.342 0.29503 0.0
H814 H 0.98114 0.37433 0.36535 0.0
C815 C 0.0799 0.37559 0.29649 0.0
H816 H 0.9952 0.31674 0.31731 0.0
C817 C 0.07172 0.40885 0.32367 0.0
C818 C 0.03658 0.40786 0.34934 0.0
H819 H 0.1082 0.37485 0.27858 0.0
H820 H 0.09423 0.43341 0.32716 0.0
C821 C 1.00816 0.37558 0.34541 0.0
C822 C 0.68294 0.9437 0.32292 0.0
C823 C 0.70395 0.97593 0.30247 0.0
H824 H 0.64152 0.92741 0.37293 0.0
C825 C 0.69591 0.01738 0.31372 0.0
H826 H 0.68934 0.91162 0.31492 0.0
C827 C 0.66989 0.02635 0.34747 0.0
C828 C 0.65165 0.99388 0.37001 0.0
H829 H 0.71256 0.04248 0.29866 0.0
H830 H 0.66482 0.05841 0.35661 0.0
C831 C 0.65682 0.95266 0.3566 0.0
C832 C 0.04725 0.69999 0.3387 0.0
C833 C 1.011 0.72339 0.33799 0.0
H834 H 0.08102 0.65183 0.36931 0.0
C835 C 0.98298 0.72056 0.37136 0.0
H836 H 0.06878 0.70188 0.31268 0.0
C837 C 0.99019 0.69232 0.40414 0.0
C838 C 0.02503 0.66667 0.40279 0.0
H839 H 0.95471 0.73818 0.37061 0.0
H840 H 0.96718 0.68818 0.4285 0.0
C841 C 0.05416 0.67164 0.3708 0.0
C842 C 0.37678 0.93535 0.32063 0.0
C843 C 0.35419 0.96608 0.29973 0.0
H844 H 0.41769 0.92191 0.37189 0.0
C845 C 0.35801 1.00785 0.31221 0.0
H846 H 0.37365 0.90301 0.31165 0.0
C847 C 0.38153 0.0184 0.34727 0.0
C848 C 0.4017 0.98726 0.36984 0.0
H849 H 0.34007 0.03177 0.29677 0.0
H850 H 0.3836 0.05063 0.35703 0.0
C851 C 0.40066 0.94597 0.35554 0.0
C852 C 0.01706 0.20369 0.33374 0.0
C853 C 0.04591 0.19925 0.30104 0.0
H854 H 0.99288 0.17874 0.3914 0.0
C855 C 0.06909 0.16276 0.2983 0.0
H856 H 0.99929 0.23202 0.33641 0.0
C857 C 0.06499 0.13195 0.32929 0.0
C858 C 0.03855 0.1381 0.3639 0.0
H859 H 0.09191 0.15928 0.27369 0.0
H860 H 0.08417 0.10451 0.32755 0.0
C861 C 1.01389 0.17369 0.36535 0.0
C862 C 0.88169 0.97283 0.30228 0.0
C863 C 0.84488 0.99517 0.30506 0.0
H864 H 0.93994 0.95942 0.33085 0.0
C865 C 0.84029 0.02433 0.33797 0.0
H866 H 0.88552 0.94949 0.27795 0.0
C867 C 0.87024 0.02846 0.36945 0.0
C868 C 0.90618 1.00459 0.36788 0.0
H869 H 0.81178 0.04131 0.34119 0.0
H870 H 0.86489 0.04968 0.39547 0.0
C871 C 0.91237 0.97802 0.33302 0.0
C872 C 1.01197 0.85101 0.3066 0.0
C873 C 0.03093 0.8125 0.31334 0.0
H874 H 0.99924 0.91164 0.33109 0.0
C875 C 0.05484 0.80697 0.34994 0.0
H876 H 0.99312 0.85591 0.27888 0.0
C877 C 0.05709 0.83815 0.38069 0.0
C878 C 0.03656 0.876 0.37477 0.0
H879 H 0.07122 0.77832 0.35534 0.0
H880 H 0.07486 0.83264 0.40907 0.0
C881 C 1.01508 0.88261 0.33678 0.0
C882 C 0.22743 0.01567 0.33251 0.0
C883 C 0.2186 0.98591 0.3011 0.0
H884 H 0.20808 0.04479 0.39035 0.0
C885 C 0.18061 0.96586 0.30155 0.0
H886 H 0.25717 0.03069 0.33311 0.0
C887 C 0.15262 0.97394 0.33398 0.0
C888 C 0.16256 1.00153 0.36711 0.0
H889 H 0.1738 0.94205 0.2784 0.0
H890 H 0.12393 0.95692 0.33424 0.0
C891 C 0.1999 0.023 0.36564 0.0
C892 C 0.99802 0.86196 0.71015 0.0
C893 C 0.0199 0.82462 0.70779 0.0
H894 H 0.98676 0.92141 0.68186 0.0
C895 C 0.05112 0.82033 0.67747 0.0
H896 H 0.97337 0.8654 0.73283 0.0
C897 C 0.05779 0.85134 0.64738 0.0
C898 C 0.03414 0.8877 0.64799 0.0
H899 H 0.06795 0.79141 0.67504 0.0
H900 H 0.08042 0.84628 0.62283 0.0
C901 C 1.00543 0.89358 0.68072 0.0
C902 C 0.17902 0.99078 0.71705 0.0
C903 C 0.2159 0.01285 0.71576 0.0
H904 H 0.12383 0.97462 0.68446 0.0
C905 C 0.22434 0.03847 0.68069 0.0
H906 H 0.17263 0.96997 0.74314 0.0
C907 C 0.19759 0.03979 0.64617 0.0
C908 C 0.16141 0.01634 0.64677 0.0
H909 H 0.2532 0.05498 0.6788 0.0
H910 H 0.20534 0.0587 0.61897 0.0
C911 C 0.15175 0.99288 0.68309 0.0
C912 C 0.97836 0.2031 0.66543 0.0
C913 C 1.00642 0.2109 0.69824 0.0
H914 H 0.9646 0.16844 0.60935 0.0
C915 C 0.04278 0.18743 0.69993 0.0
H916 H 0.95008 0.22062 0.66344 0.0
C917 C 0.05048 0.15657 0.66957 0.0
C918 C 0.02277 0.15 0.63622 0.0
H919 H 0.06573 0.1936 0.72374 0.0
H920 H 0.07853 0.13862 0.67145 0.0
C921 C 0.9867 0.17349 0.63441 0.0
C922 C 0.88117 0.053 0.70961 0.0
C923 C 0.84439 0.03052 0.70735 0.0
H924 H 0.93922 0.06647 0.6805 0.0
C925 C 0.83956 1.00128 0.67454 0.0
H926 H 0.88516 0.07647 0.73379 0.0
C927 C 0.86938 0.99691 0.6429 0.0
C928 C 0.90539 0.02077 0.64404 0.0
H929 H 0.81104 0.98424 0.67165 0.0
H930 H 0.8639 0.97545 0.61712 0.0
C931 C 0.91166 0.04772 0.67864 0.0
C932 C 0.37138 0.9516 0.2005 0.0
C933 C 0.33946 0.98063 0.20604 0.0
H934 H 0.42543 0.93412 0.16611 0.0
C935 C 0.33861 0.01566 0.17929 0.0
H936 H 0.37309 0.92426 0.22038 0.0
C937 C 0.36793 0.02049 0.14702 0.0
C938 C 0.39974 0.99139 0.14194 0.0
H939 H 0.31608 0.03985 0.18358 0.0
H940 H 0.36641 0.0476 0.12677 0.0
C941 C 0.40136 0.95714 0.16933 0.0
C942 C 1.00662 0.35351 0.21156 0.0
C943 C 0.03274 0.3192 0.20525 0.0
H944 H 0.98507 0.41214 0.18759 0.0
C945 C 0.05478 0.31618 0.16749 0.0
H946 H 0.98834 0.35604 0.23989 0.0
C947 C 0.05216 0.34761 0.13729 0.0
C948 C 0.02803 0.38315 0.14463 0.0
H949 H 0.07548 0.29035 0.1623 0.0
H950 H 0.07013 0.34472 0.10867 0.0
C951 C 1.0048 0.38566 0.18178 0.0
C952 C 0.69065 0.95714 0.20472 0.0
C953 C 0.72246 0.98666 0.20863 0.0
H954 H 0.63703 0.93682 0.17109 0.0
C955 C 0.72387 0.01907 0.1786 0.0
H956 H 0.68857 0.93149 0.22675 0.0
C957 C 0.69497 0.02114 0.14542 0.0
C958 C 0.66296 0.99182 0.14223 0.0
H959 H 0.7465 0.04346 0.18105 0.0
H960 H 0.6969 0.04652 0.12301 0.0
C961 C 0.66111 0.96 0.17256 0.0
C962 C 0.04604 0.68316 0.19787 0.0
C963 C 0.01748 0.71554 0.1931 0.0
H964 H 0.07016 0.6263 0.17276 0.0
C965 C 0.99428 0.718 0.15599 0.0
H966 H 0.06376 0.68062 0.2267 0.0
C967 C 0.99831 0.68733 0.12483 0.0
C968 C 0.02477 0.65329 0.13109 0.0
H969 H 0.9716 0.74229 0.15227 0.0
H970 H 0.97911 0.689 0.09694 0.0
C971 C 0.04923 0.65193 0.16745 0.0
C972 C 0.37692 0.0392 0.79891 0.0
C973 C 0.33705 0.02504 0.80812 0.0
H974 H 0.43747 0.05162 0.82204 0.0
C975 C 0.32728 0.01556 0.85023 0.0
H976 H 0.38541 0.04781 0.7671 0.0
C977 C 0.35707 0.01818 0.88202 0.0
C978 C 0.39765 0.03017 0.87249 0.0
H979 H 0.29704 1.00405 0.8582 0.0
H980 H 0.34852 1.00923 0.91381 0.0
C981 C 0.40686 0.04162 0.83063 0.0
C982 C 0.03947 0.34015 0.81319 0.0
C983 C 1.00891 0.30974 0.81866 0.0
H984 H 0.06755 0.39548 0.83761 0.0
C985 C 0.98665 0.30857 0.85644 0.0
H986 H 0.05651 0.34168 0.78383 0.0
C987 C 0.99329 0.33889 0.88741 0.0
C988 C 0.02152 0.3713 0.88035 0.0
H989 H 0.96247 0.28587 0.86071 0.0
H990 H 0.97458 0.33845 0.91572 0.0
C991 C 0.04529 0.37113 0.84348 0.0
C992 C 0.72361 1.00506 0.83417 0.0
C993 C 0.72244 0.03806 0.80479 0.0
H994 H 0.69627 0.97662 0.88913 0.0
C995 C 0.69077 0.06765 0.80928 0.0
H996 H 0.74614 0.98065 0.83127 0.0
C997 C 0.66111 0.06428 0.84131 0.0
C998 C 0.66267 0.03181 0.87094 0.0
H999 H 0.68888 0.09375 0.78779 0.0
H1000 H 0.63717 0.08757 0.84324 0.0
C1001 C 0.69456 1.00244 0.86722 0.0
C1002 C 0.97793 0.67318 0.81188 0.0
C1003 C 1.00801 0.7039 0.80534 0.0
H1004 H 0.96047 0.61782 0.84513 0.0
C1005 C 0.04419 0.70248 0.82941 0.0
H1006 H 0.94976 0.67364 0.79377 0.0
C1007 C 0.0498 0.67107 0.8596 0.0
C1008 C 0.02013 0.63977 0.86484 0.0
H1009 H 0.06852 0.72473 0.82416 0.0
H1010 H 0.07762 0.67075 0.87833 0.0
C1011 C 0.98417 0.64108 0.84082 0.0
C1012 C 0.18164 0.30943 0.04035 0.0
C1013 C 0.21857 0.31326 0.01781 0.0
H1014 H 0.12297 0.33639 0.05506 0.0
C1015 C 0.22276 0.34711 0.98977 0.0
H1016 H 0.1779 0.28445 0.06295 0.0
C1017 C 0.19245 0.37804 0.9869 0.0
C1018 C 0.15631 0.37531 0.01093 0.0
H1019 H 0.25121 0.35132 0.9726 0.0
H1020 H 0.19768 0.40455 0.96648 0.0
C1021 C 0.15057 0.3397 0.03637 0.0
C1022 C 0.18197 0.71508 0.96977 0.0
C1023 C 0.21837 0.71201 0.99329 0.0
H1024 H 0.12393 0.68721 0.95396 0.0
C1025 C 0.22228 0.67857 0.02185 0.0
H1026 H 0.17856 0.73967 0.94669 0.0
C1027 C 0.19217 0.6474 0.02452 0.0
C1028 C 0.15656 0.64944 0.99966 0.0
H1029 H 0.25039 0.67489 0.03968 0.0
H1030 H 0.19713 0.62126 0.0455 0.0
C1031 C 0.15111 0.68454 0.97345 0.0
C1032 C 0.33854 0.18479 0.99497 0.0
C1033 C 0.34055 0.21556 0.02682 0.0
H1034 H 0.36448 0.12867 0.96866 0.0
C1035 C 0.37273 0.21194 0.05656 0.0
H1036 H 0.3157 0.1866 0.97037 0.0
C1037 C 0.40193 0.17972 0.05431 0.0
C1038 C 0.39952 0.14875 0.02304 0.0
H1039 H 0.37537 0.23418 0.08204 0.0
H1040 H 0.42619 0.1787 0.07767 0.0
C1041 C 0.36707 0.15155 0.99363 0.0
C1042 C 0.83597 0.34731 0.97108 0.0
C1043 C 0.82952 0.31807 1.00363 0.0
H1044 H 0.87039 0.3997 0.94848 0.0
C1045 C 0.85548 0.3199 0.03925 0.0
H1046 H 0.81696 0.34685 0.94305 0.0
C1047 C 0.88735 0.34953 0.04156 0.0
C1048 C 0.89289 0.37895 0.00914 0.0
H1049 H 0.85082 0.2994 0.06583 0.0
H1050 H 0.90688 0.35025 0.06924 0.0
C1051 C 0.86671 0.37758 0.97404 0.0
C1052 C 0.69757 0.81767 0.97219 0.0
C1053 C 0.73249 0.82663 0.99696 0.0
H1054 H 0.63765 0.83745 0.95192 0.0
C1055 C 0.73573 0.86567 0.01586 0.0
H1056 H 0.69414 0.78716 0.95816 0.0
C1057 C 0.70361 0.89423 0.01254 0.0
C1058 C 0.66709 0.88415 0.9907 0.0
H1059 H 0.76166 0.87273 0.03601 0.0
H1060 H 0.70663 0.92343 0.0293 0.0
C1061 C 0.6649 0.84595 0.96948 0.0
C1062 C 0.85491 0.70431 0.97202 0.0
C1063 C 0.82954 0.70633 0.00812 0.0
H1064 H 0.90594 0.67397 0.94136 0.0
C1065 C 0.83664 0.67741 0.0408 0.0
H1066 H 0.84969 0.72451 0.94533 0.0
C1067 C 0.8675 0.64735 0.03757 0.0
C1068 C 0.89313 0.64585 1.00203 0.0
H1069 H 0.81807 0.67799 0.06916 0.0
H1070 H 0.87169 0.62546 0.06326 0.0
C1071 C 0.88688 0.67487 0.9694 0.0
C1072 C 0.37224 0.81375 0.95578 0.0
C1073 C 0.34035 0.80977 0.98579 0.0
H1074 H 0.42506 0.84766 0.93405 0.0
C1075 C 0.33823 0.84056 0.01763 0.0
H1076 H 0.37497 0.79144 0.93035 0.0
C1077 C 0.36641 0.87416 0.0187 0.0
C1078 C 0.3985 0.87743 0.98888 0.0
H1079 H 0.31557 0.83846 0.04242 0.0
H1080 H 0.36387 0.89693 0.04379 0.0
C1081 C 0.40099 0.84642 0.95764 0.0
C1082 C 0.73605 0.15844 0.99678 0.0
C1083 C 0.73282 0.19733 0.01604 0.0
H1084 H 0.70725 0.10043 0.98362 0.0
C1085 C 0.69839 0.20568 0.04171 0.0
H1086 H 0.76161 0.15183 0.97598 0.0
C1087 C 0.66608 0.17701 0.04499 0.0
C1088 C 0.66816 0.13897 0.02346 0.0
H1089 H 0.69494 0.23606 0.05606 0.0
H1090 H 0.63909 0.18515 0.06315 0.0
C1091 C 0.70432 0.12945 1.0007 0.0
C1092 C 0.52222 0.70395 0.83494 0.0
C1093 C 0.55337 0.70075 0.80443 0.0
H1094 H 0.49431 0.6771 0.88986 0.0
C1095 C 0.57648 0.66413 0.80188 0.0
H1096 H 0.50433 0.73222 0.83743 0.0
C1097 C 0.57021 0.63217 0.83131 0.0
C1098 C 0.54159 0.63723 0.86418 0.0
H1099 H 0.60101 0.66149 0.77896 0.0
H1100 H 0.58955 0.60482 0.83008 0.0
C1101 C 0.51686 0.6728 0.86508 0.0
C1102 C 0.33942 0.52339 0.83801 0.0
C1103 C 0.34468 0.49455 0.80488 0.0
H1104 H 0.36318 0.5487 0.89594 0.0
C1105 C 0.38173 0.47259 0.80246 0.0
H1106 H 0.31069 0.54001 0.84103 0.0
C1107 C 0.41201 0.47788 0.83361 0.0
C1108 C 0.40524 0.50423 0.86857 0.0
H1109 H 0.38607 0.44942 0.77804 0.0
H1110 H 0.43981 0.45954 0.83161 0.0
C1111 C 0.369 0.52767 0.86988 0.0
C1112 C 0.51738 0.33688 0.81519 0.0
C1113 C 0.55316 0.31246 0.81507 0.0
H1114 H 0.48445 0.38686 0.84514 0.0
C1115 C 0.58317 0.31987 0.84612 0.0
H1116 H 0.49304 0.33109 0.79277 0.0
C1117 C 0.57725 0.34997 0.87725 0.0
C1118 C 0.54169 0.3743 0.8773 0.0
H1119 H 0.61107 0.30163 0.84668 0.0
H1120 H 0.6008 0.35469 0.90094 0.0
C1121 C 0.51209 0.36819 0.84563 0.0
C1122 C 0.72568 0.51252 0.83192 0.0
C1123 C 0.71748 0.48155 0.80157 0.0
H1124 H 0.7059 0.5429 0.88891 0.0
C1125 C 0.68015 0.46028 0.8031 0.0
H1126 H 0.75494 0.52849 0.83171 0.0
C1127 C 0.65217 0.46853 0.83551 0.0
C1128 C 0.66156 0.49751 0.86754 0.0
H1129 H 0.67388 0.43554 0.78081 0.0
H1130 H 0.62397 0.45071 0.83667 0.0
C1131 C 0.69823 0.52004 0.86504 0.0
C1132 C 0.51539 0.32166 0.17815 0.0
C1133 C 0.54402 0.32504 0.21114 0.0
H1134 H 0.49205 0.348 0.12084 0.0
C1135 C 0.56755 0.3613 0.21485 0.0
H1136 H 0.49728 0.29362 0.17473 0.0
C1137 C 0.56403 0.39285 0.18449 0.0
C1138 C 0.53784 0.38772 0.14954 0.0
H1139 H 0.59019 0.36403 0.23971 0.0
H1140 H 0.58354 0.42003 0.18692 0.0
C1141 C 0.51282 0.35238 0.1472 0.0
C1142 C 0.68092 0.56176 0.21117 0.0
C1143 C 0.71865 0.54124 0.21151 0.0
H1144 H 0.62424 0.57128 0.17862 0.0
C1145 C 0.72709 0.51145 0.18002 0.0
H1146 H 0.67441 0.58557 0.23441 0.0
C1147 C 0.69948 0.50456 0.14692 0.0
C1148 C 0.6624 0.52645 0.14558 0.0
H1149 H 0.75662 0.49604 0.17936 0.0
H1150 H 0.70735 0.4827 0.12216 0.0
C1151 C 0.65278 0.55405 0.17879 0.0
C1152 C 0.47914 0.70421 0.16427 0.0
C1153 C 0.50719 0.71198 0.1971 0.0
H1154 H 0.46519 0.66924 0.10841 0.0
C1155 C 0.54336 0.68824 0.199 0.0
H1156 H 0.45099 0.72193 0.16213 0.0
C1157 C 0.55087 0.65712 0.16888 0.0
C1158 C 0.52315 0.65051 0.13555 0.0
H1159 H 0.56631 0.69437 0.22283 0.0
H1160 H 0.57877 0.63896 0.17094 0.0
C1161 C 0.48729 0.6743 0.13348 0.0
C1162 C 0.34048 0.49815 0.17594 0.0
C1163 C 0.3447 0.52749 0.20875 0.0
H1164 H 0.36522 0.47301 0.11838 0.0
C1165 C 0.38106 0.5507 0.21101 0.0
H1166 H 0.31227 0.48057 0.17301 0.0
C1167 C 0.41163 0.54609 0.17999 0.0
C1168 C 0.4058 0.51914 0.14534 0.0
H1169 H 0.38457 0.57427 0.23517 0.0
H1170 H 0.43882 0.56539 0.18181 0.0
C1171 C 0.37031 0.49449 0.14422 0.0
C1172 C 0.83625 0.51218 0.67863 0.0
C1173 C 0.83775 0.47743 0.70573 0.0
H1174 H 0.86332 0.54397 0.6256 0.0
C1175 C 0.86975 0.44856 0.70004 0.0
H1176 H 0.81354 0.53619 0.683 0.0
C1177 C 0.89927 0.45402 0.6684 0.0
C1178 C 0.89713 0.48805 0.64076 0.0
H1179 H 0.87191 0.42145 0.72019 0.0
H1180 H 0.9235 0.43118 0.66516 0.0
C1181 C 0.86518 0.51697 0.64597 0.0
C1182 C 0.58372 0.85399 0.69925 0.0
C1183 C 0.55594 0.82126 0.70639 0.0
H1184 H 0.59684 0.91023 0.66551 0.0
C1185 C 0.51944 0.81991 0.68283 0.0
H1186 H 0.61207 0.85566 0.71698 0.0
C1187 C 0.51125 0.85061 0.65253 0.0
C1188 C 0.53863 0.88389 0.64666 0.0
H1189 H 0.49679 0.79602 0.68859 0.0
H1190 H 0.48316 0.84891 0.63432 0.0
C1191 C 0.5749 0.88533 0.67022 0.0
C1192 C 0.22302 0.51905 0.67903 0.0
C1193 C 0.22208 0.48614 0.70851 0.0
H1194 H 0.19509 0.54748 0.62445 0.0
C1195 C 0.18996 0.4569 0.7048 0.0
H1196 H 0.24584 0.54326 0.68134 0.0
C1197 C 0.15967 0.46054 0.67346 0.0
C1198 C 0.16106 0.49285 0.64369 0.0
H1199 H 0.18819 0.43085 0.72638 0.0
H1200 H 0.13546 0.43749 0.67208 0.0
C1201 C 0.19339 0.52185 0.64659 0.0
C1202 C 0.56249 0.21472 0.6568 0.0
C1203 C 0.54232 0.21235 0.69574 0.0
H1204 H 0.57216 0.18621 0.59642 0.0
C1205 C 0.51263 0.18125 0.7022 0.0
H1206 H 0.58597 0.23799 0.65165 0.0
C1207 C 0.50585 0.15069 0.67164 0.0
C1208 C 0.52771 0.15163 0.63354 0.0
H1209 H 0.4971 0.17884 0.73237 0.0
H1210 H 0.48446 0.12574 0.67828 0.0
C1211 C 0.55486 0.18483 0.62563 0.0
C1212 C 0.83807 0.5088 0.33307 0.0
C1213 C 0.83971 0.5437 0.30617 0.0
H1214 H 0.86498 0.47661 0.3859 0.0
C1215 C 0.87222 0.57208 0.31164 0.0
H1216 H 0.81507 0.48504 0.32884 0.0
C1217 C 0.90194 0.5661 0.34295 0.0
C1218 C 0.89949 0.53208 0.37056 0.0
H1219 H 0.87454 0.59931 0.29167 0.0
H1220 H 0.92645 0.58866 0.34613 0.0
C1221 C 0.86715 0.50356 0.36548 0.0
C1222 C 0.54006 0.84126 0.31305 0.0
C1223 C 0.50964 0.81062 0.31786 0.0
H1224 H 0.56782 0.89626 0.33857 0.0
C1225 C 0.48733 0.80863 0.35559 0.0
H1226 H 0.55719 0.84341 0.28379 0.0
C1227 C 0.49378 0.83839 0.38718 0.0
C1228 C 0.52186 0.87106 0.38079 0.0
H1229 H 0.46328 0.78571 0.3594 0.0
H1230 H 0.47503 0.83736 0.41545 0.0
C1231 C 0.54568 0.87168 0.34395 0.0
C1232 C 0.2237 0.50261 0.33581 0.0
C1233 C 0.22213 0.53489 0.30561 0.0
H1234 H 0.19687 0.47522 0.39163 0.0
C1235 C 0.19023 0.56429 0.30959 0.0
H1236 H 0.2464 0.47831 0.3334 0.0
C1237 C 0.16076 0.56139 0.34187 0.0
C1238 C 0.16272 0.52968 0.37232 0.0
H1239 H 0.18802 0.58989 0.28753 0.0
H1240 H 0.13659 0.58446 0.3433 0.0
C1241 C 0.19485 0.50052 0.36913 0.0
C1242 C 0.50411 0.17194 0.30283 0.0
C1243 C 0.5317 0.20524 0.30812 0.0
H1244 H 0.48142 0.11397 0.32745 0.0
C1245 C 0.55537 0.20717 0.34491 0.0
H1246 H 0.48467 0.17027 0.27527 0.0
C1247 C 0.55274 0.17569 0.37512 0.0
C1248 C 0.52705 0.14111 0.36867 0.0
H1249 H 0.57726 0.23214 0.34927 0.0
H1250 H 0.57187 0.17769 0.40298 0.0
C1251 C 0.50231 0.13969 0.33252 0.0
C1252 C 0.72245 0.84659 0.49149 0.0
C1253 C 0.71926 0.81359 0.52067 0.0
H1254 H 0.69632 0.90308 0.46712 0.0
C1255 C 0.68318 0.81044 0.54476 0.0
H1256 H 0.75025 0.85026 0.47312 0.0
C1257 C 0.65188 0.84049 0.54093 0.0
C1258 C 0.6566 0.87514 0.51396 0.0
H1259 H 0.68031 0.78615 0.56826 0.0
H1260 H 0.62494 0.83782 0.5608 0.0
C1261 C 0.69193 0.87727 0.48865 0.0
C1262 C 0.6797 0.21506 0.47312 0.0
C1263 C 0.71682 0.21105 0.49523 0.0
H1264 H 0.62094 0.18819 0.45876 0.0
C1265 C 0.72127 0.17699 0.52294 0.0
H1266 H 0.67576 0.24025 0.4508 0.0
C1267 C 0.69103 0.14599 0.52579 0.0
C1268 C 0.65473 0.14886 0.50208 0.0
H1269 H 0.74988 0.17268 0.53977 0.0
H1270 H 0.69646 0.1193 0.54591 0.0
C1271 C 0.64871 0.18472 0.47711 0.0
C1272 C 0.8721 0.71013 0.55704 0.0
C1273 C 0.84003 0.71444 0.52736 0.0
H1274 H 0.9248 0.67571 0.57806 0.0
C1275 C 0.83713 0.68369 0.49558 0.0
H1276 H 0.87531 0.73238 0.58246 0.0
C1277 C 0.86495 0.64984 0.49409 0.0
C1278 C 0.89738 0.64636 0.52343 0.0
H1279 H 0.81415 0.68605 0.47114 0.0
H1280 H 0.8619 0.62711 0.46904 0.0
C1281 C 0.90049 0.67723 0.55477 0.0
C1282 C 0.33697 0.8446 0.46903 0.0
C1283 C 0.32958 0.81616 0.50207 0.0
H1284 H 0.37219 0.89633 0.44618 0.0
C1285 C 0.35495 0.81827 0.53811 0.0
H1286 H 0.31836 0.84385 0.44072 0.0
C1287 C 0.387 0.84767 0.54051 0.0
C1288 C 0.39332 0.87649 0.50769 0.0
H1289 H 0.34953 0.79829 0.56495 0.0
H1290 H 0.40593 0.84881 0.56861 0.0
C1291 C 0.3679 0.87464 0.47203 0.0
C1292 C 0.19869 0.31803 0.47528 0.0
C1293 C 0.2334 0.32749 0.50018 0.0
H1294 H 0.13861 0.33696 0.45466 0.0
C1295 C 0.23607 0.36669 0.51886 0.0
H1296 H 0.19564 0.28738 0.46145 0.0
C1297 C 0.20364 0.39486 0.5152 0.0
C1298 C 0.1673 0.38425 0.49326 0.0
H1299 H 0.2618 0.37415 0.53913 0.0
H1300 H 0.20626 0.42419 0.53181 0.0
C1301 C 0.16569 0.3459 0.47227 0.0
C1302 C 0.33445 0.17583 0.54377 0.0
C1303 C 0.32869 0.20571 0.51166 0.0
H1304 H 0.36796 0.12266 0.56588 0.0
C1305 C 0.35484 0.20386 0.47614 0.0
H1306 H 0.31533 0.17618 0.57174 0.0
C1307 C 0.38636 0.17388 0.4737 0.0
C1308 C 0.39134 0.144 0.50579 0.0
H1309 H 0.3507 0.22463 0.44973 0.0
H1310 H 0.40614 0.17334 0.4462 0.0
C1311 C 0.36478 0.14515 0.54059 0.0
C1312 C 0.87124 0.31158 0.45655 0.0
C1313 C 0.83944 0.30766 0.4867 0.0
H1314 H 0.92428 0.34523 0.43488 0.0
C1315 C 0.83788 0.33804 0.51895 0.0
H1316 H 0.87358 0.28954 0.43085 0.0
C1317 C 0.86634 0.37135 0.52017 0.0
C1318 C 0.89824 0.37462 0.49016 0.0
H1319 H 0.81542 0.33591 0.54391 0.0
H1320 H 0.86413 0.39393 0.54546 0.0
C1321 C 0.90035 0.34391 0.45861 0.0
C1322 C 0.19517 0.70634 0.54144 0.0
C1323 C 0.22989 0.69794 0.51619 0.0
H1324 H 0.13574 0.68572 0.56241 0.0
C1325 C 0.23345 0.65895 0.49723 0.0
H1326 H 0.19152 0.73676 0.55562 0.0
C1327 C 0.20178 0.62987 0.50101 0.0
C1328 C 0.16537 0.6394 0.52334 0.0
H1329 H 0.25926 0.65228 0.47677 0.0
H1330 H 0.20499 0.60072 0.48421 0.0
C1331 C 0.16293 0.67759 0.54455 0.0
loop_
_geom_bond_atom_site_label_1
_geom_bond_atom_site_label_2
_geom_bond_distance
_geom_bond_site_symmetry_2
_ccdc_geom_bond_type
C0 N1 1.317 . S
C0 N2 1.348 . S
C0 C3 1.485 . S
N1 C0 1.317 . S
N1 N5 1.370 . S
N2 C0 1.348 . S
N2 C4 1.346 . S
C3 C0 1.485 . S
C3 H7 0.960 1_455 S
C3 H8 0.961 . S
C3 H9 0.960 . S
C4 N2 1.346 . S
C4 N5 1.307 . S
C4 C6 1.486 . S
N5 N1 1.370 . S
N5 C4 1.307 . S
C6 C4 1.486 . S
C6 H10 0.960 . S
C6 H11 0.960 1_455 S
C6 H12 0.959 . S
H7 C3 0.960 1_655 S
H8 C3 0.961 . S
H9 C3 0.960 . S
H10 C6 0.960 . S
H11 C6 0.960 1_655 S
H12 C6 0.959 . S
C13 N14 1.317 . S
C13 N15 1.348 . S
C13 C16 1.485 . S
N14 C13 1.317 . S
N14 N18 1.370 . S
N15 C13 1.348 . S
N15 C17 1.347 . S
C16 C13 1.485 . S
C16 H20 0.960 1_545 S
C16 H21 0.961 . S
C16 H22 0.960 . S
C17 N15 1.347 . S
C17 N18 1.307 . S
C17 C19 1.486 1_545 S
N18 N14 1.370 . S
N18 C17 1.307 . S
C19 C17 1.486 1_565 S
C19 H23 0.937 1_565 S
C19 H24 0.979 . S
C19 H25 0.964 . S
H20 C16 0.960 1_565 S
H21 C16 0.961 . S
H22 C16 0.960 . S
H23 C19 0.937 1_545 S
H24 C19 0.979 . S
H25 C19 0.964 . S
C26 N27 1.317 . S
C26 N28 1.348 . S
C26 C29 1.485 . S
N27 C26 1.317 . S
N27 N31 1.370 . S
N28 C26 1.348 . S
N28 C30 1.346 . S
C29 C26 1.485 . S
C29 H33 0.960 1_455 S
C29 H34 0.961 . S
C29 H35 0.960 . S
C30 N28 1.346 . S
C30 N31 1.307 . S
C30 C32 1.486 . S
N31 N27 1.370 . S
N31 C30 1.307 . S
C32 C30 1.486 . S
C32 H36 0.960 . S
C32 H37 0.960 1_455 S
C32 H38 0.959 . S
H33 C29 0.960 1_655 S
H34 C29 0.961 . S
H35 C29 0.960 . S
H36 C32 0.960 . S
H37 C32 0.960 1_655 S
H38 C32 0.959 . S
C39 N40 1.317 . S
C39 N41 1.349 . S
C39 C42 1.485 . S
N40 C39 1.317 . S
N40 N44 1.370 1_565 S
N41 C39 1.349 . S
N41 C43 1.346 1_565 S
C42 C39 1.485 . S
C42 H46 0.960 1_565 S
C42 H47 0.961 . S
C42 H48 0.960 . S
C43 N41 1.346 1_545 S
C43 N44 1.307 . S
C43 C45 1.486 . S
N44 N40 1.370 1_545 S
N44 C43 1.307 . S
C45 C43 1.486 . S
C45 H49 0.960 1_545 S
C45 H50 0.960 . S
C45 H51 0.959 . S
H46 C42 0.960 1_545 S
H47 C42 0.961 . S
H48 C42 0.960 . S
H49 C45 0.960 1_565 S
H50 C45 0.960 . S
H51 C45 0.959 . S
C52 N53 1.317 . S
C52 N54 1.348 . S
C52 C55 1.485 . S
N53 C52 1.317 . S
N53 N57 1.370 . S
N54 C52 1.348 . S
N54 C56 1.346 . S
C55 C52 1.485 . S
C55 H59 0.960 1_455 S
C55 H60 0.961 . S
C55 H61 0.960 . S
C56 N54 1.346 . S
C56 N57 1.307 . S
C56 C58 1.486 . S
N57 N53 1.370 . S
N57 C56 1.307 . S
C58 C56 1.486 . S
C58 H62 0.960 . S
C58 H63 0.960 1_455 S
C58 H64 0.959 . S
H59 C55 0.960 1_655 S
H60 C55 0.961 . S
H61 C55 0.960 . S
H62 C58 0.960 . S
H63 C58 0.960 1_655 S
H64 C58 0.959 . S
C65 N66 1.317 . S
C65 N67 1.348 . S
C65 C68 1.485 . S
N66 C65 1.317 . S
N66 N70 1.371 . S
N67 C65 1.348 . S
N67 C69 1.346 1_545 S
C68 C65 1.485 . S
C68 H72 0.960 1_545 S
C68 H73 0.961 . S
C68 H74 0.960 . S
C69 N67 1.346 1_565 S
C69 N70 1.307 1_565 S
C69 C71 1.486 . S
N70 N66 1.371 . S
N70 C69 1.307 1_545 S
C71 C69 1.486 . S
C71 H75 0.960 1_565 S
C71 H76 0.960 . S
C71 H77 0.959 . S
H72 C68 0.960 1_565 S
H73 C68 0.961 . S
H74 C68 0.960 . S
H75 C71 0.960 1_545 S
H76 C71 0.960 . S
H77 C71 0.959 . S
C78 N79 1.317 . S
C78 N80 1.348 . S
C78 C81 1.485 . S
N79 C78 1.317 . S
N79 N83 1.370 . S
N80 C78 1.348 . S
N80 C82 1.346 . S
C81 C78 1.485 . S
C81 H85 0.960 1_455 S
C81 H86 0.961 . S
C81 H87 0.960 . S
C82 N80 1.346 . S
C82 N83 1.307 . S
C82 C84 1.486 . S
N83 N79 1.370 . S
N83 C82 1.307 . S
C84 C82 1.486 . S
C84 H88 0.960 . S
C84 H89 0.960 1_455 S
C84 H90 0.959 . S
H85 C81 0.960 1_655 S
H86 C81 0.961 . S
H87 C81 0.960 . S
H88 C84 0.960 . S
H89 C84 0.960 1_655 S
H90 C84 0.959 . S
C91 N92 1.317 . S
C91 N93 1.348 . S
C91 C94 1.485 . S
N92 C91 1.317 . S
N92 N96 1.371 . S
N93 C91 1.348 . S
N93 C95 1.346 1_565 S
C94 C91 1.485 . S
C94 H98 0.960 1_565 S
C94 H99 0.961 . S
C94 H100 0.960 . S
C95 N93 1.346 1_545 S
C95 N96 1.307 1_545 S
C95 C97 1.486 . S
N96 N92 1.371 . S
N96 C95 1.307 1_565 S
C97 C95 1.486 . S
C97 H101 0.960 1_545 S
C97 H102 0.960 . S
C97 H103 0.959 . S
H98 C94 0.960 1_545 S
H99 C94 0.961 . S
H100 C94 0.960 . S
H101 C97 0.960 1_565 S
H102 C97 0.960 . S
H103 C97 0.959 . S
C104 N105 1.317 . S
C104 N106 1.348 . S
C104 C107 1.485 . S
N105 C104 1.317 . S
N105 N109 1.371 . S
N106 C104 1.348 . S
N106 C108 1.346 1_554 S
C107 C104 1.485 . S
C107 H111 0.960 1_554 S
C107 H112 0.961 . S
C107 H113 0.960 . S
C108 N106 1.346 1_556 S
C108 N109 1.307 1_556 S
C108 C110 1.486 . S
N109 N105 1.371 . S
N109 C108 1.307 1_554 S
C110 C108 1.486 . S
C110 H114 0.960 1_556 S
C110 H115 0.960 . S
C110 H116 0.959 . S
H111 C107 0.960 1_556 S
H112 C107 0.961 . S
H113 C107 0.960 . S
H114 C110 0.960 1_554 S
H115 C110 0.960 . S
H116 C110 0.959 . S
C117 N118 1.317 . S
C117 N119 1.349 . S
C117 C120 1.485 . S
N118 C117 1.317 . S
N118 N122 1.370 1_556 S
N119 C117 1.349 . S
N119 C121 1.346 1_556 S
C120 C117 1.485 . S
C120 H124 0.960 1_556 S
C120 H125 0.961 . S
C120 H126 0.960 . S
C121 N119 1.346 1_554 S
C121 N122 1.307 . S
C121 C123 1.486 . S
N122 N118 1.370 1_554 S
N122 C121 1.307 . S
C123 C121 1.486 . S
C123 H127 0.960 1_554 S
C123 H128 0.960 . S
C123 H129 0.959 . S
H124 C120 0.960 1_554 S
H125 C120 0.961 . S
H126 C120 0.960 . S
H127 C123 0.960 1_556 S
H128 C123 0.960 . S
H129 C123 0.959 . S
C130 N131 1.317 . S
C130 N132 1.348 . S
C130 C133 1.485 . S
N131 C130 1.317 . S
N131 N135 1.371 . S
N132 C130 1.348 . S
N132 C134 1.346 1_556 S
C133 C130 1.485 . S
C133 H137 0.960 1_556 S
C133 H138 0.961 . S
C133 H139 0.960 . S
C134 N132 1.346 1_554 S
C134 N135 1.307 1_554 S
C134 C136 1.486 . S
N135 N131 1.371 . S
N135 C134 1.307 1_556 S
C136 C134 1.486 . S
C136 H140 0.960 1_554 S
C136 H141 0.960 . S
C136 H142 0.959 . S
H137 C133 0.960 1_554 S
H138 C133 0.961 . S
H139 C133 0.960 . S
H140 C136 0.960 1_556 S
H141 C136 0.960 . S
H142 C136 0.959 . S
C143 N144 1.317 . S
C143 N145 1.348 . S
C143 C146 1.485 . S
N144 C143 1.317 . S
N144 N148 1.370 . S
N145 C143 1.348 . S
N145 C147 1.346 . S
C146 C143 1.485 . S
C146 H150 0.960 1_554 S
C146 H151 0.961 . S
C146 H152 0.960 . S
C147 N145 1.346 . S
C147 N148 1.307 . S
C147 C149 1.486 1_554 S
N148 N144 1.370 . S
N148 C147 1.307 . S
C149 C147 1.486 1_556 S
C149 H153 0.960 1_556 S
C149 H154 0.960 . S
C149 H155 0.959 . S
H150 C146 0.960 1_556 S
H151 C146 0.961 . S
H152 C146 0.960 . S
H153 C149 0.960 1_554 S
H154 C149 0.960 . S
H155 C149 0.959 . S
C156 N157 1.317 . S
C156 N158 1.348 . S
C156 C159 1.485 . S
N157 C156 1.317 . S
N157 N161 1.370 . S
N158 C156 1.348 . S
N158 C160 1.346 . S
C159 C156 1.485 . S
C159 H163 0.960 . S
C159 H164 0.961 . S
C159 H165 0.960 . S
C160 N158 1.346 . S
C160 N161 1.307 . S
C160 C162 1.486 . S
N161 N157 1.370 . S
N161 C160 1.307 . S
C162 C160 1.486 . S
C162 H166 0.960 . S
C162 H167 0.960 . S
C162 H168 0.959 . S
H163 C159 0.960 . S
H164 C159 0.961 . S
H165 C159 0.960 . S
H166 C162 0.960 . S
H167 C162 0.960 . S
H168 C162 0.959 . S
C169 N170 1.317 . S
C169 N171 1.348 . S
C169 C172 1.485 . S
N170 C169 1.317 . S
N170 N174 1.370 . S
N171 C169 1.348 . S
N171 C173 1.346 . S
C172 C169 1.485 . S
C172 H176 0.960 . S
C172 H177 0.961 . S
C172 H178 0.960 . S
C173 N171 1.346 . S
C173 N174 1.307 . S
C173 C175 1.486 . S
N174 N170 1.370 . S
N174 C173 1.307 . S
C175 C173 1.486 . S
C175 H179 0.960 . S
C175 H180 0.960 . S
C175 H181 0.959 . S
H176 C172 0.960 . S
H177 C172 0.961 . S
H178 C172 0.960 . S
H179 C175 0.960 . S
H180 C175 0.960 . S
H181 C175 0.959 . S
C182 N183 1.317 . S
C182 N184 1.348 . S
C182 C185 1.485 . S
N183 C182 1.317 . S
N183 N187 1.370 . S
N184 C182 1.348 . S
N184 C186 1.346 . S
C185 C182 1.485 . S
C185 H189 0.960 . S
C185 H190 0.961 . S
C185 H191 0.960 . S
C186 N184 1.346 . S
C186 N187 1.307 . S
C186 C188 1.486 . S
N187 N183 1.370 . S
N187 C186 1.307 . S
C188 C186 1.486 . S
C188 H192 0.960 . S
C188 H193 0.960 . S
C188 H194 0.959 . S
H189 C185 0.960 . S
H190 C185 0.961 . S
H191 C185 0.960 . S
H192 C188 0.960 . S
H193 C188 0.960 . S
H194 C188 0.959 . S
C195 N196 1.317 . S
C195 N197 1.348 . S
C195 C198 1.485 . S
N196 C195 1.317 . S
N196 N200 1.370 . S
N197 C195 1.348 . S
N197 C199 1.346 . S
C198 C195 1.485 . S
C198 H202 0.960 . S
C198 H203 0.961 . S
C198 H204 0.960 . S
C199 N197 1.346 . S
C199 N200 1.307 . S
C199 C201 1.486 . S
N200 N196 1.370 . S
N200 C199 1.307 . S
C201 C199 1.486 . S
C201 H205 0.960 . S
C201 H206 0.960 . S
C201 H207 0.959 . S
H202 C198 0.960 . S
H203 C198 0.961 . S
H204 C198 0.960 . S
H205 C201 0.960 . S
H206 C201 0.960 . S
H207 C201 0.959 . S
C208 N209 1.317 . S
C208 N210 1.348 . S
C208 C211 1.485 . S
N209 C208 1.317 . S
N209 N213 1.370 . S
N210 C208 1.348 . S
N210 C212 1.346 . S
C211 C208 1.485 . S
C211 H215 0.960 . S
C211 H216 0.961 . S
C211 H217 0.960 . S
C212 N210 1.346 . S
C212 N213 1.307 . S
C212 C214 1.486 . S
N213 N209 1.370 . S
N213 C212 1.307 . S
C214 C212 1.486 . S
C214 H218 0.960 . S
C214 H219 0.960 . S
C214 H220 0.959 . S
H215 C211 0.960 . S
H216 C211 0.961 . S
H217 C211 0.960 . S
H218 C214 0.960 . S
H219 C214 0.960 . S
H220 C214 0.959 . S
C221 N222 1.317 . S
C221 N223 1.348 . S
C221 C224 1.485 . S
N222 C221 1.317 . S
N222 N226 1.370 . S
N223 C221 1.348 . S
N223 C225 1.346 . S
C224 C221 1.485 . S
C224 H228 0.960 . S
C224 H229 0.961 . S
C224 H230 0.960 . S
C225 N223 1.346 . S
C225 N226 1.307 . S
C225 C227 1.486 . S
N226 N222 1.370 . S
N226 C225 1.307 . S
C227 C225 1.486 . S
C227 H231 0.960 . S
C227 H232 0.960 . S
C227 H233 0.959 . S
H228 C224 0.960 . S
H229 C224 0.961 . S
H230 C224 0.960 . S
H231 C227 0.960 . S
H232 C227 0.960 . S
H233 C227 0.959 . S
C234 N235 1.317 . S
C234 N236 1.348 . S
C234 C237 1.485 . S
N235 C234 1.317 . S
N235 N239 1.370 . S
N236 C234 1.348 . S
N236 C238 1.346 . S
C237 C234 1.485 . S
C237 H241 0.960 . S
C237 H242 0.961 . S
C237 H243 0.960 . S
C238 N236 1.346 . S
C238 N239 1.307 . S
C238 C240 1.486 . S
N239 N235 1.370 . S
N239 C238 1.307 . S
C240 C238 1.486 . S
C240 H244 0.960 . S
C240 H245 0.960 . S
C240 H246 0.959 . S
H241 C237 0.960 . S
H242 C237 0.961 . S
H243 C237 0.960 . S
H244 C240 0.960 . S
H245 C240 0.960 . S
H246 C240 0.959 . S
C247 N248 1.317 . S
C247 N249 1.348 . S
C247 C250 1.485 . S
N248 C247 1.317 . S
N248 N252 1.370 . S
N249 C247 1.348 . S
N249 C251 1.346 . S
C250 C247 1.485 . S
C250 H254 0.960 . S
C250 H255 0.961 . S
C250 H256 0.960 . S
C251 N249 1.346 . S
C251 N252 1.307 . S
C251 C253 1.486 . S
N252 N248 1.370 . S
N252 C251 1.307 . S
C253 C251 1.486 . S
C253 H257 0.960 . S
C253 H258 0.960 . S
C253 H259 0.959 . S
H254 C250 0.960 . S
H255 C250 0.961 . S
H256 C250 0.960 . S
H257 C253 0.960 . S
H258 C253 0.960 . S
H259 C253 0.959 . S
C260 N261 1.317 . S
C260 N262 1.348 . S
C260 C263 1.485 . S
N261 C260 1.317 . S
N261 N265 1.370 . S
N262 C260 1.348 . S
N262 C264 1.346 . S
C263 C260 1.485 . S
C263 H267 0.960 . S
C263 H268 0.961 . S
C263 H269 0.960 . S
C264 N262 1.346 . S
C264 N265 1.307 . S
C264 C266 1.486 . S
N265 N261 1.370 . S
N265 C264 1.307 . S
C266 C264 1.486 . S
C266 H270 0.960 . S
C266 H271 0.960 . S
C266 H272 0.959 . S
H267 C263 0.960 . S
H268 C263 0.961 . S
H269 C263 0.960 . S
H270 C266 0.960 . S
H271 C266 0.960 . S
H272 C266 0.959 . S
C273 N274 1.317 . S
C273 N275 1.348 . S
C273 C276 1.485 . S
N274 C273 1.317 . S
N274 N278 1.370 . S
N275 C273 1.348 . S
N275 C277 1.346 . S
C276 C273 1.485 . S
C276 H280 0.960 . S
C276 H281 0.961 . S
C276 H282 0.960 . S
C277 N275 1.346 . S
C277 N278 1.307 . S
C277 C279 1.486 . S
N278 N274 1.370 . S
N278 C277 1.307 . S
C279 C277 1.486 . S
C279 H283 0.960 . S
C279 H284 0.960 . S
C279 H285 0.959 . S
H280 C276 0.960 . S
H281 C276 0.961 . S
H282 C276 0.960 . S
H283 C279 0.960 . S
H284 C279 0.960 . S
H285 C279 0.959 . S
C286 N287 1.317 . S
C286 N288 1.348 . S
C286 C289 1.485 . S
N287 C286 1.317 . S
N287 N291 1.370 . S
N288 C286 1.348 . S
N288 C290 1.346 . S
C289 C286 1.485 . S
C289 H293 0.960 . S
C289 H294 0.961 . S
C289 H295 0.960 . S
C290 N288 1.346 . S
C290 N291 1.307 . S
C290 C292 1.486 . S
N291 N287 1.370 . S
N291 C290 1.307 . S
C292 C290 1.486 . S
C292 H296 0.960 . S
C292 H297 0.960 . S
C292 H298 0.959 . S
H293 C289 0.960 . S
H294 C289 0.961 . S
H295 C289 0.960 . S
H296 C292 0.960 . S
H297 C292 0.960 . S
H298 C292 0.959 . S
C299 N300 1.317 . S
C299 N301 1.348 . S
C299 C302 1.485 . S
N300 C299 1.317 . S
N300 N304 1.370 . S
N301 C299 1.348 . S
N301 C303 1.346 . S
C302 C299 1.485 . S
C302 H306 0.960 . S
C302 H307 0.961 . S
C302 H308 0.960 . S
C303 N301 1.346 . S
C303 N304 1.307 . S
C303 C305 1.486 . S
N304 N300 1.370 . S
N304 C303 1.307 . S
C305 C303 1.486 . S
C305 H309 0.960 . S
C305 H310 0.960 . S
C305 H311 0.959 . S
H306 C302 0.960 . S
H307 C302 0.961 . S
H308 C302 0.960 . S
H309 C305 0.960 . S
H310 C305 0.960 . S
H311 C305 0.959 . S
C312 O338 1.283 . S
C312 O356 1.283 . S
C313 O339 1.283 . S
C313 O354 1.283 . S
C314 O340 1.283 . S
C314 O357 1.283 . S
C315 O341 1.283 . S
C315 O355 1.283 . S
C316 O342 1.283 . S
C316 O351 1.283 . S
C317 O343 1.283 . S
C317 O353 1.283 . S
C318 O344 1.283 . S
C318 O350 1.283 . S
C319 O345 1.283 . S
C319 O352 1.283 . S
C320 O346 1.283 . S
C320 O361 1.283 . S
C321 O347 1.283 . S
C321 O359 1.283 . S
C322 O348 1.283 . S
C322 O360 1.283 . S
C323 O349 1.283 . S
C323 O358 1.283 . S
Eu324 O325 2.370 1_455 S
Eu324 O326 2.370 . S
Eu324 O329 2.370 1_455 S
Eu324 O330 2.370 . S
Eu324 O338 2.363 . S
Eu324 O339 2.363 . S
Eu324 O352 2.363 . S
Eu324 O353 2.363 1_455 S
O325 Eu324 2.370 1_655 S
O325 Eu327 2.365 1_565 S
O325 Eu332 2.364 1_665 S
O326 Eu324 2.370 . S
O326 Eu328 2.365 1_565 S
O326 Eu331 2.366 1_565 S
Eu327 O325 2.365 1_545 S
Eu327 O329 2.365 1_545 S
Eu327 O333 2.375 . S
Eu327 O334 2.375 . S
Eu327 O342 2.371 . S
Eu327 O343 2.355 1_545 S
Eu327 O358 2.363 . S
Eu327 O359 2.363 . S
Eu328 O326 2.365 1_545 S
Eu328 O330 2.365 1_545 S
Eu328 O335 2.375 . S
Eu328 O336 2.375 . S
Eu328 O344 2.371 . S
Eu328 O345 2.355 1_545 S
Eu328 O360 2.363 . S
Eu328 O361 2.363 . S
O329 Eu324 2.370 1_655 S
O329 Eu327 2.365 1_565 S
O329 Eu331 2.366 1_665 S
O330 Eu324 2.370 . S
O330 Eu328 2.365 1_565 S
O330 Eu332 2.364 1_565 S
Eu331 O326 2.366 1_545 S
Eu331 O329 2.366 1_445 S
Eu331 O333 2.374 1_455 S
Eu331 O336 2.374 . S
Eu331 O348 2.363 . S
Eu331 O349 2.363 1_455 S
Eu331 O356 2.357 1_545 S
Eu331 O357 2.369 . S
Eu332 O325 2.364 1_445 S
Eu332 O330 2.364 1_545 S
Eu332 O334 2.376 1_455 S
Eu332 O335 2.376 . S
Eu332 O346 2.363 . S
Eu332 O347 2.363 1_455 S
Eu332 O354 2.353 1_545 S
Eu332 O355 2.372 . S
O333 Eu327 2.375 . S
O333 Eu331 2.374 1_655 S
O333 Eu337 2.370 1_655 S
O334 Eu327 2.375 . S
O334 Eu332 2.376 1_655 S
O334 Eu337 2.370 1_655 S
O335 Eu328 2.375 . S
O335 Eu332 2.376 . S
O335 Eu337 2.370 . S
O336 Eu328 2.375 . S
O336 Eu331 2.374 . S
O336 Eu337 2.370 . S
Eu337 O333 2.370 1_455 S
Eu337 O334 2.370 1_455 S
Eu337 O335 2.370 . S
Eu337 O336 2.370 . S
Eu337 O340 2.363 . S
Eu337 O341 2.363 . S
Eu337 O350 2.363 . S
Eu337 O351 2.363 1_455 S
O338 C312 1.283 . S
O338 Eu324 2.363 . S
O339 C313 1.283 . S
O339 Eu324 2.363 . S
O340 C314 1.283 . S
O340 Eu337 2.363 . S
O341 C315 1.283 . S
O341 Eu337 2.363 . S
O342 C316 1.283 . S
O342 Eu327 2.371 . S
O343 C317 1.283 . S
O343 Eu327 2.355 1_565 S
O344 C318 1.283 . S
O344 Eu328 2.371 . S
O345 C319 1.283 . S
O345 Eu328 2.355 1_565 S
O346 C320 1.283 . S
O346 Eu332 2.363 . S
O347 C321 1.283 . S
O347 Eu332 2.363 1_655 S
O348 C322 1.283 . S
O348 Eu331 2.363 . S
O349 C323 1.283 . S
O349 Eu331 2.363 1_655 S
O350 C318 1.283 . S
O350 Eu337 2.363 . S
O351 C316 1.283 . S
O351 Eu337 2.363 1_655 S
O352 C319 1.283 . S
O352 Eu324 2.363 . S
O353 C317 1.283 . S
O353 Eu324 2.363 1_655 S
O354 C313 1.283 . S
O354 Eu332 2.353 1_565 S
O355 C315 1.283 . S
O355 Eu332 2.372 . S
O356 C312 1.283 . S
O356 Eu331 2.357 1_565 S
O357 C314 1.283 . S
O357 Eu331 2.369 . S
O358 C323 1.283 . S
O358 Eu327 2.363 . S
O359 C321 1.283 . S
O359 Eu327 2.363 . S
O360 C322 1.283 . S
O360 Eu328 2.363 . S
O361 C320 1.283 . S
O361 Eu328 2.363 . S
C362 O388 1.283 . S
C362 O406 1.283 . S
C363 O389 1.283 . S
C363 O404 1.283 . S
C364 O390 1.283 . S
C364 O407 1.283 . S
C365 O391 1.283 . S
C365 O405 1.283 . S
C366 O392 1.283 . S
C366 O401 1.283 . S
C367 O393 1.283 . S
C367 O403 1.283 . S
C368 O394 1.283 . S
C368 O400 1.283 . S
C369 O395 1.283 . S
C369 O402 1.283 . S
C370 O396 1.283 . S
C370 O411 1.283 . S
C371 O397 1.283 . S
C371 O409 1.283 . S
C372 O398 1.283 . S
C372 O410 1.283 . S
C373 O399 1.283 . S
C373 O408 1.283 . S
Eu374 O375 2.377 . S
Eu374 O376 2.363 1_545 S
Eu374 O379 2.363 1_545 S
Eu374 O380 2.377 . S
Eu374 O388 2.351 1_545 S
Eu374 O389 2.374 . S
Eu374 O402 2.363 . S
Eu374 O403 2.363 . S
O375 Eu374 2.377 . S
O375 Eu377 2.379 . S
O375 Eu382 2.372 . S
O376 Eu374 2.363 1_565 S
O376 Eu378 2.370 1_565 S
O376 Eu381 2.376 . S
Eu377 O375 2.379 . S
Eu377 O379 2.370 1_545 S
Eu377 O383 2.361 1_544 S
Eu377 O384 2.371 1_554 S
Eu377 O392 2.356 1_554 S
Eu377 O393 2.370 . S
Eu377 O408 2.355 1_545 S
Eu377 O409 2.371 . S
Eu378 O376 2.370 1_545 S
Eu378 O380 2.379 . S
Eu378 O385 2.371 1_554 S
Eu378 O386 2.361 1_544 S
Eu378 O394 2.356 1_554 S
Eu378 O395 2.370 . S
Eu378 O410 2.355 1_545 S
Eu378 O411 2.371 . S
O379 Eu374 2.363 1_565 S
O379 Eu377 2.370 1_565 S
O379 Eu381 2.376 . S
O380 Eu374 2.377 . S
O380 Eu378 2.379 . S
O380 Eu382 2.372 . S
Eu381 O376 2.376 . S
Eu381 O379 2.376 . S
Eu381 O383 2.364 1_554 S
Eu381 O386 2.364 1_554 S
Eu381 O398 2.363 . S
Eu381 O399 2.363 . S
Eu381 O406 2.373 . S
Eu381 O407 2.353 1_554 S
Eu382 O375 2.372 . S
Eu382 O380 2.372 . S
Eu382 O384 2.368 1_554 S
Eu382 O385 2.368 1_554 S
Eu382 O396 2.363 . S
Eu382 O397 2.363 . S
Eu382 O404 2.366 . S
Eu382 O405 2.359 1_554 S
O383 Eu377 2.361 1_566 S
O383 Eu381 2.364 1_556 S
O383 Eu387 2.368 1_565 S
O384 Eu377 2.371 1_556 S
O384 Eu382 2.368 1_556 S
O384 Eu387 2.373 . S
O385 Eu378 2.371 1_556 S
O385 Eu382 2.368 1_556 S
O385 Eu387 2.373 . S
O386 Eu378 2.361 1_566 S
O386 Eu381 2.364 1_556 S
O386 Eu387 2.368 1_565 S
Eu387 O383 2.368 1_545 S
Eu387 O384 2.373 . S
Eu387 O385 2.373 . S
Eu387 O386 2.368 1_545 S
Eu387 O390 2.359 1_545 S
Eu387 O391 2.367 . S
Eu387 O400 2.363 . S
Eu387 O401 2.363 . S
O388 C362 1.283 . S
O388 Eu374 2.351 1_565 S
O389 C363 1.283 . S
O389 Eu374 2.374 . S
O390 C364 1.283 . S
O390 Eu387 2.359 1_565 S
O391 C365 1.283 . S
O391 Eu387 2.367 . S
O392 C366 1.283 . S
O392 Eu377 2.356 1_556 S
O393 C367 1.283 . S
O393 Eu377 2.370 . S
O394 C368 1.283 . S
O394 Eu378 2.356 1_556 S
O395 C369 1.283 . S
O395 Eu378 2.370 . S
O396 C370 1.283 . S
O396 Eu382 2.363 . S
O397 C371 1.283 . S
O397 Eu382 2.363 . S
O398 C372 1.283 . S
O398 Eu381 2.363 . S
O399 C373 1.283 . S
O399 Eu381 2.363 . S
O400 C368 1.283 . S
O400 Eu387 2.363 . S
O401 C366 1.283 . S
O401 Eu387 2.363 . S
O402 C369 1.283 . S
O402 Eu374 2.363 . S
O403 C367 1.283 . S
O403 Eu374 2.363 . S
O404 C363 1.283 . S
O404 Eu382 2.366 . S
O405 C365 1.283 . S
O405 Eu382 2.359 1_556 S
O406 C362 1.283 . S
O406 Eu381 2.373 . S
O407 C364 1.283 . S
O407 Eu381 2.353 1_556 S
O408 C373 1.283 . S
O408 Eu377 2.355 1_565 S
O409 C371 1.283 . S
O409 Eu377 2.371 . S
O410 C372 1.283 . S
O410 Eu378 2.355 1_565 S
O411 C370 1.283 . S
O411 Eu378 2.371 . S
C412 O438 1.283 . S
C412 O456 1.283 . S
C413 O439 1.283 . S
C413 O454 1.283 . S
C414 O440 1.283 . S
C414 O457 1.283 . S
C415 O441 1.283 . S
C415 O455 1.283 . S
C416 O442 1.283 . S
C416 O451 1.283 . S
C417 O443 1.283 . S
C417 O453 1.283 . S
C418 O444 1.283 . S
C418 O450 1.283 . S
C419 O445 1.283 . S
C419 O452 1.283 . S
C420 O446 1.283 . S
C420 O461 1.283 . S
C421 O447 1.283 . S
C421 O459 1.283 . S
C422 O448 1.283 . S
C422 O460 1.283 . S
C423 O449 1.283 . S
C423 O458 1.283 . S
Eu424 O425 2.367 1_454 S
Eu424 O426 2.373 . S
Eu424 O429 2.373 1_455 S
Eu424 O430 2.367 1_554 S
Eu424 O438 2.368 . S
Eu424 O439 2.358 1_554 S
Eu424 O452 2.363 . S
Eu424 O453 2.363 1_455 S
O425 Eu424 2.367 1_656 S
O425 Eu427 2.366 1_556 S
O425 Eu432 2.370 1_655 S
O426 Eu424 2.373 . S
O426 Eu428 2.374 . S
O426 Eu431 2.370 . S
Eu427 O425 2.366 1_554 S
Eu427 O429 2.374 . S
Eu427 O433 2.374 . S
Eu427 O434 2.366 1_554 S
Eu427 O442 2.363 . S
Eu427 O443 2.363 . S
Eu427 O458 2.370 . S
Eu427 O459 2.356 1_554 S
Eu428 O426 2.374 . S
Eu428 O430 2.366 1_554 S
Eu428 O435 2.366 1_554 S
Eu428 O436 2.374 . S
Eu428 O444 2.363 . S
Eu428 O445 2.363 . S
Eu428 O460 2.370 . S
Eu428 O461 2.356 1_554 S
O429 Eu424 2.373 1_655 S
O429 Eu427 2.374 . S
O429 Eu431 2.370 1_655 S
O430 Eu424 2.367 1_556 S
O430 Eu428 2.366 1_556 S
O430 Eu432 2.370 . S
Eu431 O426 2.370 . S
Eu431 O429 2.370 1_455 S
Eu431 O433 2.370 1_455 S
Eu431 O436 2.370 . S
Eu431 O448 2.363 . S
Eu431 O449 2.363 1_455 S
Eu431 O456 2.363 . S
Eu431 O457 2.363 . S
Eu432 O425 2.370 1_455 S
Eu432 O430 2.370 . S
Eu432 O434 2.370 1_455 S
Eu432 O435 2.370 . S
Eu432 O446 2.363 . S
Eu432 O447 2.363 1_455 S
Eu432 O454 2.363 . S
Eu432 O455 2.363 . S
O433 Eu427 2.374 . S
O433 Eu431 2.370 1_655 S
O433 Eu437 2.375 1_655 S
O434 Eu427 2.366 1_556 S
O434 Eu432 2.370 1_655 S
O434 Eu437 2.365 1_656 S
O435 Eu428 2.366 1_556 S
O435 Eu432 2.370 . S
O435 Eu437 2.365 1_556 S
O436 Eu428 2.374 . S
O436 Eu431 2.370 . S
O436 Eu437 2.375 . S
Eu437 O433 2.375 1_455 S
Eu437 O434 2.365 1_454 S
Eu437 O435 2.365 1_554 S
Eu437 O436 2.375 . S
Eu437 O440 2.372 . S
Eu437 O441 2.354 1_554 S
Eu437 O450 2.363 . S
Eu437 O451 2.363 1_455 S
O438 C412 1.283 . S
O438 Eu424 2.368 . S
O439 C413 1.283 . S
O439 Eu424 2.358 1_556 S
O440 C414 1.283 . S
O440 Eu437 2.372 . S
O441 C415 1.283 . S
O441 Eu437 2.354 1_556 S
O442 C416 1.283 . S
O442 Eu427 2.363 . S
O443 C417 1.283 . S
O443 Eu427 2.363 . S
O444 C418 1.283 . S
O444 Eu428 2.363 . S
O445 C419 1.283 . S
O445 Eu428 2.363 . S
O446 C420 1.283 . S
O446 Eu432 2.363 . S
O447 C421 1.283 . S
O447 Eu432 2.363 1_655 S
O448 C422 1.283 . S
O448 Eu431 2.363 . S
O449 C423 1.283 . S
O449 Eu431 2.363 1_655 S
O450 C418 1.283 . S
O450 Eu437 2.363 . S
O451 C416 1.283 . S
O451 Eu437 2.363 1_655 S
O452 C419 1.283 . S
O452 Eu424 2.363 . S
O453 C417 1.283 . S
O453 Eu424 2.363 1_655 S
O454 C413 1.283 . S
O454 Eu432 2.363 . S
O455 C415 1.283 . S
O455 Eu432 2.363 . S
O456 C412 1.283 . S
O456 Eu431 2.363 . S
O457 C414 1.283 . S
O457 Eu431 2.363 . S
O458 C423 1.283 . S
O458 Eu427 2.370 . S
O459 C421 1.283 . S
O459 Eu427 2.356 1_556 S
O460 C422 1.283 . S
O460 Eu428 2.370 . S
O461 C420 1.283 . S
O461 Eu428 2.356 1_556 S
C462 O488 1.283 . S
C462 O506 1.283 . S
C463 O489 1.283 . S
C463 O504 1.283 . S
C464 O490 1.283 . S
C464 O507 1.283 . S
C465 O491 1.283 . S
C465 O505 1.283 . S
C466 O492 1.283 . S
C466 O501 1.283 . S
C467 O493 1.283 . S
C467 O503 1.283 . S
C468 O494 1.283 . S
C468 O500 1.283 . S
C469 O495 1.283 . S
C469 O502 1.283 . S
C470 O496 1.283 . S
C470 O511 1.283 . S
C471 O497 1.283 . S
C471 O509 1.283 . S
C472 O498 1.283 . S
C472 O510 1.283 . S
C473 O499 1.283 . S
C473 O508 1.283 . S
Eu474 O475 2.370 . S
Eu474 O476 2.370 . S
Eu474 O479 2.370 . S
Eu474 O480 2.370 . S
Eu474 O488 2.363 . S
Eu474 O489 2.363 . S
Eu474 O502 2.363 . S
Eu474 O503 2.363 . S
O475 Eu474 2.370 . S
O475 Eu477 2.374 . S
O475 Eu482 2.375 . S
O476 Eu474 2.370 . S
O476 Eu478 2.374 . S
O476 Eu481 2.373 . S
Eu477 O475 2.374 . S
Eu477 O479 2.374 . S
Eu477 O483 2.366 1_554 S
Eu477 O484 2.366 1_554 S
Eu477 O492 2.356 1_554 S
Eu477 O493 2.370 . S
Eu477 O508 2.363 . S
Eu477 O509 2.363 . S
Eu478 O476 2.374 . S
Eu478 O480 2.374 . S
Eu478 O485 2.366 1_554 S
Eu478 O486 2.366 1_554 S
Eu478 O494 2.356 1_554 S
Eu478 O495 2.370 . S
Eu478 O510 2.363 . S
Eu478 O511 2.363 . S
O479 Eu474 2.370 . S
O479 Eu477 2.374 . S
O479 Eu481 2.373 . S
O480 Eu474 2.370 . S
O480 Eu478 2.374 . S
O480 Eu482 2.375 . S
Eu481 O476 2.373 . S
Eu481 O479 2.373 . S
Eu481 O483 2.367 1_554 S
Eu481 O486 2.367 1_554 S
Eu481 O498 2.363 . S
Eu481 O499 2.363 . S
Eu481 O506 2.368 . S
Eu481 O507 2.358 1_554 S
Eu482 O475 2.375 . S
Eu482 O480 2.375 . S
Eu482 O484 2.365 1_554 S
Eu482 O485 2.365 1_554 S
Eu482 O496 2.363 . S
Eu482 O497 2.363 . S
Eu482 O504 2.372 . S
Eu482 O505 2.354 1_554 S
O483 Eu477 2.366 1_556 S
O483 Eu481 2.367 1_556 S
O483 Eu487 2.370 . S
O484 Eu477 2.366 1_556 S
O484 Eu482 2.365 1_556 S
O484 Eu487 2.370 . S
O485 Eu478 2.366 1_556 S
O485 Eu482 2.365 1_556 S
O485 Eu487 2.370 . S
O486 Eu478 2.366 1_556 S
O486 Eu481 2.367 1_556 S
O486 Eu487 2.370 . S
Eu487 O483 2.370 . S
Eu487 O484 2.370 . S
Eu487 O485 2.370 . S
Eu487 O486 2.370 . S
Eu487 O490 2.363 . S
Eu487 O491 2.363 . S
Eu487 O500 2.363 . S
Eu487 O501 2.363 . S
O488 C462 1.283 . S
O488 Eu474 2.363 . S
O489 C463 1.283 . S
O489 Eu474 2.363 . S
O490 C464 1.283 . S
O490 Eu487 2.363 . S
O491 C465 1.283 . S
O491 Eu487 2.363 . S
O492 C466 1.283 . S
O492 Eu477 2.356 1_556 S
O493 C467 1.283 . S
O493 Eu477 2.370 . S
O494 C468 1.283 . S
O494 Eu478 2.356 1_556 S
O495 C469 1.283 . S
O495 Eu478 2.370 . S
O496 C470 1.283 . S
O496 Eu482 2.363 . S
O497 C471 1.283 . S
O497 Eu482 2.363 . S
O498 C472 1.283 . S
O498 Eu481 2.363 . S
O499 C473 1.283 . S
O499 Eu481 2.363 . S
O500 C468 1.283 . S
O500 Eu487 2.363 . S
O501 C466 1.283 . S
O501 Eu487 2.363 . S
O502 C469 1.283 . S
O502 Eu474 2.363 . S
O503 C467 1.283 . S
O503 Eu474 2.363 . S
O504 C463 1.283 . S
O504 Eu482 2.372 . S
O505 C465 1.283 . S
O505 Eu482 2.354 1_556 S
O506 C462 1.283 . S
O506 Eu481 2.368 . S
O507 C464 1.283 . S
O507 Eu481 2.358 1_556 S
O508 C473 1.283 . S
O508 Eu477 2.363 . S
O509 C471 1.283 . S
O509 Eu477 2.363 . S
O510 C472 1.283 . S
O510 Eu478 2.363 . S
O511 C470 1.283 . S
O511 Eu478 2.363 . S
C512 O538 1.283 . S
C512 O556 1.283 . S
C513 O539 1.283 . S
C513 O554 1.283 . S
C514 O540 1.283 . S
C514 O557 1.283 . S
C515 O541 1.283 . S
C515 O555 1.283 . S
C516 O542 1.283 . S
C516 O551 1.283 . S
C517 O543 1.283 . S
C517 O553 1.283 . S
C518 O544 1.283 . S
C518 O550 1.283 . S
C519 O545 1.283 . S
C519 O552 1.283 . S
C520 O546 1.283 . S
C520 O561 1.283 . S
C521 O547 1.283 . S
C521 O559 1.283 . S
C522 O548 1.283 . S
C522 O560 1.283 . S
C523 O549 1.283 . S
C523 O558 1.283 . S
Eu524 O525 2.370 1_455 S
Eu524 O526 2.370 . S
Eu524 O529 2.370 1_455 S
Eu524 O530 2.370 . S
Eu524 O538 2.363 . S
Eu524 O539 2.363 . S
Eu524 O552 2.363 . S
Eu524 O553 2.363 1_455 S
O525 Eu524 2.370 1_655 S
O525 Eu527 2.370 . S
O525 Eu532 2.370 1_655 S
O526 Eu524 2.370 . S
O526 Eu528 2.370 . S
O526 Eu531 2.370 . S
Eu527 O525 2.370 . S
Eu527 O529 2.370 . S
Eu527 O533 2.370 . S
Eu527 O534 2.370 . S
Eu527 O542 2.363 . S
Eu527 O543 2.363 . S
Eu527 O558 2.363 . S
Eu527 O559 2.363 . S
Eu528 O526 2.370 . S
Eu528 O530 2.370 . S
Eu528 O535 2.370 . S
Eu528 O536 2.370 . S
Eu528 O544 2.363 . S
Eu528 O545 2.363 . S
Eu528 O560 2.363 . S
Eu528 O561 2.363 . S
O529 Eu524 2.370 1_655 S
O529 Eu527 2.370 . S
O529 Eu531 2.370 1_655 S
O530 Eu524 2.370 . S
O530 Eu528 2.370 . S
O530 Eu532 2.370 . S
Eu531 O526 2.370 . S
Eu531 O529 2.370 1_455 S
Eu531 O533 2.370 1_455 S
Eu531 O536 2.370 . S
Eu531 O548 2.363 . S
Eu531 O549 2.363 1_455 S
Eu531 O556 2.363 . S
Eu531 O557 2.363 . S
Eu532 O525 2.370 1_455 S
Eu532 O530 2.370 . S
Eu532 O534 2.370 1_455 S
Eu532 O535 2.370 . S
Eu532 O546 2.363 . S
Eu532 O547 2.363 1_455 S
Eu532 O554 2.363 . S
Eu532 O555 2.363 . S
O533 Eu527 2.370 . S
O533 Eu531 2.370 1_655 S
O533 Eu537 2.370 1_655 S
O534 Eu527 2.370 . S
O534 Eu532 2.370 1_655 S
O534 Eu537 2.370 1_655 S
O535 Eu528 2.370 . S
O535 Eu532 2.370 . S
O535 Eu537 2.370 . S
O536 Eu528 2.370 . S
O536 Eu531 2.370 . S
O536 Eu537 2.370 . S
Eu537 O533 2.370 1_455 S
Eu537 O534 2.370 1_455 S
Eu537 O535 2.370 . S
Eu537 O536 2.370 . S
Eu537 O540 2.363 . S
Eu537 O541 2.363 . S
Eu537 O550 2.363 . S
Eu537 O551 2.363 1_455 S
O538 C512 1.283 . S
O538 Eu524 2.363 . S
O539 C513 1.283 . S
O539 Eu524 2.363 . S
O540 C514 1.283 . S
O540 Eu537 2.363 . S
O541 C515 1.283 . S
O541 Eu537 2.363 . S
O542 C516 1.283 . S
O542 Eu527 2.363 . S
O543 C517 1.283 . S
O543 Eu527 2.363 . S
O544 C518 1.283 . S
O544 Eu528 2.363 . S
O545 C519 1.283 . S
O545 Eu528 2.363 . S
O546 C520 1.283 . S
O546 Eu532 2.363 . S
O547 C521 1.283 . S
O547 Eu532 2.363 1_655 S
O548 C522 1.283 . S
O548 Eu531 2.363 . S
O549 C523 1.283 . S
O549 Eu531 2.363 1_655 S
O550 C518 1.283 . S
O550 Eu537 2.363 . S
O551 C516 1.283 . S
O551 Eu537 2.363 1_655 S
O552 C519 1.283 . S
O552 Eu524 2.363 . S
O553 C517 1.283 . S
O553 Eu524 2.363 1_655 S
O554 C513 1.283 . S
O554 Eu532 2.363 . S
O555 C515 1.283 . S
O555 Eu532 2.363 . S
O556 C512 1.283 . S
O556 Eu531 2.363 . S
O557 C514 1.283 . S
O557 Eu531 2.363 . S
O558 C523 1.283 . S
O558 Eu527 2.363 . S
O559 C521 1.283 . S
O559 Eu527 2.363 . S
O560 C522 1.283 . S
O560 Eu528 2.363 . S
O561 C520 1.283 . S
O561 Eu528 2.363 . S
C562 O588 1.283 . S
C562 O606 1.283 . S
C563 O589 1.283 . S
C563 O604 1.283 . S
C564 O590 1.283 . S
C564 O607 1.283 . S
C565 O591 1.283 . S
C565 O605 1.283 . S
C566 O592 1.283 . S
C566 O601 1.283 . S
C567 O593 1.283 . S
C567 O603 1.283 . S
C568 O594 1.283 . S
C568 O600 1.283 . S
C569 O595 1.283 . S
C569 O602 1.283 . S
C570 O596 1.283 . S
C570 O611 1.283 . S
C571 O597 1.283 . S
C571 O609 1.283 . S
C572 O598 1.283 . S
C572 O610 1.283 . S
C573 O599 1.283 . S
C573 O608 1.283 . S
Eu574 O575 2.370 . S
Eu574 O576 2.370 . S
Eu574 O579 2.370 . S
Eu574 O580 2.370 . S
Eu574 O588 2.363 . S
Eu574 O589 2.363 . S
Eu574 O602 2.363 . S
Eu574 O603 2.363 . S
O575 Eu574 2.370 . S
O575 Eu577 2.365 1_565 S
O575 Eu582 2.364 1_565 S
O576 Eu574 2.370 . S
O576 Eu578 2.365 1_565 S
O576 Eu581 2.367 1_565 S
Eu577 O575 2.365 1_545 S
Eu577 O579 2.365 1_545 S
Eu577 O583 2.375 . S
Eu577 O584 2.375 . S
Eu577 O592 2.371 . S
Eu577 O593 2.355 1_545 S
Eu577 O608 2.363 . S
Eu577 O609 2.363 . S
Eu578 O576 2.365 1_545 S
Eu578 O580 2.365 1_545 S
Eu578 O585 2.375 . S
Eu578 O586 2.375 . S
Eu578 O594 2.371 . S
Eu578 O595 2.355 1_545 S
Eu578 O610 2.363 . S
Eu578 O611 2.363 . S
O579 Eu574 2.370 . S
O579 Eu577 2.365 1_565 S
O579 Eu581 2.367 1_565 S
O580 Eu574 2.370 . S
O580 Eu578 2.365 1_565 S
O580 Eu582 2.364 1_565 S
Eu581 O576 2.367 1_545 S
Eu581 O579 2.367 1_545 S
Eu581 O583 2.374 . S
Eu581 O586 2.374 . S
Eu581 O598 2.363 . S
Eu581 O599 2.363 . S
Eu581 O606 2.357 1_545 S
Eu581 O607 2.369 . S
Eu582 O575 2.364 1_545 S
Eu582 O580 2.364 1_545 S
Eu582 O584 2.376 . S
Eu582 O585 2.376 . S
Eu582 O596 2.363 . S
Eu582 O597 2.363 . S
Eu582 O604 2.353 1_545 S
Eu582 O605 2.373 . S
O583 Eu577 2.375 . S
O583 Eu581 2.374 . S
O583 Eu587 2.370 . S
O584 Eu577 2.375 . S
O584 Eu582 2.376 . S
O584 Eu587 2.370 . S
O585 Eu578 2.375 . S
O585 Eu582 2.376 . S
O585 Eu587 2.370 . S
O586 Eu578 2.375 . S
O586 Eu581 2.374 . S
O586 Eu587 2.370 . S
Eu587 O583 2.370 . S
Eu587 O584 2.370 . S
Eu587 O585 2.370 . S
Eu587 O586 2.370 . S
Eu587 O590 2.363 . S
Eu587 O591 2.363 . S
Eu587 O600 2.363 . S
Eu587 O601 2.363 . S
O588 C562 1.283 . S
O588 Eu574 2.363 . S
O589 C563 1.283 . S
O589 Eu574 2.363 . S
O590 C564 1.283 . S
O590 Eu587 2.363 . S
O591 C565 1.283 . S
O591 Eu587 2.363 . S
O592 C566 1.283 . S
O592 Eu577 2.371 . S
O593 C567 1.283 . S
O593 Eu577 2.355 1_565 S
O594 C568 1.283 . S
O594 Eu578 2.371 . S
O595 C569 1.283 . S
O595 Eu578 2.355 1_565 S
O596 C570 1.283 . S
O596 Eu582 2.363 . S
O597 C571 1.283 . S
O597 Eu582 2.363 . S
O598 C572 1.283 . S
O598 Eu581 2.363 . S
O599 C573 1.283 . S
O599 Eu581 2.363 . S
O600 C568 1.283 . S
O600 Eu587 2.363 . S
O601 C566 1.283 . S
O601 Eu587 2.363 . S
O602 C569 1.283 . S
O602 Eu574 2.363 . S
O603 C567 1.283 . S
O603 Eu574 2.363 . S
O604 C563 1.283 . S
O604 Eu582 2.353 1_565 S
O605 C565 1.283 . S
O605 Eu582 2.373 . S
O606 C562 1.283 . S
O606 Eu581 2.357 1_565 S
O607 C564 1.283 . S
O607 Eu581 2.369 . S
O608 C573 1.283 . S
O608 Eu577 2.363 . S
O609 C571 1.283 . S
O609 Eu577 2.363 . S
O610 C572 1.283 . S
O610 Eu578 2.363 . S
O611 C570 1.283 . S
O611 Eu578 2.363 . S
C612 C613 1.387 . S
C612 H616 0.950 . S
C612 C621 1.390 . S
C613 C612 1.387 . S
C613 C615 1.387 . S
H614 C621 0.950 . S
C615 C613 1.387 . S
C615 C617 1.390 . S
C615 H619 0.950 . S
H616 C612 0.950 . S
C617 C615 1.390 . S
C617 C618 1.387 . S
C617 H620 0.950 . S
C618 C617 1.387 . S
C618 C621 1.387 . S
H619 C615 0.950 . S
H620 C617 0.950 . S
C621 C612 1.390 . S
C621 H614 0.950 . S
C621 C618 1.387 . S
C622 C623 1.387 . S
C622 H626 0.950 . S
C622 C631 1.390 . S
C623 C622 1.387 . S
C623 C625 1.387 . S
H624 C631 0.950 . S
C625 C623 1.387 . S
C625 C627 1.390 . S
C625 H629 0.950 . S
H626 C622 0.950 . S
C627 C625 1.390 . S
C627 C628 1.387 . S
C627 H630 0.950 . S
C628 C627 1.387 . S
C628 C631 1.387 . S
H629 C625 0.950 . S
H630 C627 0.950 . S
C631 C622 1.390 . S
C631 H624 0.950 . S
C631 C628 1.387 . S
C632 C633 1.387 . S
C632 H636 0.950 . S
C632 C641 1.390 . S
C633 C632 1.387 . S
C633 C635 1.387 . S
H634 C641 0.950 . S
C635 C633 1.387 . S
C635 C637 1.390 . S
C635 H639 0.950 . S
H636 C632 0.950 . S
C637 C635 1.390 . S
C637 C638 1.387 . S
C637 H640 0.950 . S
C638 C637 1.387 . S
C638 C641 1.387 . S
H639 C635 0.950 . S
H640 C637 0.950 . S
C641 C632 1.390 . S
C641 H634 0.950 . S
C641 C638 1.387 . S
C642 C643 1.387 . S
C642 H646 0.950 . S
C642 C651 1.390 . S
C643 C642 1.387 . S
C643 C645 1.387 . S
H644 C651 0.950 . S
C645 C643 1.387 . S
C645 C647 1.390 . S
C645 H649 0.950 . S
H646 C642 0.950 . S
C647 C645 1.390 . S
C647 C648 1.387 . S
C647 H650 0.950 . S
C648 C647 1.387 . S
C648 C651 1.387 . S
H649 C645 0.950 . S
H650 C647 0.950 . S
C651 C642 1.390 . S
C651 H644 0.950 . S
C651 C648 1.387 . S
C652 C653 1.387 . S
C652 H656 0.950 . S
C652 C661 1.390 . S
C653 C652 1.387 . S
C653 C655 1.387 . S
H654 C661 0.950 . S
C655 C653 1.387 . S
C655 C657 1.390 . S
C655 H659 0.950 . S
H656 C652 0.950 . S
C657 C655 1.390 . S
C657 C658 1.387 . S
C657 H660 0.950 . S
C658 C657 1.387 . S
C658 C661 1.387 . S
H659 C655 0.950 . S
H660 C657 0.950 . S
C661 C652 1.390 . S
C661 H654 0.950 . S
C661 C658 1.387 . S
C662 C663 1.387 . S
C662 H666 0.950 . S
C662 C671 1.390 . S
C663 C662 1.387 . S
C663 C665 1.387 . S
H664 C671 0.950 . S
C665 C663 1.387 . S
C665 C667 1.390 . S
C665 H669 0.950 . S
H666 C662 0.950 . S
C667 C665 1.390 . S
C667 C668 1.387 . S
C667 H670 0.950 . S
C668 C667 1.387 . S
C668 C671 1.387 . S
H669 C665 0.950 . S
H670 C667 0.950 . S
C671 C662 1.390 . S
C671 H664 0.950 . S
C671 C668 1.387 . S
C672 C673 1.387 . S
C672 H676 0.950 . S
C672 C681 1.390 . S
C673 C672 1.387 . S
C673 C675 1.387 . S
H674 C681 0.950 . S
C675 C673 1.387 . S
C675 C677 1.390 . S
C675 H679 0.950 . S
H676 C672 0.950 . S
C677 C675 1.390 . S
C677 C678 1.387 . S
C677 H680 0.950 . S
C678 C677 1.387 . S
C678 C681 1.387 . S
H679 C675 0.950 . S
H680 C677 0.950 . S
C681 C672 1.390 . S
C681 H674 0.950 . S
C681 C678 1.387 . S
C682 C683 1.387 . S
C682 H686 0.950 . S
C682 C691 1.390 . S
C683 C682 1.387 . S
C683 C685 1.387 . S
H684 C691 0.950 . S
C685 C683 1.387 . S
C685 C687 1.390 . S
C685 H689 0.950 . S
H686 C682 0.950 . S
C687 C685 1.390 . S
C687 C688 1.387 . S
C687 H690 0.950 . S
C688 C687 1.387 . S
C688 C691 1.387 . S
H689 C685 0.950 . S
H690 C687 0.950 . S
C691 C682 1.390 . S
C691 H684 0.950 . S
C691 C688 1.387 . S
C692 C693 1.387 . S
C692 H696 0.950 . S
C692 C701 1.390 . S
C693 C692 1.387 . S
C693 C695 1.387 . S
H694 C701 0.950 . S
C695 C693 1.387 . S
C695 C697 1.390 . S
C695 H699 0.950 . S
H696 C692 0.950 . S
C697 C695 1.390 . S
C697 C698 1.387 . S
C697 H700 0.950 . S
C698 C697 1.387 . S
C698 C701 1.387 . S
H699 C695 0.950 . S
H700 C697 0.950 . S
C701 C692 1.390 . S
C701 H694 0.950 . S
C701 C698 1.387 . S
C702 C703 1.387 . S
C702 H706 0.950 . S
C702 C711 1.390 . S
C703 C702 1.387 . S
C703 C705 1.387 . S
H704 C711 0.950 . S
C705 C703 1.387 . S
C705 C707 1.390 . S
C705 H709 0.950 . S
H706 C702 0.950 . S
C707 C705 1.390 . S
C707 C708 1.387 . S
C707 H710 0.950 . S
C708 C707 1.387 . S
C708 C711 1.387 . S
H709 C705 0.950 . S
H710 C707 0.950 . S
C711 C702 1.390 . S
C711 H704 0.950 . S
C711 C708 1.387 . S
C712 C713 1.387 . S
C712 H716 0.950 . S
C712 C721 1.390 . S
C713 C712 1.387 . S
C713 C715 1.387 . S
H714 C721 0.950 . S
C715 C713 1.387 . S
C715 C717 1.390 . S
C715 H719 0.950 . S
H716 C712 0.950 . S
C717 C715 1.390 . S
C717 C718 1.387 . S
C717 H720 0.950 . S
C718 C717 1.387 . S
C718 C721 1.387 . S
H719 C715 0.950 . S
H720 C717 0.950 . S
C721 C712 1.390 . S
C721 H714 0.950 . S
C721 C718 1.387 . S
C722 C723 1.387 . S
C722 H726 0.950 . S
C722 C731 1.390 . S
C723 C722 1.387 . S
C723 C725 1.387 . S
H724 C731 0.950 . S
C725 C723 1.387 . S
C725 C727 1.390 . S
C725 H729 0.950 . S
H726 C722 0.950 . S
C727 C725 1.390 . S
C727 C728 1.387 . S
C727 H730 0.950 . S
C728 C727 1.387 . S
C728 C731 1.387 . S
H729 C725 0.950 . S
H730 C727 0.950 . S
C731 C722 1.390 . S
C731 H724 0.950 . S
C731 C728 1.387 . S
C732 C733 1.402 . S
C732 H736 0.950 . S
C732 C741 1.390 . S
C733 C732 1.402 . S
C733 C735 1.373 1_554 S
H734 C741 0.950 . S
C735 C733 1.373 1_556 S
C735 C737 1.390 . S
C735 H739 0.950 . S
H736 C732 0.950 . S
C737 C735 1.390 . S
C737 C738 1.378 1_556 S
C737 H740 0.950 . S
C738 C737 1.378 1_554 S
C738 C741 1.397 . S
H739 C735 0.950 . S
H740 C737 0.950 . S
C741 C732 1.390 . S
C741 H734 0.950 . S
C741 C738 1.397 . S
C742 C743 1.403 . S
C742 H746 0.950 . S
C742 C751 1.390 . S
C743 C742 1.403 . S
C743 C745 1.372 1_554 S
H744 C751 0.950 . S
C745 C743 1.372 1_556 S
C745 C747 1.390 . S
C745 H749 0.950 . S
H746 C742 0.950 . S
C747 C745 1.390 . S
C747 C748 1.377 1_556 S
C747 H750 0.950 . S
C748 C747 1.377 1_554 S
C748 C751 1.398 . S
H749 C745 0.950 . S
H750 C747 0.950 . S
C751 C742 1.390 . S
C751 H744 0.950 . S
C751 C748 1.398 . S
C752 C753 1.386 1_556 S
C752 H756 0.950 . S
C752 C761 1.390 . S
C753 C752 1.386 1_554 S
C753 C755 1.389 . S
H754 C761 0.950 . S
C755 C753 1.389 . S
C755 C757 1.390 . S
C755 H759 0.950 . S
H756 C752 0.950 . S
C757 C755 1.390 . S
C757 C758 1.393 . S
C757 H760 0.950 . S
C758 C757 1.393 . S
C758 C761 1.382 1_554 S
H759 C755 0.950 . S
H760 C757 0.950 . S
C761 C752 1.390 . S
C761 H754 0.950 . S
C761 C758 1.382 1_556 S
C762 C763 1.389 1_556 S
C762 H766 0.950 . S
C762 C771 1.390 . S
C763 C762 1.389 1_554 S
C763 C765 1.386 . S
H764 C771 0.950 . S
C765 C763 1.386 . S
C765 C767 1.390 . S
C765 H769 0.950 . S
H766 C762 0.950 . S
C767 C765 1.390 . S
C767 C768 1.390 . S
C767 H770 0.950 . S
C768 C767 1.390 . S
C768 C771 1.385 1_554 S
H769 C765 0.950 . S
H770 C767 0.950 . S
C771 C762 1.390 . S
C771 H764 0.950 . S
C771 C768 1.385 1_556 S
C772 C773 1.387 . S
C772 H776 0.950 . S
C772 C781 1.390 . S
C773 C772 1.387 . S
C773 C775 1.387 1_455 S
H774 C781 0.950 . S
C775 C773 1.387 1_655 S
C775 C777 1.390 . S
C775 H779 0.950 . S
H776 C772 0.950 . S
C777 C775 1.390 . S
C777 C778 1.387 1_655 S
C777 H780 0.950 . S
C778 C777 1.387 1_455 S
C778 C781 1.387 . S
H779 C775 0.950 . S
H780 C777 0.950 . S
C781 C772 1.390 . S
C781 H774 0.950 . S
C781 C778 1.387 . S
C782 C783 1.386 1_565 S
C782 H786 0.950 . S
C782 C791 1.390 . S
C783 C782 1.386 1_545 S
C783 C785 1.389 . S
H784 C791 0.950 . S
C785 C783 1.389 . S
C785 C787 1.390 . S
C785 H789 0.950 . S
H786 C782 0.950 . S
C787 C785 1.390 . S
C787 C788 1.394 . S
C787 H790 0.950 . S
C788 C787 1.394 . S
C788 C791 1.381 1_545 S
H789 C785 0.950 . S
H790 C787 0.950 . S
C791 C782 1.390 . S
C791 H784 0.950 . S
C791 C788 1.381 1_565 S
C792 C793 1.387 . S
C792 H796 0.950 . S
C792 C801 1.390 . S
C793 C792 1.387 . S
C793 C795 1.387 1_455 S
H794 C801 0.950 . S
C795 C793 1.387 1_655 S
C795 C797 1.390 . S
C795 H799 0.950 . S
H796 C792 0.950 . S
C797 C795 1.390 . S
C797 C798 1.387 1_655 S
C797 H800 0.950 . S
C798 C797 1.387 1_455 S
C798 C801 1.387 . S
H799 C795 0.950 . S
H800 C797 0.950 . S
C801 C792 1.390 . S
C801 H794 0.950 . S
C801 C798 1.387 . S
C802 C803 1.389 . S
C802 H806 0.950 . S
C802 C811 1.390 . S
C803 C802 1.389 . S
C803 C805 1.386 1_545 S
H804 C811 0.950 . S
C805 C803 1.386 1_565 S
C805 C807 1.390 . S
C805 H809 0.950 . S
H806 C802 0.950 . S
C807 C805 1.390 . S
C807 C808 1.381 1_565 S
C807 H810 0.950 . S
C808 C807 1.381 1_545 S
C808 C811 1.394 . S
H809 C805 0.950 . S
H810 C807 0.950 . S
C811 C802 1.390 . S
C811 H804 0.950 . S
C811 C808 1.394 . S
C812 C813 1.387 1_655 S
C812 H816 0.950 . S
C812 C821 1.390 . S
C813 C812 1.387 1_455 S
C813 C815 1.387 . S
H814 C821 0.950 . S
C815 C813 1.387 . S
C815 C817 1.390 . S
C815 H819 0.950 . S
H816 C812 0.950 . S
C817 C815 1.390 . S
C817 C818 1.387 . S
C817 H820 0.950 . S
C818 C817 1.387 . S
C818 C821 1.387 1_455 S
H819 C815 0.950 . S
H820 C817 0.950 . S
C821 C812 1.390 . S
C821 H814 0.950 . S
C821 C818 1.387 1_655 S
C822 C823 1.371 1_565 S
C822 H826 0.950 . S
C822 C831 1.390 . S
C823 C822 1.371 1_545 S
C823 C825 1.404 . S
H824 C831 0.950 . S
C825 C823 1.404 . S
C825 C827 1.390 . S
C825 H829 0.950 . S
H826 C822 0.950 . S
C827 C825 1.390 . S
C827 C828 1.399 . S
C827 H830 0.950 . S
C828 C827 1.399 . S
C828 C831 1.376 1_545 S
H829 C825 0.950 . S
H830 C827 0.950 . S
C831 C822 1.390 . S
C831 H824 0.950 . S
C831 C828 1.376 1_565 S
C832 C833 1.387 . S
C832 H836 0.950 . S
C832 C841 1.390 . S
C833 C832 1.387 . S
C833 C835 1.387 1_455 S
H834 C841 0.950 . S
C835 C833 1.387 1_655 S
C835 C837 1.390 . S
C835 H839 0.950 . S
H836 C832 0.950 . S
C837 C835 1.390 . S
C837 C838 1.387 1_655 S
C837 H840 0.950 . S
C838 C837 1.387 1_455 S
C838 C841 1.387 . S
H839 C835 0.950 . S
H840 C837 0.950 . S
C841 C832 1.390 . S
C841 H834 0.950 . S
C841 C838 1.387 . S
C842 C843 1.371 1_565 S
C842 H846 0.950 . S
C842 C851 1.390 . S
C843 C842 1.371 1_545 S
C843 C845 1.404 . S
H844 C851 0.950 . S
C845 C843 1.404 . S
C845 C847 1.390 . S
C845 H849 0.950 . S
H846 C842 0.950 . S
C847 C845 1.390 . S
C847 C848 1.399 . S
C847 H850 0.950 . S
C848 C847 1.399 . S
C848 C851 1.376 1_545 S
H849 C845 0.950 . S
H850 C847 0.950 . S
C851 C842 1.390 . S
C851 H844 0.950 . S
C851 C848 1.376 1_565 S
C852 C853 1.387 1_655 S
C852 H856 0.950 . S
C852 C861 1.390 . S
C853 C852 1.387 1_455 S
C853 C855 1.387 . S
H854 C861 0.950 . S
C855 C853 1.387 . S
C855 C857 1.390 . S
C855 H859 0.950 . S
H856 C852 0.950 . S
C857 C855 1.390 . S
C857 C858 1.387 . S
C857 H860 0.950 . S
C858 C857 1.387 . S
C858 C861 1.387 1_455 S
H859 C855 0.950 . S
H860 C857 0.950 . S
C861 C852 1.390 . S
C861 H854 0.950 . S
C861 C858 1.387 1_655 S
C862 C863 1.371 1_565 S
C862 H866 0.950 . S
C862 C871 1.390 . S
C863 C862 1.371 1_545 S
C863 C865 1.404 . S
H864 C871 0.950 . S
C865 C863 1.404 . S
C865 C867 1.390 . S
C865 H869 0.950 . S
H866 C862 0.950 . S
C867 C865 1.390 . S
C867 C868 1.399 . S
C867 H870 0.950 . S
C868 C867 1.399 . S
C868 C871 1.376 1_545 S
H869 C865 0.950 . S
H870 C867 0.950 . S
C871 C862 1.390 . S
C871 H864 0.950 . S
C871 C868 1.376 1_565 S
C872 C873 1.387 . S
C872 H876 0.950 . S
C872 C881 1.390 . S
C873 C872 1.387 . S
C873 C875 1.387 . S
H874 C881 0.950 . S
C875 C873 1.387 . S
C875 C877 1.390 . S
C875 H879 0.950 . S
H876 C872 0.950 . S
C877 C875 1.390 . S
C877 C878 1.387 . S
C877 H880 0.950 . S
C878 C877 1.387 . S
C878 C881 1.387 . S
H879 C875 0.950 . S
H880 C877 0.950 . S
C881 C872 1.390 . S
C881 H874 0.950 . S
C881 C878 1.387 . S
C882 C883 1.404 . S
C882 H886 0.950 . S
C882 C891 1.390 . S
C883 C882 1.404 . S
C883 C885 1.371 1_545 S
H884 C891 0.950 . S
C885 C883 1.371 1_565 S
C885 C887 1.390 . S
C885 H889 0.950 . S
H886 C882 0.950 . S
C887 C885 1.390 . S
C887 C888 1.377 1_565 S
C887 H890 0.950 . S
C888 C887 1.377 1_545 S
C888 C891 1.398 . S
H889 C885 0.950 . S
H890 C887 0.950 . S
C891 C882 1.390 . S
C891 H884 0.950 . S
C891 C888 1.398 . S
C892 C893 1.387 1_655 S
C892 H896 0.950 . S
C892 C901 1.390 . S
C893 C892 1.387 1_455 S
C893 C895 1.387 . S
H894 C901 0.950 . S
C895 C893 1.387 . S
C895 C897 1.390 . S
C895 H899 0.950 . S
H896 C892 0.950 . S
C897 C895 1.390 . S
C897 C898 1.387 . S
C897 H900 0.950 . S
C898 C897 1.387 . S
C898 C901 1.387 1_455 S
H899 C895 0.950 . S
H900 C897 0.950 . S
C901 C892 1.390 . S
C901 H894 0.950 . S
C901 C898 1.387 1_655 S
C902 C903 1.389 1_565 S
C902 H906 0.950 . S
C902 C911 1.390 . S
C903 C902 1.389 1_545 S
C903 C905 1.386 . S
H904 C911 0.950 . S
C905 C903 1.386 . S
C905 C907 1.390 . S
C905 H909 0.950 . S
H906 C902 0.950 . S
C907 C905 1.390 . S
C907 C908 1.391 . S
C907 H910 0.950 . S
C908 C907 1.391 . S
C908 C911 1.384 1_545 S
H909 C905 0.950 . S
H910 C907 0.950 . S
C911 C902 1.390 . S
C911 H904 0.950 . S
C911 C908 1.384 1_565 S
C912 C913 1.387 1_655 S
C912 H916 0.950 . S
C912 C921 1.390 . S
C913 C912 1.387 1_455 S
C913 C915 1.387 . S
H914 C921 0.950 . S
C915 C913 1.387 . S
C915 C917 1.390 . S
C915 H919 0.950 . S
H916 C912 0.950 . S
C917 C915 1.390 . S
C917 C918 1.387 . S
C917 H920 0.950 . S
C918 C917 1.387 . S
C918 C921 1.387 1_455 S
H919 C915 0.950 . S
H920 C917 0.950 . S
C921 C912 1.390 . S
C921 H914 0.950 . S
C921 C918 1.387 1_655 S
C922 C923 1.386 . S
C922 H926 0.950 . S
C922 C931 1.390 . S
C923 C922 1.386 . S
C923 C925 1.389 1_545 S
H924 C931 0.950 . S
C925 C923 1.389 1_565 S
C925 C927 1.390 . S
C925 H929 0.950 . S
H926 C922 0.950 . S
C927 C925 1.390 . S
C927 C928 1.384 1_565 S
C927 H930 0.950 . S
C928 C927 1.384 1_545 S
C928 C931 1.391 . S
H929 C925 0.950 . S
H930 C927 0.950 . S
C931 C922 1.390 . S
C931 H924 0.950 . S
C931 C928 1.391 . S
C932 C933 1.371 1_565 S
C932 H936 0.950 . S
C932 C941 1.390 . S
C933 C932 1.371 1_545 S
C933 C935 1.404 . S
H934 C941 0.950 . S
C935 C933 1.404 . S
C935 C937 1.390 . S
C935 H939 0.950 . S
H936 C932 0.950 . S
C937 C935 1.390 . S
C937 C938 1.401 . S
C937 H940 0.950 . S
C938 C937 1.401 . S
C938 C941 1.374 1_545 S
H939 C935 0.950 . S
H940 C937 0.950 . S
C941 C932 1.390 . S
C941 H934 0.950 . S
C941 C938 1.374 1_565 S
C942 C943 1.387 1_655 S
C942 H946 0.950 . S
C942 C951 1.390 . S
C943 C942 1.387 1_455 S
C943 C945 1.387 . S
H944 C951 0.950 . S
C945 C943 1.387 . S
C945 C947 1.390 . S
C945 H949 0.950 . S
H946 C942 0.950 . S
C947 C945 1.390 . S
C947 C948 1.387 . S
C947 H950 0.950 . S
C948 C947 1.387 . S
C948 C951 1.387 1_455 S
H949 C945 0.950 . S
H950 C947 0.950 . S
C951 C942 1.390 . S
C951 H944 0.950 . S
C951 C948 1.387 1_655 S
C952 C953 1.371 1_565 S
C952 H956 0.950 . S
C952 C961 1.390 . S
C953 C952 1.371 1_545 S
C953 C955 1.404 . S
H954 C961 0.950 . S
C955 C953 1.404 . S
C955 C957 1.390 . S
C955 H959 0.950 . S
H956 C952 0.950 . S
C957 C955 1.390 . S
C957 C958 1.401 . S
C957 H960 0.950 . S
C958 C957 1.401 . S
C958 C961 1.374 1_545 S
H959 C955 0.950 . S
H960 C957 0.950 . S
C961 C952 1.390 . S
C961 H954 0.950 . S
C961 C958 1.374 1_565 S
C962 C963 1.387 . S
C962 H966 0.950 . S
C962 C971 1.390 . S
C963 C962 1.387 . S
C963 C965 1.387 1_455 S
H964 C971 0.950 . S
C965 C963 1.387 1_655 S
C965 C967 1.390 . S
C965 H969 0.950 . S
H966 C962 0.950 . S
C967 C965 1.390 . S
C967 C968 1.387 1_655 S
C967 H970 0.950 . S
C968 C967 1.387 1_455 S
C968 C971 1.387 . S
H969 C965 0.950 . S
H970 C967 0.950 . S
C971 C962 1.390 . S
C971 H964 0.950 . S
C971 C968 1.387 . S
C972 C973 1.388 . S
C972 H976 0.950 . S
C972 C981 1.390 . S
C973 C972 1.388 . S
C973 C975 1.386 1_545 S
H974 C981 0.950 . S
C975 C973 1.386 1_565 S
C975 C977 1.390 . S
C975 H979 0.950 . S
H976 C972 0.950 . S
C977 C975 1.390 . S
C977 C978 1.383 1_565 S
C977 H980 0.950 . S
C978 C977 1.383 1_545 S
C978 C981 1.392 . S
H979 C975 0.950 . S
H980 C977 0.950 . S
C981 C972 1.390 . S
C981 H974 0.950 . S
C981 C978 1.392 . S
C982 C983 1.387 . S
C982 H986 0.950 . S
C982 C991 1.390 . S
C983 C982 1.387 . S
C983 C985 1.387 1_455 S
H984 C991 0.950 . S
C985 C983 1.387 1_655 S
C985 C987 1.390 . S
C985 H989 0.950 . S
H986 C982 0.950 . S
C987 C985 1.390 . S
C987 C988 1.387 1_655 S
C987 H990 0.950 . S
C988 C987 1.387 1_455 S
C988 C991 1.387 . S
H989 C985 0.950 . S
H990 C987 0.950 . S
C991 C982 1.390 . S
C991 H984 0.950 . S
C991 C988 1.387 . S
C992 C993 1.389 1_565 S
C992 H996 0.950 . S
C992 C1001 1.390 . S
C993 C992 1.389 1_545 S
C993 C995 1.386 . S
H994 C1001 0.950 . S
C995 C993 1.386 . S
C995 C997 1.390 . S
C995 H999 0.950 . S
H996 C992 0.950 . S
C997 C995 1.390 . S
C997 C998 1.389 . S
C997 H1000 0.950 . S
C998 C997 1.389 . S
C998 C1001 1.386 1_545 S
H999 C995 0.950 . S
H1000 C997 0.950 . S
C1001 C992 1.390 . S
C1001 H994 0.950 . S
C1001 C998 1.386 1_565 S
C1002 C1003 1.387 1_655 S
C1002 H1006 0.950 . S
C1002 C1011 1.390 . S
C1003 C1002 1.387 1_455 S
C1003 C1005 1.387 . S
H1004 C1011 0.950 . S
C1005 C1003 1.387 . S
C1005 C1007 1.390 . S
C1005 H1009 0.950 . S
H1006 C1002 0.950 . S
C1007 C1005 1.390 . S
C1007 C1008 1.387 . S
C1007 H1010 0.950 . S
C1008 C1007 1.387 . S
C1008 C1011 1.387 1_455 S
H1009 C1005 0.950 . S
H1010 C1007 0.950 . S
C1011 C1002 1.390 . S
C1011 H1004 0.950 . S
C1011 C1008 1.387 1_655 S
C1012 C1013 1.386 . S
C1012 H1016 0.950 . S
C1012 C1021 1.390 . S
C1013 C1012 1.386 . S
C1013 C1015 1.389 1_554 S
H1014 C1021 0.950 . S
C1015 C1013 1.389 1_556 S
C1015 C1017 1.390 . S
C1015 H1019 0.950 . S
H1016 C1012 0.950 . S
C1017 C1015 1.390 . S
C1017 C1018 1.385 1_556 S
C1017 H1020 0.950 . S
C1018 C1017 1.385 1_554 S
C1018 C1021 1.390 . S
H1019 C1015 0.950 . S
H1020 C1017 0.950 . S
C1021 C1012 1.390 . S
C1021 H1014 0.950 . S
C1021 C1018 1.390 . S
C1022 C1023 1.372 1_556 S
C1022 H1026 0.950 . S
C1022 C1031 1.390 . S
C1023 C1022 1.372 1_554 S
C1023 C1025 1.403 . S
H1024 C1031 0.950 . S
C1025 C1023 1.403 . S
C1025 C1027 1.390 . S
C1025 H1029 0.950 . S
H1026 C1022 0.950 . S
C1027 C1025 1.390 . S
C1027 C1028 1.398 . S
C1027 H1030 0.950 . S
C1028 C1027 1.398 . S
C1028 C1031 1.377 1_554 S
H1029 C1025 0.950 . S
H1030 C1027 0.950 . S
C1031 C1022 1.390 . S
C1031 H1024 0.950 . S
C1031 C1028 1.377 1_556 S
C1032 C1033 1.389 1_556 S
C1032 H1036 0.950 . S
C1032 C1041 1.390 . S
C1033 C1032 1.389 1_554 S
C1033 C1035 1.386 . S
H1034 C1041 0.950 . S
C1035 C1033 1.386 . S
C1035 C1037 1.390 . S
C1035 H1039 0.950 . S
H1036 C1032 0.950 . S
C1037 C1035 1.390 . S
C1037 C1038 1.389 . S
C1037 H1040 0.950 . S
C1038 C1037 1.389 . S
C1038 C1041 1.386 1_554 S
H1039 C1035 0.950 . S
H1040 C1037 0.950 . S
C1041 C1032 1.390 . S
C1041 H1034 0.950 . S
C1041 C1038 1.386 1_556 S
C1042 C1043 1.389 1_556 S
C1042 H1046 0.950 . S
C1042 C1051 1.390 . S
C1043 C1042 1.389 1_554 S
C1043 C1045 1.386 . S
H1044 C1051 0.950 . S
C1045 C1043 1.386 . S
C1045 C1047 1.390 . S
C1045 H1049 0.950 . S
H1046 C1042 0.950 . S
C1047 C1045 1.390 . S
C1047 C1048 1.390 . S
C1047 H1050 0.950 . S
C1048 C1047 1.390 . S
C1048 C1051 1.385 1_554 S
H1049 C1045 0.950 . S
H1050 C1047 0.950 . S
C1051 C1042 1.390 . S
C1051 H1044 0.950 . S
C1051 C1048 1.385 1_556 S
C1052 C1053 1.373 1_556 S
C1052 H1056 0.950 . S
C1052 C1061 1.390 . S
C1053 C1052 1.373 1_554 S
C1053 C1055 1.402 . S
H1054 C1061 0.950 . S
C1055 C1053 1.402 . S
C1055 C1057 1.390 . S
C1055 H1059 0.950 . S
H1056 C1052 0.950 . S
C1057 C1055 1.390 . S
C1057 C1058 1.399 . S
C1057 H1060 0.950 . S
C1058 C1057 1.399 . S
C1058 C1061 1.376 1_554 S
H1059 C1055 0.950 . S
H1060 C1057 0.950 . S
C1061 C1052 1.390 . S
C1061 H1054 0.950 . S
C1061 C1058 1.376 1_556 S
C1062 C1063 1.374 1_556 S
C1062 H1066 0.950 . S
C1062 C1071 1.390 . S
C1063 C1062 1.374 1_554 S
C1063 C1065 1.401 . S
H1064 C1071 0.950 . S
C1065 C1063 1.401 . S
C1065 C1067 1.390 . S
C1065 H1069 0.950 . S
H1066 C1062 0.950 . S
C1067 C1065 1.390 . S
C1067 C1068 1.398 . S
C1067 H1070 0.950 . S
C1068 C1067 1.398 . S
C1068 C1071 1.377 1_554 S
H1069 C1065 0.950 . S
H1070 C1067 0.950 . S
C1071 C1062 1.390 . S
C1071 H1064 0.950 . S
C1071 C1068 1.377 1_556 S
C1072 C1073 1.372 1_556 S
C1072 H1076 0.950 . S
C1072 C1081 1.390 . S
C1073 C1072 1.372 1_554 S
C1073 C1075 1.403 . S
H1074 C1081 0.950 . S
C1075 C1073 1.403 . S
C1075 C1077 1.390 . S
C1075 H1079 0.950 . S
H1076 C1072 0.950 . S
C1077 C1075 1.390 . S
C1077 C1078 1.400 . S
C1077 H1080 0.950 . S
C1078 C1077 1.400 . S
C1078 C1081 1.375 1_554 S
H1079 C1075 0.950 . S
H1080 C1077 0.950 . S
C1081 C1072 1.390 . S
C1081 H1074 0.950 . S
C1081 C1078 1.375 1_556 S
C1082 C1083 1.389 1_556 S
C1082 H1086 0.950 . S
C1082 C1091 1.390 . S
C1083 C1082 1.389 1_554 S
C1083 C1085 1.386 . S
H1084 C1091 0.950 . S
C1085 C1083 1.386 . S
C1085 C1087 1.390 . S
C1085 H1089 0.950 . S
H1086 C1082 0.950 . S
C1087 C1085 1.390 . S
C1087 C1088 1.389 . S
C1087 H1090 0.950 . S
C1088 C1087 1.389 . S
C1088 C1091 1.386 1_554 S
H1089 C1085 0.950 . S
H1090 C1087 0.950 . S
C1091 C1082 1.390 . S
C1091 H1084 0.950 . S
C1091 C1088 1.386 1_556 S
C1092 C1093 1.387 . S
C1092 H1096 0.950 . S
C1092 C1101 1.390 . S
C1093 C1092 1.387 . S
C1093 C1095 1.387 . S
H1094 C1101 0.950 . S
C1095 C1093 1.387 . S
C1095 C1097 1.390 . S
C1095 H1099 0.950 . S
H1096 C1092 0.950 . S
C1097 C1095 1.390 . S
C1097 C1098 1.387 . S
C1097 H1100 0.950 . S
C1098 C1097 1.387 . S
C1098 C1101 1.387 . S
H1099 C1095 0.950 . S
H1100 C1097 0.950 . S
C1101 C1092 1.390 . S
C1101 H1094 0.950 . S
C1101 C1098 1.387 . S
C1102 C1103 1.387 . S
C1102 H1106 0.950 . S
C1102 C1111 1.390 . S
C1103 C1102 1.387 . S
C1103 C1105 1.387 . S
H1104 C1111 0.950 . S
C1105 C1103 1.387 . S
C1105 C1107 1.390 . S
C1105 H1109 0.950 . S
H1106 C1102 0.950 . S
C1107 C1105 1.390 . S
C1107 C1108 1.387 . S
C1107 H1110 0.950 . S
C1108 C1107 1.387 . S
C1108 C1111 1.387 . S
H1109 C1105 0.950 . S
H1110 C1107 0.950 . S
C1111 C1102 1.390 . S
C1111 H1104 0.950 . S
C1111 C1108 1.387 . S
C1112 C1113 1.387 . S
C1112 H1116 0.950 . S
C1112 C1121 1.390 . S
C1113 C1112 1.387 . S
C1113 C1115 1.387 . S
H1114 C1121 0.950 . S
C1115 C1113 1.387 . S
C1115 C1117 1.390 . S
C1115 H1119 0.950 . S
H1116 C1112 0.950 . S
C1117 C1115 1.390 . S
C1117 C1118 1.387 . S
C1117 H1120 0.950 . S
C1118 C1117 1.387 . S
C1118 C1121 1.387 . S
H1119 C1115 0.950 . S
H1120 C1117 0.950 . S
C1121 C1112 1.390 . S
C1121 H1114 0.950 . S
C1121 C1118 1.387 . S
C1122 C1123 1.387 . S
C1122 H1126 0.950 . S
C1122 C1131 1.390 . S
C1123 C1122 1.387 . S
C1123 C1125 1.387 . S
H1124 C1131 0.950 . S
C1125 C1123 1.387 . S
C1125 C1127 1.390 . S
C1125 H1129 0.950 . S
H1126 C1122 0.950 . S
C1127 C1125 1.390 . S
C1127 C1128 1.387 . S
C1127 H1130 0.950 . S
C1128 C1127 1.387 . S
C1128 C1131 1.387 . S
H1129 C1125 0.950 . S
H1130 C1127 0.950 . S
C1131 C1122 1.390 . S
C1131 H1124 0.950 . S
C1131 C1128 1.387 . S
C1132 C1133 1.387 . S
C1132 H1136 0.950 . S
C1132 C1141 1.390 . S
C1133 C1132 1.387 . S
C1133 C1135 1.387 . S
H1134 C1141 0.950 . S
C1135 C1133 1.387 . S
C1135 C1137 1.390 . S
C1135 H1139 0.950 . S
H1136 C1132 0.950 . S
C1137 C1135 1.390 . S
C1137 C1138 1.387 . S
C1137 H1140 0.950 . S
C1138 C1137 1.387 . S
C1138 C1141 1.387 . S
H1139 C1135 0.950 . S
H1140 C1137 0.950 . S
C1141 C1132 1.390 . S
C1141 H1134 0.950 . S
C1141 C1138 1.387 . S
C1142 C1143 1.387 . S
C1142 H1146 0.950 . S
C1142 C1151 1.390 . S
C1143 C1142 1.387 . S
C1143 C1145 1.387 . S
H1144 C1151 0.950 . S
C1145 C1143 1.387 . S
C1145 C1147 1.390 . S
C1145 H1149 0.950 . S
H1146 C1142 0.950 . S
C1147 C1145 1.390 . S
C1147 C1148 1.387 . S
C1147 H1150 0.950 . S
C1148 C1147 1.387 . S
C1148 C1151 1.387 . S
H1149 C1145 0.950 . S
H1150 C1147 0.950 . S
C1151 C1142 1.390 . S
C1151 H1144 0.950 . S
C1151 C1148 1.387 . S
C1152 C1153 1.387 . S
C1152 H1156 0.950 . S
C1152 C1161 1.390 . S
C1153 C1152 1.387 . S
C1153 C1155 1.387 . S
H1154 C1161 0.950 . S
C1155 C1153 1.387 . S
C1155 C1157 1.390 . S
C1155 H1159 0.950 . S
H1156 C1152 0.950 . S
C1157 C1155 1.390 . S
C1157 C1158 1.387 . S
C1157 H1160 0.950 . S
C1158 C1157 1.387 . S
C1158 C1161 1.387 . S
H1159 C1155 0.950 . S
H1160 C1157 0.950 . S
C1161 C1152 1.390 . S
C1161 H1154 0.950 . S
C1161 C1158 1.387 . S
C1162 C1163 1.387 . S
C1162 H1166 0.950 . S
C1162 C1171 1.390 . S
C1163 C1162 1.387 . S
C1163 C1165 1.387 . S
H1164 C1171 0.950 . S
C1165 C1163 1.387 . S
C1165 C1167 1.390 . S
C1165 H1169 0.950 . S
H1166 C1162 0.950 . S
C1167 C1165 1.390 . S
C1167 C1168 1.387 . S
C1167 H1170 0.950 . S
C1168 C1167 1.387 . S
C1168 C1171 1.387 . S
H1169 C1165 0.950 . S
H1170 C1167 0.950 . S
C1171 C1162 1.390 . S
C1171 H1164 0.950 . S
C1171 C1168 1.387 . S
C1172 C1173 1.387 . S
C1172 H1176 0.950 . S
C1172 C1181 1.390 . S
C1173 C1172 1.387 . S
C1173 C1175 1.387 . S
H1174 C1181 0.950 . S
C1175 C1173 1.387 . S
C1175 C1177 1.390 . S
C1175 H1179 0.950 . S
H1176 C1172 0.950 . S
C1177 C1175 1.390 . S
C1177 C1178 1.387 . S
C1177 H1180 0.950 . S
C1178 C1177 1.387 . S
C1178 C1181 1.387 . S
H1179 C1175 0.950 . S
H1180 C1177 0.950 . S
C1181 C1172 1.390 . S
C1181 H1174 0.950 . S
C1181 C1178 1.387 . S
C1182 C1183 1.387 . S
C1182 H1186 0.950 . S
C1182 C1191 1.390 . S
C1183 C1182 1.387 . S
C1183 C1185 1.387 . S
H1184 C1191 0.950 . S
C1185 C1183 1.387 . S
C1185 C1187 1.390 . S
C1185 H1189 0.950 . S
H1186 C1182 0.950 . S
C1187 C1185 1.390 . S
C1187 C1188 1.387 . S
C1187 H1190 0.950 . S
C1188 C1187 1.387 . S
C1188 C1191 1.387 . S
H1189 C1185 0.950 . S
H1190 C1187 0.950 . S
C1191 C1182 1.390 . S
C1191 H1184 0.950 . S
C1191 C1188 1.387 . S
C1192 C1193 1.387 . S
C1192 H1196 0.950 . S
C1192 C1201 1.390 . S
C1193 C1192 1.387 . S
C1193 C1195 1.387 . S
H1194 C1201 0.950 . S
C1195 C1193 1.387 . S
C1195 C1197 1.390 . S
C1195 H1199 0.950 . S
H1196 C1192 0.950 . S
C1197 C1195 1.390 . S
C1197 C1198 1.387 . S
C1197 H1200 0.950 . S
C1198 C1197 1.387 . S
C1198 C1201 1.387 . S
H1199 C1195 0.950 . S
H1200 C1197 0.950 . S
C1201 C1192 1.390 . S
C1201 H1194 0.950 . S
C1201 C1198 1.387 . S
C1202 C1203 1.387 . S
C1202 H1206 0.950 . S
C1202 C1211 1.390 . S
C1203 C1202 1.387 . S
C1203 C1205 1.387 . S
H1204 C1211 0.950 . S
C1205 C1203 1.387 . S
C1205 C1207 1.390 . S
C1205 H1209 0.950 . S
H1206 C1202 0.950 . S
C1207 C1205 1.390 . S
C1207 C1208 1.387 . S
C1207 H1210 0.950 . S
C1208 C1207 1.387 . S
C1208 C1211 1.387 . S
H1209 C1205 0.950 . S
H1210 C1207 0.950 . S
C1211 C1202 1.390 . S
C1211 H1204 0.950 . S
C1211 C1208 1.387 . S
C1212 C1213 1.387 . S
C1212 H1216 0.950 . S
C1212 C1221 1.390 . S
C1213 C1212 1.387 . S
C1213 C1215 1.387 . S
H1214 C1221 0.950 . S
C1215 C1213 1.387 . S
C1215 C1217 1.390 . S
C1215 H1219 0.950 . S
H1216 C1212 0.950 . S
C1217 C1215 1.390 . S
C1217 C1218 1.387 . S
C1217 H1220 0.950 . S
C1218 C1217 1.387 . S
C1218 C1221 1.387 . S
H1219 C1215 0.950 . S
H1220 C1217 0.950 . S
C1221 C1212 1.390 . S
C1221 H1214 0.950 . S
C1221 C1218 1.387 . S
C1222 C1223 1.387 . S
C1222 H1226 0.950 . S
C1222 C1231 1.390 . S
C1223 C1222 1.387 . S
C1223 C1225 1.387 . S
H1224 C1231 0.950 . S
C1225 C1223 1.387 . S
C1225 C1227 1.390 . S
C1225 H1229 0.950 . S
H1226 C1222 0.950 . S
C1227 C1225 1.390 . S
C1227 C1228 1.387 . S
C1227 H1230 0.950 . S
C1228 C1227 1.387 . S
C1228 C1231 1.387 . S
H1229 C1225 0.950 . S
H1230 C1227 0.950 . S
C1231 C1222 1.390 . S
C1231 H1224 0.950 . S
C1231 C1228 1.387 . S
C1232 C1233 1.387 . S
C1232 H1236 0.950 . S
C1232 C1241 1.390 . S
C1233 C1232 1.387 . S
C1233 C1235 1.387 . S
H1234 C1241 0.950 . S
C1235 C1233 1.387 . S
C1235 C1237 1.390 . S
C1235 H1239 0.950 . S
H1236 C1232 0.950 . S
C1237 C1235 1.390 . S
C1237 C1238 1.387 . S
C1237 H1240 0.950 . S
C1238 C1237 1.387 . S
C1238 C1241 1.387 . S
H1239 C1235 0.950 . S
H1240 C1237 0.950 . S
C1241 C1232 1.390 . S
C1241 H1234 0.950 . S
C1241 C1238 1.387 . S
C1242 C1243 1.387 . S
C1242 H1246 0.950 . S
C1242 C1251 1.390 . S
C1243 C1242 1.387 . S
C1243 C1245 1.387 . S
H1244 C1251 0.950 . S
C1245 C1243 1.387 . S
C1245 C1247 1.390 . S
C1245 H1249 0.950 . S
H1246 C1242 0.950 . S
C1247 C1245 1.390 . S
C1247 C1248 1.387 . S
C1247 H1250 0.950 . S
C1248 C1247 1.387 . S
C1248 C1251 1.387 . S
H1249 C1245 0.950 . S
H1250 C1247 0.950 . S
C1251 C1242 1.390 . S
C1251 H1244 0.950 . S
C1251 C1248 1.387 . S
C1252 C1253 1.387 . S
C1252 H1256 0.950 . S
C1252 C1261 1.390 . S
C1253 C1252 1.387 . S
C1253 C1255 1.387 . S
H1254 C1261 0.950 . S
C1255 C1253 1.387 . S
C1255 C1257 1.390 . S
C1255 H1259 0.950 . S
H1256 C1252 0.950 . S
C1257 C1255 1.390 . S
C1257 C1258 1.387 . S
C1257 H1260 0.950 . S
C1258 C1257 1.387 . S
C1258 C1261 1.387 . S
H1259 C1255 0.950 . S
H1260 C1257 0.950 . S
C1261 C1252 1.390 . S
C1261 H1254 0.950 . S
C1261 C1258 1.387 . S
C1262 C1263 1.387 . S
C1262 H1266 0.950 . S
C1262 C1271 1.390 . S
C1263 C1262 1.387 . S
C1263 C1265 1.387 . S
H1264 C1271 0.950 . S
C1265 C1263 1.387 . S
C1265 C1267 1.390 . S
C1265 H1269 0.950 . S
H1266 C1262 0.950 . S
C1267 C1265 1.390 . S
C1267 C1268 1.387 . S
C1267 H1270 0.950 . S
C1268 C1267 1.387 . S
C1268 C1271 1.387 . S
H1269 C1265 0.950 . S
H1270 C1267 0.950 . S
C1271 C1262 1.390 . S
C1271 H1264 0.950 . S
C1271 C1268 1.387 . S
C1272 C1273 1.387 . S
C1272 H1276 0.950 . S
C1272 C1281 1.390 . S
C1273 C1272 1.387 . S
C1273 C1275 1.387 . S
H1274 C1281 0.950 . S
C1275 C1273 1.387 . S
C1275 C1277 1.390 . S
C1275 H1279 0.950 . S
H1276 C1272 0.950 . S
C1277 C1275 1.390 . S
C1277 C1278 1.387 . S
C1277 H1280 0.950 . S
C1278 C1277 1.387 . S
C1278 C1281 1.387 . S
H1279 C1275 0.950 . S
H1280 C1277 0.950 . S
C1281 C1272 1.390 . S
C1281 H1274 0.950 . S
C1281 C1278 1.387 . S
C1282 C1283 1.387 . S
C1282 H1286 0.950 . S
C1282 C1291 1.390 . S
C1283 C1282 1.387 . S
C1283 C1285 1.387 . S
H1284 C1291 0.950 . S
C1285 C1283 1.387 . S
C1285 C1287 1.390 . S
C1285 H1289 0.950 . S
H1286 C1282 0.950 . S
C1287 C1285 1.390 . S
C1287 C1288 1.387 . S
C1287 H1290 0.950 . S
C1288 C1287 1.387 . S
C1288 C1291 1.387 . S
H1289 C1285 0.950 . S
H1290 C1287 0.950 . S
C1291 C1282 1.390 . S
C1291 H1284 0.950 . S
C1291 C1288 1.387 . S
C1292 C1293 1.387 . S
C1292 H1296 0.950 . S
C1292 C1301 1.390 . S
C1293 C1292 1.387 . S
C1293 C1295 1.387 . S
H1294 C1301 0.950 . S
C1295 C1293 1.387 . S
C1295 C1297 1.390 . S
C1295 H1299 0.950 . S
H1296 C1292 0.950 . S
C1297 C1295 1.390 . S
C1297 C1298 1.387 . S
C1297 H1300 0.950 . S
C1298 C1297 1.387 . S
C1298 C1301 1.387 . S
H1299 C1295 0.950 . S
H1300 C1297 0.950 . S
C1301 C1292 1.390 . S
C1301 H1294 0.950 . S
C1301 C1298 1.387 . S
C1302 C1303 1.387 . S
C1302 H1306 0.950 . S
C1302 C1311 1.390 . S
C1303 C1302 1.387 . S
C1303 C1305 1.387 . S
H1304 C1311 0.950 . S
C1305 C1303 1.387 . S
C1305 C1307 1.390 . S
C1305 H1309 0.950 . S
H1306 C1302 0.950 . S
C1307 C1305 1.390 . S
C1307 C1308 1.387 . S
C1307 H1310 0.950 . S
C1308 C1307 1.387 . S
C1308 C1311 1.387 . S
H1309 C1305 0.950 . S
H1310 C1307 0.950 . S
C1311 C1302 1.390 . S
C1311 H1304 0.950 . S
C1311 C1308 1.387 . S
C1312 C1313 1.387 . S
C1312 H1316 0.950 . S
C1312 C1321 1.390 . S
C1313 C1312 1.387 . S
C1313 C1315 1.387 . S
H1314 C1321 0.950 . S
C1315 C1313 1.387 . S
C1315 C1317 1.390 . S
C1315 H1319 0.950 . S
H1316 C1312 0.950 . S
C1317 C1315 1.390 . S
C1317 C1318 1.387 . S
C1317 H1320 0.950 . S
C1318 C1317 1.387 . S
C1318 C1321 1.387 . S
H1319 C1315 0.950 . S
H1320 C1317 0.950 . S
C1321 C1312 1.390 . S
C1321 H1314 0.950 . S
C1321 C1318 1.387 . S
C1322 C1323 1.387 . S
C1322 H1326 0.950 . S
C1322 C1331 1.390 . S
C1323 C1322 1.387 . S
C1323 C1325 1.387 . S
H1324 C1331 0.950 . S
C1325 C1323 1.387 . S
C1325 C1327 1.390 . S
C1325 H1329 0.950 . S
H1326 C1322 0.950 . S
C1327 C1325 1.390 . S
C1327 C1328 1.387 . S
C1327 H1330 0.950 . S
C1328 C1327 1.387 . S
C1328 C1331 1.387 . S
H1329 C1325 0.950 . S
H1330 C1327 0.950 . S
C1331 C1322 1.390 . S
C1331 H1324 0.950 . S
C1331 C1328 1.387 . S
C618 C318 1.390 . S
C613 N300 1.351 . S
C623 N278 1.508 . S
C628 C316 1.544 . S
C638 C317 1.544 . S
C633 N265 1.510 . S
C643 N287 1.348 . S
C648 C319 1.389 . S
C658 C363 1.401 . S
C653 N213 1.359 . S
C668 C423 1.360 . S
C663 N226 1.316 . S
C673 N239 1.359 . S
C678 C362 1.409 . S
C688 C422 1.509 . S
C683 N252 1.478 . S
C693 N161 1.362 . S
C698 C364 1.402 . S
C708 C420 1.509 . S
C703 N174 1.475 . S
C713 N187 1.363 . S
C718 C365 1.410 . S
C723 N200 1.319 . S
C728 C421 1.361 . S
C738 C471 1.390 . S
C733 N144 1.352 . S
C743 N122 1.510 . S
C748 C470 1.544 . S
C753 N109 1.510 . S
C758 C472 1.544 . S
C768 C473 1.390 . S
C763 N131 1.351 1_554 S
C773 N57 1.359 . S
C778 C514 1.401 . S
C783 N70 1.319 . S
C788 C573 1.361 . S
C793 N83 1.359 . S
C798 C512 1.409 . S
C803 N96 1.478 1_545 S
C808 C572 1.509 . S
C818 C513 1.402 . S
C813 N5 1.362 . S
C828 C570 1.509 . S
C823 N18 1.478 . S
C833 N31 1.359 . S
C838 C515 1.409 . S
C848 C571 1.360 . S
C843 N44 1.316 . S
C858 C315 1.392 . S
C853 N2 1.320 . S
C863 N15 1.496 . S
C868 C321 1.552 . S
C873 N27 1.594 . S
C878 C313 1.599 . S
C883 N41 1.323 1_545 S
C888 C320 1.401 . S
C893 N54 1.320 . S
C898 C312 1.392 . S
C908 C322 1.401 . S
C903 N67 1.323 . S
C913 N79 1.595 . S
C918 C314 1.599 . S
C928 C323 1.552 . S
C923 N93 1.495 1_545 S
C938 C369 1.575 . S
C933 N40 1.567 1_545 S
C943 N1 1.543 . S
C948 C412 1.547 . S
C958 C367 1.599 . S
C953 N14 1.594 . S
C968 C414 1.360 . S
C963 N28 1.283 . S
C973 N66 1.568 . S
C978 C368 1.575 . S
C988 C413 1.360 . S
C983 N80 1.282 . S
C998 C366 1.599 . S
C993 N92 1.592 1_545 S
C1008 C415 1.547 . S
C1003 N53 1.543 . S
C1018 C419 1.571 . S
C1013 N106 1.514 . S
C1023 N119 1.514 1_554 S
C1028 C418 1.571 . S
C1038 C370 1.724 . S
C1033 N105 1.719 . S
C1048 C417 1.670 . S
C1043 N135 1.667 1_554 S
C1053 N145 1.359 . S
C1058 C373 1.450 . S
C1063 N148 1.666 . S
C1068 C416 1.670 . S
C1078 C372 1.724 . S
C1073 N118 1.718 1_554 S
C1088 C371 1.449 . S
C1083 N132 1.354 1_554 S
C1098 C465 1.392 . S
C1093 N158 1.320 . S
C1108 C468 1.552 . S
C1103 N171 1.498 . S
C1113 N183 1.595 . S
C1118 C464 1.599 . S
C1128 C466 1.401 . S
C1123 N197 1.323 . S
C1138 C462 1.392 . S
C1133 N210 1.320 . S
C1143 N223 1.328 . S
C1148 C467 1.402 . S
C1153 N235 1.595 . S
C1158 C463 1.599 . S
C1168 C469 1.552 . S
C1163 N249 1.498 . S
C1178 C523 1.575 . S
C1173 N196 1.569 . S
C1183 N157 1.542 . S
C1188 C562 1.546 . S
C1198 C522 1.599 . S
C1193 N170 1.592 . S
C1208 C564 1.360 . S
C1203 N184 1.283 . S
C1218 C521 1.576 . S
C1213 N222 1.569 . S
C1223 N236 1.283 . S
C1228 C563 1.360 . S
C1238 C520 1.599 . S
C1233 N248 1.592 . S
C1248 C565 1.547 . S
C1243 N209 1.543 . S
C1258 C569 1.571 . S
C1253 N262 1.511 . S
C1263 N275 1.514 . S
C1268 C568 1.571 . S
C1278 C516 1.724 . S
C1273 N261 1.719 . S
C1283 N291 1.667 . S
C1288 C567 1.670 . S
C1298 C519 1.450 . S
C1293 N301 1.358 . S
C1308 C566 1.670 . S
C1303 N304 1.667 . S
C1318 C517 1.724 . S
C1313 N274 1.719 . S
C1323 N288 1.358 . S
C1328 C518 1.450 . S
