# Generated by pormake.
# Topology ctn, (3,4)-cn, num edge types: 1
# Building blocks:
#     Node 0, Type 0, BuildingBlock: CUQRIR_clean_linker_1, # of connection points: 3
#     Node 1, Type 0, BuildingBlock: CUQRIR_clean_linker_1, # of connection points: 3
#     Node 2, Type 0, BuildingBlock: CUQRIR_clean_linker_1, # of connection points: 3
#     Node 3, Type 0, BuildingBlock: CUQRIR_clean_linker_1, # of connection points: 3
#     Node 4, Type 0, BuildingBlock: CUQRIR_clean_linker_1, # of connection points: 3
#     Node 5, Type 0, BuildingBlock: CUQRIR_clean_linker_1, # of connection points: 3
#     Node 6, Type 0, BuildingBlock: CUQRIR_clean_linker_1, # of connection points: 3
#     Node 7, Type 0, BuildingBlock: CUQRIR_clean_linker_1, # of connection points: 3
#     Node 8, Type 0, BuildingBlock: CUQRIR_clean_linker_1, # of connection points: 3
#     Node 9, Type 0, BuildingBlock: CUQRIR_clean_linker_1, # of connection points: 3
#     Node 10, Type 0, BuildingBlock: CUQRIR_clean_linker_1, # of connection points: 3
#     Node 11, Type 0, BuildingBlock: CUQRIR_clean_linker_1, # of connection points: 3
#     Node 12, Type 0, BuildingBlock: CUQRIR_clean_linker_1, # of connection points: 3
#     Node 13, Type 0, BuildingBlock: CUQRIR_clean_linker_1, # of connection points: 3
#     Node 14, Type 0, BuildingBlock: CUQRIR_clean_linker_1, # of connection points: 3
#     Node 15, Type 0, BuildingBlock: CUQRIR_clean_linker_1, # of connection points: 3
#     Node 16, Type 1, BuildingBlock: AZAVOO_clean_sbu_0, # of connection points: 4
#     Node 17, Type 1, BuildingBlock: AZAVOO_clean_sbu_0, # of connection points: 4
#     Node 18, Type 1, BuildingBlock: AZAVOO_clean_sbu_0, # of connection points: 4
#     Node 19, Type 1, BuildingBlock: AZAVOO_clean_sbu_0, # of connection points: 4
#     Node 20, Type 1, BuildingBlock: AZAVOO_clean_sbu_0, # of connection points: 4
#     Node 21, Type 1, BuildingBlock: AZAVOO_clean_sbu_0, # of connection points: 4
#     Node 22, Type 1, BuildingBlock: AZAVOO_clean_sbu_0, # of connection points: 4
#     Node 23, Type 1, BuildingBlock: AZAVOO_clean_sbu_0, # of connection points: 4
#     Node 24, Type 1, BuildingBlock: AZAVOO_clean_sbu_0, # of connection points: 4
#     Node 25, Type 1, BuildingBlock: AZAVOO_clean_sbu_0, # of connection points: 4
#     Node 26, Type 1, BuildingBlock: AZAVOO_clean_sbu_0, # of connection points: 4
#     Node 27, Type 1, BuildingBlock: AZAVOO_clean_sbu_0, # of connection points: 4
#     Edge 28, Type (0, 1), BuildingBlock: XIVTED_clean_linker_0, # of connection points: 2
#     Edge 29, Type (0, 1), BuildingBlock: XIVTED_clean_linker_0, # of connection points: 2
#     Edge 30, Type (0, 1), BuildingBlock: XIVTED_clean_linker_0, # of connection points: 2
#     Edge 31, Type (0, 1), BuildingBlock: XIVTED_clean_linker_0, # of connection points: 2
#     Edge 32, Type (0, 1), BuildingBlock: XIVTED_clean_linker_0, # of connection points: 2
#     Edge 33, Type (0, 1), BuildingBlock: XIVTED_clean_linker_0, # of connection points: 2
#     Edge 34, Type (0, 1), BuildingBlock: XIVTED_clean_linker_0, # of connection points: 2
#     Edge 35, Type (0, 1), BuildingBlock: XIVTED_clean_linker_0, # of connection points: 2
#     Edge 36, Type (0, 1), BuildingBlock: XIVTED_clean_linker_0, # of connection points: 2
#     Edge 37, Type (0, 1), BuildingBlock: XIVTED_clean_linker_0, # of connection points: 2
#     Edge 38, Type (0, 1), BuildingBlock: XIVTED_clean_linker_0, # of connection points: 2
#     Edge 39, Type (0, 1), BuildingBlock: XIVTED_clean_linker_0, # of connection points: 2
#     Edge 40, Type (0, 1), BuildingBlock: XIVTED_clean_linker_0, # of connection points: 2
#     Edge 41, Type (0, 1), BuildingBlock: XIVTED_clean_linker_0, # of connection points: 2
#     Edge 42, Type (0, 1), BuildingBlock: XIVTED_clean_linker_0, # of connection points: 2
#     Edge 43, Type (0, 1), BuildingBlock: XIVTED_clean_linker_0, # of connection points: 2
#     Edge 44, Type (0, 1), BuildingBlock: XIVTED_clean_linker_0, # of connection points: 2
#     Edge 45, Type (0, 1), BuildingBlock: XIVTED_clean_linker_0, # of connection points: 2
#     Edge 46, Type (0, 1), BuildingBlock: XIVTED_clean_linker_0, # of connection points: 2
#     Edge 47, Type (0, 1), BuildingBlock: XIVTED_clean_linker_0, # of connection points: 2
#     Edge 48, Type (0, 1), BuildingBlock: XIVTED_clean_linker_0, # of connection points: 2
#     Edge 49, Type (0, 1), BuildingBlock: XIVTED_clean_linker_0, # of connection points: 2
#     Edge 50, Type (0, 1), BuildingBlock: XIVTED_clean_linker_0, # of connection points: 2
#     Edge 51, Type (0, 1), BuildingBlock: XIVTED_clean_linker_0, # of connection points: 2
#     Edge 52, Type (0, 1), BuildingBlock: XIVTED_clean_linker_0, # of connection points: 2
#     Edge 53, Type (0, 1), BuildingBlock: XIVTED_clean_linker_0, # of connection points: 2
#     Edge 54, Type (0, 1), BuildingBlock: XIVTED_clean_linker_0, # of connection points: 2
#     Edge 55, Type (0, 1), BuildingBlock: XIVTED_clean_linker_0, # of connection points: 2
#     Edge 56, Type (0, 1), BuildingBlock: XIVTED_clean_linker_0, # of connection points: 2
#     Edge 57, Type (0, 1), BuildingBlock: XIVTED_clean_linker_0, # of connection points: 2
#     Edge 58, Type (0, 1), BuildingBlock: XIVTED_clean_linker_0, # of connection points: 2
#     Edge 59, Type (0, 1), BuildingBlock: XIVTED_clean_linker_0, # of connection points: 2
#     Edge 60, Type (0, 1), BuildingBlock: XIVTED_clean_linker_0, # of connection points: 2
#     Edge 61, Type (0, 1), BuildingBlock: XIVTED_clean_linker_0, # of connection points: 2
#     Edge 62, Type (0, 1), BuildingBlock: XIVTED_clean_linker_0, # of connection points: 2
#     Edge 63, Type (0, 1), BuildingBlock: XIVTED_clean_linker_0, # of connection points: 2
#     Edge 64, Type (0, 1), BuildingBlock: XIVTED_clean_linker_0, # of connection points: 2
#     Edge 65, Type (0, 1), BuildingBlock: XIVTED_clean_linker_0, # of connection points: 2
#     Edge 66, Type (0, 1), BuildingBlock: XIVTED_clean_linker_0, # of connection points: 2
#     Edge 67, Type (0, 1), BuildingBlock: XIVTED_clean_linker_0, # of connection points: 2
#     Edge 68, Type (0, 1), BuildingBlock: XIVTED_clean_linker_0, # of connection points: 2
#     Edge 69, Type (0, 1), BuildingBlock: XIVTED_clean_linker_0, # of connection points: 2
#     Edge 70, Type (0, 1), BuildingBlock: XIVTED_clean_linker_0, # of connection points: 2
#     Edge 71, Type (0, 1), BuildingBlock: XIVTED_clean_linker_0, # of connection points: 2
#     Edge 72, Type (0, 1), BuildingBlock: XIVTED_clean_linker_0, # of connection points: 2
#     Edge 73, Type (0, 1), BuildingBlock: XIVTED_clean_linker_0, # of connection points: 2
#     Edge 74, Type (0, 1), BuildingBlock: XIVTED_clean_linker_0, # of connection points: 2
#     Edge 75, Type (0, 1), BuildingBlock: XIVTED_clean_linker_0, # of connection points: 2
# Relax obj value: 0.080
# Max RMSD: 0.208
# Mean RMSD: 0.133
data_MOF--net-ctn--node1-AZAVOO_clean_sbu_0--node2-CUQRIR_clean_linker_1--edge1-XIVTED_clean_linker_0
_symmetry_space_group_name_H-M    P1
_symmetry_Int_Tables_number       1
_symmetry_cell_setting            triclinic
loop_
_symmetry_equiv_pos_as_xyz
'x, y, z'
_cell_length_a     51.315934
_cell_length_b     48.639867
_cell_length_c     49.881501
_cell_angle_alpha  97.002616
_cell_angle_beta   91.752495
_cell_angle_gamma 95.972092
loop_
_atom_site_label
_atom_site_type_symbol
_atom_site_fract_x
_atom_site_fract_y
_atom_site_fract_z
_atom_type_partial_charge
C0 C 0.03297 0.97642 0.0433 0.0
N1 N 0.04683 0.98568 0.0229 0.0
N2 N 0.00871 0.98499 0.04311 0.0
C3 C 0.04415 0.96182 0.06524 0.0
C4 C 0.00829 0.99925 0.02142 0.0
N5 N 0.03151 0.99991 0.00912 0.0
C6 C 0.98612 0.0153 0.014 0.0
H7 H 0.02917 0.94624 0.07177 0.0
H8 H 0.05045 0.97745 0.08297 0.0
H9 H 0.06128 0.95113 0.05843 0.0
H10 H 0.9917 0.03787 0.02036 0.0
H11 H 0.96784 0.00852 0.0238 0.0
H12 H 0.98236 0.01227 0.99177 0.0
C13 C 0.2972 0.74921 0.2544 0.0
N14 N 0.30723 0.73471 0.27303 0.0
N15 N 0.31575 0.76831 0.24699 0.0
C16 C 0.27003 0.74267 0.24126 0.0
C17 C 0.33763 0.76458 0.26137 0.0
N18 N 0.33252 0.74399 0.27721 0.0
C19 C 0.36356 0.78188 0.2606 0.0
H20 H 0.26367 0.71998 0.23921 0.0
H21 H 0.26901 0.74964 0.22094 0.0
H22 H 0.25609 0.75355 0.25418 0.0
H23 H 0.37391 0.78517 0.28078 0.0
H24 H 0.36084 0.80238 0.25392 0.0
H25 H 0.37597 0.77082 0.24597 0.0
C26 C 0.97481 0.49774 0.0976 0.0
N27 N 0.99197 0.47824 0.09634 0.0
N28 N 0.95813 0.49339 0.07554 0.0
C29 C 0.97558 0.52232 0.1192 0.0
C30 C 0.96583 0.4707 0.06072 0.0
N31 N 0.98657 0.46169 0.07317 0.0
C32 C 0.95185 0.45611 0.03511 0.0
H33 H 0.96409 0.51606 0.13637 0.0
H34 H 0.96689 0.53993 0.11146 0.0
H35 H 0.99602 0.52941 0.12677 0.0
H36 H 0.96178 0.46369 0.01754 0.0
H37 H 0.93106 0.46043 0.03405 0.0
H38 H 0.95255 0.43325 0.03364 0.0
C39 C 0.67947 0.79981 0.22548 0.0
N40 N 0.7001 0.81029 0.21217 0.0
N41 N 0.6734 0.81877 0.24586 0.0
C42 C 0.66643 0.7704 0.21997 0.0
C43 C 0.691 0.84123 0.24435 0.0
N44 N 0.70709 0.83621 0.22371 0.0
C45 C 0.69434 0.8669 0.26486 0.0
H46 H 0.66826 0.76166 0.19859 0.0
H47 H 0.64537 0.76951 0.22448 0.0
H48 H 0.67593 0.7573 0.23326 0.0
H49 H 0.71373 0.8683 0.27571 0.0
H50 H 0.67866 0.86681 0.27966 0.0
H51 H 0.69392 0.88575 0.25448 0.0
C52 C 0.03729 0.98374 0.49632 0.0
N53 N 0.05977 0.98985 0.51189 0.0
N54 N 0.03683 1.00049 0.47657 0.0
C55 C 0.01622 0.96067 0.49992 0.0
C56 C 0.05996 0.01686 0.4805 0.0
N57 N 0.07404 0.01025 0.50177 0.0
C58 C 0.06923 0.03853 0.46281 0.0
H59 H 0.02432 0.94033 0.49613 0.0
H60 H 0.9988 0.96061 0.48622 0.0
H61 H 0.00982 0.96301 0.52102 0.0
H62 H 0.06195 0.0321 0.44157 0.0
H63 H 0.09094 0.04235 0.4635 0.0
H64 H 0.06132 0.05834 0.47014 0.0
C65 C 0.17587 0.70299 0.78665 0.0
N66 N 0.19736 0.69523 0.79898 0.0
N67 N 0.17542 0.69493 0.75963 0.0
C68 C 0.15579 0.71925 0.80097 0.0
C69 C 0.19745 0.68206 0.75594 0.0
N70 N 0.21087 0.68245 0.77981 0.0
C71 C 0.20674 0.67049 0.72895 0.0
H72 H 0.14489 0.70608 0.81445 0.0
H73 H 0.1412 0.72575 0.78691 0.0
H74 H 0.16575 0.73791 0.8137 0.0
H75 H 0.22146 0.68616 0.72204 0.0
H76 H 0.19056 0.66571 0.71337 0.0
H77 H 0.21632 0.65134 0.73081 0.0
C78 C 0.94912 0.49845 0.45264 0.0
N79 N 0.96445 0.52281 0.45214 0.0
N80 N 0.92871 0.50224 0.46874 0.0
C81 C 0.95298 0.47137 0.43594 0.0
C82 C 0.93209 0.52975 0.47799 0.0
N83 N 0.95359 0.54239 0.46756 0.0
C84 C 0.91595 0.54361 0.49936 0.0
H85 H 0.93409 0.45795 0.43175 0.0
H86 H 0.96652 0.46012 0.44724 0.0
H87 H 0.96175 0.47515 0.41648 0.0
H88 H 0.90692 0.52837 0.51211 0.0
H89 H 0.90004 0.55298 0.48937 0.0
H90 H 0.92813 0.5604 0.51261 0.0
C91 C 0.79242 0.79069 0.81374 0.0
N92 N 0.81338 0.77596 0.81029 0.0
N93 N 0.79523 0.81341 0.80053 0.0
C94 C 0.76895 0.78249 0.8296 0.0
C95 C 0.81881 0.81227 0.78923 0.0
N96 N 0.83015 0.78975 0.79551 0.0
C97 C 0.83036 0.83249 0.77105 0.0
H98 H 0.75666 0.76481 0.81768 0.0
H99 H 0.75666 0.79974 0.8341 0.0
H100 H 0.77538 0.77551 0.84888 0.0
H101 H 0.84965 0.84248 0.77982 0.0
H102 H 0.81768 0.84913 0.76837 0.0
H103 H 0.83368 0.82105 0.75101 0.0
C104 C 0.28693 0.2824 0.30482 0.0
N105 N 0.30984 0.2708 0.30335 0.0
N106 N 0.28681 0.30297 0.28886 0.0
C107 C 0.26524 0.27457 0.32303 0.0
C108 C 0.31064 0.30379 0.27785 0.0
N109 N 0.32486 0.28457 0.28702 0.0
C110 C 0.32042 0.32381 0.25866 0.0
H111 H 0.26033 0.25163 0.32047 0.0
H112 H 0.24726 0.28435 0.31873 0.0
H113 H 0.27206 0.28117 0.3444 0.0
H114 H 0.3352 0.33988 0.26955 0.0
H115 H 0.30459 0.33456 0.25042 0.0
H116 H 0.3301 0.31262 0.24166 0.0
C117 C 0.48079 0.99958 0.59077 0.0
N118 N 0.49762 0.97977 0.58917 0.0
N119 N 0.46385 0.99561 0.56895 0.0
C120 C 0.48196 0.02394 0.61266 0.0
C121 C 0.47106 0.9728 0.55388 0.0
N122 N 0.49181 0.96336 0.56597 0.0
C123 C 0.45632 0.95827 0.52866 0.0
H124 H 0.47053 0.01759 0.62984 0.0
H125 H 0.47342 0.04179 0.60524 0.0
H126 H 0.50249 0.03068 0.62012 0.0
H127 H 0.46611 0.96528 0.51076 0.0
H128 H 0.43572 0.96322 0.52791 0.0
H129 H 0.45638 0.93535 0.52744 0.0
C130 C 0.17511 0.29769 0.72445 0.0
N131 N 0.1976 0.3082 0.71419 0.0
N132 N 0.16677 0.31657 0.74363 0.0
C133 C 0.16225 0.26836 0.71709 0.0
C134 C 0.18496 0.339 0.74453 0.0
N135 N 0.20358 0.33403 0.72643 0.0
C136 C 0.18575 0.36487 0.76461 0.0
H137 H 0.16665 0.25998 0.69622 0.0
H138 H 0.14071 0.26732 0.71863 0.0
H139 H 0.16979 0.25493 0.73135 0.0
H140 H 0.16857 0.36448 0.77754 0.0
H141 H 0.18598 0.38345 0.75375 0.0
H142 H 0.20406 0.36714 0.77749 0.0
C143 C 0.79602 0.25663 0.76046 0.0
N144 N 0.80601 0.24212 0.7791 0.0
N145 N 0.81453 0.27594 0.75331 0.0
C146 C 0.76901 0.2498 0.74697 0.0
C147 C 0.83633 0.2723 0.76786 0.0
N148 N 0.83123 0.25157 0.78353 0.0
C149 C 0.86219 0.28981 0.76734 0.0
H150 H 0.76269 0.22711 0.74509 0.0
H151 H 0.76821 0.25649 0.72652 0.0
H152 H 0.75487 0.26076 0.75954 0.0
H153 H 0.87244 0.293 0.78756 0.0
H154 H 0.85935 0.31035 0.76082 0.0
H155 H 0.87473 0.279 0.75267 0.0
C156 C 0.52808 0.46508 0.53804 0.0
N157 N 0.54189 0.47814 0.51966 0.0
N158 N 0.50703 0.47849 0.5454 0.0
C159 C 0.53647 0.44059 0.55053 0.0
C160 C 0.50853 0.50016 0.53066 0.0
N161 N 0.52978 0.5001 0.51521 0.0
C162 C 0.4909 0.52319 0.53388 0.0
H163 H 0.52041 0.43074 0.56171 0.0
H164 H 0.55366 0.44773 0.56462 0.0
H165 H 0.54258 0.42486 0.53464 0.0
H166 H 0.49322 0.5339 0.55491 0.0
H167 H 0.47015 0.51424 0.53033 0.0
H168 H 0.49509 0.53868 0.5196 0.0
C169 C 0.52804 0.49212 0.00323 0.0
N170 N 0.5512 0.49534 0.01776 0.0
N171 N 0.52939 0.50763 0.98244 0.0
C172 C 0.50469 0.47217 0.00816 0.0
C173 C 0.55432 0.52009 0.98452 0.0
N174 N 0.56768 0.51237 0.0057 0.0
C175 C 0.56623 0.53847 0.96492 0.0
H176 H 0.48842 0.47177 0.99294 0.0
H177 H 0.49729 0.47846 0.02839 0.0
H178 H 0.51071 0.45088 0.00799 0.0
H179 H 0.55108 0.54628 0.95242 0.0
H180 H 0.57877 0.52631 0.95134 0.0
H181 H 0.57891 0.55641 0.97598 0.0
C182 C 0.68437 0.2103 0.28762 0.0
N183 N 0.70467 0.20128 0.30087 0.0
N184 N 0.6837 0.20058 0.26095 0.0
C185 C 0.66718 0.23132 0.30001 0.0
C186 C 0.70456 0.18568 0.25837 0.0
N187 N 0.71739 0.18623 0.28258 0.0
C188 C 0.71184 0.16971 0.23244 0.0
H189 H 0.64987 0.22016 0.30827 0.0
H190 H 0.66018 0.24396 0.28474 0.0
H191 H 0.67789 0.24559 0.31672 0.0
H192 H 0.72635 0.18314 0.22243 0.0
H193 H 0.69439 0.16352 0.21849 0.0
H194 H 0.72094 0.15082 0.23649 0.0
C195 C 0.44716 1.00055 0.94334 0.0
N196 N 0.46575 0.02278 0.94724 0.0
N197 N 0.42932 1.00235 0.96277 0.0
C198 C 0.44743 0.97621 0.92164 0.0
C199 C 0.4379 0.02619 0.97885 0.0
N200 N 0.46016 0.03848 0.96959 0.0
C201 C 0.42533 0.03664 0.00446 0.0
H202 H 0.44255 0.98285 0.90177 0.0
H203 H 0.43298 0.95848 0.92487 0.0
H204 H 0.46735 0.96926 0.9208 0.0
H205 H 0.43422 0.02781 0.02162 0.0
H206 H 0.40396 0.03003 0.00336 0.0
H207 H 0.42862 0.0597 0.00852 0.0
Mg208 Mg 0.23338 0.83902 0.03406 0.0
O209 O 0.27109 0.8641 0.02213 0.0
O210 O 0.30342 0.83688 0.02472 0.0
Mg211 Mg 0.28735 0.79533 0.03755 0.0
C212 C 0.29513 0.85971 0.01986 0.0
C213 C 0.20771 0.89467 0.03024 0.0
O214 O 0.22464 0.90309 0.05062 0.0
O215 O 0.23095 0.81204 0.99294 0.0
O216 O 0.26378 0.78569 0.99702 0.0
O217 O 0.24205 0.85448 0.07806 0.0
O218 O 0.25585 0.81641 0.05724 0.0
C219 C 0.24462 0.79285 0.98349 0.0
C220 C 0.2556 0.83357 0.079 0.0
O221 O 0.20729 0.8699 0.01841 0.0
Mg222 Mg 0.16218 0.51931 0.2988 0.0
O223 O 0.13746 0.51355 0.25858 0.0
O224 O 0.16499 0.51334 0.22481 0.0
Mg225 Mg 0.20702 0.52036 0.24308 0.0
C226 C 0.14175 0.51136 0.23334 0.0
C227 C 0.10789 0.52584 0.32162 0.0
O228 O 0.11068 0.54547 0.30571 0.0
O229 O 0.1718 0.4741 0.29105 0.0
O230 O 0.20056 0.47752 0.25836 0.0
O231 O 0.16573 0.56574 0.30182 0.0
O232 O 0.19416 0.54002 0.2818 0.0
C233 C 0.18785 0.46343 0.27471 0.0
C234 C 0.18726 0.56441 0.28911 0.0
O235 O 0.12544 0.50922 0.32223 0.0
Mg236 Mg 0.79386 0.66287 0.02353 0.0
O237 O 0.75327 0.63583 0.01964 0.0
O238 O 0.72355 0.66577 0.01562 0.0
Mg239 Mg 0.74386 0.70951 0.01375 0.0
C240 C 0.72943 0.64123 0.01772 0.0
C241 C 0.81443 0.60873 0.03829 0.0
O242 O 0.79802 0.61382 0.05752 0.0
O243 O 0.79437 0.66649 0.97816 0.0
O244 O 0.76416 0.69592 0.97415 0.0
O245 O 0.78961 0.67205 0.06794 0.0
O246 O 0.77646 0.69859 0.03848 0.0
C247 C 0.78144 0.68106 0.964 0.0
C248 C 0.77803 0.69345 0.06318 0.0
O249 O 0.81598 0.62418 0.01945 0.0
Mg250 Mg 0.901 0.02784 0.2616 0.0
O251 O 0.8721 0.98801 0.25205 0.0
O252 O 0.89565 0.95252 0.24051 0.0
Mg253 Mg 0.93897 0.96925 0.24181 0.0
C254 C 0.87369 0.96216 0.24453 0.0
C255 C 0.87093 0.07772 0.27736 0.0
O256 O 0.89183 0.088 0.26583 0.0
O257 O 0.91443 0.01489 0.30208 0.0
O258 O 0.93889 0.981 0.28779 0.0
O259 O 0.89855 0.03508 0.21834 0.0
O260 O 0.9272 0.01009 0.23507 0.0
C261 C 0.92974 0.99674 0.30682 0.0
C262 C 0.91711 0.01915 0.21433 0.0
O263 O 0.86861 0.05199 0.28034 0.0
Mg264 Mg 0.29743 0.16568 0.52667 0.0
O265 O 0.25649 0.13989 0.5209 0.0
O266 O 0.22817 0.17123 0.51683 0.0
Mg267 Mg 0.2495 0.21547 0.52 0.0
C268 C 0.23304 0.14614 0.51793 0.0
C269 C 0.3181 0.11072 0.53896 0.0
O270 O 0.30253 0.11554 0.55902 0.0
O271 O 0.29854 0.17212 0.48161 0.0
O272 O 0.27263 0.20643 0.48163 0.0
O273 O 0.29266 0.17267 0.57158 0.0
O274 O 0.28081 0.20112 0.54353 0.0
C275 C 0.28854 0.19081 0.46994 0.0
C276 C 0.28184 0.19481 0.56777 0.0
O277 O 0.31888 0.12657 0.52044 0.0
Mg278 Mg 0.39828 0.5273 0.7624 0.0
O279 O 0.36908 0.48765 0.75468 0.0
O280 O 0.39187 0.45115 0.74553 0.0
Mg281 Mg 0.43546 0.46708 0.74767 0.0
C282 C 0.37014 0.46151 0.74856 0.0
C283 C 0.36732 0.57772 0.77286 0.0
O284 O 0.38793 0.58704 0.76029 0.0
O285 O 0.41039 0.51717 0.80458 0.0
O286 O 0.43369 0.48146 0.79301 0.0
O287 O 0.39732 0.53023 0.71787 0.0
O288 O 0.42551 0.50786 0.73873 0.0
C289 C 0.42463 0.49863 0.81088 0.0
C290 C 0.41633 0.51464 0.71648 0.0
O291 O 0.36549 0.55268 0.77817 0.0
Mg292 Mg 0.73178 0.33916 0.53755 0.0
O293 O 0.7701 0.36421 0.5269 0.0
O294 O 0.80222 0.33722 0.5321 0.0
Mg295 Mg 0.78555 0.29595 0.54491 0.0
C296 C 0.79427 0.35985 0.52618 0.0
C297 C 0.70614 0.39437 0.52983 0.0
O298 O 0.72324 0.40449 0.54963 0.0
O299 O 0.73142 0.31156 0.49696 0.0
O300 O 0.76412 0.28563 0.50325 0.0
O301 O 0.73851 0.35581 0.58147 0.0
O302 O 0.75336 0.31751 0.56247 0.0
C303 C 0.74562 0.29246 0.48857 0.0
C304 C 0.75226 0.33527 0.58366 0.0
O305 O 0.70585 0.36897 0.51982 0.0
Mg306 Mg 0.6638 0.02284 0.79454 0.0
O307 O 0.64005 0.01602 0.75371 0.0
O308 O 0.66838 0.01614 0.72068 0.0
Mg309 Mg 0.70996 0.02477 0.74011 0.0
C310 C 0.64494 0.01362 0.7286 0.0
C311 C 0.62807 0.02013 0.84203 0.0
O312 O 0.65073 0.03165 0.85324 0.0
O313 O 0.67486 0.97819 0.78781 0.0
O314 O 0.70451 0.98223 0.75603 0.0
O315 O 0.6662 0.0692 0.79718 0.0
O316 O 0.69575 0.04416 0.77832 0.0
C317 C 0.69177 0.968 0.77225 0.0
C318 C 0.68823 0.06833 0.78529 0.0
O319 O 0.62666 0.01185 0.81678 0.0
Mg320 Mg 0.03306 0.23185 0.93561 0.0
O321 O 0.99247 0.22672 0.9138 0.0
O322 O 0.96267 0.21168 0.94179 0.0
Mg323 Mg 0.98522 0.20481 0.98078 0.0
C324 C 0.96873 0.21952 0.91904 0.0
C325 C 0.04555 0.2508 0.87891 0.0
O326 O 0.02915 0.22863 0.87056 0.0
O327 O 0.02293 0.27052 0.96222 0.0
O328 O 0.99607 0.25246 0.99155 0.0
O329 O 0.03955 0.18818 0.92021 0.0
O330 O 0.02194 0.20046 0.95915 0.0
C331 C 0.00921 0.27331 0.98313 0.0
C332 C 0.02952 0.18102 0.94217 0.0
O333 O 0.05022 0.25778 0.90412 0.0
Mg334 Mg 0.53223 0.72838 0.43178 0.0
O335 O 0.4915 0.72192 0.41038 0.0
O336 O 0.46206 0.70975 0.43993 0.0
Mg337 Mg 0.48509 0.70536 0.47945 0.0
C338 C 0.46782 0.71562 0.41639 0.0
C339 C 0.57209 0.76157 0.40078 0.0
O340 O 0.58508 0.75966 0.42348 0.0
O341 O 0.52272 0.76878 0.45605 0.0
O342 O 0.49661 0.7531 0.48723 0.0
O343 O 0.53853 0.68397 0.41945 0.0
O344 O 0.52156 0.69926 0.4579 0.0
C345 C 0.50961 0.77306 0.47726 0.0
C346 C 0.52891 0.67869 0.4422 0.0
O347 O 0.5483 0.75115 0.39771 0.0
Mg348 Mg 0.99416 0.77116 0.60699 0.0
O349 O 0.02907 0.75569 0.62864 0.0
O350 O 0.05781 0.74345 0.59766 0.0
Mg351 Mg 0.04319 0.75382 0.55681 0.0
C352 C 0.05044 0.74588 0.62196 0.0
C353 C 0.95252 0.77163 0.64883 0.0
O354 O 0.94159 0.75764 0.62641 0.0
O355 O 0.01843 0.81366 0.60494 0.0
O356 O 0.04638 0.80045 0.57347 0.0
O357 O 0.97522 0.7276 0.59611 0.0
O358 O 1.00297 0.7482 0.57009 0.0
C359 C 0.03751 0.81929 0.58978 0.0
C360 C 0.98833 0.72621 0.57441 0.0
O361 O 0.97592 0.78328 0.64821 0.0
Mg362 Mg 0.49746 0.26664 0.10786 0.0
O363 O 0.53475 0.25616 0.12944 0.0
O364 O 0.56427 0.24794 0.09819 0.0
Mg365 Mg 0.54684 0.25415 0.057 0.0
C366 C 0.55733 0.24958 0.12265 0.0
C367 C 0.45751 0.26324 0.15134 0.0
O368 O 0.44846 0.24511 0.13064 0.0
O369 O 0.51701 0.31113 0.10405 0.0
O370 O 0.54541 0.30043 0.07226 0.0
O371 O 0.48437 0.22113 0.09965 0.0
O372 O 0.5075 0.24396 0.07129 0.0
C373 C 0.53508 0.31837 0.0883 0.0
C374 C 0.49676 0.2206 0.07748 0.0
O375 O 0.47891 0.27849 0.149 0.0
H376 H 0.24404 0.72412 0.81542 0.0
H377 H 0.19625 0.78087 0.95758 0.0
H378 H 0.17182 0.68827 0.84485 0.0
H379 H 0.27799 0.77034 0.94761 0.0
H380 H 0.18577 0.75358 0.91308 0.0
H381 H 0.25677 0.74659 0.86143 0.0
C382 C 0.23112 0.72059 0.8317 0.0
C383 C 0.20675 0.70463 0.82642 0.0
C384 C 0.20597 0.75728 0.92075 0.0
C385 C 0.22054 0.73107 0.87848 0.0
C386 C 0.21197 0.77301 0.94594 0.0
C387 C 0.238 0.7778 0.95622 0.0
C388 C 0.22622 0.74697 0.90554 0.0
C389 C 0.25765 0.76697 0.94042 0.0
C390 C 0.23824 0.73358 0.8578 0.0
C391 C 0.19045 0.70106 0.84806 0.0
N392 N 0.2514 0.75228 0.9157 0.0
N393 N 0.1974 0.71461 0.87311 0.0
H394 H 0.0078 0.49629 0.45432 0.0
H395 H 0.06738 0.55831 0.32485 0.0
H396 H 0.97271 0.55767 0.41428 0.0
H397 H 0.09945 0.49301 0.36231 0.0
H398 H 0.03381 0.56003 0.35847 0.0
H399 H 0.04348 0.49738 0.42277 0.0
C400 C 0.00793 0.51026 0.43899 0.0
C401 C 0.98742 0.52681 0.43664 0.0
C402 C 0.04815 0.54528 0.35933 0.0
C403 C 0.02781 0.52807 0.40033 0.0
C404 C 0.0673 0.54419 0.34005 0.0
C405 C 0.08629 0.52543 0.3407 0.0
C406 C 0.04796 0.52754 0.37952 0.0
C407 C 0.08517 0.50773 0.36094 0.0
C408 C 0.02815 0.51082 0.42094 0.0
C409 C 0.98834 0.54474 0.41669 0.0
N410 N 0.06638 0.50926 0.37956 0.0
N411 N 0.00811 0.54475 0.3991 0.0
H412 H 0.85071 0.77264 0.8486 0.0
H413 H 0.74914 0.68413 0.92025 0.0
H414 H 0.78424 0.72603 0.80373 0.0
H415 H 0.83075 0.68682 0.94468 0.0
H416 H 0.7621 0.69857 0.87678 0.0
H417 H 0.84638 0.74026 0.88286 0.0
C418 C 0.83598 0.7548 0.8454 0.0
C419 C 0.81763 0.75203 0.8236 0.0
C420 C 0.77721 0.69537 0.89138 0.0
C421 C 0.81176 0.71585 0.86298 0.0
C422 C 0.7698 0.68718 0.91618 0.0
C423 C 0.7889 0.6842 0.936 0.0
C424 C 0.80392 0.70164 0.8867 0.0
C425 C 0.81542 0.68866 0.9298 0.0
C426 C 0.83328 0.73653 0.86505 0.0
C427 C 0.79857 0.72889 0.82049 0.0
N428 N 0.82219 0.69784 0.90594 0.0
N429 N 0.79557 0.71218 0.84038 0.0
H430 H 0.02328 0.95592 0.43951 0.0
H431 H 0.93016 0.03637 0.35132 0.0
H432 H 0.00857 0.04086 0.46257 0.0
H433 H 0.95268 0.95445 0.32593 0.0
H434 H 0.95352 0.03644 0.39499 0.0
H435 H 0.99275 0.95319 0.40033 0.0
C436 C 0.01331 0.97388 0.43631 0.0
C437 C 0.01816 0.99856 0.45414 0.0
C438 C 0.95307 0.01835 0.37994 0.0
C439 C 0.98352 0.99594 0.40934 0.0
C440 C 0.93957 0.0182 0.35508 0.0
C441 C 0.93967 0.99548 0.33481 0.0
C442 C 0.9666 0.99555 0.38455 0.0
C443 C 0.95232 0.97257 0.3408 0.0
C444 C 0.99598 0.97242 0.41399 0.0
C445 C 0.0052 0.02151 0.44912 0.0
N446 N 0.96539 0.97329 0.36499 0.0
N447 N 0.98847 0.0197 0.4271 0.0
H448 H 0.21122 0.32431 0.66631 0.0
H449 H 0.27597 0.18381 0.61998 0.0
H450 H 0.21853 0.25992 0.71714 0.0
H451 H 0.26241 0.24499 0.56677 0.0
H452 H 0.25777 0.21283 0.6568 0.0
H453 H 0.23351 0.29746 0.63065 0.0
C454 C 0.21779 0.30458 0.6699 0.0
C455 C 0.21283 0.29395 0.69428 0.0
C456 C 0.25876 0.2199 0.63706 0.0
C457 C 0.23804 0.2631 0.65396 0.0
C458 C 0.26912 0.20331 0.61602 0.0
C459 C 0.27052 0.21186 0.59019 0.0
C460 C 0.24984 0.2453 0.63228 0.0
C461 C 0.26146 0.2374 0.58627 0.0
C462 C 0.23034 0.2892 0.64963 0.0
C463 C 0.22168 0.26841 0.6983 0.0
N464 N 0.2515 0.2532 0.60706 0.0
N465 N 0.23374 0.25374 0.67827 0.0
H466 H 0.5274 0.48092 0.59611 0.0
H467 H 0.39639 0.5166 0.66503 0.0
H468 H 0.45427 0.47374 0.54981 0.0
H469 H 0.46129 0.4901 0.70871 0.0
H470 H 0.41696 0.50252 0.62244 0.0
H471 H 0.50348 0.48508 0.63776 0.0
C472 C 0.5062 0.47959 0.5948 0.0
C473 C 0.4927 0.47688 0.56962 0.0
C474 C 0.42648 0.49951 0.64138 0.0
C475 C 0.46524 0.48274 0.61707 0.0
C476 C 0.41483 0.50764 0.66565 0.0
C477 C 0.4272 0.50462 0.69044 0.0
C478 C 0.45083 0.48875 0.64202 0.0
C479 C 0.45102 0.4928 0.6901 0.0
C480 C 0.49255 0.48219 0.61852 0.0
C481 C 0.4653 0.47608 0.56893 0.0
N482 N 0.46218 0.4856 0.66631 0.0
N483 N 0.45242 0.47939 0.59236 0.0
H484 H 0.8408 0.27135 0.70744 0.0
H485 H 0.7481 0.36453 0.63371 0.0
H486 H 0.78233 0.31567 0.74855 0.0
H487 H 0.78784 0.2987 0.59266 0.0
H488 H 0.76828 0.35594 0.67673 0.0
H489 H 0.83008 0.29128 0.66608 0.0
C490 C 0.82624 0.28597 0.70783 0.0
C491 C 0.81237 0.29201 0.73116 0.0
C492 C 0.77279 0.34367 0.65818 0.0
C493 C 0.7996 0.31438 0.68416 0.0
C494 C 0.76132 0.34856 0.63363 0.0
C495 C 0.76616 0.33223 0.60945 0.0
C496 C 0.78943 0.32253 0.65847 0.0
C497 C 0.78345 0.31182 0.61062 0.0
C498 C 0.81991 0.29709 0.68427 0.0
C499 C 0.79336 0.31068 0.73079 0.0
N500 N 0.79437 0.30751 0.63468 0.0
N501 N 0.7873 0.32104 0.70753 0.0
H502 H 0.54904 0.97989 0.5789 0.0
H503 H 0.59215 0.00416 0.7368 0.0
H504 H 0.49468 0.97693 0.6427 0.0
H505 H 0.64728 0.00652 0.67321 0.0
H506 H 0.55645 0.99162 0.70256 0.0
H507 H 0.58565 0.98573 0.61285 0.0
C508 C 0.54492 0.9799 0.60007 0.0
C509 C 0.51898 0.97814 0.60818 0.0
C510 C 0.57636 0.99483 0.69608 0.0
C511 C 0.56044 0.98537 0.64711 0.0
C512 C 0.5968 1.00212 0.71566 0.0
C513 C 0.62287 0.00659 0.70799 0.0
C514 C 0.58189 0.99198 0.6685 0.0
C515 C 0.62755 0.00343 0.68019 0.0
C516 C 0.56573 0.9835 0.61945 0.0
C517 C 0.5145 0.97852 0.63579 0.0
N518 N 0.6073 0.9964 0.66151 0.0
N519 N 0.53498 0.98235 0.65429 0.0
H520 H 0.8236 0.24511 0.8359 0.0
H521 H 0.9741 0.22622 0.86565 0.0
H522 H 0.87978 0.23647 0.77393 0.0
H523 H 0.91527 0.21609 0.92475 0.0
H524 H 0.93969 0.23037 0.83207 0.0
H525 H 0.85627 0.23402 0.86891 0.0
C526 C 0.84275 0.24054 0.82925 0.0
C527 C 0.84923 0.24212 0.80235 0.0
C528 C 0.93424 0.22707 0.85232 0.0
C529 C 0.88678 0.22988 0.83984 0.0
C530 C 0.95394 0.22478 0.87161 0.0
C531 C 0.94768 0.22089 0.8982 0.0
C532 C 0.90795 0.22578 0.85961 0.0
C533 C 0.92108 0.21907 0.90453 0.0
C534 C 0.86142 0.23436 0.84805 0.0
C535 C 0.87429 0.23613 0.79466 0.0
N536 N 0.90224 0.22175 0.88546 0.0
N537 N 0.89222 0.23057 0.81333 0.0
H538 H 0.48993 0.91778 0.59184 0.0
H539 H 0.53059 0.82213 0.46042 0.0
H540 H 0.51574 0.95023 0.51958 0.0
H541 H 0.49049 0.78981 0.5267 0.0
H542 H 0.53168 0.86921 0.48448 0.0
H543 H 0.49771 0.87081 0.5716 0.0
C544 C 0.49802 0.91499 0.57202 0.0
C545 C 0.50232 0.93762 0.55728 0.0
C546 C 0.52271 0.85179 0.49377 0.0
C547 C 0.5106 0.88426 0.53368 0.0
C548 C 0.52202 0.82487 0.48001 0.0
C549 C 0.51022 0.80188 0.49139 0.0
C550 C 0.51171 0.85582 0.51922 0.0
C551 C 0.49958 0.80683 0.51696 0.0
C552 C 0.50213 0.88825 0.56031 0.0
C553 C 0.51233 0.93312 0.53148 0.0
N554 N 0.50056 0.8332 0.52996 0.0
N555 N 0.51591 0.90692 0.52036 0.0
H556 H 0.11437 0.30489 0.73441 0.0
H557 H 0.08883 0.28888 0.88931 0.0
H558 H 0.17559 0.31583 0.7969 0.0
H559 H 0.03753 0.24577 0.82384 0.0
H560 H 0.11697 0.30867 0.85632 0.0
H561 H 0.08226 0.29215 0.76777 0.0
C562 C 0.12088 0.30472 0.75523 0.0
C563 C 0.14746 0.31116 0.76311 0.0
C564 C 0.09943 0.29505 0.84921 0.0
C565 C 0.11125 0.29729 0.80116 0.0
C566 C 0.08328 0.28384 0.86801 0.0
C567 C 0.06094 0.26538 0.85929 0.0
C568 C 0.09307 0.28804 0.8215 0.0
C569 C 0.05473 0.25968 0.83142 0.0
C570 C 0.1027 0.29754 0.77418 0.0
C571 C 0.15517 0.31105 0.79026 0.0
N572 N 0.07078 0.27089 0.81346 0.0
N573 N 0.13714 0.30421 0.80836 0.0
H574 H 0.52328 0.50323 0.46198 0.0
H575 H 0.52527 0.66556 0.49362 0.0
H576 H 0.55544 0.54883 0.53693 0.0
H577 H 0.53492 0.62883 0.41179 0.0
H578 H 0.53156 0.62103 0.50942 0.0
H579 H 0.5253 0.54716 0.44176 0.0
C580 C 0.53185 0.52241 0.47371 0.0
C581 C 0.53954 0.52265 0.50092 0.0
C582 C 0.53231 0.62272 0.488 0.0
C583 C 0.54055 0.57271 0.47876 0.0
C584 C 0.52838 0.64803 0.47891 0.0
C585 C 0.5295 0.6509 0.45133 0.0
C586 C 0.53693 0.59988 0.46936 0.0
C587 C 0.53387 0.62748 0.43324 0.0
C588 C 0.53266 0.54743 0.46238 0.0
C589 C 0.54975 0.54798 0.51575 0.0
N590 N 0.53724 0.60283 0.44254 0.0
N591 N 0.54943 0.57212 0.50468 0.0
H592 H 0.82967 0.74399 0.75937 0.0
H593 H 0.96454 0.80282 0.69892 0.0
H594 H 0.88039 0.81349 0.79991 0.0
H595 H 0.90704 0.74018 0.65658 0.0
H596 H 0.93835 0.80232 0.73948 0.0
H597 H 0.86301 0.73601 0.72594 0.0
C598 C 0.84833 0.75687 0.76174 0.0
C599 C 0.85237 0.77942 0.78223 0.0
C600 C 0.93164 0.78858 0.72131 0.0
C601 C 0.89023 0.77137 0.74358 0.0
C602 C 0.94654 0.78893 0.69815 0.0
C603 C 0.93786 0.7718 0.67414 0.0
C604 C 0.90806 0.77078 0.72049 0.0
C605 C 0.91444 0.75406 0.67443 0.0
C606 C 0.8672 0.75269 0.74245 0.0
C607 C 0.87664 0.79593 0.78424 0.0
N608 N 0.90042 0.75409 0.69708 0.0
N609 N 0.89451 0.79193 0.76488 0.0
H610 H 0.09569 0.95348 0.50695 0.0
H611 H 0.08601 0.83833 0.57443 0.0
H612 H 0.04013 0.98697 0.56108 0.0
H613 H 0.01333 0.86714 0.60121 0.0
H614 H 0.10029 0.88461 0.56301 0.0
H615 H 0.09733 0.91432 0.53286 0.0
C616 C 0.0849 0.95322 0.52525 0.0
C617 C 0.06798 0.97346 0.5321 0.0
C618 C 0.08116 0.88098 0.57122 0.0
C619 C 0.06892 0.92823 0.56183 0.0
C620 C 0.0731 0.85452 0.57809 0.0
C621 C 0.04818 0.84864 0.58829 0.0
C622 C 0.06394 0.90172 0.57397 0.0
C623 C 0.03259 0.87063 0.59318 0.0
C624 C 0.08558 0.93066 0.54007 0.0
C625 C 0.05358 0.97176 0.5554 0.0
N626 N 0.04054 0.89605 0.58553 0.0
N627 N 0.05388 0.94921 0.56907 0.0
H628 H 0.14387 0.65849 0.72457 0.0
H629 H 0.05958 0.77033 0.67411 0.0
H630 H 0.16586 0.74601 0.74889 0.0
H631 H 0.08048 0.70262 0.61756 0.0
H632 H 0.09038 0.75753 0.70804 0.0
H633 H 0.11252 0.67022 0.69037 0.0
C634 C 0.14207 0.68013 0.72254 0.0
C635 C 0.15733 0.70138 0.7393 0.0
C636 C 0.08805 0.74548 0.6882 0.0
C637 C 0.12126 0.71485 0.70138 0.0
C638 C 0.07044 0.75262 0.66898 0.0
C639 C 0.06764 0.73753 0.64306 0.0
C640 C 0.10226 0.72264 0.68164 0.0
C641 C 0.08227 0.71486 0.6373 0.0
C642 C 0.12426 0.68678 0.70324 0.0
C643 C 0.15423 0.72916 0.73632 0.0
N644 N 0.09884 0.70791 0.65654 0.0
N645 N 0.13629 0.73515 0.71791 0.0
H646 H 1.00158 0.56318 0.48968 0.0
H647 H 0.94404 0.69173 0.5609 0.0
H648 H 0.92799 0.5868 0.46163 0.0
H649 H 0.02615 0.70237 0.54409 0.0
H650 H 0.93851 0.64922 0.52872 0.0
H651 H 0.01315 0.61122 0.51214 0.0
C652 C 0.98832 0.57877 0.48753 0.0
C653 C 0.96372 0.57123 0.47415 0.0
C654 C 0.95771 0.66097 0.53193 0.0
C655 C 0.97623 0.62525 0.50025 0.0
C656 C 0.96092 0.68504 0.55043 0.0
C657 C 0.98555 0.70053 0.55504 0.0
C658 C 0.97944 0.65181 0.51849 0.0
C659 C 0.0068 0.69105 0.54086 0.0
C660 C 0.9948 0.60599 0.50043 0.0
C661 C 0.94698 0.59192 0.4721 0.0
N662 N 1.00337 0.66694 0.52343 0.0
N663 N 0.95322 0.61782 0.4856 0.0
H664 H 0.71303 0.88857 0.21052 0.0
H665 H 0.86888 0.90508 0.23683 0.0
H666 H 0.75597 0.82172 0.23002 0.0
H667 H 0.82295 0.97485 0.23994 0.0
H668 H 0.82866 0.87337 0.22732 0.0
H669 H 0.7543 0.91952 0.21329 0.0
C670 C 0.73131 0.88041 0.21494 0.0
C671 C 0.73133 0.85278 0.22015 0.0
C672 C 0.8274 0.89562 0.23006 0.0
C673 C 0.77835 0.88771 0.22348 0.0
C674 C 0.85036 0.91377 0.23551 0.0
C675 C 0.84933 0.94274 0.23936 0.0
C676 C 0.8032 0.90643 0.22816 0.0
C677 C 0.82471 0.95271 0.23735 0.0
C678 C 0.75476 0.89799 0.21665 0.0
C679 C 0.75535 0.84289 0.22563 0.0
N680 N 0.80264 0.93459 0.23185 0.0
N681 N 0.77794 0.8604 0.22734 0.0
H682 H 0.76451 0.20027 0.26349 0.0
H683 H 0.8234 0.06341 0.29921 0.0
H684 H 0.72348 0.14361 0.31152 0.0
H685 H 0.86934 0.13219 0.26997 0.0
H686 H 0.7868 0.09203 0.30506 0.0
H687 H 0.8035 0.17556 0.2666 0.0
C688 C 0.76401 0.18274 0.27499 0.0
C689 C 0.74107 0.17382 0.28729 0.0
C690 C 0.80502 0.1009 0.29766 0.0
C691 C 0.78516 0.14503 0.29062 0.0
C692 C 0.82591 0.08458 0.29429 0.0
C693 C 0.84943 0.0953 0.28384 0.0
C694 C 0.80763 0.12801 0.29028 0.0
C695 C 0.85157 0.1229 0.27789 0.0
C696 C 0.78615 0.16862 0.2768 0.0
C697 C 0.74104 0.15101 0.30193 0.0
N698 N 0.8309 0.13814 0.28093 0.0
N699 N 0.7627 0.1371 0.30294 0.0
H700 H 0.4378 0.95361 0.97953 0.0
H701 H 0.28605 0.91028 0.00374 0.0
H702 H 0.3768 0.00337 0.96071 0.0
H703 H 0.34796 0.85857 0.01546 0.0
H704 H 0.31845 0.94503 0.98844 0.0
H705 H 0.40463 0.91848 0.99293 0.0
C706 C 0.41726 0.95683 0.97804 0.0
C707 C 0.40976 0.98102 0.96895 0.0
C708 C 0.32486 0.92604 0.99435 0.0
C709 C 0.37173 0.9415 0.98452 0.0
C710 C 0.3064 0.90622 0.00315 0.0
C711 C 0.31423 0.88141 0.01093 0.0
C712 C 0.35133 0.92103 0.99341 0.0
C713 C 0.34089 0.87731 0.00968 0.0
C714 C 0.39835 0.93696 0.98575 0.0
C715 C 0.38308 0.98475 0.96759 0.0
N716 N 0.3584 0.89688 1.00114 0.0
N717 N 0.36493 0.9652 0.97539 0.0
H718 H 0.25857 0.3098 0.24412 0.0
H719 H 0.18802 0.43528 0.31909 0.0
H720 H 0.27082 0.33881 0.329 0.0
H721 H 0.20364 0.42693 0.23416 0.0
H722 H 0.2077 0.39192 0.32287 0.0
H723 H 0.22818 0.3452 0.24021 0.0
C724 C 0.25459 0.32358 0.26191 0.0
C725 C 0.26733 0.32192 0.28678 0.0
C726 C 0.20638 0.3994 0.30335 0.0
C727 C 0.23251 0.3618 0.28275 0.0
C728 C 0.19497 0.42396 0.30113 0.0
C729 C 0.19444 0.43479 0.27632 0.0
C730 C 0.21691 0.38546 0.28052 0.0
C731 C 0.20392 0.41942 0.25372 0.0
C732 C 0.23731 0.34363 0.25974 0.0
C733 C 0.26139 0.33975 0.30947 0.0
N734 N 0.2149 0.39562 0.25638 0.0
N735 N 0.24447 0.35911 0.30693 0.0
H736 H 0.1225 0.99582 0.49121 0.0
H737 H 0.18183 0.15375 0.5262 0.0
H738 H 0.0812 0.05906 0.53352 0.0
H739 H 0.23245 0.08865 0.51014 0.0
H740 H 0.14481 0.11853 0.52752 0.0
H741 H 0.16338 0.02779 0.49801 0.0
C742 C 0.12238 0.01606 0.50293 0.0
C743 C 0.09875 0.02476 0.51241 0.0
C744 C 0.16399 0.11184 0.5238 0.0
C745 C 0.14477 0.06181 0.51906 0.0
C746 C 0.18521 0.13201 0.52279 0.0
C747 C 0.21042 0.12426 0.51786 0.0
C748 C 0.16765 0.08347 0.51947 0.0
C749 C 0.2134 0.09563 0.51393 0.0
C750 C 0.14554 0.03441 0.50649 0.0
C751 C 0.09921 0.05153 0.52647 0.0
N752 N 0.19223 0.07625 0.51457 0.0
N753 N 0.12172 0.06922 0.52905 0.0
H754 H 0.76279 0.23776 0.80797 0.0
H755 H 0.73699 0.07291 0.76432 0.0
H756 H 0.81867 0.18989 0.76663 0.0
H757 H 0.68014 0.1222 0.80288 0.0
H758 H 0.7681 0.11485 0.76693 0.0
H759 H 0.73402 0.1947 0.81049 0.0
C760 C 0.76925 0.21793 0.80022 0.0
C761 C 0.79302 0.21708 0.78728 0.0
C762 C 0.74879 0.11651 0.77473 0.0
C763 C 0.76009 0.16796 0.78907 0.0
C764 C 0.7309 0.09261 0.77302 0.0
C765 C 0.70583 0.09404 0.78328 0.0
C766 C 0.74162 0.14207 0.78686 0.0
C767 C 0.69918 0.12011 0.79457 0.0
C768 C 0.75276 0.19344 0.80128 0.0
C769 C 0.80056 0.19114 0.77705 0.0
N770 N 0.71698 0.14305 0.79613 0.0
N771 N 0.78399 0.16756 0.77785 0.0
H772 H 0.42429 0.00536 0.60188 0.0
H773 H 0.35651 0.09829 0.50355 0.0
H774 H 0.45374 0.02003 0.52445 0.0
H775 H 0.32414 0.07685 0.5781 0.0
H776 H 0.39141 0.06863 0.50974 0.0
H777 H 0.38701 0.03116 0.59305 0.0
C778 C 0.42283 0.0142 0.58305 0.0
C779 C 0.44199 0.01084 0.5639 0.0
C780 C 0.37654 0.07026 0.52462 0.0
C781 C 0.39947 0.0401 0.55341 0.0
C782 C 0.35654 0.08711 0.52105 0.0
C783 C 0.33741 0.09022 0.54041 0.0
C784 C 0.37749 0.05651 0.54778 0.0
C785 C 0.33848 0.07522 0.56268 0.0
C786 C 0.40155 0.02874 0.5779 0.0
C787 C 0.43922 0.02225 0.53962 0.0
N788 N 0.35827 0.05923 0.56585 0.0
N789 N 0.41839 0.03649 0.53508 0.0
H790 H 0.55446 0.43715 0.48283 0.0
H791 H 0.69937 0.44834 0.54907 0.0
H792 H 0.58763 0.50526 0.54093 0.0
H793 H 0.6649 0.37868 0.49276 0.0
H794 H 0.66174 0.47338 0.5403 0.0
H795 H 0.59766 0.41979 0.47952 0.0
C796 C 0.5712 0.44893 0.49411 0.0
C797 C 0.5678 0.47272 0.51191 0.0
C798 C 0.66253 0.45275 0.5296 0.0
C799 C 0.61694 0.45268 0.50918 0.0
C800 C 0.68406 0.4384 0.5346 0.0
C801 C 0.68521 0.41116 0.52192 0.0
C802 C 0.64186 0.43978 0.51185 0.0
C803 C 0.66481 0.39951 0.50322 0.0
C804 C 0.59575 0.43893 0.49252 0.0
C805 C 0.58975 0.48705 0.52671 0.0
N806 N 0.64388 0.41375 0.49899 0.0
N807 N 0.61335 0.47661 0.52532 0.0
H808 H 0.67412 0.19607 0.34323 0.0
H809 H 0.78079 0.26856 0.45569 0.0
H810 H 0.75224 0.22458 0.32229 0.0
H811 H 0.69906 0.2819 0.45901 0.0
H812 H 0.772 0.24284 0.41031 0.0
H813 H 0.68458 0.21707 0.39011 0.0
C814 C 0.69361 0.20636 0.34873 0.0
C815 C 0.71231 0.20884 0.32902 0.0
C816 C 0.75605 0.2514 0.42106 0.0
C817 C 0.72447 0.2325 0.38228 0.0
C818 C 0.76099 0.266 0.44689 0.0
C819 C 0.7406 0.27744 0.46104 0.0
C820 C 0.73044 0.24763 0.40965 0.0
C821 C 0.71534 0.2736 0.4487 0.0
C822 C 0.69951 0.21839 0.3753 0.0
C823 C 0.73742 0.22204 0.33701 0.0
N824 N 0.71092 0.25879 0.42375 0.0
N825 N 0.7428 0.23352 0.36311 0.0
H826 H 0.46886 0.02534 0.89372 0.0
H827 H 0.6254 0.03099 0.8969 0.0
H828 H 0.51584 0.02744 0.96704 0.0
H829 H 0.57652 0.00915 0.82387 0.0
H830 H 0.58601 0.03388 0.92298 0.0
H831 H 0.50867 0.02453 0.86775 0.0
C832 C 0.48769 0.02585 0.90428 0.0
C833 C 0.48924 0.02633 0.93241 0.0
C834 C 0.5839 0.02835 0.90127 0.0
C835 C 0.53476 0.02544 0.9031 0.0
C836 C 0.60638 0.02664 0.88634 0.0
C837 C 0.60428 0.01977 0.85813 0.0
C838 C 0.55908 0.02343 0.8879 0.0
C839 C 0.57909 0.01439 0.84558 0.0
C840 C 0.51035 0.02533 0.88953 0.0
C841 C 0.51399 0.02736 0.94536 0.0
N842 N 0.55749 0.01648 0.86053 0.0
N843 N 0.53583 0.02677 0.93059 0.0
H844 H 0.34318 0.2868 0.34604 0.0
H845 H 0.29152 0.15664 0.42173 0.0
H846 H 0.29413 0.21625 0.30507 0.0
H847 H 0.30803 0.24158 0.45919 0.0
H848 H 0.30477 0.17188 0.37809 0.0
H849 H 0.3447 0.26302 0.38663 0.0
C850 C 0.33374 0.26573 0.34531 0.0
C851 C 0.31853 0.25338 0.32241 0.0
C852 C 0.30582 0.18699 0.39603 0.0
C853 C 0.31939 0.22637 0.36872 0.0
C854 C 0.2983 0.17833 0.42081 0.0
C855 C 0.2984 0.198 0.44387 0.0
C856 C 0.31415 0.21529 0.39473 0.0
C857 C 0.30734 0.22586 0.44175 0.0
C858 C 0.33423 0.25233 0.36851 0.0
C859 C 0.30611 0.22628 0.32247 0.0
N860 N 0.31484 0.23364 0.41769 0.0
N861 N 0.3064 0.21378 0.34548 0.0
H862 H 0.5017 0.54854 0.96875 0.0
H863 H 0.44148 0.4551 0.83345 0.0
H864 H 0.51535 0.46337 0.94534 0.0
H865 H 0.42883 0.54146 0.85292 0.0
H866 H 0.46376 0.45657 0.87743 0.0
H867 H 0.47119 0.54571 0.9291 0.0
C868 C 0.49805 0.52926 0.95521 0.0
C869 C 0.51087 0.50616 0.95997 0.0
C870 C 0.45592 0.47518 0.8723 0.0
C871 C 0.47625 0.50256 0.91503 0.0
C872 C 0.44309 0.47432 0.84717 0.0
C873 C 0.43351 0.49828 0.83936 0.0
C874 C 0.45955 0.50028 0.88981 0.0
C875 C 0.43594 0.52251 0.85811 0.0
C876 C 0.48069 0.52757 0.93273 0.0
C877 C 0.5057 0.48153 0.94215 0.0
N878 N 0.44907 0.52302 0.88237 0.0
N879 N 0.48885 0.48039 0.92043 0.0
H880 H 0.70866 0.82433 0.16226 0.0
H881 H 0.77494 0.68481 0.11611 0.0
H882 H 0.72241 0.7628 0.2146 0.0
H883 H 0.7559 0.74223 0.06086 0.0
H884 H 0.75771 0.71452 0.15283 0.0
H885 H 0.72858 0.79649 0.12531 0.0
C886 C 0.71608 0.80501 0.16587 0.0
C887 C 0.71364 0.79545 0.19112 0.0
C888 C 0.75724 0.72065 0.13268 0.0
C889 C 0.73622 0.76358 0.14942 0.0
C890 C 0.76705 0.70364 0.11166 0.0
C891 C 0.76676 0.71096 0.08531 0.0
C892 C 0.7471 0.74529 0.12743 0.0
C893 C 0.75635 0.73568 0.08082 0.0
C894 C 0.72728 0.78908 0.14488 0.0
C895 C 0.72356 0.77045 0.19514 0.0
N896 N 0.74695 0.75198 0.10167 0.0
N897 N 0.73431 0.7553 0.17448 0.0
H898 H 0.98239 0.94401 0.06719 0.0
H899 H 0.91647 0.04985 0.1723 0.0
H900 H 0.99814 0.03315 0.071 0.0
H901 H 0.9392 0.9723 0.19408 0.0
H902 H 0.93604 0.04011 0.12841 0.0
H903 H 0.9568 0.95051 0.10815 0.0
C904 C 0.98031 0.96487 0.07663 0.0
C905 C 0.99228 0.98809 0.06591 0.0
C906 C 0.93653 0.02518 0.1428 0.0
C907 C 0.96275 0.99568 0.11175 0.0
C908 C 0.9253 0.03063 0.16773 0.0
C909 C 0.92659 0.01204 0.18699 0.0
C910 C 0.94862 1.00069 0.13691 0.0
C911 C 0.93825 0.98744 0.18005 0.0
C912 C 0.96572 0.96857 0.09978 0.0
C913 C 0.98884 0.01478 0.07851 0.0
N914 N 0.94884 0.98243 0.15551 0.0
N915 N 0.97429 0.01787 0.10071 0.0
H916 H 0.28411 0.8088 0.24415 0.0
H917 H 0.29146 0.79654 0.08534 0.0
H918 H 0.34081 0.76426 0.20029 0.0
H919 H 0.25179 0.86003 0.13033 0.0
H920 H 0.31123 0.78626 0.12735 0.0
H921 H 0.27362 0.83014 0.2035 0.0
C922 C 0.29476 0.80416 0.22603 0.0
C923 C 0.31332 0.78495 0.22532 0.0
C924 C 0.29849 0.80272 0.12807 0.0
C925 C 0.30114 0.80845 0.17876 0.0
C926 C 0.28712 0.80862 0.10397 0.0
C927 C 0.26982 0.82916 0.10418 0.0
C928 C 0.29217 0.81705 0.15275 0.0
C929 C 0.26498 0.84399 0.12918 0.0
C930 C 0.28876 0.81618 0.20287 0.0
C931 C 0.32651 0.77918 0.20149 0.0
N932 N 0.27579 0.83737 0.15251 0.0
N933 N 0.31989 0.79055 0.17899 0.0
H934 H 0.04324 0.47829 0.08552 0.0
H935 H 0.08906 0.50371 0.24275 0.0
H936 H 0.98977 0.47701 0.15024 0.0
H937 H 0.14291 0.50412 0.1779 0.0
H938 H 0.05259 0.49193 0.20923 0.0
H939 H 0.08026 0.48439 0.11893 0.0
C940 C 0.0394 0.47876 0.10679 0.0
C941 C 0.01358 0.47732 0.11528 0.0
C942 C 0.07239 0.49457 0.20233 0.0
C943 C 0.05556 0.48488 0.15364 0.0
C944 C 0.09327 0.50141 0.22149 0.0
C945 C 0.11921 0.50506 0.21324 0.0
C946 C 0.07737 0.49133 0.17462 0.0
C947 C 0.12331 0.50164 0.18532 0.0
C948 C 0.06044 0.48252 0.12587 0.0
C949 C 0.00948 0.47835 0.14303 0.0
N950 N 0.10267 0.49503 0.16708 0.0
N951 N 0.03022 0.48229 0.16123 0.0
H952 H 0.38063 0.72791 0.26745 0.0
H953 H 0.41449 0.71291 0.42281 0.0
H954 H 0.32534 0.73903 0.32998 0.0
H955 H 0.47244 0.71917 0.36228 0.0
H956 H 0.38021 0.71602 0.38833 0.0
H957 H 0.41301 0.71787 0.30105 0.0
C958 C 0.37536 0.72813 0.28832 0.0
C959 C 0.35054 0.73476 0.29614 0.0
C960 C 0.40042 0.71658 0.38261 0.0
C961 C 0.38727 0.72304 0.33472 0.0
C962 C 0.42003 0.71474 0.40228 0.0
C963 C 0.44649 0.71594 0.39555 0.0
C964 C 0.40725 0.71942 0.35594 0.0
C965 C 0.45239 0.71835 0.36854 0.0
C966 C 0.39377 0.72236 0.30748 0.0
C967 C 0.34434 0.73406 0.32325 0.0
N968 N 0.43299 0.72004 0.34982 0.0
N969 N 0.36265 0.72854 0.34165 0.0
H970 H 0.01349 0.45102 0.02841 0.0
H971 H 0.98794 0.28712 0.03217 0.0
H972 H 0.98335 0.41482 0.09713 0.0
H973 H 0.03025 0.32379 0.96947 0.0
H974 H 0.98771 0.33352 0.0571 0.0
H975 H 0.02274 0.4048 0.00784 0.0
C976 C 0.00959 0.43328 0.03943 0.0
C977 C 0.9979 0.43646 0.06444 0.0
C978 C 0.99718 0.33141 0.03797 0.0
C979 C 0.0074 0.38352 0.04089 0.0
C980 C 0.99718 0.30489 0.0236 0.0
C981 C 0.00897 0.30145 0.99851 0.0
C982 C 0.00885 0.35482 0.02715 0.0
C983 C 0.02082 0.32535 0.98864 0.0
C984 C 0.0146 0.40692 0.02767 0.0
C985 C 0.99268 0.41302 0.07792 0.0
N986 N 0.0203 0.35098 0.00287 0.0
N987 N 0.99711 0.3874 0.0658 0.0
H988 H 0.69223 0.81544 0.29594 0.0
H989 H 0.55189 0.76696 0.35028 0.0
H990 H 0.62068 0.80873 0.24725 0.0
H991 H 0.62343 0.78279 0.40015 0.0
H992 H 0.576 0.78316 0.31256 0.0
H993 H 0.66684 0.80424 0.33469 0.0
C994 C 0.67106 0.81174 0.29364 0.0
C995 C 0.65834 0.81299 0.26869 0.0
C996 C 0.58636 0.78325 0.33182 0.0
C997 C 0.62912 0.7999 0.31252 0.0
C998 C 0.57261 0.77403 0.35337 0.0
C999 C 0.58571 0.77335 0.37838 0.0
C1000 C 0.61339 0.79172 0.33529 0.0
C1001 C 0.61254 0.78281 0.38123 0.0
C1002 C 0.65656 0.80533 0.31563 0.0
C1003 C 0.63098 0.80783 0.26632 0.0
N1004 N 0.62549 0.79143 0.35991 0.0
N1005 N 0.61719 0.80137 0.288 0.0
H1006 H 0.06132 0.04642 0.02948 0.0
H1007 H 0.0326 0.13272 0.90804 0.0
H1008 H 0.02012 0.00543 0.9568 0.0
H1009 H 0.02892 0.16445 0.99232 0.0
H1010 H 0.03845 0.08646 0.92123 0.0
H1011 H 0.06296 0.09086 0.01075 0.0
C1012 C 0.05373 0.04669 0.00903 0.0
C1013 C 0.04075 0.02243 0.99451 0.0
C1014 C 0.03629 0.10363 0.93671 0.0
C1015 C 0.04177 0.07299 0.9733 0.0
C1016 C 0.03283 0.12991 0.92926 0.0
C1017 C 0.03006 0.15238 0.94913 0.0
C1018 C 0.03781 0.10017 0.96421 0.0
C1019 C 0.03069 0.14767 0.97632 0.0
C1020 C 0.05418 0.07202 0.99858 0.0
C1021 C 0.0305 0.0238 0.96837 0.0
N1022 N 0.03477 0.1222 0.98306 0.0
N1023 N 0.03094 0.04881 0.95861 0.0
H1024 H 0.33426 0.2353 0.26067 0.0
H1025 H 0.46197 0.30453 0.19534 0.0
H1026 H 0.37093 0.31772 0.28888 0.0
H1027 H 0.41914 0.22525 0.16483 0.0
H1028 H 0.43403 0.30697 0.23468 0.0
H1029 H 0.37117 0.22763 0.23161 0.0
C1030 C 0.35058 0.25142 0.26132 0.0
C1031 C 0.34952 0.27723 0.2768 0.0
C1032 C 0.43098 0.28894 0.21945 0.0
C1033 C 0.39139 0.26922 0.24303 0.0
C1034 C 0.44692 0.28756 0.19701 0.0
C1035 C 0.44267 0.26487 0.17652 0.0
C1036 C 0.41086 0.26735 0.22146 0.0
C1037 C 0.42293 0.2434 0.17984 0.0
C1038 C 0.37148 0.24728 0.24448 0.0
C1039 C 0.37098 0.29767 0.27682 0.0
N1040 N 0.40776 0.24525 0.20167 0.0
N1041 N 0.39084 0.29346 0.2598 0.0
H1042 H 0.52974 0.49061 0.06601 0.0
H1043 H 0.57908 0.34033 0.06579 0.0
H1044 H 0.58681 0.4583 0.01291 0.0
H1045 H 0.5105 0.36478 0.10645 0.0
H1046 H 0.58947 0.38792 0.05591 0.0
H1047 H 0.53038 0.44983 0.09056 0.0
C1048 C 0.54306 0.4753 0.06016 0.0
C1049 C 0.55806 0.47753 0.03732 0.0
C1050 C 0.57232 0.38303 0.06729 0.0
C1051 C 0.55875 0.43082 0.06491 0.0
C1052 C 0.5663 0.35578 0.07296 0.0
C1053 C 0.54354 0.3483 0.08657 0.0
C1054 C 0.55545 0.40318 0.07512 0.0
C1055 C 0.5281 0.36947 0.09572 0.0
C1056 C 0.54327 0.45197 0.07398 0.0
C1057 C 0.57508 0.45733 0.03049 0.0
N1058 N 0.53413 0.39588 0.08948 0.0
N1059 N 0.57466 0.43458 0.04394 0.0
H1060 H 0.69598 0.22058 0.21416 0.0
H1061 H 0.5474 0.23973 0.1746 0.0
H1062 H 0.63083 0.19432 0.26081 0.0
H1063 H 0.60962 0.24384 0.11836 0.0
H1064 H 0.57825 0.22703 0.20816 0.0
H1065 H 0.66511 0.23249 0.17998 0.0
C1066 C 0.67511 0.21705 0.21696 0.0
C1067 C 0.66579 0.20638 0.24012 0.0
C1068 C 0.58511 0.2307 0.18845 0.0
C1069 C 0.63046 0.22048 0.20168 0.0
C1070 C 0.56755 0.2381 0.16933 0.0
C1071 C 0.5759 0.24283 0.14358 0.0
C1072 C 0.61128 0.22831 0.18191 0.0
C1073 C 0.60226 0.24029 0.13789 0.0
C1074 C 0.65753 0.22398 0.19762 0.0
C1075 C 0.63865 0.20268 0.24322 0.0
N1076 N 0.619 0.23328 0.15691 0.0
N1077 N 0.6219 0.20985 0.22428 0.0
H1078 H 0.48407 0.0461 0.01898 0.0
H1079 H 0.50671 0.21197 0.02351 0.0
H1080 H 0.46961 0.08749 0.94944 0.0
H1081 H 0.49147 0.16855 0.09277 0.0
H1082 H 0.50517 0.16676 0.995 0.0
H1083 H 0.50009 0.09115 0.0448 0.0
C1084 C 0.48491 0.06477 0.00908 0.0
C1085 C 0.47529 0.06344 0.98235 0.0
C1086 C 0.50251 0.16724 0.0165 0.0
C1087 C 0.49317 0.11488 0.01156 0.0
C1088 C 0.50345 0.19295 0.03276 0.0
C1089 C 0.49891 0.19393 0.06046 0.0
C1090 C 0.49748 0.14249 0.02821 0.0
C1091 C 0.49475 0.16874 0.07145 0.0
C1092 C 0.49386 0.09041 0.02376 0.0
C1093 C 0.47685 0.08795 0.97012 0.0
N1094 N 0.49408 0.14408 0.0553 0.0
N1095 N 0.48526 0.11287 0.98496 0.0
H1096 H 0.25185 0.31945 0.73634 0.0
H1097 H 0.31992 0.47541 0.74308 0.0
H1098 H 0.21103 0.38693 0.71447 0.0
H1099 H 0.3639 0.40441 0.74338 0.0
H1100 H 0.27954 0.44366 0.73465 0.0
H1101 H 0.29319 0.3502 0.73991 0.0
C1102 C 0.25178 0.34068 0.73188 0.0
C1103 C 0.2282 0.35087 0.72526 0.0
C1104 C 0.29805 0.43505 0.73648 0.0
C1105 C 0.27499 0.38632 0.72996 0.0
C1106 C 0.32111 0.45317 0.74146 0.0
C1107 C 0.34539 0.4426 0.74402 0.0
C1108 C 0.29919 0.40613 0.73431 0.0
C1109 C 0.34567 0.41354 0.74154 0.0
C1110 C 0.27525 0.35827 0.7341 0.0
C1111 C 0.22887 0.37858 0.72005 0.0
N1112 N 0.32293 0.39635 0.73697 0.0
N1113 N 0.25187 0.39547 0.72277 0.0
H1114 H 0.21834 0.64126 0.80987 0.0
H1115 H 0.36487 0.63085 0.76127 0.0
H1116 H 0.25762 0.69609 0.75889 0.0
H1117 H 0.32068 0.56524 0.79703 0.0
H1118 H 0.32815 0.6587 0.76698 0.0
H1119 H 0.25804 0.61699 0.81222 0.0
C1120 C 0.23554 0.64831 0.7995 0.0
C1121 C 0.23487 0.67033 0.78393 0.0
C1122 C 0.32649 0.63828 0.77373 0.0
C1123 C 0.28003 0.643 0.78637 0.0
C1124 C 0.34751 0.62233 0.77052 0.0
C1125 C 0.34582 0.5955 0.77846 0.0
C1126 C 0.30351 0.62745 0.78504 0.0
C1127 C 0.32281 0.58573 0.79047 0.0
C1128 C 0.25805 0.63446 0.80069 0.0
C1129 C 0.25744 0.67889 0.77077 0.0
N1130 N 0.30249 0.60165 0.79327 0.0
N1131 N 0.27907 0.66515 0.77217 0.0
H1132 H 0.87625 0.50363 0.46521 0.0
H1133 H 0.84735 0.35881 0.52537 0.0
H1134 H 0.93611 0.45439 0.48858 0.0
H1135 H 0.78638 0.40973 0.50779 0.0
H1136 H 0.87973 0.39324 0.51073 0.0
H1137 H 0.84263 0.46914 0.47929 0.0
C1138 C 0.88218 0.48544 0.47328 0.0
C1139 C 0.9088 0.48162 0.47577 0.0
C1140 C 0.8593 0.39697 0.51007 0.0
C1141 C 0.87081 0.44224 0.49179 0.0
C1142 C 0.8407 0.37727 0.51845 0.0
C1143 C 0.81399 0.3813 0.51782 0.0
C1144 C 0.85128 0.42102 0.50088 0.0
C1145 C 0.80673 0.40573 0.50867 0.0
C1146 C 0.8631 0.46582 0.48127 0.0
C1147 C 0.91571 0.45779 0.48612 0.0
N1148 N 0.82529 0.42467 0.5005 0.0
N1149 N 0.89684 0.439 0.49379 0.0
H1150 H 0.77794 0.85033 0.83886 0.0
H1151 H 0.70996 0.93146 0.73332 0.0
H1152 H 0.7699 0.81989 0.75405 0.0
H1153 H 0.69255 0.94177 0.81778 0.0
H1154 H 0.73141 0.89017 0.7402 0.0
H1155 H 0.7468 0.88427 0.83193 0.0
C1156 C 0.76934 0.85078 0.81885 0.0
C1157 C 0.77633 0.83261 0.79694 0.0
C1158 C 0.72249 0.90114 0.75714 0.0
C1159 C 0.74121 0.8712 0.78869 0.0
C1160 C 0.71022 0.92468 0.75322 0.0
C1161 C 0.69958 0.94009 0.77504 0.0
C1162 C 0.7247 0.89332 0.78322 0.0
C1163 C 0.70043 0.9304 0.8004 0.0
C1164 C 0.75159 0.86997 0.81487 0.0
C1165 C 0.76496 0.83383 0.7713 0.0
N1166 N 0.71327 0.9079 0.80393 0.0
N1167 N 0.74815 0.85303 0.76779 0.0
H1168 H 0.61236 0.49959 0.98242 0.0
H1169 H 0.68166 0.64795 0.03794 0.0
H1170 H 0.5822 0.55177 0.04738 0.0
H1171 H 0.72732 0.58428 0.00269 0.0
H1172 H 0.64489 0.61255 0.04049 0.0
H1173 H 0.65495 0.52852 0.98916 0.0
C1174 C 0.61517 0.51655 0.9988 0.0
C1175 C 0.59407 0.52323 0.01467 0.0
C1176 C 0.66297 0.60619 0.03238 0.0
C1177 C 0.64198 0.55705 0.02172 0.0
C1178 C 0.68395 0.62646 0.03069 0.0
C1179 C 0.70757 0.61914 0.01982 0.0
C1180 C 0.66522 0.57828 0.02262 0.0
C1181 C 0.70944 0.59084 0.01112 0.0
C1182 C 0.63929 0.53318 0.00249 0.0
C1183 C 0.59822 0.54581 0.03511 0.0
N1184 N 0.68838 0.57146 0.0123 0.0
N1185 N 0.62152 0.56224 0.03773 0.0
H1186 H 0.32014 0.68227 0.26297 0.0
H1187 H 0.17898 0.61858 0.30465 0.0
H1188 H 0.26349 0.7314 0.30128 0.0
H1189 H 0.23595 0.56827 0.2678 0.0
H1190 H 0.21032 0.65994 0.30477 0.0
H1191 H 0.29123 0.63971 0.26771 0.0
C1192 C 0.30193 0.6839 0.27315 0.0
C1193 C 0.29405 0.71009 0.28189 0.0
C1194 C 0.21597 0.63988 0.29657 0.0
C1195 C 0.26056 0.66201 0.28656 0.0
C1196 C 0.19798 0.61625 0.29629 0.0
C1197 C 0.20478 0.5899 0.28609 0.0
C1198 C 0.24102 0.63721 0.2866 0.0
C1199 C 0.22978 0.58818 0.27571 0.0
C1200 C 0.28527 0.65975 0.27552 0.0
C1201 C 0.27011 0.71142 0.29445 0.0
N1202 N 0.24701 0.61149 0.27628 0.0
N1203 N 0.25405 0.68773 0.29615 0.0
H1204 H 0.91775 0.50401 0.10712 0.0
H1205 H 0.85391 0.59546 0.00458 0.0
H1206 H 0.94962 0.51724 0.03036 0.0
H1207 H 0.81896 0.5758 0.07851 0.0
H1208 H 0.88831 0.56579 0.01265 0.0
H1209 H 0.88097 0.5299 0.09661 0.0
C1210 C 0.91692 0.51254 0.08808 0.0
C1211 C 0.93659 0.50872 0.06959 0.0
C1212 C 0.87299 0.56781 0.02699 0.0
C1213 C 0.8947 0.5381 0.0572 0.0
C1214 C 0.85328 0.58468 0.02235 0.0
C1215 C 0.83357 0.58829 0.04097 0.0
C1216 C 0.87307 0.55454 0.0505 0.0
C1217 C 0.83379 0.57377 0.06364 0.0
C1218 C 0.89593 0.52713 0.08197 0.0
C1219 C 0.93467 0.51978 0.04503 0.0
N1220 N 0.85332 0.55774 0.06785 0.0
N1221 N 0.91413 0.53407 0.03955 0.0
H1222 H 0.0906 0.00791 0.05222 0.0
H1223 H 0.16875 0.88378 0.99008 0.0
H1224 H 0.06268 0.9509 0.98215 0.0
H1225 H 0.19998 0.94646 0.05507 0.0
H1226 H 0.13238 0.91126 0.98305 0.0
H1227 H 0.13349 0.98982 0.04957 0.0
C1228 C 0.09395 0.99217 0.03576 0.0
C1229 C 0.07341 0.98087 0.01728 0.0
C1230 C 0.14736 0.91918 0.99864 0.0
C1231 C 0.12182 0.95929 0.01453 0.0
C1232 C 0.16815 0.90346 0.00268 0.0
C1233 C 0.18734 0.91261 0.02344 0.0
C1234 C 0.14557 0.94416 0.01559 0.0
C1235 C 0.18556 0.9384 0.03899 0.0
C1236 C 0.11825 0.98163 0.03434 0.0
C1237 C 0.07828 0.96019 0.99655 0.0
N1238 N 0.16492 0.95306 0.03496 0.0
N1239 N 0.10187 0.9497 0.99596 0.0
loop_
_geom_bond_atom_site_label_1
_geom_bond_atom_site_label_2
_geom_bond_distance
_geom_bond_site_symmetry_2
_ccdc_geom_bond_type
C0 N1 1.317 . S
C0 N2 1.348 1_465 S
C0 C3 1.485 . S
N1 C0 1.317 . S
N1 N5 1.370 1_565 S
N2 C0 1.348 1_645 S
N2 C4 1.346 . S
C3 C0 1.485 . S
C3 H7 0.960 . S
C3 H8 0.961 . S
C3 H9 0.960 . S
C4 N2 1.346 . S
C4 N5 1.307 1_655 S
C4 C6 1.486 . S
N5 N1 1.370 1_545 S
N5 C4 1.307 1_455 S
C6 C4 1.486 . S
C6 H10 0.960 . S
C6 H11 0.960 . S
C6 H12 0.959 . S
H7 C3 0.960 . S
H8 C3 0.961 . S
H9 C3 0.960 . S
H10 C6 0.960 . S
H11 C6 0.960 . S
H12 C6 0.959 . S
C13 N14 1.317 . S
C13 N15 1.348 . S
C13 C16 1.485 . S
N14 C13 1.317 . S
N14 N18 1.370 . S
N15 C13 1.348 . S
N15 C17 1.346 . S
C16 C13 1.485 . S
C16 H20 0.960 . S
C16 H21 0.961 . S
C16 H22 0.960 . S
C17 N15 1.346 . S
C17 N18 1.307 . S
C17 C19 1.486 . S
N18 N14 1.370 . S
N18 C17 1.307 . S
C19 C17 1.486 . S
C19 H23 0.960 . S
C19 H24 0.960 . S
C19 H25 0.959 . S
H20 C16 0.960 . S
H21 C16 0.961 . S
H22 C16 0.960 . S
H23 C19 0.960 . S
H24 C19 0.960 . S
H25 C19 0.959 . S
C26 N27 1.317 . S
C26 N28 1.348 . S
C26 C29 1.485 . S
N27 C26 1.317 . S
N27 N31 1.370 . S
N28 C26 1.348 . S
N28 C30 1.346 . S
C29 C26 1.485 . S
C29 H33 0.960 . S
C29 H34 0.961 . S
C29 H35 1.001 . S
C30 N28 1.346 . S
C30 N31 1.307 . S
C30 C32 1.486 . S
N31 N27 1.370 . S
N31 C30 1.307 . S
C32 C30 1.486 . S
C32 H36 0.960 . S
C32 H37 0.960 . S
C32 H38 0.959 . S
H33 C29 0.960 . S
H34 C29 0.961 . S
H35 C29 1.001 . S
H36 C32 0.960 . S
H37 C32 0.960 . S
H38 C32 0.959 . S
C39 N40 1.317 . S
C39 N41 1.348 . S
C39 C42 1.485 . S
N40 C39 1.317 . S
N40 N44 1.370 . S
N41 C39 1.348 . S
N41 C43 1.346 . S
C42 C39 1.485 . S
C42 H46 0.960 . S
C42 H47 0.961 . S
C42 H48 0.960 . S
C43 N41 1.346 . S
C43 N44 1.307 . S
C43 C45 1.486 . S
N44 N40 1.370 . S
N44 C43 1.307 . S
C45 C43 1.486 . S
C45 H49 0.960 . S
C45 H50 0.960 . S
C45 H51 0.959 . S
H46 C42 0.960 . S
H47 C42 0.961 . S
H48 C42 0.960 . S
H49 C45 0.960 . S
H50 C45 0.960 . S
H51 C45 0.959 . S
C52 N53 1.317 . S
C52 N54 1.348 . S
C52 C55 1.485 . S
N53 C52 1.317 . S
N53 N57 1.370 . S
N54 C52 1.348 . S
N54 C56 1.355 . S
C55 C52 1.485 . S
C55 H59 0.960 . S
C55 H60 0.961 1_455 S
C55 H61 0.960 . S
C56 N54 1.355 . S
C56 N57 1.317 . S
C56 C58 1.470 1_565 S
N57 N53 1.370 . S
N57 C56 1.317 . S
C58 C56 1.470 1_545 S
C58 H62 0.960 . S
C58 H63 0.960 . S
C58 H64 0.959 . S
H59 C55 0.960 . S
H60 C55 0.961 1_655 S
H61 C55 0.960 . S
H62 C58 0.960 . S
H63 C58 0.960 . S
H64 C58 0.959 . S
C65 N66 1.317 . S
C65 N67 1.348 . S
C65 C68 1.485 . S
N66 C65 1.317 . S
N66 N70 1.370 . S
N67 C65 1.348 . S
N67 C69 1.346 . S
C68 C65 1.485 . S
C68 H72 0.960 . S
C68 H73 0.961 . S
C68 H74 0.960 . S
C69 N67 1.346 . S
C69 N70 1.307 . S
C69 C71 1.486 . S
N70 N66 1.370 . S
N70 C69 1.307 . S
C71 C69 1.486 . S
C71 H75 0.960 . S
C71 H76 0.960 . S
C71 H77 0.959 . S
H72 C68 0.960 . S
H73 C68 0.961 . S
H74 C68 0.960 . S
H75 C71 0.960 . S
H76 C71 0.960 . S
H77 C71 0.959 . S
C78 N79 1.317 . S
C78 N80 1.348 . S
C78 C81 1.485 . S
N79 C78 1.317 . S
N79 N83 1.370 . S
N80 C78 1.348 . S
N80 C82 1.346 . S
C81 C78 1.485 . S
C81 H85 0.960 . S
C81 H86 0.961 . S
C81 H87 0.960 . S
C82 N80 1.346 . S
C82 N83 1.307 . S
C82 C84 1.486 . S
N83 N79 1.370 . S
N83 C82 1.307 . S
C84 C82 1.486 . S
C84 H88 0.960 . S
C84 H89 0.960 . S
C84 H90 0.959 . S
H85 C81 0.960 . S
H86 C81 0.961 . S
H87 C81 0.960 . S
H88 C84 0.960 . S
H89 C84 0.960 . S
H90 C84 0.959 . S
C91 N92 1.317 . S
C91 N93 1.348 . S
C91 C94 1.485 . S
N92 C91 1.317 . S
N92 N96 1.370 . S
N93 C91 1.348 . S
N93 C95 1.346 . S
C94 C91 1.485 . S
C94 H98 0.960 . S
C94 H99 0.961 . S
C94 H100 0.960 . S
C95 N93 1.346 . S
C95 N96 1.307 . S
C95 C97 1.486 . S
N96 N92 1.370 . S
N96 C95 1.307 . S
C97 C95 1.486 . S
C97 H101 0.960 . S
C97 H102 0.960 . S
C97 H103 0.959 . S
H98 C94 0.960 . S
H99 C94 0.961 . S
H100 C94 0.960 . S
H101 C97 0.960 . S
H102 C97 0.960 . S
H103 C97 0.959 . S
C104 N105 1.317 . S
C104 N106 1.348 . S
C104 C107 1.485 . S
N105 C104 1.317 . S
N105 N109 1.370 . S
N106 C104 1.348 . S
N106 C108 1.346 . S
C107 C104 1.485 . S
C107 H111 0.960 . S
C107 H112 0.961 . S
C107 H113 0.960 . S
C108 N106 1.346 . S
C108 N109 1.307 . S
C108 C110 1.486 . S
N109 N105 1.370 . S
N109 C108 1.307 . S
C110 C108 1.486 . S
C110 H114 0.960 . S
C110 H115 0.960 . S
C110 H116 0.959 . S
H111 C107 0.960 . S
H112 C107 0.961 . S
H113 C107 0.960 . S
H114 C110 0.960 . S
H115 C110 0.960 . S
H116 C110 0.959 . S
C117 N118 1.317 . S
C117 N119 1.348 . S
C117 C120 1.485 1_565 S
N118 C117 1.317 . S
N118 N122 1.370 . S
N119 C117 1.348 . S
N119 C121 1.346 . S
C120 C117 1.485 1_545 S
C120 H124 0.960 . S
C120 H125 0.961 . S
C120 H126 0.960 . S
C121 N119 1.346 . S
C121 N122 1.307 . S
C121 C123 1.486 . S
N122 N118 1.370 . S
N122 C121 1.307 . S
C123 C121 1.486 . S
C123 H127 0.960 . S
C123 H128 0.960 . S
C123 H129 0.959 . S
H124 C120 0.960 . S
H125 C120 0.961 . S
H126 C120 0.960 . S
H127 C123 0.960 . S
H128 C123 0.960 . S
H129 C123 0.959 . S
C130 N131 1.317 . S
C130 N132 1.348 . S
C130 C133 1.485 . S
N131 C130 1.317 . S
N131 N135 1.370 . S
N132 C130 1.348 . S
N132 C134 1.346 . S
C133 C130 1.485 . S
C133 H137 0.960 . S
C133 H138 0.961 . S
C133 H139 0.960 . S
C134 N132 1.346 . S
C134 N135 1.307 . S
C134 C136 1.486 . S
N135 N131 1.370 . S
N135 C134 1.307 . S
C136 C134 1.486 . S
C136 H140 0.960 . S
C136 H141 0.960 . S
C136 H142 0.959 . S
H137 C133 0.960 . S
H138 C133 0.961 . S
H139 C133 0.960 . S
H140 C136 0.960 . S
H141 C136 0.960 . S
H142 C136 0.959 . S
C143 N144 1.317 . S
C143 N145 1.348 . S
C143 C146 1.485 . S
N144 C143 1.317 . S
N144 N148 1.370 . S
N145 C143 1.348 . S
N145 C147 1.346 . S
C146 C143 1.485 . S
C146 H150 0.960 . S
C146 H151 0.961 . S
C146 H152 0.960 . S
C147 N145 1.346 . S
C147 N148 1.307 . S
C147 C149 1.486 . S
N148 N144 1.370 . S
N148 C147 1.307 . S
C149 C147 1.486 . S
C149 H153 0.960 . S
C149 H154 0.960 . S
C149 H155 0.959 . S
H150 C146 0.960 . S
H151 C146 0.961 . S
H152 C146 0.960 . S
H153 C149 0.960 . S
H154 C149 0.960 . S
H155 C149 0.959 . S
C156 N157 1.317 . S
C156 N158 1.348 . S
C156 C159 1.485 . S
N157 C156 1.317 . S
N157 N161 1.370 . S
N158 C156 1.348 . S
N158 C160 1.346 . S
C159 C156 1.485 . S
C159 H163 0.960 . S
C159 H164 0.961 . S
C159 H165 0.960 . S
C160 N158 1.346 . S
C160 N161 1.307 . S
C160 C162 1.486 . S
N161 N157 1.370 . S
N161 C160 1.307 . S
C162 C160 1.486 . S
C162 H166 0.960 . S
C162 H167 0.960 . S
C162 H168 0.959 . S
H163 C159 0.960 . S
H164 C159 0.961 . S
H165 C159 0.960 . S
H166 C162 0.960 . S
H167 C162 0.960 . S
H168 C162 0.959 . S
C169 N170 1.317 . S
C169 N171 1.348 . S
C169 C172 1.485 . S
N170 C169 1.317 . S
N170 N174 1.370 . S
N171 C169 1.348 . S
N171 C173 1.346 . S
C172 C169 1.485 . S
C172 H176 0.960 . S
C172 H177 0.961 . S
C172 H178 0.960 . S
C173 N171 1.346 . S
C173 N174 1.307 . S
C173 C175 1.486 . S
N174 N170 1.370 . S
N174 C173 1.307 . S
C175 C173 1.486 . S
C175 H179 0.960 . S
C175 H180 0.960 . S
C175 H181 0.959 . S
H176 C172 0.960 . S
H177 C172 0.961 . S
H178 C172 0.960 . S
H179 C175 0.960 . S
H180 C175 0.960 . S
H181 C175 0.959 . S
C182 N183 1.317 . S
C182 N184 1.348 . S
C182 C185 1.485 . S
N183 C182 1.317 . S
N183 N187 1.370 . S
N184 C182 1.348 . S
N184 C186 1.346 . S
C185 C182 1.485 . S
C185 H189 0.960 . S
C185 H190 0.961 . S
C185 H191 0.960 . S
C186 N184 1.346 . S
C186 N187 1.307 . S
C186 C188 1.486 . S
N187 N183 1.370 . S
N187 C186 1.307 . S
C188 C186 1.486 . S
C188 H192 0.960 . S
C188 H193 0.960 . S
C188 H194 0.959 . S
H189 C185 0.960 . S
H190 C185 0.961 . S
H191 C185 0.960 . S
H192 C188 0.960 . S
H193 C188 0.960 . S
H194 C188 0.959 . S
C195 N196 1.317 . S
C195 N197 1.348 . S
C195 C198 1.485 1_545 S
N196 C195 1.317 . S
N196 N200 1.370 . S
N197 C195 1.348 . S
N197 C199 1.346 . S
C198 C195 1.485 1_565 S
C198 H202 0.960 . S
C198 H203 0.961 . S
C198 H204 0.960 . S
C199 N197 1.346 . S
C199 N200 1.307 . S
C199 C201 1.486 1_556 S
N200 N196 1.370 . S
N200 C199 1.307 . S
C201 C199 1.486 1_554 S
C201 H205 0.960 . S
C201 H206 0.960 . S
C201 H207 0.959 . S
H202 C198 0.960 . S
H203 C198 0.961 . S
H204 C198 0.960 . S
H205 C201 0.960 . S
H206 C201 0.960 . S
H207 C201 0.959 . S
Mg208 O209 2.028 . S
Mg208 O215 1.986 1_554 S
Mg208 O217 2.114 . S
Mg208 O218 2.251 . S
Mg208 O221 2.010 . S
O209 Mg208 2.028 . S
O209 C212 1.250 . S
O210 Mg211 2.028 1_554 S
O210 C212 1.248 . S
Mg211 O210 2.028 1_556 S
Mg211 O216 2.034 . S
Mg211 O218 2.077 1_556 S
C212 O209 1.250 . S
C212 O210 1.248 . S
C213 O214 1.264 . S
C213 O221 1.249 . S
O214 C213 1.264 . S
O215 Mg208 1.986 1_556 S
O215 C219 1.246 . S
O216 Mg211 2.034 . S
O216 C219 1.259 . S
O217 Mg208 2.114 . S
O217 C220 1.252 . S
O218 Mg208 2.251 . S
O218 Mg211 2.077 1_554 S
O218 C220 1.273 . S
C219 O215 1.246 . S
C219 O216 1.259 . S
C220 O217 1.252 . S
C220 O218 1.273 . S
O221 Mg208 2.010 . S
O221 C213 1.249 . S
Mg222 O223 2.028 . S
Mg222 O229 1.986 . S
Mg222 O231 2.114 . S
Mg222 O232 2.251 . S
Mg222 O235 2.010 . S
O223 Mg222 2.028 . S
O223 C226 1.250 . S
O224 Mg225 2.028 . S
O224 C226 1.248 . S
Mg225 O224 2.028 . S
Mg225 O230 2.032 . S
Mg225 O232 2.079 . S
C226 O223 1.250 . S
C226 O224 1.248 . S
C227 O228 1.264 . S
C227 O235 1.249 . S
O228 C227 1.264 . S
O229 Mg222 1.986 . S
O229 C233 1.246 . S
O230 Mg225 2.032 . S
O230 C233 1.259 . S
O231 Mg222 2.114 . S
O231 C234 1.252 . S
O232 Mg222 2.251 . S
O232 Mg225 2.079 . S
O232 C234 1.273 . S
C233 O229 1.246 . S
C233 O230 1.259 . S
C234 O231 1.252 . S
C234 O232 1.273 . S
O235 Mg222 2.010 . S
O235 C227 1.249 . S
Mg236 O237 2.028 . S
Mg236 O243 1.986 1_554 S
Mg236 O245 2.114 . S
Mg236 O246 2.251 . S
Mg236 O249 2.010 . S
O237 Mg236 2.028 . S
O237 C240 1.250 . S
O238 Mg239 2.028 . S
O238 C240 1.248 . S
Mg239 O238 2.028 . S
Mg239 O244 2.032 1_554 S
Mg239 O246 2.079 . S
C240 O237 1.250 . S
C240 O238 1.248 . S
C241 O242 1.264 . S
C241 O249 1.249 . S
O242 C241 1.264 . S
O243 Mg236 1.986 1_556 S
O243 C247 1.246 . S
O244 Mg239 2.032 1_556 S
O244 C247 1.259 . S
O245 Mg236 2.114 . S
O245 C248 1.252 . S
O246 Mg236 2.251 . S
O246 Mg239 2.079 . S
O246 C248 1.273 . S
C247 O243 1.246 . S
C247 O244 1.259 . S
C248 O245 1.252 . S
C248 O246 1.273 . S
O249 Mg236 2.010 . S
O249 C241 1.249 . S
Mg250 O251 2.028 1_545 S
Mg250 O257 1.986 . S
Mg250 O259 2.114 . S
Mg250 O260 2.251 1_545 S
Mg250 O263 2.010 . S
O251 Mg250 2.028 1_565 S
O251 C254 1.250 . S
O252 Mg253 2.028 . S
O252 C254 1.248 . S
Mg253 O252 2.028 . S
Mg253 O258 2.032 . S
Mg253 O260 2.079 . S
C254 O251 1.250 . S
C254 O252 1.248 . S
C255 O256 1.264 . S
C255 O263 1.249 . S
O256 C255 1.264 . S
O257 Mg250 1.986 . S
O257 C261 1.246 . S
O258 Mg253 2.032 . S
O258 C261 1.259 1_565 S
O259 Mg250 2.114 . S
O259 C262 1.252 . S
O260 Mg250 2.251 1_565 S
O260 Mg253 2.079 . S
O260 C262 1.273 1_565 S
C261 O257 1.246 . S
C261 O258 1.259 1_545 S
C262 O259 1.252 . S
C262 O260 1.273 1_545 S
O263 Mg250 2.010 . S
O263 C255 1.249 . S
Mg264 O265 2.028 . S
Mg264 O271 1.986 . S
Mg264 O273 2.114 . S
Mg264 O274 2.251 . S
Mg264 O277 2.010 . S
O265 Mg264 2.028 . S
O265 C268 1.250 . S
O266 Mg267 2.028 . S
O266 C268 1.248 . S
Mg267 O266 2.028 . S
Mg267 O272 2.032 . S
Mg267 O274 2.079 . S
C268 O265 1.250 . S
C268 O266 1.248 . S
C269 O270 1.264 . S
C269 O277 1.249 . S
O270 C269 1.264 . S
O271 Mg264 1.986 . S
O271 C275 1.246 . S
O272 Mg267 2.032 . S
O272 C275 1.259 . S
O273 Mg264 2.114 . S
O273 C276 1.252 . S
O274 Mg264 2.251 . S
O274 Mg267 2.079 . S
O274 C276 1.273 . S
C275 O271 1.246 . S
C275 O272 1.259 . S
C276 O273 1.252 . S
C276 O274 1.273 . S
O277 Mg264 2.010 . S
O277 C269 1.249 . S
Mg278 O279 2.028 . S
Mg278 O285 1.986 . S
Mg278 O287 2.114 . S
Mg278 O288 2.251 . S
Mg278 O291 2.010 . S
O279 Mg278 2.028 . S
O279 C282 1.250 . S
O280 Mg281 2.028 . S
O280 C282 1.248 . S
Mg281 O280 2.028 . S
Mg281 O286 2.032 . S
Mg281 O288 2.079 . S
C282 O279 1.250 . S
C282 O280 1.248 . S
C283 O284 1.264 . S
C283 O291 1.249 . S
O284 C283 1.264 . S
O285 Mg278 1.986 . S
O285 C289 1.246 . S
O286 Mg281 2.032 . S
O286 C289 1.259 . S
O287 Mg278 2.114 . S
O287 C290 1.252 . S
O288 Mg278 2.251 . S
O288 Mg281 2.079 . S
O288 C290 1.273 . S
C289 O285 1.246 . S
C289 O286 1.259 . S
C290 O287 1.252 . S
C290 O288 1.273 . S
O291 Mg278 2.010 . S
O291 C283 1.249 . S
Mg292 O293 2.028 . S
Mg292 O299 1.986 . S
Mg292 O301 2.114 . S
Mg292 O302 2.251 . S
Mg292 O305 2.010 . S
O293 Mg292 2.028 . S
O293 C296 1.250 . S
O294 Mg295 2.028 . S
O294 C296 1.248 . S
Mg295 O294 2.028 . S
Mg295 O300 2.032 . S
Mg295 O302 2.079 . S
C296 O293 1.250 . S
C296 O294 1.248 . S
C297 O298 1.264 . S
C297 O305 1.249 . S
O298 C297 1.264 . S
O299 Mg292 1.986 . S
O299 C303 1.246 . S
O300 Mg295 2.032 . S
O300 C303 1.259 . S
O301 Mg292 2.114 . S
O301 C304 1.252 . S
O302 Mg292 2.251 . S
O302 Mg295 2.079 . S
O302 C304 1.273 . S
C303 O299 1.246 . S
C303 O300 1.259 . S
C304 O301 1.252 . S
C304 O302 1.273 . S
O305 Mg292 2.010 . S
O305 C297 1.249 . S
Mg306 O307 2.028 . S
Mg306 O313 1.986 1_545 S
Mg306 O315 2.114 . S
Mg306 O316 2.251 . S
Mg306 O319 2.010 . S
O307 Mg306 2.028 . S
O307 C310 1.250 1_545 S
O308 Mg309 2.030 1_565 S
O308 C310 1.248 . S
Mg309 O308 2.030 1_545 S
Mg309 O314 2.007 1_545 S
Mg309 O316 2.099 . S
C310 O307 1.250 1_565 S
C310 O308 1.248 . S
C311 O312 1.264 . S
C311 O319 1.249 . S
O312 C311 1.264 . S
O313 Mg306 1.986 1_565 S
O313 C317 1.246 . S
O314 Mg309 2.007 1_565 S
O314 C317 1.259 . S
O315 Mg306 2.114 . S
O315 C318 1.252 . S
O316 Mg306 2.251 . S
O316 Mg309 2.099 . S
O316 C318 1.273 . S
C317 O313 1.246 . S
C317 O314 1.259 . S
C318 O315 1.252 . S
C318 O316 1.273 . S
O319 Mg306 2.010 . S
O319 C311 1.249 . S
Mg320 O321 2.028 1_455 S
Mg320 O327 1.986 . S
Mg320 O329 2.114 . S
Mg320 O330 2.251 1_455 S
Mg320 O333 2.010 . S
O321 Mg320 2.028 1_655 S
O321 C324 1.250 . S
O322 Mg323 2.028 . S
O322 C324 1.248 . S
Mg323 O322 2.028 . S
Mg323 O328 2.032 . S
Mg323 O330 2.079 . S
C324 O321 1.250 . S
C324 O322 1.248 . S
C325 O326 1.264 . S
C325 O333 1.249 . S
O326 C325 1.264 . S
O327 Mg320 1.986 . S
O327 C331 1.246 . S
O328 Mg323 2.032 . S
O328 C331 1.259 1_655 S
O329 Mg320 2.114 . S
O329 C332 1.252 . S
O330 Mg320 2.251 1_655 S
O330 Mg323 2.079 . S
O330 C332 1.273 1_655 S
C331 O327 1.246 . S
C331 O328 1.259 1_455 S
C332 O329 1.252 . S
C332 O330 1.273 1_455 S
O333 Mg320 2.010 . S
O333 C325 1.249 . S
Mg334 O335 2.028 . S
Mg334 O341 1.986 . S
Mg334 O343 2.114 . S
Mg334 O344 2.251 . S
Mg334 O347 2.010 . S
O335 Mg334 2.028 . S
O335 C338 1.250 . S
O336 Mg337 2.028 . S
O336 C338 1.248 . S
Mg337 O336 2.028 . S
Mg337 O342 2.032 . S
Mg337 O344 2.079 . S
C338 O335 1.250 . S
C338 O336 1.248 . S
C339 O340 1.264 . S
C339 O347 1.249 . S
O340 C339 1.264 . S
O341 Mg334 1.986 . S
O341 C345 1.246 . S
O342 Mg337 2.032 . S
O342 C345 1.259 . S
O343 Mg334 2.114 . S
O343 C346 1.252 . S
O344 Mg334 2.251 . S
O344 Mg337 2.079 . S
O344 C346 1.273 . S
C345 O341 1.246 . S
C345 O342 1.259 . S
C346 O343 1.252 . S
C346 O344 1.273 . S
O347 Mg334 2.010 . S
O347 C339 1.249 . S
Mg348 O349 2.028 . S
Mg348 O355 1.986 . S
Mg348 O357 2.114 1_455 S
Mg348 O358 2.251 . S
Mg348 O361 2.010 1_455 S
O349 Mg348 2.028 . S
O349 C352 1.250 . S
O350 Mg351 2.028 . S
O350 C352 1.248 . S
Mg351 O350 2.028 . S
Mg351 O356 2.032 . S
Mg351 O358 2.079 . S
C352 O349 1.250 . S
C352 O350 1.248 . S
C353 O354 1.264 . S
C353 O361 1.249 . S
O354 C353 1.264 . S
O355 Mg348 1.986 . S
O355 C359 1.246 . S
O356 Mg351 2.032 . S
O356 C359 1.259 . S
O357 Mg348 2.114 1_655 S
O357 C360 1.252 1_655 S
O358 Mg348 2.251 . S
O358 Mg351 2.079 . S
O358 C360 1.273 . S
C359 O355 1.246 . S
C359 O356 1.259 . S
C360 O357 1.252 1_455 S
C360 O358 1.273 . S
O361 Mg348 2.010 1_655 S
O361 C353 1.249 . S
Mg362 O363 2.028 . S
Mg362 O369 1.986 . S
Mg362 O371 2.114 . S
Mg362 O372 2.251 . S
Mg362 O375 2.010 . S
O363 Mg362 2.028 . S
O363 C366 1.250 . S
O364 Mg365 2.028 . S
O364 C366 1.248 . S
Mg365 O364 2.028 . S
Mg365 O370 2.032 . S
Mg365 O372 2.079 . S
C366 O363 1.250 . S
C366 O364 1.248 . S
C367 O368 1.264 . S
C367 O375 1.249 . S
O368 C367 1.264 . S
O369 Mg362 1.986 . S
O369 C373 1.246 . S
O370 Mg365 2.032 . S
O370 C373 1.259 . S
O371 Mg362 2.114 . S
O371 C374 1.252 . S
O372 Mg362 2.251 . S
O372 Mg365 2.079 . S
O372 C374 1.273 . S
C373 O369 1.246 . S
C373 O370 1.259 . S
C374 O371 1.252 . S
C374 O372 1.273 . S
O375 Mg362 2.010 . S
O375 C367 1.249 . S
H376 C382 0.930 . S
H377 C386 0.930 . S
H378 C391 0.929 . S
H379 C389 0.929 . S
H380 C384 0.929 . S
H381 C390 0.929 . S
C382 H376 0.930 . S
C382 C383 1.367 . S
C382 C390 1.378 . S
C383 C382 1.367 . S
C383 C391 1.433 . S
C384 H380 0.929 . S
C384 C386 1.378 . S
C384 C388 1.350 . S
C385 C388 1.463 . S
C385 C390 1.350 . S
C385 N393 1.427 . S
C386 H377 0.930 . S
C386 C384 1.378 . S
C386 C387 1.367 . S
C387 C386 1.367 . S
C387 C389 1.433 . S
C388 C384 1.350 . S
C388 C385 1.463 . S
C388 N392 1.427 . S
C389 H379 0.929 . S
C389 C387 1.433 . S
C389 N392 1.384 . S
C390 H381 0.929 . S
C390 C382 1.378 . S
C390 C385 1.350 . S
C391 H378 0.929 . S
C391 C383 1.433 . S
C391 N393 1.384 . S
N392 C388 1.427 . S
N392 C389 1.384 . S
N393 C385 1.427 . S
N393 C391 1.384 . S
H394 C400 0.930 . S
H395 C404 0.930 . S
H396 C409 0.929 . S
H397 C407 0.929 . S
H398 C402 0.929 . S
H399 C408 0.929 . S
C400 H394 0.930 . S
C400 C401 1.367 . S
C400 C408 1.378 1_655 S
C401 C400 1.367 . S
C401 C409 1.433 . S
C402 H398 0.929 . S
C402 C404 1.378 . S
C402 C406 1.350 . S
C403 C406 1.463 . S
C403 C408 1.350 . S
C403 N411 1.427 . S
C404 H395 0.930 . S
C404 C402 1.378 . S
C404 C405 1.367 . S
C405 C404 1.367 . S
C405 C407 1.433 . S
C406 C402 1.350 . S
C406 C403 1.463 . S
C406 N410 1.427 . S
C407 H397 0.929 . S
C407 C405 1.433 . S
C407 N410 1.384 . S
C408 H399 0.929 . S
C408 C400 1.378 1_455 S
C408 C403 1.350 . S
C409 H396 0.929 . S
C409 C401 1.433 . S
C409 N411 1.384 1_655 S
N410 C406 1.427 . S
N410 C407 1.384 . S
N411 C403 1.427 . S
N411 C409 1.384 1_455 S
H412 C418 0.930 . S
H413 C422 0.930 . S
H414 C427 0.929 . S
H415 C425 0.929 . S
H416 C420 0.929 . S
H417 C426 0.929 . S
C418 H412 0.930 . S
C418 C419 1.367 . S
C418 C426 1.378 . S
C419 C418 1.367 . S
C419 C427 1.433 . S
C420 H416 0.929 . S
C420 C422 1.378 . S
C420 C424 1.350 . S
C421 C424 1.463 . S
C421 C426 1.350 . S
C421 N429 1.427 . S
C422 H413 0.930 . S
C422 C420 1.378 . S
C422 C423 1.367 . S
C423 C422 1.367 . S
C423 C425 1.433 . S
C424 C420 1.350 . S
C424 C421 1.463 . S
C424 N428 1.427 . S
C425 H415 0.929 . S
C425 C423 1.433 . S
C425 N428 1.384 . S
C426 H417 0.929 . S
C426 C418 1.378 . S
C426 C421 1.350 . S
C427 H414 0.929 . S
C427 C419 1.433 . S
C427 N429 1.384 . S
N428 C424 1.427 . S
N428 C425 1.384 . S
N429 C421 1.427 . S
N429 C427 1.384 . S
H430 C436 0.930 . S
H431 C440 0.931 . S
H432 C445 0.929 . S
H433 C443 0.929 . S
H434 C438 0.929 . S
H435 C444 0.929 1_545 S
C436 H430 0.930 . S
C436 C437 1.367 . S
C436 C444 1.378 . S
C437 C436 1.367 . S
C437 C445 1.433 1_455 S
C438 H434 0.929 . S
C438 C440 1.386 . S
C438 C442 1.350 . S
C439 C442 1.463 . S
C439 C444 1.350 1_655 S
C439 N447 1.427 . S
C440 H431 0.931 . S
C440 C438 1.386 . S
C440 C441 1.359 1_565 S
C441 C440 1.359 1_545 S
C441 C443 1.433 . S
C442 C438 1.350 . S
C442 C439 1.463 . S
C442 N446 1.427 1_565 S
C443 H433 0.929 . S
C443 C441 1.433 . S
C443 N446 1.384 . S
C444 H435 0.929 1_565 S
C444 C436 1.378 . S
C444 C439 1.350 1_455 S
C445 H432 0.929 . S
C445 C437 1.433 1_655 S
C445 N447 1.384 . S
N446 C442 1.427 1_545 S
N446 C443 1.384 . S
N447 C439 1.427 . S
N447 C445 1.384 . S
H448 C454 0.930 . S
H449 C458 0.930 . S
H450 C463 0.929 . S
H451 C461 0.929 . S
H452 C456 0.929 . S
H453 C462 0.929 . S
C454 H448 0.930 . S
C454 C455 1.367 . S
C454 C462 1.378 . S
C455 C454 1.367 . S
C455 C463 1.433 . S
C456 H452 0.929 . S
C456 C458 1.378 . S
C456 C460 1.350 . S
C457 C460 1.463 . S
C457 C462 1.350 . S
C457 N465 1.427 . S
C458 H449 0.930 . S
C458 C456 1.378 . S
C458 C459 1.367 . S
C459 C458 1.367 . S
C459 C461 1.433 . S
C460 C456 1.350 . S
C460 C457 1.463 . S
C460 N464 1.427 . S
C461 H451 0.929 . S
C461 C459 1.433 . S
C461 N464 1.384 . S
C462 H453 0.929 . S
C462 C454 1.378 . S
C462 C457 1.350 . S
C463 H450 0.929 . S
C463 C455 1.433 . S
C463 N465 1.384 . S
N464 C460 1.427 . S
N464 C461 1.384 . S
N465 C457 1.427 . S
N465 C463 1.384 . S
H466 C472 0.930 . S
H467 C476 0.930 . S
H468 C481 0.929 . S
H469 C479 0.929 . S
H470 C474 0.929 . S
H471 C480 0.929 . S
C472 H466 0.930 . S
C472 C473 1.367 . S
C472 C480 1.378 . S
C473 C472 1.367 . S
C473 C481 1.433 . S
C474 H470 0.929 . S
C474 C476 1.378 . S
C474 C478 1.350 . S
C475 C478 1.463 . S
C475 C480 1.350 . S
C475 N483 1.427 . S
C476 H467 0.930 . S
C476 C474 1.378 . S
C476 C477 1.367 . S
C477 C476 1.367 . S
C477 C479 1.433 . S
C478 C474 1.350 . S
C478 C475 1.463 . S
C478 N482 1.427 . S
C479 H469 0.929 . S
C479 C477 1.433 . S
C479 N482 1.384 . S
C480 H471 0.929 . S
C480 C472 1.378 . S
C480 C475 1.350 . S
C481 H468 0.929 . S
C481 C473 1.433 . S
C481 N483 1.384 . S
N482 C478 1.427 . S
N482 C479 1.384 . S
N483 C475 1.427 . S
N483 C481 1.384 . S
H484 C490 0.930 . S
H485 C494 0.930 . S
H486 C499 0.929 . S
H487 C497 0.929 . S
H488 C492 0.929 . S
H489 C498 0.929 . S
C490 H484 0.930 . S
C490 C491 1.367 . S
C490 C498 1.378 . S
C491 C490 1.367 . S
C491 C499 1.433 . S
C492 H488 0.929 . S
C492 C494 1.378 . S
C492 C496 1.350 . S
C493 C496 1.463 . S
C493 C498 1.350 . S
C493 N501 1.427 . S
C494 H485 0.930 . S
C494 C492 1.378 . S
C494 C495 1.367 . S
C495 C494 1.367 . S
C495 C497 1.433 . S
C496 C492 1.350 . S
C496 C493 1.463 . S
C496 N500 1.427 . S
C497 H487 0.929 . S
C497 C495 1.433 . S
C497 N500 1.384 . S
C498 H489 0.929 . S
C498 C490 1.378 . S
C498 C493 1.350 . S
C499 H486 0.929 . S
C499 C491 1.433 . S
C499 N501 1.384 . S
N500 C496 1.427 . S
N500 C497 1.384 . S
N501 C493 1.427 . S
N501 C499 1.384 . S
H502 C508 0.930 . S
H503 C512 0.930 . S
H504 C517 0.929 . S
H505 C515 0.929 . S
H506 C510 0.929 . S
H507 C516 0.929 . S
C508 H502 0.930 . S
C508 C509 1.367 . S
C508 C516 1.378 . S
C509 C508 1.367 . S
C509 C517 1.433 . S
C510 H506 0.929 . S
C510 C512 1.378 . S
C510 C514 1.350 1_545 S
C511 C514 1.463 . S
C511 C516 1.350 . S
C511 N519 1.427 . S
C512 H503 0.930 . S
C512 C510 1.378 . S
C512 C513 1.367 1_545 S
C513 C512 1.367 1_565 S
C513 C515 1.433 . S
C514 C510 1.350 1_565 S
C514 C511 1.463 . S
C514 N518 1.427 . S
C515 H505 0.929 . S
C515 C513 1.433 . S
C515 N518 1.384 . S
C516 H507 0.929 . S
C516 C508 1.378 . S
C516 C511 1.350 . S
C517 H504 0.929 . S
C517 C509 1.433 . S
C517 N519 1.384 . S
N518 C514 1.427 . S
N518 C515 1.384 . S
N519 C511 1.427 . S
N519 C517 1.384 . S
H520 C526 0.930 . S
H521 C530 0.930 . S
H522 C535 0.929 . S
H523 C533 0.929 . S
H524 C528 0.929 . S
H525 C534 0.929 . S
C526 H520 0.930 . S
C526 C527 1.367 . S
C526 C534 1.378 . S
C527 C526 1.367 . S
C527 C535 1.433 . S
C528 H524 0.929 . S
C528 C530 1.378 . S
C528 C532 1.350 . S
C529 C532 1.463 . S
C529 C534 1.350 . S
C529 N537 1.427 . S
C530 H521 0.930 . S
C530 C528 1.378 . S
C530 C531 1.367 . S
C531 C530 1.367 . S
C531 C533 1.433 . S
C532 C528 1.350 . S
C532 C529 1.463 . S
C532 N536 1.427 . S
C533 H523 0.929 . S
C533 C531 1.433 . S
C533 N536 1.384 . S
C534 H525 0.929 . S
C534 C526 1.378 . S
C534 C529 1.350 . S
C535 H522 0.929 . S
C535 C527 1.433 . S
C535 N537 1.384 . S
N536 C532 1.427 . S
N536 C533 1.384 . S
N537 C529 1.427 . S
N537 C535 1.384 . S
H538 C544 0.930 . S
H539 C548 0.930 . S
H540 C553 0.929 . S
H541 C551 0.929 . S
H542 C546 0.929 . S
H543 C552 0.929 . S
C544 H538 0.930 . S
C544 C545 1.367 . S
C544 C552 1.378 . S
C545 C544 1.367 . S
C545 C553 1.433 . S
C546 H542 0.929 . S
C546 C548 1.378 . S
C546 C550 1.350 . S
C547 C550 1.463 . S
C547 C552 1.350 . S
C547 N555 1.427 . S
C548 H539 0.930 . S
C548 C546 1.378 . S
C548 C549 1.367 . S
C549 C548 1.367 . S
C549 C551 1.433 . S
C550 C546 1.350 . S
C550 C547 1.463 . S
C550 N554 1.427 . S
C551 H541 0.929 . S
C551 C549 1.433 . S
C551 N554 1.384 . S
C552 H543 0.929 . S
C552 C544 1.378 . S
C552 C547 1.350 . S
C553 H540 0.929 . S
C553 C545 1.433 . S
C553 N555 1.384 . S
N554 C550 1.427 . S
N554 C551 1.384 . S
N555 C547 1.427 . S
N555 C553 1.384 . S
H556 C562 0.930 . S
H557 C566 0.930 . S
H558 C571 0.929 . S
H559 C569 0.929 . S
H560 C564 0.929 . S
H561 C570 0.929 . S
C562 H556 0.930 . S
C562 C563 1.367 . S
C562 C570 1.378 . S
C563 C562 1.367 . S
C563 C571 1.433 . S
C564 H560 0.929 . S
C564 C566 1.378 . S
C564 C568 1.350 . S
C565 C568 1.463 . S
C565 C570 1.350 . S
C565 N573 1.427 . S
C566 H557 0.930 . S
C566 C564 1.378 . S
C566 C567 1.367 . S
C567 C566 1.367 . S
C567 C569 1.433 . S
C568 C564 1.350 . S
C568 C565 1.463 . S
C568 N572 1.427 . S
C569 H559 0.929 . S
C569 C567 1.433 . S
C569 N572 1.384 . S
C570 H561 0.929 . S
C570 C562 1.378 . S
C570 C565 1.350 . S
C571 H558 0.929 . S
C571 C563 1.433 . S
C571 N573 1.384 . S
N572 C568 1.427 . S
N572 C569 1.384 . S
N573 C565 1.427 . S
N573 C571 1.384 . S
H574 C580 0.930 . S
H575 C584 0.930 . S
H576 C589 0.929 . S
H577 C587 0.929 . S
H578 C582 0.929 . S
H579 C588 0.929 . S
C580 H574 0.930 . S
C580 C581 1.367 . S
C580 C588 1.378 . S
C581 C580 1.367 . S
C581 C589 1.433 . S
C582 H578 0.929 . S
C582 C584 1.378 . S
C582 C586 1.350 . S
C583 C586 1.463 . S
C583 C588 1.350 . S
C583 N591 1.427 . S
C584 H575 0.930 . S
C584 C582 1.378 . S
C584 C585 1.367 . S
C585 C584 1.367 . S
C585 C587 1.433 . S
C586 C582 1.350 . S
C586 C583 1.463 . S
C586 N590 1.427 . S
C587 H577 0.929 . S
C587 C585 1.433 . S
C587 N590 1.384 . S
C588 H579 0.929 . S
C588 C580 1.378 . S
C588 C583 1.350 . S
C589 H576 0.929 . S
C589 C581 1.433 . S
C589 N591 1.384 . S
N590 C586 1.427 . S
N590 C587 1.384 . S
N591 C583 1.427 . S
N591 C589 1.384 . S
H592 C598 0.930 . S
H593 C602 0.930 . S
H594 C607 0.929 . S
H595 C605 0.929 . S
H596 C600 0.929 . S
H597 C606 0.929 . S
C598 H592 0.930 . S
C598 C599 1.367 . S
C598 C606 1.378 . S
C599 C598 1.367 . S
C599 C607 1.433 . S
C600 H596 0.929 . S
C600 C602 1.378 . S
C600 C604 1.350 . S
C601 C604 1.463 . S
C601 C606 1.350 . S
C601 N609 1.427 . S
C602 H593 0.930 . S
C602 C600 1.378 . S
C602 C603 1.367 . S
C603 C602 1.367 . S
C603 C605 1.433 . S
C604 C600 1.350 . S
C604 C601 1.463 . S
C604 N608 1.427 . S
C605 H595 0.929 . S
C605 C603 1.433 . S
C605 N608 1.384 . S
C606 H597 0.929 . S
C606 C598 1.378 . S
C606 C601 1.350 . S
C607 H594 0.929 . S
C607 C599 1.433 . S
C607 N609 1.384 . S
N608 C604 1.427 . S
N608 C605 1.384 . S
N609 C601 1.427 . S
N609 C607 1.384 . S
H610 C616 0.930 . S
H611 C620 0.930 . S
H612 C625 0.929 . S
H613 C623 0.929 . S
H614 C618 0.929 . S
H615 C624 0.929 . S
C616 H610 0.930 . S
C616 C617 1.367 . S
C616 C624 1.378 . S
C617 C616 1.367 . S
C617 C625 1.433 . S
C618 H614 0.929 . S
C618 C620 1.378 . S
C618 C622 1.350 . S
C619 C622 1.463 . S
C619 C624 1.350 . S
C619 N627 1.427 . S
C620 H611 0.930 . S
C620 C618 1.378 . S
C620 C621 1.367 . S
C621 C620 1.367 . S
C621 C623 1.433 . S
C622 C618 1.350 . S
C622 C619 1.463 . S
C622 N626 1.427 . S
C623 H613 0.929 . S
C623 C621 1.433 . S
C623 N626 1.384 . S
C624 H615 0.929 . S
C624 C616 1.378 . S
C624 C619 1.350 . S
C625 H612 0.929 . S
C625 C617 1.433 . S
C625 N627 1.384 . S
N626 C622 1.427 . S
N626 C623 1.384 . S
N627 C619 1.427 . S
N627 C625 1.384 . S
H628 C634 0.930 . S
H629 C638 0.930 . S
H630 C643 0.929 . S
H631 C641 0.929 . S
H632 C636 0.929 . S
H633 C642 0.929 . S
C634 H628 0.930 . S
C634 C635 1.367 . S
C634 C642 1.378 . S
C635 C634 1.367 . S
C635 C643 1.433 . S
C636 H632 0.929 . S
C636 C638 1.378 . S
C636 C640 1.350 . S
C637 C640 1.463 . S
C637 C642 1.350 . S
C637 N645 1.427 . S
C638 H629 0.930 . S
C638 C636 1.378 . S
C638 C639 1.367 . S
C639 C638 1.367 . S
C639 C641 1.433 . S
C640 C636 1.350 . S
C640 C637 1.463 . S
C640 N644 1.427 . S
C641 H631 0.929 . S
C641 C639 1.433 . S
C641 N644 1.384 . S
C642 H633 0.929 . S
C642 C634 1.378 . S
C642 C637 1.350 . S
C643 H630 0.929 . S
C643 C635 1.433 . S
C643 N645 1.384 . S
N644 C640 1.427 . S
N644 C641 1.384 . S
N645 C637 1.427 . S
N645 C643 1.384 . S
H646 C652 0.930 1_455 S
H647 C656 0.930 . S
H648 C661 0.929 . S
H649 C659 0.929 . S
H650 C654 0.929 . S
H651 C660 0.918 1_455 S
C652 H646 0.930 1_655 S
C652 C653 1.367 . S
C652 C660 1.380 . S
C653 C652 1.367 . S
C653 C661 1.433 . S
C654 H650 0.929 . S
C654 C656 1.378 . S
C654 C658 1.350 . S
C655 C658 1.463 . S
C655 C660 1.359 . S
C655 N663 1.427 . S
C656 H647 0.930 . S
C656 C654 1.378 . S
C656 C657 1.367 1_655 S
C657 C656 1.367 1_455 S
C657 C659 1.433 . S
C658 C654 1.350 . S
C658 C655 1.463 . S
C658 N662 1.427 1_655 S
C659 H649 0.929 . S
C659 C657 1.433 . S
C659 N662 1.384 . S
C660 H651 0.918 1_655 S
C660 C652 1.380 . S
C660 C655 1.359 . S
C661 H648 0.929 . S
C661 C653 1.433 . S
C661 N663 1.384 . S
N662 C658 1.427 1_455 S
N662 C659 1.384 . S
N663 C655 1.427 . S
N663 C661 1.384 . S
H664 C670 0.930 . S
H665 C674 0.930 . S
H666 C679 0.929 . S
H667 C677 0.929 . S
H668 C672 0.929 . S
H669 C678 0.929 . S
C670 H664 0.930 . S
C670 C671 1.367 . S
C670 C678 1.378 . S
C671 C670 1.367 . S
C671 C679 1.433 . S
C672 H668 0.929 . S
C672 C674 1.378 . S
C672 C676 1.350 . S
C673 C676 1.463 . S
C673 C678 1.350 . S
C673 N681 1.427 . S
C674 H665 0.930 . S
C674 C672 1.378 . S
C674 C675 1.367 . S
C675 C674 1.367 . S
C675 C677 1.433 . S
C676 C672 1.350 . S
C676 C673 1.463 . S
C676 N680 1.427 . S
C677 H667 0.929 . S
C677 C675 1.433 . S
C677 N680 1.384 . S
C678 H669 0.929 . S
C678 C670 1.378 . S
C678 C673 1.350 . S
C679 H666 0.929 . S
C679 C671 1.433 . S
C679 N681 1.384 . S
N680 C676 1.427 . S
N680 C677 1.384 . S
N681 C673 1.427 . S
N681 C679 1.384 . S
H682 C688 0.930 . S
H683 C692 0.930 . S
H684 C697 0.929 . S
H685 C695 0.929 . S
H686 C690 0.929 . S
H687 C696 0.929 . S
C688 H682 0.930 . S
C688 C689 1.367 . S
C688 C696 1.378 . S
C689 C688 1.367 . S
C689 C697 1.433 . S
C690 H686 0.929 . S
C690 C692 1.378 . S
C690 C694 1.350 . S
C691 C694 1.463 . S
C691 C696 1.350 . S
C691 N699 1.427 . S
C692 H683 0.930 . S
C692 C690 1.378 . S
C692 C693 1.367 . S
C693 C692 1.367 . S
C693 C695 1.433 . S
C694 C690 1.350 . S
C694 C691 1.463 . S
C694 N698 1.427 . S
C695 H685 0.929 . S
C695 C693 1.433 . S
C695 N698 1.384 . S
C696 H687 0.929 . S
C696 C688 1.378 . S
C696 C691 1.350 . S
C697 H684 0.929 . S
C697 C689 1.433 . S
C697 N699 1.384 . S
N698 C694 1.427 . S
N698 C695 1.384 . S
N699 C691 1.427 . S
N699 C697 1.384 . S
H700 C706 0.930 . S
H701 C710 0.930 . S
H702 C715 0.929 1_554 S
H703 C713 0.929 . S
H704 C708 0.929 . S
H705 C714 0.929 . S
C706 H700 0.930 . S
C706 C707 1.367 . S
C706 C714 1.378 . S
C707 C706 1.367 . S
C707 C715 1.433 1_565 S
C708 H704 0.929 . S
C708 C710 1.378 . S
C708 C712 1.350 1_554 S
C709 C712 1.463 . S
C709 C714 1.350 . S
C709 N717 1.427 1_556 S
C710 H701 0.930 . S
C710 C708 1.378 . S
C710 C711 1.367 . S
C711 C710 1.367 . S
C711 C713 1.433 1_554 S
C712 C708 1.350 1_556 S
C712 C709 1.463 . S
C712 N716 1.427 . S
C713 H703 0.929 . S
C713 C711 1.433 1_556 S
C713 N716 1.384 . S
C714 H705 0.929 . S
C714 C706 1.378 . S
C714 C709 1.350 . S
C715 H702 0.929 1_556 S
C715 C707 1.433 1_545 S
C715 N717 1.384 1_546 S
N716 C712 1.427 . S
N716 C713 1.384 . S
N717 C709 1.427 1_554 S
N717 C715 1.384 1_564 S
H718 C724 0.930 . S
H719 C728 0.930 . S
H720 C733 0.929 . S
H721 C731 0.929 . S
H722 C726 0.929 . S
H723 C732 0.929 . S
C724 H718 0.930 . S
C724 C725 1.367 . S
C724 C732 1.378 . S
C725 C724 1.367 . S
C725 C733 1.433 . S
C726 H722 0.929 . S
C726 C728 1.378 . S
C726 C730 1.350 . S
C727 C730 1.463 . S
C727 C732 1.350 . S
C727 N735 1.427 . S
C728 H719 0.930 . S
C728 C726 1.378 . S
C728 C729 1.367 . S
C729 C728 1.367 . S
C729 C731 1.433 . S
C730 C726 1.350 . S
C730 C727 1.463 . S
C730 N734 1.427 . S
C731 H721 0.929 . S
C731 C729 1.433 . S
C731 N734 1.384 . S
C732 H723 0.929 . S
C732 C724 1.378 . S
C732 C727 1.350 . S
C733 H720 0.929 . S
C733 C725 1.433 . S
C733 N735 1.384 . S
N734 C730 1.427 . S
N734 C731 1.384 . S
N735 C727 1.427 . S
N735 C733 1.384 . S
H736 C742 0.930 . S
H737 C746 0.930 . S
H738 C751 0.929 . S
H739 C749 0.929 . S
H740 C744 0.929 . S
H741 C750 0.929 . S
C742 H736 0.930 . S
C742 C743 1.367 1_565 S
C742 C750 1.378 1_565 S
C743 C742 1.367 1_545 S
C743 C751 1.433 . S
C744 H740 0.929 . S
C744 C746 1.378 . S
C744 C748 1.350 . S
C745 C748 1.463 . S
C745 C750 1.350 . S
C745 N753 1.427 . S
C746 H737 0.930 . S
C746 C744 1.378 . S
C746 C747 1.367 . S
C747 C746 1.367 . S
C747 C749 1.433 . S
C748 C744 1.350 . S
C748 C745 1.463 . S
C748 N752 1.427 . S
C749 H739 0.929 . S
C749 C747 1.433 . S
C749 N752 1.384 . S
C750 H741 0.929 . S
C750 C742 1.378 1_545 S
C750 C745 1.350 . S
C751 H738 0.929 . S
C751 C743 1.433 . S
C751 N753 1.384 . S
N752 C748 1.427 . S
N752 C749 1.384 . S
N753 C745 1.427 . S
N753 C751 1.384 . S
H754 C760 0.930 . S
H755 C764 0.930 . S
H756 C769 0.929 . S
H757 C767 0.929 . S
H758 C762 0.929 . S
H759 C768 0.929 . S
C760 H754 0.930 . S
C760 C761 1.367 . S
C760 C768 1.378 . S
C761 C760 1.367 . S
C761 C769 1.433 . S
C762 H758 0.929 . S
C762 C764 1.378 . S
C762 C766 1.350 . S
C763 C766 1.463 . S
C763 C768 1.350 . S
C763 N771 1.427 . S
C764 H755 0.930 . S
C764 C762 1.378 . S
C764 C765 1.367 . S
C765 C764 1.367 . S
C765 C767 1.433 . S
C766 C762 1.350 . S
C766 C763 1.463 . S
C766 N770 1.427 . S
C767 H757 0.929 . S
C767 C765 1.433 . S
C767 N770 1.384 . S
C768 H759 0.929 . S
C768 C760 1.378 . S
C768 C763 1.350 . S
C769 H756 0.929 . S
C769 C761 1.433 . S
C769 N771 1.384 . S
N770 C766 1.427 . S
N770 C767 1.384 . S
N771 C763 1.427 . S
N771 C769 1.384 . S
H772 C778 0.930 . S
H773 C782 0.930 . S
H774 C787 0.929 . S
H775 C785 0.929 . S
H776 C780 0.929 . S
H777 C786 0.929 . S
C778 H772 0.930 . S
C778 C779 1.367 1_545 S
C778 C786 1.378 . S
C779 C778 1.367 1_565 S
C779 C787 1.433 . S
C780 H776 0.929 . S
C780 C782 1.378 . S
C780 C784 1.350 . S
C781 C784 1.463 . S
C781 C786 1.350 . S
C781 N789 1.427 . S
C782 H773 0.930 . S
C782 C780 1.378 . S
C782 C783 1.367 . S
C783 C782 1.367 . S
C783 C785 1.433 . S
C784 C780 1.350 . S
C784 C781 1.463 . S
C784 N788 1.427 . S
C785 H775 0.929 . S
C785 C783 1.433 . S
C785 N788 1.384 . S
C786 H777 0.929 . S
C786 C778 1.378 . S
C786 C781 1.350 . S
C787 H774 0.929 . S
C787 C779 1.433 . S
C787 N789 1.384 1_565 S
N788 C784 1.427 . S
N788 C785 1.384 . S
N789 C781 1.427 . S
N789 C787 1.384 1_545 S
H790 C796 0.930 . S
H791 C800 0.930 . S
H792 C805 0.929 . S
H793 C803 0.929 . S
H794 C798 0.929 . S
H795 C804 0.929 . S
C796 H790 0.930 . S
C796 C797 1.367 . S
C796 C804 1.378 . S
C797 C796 1.367 . S
C797 C805 1.433 . S
C798 H794 0.929 . S
C798 C800 1.378 . S
C798 C802 1.350 . S
C799 C802 1.463 . S
C799 C804 1.350 . S
C799 N807 1.427 . S
C800 H791 0.930 . S
C800 C798 1.378 . S
C800 C801 1.367 . S
C801 C800 1.367 . S
C801 C803 1.433 . S
C802 C798 1.350 . S
C802 C799 1.463 . S
C802 N806 1.427 . S
C803 H793 0.929 . S
C803 C801 1.433 . S
C803 N806 1.384 . S
C804 H795 0.929 . S
C804 C796 1.378 . S
C804 C799 1.350 . S
C805 H792 0.929 . S
C805 C797 1.433 . S
C805 N807 1.384 . S
N806 C802 1.427 . S
N806 C803 1.384 . S
N807 C799 1.427 . S
N807 C805 1.384 . S
H808 C814 0.930 . S
H809 C818 0.930 . S
H810 C823 0.929 . S
H811 C821 0.929 . S
H812 C816 0.929 . S
H813 C822 0.929 . S
C814 H808 0.930 . S
C814 C815 1.367 . S
C814 C822 1.378 . S
C815 C814 1.367 . S
C815 C823 1.433 . S
C816 H812 0.929 . S
C816 C818 1.378 . S
C816 C820 1.350 . S
C817 C820 1.463 . S
C817 C822 1.350 . S
C817 N825 1.427 . S
C818 H809 0.930 . S
C818 C816 1.378 . S
C818 C819 1.367 . S
C819 C818 1.367 . S
C819 C821 1.433 . S
C820 C816 1.350 . S
C820 C817 1.463 . S
C820 N824 1.427 . S
C821 H811 0.929 . S
C821 C819 1.433 . S
C821 N824 1.384 . S
C822 H813 0.929 . S
C822 C814 1.378 . S
C822 C817 1.350 . S
C823 H810 0.929 . S
C823 C815 1.433 . S
C823 N825 1.384 . S
N824 C820 1.427 . S
N824 C821 1.384 . S
N825 C817 1.427 . S
N825 C823 1.384 . S
H826 C832 0.930 . S
H827 C836 0.930 . S
H828 C841 0.929 . S
H829 C839 0.929 . S
H830 C834 0.929 . S
H831 C840 0.929 . S
C832 H826 0.930 . S
C832 C833 1.367 . S
C832 C840 1.378 . S
C833 C832 1.367 . S
C833 C841 1.433 . S
C834 H830 0.929 . S
C834 C836 1.378 . S
C834 C838 1.350 . S
C835 C838 1.463 . S
C835 C840 1.350 . S
C835 N843 1.427 . S
C836 H827 0.930 . S
C836 C834 1.378 . S
C836 C837 1.367 . S
C837 C836 1.367 . S
C837 C839 1.433 . S
C838 C834 1.350 . S
C838 C835 1.463 . S
C838 N842 1.427 . S
C839 H829 0.929 . S
C839 C837 1.433 . S
C839 N842 1.384 . S
C840 H831 0.929 . S
C840 C832 1.378 . S
C840 C835 1.350 . S
C841 H828 0.929 . S
C841 C833 1.433 . S
C841 N843 1.384 . S
N842 C838 1.427 . S
N842 C839 1.384 . S
N843 C835 1.427 . S
N843 C841 1.384 . S
H844 C850 0.930 . S
H845 C854 0.930 . S
H846 C859 0.929 . S
H847 C857 0.929 . S
H848 C852 0.929 . S
H849 C858 0.929 . S
C850 H844 0.930 . S
C850 C851 1.367 . S
C850 C858 1.378 . S
C851 C850 1.367 . S
C851 C859 1.433 . S
C852 H848 0.929 . S
C852 C854 1.378 . S
C852 C856 1.350 . S
C853 C856 1.463 . S
C853 C858 1.350 . S
C853 N861 1.427 . S
C854 H845 0.930 . S
C854 C852 1.378 . S
C854 C855 1.367 . S
C855 C854 1.367 . S
C855 C857 1.433 . S
C856 C852 1.350 . S
C856 C853 1.463 . S
C856 N860 1.427 . S
C857 H847 0.929 . S
C857 C855 1.433 . S
C857 N860 1.384 . S
C858 H849 0.929 . S
C858 C850 1.378 . S
C858 C853 1.350 . S
C859 H846 0.929 . S
C859 C851 1.433 . S
C859 N861 1.384 . S
N860 C856 1.427 . S
N860 C857 1.384 . S
N861 C853 1.427 . S
N861 C859 1.384 . S
H862 C868 0.930 . S
H863 C872 0.930 . S
H864 C877 0.929 . S
H865 C875 0.929 . S
H866 C870 0.929 . S
H867 C876 0.929 . S
C868 H862 0.930 . S
C868 C869 1.367 . S
C868 C876 1.378 . S
C869 C868 1.367 . S
C869 C877 1.433 . S
C870 H866 0.929 . S
C870 C872 1.378 . S
C870 C874 1.350 . S
C871 C874 1.463 . S
C871 C876 1.350 . S
C871 N879 1.427 . S
C872 H863 0.930 . S
C872 C870 1.378 . S
C872 C873 1.367 . S
C873 C872 1.367 . S
C873 C875 1.433 . S
C874 C870 1.350 . S
C874 C871 1.463 . S
C874 N878 1.427 . S
C875 H865 0.929 . S
C875 C873 1.433 . S
C875 N878 1.384 . S
C876 H867 0.929 . S
C876 C868 1.378 . S
C876 C871 1.350 . S
C877 H864 0.929 . S
C877 C869 1.433 . S
C877 N879 1.384 . S
N878 C874 1.427 . S
N878 C875 1.384 . S
N879 C871 1.427 . S
N879 C877 1.384 . S
H880 C886 0.930 . S
H881 C890 0.930 . S
H882 C895 0.929 . S
H883 C893 0.929 . S
H884 C888 0.929 . S
H885 C894 0.929 . S
C886 H880 0.930 . S
C886 C887 1.367 . S
C886 C894 1.378 . S
C887 C886 1.367 . S
C887 C895 1.433 . S
C888 H884 0.929 . S
C888 C890 1.378 . S
C888 C892 1.350 . S
C889 C892 1.463 . S
C889 C894 1.350 . S
C889 N897 1.427 . S
C890 H881 0.930 . S
C890 C888 1.378 . S
C890 C891 1.367 . S
C891 C890 1.367 . S
C891 C893 1.433 . S
C892 C888 1.350 . S
C892 C889 1.463 . S
C892 N896 1.427 . S
C893 H883 0.929 . S
C893 C891 1.433 . S
C893 N896 1.384 . S
C894 H885 0.929 . S
C894 C886 1.378 . S
C894 C889 1.350 . S
C895 H882 0.929 . S
C895 C887 1.433 . S
C895 N897 1.384 . S
N896 C892 1.427 . S
N896 C893 1.384 . S
N897 C889 1.427 . S
N897 C895 1.384 . S
H898 C904 0.930 . S
H899 C908 0.930 . S
H900 C913 0.929 . S
H901 C911 0.929 . S
H902 C906 0.929 . S
H903 C912 0.929 . S
C904 H898 0.930 . S
C904 C905 1.370 1_565 S
C904 C912 1.378 . S
C905 C904 1.370 1_545 S
C905 C913 1.430 . S
C906 H902 0.929 . S
C906 C908 1.378 . S
C906 C910 1.350 . S
C907 C910 1.463 . S
C907 C912 1.350 1_545 S
C907 N915 1.427 . S
C908 H899 0.930 . S
C908 C906 1.378 . S
C908 C909 1.367 . S
C909 C908 1.367 . S
C909 C911 1.433 1_545 S
C910 C906 1.350 . S
C910 C907 1.463 . S
C910 N914 1.427 1_545 S
C911 H901 0.929 . S
C911 C909 1.433 1_565 S
C911 N914 1.384 . S
C912 H903 0.929 . S
C912 C904 1.378 . S
C912 C907 1.350 1_565 S
C913 H900 0.929 . S
C913 C905 1.430 . S
C913 N915 1.384 . S
N914 C910 1.427 1_565 S
N914 C911 1.384 . S
N915 C907 1.427 . S
N915 C913 1.384 . S
H916 C922 0.930 . S
H917 C926 0.930 . S
H918 C931 0.929 . S
H919 C929 0.929 . S
H920 C924 0.929 . S
H921 C930 0.929 . S
C922 H916 0.930 . S
C922 C923 1.367 . S
C922 C930 1.378 . S
C923 C922 1.367 . S
C923 C931 1.433 . S
C924 H920 0.929 . S
C924 C926 1.378 . S
C924 C928 1.350 . S
C925 C928 1.463 . S
C925 C930 1.350 . S
C925 N933 1.427 . S
C926 H917 0.930 . S
C926 C924 1.378 . S
C926 C927 1.367 . S
C927 C926 1.367 . S
C927 C929 1.433 . S
C928 C924 1.350 . S
C928 C925 1.463 . S
C928 N932 1.427 . S
C929 H919 0.929 . S
C929 C927 1.433 . S
C929 N932 1.384 . S
C930 H921 0.929 . S
C930 C922 1.378 . S
C930 C925 1.350 . S
C931 H918 0.929 . S
C931 C923 1.433 . S
C931 N933 1.384 . S
N932 C928 1.427 . S
N932 C929 1.384 . S
N933 C925 1.427 . S
N933 C931 1.384 . S
H934 C940 0.930 . S
H935 C944 0.930 . S
H936 C949 0.929 1_655 S
H937 C947 0.929 . S
H938 C942 0.929 . S
H939 C948 0.929 . S
C940 H934 0.930 . S
C940 C941 1.367 . S
C940 C948 1.378 . S
C941 C940 1.367 . S
C941 C949 1.433 . S
C942 H938 0.929 . S
C942 C944 1.378 . S
C942 C946 1.350 . S
C943 C946 1.463 . S
C943 C948 1.350 . S
C943 N951 1.427 . S
C944 H935 0.930 . S
C944 C942 1.378 . S
C944 C945 1.367 . S
C945 C944 1.367 . S
C945 C947 1.433 . S
C946 C942 1.350 . S
C946 C943 1.463 . S
C946 N950 1.427 . S
C947 H937 0.929 . S
C947 C945 1.433 . S
C947 N950 1.384 . S
C948 H939 0.929 . S
C948 C940 1.378 . S
C948 C943 1.350 . S
C949 H936 0.929 1_455 S
C949 C941 1.433 . S
C949 N951 1.384 . S
N950 C946 1.427 . S
N950 C947 1.384 . S
N951 C943 1.427 . S
N951 C949 1.384 . S
H952 C958 0.930 . S
H953 C962 0.930 . S
H954 C967 0.929 . S
H955 C965 0.929 . S
H956 C960 0.929 . S
H957 C966 0.929 . S
C958 H952 0.930 . S
C958 C959 1.367 . S
C958 C966 1.378 . S
C959 C958 1.367 . S
C959 C967 1.433 . S
C960 H956 0.929 . S
C960 C962 1.378 . S
C960 C964 1.350 . S
C961 C964 1.463 . S
C961 C966 1.350 . S
C961 N969 1.427 . S
C962 H953 0.930 . S
C962 C960 1.378 . S
C962 C963 1.367 . S
C963 C962 1.367 . S
C963 C965 1.433 . S
C964 C960 1.350 . S
C964 C961 1.463 . S
C964 N968 1.427 . S
C965 H955 0.929 . S
C965 C963 1.433 . S
C965 N968 1.384 . S
C966 H957 0.929 . S
C966 C958 1.378 . S
C966 C961 1.350 . S
C967 H954 0.929 . S
C967 C959 1.433 . S
C967 N969 1.384 . S
N968 C964 1.427 . S
N968 C965 1.384 . S
N969 C961 1.427 . S
N969 C967 1.384 . S
H970 C976 0.930 . S
H971 C980 0.930 . S
H972 C985 0.929 . S
H973 C983 0.929 . S
H974 C978 0.929 . S
H975 C984 0.929 1_556 S
C976 H970 0.930 . S
C976 C977 1.367 1_455 S
C976 C984 1.378 . S
C977 C976 1.367 1_655 S
C977 C985 1.433 . S
C978 H974 0.929 . S
C978 C980 1.378 1_554 S
C978 C982 1.350 1_554 S
C979 C982 1.463 1_554 S
C979 C984 1.350 1_655 S
C979 N987 1.427 . S
C980 H971 0.930 . S
C980 C978 1.378 1_556 S
C980 C981 1.367 1_655 S
C981 C980 1.367 1_455 S
C981 C983 1.433 . S
C982 C978 1.350 1_556 S
C982 C979 1.463 1_556 S
C982 N986 1.427 1_655 S
C983 H973 0.929 . S
C983 C981 1.433 . S
C983 N986 1.384 . S
C984 H975 0.929 1_554 S
C984 C976 1.378 . S
C984 C979 1.350 1_455 S
C985 H972 0.929 . S
C985 C977 1.433 . S
C985 N987 1.384 . S
N986 C982 1.427 1_455 S
N986 C983 1.384 . S
N987 C979 1.427 . S
N987 C985 1.384 . S
H988 C994 0.930 . S
H989 C998 0.930 . S
H990 C1003 0.929 . S
H991 C1001 0.929 . S
H992 C996 0.929 . S
H993 C1002 0.929 . S
C994 H988 0.930 . S
C994 C995 1.367 . S
C994 C1002 1.378 . S
C995 C994 1.367 . S
C995 C1003 1.433 . S
C996 H992 0.929 . S
C996 C998 1.378 . S
C996 C1000 1.350 . S
C997 C1000 1.463 . S
C997 C1002 1.350 . S
C997 N1005 1.427 . S
C998 H989 0.930 . S
C998 C996 1.378 . S
C998 C999 1.367 . S
C999 C998 1.367 . S
C999 C1001 1.433 . S
C1000 C996 1.350 . S
C1000 C997 1.463 . S
C1000 N1004 1.427 . S
C1001 H991 0.929 . S
C1001 C999 1.433 . S
C1001 N1004 1.384 . S
C1002 H993 0.929 . S
C1002 C994 1.378 . S
C1002 C997 1.350 . S
C1003 H990 0.929 . S
C1003 C995 1.433 . S
C1003 N1005 1.384 . S
N1004 C1000 1.427 . S
N1004 C1001 1.384 . S
N1005 C997 1.427 . S
N1005 C1003 1.384 . S
H1006 C1012 0.930 . S
H1007 C1016 0.930 . S
H1008 C1021 0.929 . S
H1009 C1019 0.929 . S
H1010 C1014 0.929 . S
H1011 C1020 0.929 . S
C1012 H1006 0.930 . S
C1012 C1013 1.367 . S
C1012 C1020 1.378 . S
C1013 C1012 1.367 . S
C1013 C1021 1.433 1_454 S
C1014 H1010 0.929 . S
C1014 C1016 1.378 . S
C1014 C1018 1.350 1_655 S
C1015 C1018 1.463 . S
C1015 C1020 1.350 1_556 S
C1015 N1023 1.427 1_455 S
C1016 H1007 0.930 . S
C1016 C1014 1.378 . S
C1016 C1017 1.367 1_655 S
C1017 C1016 1.367 1_455 S
C1017 C1019 1.433 . S
C1018 C1014 1.350 1_455 S
C1018 C1015 1.463 . S
C1018 N1022 1.427 . S
C1019 H1009 0.929 . S
C1019 C1017 1.433 . S
C1019 N1022 1.384 . S
C1020 H1011 0.929 . S
C1020 C1012 1.378 . S
C1020 C1015 1.350 1_554 S
C1021 H1008 0.929 . S
C1021 C1013 1.433 1_656 S
C1021 N1023 1.384 . S
N1022 C1018 1.427 . S
N1022 C1019 1.384 . S
N1023 C1015 1.427 1_655 S
N1023 C1021 1.384 . S
H1024 C1030 0.930 . S
H1025 C1034 0.930 . S
H1026 C1039 0.929 . S
H1027 C1037 0.929 . S
H1028 C1032 0.929 . S
H1029 C1038 0.929 . S
C1030 H1024 0.930 . S
C1030 C1031 1.367 . S
C1030 C1038 1.378 . S
C1031 C1030 1.367 . S
C1031 C1039 1.433 . S
C1032 H1028 0.929 . S
C1032 C1034 1.378 . S
C1032 C1036 1.350 . S
C1033 C1036 1.463 . S
C1033 C1038 1.350 . S
C1033 N1041 1.427 . S
C1034 H1025 0.930 . S
C1034 C1032 1.378 . S
C1034 C1035 1.367 . S
C1035 C1034 1.367 . S
C1035 C1037 1.433 . S
C1036 C1032 1.350 . S
C1036 C1033 1.463 . S
C1036 N1040 1.427 . S
C1037 H1027 0.929 . S
C1037 C1035 1.433 . S
C1037 N1040 1.384 . S
C1038 H1029 0.929 . S
C1038 C1030 1.378 . S
C1038 C1033 1.350 . S
C1039 H1026 0.929 . S
C1039 C1031 1.433 . S
C1039 N1041 1.384 . S
N1040 C1036 1.427 . S
N1040 C1037 1.384 . S
N1041 C1033 1.427 . S
N1041 C1039 1.384 . S
H1042 C1048 0.930 . S
H1043 C1052 0.930 . S
H1044 C1057 0.929 . S
H1045 C1055 0.929 . S
H1046 C1050 0.929 . S
H1047 C1056 0.929 . S
C1048 H1042 0.930 . S
C1048 C1049 1.367 . S
C1048 C1056 1.378 . S
C1049 C1048 1.367 . S
C1049 C1057 1.433 1_554 S
C1050 H1046 0.929 . S
C1050 C1052 1.378 . S
C1050 C1054 1.350 . S
C1051 C1054 1.463 . S
C1051 C1056 1.350 . S
C1051 N1059 1.427 . S
C1052 H1043 0.930 . S
C1052 C1050 1.378 . S
C1052 C1053 1.367 . S
C1053 C1052 1.367 . S
C1053 C1055 1.433 . S
C1054 C1050 1.350 . S
C1054 C1051 1.463 . S
C1054 N1058 1.427 . S
C1055 H1045 0.929 . S
C1055 C1053 1.433 . S
C1055 N1058 1.384 . S
C1056 H1047 0.929 . S
C1056 C1048 1.378 . S
C1056 C1051 1.350 . S
C1057 H1044 0.929 . S
C1057 C1049 1.433 1_556 S
C1057 N1059 1.384 1_556 S
N1058 C1054 1.427 . S
N1058 C1055 1.384 . S
N1059 C1051 1.427 . S
N1059 C1057 1.384 1_554 S
H1060 C1066 0.930 . S
H1061 C1070 0.930 . S
H1062 C1075 0.929 . S
H1063 C1073 0.929 . S
H1064 C1068 0.929 . S
H1065 C1074 0.929 . S
C1066 H1060 0.930 . S
C1066 C1067 1.367 . S
C1066 C1074 1.378 . S
C1067 C1066 1.367 . S
C1067 C1075 1.433 . S
C1068 H1064 0.929 . S
C1068 C1070 1.378 . S
C1068 C1072 1.350 . S
C1069 C1072 1.463 . S
C1069 C1074 1.350 . S
C1069 N1077 1.427 . S
C1070 H1061 0.930 . S
C1070 C1068 1.378 . S
C1070 C1071 1.367 . S
C1071 C1070 1.367 . S
C1071 C1073 1.433 . S
C1072 C1068 1.350 . S
C1072 C1069 1.463 . S
C1072 N1076 1.427 . S
C1073 H1063 0.929 . S
C1073 C1071 1.433 . S
C1073 N1076 1.384 . S
C1074 H1065 0.929 . S
C1074 C1066 1.378 . S
C1074 C1069 1.350 . S
C1075 H1062 0.929 . S
C1075 C1067 1.433 . S
C1075 N1077 1.384 . S
N1076 C1072 1.427 . S
N1076 C1073 1.384 . S
N1077 C1069 1.427 . S
N1077 C1075 1.384 . S
H1078 C1084 0.930 . S
H1079 C1088 0.930 . S
H1080 C1093 0.929 . S
H1081 C1091 0.929 . S
H1082 C1086 0.929 . S
H1083 C1092 0.929 . S
C1084 H1078 0.930 . S
C1084 C1085 1.367 . S
C1084 C1092 1.378 . S
C1085 C1084 1.367 . S
C1085 C1093 1.433 1_554 S
C1086 H1082 0.929 . S
C1086 C1088 1.378 . S
C1086 C1090 1.350 . S
C1087 C1090 1.463 . S
C1087 C1092 1.350 . S
C1087 N1095 1.427 . S
C1088 H1079 0.930 . S
C1088 C1086 1.378 . S
C1088 C1089 1.367 . S
C1089 C1088 1.367 . S
C1089 C1091 1.433 . S
C1090 C1086 1.350 . S
C1090 C1087 1.463 . S
C1090 N1094 1.427 . S
C1091 H1081 0.929 . S
C1091 C1089 1.433 . S
C1091 N1094 1.384 . S
C1092 H1083 0.929 . S
C1092 C1084 1.378 . S
C1092 C1087 1.350 . S
C1093 H1080 0.929 . S
C1093 C1085 1.433 1_556 S
C1093 N1095 1.384 1_556 S
N1094 C1090 1.427 . S
N1094 C1091 1.384 . S
N1095 C1087 1.427 . S
N1095 C1093 1.384 1_554 S
H1096 C1102 0.930 . S
H1097 C1106 0.930 . S
H1098 C1111 0.929 . S
H1099 C1109 0.929 . S
H1100 C1104 0.929 . S
H1101 C1110 0.929 . S
C1102 H1096 0.930 . S
C1102 C1103 1.367 . S
C1102 C1110 1.378 . S
C1103 C1102 1.367 . S
C1103 C1111 1.433 . S
C1104 H1100 0.929 . S
C1104 C1106 1.378 . S
C1104 C1108 1.350 . S
C1105 C1108 1.463 . S
C1105 C1110 1.350 . S
C1105 N1113 1.427 . S
C1106 H1097 0.930 . S
C1106 C1104 1.378 . S
C1106 C1107 1.367 . S
C1107 C1106 1.367 . S
C1107 C1109 1.433 . S
C1108 C1104 1.350 . S
C1108 C1105 1.463 . S
C1108 N1112 1.427 . S
C1109 H1099 0.929 . S
C1109 C1107 1.433 . S
C1109 N1112 1.384 . S
C1110 H1101 0.929 . S
C1110 C1102 1.378 . S
C1110 C1105 1.350 . S
C1111 H1098 0.929 . S
C1111 C1103 1.433 . S
C1111 N1113 1.384 . S
N1112 C1108 1.427 . S
N1112 C1109 1.384 . S
N1113 C1105 1.427 . S
N1113 C1111 1.384 . S
H1114 C1120 0.930 . S
H1115 C1124 0.930 . S
H1116 C1129 0.929 . S
H1117 C1127 0.929 . S
H1118 C1122 0.929 . S
H1119 C1128 0.929 . S
C1120 H1114 0.930 . S
C1120 C1121 1.367 . S
C1120 C1128 1.378 . S
C1121 C1120 1.367 . S
C1121 C1129 1.433 . S
C1122 H1118 0.929 . S
C1122 C1124 1.378 . S
C1122 C1126 1.350 . S
C1123 C1126 1.463 . S
C1123 C1128 1.350 . S
C1123 N1131 1.427 . S
C1124 H1115 0.930 . S
C1124 C1122 1.378 . S
C1124 C1125 1.367 . S
C1125 C1124 1.367 . S
C1125 C1127 1.433 . S
C1126 C1122 1.350 . S
C1126 C1123 1.463 . S
C1126 N1130 1.427 . S
C1127 H1117 0.929 . S
C1127 C1125 1.433 . S
C1127 N1130 1.384 . S
C1128 H1119 0.929 . S
C1128 C1120 1.378 . S
C1128 C1123 1.350 . S
C1129 H1116 0.929 . S
C1129 C1121 1.433 . S
C1129 N1131 1.384 . S
N1130 C1126 1.427 . S
N1130 C1127 1.384 . S
N1131 C1123 1.427 . S
N1131 C1129 1.384 . S
H1132 C1138 0.930 . S
H1133 C1142 0.930 . S
H1134 C1147 0.929 . S
H1135 C1145 0.929 . S
H1136 C1140 0.929 . S
H1137 C1146 0.929 . S
C1138 H1132 0.930 . S
C1138 C1139 1.367 . S
C1138 C1146 1.378 . S
C1139 C1138 1.367 . S
C1139 C1147 1.433 . S
C1140 H1136 0.929 . S
C1140 C1142 1.378 . S
C1140 C1144 1.350 . S
C1141 C1144 1.463 . S
C1141 C1146 1.350 . S
C1141 N1149 1.427 . S
C1142 H1133 0.930 . S
C1142 C1140 1.378 . S
C1142 C1143 1.367 . S
C1143 C1142 1.367 . S
C1143 C1145 1.433 . S
C1144 C1140 1.350 . S
C1144 C1141 1.463 . S
C1144 N1148 1.427 . S
C1145 H1135 0.929 . S
C1145 C1143 1.433 . S
C1145 N1148 1.384 . S
C1146 H1137 0.929 . S
C1146 C1138 1.378 . S
C1146 C1141 1.350 . S
C1147 H1134 0.929 . S
C1147 C1139 1.433 . S
C1147 N1149 1.384 . S
N1148 C1144 1.427 . S
N1148 C1145 1.384 . S
N1149 C1141 1.427 . S
N1149 C1147 1.384 . S
H1150 C1156 0.930 . S
H1151 C1160 0.930 . S
H1152 C1165 0.929 . S
H1153 C1163 0.929 . S
H1154 C1158 0.929 . S
H1155 C1164 0.929 . S
C1156 H1150 0.930 . S
C1156 C1157 1.367 . S
C1156 C1164 1.378 . S
C1157 C1156 1.367 . S
C1157 C1165 1.433 . S
C1158 H1154 0.929 . S
C1158 C1160 1.378 . S
C1158 C1162 1.350 . S
C1159 C1162 1.463 . S
C1159 C1164 1.350 . S
C1159 N1167 1.427 . S
C1160 H1151 0.930 . S
C1160 C1158 1.378 . S
C1160 C1161 1.367 . S
C1161 C1160 1.367 . S
C1161 C1163 1.433 . S
C1162 C1158 1.350 . S
C1162 C1159 1.463 . S
C1162 N1166 1.427 . S
C1163 H1153 0.929 . S
C1163 C1161 1.433 . S
C1163 N1166 1.384 . S
C1164 H1155 0.929 . S
C1164 C1156 1.378 . S
C1164 C1159 1.350 . S
C1165 H1152 0.929 . S
C1165 C1157 1.433 . S
C1165 N1167 1.384 . S
N1166 C1162 1.427 . S
N1166 C1163 1.384 . S
N1167 C1159 1.427 . S
N1167 C1165 1.384 . S
H1168 C1174 0.930 . S
H1169 C1178 0.930 . S
H1170 C1183 0.929 . S
H1171 C1181 0.929 . S
H1172 C1176 0.929 . S
H1173 C1182 0.929 . S
C1174 H1168 0.930 . S
C1174 C1175 1.367 . S
C1174 C1182 1.378 . S
C1175 C1174 1.367 . S
C1175 C1183 1.433 1_556 S
C1176 H1172 0.929 . S
C1176 C1178 1.378 . S
C1176 C1180 1.350 1_554 S
C1177 C1180 1.463 . S
C1177 C1182 1.350 . S
C1177 N1185 1.427 1_556 S
C1178 H1169 0.930 . S
C1178 C1176 1.378 . S
C1178 C1179 1.367 1_554 S
C1179 C1178 1.367 1_556 S
C1179 C1181 1.433 . S
C1180 C1176 1.350 1_556 S
C1180 C1177 1.463 . S
C1180 N1184 1.427 . S
C1181 H1171 0.929 . S
C1181 C1179 1.433 . S
C1181 N1184 1.384 . S
C1182 H1173 0.929 . S
C1182 C1174 1.378 . S
C1182 C1177 1.350 . S
C1183 H1170 0.929 . S
C1183 C1175 1.433 1_554 S
C1183 N1185 1.384 . S
N1184 C1180 1.427 . S
N1184 C1181 1.384 . S
N1185 C1177 1.427 1_554 S
N1185 C1183 1.384 . S
H1186 C1192 0.930 . S
H1187 C1196 0.930 . S
H1188 C1201 0.929 . S
H1189 C1199 0.929 . S
H1190 C1194 0.929 . S
H1191 C1200 0.929 . S
C1192 H1186 0.930 . S
C1192 C1193 1.367 . S
C1192 C1200 1.378 . S
C1193 C1192 1.367 . S
C1193 C1201 1.433 . S
C1194 H1190 0.929 . S
C1194 C1196 1.378 . S
C1194 C1198 1.350 . S
C1195 C1198 1.463 . S
C1195 C1200 1.350 . S
C1195 N1203 1.427 . S
C1196 H1187 0.930 . S
C1196 C1194 1.378 . S
C1196 C1197 1.367 . S
C1197 C1196 1.367 . S
C1197 C1199 1.433 . S
C1198 C1194 1.350 . S
C1198 C1195 1.463 . S
C1198 N1202 1.427 . S
C1199 H1189 0.929 . S
C1199 C1197 1.433 . S
C1199 N1202 1.384 . S
C1200 H1191 0.929 . S
C1200 C1192 1.378 . S
C1200 C1195 1.350 . S
C1201 H1188 0.929 . S
C1201 C1193 1.433 . S
C1201 N1203 1.384 . S
N1202 C1198 1.427 . S
N1202 C1199 1.384 . S
N1203 C1195 1.427 . S
N1203 C1201 1.384 . S
H1204 C1210 0.930 . S
H1205 C1214 0.930 1_556 S
H1206 C1219 0.929 . S
H1207 C1217 0.929 . S
H1208 C1212 0.921 1_556 S
H1209 C1218 0.929 . S
C1210 H1204 0.930 . S
C1210 C1211 1.367 . S
C1210 C1218 1.378 . S
C1211 C1210 1.367 . S
C1211 C1219 1.433 . S
C1212 H1208 0.921 1_554 S
C1212 C1214 1.378 . S
C1212 C1216 1.350 . S
C1213 C1216 1.463 . S
C1213 C1218 1.350 . S
C1213 N1221 1.427 . S
C1214 H1205 0.930 1_554 S
C1214 C1212 1.378 . S
C1214 C1215 1.367 . S
C1215 C1214 1.367 . S
C1215 C1217 1.433 . S
C1216 C1212 1.350 . S
C1216 C1213 1.463 . S
C1216 N1220 1.427 . S
C1217 H1207 0.929 . S
C1217 C1215 1.433 . S
C1217 N1220 1.384 . S
C1218 H1209 0.929 . S
C1218 C1210 1.378 . S
C1218 C1213 1.350 . S
C1219 H1206 0.929 . S
C1219 C1211 1.433 . S
C1219 N1221 1.384 . S
N1220 C1216 1.427 . S
N1220 C1217 1.384 . S
N1221 C1213 1.427 . S
N1221 C1219 1.384 . S
H1222 C1228 0.930 . S
H1223 C1232 0.930 1_556 S
H1224 C1237 0.929 1_556 S
H1225 C1235 0.929 . S
H1226 C1230 0.929 1_556 S
H1227 C1236 0.929 . S
C1228 H1222 0.930 . S
C1228 C1229 1.367 . S
C1228 C1236 1.378 . S
C1229 C1228 1.367 . S
C1229 C1237 1.433 . S
C1230 H1226 0.929 1_554 S
C1230 C1232 1.378 . S
C1230 C1234 1.350 . S
C1231 C1234 1.463 . S
C1231 C1236 1.350 . S
C1231 N1239 1.427 . S
C1232 H1223 0.930 1_554 S
C1232 C1230 1.378 . S
C1232 C1233 1.367 . S
C1233 C1232 1.367 . S
C1233 C1235 1.433 . S
C1234 C1230 1.350 . S
C1234 C1231 1.463 . S
C1234 N1238 1.427 . S
C1235 H1225 0.929 . S
C1235 C1233 1.433 . S
C1235 N1238 1.384 . S
C1236 H1227 0.929 . S
C1236 C1228 1.378 . S
C1236 C1231 1.350 . S
C1237 H1224 0.929 1_554 S
C1237 C1229 1.433 . S
C1237 N1239 1.384 . S
N1238 C1234 1.427 . S
N1238 C1235 1.384 . S
N1239 C1231 1.427 . S
N1239 C1237 1.384 . S
C387 C219 1.260 . S
C383 N66 1.253 . S
C405 C227 1.380 . S
C401 N79 1.569 . S
C419 N92 1.696 . S
C423 C247 1.682 . S
C441 C261 1.328 . S
C437 N54 1.368 . S
C459 C276 1.527 . S
C455 N131 1.519 . S
C477 C290 1.231 . S
C473 N158 1.224 . S
C491 N145 1.586 . S
C495 C304 1.590 . S
C513 C310 1.728 . S
C509 N118 1.736 . S
C527 N148 1.949 . S
C531 C324 1.914 . S
C549 C345 1.598 . S
C545 N122 1.597 . S
C563 N132 1.242 . S
C567 C325 1.047 . S
C585 C346 1.524 . S
C581 N161 1.491 . S
C599 N96 1.825 . S
C603 C353 1.541 . S
C617 N53 1.698 . S
C621 C359 1.713 . S
C635 N67 1.066 . S
C639 C352 1.047 . S
C653 N83 1.346 . S
C657 C360 1.357 . S
C671 N44 1.441 . S
C675 C254 1.409 . S
C689 N187 1.484 . S
C693 C255 1.261 . S
C711 C212 1.193 . S
C707 N197 1.229 1_565 S
C729 C233 1.254 . S
C725 N106 1.283 . S
C743 N57 1.775 1_545 S
C747 C268 1.731 . S
C765 C318 1.447 . S
C761 N144 1.429 . S
C783 C269 1.143 . S
C779 N119 1.346 . S
C801 C297 1.492 . S
C797 N157 1.790 . S
C819 C303 1.249 . S
C815 N183 1.243 . S
C833 N196 1.572 . S
C837 C311 1.368 . S
C851 N105 1.687 . S
C855 C275 1.691 . S
C873 C289 1.323 . S
C869 N171 1.365 . S
C887 N40 1.519 . S
C891 C248 1.527 . S
C909 C262 1.230 . S
C905 N2 1.226 . S
C927 C220 1.590 . S
C923 N15 1.589 . S
C945 C226 1.730 . S
C941 N27 1.734 1_455 S
C959 N18 1.948 . S
C963 C338 1.905 . S
C977 N31 1.592 . S
C981 C331 1.597 . S
C995 N41 1.242 . S
C999 C339 1.076 . S
C1013 N5 1.487 . S
C1017 C332 1.526 . S
C1035 C367 1.547 . S
C1031 N109 1.823 . S
C1053 C373 1.709 . S
C1049 N170 1.704 1_554 S
C1071 C366 1.042 . S
C1067 N184 1.060 . S
C1085 N200 1.339 1_554 S
C1089 C374 1.359 . S
C1103 N135 1.450 . S
C1107 C282 1.422 . S
C1125 C283 1.250 . S
C1121 N70 1.487 . S
C1143 C296 1.175 . S
C1139 N80 1.229 . S
C1161 C317 1.253 . S
C1157 N93 1.282 . S
C1175 N174 1.768 . S
C1179 C240 1.736 1_556 S
C1197 C234 1.448 . S
C1193 N14 1.422 . S
C1211 N28 1.346 . S
C1215 C241 1.139 . S
C1233 C213 1.488 . S
C1229 N1 1.779 . S
