# Generated by pormake.
# Topology zzz, (3,6)-cn, num edge types: 1
# Building blocks:
#     Node 0, Type 0, BuildingBlock: BETDAH_clean_linker_0, # of connection points: 3
#     Node 1, Type 0, BuildingBlock: BETDAH_clean_linker_0, # of connection points: 3
#     Node 2, Type 0, BuildingBlock: BETDAH_clean_linker_0, # of connection points: 3
#     Node 3, Type 0, BuildingBlock: BETDAH_clean_linker_0, # of connection points: 3
#     Node 4, Type 0, BuildingBlock: BETDAH_clean_linker_0, # of connection points: 3
#     Node 5, Type 0, BuildingBlock: BETDAH_clean_linker_0, # of connection points: 3
#     Node 6, Type 0, BuildingBlock: BETDAH_clean_linker_0, # of connection points: 3
#     Node 7, Type 0, BuildingBlock: BETDAH_clean_linker_0, # of connection points: 3
#     Node 8, Type 1, BuildingBlock: PAMTUU_clean_sbu_0, # of connection points: 6
#     Node 9, Type 1, BuildingBlock: PAMTUU_clean_sbu_0, # of connection points: 6
#     Node 10, Type 1, BuildingBlock: PAMTUU_clean_sbu_0, # of connection points: 6
#     Node 11, Type 1, BuildingBlock: PAMTUU_clean_sbu_0, # of connection points: 6
#     Edge 12, Type (0, 1), BuildingBlock: XUDNAN_clean_linker_2, # of connection points: 2
#     Edge 13, Type (0, 1), BuildingBlock: XUDNAN_clean_linker_2, # of connection points: 2
#     Edge 14, Type (0, 1), BuildingBlock: XUDNAN_clean_linker_2, # of connection points: 2
#     Edge 15, Type (0, 1), BuildingBlock: XUDNAN_clean_linker_2, # of connection points: 2
#     Edge 16, Type (0, 1), BuildingBlock: XUDNAN_clean_linker_2, # of connection points: 2
#     Edge 17, Type (0, 1), BuildingBlock: XUDNAN_clean_linker_2, # of connection points: 2
#     Edge 18, Type (0, 1), BuildingBlock: XUDNAN_clean_linker_2, # of connection points: 2
#     Edge 19, Type (0, 1), BuildingBlock: XUDNAN_clean_linker_2, # of connection points: 2
#     Edge 20, Type (0, 1), BuildingBlock: XUDNAN_clean_linker_2, # of connection points: 2
#     Edge 21, Type (0, 1), BuildingBlock: XUDNAN_clean_linker_2, # of connection points: 2
#     Edge 22, Type (0, 1), BuildingBlock: XUDNAN_clean_linker_2, # of connection points: 2
#     Edge 23, Type (0, 1), BuildingBlock: XUDNAN_clean_linker_2, # of connection points: 2
#     Edge 24, Type (0, 1), BuildingBlock: XUDNAN_clean_linker_2, # of connection points: 2
#     Edge 25, Type (0, 1), BuildingBlock: XUDNAN_clean_linker_2, # of connection points: 2
#     Edge 26, Type (0, 1), BuildingBlock: XUDNAN_clean_linker_2, # of connection points: 2
#     Edge 27, Type (0, 1), BuildingBlock: XUDNAN_clean_linker_2, # of connection points: 2
#     Edge 28, Type (0, 1), BuildingBlock: XUDNAN_clean_linker_2, # of connection points: 2
#     Edge 29, Type (0, 1), BuildingBlock: XUDNAN_clean_linker_2, # of connection points: 2
#     Edge 30, Type (0, 1), BuildingBlock: XUDNAN_clean_linker_2, # of connection points: 2
#     Edge 31, Type (0, 1), BuildingBlock: XUDNAN_clean_linker_2, # of connection points: 2
#     Edge 32, Type (0, 1), BuildingBlock: XUDNAN_clean_linker_2, # of connection points: 2
#     Edge 33, Type (0, 1), BuildingBlock: XUDNAN_clean_linker_2, # of connection points: 2
#     Edge 34, Type (0, 1), BuildingBlock: XUDNAN_clean_linker_2, # of connection points: 2
#     Edge 35, Type (0, 1), BuildingBlock: XUDNAN_clean_linker_2, # of connection points: 2
# Relax obj value: 0.217
# Max RMSD: 0.226
# Mean RMSD: 0.121
data_MOF--net-zzz--node1-PAMTUU_clean_sbu_0--node2-BETDAH_clean_linker_0--edge1-XUDNAN_clean_linker_2
_symmetry_space_group_name_H-M    P1
_symmetry_Int_Tables_number       1
_symmetry_cell_setting            triclinic
loop_
_symmetry_equiv_pos_as_xyz
'x, y, z'
_cell_length_a     50.643973
_cell_length_b     54.347648
_cell_length_c     15.620974
_cell_angle_alpha  101.25528
_cell_angle_beta   90.252916
_cell_angle_gamma 90.870843
loop_
_atom_site_label
_atom_site_type_symbol
_atom_site_fract_x
_atom_site_fract_y
_atom_site_fract_z
_atom_type_partial_charge
H0 H 0.81629 0.46821 0.39497 0.0
H1 H 0.74452 0.48262 0.26802 0.0
H2 H 0.77276 0.53506 0.49445 0.0
C3 C 0.79886 0.47952 0.39428 0.0
C4 C 0.79674 0.50209 0.45525 0.0
C5 C 0.78026 0.47265 0.32655 0.0
C6 C 0.75844 0.48787 0.32157 0.0
C7 C 0.7553 0.51027 0.38274 0.0
C8 C 0.77473 0.51744 0.44874 0.0
N9 N 0.73358 0.52639 0.37699 0.0
C10 C 0.71202 0.5203 0.31972 0.0
H11 H 0.02536 0.81251 0.3669 0.0
H12 H 1.00422 0.73446 0.29427 0.0
H13 H 1.02167 0.76758 0.56399 0.0
C14 C 1.02162 0.79451 0.38535 0.0
C15 C 0.02478 0.79242 0.47242 0.0
C16 C 1.01403 0.7739 0.32122 0.0
C17 C 1.00976 0.75047 0.34427 0.0
C18 C 1.01228 0.74818 0.43266 0.0
C19 C 1.01948 0.76934 0.49641 0.0
N20 N 1.0079 0.72505 0.46009 0.0
C21 C 1.00461 0.70195 0.40408 0.0
H22 H 0.72218 0.0514 0.43385 0.0
H23 H 0.79885 0.04113 0.31756 0.0
H24 H 0.77055 0.99097 0.48065 0.0
C25 C 0.74054 0.04127 0.42485 0.0
C26 C 0.74367 0.02044 0.46448 0.0
C27 C 0.76031 0.04892 0.37225 0.0
C28 C 0.78373 0.03534 0.35861 0.0
C29 C 0.78761 0.01433 0.39709 0.0
C30 C 0.76766 0.00721 0.45122 0.0
N31 N 0.81108 0.99992 0.38094 0.0
C32 C 0.82975 1.00278 0.3174 0.0
H33 H 0.53065 0.70113 0.17639 0.0
H34 H 0.52046 0.76613 0.06178 0.0
H35 H 0.55462 0.77359 0.32018 0.0
C36 C 0.5328 0.72127 0.18096 0.0
C37 C 0.54319 0.73601 0.25717 0.0
C38 C 0.52451 0.73181 0.11087 0.0
C39 C 0.52722 0.7579 0.11558 0.0
C40 C 0.53849 0.77312 0.19137 0.0
C41 C 0.54644 0.76194 0.26151 0.0
N42 N 0.54169 0.79967 0.20163 0.0
C43 C 0.53619 0.81438 0.13997 0.0
H44 H 0.21135 0.46969 0.24785 0.0
H45 H 0.29109 0.47692 0.34286 0.0
H46 H 0.27134 0.49943 0.10019 0.0
C47 C 0.23187 0.47454 0.23871 0.0
C48 C 0.23884 0.48463 0.16581 0.0
C49 C 0.25069 0.47163 0.30192 0.0
C50 C 0.27695 0.47888 0.29256 0.0
C51 C 0.28477 0.48899 0.22018 0.0
C52 C 0.26561 0.49146 0.15584 0.0
N53 N 0.31144 0.4974 0.21286 0.0
C54 C 0.33017 0.49953 0.28058 0.0
H55 H 0.05677 0.20678 0.30446 0.0
H56 H 0.06052 0.28592 0.40333 0.0
H57 H 0.09436 0.25518 0.1524 0.0
C58 C 0.06369 0.22525 0.29714 0.0
C59 C 0.07667 0.22819 0.22082 0.0
C60 C 0.05799 0.24586 0.36264 0.0
C61 C 0.06526 0.27006 0.35243 0.0
C62 C 0.07879 0.2735 0.27662 0.0
C63 C 0.08441 0.25249 0.21123 0.0
N64 N 0.08658 0.29777 0.26372 0.0
C65 C 0.07663 0.3198 0.31268 0.0
H66 H 0.32613 0.9721 0.21586 0.0
H67 H 0.24873 0.97959 0.32888 0.0
H68 H 0.27701 0.03255 0.17676 0.0
C69 C 0.30712 0.98111 0.22308 0.0
C70 C 0.30358 1.00222 0.18542 0.0
C71 C 0.28759 0.97271 0.27508 0.0
C72 C 0.26396 0.98604 0.28986 0.0
C73 C 0.26013 0.00792 0.25609 0.0
C74 C 0.27994 0.01577 0.20313 0.0
N75 N 0.23694 0.02259 0.27609 0.0
C76 C 0.21835 0.01911 0.33912 0.0
H77 H 0.51832 0.31698 0.46721 0.0
H78 H 0.52397 0.2556 0.60294 0.0
H79 H 0.49216 0.2436 0.3406 0.0
C80 C 0.51659 0.29705 0.46703 0.0
C81 C 0.50545 0.28136 0.39405 0.0
C82 C 0.52354 0.28816 0.54229 0.0
C83 C 0.51922 0.26255 0.54441 0.0
C84 C 0.5082 0.24624 0.4706 0.0
C85 C 0.50113 0.25593 0.3964 0.0
N86 N 0.50311 0.22024 0.46814 0.0
C87 C 0.51002 0.20644 0.53117 0.0
Tb88 Tb 1.00875 0.02169 0.75399 0.0
Tb89 Tb 0.03976 1.00245 0.91209 0.0
C90 C 0.97921 0.01128 0.91946 0.0
C91 C 0.98435 0.06463 0.61894 0.0
C92 C 0.98976 0.11477 0.59621 0.0
C93 C 0.96665 0.10661 0.63246 0.0
C94 C 0.96394 0.08177 0.64334 0.0
C95 C 1.00702 0.0725 0.57955 0.0
C96 C 1.00961 0.09723 0.56792 0.0
C97 C 0.98285 0.03969 0.64325 0.0
O98 O 1.01993 0.05525 0.84791 0.0
O99 O 0.05209 0.04169 0.93266 0.0
O100 O 0.06759 1.00042 0.804 0.0
O101 O 0.05019 0.02828 0.72663 0.0
O102 O 0.04233 0.99661 0.04127 0.0
O103 O 0.07058 0.9805 0.94486 0.0
O104 O 1.01681 0.97141 0.83785 0.0
O105 O 1.01876 0.98275 0.70554 0.0
O106 O 0.97938 0.00679 0.83365 0.0
O107 O 1.00145 0.01578 0.96354 0.0
C108 C 0.03976 0.05967 0.90381 0.0
O109 O 1.00288 0.02488 0.62316 0.0
O110 O 0.97486 0.03985 0.72248 0.0
C111 C 0.06984 0.01452 0.74452 0.0
C112 C 0.05403 0.95429 0.03396 0.0
C113 C 0.04328 0.90323 0.03528 0.0
C114 C 0.06857 0.91374 0.05753 0.0
C115 C 0.0739 0.93904 0.05664 0.0
C116 C 0.0287 0.94392 0.01241 0.0
C117 C 0.02337 0.91867 0.01323 0.0
C118 C 0.06051 0.97978 0.02072 0.0
C119 C 1.01795 0.96536 0.75293 0.0
H120 H 0.951 0.11959 0.65508 0.0
H121 H 0.94626 0.07618 0.67389 0.0
H122 H 1.0231 0.05978 0.55964 0.0
H123 H 0.02735 0.10264 0.53731 0.0
H124 H 0.08423 0.90246 0.07624 0.0
H125 H 0.09366 0.94658 0.072 0.0
H126 H 1.01315 0.95519 0.993 0.0
H127 H 1.00377 0.91114 0.99514 0.0
Tb128 Tb 0.51371 0.99792 0.74767 0.0
Tb129 Tb 0.53685 0.02526 0.93596 0.0
C130 C 0.52757 0.96752 0.89241 0.0
C131 C 0.4679 0.95873 0.59688 0.0
C132 C 0.42005 0.93096 0.56688 0.0
C133 C 0.44321 0.92203 0.52233 0.0
C134 C 0.46689 0.93591 0.53685 0.0
C135 C 0.44539 0.96679 0.64578 0.0
C136 C 0.42174 0.95322 0.63052 0.0
C137 C 0.49242 0.97392 0.60968 0.0
O138 O 0.48103 0.99782 0.83944 0.0
O139 O 0.49456 0.03229 0.93837 0.0
O140 O 0.54301 0.05207 0.85109 0.0
O141 O 0.51027 0.03827 0.75135 0.0
O142 O 0.56174 0.02582 0.04436 0.0
O143 O 0.53544 0.05636 0.03892 0.0
O144 O 0.57141 0.01127 0.85811 0.0
O145 O 0.5546 0.00686 0.71877 0.0
O146 O 0.53063 0.96939 0.81064 0.0
O147 O 0.52433 0.98776 0.95265 0.0
C148 C 0.47588 0.01632 0.90458 0.0
O149 O 0.48961 0.99791 0.63816 0.0
O150 O 0.51135 0.96505 0.65066 0.0
C151 C 0.52684 0.05597 0.78944 0.0
C152 C 0.5774 0.06657 0.1004 0.0
C153 C 0.62411 0.09565 0.13352 0.0
C154 C 0.61075 0.09357 0.05332 0.0
C155 C 0.58767 0.07899 0.0367 0.0
C156 C 0.58968 0.06981 0.18216 0.0
C157 C 0.61285 0.08418 0.19866 0.0
C158 C 0.55528 0.04869 0.07949 0.0
C159 C 0.57484 0.00839 0.77301 0.0
H160 H 0.44288 0.90475 0.47413 0.0
H161 H 0.48426 0.92908 0.49998 0.0
H162 H 0.44576 0.98408 0.694 0.0
H163 H 0.40449 0.96115 0.66551 0.0
H164 H 0.6188 0.10221 1.00201 0.0
H165 H 0.57845 0.07661 0.97294 0.0
H166 H 0.58205 0.06025 0.23181 0.0
H167 H 0.62282 0.08481 0.26054 0.0
Tb168 Tb 0.49172 0.50447 0.91297 0.0
Tb169 Tb 0.53237 0.51461 0.75906 0.0
C170 C 0.47026 0.51078 0.73132 0.0
C171 C 0.46186 0.46633 0.05797 0.0
C172 C 0.46383 0.4192 0.10981 0.0
C173 C 0.4488 0.42213 0.03673 0.0
C174 C 0.44778 0.44538 0.01126 0.0
C175 C 0.4762 0.4636 0.13277 0.0
C176 C 0.47724 0.4403 0.15823 0.0
C177 C 0.46281 0.49036 0.0258 0.0
O178 O 0.49706 0.4693 0.8225 0.0
O179 O 0.53773 0.47507 0.76501 0.0
O180 O 0.55505 0.5218 0.88189 0.0
O181 O 0.53132 0.49572 0.95146 0.0
O182 O 0.53869 0.51588 0.62672 0.0
O183 O 0.56969 0.52615 0.72157 0.0
O184 O 0.51498 0.55073 0.80949 0.0
O185 O 0.49733 0.54514 0.94084 0.0
O186 O 0.46735 0.51729 0.81622 0.0
O187 O 0.49348 0.50395 0.69774 0.0
C188 C 0.51928 0.4603 0.78774 0.0
O189 O 0.4839 0.50452 0.0454 0.0
O190 O 0.45566 0.48914 0.94475 0.0
C191 C 0.55312 0.50834 0.94301 0.0
C192 C 0.56496 0.55149 0.61446 0.0
C193 C 0.56758 0.59881 0.56388 0.0
C194 C 0.57902 0.59553 0.64294 0.0
C195 C 0.57763 0.57219 0.66816 0.0
C196 C 0.55422 0.55462 0.53427 0.0
C197 C 0.5554 0.578 0.50946 0.0
C198 C 0.56155 0.52713 0.64322 0.0
C199 C 0.50462 0.55956 0.88604 0.0
H200 H 0.43837 0.40626 0.99766 0.0
H201 H 0.4364 0.44674 0.95355 0.0
H202 H 0.48704 0.47937 0.17083 0.0
H203 H 0.48857 0.43882 0.2159 0.0
H204 H 0.58845 0.61119 0.68646 0.0
H205 H 0.58611 0.57054 0.73052 0.0
H206 H 0.54447 0.53904 0.49127 0.0
H207 H 0.5468 0.57977 0.44739 0.0
Tb208 Tb 0.02757 0.52729 0.79429 0.0
Tb209 Tb 1.00266 0.48658 0.89745 0.0
C210 C 1.00553 0.54399 0.97869 0.0
C211 C 0.08268 0.54823 0.69581 0.0
C212 C 0.12784 0.51841 0.67257 0.0
C213 C 0.11133 0.51978 0.60129 0.0
C214 C 0.08907 0.53479 0.61256 0.0
C215 C 0.10093 0.54893 0.76494 0.0
C216 C 0.12337 0.53407 0.75331 0.0
C217 C 0.0547 0.5541 0.71541 0.0
O218 O 0.05774 0.52122 0.88767 0.0
O219 O 0.04568 0.48131 0.89698 0.0
O220 O 0.9996 0.47087 0.75992 0.0
O221 O 0.0374 0.48942 0.72615 0.0
O222 O 0.97976 0.47814 0.99955 0.0
O223 O 1.00154 0.44927 0.91515 0.0
O224 O 0.96757 0.50049 0.83963 0.0
O225 O 0.9865 0.52532 0.75062 0.0
O226 O 1.00524 0.54878 0.89976 0.0
O227 O 1.01031 0.52129 0.99164 0.0
C228 C 0.0636 0.49939 0.90526 0.0
O229 O 0.03784 0.53723 0.67524 0.0
O230 O 0.04903 0.56091 0.79801 0.0
C231 C 1.01977 0.4712 0.70855 0.0
C232 C 0.96053 0.43801 0.9676 0.0
C233 C 0.91079 0.41433 0.968 0.0
C234 C 0.91825 0.42552 0.89751 0.0
C235 C 0.94294 0.43741 0.89755 0.0
C236 C 0.95411 0.42516 0.03407 0.0
C237 C 0.92947 0.41339 0.03436 0.0
C238 C 0.98417 0.45416 0.97722 0.0
C239 C 0.96575 0.51458 0.77975 0.0
H240 H 0.11504 0.50839 0.53756 0.0
H241 H 0.07555 0.53395 0.55808 0.0
H242 H 0.09678 0.55918 0.83004 0.0
H243 H 0.13627 0.53362 0.8085 0.0
H244 H 0.90445 0.4264 0.84506 0.0
H245 H 0.94773 0.44723 0.84543 0.0
H246 H 0.96752 0.4255 0.08857 0.0
H247 H 0.9244 0.40538 0.0905 0.0
H248 H 0.16823 0.03743 0.36064 0.0
H249 H 0.22599 0.99414 0.47043 0.0
H250 H 0.19452 0.9888 0.58654 0.0
H251 H 0.1419 0.06989 0.56725 0.0
H252 H 0.10828 0.06908 0.52828 0.0
H253 H 0.13521 0.06946 0.45351 0.0
H254 H 0.11663 0.02884 0.35556 0.0
H255 H 0.08964 0.02838 0.42999 0.0
H256 H 0.11055 1.00149 0.40235 0.0
H257 H 0.15672 0.98783 0.68997 0.0
H258 H 0.1155 0.99109 0.77395 0.0
H259 H 0.08147 0.03561 0.59993 0.0
C260 C 0.17413 0.02681 0.40923 0.0
C261 C 0.19947 0.01602 0.40659 0.0
C262 C 0.20663 1.00237 0.47113 0.0
C263 C 0.18889 0.99931 0.53741 0.0
C264 C 0.16402 0.01012 0.53851 0.0
C265 C 0.15659 0.02363 0.47623 0.0
C266 C 0.12863 0.0333 0.49274 0.0
C267 C 0.12851 0.06215 0.51157 0.0
C268 C 0.11028 0.02234 0.41556 0.0
C269 C 0.12148 0.02304 0.57373 0.0
C270 C 0.14223 0.00975 0.59884 0.0
C271 C 0.14039 0.99825 0.67093 0.0
C272 C 0.11676 1.00023 0.71838 0.0
C273 C 0.09503 0.01367 0.69424 0.0
C274 C 0.09764 0.02532 0.6208 0.0
H275 H 0.48883 0.15975 0.50866 0.0
H276 H 0.54328 0.21103 0.67107 0.0
H277 H 0.55333 0.17808 0.75615 0.0
H278 H 0.46313 0.1295 0.67956 0.0
H279 H 0.46075 0.09892 0.60987 0.0
H280 H 0.4576 0.12668 0.56393 0.0
H281 H 0.4955 0.11162 0.45645 0.0
H282 H 0.49882 0.08387 0.50228 0.0
H283 H 0.527 0.10429 0.49863 0.0
H284 H 0.55802 0.1389 0.82057 0.0
H285 H 0.55664 0.09742 0.8619 0.0
H286 H 0.49875 0.07139 0.65712 0.0
C287 C 0.50271 0.16402 0.56269 0.0
C288 C 0.51525 0.18785 0.58413 0.0
C289 C 0.53344 0.19287 0.65436 0.0
C290 C 0.53925 0.17426 0.70271 0.0
C291 C 0.52666 0.1508 0.67971 0.0
C292 C 0.50869 0.14567 0.61145 0.0
C293 C 0.49811 0.11889 0.5993 0.0
C294 C 0.46812 0.11848 0.61407 0.0
C295 C 0.50529 0.10378 0.50879 0.0
C296 C 0.51293 0.10966 0.67122 0.0
C297 C 0.52932 0.12835 0.71674 0.0
C298 C 0.54519 0.1242 0.78543 0.0
C299 C 0.54428 0.10046 0.80835 0.0
C300 C 0.52756 0.08095 0.76303 0.0
C301 C 0.5117 0.08579 0.69342 0.0
H302 H 0.38393 0.49259 0.28431 0.0
H303 H 0.31579 0.51304 0.44825 0.0
H304 H 0.34429 0.51817 0.57976 0.0
H305 H 0.41706 0.45728 0.42627 0.0
H306 H 0.44981 0.46799 0.40502 0.0
H307 H 0.4243 0.466 0.32314 0.0
H308 H 0.43218 0.51272 0.31712 0.0
H309 H 0.45773 0.51491 0.39902 0.0
H310 H 0.43038 0.53611 0.41608 0.0
H311 H 0.37972 0.52125 0.69322 0.0
H312 H 0.41967 0.52179 0.78326 0.0
H313 H 0.46632 0.49929 0.54903 0.0
C314 C 0.37514 0.49815 0.34807 0.0
C315 C 0.34764 0.50242 0.35655 0.0
C316 C 0.33677 0.50967 0.44063 0.0
C317 C 0.35282 0.51264 0.51564 0.0
C318 C 0.37984 0.50833 0.5056 0.0
C319 C 0.39101 0.50124 0.42411 0.0
C320 C 0.4207 0.49784 0.43246 0.0
C321 C 0.42841 0.47066 0.39448 0.0
C322 C 0.43616 0.51651 0.38856 0.0
C323 C 0.42437 0.504 0.53131 0.0
C324 C 0.40047 0.51006 0.57177 0.0
C325 C 0.39854 0.51653 0.66223 0.0
C326 C 0.4215 0.51679 0.71299 0.0
C327 C 0.4464 0.51058 0.67394 0.0
C328 C 0.44771 0.50412 0.58137 0.0
H329 H 0.10005 0.36309 0.40008 0.0
H330 H 0.02462 0.32509 0.33588 0.0
H331 H 1.00168 0.3616 0.42151 0.0
H332 H 0.08482 0.39091 0.6197 0.0
H333 H 0.10225 0.42007 0.61935 0.0
H334 H 0.11269 0.3917 0.54879 0.0
H335 H 0.10823 0.41314 0.41556 0.0
H336 H 0.09745 0.44153 0.48558 0.0
H337 H 0.07721 0.42673 0.39423 0.0
H338 H 0.9872 0.40037 0.5194 0.0
H339 H 0.98159 0.43937 0.62774 0.0
H340 H 0.06621 0.45356 0.62904 0.0
C341 C 0.07869 0.36272 0.40376 0.0
C342 C 0.06386 0.34158 0.36162 0.0
C343 C 0.03609 0.34133 0.36778 0.0
C344 C 1.02297 0.36195 0.41594 0.0
C345 C 0.03801 0.38262 0.45707 0.0
C346 C 0.06525 0.38326 0.45167 0.0
C347 C 0.0766 0.40751 0.50533 0.0
C348 C 0.09518 0.40222 0.57758 0.0
C349 C 0.0907 0.42315 0.44665 0.0
C350 C 0.0515 0.42005 0.54313 0.0
C351 C 0.02952 0.40537 0.51368 0.0
C352 C 1.0042 0.41216 0.54234 0.0
C353 C 1.00123 0.43433 0.60401 0.0
C354 C 0.02343 0.44953 0.63638 0.0
C355 C 0.04885 0.44251 0.60429 0.0
H356 H 0.88373 0.00585 0.32783 0.0
H357 H 0.81748 1.00432 0.15046 0.0
H358 H 0.8484 0.00665 0.02952 0.0
H359 H 0.92478 0.04967 0.23615 0.0
H360 H 0.95521 0.03421 0.25126 0.0
H361 H 0.92793 0.03263 0.3237 0.0
H362 H 0.92934 0.98409 0.28767 0.0
H363 H 0.95659 0.98554 0.21501 0.0
H364 H 0.92708 0.96792 0.17548 0.0
H365 H 0.8867 0.008 0.92691 0.0
H366 H 0.92915 0.00953 0.85099 0.0
H367 H 0.97114 0.01103 0.09487 0.0
C368 C 0.87585 0.00612 0.26347 0.0
C369 C 0.84826 0.00491 0.24797 0.0
C370 C 0.83856 0.00523 0.16327 0.0
C371 C 0.85598 0.00654 0.09433 0.0
C372 C 0.88313 0.00759 0.11122 0.0
C373 C 0.89304 0.00751 0.1938 0.0
C374 C 0.92308 0.00874 0.19416 0.0
C375 C 0.93335 0.03274 0.25492 0.0
C376 C 0.9347 0.98517 0.21959 0.0
C377 C 0.92852 0.00948 0.099 0.0
C378 C 0.90517 0.00871 0.05232 0.0
C379 C 0.90507 0.00871 0.96302 0.0
C380 C 0.92937 0.00954 0.92031 0.0
C381 C 0.95365 0.01049 0.96656 0.0
C382 C 0.95303 0.0105 0.05741 0.0
H383 H 0.53023 0.86423 0.19907 0.0
H384 H 0.53538 0.80752 0.96305 0.0
H385 H 0.53269 0.84064 0.87413 0.0
H386 H 0.48403 0.90501 0.11395 0.0
H387 H 0.49953 0.93351 0.17219 0.0
H388 H 0.50066 0.9053 0.21644 0.0
H389 H 0.5517 0.90887 0.2244 0.0
H390 H 0.55073 0.937 0.17981 0.0
H391 H 0.57001 0.91081 0.12716 0.0
H392 H 0.53124 0.88009 0.81196 0.0
H393 H 0.53026 0.9225 0.77904 0.0
H394 H 0.5259 0.95439 0.05603 0.0
C395 C 0.53044 0.85885 0.12854 0.0
C396 C 0.53276 0.8334 0.08732 0.0
C397 C 0.53337 0.82693 0.99534 0.0
C398 C 0.5319 0.84562 0.9446 0.0
C399 C 0.52983 0.87066 0.98709 0.0
C400 C 0.52897 0.87731 0.07703 0.0
C401 C 0.52727 0.90562 0.10643 0.0
C402 C 0.50133 0.91278 0.15513 0.0
C403 C 0.55137 0.91619 0.16278 0.0
C404 C 0.52758 0.91394 0.01907 0.0
C405 C 0.52902 0.89343 0.95122 0.0
C406 C 0.53001 0.89624 0.86461 0.0
C407 C 0.52951 0.92055 0.84666 0.0
C408 C 0.52803 0.94201 0.91479 0.0
C409 C 0.52698 0.9385 1.0023 0.0
H410 H 0.69308 0.54392 0.19231 0.0
H411 H 0.67732 0.48286 0.3274 0.0
H412 H 0.63562 0.47283 0.24353 0.0
H413 H 0.62613 0.56416 0.18424 0.0
H414 H 0.6284 0.57131 0.07657 0.0
H415 H 0.65746 0.57329 0.14465 0.0
H416 H 0.68138 0.54251 0.02334 0.0
H417 H 0.6524 0.5405 0.95476 0.0
H418 H 0.66636 0.51237 0.97954 0.0
H419 H 0.59492 0.4705 0.1504 0.0
H420 H 0.55832 0.47476 0.05075 0.0
H421 H 0.5998 0.53695 0.97055 0.0
C422 C 0.68088 0.52831 0.20336 0.0
C423 C 0.68834 0.51402 0.26604 0.0
C424 C 0.67193 0.4939 0.27946 0.0
C425 C 0.64822 0.48812 0.23216 0.0
C426 C 0.6412 0.5026 0.17125 0.0
C427 C 0.65707 0.52221 0.15616 0.0
C428 C 0.64459 0.5349 0.08743 0.0
C429 C 0.6388 0.56256 0.12552 0.0
C430 C 0.66224 0.53242 0.00646 0.0
C431 C 0.61915 0.51954 0.06697 0.0
C432 C 0.61769 0.50104 0.11635 0.0
C433 C 0.59594 0.48482 0.11111 0.0
C434 C 0.57513 0.48748 0.05417 0.0
C435 C 0.57597 0.50618 1.00217 0.0
C436 C 0.59849 0.52236 0.00873 0.0
H437 H 1.00757 0.68727 0.22779 0.0
H438 H 0.99611 0.66025 0.46837 0.0
H439 H 0.99331 0.61652 0.38506 0.0
H440 H 0.9631 0.64196 0.09271 0.0
H441 H 0.98389 0.63868 0.99793 0.0
H442 H 0.98395 0.6678 0.07628 0.0
H443 H 0.03464 0.66517 0.09491 0.0
H444 H 0.03472 0.63606 0.01673 0.0
H445 H 0.04844 0.63755 0.12433 0.0
H446 H 0.99402 0.5758 0.27632 0.0
H447 H 0.99726 0.54083 0.14948 0.0
H448 H 1.00739 0.5945 0.97904 0.0
C449 C 1.0042 0.67208 0.2624 0.0
C450 C 1.00189 0.6768 0.35394 0.0
C451 C 0.99777 0.65672 0.39791 0.0
C452 C 0.99617 0.63193 0.35123 0.0
C453 C 0.99866 0.6277 0.26072 0.0
C454 C 1.00247 0.64721 0.21664 0.0
C455 C 1.00513 0.63748 0.11941 0.0
C456 C 0.98267 0.64705 0.0686 0.0
C457 C 0.03235 0.64448 0.08698 0.0
C458 C 1.00246 0.60949 0.11584 0.0
C459 C 0.99874 0.60424 0.19801 0.0
C460 C 0.99671 0.57967 0.21152 0.0
C461 C 0.99862 0.55994 0.13912 0.0
C462 C 1.00242 0.56489 0.05427 0.0
C463 C 1.00416 0.59005 0.04285 0.0
H464 H 0.07653 0.22457 0.49163 0.0
H465 H 1.00564 0.25256 0.39228 0.0
H466 H 0.97845 0.22687 0.47341 0.0
H467 H 0.05938 0.16687 0.45215 0.0
H468 H 0.07303 0.15668 0.54593 0.0
H469 H 0.08689 0.18365 0.51158 0.0
H470 H 0.07904 0.21129 0.66373 0.0
H471 H 0.06594 0.18414 0.70056 0.0
H472 H 0.04666 0.21217 0.71157 0.0
H473 H 0.96039 0.18933 0.52303 0.0
H474 H 0.95276 0.14663 0.55059 0.0
H475 H 0.03532 0.14306 0.62177 0.0
C476 C 0.05529 0.22663 0.4928 0.0
C477 C 0.04303 0.24088 0.43814 0.0
C478 C 1.01523 0.24231 0.43633 0.0
C479 C 0.99969 0.22759 0.48167 0.0
C480 C 1.01237 0.21191 0.5292 0.0
C481 C 0.03963 0.21191 0.53729 0.0
C482 C 0.04869 0.19033 0.57796 0.0
C483 C 0.0681 0.1734 0.5183 0.0
C484 C 0.06079 0.20007 0.66887 0.0
C485 C 1.0226 0.17699 0.58445 0.0
C486 C 1.00179 0.18995 0.55804 0.0
C487 C 0.97637 0.17948 0.54704 0.0
C488 C 0.97223 0.15515 0.56268 0.0
C489 C 0.99344 0.14144 0.58837 0.0
C490 C 1.0187 0.15295 0.60174 0.0
H491 H 0.31792 0.93145 0.21877 0.0
H492 H 0.2725 0.96799 0.4408 0.0
H493 H 0.2946 0.943 0.53294 0.0
H494 H 0.33803 0.87097 0.30888 0.0
H495 H 0.37083 0.87391 0.26729 0.0
H496 H 0.34257 0.88188 0.20805 0.0
H497 H 0.36316 0.92593 0.21005 0.0
H498 H 0.39114 0.91803 0.26818 0.0
H499 H 0.37239 0.94545 0.3133 0.0
H500 H 0.33005 0.92702 0.61115 0.0
H501 H 0.37554 0.92827 0.66667 0.0
H502 H 0.40415 0.90965 0.40112 0.0
C503 C 0.31206 0.9336 0.2863 0.0
C504 C 0.29382 0.9521 0.32237 0.0
C505 C 0.28617 0.95386 0.41043 0.0
C506 C 0.29876 0.9396 0.46378 0.0
C507 C 0.31924 0.92393 0.42887 0.0
C508 C 0.3258 0.92078 0.34139 0.0
C509 C 0.35303 0.90971 0.32479 0.0
C510 C 0.35098 0.8825 0.27429 0.0
C511 C 0.37094 0.92577 0.27649 0.0
C512 C 0.36217 0.91054 0.41778 0.0
C513 C 0.34169 0.91673 0.47604 0.0
C514 C 0.34609 0.92186 0.566 0.0
C515 C 0.37214 0.92287 0.59699 0.0
C516 C 0.39358 0.91994 0.53807 0.0
C517 C 0.38831 0.91178 0.44798 0.0
H518 H 0.56097 0.32483 0.54764 0.0
H519 H 0.50234 0.29638 0.70585 0.0
H520 H 0.50177 0.33764 0.80544 0.0
H521 H 0.59301 0.3759 0.72716 0.0
H522 H 0.59527 0.39683 0.65097 0.0
H523 H 0.5987 0.36351 0.61316 0.0
H524 H 0.56139 0.36445 0.50043 0.0
H525 H 0.55696 0.39742 0.53935 0.0
H526 H 0.5294 0.37595 0.53767 0.0
H527 H 0.49805 0.38339 0.86139 0.0
H528 H 0.49427 0.42909 0.8785 0.0
H529 H 0.55298 0.42946 0.67716 0.0
C530 C 0.54925 0.32693 0.60639 0.0
C531 C 0.53181 0.30738 0.61947 0.0
C532 C 0.5162 0.31087 0.69549 0.0
C533 C 0.51557 0.33442 0.75187 0.0
C534 C 0.53079 0.35413 0.7314 0.0
C535 C 0.54779 0.35051 0.66127 0.0
C536 C 0.55814 0.37538 0.64306 0.0
C537 C 0.58806 0.37806 0.65961 0.0
C538 C 0.55103 0.37846 0.54967 0.0
C539 C 0.54317 0.39363 0.71065 0.0
C540 C 0.52796 0.38095 0.76205 0.0
C541 C 0.51035 0.39348 0.82292 0.0
C542 C 0.50814 0.41949 0.83135 0.0
C543 C 0.5233 0.43291 0.77887 0.0
C544 C 0.54141 0.41979 0.7189 0.0
H545 H 0.25825 0.4983 0.46426 0.0
H546 H 0.22113 0.4306 0.32048 0.0
H547 H 0.19357 0.42765 0.44731 0.0
H548 H 0.24263 0.48351 0.70534 0.0
H549 H 0.23697 0.51652 0.74218 0.0
H550 H 0.26297 0.50627 0.66546 0.0
H551 H 0.2432 0.5326 0.5606 0.0
H552 H 0.2173 0.54259 0.63555 0.0
H553 H 0.20924 0.52718 0.52524 0.0
H554 H 0.15965 0.44064 0.55146 0.0
H555 H 0.12386 0.46804 0.61641 0.0
H556 H 0.17992 0.52888 0.69762 0.0
C557 C 0.24554 0.48202 0.46253 0.0
C558 C 0.24172 0.46464 0.38378 0.0
C559 C 0.22435 0.44396 0.38096 0.0
C560 C 0.20877 0.44211 0.45315 0.0
C561 C 0.21078 0.4611 0.52749 0.0
C562 C 0.22934 0.48045 0.53368 0.0
C563 C 0.22319 0.50175 0.60886 0.0
C564 C 0.24259 0.50201 0.68497 0.0
C565 C 0.22317 0.52748 0.58067 0.0
C566 C 0.1959 0.49359 0.63236 0.0
C567 C 0.18999 0.46925 0.58956 0.0
C568 C 0.16436 0.45929 0.58753 0.0
C569 C 0.14407 0.47502 0.6238 0.0
C570 C 0.14952 0.50041 0.66094 0.0
C571 C 0.17577 0.50929 0.67076 0.0
H572 H 0.97833 0.80233 0.26065 0.0
H573 H 0.04778 0.75827 0.18746 0.0
H574 H 0.05726 0.78254 0.07272 0.0
H575 H 0.96413 0.82064 0.03313 0.0
H576 H 0.95517 0.85153 0.08949 0.0
H577 H 0.94766 0.82453 0.13688 0.0
H578 H 0.97241 0.8459 0.27768 0.0
H579 H 0.98085 0.87244 0.23059 0.0
H580 H 1.00659 0.85515 0.27132 0.0
H581 H 0.06704 0.81912 1.00377 0.0
H582 H 0.07419 0.86217 0.97845 0.0
H583 H 0.99961 0.88421 0.10298 0.0
C584 C 0.99429 0.79662 0.21554 0.0
C585 C 1.01201 0.77819 0.23104 0.0
C586 C 0.03359 0.77184 0.17457 0.0
C587 C 0.03922 0.78576 0.10979 0.0
C588 C 1.0229 0.80576 0.10221 0.0
C589 C 1.00039 0.81079 0.15231 0.0
C590 C 0.9893 0.83614 0.14605 0.0
C591 C 0.96247 0.83301 0.09852 0.0
C592 C 0.98721 0.85339 0.23673 0.0
C593 C 1.01023 0.84552 0.09102 0.0
C594 C 0.02902 0.82749 0.06402 0.0
C595 C 0.05203 0.83308 0.02234 0.0
C596 C 0.0561 0.85768 0.00923 0.0
C597 C 0.03743 0.87654 0.03868 0.0
C598 C 1.01391 0.87006 0.07777 0.0
H599 H 0.73547 0.09294 0.43315 0.0
H600 H 0.77129 0.05002 0.20149 0.0
H601 H 0.7485 0.07535 0.11165 0.0
H602 H 0.67822 0.08597 0.36765 0.0
H603 H 0.66419 0.1161 0.41139 0.0
H604 H 0.69292 0.10642 0.46125 0.0
H605 H 0.71806 0.14656 0.43989 0.0
H606 H 0.68898 0.15654 0.38977 0.0
H607 H 0.72001 0.15425 0.33293 0.0
H608 H 0.71059 0.08957 0.04483 0.0
H609 H 0.66338 0.08878 0.01209 0.0
H610 H 0.64741 0.12299 0.2806 0.0
C611 C 0.73931 0.08978 0.36381 0.0
C612 C 0.75473 0.06934 0.32422 0.0
C613 C 0.75972 0.0657 0.23372 0.0
C614 C 0.74676 0.08013 0.18193 0.0
C615 C 0.72887 0.09809 0.22143 0.0
C616 C 0.72557 0.10341 0.31122 0.0
C617 C 0.70057 0.11805 0.33595 0.0
C618 C 0.68297 0.10585 0.39741 0.0
C619 C 0.70732 0.14548 0.37702 0.0
C620 C 0.68817 0.11625 0.24649 0.0
C621 C 0.70561 0.10632 0.18106 0.0
C622 C 0.69708 0.09814 0.095 0.0
C623 C 0.67001 0.09781 0.07676 0.0
C624 C 0.6517 0.1055 0.14449 0.0
C625 C 0.66114 0.11689 0.22814 0.0
H626 H 0.54828 0.70232 0.97357 0.0
H627 H 0.4728 0.71921 0.09731 0.0
H628 H 0.45673 0.67638 0.03538 0.0
H629 H 0.51998 0.65431 0.77052 0.0
H630 H 0.54891 0.63545 0.77065 0.0
H631 H 0.5516 0.66914 0.80139 0.0
H632 H 0.57351 0.66447 0.94694 0.0
H633 H 0.57018 0.63093 0.91897 0.0
H634 H 0.55616 0.64771 0.01902 0.0
H635 H 0.45452 0.62951 1.00303 0.0
H636 H 0.46209 0.58371 0.96898 0.0
H637 H 0.53761 0.59695 0.85524 0.0
C638 C 0.5277 0.69757 0.98124 0.0
C639 C 0.51153 0.71422 0.0383 0.0
C640 C 0.48513 0.70701 0.05142 0.0
C641 C 0.476 0.68253 0.01755 0.0
C642 C 0.49327 0.66574 0.96835 0.0
C643 C 0.51819 0.67324 0.94652 0.0
C644 C 0.53387 0.65089 0.90093 0.0
C645 C 0.53887 0.65255 0.8052 0.0
C646 C 0.55995 0.64837 0.94943 0.0
C647 C 0.51475 0.62959 0.90717 0.0
C648 C 0.49139 0.63852 0.94594 0.0
C649 C 0.47227 0.62232 0.96946 0.0
C650 C 0.47686 0.59638 0.95107 0.0
C651 C 0.50026 0.58689 0.90878 0.0
C652 C 0.51928 0.60375 0.88602 0.0
H653 H 0.78722 0.47681 0.15959 0.0
H654 H 0.79038 0.42367 0.33194 0.0
H655 H 0.8139 0.39395 0.21933 0.0
H656 H 0.79087 0.42763 0.9363 0.0
H657 H 0.81214 0.44924 0.89387 0.0
H658 H 0.78577 0.46093 0.96727 0.0
H659 H 0.81951 0.48882 0.06937 0.0
H660 H 0.84557 0.47731 0.99668 0.0
H661 H 0.84764 0.4744 0.1096 0.0
H662 H 0.84749 0.37656 0.11402 0.0
H663 H 0.89008 0.37556 0.03841 0.0
H664 H 0.86817 0.44117 0.93707 0.0
C665 C 0.79143 0.45822 0.17077 0.0
C666 C 0.78661 0.45216 0.25297 0.0
C667 C 0.79351 0.42832 0.26836 0.0
C668 C 0.80675 0.41132 0.20443 0.0
C669 C 0.81305 0.41852 0.12577 0.0
C670 C 0.80534 0.44144 0.10837 0.0
C671 C 0.8199 0.44763 0.03051 0.0
C672 C 0.80104 0.44626 0.95235 0.0
C673 C 0.834 0.47352 0.05305 0.0
C674 C 0.83925 0.4263 0.01387 0.0
C675 C 0.83394 0.4089 0.06576 0.0
C676 C 0.85145 0.38971 0.07164 0.0
C677 C 0.87574 0.38937 0.02886 0.0
C678 C 0.88259 0.40851 0.98278 0.0
C679 C 0.86332 0.42601 0.97026 0.0
H680 H 0.09172 0.18096 0.23538 0.0
H681 H 0.0655 0.22452 0.04698 0.0
H682 H 0.05846 0.1854 0.93807 0.0
H683 H 0.12213 0.12786 0.07597 0.0
H684 H 0.11024 0.10514 0.1373 0.0
H685 H 0.11891 0.13652 0.19284 0.0
H686 H 0.07234 0.141 0.2614 0.0
H687 H 0.0633 0.10991 0.20502 0.0
H688 H 0.04363 0.13624 0.1911 0.0
H689 H 0.0461 0.14206 0.86091 0.0
H690 H 0.03299 0.09761 0.81542 0.0
H691 H 0.06644 0.08163 0.05469 0.0
C692 C 0.08533 0.18231 0.17021 0.0
C693 C 0.07924 0.20582 0.14953 0.0
C694 C 0.07074 0.20681 0.06386 0.0
C695 C 0.06649 0.18464 1.00179 0.0
C696 C 0.0711 0.1617 0.02625 0.0
C697 C 0.08079 0.16038 0.10798 0.0
C698 C 0.08135 0.13348 0.12139 0.0
C699 C 0.10986 0.12527 0.1325 0.0
C700 C 0.06413 0.12997 0.19931 0.0
C701 C 0.06945 0.1199 0.0357 0.0
C702 C 0.06392 0.13653 0.9815 0.0
C703 C 0.05084 0.12883 0.90202 0.0
C704 C 0.04326 0.10353 0.87719 0.0
C705 C 0.04874 0.08611 0.93152 0.0
C706 C 0.06233 0.09442 0.0113 0.0
H707 H 0.33488 0.97298 0.06275 0.0
H708 H 0.32401 0.04999 0.19544 0.0
H709 H 0.36538 0.06233 0.12999 0.0
H710 H 0.40316 0.97159 0.09534 0.0
H711 H 0.41036 0.95225 0.99086 0.0
H712 H 0.3785 0.94993 0.0396 0.0
H713 H 0.35569 0.95931 0.90098 0.0
H714 H 0.3875 0.96151 0.85148 0.0
H715 H 0.36493 0.98721 0.86131 0.0
H716 H 0.41077 0.06525 0.06431 0.0
H717 H 0.45453 0.0594 0.99515 0.0
H718 H 0.43591 0.98054 0.90124 0.0
C719 C 0.34091 0.99256 0.0768 0.0
C720 C 0.32596 0.01055 0.13431 0.0
C721 C 0.33472 0.03592 0.1508 0.0
C722 C 0.35836 0.04306 0.11432 0.0
C723 C 0.373 0.02469 0.0604 0.0
C724 C 0.36439 1.0 0.04057 0.0
C725 C 0.38435 0.98368 0.984 0.0
C726 C 0.3947 0.96316 0.03022 0.0
C727 C 0.3724 0.97225 0.89411 0.0
C728 C 0.40585 1.00293 0.9764 0.0
C729 C 0.39889 0.02647 0.02109 0.0
C730 C 0.41617 0.04699 0.02809 0.0
C731 C 0.4411 0.04343 0.98873 0.0
C732 C 0.44872 0.01956 0.94195 0.0
C733 C 0.4306 0.99911 0.93519 0.0
H734 H 0.53332 0.31391 0.31541 0.0
H735 H 0.45688 0.27689 0.31316 0.0
H736 H 0.4387 0.30567 0.2237 0.0
H737 H 0.51035 0.37284 0.35623 0.0
H738 H 0.53365 0.38629 0.29076 0.0
H739 H 0.54249 0.3593 0.33453 0.0
H740 H 0.5529 0.33443 0.17988 0.0
H741 H 0.54481 0.36158 0.1352 0.0
H742 H 0.52841 0.33192 0.09437 0.0
H743 H 0.42728 0.34319 0.15706 0.0
H744 H 0.42414 0.38427 0.11246 0.0
H745 H 0.50791 0.39752 0.16421 0.0
C746 C 0.513 0.31124 0.29311 0.0
C747 C 0.49653 0.29305 0.32059 0.0
C748 C 0.46996 0.29035 0.29145 0.0
C749 C 0.45944 0.30678 0.24124 0.0
C750 C 0.47584 0.32563 0.22031 0.0
C751 C 0.50221 0.32764 0.24426 0.0
C752 C 0.51498 0.35111 0.22316 0.0
C753 C 0.52599 0.3684 0.3061 0.0
C754 C 0.53655 0.34435 0.15402 0.0
C755 C 0.49147 0.36259 0.1866 0.0
C756 C 0.46916 0.34746 0.18409 0.0
C757 C 0.44476 0.35491 0.1572 0.0
C758 C 0.44316 0.3783 0.13198 0.0
C759 C 0.46578 0.39416 0.13467 0.0
C760 C 0.49022 0.38596 0.16188 0.0
H761 H 0.19462 0.51307 0.20198 0.0
H762 H 0.23331 0.46295 0.99209 0.0
H763 H 0.1931 0.46212 0.89972 0.0
H764 H 0.13216 0.4856 0.17612 0.0
H765 H 0.11395 0.51436 0.19893 0.0
H766 H 0.14649 0.51318 0.24453 0.0
H767 H 0.16198 0.55037 0.1748 0.0
H768 H 0.12931 0.55199 0.13023 0.0
H769 H 0.15752 0.54858 0.05917 0.0
H770 H 0.14593 0.46283 0.83747 0.0
H771 H 0.09862 0.46876 0.80571 0.0
H772 H 0.09162 0.52031 0.05327 0.0
C773 C 0.19487 0.5025 0.13559 0.0
C774 C 0.21725 0.48827 0.10379 0.0
C775 C 0.21664 0.47433 0.0172 0.0
C776 C 0.19376 0.4736 0.96464 0.0
C777 C 0.1717 0.48722 0.9991 0.0
C778 C 0.17236 0.50188 0.08206 0.0
C779 C 0.14595 0.51433 0.10495 0.0
C780 C 0.13394 0.50638 0.18592 0.0
C781 C 0.14887 0.54302 0.11805 0.0
C782 C 0.12994 0.50377 0.02327 0.0
C783 C 0.14509 0.48812 0.96284 0.0
C784 C 0.13409 0.47523 0.88421 0.0
C785 C 0.10715 0.47853 0.86693 0.0
C786 C 0.09147 0.49479 0.92736 0.0
C787 C 0.10316 0.50772 0.00606 0.0
H788 H 0.99953 0.8175 0.6183 0.0
H789 H 0.06974 0.81883 0.46171 0.0
H790 H 0.0782 0.86294 0.53081 0.0
H791 H 0.97618 0.87259 0.60439 0.0
H792 H 0.96526 0.88342 0.71483 0.0
H793 H 0.96771 0.85035 0.67217 0.0
H794 H 0.99922 0.84519 0.79852 0.0
H795 H 0.99605 0.87817 0.84362 0.0
H796 H 0.02828 0.86502 0.82077 0.0
H797 H 0.07207 0.90798 0.58166 0.0
H798 H 0.05764 0.95109 0.64081 0.0
H799 H 0.99396 0.92171 0.77822 0.0
C800 C 1.01746 0.82674 0.60271 0.0
C801 C 0.03405 0.81492 0.53503 0.0
C802 C 0.05694 0.82766 0.51381 0.0
C803 C 0.06186 0.85271 0.55254 0.0
C804 C 0.04412 0.86452 0.61431 0.0
C805 C 1.02297 0.85181 0.6424 0.0
C806 C 1.00584 0.86974 0.70464 0.0
C807 C 0.97706 0.86897 0.67197 0.0
C808 C 1.00745 0.8642 0.79737 0.0
C809 C 1.01933 0.89458 0.70039 0.0
C810 C 0.04147 0.89102 0.64827 0.0
C811 C 0.05535 0.91104 0.62512 0.0
C812 C 0.04677 0.93539 0.65769 0.0
C813 C 0.02474 0.9395 0.71352 0.0
C814 C 1.01101 0.9189 0.73602 0.0
H815 H 0.6901 0.01878 0.42888 0.0
H816 H 0.74669 0.00654 0.62496 0.0
H817 H 0.70977 1.00039 0.7227 0.0
H818 H 0.64549 0.05451 0.57377 0.0
H819 H 0.61618 0.04172 0.51456 0.0
H820 H 0.64685 0.04295 0.45761 0.0
H821 H 0.64345 0.99511 0.39745 0.0
H822 H 0.61266 0.99374 0.4538 0.0
H823 H 0.63948 0.97394 0.47226 0.0
H824 H 0.66624 0.99945 0.80441 0.0
H825 H 0.6205 1.00083 0.85889 0.0
H826 H 0.59209 0.01346 0.60879 0.0
C827 C 0.69483 0.0146 0.49213 0.0
C828 C 0.72153 0.01324 0.51909 0.0
C829 C 0.72657 0.00743 0.60214 0.0
C830 C 0.70566 1.00409 0.6584 0.0
C831 C 0.67967 0.00637 0.63064 0.0
C832 C 0.67422 0.0112 0.54889 0.0
C833 C 0.64465 0.01346 0.53537 0.0
C834 C 0.63791 0.03972 0.5194 0.0
C835 C 0.63446 0.99283 0.46027 0.0
C836 C 0.63421 0.00947 0.62275 0.0
C837 C 0.65474 0.00544 0.67686 0.0
C838 C 0.65008 1.0023 0.76205 0.0
C839 C 0.62392 1.0032 0.79258 0.0
C840 C 0.60244 0.00707 0.73827 0.0
C841 C 0.60787 0.01014 0.65191 0.0
H842 H 0.51207 0.70364 0.3253 0.0
H843 H 0.58987 0.73862 0.35001 0.0
H844 H 0.60359 0.7099 0.44712 0.0
H845 H 0.50846 0.6881 0.54838 0.0
H846 H 0.49175 0.65869 0.50607 0.0
H847 H 0.48696 0.68523 0.45454 0.0
H848 H 0.50127 0.65838 0.30673 0.0
H849 H 0.50657 0.63194 0.35779 0.0
H850 H 0.533 0.64353 0.29883 0.0
H851 H 0.61026 0.67296 0.52406 0.0
H852 H 0.6091 0.63259 0.57511 0.0
H853 H 0.52709 0.62149 0.4939 0.0
C854 C 0.53177 0.70578 0.35337 0.0
C855 C 0.54992 0.72341 0.33061 0.0
C856 C 0.57557 0.7255 0.36778 0.0
C857 C 0.58352 0.70916 0.42251 0.0
C858 C 0.56547 0.69104 0.43983 0.0
C859 C 0.53998 0.68955 0.40702 0.0
C860 C 0.52509 0.667 0.427 0.0
C861 C 0.50168 0.67525 0.48762 0.0
C862 C 0.51597 0.64917 0.34258 0.0
C863 C 0.5464 0.65539 0.4735 0.0
C864 C 0.56945 0.66968 0.48178 0.0
C865 C 0.59218 0.66189 0.51899 0.0
C866 C 0.59133 0.63893 0.54787 0.0
C867 C 0.56803 0.62383 0.53828 0.0
C868 C 0.54526 0.63248 0.50155 0.0
H869 H 0.82458 0.47396 0.55441 0.0
H870 H 0.82078 0.54854 0.49507 0.0
H871 H 0.86188 0.56054 0.57977 0.0
H872 H 0.85234 0.49387 0.77911 0.0
H873 H 0.8729 0.46669 0.76889 0.0
H874 H 0.84189 0.46467 0.71065 0.0
H875 H 0.86618 0.44862 0.56539 0.0
H876 H 0.89723 0.45076 0.62312 0.0
H877 H 0.89306 0.46702 0.53394 0.0
H878 H 0.90644 0.56278 0.65463 0.0
H879 H 0.9488 0.55644 0.72569 0.0
H880 H 0.92335 0.48116 0.74459 0.0
C881 C 0.83212 0.49299 0.56064 0.0
C882 C 0.81918 0.51037 0.51812 0.0
C883 C 0.82989 0.53501 0.5279 0.0
C884 C 0.85341 0.54194 0.5755 0.0
C885 C 0.86597 0.52418 0.61448 0.0
C886 C 0.85545 0.50032 0.60899 0.0
C887 C 0.87335 0.48457 0.65477 0.0
C888 C 0.85928 0.47701 0.733 0.0
C889 C 0.88302 0.46138 0.59045 0.0
C890 C 0.89593 0.50308 0.6848 0.0
C891 C 0.89125 0.5258 0.66059 0.0
C892 C 0.91003 0.54524 0.67528 0.0
C893 C 0.93413 0.54142 0.71547 0.0
C894 C 0.93935 0.51846 0.7419 0.0
C895 C 0.91976 0.49913 0.72699 0.0
loop_
_geom_bond_atom_site_label_1
_geom_bond_atom_site_label_2
_geom_bond_distance
_geom_bond_site_symmetry_2
_ccdc_geom_bond_type
H0 C3 0.929 . S
H1 C6 0.929 . S
H2 C8 0.930 . S
C3 H0 0.929 . S
C3 C4 1.398 . S
C3 C5 1.396 . S
C4 C3 1.398 . S
C4 C8 1.407 . S
C5 C3 1.396 . S
C5 C6 1.394 . S
C6 H1 0.929 . S
C6 C5 1.394 . S
C6 C7 1.382 . S
C7 C6 1.382 . S
C7 C8 1.392 . S
C7 N9 1.420 . S
C8 H2 0.930 . S
C8 C4 1.407 . S
C8 C7 1.392 . S
N9 C7 1.420 . S
N9 C10 1.244 . S
C10 N9 1.244 . S
H11 C14 0.929 . S
H12 C17 0.929 . S
H13 C19 0.930 . S
C14 H11 0.929 . S
C14 C15 1.398 1_655 S
C14 C16 1.397 . S
C15 C14 1.398 1_455 S
C15 C19 1.407 . S
C16 C14 1.397 . S
C16 C17 1.392 1_655 S
C17 H12 0.929 . S
C17 C16 1.392 1_455 S
C17 C18 1.382 . S
C18 C17 1.382 . S
C18 C19 1.392 . S
C18 N20 1.420 . S
C19 H13 0.930 . S
C19 C15 1.407 . S
C19 C18 1.392 . S
N20 C18 1.420 . S
N20 C21 1.244 1_455 S
C21 N20 1.244 1_655 S
H22 C25 0.929 . S
H23 C28 0.929 . S
H24 C30 0.930 . S
C25 H22 0.929 . S
C25 C26 1.401 1_565 S
C25 C27 1.392 1_565 S
C26 C25 1.401 1_545 S
C26 C30 1.414 . S
C27 C25 1.392 1_545 S
C27 C28 1.397 . S
C28 H23 0.929 . S
C28 C27 1.397 . S
C28 C29 1.382 . S
C29 C28 1.382 . S
C29 C30 1.392 . S
C29 N31 1.420 . S
C30 H24 0.930 . S
C30 C26 1.414 . S
C30 C29 1.392 . S
N31 C29 1.420 . S
N31 C32 1.236 1_545 S
C32 N31 1.236 1_565 S
H33 C36 0.929 . S
H34 C39 0.929 . S
H35 C41 0.930 . S
C36 H33 0.929 . S
C36 C37 1.398 . S
C36 C38 1.396 1_554 S
C37 C36 1.398 . S
C37 C41 1.407 . S
C38 C36 1.396 1_556 S
C38 C39 1.394 . S
C39 H34 0.929 . S
C39 C38 1.394 . S
C39 C40 1.382 1_556 S
C40 C39 1.382 1_554 S
C40 C41 1.392 . S
C40 N42 1.420 . S
C41 H35 0.930 . S
C41 C37 1.407 . S
C41 C40 1.392 . S
N42 C40 1.420 . S
N42 C43 1.244 1_554 S
C43 N42 1.244 1_556 S
H44 C47 0.929 . S
H45 C50 0.929 . S
H46 C52 0.930 . S
C47 H44 0.929 . S
C47 C48 1.398 . S
C47 C49 1.396 . S
C48 C47 1.398 . S
C48 C52 1.407 . S
C49 C47 1.396 . S
C49 C50 1.394 . S
C50 H45 0.929 . S
C50 C49 1.394 . S
C50 C51 1.382 . S
C51 C50 1.382 . S
C51 C52 1.392 . S
C51 N53 1.420 . S
C52 H46 0.930 . S
C52 C48 1.407 . S
C52 C51 1.392 . S
N53 C51 1.420 . S
N53 C54 1.244 . S
C54 N53 1.244 . S
H55 C58 0.936 . S
H56 C61 0.929 . S
H57 C63 0.930 . S
C58 H55 0.936 . S
C58 C59 1.395 1_655 S
C58 C60 1.394 1_655 S
C59 C58 1.395 1_455 S
C59 C63 1.407 . S
C60 C58 1.394 1_455 S
C60 C61 1.394 . S
C61 H56 0.929 . S
C61 C60 1.394 . S
C61 C62 1.382 . S
C62 C61 1.382 . S
C62 C63 1.392 . S
C62 N64 1.420 . S
C63 H57 0.930 . S
C63 C59 1.407 . S
C63 C62 1.392 . S
N64 C62 1.420 . S
N64 C65 1.257 . S
C65 N64 1.257 . S
H66 C69 0.929 . S
H67 C72 0.929 . S
H68 C74 0.930 . S
C69 H66 0.929 . S
C69 C70 1.387 1_565 S
C69 C71 1.399 1_565 S
C70 C69 1.387 1_545 S
C70 C74 1.415 . S
C71 C69 1.399 1_545 S
C71 C72 1.398 . S
C72 H67 0.929 . S
C72 C71 1.398 . S
C72 C73 1.382 . S
C73 C72 1.382 . S
C73 C74 1.392 . S
C73 N75 1.420 . S
C74 H68 0.930 . S
C74 C70 1.415 . S
C74 C73 1.392 . S
N75 C73 1.420 . S
N75 C76 1.234 1_545 S
C76 N75 1.234 1_565 S
H77 C80 0.929 . S
H78 C83 0.929 . S
H79 C85 0.930 . S
C80 H77 0.929 . S
C80 C81 1.398 . S
C80 C82 1.396 . S
C81 C80 1.398 . S
C81 C85 1.407 . S
C82 C80 1.396 . S
C82 C83 1.394 . S
C83 H78 0.929 . S
C83 C82 1.394 . S
C83 C84 1.382 . S
C84 C83 1.382 . S
C84 C85 1.392 . S
C84 N86 1.420 . S
C85 H79 0.930 . S
C85 C81 1.407 . S
C85 C84 1.392 . S
N86 C84 1.420 . S
N86 C87 1.244 . S
C87 N86 1.244 . S
Tb88 C97 2.764 . S
Tb88 O98 2.325 . S
Tb88 O101 2.303 1_655 S
Tb88 O105 2.322 1_545 S
Tb88 O106 2.349 . S
Tb88 O109 2.415 . S
Tb88 O110 2.399 . S
Tb89 O99 2.322 1_565 S
Tb89 O100 2.349 . S
Tb89 O102 2.415 . S
Tb89 O103 2.399 . S
Tb89 O104 2.325 . S
Tb89 O107 2.303 1_455 S
Tb89 C118 2.764 . S
C90 O106 1.265 . S
C90 O107 1.256 1_545 S
C91 C94 1.358 . S
C91 C95 1.332 . S
C91 C97 1.504 . S
C92 C93 1.373 . S
C92 C96 1.308 . S
C93 C92 1.373 . S
C93 C94 1.429 . S
C93 H120 0.932 . S
C94 C91 1.358 . S
C94 C93 1.429 . S
C94 H121 0.930 . S
C95 C91 1.332 . S
C95 C96 1.394 . S
C95 H122 0.932 1_655 S
C96 C92 1.308 . S
C96 C95 1.394 . S
C96 H123 0.929 1_655 S
C97 Tb88 2.764 . S
C97 C91 1.504 . S
C97 O109 1.239 . S
C97 O110 1.263 . S
O98 Tb88 2.325 . S
O98 C108 1.236 1_655 S
O99 Tb89 2.322 1_545 S
O99 C108 1.257 . S
O100 Tb89 2.349 . S
O100 C111 1.259 . S
O101 Tb88 2.303 1_455 S
O101 C111 1.258 1_545 S
O102 Tb89 2.415 . S
O102 C118 1.239 . S
O103 Tb89 2.399 . S
O103 C118 1.263 . S
O104 Tb89 2.325 . S
O104 C119 1.236 1_455 S
O105 Tb88 2.322 1_565 S
O105 C119 1.257 . S
O106 Tb88 2.349 . S
O106 C90 1.265 . S
O107 Tb89 2.303 1_655 S
O107 C90 1.256 1_565 S
C108 O98 1.236 1_455 S
C108 O99 1.257 . S
O109 Tb88 2.415 . S
O109 C97 1.239 . S
O110 Tb88 2.399 . S
O110 C97 1.263 . S
C111 O100 1.259 . S
C111 O101 1.258 1_565 S
C112 C115 1.358 . S
C112 C116 1.332 . S
C112 C118 1.504 1_554 S
C113 C114 1.373 . S
C113 C117 1.308 . S
C114 C113 1.373 . S
C114 C115 1.429 . S
C114 H124 0.932 . S
C115 C112 1.358 . S
C115 C114 1.429 . S
C115 H125 0.930 . S
C116 C112 1.332 . S
C116 C117 1.394 . S
C116 H126 0.932 1_455 S
C117 C113 1.308 . S
C117 C116 1.394 . S
C117 H127 0.929 1_455 S
C118 Tb89 2.764 . S
C118 O102 1.239 . S
C118 O103 1.263 . S
C118 C112 1.504 1_556 S
C119 O104 1.236 1_655 S
C119 O105 1.257 . S
H120 C93 0.932 . S
H121 C94 0.930 . S
H122 C95 0.932 1_455 S
H123 C96 0.929 1_455 S
H124 C114 0.932 . S
H125 C115 0.930 . S
H126 C116 0.932 1_655 S
H127 C117 0.929 1_655 S
Tb128 C137 2.764 . S
Tb128 O138 2.325 . S
Tb128 O141 2.303 1_565 S
Tb128 O145 2.322 . S
Tb128 O146 2.349 . S
Tb128 O149 2.415 1_565 S
Tb128 O150 2.399 . S
Tb129 O139 2.322 . S
Tb129 O140 2.349 . S
Tb129 O142 2.415 1_545 S
Tb129 O143 2.399 1_556 S
Tb129 O144 2.325 . S
Tb129 O147 2.303 1_545 S
Tb129 C158 2.764 1_556 S
C130 O146 1.261 . S
C130 O147 1.257 . S
C131 C134 1.358 . S
C131 C135 1.332 1_565 S
C131 C137 1.504 . S
C132 C133 1.373 . S
C132 C136 1.308 1_565 S
C133 C132 1.373 . S
C133 C134 1.429 . S
C133 H160 0.932 . S
C134 C131 1.358 . S
C134 C133 1.429 . S
C134 H161 0.930 . S
C135 C131 1.332 1_545 S
C135 C136 1.394 . S
C135 H162 0.932 . S
C136 C132 1.308 1_545 S
C136 C135 1.394 . S
C136 H163 0.929 . S
C137 Tb128 2.764 . S
C137 C131 1.504 . S
C137 O149 1.239 1_565 S
C137 O150 1.263 . S
O138 Tb128 2.325 . S
O138 C148 1.236 1_565 S
O139 Tb129 2.322 . S
O139 C148 1.257 . S
O140 Tb129 2.349 . S
O140 C151 1.261 . S
O141 Tb128 2.303 1_545 S
O141 C151 1.257 . S
O142 Tb129 2.415 1_565 S
O142 C158 1.239 1_566 S
O143 Tb129 2.399 1_554 S
O143 C158 1.263 . S
O144 Tb129 2.325 . S
O144 C159 1.236 1_545 S
O145 Tb128 2.322 . S
O145 C159 1.257 . S
O146 Tb128 2.349 . S
O146 C130 1.261 . S
O147 Tb129 2.303 1_565 S
O147 C130 1.257 . S
C148 O138 1.236 1_545 S
C148 O139 1.257 . S
O149 Tb128 2.415 1_545 S
O149 C137 1.239 1_545 S
O150 Tb128 2.399 . S
O150 C137 1.263 . S
C151 O140 1.261 . S
C151 O141 1.257 . S
C152 C155 1.358 . S
C152 C156 1.332 1_545 S
C152 C158 1.504 . S
C153 C154 1.373 . S
C153 C157 1.308 1_545 S
C154 C153 1.373 . S
C154 C155 1.429 . S
C154 H164 0.932 . S
C155 C152 1.358 . S
C155 C154 1.429 . S
C155 H165 0.930 . S
C156 C152 1.332 1_565 S
C156 C157 1.394 . S
C156 H166 0.932 . S
C157 C153 1.308 1_565 S
C157 C156 1.394 . S
C157 H167 0.929 . S
C158 Tb129 2.764 1_554 S
C158 O142 1.239 1_544 S
C158 O143 1.263 . S
C158 C152 1.504 . S
C159 O144 1.236 1_565 S
C159 O145 1.257 . S
H160 C133 0.932 . S
H161 C134 0.930 . S
H162 C135 0.932 . S
H163 C136 0.929 . S
H164 C154 0.932 . S
H165 C155 0.930 . S
H166 C156 0.932 . S
H167 C157 0.929 . S
Tb168 C177 2.764 1_556 S
Tb168 O178 2.325 . S
Tb168 O181 2.303 . S
Tb168 O185 2.322 . S
Tb168 O186 2.349 . S
Tb168 O189 2.415 1_556 S
Tb168 O190 2.399 . S
Tb169 O179 2.322 . S
Tb169 O180 2.349 . S
Tb169 O182 2.415 . S
Tb169 O183 2.399 . S
Tb169 O184 2.325 . S
Tb169 O187 2.303 . S
Tb169 C198 2.764 . S
C170 O186 1.261 . S
C170 O187 1.257 . S
C171 C174 1.358 . S
C171 C175 1.332 . S
C171 C177 1.504 . S
C172 C173 1.373 . S
C172 C176 1.308 . S
C173 C172 1.373 . S
C173 C174 1.429 . S
C173 H200 0.932 . S
C174 C171 1.358 . S
C174 C173 1.429 . S
C174 H201 0.930 . S
C175 C171 1.332 . S
C175 C176 1.394 . S
C175 H202 0.932 . S
C176 C172 1.308 . S
C176 C175 1.394 . S
C176 H203 0.929 . S
C177 Tb168 2.764 1_554 S
C177 C171 1.504 . S
C177 O189 1.239 . S
C177 O190 1.263 1_554 S
O178 Tb168 2.325 . S
O178 C188 1.236 . S
O179 Tb169 2.322 . S
O179 C188 1.257 . S
O180 Tb169 2.349 . S
O180 C191 1.261 . S
O181 Tb168 2.303 . S
O181 C191 1.257 . S
O182 Tb169 2.415 . S
O182 C198 1.239 . S
O183 Tb169 2.399 . S
O183 C198 1.263 . S
O184 Tb169 2.325 . S
O184 C199 1.236 . S
O185 Tb168 2.322 . S
O185 C199 1.257 . S
O186 Tb168 2.349 . S
O186 C170 1.261 . S
O187 Tb169 2.303 . S
O187 C170 1.257 . S
C188 O178 1.236 . S
C188 O179 1.257 . S
O189 Tb168 2.415 1_554 S
O189 C177 1.239 . S
O190 Tb168 2.399 . S
O190 C177 1.263 1_556 S
C191 O180 1.261 . S
C191 O181 1.257 . S
C192 C195 1.358 . S
C192 C196 1.332 . S
C192 C198 1.504 . S
C193 C194 1.373 . S
C193 C197 1.308 . S
C194 C193 1.373 . S
C194 C195 1.429 . S
C194 H204 0.932 . S
C195 C192 1.358 . S
C195 C194 1.429 . S
C195 H205 0.930 . S
C196 C192 1.332 . S
C196 C197 1.394 . S
C196 H206 0.932 . S
C197 C193 1.308 . S
C197 C196 1.394 . S
C197 H207 0.929 . S
C198 Tb169 2.764 . S
C198 O182 1.239 . S
C198 O183 1.263 . S
C198 C192 1.504 . S
C199 O184 1.236 . S
C199 O185 1.257 . S
H200 C173 0.932 . S
H201 C174 0.930 . S
H202 C175 0.932 . S
H203 C176 0.929 . S
H204 C194 0.932 . S
H205 C195 0.930 . S
H206 C196 0.932 . S
H207 C197 0.929 . S
Tb208 C217 2.764 . S
Tb208 O218 2.325 . S
Tb208 O221 2.303 . S
Tb208 O225 2.322 1_455 S
Tb208 O226 2.349 . S
Tb208 O229 2.415 . S
Tb208 O230 2.399 . S
Tb209 O219 2.322 1_655 S
Tb209 O220 2.349 . S
Tb209 O222 2.415 1_556 S
Tb209 O223 2.399 . S
Tb209 O224 2.325 . S
Tb209 O227 2.303 . S
Tb209 C238 2.764 1_556 S
C210 O226 1.261 . S
C210 O227 1.257 1_455 S
C211 C214 1.358 . S
C211 C215 1.332 . S
C211 C217 1.504 . S
C212 C213 1.373 . S
C212 C216 1.308 . S
C213 C212 1.373 . S
C213 C214 1.429 . S
C213 H240 0.932 . S
C214 C211 1.358 . S
C214 C213 1.429 . S
C214 H241 0.930 . S
C215 C211 1.332 . S
C215 C216 1.394 . S
C215 H242 0.932 . S
C216 C212 1.308 . S
C216 C215 1.394 . S
C216 H243 0.929 . S
C217 Tb208 2.764 . S
C217 C211 1.504 . S
C217 O229 1.239 . S
C217 O230 1.263 . S
O218 Tb208 2.325 . S
O218 C228 1.236 . S
O219 Tb209 2.322 1_455 S
O219 C228 1.257 . S
O220 Tb209 2.349 . S
O220 C231 1.261 . S
O221 Tb208 2.303 . S
O221 C231 1.257 1_455 S
O222 Tb209 2.415 1_554 S
O222 C238 1.239 . S
O223 Tb209 2.399 . S
O223 C238 1.263 1_556 S
O224 Tb209 2.325 . S
O224 C239 1.236 . S
O225 Tb208 2.322 1_655 S
O225 C239 1.257 . S
O226 Tb208 2.349 . S
O226 C210 1.261 . S
O227 Tb209 2.303 . S
O227 C210 1.257 1_655 S
C228 O218 1.236 . S
C228 O219 1.257 . S
O229 Tb208 2.415 . S
O229 C217 1.239 . S
O230 Tb208 2.399 . S
O230 C217 1.263 . S
C231 O220 1.261 . S
C231 O221 1.257 1_655 S
C232 C235 1.358 . S
C232 C236 1.332 . S
C232 C238 1.504 . S
C233 C234 1.373 . S
C233 C237 1.308 . S
C234 C233 1.373 . S
C234 C235 1.429 . S
C234 H244 0.932 . S
C235 C232 1.358 . S
C235 C234 1.429 . S
C235 H245 0.930 . S
C236 C232 1.332 . S
C236 C237 1.394 . S
C236 H246 0.932 . S
C237 C233 1.308 . S
C237 C236 1.394 . S
C237 H247 0.929 . S
C238 Tb209 2.764 1_554 S
C238 O222 1.239 . S
C238 O223 1.263 1_554 S
C238 C232 1.504 . S
C239 O224 1.236 . S
C239 O225 1.257 . S
H240 C213 0.932 . S
H241 C214 0.930 . S
H242 C215 0.932 . S
H243 C216 0.929 . S
H244 C234 0.932 . S
H245 C235 0.930 . S
H246 C236 0.932 . S
H247 C237 0.929 . S
H248 C260 0.930 . S
H249 C262 0.930 . S
H250 C263 0.930 . S
H251 C267 0.959 . S
H252 C267 0.959 . S
H253 C267 0.961 . S
H254 C268 0.960 . S
H255 C268 0.961 . S
H256 C268 0.959 . S
H257 C271 0.929 . S
H258 C272 0.931 . S
H259 C274 0.930 . S
C260 H248 0.930 . S
C260 C261 1.399 1_545 S
C260 C265 1.399 . S
C261 C260 1.399 1_565 S
C261 C262 1.376 . S
C262 H249 0.930 . S
C262 C261 1.376 . S
C262 C263 1.388 . S
C263 H250 0.930 . S
C263 C262 1.388 . S
C263 C264 1.390 . S
C264 C263 1.390 . S
C264 C265 1.394 1_565 S
C264 C270 1.465 . S
C265 C260 1.399 . S
C265 C264 1.394 1_545 S
C265 C266 1.516 . S
C266 C265 1.516 . S
C266 C267 1.502 . S
C266 C268 1.561 . S
C266 C269 1.526 . S
C267 H251 0.959 . S
C267 H252 0.959 . S
C267 H253 0.961 . S
C267 C266 1.502 . S
C268 H254 0.960 . S
C268 H255 0.961 . S
C268 H256 0.959 . S
C268 C266 1.561 . S
C269 C266 1.526 . S
C269 C270 1.396 1_545 S
C269 C274 1.390 . S
C270 C264 1.465 . S
C270 C269 1.396 1_565 S
C270 C271 1.399 . S
C271 H257 0.929 . S
C271 C270 1.399 . S
C271 C272 1.385 . S
C272 H258 0.931 . S
C272 C271 1.385 . S
C272 C273 1.367 1_565 S
C273 C272 1.367 1_545 S
C273 C274 1.408 . S
C274 H259 0.930 . S
C274 C269 1.390 . S
C274 C273 1.408 . S
H275 C287 0.930 . S
H276 C289 0.930 . S
H277 C290 0.930 . S
H278 C294 0.959 . S
H279 C294 0.959 . S
H280 C294 0.961 . S
H281 C295 0.960 . S
H282 C295 0.961 . S
H283 C295 0.959 . S
H284 C298 0.929 . S
H285 C299 0.931 . S
H286 C301 0.930 . S
C287 H275 0.930 . S
C287 C288 1.399 . S
C287 C292 1.399 . S
C288 C287 1.399 . S
C288 C289 1.376 . S
C289 H276 0.930 . S
C289 C288 1.376 . S
C289 C290 1.388 . S
C290 H277 0.930 . S
C290 C289 1.388 . S
C290 C291 1.390 . S
C291 C290 1.390 . S
C291 C292 1.394 . S
C291 C297 1.465 . S
C292 C287 1.399 . S
C292 C291 1.394 . S
C292 C293 1.516 . S
C293 C292 1.516 . S
C293 C294 1.502 . S
C293 C295 1.561 . S
C293 C296 1.526 . S
C294 H278 0.959 . S
C294 H279 0.959 . S
C294 H280 0.961 . S
C294 C293 1.502 . S
C295 H281 0.960 . S
C295 H282 0.961 . S
C295 H283 0.959 . S
C295 C293 1.561 . S
C296 C293 1.526 . S
C296 C297 1.396 . S
C296 C301 1.390 . S
C297 C291 1.465 . S
C297 C296 1.396 . S
C297 C298 1.399 . S
C298 H284 0.929 . S
C298 C297 1.399 . S
C298 C299 1.385 . S
C299 H285 0.931 . S
C299 C298 1.385 . S
C299 C300 1.389 . S
C300 C299 1.389 . S
C300 C301 1.387 . S
C301 H286 0.930 . S
C301 C296 1.390 . S
C301 C300 1.387 . S
H302 C314 0.930 . S
H303 C316 0.930 . S
H304 C317 0.930 . S
H305 C321 0.959 . S
H306 C321 0.959 . S
H307 C321 0.961 . S
H308 C322 0.960 . S
H309 C322 0.961 . S
H310 C322 0.959 . S
H311 C325 0.929 . S
H312 C326 0.931 . S
H313 C328 0.930 . S
C314 H302 0.930 . S
C314 C315 1.399 . S
C314 C319 1.399 . S
C315 C314 1.399 . S
C315 C316 1.376 . S
C316 H303 0.930 . S
C316 C315 1.376 . S
C316 C317 1.388 . S
C317 H304 0.930 . S
C317 C316 1.388 . S
C317 C318 1.390 . S
C318 C317 1.390 . S
C318 C319 1.394 . S
C318 C324 1.465 . S
C319 C314 1.399 . S
C319 C318 1.394 . S
C319 C320 1.516 . S
C320 C319 1.516 . S
C320 C321 1.502 . S
C320 C322 1.561 . S
C320 C323 1.526 . S
C321 H305 0.959 . S
C321 H306 0.959 . S
C321 H307 0.961 . S
C321 C320 1.502 . S
C322 H308 0.960 . S
C322 H309 0.961 . S
C322 H310 0.959 . S
C322 C320 1.561 . S
C323 C320 1.526 . S
C323 C324 1.396 . S
C323 C328 1.390 . S
C324 C318 1.465 . S
C324 C323 1.396 . S
C324 C325 1.399 . S
C325 H311 0.929 . S
C325 C324 1.399 . S
C325 C326 1.385 . S
C326 H312 0.931 . S
C326 C325 1.385 . S
C326 C327 1.389 . S
C327 C326 1.389 . S
C327 C328 1.387 . S
C328 H313 0.930 . S
C328 C323 1.390 . S
C328 C327 1.387 . S
H329 C341 0.930 . S
H330 C343 0.930 . S
H331 C344 0.930 . S
H332 C348 0.959 . S
H333 C348 0.959 . S
H334 C348 0.961 . S
H335 C349 0.960 . S
H336 C349 0.961 . S
H337 C349 0.959 1_655 S
H338 C352 0.929 . S
H339 C353 0.931 . S
H340 C355 0.930 . S
C341 H329 0.930 . S
C341 C342 1.399 1_455 S
C341 C346 1.399 . S
C342 C341 1.399 1_655 S
C342 C343 1.376 . S
C343 H330 0.930 . S
C343 C342 1.376 . S
C343 C344 1.388 . S
C344 H331 0.930 . S
C344 C343 1.388 . S
C344 C345 1.390 . S
C345 C344 1.390 . S
C345 C346 1.394 1_655 S
C345 C351 1.465 . S
C346 C341 1.399 . S
C346 C345 1.394 1_455 S
C346 C347 1.516 . S
C347 C346 1.516 . S
C347 C348 1.502 . S
C347 C349 1.561 . S
C347 C350 1.526 . S
C348 H332 0.959 . S
C348 H333 0.959 . S
C348 H334 0.961 . S
C348 C347 1.502 . S
C349 H335 0.960 . S
C349 H336 0.961 . S
C349 H337 0.959 1_455 S
C349 C347 1.561 . S
C350 C347 1.526 . S
C350 C351 1.396 1_455 S
C350 C355 1.390 . S
C351 C345 1.465 . S
C351 C350 1.396 1_655 S
C351 C352 1.399 . S
C352 H338 0.929 . S
C352 C351 1.399 . S
C352 C353 1.385 . S
C353 H339 0.931 . S
C353 C352 1.385 . S
C353 C354 1.418 . S
C354 C353 1.418 . S
C354 C355 1.365 1_655 S
C355 H340 0.930 . S
C355 C350 1.390 . S
C355 C354 1.365 1_455 S
H356 C368 0.930 . S
H357 C370 0.930 . S
H358 C371 0.930 . S
H359 C375 0.959 . S
H360 C375 0.959 . S
H361 C375 0.961 . S
H362 C376 0.960 . S
H363 C376 0.961 . S
H364 C376 0.959 . S
H365 C379 0.929 . S
H366 C380 0.931 1_556 S
H367 C382 0.930 . S
C368 H356 0.930 . S
C368 C369 1.399 1_565 S
C368 C373 1.399 . S
C369 C368 1.399 1_545 S
C369 C370 1.376 . S
C370 H357 0.930 . S
C370 C369 1.376 . S
C370 C371 1.388 . S
C371 H358 0.930 . S
C371 C370 1.388 . S
C371 C372 1.390 . S
C372 C371 1.390 . S
C372 C373 1.394 1_545 S
C372 C378 1.465 . S
C373 C368 1.399 . S
C373 C372 1.394 1_565 S
C373 C374 1.516 . S
C374 C373 1.516 . S
C374 C375 1.502 . S
C374 C376 1.561 . S
C374 C377 1.526 . S
C375 H359 0.959 . S
C375 H360 0.959 . S
C375 H361 0.961 . S
C375 C374 1.502 . S
C376 H362 0.960 . S
C376 H363 0.961 . S
C376 H364 0.959 . S
C376 C374 1.561 . S
C377 C374 1.526 . S
C377 C378 1.396 1_565 S
C377 C382 1.390 . S
C378 C372 1.465 . S
C378 C377 1.396 1_545 S
C378 C379 1.399 . S
C379 H365 0.929 . S
C379 C378 1.399 . S
C379 C380 1.385 . S
C380 H366 0.931 1_554 S
C380 C379 1.385 . S
C380 C381 1.360 1_544 S
C381 C380 1.360 1_566 S
C381 C382 1.415 1_556 S
C382 H367 0.930 . S
C382 C377 1.390 . S
C382 C381 1.415 1_554 S
H383 C395 0.930 1_554 S
H384 C397 0.930 . S
H385 C398 0.930 . S
H386 C402 0.959 . S
H387 C402 0.959 . S
H388 C402 0.961 1_554 S
H389 C403 0.960 . S
H390 C403 0.961 . S
H391 C403 0.959 . S
H392 C406 0.929 . S
H393 C407 0.931 . S
H394 C409 0.930 . S
C395 H383 0.930 1_556 S
C395 C396 1.399 . S
C395 C400 1.399 . S
C396 C395 1.399 . S
C396 C397 1.376 . S
C397 H384 0.930 . S
C397 C396 1.376 . S
C397 C398 1.388 . S
C398 H385 0.930 . S
C398 C397 1.388 . S
C398 C399 1.390 . S
C399 C398 1.390 . S
C399 C400 1.394 . S
C399 C405 1.465 . S
C400 C395 1.399 . S
C400 C399 1.394 . S
C400 C401 1.516 . S
C401 C400 1.516 . S
C401 C402 1.502 . S
C401 C403 1.561 1_556 S
C401 C404 1.526 . S
C402 H386 0.959 . S
C402 H387 0.959 . S
C402 H388 0.961 1_556 S
C402 C401 1.502 . S
C403 H389 0.960 . S
C403 H390 0.961 . S
C403 H391 0.959 . S
C403 C401 1.561 1_554 S
C404 C401 1.526 . S
C404 C405 1.396 . S
C404 C409 1.390 . S
C405 C399 1.465 . S
C405 C404 1.396 . S
C405 C406 1.399 . S
C406 H392 0.929 . S
C406 C405 1.399 . S
C406 C407 1.385 . S
C407 H393 0.931 . S
C407 C406 1.385 . S
C407 C408 1.389 . S
C408 C407 1.389 . S
C408 C409 1.387 . S
C409 H394 0.930 . S
C409 C404 1.390 . S
C409 C408 1.387 . S
H410 C422 0.930 . S
H411 C424 0.930 . S
H412 C425 0.930 . S
H413 C429 0.959 . S
H414 C429 0.959 . S
H415 C429 0.961 . S
H416 C430 0.960 . S
H417 C430 0.961 . S
H418 C430 0.959 . S
H419 C433 0.929 . S
H420 C434 0.931 1_556 S
H421 C436 0.930 . S
C422 H410 0.930 . S
C422 C423 1.399 . S
C422 C427 1.399 . S
C423 C422 1.399 . S
C423 C424 1.376 . S
C424 H411 0.930 . S
C424 C423 1.376 . S
C424 C425 1.388 . S
C425 H412 0.930 . S
C425 C424 1.388 . S
C425 C426 1.390 . S
C426 C425 1.390 . S
C426 C427 1.394 . S
C426 C432 1.465 . S
C427 C422 1.399 . S
C427 C426 1.394 . S
C427 C428 1.516 . S
C428 C427 1.516 . S
C428 C429 1.502 . S
C428 C430 1.561 . S
C428 C431 1.526 . S
C429 H413 0.959 . S
C429 H414 0.959 . S
C429 H415 0.961 . S
C429 C428 1.502 . S
C430 H416 0.960 . S
C430 H417 0.961 . S
C430 H418 0.959 . S
C430 C428 1.561 . S
C431 C428 1.526 . S
C431 C432 1.396 . S
C431 C436 1.390 . S
C432 C426 1.465 . S
C432 C431 1.396 . S
C432 C433 1.399 . S
C433 H419 0.929 . S
C433 C432 1.399 . S
C433 C434 1.385 . S
C434 H420 0.931 1_554 S
C434 C433 1.385 . S
C434 C435 1.389 1_554 S
C435 C434 1.389 1_556 S
C435 C436 1.387 1_556 S
C436 H421 0.930 . S
C436 C431 1.390 . S
C436 C435 1.387 1_554 S
H437 C449 0.930 . S
H438 C451 0.930 . S
H439 C452 0.930 . S
H440 C456 0.959 . S
H441 C456 0.959 1_556 S
H442 C456 0.961 . S
H443 C457 0.960 . S
H444 C457 0.961 1_556 S
H445 C457 0.959 . S
H446 C460 0.929 . S
H447 C461 0.931 . S
H448 C463 0.930 . S
C449 H437 0.930 . S
C449 C450 1.392 1_655 S
C449 C454 1.399 . S
C450 C449 1.392 1_455 S
C450 C451 1.390 . S
C451 H438 0.930 . S
C451 C450 1.390 . S
C451 C452 1.388 . S
C452 H439 0.930 . S
C452 C451 1.388 . S
C452 C453 1.390 . S
C453 C452 1.390 . S
C453 C454 1.394 1_455 S
C453 C459 1.465 . S
C454 C449 1.399 . S
C454 C453 1.394 1_655 S
C454 C455 1.516 . S
C455 C454 1.516 . S
C455 C456 1.502 . S
C455 C457 1.561 1_655 S
C455 C458 1.526 . S
C456 H440 0.959 . S
C456 H441 0.959 1_554 S
C456 H442 0.961 . S
C456 C455 1.502 . S
C457 H443 0.960 . S
C457 H444 0.961 1_554 S
C457 H445 0.959 . S
C457 C455 1.561 1_455 S
C458 C455 1.526 . S
C458 C459 1.396 1_655 S
C458 C463 1.390 1_554 S
C459 C453 1.465 . S
C459 C458 1.396 1_455 S
C459 C460 1.399 . S
C460 H446 0.929 . S
C460 C459 1.399 . S
C460 C461 1.385 . S
C461 H447 0.931 . S
C461 C460 1.385 . S
C461 C462 1.389 1_454 S
C462 C461 1.389 1_656 S
C462 C463 1.387 . S
C463 H448 0.930 . S
C463 C458 1.390 1_556 S
C463 C462 1.387 . S
H464 C476 0.930 . S
H465 C478 0.930 . S
H466 C479 0.930 . S
H467 C483 0.959 . S
H468 C483 0.959 . S
H469 C483 0.961 . S
H470 C484 0.960 . S
H471 C484 0.961 . S
H472 C484 0.959 1_655 S
H473 C487 0.929 . S
H474 C488 0.931 . S
H475 C490 0.930 . S
C476 H464 0.930 . S
C476 C477 1.399 1_455 S
C476 C481 1.399 1_455 S
C477 C476 1.399 1_655 S
C477 C478 1.376 . S
C478 H465 0.930 . S
C478 C477 1.376 . S
C478 C479 1.388 . S
C479 H466 0.930 . S
C479 C478 1.388 . S
C479 C480 1.390 . S
C480 C479 1.390 . S
C480 C481 1.394 . S
C480 C486 1.465 . S
C481 C476 1.399 1_655 S
C481 C480 1.394 . S
C481 C482 1.516 1_655 S
C482 C481 1.516 1_455 S
C482 C483 1.502 . S
C482 C484 1.561 . S
C482 C485 1.526 1_455 S
C483 H467 0.959 . S
C483 H468 0.959 . S
C483 H469 0.961 . S
C483 C482 1.502 . S
C484 H470 0.960 . S
C484 H471 0.961 . S
C484 H472 0.959 1_455 S
C484 C482 1.561 . S
C485 C482 1.526 1_655 S
C485 C486 1.396 . S
C485 C490 1.390 . S
C486 C480 1.465 . S
C486 C485 1.396 . S
C486 C487 1.399 . S
C487 H473 0.929 . S
C487 C486 1.399 . S
C487 C488 1.385 . S
C488 H474 0.931 . S
C488 C487 1.385 . S
C488 C489 1.389 . S
C489 C488 1.389 . S
C489 C490 1.387 . S
C490 H475 0.930 . S
C490 C485 1.390 . S
C490 C489 1.387 . S
H491 C503 0.930 . S
H492 C505 0.930 . S
H493 C506 0.930 . S
H494 C510 0.959 . S
H495 C510 0.959 . S
H496 C510 0.961 . S
H497 C511 0.960 . S
H498 C511 0.961 . S
H499 C511 0.959 . S
H500 C514 0.929 . S
H501 C515 0.931 1_545 S
H502 C517 0.930 . S
C503 H491 0.930 . S
C503 C504 1.399 1_565 S
C503 C508 1.399 . S
C504 C503 1.399 1_545 S
C504 C505 1.376 . S
C505 H492 0.930 . S
C505 C504 1.376 . S
C505 C506 1.388 . S
C506 H493 0.930 . S
C506 C505 1.388 . S
C506 C507 1.356 1_545 S
C507 C506 1.356 1_565 S
C507 C508 1.422 . S
C507 C513 1.478 . S
C508 C503 1.399 . S
C508 C507 1.422 . S
C508 C509 1.516 . S
C509 C508 1.516 . S
C509 C510 1.502 . S
C509 C511 1.561 . S
C509 C512 1.526 . S
C510 H494 0.959 . S
C510 H495 0.959 . S
C510 H496 0.961 . S
C510 C509 1.502 . S
C511 H497 0.960 . S
C511 H498 0.961 . S
C511 H499 0.959 . S
C511 C509 1.561 . S
C512 C509 1.526 . S
C512 C513 1.396 . S
C512 C517 1.390 . S
C513 C507 1.478 . S
C513 C512 1.396 . S
C513 C514 1.399 1_565 S
C514 H500 0.929 . S
C514 C513 1.399 1_545 S
C514 C515 1.385 1_545 S
C515 H501 0.931 1_565 S
C515 C514 1.385 1_565 S
C515 C516 1.389 . S
C516 C515 1.389 . S
C516 C517 1.387 . S
C517 H502 0.930 . S
C517 C512 1.390 . S
C517 C516 1.387 . S
H518 C530 0.930 . S
H519 C532 0.930 . S
H520 C533 0.930 . S
H521 C537 0.959 . S
H522 C537 0.959 . S
H523 C537 0.961 . S
H524 C538 0.960 . S
H525 C538 0.961 . S
H526 C538 0.959 . S
H527 C541 0.929 . S
H528 C542 0.931 . S
H529 C544 0.930 . S
C530 H518 0.930 . S
C530 C531 1.399 . S
C530 C535 1.399 . S
C531 C530 1.399 . S
C531 C532 1.376 . S
C532 H519 0.930 . S
C532 C531 1.376 . S
C532 C533 1.388 . S
C533 H520 0.930 . S
C533 C532 1.388 . S
C533 C534 1.390 . S
C534 C533 1.390 . S
C534 C535 1.394 . S
C534 C540 1.465 . S
C535 C530 1.399 . S
C535 C534 1.394 . S
C535 C536 1.516 . S
C536 C535 1.516 . S
C536 C537 1.502 . S
C536 C538 1.561 . S
C536 C539 1.526 . S
C537 H521 0.959 . S
C537 H522 0.959 . S
C537 H523 0.961 . S
C537 C536 1.502 . S
C538 H524 0.960 . S
C538 H525 0.961 . S
C538 H526 0.959 . S
C538 C536 1.561 . S
C539 C536 1.526 . S
C539 C540 1.396 . S
C539 C544 1.390 . S
C540 C534 1.465 . S
C540 C539 1.396 . S
C540 C541 1.399 . S
C541 H527 0.929 . S
C541 C540 1.399 . S
C541 C542 1.385 . S
C542 H528 0.931 . S
C542 C541 1.385 . S
C542 C543 1.389 . S
C543 C542 1.389 . S
C543 C544 1.387 . S
C544 H529 0.930 . S
C544 C539 1.390 . S
C544 C543 1.387 . S
H545 C557 0.930 . S
H546 C559 0.930 . S
H547 C560 0.930 . S
H548 C564 0.959 . S
H549 C564 0.959 . S
H550 C564 0.961 . S
H551 C565 0.960 . S
H552 C565 0.961 . S
H553 C565 0.959 . S
H554 C568 0.929 . S
H555 C569 0.931 . S
H556 C571 0.930 . S
C557 H545 0.930 . S
C557 C558 1.399 . S
C557 C562 1.399 . S
C558 C557 1.399 . S
C558 C559 1.376 . S
C559 H546 0.930 . S
C559 C558 1.376 . S
C559 C560 1.388 . S
C560 H547 0.930 . S
C560 C559 1.388 . S
C560 C561 1.390 . S
C561 C560 1.390 . S
C561 C562 1.394 . S
C561 C567 1.465 . S
C562 C557 1.399 . S
C562 C561 1.394 . S
C562 C563 1.516 . S
C563 C562 1.516 . S
C563 C564 1.502 . S
C563 C565 1.561 . S
C563 C566 1.526 . S
C564 H548 0.959 . S
C564 H549 0.959 . S
C564 H550 0.961 . S
C564 C563 1.502 . S
C565 H551 0.960 . S
C565 H552 0.961 . S
C565 H553 0.959 . S
C565 C563 1.561 . S
C566 C563 1.526 . S
C566 C567 1.396 . S
C566 C571 1.390 . S
C567 C561 1.465 . S
C567 C566 1.396 . S
C567 C568 1.399 . S
C568 H554 0.929 . S
C568 C567 1.399 . S
C568 C569 1.385 . S
C569 H555 0.931 . S
C569 C568 1.385 . S
C569 C570 1.389 . S
C570 C569 1.389 . S
C570 C571 1.387 . S
C571 H556 0.930 . S
C571 C566 1.390 . S
C571 C570 1.387 . S
H572 C584 0.930 . S
H573 C586 0.930 . S
H574 C587 0.930 . S
H575 C591 0.959 . S
H576 C591 0.959 . S
H577 C591 0.961 . S
H578 C592 0.960 . S
H579 C592 0.961 . S
H580 C592 0.959 . S
H581 C595 0.929 . S
H582 C596 0.931 . S
H583 C598 0.930 . S
C584 H572 0.930 . S
C584 C585 1.399 1_655 S
C584 C589 1.399 1_655 S
C585 C584 1.399 1_455 S
C585 C586 1.376 . S
C586 H573 0.930 . S
C586 C585 1.376 . S
C586 C587 1.388 . S
C587 H574 0.930 . S
C587 C586 1.388 . S
C587 C588 1.390 . S
C588 C587 1.390 . S
C588 C589 1.394 . S
C588 C594 1.465 . S
C589 C584 1.399 1_455 S
C589 C588 1.394 . S
C589 C590 1.516 . S
C590 C589 1.516 . S
C590 C591 1.502 1_455 S
C590 C592 1.561 . S
C590 C593 1.526 . S
C591 H575 0.959 . S
C591 H576 0.959 . S
C591 H577 0.961 . S
C591 C590 1.502 1_655 S
C592 H578 0.960 . S
C592 H579 0.961 . S
C592 H580 0.959 . S
C592 C590 1.561 . S
C593 C590 1.526 . S
C593 C594 1.396 . S
C593 C598 1.390 . S
C594 C588 1.465 . S
C594 C593 1.396 . S
C594 C595 1.399 . S
C595 H581 0.929 . S
C595 C594 1.399 . S
C595 C596 1.385 . S
C596 H582 0.931 . S
C596 C595 1.385 . S
C596 C597 1.389 . S
C597 C596 1.389 . S
C597 C598 1.387 . S
C598 H583 0.930 . S
C598 C593 1.390 . S
C598 C597 1.387 . S
H599 C611 0.930 . S
H600 C613 0.930 . S
H601 C614 0.930 . S
H602 C618 0.959 . S
H603 C618 0.959 . S
H604 C618 0.961 . S
H605 C619 0.960 . S
H606 C619 0.961 . S
H607 C619 0.959 . S
H608 C622 0.929 . S
H609 C623 0.931 . S
H610 C625 0.930 . S
C611 H599 0.930 . S
C611 C612 1.399 1_545 S
C611 C616 1.399 . S
C612 C611 1.399 1_565 S
C612 C613 1.376 . S
C613 H600 0.930 . S
C613 C612 1.376 . S
C613 C614 1.388 . S
C614 H601 0.930 . S
C614 C613 1.388 . S
C614 C615 1.390 . S
C615 C614 1.390 . S
C615 C616 1.394 1_565 S
C615 C621 1.465 1_565 S
C616 C611 1.399 . S
C616 C615 1.394 1_545 S
C616 C617 1.516 . S
C617 C616 1.516 . S
C617 C618 1.502 . S
C617 C619 1.561 . S
C617 C620 1.526 . S
C618 H602 0.959 . S
C618 H603 0.959 . S
C618 H604 0.961 . S
C618 C617 1.502 . S
C619 H605 0.960 . S
C619 H606 0.961 . S
C619 H607 0.959 . S
C619 C617 1.561 . S
C620 C617 1.526 . S
C620 C621 1.396 . S
C620 C625 1.390 . S
C621 C615 1.465 1_545 S
C621 C620 1.396 . S
C621 C622 1.399 1_545 S
C622 H608 0.929 . S
C622 C621 1.399 1_565 S
C622 C623 1.385 . S
C623 H609 0.931 . S
C623 C622 1.385 . S
C623 C624 1.389 1_565 S
C624 C623 1.389 1_545 S
C624 C625 1.387 . S
C625 H610 0.930 . S
C625 C620 1.390 . S
C625 C624 1.387 . S
H626 C638 0.930 1_554 S
H627 C640 0.930 . S
H628 C641 0.930 . S
H629 C645 0.959 1_556 S
H630 C645 0.959 . S
H631 C645 0.961 . S
H632 C646 0.960 . S
H633 C646 0.961 . S
H634 C646 0.959 . S
H635 C649 0.929 . S
H636 C650 0.931 . S
H637 C652 0.930 . S
C638 H626 0.930 1_556 S
C638 C639 1.399 . S
C638 C643 1.399 . S
C639 C638 1.399 . S
C639 C640 1.376 . S
C640 H627 0.930 . S
C640 C639 1.376 . S
C640 C641 1.388 . S
C641 H628 0.930 . S
C641 C640 1.388 . S
C641 C642 1.390 . S
C642 C641 1.390 . S
C642 C643 1.394 . S
C642 C648 1.465 . S
C643 C638 1.399 . S
C643 C642 1.394 . S
C643 C644 1.516 . S
C644 C643 1.516 . S
C644 C645 1.502 1_556 S
C644 C646 1.561 1_556 S
C644 C647 1.526 . S
C645 H629 0.959 1_554 S
C645 H630 0.959 . S
C645 H631 0.961 . S
C645 C644 1.502 1_554 S
C646 H632 0.960 . S
C646 H633 0.961 . S
C646 H634 0.959 . S
C646 C644 1.561 1_554 S
C647 C644 1.526 . S
C647 C648 1.396 . S
C647 C652 1.390 . S
C648 C642 1.465 . S
C648 C647 1.396 . S
C648 C649 1.399 . S
C649 H635 0.929 . S
C649 C648 1.399 . S
C649 C650 1.385 . S
C650 H636 0.931 . S
C650 C649 1.385 . S
C650 C651 1.389 . S
C651 C650 1.389 . S
C651 C652 1.387 . S
C652 H637 0.930 . S
C652 C647 1.390 . S
C652 C651 1.387 . S
H653 C665 0.930 . S
H654 C667 0.930 . S
H655 C668 0.930 . S
H656 C672 0.959 . S
H657 C672 0.959 . S
H658 C672 0.961 . S
H659 C673 0.960 . S
H660 C673 0.961 . S
H661 C673 0.959 . S
H662 C676 0.929 . S
H663 C677 0.931 . S
H664 C679 0.930 . S
C665 H653 0.930 . S
C665 C666 1.399 . S
C665 C670 1.399 . S
C666 C665 1.399 . S
C666 C667 1.376 . S
C667 H654 0.930 . S
C667 C666 1.376 . S
C667 C668 1.388 . S
C668 H655 0.930 . S
C668 C667 1.388 . S
C668 C669 1.390 . S
C669 C668 1.390 . S
C669 C670 1.394 . S
C669 C675 1.465 . S
C670 C665 1.399 . S
C670 C669 1.394 . S
C670 C671 1.516 . S
C671 C670 1.516 . S
C671 C672 1.502 . S
C671 C673 1.561 . S
C671 C674 1.526 . S
C672 H656 0.959 . S
C672 H657 0.959 . S
C672 H658 0.961 . S
C672 C671 1.502 . S
C673 H659 0.960 . S
C673 H660 0.961 . S
C673 H661 0.959 . S
C673 C671 1.561 . S
C674 C671 1.526 . S
C674 C675 1.396 . S
C674 C679 1.390 . S
C675 C669 1.465 . S
C675 C674 1.396 . S
C675 C676 1.399 . S
C676 H662 0.929 . S
C676 C675 1.399 . S
C676 C677 1.385 . S
C677 H663 0.931 . S
C677 C676 1.385 . S
C677 C678 1.389 . S
C678 C677 1.389 . S
C678 C679 1.387 . S
C679 H664 0.930 . S
C679 C674 1.390 . S
C679 C678 1.387 . S
H680 C692 0.930 . S
H681 C694 0.930 . S
H682 C695 0.930 . S
H683 C699 0.959 . S
H684 C699 0.959 . S
H685 C699 0.961 . S
H686 C700 0.960 . S
H687 C700 0.961 . S
H688 C700 0.959 . S
H689 C703 0.931 . S
H690 C704 0.931 . S
H691 C706 0.930 . S
C692 H680 0.930 . S
C692 C693 1.408 . S
C692 C697 1.399 . S
C693 C692 1.408 . S
C693 C694 1.371 1_454 S
C694 H681 0.930 . S
C694 C693 1.371 1_656 S
C694 C695 1.388 . S
C695 H682 0.930 . S
C695 C694 1.388 . S
C695 C696 1.390 1_655 S
C696 C695 1.390 1_455 S
C696 C697 1.394 1_556 S
C696 C702 1.465 . S
C697 C692 1.399 . S
C697 C696 1.394 1_554 S
C697 C698 1.516 . S
C698 C697 1.516 . S
C698 C699 1.502 . S
C698 C700 1.561 1_455 S
C698 C701 1.526 . S
C699 H683 0.959 . S
C699 H684 0.959 . S
C699 H685 0.961 . S
C699 C698 1.502 . S
C700 H686 0.960 . S
C700 H687 0.961 . S
C700 H688 0.959 . S
C700 C698 1.561 1_655 S
C701 C698 1.526 . S
C701 C702 1.396 1_554 S
C701 C706 1.390 . S
C702 C696 1.465 . S
C702 C701 1.396 1_556 S
C702 C703 1.399 . S
C703 H689 0.931 . S
C703 C702 1.399 . S
C703 C704 1.385 . S
C704 H690 0.931 . S
C704 C703 1.385 . S
C704 C705 1.389 . S
C705 C704 1.389 . S
C705 C706 1.387 1_556 S
C706 H691 0.930 . S
C706 C701 1.390 . S
C706 C705 1.387 1_554 S
H707 C719 0.930 . S
H708 C721 0.930 . S
H709 C722 0.930 . S
H710 C726 0.959 1_554 S
H711 C726 0.959 . S
H712 C726 0.961 . S
H713 C727 0.960 . S
H714 C727 0.961 . S
H715 C727 0.959 . S
H716 C730 0.929 1_554 S
H717 C731 0.931 . S
H718 C733 0.930 . S
C719 H707 0.930 . S
C719 C720 1.399 1_566 S
C719 C724 1.399 . S
C720 C719 1.399 1_544 S
C720 C721 1.376 . S
C721 H708 0.930 . S
C721 C720 1.376 . S
C721 C722 1.388 . S
C722 H709 0.930 . S
C722 C721 1.388 . S
C722 C723 1.390 1_554 S
C723 C722 1.390 1_556 S
C723 C724 1.394 1_545 S
C723 C729 1.465 . S
C724 C719 1.399 . S
C724 C723 1.394 1_565 S
C724 C725 1.516 . S
C725 C724 1.516 . S
C725 C726 1.502 . S
C725 C727 1.561 . S
C725 C728 1.526 . S
C726 H710 0.959 1_556 S
C726 H711 0.959 . S
C726 H712 0.961 . S
C726 C725 1.502 . S
C727 H713 0.960 . S
C727 H714 0.961 . S
C727 H715 0.959 . S
C727 C725 1.561 . S
C728 C725 1.526 . S
C728 C729 1.396 1_565 S
C728 C733 1.390 . S
C729 C723 1.465 . S
C729 C728 1.396 1_545 S
C729 C730 1.399 . S
C730 H716 0.929 1_556 S
C730 C729 1.399 . S
C730 C731 1.385 . S
C731 H717 0.931 . S
C731 C730 1.385 . S
C731 C732 1.389 . S
C732 C731 1.389 . S
C732 C733 1.387 1_545 S
C733 H718 0.930 . S
C733 C728 1.390 . S
C733 C732 1.387 1_565 S
H734 C746 0.930 . S
H735 C748 0.930 . S
H736 C749 0.930 . S
H737 C753 0.959 . S
H738 C753 0.959 . S
H739 C753 0.961 . S
H740 C754 0.960 . S
H741 C754 0.961 . S
H742 C754 0.959 . S
H743 C757 0.929 . S
H744 C758 0.931 . S
H745 C760 0.930 . S
C746 H734 0.930 . S
C746 C747 1.399 . S
C746 C751 1.399 . S
C747 C746 1.399 . S
C747 C748 1.376 . S
C748 H735 0.930 . S
C748 C747 1.376 . S
C748 C749 1.388 . S
C749 H736 0.930 . S
C749 C748 1.388 . S
C749 C750 1.390 . S
C750 C749 1.390 . S
C750 C751 1.394 . S
C750 C756 1.465 . S
C751 C746 1.399 . S
C751 C750 1.394 . S
C751 C752 1.516 . S
C752 C751 1.516 . S
C752 C753 1.502 . S
C752 C754 1.561 . S
C752 C755 1.526 . S
C753 H737 0.959 . S
C753 H738 0.959 . S
C753 H739 0.961 . S
C753 C752 1.502 . S
C754 H740 0.960 . S
C754 H741 0.961 . S
C754 H742 0.959 . S
C754 C752 1.561 . S
C755 C752 1.526 . S
C755 C756 1.396 . S
C755 C760 1.390 . S
C756 C750 1.465 . S
C756 C755 1.396 . S
C756 C757 1.399 . S
C757 H743 0.929 . S
C757 C756 1.399 . S
C757 C758 1.385 . S
C758 H744 0.931 . S
C758 C757 1.385 . S
C758 C759 1.389 . S
C759 C758 1.389 . S
C759 C760 1.387 . S
C760 H745 0.930 . S
C760 C755 1.390 . S
C760 C759 1.387 . S
H761 C773 0.930 . S
H762 C775 0.930 . S
H763 C776 0.930 . S
H764 C780 0.959 1_554 S
H765 C780 0.959 . S
H766 C780 0.961 . S
H767 C781 0.960 . S
H768 C781 0.961 . S
H769 C781 0.959 . S
H770 C784 0.929 . S
H771 C785 0.931 . S
H772 C787 0.930 . S
C773 H761 0.930 . S
C773 C774 1.399 1_556 S
C773 C778 1.399 . S
C774 C773 1.399 1_554 S
C774 C775 1.376 . S
C775 H762 0.930 . S
C775 C774 1.376 . S
C775 C776 1.388 . S
C776 H763 0.930 . S
C776 C775 1.388 . S
C776 C777 1.390 1_554 S
C777 C776 1.390 1_556 S
C777 C778 1.394 . S
C777 C783 1.465 . S
C778 C773 1.399 . S
C778 C777 1.394 . S
C778 C779 1.516 . S
C779 C778 1.516 . S
C779 C780 1.502 . S
C779 C781 1.561 . S
C779 C782 1.526 . S
C780 H764 0.959 1_556 S
C780 H765 0.959 . S
C780 H766 0.961 . S
C780 C779 1.502 . S
C781 H767 0.960 . S
C781 H768 0.961 . S
C781 H769 0.959 . S
C781 C779 1.561 . S
C782 C779 1.526 . S
C782 C783 1.396 . S
C782 C787 1.390 . S
C783 C777 1.465 . S
C783 C782 1.396 . S
C783 C784 1.399 . S
C784 H770 0.929 . S
C784 C783 1.399 . S
C784 C785 1.385 . S
C785 H771 0.931 . S
C785 C784 1.385 . S
C785 C786 1.389 . S
C786 C785 1.389 . S
C786 C787 1.387 . S
C787 H772 0.930 . S
C787 C782 1.390 . S
C787 C786 1.387 . S
H788 C800 0.930 . S
H789 C802 0.930 . S
H790 C803 0.930 . S
H791 C807 0.959 . S
H792 C807 0.959 . S
H793 C807 0.961 . S
H794 C808 0.960 . S
H795 C808 0.961 . S
H796 C808 0.959 . S
H797 C811 0.929 . S
H798 C812 0.931 . S
H799 C814 0.930 . S
C800 H788 0.930 . S
C800 C801 1.383 1_655 S
C800 C805 1.399 . S
C801 C800 1.383 1_455 S
C801 C802 1.394 . S
C802 H789 0.930 . S
C802 C801 1.394 . S
C802 C803 1.388 . S
C803 H790 0.930 . S
C803 C802 1.388 . S
C803 C804 1.390 . S
C804 C803 1.390 . S
C804 C805 1.394 1_455 S
C804 C810 1.465 . S
C805 C800 1.399 . S
C805 C804 1.394 1_655 S
C805 C806 1.516 . S
C806 C805 1.516 . S
C806 C807 1.502 . S
C806 C808 1.561 . S
C806 C809 1.526 . S
C807 H791 0.959 . S
C807 H792 0.959 . S
C807 H793 0.961 . S
C807 C806 1.502 . S
C808 H794 0.960 . S
C808 H795 0.961 . S
C808 H796 0.959 . S
C808 C806 1.561 . S
C809 C806 1.526 . S
C809 C810 1.396 1_655 S
C809 C814 1.390 . S
C810 C804 1.465 . S
C810 C809 1.396 1_455 S
C810 C811 1.399 . S
C811 H797 0.929 . S
C811 C810 1.399 . S
C811 C812 1.385 . S
C812 H798 0.931 . S
C812 C811 1.385 . S
C812 C813 1.389 1_455 S
C813 C812 1.389 1_655 S
C813 C814 1.387 . S
C814 H799 0.930 . S
C814 C809 1.390 . S
C814 C813 1.387 . S
H815 C827 0.930 . S
H816 C829 0.930 . S
H817 C830 0.930 . S
H818 C834 0.959 . S
H819 C834 0.959 . S
H820 C834 0.961 . S
H821 C835 0.960 . S
H822 C835 0.961 . S
H823 C835 0.959 . S
H824 C838 0.929 . S
H825 C839 0.931 . S
H826 C841 0.930 . S
C827 H815 0.930 . S
C827 C828 1.399 1_545 S
C827 C832 1.399 . S
C828 C827 1.399 1_565 S
C828 C829 1.376 . S
C829 H816 0.930 . S
C829 C828 1.376 . S
C829 C830 1.388 . S
C830 H817 0.930 . S
C830 C829 1.388 . S
C830 C831 1.390 . S
C831 C830 1.390 . S
C831 C832 1.394 1_565 S
C831 C837 1.465 . S
C832 C827 1.399 . S
C832 C831 1.394 1_545 S
C832 C833 1.516 . S
C833 C832 1.516 . S
C833 C834 1.502 . S
C833 C835 1.561 . S
C833 C836 1.526 . S
C834 H818 0.959 . S
C834 H819 0.959 . S
C834 H820 0.961 . S
C834 C833 1.502 . S
C835 H821 0.960 . S
C835 H822 0.961 . S
C835 H823 0.959 . S
C835 C833 1.561 . S
C836 C833 1.526 . S
C836 C837 1.396 1_545 S
C836 C841 1.390 . S
C837 C831 1.465 . S
C837 C836 1.396 1_565 S
C837 C838 1.399 . S
C838 H824 0.929 . S
C838 C837 1.399 . S
C838 C839 1.385 . S
C839 H825 0.931 . S
C839 C838 1.385 . S
C839 C840 1.389 . S
C840 C839 1.389 . S
C840 C841 1.387 1_565 S
C841 H826 0.930 . S
C841 C836 1.390 . S
C841 C840 1.387 1_545 S
H842 C854 0.930 . S
H843 C856 0.930 . S
H844 C857 0.930 . S
H845 C861 0.959 . S
H846 C861 0.959 . S
H847 C861 0.961 . S
H848 C862 0.960 . S
H849 C862 0.961 . S
H850 C862 0.959 . S
H851 C865 0.929 . S
H852 C866 0.931 . S
H853 C868 0.930 . S
C854 H842 0.930 . S
C854 C855 1.399 . S
C854 C859 1.399 . S
C855 C854 1.399 . S
C855 C856 1.376 . S
C856 H843 0.930 . S
C856 C855 1.376 . S
C856 C857 1.388 . S
C857 H844 0.930 . S
C857 C856 1.388 . S
C857 C858 1.390 . S
C858 C857 1.390 . S
C858 C859 1.394 . S
C858 C864 1.465 . S
C859 C854 1.399 . S
C859 C858 1.394 . S
C859 C860 1.516 . S
C860 C859 1.516 . S
C860 C861 1.502 . S
C860 C862 1.561 . S
C860 C863 1.526 . S
C861 H845 0.959 . S
C861 H846 0.959 . S
C861 H847 0.961 . S
C861 C860 1.502 . S
C862 H848 0.960 . S
C862 H849 0.961 . S
C862 H850 0.959 . S
C862 C860 1.561 . S
C863 C860 1.526 . S
C863 C864 1.396 . S
C863 C868 1.390 . S
C864 C858 1.465 . S
C864 C863 1.396 . S
C864 C865 1.399 . S
C865 H851 0.929 . S
C865 C864 1.399 . S
C865 C866 1.385 . S
C866 H852 0.931 . S
C866 C865 1.385 . S
C866 C867 1.389 . S
C867 C866 1.389 . S
C867 C868 1.387 . S
C868 H853 0.930 . S
C868 C863 1.390 . S
C868 C867 1.387 . S
H869 C881 0.930 . S
H870 C883 0.930 . S
H871 C884 0.930 . S
H872 C888 0.959 . S
H873 C888 0.959 . S
H874 C888 0.961 . S
H875 C889 0.960 . S
H876 C889 0.961 . S
H877 C889 0.959 . S
H878 C892 0.929 . S
H879 C893 0.931 . S
H880 C895 0.930 . S
C881 H869 0.930 . S
C881 C882 1.399 . S
C881 C886 1.399 . S
C882 C881 1.399 . S
C882 C883 1.376 . S
C883 H870 0.930 . S
C883 C882 1.376 . S
C883 C884 1.388 . S
C884 H871 0.930 . S
C884 C883 1.388 . S
C884 C885 1.390 . S
C885 C884 1.390 . S
C885 C886 1.394 . S
C885 C891 1.465 . S
C886 C881 1.399 . S
C886 C885 1.394 . S
C886 C887 1.516 . S
C887 C886 1.516 . S
C887 C888 1.502 . S
C887 C889 1.561 . S
C887 C890 1.526 . S
C888 H872 0.959 . S
C888 H873 0.959 . S
C888 H874 0.961 . S
C888 C887 1.502 . S
C889 H875 0.960 . S
C889 H876 0.961 . S
C889 H877 0.959 . S
C889 C887 1.561 . S
C890 C887 1.526 . S
C890 C891 1.396 . S
C890 C895 1.390 . S
C891 C885 1.465 . S
C891 C890 1.396 . S
C891 C892 1.399 . S
C892 H878 0.929 . S
C892 C891 1.399 . S
C892 C893 1.385 . S
C893 H879 0.931 . S
C893 C892 1.385 . S
C893 C894 1.389 . S
C894 C893 1.389 . S
C894 C895 1.387 . S
C895 H880 0.930 . S
C895 C890 1.390 . S
C895 C894 1.387 . S
C261 C76 1.893 . S
C273 C111 1.991 1_545 S
C300 C151 1.712 . S
C288 C87 1.711 . S
C327 C170 2.009 . S
C315 C54 1.848 . S
C354 C231 1.405 . S
C342 C65 1.324 1_655 S
C381 C90 1.993 1_565 S
C369 C32 1.839 1_545 S
C396 C43 1.736 . S
C408 C130 1.730 . S
C423 C10 1.868 . S
C435 C191 2.036 . S
C450 C21 1.382 1_455 S
C462 C210 1.411 1_655 S
C489 C92 0.930 . S
C477 C60 0.836 1_655 S
C516 C132 0.355 . S
C504 C71 0.311 . S
C543 C188 0.891 . S
C531 C82 0.953 . S
C558 C49 0.487 . S
C570 C212 0.352 . S
C585 C16 0.858 1_455 S
C597 C113 0.912 . S
C624 C153 0.266 . S
C612 C27 0.513 1_565 S
C651 C199 0.950 . S
C639 C38 0.931 . S
C666 C5 0.350 . S
C678 C233 0.547 . S
C693 C59 1.513 . S
C705 C108 1.590 . S
C720 C70 2.157 . S
C732 C148 2.366 . S
C759 C172 1.541 . S
C747 C81 1.460 . S
C786 C228 2.356 . S
C774 C48 2.132 . S
C801 C15 1.445 . S
C813 C119 1.593 . S
C840 C159 2.366 . S
C828 C26 2.130 1_565 S
C867 C193 1.534 . S
C855 C37 1.460 . S
C882 C4 2.102 . S
C894 C239 2.355 . S
