# Generated by pormake.
# Topology pyr, (3,6)-cn, num edge types: 1
# Building blocks:
#     Node 0, Type 0, BuildingBlock: ESEHIV_clean_linker_0, # of connection points: 3
#     Node 1, Type 0, BuildingBlock: ESEHIV_clean_linker_0, # of connection points: 3
#     Node 2, Type 0, BuildingBlock: ESEHIV_clean_linker_0, # of connection points: 3
#     Node 3, Type 0, BuildingBlock: ESEHIV_clean_linker_0, # of connection points: 3
#     Node 4, Type 0, BuildingBlock: ESEHIV_clean_linker_0, # of connection points: 3
#     Node 5, Type 0, BuildingBlock: ESEHIV_clean_linker_0, # of connection points: 3
#     Node 6, Type 0, BuildingBlock: ESEHIV_clean_linker_0, # of connection points: 3
#     Node 7, Type 0, BuildingBlock: ESEHIV_clean_linker_0, # of connection points: 3
#     Node 8, Type 1, BuildingBlock: LEVNOQ01_clean_sbu_1, # of connection points: 6
#     Node 9, Type 1, BuildingBlock: LEVNOQ01_clean_sbu_1, # of connection points: 6
#     Node 10, Type 1, BuildingBlock: LEVNOQ01_clean_sbu_1, # of connection points: 6
#     Node 11, Type 1, BuildingBlock: LEVNOQ01_clean_sbu_1, # of connection points: 6
#     Edge 12, Type (0, 1), BuildingBlock: TEMPAE_clean_linker_10, # of connection points: 2
#     Edge 13, Type (0, 1), BuildingBlock: TEMPAE_clean_linker_10, # of connection points: 2
#     Edge 14, Type (0, 1), BuildingBlock: TEMPAE_clean_linker_10, # of connection points: 2
#     Edge 15, Type (0, 1), BuildingBlock: TEMPAE_clean_linker_10, # of connection points: 2
#     Edge 16, Type (0, 1), BuildingBlock: TEMPAE_clean_linker_10, # of connection points: 2
#     Edge 17, Type (0, 1), BuildingBlock: TEMPAE_clean_linker_10, # of connection points: 2
#     Edge 18, Type (0, 1), BuildingBlock: TEMPAE_clean_linker_10, # of connection points: 2
#     Edge 19, Type (0, 1), BuildingBlock: TEMPAE_clean_linker_10, # of connection points: 2
#     Edge 20, Type (0, 1), BuildingBlock: TEMPAE_clean_linker_10, # of connection points: 2
#     Edge 21, Type (0, 1), BuildingBlock: TEMPAE_clean_linker_10, # of connection points: 2
#     Edge 22, Type (0, 1), BuildingBlock: TEMPAE_clean_linker_10, # of connection points: 2
#     Edge 23, Type (0, 1), BuildingBlock: TEMPAE_clean_linker_10, # of connection points: 2
#     Edge 24, Type (0, 1), BuildingBlock: TEMPAE_clean_linker_10, # of connection points: 2
#     Edge 25, Type (0, 1), BuildingBlock: TEMPAE_clean_linker_10, # of connection points: 2
#     Edge 26, Type (0, 1), BuildingBlock: TEMPAE_clean_linker_10, # of connection points: 2
#     Edge 27, Type (0, 1), BuildingBlock: TEMPAE_clean_linker_10, # of connection points: 2
#     Edge 28, Type (0, 1), BuildingBlock: TEMPAE_clean_linker_10, # of connection points: 2
#     Edge 29, Type (0, 1), BuildingBlock: TEMPAE_clean_linker_10, # of connection points: 2
#     Edge 30, Type (0, 1), BuildingBlock: TEMPAE_clean_linker_10, # of connection points: 2
#     Edge 31, Type (0, 1), BuildingBlock: TEMPAE_clean_linker_10, # of connection points: 2
#     Edge 32, Type (0, 1), BuildingBlock: TEMPAE_clean_linker_10, # of connection points: 2
#     Edge 33, Type (0, 1), BuildingBlock: TEMPAE_clean_linker_10, # of connection points: 2
#     Edge 34, Type (0, 1), BuildingBlock: TEMPAE_clean_linker_10, # of connection points: 2
#     Edge 35, Type (0, 1), BuildingBlock: TEMPAE_clean_linker_10, # of connection points: 2
# Relax obj value: 0.035
# Max RMSD: 0.110
# Mean RMSD: 0.045
data_MOF--net-pry--node1-LEVNOQ01_clean_sbu_1--node2-ESEHIV_clean_linker_0--edge1-TEMPAE_clean_linker_10
_symmetry_space_group_name_H-M    P1
_symmetry_Int_Tables_number       1
_symmetry_cell_setting            triclinic
loop_
_symmetry_equiv_pos_as_xyz
'x, y, z'
_cell_length_a     36.08001
_cell_length_b     34.778927
_cell_length_c     34.568436
_cell_angle_alpha  91.970641
_cell_angle_beta   91.069325
_cell_angle_gamma 93.608282
loop_
_atom_site_label
_atom_site_type_symbol
_atom_site_fract_x
_atom_site_fract_y
_atom_site_fract_z
_atom_type_partial_charge
H0 H 0.11313 0.19879 0.18613 0.0
H1 H 0.18652 0.10624 0.19017 0.0
H2 H 0.17783 0.16966 0.08674 0.0
C3 C 0.13256 0.18088 0.17181 0.0
C4 C 0.14312 0.18827 0.13346 0.0
C5 C 0.14746 0.15096 0.19244 0.0
C6 C 0.17466 0.12937 0.17487 0.0
C7 C 0.18593 0.13642 0.13702 0.0
C8 C 0.16947 0.16514 0.11624 0.0
H9 H 0.32241 0.91217 0.65962 0.0
H10 H 0.41315 0.83782 0.65585 0.0
H11 H 0.32851 0.82792 0.5661 0.0
C12 C 0.3366 0.88921 0.64538 0.0
C13 C 0.32162 0.87163 0.61083 0.0
C14 C 0.36995 0.87769 0.66149 0.0
C15 C 0.38801 0.84777 0.64298 0.0
C16 C 0.37322 0.82972 0.60861 0.0
C17 C 0.34041 0.84229 0.59221 0.0
H18 H 0.72137 0.26706 0.8341 0.0
H19 H 0.73224 0.3549 0.75028 0.0
H20 H 0.645 0.26458 0.73694 0.0
C21 C 0.71244 0.27868 0.80701 0.0
C22 C 0.68198 0.26062 0.7861 0.0
C23 C 0.73052 0.31269 0.79429 0.0
C24 C 0.71832 0.32848 0.75983 0.0
C25 C 0.68706 0.31179 0.73899 0.0
C26 C 0.66945 0.27745 0.75217 0.0
H27 H 0.84058 0.64657 0.44614 0.0
H28 H 0.91421 0.65128 0.35003 0.0
H29 H 0.81642 0.57345 0.34473 0.0
C30 C 0.8482 0.63571 0.41779 0.0
C31 C 0.82493 0.60769 0.3977 0.0
C32 C 0.88063 0.65088 0.40088 0.0
C33 C 0.88991 0.63813 0.36355 0.0
C34 C 0.86679 0.61019 0.34288 0.0
C35 C 0.8346 0.59479 0.36048 0.0
H36 H 0.80384 0.89421 0.82206 0.0
H37 H 0.87513 0.79965 0.82299 0.0
H38 H 0.8061 0.8232 0.92063 0.0
C39 C 0.81461 0.8698 0.83625 0.0
C40 C 0.80118 0.85996 0.87262 0.0
C41 C 0.84174 0.84842 0.81826 0.0
C42 C 0.85535 0.81696 0.83753 0.0
C43 C 0.84318 0.80736 0.87483 0.0
C44 C 0.8158 0.82925 0.89189 0.0
H45 H 0.57828 0.15244 0.36422 0.0
H46 H 0.67357 0.08425 0.35755 0.0
H47 H 0.66426 0.16645 0.45225 0.0
C48 C 0.60403 0.14344 0.37662 0.0
C49 C 0.61844 0.1618 0.41101 0.0
C50 C 0.624 0.1158 0.35669 0.0
C51 C 0.65818 0.10594 0.37234 0.0
C52 C 0.67274 0.12378 0.40695 0.0
C53 C 0.65274 0.15176 0.42614 0.0
H54 H 0.26934 0.74109 0.16049 0.0
H55 H 0.26225 0.65626 0.24776 0.0
H56 H 0.34541 0.75026 0.25854 0.0
C57 C 0.27873 0.73103 0.18812 0.0
C58 C 0.30898 0.75072 0.20814 0.0
C59 C 0.26138 0.69736 0.2026 0.0
C60 C 0.27442 0.68327 0.23755 0.0
C61 C 0.30519 0.70179 0.25747 0.0
C62 C 0.32182 0.73587 0.243 0.0
H63 H 0.06582 0.34289 0.66225 0.0
H64 H 0.13308 0.34978 0.561 0.0
H65 H 0.1621 0.42255 0.66132 0.0
C66 C 0.08907 0.35624 0.64717 0.0
C67 C 0.11276 0.38471 0.66639 0.0
C68 C 0.096 0.34389 0.60896 0.0
C69 C 0.12684 0.36018 0.58994 0.0
C70 C 0.15083 0.38836 0.60881 0.0
C71 C 0.14339 0.40087 0.64674 0.0
O72 O 0.98702 0.00526 0.61213 0.0
Mg73 Mg 0.02758 0.03656 0.58195 0.0
O74 O 0.96849 0.96941 0.5604 0.0
Mg75 Mg -0.00217 -0.0033 0.50523 0.0
O76 O 0.00741 0.05831 0.53231 0.0
O77 O 0.02603 0.09483 0.58451 0.0
O78 O 0.02778 0.02542 0.45115 0.0
O79 O 0.93855 0.01773 0.48931 0.0
Mg80 Mg 0.9686 0.96385 0.43383 0.0
O81 O 0.98932 0.93298 0.47824 0.0
O82 O 0.00531 -0.00589 0.39868 0.0
O83 O 0.91507 0.98206 0.43994 0.0
O84 O 0.96877 0.90777 0.4202 0.0
C85 C 0.08312 0.98721 0.54699 0.0
C86 C 0.96685 0.97759 0.59676 0.0
C87 C 0.01333 0.09205 0.54932 0.0
C88 C 0.02739 0.0198 0.41438 0.0
C89 C 0.91153 0.00783 0.46597 0.0
C90 C 0.98211 0.90333 0.45451 0.0
O91 O 0.07904 0.01303 0.57303 0.0
O92 O 0.05688 0.977 0.52273 0.0
O93 O 0.43608 0.08944 0.00236 0.0
Mg94 Mg 0.49209 0.085 0.0138 0.0
O95 O 0.43792 0.03013 0.02054 0.0
Mg96 Mg 0.4986 0.01036 0.0036 0.0
O97 O 0.5255 0.06533 0.97092 0.0
O98 O 0.51976 0.12778 0.98758 0.0
O99 O 0.559 -0.00821 0.98474 0.0
O100 O 0.47291 0.99078 0.94308 0.0
Mg101 Mg 0.51163 0.9398 -0.001 0.0
O102 O 0.4711 0.95533 0.0361 0.0
O103 O 0.5673 0.94111 0.0182 0.0
O104 O 0.49873 0.93538 0.93882 0.0
O105 O 0.48449 0.89425 0.0216 0.0
C106 C 0.52467 0.0593 0.08564 0.0
C107 C 0.41937 0.05962 0.01465 0.0
C108 C 0.53384 0.10191 0.96583 0.0
C109 C 0.58073 0.96735 -0.00247 0.0
C110 C 0.47948 0.96026 0.9236 0.0
C111 C 0.46527 0.9183 0.04044 0.0
O112 O 0.5104 0.08819 0.07181 0.0
O113 O 0.52495 0.02812 0.06512 0.0
O114 O 0.49986 0.57494 0.56359 0.0
Mg115 Mg 0.4833 0.51694 0.57163 0.0
O116 O 0.47401 0.55874 0.5071 0.0
Mg117 Mg 0.48506 0.49363 0.49215 0.0
O118 O 0.51538 0.47536 0.54954 0.0
O119 O 0.51326 0.49259 0.61273 0.0
O120 O 0.49504 0.42867 0.47613 0.0
O121 O 0.54411 0.51449 0.47212 0.0
Mg122 Mg 0.49229 0.47696 0.4066 0.0
O123 O 0.45475 0.50928 0.43454 0.0
O124 O 0.48785 0.4174 0.41336 0.0
O125 O 0.54597 0.50456 0.40865 0.0
O126 O 0.45453 0.49784 0.37028 0.0
C127 C 0.40959 0.48042 0.54435 0.0
C128 C 0.48469 0.58464 0.53261 0.0
C129 C 0.52634 0.47164 0.58532 0.0
C130 C 0.49367 0.40524 0.4468 0.0
C131 C 0.5614 0.51683 0.44032 0.0
C132 C 0.44088 0.51467 0.40018 0.0
O133 O 0.42609 0.49928 0.57236 0.0
O134 O 0.4264 0.47372 0.51293 0.0
O135 O 0.99153 0.40981 0.03876 0.0
Mg136 Mg -0.00036 0.46681 0.06294 0.0
O137 O 0.03347 0.44488 0.01048 0.0
Mg138 Mg -0.0051 0.4994 0.00516 0.0
O139 O 0.95802 0.50324 0.06346 0.0
O140 O 0.97216 0.46577 0.1127 0.0
O141 O 0.95618 0.55367 -0.0002 0.0
O142 O 0.94849 0.46027 0.97498 0.0
Mg143 Mg 0.99149 0.53305 0.94839 0.0
O144 O 0.032 0.49551 0.94709 0.0
O145 O -0.00087 0.5896 0.97408 0.0
O146 O 0.93715 0.50567 0.93456 0.0
O147 O 0.01961 0.53494 0.89897 0.0
C148 C 0.06193 0.52737 0.06149 0.0
C149 C 0.02137 0.41163 0.02065 0.0
C150 C 0.95249 0.49173 0.09855 0.0
C151 C 0.96843 0.58719 0.99065 0.0
C152 C 0.92847 0.47285 0.94805 0.0
C153 C 0.03817 0.50774 0.9124 0.0
O154 O 0.05404 0.49476 0.07578 0.0
O155 O 0.04119 0.53897 0.03468 0.0
C156 C 0.09526 0.14017 0.23881 0.0
C157 C 0.13343 0.14083 0.23148 0.0
C158 C 0.08089 0.12575 0.27333 0.0
C159 C 0.10517 0.11131 0.30125 0.0
C160 C 0.14394 0.11419 0.29518 0.0
C161 C 0.1576 0.12896 0.26046 0.0
C162 C 0.03937 0.12341 0.27859 0.0
C163 C 0.17086 0.0993 0.32417 0.0
C164 C 0.06255 0.08176 0.39723 0.0
C165 C 0.05196 0.04284 0.38879 0.0
C166 C 0.08108 0.10448 0.36957 0.0
C167 C 0.08949 0.08762 0.33303 0.0
C168 C 0.08062 0.04782 0.32549 0.0
C169 C 0.06191 0.02611 0.35328 0.0
C170 C 0.0901 0.14678 0.37874 0.0
C171 C 0.08941 0.02835 0.28727 0.0
H172 H 0.07623 0.14898 0.21666 0.0
H173 H 0.18722 0.13015 0.25554 0.0
H174 H 0.02846 0.09291 0.27511 0.0
H175 H 0.03254 0.13379 0.30814 0.0
H176 H 0.02485 0.14057 0.25716 0.0
H177 H 0.20007 0.10904 0.31832 0.0
H178 H 0.16416 0.10887 0.35403 0.0
H179 H 0.1685 0.06732 0.3229 0.0
H180 H 0.0548 0.09486 0.42458 0.0
H181 H 0.0542 -0.0041 0.34676 0.0
H182 H 0.07247 0.1641 0.36035 0.0
H183 H 0.11945 0.15485 0.37204 0.0
H184 H 0.08529 0.15461 0.40959 0.0
H185 H 0.07322 0.0406 0.26358 0.0
H186 H 0.08279 -0.00329 0.28696 0.0
H187 H 0.11927 0.03369 0.28088 0.0
C188 C 0.42282 0.90784 0.70233 0.0
C189 C 0.38511 0.89563 0.69854 0.0
C190 C 0.43799 0.92267 0.73789 0.0
C191 C 0.41502 0.9247 0.7706 0.0
C192 C 0.37668 0.91342 0.76662 0.0
C193 C 0.36215 0.89925 0.73056 0.0
C194 C 0.47887 0.93489 0.74078 0.0
C195 C 0.35136 0.91452 0.80088 0.0
C196 C 0.46162 0.91428 0.86855 0.0
C197 C 0.46336 0.95216 0.88416 0.0
C198 C 0.44579 0.90511 0.83183 0.0
C199 C 0.4318 0.93464 0.80966 0.0
C200 C 0.43378 0.97308 0.82495 0.0
C201 C 0.44926 0.98136 0.86225 0.0
C202 C 0.44375 0.86365 0.81692 0.0
C203 C 0.41965 0.00538 0.80188 0.0
H204 H 0.44052 0.90549 0.67747 0.0
H205 H 0.33303 0.88956 0.72778 0.0
H206 H 0.48311 0.96394 0.75506 0.0
H207 H 0.4934 0.91458 0.75891 0.0
H208 H 0.49199 0.93545 0.71197 0.0
H209 H 0.32177 0.90776 0.79235 0.0
H210 H 0.35964 0.89325 0.8221 0.0
H211 H 0.354 0.94335 0.81578 0.0
H212 H 0.47215 0.89143 0.88536 0.0
H213 H 0.45063 0.0107 0.87409 0.0
H214 H 0.45929 0.86121 0.78966 0.0
H215 H 0.41444 0.85368 0.81021 0.0
H216 H 0.45533 0.84402 0.83807 0.0
H217 H 0.43405 0.00688 0.77383 0.0
H218 H 0.42392 0.03381 0.81752 0.0
H219 H 0.38958 -0.0003 0.7952 0.0
C220 C 0.6691 0.3728 0.7088 0.0
C221 C 0.67022 0.33248 0.70643 0.0
C222 C 0.64921 0.39257 0.6814 0.0
C223 C 0.62915 0.37161 0.65111 0.0
C224 C 0.63189 0.33125 0.64706 0.0
C225 C 0.65254 0.31218 0.67464 0.0
C226 C 0.64737 0.4357 0.68673 0.0
C227 C 0.61122 0.30795 0.61496 0.0
C228 C 0.54075 0.41966 0.62886 0.0
C229 C 0.55034 0.44086 0.59643 0.0
C230 C 0.56517 0.39461 0.64493 0.0
C231 C 0.60056 0.39119 0.62864 0.0
C232 C 0.6095 0.4106 0.59422 0.0
C233 C 0.58401 0.43514 0.57824 0.0
C234 C 0.55395 0.37391 0.68104 0.0
C235 C 0.64688 0.40779 0.57593 0.0
H236 H 0.68203 0.38898 0.73334 0.0
H237 H 0.65387 0.28117 0.67192 0.0
H238 H 0.65159 0.44996 0.6588 0.0
H239 H 0.61945 0.44232 0.69705 0.0
H240 H 0.66848 0.44833 0.70812 0.0
H241 H 0.61913 0.27759 0.61333 0.0
H242 H 0.58089 0.30798 0.61971 0.0
H243 H 0.61666 0.32114 0.58671 0.0
H244 H 0.5144 0.4237 0.64256 0.0
H245 H 0.59137 0.45159 0.55312 0.0
H246 H 0.57065 0.38647 0.7062 0.0
H247 H 0.55949 0.34294 0.6781 0.0
H248 H 0.52408 0.3762 0.6874 0.0
H249 H 0.66789 0.42639 0.59286 0.0
H250 H 0.64664 0.41744 0.54563 0.0
H251 H 0.65579 0.37785 0.57619 0.0
C252 C 0.91176 0.59011 0.29271 0.0
C253 C 0.87542 0.5979 0.30253 0.0
C254 C 0.91987 0.57622 0.25541 0.0
C255 C 0.89093 0.56993 0.22717 0.0
C256 C 0.85445 0.57923 0.2364 0.0
C257 C 0.84713 0.59309 0.27396 0.0
C258 C 0.95921 0.5667 0.24675 0.0
C259 C 0.82293 0.57324 0.20706 0.0
C260 C 0.9258 0.5513 0.12551 0.0
C261 C 0.92743 0.51114 0.12505 0.0
C262 C 0.91156 0.57106 0.15764 0.0
C263 C 0.8985 0.54996 0.18958 0.0
C264 C 0.89685 0.50918 0.18735 0.0
C265 C 0.91148 0.49031 0.15519 0.0
C266 C 0.91348 0.61454 0.15873 0.0
C267 C 0.88259 0.48546 0.22038 0.0
H268 H 0.93372 0.59362 0.31462 0.0
H269 H 0.81909 0.59989 0.28107 0.0
H270 H 0.96028 0.53513 0.24159 0.0
H271 H 0.96861 0.58081 0.22004 0.0
H272 H 0.97896 0.57596 0.27082 0.0
H273 H 0.79714 0.58576 0.21735 0.0
H274 H 0.83079 0.58635 0.17934 0.0
H275 H 0.81689 0.54192 0.20094 0.0
H276 H 0.9384 0.5675 0.10238 0.0
H277 H 0.91256 0.4592 0.15474 0.0
H278 H 0.93702 0.6257 0.17791 0.0
H279 H 0.88776 0.62558 0.17078 0.0
H280 H 0.91776 0.62621 0.12951 0.0
H281 H 0.90246 0.48932 0.24531 0.0
H282 H 0.8791 0.45424 0.21225 0.0
H283 H 0.85552 0.49523 0.23018 0.0
C284 C 0.21195 0.09672 0.08314 0.0
C285 C 0.21639 0.11519 0.11977 0.0
C286 C 0.24195 0.07997 0.0651 0.0
C287 C 0.27742 0.08286 0.08366 0.0
C288 C 0.28153 0.10004 0.12141 0.0
C289 C 0.25087 0.11561 0.13914 0.0
C290 C 0.2361 0.06094 0.02538 0.0
C291 C 0.31892 0.10453 0.14199 0.0
C292 C 0.36208 0.03252 0.04778 0.0
C293 C 0.3804 0.06204 0.02736 0.0
C294 C 0.3274 0.0379 0.06468 0.0
C295 C 0.31116 0.07382 0.06161 0.0
C296 C 0.3288 0.10291 0.03954 0.0
C297 C 0.3628 0.09648 0.02239 0.0
C298 C 0.30892 0.00576 0.08704 0.0
C299 C 0.31288 0.14183 0.03579 0.0
H300 H 0.18514 0.09598 0.06832 0.0
H301 H 0.25434 0.13004 0.16741 0.0
H302 H 0.24853 0.08003 0.00338 0.0
H303 H 0.25011 0.03345 0.02355 0.0
H304 H 0.20615 0.05502 0.01794 0.0
H305 H 0.31684 0.11537 0.17243 0.0
H306 H 0.33217 0.07662 0.14193 0.0
H307 H 0.33751 0.12515 0.12645 0.0
H308 H 0.37534 0.00577 0.05168 0.0
H309 H 0.37644 0.11943 0.00642 0.0
H310 H 0.27897 0.00174 0.07899 0.0
H311 H 0.3109 0.01335 0.11847 0.0
H312 H 0.32204 0.97803 0.08192 0.0
H313 H 0.28409 0.13835 0.02383 0.0
H314 H 0.3296 0.161 0.01679 0.0
H315 H 0.31168 0.15633 0.06481 0.0
C316 C 0.2553 0.88543 0.61989 0.0
C317 C 0.28555 0.8831 0.59528 0.0
C318 C 0.22168 0.89886 0.60673 0.0
C319 C 0.21836 0.91073 0.5681 0.0
C320 C 0.24832 0.90695 0.54262 0.0
C321 C 0.28159 0.89292 0.5565 0.0
C322 C 0.19026 0.90194 0.63472 0.0
C323 C 0.24593 0.91956 0.50136 0.0
C324 C 0.12005 0.92935 0.53534 0.0
C325 C 0.1187 0.96843 0.54619 0.0
C326 C 0.15294 0.91026 0.5405 0.0
C327 C 0.18513 0.93104 0.55621 0.0
C328 C 0.18442 0.9711 0.56458 0.0
C329 C 0.15115 0.98918 0.55981 0.0
C330 C 0.15256 0.86748 0.53146 0.0
C331 C 0.21827 -0.00547 0.58067 0.0
H332 H 0.25816 0.87717 0.64971 0.0
H333 H 0.305 0.8911 0.53746 0.0
H334 H 0.18576 0.93276 0.64112 0.0
H335 H 0.16407 0.88841 0.62168 0.0
H336 H 0.19598 0.888 0.66246 0.0
H337 H 0.26968 0.9104 0.48404 0.0
H338 H 0.21969 0.90766 0.4871 0.0
H339 H 0.24579 0.95145 0.50118 0.0
H340 H 0.09493 0.91324 0.52487 0.0
H341 H 0.1503 0.01956 0.56772 0.0
H342 H 0.15339 0.85192 0.55892 0.0
H343 H 0.17746 0.86036 0.51497 0.0
H344 H 0.12729 0.85668 0.51459 0.0
H345 H 0.22454 0.98566 0.6105 0.0
H346 H 0.21425 0.02596 0.58166 0.0
H347 H 0.24286 0.9892 0.56292 0.0
C348 C 0.75324 0.34258 0.85792 0.0
C349 C 0.7599 0.33373 0.81886 0.0
C350 C 0.77972 0.36445 0.88113 0.0
C351 C 0.81393 0.37726 0.86506 0.0
C352 C 0.82111 0.36766 0.82583 0.0
C353 C 0.79383 0.34634 0.80309 0.0
C354 C 0.77068 0.37469 0.92255 0.0
C355 C 0.85747 0.38024 0.80778 0.0
C356 C 0.86966 0.46529 0.90835 0.0
C357 C 0.89717 0.44849 0.9301 0.0
C358 C 0.84175 0.44246 0.88805 0.0
C359 C 0.84178 0.40177 0.88883 0.0
C360 C 0.86905 0.38463 0.91137 0.0
C361 C 0.89621 0.40822 0.93206 0.0
C362 C 0.81269 0.4619 0.86512 0.0
C363 C 0.87033 0.34138 0.91253 0.0
H364 H 0.72678 0.33331 0.87002 0.0
H365 H 0.79904 0.33938 0.77294 0.0
H366 H 0.79223 0.36474 0.94249 0.0
H367 H 0.77069 0.40647 0.92667 0.0
H368 H 0.74317 0.36176 0.9309 0.0
H369 H 0.85948 0.36875 0.77756 0.0
H370 H 0.86062 0.41217 0.80767 0.0
H371 H 0.88102 0.37042 0.82517 0.0
H372 H 0.87014 0.49641 0.9069 0.0
H373 H 0.91758 0.39505 0.94855 0.0
H374 H 0.78447 0.45111 0.87348 0.0
H375 H 0.81541 0.4548 0.83381 0.0
H376 H 0.81512 0.49376 0.86953 0.0
H377 H 0.84329 0.3283 0.92192 0.0
H378 H 0.89257 0.33258 0.9324 0.0
H379 H 0.87522 0.32936 0.88304 0.0
C380 C 0.76459 0.62135 0.42792 0.0
C381 C 0.78876 0.59439 0.41375 0.0
C382 C 0.7282 0.60984 0.438 0.0
C383 C 0.71585 0.57045 0.43391 0.0
C384 C 0.74091 0.54283 0.422 0.0
C385 C 0.77706 0.55518 0.41186 0.0
C386 C 0.70226 0.64017 0.45036 0.0
C387 C 0.72888 0.5005 0.41769 0.0
C388 C 0.62274 0.53473 0.47358 0.0
C389 C 0.60026 0.53298 0.43994 0.0
C390 C 0.66048 0.54733 0.47236 0.0
C391 C 0.67573 0.55881 0.43679 0.0
C392 C 0.65281 0.55819 0.40308 0.0
C393 C 0.61546 0.54511 0.40504 0.0
C394 C 0.68422 0.54739 0.50878 0.0
C395 C 0.6679 0.57065 0.36465 0.0
H396 H 0.77347 0.65174 0.4291 0.0
H397 H 0.79591 0.53428 0.40136 0.0
H398 H 0.68164 0.64378 0.42676 0.0
H399 H 0.68663 0.63117 0.47621 0.0
H400 H 0.71732 0.66854 0.45707 0.0
H401 H 0.75277 0.48236 0.41299 0.0
H402 H 0.71402 0.49078 0.44376 0.0
H403 H 0.7093 0.49569 0.3926 0.0
H404 H 0.61115 0.5252 0.5006 0.0
H405 H 0.59814 0.54415 0.37901 0.0
H406 H 0.6984 0.57631 0.51454 0.0
H407 H 0.70617 0.52671 0.50494 0.0
H408 H 0.66776 0.53934 0.53445 0.0
H409 H 0.68096 0.60037 0.36761 0.0
H410 H 0.64599 0.5699 0.34157 0.0
H411 H 0.68972 0.55147 0.35528 0.0
C412 C 0.14812 0.24066 0.08421 0.0
C413 C 0.12712 0.22031 0.11172 0.0
C414 C 0.13352 0.27092 0.06398 0.0
C415 C 0.09757 0.28247 0.07245 0.0
C416 C 0.07619 0.26227 0.10009 0.0
C417 C 0.09085 0.23109 0.11868 0.0
C418 C 0.15681 0.29085 0.03386 0.0
C419 C 0.03802 0.27414 0.11074 0.0
C420 C 0.07297 0.38564 0.05719 0.0
C421 C 0.04677 0.38076 0.02674 0.0
C422 C 0.0907 0.35409 0.07151 0.0
C423 C 0.08286 0.3169 0.05412 0.0
C424 C 0.05843 0.31243 0.02139 0.0
C425 C 0.03991 0.34432 0.00869 0.0
C426 C 0.1155 0.36015 0.10716 0.0
C427 C 0.05045 0.27367 0.00099 0.0
H428 H 0.17638 0.23354 0.07877 0.0
H429 H 0.07368 0.21525 0.13884 0.0
H430 H 0.14041 0.29264 0.00657 0.0
H431 H 0.16514 0.32078 0.04407 0.0
H432 H 0.18234 0.27572 0.0275 0.0
H433 H 0.02538 0.25619 0.13361 0.0
H434 H 0.03971 0.30475 0.1212 0.0
H435 H 0.01928 0.2718 0.08487 0.0
H436 H 0.07748 0.41372 0.07176 0.0
H437 H 0.01917 0.34051 0.98554 0.0
H438 H 0.14268 0.34782 0.10224 0.0
H439 H 0.10244 0.34488 0.13161 0.0
H440 H 0.12046 0.39113 0.11583 0.0
H441 H 0.0766 0.25914 -0.00369 0.0
H442 H 0.03604 0.27621 0.97259 0.0
H443 H 0.03254 0.25494 0.01923 0.0
C444 C 0.62221 0.22539 0.80392 0.0
C445 C 0.6611 0.22673 0.8024 0.0
C446 C 0.60254 0.19749 0.82525 0.0
C447 C 0.6222 0.17038 0.84581 0.0
C448 C 0.66109 0.16948 0.8416 0.0
C449 C 0.68009 0.1977 0.81999 0.0
C450 C 0.56104 0.19935 0.82868 0.0
C451 C 0.68309 0.14081 0.86256 0.0
C452 C 0.5805 0.15073 0.94311 0.0
C453 C 0.56026 0.11534 0.9362 0.0
C454 C 0.60204 0.16779 0.91441 0.0
C455 C 0.60338 0.14917 0.87747 0.0
C456 C 0.58467 0.11233 0.8708 0.0
C457 C 0.56332 0.09567 0.90044 0.0
C458 C 0.62197 0.20676 0.92323 0.0
C459 C 0.58564 0.09145 0.83191 0.0
H460 H 0.60723 0.24773 0.79064 0.0
H461 H 0.71008 0.19802 0.81826 0.0
H462 H 0.54698 0.17007 0.82582 0.0
H463 H 0.55469 0.2116 0.8577 0.0
H464 H 0.54924 0.21768 0.80643 0.0
H465 H 0.71127 0.1388 0.85054 0.0
H466 H 0.68617 0.1499 0.8936 0.0
H467 H 0.66844 0.11176 0.86097 0.0
H468 H 0.57876 0.16575 0.97098 0.0
H469 H 0.54772 0.06828 0.89502 0.0
H470 H 0.60995 0.22872 0.90504 0.0
H471 H 0.65179 0.20601 0.91622 0.0
H472 H 0.61986 0.21621 0.9541 0.0
H473 H 0.56748 0.10539 0.81105 0.0
H474 H 0.57573 0.06065 0.83344 0.0
H475 H 0.61416 0.09315 0.82036 0.0
C476 C 0.89042 0.72108 0.41268 0.0
C477 C 0.90158 0.68425 0.41974 0.0
C478 C 0.91033 0.75382 0.4286 0.0
C479 C 0.94218 0.74949 0.45242 0.0
C480 C 0.95258 0.71206 0.46104 0.0
C481 C 0.93221 0.67968 0.44421 0.0
C482 C 0.89797 0.79309 0.41865 0.0
C483 C 0.98574 0.70604 0.48684 0.0
C484 C 0.00214 0.83873 0.43861 0.0
C485 C 0.98677 0.86359 0.46575 0.0
C486 C -0.00796 0.79922 0.43745 0.0
C487 C 0.96598 0.78457 0.46417 0.0
C488 C 0.95576 0.80849 0.49574 0.0
C489 C 0.96613 0.84818 0.49606 0.0
C490 C 0.00456 0.77467 0.40389 0.0
C491 C 0.92981 0.79348 0.52619 0.0
H492 H 0.86641 0.7242 0.39394 0.0
H493 H 0.94044 0.6509 0.44979 0.0
H494 H 0.89298 0.8102 0.4455 0.0
H495 H 0.9201 0.80901 0.40266 0.0
H496 H 0.87211 0.79125 0.40053 0.0
H497 H 0.98313 0.67744 0.50024 0.0
H498 H 0.01119 0.70712 0.4693 0.0
H499 H 0.9894 0.72882 0.51011 0.0
H500 H 0.01853 0.85083 0.41544 0.0
H501 H 0.95443 0.86742 0.51725 0.0
H502 H 0.98176 0.77067 0.38182 0.0
H503 H 0.01118 0.74575 0.41347 0.0
H504 H 0.02937 0.78824 0.38996 0.0
H505 H 0.90072 0.79727 0.51681 0.0
H506 H 0.9351 0.80979 0.55413 0.0
H507 H 0.93276 0.76238 0.53076 0.0
C508 C 0.40137 0.79428 0.55314 0.0
C509 C 0.3904 0.79558 0.59182 0.0
C510 C 0.41806 0.76188 0.5375 0.0
C511 C 0.42298 0.7299 0.56095 0.0
C512 C 0.41116 0.73094 0.59981 0.0
C513 C 0.3954 0.76393 0.61485 0.0
C514 C 0.431 0.7621 0.49624 0.0
C515 C 0.41505 0.69712 0.62557 0.0
C516 C 0.43453 0.6287 0.52068 0.0
C517 C 0.47163 0.62384 0.53097 0.0
C518 C 0.41864 0.66394 0.52828 0.0
C519 C 0.44078 0.69524 0.54554 0.0
C520 C 0.4791 0.69132 0.55287 0.0
C521 C 0.49392 0.65539 0.54615 0.0
C522 C 0.37753 0.66662 0.52082 0.0
C523 C 0.50385 0.72423 0.57038 0.0
H524 H 0.39749 0.81889 0.53541 0.0
H525 H 0.38643 0.76482 0.64462 0.0
H526 H 0.46146 0.75927 0.49576 0.0
H527 H 0.41777 0.73705 0.47934 0.0
H528 H 0.42457 0.78893 0.48165 0.0
H529 H 0.40289 0.70192 0.65449 0.0
H530 H 0.40113 0.67066 0.6117 0.0
H531 H 0.44482 0.69177 0.62968 0.0
H532 H 0.41713 0.6041 0.5095 0.0
H533 H 0.5226 0.65151 0.55422 0.0
H534 H 0.37244 0.69232 0.50385 0.0
H535 H 0.36329 0.67003 0.5488 0.0
H536 H 0.36477 0.64061 0.50497 0.0
H537 H 0.49906 0.75138 0.55565 0.0
H538 H 0.53373 0.71855 0.56852 0.0
H539 H 0.49715 0.72872 0.60134 0.0
C540 C 0.83319 0.87253 0.75085 0.0
C541 C 0.85672 0.85986 0.77999 0.0
C542 C 0.84757 0.88712 0.71635 0.0
C543 C 0.88641 0.88922 0.71078 0.0
C544 C 0.91005 0.87433 0.73901 0.0
C545 C 0.89498 0.85998 0.77325 0.0
C546 C 0.82135 0.90198 0.68666 0.0
C547 C 0.95158 0.87559 0.73405 0.0
C548 C 0.93079 0.91625 0.61484 0.0
C549 C 0.94189 0.95517 0.62265 0.0
C550 C 0.91131 0.89443 0.64255 0.0
C551 C 0.90287 0.91204 0.67874 0.0
C552 C 0.91234 0.9518 0.68568 0.0
C553 C 0.93163 0.97271 0.6577 0.0
C554 C 0.90158 0.85222 0.63364 0.0
C555 C 0.90348 0.97208 0.72346 0.0
H556 H 0.80351 0.87171 0.75531 0.0
H557 H 0.91349 0.85047 0.79553 0.0
H558 H 0.82537 0.93385 0.68609 0.0
H559 H 0.82745 0.89032 0.65734 0.0
H560 H 0.7918 0.89421 0.69301 0.0
H561 H 0.96571 0.85928 0.75648 0.0
H562 H 0.95822 0.8635 0.70506 0.0
H563 H 0.96305 0.90598 0.73592 0.0
H564 H 0.93864 0.90244 0.58788 0.0
H565 H 0.93954 0.00294 0.66379 0.0
H566 H 0.87539 0.84218 0.64749 0.0
H567 H 0.92417 0.83522 0.64493 0.0
H568 H 0.8987 0.84615 0.60195 0.0
H569 H 0.87345 0.96758 0.72944 0.0
H570 H 0.91084 0.00358 0.72341 0.0
H571 H 0.91901 0.95976 0.7476 0.0
C572 C 0.57281 0.08875 0.31137 0.0
C573 C 0.61055 0.09956 0.31815 0.0
C574 C 0.55933 0.07701 0.27414 0.0
C575 C 0.58415 0.07626 0.24288 0.0
C576 C 0.62253 0.08539 0.2499 0.0
C577 C 0.63525 0.09694 0.2874 0.0
C578 C 0.51824 0.06731 0.26792 0.0
C579 C 0.64991 0.08521 0.21739 0.0
C580 C 0.55139 0.03036 0.14519 0.0
C581 C 0.54079 0.0627 0.12555 0.0
C582 C 0.56556 0.03412 0.18351 0.0
C583 C 0.56941 0.07106 0.20234 0.0
C584 C 0.55914 0.10374 0.18242 0.0
C585 C 0.54494 0.09915 0.14447 0.0
C586 C 0.57614 -0.00136 0.20393 0.0
C587 C 0.56305 0.14372 0.20122 0.0
H588 H 0.55366 0.09015 0.33509 0.0
H589 H 0.66439 0.10563 0.29223 0.0
H590 H 0.50598 0.09014 0.25109 0.0
H591 H 0.5134 0.03978 0.25086 0.0
H592 H 0.50339 0.06486 0.29568 0.0
H593 H 0.67915 0.08842 0.22825 0.0
H594 H 0.64595 0.05809 0.19955 0.0
H595 H 0.64505 0.10936 0.19814 0.0
H596 H 0.54819 0.00211 0.13084 0.0
H597 H 0.53707 0.12441 0.12956 0.0
H598 H 0.55945 -0.00492 0.23035 0.0
H599 H 0.60576 0.00193 0.21337 0.0
H600 H 0.57175 0.97206 0.18523 0.0
H601 H 0.54612 0.14477 0.22764 0.0
H602 H 0.55414 0.16618 0.18157 0.0
H603 H 0.5924 0.15095 0.21028 0.0
C604 C 0.36099 0.67613 0.28859 0.0
C605 C 0.32301 0.68229 0.2899 0.0
C606 C 0.37734 0.65179 0.31457 0.0
C607 C 0.3553 0.63353 0.34299 0.0
C608 C 0.31765 0.64217 0.3465 0.0
C609 C 0.30177 0.66607 0.31954 0.0
C610 C 0.41755 0.64329 0.30955 0.0
C611 C 0.2936 0.62436 0.3772 0.0
C612 C 0.38754 0.53459 0.36155 0.0
C613 C 0.41193 0.54199 0.39331 0.0
C614 C 0.36671 0.56357 0.34678 0.0
C615 C 0.37034 0.6011 0.3642 0.0
C616 C 0.39257 0.60798 0.39832 0.0
C617 C 0.41303 0.57811 0.41274 0.0
C618 C 0.34354 0.55479 0.3103 0.0
C619 C 0.39643 0.64742 0.4181 0.0
H620 H 0.37746 0.68831 0.26556 0.0
H621 H 0.27247 0.67112 0.32088 0.0
H622 H 0.43294 0.64677 0.33766 0.0
H623 H 0.4192 0.61292 0.2991 0.0
H624 H 0.43166 0.66237 0.28848 0.0
H625 H 0.26728 0.63899 0.38048 0.0
H626 H 0.2866 0.59353 0.36931 0.0
H627 H 0.3087 0.62561 0.40551 0.0
H628 H 0.3865 0.50656 0.34666 0.0
H629 H 0.43199 0.58391 0.43723 0.0
H630 H 0.35639 0.57037 0.28593 0.0
H631 H 0.31521 0.56488 0.31377 0.0
H632 H 0.34113 0.5235 0.30234 0.0
H633 H 0.40454 0.6697 0.39711 0.0
H634 H 0.41741 0.64907 0.44206 0.0
H635 H 0.36923 0.65467 0.42984 0.0
C636 C 0.07032 0.40492 0.71885 0.0
C637 C 0.10613 0.39712 0.70716 0.0
C638 C 0.06406 0.4194 0.7564 0.0
C639 C 0.09435 0.42617 0.78299 0.0
C640 C 0.1303 0.41667 0.77196 0.0
C641 C 0.13578 0.40235 0.73413 0.0
C642 C 0.02523 0.42914 0.76699 0.0
C643 C 0.16319 0.42303 0.79957 0.0
C644 C 0.07721 0.50756 0.85417 0.0
C645 C 0.06222 0.48757 0.88536 0.0
C646 C 0.09052 0.48785 0.82182 0.0
C647 C 0.08865 0.44705 0.82055 0.0
C648 C 0.07684 0.42682 0.85352 0.0
C649 C 0.06379 0.44741 0.88574 0.0
C650 C 0.10341 0.51066 0.78762 0.0
C651 C 0.07492 0.38337 0.85354 0.0
H652 H 0.04733 0.40108 0.69814 0.0
H653 H 0.16344 0.39559 0.72552 0.0
H654 H 0.01717 0.41554 0.79441 0.0
H655 H 0.0244 0.4608 0.77174 0.0
H656 H 0.00434 0.41951 0.7441 0.0
H657 H 0.18823 0.40976 0.78831 0.0
H658 H 0.16989 0.4544 0.80447 0.0
H659 H 0.15652 0.41091 0.82807 0.0
H660 H 0.0763 0.53867 0.85397 0.0
H661 H 0.05205 0.43182 0.90972 0.0
H662 H 0.08252 0.50627 0.76364 0.0
H663 H 0.12999 0.50054 0.77684 0.0
H664 H 0.10727 0.54204 0.7949 0.0
H665 H 0.05046 0.37178 0.83591 0.0
H666 H 0.07216 0.37252 0.88327 0.0
H667 H 0.09997 0.37195 0.84035 0.0
C668 C 0.73643 0.86174 0.89593 0.0
C669 C 0.77099 0.88107 0.8903 0.0
C670 C 0.70735 0.88084 0.91288 0.0
C671 C 0.71329 0.92002 0.92549 0.0
C672 C 0.74829 0.93968 0.91986 0.0
C673 C 0.77665 0.92005 0.90183 0.0
C674 C 0.67028 0.85896 0.91751 0.0
C675 C 0.75604 0.98107 0.9337 0.0
C676 C 0.6247 0.97142 0.94261 0.0
C677 C 0.61814 0.96354 0.98149 0.0
C678 C 0.65664 0.95919 0.92429 0.0
C679 C 0.68302 0.93953 0.94569 0.0
C680 C 0.67797 0.9346 0.9858 0.0
C681 C 0.64533 0.94612 0.00306 0.0
C682 C 0.66051 0.96449 0.88137 0.0
C683 C 0.70591 0.91493 0.01001 0.0
H684 H 0.73213 0.83163 0.88674 0.0
H685 H 0.80352 0.93485 0.89752 0.0
H686 H 0.66421 0.85653 0.9487 0.0
H687 H 0.64781 0.8748 0.90423 0.0
H688 H 0.66951 0.82947 0.90399 0.0
H689 H 0.78437 -0.00749 0.92632 0.0
H690 H 0.73546 -0.00048 0.92076 0.0
H691 H 0.75312 0.98341 0.96558 0.0
H692 H 0.60358 0.98454 0.92571 0.0
H693 H 0.64039 0.94013 0.03318 0.0
H694 H 0.65536 0.93616 0.86579 0.0
H695 H 0.68907 0.97553 0.87463 0.0
H696 H 0.64051 0.98461 0.87006 0.0
H697 H 0.70437 0.88365 0.0022 0.0
H698 H 0.7008 0.91849 0.04149 0.0
H699 H 0.73454 0.92656 0.00423 0.0
C700 C 0.71379 0.10325 0.46073 0.0
C701 C 0.7094 0.11367 0.42217 0.0
C702 C 0.74739 0.08957 0.47408 0.0
C703 C 0.77722 0.08666 0.44829 0.0
C704 C 0.77355 0.09946 0.41003 0.0
C705 C 0.73962 0.11259 0.39739 0.0
C706 C 0.75016 0.07606 0.51499 0.0
C707 C 0.80482 0.09734 0.38173 0.0
C708 C 0.87547 0.06597 0.47948 0.0
C709 C 0.87625 0.02709 0.46759 0.0
C710 C 0.84283 0.08566 0.47514 0.0
C711 C 0.81033 0.06569 0.45915 0.0
C712 C 0.81049 0.02579 0.44966 0.0
C713 C 0.8435 0.0071 0.45369 0.0
C714 C 0.84379 0.12823 0.48542 0.0
C715 C 0.77631 0.00319 0.43319 0.0
H716 H 0.69041 0.1041 0.47991 0.0
H717 H 0.73642 0.12132 0.36776 0.0
H718 H 0.74978 0.04412 0.51445 0.0
H719 H 0.77674 0.08723 0.52908 0.0
H720 H 0.72681 0.08525 0.53287 0.0
H721 H 0.79899 0.11234 0.35463 0.0
H722 H 0.83112 0.1103 0.39502 0.0
H723 H 0.80914 0.06671 0.37411 0.0
H724 H 0.90082 0.08149 0.49018 0.0
H725 H 0.84392 0.97689 0.44496 0.0
H726 H 0.81902 0.13524 0.50217 0.0
H727 H 0.84317 0.14461 0.45846 0.0
H728 H 0.86919 0.13821 0.5025 0.0
H729 H 0.75197 0.00813 0.45144 0.0
H730 H 0.78002 0.97172 0.43103 0.0
H731 H 0.76984 0.01316 0.40382 0.0
C732 C 0.23775 0.66374 0.14099 0.0
C733 C 0.2318 0.67481 0.17965 0.0
C734 C 0.21111 0.64013 0.11966 0.0
C735 C 0.17744 0.62787 0.13723 0.0
C736 C 0.17098 0.63975 0.17602 0.0
C737 C 0.19842 0.66274 0.1969 0.0
C738 C 0.21938 0.6275 0.07866 0.0
C739 C 0.13519 0.6279 0.1956 0.0
C740 C 0.09388 0.59276 0.07384 0.0
C741 C 0.09323 0.55274 0.07806 0.0
C742 C 0.12134 0.61755 0.09258 0.0
C743 C 0.14928 0.6019 0.11545 0.0
C744 C 0.14955 0.56141 0.1186 0.0
C745 C 0.12131 0.53736 0.10022 0.0
C746 C 0.11972 0.66056 0.08897 0.0
C747 C 0.17931 0.54352 0.142 0.0
H748 H 0.26379 0.67262 0.12779 0.0
H749 H 0.19379 0.67139 0.22676 0.0
H750 H 0.21956 0.59561 0.07642 0.0
H751 H 0.19732 0.63607 0.05853 0.0
H752 H 0.24659 0.64006 0.06902 0.0
H753 H 0.13375 0.64108 0.22523 0.0
H754 H 0.11112 0.63642 0.17816 0.0
H755 H 0.13244 0.59608 0.19761 0.0
H756 H 0.0721 0.60487 0.05699 0.0
H757 H 0.12109 0.50644 0.10342 0.0
H758 H 0.14638 0.67313 0.07807 0.0
H759 H 0.11559 0.67425 0.11791 0.0
H760 H 0.09686 0.66809 0.0692 0.0
H761 H 0.20723 0.55392 0.13237 0.0
H762 H 0.177 0.51152 0.13946 0.0
H763 H 0.17731 0.5524 0.17298 0.0
C764 C 0.2107 0.37518 0.57791 0.0
C765 C 0.18576 0.40196 0.59063 0.0
C766 C 0.2462 0.38735 0.56565 0.0
C767 C 0.25666 0.42727 0.5656 0.0
C768 C 0.23068 0.45447 0.57613 0.0
C769 C 0.1956 0.44144 0.589 0.0
C770 C 0.27331 0.35746 0.55535 0.0
C771 C 0.24059 0.49728 0.57573 0.0
C772 C 0.35757 0.45882 0.58611 0.0
C773 C 0.37068 0.46587 0.54896 0.0
C774 C 0.32067 0.44573 0.59169 0.0
C775 C 0.29599 0.44037 0.55938 0.0
C776 C 0.30897 0.44752 0.52172 0.0
C777 C 0.34642 0.4598 0.51688 0.0
C778 C 0.30812 0.43764 0.63225 0.0
C779 C 0.2832 0.44281 0.48675 0.0
H780 H 0.20313 0.34461 0.57956 0.0
H781 H 0.17612 0.46208 0.59863 0.0
H782 H 0.2868 0.36397 0.52756 0.0
H783 H 0.29558 0.35804 0.578 0.0
H784 H 0.25972 0.32788 0.55298 0.0
H785 H 0.21587 0.51443 0.57957 0.0
H786 H 0.2609 0.50562 0.59951 0.0
H787 H 0.25389 0.50493 0.54812 0.0
H788 H 0.37637 0.46317 0.61094 0.0
H789 H 0.35648 0.46553 0.48816 0.0
H790 H 0.29621 0.40751 0.63348 0.0
H791 H 0.28594 0.45685 0.64047 0.0
H792 H 0.33117 0.44198 0.65402 0.0
H793 H 0.27072 0.41284 0.4842 0.0
H794 H 0.29765 0.44954 0.45947 0.0
H795 H 0.26004 0.4621 0.49019 0.0
C796 C 0.83808 0.75356 0.92261 0.0
C797 C 0.85923 0.77496 0.89598 0.0
C798 C 0.85315 0.72372 0.94308 0.0
C799 C 0.88977 0.71357 0.93563 0.0
C800 C 0.9112 0.73459 0.90864 0.0
C801 C 0.89605 0.76542 0.88992 0.0
C802 C 0.82977 0.70289 0.97255 0.0
C803 C 0.95005 0.72412 0.89896 0.0
C804 C 0.94813 0.65411 0.00115 0.0
C805 C 0.9427 0.61746 0.9832 0.0
C806 C 0.92889 0.68523 0.98776 0.0
C807 C 0.90527 0.67983 0.95446 0.0
C808 C 0.89899 0.64244 0.93707 0.0
C809 C 0.91733 0.61163 0.95209 0.0
C810 C 0.93516 0.72421 0.00816 0.0
C811 C 0.87522 0.63545 0.90078 0.0
H812 H 0.80944 0.75967 0.92734 0.0
H813 H 0.91336 0.78207 0.87052 0.0
H814 H 0.82293 0.67267 0.96231 0.0
H815 H 0.84553 0.70194 0.00035 0.0
H816 H 0.80341 0.71685 0.978 0.0
H817 H 0.9625 0.74226 0.87613 0.0
H818 H 0.96827 0.72748 0.92519 0.0
H819 H 0.94965 0.69345 0.88888 0.0
H820 H 0.9682 0.65865 0.02487 0.0
H821 H 0.91391 0.5834 0.93766 0.0
H822 H 0.90837 0.73774 0.01213 0.0
H823 H 0.95287 0.74352 0.9903 0.0
H824 H 0.94906 0.72226 0.03692 0.0
H825 H 0.84746 0.64674 0.90487 0.0
H826 H 0.87149 0.60436 0.89212 0.0
H827 H 0.8884 0.65112 0.87665 0.0
C828 C 0.31 0.81138 0.1701 0.0
C829 C 0.32927 0.78437 0.19056 0.0
C830 C 0.32908 0.8399 0.14889 0.0
C831 C 0.36837 0.8416 0.14824 0.0
C832 C 0.38798 0.81629 0.1711 0.0
C833 C 0.36826 0.78788 0.19171 0.0
C834 C 0.30709 0.86641 0.12505 0.0
C835 C 0.42989 0.81724 0.1715 0.0
C836 C 0.4194 0.86576 0.05688 0.0
C837 C 0.43634 0.90236 0.06624 0.0
C838 C 0.39559 0.84682 0.08253 0.0
C839 C 0.38877 0.86466 0.11888 0.0
C840 C 0.40415 0.90257 0.12777 0.0
C841 C 0.42769 0.92119 0.1011 0.0
C842 C 0.37927 0.80678 0.07138 0.0
C843 C 0.39748 0.92256 0.16618 0.0
H844 H 0.2799 0.80949 0.16967 0.0
H845 H 0.38358 0.76707 0.20699 0.0
H846 H 0.31939 0.89645 0.12774 0.0
H847 H 0.30789 0.85712 0.09406 0.0
H848 H 0.27757 0.86606 0.13371 0.0
H849 H 0.441 0.79965 0.19476 0.0
H850 H 0.43939 0.80581 0.14326 0.0
H851 H 0.44193 0.84729 0.17556 0.0
H852 H 0.42552 0.85137 0.02963 0.0
H853 H 0.44074 0.94951 0.10837 0.0
H854 H 0.3488 0.80493 0.07544 0.0
H855 H 0.39131 0.78551 0.0904 0.0
H856 H 0.38481 0.79839 0.04083 0.0
H857 H 0.36771 0.91924 0.17364 0.0
H858 H 0.40623 0.95377 0.16621 0.0
H859 H 0.41351 0.90909 0.18922 0.0
C860 C 0.07069 0.27595 0.60948 0.0
C861 C 0.07394 0.31074 0.59044 0.0
C862 C 0.05405 0.24263 0.59104 0.0
C863 C 0.0394 0.24435 0.55275 0.0
C864 C 0.04098 0.27996 0.53401 0.0
C865 C 0.05891 0.31268 0.55288 0.0
C866 C 0.05346 0.20526 0.61221 0.0
C867 C 0.02496 0.28364 0.4938 0.0
C868 C 0.04179 0.14401 0.5122 0.0
C869 C 0.0098 0.12794 0.52916 0.0
C870 C 0.04971 0.18404 0.51402 0.0
C871 C 0.02459 0.20789 0.53271 0.0
C872 C 0.98896 0.19213 0.54227 0.0
C873 C 0.98215 0.15194 0.54104 0.0
C874 C 0.08746 0.19985 0.50196 0.0
C875 C 0.96033 0.21702 0.55951 0.0
H876 H 0.08274 0.2744 0.63832 0.0
H877 H 0.06144 0.33973 0.53816 0.0
H878 H 0.02439 0.19381 0.6158 0.0
H879 H 0.06796 0.18336 0.59518 0.0
H880 H 0.06701 0.20882 0.64135 0.0
H881 H 0.01527 0.313 0.48994 0.0
H882 H 0.04689 0.27911 0.47235 0.0
H883 H 0.00142 0.26216 0.48728 0.0
H884 H 0.06308 0.12525 0.50287 0.0
H885 H 0.95723 0.13937 0.55394 0.0
H886 H 0.10542 0.20618 0.52812 0.0
H887 H 0.08518 0.22716 0.48673 0.0
H888 H 0.1012 0.17907 0.48272 0.0
H889 H 0.96629 0.22185 0.59098 0.0
H890 H 0.93191 0.20299 0.55579 0.0
H891 H 0.96122 0.24557 0.54602 0.0
C892 C 0.61739 0.23147 0.42922 0.0
C893 C 0.59954 0.19453 0.42831 0.0
C894 C 0.59807 0.264 0.43923 0.0
C895 C 0.56022 0.25927 0.44945 0.0
C896 C 0.54301 0.22168 0.45157 0.0
C897 C 0.5627 0.1897 0.44024 0.0
C898 C 0.61732 0.30352 0.4357 0.0
C899 C 0.50315 0.21533 0.46355 0.0
C900 C 0.51951 0.35222 0.48492 0.0
C901 C 0.50427 0.36494 0.4503 0.0
C902 C 0.53594 0.31658 0.48591 0.0
C903 C 0.53752 0.29357 0.4514 0.0
C904 C 0.5202 0.30529 0.41706 0.0
C905 C 0.50349 0.34051 0.41708 0.0
C906 C 0.55316 0.30447 0.52332 0.0
C907 C 0.52152 0.28194 0.37945 0.0
H908 H 0.64583 0.23509 0.41971 0.0
H909 H 0.54906 0.161 0.4397 0.0
H910 H 0.60487 0.31807 0.41098 0.0
H911 H 0.61342 0.32166 0.46214 0.0
H912 H 0.64758 0.30218 0.43087 0.0
H913 H 0.49633 0.18494 0.4711 0.0
H914 H 0.49741 0.23452 0.48875 0.0
H915 H 0.48439 0.22242 0.4394 0.0
H916 H 0.52012 0.37079 0.51079 0.0
H917 H 0.49146 0.34981 0.39027 0.0
H918 H 0.58381 0.3056 0.52092 0.0
H919 H 0.54381 0.27424 0.52911 0.0
H920 H 0.54611 0.32335 0.54835 0.0
H921 H 0.55078 0.28055 0.37043 0.0
H922 H 0.5055 0.29439 0.3557 0.0
H923 H 0.51026 0.25195 0.38331 0.0
loop_
_geom_bond_atom_site_label_1
_geom_bond_atom_site_label_2
_geom_bond_distance
_geom_bond_site_symmetry_2
_ccdc_geom_bond_type
H0 C3 0.931 . S
H1 C6 0.928 . S
H2 C8 0.930 . S
C3 H0 0.931 . S
C3 C4 1.413 . S
C3 C5 1.360 . S
C4 C3 1.413 . S
C4 C8 1.429 . S
C5 C3 1.360 . S
C5 C6 1.372 . S
C6 H1 0.928 . S
C6 C5 1.372 . S
C6 C7 1.404 . S
C7 C6 1.404 . S
C7 C8 1.391 . S
C8 H2 0.930 . S
C8 C4 1.429 . S
C8 C7 1.391 . S
H9 C12 0.931 . S
H10 C15 0.928 . S
H11 C17 0.930 . S
C12 H9 0.931 . S
C12 C13 1.413 . S
C12 C14 1.360 . S
C13 C12 1.413 . S
C13 C17 1.429 . S
C14 C12 1.360 . S
C14 C15 1.372 . S
C15 H10 0.928 . S
C15 C14 1.372 . S
C15 C16 1.404 . S
C16 C15 1.404 . S
C16 C17 1.391 . S
C17 H11 0.930 . S
C17 C13 1.429 . S
C17 C16 1.391 . S
H18 C21 0.931 . S
H19 C24 0.928 . S
H20 C26 0.930 . S
C21 H18 0.931 . S
C21 C22 1.413 . S
C21 C23 1.360 . S
C22 C21 1.413 . S
C22 C26 1.429 . S
C23 C21 1.360 . S
C23 C24 1.372 . S
C24 H19 0.928 . S
C24 C23 1.372 . S
C24 C25 1.404 . S
C25 C24 1.404 . S
C25 C26 1.391 . S
C26 H20 0.930 . S
C26 C22 1.429 . S
C26 C25 1.391 . S
H27 C30 0.931 . S
H28 C33 0.928 . S
H29 C35 0.930 . S
C30 H27 0.931 . S
C30 C31 1.413 . S
C30 C32 1.360 . S
C31 C30 1.413 . S
C31 C35 1.429 . S
C32 C30 1.360 . S
C32 C33 1.372 . S
C33 H28 0.928 . S
C33 C32 1.372 . S
C33 C34 1.404 . S
C34 C33 1.404 . S
C34 C35 1.391 . S
C35 H29 0.930 . S
C35 C31 1.429 . S
C35 C34 1.391 . S
H36 C39 0.931 . S
H37 C42 0.928 . S
H38 C44 0.930 . S
C39 H36 0.931 . S
C39 C40 1.413 . S
C39 C41 1.360 . S
C40 C39 1.413 . S
C40 C44 1.429 . S
C41 C39 1.360 . S
C41 C42 1.372 . S
C42 H37 0.928 . S
C42 C41 1.372 . S
C42 C43 1.404 . S
C43 C42 1.404 . S
C43 C44 1.391 . S
C44 H38 0.930 . S
C44 C40 1.429 . S
C44 C43 1.391 . S
H45 C48 0.931 . S
H46 C51 0.928 . S
H47 C53 0.930 . S
C48 H45 0.931 . S
C48 C49 1.413 . S
C48 C50 1.360 . S
C49 C48 1.413 . S
C49 C53 1.429 . S
C50 C48 1.360 . S
C50 C51 1.372 . S
C51 H46 0.928 . S
C51 C50 1.372 . S
C51 C52 1.404 . S
C52 C51 1.404 . S
C52 C53 1.391 . S
C53 H47 0.930 . S
C53 C49 1.429 . S
C53 C52 1.391 . S
H54 C57 0.931 . S
H55 C60 0.928 . S
H56 C62 0.930 . S
C57 H54 0.931 . S
C57 C58 1.413 . S
C57 C59 1.360 . S
C58 C57 1.413 . S
C58 C62 1.429 . S
C59 C57 1.360 . S
C59 C60 1.372 . S
C60 H55 0.928 . S
C60 C59 1.372 . S
C60 C61 1.404 . S
C61 C60 1.404 . S
C61 C62 1.391 . S
C62 H56 0.930 . S
C62 C58 1.429 . S
C62 C61 1.391 . S
H63 C66 0.931 . S
H64 C69 0.928 . S
H65 C71 0.930 . S
C66 H63 0.931 . S
C66 C67 1.413 . S
C66 C68 1.360 . S
C67 C66 1.413 . S
C67 C71 1.429 . S
C68 C66 1.360 . S
C68 C69 1.372 . S
C69 H64 0.928 . S
C69 C68 1.372 . S
C69 C70 1.404 . S
C70 C69 1.404 . S
C70 C71 1.391 . S
C71 H65 0.930 . S
C71 C67 1.429 . S
C71 C70 1.391 . S
O72 Mg73 1.990 . S
O72 C86 1.253 1_445 S
Mg73 O72 1.990 . S
Mg73 O76 2.180 . S
Mg73 O77 2.117 . S
Mg73 O91 2.030 1_545 S
O74 Mg75 2.072 1_665 S
O74 C86 1.260 . S
Mg75 O74 2.072 1_445 S
Mg75 O76 2.099 . S
Mg75 O78 2.079 . S
Mg75 O79 2.072 1_455 S
Mg75 O81 2.099 1_445 S
Mg75 O92 2.079 1_545 S
O76 Mg73 2.180 . S
O76 Mg75 2.099 . S
O76 C87 1.279 . S
O77 Mg73 2.117 . S
O77 C87 1.250 . S
O78 Mg75 2.079 . S
O78 C88 1.264 . S
O79 Mg75 2.072 1_655 S
O79 C89 1.260 . S
Mg80 O81 2.180 . S
Mg80 O82 2.030 1_565 S
Mg80 O83 1.990 1_565 S
Mg80 O84 2.117 . S
O81 Mg75 2.099 1_665 S
O81 Mg80 2.180 . S
O81 C90 1.279 . S
O82 Mg80 2.030 1_545 S
O82 C88 1.248 1_655 S
O83 Mg80 1.990 1_545 S
O83 C89 1.253 . S
O84 Mg80 2.117 . S
O84 C90 1.250 . S
C85 O91 1.248 . S
C85 O92 1.264 . S
C86 O72 1.253 1_665 S
C86 O74 1.260 . S
C87 O76 1.279 . S
C87 O77 1.250 . S
C88 O78 1.264 . S
C88 O82 1.248 1_455 S
C89 O79 1.260 . S
C89 O83 1.253 . S
C90 O81 1.279 . S
C90 O84 1.250 . S
O91 Mg73 2.030 1_565 S
O91 C85 1.248 . S
O92 Mg75 2.079 1_565 S
O92 C85 1.264 . S
O93 Mg94 1.990 . S
O93 C107 1.253 . S
Mg94 O93 1.990 . S
Mg94 O97 2.182 1_554 S
Mg94 O98 2.117 1_554 S
Mg94 O112 2.030 . S
O95 Mg96 2.072 . S
O95 C107 1.260 . S
Mg96 O95 2.072 . S
Mg96 O97 2.099 1_554 S
Mg96 O99 2.079 1_544 S
Mg96 O100 2.072 1_554 S
Mg96 O102 2.099 1_545 S
Mg96 O113 2.079 . S
O97 Mg94 2.182 1_556 S
O97 Mg96 2.099 1_556 S
O97 C108 1.278 . S
O98 Mg94 2.117 1_556 S
O98 C108 1.250 . S
O99 Mg96 2.079 1_566 S
O99 C109 1.264 . S
O100 Mg96 2.072 1_556 S
O100 C110 1.260 1_545 S
Mg101 O102 2.180 1_556 S
Mg101 O103 2.030 . S
Mg101 O104 1.990 . S
Mg101 O105 2.117 1_556 S
O102 Mg96 2.099 1_565 S
O102 Mg101 2.180 1_554 S
O102 C111 1.279 . S
O103 Mg101 2.030 . S
O103 C109 1.248 . S
O104 Mg101 1.990 . S
O104 C110 1.253 . S
O105 Mg101 2.117 1_554 S
O105 C111 1.250 . S
C106 O112 1.248 . S
C106 O113 1.264 . S
C107 O93 1.253 . S
C107 O95 1.260 . S
C108 O97 1.278 . S
C108 O98 1.250 . S
C109 O99 1.264 . S
C109 O103 1.248 . S
C110 O100 1.260 1_565 S
C110 O104 1.253 . S
C111 O102 1.279 . S
C111 O105 1.250 . S
O112 Mg94 2.030 . S
O112 C106 1.248 . S
O113 Mg96 2.079 . S
O113 C106 1.264 . S
O114 Mg115 1.990 . S
O114 C128 1.253 . S
Mg115 O114 1.990 . S
Mg115 O118 2.180 . S
Mg115 O119 2.117 . S
Mg115 O133 2.030 . S
O116 Mg117 2.072 . S
O116 C128 1.260 . S
Mg117 O116 2.072 . S
Mg117 O118 2.099 . S
Mg117 O120 2.079 . S
Mg117 O121 2.072 . S
Mg117 O123 2.099 . S
Mg117 O134 2.079 . S
O118 Mg115 2.180 . S
O118 Mg117 2.099 . S
O118 C129 1.279 . S
O119 Mg115 2.117 . S
O119 C129 1.250 . S
O120 Mg117 2.079 . S
O120 C130 1.264 . S
O121 Mg117 2.072 . S
O121 C131 1.260 . S
Mg122 O123 2.180 . S
Mg122 O124 2.030 . S
Mg122 O125 1.990 . S
Mg122 O126 2.117 . S
O123 Mg117 2.099 . S
O123 Mg122 2.180 . S
O123 C132 1.279 . S
O124 Mg122 2.030 . S
O124 C130 1.248 . S
O125 Mg122 1.990 . S
O125 C131 1.253 . S
O126 Mg122 2.117 . S
O126 C132 1.250 . S
C127 O133 1.248 . S
C127 O134 1.264 . S
C128 O114 1.253 . S
C128 O116 1.260 . S
C129 O118 1.279 . S
C129 O119 1.250 . S
C130 O120 1.264 . S
C130 O124 1.248 . S
C131 O121 1.260 . S
C131 O125 1.253 . S
C132 O123 1.279 . S
C132 O126 1.250 . S
O133 Mg115 2.030 . S
O133 C127 1.248 . S
O134 Mg117 2.079 . S
O134 C127 1.264 . S
O135 Mg136 1.990 . S
O135 C149 1.253 . S
Mg136 O135 1.990 . S
Mg136 O139 2.180 1_455 S
Mg136 O140 2.117 1_455 S
Mg136 O154 2.030 . S
O137 Mg138 2.072 . S
O137 C149 1.260 . S
Mg138 O137 2.072 . S
Mg138 O139 2.099 1_455 S
Mg138 O141 2.079 1_454 S
Mg138 O142 2.072 1_455 S
Mg138 O144 2.099 1_554 S
Mg138 O155 2.079 . S
O139 Mg136 2.180 1_655 S
O139 Mg138 2.099 1_655 S
O139 C150 1.279 . S
O140 Mg136 2.117 1_655 S
O140 C150 1.250 . S
O141 Mg138 2.079 1_656 S
O141 C151 1.264 . S
O142 Mg138 2.072 1_655 S
O142 C152 1.260 1_554 S
Mg143 O144 2.180 1_655 S
Mg143 O145 2.030 . S
Mg143 O146 1.990 . S
Mg143 O147 2.117 . S
O144 Mg138 2.099 1_556 S
O144 Mg143 2.180 1_455 S
O144 C153 1.279 . S
O145 Mg143 2.030 . S
O145 C151 1.248 . S
O146 Mg143 1.990 . S
O146 C152 1.253 . S
O147 Mg143 2.117 . S
O147 C153 1.250 1_655 S
C148 O154 1.248 . S
C148 O155 1.264 . S
C149 O135 1.253 . S
C149 O137 1.260 . S
C150 O139 1.279 . S
C150 O140 1.250 . S
C151 O141 1.264 . S
C151 O145 1.248 . S
C152 O142 1.260 1_556 S
C152 O146 1.253 . S
C153 O144 1.279 . S
C153 O147 1.250 1_455 S
O154 Mg136 2.030 . S
O154 C148 1.248 . S
O155 Mg138 2.079 . S
O155 C148 1.264 . S
C156 C157 1.391 . S
C156 C158 1.394 . S
C156 H172 0.931 . S
C157 C156 1.391 . S
C157 C161 1.376 . S
C158 C156 1.394 . S
C158 C159 1.369 . S
C158 C162 1.531 . S
C159 C158 1.369 . S
C159 C160 1.410 . S
C159 C167 1.503 . S
C160 C159 1.410 . S
C160 C161 1.392 . S
C160 C163 1.511 . S
C161 C157 1.376 . S
C161 C160 1.392 . S
C161 H173 0.929 . S
C162 C158 1.531 . S
C162 H174 0.960 . S
C162 H175 0.962 . S
C162 H176 0.960 . S
C163 C160 1.511 . S
C163 H177 0.961 . S
C163 H178 0.961 . S
C163 H179 0.961 . S
C164 C165 1.370 . S
C164 C166 1.363 . S
C164 H180 0.931 . S
C165 C164 1.370 . S
C165 C169 1.408 . S
C166 C164 1.363 . S
C166 C167 1.370 . S
C166 C170 1.524 . S
C167 C159 1.503 . S
C167 C166 1.370 . S
C167 C168 1.403 . S
C168 C167 1.403 . S
C168 C169 1.404 . S
C168 C171 1.539 . S
C169 C165 1.408 . S
C169 C168 1.404 . S
C169 H181 0.930 1_545 S
C170 C166 1.524 . S
C170 H182 0.956 . S
C170 H183 0.961 . S
C170 H184 0.961 . S
C171 C168 1.539 . S
C171 H185 0.958 . S
C171 H186 0.961 1_545 S
C171 H187 0.960 . S
H172 C156 0.931 . S
H173 C161 0.929 . S
H174 C162 0.960 . S
H175 C162 0.962 . S
H176 C162 0.960 . S
H177 C163 0.961 . S
H178 C163 0.961 . S
H179 C163 0.961 . S
H180 C164 0.931 . S
H181 C169 0.930 1_565 S
H182 C170 0.956 . S
H183 C170 0.961 . S
H184 C170 0.961 . S
H185 C171 0.958 . S
H186 C171 0.961 1_565 S
H187 C171 0.960 . S
C188 C189 1.391 . S
C188 C190 1.394 . S
C188 H204 0.931 . S
C189 C188 1.391 . S
C189 C193 1.376 . S
C190 C188 1.394 . S
C190 C191 1.369 . S
C190 C194 1.531 . S
C191 C190 1.369 . S
C191 C192 1.410 . S
C191 C199 1.503 . S
C192 C191 1.410 . S
C192 C193 1.392 . S
C192 C195 1.511 . S
C193 C189 1.376 . S
C193 C192 1.392 . S
C193 H205 0.929 . S
C194 C190 1.531 . S
C194 H206 0.966 . S
C194 H207 0.962 . S
C194 H208 0.960 . S
C195 C192 1.511 . S
C195 H209 0.961 . S
C195 H210 0.961 . S
C195 H211 0.961 . S
C196 C197 1.370 . S
C196 C198 1.363 . S
C196 H212 0.931 . S
C197 C196 1.370 . S
C197 C201 1.408 1_565 S
C198 C196 1.363 . S
C198 C199 1.370 . S
C198 C202 1.524 . S
C199 C191 1.503 . S
C199 C198 1.370 . S
C199 C200 1.403 . S
C200 C199 1.403 . S
C200 C201 1.404 1_565 S
C200 C203 1.539 1_565 S
C201 C197 1.408 1_545 S
C201 C200 1.404 1_545 S
C201 H213 0.930 . S
C202 C198 1.524 . S
C202 H214 0.956 . S
C202 H215 0.961 . S
C202 H216 0.961 . S
C203 C200 1.539 1_545 S
C203 H217 0.958 . S
C203 H218 0.961 . S
C203 H219 0.960 . S
H204 C188 0.931 . S
H205 C193 0.929 . S
H206 C194 0.966 . S
H207 C194 0.962 . S
H208 C194 0.960 . S
H209 C195 0.961 . S
H210 C195 0.961 . S
H211 C195 0.961 . S
H212 C196 0.931 . S
H213 C201 0.930 . S
H214 C202 0.956 . S
H215 C202 0.961 . S
H216 C202 0.961 . S
H217 C203 0.958 . S
H218 C203 0.961 . S
H219 C203 0.960 . S
C220 C221 1.391 . S
C220 C222 1.394 . S
C220 H236 0.931 . S
C221 C220 1.391 . S
C221 C225 1.376 . S
C222 C220 1.394 . S
C222 C223 1.369 . S
C222 C226 1.531 . S
C223 C222 1.369 . S
C223 C224 1.410 . S
C223 C231 1.503 . S
C224 C223 1.410 . S
C224 C225 1.392 . S
C224 C227 1.511 . S
C225 C221 1.376 . S
C225 C224 1.392 . S
C225 H237 0.929 . S
C226 C222 1.531 . S
C226 H238 0.960 . S
C226 H239 0.962 . S
C226 H240 0.960 . S
C227 C224 1.511 . S
C227 H241 0.961 . S
C227 H242 0.961 . S
C227 H243 0.961 . S
C228 C229 1.370 . S
C228 C230 1.363 . S
C228 H244 0.931 . S
C229 C228 1.370 . S
C229 C233 1.408 . S
C230 C228 1.363 . S
C230 C231 1.370 . S
C230 C234 1.524 . S
C231 C223 1.503 . S
C231 C230 1.370 . S
C231 C232 1.403 . S
C232 C231 1.403 . S
C232 C233 1.404 . S
C232 C235 1.539 . S
C233 C229 1.408 . S
C233 C232 1.404 . S
C233 H245 0.930 . S
C234 C230 1.524 . S
C234 H246 0.956 . S
C234 H247 0.961 . S
C234 H248 0.961 . S
C235 C232 1.539 . S
C235 H249 0.958 . S
C235 H250 0.961 . S
C235 H251 0.960 . S
H236 C220 0.931 . S
H237 C225 0.929 . S
H238 C226 0.960 . S
H239 C226 0.962 . S
H240 C226 0.960 . S
H241 C227 0.961 . S
H242 C227 0.961 . S
H243 C227 0.961 . S
H244 C228 0.931 . S
H245 C233 0.930 . S
H246 C234 0.956 . S
H247 C234 0.961 . S
H248 C234 0.961 . S
H249 C235 0.958 . S
H250 C235 0.961 . S
H251 C235 0.960 . S
C252 C253 1.391 . S
C252 C254 1.394 . S
C252 H268 0.931 . S
C253 C252 1.391 . S
C253 C257 1.376 . S
C254 C252 1.394 . S
C254 C255 1.369 . S
C254 C258 1.531 . S
C255 C254 1.369 . S
C255 C256 1.410 . S
C255 C263 1.503 . S
C256 C255 1.410 . S
C256 C257 1.392 . S
C256 C259 1.511 . S
C257 C253 1.376 . S
C257 C256 1.392 . S
C257 H269 0.929 . S
C258 C254 1.531 . S
C258 H270 0.960 . S
C258 H271 0.962 . S
C258 H272 0.960 . S
C259 C256 1.511 . S
C259 H273 0.961 . S
C259 H274 0.961 . S
C259 H275 0.961 . S
C260 C261 1.370 . S
C260 C262 1.363 . S
C260 H276 0.931 . S
C261 C260 1.370 . S
C261 C265 1.408 . S
C262 C260 1.363 . S
C262 C263 1.370 . S
C262 C266 1.524 . S
C263 C255 1.503 . S
C263 C262 1.370 . S
C263 C264 1.403 . S
C264 C263 1.403 . S
C264 C265 1.404 . S
C264 C267 1.539 . S
C265 C261 1.408 . S
C265 C264 1.404 . S
C265 H277 0.930 . S
C266 C262 1.524 . S
C266 H278 0.956 . S
C266 H279 0.961 . S
C266 H280 0.961 . S
C267 C264 1.539 . S
C267 H281 0.958 . S
C267 H282 0.961 . S
C267 H283 0.960 . S
H268 C252 0.931 . S
H269 C257 0.929 . S
H270 C258 0.960 . S
H271 C258 0.962 . S
H272 C258 0.960 . S
H273 C259 0.961 . S
H274 C259 0.961 . S
H275 C259 0.961 . S
H276 C260 0.931 . S
H277 C265 0.930 . S
H278 C266 0.956 . S
H279 C266 0.961 . S
H280 C266 0.961 . S
H281 C267 0.958 . S
H282 C267 0.961 . S
H283 C267 0.960 . S
C284 C285 1.391 . S
C284 C286 1.394 . S
C284 H300 0.931 . S
C285 C284 1.391 . S
C285 C289 1.376 . S
C286 C284 1.394 . S
C286 C287 1.369 . S
C286 C290 1.531 . S
C287 C286 1.369 . S
C287 C288 1.410 . S
C287 C295 1.503 . S
C288 C287 1.410 . S
C288 C289 1.392 . S
C288 C291 1.511 . S
C289 C285 1.376 . S
C289 C288 1.392 . S
C289 H301 0.929 . S
C290 C286 1.531 . S
C290 H302 0.960 . S
C290 H303 0.962 . S
C290 H304 0.960 1_554 S
C291 C288 1.511 . S
C291 H305 0.961 . S
C291 H306 0.961 . S
C291 H307 0.961 . S
C292 C293 1.370 . S
C292 C294 1.363 . S
C292 H308 0.931 . S
C293 C292 1.370 . S
C293 C297 1.408 . S
C294 C292 1.363 . S
C294 C295 1.370 . S
C294 C298 1.524 . S
C295 C287 1.503 . S
C295 C294 1.370 . S
C295 C296 1.403 . S
C296 C295 1.403 . S
C296 C297 1.404 . S
C296 C299 1.539 . S
C297 C293 1.408 . S
C297 C296 1.404 . S
C297 H309 0.930 . S
C298 C294 1.524 . S
C298 H310 0.956 . S
C298 H311 0.961 . S
C298 H312 0.975 . S
C299 C296 1.539 . S
C299 H313 0.958 . S
C299 H314 0.961 . S
C299 H315 0.960 . S
H300 C284 0.931 . S
H301 C289 0.929 . S
H302 C290 0.960 . S
H303 C290 0.962 . S
H304 C290 0.960 1_556 S
H305 C291 0.961 . S
H306 C291 0.961 . S
H307 C291 0.961 . S
H308 C292 0.931 . S
H309 C297 0.930 . S
H310 C298 0.956 . S
H311 C298 0.961 . S
H312 C298 0.975 . S
H313 C299 0.958 . S
H314 C299 0.961 . S
H315 C299 0.960 . S
C316 C317 1.391 . S
C316 C318 1.394 . S
C316 H332 0.931 . S
C317 C316 1.391 . S
C317 C321 1.376 . S
C318 C316 1.394 . S
C318 C319 1.369 . S
C318 C322 1.531 . S
C319 C318 1.369 . S
C319 C320 1.410 . S
C319 C327 1.503 . S
C320 C319 1.410 . S
C320 C321 1.392 . S
C320 C323 1.511 . S
C321 C317 1.376 . S
C321 C320 1.392 . S
C321 H333 0.929 . S
C322 C318 1.531 . S
C322 H334 0.960 . S
C322 H335 0.962 . S
C322 H336 0.960 . S
C323 C320 1.511 . S
C323 H337 0.961 . S
C323 H338 0.961 . S
C323 H339 0.961 . S
C324 C325 1.370 . S
C324 C326 1.363 . S
C324 H340 0.931 . S
C325 C324 1.370 . S
C325 C329 1.408 . S
C326 C324 1.363 . S
C326 C327 1.370 . S
C326 C330 1.524 . S
C327 C319 1.503 . S
C327 C326 1.370 . S
C327 C328 1.403 . S
C328 C327 1.403 . S
C328 C329 1.404 . S
C328 C331 1.539 1_565 S
C329 C325 1.408 . S
C329 C328 1.404 . S
C329 H341 0.930 1_565 S
C330 C326 1.524 . S
C330 H342 0.956 . S
C330 H343 0.961 . S
C330 H344 0.961 . S
C331 C328 1.539 1_545 S
C331 H345 0.958 . S
C331 H346 0.961 . S
C331 H347 0.960 . S
H332 C316 0.931 . S
H333 C321 0.929 . S
H334 C322 0.960 . S
H335 C322 0.962 . S
H336 C322 0.960 . S
H337 C323 0.961 . S
H338 C323 0.961 . S
H339 C323 0.961 . S
H340 C324 0.931 . S
H341 C329 0.930 1_545 S
H342 C330 0.956 . S
H343 C330 0.961 . S
H344 C330 0.961 . S
H345 C331 0.958 . S
H346 C331 0.961 . S
H347 C331 0.960 . S
C348 C349 1.391 . S
C348 C350 1.394 . S
C348 H364 0.931 . S
C349 C348 1.391 . S
C349 C353 1.376 . S
C350 C348 1.394 . S
C350 C351 1.369 . S
C350 C354 1.531 . S
C351 C350 1.369 . S
C351 C352 1.410 . S
C351 C359 1.503 . S
C352 C351 1.410 . S
C352 C353 1.392 . S
C352 C355 1.511 . S
C353 C349 1.376 . S
C353 C352 1.392 . S
C353 H365 0.929 . S
C354 C350 1.531 . S
C354 H366 0.960 1_556 S
C354 H367 0.962 1_556 S
C354 H368 0.960 1_556 S
C355 C352 1.511 . S
C355 H369 0.961 . S
C355 H370 0.961 . S
C355 H371 0.961 . S
C356 C357 1.370 . S
C356 C358 1.363 . S
C356 H372 0.931 . S
C357 C356 1.370 . S
C357 C361 1.408 . S
C358 C356 1.363 . S
C358 C359 1.370 . S
C358 C362 1.524 . S
C359 C351 1.503 . S
C359 C358 1.370 . S
C359 C360 1.403 . S
C360 C359 1.403 . S
C360 C361 1.404 . S
C360 C363 1.539 . S
C361 C357 1.408 . S
C361 C360 1.404 . S
C361 H373 0.930 . S
C362 C358 1.524 . S
C362 H374 0.956 . S
C362 H375 0.961 . S
C362 H376 0.961 . S
C363 C360 1.539 . S
C363 H377 0.958 . S
C363 H378 0.961 . S
C363 H379 0.960 . S
H364 C348 0.931 . S
H365 C353 0.929 . S
H366 C354 0.960 1_554 S
H367 C354 0.962 1_554 S
H368 C354 0.960 1_554 S
H369 C355 0.961 . S
H370 C355 0.961 . S
H371 C355 0.961 . S
H372 C356 0.931 . S
H373 C361 0.930 . S
H374 C362 0.956 . S
H375 C362 0.961 . S
H376 C362 0.961 . S
H377 C363 0.958 . S
H378 C363 0.961 . S
H379 C363 0.960 . S
C380 C381 1.391 . S
C380 C382 1.394 . S
C380 H396 0.931 . S
C381 C380 1.391 . S
C381 C385 1.376 . S
C382 C380 1.394 . S
C382 C383 1.369 . S
C382 C386 1.531 . S
C383 C382 1.369 . S
C383 C384 1.410 . S
C383 C391 1.503 . S
C384 C383 1.410 . S
C384 C385 1.392 . S
C384 C387 1.511 . S
C385 C381 1.376 . S
C385 C384 1.392 . S
C385 H397 0.929 . S
C386 C382 1.531 . S
C386 H398 0.960 . S
C386 H399 0.962 . S
C386 H400 0.960 . S
C387 C384 1.511 . S
C387 H401 0.961 . S
C387 H402 0.961 . S
C387 H403 0.961 . S
C388 C389 1.370 . S
C388 C390 1.363 . S
C388 H404 0.931 . S
C389 C388 1.370 . S
C389 C393 1.408 . S
C390 C388 1.363 . S
C390 C391 1.370 . S
C390 C394 1.524 . S
C391 C383 1.503 . S
C391 C390 1.370 . S
C391 C392 1.403 . S
C392 C391 1.403 . S
C392 C393 1.404 . S
C392 C395 1.539 . S
C393 C389 1.408 . S
C393 C392 1.404 . S
C393 H405 0.930 . S
C394 C390 1.524 . S
C394 H406 0.956 . S
C394 H407 0.961 . S
C394 H408 0.961 . S
C395 C392 1.539 . S
C395 H409 0.958 . S
C395 H410 0.961 . S
C395 H411 0.960 . S
H396 C380 0.931 . S
H397 C385 0.929 . S
H398 C386 0.960 . S
H399 C386 0.962 . S
H400 C386 0.960 . S
H401 C387 0.961 . S
H402 C387 0.961 . S
H403 C387 0.961 . S
H404 C388 0.931 . S
H405 C393 0.930 . S
H406 C394 0.956 . S
H407 C394 0.961 . S
H408 C394 0.961 . S
H409 C395 0.958 . S
H410 C395 0.961 . S
H411 C395 0.960 . S
C412 C413 1.391 . S
C412 C414 1.394 . S
C412 H428 0.931 . S
C413 C412 1.391 . S
C413 C417 1.376 . S
C414 C412 1.394 . S
C414 C415 1.369 . S
C414 C418 1.531 . S
C415 C414 1.369 . S
C415 C416 1.410 . S
C415 C423 1.503 . S
C416 C415 1.410 . S
C416 C417 1.392 . S
C416 C419 1.511 . S
C417 C413 1.376 . S
C417 C416 1.392 . S
C417 H429 0.929 . S
C418 C414 1.531 . S
C418 H430 0.960 . S
C418 H431 0.962 . S
C418 H432 0.960 . S
C419 C416 1.511 . S
C419 H433 0.961 . S
C419 H434 0.961 . S
C419 H435 0.961 . S
C420 C421 1.370 . S
C420 C422 1.363 . S
C420 H436 0.931 . S
C421 C420 1.370 . S
C421 C425 1.408 . S
C422 C420 1.363 . S
C422 C423 1.370 . S
C422 C426 1.524 . S
C423 C415 1.503 . S
C423 C422 1.370 . S
C423 C424 1.403 . S
C424 C423 1.403 . S
C424 C425 1.404 . S
C424 C427 1.538 . S
C425 C421 1.408 . S
C425 C424 1.404 . S
C425 H437 0.930 1_554 S
C426 C422 1.524 . S
C426 H438 0.956 . S
C426 H439 0.961 . S
C426 H440 0.961 . S
C427 C424 1.538 . S
C427 H441 0.960 1_554 S
C427 H442 0.962 1_554 S
C427 H443 0.958 . S
H428 C412 0.931 . S
H429 C417 0.929 . S
H430 C418 0.960 . S
H431 C418 0.962 . S
H432 C418 0.960 . S
H433 C419 0.961 . S
H434 C419 0.961 . S
H435 C419 0.961 . S
H436 C420 0.931 . S
H437 C425 0.930 1_556 S
H438 C426 0.956 . S
H439 C426 0.961 . S
H440 C426 0.961 . S
H441 C427 0.960 1_556 S
H442 C427 0.962 1_556 S
H443 C427 0.958 . S
C444 C445 1.391 . S
C444 C446 1.394 . S
C444 H460 0.931 . S
C445 C444 1.391 . S
C445 C449 1.376 . S
C446 C444 1.394 . S
C446 C447 1.369 . S
C446 C450 1.531 . S
C447 C446 1.369 . S
C447 C448 1.410 . S
C447 C455 1.503 . S
C448 C447 1.410 . S
C448 C449 1.392 . S
C448 C451 1.511 . S
C449 C445 1.376 . S
C449 C448 1.392 . S
C449 H461 0.929 . S
C450 C446 1.531 . S
C450 H462 0.960 . S
C450 H463 0.962 . S
C450 H464 0.960 . S
C451 C448 1.511 . S
C451 H465 0.961 . S
C451 H466 0.961 . S
C451 H467 0.961 . S
C452 C453 1.370 . S
C452 C454 1.363 . S
C452 H468 0.931 . S
C453 C452 1.370 . S
C453 C457 1.408 . S
C454 C452 1.363 . S
C454 C455 1.370 . S
C454 C458 1.524 . S
C455 C447 1.503 . S
C455 C454 1.370 . S
C455 C456 1.403 . S
C456 C455 1.403 . S
C456 C457 1.404 . S
C456 C459 1.539 . S
C457 C453 1.408 . S
C457 C456 1.404 . S
C457 H469 0.930 . S
C458 C454 1.524 . S
C458 H470 0.956 . S
C458 H471 0.961 . S
C458 H472 0.961 1_556 S
C459 C456 1.539 . S
C459 H473 0.958 . S
C459 H474 0.961 . S
C459 H475 0.960 . S
H460 C444 0.931 . S
H461 C449 0.929 . S
H462 C450 0.960 . S
H463 C450 0.962 . S
H464 C450 0.960 . S
H465 C451 0.961 . S
H466 C451 0.961 . S
H467 C451 0.961 . S
H468 C452 0.931 . S
H469 C457 0.930 . S
H470 C458 0.956 . S
H471 C458 0.961 . S
H472 C458 0.961 1_554 S
H473 C459 0.958 . S
H474 C459 0.961 . S
H475 C459 0.960 . S
C476 C477 1.391 . S
C476 C478 1.394 . S
C476 H492 0.931 . S
C477 C476 1.391 . S
C477 C481 1.376 . S
C478 C476 1.394 . S
C478 C479 1.369 . S
C478 C482 1.531 . S
C479 C478 1.369 . S
C479 C480 1.410 . S
C479 C487 1.503 . S
C480 C479 1.410 . S
C480 C481 1.392 . S
C480 C483 1.511 . S
C481 C477 1.376 . S
C481 C480 1.392 . S
C481 H493 0.929 . S
C482 C478 1.531 . S
C482 H494 0.960 . S
C482 H495 0.962 . S
C482 H496 0.960 . S
C483 C480 1.511 . S
C483 H497 0.961 1_655 S
C483 H498 0.961 . S
C483 H499 0.961 1_655 S
C484 C485 1.370 . S
C484 C486 1.363 . S
C484 H500 0.931 . S
C485 C484 1.370 . S
C485 C489 1.408 . S
C486 C484 1.363 . S
C486 C487 1.370 . S
C486 C490 1.524 . S
C487 C479 1.503 . S
C487 C486 1.370 . S
C487 C488 1.403 . S
C488 C487 1.403 . S
C488 C489 1.404 . S
C488 C491 1.539 . S
C489 C485 1.408 . S
C489 C488 1.404 . S
C489 H501 0.930 . S
C490 C486 1.524 . S
C490 H502 0.956 . S
C490 H503 0.961 . S
C490 H504 0.961 . S
C491 C488 1.539 . S
C491 H505 0.958 . S
C491 H506 0.961 . S
C491 H507 0.960 . S
H492 C476 0.931 . S
H493 C481 0.929 . S
H494 C482 0.960 . S
H495 C482 0.962 . S
H496 C482 0.960 . S
H497 C483 0.961 1_455 S
H498 C483 0.961 . S
H499 C483 0.961 1_455 S
H500 C484 0.931 . S
H501 C489 0.930 . S
H502 C490 0.956 . S
H503 C490 0.961 . S
H504 C490 0.961 . S
H505 C491 0.958 . S
H506 C491 0.961 . S
H507 C491 0.960 . S
C508 C509 1.391 . S
C508 C510 1.394 . S
C508 H524 0.931 . S
C509 C508 1.391 . S
C509 C513 1.376 . S
C510 C508 1.394 . S
C510 C511 1.369 . S
C510 C514 1.531 . S
C511 C510 1.369 . S
C511 C512 1.410 . S
C511 C519 1.503 . S
C512 C511 1.410 . S
C512 C513 1.392 . S
C512 C515 1.511 . S
C513 C509 1.376 . S
C513 C512 1.392 . S
C513 H525 0.929 . S
C514 C510 1.531 . S
C514 H526 0.960 . S
C514 H527 0.962 . S
C514 H528 0.960 . S
C515 C512 1.511 . S
C515 H529 0.961 . S
C515 H530 0.961 . S
C515 H531 0.961 . S
C516 C517 1.370 . S
C516 C518 1.363 . S
C516 H532 0.931 . S
C517 C516 1.370 . S
C517 C521 1.408 . S
C518 C516 1.363 . S
C518 C519 1.370 . S
C518 C522 1.524 . S
C519 C511 1.503 . S
C519 C518 1.370 . S
C519 C520 1.403 . S
C520 C519 1.403 . S
C520 C521 1.404 . S
C520 C523 1.539 . S
C521 C517 1.408 . S
C521 C520 1.404 . S
C521 H533 0.930 . S
C522 C518 1.524 . S
C522 H534 0.956 . S
C522 H535 0.961 . S
C522 H536 0.961 . S
C523 C520 1.539 . S
C523 H537 0.958 . S
C523 H538 0.961 . S
C523 H539 0.960 . S
H524 C508 0.931 . S
H525 C513 0.929 . S
H526 C514 0.960 . S
H527 C514 0.962 . S
H528 C514 0.960 . S
H529 C515 0.961 . S
H530 C515 0.961 . S
H531 C515 0.961 . S
H532 C516 0.931 . S
H533 C521 0.930 . S
H534 C522 0.956 . S
H535 C522 0.961 . S
H536 C522 0.961 . S
H537 C523 0.958 . S
H538 C523 0.961 . S
H539 C523 0.960 . S
C540 C541 1.391 . S
C540 C542 1.394 . S
C540 H556 0.931 . S
C541 C540 1.391 . S
C541 C545 1.376 . S
C542 C540 1.394 . S
C542 C543 1.369 . S
C542 C546 1.531 . S
C543 C542 1.369 . S
C543 C544 1.410 . S
C543 C551 1.503 . S
C544 C543 1.410 . S
C544 C545 1.392 . S
C544 C547 1.511 . S
C545 C541 1.376 . S
C545 C544 1.392 . S
C545 H557 0.929 . S
C546 C542 1.531 . S
C546 H558 0.960 . S
C546 H559 0.962 . S
C546 H560 0.960 . S
C547 C544 1.511 . S
C547 H561 0.961 . S
C547 H562 0.961 . S
C547 H563 0.961 1_565 S
C548 C549 1.370 . S
C548 C550 1.363 . S
C548 H564 0.931 . S
C549 C548 1.370 . S
C549 C553 1.408 . S
C550 C548 1.363 . S
C550 C551 1.370 . S
C550 C554 1.524 . S
C551 C543 1.503 . S
C551 C550 1.370 . S
C551 C552 1.403 . S
C552 C551 1.403 . S
C552 C553 1.404 . S
C552 C555 1.539 1_565 S
C553 C549 1.408 . S
C553 C552 1.404 . S
C553 H565 0.930 1_565 S
C554 C550 1.524 . S
C554 H566 0.956 . S
C554 H567 0.961 . S
C554 H568 0.961 1_655 S
C555 C552 1.539 1_545 S
C555 H569 0.958 1_545 S
C555 H570 0.961 . S
C555 H571 0.960 . S
H556 C540 0.931 . S
H557 C545 0.929 . S
H558 C546 0.960 . S
H559 C546 0.962 . S
H560 C546 0.960 . S
H561 C547 0.961 . S
H562 C547 0.961 . S
H563 C547 0.961 1_545 S
H564 C548 0.931 . S
H565 C553 0.930 1_545 S
H566 C554 0.956 . S
H567 C554 0.961 . S
H568 C554 0.961 1_455 S
H569 C555 0.958 1_565 S
H570 C555 0.961 . S
H571 C555 0.960 . S
C572 C573 1.391 . S
C572 C574 1.394 . S
C572 H588 0.931 . S
C573 C572 1.391 . S
C573 C577 1.376 . S
C574 C572 1.394 . S
C574 C575 1.369 . S
C574 C578 1.531 . S
C575 C574 1.369 . S
C575 C576 1.410 . S
C575 C583 1.503 . S
C576 C575 1.410 . S
C576 C577 1.392 . S
C576 C579 1.511 . S
C577 C573 1.376 . S
C577 C576 1.392 . S
C577 H589 0.929 . S
C578 C574 1.531 . S
C578 H590 0.960 . S
C578 H591 0.962 . S
C578 H592 0.960 . S
C579 C576 1.511 . S
C579 H593 0.961 . S
C579 H594 0.961 . S
C579 H595 0.961 . S
C580 C581 1.370 . S
C580 C582 1.363 . S
C580 H596 0.931 . S
C581 C580 1.370 . S
C581 C585 1.408 . S
C582 C580 1.363 . S
C582 C583 1.370 . S
C582 C586 1.524 . S
C583 C575 1.503 . S
C583 C582 1.370 . S
C583 C584 1.403 . S
C584 C583 1.403 . S
C584 C585 1.404 . S
C584 C587 1.539 . S
C585 C581 1.408 . S
C585 C584 1.404 . S
C585 H597 0.930 . S
C586 C582 1.524 . S
C586 H598 0.956 . S
C586 H599 0.961 . S
C586 H600 0.939 1_545 S
C587 C584 1.539 . S
C587 H601 0.958 . S
C587 H602 0.961 . S
C587 H603 0.960 . S
H588 C572 0.931 . S
H589 C577 0.929 . S
H590 C578 0.960 . S
H591 C578 0.962 . S
H592 C578 0.960 . S
H593 C579 0.961 . S
H594 C579 0.961 . S
H595 C579 0.961 . S
H596 C580 0.931 . S
H597 C585 0.930 . S
H598 C586 0.956 . S
H599 C586 0.961 . S
H600 C586 0.939 1_565 S
H601 C587 0.958 . S
H602 C587 0.961 . S
H603 C587 0.960 . S
C604 C605 1.391 . S
C604 C606 1.394 . S
C604 H620 0.931 . S
C605 C604 1.391 . S
C605 C609 1.376 . S
C606 C604 1.394 . S
C606 C607 1.369 . S
C606 C610 1.531 . S
C607 C606 1.369 . S
C607 C608 1.410 . S
C607 C615 1.503 . S
C608 C607 1.410 . S
C608 C609 1.392 . S
C608 C611 1.511 . S
C609 C605 1.376 . S
C609 C608 1.392 . S
C609 H621 0.929 . S
C610 C606 1.531 . S
C610 H622 0.960 . S
C610 H623 0.962 . S
C610 H624 0.960 . S
C611 C608 1.511 . S
C611 H625 0.961 . S
C611 H626 0.961 . S
C611 H627 0.961 . S
C612 C613 1.370 . S
C612 C614 1.363 . S
C612 H628 0.931 . S
C613 C612 1.370 . S
C613 C617 1.408 . S
C614 C612 1.363 . S
C614 C615 1.370 . S
C614 C618 1.524 . S
C615 C607 1.503 . S
C615 C614 1.370 . S
C615 C616 1.403 . S
C616 C615 1.403 . S
C616 C617 1.404 . S
C616 C619 1.539 . S
C617 C613 1.408 . S
C617 C616 1.404 . S
C617 H629 0.930 . S
C618 C614 1.524 . S
C618 H630 0.956 . S
C618 H631 0.961 . S
C618 H632 0.961 . S
C619 C616 1.539 . S
C619 H633 0.958 . S
C619 H634 0.961 . S
C619 H635 0.960 . S
H620 C604 0.931 . S
H621 C609 0.929 . S
H622 C610 0.960 . S
H623 C610 0.962 . S
H624 C610 0.960 . S
H625 C611 0.961 . S
H626 C611 0.961 . S
H627 C611 0.961 . S
H628 C612 0.931 . S
H629 C617 0.930 . S
H630 C618 0.956 . S
H631 C618 0.961 . S
H632 C618 0.961 . S
H633 C619 0.958 . S
H634 C619 0.961 . S
H635 C619 0.960 . S
C636 C637 1.391 . S
C636 C638 1.394 . S
C636 H652 0.931 . S
C637 C636 1.391 . S
C637 C641 1.376 . S
C638 C636 1.394 . S
C638 C639 1.369 . S
C638 C642 1.531 . S
C639 C638 1.369 . S
C639 C640 1.410 . S
C639 C647 1.503 . S
C640 C639 1.410 . S
C640 C641 1.392 . S
C640 C643 1.511 . S
C641 C637 1.376 . S
C641 C640 1.392 . S
C641 H653 0.929 . S
C642 C638 1.531 . S
C642 H654 0.960 . S
C642 H655 0.962 1_455 S
C642 H656 0.960 1_455 S
C643 C640 1.511 . S
C643 H657 0.961 . S
C643 H658 0.961 . S
C643 H659 0.961 . S
C644 C645 1.370 . S
C644 C646 1.363 . S
C644 H660 0.931 . S
C645 C644 1.370 . S
C645 C649 1.408 . S
C646 C644 1.363 . S
C646 C647 1.370 . S
C646 C650 1.524 . S
C647 C639 1.503 . S
C647 C646 1.370 . S
C647 C648 1.403 . S
C648 C647 1.403 . S
C648 C649 1.404 . S
C648 C651 1.539 . S
C649 C645 1.408 . S
C649 C648 1.404 . S
C649 H661 0.930 . S
C650 C646 1.524 . S
C650 H662 0.956 . S
C650 H663 0.961 . S
C650 H664 0.961 . S
C651 C648 1.539 . S
C651 H665 0.958 . S
C651 H666 0.961 . S
C651 H667 0.960 . S
H652 C636 0.931 . S
H653 C641 0.929 . S
H654 C642 0.960 . S
H655 C642 0.962 1_655 S
H656 C642 0.960 1_655 S
H657 C643 0.961 . S
H658 C643 0.961 . S
H659 C643 0.961 . S
H660 C644 0.931 . S
H661 C649 0.930 . S
H662 C650 0.956 . S
H663 C650 0.961 . S
H664 C650 0.961 . S
H665 C651 0.958 . S
H666 C651 0.961 . S
H667 C651 0.960 . S
C668 C669 1.391 . S
C668 C670 1.394 . S
C668 H684 0.931 . S
C669 C668 1.391 . S
C669 C673 1.376 . S
C670 C668 1.394 . S
C670 C671 1.369 . S
C670 C674 1.531 . S
C671 C670 1.369 . S
C671 C672 1.410 . S
C671 C679 1.503 . S
C672 C671 1.410 . S
C672 C673 1.392 . S
C672 C675 1.511 . S
C673 C669 1.376 . S
C673 C672 1.392 . S
C673 H685 0.929 . S
C674 C670 1.531 . S
C674 H686 0.960 . S
C674 H687 0.962 . S
C674 H688 0.960 . S
C675 C672 1.511 . S
C675 H689 0.961 1_565 S
C675 H690 0.961 . S
C675 H691 0.961 1_556 S
C676 C677 1.370 . S
C676 C678 1.363 . S
C676 H692 0.931 . S
C677 C676 1.370 . S
C677 C681 1.408 . S
C678 C676 1.363 . S
C678 C679 1.370 . S
C678 C682 1.524 . S
C679 C671 1.503 . S
C679 C678 1.370 . S
C679 C680 1.403 . S
C680 C679 1.403 . S
C680 C681 1.404 . S
C680 C683 1.539 1_556 S
C681 C677 1.408 . S
C681 C680 1.404 . S
C681 H693 0.930 1_556 S
C682 C678 1.524 . S
C682 H694 0.956 . S
C682 H695 0.961 . S
C682 H696 0.964 . S
C683 C680 1.539 1_554 S
C683 H697 0.958 . S
C683 H698 0.961 . S
C683 H699 0.960 . S
H684 C668 0.931 . S
H685 C673 0.929 . S
H686 C674 0.960 . S
H687 C674 0.962 . S
H688 C674 0.960 . S
H689 C675 0.961 1_545 S
H690 C675 0.961 . S
H691 C675 0.961 1_554 S
H692 C676 0.931 . S
H693 C681 0.930 1_554 S
H694 C682 0.956 . S
H695 C682 0.961 . S
H696 C682 0.964 . S
H697 C683 0.958 . S
H698 C683 0.961 . S
H699 C683 0.960 . S
C700 C701 1.391 . S
C700 C702 1.394 . S
C700 H716 0.931 . S
C701 C700 1.391 . S
C701 C705 1.376 . S
C702 C700 1.394 . S
C702 C703 1.369 . S
C702 C706 1.531 . S
C703 C702 1.369 . S
C703 C704 1.410 . S
C703 C711 1.503 . S
C704 C703 1.410 . S
C704 C705 1.392 . S
C704 C707 1.511 . S
C705 C701 1.376 . S
C705 C704 1.392 . S
C705 H717 0.929 . S
C706 C702 1.531 . S
C706 H718 0.960 . S
C706 H719 0.962 . S
C706 H720 0.960 . S
C707 C704 1.511 . S
C707 H721 0.961 . S
C707 H722 0.961 . S
C707 H723 0.961 . S
C708 C709 1.370 . S
C708 C710 1.363 . S
C708 H724 0.931 . S
C709 C708 1.370 . S
C709 C713 1.408 . S
C710 C708 1.363 . S
C710 C711 1.370 . S
C710 C714 1.524 . S
C711 C703 1.503 . S
C711 C710 1.370 . S
C711 C712 1.403 . S
C712 C711 1.403 . S
C712 C713 1.404 . S
C712 C715 1.539 . S
C713 C709 1.408 . S
C713 C712 1.404 . S
C713 H725 0.920 1_545 S
C714 C710 1.524 . S
C714 H726 0.956 . S
C714 H727 0.961 . S
C714 H728 0.961 . S
C715 C712 1.539 . S
C715 H729 0.958 1_545 S
C715 H730 0.961 1_545 S
C715 H731 0.960 . S
H716 C700 0.931 . S
H717 C705 0.929 . S
H718 C706 0.960 . S
H719 C706 0.962 . S
H720 C706 0.960 . S
H721 C707 0.961 . S
H722 C707 0.961 . S
H723 C707 0.961 . S
H724 C708 0.931 . S
H725 C713 0.920 1_565 S
H726 C714 0.956 . S
H727 C714 0.961 . S
H728 C714 0.961 . S
H729 C715 0.958 1_565 S
H730 C715 0.961 1_565 S
H731 C715 0.960 . S
C732 C733 1.391 . S
C732 C734 1.394 . S
C732 H748 0.931 . S
C733 C732 1.391 . S
C733 C737 1.376 . S
C734 C732 1.394 . S
C734 C735 1.369 . S
C734 C738 1.531 . S
C735 C734 1.369 . S
C735 C736 1.410 . S
C735 C743 1.503 . S
C736 C735 1.410 . S
C736 C737 1.392 . S
C736 C739 1.511 . S
C737 C733 1.376 . S
C737 C736 1.392 . S
C737 H749 0.929 . S
C738 C734 1.531 . S
C738 H750 0.960 . S
C738 H751 0.962 . S
C738 H752 0.960 . S
C739 C736 1.511 . S
C739 H753 0.961 . S
C739 H754 0.961 . S
C739 H755 0.961 . S
C740 C741 1.370 . S
C740 C742 1.363 . S
C740 H756 0.931 . S
C741 C740 1.370 . S
C741 C745 1.408 . S
C742 C740 1.363 . S
C742 C743 1.370 . S
C742 C746 1.524 . S
C743 C735 1.503 . S
C743 C742 1.370 . S
C743 C744 1.403 . S
C744 C743 1.403 . S
C744 C745 1.404 . S
C744 C747 1.539 . S
C745 C741 1.408 . S
C745 C744 1.404 . S
C745 H757 0.930 . S
C746 C742 1.524 . S
C746 H758 0.956 . S
C746 H759 0.961 . S
C746 H760 0.961 . S
C747 C744 1.539 . S
C747 H761 0.958 . S
C747 H762 0.961 . S
C747 H763 0.960 . S
H748 C732 0.931 . S
H749 C737 0.929 . S
H750 C738 0.960 . S
H751 C738 0.962 . S
H752 C738 0.960 . S
H753 C739 0.961 . S
H754 C739 0.961 . S
H755 C739 0.961 . S
H756 C740 0.931 . S
H757 C745 0.930 . S
H758 C746 0.956 . S
H759 C746 0.961 . S
H760 C746 0.961 . S
H761 C747 0.958 . S
H762 C747 0.961 . S
H763 C747 0.960 . S
C764 C765 1.391 . S
C764 C766 1.394 . S
C764 H780 0.931 . S
C765 C764 1.391 . S
C765 C769 1.376 . S
C766 C764 1.394 . S
C766 C767 1.369 . S
C766 C770 1.531 . S
C767 C766 1.369 . S
C767 C768 1.410 . S
C767 C775 1.503 . S
C768 C767 1.410 . S
C768 C769 1.392 . S
C768 C771 1.511 . S
C769 C765 1.376 . S
C769 C768 1.392 . S
C769 H781 0.929 . S
C770 C766 1.531 . S
C770 H782 0.960 . S
C770 H783 0.962 . S
C770 H784 0.960 . S
C771 C768 1.511 . S
C771 H785 0.961 . S
C771 H786 0.961 . S
C771 H787 0.961 . S
C772 C773 1.370 . S
C772 C774 1.363 . S
C772 H788 0.931 . S
C773 C772 1.370 . S
C773 C777 1.408 . S
C774 C772 1.363 . S
C774 C775 1.370 . S
C774 C778 1.524 . S
C775 C767 1.503 . S
C775 C774 1.370 . S
C775 C776 1.403 . S
C776 C775 1.403 . S
C776 C777 1.404 . S
C776 C779 1.539 . S
C777 C773 1.408 . S
C777 C776 1.404 . S
C777 H789 0.930 . S
C778 C774 1.524 . S
C778 H790 0.956 . S
C778 H791 0.961 . S
C778 H792 0.961 . S
C779 C776 1.539 . S
C779 H793 0.958 . S
C779 H794 0.961 . S
C779 H795 0.960 . S
H780 C764 0.931 . S
H781 C769 0.929 . S
H782 C770 0.960 . S
H783 C770 0.962 . S
H784 C770 0.960 . S
H785 C771 0.961 . S
H786 C771 0.961 . S
H787 C771 0.961 . S
H788 C772 0.931 . S
H789 C777 0.930 . S
H790 C778 0.956 . S
H791 C778 0.961 . S
H792 C778 0.961 . S
H793 C779 0.958 . S
H794 C779 0.961 . S
H795 C779 0.960 . S
C796 C797 1.391 . S
C796 C798 1.394 . S
C796 H812 0.931 . S
C797 C796 1.391 . S
C797 C801 1.376 . S
C798 C796 1.394 . S
C798 C799 1.369 . S
C798 C802 1.531 . S
C799 C798 1.369 . S
C799 C800 1.410 . S
C799 C807 1.503 . S
C800 C799 1.410 . S
C800 C801 1.392 . S
C800 C803 1.511 . S
C801 C797 1.376 . S
C801 C800 1.392 . S
C801 H813 0.929 . S
C802 C798 1.531 . S
C802 H814 0.960 . S
C802 H815 0.962 . S
C802 H816 0.960 . S
C803 C800 1.511 . S
C803 H817 0.961 . S
C803 H818 0.961 . S
C803 H819 0.961 . S
C804 C805 1.370 . S
C804 C806 1.363 . S
C804 H820 0.931 1_556 S
C805 C804 1.370 . S
C805 C809 1.408 . S
C806 C804 1.363 . S
C806 C807 1.370 . S
C806 C810 1.524 . S
C807 C799 1.503 . S
C807 C806 1.370 . S
C807 C808 1.403 . S
C808 C807 1.403 . S
C808 C809 1.404 . S
C808 C811 1.539 . S
C809 C805 1.408 . S
C809 C808 1.404 . S
C809 H821 0.930 . S
C810 C806 1.524 . S
C810 H822 0.956 1_556 S
C810 H823 0.961 . S
C810 H824 0.961 1_556 S
C811 C808 1.539 . S
C811 H825 0.958 . S
C811 H826 0.961 . S
C811 H827 0.960 . S
H812 C796 0.931 . S
H813 C801 0.929 . S
H814 C802 0.960 . S
H815 C802 0.962 . S
H816 C802 0.960 . S
H817 C803 0.961 . S
H818 C803 0.961 . S
H819 C803 0.961 . S
H820 C804 0.931 1_554 S
H821 C809 0.930 . S
H822 C810 0.956 1_554 S
H823 C810 0.961 . S
H824 C810 0.961 1_554 S
H825 C811 0.958 . S
H826 C811 0.961 . S
H827 C811 0.960 . S
C828 C829 1.391 . S
C828 C830 1.394 . S
C828 H844 0.931 . S
C829 C828 1.391 . S
C829 C833 1.376 . S
C830 C828 1.394 . S
C830 C831 1.369 . S
C830 C834 1.531 . S
C831 C830 1.369 . S
C831 C832 1.410 . S
C831 C839 1.503 . S
C832 C831 1.410 . S
C832 C833 1.392 . S
C832 C835 1.511 . S
C833 C829 1.376 . S
C833 C832 1.392 . S
C833 H845 0.929 . S
C834 C830 1.531 . S
C834 H846 0.960 . S
C834 H847 0.962 . S
C834 H848 0.960 . S
C835 C832 1.511 . S
C835 H849 0.961 . S
C835 H850 0.961 . S
C835 H851 0.961 . S
C836 C837 1.370 . S
C836 C838 1.363 . S
C836 H852 0.931 . S
C837 C836 1.370 . S
C837 C841 1.408 . S
C838 C836 1.363 . S
C838 C839 1.370 . S
C838 C842 1.524 . S
C839 C831 1.503 . S
C839 C838 1.370 . S
C839 C840 1.403 . S
C840 C839 1.403 . S
C840 C841 1.404 . S
C840 C843 1.539 . S
C841 C837 1.408 . S
C841 C840 1.404 . S
C841 H853 0.930 . S
C842 C838 1.524 . S
C842 H854 0.956 . S
C842 H855 0.961 . S
C842 H856 0.961 1_554 S
C843 C840 1.539 . S
C843 H857 0.958 . S
C843 H858 0.961 . S
C843 H859 0.960 . S
H844 C828 0.931 . S
H845 C833 0.929 . S
H846 C834 0.960 . S
H847 C834 0.962 . S
H848 C834 0.960 . S
H849 C835 0.961 . S
H850 C835 0.961 . S
H851 C835 0.961 . S
H852 C836 0.931 . S
H853 C841 0.930 . S
H854 C842 0.956 . S
H855 C842 0.961 . S
H856 C842 0.961 1_556 S
H857 C843 0.958 . S
H858 C843 0.961 . S
H859 C843 0.960 . S
C860 C861 1.391 . S
C860 C862 1.394 . S
C860 H876 0.931 . S
C861 C860 1.391 . S
C861 C865 1.376 . S
C862 C860 1.394 . S
C862 C863 1.369 . S
C862 C866 1.531 . S
C863 C862 1.369 . S
C863 C864 1.410 . S
C863 C871 1.503 . S
C864 C863 1.410 . S
C864 C865 1.392 . S
C864 C867 1.511 . S
C865 C861 1.376 . S
C865 C864 1.392 . S
C865 H877 0.929 . S
C866 C862 1.531 . S
C866 H878 0.960 . S
C866 H879 0.962 . S
C866 H880 0.960 . S
C867 C864 1.511 . S
C867 H881 0.961 . S
C867 H882 0.961 . S
C867 H883 0.961 1_455 S
C868 C869 1.370 . S
C868 C870 1.363 . S
C868 H884 0.931 . S
C869 C868 1.370 . S
C869 C873 1.408 . S
C870 C868 1.363 . S
C870 C871 1.370 . S
C870 C874 1.524 . S
C871 C863 1.503 . S
C871 C870 1.370 . S
C871 C872 1.403 . S
C872 C871 1.403 . S
C872 C873 1.404 . S
C872 C875 1.539 1_455 S
C873 C869 1.408 . S
C873 C872 1.404 . S
C873 H885 0.930 1_455 S
C874 C870 1.524 . S
C874 H886 0.956 . S
C874 H887 0.961 . S
C874 H888 0.961 . S
C875 C872 1.539 1_655 S
C875 H889 0.958 1_655 S
C875 H890 0.961 . S
C875 H891 0.960 . S
H876 C860 0.931 . S
H877 C865 0.929 . S
H878 C866 0.960 . S
H879 C866 0.962 . S
H880 C866 0.960 . S
H881 C867 0.961 . S
H882 C867 0.961 . S
H883 C867 0.961 1_655 S
H884 C868 0.931 . S
H885 C873 0.930 1_655 S
H886 C874 0.956 . S
H887 C874 0.961 . S
H888 C874 0.961 . S
H889 C875 0.958 1_455 S
H890 C875 0.961 . S
H891 C875 0.960 . S
C892 C893 1.391 . S
C892 C894 1.394 . S
C892 H908 0.931 . S
C893 C892 1.391 . S
C893 C897 1.376 . S
C894 C892 1.394 . S
C894 C895 1.369 . S
C894 C898 1.531 . S
C895 C894 1.369 . S
C895 C896 1.410 . S
C895 C903 1.503 . S
C896 C895 1.410 . S
C896 C897 1.392 . S
C896 C899 1.511 . S
C897 C893 1.376 . S
C897 C896 1.392 . S
C897 H909 0.929 . S
C898 C894 1.531 . S
C898 H910 0.960 . S
C898 H911 0.962 . S
C898 H912 0.960 . S
C899 C896 1.511 . S
C899 H913 0.961 . S
C899 H914 0.961 . S
C899 H915 0.961 . S
C900 C901 1.370 . S
C900 C902 1.363 . S
C900 H916 0.931 . S
C901 C900 1.370 . S
C901 C905 1.408 . S
C902 C900 1.363 . S
C902 C903 1.370 . S
C902 C906 1.524 . S
C903 C895 1.503 . S
C903 C902 1.370 . S
C903 C904 1.403 . S
C904 C903 1.403 . S
C904 C905 1.404 . S
C904 C907 1.539 . S
C905 C901 1.408 . S
C905 C904 1.404 . S
C905 H917 0.930 . S
C906 C902 1.524 . S
C906 H918 0.956 . S
C906 H919 0.961 . S
C906 H920 0.961 . S
C907 C904 1.539 . S
C907 H921 0.958 . S
C907 H922 0.961 . S
C907 H923 0.960 . S
H908 C892 0.931 . S
H909 C897 0.929 . S
H910 C898 0.960 . S
H911 C898 0.962 . S
H912 C898 0.960 . S
H913 C899 0.961 . S
H914 C899 0.961 . S
H915 C899 0.961 . S
H916 C900 0.931 . S
H917 C905 0.930 . S
H918 C906 0.956 . S
H919 C906 0.961 . S
H920 C906 0.961 . S
H921 C907 0.958 . S
H922 C907 0.961 . S
H923 C907 0.960 . S
C157 C5 1.576 . S
C165 C88 1.524 . S
C189 C14 1.472 . S
C197 C110 1.412 . S
C229 C129 1.249 . S
C221 C25 1.436 . S
C253 C34 1.703 . S
C261 C150 1.417 . S
C293 C107 1.656 . S
C285 C7 1.719 . S
C325 C85 1.575 . S
C317 C13 1.637 . S
C357 C152 1.304 . S
C349 C23 1.369 . S
C389 C131 1.359 . S
C381 C31 1.419 . S
C413 C4 1.677 . S
C421 C149 1.621 . S
C453 C108 1.327 . S
C445 C22 1.557 . S
C477 C32 1.601 . S
C485 C90 1.418 . S
C509 C16 1.475 . S
C517 C128 1.440 . S
C549 C86 1.511 . S
C541 C41 1.575 . S
C573 C50 1.330 . S
C581 C106 1.285 . S
C605 C61 1.486 . S
C613 C132 1.290 . S
C637 C67 1.612 . S
C645 C153 1.363 . S
C669 C40 1.668 . S
C677 C109 1.625 . S
C709 C89 1.608 . S
C701 C52 1.687 . S
C741 C148 1.231 . S
C733 C59 1.305 . S
C773 C127 1.451 . S
C765 C70 1.507 . S
C797 C43 1.502 . S
C805 C151 1.458 . S
C837 C111 1.292 . S
C829 C58 1.491 . S
C869 C87 1.265 . S
C861 C68 1.448 . S
C893 C49 1.409 . S
C901 C130 1.382 . S
