# Generated by pormake.
# Topology nom, (4,4)-cn, num edge types: 1
# Building blocks:
#     Node 0, Type 0, BuildingBlock: NAWXER_clean_linker_0, # of connection points: 4
#     Node 1, Type 0, BuildingBlock: NAWXER_clean_linker_0, # of connection points: 4
#     Node 2, Type 0, BuildingBlock: NAWXER_clean_linker_0, # of connection points: 4
#     Node 3, Type 0, BuildingBlock: NAWXER_clean_linker_0, # of connection points: 4
#     Node 4, Type 0, BuildingBlock: NAWXER_clean_linker_0, # of connection points: 4
#     Node 5, Type 0, BuildingBlock: NAWXER_clean_linker_0, # of connection points: 4
#     Node 6, Type 1, BuildingBlock: GALJAG_clean_sbu_0, # of connection points: 4
#     Node 7, Type 1, BuildingBlock: GALJAG_clean_sbu_0, # of connection points: 4
#     Node 8, Type 1, BuildingBlock: GALJAG_clean_sbu_0, # of connection points: 4
#     Node 9, Type 1, BuildingBlock: GALJAG_clean_sbu_0, # of connection points: 4
#     Node 10, Type 1, BuildingBlock: GALJAG_clean_sbu_0, # of connection points: 4
#     Node 11, Type 1, BuildingBlock: GALJAG_clean_sbu_0, # of connection points: 4
#     Edge 12, Type (0, 1), BuildingBlock: XIVTED_clean_linker_0, # of connection points: 2
#     Edge 13, Type (0, 1), BuildingBlock: XIVTED_clean_linker_0, # of connection points: 2
#     Edge 14, Type (0, 1), BuildingBlock: XIVTED_clean_linker_0, # of connection points: 2
#     Edge 15, Type (0, 1), BuildingBlock: XIVTED_clean_linker_0, # of connection points: 2
#     Edge 16, Type (0, 1), BuildingBlock: XIVTED_clean_linker_0, # of connection points: 2
#     Edge 17, Type (0, 1), BuildingBlock: XIVTED_clean_linker_0, # of connection points: 2
#     Edge 18, Type (0, 1), BuildingBlock: XIVTED_clean_linker_0, # of connection points: 2
#     Edge 19, Type (0, 1), BuildingBlock: XIVTED_clean_linker_0, # of connection points: 2
#     Edge 20, Type (0, 1), BuildingBlock: XIVTED_clean_linker_0, # of connection points: 2
#     Edge 21, Type (0, 1), BuildingBlock: XIVTED_clean_linker_0, # of connection points: 2
#     Edge 22, Type (0, 1), BuildingBlock: XIVTED_clean_linker_0, # of connection points: 2
#     Edge 23, Type (0, 1), BuildingBlock: XIVTED_clean_linker_0, # of connection points: 2
#     Edge 24, Type (0, 1), BuildingBlock: XIVTED_clean_linker_0, # of connection points: 2
#     Edge 25, Type (0, 1), BuildingBlock: XIVTED_clean_linker_0, # of connection points: 2
#     Edge 26, Type (0, 1), BuildingBlock: XIVTED_clean_linker_0, # of connection points: 2
#     Edge 27, Type (0, 1), BuildingBlock: XIVTED_clean_linker_0, # of connection points: 2
#     Edge 28, Type (0, 1), BuildingBlock: XIVTED_clean_linker_0, # of connection points: 2
#     Edge 29, Type (0, 1), BuildingBlock: XIVTED_clean_linker_0, # of connection points: 2
#     Edge 30, Type (0, 1), BuildingBlock: XIVTED_clean_linker_0, # of connection points: 2
#     Edge 31, Type (0, 1), BuildingBlock: XIVTED_clean_linker_0, # of connection points: 2
#     Edge 32, Type (0, 1), BuildingBlock: XIVTED_clean_linker_0, # of connection points: 2
#     Edge 33, Type (0, 1), BuildingBlock: XIVTED_clean_linker_0, # of connection points: 2
#     Edge 34, Type (0, 1), BuildingBlock: XIVTED_clean_linker_0, # of connection points: 2
#     Edge 35, Type (0, 1), BuildingBlock: XIVTED_clean_linker_0, # of connection points: 2
# Relax obj value: 0.004
# Max RMSD: 0.115
# Mean RMSD: 0.086
data_MOF--net-nom--node1-GALJAG_clean_sbu_0--node2-NAWXER_clean_linker_0--edge1-XIVTED_clean_linker_0
_symmetry_space_group_name_H-M    P1
_symmetry_Int_Tables_number       1
_symmetry_cell_setting            triclinic
loop_
_symmetry_equiv_pos_as_xyz
'x, y, z'
_cell_length_a     52.664867
_cell_length_b     52.555136
_cell_length_c     60.052664
_cell_angle_alpha  89.976497
_cell_angle_beta   90.062856
_cell_angle_gamma 120.11344
loop_
_atom_site_label
_atom_site_type_symbol
_atom_site_fract_x
_atom_site_fract_y
_atom_site_fract_z
_atom_type_partial_charge
C0 C 0.90012 0.51136 0.33304 0.0
C1 C 0.88852 0.49039 0.35017 0.0
C2 C 0.92943 0.52358 0.32672 0.0
C3 C 0.94758 0.51451 0.33698 0.0
C4 C 0.9068 0.48181 0.36084 0.0
C5 C 0.93607 0.49377 0.35429 0.0
C6 C 0.979 0.52812 0.33084 0.0
C7 C 0.93038 0.48161 0.26896 0.0
C8 C 0.93493 0.49959 0.25031 0.0
C9 C 0.94776 0.49302 0.28799 0.0
C10 C 0.96974 0.52281 0.28895 0.0
C11 C 0.95715 0.52934 0.25124 0.0
C12 C 0.97443 0.54077 0.27033 0.0
C13 C 0.98921 0.53477 0.30865 0.0
C14 C 0.11988 0.58836 0.31498 0.0
C15 C 0.1288 0.61396 0.30223 0.0
C16 C 0.09064 0.57112 0.32175 0.0
C17 C 0.06987 0.57926 0.31596 0.0
C18 C 0.10785 0.62202 0.29661 0.0
C19 C 0.07868 0.60472 0.30325 0.0
C20 C 0.03859 0.56076 0.32187 0.0
C21 C 0.08714 0.59444 0.38728 0.0
C22 C 0.08413 0.57152 0.40117 0.0
C23 C 0.06935 0.58829 0.36843 0.0
C24 C 0.04826 0.55913 0.36321 0.0
C25 C 0.06293 0.54241 0.39588 0.0
C26 C 0.04503 0.53632 0.37719 0.0
C27 C 0.0285 0.55201 0.34385 0.0
H28 H 0.88668 0.51883 0.32488 0.0
H29 H 0.93798 0.54051 0.31403 0.0
H30 H 0.89837 0.46566 0.3741 0.0
H31 H 0.94971 0.48673 0.3627 0.0
H32 H 0.91335 0.45867 0.2689 0.0
H33 H 0.94424 0.4784 0.30183 0.0
H34 H 0.96162 0.54369 0.23705 0.0
H35 H 0.99154 0.56369 0.27053 0.0
H36 H 0.13531 0.58124 0.31931 0.0
H37 H 0.08416 0.55116 0.33111 0.0
H38 H 0.11398 0.64183 0.28716 0.0
H39 H 0.06294 0.61132 0.29855 0.0
H40 H 0.10334 0.61708 0.39093 0.0
H41 H 0.07182 0.60629 0.3581 0.0
H42 H 0.05979 0.52434 0.40645 0.0
H43 H 0.02868 0.5137 0.37357 0.0
N44 N -0.00091 0.53635 0.34752 0.0
N45 N 0.01857 0.55148 0.3051 0.0
C46 C 0.40136 0.90508 0.50052 0.0
C47 C 0.41147 0.89375 0.51733 0.0
C48 C 0.41838 0.93427 0.49366 0.0
C49 C 0.44623 0.95257 0.50306 0.0
C50 C 0.43902 0.91217 0.52708 0.0
C51 C 0.45624 0.94132 0.52 0.0
C52 C 0.46387 0.98395 0.49652 0.0
C53 C 0.4588 0.93486 0.43418 0.0
C54 C 0.44509 0.93957 0.4158 0.0
C55 C 0.46522 0.95212 0.45331 0.0
C56 C 0.45757 0.97413 0.45469 0.0
C57 C 0.43753 0.96168 0.4172 0.0
C58 C 0.44381 0.97883 0.43641 0.0
C59 C 0.46606 0.99385 0.47431 0.0
C60 C 0.54274 0.12522 0.47962 0.0
C61 C 0.52546 0.13355 0.46711 0.0
C62 C 0.53129 0.09607 0.48655 0.0
C63 C 0.50231 0.07478 0.4812 0.0
C64 C 0.4964 0.11212 0.46192 0.0
C65 C 0.48505 0.08303 0.46877 0.0
C66 C 0.49016 0.04351 0.48714 0.0
C67 C 0.50483 0.08936 0.5543 0.0
C68 C 0.52867 0.09015 0.56566 0.0
C69 C 0.49268 0.07153 0.53552 0.0
C70 C 0.50387 0.05389 0.52794 0.0
C71 C 0.54007 0.07274 0.55759 0.0
C72 C 0.52752 0.05453 0.53911 0.0
C73 C 0.49032 0.03373 0.50897 0.0
H74 H 0.37994 0.89155 0.49306 0.0
H75 H 0.40945 0.94263 0.4813 0.0
H76 H 0.44734 0.90396 0.54004 0.0
H77 H 0.47742 0.95508 0.52774 0.0
H78 H 0.46471 0.91788 0.43378 0.0
H79 H 0.4767 0.94859 0.46685 0.0
H80 H 0.4274 0.96626 0.40324 0.0
H81 H 0.43809 -0.00404 0.43692 0.0
H82 H 0.56536 0.14104 0.48358 0.0
H83 H 0.54532 0.09006 0.49557 0.0
H84 H 0.48232 0.11782 0.45263 0.0
H85 H 0.46266 0.0669 0.46438 0.0
H86 H 0.49502 0.10193 0.56016 0.0
H87 H 0.47415 0.071 0.52721 0.0
H88 H 0.55878 0.07317 0.56546 0.0
H89 H 0.53645 0.04105 0.53341 0.0
N90 N 0.47679 0.00434 0.51292 0.0
N91 N 0.47843 0.02321 0.4706 0.0
C92 C 0.53954 0.4625 0.59947 0.0
C93 C 0.52104 0.4496 0.58097 0.0
C94 C 0.52899 0.46873 0.61883 0.0
C95 C 0.49955 0.46172 0.62029 0.0
C96 C 0.49154 0.44248 0.58251 0.0
C97 C 0.48096 0.44856 0.60193 0.0
C98 C 0.48873 0.47058 0.6399 0.0
C99 C 0.51027 0.40456 0.66844 0.0
C100 C 0.5334 0.41604 0.68394 0.0
C101 C 0.49862 0.42168 0.6608 0.0
C102 C 0.50989 0.4506 0.66852 0.0
C103 C 0.5449 0.44511 0.69144 0.0
C104 C 0.53304 0.46213 0.68396 0.0
C105 C 0.49592 0.46787 0.66209 0.0
C106 C 0.42933 0.51128 0.7172 0.0
C107 C 0.45138 0.52756 0.73293 0.0
C108 C 0.43561 0.49982 0.69832 0.0
C109 C 0.46431 0.50541 0.69449 0.0
C110 C 0.47979 0.53241 0.72941 0.0
C111 C 0.4862 0.5215 0.71036 0.0
C112 C 0.47182 0.49337 0.67488 0.0
C113 C 0.43327 0.54687 0.64724 0.0
C114 C 0.40932 0.5309 0.63278 0.0
C115 C 0.45116 0.5355 0.65371 0.0
C116 C 0.44498 0.50762 0.64631 0.0
C117 C 0.40393 0.50345 0.62485 0.0
C118 C 0.42151 0.49197 0.63156 0.0
C119 C 0.46332 0.49477 0.65275 0.0
H120 H 0.56231 0.46804 0.59896 0.0
H121 H 0.54414 0.47979 0.6324 0.0
H122 H 0.47677 0.43297 0.56849 0.0
H123 H 0.45828 0.44332 0.60249 0.0
H124 H 0.5011 0.38227 0.6623 0.0
H125 H 0.4803 0.41205 0.64929 0.0
H126 H 0.56252 0.45439 0.70356 0.0
H127 H 0.5418 0.48426 0.69033 0.0
H128 H 0.40714 0.5069 0.71977 0.0
H129 H 0.41801 0.48645 0.68686 0.0
H130 H 0.49716 0.54495 0.74128 0.0
H131 H 0.5084 0.5258 0.70797 0.0
H132 H 0.43807 0.56802 0.65377 0.0
H133 H 0.46974 0.54849 0.66451 0.0
H134 H 0.38628 0.49084 0.61322 0.0
H135 H 0.41663 0.47066 0.62527 0.0
N136 N 0.47231 0.48348 0.6362 0.0
N137 N 0.48764 0.4798 0.6786 0.0
C138 C 0.90167 0.402 0.81786 0.0
C139 C 0.88982 0.41136 0.80092 0.0
C140 C 0.93092 0.4195 0.82434 0.0
C141 C 0.94879 0.44704 0.81433 0.0
C142 C 0.90783 0.43865 0.7906 0.0
C143 C 0.93707 0.45629 0.79723 0.0
C144 C 0.98018 0.4652 0.8205 0.0
C145 C 0.93196 0.46317 0.88256 0.0
C146 C 0.93794 0.45174 0.90177 0.0
C147 C 0.94859 0.46828 0.86325 0.0
C148 C 0.97115 0.46139 0.86249 0.0
C149 C 0.96059 0.44495 0.90098 0.0
C150 C 0.97701 0.44976 0.88157 0.0
C151 C 0.99045 0.46886 0.8427 0.0
C152 C 0.12127 0.54652 0.83579 0.0
C153 C 0.13023 0.52983 0.84846 0.0
C154 C 0.09193 0.53456 0.82938 0.0
C155 C 0.0711 0.50566 0.83538 0.0
C156 C 0.10918 0.50094 0.85448 0.0
C157 C 0.0799 0.48908 0.84813 0.0
C158 C 0.0398 0.49272 0.82946 0.0
C159 C 0.08884 0.5088 0.76442 0.0
C160 C 0.08558 0.52847 0.75043 0.0
C161 C 0.07084 0.4967 0.78309 0.0
C162 C 0.04935 0.50416 0.78812 0.0
C163 C 0.06389 0.53567 0.75548 0.0
C164 C 0.04584 0.52347 0.77405 0.0
C165 C 0.02965 0.49131 0.80748 0.0
H166 H 0.88849 0.3808 0.82578 0.0
H167 H 0.93966 0.41122 0.83692 0.0
H168 H 0.89925 0.44647 0.77755 0.0
H169 H 0.9505 0.47725 0.78905 0.0
H170 H 0.91452 0.46839 0.88243 0.0
H171 H 0.94418 0.47825 0.8491 0.0
H172 H 0.96622 0.43662 0.91553 0.0
H173 H -0.00541 0.4447 0.88156 0.0
H174 H 0.13682 0.569 0.8312 0.0
H175 H 0.08546 0.54801 0.82001 0.0
H176 H 0.11535 0.48732 0.86393 0.0
H177 H 0.06411 0.46677 0.85302 0.0
H178 H 0.10542 0.50289 0.76099 0.0
H179 H 0.07354 0.48135 0.79347 0.0
H180 H 0.0605 0.55035 0.74484 0.0
H181 H 0.02918 0.52927 0.77751 0.0
N182 N 0.00021 0.47726 0.80383 0.0
N183 N 0.01984 0.4818 0.84622 0.0
C184 C 0.50711 0.90439 0.98614 0.0
C185 C 0.48688 0.89385 0.96849 0.0
C186 C 0.52016 0.93376 0.99276 0.0
C187 C 0.51263 0.95302 0.9823 0.0
C188 C 0.47953 0.91309 0.95784 0.0
C189 C 0.49225 0.94238 0.96472 0.0
C190 C 0.52785 0.98473 0.98813 0.0
C191 C 0.4808 0.94034 0.05095 0.0
C192 C 0.49905 0.94199 0.06869 0.0
C193 C 0.49269 0.95731 0.03182 0.0
C194 C 0.52309 0.97634 0.02998 0.0
C195 C 0.52955 0.96113 0.06676 0.0
C196 C 0.5414 0.97834 0.04767 0.0
C197 C 0.53547 0.99539 0.01018 0.0
C198 C 0.58586 0.1221 0.01375 0.0
C199 C 0.61658 0.13507 0.01387 0.0
C200 C 0.56812 0.09267 0.00752 0.0
C201 C 0.58089 0.07582 0.00155 0.0
C202 C 0.62925 0.11812 0.00768 0.0
C203 C 0.61149 0.08859 0.00181 0.0
C204 C 0.5623 0.0444 0.99637 0.0
C205 C 0.59192 0.08963 0.92877 0.0
C206 C 0.56813 0.0884 0.91712 0.0
C207 C 0.58712 0.07241 0.94778 0.0
C208 C 0.55847 0.05377 0.95547 0.0
C209 C 0.5395 0.0698 0.92499 0.0
C210 C 0.53473 0.0525 0.9439 0.0
C211 C 0.55265 0.03404 0.97464 0.0
H212 H 0.51359 0.89015 0.99432 0.0
H213 H 0.53679 0.94152 0.00564 0.0
H214 H 0.46395 0.90546 0.9442 0.0
H215 H 0.48631 0.9568 0.95616 0.0
H216 H 0.45719 0.92643 0.05201 0.0
H217 H 0.47803 0.95601 0.01863 0.0
H218 H 0.54434 0.96272 0.07992 0.0
H219 H 0.5649 0.99304 0.04663 0.0
H220 H 0.57561 0.13478 0.01837 0.0
H221 H 0.54447 0.08295 0.00758 0.0
H222 H 0.65286 0.12753 0.00788 0.0
H223 H 0.62161 0.07566 -0.00243 0.0
H224 H 0.61423 0.10382 0.92313 0.0
H225 H 0.6057 0.07313 0.95611 0.0
H226 H 0.5207 0.06803 0.9162 0.0
H227 H 0.51242 0.03796 0.94944 0.0
N228 N 0.53609 0.00458 0.97127 0.0
N229 N 0.55292 0.02481 0.01344 0.0
C230 C 0.51292 0.62714 0.16494 0.0
C231 C 0.49232 0.61746 0.18232 0.0
C232 C 0.52486 0.61004 0.15793 0.0
C233 C 0.5159 0.58254 0.16777 0.0
C234 C 0.48374 0.59022 0.19245 0.0
C235 C 0.49544 0.57294 0.18524 0.0
C236 C 0.52947 0.56485 0.16119 0.0
C237 C 0.4831 0.56789 0.09932 0.0
C238 C 0.50092 0.58072 0.0805 0.0
C239 C 0.49446 0.56205 0.11844 0.0
C240 C 0.52404 0.5694 0.11933 0.0
C241 C 0.53051 0.588 0.08143 0.0
C242 C 0.54189 0.58231 0.10061 0.0
C243 C 0.53583 0.56144 0.13889 0.0
C244 C 0.59179 0.48556 0.14573 0.0
C245 C 0.61501 0.50111 0.13063 0.0
C246 C 0.57429 0.49715 0.15267 0.0
C247 C 0.58009 0.52483 0.14505 0.0
C248 C 0.62022 0.52849 0.12267 0.0
C249 C 0.60299 0.54018 0.12982 0.0
C250 C 0.56167 0.53758 0.15154 0.0
C251 C 0.59614 0.52295 0.21688 0.0
C252 C 0.57337 0.50305 0.23088 0.0
C253 C 0.58987 0.53461 0.19808 0.0
C254 C 0.56074 0.52649 0.19299 0.0
C255 C 0.5443 0.49519 0.22575 0.0
C256 C 0.5381 0.50696 0.20708 0.0
C257 C 0.55341 0.53904 0.17368 0.0
H258 H 0.52037 0.64831 0.15714 0.0
H259 H 0.54154 0.61865 0.1451 0.0
H260 H 0.46782 0.58219 0.20583 0.0
H261 H 0.48847 0.55202 0.19332 0.0
H262 H 0.46029 0.56222 0.09929 0.0
H263 H 0.47989 0.55122 0.13234 0.0
H264 H 0.54475 0.59743 0.06714 0.0
H265 H 0.56466 0.58778 0.10074 0.0
H266 H 0.58718 0.46448 0.1523 0.0
H267 H 0.5561 0.4843 0.16379 0.0
H268 H 0.63735 0.5408 0.11062 0.0
H269 H 0.6076 0.56134 0.12338 0.0
H270 H 0.61875 0.52936 0.22039 0.0
H271 H 0.60775 0.55011 0.18765 0.0
H272 H 0.52634 0.48034 0.2364 0.0
H273 H 0.51551 0.50069 0.20359 0.0
N274 N 0.53792 0.55288 0.17762 0.0
N275 N 0.55223 0.54855 0.13504 0.0
In276 In 0.62373 0.39868 0.4059 0.0
O277 O 0.67291 0.42477 0.41348 0.0
O278 O 0.65898 0.39934 0.38377 0.0
C279 C 0.60209 0.41494 0.4403 0.0
C280 C 0.60899 0.41985 0.37024 0.0
C281 C 0.60498 0.34233 0.41722 0.0
O282 O 0.6292 0.42755 0.43605 0.0
O283 O 0.58598 0.39473 0.42691 0.0
O284 O 0.59502 0.34904 0.40047 0.0
O285 O 0.62442 0.36395 0.42798 0.0
C286 C 0.68014 0.41655 0.39604 0.0
O287 O 0.59766 0.39263 0.37394 0.0
O288 O 0.62717 0.43626 0.38476 0.0
In289 In 0.24126 0.6283 0.57537 0.0
O290 O 0.25717 0.59519 0.57242 0.0
O291 O 0.28241 0.63342 0.59207 0.0
C292 C 0.2043 0.61268 0.54032 0.0
C293 C 0.20594 0.60781 0.61143 0.0
C294 C 0.27823 0.68464 0.56394 0.0
O295 O 0.2224 0.6038 0.5427 0.0
O296 O 0.20444 0.62893 0.55583 0.0
O297 O 0.26455 0.67775 0.58225 0.0
O298 O 0.27327 0.66317 0.55162 0.0
C299 C 0.27932 0.60957 0.58473 0.0
O300 O 0.2208 0.63492 0.60699 0.0
O301 O 0.20857 0.59131 0.59755 0.0
In302 In 0.62413 0.24366 0.74246 0.0
O303 O 0.67313 0.26889 0.73396 0.0
O304 O 0.66026 0.27199 0.76693 0.0
C305 C 0.60518 0.21097 0.70488 0.0
C306 C 0.60483 0.20478 0.7765 0.0
C307 C 0.60641 0.28301 0.73565 0.0
O308 O 0.62915 0.21718 0.7141 0.0
O309 O 0.59085 0.22089 0.71468 0.0
O310 O 0.59109 0.25937 0.74628 0.0
O311 O 0.63075 0.28691 0.72877 0.0
C312 C 0.68099 0.27944 0.75329 0.0
O313 O 0.59864 0.225 0.77486 0.0
O314 O 0.61996 0.20369 0.76068 0.0
In315 In 0.39691 0.6314 0.90551 0.0
O316 O 0.34775 0.60093 0.91207 0.0
O317 O 0.36045 0.62898 0.88382 0.0
C318 C 0.41966 0.61785 0.94068 0.0
C319 C 0.41383 0.61152 0.87033 0.0
C320 C 0.41433 0.68748 0.91668 0.0
O321 O 0.39244 0.60443 0.93655 0.0
O322 O 0.43534 0.63767 0.92684 0.0
O323 O 0.42563 0.6811 0.90065 0.0
O324 O 0.39428 0.66566 0.92687 0.0
C325 C 0.33975 0.60951 0.89521 0.0
O326 O 0.41751 0.63715 0.87106 0.0
O327 O 0.4023 0.59622 0.8875 0.0
In328 In 0.78029 0.40056 0.07433 0.0
O329 O 0.80175 0.39413 0.1055 0.0
O330 O 0.81006 0.43712 0.09808 0.0
C331 C 0.74476 0.34385 0.06296 0.0
C332 C 0.74148 0.41908 0.08118 0.0
C333 C 0.8192 0.41718 0.04064 0.0
O334 O 0.75388 0.35152 0.08266 0.0
O335 O 0.75334 0.36472 0.04922 0.0
O336 O 0.80032 0.42522 0.04193 0.0
O337 O 0.8188 0.4013 0.05656 0.0
C338 C 0.81442 0.42089 0.11107 0.0
O339 O 0.76451 0.43362 0.06982 0.0
O340 O 0.73778 0.39505 0.08867 0.0
In341 In 0.39292 0.78343 0.24139 0.0
O342 O 0.42002 0.76111 0.24831 0.0
O343 O 0.39672 0.75186 0.21772 0.0
C344 C 0.40748 0.81951 0.27685 0.0
C345 C 0.41357 0.82149 0.20695 0.0
C346 C 0.3365 0.74493 0.2517 0.0
O347 O 0.42101 0.80605 0.27203 0.0
O348 O 0.38704 0.81508 0.2636 0.0
O349 O 0.34353 0.76376 0.23638 0.0
O350 O 0.35788 0.74539 0.26157 0.0
C351 C 0.41353 0.74743 0.23 0.0
O352 O 0.38728 0.80076 0.20799 0.0
O353 O 0.42922 0.82338 0.22349 0.0
H354 H 0.17944 0.62751 0.3249 0.0
H355 H 0.28645 0.73657 0.2312 0.0
H356 H 0.14874 0.64187 0.26203 0.0
H357 H 0.31672 0.70721 0.28705 0.0
H358 H 0.23576 0.70373 0.24306 0.0
H359 H 0.22996 0.65815 0.31208 0.0
C360 C 0.18326 0.63689 0.30835 0.0
C361 C 0.1597 0.63213 0.29458 0.0
C362 C 0.25349 0.70438 0.25266 0.0
C363 C 0.21757 0.66765 0.27993 0.0
C364 C 0.28241 0.72314 0.24591 0.0
C365 C 0.30577 0.72459 0.25817 0.0
C366 C 0.24795 0.68716 0.27191 0.0
C367 C 0.29932 0.70673 0.2771 0.0
C368 C 0.21214 0.65452 0.30108 0.0
C369 C 0.16613 0.64532 0.27341 0.0
N370 N 0.27102 0.68885 0.28346 0.0
N371 N 0.19441 0.66254 0.26678 0.0
H372 H 0.51672 0.15248 0.42673 0.0
H373 H 0.62081 0.32335 0.45416 0.0
H374 H 0.56233 0.18485 0.48925 0.0
H375 H 0.56485 0.2916 0.39622 0.0
H376 H 0.60215 0.2726 0.46608 0.0
H377 H 0.53634 0.20312 0.41424 0.0
C378 C 0.53071 0.17021 0.43791 0.0
C379 C 0.53773 0.16432 0.45916 0.0
C380 C 0.59394 0.27669 0.45075 0.0
C381 C 0.56067 0.22246 0.44475 0.0
C382 C 0.60464 0.30567 0.4439 0.0
C383 C 0.59432 0.31166 0.42418 0.0
C384 C 0.57285 0.2535 0.43773 0.0
C385 C 0.57336 0.28792 0.41155 0.0
C386 C 0.54204 0.19914 0.43069 0.0
C387 C 0.55655 0.18827 0.47267 0.0
N388 N 0.5633 0.25985 0.41855 0.0
N389 N 0.56733 0.21626 0.46524 0.0
H390 H 0.34976 0.50027 0.62553 0.0
H391 H 0.33346 0.64061 0.60397 0.0
H392 H 0.4246 0.5884 0.62424 0.0
H393 H 0.27076 0.55414 0.57968 0.0
H394 H 0.36564 0.62184 0.61554 0.0
H395 H 0.31877 0.51959 0.61282 0.0
C396 C 0.3598 0.52366 0.62245 0.0
C397 C 0.39003 0.54266 0.62583 0.0
C398 C 0.3449 0.60704 0.60758 0.0
C399 C 0.3543 0.56496 0.61176 0.0
C400 C 0.32653 0.61769 0.60102 0.0
C401 C 0.29945 0.59886 0.59086 0.0
C402 C 0.33587 0.57725 0.60428 0.0
C403 C 0.29151 0.5694 0.5874 0.0
C404 C 0.342 0.53466 0.61527 0.0
C405 C 0.40144 0.57289 0.62215 0.0
N406 N 0.30955 0.55942 0.59427 0.0
N407 N 0.38355 0.58311 0.61537 0.0
H408 H 0.84156 0.38137 0.82745 0.0
H409 H 0.72963 0.30319 0.72644 0.0
H410 H 0.86764 0.39826 0.75848 0.0
H411 H 0.70267 0.30027 0.79467 0.0
H412 H 0.78073 0.33588 0.73776 0.0
H413 H 0.79079 0.34925 0.81569 0.0
C414 C 0.83658 0.37824 0.80982 0.0
C415 C 0.85884 0.39246 0.79392 0.0
C416 C 0.7636 0.32811 0.75022 0.0
C417 C 0.80075 0.35579 0.7803 0.0
C418 C 0.73448 0.30942 0.74378 0.0
C419 C 0.71194 0.29905 0.75965 0.0
C420 C 0.77015 0.33625 0.7727 0.0
C421 C 0.71939 0.3078 0.78189 0.0
C422 C 0.80758 0.36003 0.80311 0.0
C423 C 0.8511 0.38793 0.77128 0.0
N424 N 0.74785 0.32582 0.78776 0.0
N425 N 0.8227 0.36987 0.76514 0.0
H426 H 0.46224 0.84379 0.99363 0.0
H427 H 0.45013 0.73828 0.89394 0.0
H428 H 0.48353 0.87426 0.92583 0.0
H429 H 0.40092 0.70603 0.95495 0.0
H430 H 0.46669 0.78876 0.90616 0.0
H431 H 0.44361 0.79329 0.98065 0.0
C432 C 0.46293 0.83978 0.97601 0.0
C433 C 0.47437 0.86312 0.96075 0.0
C434 C 0.45216 0.77059 0.9168 0.0
C435 C 0.45339 0.80563 0.94583 0.0
C436 C 0.44281 0.74184 0.90988 0.0
C437 C 0.42415 0.71801 0.92347 0.0
C438 C 0.44314 0.77547 0.93758 0.0
C439 C 0.41526 0.7238 0.94395 0.0
C440 C 0.45221 0.81101 0.9686 0.0
C441 C 0.47463 0.85679 0.93808 0.0
N442 N 0.42499 0.75195 0.95046 0.0
N443 N 0.46451 0.82864 0.9313 0.0
H444 H 0.67417 0.53092 0.12167 0.0
H445 H 0.68666 0.38852 0.09933 0.0
H446 H 0.59849 0.44332 0.12202 0.0
H447 H 0.75089 0.47478 0.07576 0.0
H448 H 0.65515 0.4081 0.11074 0.0
H449 H 0.70397 0.51073 0.10799 0.0
C450 C 0.66369 0.50747 0.11874 0.0
C451 C 0.63361 0.48887 0.12294 0.0
C452 C 0.67605 0.42268 0.10293 0.0
C453 C 0.66796 0.46556 0.10768 0.0
C454 C 0.69403 0.41154 0.09644 0.0
C455 C 0.7214 0.4301 0.08661 0.0
C456 C 0.68575 0.45266 0.09989 0.0
C457 C 0.72991 0.45973 0.08323 0.0
C458 C 0.68082 0.49597 0.111 0.0
C459 C 0.62161 0.45853 0.11935 0.0
N460 N 0.71225 0.47017 0.09005 0.0
N461 N 0.63884 0.44782 0.112 0.0
H462 H 0.39874 0.87292 0.56008 0.0
H463 H 0.3035 0.70444 0.52333 0.0
H464 H 0.3821 0.84455 0.49156 0.0
H465 H 0.29898 0.7346 0.58924 0.0
H466 H 0.33678 0.75528 0.51219 0.0
H467 H 0.36678 0.82183 0.57191 0.0
C468 C 0.38851 0.85589 0.54755 0.0
C469 C 0.39299 0.86291 0.52481 0.0
C470 C 0.3285 0.75081 0.52909 0.0
C471 C 0.35649 0.80463 0.53818 0.0
C472 C 0.30956 0.72179 0.53547 0.0
C473 C 0.29844 0.71535 0.55723 0.0
C474 C 0.33664 0.77357 0.54462 0.0
C475 C 0.30701 0.73867 0.57228 0.0
C476 C 0.37015 0.82682 0.5543 0.0
C477 C 0.37899 0.84009 0.50925 0.0
N478 N 0.3257 0.7668 0.56571 0.0
N479 N 0.36145 0.81196 0.51622 0.0
H480 H 0.5908 0.43063 0.68931 0.0
H481 H 0.55166 0.27536 0.74232 0.0
H482 H 0.50216 0.35928 0.69873 0.0
H483 H 0.63744 0.3375 0.71684 0.0
H484 H 0.53405 0.30858 0.731 0.0
H485 H 0.60919 0.3993 0.70376 0.0
C486 C 0.57524 0.40841 0.69452 0.0
C487 C 0.54493 0.39745 0.69272 0.0
C488 C 0.55675 0.31498 0.72797 0.0
C489 C 0.56574 0.36158 0.70928 0.0
C490 C 0.56684 0.29611 0.73451 0.0
C491 C 0.596 0.30367 0.73041 0.0
C492 C 0.57605 0.34169 0.71742 0.0
C493 C 0.61474 0.33078 0.72021 0.0
C494 C 0.58572 0.39052 0.70267 0.0
C495 C 0.5257 0.36844 0.69956 0.0
N496 N 0.60443 0.34882 0.71404 0.0
N497 N 0.53642 0.35152 0.70758 0.0
H498 H 0.17998 0.56534 0.82441 0.0
H499 H 0.29057 0.5698 0.918 0.0
H500 H 0.15147 0.52297 0.88843 0.0
H501 H 0.31841 0.62248 0.85824 0.0
H502 H 0.23934 0.55066 0.90692 0.0
H503 H 0.23089 0.58517 0.83607 0.0
C504 C 0.1844 0.56037 0.84098 0.0
C505 C 0.16134 0.54242 0.85543 0.0
C506 C 0.25668 0.56645 0.89627 0.0
C507 C 0.21967 0.56472 0.8688 0.0
C508 C 0.28588 0.57733 0.90257 0.0
C509 C 0.30871 0.59774 0.88902 0.0
C510 C 0.25034 0.57596 0.87622 0.0
C511 C 0.30147 0.60678 0.8692 0.0
C512 C 0.21349 0.57157 0.84759 0.0
C513 C 0.16848 0.53632 0.87658 0.0
N514 N 0.27293 0.59579 0.86338 0.0
N515 N 0.19698 0.54741 0.8826 0.0
H516 H 0.66428 0.17846 0.99225 0.0
H517 H 0.71142 0.29633 0.08967 0.0
H518 H 0.6118 0.1618 0.05137 0.0
H519 H 0.73504 0.32115 0.02104 0.0
H520 H 0.67971 0.24512 0.07777 0.0
H521 H 0.69575 0.22951 0.00441 0.0
C522 C 0.65946 0.1856 0.0078 0.0
C523 C 0.63543 0.16604 0.02082 0.0
C524 C 0.69184 0.26184 0.06536 0.0
C525 C 0.67134 0.22405 0.03488 0.0
C526 C 0.70997 0.29096 0.07213 0.0
C527 C 0.72575 0.31291 0.05628 0.0
C528 C 0.69001 0.25467 0.04267 0.0
C529 C 0.7231 0.30487 0.03376 0.0
C530 C 0.67729 0.21467 0.01467 0.0
C531 C 0.62999 0.17634 0.04079 0.0
N532 N 0.70571 0.27634 0.02763 0.0
N533 N 0.64795 0.20464 0.04731 0.0
H534 H 0.48569 0.63106 0.22516 0.0
H535 H 0.40831 0.72234 0.18936 0.0
H536 H 0.47132 0.64595 0.15683 0.0
H537 H 0.4442 0.72815 0.25503 0.0
H538 H 0.42702 0.69025 0.17796 0.0
H539 H 0.46618 0.66247 0.23726 0.0
C540 C 0.47826 0.64081 0.21273 0.0
C541 C 0.48012 0.63595 0.18996 0.0
C542 C 0.43085 0.69856 0.19486 0.0
C543 C 0.45789 0.67183 0.20364 0.0
C544 C 0.42011 0.71681 0.2014 0.0
C545 C 0.42476 0.72794 0.22317 0.0
C546 C 0.44614 0.6911 0.21024 0.0
C547 C 0.44022 0.72009 0.23807 0.0
C548 C 0.46733 0.65886 0.21963 0.0
C549 C 0.47051 0.64936 0.17453 0.0
N550 N 0.4503 0.70204 0.23134 0.0
N551 N 0.45972 0.66659 0.18165 0.0
H552 H 0.8401 0.46878 0.32347 0.0
H553 H 0.72931 0.44751 0.42177 0.0
H554 H 0.86662 0.48399 0.39243 0.0
H555 H 0.70091 0.40845 0.35673 0.0
H556 H 0.78025 0.4645 0.41101 0.0
H557 H 0.78921 0.45 0.33495 0.0
C558 C 0.83515 0.46815 0.34104 0.0
C559 C 0.85753 0.47795 0.35704 0.0
C560 C 0.76283 0.4521 0.39915 0.0
C561 C 0.79946 0.45661 0.3703 0.0
C562 C 0.73381 0.4425 0.40525 0.0
C563 C 0.71092 0.42658 0.3901 0.0
C564 C 0.76894 0.44603 0.37767 0.0
C565 C 0.71791 0.42062 0.36893 0.0
C566 C 0.80613 0.45731 0.34759 0.0
C567 C 0.84994 0.47642 0.3796 0.0
N568 N 0.74631 0.43049 0.36329 0.0
N569 N 0.82153 0.46614 0.38557 0.0
H570 H 0.11228 0.54282 0.41581 0.0
H571 H 0.16873 0.63469 0.52913 0.0
H572 H 0.09774 0.61432 0.43256 0.0
H573 H 0.19749 0.57552 0.50603 0.0
H574 H 0.13962 0.62494 0.49514 0.0
H575 H 0.14095 0.55217 0.44997 0.0
C576 C 0.11511 0.56047 0.42672 0.0
C577 C 0.10258 0.5778 0.42137 0.0
C578 C 0.15228 0.61407 0.49751 0.0
C579 C 0.13535 0.58863 0.46049 0.0
C580 C 0.16879 0.61952 0.51695 0.0
C581 C 0.18554 0.60589 0.52038 0.0
C582 C 0.15237 0.59469 0.48145 0.0
C583 C 0.1849 0.58651 0.50403 0.0
C584 C 0.13157 0.56588 0.44616 0.0
C585 C 0.10724 0.60062 0.43595 0.0
N586 N 0.16856 0.58147 0.48528 0.0
N587 N 0.12312 0.60528 0.45491 0.0
H588 H 0.55216 0.07848 0.60269 0.0
H589 H 0.56432 0.20898 0.67606 0.0
H590 H 0.53375 0.14379 0.57561 0.0
H591 H 0.6221 0.17409 0.6865 0.0
H592 H 0.54668 0.1803 0.64166 0.0
H593 H 0.57236 0.10874 0.63593 0.0
C594 C 0.55257 0.09925 0.60352 0.0
C595 C 0.5412 0.10849 0.58607 0.0
C596 C 0.56328 0.17902 0.65146 0.0
C597 C 0.56352 0.14273 0.62461 0.0
C598 C 0.57324 0.19523 0.67111 0.0
C599 C 0.59468 0.19385 0.68408 0.0
C600 C 0.57438 0.16084 0.64501 0.0
C601 C 0.60561 0.17579 0.67689 0.0
C602 C 0.56398 0.11641 0.62262 0.0
C603 C 0.54169 0.13534 0.58865 0.0
N604 N 0.59513 0.15973 0.65789 0.0
N605 N 0.55245 0.15138 0.60761 0.0
H606 H 0.42534 0.56122 0.73542 0.0
H607 H 0.42007 0.56309 0.86774 0.0
H608 H 0.463 0.52093 0.77613 0.0
H609 H 0.42275 0.63264 0.82778 0.0
H610 H 0.42906 0.54226 0.83417 0.0
H611 H 0.41678 0.58234 0.76913 0.0
C612 C 0.43159 0.55669 0.75149 0.0
C613 C 0.44492 0.53943 0.7531 0.0
C614 C 0.42781 0.56216 0.83281 0.0
C615 C 0.43513 0.56322 0.7915 0.0
C616 C 0.42267 0.57401 0.8519 0.0
C617 C 0.42079 0.59965 0.85048 0.0
C618 C 0.43047 0.57571 0.81212 0.0
C619 C 0.42424 0.61293 0.82958 0.0
C620 C 0.42691 0.56887 0.77063 0.0
C621 C 0.45283 0.53432 0.77424 0.0
N622 N 0.42867 0.60065 0.81114 0.0
N623 N 0.44766 0.54603 0.79266 0.0
H624 H 0.91764 0.48686 0.91866 0.0
H625 H 0.85444 0.39445 0.03075 0.0
H626 H 0.92012 0.40754 0.93286 0.0
H627 H 0.8284 0.45527 0.00644 0.0
H628 H 0.88438 0.40361 -0.00265 0.0
H629 H 0.88992 0.47962 0.95291 0.0
C630 C 0.91221 0.46778 0.92884 0.0
C631 C 0.92116 0.44768 0.92269 0.0
C632 C 0.87218 0.41501 -0.00064 0.0
C633 C 0.88997 0.43973 0.96228 0.0
C634 C 0.85521 0.40991 0.01846 0.0
C635 C 0.83887 0.42408 0.02131 0.0
C636 C 0.87302 0.43463 0.98311 0.0
C637 C 0.8406 0.44383 0.00484 0.0
C638 C 0.89653 0.46381 0.94849 0.0
C639 C 0.91406 0.42383 0.93698 0.0
N640 N 0.85739 0.44854 0.98643 0.0
N641 N 0.89893 0.42055 0.9561 0.0
H642 H 0.45216 0.88571 0.0721 0.0
H643 H 0.46687 0.87172 0.20297 0.0
H644 H 0.51652 0.95742 0.11221 0.0
H645 H 0.38789 0.81489 0.16619 0.0
H646 H 0.48768 0.90164 0.16946 0.0
H647 H 0.43055 0.85744 0.10599 0.0
C648 C 0.46169 0.89565 0.088 0.0
C649 C 0.4862 0.92415 0.0892 0.0
C650 C 0.46573 0.88273 0.16878 0.0
C651 C 0.46178 0.89151 0.12811 0.0
C652 C 0.45386 0.86565 0.18787 0.0
C653 C 0.42563 0.84081 0.18732 0.0
C654 C 0.4494 0.87465 0.14893 0.0
C655 C 0.40971 0.83391 0.16734 0.0
C656 C 0.44936 0.8794 0.10735 0.0
C657 C 0.49793 0.93544 0.11035 0.0
N658 N 0.42191 0.85061 0.14888 0.0
N659 N 0.48566 0.91907 0.12894 0.0
H660 H 0.61712 0.53208 0.26167 0.0
H661 H 0.56947 0.38934 0.33715 0.0
H662 H 0.54395 0.44626 0.24611 0.0
H663 H 0.6346 0.47722 0.35701 0.0
H664 H 0.56114 0.40936 0.3029 0.0
H665 H 0.62579 0.51184 0.29564 0.0
C666 C 0.60303 0.50893 0.26531 0.0
C667 C 0.57974 0.49085 0.25106 0.0
C668 C 0.57719 0.42428 0.31478 0.0
C669 C 0.58934 0.46758 0.29001 0.0
C670 C 0.58192 0.41286 0.33434 0.0
C671 C 0.60272 0.43166 0.34995 0.0
C672 C 0.59351 0.4547 0.31074 0.0
C673 C 0.61829 0.46195 0.34544 0.0
C674 C 0.60785 0.49743 0.28479 0.0
C675 C 0.56194 0.46107 0.25676 0.0
N676 N 0.61344 0.47252 0.32623 0.0
N677 N 0.56712 0.45038 0.27577 0.0
H678 H 0.39702 0.91792 0.3882 0.0
H679 H 0.45228 0.83526 0.3067 0.0
H680 H 0.48013 0.92118 0.39604 0.0
H681 H 0.37781 0.84595 0.29257 0.0
H682 H 0.4618 0.86485 0.34044 0.0
H683 H 0.38849 0.88967 0.35397 0.0
C684 C 0.41356 0.91285 0.38269 0.0
C685 C 0.43934 0.92198 0.39509 0.0
C686 C 0.44344 0.8608 0.32991 0.0
C687 C 0.4295 0.88926 0.35599 0.0
C688 C 0.438 0.84392 0.31067 0.0
C689 C 0.41423 0.83817 0.29684 0.0
C690 C 0.42483 0.87181 0.33543 0.0
C691 C 0.39641 0.8499 0.30276 0.0
C692 C 0.40861 0.8966 0.36318 0.0
C693 C 0.45972 0.91425 0.38727 0.0
N694 N 0.402 0.86606 0.32165 0.0
N695 N 0.45435 0.89833 0.36826 0.0
H696 H 0.49382 0.4027 0.55227 0.0
H697 H 0.63166 0.45901 0.47069 0.0
H698 H 0.57474 0.48486 0.56151 0.0
H699 H 0.54553 0.3864 0.45526 0.0
H700 H 0.61187 0.46802 0.50474 0.0
H701 H 0.51303 0.39534 0.51738 0.0
C702 C 0.51557 0.41927 0.54694 0.0
C703 C 0.53266 0.44444 0.55993 0.0
C704 C 0.59727 0.45022 0.49384 0.0
C705 C 0.55496 0.43594 0.52005 0.0
C706 C 0.60855 0.44508 0.47441 0.0
C707 C 0.5902 0.42192 0.46016 0.0
C708 C 0.56748 0.43189 0.49914 0.0
C709 C 0.56044 0.40453 0.46578 0.0
C710 C 0.52657 0.415 0.52704 0.0
C711 C 0.56092 0.46489 0.55229 0.0
N712 N 0.55004 0.40976 0.48489 0.0
N713 N 0.57118 0.46017 0.5329 0.0
H714 H 0.11204 0.58523 0.73511 0.0
H715 H 0.1752 0.55072 0.62514 0.0
H716 H 0.10134 0.50014 0.71994 0.0
H717 H 0.19532 0.63821 0.64373 0.0
H718 H 0.14633 0.5316 0.6591 0.0
H719 H 0.14109 0.60488 0.70115 0.0
C720 C 0.11577 0.57067 0.7246 0.0
C721 C 0.10421 0.54098 0.73035 0.0
C722 C 0.15703 0.55498 0.65579 0.0
C723 C 0.13749 0.56334 0.6915 0.0
C724 C 0.17346 0.56591 0.63635 0.0
C725 C 0.18768 0.59611 0.63162 0.0
C726 C 0.15468 0.57434 0.67061 0.0
C727 C 0.1847 0.61477 0.64676 0.0
C728 C 0.13246 0.58194 0.70528 0.0
C729 C 0.11007 0.52322 0.71629 0.0
N730 N 0.1685 0.60358 0.66559 0.0
N731 N 0.12619 0.53465 0.69748 0.0
H732 H 0.542 0.12 0.90451 0.0
H733 H 0.62128 0.16422 0.78565 0.0
H734 H 0.60497 0.09577 0.88248 0.0
H735 H 0.57136 0.20185 0.81235 0.0
H736 H 0.61174 0.13533 0.81969 0.0
H737 H 0.54914 0.14692 0.86966 0.0
C738 C 0.55729 0.12031 0.89231 0.0
C739 C 0.57296 0.10566 0.89642 0.0
C740 C 0.60278 0.14983 0.81809 0.0
C741 C 0.58122 0.13639 0.85652 0.0
C742 C 0.60809 0.16621 0.79861 0.0
C743 C 0.59714 0.1855 0.79621 0.0
C744 C 0.58627 0.15263 0.83527 0.0
C745 C 0.58026 0.18727 0.81355 0.0
C746 C 0.56144 0.13577 0.87247 0.0
C747 C 0.59271 0.10704 0.88013 0.0
N748 N 0.57537 0.17107 0.83238 0.0
N749 N 0.5962 0.12204 0.86088 0.0
H750 H 0.44654 0.5453 0.06199 0.0
H751 H 0.47655 0.64739 0.95504 0.0
H752 H 0.52702 0.62749 0.05157 0.0
H753 H 0.39117 0.57452 0.97176 0.0
H754 H 0.4965 0.6382 0.9889 0.0
H755 H 0.42676 0.55381 0.02783 0.0
C756 C 0.46 0.56527 0.05265 0.0
C757 C 0.48851 0.58576 0.05979 0.0
C758 C 0.47341 0.6242 0.98516 0.0
C759 C 0.4661 0.59534 0.02033 0.0
C760 C 0.46203 0.62936 0.9658 0.0
C761 C 0.43215 0.6117 0.96061 0.0
C762 C 0.45482 0.60109 -0.00059 0.0
C763 C 0.41433 0.58869 0.97516 0.0
C764 C 0.44873 0.57 0.03304 0.0
C765 C 0.5051 0.61089 0.04664 0.0
N766 N 0.42594 0.58404 0.9939 0.0
N767 N 0.49366 0.61495 0.02756 0.0
H768 H 0.91577 0.44548 0.23113 0.0
H769 H 0.83988 0.4767 0.12743 0.0
H770 H 0.91299 0.52565 0.22272 0.0
H771 H 0.83001 0.39154 0.14092 0.0
H772 H 0.86909 0.49572 0.16128 0.0
H773 H 0.8863 0.42588 0.19738 0.0
C774 C 0.9088 0.45891 0.22231 0.0
C775 C 0.91689 0.48729 0.22985 0.0
C776 C 0.86055 0.47286 0.15688 0.0
C777 C 0.88351 0.4651 0.19095 0.0
C778 C 0.84392 0.462 0.13751 0.0
C779 C 0.8325 0.43249 0.13138 0.0
C780 C 0.86597 0.45414 0.1702 0.0
C781 C 0.8384 0.41444 0.14508 0.0
C782 C 0.89211 0.44774 0.20295 0.0
C783 C 0.90767 0.50384 0.21742 0.0
N784 N 0.85478 0.42557 0.16386 0.0
N785 N 0.89153 0.49252 0.1986 0.0
loop_
_geom_bond_atom_site_label_1
_geom_bond_atom_site_label_2
_geom_bond_distance
_geom_bond_site_symmetry_2
_ccdc_geom_bond_type
C0 C1 1.384 . S
C0 C2 1.384 . S
C0 H28 0.931 . S
C1 C0 1.384 . S
C1 C4 1.382 . S
C2 C0 1.384 . S
C2 C3 1.381 . S
C2 H29 0.930 . S
C3 C2 1.381 . S
C3 C5 1.381 . S
C3 C6 1.487 . S
C4 C1 1.382 . S
C4 C5 1.387 . S
C4 H30 0.930 . S
C5 C3 1.381 . S
C5 C4 1.387 . S
C5 H31 0.931 . S
C6 C3 1.487 . S
C6 C13 1.411 . S
C6 N44 1.343 1_655 S
C7 C8 1.384 . S
C7 C9 1.384 . S
C7 H32 0.931 . S
C8 C7 1.384 . S
C8 C11 1.382 . S
C9 C7 1.384 . S
C9 C10 1.381 . S
C9 H33 0.930 . S
C10 C9 1.381 . S
C10 C12 1.381 . S
C10 C13 1.511 . S
C11 C8 1.382 . S
C11 C12 1.387 . S
C11 H34 0.930 . S
C12 C10 1.381 . S
C12 C11 1.387 . S
C12 H35 0.931 1_655 S
C13 C6 1.411 . S
C13 C10 1.511 . S
C13 N45 1.306 1_655 S
C14 C15 1.384 . S
C14 C16 1.384 . S
C14 H36 0.931 . S
C15 C14 1.384 . S
C15 C18 1.382 . S
C16 C14 1.384 . S
C16 C17 1.381 . S
C16 H37 0.930 . S
C17 C16 1.381 . S
C17 C19 1.381 . S
C17 C20 1.487 . S
C18 C15 1.382 . S
C18 C19 1.387 . S
C18 H38 0.930 . S
C19 C17 1.381 . S
C19 C18 1.387 . S
C19 H39 0.931 . S
C20 C17 1.487 . S
C20 C27 1.399 . S
C20 N45 1.343 . S
C21 C22 1.384 . S
C21 C23 1.384 . S
C21 H40 0.931 . S
C22 C21 1.384 . S
C22 C25 1.382 . S
C23 C21 1.384 . S
C23 C24 1.381 . S
C23 H41 0.930 . S
C24 C23 1.381 . S
C24 C26 1.381 . S
C24 C27 1.487 . S
C25 C22 1.382 . S
C25 C26 1.387 . S
C25 H42 0.930 . S
C26 C24 1.381 . S
C26 C25 1.387 . S
C26 H43 0.931 . S
C27 C20 1.399 . S
C27 C24 1.487 . S
C27 N44 1.343 . S
H28 C0 0.931 . S
H29 C2 0.930 . S
H30 C4 0.930 . S
H31 C5 0.931 . S
H32 C7 0.931 . S
H33 C9 0.930 . S
H34 C11 0.930 . S
H35 C12 0.931 1_455 S
H36 C14 0.931 . S
H37 C16 0.930 . S
H38 C18 0.930 . S
H39 C19 0.931 . S
H40 C21 0.931 . S
H41 C23 0.930 . S
H42 C25 0.930 . S
H43 C26 0.931 . S
N44 C6 1.343 1_455 S
N44 C27 1.343 . S
N45 C13 1.306 1_455 S
N45 C20 1.343 . S
C46 C47 1.384 . S
C46 C48 1.384 . S
C46 H74 0.931 . S
C47 C46 1.384 . S
C47 C50 1.382 . S
C48 C46 1.384 . S
C48 C49 1.381 . S
C48 H75 0.930 . S
C49 C48 1.381 . S
C49 C51 1.381 . S
C49 C52 1.487 . S
C50 C47 1.382 . S
C50 C51 1.387 . S
C50 H76 0.930 . S
C51 C49 1.381 . S
C51 C50 1.387 . S
C51 H77 0.931 . S
C52 C49 1.487 . S
C52 C59 1.405 . S
C52 N90 1.343 1_565 S
C53 C54 1.384 . S
C53 C55 1.384 . S
C53 H78 0.931 . S
C54 C53 1.384 . S
C54 C57 1.382 . S
C55 C53 1.384 . S
C55 C56 1.381 . S
C55 H79 0.930 . S
C56 C55 1.381 . S
C56 C58 1.381 . S
C56 C59 1.496 . S
C57 C54 1.382 . S
C57 C58 1.387 . S
C57 H80 0.930 . S
C58 C56 1.381 . S
C58 C57 1.387 . S
C58 H81 0.931 1_565 S
C59 C52 1.405 . S
C59 C56 1.496 . S
C59 N91 1.327 1_565 S
C60 C61 1.384 . S
C60 C62 1.384 . S
C60 H82 0.931 . S
C61 C60 1.384 . S
C61 C64 1.382 . S
C62 C60 1.384 . S
C62 C63 1.381 . S
C62 H83 0.930 . S
C63 C62 1.381 . S
C63 C65 1.381 . S
C63 C66 1.487 . S
C64 C61 1.382 . S
C64 C65 1.387 . S
C64 H84 0.930 . S
C65 C63 1.381 . S
C65 C64 1.387 . S
C65 H85 0.931 . S
C66 C63 1.487 . S
C66 C73 1.399 . S
C66 N91 1.343 . S
C67 C68 1.384 . S
C67 C69 1.384 . S
C67 H86 0.931 . S
C68 C67 1.384 . S
C68 C71 1.382 . S
C69 C67 1.384 . S
C69 C70 1.381 . S
C69 H87 0.930 . S
C70 C69 1.381 . S
C70 C72 1.381 . S
C70 C73 1.487 . S
C71 C68 1.382 . S
C71 C72 1.387 . S
C71 H88 0.930 . S
C72 C70 1.381 . S
C72 C71 1.387 . S
C72 H89 0.931 . S
C73 C66 1.399 . S
C73 C70 1.487 . S
C73 N90 1.343 . S
H74 C46 0.931 . S
H75 C48 0.930 . S
H76 C50 0.930 . S
H77 C51 0.931 . S
H78 C53 0.931 . S
H79 C55 0.930 . S
H80 C57 0.930 . S
H81 C58 0.931 1_545 S
H82 C60 0.931 . S
H83 C62 0.930 . S
H84 C64 0.930 . S
H85 C65 0.931 . S
H86 C67 0.931 . S
H87 C69 0.930 . S
H88 C71 0.930 . S
H89 C72 0.931 . S
N90 C52 1.343 1_545 S
N90 C73 1.343 . S
N91 C59 1.327 1_545 S
N91 C66 1.343 . S
C92 C93 1.384 . S
C92 C94 1.384 . S
C92 H120 0.931 . S
C93 C92 1.384 . S
C93 C96 1.382 . S
C94 C92 1.384 . S
C94 C95 1.381 . S
C94 H121 0.930 . S
C95 C94 1.381 . S
C95 C97 1.381 . S
C95 C98 1.487 . S
C96 C93 1.382 . S
C96 C97 1.387 . S
C96 H122 0.930 . S
C97 C95 1.381 . S
C97 C96 1.387 . S
C97 H123 0.931 . S
C98 C95 1.487 . S
C98 C105 1.399 . S
C98 N136 1.343 . S
C99 C100 1.384 . S
C99 C101 1.384 . S
C99 H124 0.931 . S
C100 C99 1.384 . S
C100 C103 1.382 . S
C101 C99 1.384 . S
C101 C102 1.381 . S
C101 H125 0.930 . S
C102 C101 1.381 . S
C102 C104 1.381 . S
C102 C105 1.487 . S
C103 C100 1.382 . S
C103 C104 1.387 . S
C103 H126 0.930 . S
C104 C102 1.381 . S
C104 C103 1.387 . S
C104 H127 0.931 . S
C105 C98 1.399 . S
C105 C102 1.487 . S
C105 N137 1.343 . S
C106 C107 1.384 . S
C106 C108 1.384 . S
C106 H128 0.931 . S
C107 C106 1.384 . S
C107 C110 1.382 . S
C108 C106 1.384 . S
C108 C109 1.381 . S
C108 H129 0.930 . S
C109 C108 1.381 . S
C109 C111 1.381 . S
C109 C112 1.487 . S
C110 C107 1.382 . S
C110 C111 1.387 . S
C110 H130 0.930 . S
C111 C109 1.381 . S
C111 C110 1.387 . S
C111 H131 0.931 . S
C112 C109 1.487 . S
C112 C119 1.399 . S
C112 N137 1.343 . S
C113 C114 1.384 . S
C113 C115 1.384 . S
C113 H132 0.931 . S
C114 C113 1.384 . S
C114 C117 1.382 . S
C115 C113 1.384 . S
C115 C116 1.381 . S
C115 H133 0.930 . S
C116 C115 1.381 . S
C116 C118 1.381 . S
C116 C119 1.487 . S
C117 C114 1.382 . S
C117 C118 1.387 . S
C117 H134 0.930 . S
C118 C116 1.381 . S
C118 C117 1.387 . S
C118 H135 0.931 . S
C119 C112 1.399 . S
C119 C116 1.487 . S
C119 N136 1.343 . S
H120 C92 0.931 . S
H121 C94 0.930 . S
H122 C96 0.930 . S
H123 C97 0.931 . S
H124 C99 0.931 . S
H125 C101 0.930 . S
H126 C103 0.930 . S
H127 C104 0.931 . S
H128 C106 0.931 . S
H129 C108 0.930 . S
H130 C110 0.930 . S
H131 C111 0.931 . S
H132 C113 0.931 . S
H133 C115 0.930 . S
H134 C117 0.930 . S
H135 C118 0.931 . S
N136 C98 1.343 . S
N136 C119 1.343 . S
N137 C105 1.343 . S
N137 C112 1.343 . S
C138 C139 1.384 . S
C138 C140 1.384 . S
C138 H166 0.931 . S
C139 C138 1.384 . S
C139 C142 1.382 . S
C140 C138 1.384 . S
C140 C141 1.381 . S
C140 H167 0.930 . S
C141 C140 1.381 . S
C141 C143 1.381 . S
C141 C144 1.487 . S
C142 C139 1.382 . S
C142 C143 1.387 . S
C142 H168 0.930 . S
C143 C141 1.381 . S
C143 C142 1.387 . S
C143 H169 0.931 . S
C144 C141 1.487 . S
C144 C151 1.399 . S
C144 N182 1.343 1_655 S
C145 C146 1.384 . S
C145 C147 1.384 . S
C145 H170 0.931 . S
C146 C145 1.384 . S
C146 C149 1.382 . S
C147 C145 1.384 . S
C147 C148 1.381 . S
C147 H171 0.930 . S
C148 C147 1.381 . S
C148 C150 1.381 . S
C148 C151 1.487 . S
C149 C146 1.382 . S
C149 C150 1.387 . S
C149 H172 0.930 . S
C150 C148 1.381 . S
C150 C149 1.387 . S
C150 H173 0.916 1_655 S
C151 C144 1.399 . S
C151 C148 1.487 . S
C151 N183 1.343 1_655 S
C152 C153 1.384 . S
C152 C154 1.384 . S
C152 H174 0.931 . S
C153 C152 1.384 . S
C153 C156 1.382 . S
C154 C152 1.384 . S
C154 C155 1.381 . S
C154 H175 0.930 . S
C155 C154 1.381 . S
C155 C157 1.381 . S
C155 C158 1.487 . S
C156 C153 1.382 . S
C156 C157 1.387 . S
C156 H176 0.930 . S
C157 C155 1.381 . S
C157 C156 1.387 . S
C157 H177 0.931 . S
C158 C155 1.487 . S
C158 C165 1.399 . S
C158 N183 1.343 . S
C159 C160 1.384 . S
C159 C161 1.384 . S
C159 H178 0.931 . S
C160 C159 1.384 . S
C160 C163 1.382 . S
C161 C159 1.384 . S
C161 C162 1.381 . S
C161 H179 0.930 . S
C162 C161 1.381 . S
C162 C164 1.381 . S
C162 C165 1.487 . S
C163 C160 1.382 . S
C163 C164 1.387 . S
C163 H180 0.930 . S
C164 C162 1.381 . S
C164 C163 1.387 . S
C164 H181 0.931 . S
C165 C158 1.399 . S
C165 C162 1.487 . S
C165 N182 1.343 . S
H166 C138 0.931 . S
H167 C140 0.930 . S
H168 C142 0.930 . S
H169 C143 0.931 . S
H170 C145 0.931 . S
H171 C147 0.930 . S
H172 C149 0.930 . S
H173 C150 0.916 1_455 S
H174 C152 0.931 . S
H175 C154 0.930 . S
H176 C156 0.930 . S
H177 C157 0.931 . S
H178 C159 0.931 . S
H179 C161 0.930 . S
H180 C163 0.930 . S
H181 C164 0.931 . S
N182 C144 1.343 1_455 S
N182 C165 1.343 . S
N183 C151 1.343 1_455 S
N183 C158 1.343 . S
C184 C185 1.384 . S
C184 C186 1.384 . S
C184 H212 0.931 . S
C185 C184 1.384 . S
C185 C188 1.382 . S
C186 C184 1.384 . S
C186 C187 1.381 . S
C186 H213 0.930 1_556 S
C187 C186 1.381 . S
C187 C189 1.381 . S
C187 C190 1.487 . S
C188 C185 1.382 . S
C188 C189 1.387 . S
C188 H214 0.930 . S
C189 C187 1.381 . S
C189 C188 1.387 . S
C189 H215 0.931 . S
C190 C187 1.487 . S
C190 C197 1.403 1_556 S
C190 N228 1.343 1_565 S
C191 C192 1.384 . S
C191 C193 1.384 . S
C191 H216 0.931 . S
C192 C191 1.384 . S
C192 C195 1.382 . S
C193 C191 1.384 . S
C193 C194 1.381 . S
C193 H217 0.930 . S
C194 C193 1.381 . S
C194 C196 1.381 . S
C194 C197 1.495 . S
C195 C192 1.382 . S
C195 C196 1.387 . S
C195 H218 0.930 . S
C196 C194 1.381 . S
C196 C195 1.387 . S
C196 H219 0.931 1_565 S
C197 C190 1.403 1_554 S
C197 C194 1.495 . S
C197 N229 1.330 1_565 S
C198 C199 1.384 . S
C198 C200 1.384 1_554 S
C198 H220 0.931 1_554 S
C199 C198 1.384 . S
C199 C202 1.382 . S
C200 C198 1.384 1_556 S
C200 C201 1.381 1_556 S
C200 H221 0.930 . S
C201 C200 1.381 1_554 S
C201 C203 1.381 . S
C201 C204 1.487 1_554 S
C202 C199 1.382 . S
C202 C203 1.387 . S
C202 H222 0.930 . S
C203 C201 1.381 . S
C203 C202 1.387 . S
C203 H223 0.931 . S
C204 C201 1.487 1_556 S
C204 C211 1.399 . S
C204 N229 1.343 1_556 S
C205 C206 1.384 . S
C205 C207 1.384 . S
C205 H224 0.931 . S
C206 C205 1.384 . S
C206 C209 1.382 . S
C207 C205 1.384 . S
C207 C208 1.381 . S
C207 H225 0.930 . S
C208 C207 1.381 . S
C208 C210 1.381 . S
C208 C211 1.487 . S
C209 C206 1.382 . S
C209 C210 1.387 . S
C209 H226 0.930 . S
C210 C208 1.381 . S
C210 C209 1.387 . S
C210 H227 0.931 . S
C211 C204 1.399 . S
C211 C208 1.487 . S
C211 N228 1.343 . S
H212 C184 0.931 . S
H213 C186 0.930 1_554 S
H214 C188 0.930 . S
H215 C189 0.931 . S
H216 C191 0.931 . S
H217 C193 0.930 . S
H218 C195 0.930 . S
H219 C196 0.931 1_545 S
H220 C198 0.931 1_556 S
H221 C200 0.930 . S
H222 C202 0.930 . S
H223 C203 0.931 . S
H224 C205 0.931 . S
H225 C207 0.930 . S
H226 C209 0.930 . S
H227 C210 0.931 . S
N228 C190 1.343 1_545 S
N228 C211 1.343 . S
N229 C197 1.330 1_545 S
N229 C204 1.343 1_554 S
C230 C231 1.384 . S
C230 C232 1.384 . S
C230 H258 0.931 . S
C231 C230 1.384 . S
C231 C234 1.382 . S
C232 C230 1.384 . S
C232 C233 1.381 . S
C232 H259 0.930 . S
C233 C232 1.381 . S
C233 C235 1.381 . S
C233 C236 1.487 . S
C234 C231 1.382 . S
C234 C235 1.387 . S
C234 H260 0.930 . S
C235 C233 1.381 . S
C235 C234 1.387 . S
C235 H261 0.931 . S
C236 C233 1.487 . S
C236 C243 1.399 . S
C236 N274 1.343 . S
C237 C238 1.384 . S
C237 C239 1.384 . S
C237 H262 0.931 . S
C238 C237 1.384 . S
C238 C241 1.382 . S
C239 C237 1.384 . S
C239 C240 1.381 . S
C239 H263 0.930 . S
C240 C239 1.381 . S
C240 C242 1.381 . S
C240 C243 1.487 . S
C241 C238 1.382 . S
C241 C242 1.387 . S
C241 H264 0.930 . S
C242 C240 1.381 . S
C242 C241 1.387 . S
C242 H265 0.931 . S
C243 C236 1.399 . S
C243 C240 1.487 . S
C243 N275 1.343 . S
C244 C245 1.384 . S
C244 C246 1.384 . S
C244 H266 0.931 . S
C245 C244 1.384 . S
C245 C248 1.382 . S
C246 C244 1.384 . S
C246 C247 1.381 . S
C246 H267 0.930 . S
C247 C246 1.381 . S
C247 C249 1.381 . S
C247 C250 1.487 . S
C248 C245 1.382 . S
C248 C249 1.387 . S
C248 H268 0.930 . S
C249 C247 1.381 . S
C249 C248 1.387 . S
C249 H269 0.931 . S
C250 C247 1.487 . S
C250 C257 1.399 . S
C250 N275 1.343 . S
C251 C252 1.384 . S
C251 C253 1.384 . S
C251 H270 0.931 . S
C252 C251 1.384 . S
C252 C255 1.382 . S
C253 C251 1.384 . S
C253 C254 1.381 . S
C253 H271 0.930 . S
C254 C253 1.381 . S
C254 C256 1.381 . S
C254 C257 1.487 . S
C255 C252 1.382 . S
C255 C256 1.387 . S
C255 H272 0.930 . S
C256 C254 1.381 . S
C256 C255 1.387 . S
C256 H273 0.931 . S
C257 C250 1.399 . S
C257 C254 1.487 . S
C257 N274 1.343 . S
H258 C230 0.931 . S
H259 C232 0.930 . S
H260 C234 0.930 . S
H261 C235 0.931 . S
H262 C237 0.931 . S
H263 C239 0.930 . S
H264 C241 0.930 . S
H265 C242 0.931 . S
H266 C244 0.931 . S
H267 C246 0.930 . S
H268 C248 0.930 . S
H269 C249 0.931 . S
H270 C251 0.931 . S
H271 C253 0.930 . S
H272 C255 0.930 . S
H273 C256 0.931 . S
N274 C236 1.343 . S
N274 C257 1.343 . S
N275 C243 1.343 . S
N275 C250 1.343 . S
In276 O277 2.294 . S
In276 O278 2.326 . S
In276 O282 2.266 . S
In276 O283 2.326 . S
In276 O284 2.266 . S
In276 O285 2.326 . S
In276 O287 2.294 . S
In276 O288 2.326 . S
O277 In276 2.294 . S
O277 C286 1.240 . S
O278 In276 2.326 . S
O278 C286 1.252 . S
C279 O282 1.252 . S
C279 O283 1.260 . S
C280 O287 1.240 . S
C280 O288 1.252 . S
C281 O284 1.252 . S
C281 O285 1.260 . S
O282 In276 2.266 . S
O282 C279 1.252 . S
O283 In276 2.326 . S
O283 C279 1.260 . S
O284 In276 2.266 . S
O284 C281 1.252 . S
O285 In276 2.326 . S
O285 C281 1.260 . S
C286 O277 1.240 . S
C286 O278 1.252 . S
O287 In276 2.294 . S
O287 C280 1.240 . S
O288 In276 2.326 . S
O288 C280 1.252 . S
In289 O290 2.294 . S
In289 O291 2.326 . S
In289 O295 2.266 . S
In289 O296 2.326 . S
In289 O297 2.266 . S
In289 O298 2.326 . S
In289 O300 2.294 . S
In289 O301 2.326 . S
O290 In289 2.294 . S
O290 C299 1.240 . S
O291 In289 2.326 . S
O291 C299 1.252 . S
C292 O295 1.252 . S
C292 O296 1.260 . S
C293 O300 1.240 . S
C293 O301 1.252 . S
C294 O297 1.252 . S
C294 O298 1.260 . S
O295 In289 2.266 . S
O295 C292 1.252 . S
O296 In289 2.326 . S
O296 C292 1.260 . S
O297 In289 2.266 . S
O297 C294 1.252 . S
O298 In289 2.326 . S
O298 C294 1.260 . S
C299 O290 1.240 . S
C299 O291 1.252 . S
O300 In289 2.294 . S
O300 C293 1.240 . S
O301 In289 2.326 . S
O301 C293 1.252 . S
In302 O303 2.294 . S
In302 O304 2.326 . S
In302 O308 2.266 . S
In302 O309 2.326 . S
In302 O310 2.266 . S
In302 O311 2.326 . S
In302 O313 2.294 . S
In302 O314 2.326 . S
O303 In302 2.294 . S
O303 C312 1.240 . S
O304 In302 2.326 . S
O304 C312 1.252 . S
C305 O308 1.252 . S
C305 O309 1.260 . S
C306 O313 1.240 . S
C306 O314 1.252 . S
C307 O310 1.252 . S
C307 O311 1.260 . S
O308 In302 2.266 . S
O308 C305 1.252 . S
O309 In302 2.326 . S
O309 C305 1.260 . S
O310 In302 2.266 . S
O310 C307 1.252 . S
O311 In302 2.326 . S
O311 C307 1.260 . S
C312 O303 1.240 . S
C312 O304 1.252 . S
O313 In302 2.294 . S
O313 C306 1.240 . S
O314 In302 2.326 . S
O314 C306 1.252 . S
In315 O316 2.294 . S
In315 O317 2.326 . S
In315 O321 2.266 . S
In315 O322 2.326 . S
In315 O323 2.266 . S
In315 O324 2.326 . S
In315 O326 2.294 . S
In315 O327 2.326 . S
O316 In315 2.294 . S
O316 C325 1.240 . S
O317 In315 2.326 . S
O317 C325 1.252 . S
C318 O321 1.252 . S
C318 O322 1.260 . S
C319 O326 1.240 . S
C319 O327 1.252 . S
C320 O323 1.252 . S
C320 O324 1.260 . S
O321 In315 2.266 . S
O321 C318 1.252 . S
O322 In315 2.326 . S
O322 C318 1.260 . S
O323 In315 2.266 . S
O323 C320 1.252 . S
O324 In315 2.326 . S
O324 C320 1.260 . S
C325 O316 1.240 . S
C325 O317 1.252 . S
O326 In315 2.294 . S
O326 C319 1.240 . S
O327 In315 2.326 . S
O327 C319 1.252 . S
In328 O329 2.294 . S
In328 O330 2.326 . S
In328 O334 2.266 . S
In328 O335 2.326 . S
In328 O336 2.266 . S
In328 O337 2.326 . S
In328 O339 2.294 . S
In328 O340 2.326 . S
O329 In328 2.294 . S
O329 C338 1.240 . S
O330 In328 2.326 . S
O330 C338 1.252 . S
C331 O334 1.252 . S
C331 O335 1.260 . S
C332 O339 1.240 . S
C332 O340 1.252 . S
C333 O336 1.252 . S
C333 O337 1.260 . S
O334 In328 2.266 . S
O334 C331 1.252 . S
O335 In328 2.326 . S
O335 C331 1.260 . S
O336 In328 2.266 . S
O336 C333 1.252 . S
O337 In328 2.326 . S
O337 C333 1.260 . S
C338 O329 1.240 . S
C338 O330 1.252 . S
O339 In328 2.294 . S
O339 C332 1.240 . S
O340 In328 2.326 . S
O340 C332 1.252 . S
In341 O342 2.294 . S
In341 O343 2.326 . S
In341 O347 2.266 . S
In341 O348 2.326 . S
In341 O349 2.266 . S
In341 O350 2.326 . S
In341 O352 2.294 . S
In341 O353 2.326 . S
O342 In341 2.294 . S
O342 C351 1.240 . S
O343 In341 2.326 . S
O343 C351 1.252 . S
C344 O347 1.252 . S
C344 O348 1.260 . S
C345 O352 1.240 . S
C345 O353 1.252 . S
C346 O349 1.252 . S
C346 O350 1.260 . S
O347 In341 2.266 . S
O347 C344 1.252 . S
O348 In341 2.326 . S
O348 C344 1.260 . S
O349 In341 2.266 . S
O349 C346 1.252 . S
O350 In341 2.326 . S
O350 C346 1.260 . S
C351 O342 1.240 . S
C351 O343 1.252 . S
O352 In341 2.294 . S
O352 C345 1.240 . S
O353 In341 2.326 . S
O353 C345 1.252 . S
H354 C360 0.930 . S
H355 C364 0.930 . S
H356 C369 0.929 . S
H357 C367 0.929 . S
H358 C362 0.929 . S
H359 C368 0.929 . S
C360 H354 0.930 . S
C360 C361 1.367 . S
C360 C368 1.378 . S
C361 C360 1.367 . S
C361 C369 1.433 . S
C362 H358 0.929 . S
C362 C364 1.378 . S
C362 C366 1.350 . S
C363 C366 1.463 . S
C363 C368 1.350 . S
C363 N371 1.427 . S
C364 H355 0.930 . S
C364 C362 1.378 . S
C364 C365 1.367 . S
C365 C364 1.367 . S
C365 C367 1.433 . S
C366 C362 1.350 . S
C366 C363 1.463 . S
C366 N370 1.427 . S
C367 H357 0.929 . S
C367 C365 1.433 . S
C367 N370 1.384 . S
C368 H359 0.929 . S
C368 C360 1.378 . S
C368 C363 1.350 . S
C369 H356 0.929 . S
C369 C361 1.433 . S
C369 N371 1.384 . S
N370 C366 1.427 . S
N370 C367 1.384 . S
N371 C363 1.427 . S
N371 C369 1.384 . S
H372 C378 0.930 . S
H373 C382 0.930 . S
H374 C387 0.929 . S
H375 C385 0.929 . S
H376 C380 0.929 . S
H377 C386 0.929 . S
C378 H372 0.930 . S
C378 C379 1.367 . S
C378 C386 1.378 . S
C379 C378 1.367 . S
C379 C387 1.433 . S
C380 H376 0.929 . S
C380 C382 1.378 . S
C380 C384 1.350 . S
C381 C384 1.463 . S
C381 C386 1.350 . S
C381 N389 1.427 . S
C382 H373 0.930 . S
C382 C380 1.378 . S
C382 C383 1.367 . S
C383 C382 1.367 . S
C383 C385 1.433 . S
C384 C380 1.350 . S
C384 C381 1.463 . S
C384 N388 1.427 . S
C385 H375 0.929 . S
C385 C383 1.433 . S
C385 N388 1.384 . S
C386 H377 0.929 . S
C386 C378 1.378 . S
C386 C381 1.350 . S
C387 H374 0.929 . S
C387 C379 1.433 . S
C387 N389 1.384 . S
N388 C384 1.427 . S
N388 C385 1.384 . S
N389 C381 1.427 . S
N389 C387 1.384 . S
H390 C396 0.930 . S
H391 C400 0.930 . S
H392 C405 0.929 . S
H393 C403 0.929 . S
H394 C398 0.929 . S
H395 C404 0.929 . S
C396 H390 0.930 . S
C396 C397 1.367 . S
C396 C404 1.378 . S
C397 C396 1.367 . S
C397 C405 1.433 . S
C398 H394 0.929 . S
C398 C400 1.378 . S
C398 C402 1.350 . S
C399 C402 1.463 . S
C399 C404 1.350 . S
C399 N407 1.427 . S
C400 H391 0.930 . S
C400 C398 1.378 . S
C400 C401 1.367 . S
C401 C400 1.367 . S
C401 C403 1.433 . S
C402 C398 1.350 . S
C402 C399 1.463 . S
C402 N406 1.427 . S
C403 H393 0.929 . S
C403 C401 1.433 . S
C403 N406 1.384 . S
C404 H395 0.929 . S
C404 C396 1.378 . S
C404 C399 1.350 . S
C405 H392 0.929 . S
C405 C397 1.433 . S
C405 N407 1.384 . S
N406 C402 1.427 . S
N406 C403 1.384 . S
N407 C399 1.427 . S
N407 C405 1.384 . S
H408 C414 0.930 . S
H409 C418 0.930 . S
H410 C423 0.929 . S
H411 C421 0.929 . S
H412 C416 0.929 . S
H413 C422 0.929 . S
C414 H408 0.930 . S
C414 C415 1.367 . S
C414 C422 1.378 . S
C415 C414 1.367 . S
C415 C423 1.433 . S
C416 H412 0.929 . S
C416 C418 1.378 . S
C416 C420 1.350 . S
C417 C420 1.463 . S
C417 C422 1.350 . S
C417 N425 1.427 . S
C418 H409 0.930 . S
C418 C416 1.378 . S
C418 C419 1.367 . S
C419 C418 1.367 . S
C419 C421 1.433 . S
C420 C416 1.350 . S
C420 C417 1.463 . S
C420 N424 1.427 . S
C421 H411 0.929 . S
C421 C419 1.433 . S
C421 N424 1.384 . S
C422 H413 0.929 . S
C422 C414 1.378 . S
C422 C417 1.350 . S
C423 H410 0.929 . S
C423 C415 1.433 . S
C423 N425 1.384 . S
N424 C420 1.427 . S
N424 C421 1.384 . S
N425 C417 1.427 . S
N425 C423 1.384 . S
H426 C432 0.930 . S
H427 C436 0.930 . S
H428 C441 0.929 . S
H429 C439 0.929 . S
H430 C434 0.929 . S
H431 C440 0.929 . S
C432 H426 0.930 . S
C432 C433 1.367 . S
C432 C440 1.378 . S
C433 C432 1.367 . S
C433 C441 1.433 . S
C434 H430 0.929 . S
C434 C436 1.378 . S
C434 C438 1.350 . S
C435 C438 1.463 . S
C435 C440 1.350 . S
C435 N443 1.427 . S
C436 H427 0.930 . S
C436 C434 1.378 . S
C436 C437 1.367 . S
C437 C436 1.367 . S
C437 C439 1.433 . S
C438 C434 1.350 . S
C438 C435 1.463 . S
C438 N442 1.427 . S
C439 H429 0.929 . S
C439 C437 1.433 . S
C439 N442 1.384 . S
C440 H431 0.929 . S
C440 C432 1.378 . S
C440 C435 1.350 . S
C441 H428 0.929 . S
C441 C433 1.433 . S
C441 N443 1.384 . S
N442 C438 1.427 . S
N442 C439 1.384 . S
N443 C435 1.427 . S
N443 C441 1.384 . S
H444 C450 0.930 . S
H445 C454 0.930 . S
H446 C459 0.929 . S
H447 C457 0.929 . S
H448 C452 0.929 . S
H449 C458 0.929 . S
C450 H444 0.930 . S
C450 C451 1.367 . S
C450 C458 1.378 . S
C451 C450 1.367 . S
C451 C459 1.433 . S
C452 H448 0.929 . S
C452 C454 1.378 . S
C452 C456 1.350 . S
C453 C456 1.463 . S
C453 C458 1.350 . S
C453 N461 1.427 . S
C454 H445 0.930 . S
C454 C452 1.378 . S
C454 C455 1.367 . S
C455 C454 1.367 . S
C455 C457 1.433 . S
C456 C452 1.350 . S
C456 C453 1.463 . S
C456 N460 1.427 . S
C457 H447 0.929 . S
C457 C455 1.433 . S
C457 N460 1.384 . S
C458 H449 0.929 . S
C458 C450 1.378 . S
C458 C453 1.350 . S
C459 H446 0.929 . S
C459 C451 1.433 . S
C459 N461 1.384 . S
N460 C456 1.427 . S
N460 C457 1.384 . S
N461 C453 1.427 . S
N461 C459 1.384 . S
H462 C468 0.930 . S
H463 C472 0.930 . S
H464 C477 0.929 . S
H465 C475 0.929 . S
H466 C470 0.929 . S
H467 C476 0.929 . S
C468 H462 0.930 . S
C468 C469 1.367 . S
C468 C476 1.378 . S
C469 C468 1.367 . S
C469 C477 1.433 . S
C470 H466 0.929 . S
C470 C472 1.378 . S
C470 C474 1.350 . S
C471 C474 1.463 . S
C471 C476 1.350 . S
C471 N479 1.427 . S
C472 H463 0.930 . S
C472 C470 1.378 . S
C472 C473 1.367 . S
C473 C472 1.367 . S
C473 C475 1.433 . S
C474 C470 1.350 . S
C474 C471 1.463 . S
C474 N478 1.427 . S
C475 H465 0.929 . S
C475 C473 1.433 . S
C475 N478 1.384 . S
C476 H467 0.929 . S
C476 C468 1.378 . S
C476 C471 1.350 . S
C477 H464 0.929 . S
C477 C469 1.433 . S
C477 N479 1.384 . S
N478 C474 1.427 . S
N478 C475 1.384 . S
N479 C471 1.427 . S
N479 C477 1.384 . S
H480 C486 0.930 . S
H481 C490 0.930 . S
H482 C495 0.929 . S
H483 C493 0.929 . S
H484 C488 0.929 . S
H485 C494 0.929 . S
C486 H480 0.930 . S
C486 C487 1.367 . S
C486 C494 1.378 . S
C487 C486 1.367 . S
C487 C495 1.433 . S
C488 H484 0.929 . S
C488 C490 1.378 . S
C488 C492 1.350 . S
C489 C492 1.463 . S
C489 C494 1.350 . S
C489 N497 1.427 . S
C490 H481 0.930 . S
C490 C488 1.378 . S
C490 C491 1.367 . S
C491 C490 1.367 . S
C491 C493 1.433 . S
C492 C488 1.350 . S
C492 C489 1.463 . S
C492 N496 1.427 . S
C493 H483 0.929 . S
C493 C491 1.433 . S
C493 N496 1.384 . S
C494 H485 0.929 . S
C494 C486 1.378 . S
C494 C489 1.350 . S
C495 H482 0.929 . S
C495 C487 1.433 . S
C495 N497 1.384 . S
N496 C492 1.427 . S
N496 C493 1.384 . S
N497 C489 1.427 . S
N497 C495 1.384 . S
H498 C504 0.930 . S
H499 C508 0.930 . S
H500 C513 0.929 . S
H501 C511 0.929 . S
H502 C506 0.929 . S
H503 C512 0.929 . S
C504 H498 0.930 . S
C504 C505 1.367 . S
C504 C512 1.378 . S
C505 C504 1.367 . S
C505 C513 1.433 . S
C506 H502 0.929 . S
C506 C508 1.378 . S
C506 C510 1.350 . S
C507 C510 1.463 . S
C507 C512 1.350 . S
C507 N515 1.427 . S
C508 H499 0.930 . S
C508 C506 1.378 . S
C508 C509 1.367 . S
C509 C508 1.367 . S
C509 C511 1.433 . S
C510 C506 1.350 . S
C510 C507 1.463 . S
C510 N514 1.427 . S
C511 H501 0.929 . S
C511 C509 1.433 . S
C511 N514 1.384 . S
C512 H503 0.929 . S
C512 C504 1.378 . S
C512 C507 1.350 . S
C513 H500 0.929 . S
C513 C505 1.433 . S
C513 N515 1.384 . S
N514 C510 1.427 . S
N514 C511 1.384 . S
N515 C507 1.427 . S
N515 C513 1.384 . S
H516 C522 0.930 . S
H517 C526 0.930 . S
H518 C531 0.929 . S
H519 C529 0.929 . S
H520 C524 0.929 . S
H521 C530 0.929 . S
C522 H516 0.930 . S
C522 C523 1.367 . S
C522 C530 1.378 . S
C523 C522 1.367 . S
C523 C531 1.433 . S
C524 H520 0.929 . S
C524 C526 1.378 . S
C524 C528 1.350 . S
C525 C528 1.463 . S
C525 C530 1.350 . S
C525 N533 1.427 . S
C526 H517 0.930 . S
C526 C524 1.378 . S
C526 C527 1.367 . S
C527 C526 1.367 . S
C527 C529 1.433 . S
C528 C524 1.350 . S
C528 C525 1.463 . S
C528 N532 1.427 . S
C529 H519 0.929 . S
C529 C527 1.433 . S
C529 N532 1.384 . S
C530 H521 0.929 . S
C530 C522 1.378 . S
C530 C525 1.350 . S
C531 H518 0.929 . S
C531 C523 1.433 . S
C531 N533 1.384 . S
N532 C528 1.427 . S
N532 C529 1.384 . S
N533 C525 1.427 . S
N533 C531 1.384 . S
H534 C540 0.930 . S
H535 C544 0.930 . S
H536 C549 0.929 . S
H537 C547 0.929 . S
H538 C542 0.929 . S
H539 C548 0.929 . S
C540 H534 0.930 . S
C540 C541 1.367 . S
C540 C548 1.378 . S
C541 C540 1.367 . S
C541 C549 1.433 . S
C542 H538 0.929 . S
C542 C544 1.378 . S
C542 C546 1.350 . S
C543 C546 1.463 . S
C543 C548 1.350 . S
C543 N551 1.427 . S
C544 H535 0.930 . S
C544 C542 1.378 . S
C544 C545 1.367 . S
C545 C544 1.367 . S
C545 C547 1.433 . S
C546 C542 1.350 . S
C546 C543 1.463 . S
C546 N550 1.427 . S
C547 H537 0.929 . S
C547 C545 1.433 . S
C547 N550 1.384 . S
C548 H539 0.929 . S
C548 C540 1.378 . S
C548 C543 1.350 . S
C549 H536 0.929 . S
C549 C541 1.433 . S
C549 N551 1.384 . S
N550 C546 1.427 . S
N550 C547 1.384 . S
N551 C543 1.427 . S
N551 C549 1.384 . S
H552 C558 0.930 . S
H553 C562 0.930 . S
H554 C567 0.929 . S
H555 C565 0.929 . S
H556 C560 0.929 . S
H557 C566 0.929 . S
C558 H552 0.930 . S
C558 C559 1.367 . S
C558 C566 1.378 . S
C559 C558 1.367 . S
C559 C567 1.433 . S
C560 H556 0.929 . S
C560 C562 1.378 . S
C560 C564 1.350 . S
C561 C564 1.463 . S
C561 C566 1.350 . S
C561 N569 1.427 . S
C562 H553 0.930 . S
C562 C560 1.378 . S
C562 C563 1.367 . S
C563 C562 1.367 . S
C563 C565 1.433 . S
C564 C560 1.350 . S
C564 C561 1.463 . S
C564 N568 1.427 . S
C565 H555 0.929 . S
C565 C563 1.433 . S
C565 N568 1.384 . S
C566 H557 0.929 . S
C566 C558 1.378 . S
C566 C561 1.350 . S
C567 H554 0.929 . S
C567 C559 1.433 . S
C567 N569 1.384 . S
N568 C564 1.427 . S
N568 C565 1.384 . S
N569 C561 1.427 . S
N569 C567 1.384 . S
H570 C576 0.930 . S
H571 C580 0.930 . S
H572 C585 0.929 . S
H573 C583 0.929 . S
H574 C578 0.929 . S
H575 C584 0.929 . S
C576 H570 0.930 . S
C576 C577 1.367 . S
C576 C584 1.378 . S
C577 C576 1.367 . S
C577 C585 1.433 . S
C578 H574 0.929 . S
C578 C580 1.378 . S
C578 C582 1.350 . S
C579 C582 1.463 . S
C579 C584 1.350 . S
C579 N587 1.427 . S
C580 H571 0.930 . S
C580 C578 1.378 . S
C580 C581 1.367 . S
C581 C580 1.367 . S
C581 C583 1.433 . S
C582 C578 1.350 . S
C582 C579 1.463 . S
C582 N586 1.427 . S
C583 H573 0.929 . S
C583 C581 1.433 . S
C583 N586 1.384 . S
C584 H575 0.929 . S
C584 C576 1.378 . S
C584 C579 1.350 . S
C585 H572 0.929 . S
C585 C577 1.433 . S
C585 N587 1.384 . S
N586 C582 1.427 . S
N586 C583 1.384 . S
N587 C579 1.427 . S
N587 C585 1.384 . S
H588 C594 0.930 . S
H589 C598 0.930 . S
H590 C603 0.929 . S
H591 C601 0.929 . S
H592 C596 0.929 . S
H593 C602 0.929 . S
C594 H588 0.930 . S
C594 C595 1.367 . S
C594 C602 1.378 . S
C595 C594 1.367 . S
C595 C603 1.433 . S
C596 H592 0.929 . S
C596 C598 1.378 . S
C596 C600 1.350 . S
C597 C600 1.463 . S
C597 C602 1.350 . S
C597 N605 1.427 . S
C598 H589 0.930 . S
C598 C596 1.378 . S
C598 C599 1.367 . S
C599 C598 1.367 . S
C599 C601 1.433 . S
C600 C596 1.350 . S
C600 C597 1.463 . S
C600 N604 1.427 . S
C601 H591 0.929 . S
C601 C599 1.433 . S
C601 N604 1.384 . S
C602 H593 0.929 . S
C602 C594 1.378 . S
C602 C597 1.350 . S
C603 H590 0.929 . S
C603 C595 1.433 . S
C603 N605 1.384 . S
N604 C600 1.427 . S
N604 C601 1.384 . S
N605 C597 1.427 . S
N605 C603 1.384 . S
H606 C612 0.930 . S
H607 C616 0.930 . S
H608 C621 0.929 . S
H609 C619 0.929 . S
H610 C614 0.929 . S
H611 C620 0.929 . S
C612 H606 0.930 . S
C612 C613 1.367 . S
C612 C620 1.378 . S
C613 C612 1.367 . S
C613 C621 1.433 . S
C614 H610 0.929 . S
C614 C616 1.378 . S
C614 C618 1.350 . S
C615 C618 1.463 . S
C615 C620 1.350 . S
C615 N623 1.427 . S
C616 H607 0.930 . S
C616 C614 1.378 . S
C616 C617 1.367 . S
C617 C616 1.367 . S
C617 C619 1.433 . S
C618 C614 1.350 . S
C618 C615 1.463 . S
C618 N622 1.427 . S
C619 H609 0.929 . S
C619 C617 1.433 . S
C619 N622 1.384 . S
C620 H611 0.929 . S
C620 C612 1.378 . S
C620 C615 1.350 . S
C621 H608 0.929 . S
C621 C613 1.433 . S
C621 N623 1.384 . S
N622 C618 1.427 . S
N622 C619 1.384 . S
N623 C615 1.427 . S
N623 C621 1.384 . S
H624 C630 0.930 . S
H625 C634 0.930 . S
H626 C639 0.929 . S
H627 C637 0.929 . S
H628 C632 0.929 . S
H629 C638 0.929 . S
C630 H624 0.930 . S
C630 C631 1.367 . S
C630 C638 1.378 . S
C631 C630 1.367 . S
C631 C639 1.433 . S
C632 H628 0.929 . S
C632 C634 1.378 1_556 S
C632 C636 1.350 . S
C633 C636 1.463 . S
C633 C638 1.350 . S
C633 N641 1.427 . S
C634 H625 0.930 . S
C634 C632 1.378 1_554 S
C634 C635 1.367 . S
C635 C634 1.367 . S
C635 C637 1.433 . S
C636 C632 1.350 . S
C636 C633 1.463 . S
C636 N640 1.427 . S
C637 H627 0.929 . S
C637 C635 1.433 . S
C637 N640 1.384 1_554 S
C638 H629 0.929 . S
C638 C630 1.378 . S
C638 C633 1.350 . S
C639 H626 0.929 . S
C639 C631 1.433 . S
C639 N641 1.384 . S
N640 C636 1.427 . S
N640 C637 1.384 1_556 S
N641 C633 1.427 . S
N641 C639 1.384 . S
H642 C648 0.930 . S
H643 C652 0.930 . S
H644 C657 0.929 . S
H645 C655 0.929 . S
H646 C650 0.929 . S
H647 C656 0.929 . S
C648 H642 0.930 . S
C648 C649 1.367 . S
C648 C656 1.378 . S
C649 C648 1.367 . S
C649 C657 1.433 . S
C650 H646 0.929 . S
C650 C652 1.378 . S
C650 C654 1.350 . S
C651 C654 1.463 . S
C651 C656 1.350 . S
C651 N659 1.427 . S
C652 H643 0.930 . S
C652 C650 1.378 . S
C652 C653 1.367 . S
C653 C652 1.367 . S
C653 C655 1.433 . S
C654 C650 1.350 . S
C654 C651 1.463 . S
C654 N658 1.427 . S
C655 H645 0.929 . S
C655 C653 1.433 . S
C655 N658 1.384 . S
C656 H647 0.929 . S
C656 C648 1.378 . S
C656 C651 1.350 . S
C657 H644 0.929 . S
C657 C649 1.433 . S
C657 N659 1.384 . S
N658 C654 1.427 . S
N658 C655 1.384 . S
N659 C651 1.427 . S
N659 C657 1.384 . S
H660 C666 0.930 . S
H661 C670 0.930 . S
H662 C675 0.929 . S
H663 C673 0.929 . S
H664 C668 0.929 . S
H665 C674 0.929 . S
C666 H660 0.930 . S
C666 C667 1.367 . S
C666 C674 1.378 . S
C667 C666 1.367 . S
C667 C675 1.433 . S
C668 H664 0.929 . S
C668 C670 1.378 . S
C668 C672 1.350 . S
C669 C672 1.463 . S
C669 C674 1.350 . S
C669 N677 1.427 . S
C670 H661 0.930 . S
C670 C668 1.378 . S
C670 C671 1.367 . S
C671 C670 1.367 . S
C671 C673 1.433 . S
C672 C668 1.350 . S
C672 C669 1.463 . S
C672 N676 1.427 . S
C673 H663 0.929 . S
C673 C671 1.433 . S
C673 N676 1.384 . S
C674 H665 0.929 . S
C674 C666 1.378 . S
C674 C669 1.350 . S
C675 H662 0.929 . S
C675 C667 1.433 . S
C675 N677 1.384 . S
N676 C672 1.427 . S
N676 C673 1.384 . S
N677 C669 1.427 . S
N677 C675 1.384 . S
H678 C684 0.930 . S
H679 C688 0.930 . S
H680 C693 0.929 . S
H681 C691 0.929 . S
H682 C686 0.929 . S
H683 C692 0.929 . S
C684 H678 0.930 . S
C684 C685 1.367 . S
C684 C692 1.378 . S
C685 C684 1.367 . S
C685 C693 1.433 . S
C686 H682 0.929 . S
C686 C688 1.378 . S
C686 C690 1.350 . S
C687 C690 1.463 . S
C687 C692 1.350 . S
C687 N695 1.427 . S
C688 H679 0.930 . S
C688 C686 1.378 . S
C688 C689 1.367 . S
C689 C688 1.367 . S
C689 C691 1.433 . S
C690 C686 1.350 . S
C690 C687 1.463 . S
C690 N694 1.427 . S
C691 H681 0.929 . S
C691 C689 1.433 . S
C691 N694 1.384 . S
C692 H683 0.929 . S
C692 C684 1.378 . S
C692 C687 1.350 . S
C693 H680 0.929 . S
C693 C685 1.433 . S
C693 N695 1.384 . S
N694 C690 1.427 . S
N694 C691 1.384 . S
N695 C687 1.427 . S
N695 C693 1.384 . S
H696 C702 0.930 . S
H697 C706 0.930 . S
H698 C711 0.929 . S
H699 C709 0.929 . S
H700 C704 0.929 . S
H701 C710 0.929 . S
C702 H696 0.930 . S
C702 C703 1.367 . S
C702 C710 1.378 . S
C703 C702 1.367 . S
C703 C711 1.433 . S
C704 H700 0.929 . S
C704 C706 1.378 . S
C704 C708 1.350 . S
C705 C708 1.463 . S
C705 C710 1.350 . S
C705 N713 1.427 . S
C706 H697 0.930 . S
C706 C704 1.378 . S
C706 C707 1.367 . S
C707 C706 1.367 . S
C707 C709 1.433 . S
C708 C704 1.350 . S
C708 C705 1.463 . S
C708 N712 1.427 . S
C709 H699 0.929 . S
C709 C707 1.433 . S
C709 N712 1.384 . S
C710 H701 0.929 . S
C710 C702 1.378 . S
C710 C705 1.350 . S
C711 H698 0.929 . S
C711 C703 1.433 . S
C711 N713 1.384 . S
N712 C708 1.427 . S
N712 C709 1.384 . S
N713 C705 1.427 . S
N713 C711 1.384 . S
H714 C720 0.930 . S
H715 C724 0.930 . S
H716 C729 0.929 . S
H717 C727 0.929 . S
H718 C722 0.929 . S
H719 C728 0.929 . S
C720 H714 0.930 . S
C720 C721 1.367 . S
C720 C728 1.378 . S
C721 C720 1.367 . S
C721 C729 1.433 . S
C722 H718 0.929 . S
C722 C724 1.378 . S
C722 C726 1.350 . S
C723 C726 1.463 . S
C723 C728 1.350 . S
C723 N731 1.427 . S
C724 H715 0.930 . S
C724 C722 1.378 . S
C724 C725 1.367 . S
C725 C724 1.367 . S
C725 C727 1.433 . S
C726 C722 1.350 . S
C726 C723 1.463 . S
C726 N730 1.427 . S
C727 H717 0.929 . S
C727 C725 1.433 . S
C727 N730 1.384 . S
C728 H719 0.929 . S
C728 C720 1.378 . S
C728 C723 1.350 . S
C729 H716 0.929 . S
C729 C721 1.433 . S
C729 N731 1.384 . S
N730 C726 1.427 . S
N730 C727 1.384 . S
N731 C723 1.427 . S
N731 C729 1.384 . S
H732 C738 0.930 . S
H733 C742 0.930 . S
H734 C747 0.929 . S
H735 C745 0.929 . S
H736 C740 0.929 . S
H737 C746 0.929 . S
C738 H732 0.930 . S
C738 C739 1.367 . S
C738 C746 1.378 . S
C739 C738 1.367 . S
C739 C747 1.433 . S
C740 H736 0.929 . S
C740 C742 1.378 . S
C740 C744 1.350 . S
C741 C744 1.463 . S
C741 C746 1.350 . S
C741 N749 1.427 . S
C742 H733 0.930 . S
C742 C740 1.378 . S
C742 C743 1.367 . S
C743 C742 1.367 . S
C743 C745 1.433 . S
C744 C740 1.350 . S
C744 C741 1.463 . S
C744 N748 1.427 . S
C745 H735 0.929 . S
C745 C743 1.433 . S
C745 N748 1.384 . S
C746 H737 0.929 . S
C746 C738 1.378 . S
C746 C741 1.350 . S
C747 H734 0.929 . S
C747 C739 1.433 . S
C747 N749 1.384 . S
N748 C744 1.427 . S
N748 C745 1.384 . S
N749 C741 1.427 . S
N749 C747 1.384 . S
H750 C756 0.930 . S
H751 C760 0.930 . S
H752 C765 0.929 . S
H753 C763 0.929 . S
H754 C758 0.928 . S
H755 C764 0.929 . S
C756 H750 0.930 . S
C756 C757 1.367 . S
C756 C764 1.378 . S
C757 C756 1.367 . S
C757 C765 1.433 . S
C758 H754 0.928 . S
C758 C760 1.379 1_554 S
C758 C762 1.350 . S
C759 C762 1.463 . S
C759 C764 1.350 . S
C759 N767 1.427 . S
C760 H751 0.930 . S
C760 C758 1.379 1_556 S
C760 C761 1.367 . S
C761 C760 1.367 . S
C761 C763 1.433 . S
C762 C758 1.350 . S
C762 C759 1.463 . S
C762 N766 1.427 1_554 S
C763 H753 0.929 . S
C763 C761 1.433 . S
C763 N766 1.384 . S
C764 H755 0.929 . S
C764 C756 1.378 . S
C764 C759 1.350 . S
C765 H752 0.929 . S
C765 C757 1.433 . S
C765 N767 1.384 . S
N766 C762 1.427 1_556 S
N766 C763 1.384 . S
N767 C759 1.427 . S
N767 C765 1.384 . S
H768 C774 0.930 . S
H769 C778 0.930 . S
H770 C783 0.929 . S
H771 C781 0.929 . S
H772 C776 0.929 . S
H773 C782 0.929 . S
C774 H768 0.930 . S
C774 C775 1.367 . S
C774 C782 1.378 . S
C775 C774 1.367 . S
C775 C783 1.433 . S
C776 H772 0.929 . S
C776 C778 1.378 . S
C776 C780 1.350 . S
C777 C780 1.463 . S
C777 C782 1.350 . S
C777 N785 1.427 . S
C778 H769 0.930 . S
C778 C776 1.378 . S
C778 C779 1.367 . S
C779 C778 1.367 . S
C779 C781 1.433 . S
C780 C776 1.350 . S
C780 C777 1.463 . S
C780 N784 1.427 . S
C781 H771 0.929 . S
C781 C779 1.433 . S
C781 N784 1.384 . S
C782 H773 0.929 . S
C782 C774 1.378 . S
C782 C777 1.350 . S
C783 H770 0.929 . S
C783 C775 1.433 . S
C783 N785 1.384 . S
N784 C780 1.427 . S
N784 C781 1.384 . S
N785 C777 1.427 . S
N785 C783 1.384 . S
C365 C346 1.566 . S
C361 C15 1.555 . S
C379 C61 1.558 . S
C383 C281 1.567 . S
C397 C114 1.553 . S
C401 C299 1.566 . S
C415 C139 1.551 . S
C419 C312 1.556 . S
C437 C320 1.569 . S
C433 C185 1.565 . S
C451 C245 1.552 . S
C455 C332 1.564 . S
C469 C47 1.564 . S
C473 C294 1.567 . S
C487 C100 1.564 . S
C491 C307 1.566 . S
C505 C153 1.554 . S
C509 C325 1.564 . S
C527 C331 1.569 . S
C523 C199 1.557 . S
C545 C351 1.557 . S
C541 C231 1.553 . S
C563 C286 1.566 . S
C559 C1 1.560 . S
C577 C22 1.569 . S
C581 C292 1.583 . S
C595 C68 1.574 . S
C599 C305 1.588 . S
C617 C319 1.585 . S
C613 C107 1.571 . S
C631 C146 1.583 . S
C635 C333 1.589 . S
C653 C345 1.580 . S
C649 C192 1.575 . S
C671 C280 1.582 . S
C667 C252 1.574 . S
C689 C344 1.590 . S
C685 C54 1.586 . S
C703 C93 1.581 . S
C707 C279 1.586 . S
C725 C293 1.581 . S
C721 C160 1.568 . S
C739 C206 1.564 . S
C743 C306 1.577 . S
C757 C238 1.585 . S
C761 C318 1.589 . S
C775 C8 1.577 . S
C779 C338 1.582 . S
