# Generated by pormake.
# Topology ctn, (3,4)-cn, num edge types: 1
# Building blocks:
#     Node 0, Type 0, BuildingBlock: ESEHIV_clean_linker_0, # of connection points: 3
#     Node 1, Type 0, BuildingBlock: ESEHIV_clean_linker_0, # of connection points: 3
#     Node 2, Type 0, BuildingBlock: ESEHIV_clean_linker_0, # of connection points: 3
#     Node 3, Type 0, BuildingBlock: ESEHIV_clean_linker_0, # of connection points: 3
#     Node 4, Type 0, BuildingBlock: ESEHIV_clean_linker_0, # of connection points: 3
#     Node 5, Type 0, BuildingBlock: ESEHIV_clean_linker_0, # of connection points: 3
#     Node 6, Type 0, BuildingBlock: ESEHIV_clean_linker_0, # of connection points: 3
#     Node 7, Type 0, BuildingBlock: ESEHIV_clean_linker_0, # of connection points: 3
#     Node 8, Type 0, BuildingBlock: ESEHIV_clean_linker_0, # of connection points: 3
#     Node 9, Type 0, BuildingBlock: ESEHIV_clean_linker_0, # of connection points: 3
#     Node 10, Type 0, BuildingBlock: ESEHIV_clean_linker_0, # of connection points: 3
#     Node 11, Type 0, BuildingBlock: ESEHIV_clean_linker_0, # of connection points: 3
#     Node 12, Type 0, BuildingBlock: ESEHIV_clean_linker_0, # of connection points: 3
#     Node 13, Type 0, BuildingBlock: ESEHIV_clean_linker_0, # of connection points: 3
#     Node 14, Type 0, BuildingBlock: ESEHIV_clean_linker_0, # of connection points: 3
#     Node 15, Type 0, BuildingBlock: ESEHIV_clean_linker_0, # of connection points: 3
#     Node 16, Type 1, BuildingBlock: NAHDIM_clean_sbu_0, # of connection points: 4
#     Node 17, Type 1, BuildingBlock: NAHDIM_clean_sbu_0, # of connection points: 4
#     Node 18, Type 1, BuildingBlock: NAHDIM_clean_sbu_0, # of connection points: 4
#     Node 19, Type 1, BuildingBlock: NAHDIM_clean_sbu_0, # of connection points: 4
#     Node 20, Type 1, BuildingBlock: NAHDIM_clean_sbu_0, # of connection points: 4
#     Node 21, Type 1, BuildingBlock: NAHDIM_clean_sbu_0, # of connection points: 4
#     Node 22, Type 1, BuildingBlock: NAHDIM_clean_sbu_0, # of connection points: 4
#     Node 23, Type 1, BuildingBlock: NAHDIM_clean_sbu_0, # of connection points: 4
#     Node 24, Type 1, BuildingBlock: NAHDIM_clean_sbu_0, # of connection points: 4
#     Node 25, Type 1, BuildingBlock: NAHDIM_clean_sbu_0, # of connection points: 4
#     Node 26, Type 1, BuildingBlock: NAHDIM_clean_sbu_0, # of connection points: 4
#     Node 27, Type 1, BuildingBlock: NAHDIM_clean_sbu_0, # of connection points: 4
#     Edge 28, Type (0, 1), BuildingBlock: EZIPEK_clean_linker_0, # of connection points: 2
#     Edge 29, Type (0, 1), BuildingBlock: EZIPEK_clean_linker_0, # of connection points: 2
#     Edge 30, Type (0, 1), BuildingBlock: EZIPEK_clean_linker_0, # of connection points: 2
#     Edge 31, Type (0, 1), BuildingBlock: EZIPEK_clean_linker_0, # of connection points: 2
#     Edge 32, Type (0, 1), BuildingBlock: EZIPEK_clean_linker_0, # of connection points: 2
#     Edge 33, Type (0, 1), BuildingBlock: EZIPEK_clean_linker_0, # of connection points: 2
#     Edge 34, Type (0, 1), BuildingBlock: EZIPEK_clean_linker_0, # of connection points: 2
#     Edge 35, Type (0, 1), BuildingBlock: EZIPEK_clean_linker_0, # of connection points: 2
#     Edge 36, Type (0, 1), BuildingBlock: EZIPEK_clean_linker_0, # of connection points: 2
#     Edge 37, Type (0, 1), BuildingBlock: EZIPEK_clean_linker_0, # of connection points: 2
#     Edge 38, Type (0, 1), BuildingBlock: EZIPEK_clean_linker_0, # of connection points: 2
#     Edge 39, Type (0, 1), BuildingBlock: EZIPEK_clean_linker_0, # of connection points: 2
#     Edge 40, Type (0, 1), BuildingBlock: EZIPEK_clean_linker_0, # of connection points: 2
#     Edge 41, Type (0, 1), BuildingBlock: EZIPEK_clean_linker_0, # of connection points: 2
#     Edge 42, Type (0, 1), BuildingBlock: EZIPEK_clean_linker_0, # of connection points: 2
#     Edge 43, Type (0, 1), BuildingBlock: EZIPEK_clean_linker_0, # of connection points: 2
#     Edge 44, Type (0, 1), BuildingBlock: EZIPEK_clean_linker_0, # of connection points: 2
#     Edge 45, Type (0, 1), BuildingBlock: EZIPEK_clean_linker_0, # of connection points: 2
#     Edge 46, Type (0, 1), BuildingBlock: EZIPEK_clean_linker_0, # of connection points: 2
#     Edge 47, Type (0, 1), BuildingBlock: EZIPEK_clean_linker_0, # of connection points: 2
#     Edge 48, Type (0, 1), BuildingBlock: EZIPEK_clean_linker_0, # of connection points: 2
#     Edge 49, Type (0, 1), BuildingBlock: EZIPEK_clean_linker_0, # of connection points: 2
#     Edge 50, Type (0, 1), BuildingBlock: EZIPEK_clean_linker_0, # of connection points: 2
#     Edge 51, Type (0, 1), BuildingBlock: EZIPEK_clean_linker_0, # of connection points: 2
#     Edge 52, Type (0, 1), BuildingBlock: EZIPEK_clean_linker_0, # of connection points: 2
#     Edge 53, Type (0, 1), BuildingBlock: EZIPEK_clean_linker_0, # of connection points: 2
#     Edge 54, Type (0, 1), BuildingBlock: EZIPEK_clean_linker_0, # of connection points: 2
#     Edge 55, Type (0, 1), BuildingBlock: EZIPEK_clean_linker_0, # of connection points: 2
#     Edge 56, Type (0, 1), BuildingBlock: EZIPEK_clean_linker_0, # of connection points: 2
#     Edge 57, Type (0, 1), BuildingBlock: EZIPEK_clean_linker_0, # of connection points: 2
#     Edge 58, Type (0, 1), BuildingBlock: EZIPEK_clean_linker_0, # of connection points: 2
#     Edge 59, Type (0, 1), BuildingBlock: EZIPEK_clean_linker_0, # of connection points: 2
#     Edge 60, Type (0, 1), BuildingBlock: EZIPEK_clean_linker_0, # of connection points: 2
#     Edge 61, Type (0, 1), BuildingBlock: EZIPEK_clean_linker_0, # of connection points: 2
#     Edge 62, Type (0, 1), BuildingBlock: EZIPEK_clean_linker_0, # of connection points: 2
#     Edge 63, Type (0, 1), BuildingBlock: EZIPEK_clean_linker_0, # of connection points: 2
#     Edge 64, Type (0, 1), BuildingBlock: EZIPEK_clean_linker_0, # of connection points: 2
#     Edge 65, Type (0, 1), BuildingBlock: EZIPEK_clean_linker_0, # of connection points: 2
#     Edge 66, Type (0, 1), BuildingBlock: EZIPEK_clean_linker_0, # of connection points: 2
#     Edge 67, Type (0, 1), BuildingBlock: EZIPEK_clean_linker_0, # of connection points: 2
#     Edge 68, Type (0, 1), BuildingBlock: EZIPEK_clean_linker_0, # of connection points: 2
#     Edge 69, Type (0, 1), BuildingBlock: EZIPEK_clean_linker_0, # of connection points: 2
#     Edge 70, Type (0, 1), BuildingBlock: EZIPEK_clean_linker_0, # of connection points: 2
#     Edge 71, Type (0, 1), BuildingBlock: EZIPEK_clean_linker_0, # of connection points: 2
#     Edge 72, Type (0, 1), BuildingBlock: EZIPEK_clean_linker_0, # of connection points: 2
#     Edge 73, Type (0, 1), BuildingBlock: EZIPEK_clean_linker_0, # of connection points: 2
#     Edge 74, Type (0, 1), BuildingBlock: EZIPEK_clean_linker_0, # of connection points: 2
#     Edge 75, Type (0, 1), BuildingBlock: EZIPEK_clean_linker_0, # of connection points: 2
# Relax obj value: 0.002
# Max RMSD: 0.031
# Mean RMSD: 0.018
data_MOF--net-ctn--node1-NAHDIM_clean_sbu_0--node2-ESEHIV_clean_linker_0--edge1-EZIPEK_clean_linker_0
_symmetry_space_group_name_H-M    P1
_symmetry_Int_Tables_number       1
_symmetry_cell_setting            triclinic
loop_
_symmetry_equiv_pos_as_xyz
'x, y, z'
_cell_length_a     36.634664
_cell_length_b     36.907162
_cell_length_c     36.377524
_cell_angle_alpha  91.429445
_cell_angle_beta   90.132152
_cell_angle_gamma 92.769945
loop_
_atom_site_label
_atom_site_type_symbol
_atom_site_fract_x
_atom_site_fract_y
_atom_site_fract_z
_atom_type_partial_charge
H0 H 1.00045 0.08806 0.03901 0.0
H1 H 0.06882 0.00543 0.07817 0.0
H2 H 0.09143 0.05441 0.97403 0.0
C3 C 0.02347 0.07098 0.03514 0.0
C4 C 0.04479 0.07386 0.00327 0.0
C5 C 0.03201 0.04622 0.06212 0.0
C6 C 0.06205 0.02443 0.05724 0.0
C7 C 0.08352 0.02739 0.0255 0.0
C8 C 0.07473 0.05197 0.9985 0.0
H9 H 0.30226 0.67096 0.26511 0.0
H10 H 0.34356 0.7587 0.19891 0.0
H11 H 0.24243 0.70089 0.16944 0.0
C12 C 0.29952 0.68813 0.2416 0.0
C13 C 0.26955 0.68248 0.21773 0.0
C14 C 0.32605 0.71586 0.23498 0.0
C15 C 0.3228 0.73753 0.20418 0.0
C16 C 0.29255 0.73253 0.18056 0.0
C17 C 0.26581 0.70506 0.18765 0.0
H18 H 0.94503 0.51053 0.08766 0.0
H19 H 0.01125 0.42477 0.0473 0.0
H20 H 0.92163 0.45913 0.98227 0.0
C21 C 0.9515 0.49078 0.06639 0.0
C22 C 0.9304 0.48776 0.03414 0.0
C23 C 0.98091 0.46826 0.0712 0.0
C24 C 0.98891 0.44256 0.04357 0.0
C25 C 0.96736 0.4391 0.01162 0.0
C26 C 0.93836 0.4619 0.00691 0.0
H27 H 0.67304 0.75462 0.1948 0.0
H28 H 0.77294 0.81179 0.16388 0.0
H29 H 0.7077 0.85426 0.25163 0.0
C30 C 0.6925 0.7775 0.19851 0.0
C31 C 0.68676 0.80407 0.22592 0.0
C32 C 0.72349 0.78041 0.17602 0.0
C33 C 0.74886 0.80969 0.18113 0.0
C34 C 0.74324 0.83636 0.2083 0.0
C35 C 0.71204 0.83366 0.23053 0.0
H36 H 0.98655 0.92502 0.44559 0.0
H37 H 0.05354 0.01946 0.41845 0.0
H38 H 0.07776 0.95948 0.51486 0.0
C39 C 0.00953 0.94382 0.45178 0.0
C40 C 0.031 0.93913 0.4831 0.0
C41 C 0.01777 0.97264 0.42835 0.0
C42 C 0.04732 0.99706 0.4365 0.0
C43 C 0.06916 0.99239 0.46761 0.0
C44 C 0.061 0.96323 0.49077 0.0
H45 H 0.18035 0.79354 0.80402 0.0
H46 H 0.26632 0.72282 0.82973 0.0
H47 H 0.19171 0.6945 0.74087 0.0
C48 C 0.19482 0.7691 0.79822 0.0
C49 C 0.18281 0.74517 0.76967 0.0
C50 C 0.22493 0.76106 0.81985 0.0
C51 C 0.24326 0.7292 0.81272 0.0
C52 C 0.23142 0.70516 0.78423 0.0
C53 C 0.20117 0.71321 0.76269 0.0
H54 H 0.94269 0.53901 0.52998 0.0
H55 H 0.03035 0.57988 0.46135 0.0
H56 H 0.96546 0.4858 0.42761 0.0
C57 C 0.96083 0.53654 0.50678 0.0
C58 C 0.95147 0.50954 0.48013 0.0
C59 C 0.99258 0.55968 0.50348 0.0
C60 C 0.00997 0.55933 0.46869 0.0
C61 C 1.00083 0.53246 0.44175 0.0
C62 C 0.97224 0.50694 0.44807 0.0
H63 H 0.74419 0.79424 0.83909 0.0
H64 H 0.80952 0.82627 0.74608 0.0
H65 H 0.83156 0.72851 0.80273 0.0
C66 C 0.76638 0.78935 0.8202 0.0
C67 C 0.78672 0.75848 0.8239 0.0
C68 C 0.77435 0.81382 0.79213 0.0
C69 C 0.80314 0.80736 0.76774 0.0
C70 C 0.824 0.77671 0.77165 0.0
C71 C 0.81559 0.75223 0.79967 0.0
H72 H 0.24325 0.29952 0.34234 0.0
H73 H 0.30711 0.3398 0.25305 0.0
H74 H 0.33782 0.24408 0.30911 0.0
C75 C 0.26692 0.29765 0.32467 0.0
C76 C 0.29037 0.26926 0.32855 0.0
C77 C 0.27358 0.32321 0.29747 0.0
C78 C 0.30475 0.32109 0.27524 0.0
C79 C 0.33138 0.29534 0.28168 0.0
C80 C 0.32152 0.26751 0.30641 0.0
H81 H 0.45888 0.01379 0.57702 0.0
H82 H 0.52372 0.92183 0.55394 0.0
H83 H 0.44127 0.95063 0.47686 0.0
C84 C 0.46596 0.99143 0.55893 0.0
C85 C 0.44693 0.98489 0.52575 0.0
C86 C 0.49359 0.96868 0.56916 0.0
C87 C 0.50243 0.93952 0.54597 0.0
C88 C 0.48382 0.93311 0.51255 0.0
C89 C 0.456 0.95579 0.50249 0.0
H90 H 0.17181 0.24861 0.69796 0.0
H91 H 0.26925 0.30919 0.66522 0.0
H92 H 0.20695 0.34641 0.75759 0.0
C93 C 0.19129 0.27142 0.70209 0.0
C94 C 0.18589 0.29701 0.73054 0.0
C95 C 0.22119 0.27586 0.67825 0.0
C96 C 0.24615 0.30558 0.68358 0.0
C97 C 0.24128 0.33078 0.71239 0.0
C98 C 0.21105 0.32657 0.73568 0.0
H99 H 0.78802 0.17533 0.77621 0.0
H100 H 0.82252 0.26972 0.71567 0.0
H101 H 0.72552 0.20651 0.68291 0.0
C102 C 0.78388 0.19372 0.75396 0.0
C103 C 0.75386 0.18764 0.73025 0.0
C104 C 0.80874 0.22327 0.74881 0.0
C105 C 0.80332 0.24693 0.71984 0.0
C106 C 0.77331 0.2409 0.69602 0.0
C107 C 0.74862 0.2113 0.70137 0.0
H108 H 0.49277 0.58501 0.55356 0.0
H109 H 0.55458 0.49373 0.58281 0.0
H110 H 0.5817 0.55258 0.48505 0.0
C111 C 0.51467 0.56698 0.54781 0.0
C112 C 0.5363 0.57187 0.51645 0.0
C113 C 0.52114 0.53878 0.57167 0.0
C114 C 0.54943 0.51544 0.56423 0.0
C115 C 0.57144 0.52049 0.53311 0.0
C116 C 0.56478 0.54868 0.50918 0.0
H117 H 0.46349 0.43084 0.95337 0.0
H118 H 0.52607 0.52827 0.92652 0.0
H119 H 0.56212 0.46111 0.01332 0.0
C120 C 0.48705 0.44933 0.95806 0.0
C121 C 0.51219 0.44253 0.98583 0.0
C122 C 0.49199 0.48024 0.93667 0.0
C123 C 0.52229 0.5043 0.943 0.0
C124 C 0.54783 0.49735 0.97045 0.0
C125 C 0.54266 0.46641 0.99183 0.0
H126 H 0.67215 0.27039 0.31018 0.0
H127 H 0.76742 0.21319 0.33875 0.0
H128 H 0.6977 0.17296 0.24998 0.0
C129 C 0.68975 0.24795 0.30549 0.0
C130 C 0.68148 0.22223 0.27722 0.0
C131 C 0.72056 0.24455 0.32791 0.0
C132 C 0.74348 0.21571 0.32159 0.0
C133 C 0.73532 0.18982 0.29354 0.0
C134 C 0.70415 0.19302 0.2716 0.0
H135 H 0.45011 0.05331 0.03556 0.0
H136 H 0.53569 0.08489 0.96234 0.0
H137 H 0.48163 0.98044 0.94757 0.0
C138 C 0.46802 0.04518 0.01376 0.0
C139 C 0.46549 0.00986 0.9974 0.0
C140 C 0.49368 0.07172 0.00179 0.0
C141 C 0.51543 0.0646 0.97125 0.0
C142 C 0.51108 0.03137 0.9522 0.0
C143 C 0.48556 0.00479 0.96447 0.0
C144 C 0.21047 0.94271 0.00146 0.0
O145 O 0.22556 0.94253 0.96875 0.0
O146 O 0.25001 0.86247 0.96817 0.0
Zn147 Zn 0.26379 0.89023 0.01498 0.0
O148 O 0.31134 0.92092 0.00945 0.0
C149 C 0.28318 0.82547 0.05461 0.0
O150 O 0.30043 0.81704 0.02419 0.0
O151 O 0.22264 0.92294 0.02634 0.0
C152 C 0.34206 0.91092 0.02082 0.0
O153 O 0.3441 0.87967 0.03684 0.0
C154 C 0.27284 0.85108 0.9449 0.0
O155 O 0.30795 0.85799 0.95028 0.0
O156 O 0.26627 0.85477 0.05653 0.0
C157 C 0.17681 0.44202 0.284 0.0
O158 O 0.17348 0.46423 0.31246 0.0
O159 O 0.10042 0.49726 0.29757 0.0
Zn160 Zn 0.13109 0.4931 0.25148 0.0
O161 O 0.16751 0.53595 0.24868 0.0
C162 C 0.06573 0.47951 0.20632 0.0
O163 O 0.05037 0.47098 0.23773 0.0
O164 O 0.1604 0.44826 0.25416 0.0
C165 C 0.16024 0.56579 0.23428 0.0
O166 O 0.12756 0.57014 0.22074 0.0
C167 C 0.08287 0.52521 0.30579 0.0
O168 O 0.08377 0.55273 0.28359 0.0
O169 O 0.09937 0.48975 0.20566 0.0
C170 C 0.80656 0.57187 1.0 0.0
O171 O 0.79496 0.56955 0.9658 0.0
O172 O 0.76435 0.65011 0.96297 0.0
Zn173 Zn 0.74848 0.62047 0.00658 0.0
O174 O 0.70538 0.58615 0.99408 0.0
C175 C 0.75741 0.67886 0.05931 0.0
O176 O 0.78991 0.68216 0.04424 0.0
O177 O 0.7908 0.59216 0.02308 0.0
C178 C 0.67297 0.5963 0.99852 0.0
O179 O 0.66771 0.62948 0.01057 0.0
C180 C 0.74174 0.66395 0.94151 0.0
O181 O 0.70651 0.65845 0.94681 0.0
O182 O 0.73468 0.65406 0.0479 0.0
C183 C 0.82467 0.06666 0.26696 0.0
O184 O 0.80968 0.03446 0.27363 0.0
O185 O 0.91816 0.01774 0.28902 0.0
Zn186 Zn 0.8853 0.02427 0.24503 0.0
O187 O 0.84861 0.98172 0.23992 0.0
C188 C 0.94891 0.0302 0.19652 0.0
O189 O 0.96749 0.0267 0.22702 0.0
O190 O 0.85715 0.06936 0.25467 0.0
C191 C 0.8545 0.9519 0.2234 0.0
O192 O 0.88632 0.94681 0.20822 0.0
C193 C 0.93137 0.9876 0.2967 0.0
O194 O 0.92478 0.95912 0.27497 0.0
O195 O 0.9142 0.03006 0.19764 0.0
C196 C 0.32886 0.07721 0.49134 0.0
O197 O 0.32135 0.08456 0.45709 0.0
O198 O 0.28033 0.15296 0.46347 0.0
Zn199 Zn 0.26685 0.12052 0.50633 0.0
O200 O 0.22358 0.08624 0.49419 0.0
C201 C 0.24434 0.18258 0.55078 0.0
O202 O 0.23835 0.19667 0.5187 0.0
O203 O 0.30954 0.08985 0.5172 0.0
C204 C 0.19075 0.09521 0.4984 0.0
O205 O 0.18423 0.12817 0.51018 0.0
C206 C 0.25681 0.16609 0.44244 0.0
O207 O 0.22194 0.15782 0.44734 0.0
O208 O 0.25583 0.15066 0.55217 0.0
C209 C 0.30672 0.57215 0.76123 0.0
O210 O 0.2882 0.54079 0.76154 0.0
O211 O 0.40088 0.51929 0.79102 0.0
Zn212 Zn 0.36843 0.5274 0.74754 0.0
O213 O 0.33317 0.48434 0.74002 0.0
C214 C 0.43203 0.52201 0.70148 0.0
O215 O 0.44588 0.50754 0.73069 0.0
O216 O 0.34106 0.57307 0.75602 0.0
C217 C 0.34466 0.45288 0.73375 0.0
O218 O 0.37993 0.44827 0.73207 0.0
C219 C 0.38865 0.50781 0.82144 0.0
O220 O 0.35335 0.50148 0.82572 0.0
O221 O 0.39954 0.53263 0.70216 0.0
C222 C 0.69098 0.42725 0.50374 0.0
O223 O 0.69879 0.41876 0.46947 0.0
O224 O 0.7393 0.35146 0.4744 0.0
Zn225 Zn 0.75301 0.38515 0.51772 0.0
O226 O 0.79622 0.41903 0.50638 0.0
C227 C 0.74357 0.32981 0.57175 0.0
O228 O 0.71308 0.32228 0.55346 0.0
O229 O 0.71025 0.41568 0.52966 0.0
C230 C 0.82877 0.40868 0.50777 0.0
O231 O 0.83451 0.37499 0.51615 0.0
C232 C 0.76113 0.34333 0.4487 0.0
O233 O 0.79485 0.357 0.4492 0.0
O234 O 0.76509 0.3557 0.56175 0.0
C235 C 0.68497 0.93903 0.78681 0.0
O236 O 0.68695 0.96297 0.81414 0.0
O237 O 0.59911 0.99194 0.80028 0.0
Zn238 Zn 0.63299 0.98759 0.75653 0.0
O239 O 0.66651 0.03219 0.75314 0.0
C240 C 0.57029 0.99043 0.70765 0.0
O241 O 0.55368 0.0029 0.73696 0.0
O242 O 0.66366 0.94375 0.75991 0.0
C243 C 0.65388 0.06325 0.74872 0.0
O244 O 0.61839 0.06657 0.74709 0.0
C245 C 0.60854 0.00968 0.82945 0.0
O246 O 0.64154 0.02504 0.83227 0.0
O247 O 0.60353 0.98228 0.70965 0.0
C248 C 0.01399 0.18058 0.89513 0.0
O249 O 0.01451 0.17327 0.85963 0.0
O250 O 0.96204 0.24808 0.83974 0.0
Zn251 Zn 0.00536 0.25528 0.87394 0.0
O252 O 1.00034 0.29893 0.90768 0.0
C253 C 0.05778 0.28721 0.82345 0.0
O254 O 0.03454 0.31316 0.82265 0.0
O255 O 0.00964 0.21279 0.90675 0.0
C256 C 0.98553 0.32803 0.89933 0.0
O257 O 0.97216 0.33171 0.8662 0.0
C258 C 0.92953 0.24336 0.85136 0.0
O259 O 0.92328 0.24279 0.88687 0.0
O260 O 0.05125 0.26007 0.84362 0.0
C261 C 0.502 0.68833 0.42079 0.0
O262 O 0.46758 0.69389 0.41365 0.0
O263 O 0.47157 0.73141 0.3409 0.0
Zn264 Zn 0.51447 0.7482 0.37274 0.0
O265 O 0.50134 0.79213 0.40309 0.0
C266 C 0.56123 0.78789 0.32165 0.0
O267 O 0.53621 0.81216 0.32382 0.0
O268 O 0.52704 0.70829 0.40645 0.0
C269 C 0.52503 0.81069 0.42201 0.0
O270 O 0.55923 0.80157 0.4218 0.0
C271 C 0.44969 0.75424 0.32928 0.0
O272 O 0.45503 0.78877 0.33829 0.0
O273 O 0.55778 0.75929 0.34028 0.0
C274 C 0.99206 0.8205 0.57878 0.0
O275 O 0.95772 0.81455 0.58811 0.0
O276 O 0.95864 0.76813 0.65351 0.0
Zn277 Zn 0.0036 0.75801 0.62329 0.0
O278 O 0.99606 0.71238 0.5916 0.0
C279 C 0.05575 0.77419 0.6825 0.0
O280 O 0.0369 0.80316 0.6882 0.0
O281 O 0.01621 0.80006 0.59055 0.0
C282 C 0.00597 0.68241 0.60387 0.0
O283 O 0.01925 0.68129 0.63734 0.0
C284 C 0.94691 0.7465 0.67793 0.0
O285 O 0.9638 0.7166 0.6837 0.0
O286 O 0.04654 0.75163 0.65684 0.0
C287 C 0.48948 0.31949 0.07964 0.0
O288 O 0.45642 0.30545 0.08534 0.0
O289 O 0.46812 0.28112 0.16717 0.0
Zn290 Zn 0.50763 0.26704 0.13196 0.0
O291 O 0.49424 0.22055 0.10385 0.0
C292 C 0.55507 0.23437 0.18293 0.0
O293 O 0.52776 0.20999 0.18389 0.0
O294 O 0.51651 0.30724 0.09642 0.0
C295 C 0.51832 0.20752 0.08295 0.0
O296 O 0.55057 0.22441 0.08048 0.0
C297 C 0.4414 0.26037 0.17688 0.0
O298 O 0.43763 0.22716 0.16311 0.0
O299 O 0.55312 0.26123 0.16196 0.0
C300 C 0.22388 0.77602 0.88722 0.0
C301 C 0.23619 0.78502 0.85155 0.0
C302 C 0.26902 0.83961 0.87659 0.0
C303 C 0.25984 0.82861 0.91269 0.0
N304 N 0.23336 0.7833 0.95283 0.0
N305 N 0.27379 0.82251 0.812 0.0
C306 C 0.23839 0.79607 0.91816 0.0
C307 C 0.25972 0.81604 0.84613 0.0
N308 N 0.19778 0.74867 0.89146 0.0
N309 N 0.28514 0.87327 0.87131 0.0
H310 H 0.26683 0.80631 0.78888 0.0
H311 H 0.29432 0.84226 0.80707 0.0
H312 H 0.29166 0.89163 0.89285 0.0
H313 H 0.28903 0.88434 0.84548 0.0
H314 H 0.18465 0.74356 0.91628 0.0
H315 H 0.18693 0.7329 0.86949 0.0
H316 H 0.2217 0.7577 0.9582 0.0
H317 H 0.24373 0.79689 0.97629 0.0
C318 C 0.00521 0.53976 0.37327 0.0
C319 C 0.02186 0.53073 0.40686 0.0
C320 C 0.07956 0.52175 0.37465 0.0
C321 C 0.06183 0.52697 0.34056 0.0
N322 N 0.00587 0.53407 0.30683 0.0
N323 N 0.07282 0.50663 0.43876 0.0
C324 C 0.0241 0.53416 0.33967 0.0
C325 C 0.05848 0.51983 0.40734 0.0
N326 N 0.9718 0.55473 0.37355 0.0
N327 N 0.11677 0.52033 0.37613 0.0
H328 H 0.05822 0.5046 0.46326 0.0
H329 H 0.09796 0.49464 0.43962 0.0
H330 H 0.13342 0.52278 0.35303 0.0
H331 H 0.13143 0.52038 0.4007 0.0
H332 H 0.96005 0.5654 0.35033 0.0
H333 H 0.95728 0.55959 0.39765 0.0
H334 H 0.9776 0.53533 0.30479 0.0
H335 H 0.01844 0.52918 0.28162 0.0
C336 C 0.7548 0.70126 0.84565 0.0
C337 C 0.77748 0.73275 0.85353 0.0
C338 C 0.77576 0.71984 0.91926 0.0
C339 C 0.75501 0.6871 0.91117 0.0
N340 N 0.73058 0.64301 0.86644 0.0
N341 N 0.81515 0.76885 0.89626 0.0
C342 C 0.74613 0.67676 0.87426 0.0
C343 C 0.78975 0.74102 0.8899 0.0
N344 N 0.74065 0.69536 0.81108 0.0
N345 N 0.78044 0.73172 0.95496 0.0
H346 H 0.82566 0.78521 0.87542 0.0
H347 H 0.82811 0.77379 0.92152 0.0
H348 H 0.77 0.71743 0.97728 0.0
H349 H 0.79182 0.75725 0.9624 0.0
H350 H 0.72056 0.67526 0.80465 0.0
H351 H 0.74704 0.71225 0.7892 0.0
H352 H 0.72694 0.63243 0.83981 0.0
H353 H 0.72424 0.62416 0.88663 0.0
C354 C 0.96121 0.99248 0.39716 0.0
C355 C 0.99573 0.97686 0.39463 0.0
C356 C 0.98968 0.97191 0.32759 0.0
C357 C 0.95368 0.98435 0.33039 0.0
N358 N 0.9025 1.00008 0.36836 0.0
N359 N 0.04073 0.94635 0.35864 0.0
C360 C 0.93871 0.99306 0.36532 0.0
C361 C 0.00939 0.96503 0.36016 0.0
N362 N 0.95025 0.00741 0.42985 0.0
N363 N 0.00566 0.96809 0.29386 0.0
H364 H 0.05616 0.94112 0.38188 0.0
H365 H 0.04982 0.93345 0.33482 0.0
H366 H 0.99238 0.97325 0.26931 0.0
H367 H 0.03316 0.96302 0.29031 0.0
H368 H 0.92726 0.02278 0.43246 0.0
H369 H 0.9658 0.007 0.45389 0.0
H370 H 0.88919 0.00277 0.39347 0.0
H371 H 0.88476 0.99984 0.34589 0.0
C372 C 0.25679 0.22818 0.64571 0.0
C373 C 0.22598 0.25001 0.64682 0.0
C374 C 0.20406 0.22177 0.58878 0.0
C375 C 0.23744 0.20404 0.58494 0.0
N376 N 0.29882 0.19613 0.60713 0.0
N377 N 0.17375 0.2727 0.6157 0.0
C378 C 0.26469 0.20856 0.6128 0.0
C379 C 0.20047 0.24819 0.61736 0.0
N380 N 0.27818 0.22567 0.67629 0.0
N381 N 0.17523 0.21253 0.56596 0.0
H382 H 0.17079 0.29326 0.63546 0.0
H383 H 0.15688 0.27487 0.59283 0.0
H384 H 0.17615 0.19225 0.54558 0.0
H385 H 0.14921 0.22215 0.56992 0.0
H386 H 0.29881 0.20733 0.67814 0.0
H387 H 0.27298 0.23934 0.70104 0.0
H388 H 0.32064 0.20211 0.62504 0.0
H389 H 0.30652 0.18307 0.58285 0.0
C390 C 0.4656 0.51211 0.60302 0.0
C391 C 0.49841 0.53411 0.60498 0.0
C392 C 0.4859 0.5506 0.66922 0.0
C393 C 0.45454 0.52647 0.6681 0.0
N394 N 0.41694 0.4803 0.63615 0.0
N395 N 0.54269 0.5708 0.64036 0.0
C396 C 0.44491 0.50622 0.63554 0.0
C397 C 0.50944 0.55232 0.63826 0.0
N398 N 0.45395 0.49737 0.56991 0.0
N399 N 0.49228 0.57301 0.69931 0.0
H400 H 0.56016 0.57368 0.6179 0.0
H401 H 0.55421 0.58111 0.66487 0.0
H402 H 0.47549 0.57274 0.72243 0.0
H403 H 0.51233 0.59398 0.70028 0.0
H404 H 0.42826 0.4846 0.56573 0.0
H405 H 0.46905 0.50003 0.54576 0.0
H406 H 0.4111 0.46185 0.61459 0.0
H407 H 0.40111 0.47524 0.65943 0.0
C408 C 0.7857 0.2591 0.631 0.0
C409 C 0.76764 0.26531 0.66489 0.0
C410 C 0.73348 0.31355 0.63758 0.0
C411 C 0.75261 0.30835 0.60411 0.0
N412 N 0.80019 0.28003 0.56973 0.0
N413 N 0.72889 0.30147 0.7028 0.0
C414 C 0.77986 0.28236 0.60112 0.0
C415 C 0.74281 0.29346 0.66886 0.0
N416 N 0.80734 0.23007 0.62702 0.0
N417 N 0.70605 0.3374 0.63926 0.0
H418 H 0.73485 0.28702 0.72618 0.0
H419 H 0.7137 0.32401 0.70858 0.0
H420 H 0.69974 0.35401 0.61759 0.0
H421 H 0.6881 0.33941 0.66127 0.0
H422 H 0.81792 0.22137 0.60198 0.0
H423 H 0.81292 0.21296 0.64852 0.0
H424 H 0.8232 0.26469 0.56725 0.0
H425 H 0.79552 0.29531 0.5466 0.0
C426 C 0.54475 0.99821 0.60679 0.0
C427 C 0.51286 0.97487 0.60479 0.0
C428 C 0.51991 0.96006 0.66965 0.0
C429 C 0.55025 0.98541 0.67238 0.0
N430 N 0.58821 0.03302 0.64565 0.0
N431 N 0.46669 0.93748 0.63476 0.0
C432 C 0.56186 0.00566 0.64148 0.0
C433 C 0.49939 0.95698 0.63641 0.0
N434 N 0.55902 0.0127 0.57539 0.0
N435 N 0.51178 0.93768 0.69822 0.0
H436 H 0.4514 0.93372 0.61061 0.0
H437 H 0.45331 0.9273 0.6578 0.0
H438 H 0.52638 0.93878 0.72289 0.0
H439 H 0.49261 0.91593 0.69645 0.0
H440 H 0.58445 0.02649 0.57428 0.0
H441 H 0.5466 0.00873 0.54967 0.0
H442 H 0.59514 0.05131 0.62519 0.0
H443 H 0.60116 0.03951 0.67068 0.0
C444 C 0.86977 0.20516 0.77239 0.0
C445 C 0.84071 0.22911 0.77388 0.0
C446 C 0.87145 0.2644 0.82396 0.0
C447 C 0.89883 0.23844 0.82482 0.0
N448 N 0.92131 0.18107 0.80395 0.0
N449 N 0.81045 0.27776 0.80209 0.0
C450 C 0.89735 0.20802 0.80004 0.0
C451 C 0.84082 0.25791 0.80008 0.0
N452 N 0.87149 0.18036 0.74397 0.0
N453 N 0.87556 0.29575 0.84473 0.0
H454 H 0.80608 0.29791 0.82197 0.0
H455 H 0.80608 0.29791 0.82197 0.0
H456 H 0.89767 0.30133 0.86242 0.0
H457 H 0.85892 0.31762 0.84225 0.0
H458 H 0.89392 0.16465 0.73916 0.0
H459 H 0.85177 0.17773 0.72321 0.0
H460 H 0.91915 0.15644 0.78933 0.0
H461 H 0.94157 0.18188 0.82419 0.0
C462 C 0.52019 0.90717 0.46066 0.0
C463 C 0.49335 0.90206 0.48834 0.0
C464 C 0.48891 0.83673 0.47399 0.0
C465 C 0.51394 0.84218 0.44466 0.0
N466 N 0.5488 0.88295 0.40584 0.0
N467 N 0.44799 0.86362 0.51815 0.0
C468 C 0.52841 0.87752 0.43685 0.0
C469 C 0.4764 0.86729 0.494 0.0
N470 N 0.53837 0.94021 0.45768 0.0
N471 N 0.47845 0.80225 0.48386 0.0
H472 H 0.4387 0.88525 0.53398 0.0
H473 H 0.43177 0.83985 0.5205 0.0
H474 H 0.48725 0.77911 0.47016 0.0
H475 H 0.46356 0.79636 0.50749 0.0
H476 H 0.56115 0.94463 0.44104 0.0
H477 H 0.53225 0.96287 0.47383 0.0
H478 H 0.55682 0.90852 0.39644 0.0
H479 H 0.5552 0.86196 0.38761 0.0
C480 C 0.1568 0.28489 0.79183 0.0
C481 C 0.15305 0.29364 0.7543 0.0
C482 C 0.08657 0.29333 0.7613 0.0
C483 C 0.09062 0.28884 0.79971 0.0
N484 N 0.13024 0.28672 0.85271 0.0
N485 N 0.11514 0.31324 0.70493 0.0
C486 C 0.12593 0.28623 0.81536 0.0
C487 C 0.11813 0.29986 0.73945 0.0
N488 N 0.18963 0.27445 0.80479 0.0
N489 N 0.05272 0.2898 0.74534 0.0
H490 H 0.13768 0.31911 0.68828 0.0
H491 H 0.0907 0.32184 0.69424 0.0
H492 H 0.02894 0.28375 0.76013 0.0
H493 H 0.04865 0.2891 0.71697 0.0
H494 H 0.19302 0.26409 0.83089 0.0
H495 H 0.21283 0.27305 0.78833 0.0
H496 H 0.15569 0.28876 0.86563 0.0
H497 H 0.10848 0.28862 0.87097 0.0
C498 C 0.5074 0.5938 0.45912 0.0
C499 C 0.52881 0.60148 0.49114 0.0
C500 C 0.53081 0.6664 0.47824 0.0
C501 C 0.5116 0.65845 0.44484 0.0
N502 N 0.48754 0.61433 0.39989 0.0
N503 N 0.56599 0.64363 0.52855 0.0
C504 C 0.50146 0.62206 0.43428 0.0
C505 C 0.54208 0.63739 0.4999 0.0
N506 N 0.49196 0.55971 0.45295 0.0
N507 N 0.53683 0.70166 0.49008 0.0
H508 H 0.57441 0.62307 0.54534 0.0
H509 H 0.57976 0.66855 0.53389 0.0
H510 H 0.52872 0.72368 0.47518 0.0
H511 H 0.54705 0.70909 0.51606 0.0
H512 H 0.47264 0.55343 0.43244 0.0
H513 H 0.49634 0.53808 0.4701 0.0
H514 H 0.48333 0.58805 0.38914 0.0
H515 H 0.48324 0.63422 0.38069 0.0
C516 C 0.89146 0.77925 0.75961 0.0
C517 C 0.85539 0.77052 0.74685 0.0
C518 C 0.87935 0.75024 0.6872 0.0
C519 C 0.91543 0.75582 0.70119 0.0
N520 N 0.95654 0.77266 0.75128 0.0
N521 N 0.81443 0.74417 0.70049 0.0
C522 C 0.92169 0.76948 0.7376 0.0
C523 C 0.84914 0.75521 0.71107 0.0
N524 N 0.89672 0.79792 0.79231 0.0
N525 N 0.87402 0.74043 0.65101 0.0
H526 H 0.79162 0.74777 0.71707 0.0
H527 H 0.80835 0.72915 0.67648 0.0
H528 H 0.89545 0.73523 0.6331 0.0
H529 H 0.84866 0.73982 0.638 0.0
H530 H 0.92205 0.80859 0.80144 0.0
H531 H 0.87524 0.80535 0.80924 0.0
H532 H 0.96271 0.77819 0.77886 0.0
H533 H 0.97952 0.76764 0.73542 0.0
C534 C 0.00295 0.91577 0.5413 0.0
C535 C 0.02182 0.90885 0.50804 0.0
C536 C 0.01887 0.84369 0.5199 0.0
C537 C 0.00261 0.85092 0.55455 0.0
N538 N 0.98529 0.89419 0.60138 0.0
N539 N 0.05318 0.86758 0.46817 0.0
C540 C 0.99626 0.88708 0.56613 0.0
C541 C 0.03141 0.87317 0.49807 0.0
N542 N 0.99055 0.94953 0.54867 0.0
N543 N 0.02082 0.80868 0.50708 0.0
H544 H 0.06253 0.88849 0.4513 0.0
H545 H 0.06445 0.84284 0.46183 0.0
H546 H 0.01147 0.78632 0.52196 0.0
H547 H 0.02869 0.80184 0.48041 0.0
H548 H 0.97308 0.95523 0.57038 0.0
H549 H 0.99529 0.97137 0.53136 0.0
H550 H 0.98403 0.92031 0.61265 0.0
H551 H 0.98062 0.87398 0.62058 0.0
C552 C 0.15313 0.77887 0.71946 0.0
C553 C 0.15009 0.7531 0.74772 0.0
C554 C 0.08543 0.74031 0.73242 0.0
C555 C 0.0879 0.76769 0.70569 0.0
N556 N 0.12225 0.81624 0.67636 0.0
N557 N 0.11278 0.71339 0.78541 0.0
C558 C 0.1212 0.78806 0.7001 0.0
C559 C 0.11606 0.7349 0.75538 0.0
N560 N 0.1868 0.79351 0.71027 0.0
N561 N 0.05392 0.71921 0.73555 0.0
H562 H 0.13467 0.70859 0.80273 0.0
H563 H 0.08793 0.70254 0.79495 0.0
H564 H 0.03031 0.72351 0.72055 0.0
H565 H 0.05174 0.69603 0.75126 0.0
H566 H 0.1916 0.80936 0.68735 0.0
H567 H 0.21073 0.78762 0.72404 0.0
H568 H 0.14443 0.83476 0.67414 0.0
H569 H 0.09991 0.82271 0.66039 0.0
C570 C 0.03249 0.61361 0.53033 0.0
C571 C 0.00454 0.58613 0.53468 0.0
C572 C 0.98426 0.61805 0.59024 0.0
C573 C 0.00549 0.64933 0.58001 0.0
N574 N 0.05215 0.67641 0.54089 0.0
N575 N 0.97906 0.55271 0.58531 0.0
C576 C 0.03023 0.64708 0.55011 0.0
C577 C 0.98731 0.58524 0.56957 0.0
N578 N 0.06442 0.60529 0.51365 0.0
N579 N 0.96032 0.61976 0.61888 0.0
H580 H 0.98665 0.52833 0.57306 0.0
H581 H 0.96956 0.55039 0.61218 0.0
H582 H 0.95692 0.6434 0.63457 0.0
H583 H 0.94175 0.59844 0.6249 0.0
H584 H 0.08714 0.62335 0.51255 0.0
H585 H 0.06984 0.57854 0.50636 0.0
H586 H 0.06777 0.67679 0.51695 0.0
H587 H 0.05313 0.7009 0.55586 0.0
C588 C 0.79441 0.86834 0.24413 0.0
C589 C 0.77045 0.86714 0.21336 0.0
C590 C 0.80266 0.92083 0.18849 0.0
C591 C 0.82506 0.9233 0.22036 0.0
N592 N 0.83856 0.90387 0.28149 0.0
N593 N 0.74704 0.89542 0.1597 0.0
C594 C 0.81974 0.89844 0.24917 0.0
C595 C 0.77322 0.89434 0.18647 0.0
N596 N 0.79405 0.83996 0.26762 0.0
N597 N 0.80992 0.94343 0.15991 0.0
H598 H 0.72495 0.87656 0.15755 0.0
H599 H 0.74537 0.91666 0.14157 0.0
H600 H 0.83047 0.96403 0.16092 0.0
H601 H 0.79733 0.94027 0.13427 0.0
H602 H 0.81353 0.83738 0.28815 0.0
H603 H 0.77602 0.81732 0.26477 0.0
H604 H 0.833 0.889 0.30495 0.0
H605 H 0.85785 0.92527 0.28589 0.0
C606 C 0.77996 0.15676 0.25429 0.0
C607 C 0.7594 0.15903 0.28721 0.0
C608 C 0.78703 0.10442 0.3091 0.0
C609 C 0.80367 0.09943 0.27425 0.0
N610 N 0.8104 0.1176 0.21112 0.0
N611 N 0.73832 0.13151 0.34333 0.0
C612 C 0.7988 0.12479 0.24612 0.0
C613 C 0.76153 0.13189 0.31395 0.0
N614 N 0.78225 0.18548 0.23127 0.0
N615 N 0.79663 0.0839 0.33804 0.0
H616 H 0.71879 0.1508 0.34762 0.0
H617 H 0.73611 0.11016 0.36152 0.0
H618 H 0.8163 0.06444 0.33603 0.0
H619 H 0.78803 0.08886 0.36489 0.0
H620 H 0.79986 0.18673 0.20884 0.0
H621 H 0.76923 0.20957 0.23657 0.0
H622 H 0.80403 0.13334 0.18883 0.0
H623 H 0.82329 0.094 0.20352 0.0
C624 C 0.43862 0.94412 0.99623 0.0
C625 C 0.43976 0.97971 0.01197 0.0
C626 C 0.38044 0.96616 0.04067 0.0
C627 C 0.37558 0.9347 0.01763 0.0
N628 N 0.401 0.89266 0.97375 0.0
N629 N 0.42632 0.00418 0.07207 0.0
C630 C 0.4051 0.9231 0.99577 0.0
C631 C 0.4147 0.98583 0.04089 0.0
N632 N 0.47045 0.92847 0.98709 0.0
N633 N 0.3529 0.977 0.06299 0.0
H634 H 0.45393 0.01154 0.0763 0.0
H635 H 0.41016 0.00671 0.09546 0.0
H636 H 0.32788 0.96249 0.06512 0.0
H637 H 0.35442 0.00174 0.07755 0.0
H638 H 0.47173 0.90135 0.97871 0.0
H639 H 0.49584 0.94148 0.99292 0.0
H640 H 0.42055 0.88539 0.9545 0.0
H641 H 0.37696 0.87635 0.97268 0.0
C642 C 0.26097 0.38934 0.30391 0.0
C643 C 0.24869 0.35354 0.29328 0.0
C644 C 0.18822 0.37527 0.27863 0.0
C645 C 0.2016 0.41148 0.28611 0.0
N646 N 0.25311 0.45359 0.29762 0.0
N647 N 0.20294 0.31311 0.26436 0.0
C648 C 0.23867 0.41871 0.29646 0.0
C649 C 0.21294 0.34668 0.27881 0.0
N650 N 0.29342 0.39522 0.32225 0.0
N651 N 0.15167 0.36795 0.27295 0.0
H652 H 0.22035 0.29155 0.26397 0.0
H653 H 0.17867 0.30751 0.2499 0.0
H654 H 0.13258 0.38801 0.27316 0.0
H655 H 0.13983 0.34173 0.27131 0.0
H656 H 0.3018 0.42022 0.33415 0.0
H657 H 0.31048 0.37442 0.32864 0.0
H658 H 0.2809 0.46009 0.30124 0.0
H659 H 0.23809 0.47587 0.29114 0.0
C660 C 0.10044 0.04089 0.50793 0.0
C661 C 0.10069 0.01824 0.47586 0.0
C662 C 0.15813 0.04877 0.45662 0.0
C663 C 0.15996 0.06847 0.49067 0.0
N664 N 0.13679 0.07667 0.55236 0.0
N665 N 0.13367 0.99524 0.42355 0.0
C666 C 0.1322 0.06272 0.51739 0.0
C667 C 0.13072 0.02056 0.45132 0.0
N668 N 0.06952 0.04255 0.52874 0.0
N669 N 0.18135 0.05802 0.42865 0.0
H670 H 0.11454 0.97369 0.41921 0.0
H671 H 0.15686 0.99358 0.40718 0.0
H672 H 0.20089 0.07947 0.43075 0.0
H673 H 0.17867 0.0469 0.40212 0.0
H674 H 0.06675 0.06143 0.55021 0.0
H675 H 0.04537 0.02757 0.52236 0.0
H676 H 0.11897 0.07022 0.57376 0.0
H677 H 0.16035 0.09145 0.56105 0.0
C678 C 0.73082 0.12475 0.71172 0.0
C679 C 0.7282 0.1558 0.73514 0.0
C680 C 0.67861 0.1251 0.76933 0.0
C681 C 0.67917 0.09529 0.74394 0.0
N682 N 0.70082 0.06954 0.68685 0.0
N683 N 0.69639 0.18826 0.78258 0.0
C684 C 0.70397 0.09582 0.71401 0.0
C685 C 0.70114 0.15677 0.76294 0.0
N686 N 0.7595 0.12254 0.6879 0.0
N687 N 0.65768 0.12258 0.80033 0.0
H688 H 0.71267 0.21187 0.77894 0.0
H689 H 0.67455 0.1919 0.80035 0.0
H690 H 0.641 0.09975 0.80614 0.0
H691 H 0.65916 0.14176 0.82183 0.0
H692 H 0.76514 0.09896 0.6731 0.0
H693 H 0.77956 0.14334 0.68518 0.0
H694 H 0.71553 0.07064 0.66241 0.0
H695 H 0.681 0.04828 0.68705 0.0
C696 C 0.42412 0.04052 0.49674 0.0
C697 C 0.41658 0.00809 0.51601 0.0
C698 C 0.35116 0.01938 0.51604 0.0
C699 C 0.35907 0.05339 0.49969 0.0
N700 N 0.40322 0.09901 0.47911 0.0
N701 N 0.37416 0.96838 0.54825 0.0
C702 C 0.3956 0.06465 0.4911 0.0
C703 C 0.38042 0.99801 0.5269 0.0
N704 N 0.45846 0.04792 0.48336 0.0
N705 N 0.31565 0.00678 0.5197 0.0
H706 H 0.39469 0.95135 0.55577 0.0
H707 H 0.34919 0.96207 0.56074 0.0
H708 H 0.29345 0.02142 0.51171 0.0
H709 H 0.30815 0.98057 0.52765 0.0
H710 H 0.46483 0.06896 0.46559 0.0
H711 H 0.48022 0.03131 0.48779 0.0
H712 H 0.42963 0.11027 0.4762 0.0
H713 H 0.38312 0.11757 0.47493 0.0
C714 C 0.59524 0.46283 0.50674 0.0
C715 C 0.60201 0.49643 0.52589 0.0
C716 C 0.66745 0.48564 0.52864 0.0
C717 C 0.66031 0.45082 0.51196 0.0
N718 N 0.6171 0.40355 0.49054 0.0
N719 N 0.64299 0.53788 0.56002 0.0
C720 C 0.62409 0.43867 0.50238 0.0
C721 C 0.63769 0.50726 0.53834 0.0
N722 N 0.56139 0.45439 0.49208 0.0
N723 N 0.70272 0.49874 0.53366 0.0
H724 H 0.622 0.5549 0.56695 0.0
H725 H 0.66751 0.54501 0.57346 0.0
H726 H 0.72531 0.48391 0.52663 0.0
H727 H 0.70973 0.5254 0.54186 0.0
H728 H 0.55575 0.43228 0.47429 0.0
H729 H 0.53937 0.47105 0.49547 0.0
H730 H 0.59086 0.39187 0.48689 0.0
H731 H 0.63748 0.38495 0.48734 0.0
C732 C 0.72207 0.26005 0.39541 0.0
C733 C 0.72871 0.2708 0.35876 0.0
C734 C 0.75104 0.33097 0.38129 0.0
C735 C 0.74861 0.31872 0.41793 0.0
N736 N 0.73706 0.2698 0.45989 0.0
N737 N 0.75382 0.3146 0.31644 0.0
C738 C 0.73532 0.28282 0.42508 0.0
C739 C 0.74431 0.3058 0.35155 0.0
N740 N 0.70246 0.22838 0.40182 0.0
N741 N 0.75842 0.36694 0.37492 0.0
H742 H 0.749 0.29702 0.29387 0.0
H743 H 0.76908 0.33813 0.31005 0.0
H744 H 0.76268 0.38637 0.396 0.0
H745 H 0.75683 0.37811 0.34899 0.0
H746 H 0.69343 0.22095 0.42782 0.0
H747 H 0.69233 0.211 0.38074 0.0
H748 H 0.73153 0.24267 0.46598 0.0
H749 H 0.74722 0.28529 0.48234 0.0
C750 C 0.5672 0.00492 0.92512 0.0
C751 C 0.53478 0.0238 0.92008 0.0
C752 C 0.55097 0.03402 0.85565 0.0
C753 C 0.58236 0.01342 0.86016 0.0
N754 N 0.61702 0.97363 0.89672 0.0
N755 N 0.49232 0.05113 0.87978 0.0
C756 C 0.58955 0.99727 0.89424 0.0
C757 C 0.52558 0.03674 0.88504 0.0
N758 N 0.57718 0.99528 0.95965 0.0
N759 N 0.54631 0.0524 0.82392 0.0
H760 H 0.47337 0.05406 0.90089 0.0
H761 H 0.48227 0.05747 0.85406 0.0
H762 H 0.56435 0.05122 0.80184 0.0
H763 H 0.52627 0.07109 0.82048 0.0
H764 H 0.60253 0.98534 0.96583 0.0
H765 H 0.56113 0.99962 0.98285 0.0
H766 H 0.6212 0.95794 0.9196 0.0
H767 H 0.63381 0.96723 0.87461 0.0
C768 C 0.29969 0.24743 0.39241 0.0
C769 C 0.28328 0.24194 0.35725 0.0
C770 C 0.25561 0.18363 0.3763 0.0
C771 C 0.26827 0.19115 0.41278 0.0
N772 N 0.29899 0.23253 0.45676 0.0
N773 N 0.24293 0.20697 0.31607 0.0
C774 C 0.28974 0.2235 0.42114 0.0
C775 C 0.26044 0.21063 0.34929 0.0
N776 N 0.32506 0.27541 0.39829 0.0
N777 N 0.24046 0.15003 0.36709 0.0
H778 H 0.24686 0.22555 0.29512 0.0
H779 H 0.2226 0.18696 0.31018 0.0
H780 H 0.23771 0.12909 0.38578 0.0
H781 H 0.23399 0.14165 0.34022 0.0
H782 H 0.34135 0.27817 0.42178 0.0
H783 H 0.33194 0.29451 0.37849 0.0
H784 H 0.31036 0.25784 0.465 0.0
H785 H 0.2929 0.21593 0.47881 0.0
C786 C 0.4685 0.46984 0.8724 0.0
C787 C 0.46533 0.48729 0.90731 0.0
C788 C 0.41306 0.51987 0.88538 0.0
C789 C 0.41447 0.50028 0.85137 0.0
N790 N 0.43903 0.45184 0.81471 0.0
N791 N 0.43195 0.5247 0.94937 0.0
C792 C 0.44103 0.47398 0.84543 0.0
C793 C 0.43679 0.51108 0.91451 0.0
N794 N 0.49823 0.44994 0.86477 0.0
N795 N 0.39023 0.54794 0.88929 0.0
H796 H 0.44928 0.51946 0.97121 0.0
H797 H 0.40927 0.53888 0.95734 0.0
H798 H 0.37264 0.55539 0.86851 0.0
H799 H 0.39083 0.56581 0.91191 0.0
H800 H 0.50426 0.44003 0.83855 0.0
H801 H 0.51859 0.44569 0.88409 0.0
H802 H 0.45511 0.42957 0.81073 0.0
H803 H 0.41895 0.45358 0.79459 0.0
C804 C 0.715 0.75693 0.11119 0.0
C805 C 0.72983 0.75277 0.14681 0.0
C806 C 0.7632 0.70047 0.12492 0.0
C807 C 0.74736 0.70383 0.08959 0.0
N808 N 0.70497 0.73176 0.04949 0.0
N809 N 0.76332 0.71826 0.18968 0.0
C810 C 0.72212 0.73094 0.0829 0.0
C811 C 0.75259 0.72381 0.15429 0.0
N812 N 0.69521 0.78652 0.10418 0.0
N813 N 0.78872 0.67521 0.13021 0.0
H814 H 0.75644 0.73518 0.21174 0.0
H815 H 0.77672 0.69556 0.19784 0.0
H816 H 0.79568 0.65628 0.10997 0.0
H817 H 0.80454 0.6741 0.15391 0.0
H818 H 0.68721 0.79365 0.07798 0.0
H819 H 0.68852 0.80552 0.12448 0.0
H820 H 0.68324 0.748 0.04412 0.0
H821 H 0.71098 0.71453 0.02739 0.0
C822 C 0.97971 0.01745 0.09689 0.0
C823 C 0.00958 0.04325 0.09589 0.0
C824 C 0.99578 0.06412 0.15859 0.0
C825 C 0.96864 0.03547 0.16122 0.0
N826 N 0.93831 0.98144 0.13454 0.0
N827 N 0.04916 0.08853 0.12661 0.0
C828 C 0.9613 0.01136 0.1307 0.0
C829 C 0.01852 0.06586 0.127 0.0
N830 N 0.96872 0.99899 0.0654 0.0
N831 N 0.99869 0.09065 0.1855 0.0
H832 H 0.06585 0.0914 0.10356 0.0
H833 H 0.05953 0.10247 0.14989 0.0
H834 H 0.98169 0.09108 0.20845 0.0
H835 H 0.01539 0.11414 0.18337 0.0
H836 H 0.94459 0.98296 0.06336 0.0
H837 H 0.98221 0.00199 0.04035 0.0
H838 H 0.93502 0.96077 0.11464 0.0
H839 H 0.92489 0.97553 0.15897 0.0
C840 C 0.28779 0.79433 0.15369 0.0
C841 C 0.28907 0.7562 0.14832 0.0
C842 C 0.28048 0.76334 0.08222 0.0
C843 C 0.28476 0.80168 0.087 0.0
N844 N 0.30214 0.85272 0.1276 0.0
N845 N 0.29509 0.70525 0.10609 0.0
C846 C 0.29103 0.81702 0.12284 0.0
C847 C 0.28788 0.74088 0.11217 0.0
N848 N 0.28256 0.80893 0.18805 0.0
N849 N 0.2677 0.74821 0.04976 0.0
H850 H 0.30199 0.68808 0.12709 0.0
H851 H 0.29798 0.69386 0.07981 0.0
H852 H 0.25961 0.76358 0.02785 0.0
H853 H 0.26103 0.72056 0.04626 0.0
H854 H 0.27807 0.83633 0.19274 0.0
H855 H 0.27879 0.79315 0.21126 0.0
H856 H 0.31019 0.86404 0.15305 0.0
H857 H 0.30761 0.86995 0.10583 0.0
C858 C 0.02522 0.50275 0.11368 0.0
C859 C 0.00285 0.47106 0.10572 0.0
C860 C 0.02491 0.44346 0.16169 0.0
C861 C 0.04404 0.47664 0.17171 0.0
N862 N 0.05576 0.54042 0.16087 0.0
N863 N 0.97566 0.41407 0.12583 0.0
C864 C 0.04246 0.50703 0.14866 0.0
C865 C 0.00102 0.44218 0.1308 0.0
N866 N 0.03085 0.52834 0.0875 0.0
N867 N 0.03071 0.41271 0.18062 0.0
H868 H 0.95724 0.41238 0.10388 0.0
H869 H 0.97058 0.39428 0.14534 0.0
H870 H 0.04888 0.41211 0.20267 0.0
H871 H 0.02035 0.38707 0.17211 0.0
H872 H 0.04989 0.5501 0.09049 0.0
H873 H 0.01903 0.526 0.06137 0.0
H874 H 0.0521 0.56415 0.14668 0.0
H875 H 0.06699 0.54502 0.18701 0.0
C876 C 0.35204 0.74214 0.29426 0.0
C877 C 0.35728 0.72294 0.26057 0.0
C878 C 0.4234 0.72488 0.27142 0.0
C879 C 0.4179 0.74207 0.30618 0.0
N880 N 0.37669 0.76001 0.35421 0.0
N881 N 0.39641 0.6898 0.22011 0.0
C882 C 0.3821 0.74868 0.31864 0.0
C883 C 0.39254 0.71233 0.25011 0.0
N884 N 0.31865 0.75529 0.30236 0.0
N885 N 0.45799 0.7222 0.2579 0.0
H886 H 0.37435 0.68023 0.20381 0.0
H887 H 0.42085 0.67806 0.21328 0.0
H888 H 0.48134 0.7315 0.27238 0.0
H889 H 0.46349 0.71364 0.23107 0.0
H890 H 0.31427 0.77308 0.32441 0.0
H891 H 0.29579 0.75075 0.28542 0.0
H892 H 0.35092 0.76164 0.36598 0.0
H893 H 0.39799 0.76447 0.37312 0.0
C894 C 0.95301 0.3767 0.98553 0.0
C895 C 0.97356 0.41017 0.98365 0.0
C896 C 0.00383 0.38887 0.92761 0.0
C897 C 0.98115 0.35662 0.92793 0.0
N898 N 0.9306 0.32158 0.95362 0.0
N899 N 0.01552 0.45038 0.95153 0.0
C900 C 0.95483 0.35094 0.956 0.0
C901 C 0.99821 0.4169 0.9543 0.0
N902 N 0.93224 0.36935 0.0159 0.0
N903 N 0.03143 0.39217 0.90249 0.0
H904 H 0.01289 0.47114 0.97121 0.0
H905 H 0.0306 0.45847 0.92869 0.0
H906 H 0.03595 0.37238 0.88224 0.0
H907 H 0.05146 0.41316 0.90321 0.0
H908 H 0.91987 0.34397 0.02088 0.0
H909 H 0.92959 0.38788 0.03774 0.0
H910 H 0.90814 0.31798 0.97085 0.0
H911 H 0.93113 0.30209 0.93241 0.0
C912 C 0.65944 0.79205 0.28792 0.0
C913 C 0.65451 0.80054 0.25047 0.0
C914 C 0.58811 0.79837 0.25902 0.0
C915 C 0.59327 0.79339 0.29725 0.0
N916 N 0.63421 0.79308 0.34933 0.0
N917 N 0.61495 0.81841 0.20173 0.0
C918 C 0.62907 0.79235 0.31208 0.0
C919 C 0.61904 0.80568 0.23639 0.0
N920 N 0.69286 0.78248 0.30016 0.0
N921 N 0.55388 0.79434 0.24395 0.0
H922 H 0.63698 0.82413 0.18434 0.0
H923 H 0.59008 0.82635 0.19145 0.0
H924 H 0.53054 0.78809 0.25932 0.0
H925 H 0.54902 0.79377 0.21571 0.0
H926 H 0.6971 0.77227 0.32618 0.0
H927 H 0.71573 0.78149 0.28321 0.0
H928 H 0.65988 0.79617 0.36169 0.0
H929 H 0.61274 0.79429 0.36801 0.0
C930 C 0.05881 0.13345 0.97375 0.0
C931 C 0.03669 0.10094 0.97532 0.0
C932 C 0.99837 0.12123 0.92517 0.0
C933 C 0.02224 0.15239 0.92175 0.0
N934 N 0.07938 0.1845 0.9374 0.0
N935 N 0.98898 0.06081 0.94938 0.0
C936 C 0.05365 0.15752 0.94458 0.0
C937 C 0.00745 0.09391 0.95009 0.0
N938 N 0.08411 0.14181 0.00074 0.0
N939 N 0.96631 0.11845 0.90574 0.0
H940 H 0.99461 0.04034 0.96753 0.0
H941 H 0.97008 0.05258 0.92907 0.0
H942 H 0.95873 0.13793 0.88726 0.0
H943 H 0.9459 0.0984 0.91003 0.0
H944 H 0.09816 0.16696 0.00333 0.0
H945 H 0.08887 0.12478 0.02252 0.0
H946 H 0.10464 0.18714 0.95063 0.0
H947 H 0.07711 0.20221 0.91569 0.0
C948 C 0.37513 0.31739 0.23049 0.0
C949 C 0.36742 0.29487 0.26075 0.0
C950 C 0.41711 0.25669 0.24125 0.0
C951 C 0.41674 0.27288 0.20623 0.0
N952 N 0.39557 0.32013 0.16764 0.0
N953 N 0.40243 0.26467 0.30566 0.0
C954 C 0.39603 0.30387 0.20092 0.0
C955 C 0.39458 0.27035 0.26963 0.0
N956 N 0.36893 0.35347 0.23307 0.0
N957 N 0.43891 0.22849 0.24762 0.0
H958 H 0.38981 0.27897 0.32686 0.0
H959 H 0.42427 0.24987 0.31422 0.0
H960 H 0.45766 0.21917 0.2285 0.0
H961 H 0.43693 0.21321 0.27131 0.0
H962 H 0.37698 0.37174 0.21287 0.0
H963 H 0.36134 0.36562 0.25796 0.0
H964 H 0.37819 0.34089 0.16204 0.0
H965 H 0.41019 0.31095 0.14497 0.0
C966 C 0.48525 0.41443 0.04219 0.0
C967 C 0.50604 0.41077 0.00957 0.0
C968 C 0.51344 0.34642 0.02142 0.0
C969 C 0.49497 0.35078 0.05537 0.0
N970 N 0.46778 0.38949 0.10101 0.0
N971 N 0.54347 0.37522 0.96956 0.0
C972 C 0.48193 0.38492 0.06652 0.0
C973 C 0.52118 0.37728 0.99957 0.0
N974 N 0.46823 0.44598 0.04958 0.0
N975 N 0.52234 0.31253 0.0095 0.0
H976 H 0.54872 0.39695 0.95223 0.0
H977 H 0.55871 0.35287 0.9631 0.0
H978 H 0.51719 0.28934 0.02486 0.0
H979 H 0.53223 0.3068 0.98331 0.0
H980 H 0.44926 0.44896 0.07056 0.0
H981 H 0.47107 0.46866 0.03309 0.0
H982 H 0.46158 0.41459 0.1124 0.0
H983 H 0.46485 0.36852 0.11964 0.0
C984 C 0.61333 0.22094 0.26794 0.0
C985 C 0.64901 0.2258 0.25322 0.0
C986 C 0.623 0.23213 0.19171 0.0
C987 C 0.5874 0.23124 0.20708 0.0
N988 N 0.54929 0.23267 0.26119 0.0
N989 N 0.68786 0.24321 0.2025 0.0
C990 C 0.58267 0.22776 0.2456 0.0
C991 C 0.65389 0.2335 0.21547 0.0
N992 N 0.60862 0.20874 0.30286 0.0
N993 N 0.62739 0.23004 0.15442 0.0
H994 H 0.71111 0.24515 0.21919 0.0
H995 H 0.69242 0.25272 0.1761 0.0
H996 H 0.60548 0.22783 0.13603 0.0
H997 H 0.6526 0.22678 0.14189 0.0
H998 H 0.58313 0.20105 0.31356 0.0
H999 H 0.63036 0.20306 0.32 0.0
H1000 H 0.54522 0.23409 0.28952 0.0
H1001 H 0.52637 0.23909 0.24608 0.0
C1002 C 0.52604 0.10932 0.05128 0.0
C1003 C 0.49932 0.10651 0.0229 0.0
C1004 C 0.48567 0.1704 0.03313 0.0
C1005 C 0.51092 0.17258 0.06286 0.0
N1006 N 0.55071 0.14323 0.10445 0.0
N1007 N 0.4503 0.13207 0.98949 0.0
C1008 C 0.52997 0.1418 0.07306 0.0
C1009 C 0.47806 0.1364 0.01465 0.0
N1010 N 0.54813 0.08112 0.05694 0.0
N1011 N 0.47019 0.20117 0.02162 0.0
H1012 H 0.44482 0.10791 0.97455 0.0
H1013 H 0.43114 0.15145 0.98513 0.0
H1014 H 0.47494 0.22648 0.03462 0.0
H1015 H 0.45475 0.20232 0.99766 0.0
H1016 H 0.57098 0.08299 0.07406 0.0
H1017 H 0.54519 0.05632 0.04259 0.0
H1018 H 0.56204 0.12067 0.11571 0.0
H1019 H 0.5542 0.16652 0.12117 0.0
C1020 C 0.26627 0.39235 0.69476 0.0
C1021 C 0.26779 0.36209 0.71789 0.0
C1022 C 0.31772 0.39274 0.75334 0.0
C1023 C 0.31833 0.42157 0.72822 0.0
N1024 N 0.2977 0.44627 0.67144 0.0
N1025 N 0.29807 0.33053 0.76559 0.0
C1026 C 0.29377 0.42075 0.69795 0.0
C1027 C 0.29444 0.36142 0.74618 0.0
N1028 N 0.23801 0.39435 0.67039 0.0
N1029 N 0.33822 0.39595 0.78483 0.0
H1030 H 0.28121 0.30718 0.76141 0.0
H1031 H 0.31956 0.32698 0.78372 0.0
H1032 H 0.35527 0.41867 0.79129 0.0
H1033 H 0.33596 0.37761 0.80609 0.0
H1034 H 0.23314 0.4175 0.65569 0.0
H1035 H 0.21753 0.37388 0.66701 0.0
H1036 H 0.28321 0.44484 0.64675 0.0
H1037 H 0.31781 0.46727 0.67254 0.0
C1038 C 0.27337 0.66698 0.74689 0.0
C1039 C 0.25023 0.67085 0.7778 0.0
C1040 C 0.26721 0.61168 0.79967 0.0
C1041 C 0.28757 0.60627 0.767 0.0
N1042 N 0.30454 0.62578 0.70625 0.0
N1043 N 0.21974 0.64452 0.83018 0.0
C1044 C 0.28923 0.63314 0.73969 0.0
C1045 C 0.24556 0.64248 0.80322 0.0
N1046 N 0.28102 0.69594 0.72501 0.0
N1047 N 0.26985 0.58831 0.82803 0.0
H1048 H 0.20324 0.66661 0.83359 0.0
H1049 H 0.2124 0.62297 0.84703 0.0
H1050 H 0.28616 0.56591 0.82693 0.0
H1051 H 0.25873 0.59303 0.85394 0.0
H1052 H 0.30086 0.69595 0.70455 0.0
H1053 H 0.26976 0.72112 0.72928 0.0
H1054 H 0.30303 0.64282 0.68396 0.0
H1055 H 0.31583 0.60108 0.69955 0.0
C1056 C 0.9218 0.45883 0.5159 0.0
C1057 C 0.92016 0.4833 0.48655 0.0
C1058 C 0.86039 0.45584 0.46838 0.0
C1059 C 0.86011 0.43451 0.5004 0.0
N1060 N 0.88733 0.4224 0.5592 0.0
N1061 N 0.88475 0.51001 0.43915 0.0
C1062 C 0.88996 0.43778 0.52545 0.0
C1063 C 0.88854 0.48324 0.46397 0.0
N1064 N 0.95403 0.45488 0.53404 0.0
N1065 N 0.83483 0.44901 0.44134 0.0
H1066 H 0.90446 0.53095 0.43555 0.0
H1067 H 0.86059 0.5134 0.42474 0.0
H1068 H 0.81442 0.42844 0.44271 0.0
H1069 H 0.83615 0.46128 0.41587 0.0
H1070 H 0.95753 0.43478 0.55318 0.0
H1071 H 0.97825 0.46919 0.52734 0.0
H1072 H 0.90695 0.42709 0.57977 0.0
H1073 H 0.86382 0.40829 0.56822 0.0
C1074 C 0.76773 0.88139 0.79703 0.0
C1075 C 0.75212 0.84623 0.78858 0.0
C1076 C 0.6919 0.87156 0.7818 0.0
C1077 C 0.7081 0.90708 0.7869 0.0
N1078 N 0.76295 0.9461 0.79072 0.0
N1079 N 0.70112 0.8087 0.76517 0.0
C1080 C 0.74648 0.91212 0.79209 0.0
C1081 C 0.71471 0.84159 0.77856 0.0
N1082 N 0.80238 0.88543 0.81106 0.0
N1083 N 0.65472 0.86612 0.78194 0.0
H1084 H 0.71713 0.78622 0.76196 0.0
H1085 H 0.67501 0.80472 0.75394 0.0
H1086 H 0.63693 0.88712 0.78558 0.0
H1087 H 0.6416 0.84045 0.78218 0.0
H1088 H 0.81359 0.91008 0.82145 0.0
H1089 H 0.81881 0.86363 0.8154 0.0
H1090 H 0.79121 0.95085 0.7906 0.0
H1091 H 0.74861 0.96924 0.78581 0.0
C1092 C 0.58204 0.54383 0.01054 0.0
C1093 C 0.57986 0.52286 0.97734 0.0
C1094 C 0.63709 0.55264 0.9564 0.0
C1095 C 0.64122 0.57065 0.99122 0.0
N1096 N 0.62144 0.57715 0.05427 0.0
N1097 N 0.60844 0.50222 0.92142 0.0
C1098 C 0.61472 0.56458 0.01911 0.0
C1099 C 0.6083 0.52579 0.95101 0.0
N1100 N 0.55253 0.54479 0.03341 0.0
N1101 N 0.65958 0.56225 0.92795 0.0
H1102 H 0.58797 0.482 0.91663 0.0
H1103 H 0.63046 0.50059 0.90349 0.0
H1104 H 0.68041 0.58243 0.93041 0.0
H1105 H 0.65534 0.55272 0.90101 0.0
H1106 H 0.55131 0.5626 0.056 0.0
H1107 H 0.52789 0.5303 0.02791 0.0
H1108 H 0.60472 0.57027 0.0764 0.0
H1109 H 0.64565 0.59129 0.06215 0.0
C1110 C 0.24725 0.61806 0.20567 0.0
C1111 C 0.24236 0.65209 0.2235 0.0
C1112 C 0.18584 0.62805 0.25182 0.0
C1113 C 0.189 0.59513 0.23133 0.0
N1114 N 0.21971 0.55999 0.18508 0.0
N1115 N 0.20587 0.69136 0.26059 0.0
C1116 C 0.21903 0.59033 0.20741 0.0
C1117 C 0.21133 0.65762 0.24582 0.0
N1118 N 0.27914 0.61214 0.18747 0.0
N1119 N 0.15922 0.63054 0.27794 0.0
H1120 H 0.22459 0.71333 0.25778 0.0
H1121 H 0.1818 0.69831 0.27356 0.0
H1122 H 0.14017 0.60937 0.28312 0.0
H1123 H 0.15772 0.65231 0.29653 0.0
H1124 H 0.28619 0.58675 0.17748 0.0
H1125 H 0.30001 0.63212 0.18472 0.0
H1126 H 0.2386 0.55673 0.16406 0.0
H1127 H 0.19957 0.53905 0.1855 0.0
C1128 C 0.90473 0.54386 0.00933 0.0
C1129 C 0.89921 0.5112 0.0287 0.0
C1130 C 0.83365 0.52114 0.03369 0.0
C1131 C 0.83863 0.55187 0.01121 0.0
N1132 N 0.87786 0.59225 0.97606 0.0
N1133 N 0.85904 0.46676 0.0574 0.0
C1134 C 0.87393 0.56322 0.99863 0.0
C1135 C 0.86385 0.49942 0.04064 0.0
N1136 N 0.93954 0.5566 0.00181 0.0
N1137 N 0.80004 0.51277 0.04838 0.0
H1138 H 0.88068 0.45073 0.06405 0.0
H1139 H 0.83359 0.45436 0.06286 0.0
H1140 H 0.77685 0.52688 0.04241 0.0
H1141 H 0.79538 0.49334 0.06828 0.0
H1142 H 0.94593 0.58201 0.99115 0.0
H1143 H 0.96264 0.54276 0.00877 0.0
H1144 H 0.90191 0.59937 0.96228 0.0
H1145 H 0.85636 0.60847 0.96947 0.0
C1146 C 0.11221 0.97193 0.9999 0.0
C1147 C 0.11579 0.005 0.02056 0.0
C1148 C 0.18072 0.99551 0.03159 0.0
C1149 C 0.17781 0.96391 0.00851 0.0
N1150 N 0.14212 0.9228 0.96845 0.0
N1151 N 0.15328 0.05075 0.05311 0.0
C1152 C 0.14391 0.95236 0.99197 0.0
C1153 C 0.14999 0.01742 0.03576 0.0
N1154 N 0.07829 0.95881 0.98878 0.0
N1155 N 0.21283 0.00444 0.04963 0.0
H1156 H 0.1312 0.06714 0.05745 0.0
H1157 H 0.17813 0.06337 0.06115 0.0
H1158 H 0.23646 0.99016 0.0458 0.0
H1159 H 0.21564 0.02459 0.0701 0.0
H1160 H 0.07302 0.93306 0.97712 0.0
H1161 H 0.05458 0.97275 0.99359 0.0
H1162 H 0.11954 0.91551 0.952 0.0
H1163 H 0.16407 0.90635 0.96376 0.0
loop_
_geom_bond_atom_site_label_1
_geom_bond_atom_site_label_2
_geom_bond_distance
_geom_bond_site_symmetry_2
_ccdc_geom_bond_type
H0 C3 0.931 1_655 S
H1 C6 0.940 . S
H2 C8 0.930 1_556 S
C3 H0 0.931 1_455 S
C3 C4 1.413 . S
C3 C5 1.360 . S
C4 C3 1.413 . S
C4 C8 1.429 . S
C5 C3 1.360 . S
C5 C6 1.372 . S
C6 H1 0.940 . S
C6 C5 1.372 . S
C6 C7 1.404 . S
C7 C6 1.404 . S
C7 C8 1.391 . S
C8 H2 0.930 1_554 S
C8 C4 1.429 . S
C8 C7 1.391 . S
H9 C12 0.931 . S
H10 C15 0.928 . S
H11 C17 0.930 . S
C12 H9 0.931 . S
C12 C13 1.413 . S
C12 C14 1.360 . S
C13 C12 1.413 . S
C13 C17 1.429 . S
C14 C12 1.360 . S
C14 C15 1.372 . S
C15 H10 0.928 . S
C15 C14 1.372 . S
C15 C16 1.404 . S
C16 C15 1.404 . S
C16 C17 1.391 . S
C17 H11 0.930 . S
C17 C13 1.429 . S
C17 C16 1.391 . S
H18 C21 0.931 . S
H19 C24 0.928 1_455 S
H20 C26 0.930 1_556 S
C21 H18 0.931 . S
C21 C22 1.413 . S
C21 C23 1.360 . S
C22 C21 1.413 . S
C22 C26 1.429 . S
C23 C21 1.360 . S
C23 C24 1.372 . S
C24 H19 0.928 1_655 S
C24 C23 1.372 . S
C24 C25 1.404 . S
C25 C24 1.404 . S
C25 C26 1.391 . S
C26 H20 0.930 1_554 S
C26 C22 1.429 . S
C26 C25 1.391 . S
H27 C30 0.931 . S
H28 C33 0.928 . S
H29 C35 0.930 . S
C30 H27 0.931 . S
C30 C31 1.413 . S
C30 C32 1.360 . S
C31 C30 1.413 . S
C31 C35 1.429 . S
C32 C30 1.360 . S
C32 C33 1.372 . S
C33 H28 0.928 . S
C33 C32 1.372 . S
C33 C34 1.404 . S
C34 C33 1.404 . S
C34 C35 1.391 . S
C35 H29 0.930 . S
C35 C31 1.429 . S
C35 C34 1.391 . S
H36 C39 0.931 1_655 S
H37 C42 0.928 . S
H38 C44 0.930 . S
C39 H36 0.931 1_455 S
C39 C40 1.413 . S
C39 C41 1.360 . S
C40 C39 1.413 . S
C40 C44 1.429 . S
C41 C39 1.360 . S
C41 C42 1.372 1_565 S
C42 H37 0.928 . S
C42 C41 1.372 1_545 S
C42 C43 1.404 1_545 S
C43 C42 1.404 1_565 S
C43 C44 1.391 . S
C44 H38 0.930 . S
C44 C40 1.429 . S
C44 C43 1.391 . S
H45 C48 0.931 . S
H46 C51 0.928 . S
H47 C53 0.930 . S
C48 H45 0.931 . S
C48 C49 1.413 . S
C48 C50 1.360 . S
C49 C48 1.413 . S
C49 C53 1.429 . S
C50 C48 1.360 . S
C50 C51 1.372 . S
C51 H46 0.928 . S
C51 C50 1.372 . S
C51 C52 1.404 . S
C52 C51 1.404 . S
C52 C53 1.391 . S
C53 H47 0.930 . S
C53 C49 1.429 . S
C53 C52 1.391 . S
H54 C57 0.931 . S
H55 C60 0.928 1_455 S
H56 C62 0.930 . S
C57 H54 0.931 . S
C57 C58 1.413 . S
C57 C59 1.360 . S
C58 C57 1.413 . S
C58 C62 1.429 . S
C59 C57 1.360 . S
C59 C60 1.372 . S
C60 H55 0.928 1_655 S
C60 C59 1.372 . S
C60 C61 1.404 . S
C61 C60 1.404 . S
C61 C62 1.391 . S
C62 H56 0.930 . S
C62 C58 1.429 . S
C62 C61 1.391 . S
H63 C66 0.931 . S
H64 C69 0.928 . S
H65 C71 0.930 . S
C66 H63 0.931 . S
C66 C67 1.413 . S
C66 C68 1.360 . S
C67 C66 1.413 . S
C67 C71 1.429 . S
C68 C66 1.360 . S
C68 C69 1.372 . S
C69 H64 0.928 . S
C69 C68 1.372 . S
C69 C70 1.404 . S
C70 C69 1.404 . S
C70 C71 1.391 . S
C71 H65 0.930 . S
C71 C67 1.429 . S
C71 C70 1.391 . S
H72 C75 0.931 . S
H73 C78 0.928 . S
H74 C80 0.930 . S
C75 H72 0.931 . S
C75 C76 1.413 . S
C75 C77 1.360 . S
C76 C75 1.413 . S
C76 C80 1.429 . S
C77 C75 1.360 . S
C77 C78 1.372 . S
C78 H73 0.928 . S
C78 C77 1.372 . S
C78 C79 1.404 . S
C79 C78 1.404 . S
C79 C80 1.391 . S
C80 H74 0.930 . S
C80 C76 1.429 . S
C80 C79 1.391 . S
H81 C84 0.931 1_545 S
H82 C87 0.928 . S
H83 C89 0.930 . S
C84 H81 0.931 1_565 S
C84 C85 1.413 . S
C84 C86 1.360 . S
C85 C84 1.413 . S
C85 C89 1.429 . S
C86 C84 1.360 . S
C86 C87 1.372 . S
C87 H82 0.928 . S
C87 C86 1.372 . S
C87 C88 1.404 . S
C88 C87 1.404 . S
C88 C89 1.391 . S
C89 H83 0.930 . S
C89 C85 1.429 . S
C89 C88 1.391 . S
H90 C93 0.931 . S
H91 C96 0.928 . S
H92 C98 0.930 . S
C93 H90 0.931 . S
C93 C94 1.413 . S
C93 C95 1.360 . S
C94 C93 1.413 . S
C94 C98 1.429 . S
C95 C93 1.360 . S
C95 C96 1.372 . S
C96 H91 0.928 . S
C96 C95 1.372 . S
C96 C97 1.404 . S
C97 C96 1.404 . S
C97 C98 1.391 . S
C98 H92 0.930 . S
C98 C94 1.429 . S
C98 C97 1.391 . S
H99 C102 0.931 . S
H100 C105 0.928 . S
H101 C107 0.930 . S
C102 H99 0.931 . S
C102 C103 1.413 . S
C102 C104 1.360 . S
C103 C102 1.413 . S
C103 C107 1.429 . S
C104 C102 1.360 . S
C104 C105 1.372 . S
C105 H100 0.928 . S
C105 C104 1.372 . S
C105 C106 1.404 . S
C106 C105 1.404 . S
C106 C107 1.391 . S
C107 H101 0.930 . S
C107 C103 1.429 . S
C107 C106 1.391 . S
H108 C111 0.931 . S
H109 C114 0.928 . S
H110 C116 0.930 . S
C111 H108 0.931 . S
C111 C112 1.413 . S
C111 C113 1.360 . S
C112 C111 1.413 . S
C112 C116 1.429 . S
C113 C111 1.360 . S
C113 C114 1.372 . S
C114 H109 0.928 . S
C114 C113 1.372 . S
C114 C115 1.404 . S
C115 C114 1.404 . S
C115 C116 1.391 . S
C116 H110 0.930 . S
C116 C112 1.429 . S
C116 C115 1.391 . S
H117 C120 0.931 . S
H118 C123 0.928 . S
H119 C125 0.930 1_554 S
C120 H117 0.931 . S
C120 C121 1.413 . S
C120 C122 1.360 . S
C121 C120 1.413 . S
C121 C125 1.429 . S
C122 C120 1.360 . S
C122 C123 1.372 . S
C123 H118 0.928 . S
C123 C122 1.372 . S
C123 C124 1.404 . S
C124 C123 1.404 . S
C124 C125 1.391 . S
C125 H119 0.930 1_556 S
C125 C121 1.429 . S
C125 C124 1.391 . S
H126 C129 0.931 . S
H127 C132 0.928 . S
H128 C134 0.930 . S
C129 H126 0.931 . S
C129 C130 1.413 . S
C129 C131 1.360 . S
C130 C129 1.413 . S
C130 C134 1.429 . S
C131 C129 1.360 . S
C131 C132 1.372 . S
C132 H127 0.928 . S
C132 C131 1.372 . S
C132 C133 1.404 . S
C133 C132 1.404 . S
C133 C134 1.391 . S
C134 H128 0.930 . S
C134 C130 1.429 . S
C134 C133 1.391 . S
H135 C138 0.931 1_554 S
H136 C141 0.928 . S
H137 C143 0.930 1_565 S
C138 H135 0.931 1_556 S
C138 C139 1.413 . S
C138 C140 1.360 . S
C139 C138 1.413 . S
C139 C143 1.429 . S
C140 C138 1.360 . S
C140 C141 1.372 . S
C141 H136 0.928 . S
C141 C140 1.372 . S
C141 C142 1.404 . S
C142 C141 1.404 . S
C142 C143 1.391 . S
C143 H137 0.930 1_545 S
C143 C139 1.429 . S
C143 C142 1.391 . S
C144 O145 1.160 1_554 S
C144 O151 1.185 . S
O145 C144 1.160 1_556 S
O146 Zn147 1.899 1_556 S
O146 C154 1.284 . S
Zn147 O146 1.899 1_554 S
Zn147 O148 2.032 . S
Zn147 O151 2.086 . S
Zn147 O156 1.977 . S
O148 Zn147 2.032 . S
O148 C152 1.278 . S
C149 O150 1.203 . S
C149 O156 1.267 . S
O150 C149 1.203 . S
O151 C144 1.185 . S
O151 Zn147 2.086 . S
C152 O148 1.278 . S
C152 O153 1.211 . S
O153 C152 1.211 . S
C154 O146 1.284 . S
C154 O155 1.273 . S
O155 C154 1.273 . S
O156 Zn147 1.977 . S
O156 C149 1.267 . S
C157 O158 1.160 . S
C157 O164 1.185 . S
O158 C157 1.160 . S
O159 Zn160 1.899 . S
O159 C167 1.284 . S
Zn160 O159 1.899 . S
Zn160 O161 2.032 . S
Zn160 O164 2.086 . S
Zn160 O169 1.977 . S
O161 Zn160 2.032 . S
O161 C165 1.278 . S
C162 O163 1.203 . S
C162 O169 1.267 . S
O163 C162 1.203 . S
O164 C157 1.185 . S
O164 Zn160 2.086 . S
C165 O161 1.278 . S
C165 O166 1.211 . S
O166 C165 1.211 . S
C167 O159 1.284 . S
C167 O168 1.273 . S
O168 C167 1.273 . S
O169 Zn160 1.977 . S
O169 C162 1.267 . S
C170 O171 1.160 1_554 S
C170 O177 1.185 . S
O171 C170 1.160 1_556 S
O172 Zn173 1.899 1_556 S
O172 C180 1.284 . S
Zn173 O172 1.899 1_554 S
Zn173 O174 2.032 1_554 S
Zn173 O177 2.086 . S
Zn173 O182 1.977 . S
O174 Zn173 2.032 1_556 S
O174 C178 1.278 . S
C175 O176 1.203 . S
C175 O182 1.267 . S
O176 C175 1.203 . S
O177 C170 1.185 . S
O177 Zn173 2.086 . S
C178 O174 1.278 . S
C178 O179 1.211 1_556 S
O179 C178 1.211 1_554 S
C180 O172 1.284 . S
C180 O181 1.273 . S
O181 C180 1.273 . S
O182 Zn173 1.977 . S
O182 C175 1.267 . S
C183 O184 1.160 . S
C183 O190 1.185 . S
O184 C183 1.160 . S
O185 Zn186 1.899 . S
O185 C193 1.284 1_545 S
Zn186 O185 1.899 . S
Zn186 O187 2.032 1_545 S
Zn186 O190 2.086 . S
Zn186 O195 1.977 . S
O187 Zn186 2.032 1_565 S
O187 C191 1.278 . S
C188 O189 1.203 1_545 S
C188 O195 1.267 . S
O189 C188 1.203 1_565 S
O190 C183 1.185 . S
O190 Zn186 2.086 . S
C191 O187 1.278 . S
C191 O192 1.211 . S
O192 C191 1.211 . S
C193 O185 1.284 1_565 S
C193 O194 1.273 . S
O194 C193 1.273 . S
O195 Zn186 1.977 . S
O195 C188 1.267 . S
C196 O197 1.160 . S
C196 O203 1.185 . S
O197 C196 1.160 . S
O198 Zn199 1.899 . S
O198 C206 1.284 . S
Zn199 O198 1.899 . S
Zn199 O200 2.032 . S
Zn199 O203 2.086 . S
Zn199 O208 1.977 . S
O200 Zn199 2.032 . S
O200 C204 1.278 . S
C201 O202 1.203 . S
C201 O208 1.267 . S
O202 C201 1.203 . S
O203 C196 1.185 . S
O203 Zn199 2.086 . S
C204 O200 1.278 . S
C204 O205 1.211 . S
O205 C204 1.211 . S
C206 O198 1.284 . S
C206 O207 1.273 . S
O207 C206 1.273 . S
O208 Zn199 1.977 . S
O208 C201 1.267 . S
C209 O210 1.160 . S
C209 O216 1.185 . S
O210 C209 1.160 . S
O211 Zn212 1.899 . S
O211 C219 1.284 . S
Zn212 O211 1.899 . S
Zn212 O213 2.032 . S
Zn212 O216 2.086 . S
Zn212 O221 1.977 . S
O213 Zn212 2.032 . S
O213 C217 1.278 . S
C214 O215 1.203 . S
C214 O221 1.267 . S
O215 C214 1.203 . S
O216 C209 1.185 . S
O216 Zn212 2.086 . S
C217 O213 1.278 . S
C217 O218 1.211 . S
O218 C217 1.211 . S
C219 O211 1.284 . S
C219 O220 1.273 . S
O220 C219 1.273 . S
O221 Zn212 1.977 . S
O221 C214 1.267 . S
C222 O223 1.160 . S
C222 O229 1.185 . S
O223 C222 1.160 . S
O224 Zn225 1.899 . S
O224 C232 1.284 . S
Zn225 O224 1.899 . S
Zn225 O226 2.032 . S
Zn225 O229 2.086 . S
Zn225 O234 1.977 . S
O226 Zn225 2.032 . S
O226 C230 1.278 . S
C227 O228 1.203 . S
C227 O234 1.267 . S
O228 C227 1.203 . S
O229 C222 1.185 . S
O229 Zn225 2.086 . S
C230 O226 1.278 . S
C230 O231 1.211 . S
O231 C230 1.211 . S
C232 O224 1.284 . S
C232 O233 1.273 . S
O233 C232 1.273 . S
O234 Zn225 1.977 . S
O234 C227 1.267 . S
C235 O236 1.160 . S
C235 O242 1.185 . S
O236 C235 1.160 . S
O237 Zn238 1.899 . S
O237 C245 1.284 1_565 S
Zn238 O237 1.899 . S
Zn238 O239 2.032 1_565 S
Zn238 O242 2.086 . S
Zn238 O247 1.977 . S
O239 Zn238 2.032 1_545 S
O239 C243 1.278 . S
C240 O241 1.203 1_565 S
C240 O247 1.267 . S
O241 C240 1.203 1_545 S
O242 C235 1.185 . S
O242 Zn238 2.086 . S
C243 O239 1.278 . S
C243 O244 1.211 . S
O244 C243 1.211 . S
C245 O237 1.284 1_545 S
C245 O246 1.273 . S
O246 C245 1.273 . S
O247 Zn238 1.977 . S
O247 C240 1.267 . S
C248 O249 1.160 1_455 S
C248 O255 1.185 . S
O249 C248 1.160 1_655 S
O250 Zn251 1.899 1_655 S
O250 C258 1.284 . S
Zn251 O250 1.899 1_455 S
Zn251 O252 2.032 1_455 S
Zn251 O255 2.086 . S
Zn251 O260 1.977 . S
O252 Zn251 2.032 1_655 S
O252 C256 1.277 1_655 S
C253 O254 1.203 . S
C253 O260 1.267 . S
O254 C253 1.203 . S
O255 C248 1.185 . S
O255 Zn251 2.086 . S
C256 O252 1.277 1_455 S
C256 O257 1.218 . S
O257 C256 1.218 . S
C258 O250 1.284 . S
C258 O259 1.273 . S
O259 C258 1.273 . S
O260 Zn251 1.977 . S
O260 C253 1.267 . S
C261 O262 1.160 . S
C261 O268 1.185 . S
O262 C261 1.160 . S
O263 Zn264 1.899 . S
O263 C271 1.284 . S
Zn264 O263 1.899 . S
Zn264 O265 2.032 . S
Zn264 O268 2.086 . S
Zn264 O273 1.977 . S
O265 Zn264 2.032 . S
O265 C269 1.278 . S
C266 O267 1.203 . S
C266 O273 1.267 . S
O267 C266 1.203 . S
O268 C261 1.185 . S
O268 Zn264 2.086 . S
C269 O265 1.278 . S
C269 O270 1.211 . S
O270 C269 1.211 . S
C271 O263 1.284 . S
C271 O272 1.273 . S
O272 C271 1.273 . S
O273 Zn264 1.977 . S
O273 C266 1.267 . S
C274 O275 1.160 1_455 S
C274 O281 1.185 . S
O275 C274 1.160 1_655 S
O276 Zn277 1.899 1_655 S
O276 C284 1.284 . S
Zn277 O276 1.899 1_455 S
Zn277 O278 2.032 1_455 S
Zn277 O281 2.086 . S
Zn277 O286 1.977 . S
O278 Zn277 2.032 1_655 S
O278 C282 1.282 . S
C279 O280 1.203 . S
C279 O286 1.267 . S
O280 C279 1.203 . S
O281 C274 1.185 . S
O281 Zn277 2.086 . S
C282 O278 1.282 . S
C282 O283 1.201 1_655 S
O283 C282 1.201 1_455 S
C284 O276 1.284 . S
C284 O285 1.273 . S
O285 C284 1.273 . S
O286 Zn277 1.977 . S
O286 C279 1.267 . S
C287 O288 1.160 . S
C287 O294 1.185 . S
O288 C287 1.160 . S
O289 Zn290 1.899 . S
O289 C297 1.284 . S
Zn290 O289 1.899 . S
Zn290 O291 2.032 . S
Zn290 O294 2.086 . S
Zn290 O299 1.977 . S
O291 Zn290 2.032 . S
O291 C295 1.278 . S
C292 O293 1.203 . S
C292 O299 1.267 . S
O293 C292 1.203 . S
O294 C287 1.185 . S
O294 Zn290 2.086 . S
C295 O291 1.278 . S
C295 O296 1.211 . S
O296 C295 1.211 . S
C297 O289 1.284 . S
C297 O298 1.273 . S
O298 C297 1.273 . S
O299 Zn290 1.977 . S
O299 C292 1.267 . S
C300 C301 1.363 . S
C300 C306 1.379 . S
C300 N308 1.356 . S
C301 C300 1.363 . S
C301 C307 1.363 . S
C302 C303 1.363 . S
C302 C307 1.379 . S
C302 N309 1.356 . S
C303 C302 1.363 . S
C303 C306 1.363 . S
N304 C306 1.356 . S
N304 H316 0.984 . S
N304 H317 0.985 . S
N305 C307 1.356 . S
N305 H310 0.984 . S
N305 H311 0.985 . S
C306 C300 1.379 . S
C306 C303 1.363 . S
C306 N304 1.356 . S
C307 C301 1.363 . S
C307 C302 1.379 . S
C307 N305 1.356 . S
N308 C300 1.356 . S
N308 H314 0.984 . S
N308 H315 0.984 . S
N309 C302 1.356 . S
N309 H312 0.984 . S
N309 H313 0.985 . S
H310 N305 0.984 . S
H311 N305 0.985 . S
H312 N309 0.984 . S
H313 N309 0.985 . S
H314 N308 0.984 . S
H315 N308 0.984 . S
H316 N304 0.984 . S
H317 N304 0.985 . S
C318 C319 1.363 . S
C318 C324 1.379 . S
C318 N326 1.356 1_455 S
C319 C318 1.363 . S
C319 C325 1.363 . S
C320 C321 1.363 . S
C320 C325 1.379 . S
C320 N327 1.356 . S
C321 C320 1.363 . S
C321 C324 1.363 . S
N322 C324 1.356 . S
N322 H334 0.984 . S
N322 H335 0.985 . S
N323 C325 1.356 . S
N323 H328 0.984 . S
N323 H329 0.985 . S
C324 C318 1.379 . S
C324 C321 1.363 . S
C324 N322 1.356 . S
C325 C319 1.363 . S
C325 C320 1.379 . S
C325 N323 1.356 . S
N326 C318 1.356 1_655 S
N326 H332 0.984 . S
N326 H333 0.984 . S
N327 C320 1.356 . S
N327 H330 0.984 . S
N327 H331 0.985 . S
H328 N323 0.984 . S
H329 N323 0.985 . S
H330 N327 0.984 . S
H331 N327 0.985 . S
H332 N326 0.984 . S
H333 N326 0.984 . S
H334 N322 0.984 . S
H335 N322 0.985 . S
C336 C337 1.363 . S
C336 C342 1.379 . S
C336 N344 1.356 . S
C337 C336 1.363 . S
C337 C343 1.363 . S
C338 C339 1.363 . S
C338 C343 1.379 . S
C338 N345 1.356 . S
C339 C338 1.363 . S
C339 C342 1.363 . S
N340 C342 1.356 . S
N340 H352 0.984 . S
N340 H353 0.985 . S
N341 C343 1.356 . S
N341 H346 0.984 . S
N341 H347 0.985 . S
C342 C336 1.379 . S
C342 C339 1.363 . S
C342 N340 1.356 . S
C343 C337 1.363 . S
C343 C338 1.379 . S
C343 N341 1.356 . S
N344 C336 1.356 . S
N344 H350 0.984 . S
N344 H351 0.984 . S
N345 C338 1.356 . S
N345 H348 0.984 . S
N345 H349 0.985 . S
H346 N341 0.984 . S
H347 N341 0.985 . S
H348 N345 0.984 . S
H349 N345 0.985 . S
H350 N344 0.984 . S
H351 N344 0.984 . S
H352 N340 0.984 . S
H353 N340 0.985 . S
C354 C355 1.363 1_545 S
C354 C360 1.379 . S
C354 N362 1.356 . S
C355 C354 1.363 1_565 S
C355 C361 1.363 . S
C356 C357 1.363 . S
C356 C361 1.379 . S
C356 N363 1.356 . S
C357 C356 1.363 . S
C357 C360 1.363 1_565 S
N358 C360 1.356 . S
N358 H370 0.984 . S
N358 H371 0.985 . S
N359 C361 1.356 1_455 S
N359 H364 0.984 . S
N359 H365 0.985 . S
C360 C354 1.379 . S
C360 C357 1.363 1_545 S
C360 N358 1.356 . S
C361 C355 1.363 . S
C361 C356 1.379 . S
C361 N359 1.356 1_655 S
N362 C354 1.356 . S
N362 H368 0.984 . S
N362 H369 0.984 . S
N363 C356 1.356 . S
N363 H366 0.984 . S
N363 H367 0.985 . S
H364 N359 0.984 . S
H365 N359 0.985 . S
H366 N363 0.984 . S
H367 N363 0.985 . S
H368 N362 0.984 . S
H369 N362 0.984 . S
H370 N358 0.984 . S
H371 N358 0.985 . S
C372 C373 1.363 . S
C372 C378 1.379 . S
C372 N380 1.356 . S
C373 C372 1.363 . S
C373 C379 1.363 . S
C374 C375 1.363 . S
C374 C379 1.379 . S
C374 N381 1.356 . S
C375 C374 1.363 . S
C375 C378 1.363 . S
N376 C378 1.356 . S
N376 H388 0.984 . S
N376 H389 0.985 . S
N377 C379 1.356 . S
N377 H382 0.984 . S
N377 H383 0.985 . S
C378 C372 1.379 . S
C378 C375 1.363 . S
C378 N376 1.356 . S
C379 C373 1.363 . S
C379 C374 1.379 . S
C379 N377 1.356 . S
N380 C372 1.356 . S
N380 H386 0.984 . S
N380 H387 0.984 . S
N381 C374 1.356 . S
N381 H384 0.984 . S
N381 H385 0.985 . S
H382 N377 0.984 . S
H383 N377 0.985 . S
H384 N381 0.984 . S
H385 N381 0.985 . S
H386 N380 0.984 . S
H387 N380 0.984 . S
H388 N376 0.984 . S
H389 N376 0.985 . S
C390 C391 1.363 . S
C390 C396 1.379 . S
C390 N398 1.356 . S
C391 C390 1.363 . S
C391 C397 1.363 . S
C392 C393 1.363 . S
C392 C397 1.379 . S
C392 N399 1.356 . S
C393 C392 1.363 . S
C393 C396 1.363 . S
N394 C396 1.356 . S
N394 H406 0.984 . S
N394 H407 0.985 . S
N395 C397 1.356 . S
N395 H400 0.984 . S
N395 H401 0.985 . S
C396 C390 1.379 . S
C396 C393 1.363 . S
C396 N394 1.356 . S
C397 C391 1.363 . S
C397 C392 1.379 . S
C397 N395 1.356 . S
N398 C390 1.356 . S
N398 H404 0.984 . S
N398 H405 0.984 . S
N399 C392 1.356 . S
N399 H402 0.984 . S
N399 H403 0.985 . S
H400 N395 0.984 . S
H401 N395 0.985 . S
H402 N399 0.984 . S
H403 N399 0.985 . S
H404 N398 0.984 . S
H405 N398 0.984 . S
H406 N394 0.984 . S
H407 N394 0.985 . S
C408 C409 1.363 . S
C408 C414 1.379 . S
C408 N416 1.356 . S
C409 C408 1.363 . S
C409 C415 1.363 . S
C410 C411 1.363 . S
C410 C415 1.379 . S
C410 N417 1.356 . S
C411 C410 1.363 . S
C411 C414 1.363 . S
N412 C414 1.356 . S
N412 H424 0.984 . S
N412 H425 0.985 . S
N413 C415 1.356 . S
N413 H418 0.984 . S
N413 H419 0.985 . S
C414 C408 1.379 . S
C414 C411 1.363 . S
C414 N412 1.356 . S
C415 C409 1.363 . S
C415 C410 1.379 . S
C415 N413 1.356 . S
N416 C408 1.356 . S
N416 H422 0.984 . S
N416 H423 0.984 . S
N417 C410 1.356 . S
N417 H420 0.984 . S
N417 H421 0.985 . S
H418 N413 0.984 . S
H419 N413 0.985 . S
H420 N417 0.984 . S
H421 N417 0.985 . S
H422 N416 0.984 . S
H423 N416 0.984 . S
H424 N412 0.984 . S
H425 N412 0.985 . S
C426 C427 1.363 1_545 S
C426 C432 1.379 . S
C426 N434 1.356 . S
C427 C426 1.363 1_565 S
C427 C433 1.363 . S
C428 C429 1.363 . S
C428 C433 1.379 . S
C428 N435 1.356 . S
C429 C428 1.363 . S
C429 C432 1.363 1_565 S
N430 C432 1.356 . S
N430 H442 0.984 . S
N430 H443 0.985 . S
N431 C433 1.356 . S
N431 H436 0.984 . S
N431 H437 0.985 . S
C432 C426 1.379 . S
C432 C429 1.363 1_545 S
C432 N430 1.356 . S
C433 C427 1.363 . S
C433 C428 1.379 . S
C433 N431 1.356 . S
N434 C426 1.356 . S
N434 H440 0.984 . S
N434 H441 0.984 . S
N435 C428 1.356 . S
N435 H438 0.984 . S
N435 H439 0.985 . S
H436 N431 0.984 . S
H437 N431 0.985 . S
H438 N435 0.984 . S
H439 N435 0.985 . S
H440 N434 0.984 . S
H441 N434 0.984 . S
H442 N430 0.984 . S
H443 N430 0.985 . S
C444 C445 1.363 . S
C444 C450 1.379 . S
C444 N452 1.356 . S
C445 C444 1.363 . S
C445 C451 1.363 . S
C446 C447 1.363 . S
C446 C451 1.379 . S
C446 N453 1.356 . S
C447 C446 1.363 . S
C447 C450 1.363 . S
N448 C450 1.356 . S
N448 H460 0.984 . S
N448 H461 0.985 . S
N449 C451 1.356 . S
N449 H454 0.984 . S
N449 H455 0.985 . S
C450 C444 1.379 . S
C450 C447 1.363 . S
C450 N448 1.356 . S
C451 C445 1.363 . S
C451 C446 1.379 . S
C451 N449 1.356 . S
N452 C444 1.356 . S
N452 H458 0.984 . S
N452 H459 0.984 . S
N453 C446 1.356 . S
N453 H456 0.984 . S
N453 H457 0.985 . S
H454 N449 0.984 . S
H455 N449 0.985 . S
H456 N453 0.984 . S
H457 N453 0.985 . S
H458 N452 0.984 . S
H459 N452 0.984 . S
H460 N448 0.984 . S
H461 N448 0.985 . S
C462 C463 1.363 . S
C462 C468 1.379 . S
C462 N470 1.356 . S
C463 C462 1.363 . S
C463 C469 1.363 . S
C464 C465 1.363 . S
C464 C469 1.379 . S
C464 N471 1.356 . S
C465 C464 1.363 . S
C465 C468 1.363 . S
N466 C468 1.356 . S
N466 H478 0.984 . S
N466 H479 0.985 . S
N467 C469 1.356 . S
N467 H472 0.984 . S
N467 H473 0.985 . S
C468 C462 1.379 . S
C468 C465 1.363 . S
C468 N466 1.356 . S
C469 C463 1.363 . S
C469 C464 1.379 . S
C469 N467 1.356 . S
N470 C462 1.356 . S
N470 H476 0.984 . S
N470 H477 0.984 . S
N471 C464 1.356 . S
N471 H474 0.984 . S
N471 H475 0.985 . S
H472 N467 0.984 . S
H473 N467 0.985 . S
H474 N471 0.984 . S
H475 N471 0.985 . S
H476 N470 0.984 . S
H477 N470 0.984 . S
H478 N466 0.984 . S
H479 N466 0.985 . S
C480 C481 1.363 . S
C480 C486 1.379 . S
C480 N488 1.356 . S
C481 C480 1.363 . S
C481 C487 1.363 . S
C482 C483 1.363 . S
C482 C487 1.379 . S
C482 N489 1.356 . S
C483 C482 1.363 . S
C483 C486 1.363 . S
N484 C486 1.356 . S
N484 H496 0.984 . S
N484 H497 0.985 . S
N485 C487 1.356 . S
N485 H490 0.984 . S
N485 H491 0.985 . S
C486 C480 1.379 . S
C486 C483 1.363 . S
C486 N484 1.356 . S
C487 C481 1.363 . S
C487 C482 1.379 . S
C487 N485 1.356 . S
N488 C480 1.356 . S
N488 H494 0.984 . S
N488 H495 0.984 . S
N489 C482 1.356 . S
N489 H492 0.984 . S
N489 H493 0.985 . S
H490 N485 0.984 . S
H491 N485 0.985 . S
H492 N489 0.984 . S
H493 N489 0.985 . S
H494 N488 0.984 . S
H495 N488 0.984 . S
H496 N484 0.984 . S
H497 N484 0.985 . S
C498 C499 1.363 . S
C498 C504 1.379 . S
C498 N506 1.356 . S
C499 C498 1.363 . S
C499 C505 1.363 . S
C500 C501 1.363 . S
C500 C505 1.379 . S
C500 N507 1.356 . S
C501 C500 1.363 . S
C501 C504 1.363 . S
N502 C504 1.356 . S
N502 H514 0.984 . S
N502 H515 0.985 . S
N503 C505 1.356 . S
N503 H508 0.984 . S
N503 H509 0.985 . S
C504 C498 1.379 . S
C504 C501 1.363 . S
C504 N502 1.356 . S
C505 C499 1.363 . S
C505 C500 1.379 . S
C505 N503 1.356 . S
N506 C498 1.356 . S
N506 H512 0.984 . S
N506 H513 0.984 . S
N507 C500 1.356 . S
N507 H510 0.984 . S
N507 H511 0.985 . S
H508 N503 0.984 . S
H509 N503 0.985 . S
H510 N507 0.984 . S
H511 N507 0.985 . S
H512 N506 0.984 . S
H513 N506 0.984 . S
H514 N502 0.984 . S
H515 N502 0.985 . S
C516 C517 1.363 . S
C516 C522 1.379 . S
C516 N524 1.356 . S
C517 C516 1.363 . S
C517 C523 1.363 . S
C518 C519 1.363 . S
C518 C523 1.379 . S
C518 N525 1.356 . S
C519 C518 1.363 . S
C519 C522 1.363 . S
N520 C522 1.356 . S
N520 H532 0.984 . S
N520 H533 0.985 . S
N521 C523 1.356 . S
N521 H526 0.984 . S
N521 H527 0.985 . S
C522 C516 1.379 . S
C522 C519 1.363 . S
C522 N520 1.356 . S
C523 C517 1.363 . S
C523 C518 1.379 . S
C523 N521 1.356 . S
N524 C516 1.356 . S
N524 H530 0.984 . S
N524 H531 0.984 . S
N525 C518 1.356 . S
N525 H528 0.984 . S
N525 H529 0.985 . S
H526 N521 0.984 . S
H527 N521 0.985 . S
H528 N525 0.984 . S
H529 N525 0.985 . S
H530 N524 0.984 . S
H531 N524 0.984 . S
H532 N520 0.984 . S
H533 N520 0.985 . S
C534 C535 1.363 . S
C534 C540 1.379 . S
C534 N542 1.356 . S
C535 C534 1.363 . S
C535 C541 1.363 . S
C536 C537 1.363 . S
C536 C541 1.379 . S
C536 N543 1.356 . S
C537 C536 1.363 . S
C537 C540 1.363 . S
N538 C540 1.356 1_655 S
N538 H550 0.984 . S
N538 H551 0.985 . S
N539 C541 1.356 . S
N539 H544 0.984 . S
N539 H545 0.985 . S
C540 C534 1.379 . S
C540 C537 1.363 . S
C540 N538 1.356 1_455 S
C541 C535 1.363 . S
C541 C536 1.379 . S
C541 N539 1.356 . S
N542 C534 1.356 . S
N542 H548 0.984 1_455 S
N542 H549 0.984 . S
N543 C536 1.356 . S
N543 H546 0.984 . S
N543 H547 0.985 . S
H544 N539 0.984 . S
H545 N539 0.985 . S
H546 N543 0.984 . S
H547 N543 0.985 . S
H548 N542 0.984 1_655 S
H549 N542 0.984 . S
H550 N538 0.984 . S
H551 N538 0.985 . S
C552 C553 1.363 . S
C552 C558 1.379 . S
C552 N560 1.356 . S
C553 C552 1.363 . S
C553 C559 1.363 . S
C554 C555 1.363 . S
C554 C559 1.379 . S
C554 N561 1.356 . S
C555 C554 1.363 . S
C555 C558 1.363 . S
N556 C558 1.356 . S
N556 H568 0.984 . S
N556 H569 0.985 . S
N557 C559 1.356 . S
N557 H562 0.984 . S
N557 H563 0.985 . S
C558 C552 1.379 . S
C558 C555 1.363 . S
C558 N556 1.356 . S
C559 C553 1.363 . S
C559 C554 1.379 . S
C559 N557 1.356 . S
N560 C552 1.356 . S
N560 H566 0.984 . S
N560 H567 0.984 . S
N561 C554 1.356 . S
N561 H564 0.984 . S
N561 H565 0.985 . S
H562 N557 0.984 . S
H563 N557 0.985 . S
H564 N561 0.984 . S
H565 N561 0.985 . S
H566 N560 0.984 . S
H567 N560 0.984 . S
H568 N556 0.984 . S
H569 N556 0.985 . S
C570 C571 1.363 1_455 S
C570 C576 1.379 . S
C570 N578 1.356 . S
C571 C570 1.363 1_655 S
C571 C577 1.363 . S
C572 C573 1.363 . S
C572 C577 1.379 . S
C572 N579 1.356 . S
C573 C572 1.363 . S
C573 C576 1.363 1_655 S
N574 C576 1.356 . S
N574 H586 0.984 . S
N574 H587 0.985 . S
N575 C577 1.356 . S
N575 H580 0.984 . S
N575 H581 0.985 . S
C576 C570 1.379 . S
C576 C573 1.363 1_455 S
C576 N574 1.356 . S
C577 C571 1.363 . S
C577 C572 1.379 . S
C577 N575 1.356 . S
N578 C570 1.356 . S
N578 H584 0.984 . S
N578 H585 0.984 . S
N579 C572 1.356 . S
N579 H582 0.984 . S
N579 H583 0.985 . S
H580 N575 0.984 . S
H581 N575 0.985 . S
H582 N579 0.984 . S
H583 N579 0.985 . S
H584 N578 0.984 . S
H585 N578 0.984 . S
H586 N574 0.984 . S
H587 N574 0.985 . S
C588 C589 1.363 . S
C588 C594 1.379 . S
C588 N596 1.356 . S
C589 C588 1.363 . S
C589 C595 1.363 . S
C590 C591 1.363 . S
C590 C595 1.379 . S
C590 N597 1.356 . S
C591 C590 1.363 . S
C591 C594 1.363 . S
N592 C594 1.356 . S
N592 H604 0.984 . S
N592 H605 0.985 . S
N593 C595 1.356 . S
N593 H598 0.984 . S
N593 H599 0.985 . S
C594 C588 1.379 . S
C594 C591 1.363 . S
C594 N592 1.356 . S
C595 C589 1.363 . S
C595 C590 1.379 . S
C595 N593 1.356 . S
N596 C588 1.356 . S
N596 H602 0.984 . S
N596 H603 0.984 . S
N597 C590 1.356 . S
N597 H600 0.984 . S
N597 H601 0.985 . S
H598 N593 0.984 . S
H599 N593 0.985 . S
H600 N597 0.984 . S
H601 N597 0.985 . S
H602 N596 0.984 . S
H603 N596 0.984 . S
H604 N592 0.984 . S
H605 N592 0.985 . S
C606 C607 1.363 . S
C606 C612 1.379 . S
C606 N614 1.356 . S
C607 C606 1.363 . S
C607 C613 1.363 . S
C608 C609 1.363 . S
C608 C613 1.379 . S
C608 N615 1.356 . S
C609 C608 1.363 . S
C609 C612 1.363 . S
N610 C612 1.356 . S
N610 H622 0.984 . S
N610 H623 0.985 . S
N611 C613 1.356 . S
N611 H616 0.984 . S
N611 H617 0.985 . S
C612 C606 1.379 . S
C612 C609 1.363 . S
C612 N610 1.356 . S
C613 C607 1.363 . S
C613 C608 1.379 . S
C613 N611 1.356 . S
N614 C606 1.356 . S
N614 H620 0.984 . S
N614 H621 0.984 . S
N615 C608 1.356 . S
N615 H618 0.984 . S
N615 H619 0.985 . S
H616 N611 0.984 . S
H617 N611 0.985 . S
H618 N615 0.984 . S
H619 N615 0.985 . S
H620 N614 0.984 . S
H621 N614 0.984 . S
H622 N610 0.984 . S
H623 N610 0.985 . S
C624 C625 1.363 . S
C624 C630 1.379 . S
C624 N632 1.356 . S
C625 C624 1.363 . S
C625 C631 1.364 1_556 S
C626 C627 1.363 1_554 S
C626 C631 1.381 . S
C626 N633 1.356 . S
C627 C626 1.363 1_556 S
C627 C630 1.363 . S
N628 C630 1.356 . S
N628 H640 0.984 . S
N628 H641 0.985 . S
N629 C631 1.353 1_545 S
N629 H634 0.984 . S
N629 H635 0.985 . S
C630 C624 1.379 . S
C630 C627 1.363 . S
C630 N628 1.356 . S
C631 C625 1.364 1_554 S
C631 C626 1.381 . S
C631 N629 1.353 1_565 S
N632 C624 1.356 . S
N632 H638 0.984 . S
N632 H639 0.984 . S
N633 C626 1.356 . S
N633 H636 0.984 . S
N633 H637 0.985 . S
H634 N629 0.984 . S
H635 N629 0.985 . S
H636 N633 0.984 . S
H637 N633 0.985 . S
H638 N632 0.984 . S
H639 N632 0.984 . S
H640 N628 0.984 . S
H641 N628 0.985 . S
C642 C643 1.363 . S
C642 C648 1.379 . S
C642 N650 1.356 . S
C643 C642 1.363 . S
C643 C649 1.363 . S
C644 C645 1.363 . S
C644 C649 1.379 . S
C644 N651 1.356 . S
C645 C644 1.363 . S
C645 C648 1.363 . S
N646 C648 1.356 . S
N646 H658 0.984 . S
N646 H659 0.985 . S
N647 C649 1.356 . S
N647 H652 0.984 . S
N647 H653 0.985 . S
C648 C642 1.379 . S
C648 C645 1.363 . S
C648 N646 1.356 . S
C649 C643 1.363 . S
C649 C644 1.379 . S
C649 N647 1.356 . S
N650 C642 1.356 . S
N650 H656 0.984 . S
N650 H657 0.984 . S
N651 C644 1.356 . S
N651 H654 0.984 . S
N651 H655 0.985 . S
H652 N647 0.984 . S
H653 N647 0.985 . S
H654 N651 0.984 . S
H655 N651 0.985 . S
H656 N650 0.984 . S
H657 N650 0.984 . S
H658 N646 0.984 . S
H659 N646 0.985 . S
C660 C661 1.363 . S
C660 C666 1.379 . S
C660 N668 1.356 . S
C661 C660 1.363 . S
C661 C667 1.363 . S
C662 C663 1.363 . S
C662 C667 1.379 . S
C662 N669 1.356 . S
C663 C662 1.363 . S
C663 C666 1.363 . S
N664 C666 1.356 . S
N664 H676 0.984 . S
N664 H677 0.985 . S
N665 C667 1.356 . S
N665 H670 0.984 . S
N665 H671 0.985 . S
C666 C660 1.379 . S
C666 C663 1.363 . S
C666 N664 1.356 . S
C667 C661 1.363 . S
C667 C662 1.379 . S
C667 N665 1.356 . S
N668 C660 1.356 . S
N668 H674 0.984 . S
N668 H675 0.984 . S
N669 C662 1.356 . S
N669 H672 0.984 . S
N669 H673 0.985 . S
H670 N665 0.984 . S
H671 N665 0.985 . S
H672 N669 0.984 . S
H673 N669 0.985 . S
H674 N668 0.984 . S
H675 N668 0.984 . S
H676 N664 0.984 . S
H677 N664 0.985 . S
C678 C679 1.363 . S
C678 C684 1.379 . S
C678 N686 1.356 . S
C679 C678 1.363 . S
C679 C685 1.363 . S
C680 C681 1.363 . S
C680 C685 1.379 . S
C680 N687 1.356 . S
C681 C680 1.363 . S
C681 C684 1.363 . S
N682 C684 1.356 . S
N682 H694 0.984 . S
N682 H695 0.985 . S
N683 C685 1.356 . S
N683 H688 0.984 . S
N683 H689 0.985 . S
C684 C678 1.379 . S
C684 C681 1.363 . S
C684 N682 1.356 . S
C685 C679 1.363 . S
C685 C680 1.379 . S
C685 N683 1.356 . S
N686 C678 1.356 . S
N686 H692 0.984 . S
N686 H693 0.984 . S
N687 C680 1.356 . S
N687 H690 0.984 . S
N687 H691 0.985 . S
H688 N683 0.984 . S
H689 N683 0.985 . S
H690 N687 0.984 . S
H691 N687 0.985 . S
H692 N686 0.984 . S
H693 N686 0.984 . S
H694 N682 0.984 . S
H695 N682 0.985 . S
C696 C697 1.363 . S
C696 C702 1.379 . S
C696 N704 1.356 . S
C697 C696 1.363 . S
C697 C703 1.363 . S
C698 C699 1.363 . S
C698 C703 1.379 . S
C698 N705 1.356 . S
C699 C698 1.363 . S
C699 C702 1.363 . S
N700 C702 1.356 . S
N700 H712 0.984 . S
N700 H713 0.985 . S
N701 C703 1.356 1_565 S
N701 H706 0.984 . S
N701 H707 0.985 . S
C702 C696 1.379 . S
C702 C699 1.363 . S
C702 N700 1.356 . S
C703 C697 1.363 . S
C703 C698 1.379 . S
C703 N701 1.356 1_545 S
N704 C696 1.356 . S
N704 H710 0.984 . S
N704 H711 0.984 . S
N705 C698 1.356 . S
N705 H708 0.984 . S
N705 H709 0.985 . S
H706 N701 0.984 . S
H707 N701 0.985 . S
H708 N705 0.984 . S
H709 N705 0.985 . S
H710 N704 0.984 . S
H711 N704 0.984 . S
H712 N700 0.984 . S
H713 N700 0.985 . S
C714 C715 1.363 . S
C714 C720 1.379 . S
C714 N722 1.356 . S
C715 C714 1.363 . S
C715 C721 1.363 . S
C716 C717 1.363 . S
C716 C721 1.379 . S
C716 N723 1.356 . S
C717 C716 1.363 . S
C717 C720 1.363 . S
N718 C720 1.356 . S
N718 H730 0.984 . S
N718 H731 0.985 . S
N719 C721 1.356 . S
N719 H724 0.984 . S
N719 H725 0.985 . S
C720 C714 1.379 . S
C720 C717 1.363 . S
C720 N718 1.356 . S
C721 C715 1.363 . S
C721 C716 1.379 . S
C721 N719 1.356 . S
N722 C714 1.356 . S
N722 H728 0.984 . S
N722 H729 0.984 . S
N723 C716 1.356 . S
N723 H726 0.984 . S
N723 H727 0.985 . S
H724 N719 0.984 . S
H725 N719 0.985 . S
H726 N723 0.984 . S
H727 N723 0.985 . S
H728 N722 0.984 . S
H729 N722 0.984 . S
H730 N718 0.984 . S
H731 N718 0.985 . S
C732 C733 1.363 . S
C732 C738 1.379 . S
C732 N740 1.356 . S
C733 C732 1.363 . S
C733 C739 1.363 . S
C734 C735 1.363 . S
C734 C739 1.379 . S
C734 N741 1.356 . S
C735 C734 1.363 . S
C735 C738 1.363 . S
N736 C738 1.356 . S
N736 H748 0.984 . S
N736 H749 0.985 . S
N737 C739 1.356 . S
N737 H742 0.984 . S
N737 H743 0.985 . S
C738 C732 1.379 . S
C738 C735 1.363 . S
C738 N736 1.356 . S
C739 C733 1.363 . S
C739 C734 1.379 . S
C739 N737 1.356 . S
N740 C732 1.356 . S
N740 H746 0.984 . S
N740 H747 0.984 . S
N741 C734 1.356 . S
N741 H744 0.984 . S
N741 H745 0.985 . S
H742 N737 0.984 . S
H743 N737 0.985 . S
H744 N741 0.984 . S
H745 N741 0.985 . S
H746 N740 0.984 . S
H747 N740 0.984 . S
H748 N736 0.984 . S
H749 N736 0.985 . S
C750 C751 1.379 . S
C750 C756 1.376 1_545 S
C750 N758 1.347 1_545 S
C751 C750 1.379 . S
C751 C757 1.363 . S
C752 C753 1.363 . S
C752 C757 1.379 . S
C752 N759 1.356 . S
C753 C752 1.363 . S
C753 C756 1.363 1_545 S
N754 C756 1.356 . S
N754 H766 0.984 . S
N754 H767 0.985 . S
N755 C757 1.356 . S
N755 H760 0.984 . S
N755 H761 0.985 . S
C756 C750 1.376 1_565 S
C756 C753 1.363 1_565 S
C756 N754 1.356 . S
C757 C751 1.363 . S
C757 C752 1.379 . S
C757 N755 1.356 . S
N758 C750 1.347 1_565 S
N758 H764 0.984 . S
N758 H765 0.984 . S
N759 C752 1.356 . S
N759 H762 0.984 . S
N759 H763 0.985 . S
H760 N755 0.984 . S
H761 N755 0.985 . S
H762 N759 0.984 . S
H763 N759 0.985 . S
H764 N758 0.984 . S
H765 N758 0.984 . S
H766 N754 0.984 . S
H767 N754 0.985 . S
C768 C769 1.363 . S
C768 C774 1.379 . S
C768 N776 1.356 . S
C769 C768 1.363 . S
C769 C775 1.363 . S
C770 C771 1.363 . S
C770 C775 1.379 . S
C770 N777 1.356 . S
C771 C770 1.363 . S
C771 C774 1.363 . S
N772 C774 1.356 . S
N772 H784 0.984 . S
N772 H785 0.985 . S
N773 C775 1.356 . S
N773 H778 0.984 . S
N773 H779 0.985 . S
C774 C768 1.379 . S
C774 C771 1.363 . S
C774 N772 1.356 . S
C775 C769 1.363 . S
C775 C770 1.379 . S
C775 N773 1.356 . S
N776 C768 1.356 . S
N776 H782 0.984 . S
N776 H783 0.984 . S
N777 C770 1.356 . S
N777 H780 0.984 . S
N777 H781 0.985 . S
H778 N773 0.984 . S
H779 N773 0.985 . S
H780 N777 0.984 . S
H781 N777 0.985 . S
H782 N776 0.984 . S
H783 N776 0.984 . S
H784 N772 0.984 . S
H785 N772 0.985 . S
C786 C787 1.363 . S
C786 C792 1.379 . S
C786 N794 1.356 . S
C787 C786 1.363 . S
C787 C793 1.363 . S
C788 C789 1.363 . S
C788 C793 1.379 . S
C788 N795 1.356 . S
C789 C788 1.363 . S
C789 C792 1.363 . S
N790 C792 1.356 . S
N790 H802 0.984 . S
N790 H803 0.985 . S
N791 C793 1.356 . S
N791 H796 0.984 . S
N791 H797 0.985 . S
C792 C786 1.379 . S
C792 C789 1.363 . S
C792 N790 1.356 . S
C793 C787 1.363 . S
C793 C788 1.379 . S
C793 N791 1.356 . S
N794 C786 1.356 . S
N794 H800 0.984 . S
N794 H801 0.984 . S
N795 C788 1.356 . S
N795 H798 0.984 . S
N795 H799 0.985 . S
H796 N791 0.984 . S
H797 N791 0.985 . S
H798 N795 0.984 . S
H799 N795 0.985 . S
H800 N794 0.984 . S
H801 N794 0.984 . S
H802 N790 0.984 . S
H803 N790 0.985 . S
C804 C805 1.363 . S
C804 C810 1.379 . S
C804 N812 1.356 . S
C805 C804 1.363 . S
C805 C811 1.363 . S
C806 C807 1.363 . S
C806 C811 1.379 . S
C806 N813 1.356 . S
C807 C806 1.363 . S
C807 C810 1.363 . S
N808 C810 1.356 . S
N808 H820 0.984 . S
N808 H821 0.985 . S
N809 C811 1.356 . S
N809 H814 0.984 . S
N809 H815 0.985 . S
C810 C804 1.379 . S
C810 C807 1.363 . S
C810 N808 1.356 . S
C811 C805 1.363 . S
C811 C806 1.379 . S
C811 N809 1.356 . S
N812 C804 1.356 . S
N812 H818 0.984 . S
N812 H819 0.984 . S
N813 C806 1.356 . S
N813 H816 0.984 . S
N813 H817 0.985 . S
H814 N809 0.984 . S
H815 N809 0.985 . S
H816 N813 0.984 . S
H817 N813 0.985 . S
H818 N812 0.984 . S
H819 N812 0.984 . S
H820 N808 0.984 . S
H821 N808 0.985 . S
C822 C823 1.363 . S
C822 C828 1.379 . S
C822 N830 1.349 1_545 S
C823 C822 1.363 . S
C823 C829 1.361 1_655 S
C824 C825 1.363 . S
C824 C829 1.372 1_655 S
C824 N831 1.356 . S
C825 C824 1.363 . S
C825 C828 1.363 . S
N826 C828 1.356 1_565 S
N826 H838 0.984 . S
N826 H839 0.985 . S
N827 C829 1.365 . S
N827 H832 0.984 . S
N827 H833 0.985 . S
C828 C822 1.379 . S
C828 C825 1.363 . S
C828 N826 1.356 1_545 S
C829 C823 1.361 1_455 S
C829 C824 1.372 1_455 S
C829 N827 1.365 . S
N830 C822 1.349 1_565 S
N830 H836 1.000 . S
N830 H837 0.977 1_565 S
N831 C824 1.356 . S
N831 H834 0.984 . S
N831 H835 0.985 . S
H832 N827 0.984 . S
H833 N827 0.985 . S
H834 N831 0.984 . S
H835 N831 0.985 . S
H836 N830 1.000 . S
H837 N830 0.977 1_545 S
H838 N826 0.984 . S
H839 N826 0.985 . S
C840 C841 1.363 . S
C840 C846 1.379 . S
C840 N848 1.356 . S
C841 C840 1.363 . S
C841 C847 1.363 . S
C842 C843 1.363 . S
C842 C847 1.379 . S
C842 N849 1.356 . S
C843 C842 1.363 . S
C843 C846 1.363 . S
N844 C846 1.356 . S
N844 H856 0.984 . S
N844 H857 0.985 . S
N845 C847 1.356 . S
N845 H850 0.984 . S
N845 H851 0.985 . S
C846 C840 1.379 . S
C846 C843 1.363 . S
C846 N844 1.356 . S
C847 C841 1.363 . S
C847 C842 1.379 . S
C847 N845 1.356 . S
N848 C840 1.356 . S
N848 H854 0.984 . S
N848 H855 0.984 . S
N849 C842 1.356 . S
N849 H852 0.984 . S
N849 H853 0.985 . S
H850 N845 0.984 . S
H851 N845 0.985 . S
H852 N849 0.984 . S
H853 N849 0.985 . S
H854 N848 0.984 . S
H855 N848 0.984 . S
H856 N844 0.984 . S
H857 N844 0.985 . S
C858 C859 1.363 . S
C858 C864 1.379 . S
C858 N866 1.356 . S
C859 C858 1.363 . S
C859 C865 1.363 . S
C860 C861 1.363 . S
C860 C865 1.379 . S
C860 N867 1.356 . S
C861 C860 1.363 . S
C861 C864 1.363 . S
N862 C864 1.356 . S
N862 H874 0.984 . S
N862 H875 0.985 . S
N863 C865 1.356 1_655 S
N863 H868 0.984 . S
N863 H869 0.985 . S
C864 C858 1.379 . S
C864 C861 1.363 . S
C864 N862 1.356 . S
C865 C859 1.363 . S
C865 C860 1.379 . S
C865 N863 1.356 1_455 S
N866 C858 1.356 . S
N866 H872 0.984 . S
N866 H873 0.984 . S
N867 C860 1.356 . S
N867 H870 0.984 . S
N867 H871 0.985 . S
H868 N863 0.984 . S
H869 N863 0.985 . S
H870 N867 0.984 . S
H871 N867 0.985 . S
H872 N866 0.984 . S
H873 N866 0.984 . S
H874 N862 0.984 . S
H875 N862 0.985 . S
C876 C877 1.363 . S
C876 C882 1.379 . S
C876 N884 1.356 . S
C877 C876 1.363 . S
C877 C883 1.363 . S
C878 C879 1.363 . S
C878 C883 1.379 . S
C878 N885 1.356 . S
C879 C878 1.363 . S
C879 C882 1.363 . S
N880 C882 1.356 . S
N880 H892 0.984 . S
N880 H893 0.985 . S
N881 C883 1.356 . S
N881 H886 0.984 . S
N881 H887 0.985 . S
C882 C876 1.379 . S
C882 C879 1.363 . S
C882 N880 1.356 . S
C883 C877 1.363 . S
C883 C878 1.379 . S
C883 N881 1.356 . S
N884 C876 1.356 . S
N884 H890 0.984 . S
N884 H891 0.984 . S
N885 C878 1.356 . S
N885 H888 0.984 . S
N885 H889 0.985 . S
H886 N881 0.984 . S
H887 N881 0.985 . S
H888 N885 0.984 . S
H889 N885 0.985 . S
H890 N884 0.984 . S
H891 N884 0.984 . S
H892 N880 0.984 . S
H893 N880 0.985 . S
C894 C895 1.363 . S
C894 C900 1.379 . S
C894 N902 1.356 . S
C895 C894 1.363 . S
C895 C901 1.363 1_655 S
C896 C897 1.363 1_455 S
C896 C901 1.379 . S
C896 N903 1.356 . S
C897 C896 1.363 1_655 S
C897 C900 1.363 . S
N898 C900 1.356 . S
N898 H910 0.984 . S
N898 H911 0.985 . S
N899 C901 1.356 1_554 S
N899 H904 0.984 . S
N899 H905 0.985 . S
C900 C894 1.379 . S
C900 C897 1.363 . S
C900 N898 1.356 . S
C901 C895 1.363 1_455 S
C901 C896 1.379 . S
C901 N899 1.356 1_556 S
N902 C894 1.356 . S
N902 H908 0.984 . S
N902 H909 0.984 . S
N903 C896 1.356 . S
N903 H906 0.984 . S
N903 H907 0.985 . S
H904 N899 0.984 . S
H905 N899 0.985 . S
H906 N903 0.984 . S
H907 N903 0.985 . S
H908 N902 0.984 . S
H909 N902 0.984 . S
H910 N898 0.984 . S
H911 N898 0.985 . S
C912 C913 1.363 . S
C912 C918 1.379 . S
C912 N920 1.356 . S
C913 C912 1.363 . S
C913 C919 1.363 . S
C914 C915 1.363 . S
C914 C919 1.379 . S
C914 N921 1.356 . S
C915 C914 1.363 . S
C915 C918 1.363 . S
N916 C918 1.356 . S
N916 H928 0.984 . S
N916 H929 0.985 . S
N917 C919 1.356 . S
N917 H922 0.984 . S
N917 H923 0.985 . S
C918 C912 1.379 . S
C918 C915 1.363 . S
C918 N916 1.356 . S
C919 C913 1.363 . S
C919 C914 1.379 . S
C919 N917 1.356 . S
N920 C912 1.356 . S
N920 H926 0.984 . S
N920 H927 0.984 . S
N921 C914 1.356 . S
N921 H924 0.984 . S
N921 H925 0.985 . S
H922 N917 0.984 . S
H923 N917 0.985 . S
H924 N921 0.984 . S
H925 N921 0.985 . S
H926 N920 0.984 . S
H927 N920 0.984 . S
H928 N916 0.984 . S
H929 N916 0.985 . S
C930 C931 1.363 . S
C930 C936 1.379 . S
C930 N938 1.356 . S
C931 C930 1.363 . S
C931 C937 1.363 1_455 S
C932 C933 1.363 1_655 S
C932 C937 1.379 . S
C932 N939 1.356 . S
C933 C932 1.363 1_455 S
C933 C936 1.363 . S
N934 C936 1.356 . S
N934 H946 0.984 . S
N934 H947 0.985 . S
N935 C937 1.356 1_554 S
N935 H940 0.984 . S
N935 H941 0.985 . S
C936 C930 1.379 . S
C936 C933 1.363 . S
C936 N934 1.356 . S
C937 C931 1.363 1_655 S
C937 C932 1.379 . S
C937 N935 1.356 1_556 S
N938 C930 1.356 . S
N938 H944 0.984 . S
N938 H945 0.984 . S
N939 C932 1.356 . S
N939 H942 0.984 . S
N939 H943 0.985 . S
H940 N935 0.984 . S
H941 N935 0.985 . S
H942 N939 0.984 . S
H943 N939 0.985 . S
H944 N938 0.984 . S
H945 N938 0.984 . S
H946 N934 0.984 . S
H947 N934 0.985 . S
C948 C949 1.363 . S
C948 C954 1.379 . S
C948 N956 1.356 . S
C949 C948 1.363 . S
C949 C955 1.363 . S
C950 C951 1.363 . S
C950 C955 1.379 . S
C950 N957 1.356 . S
C951 C950 1.363 . S
C951 C954 1.363 . S
N952 C954 1.356 . S
N952 H964 0.984 . S
N952 H965 0.985 . S
N953 C955 1.356 . S
N953 H958 0.984 . S
N953 H959 0.985 . S
C954 C948 1.379 . S
C954 C951 1.363 . S
C954 N952 1.356 . S
C955 C949 1.363 . S
C955 C950 1.379 . S
C955 N953 1.356 . S
N956 C948 1.356 . S
N956 H962 0.984 . S
N956 H963 0.984 . S
N957 C950 1.356 . S
N957 H960 0.984 . S
N957 H961 0.985 . S
H958 N953 0.984 . S
H959 N953 0.985 . S
H960 N957 0.984 . S
H961 N957 0.985 . S
H962 N956 0.984 . S
H963 N956 0.984 . S
H964 N952 0.984 . S
H965 N952 0.985 . S
C966 C967 1.363 . S
C966 C972 1.379 . S
C966 N974 1.356 . S
C967 C966 1.363 . S
C967 C973 1.363 1_554 S
C968 C969 1.363 . S
C968 C973 1.379 1_554 S
C968 N975 1.356 . S
C969 C968 1.363 . S
C969 C972 1.363 . S
N970 C972 1.356 . S
N970 H982 0.984 . S
N970 H983 0.985 . S
N971 C973 1.356 . S
N971 H976 0.984 . S
N971 H977 0.985 . S
C972 C966 1.379 . S
C972 C969 1.363 . S
C972 N970 1.356 . S
C973 C967 1.363 1_556 S
C973 C968 1.379 1_556 S
C973 N971 1.356 . S
N974 C966 1.356 . S
N974 H980 0.984 . S
N974 H981 0.984 . S
N975 C968 1.356 . S
N975 H978 0.984 . S
N975 H979 0.985 1_554 S
H976 N971 0.984 . S
H977 N971 0.985 . S
H978 N975 0.984 . S
H979 N975 0.985 1_556 S
H980 N974 0.984 . S
H981 N974 0.984 . S
H982 N970 0.984 . S
H983 N970 0.985 . S
C984 C985 1.363 . S
C984 C990 1.379 . S
C984 N992 1.356 . S
C985 C984 1.363 . S
C985 C991 1.363 . S
C986 C987 1.363 . S
C986 C991 1.379 . S
C986 N993 1.356 . S
C987 C986 1.363 . S
C987 C990 1.363 . S
N988 C990 1.356 . S
N988 H1000 0.984 . S
N988 H1001 0.985 . S
N989 C991 1.356 . S
N989 H994 0.984 . S
N989 H995 0.985 . S
C990 C984 1.379 . S
C990 C987 1.363 . S
C990 N988 1.356 . S
C991 C985 1.363 . S
C991 C986 1.379 . S
C991 N989 1.356 . S
N992 C984 1.356 . S
N992 H998 0.984 . S
N992 H999 0.984 . S
N993 C986 1.356 . S
N993 H996 0.984 . S
N993 H997 0.985 . S
H994 N989 0.984 . S
H995 N989 0.985 . S
H996 N993 0.984 . S
H997 N993 0.985 . S
H998 N992 0.984 . S
H999 N992 0.984 . S
H1000 N988 0.984 . S
H1001 N988 0.985 . S
C1002 C1003 1.363 . S
C1002 C1008 1.379 . S
C1002 N1010 1.356 . S
C1003 C1002 1.363 . S
C1003 C1009 1.363 . S
C1004 C1005 1.363 . S
C1004 C1009 1.379 . S
C1004 N1011 1.356 . S
C1005 C1004 1.363 . S
C1005 C1008 1.363 . S
N1006 C1008 1.356 . S
N1006 H1018 0.984 . S
N1006 H1019 0.985 . S
N1007 C1009 1.356 1_556 S
N1007 H1012 0.984 . S
N1007 H1013 0.985 . S
C1008 C1002 1.379 . S
C1008 C1005 1.363 . S
C1008 N1006 1.356 . S
C1009 C1003 1.363 . S
C1009 C1004 1.379 . S
C1009 N1007 1.356 1_554 S
N1010 C1002 1.356 . S
N1010 H1016 0.984 . S
N1010 H1017 0.984 . S
N1011 C1004 1.356 . S
N1011 H1014 0.984 . S
N1011 H1015 0.985 . S
H1012 N1007 0.984 . S
H1013 N1007 0.985 . S
H1014 N1011 0.984 . S
H1015 N1011 0.985 . S
H1016 N1010 0.984 . S
H1017 N1010 0.984 . S
H1018 N1006 0.984 . S
H1019 N1006 0.985 . S
C1020 C1021 1.363 . S
C1020 C1026 1.379 . S
C1020 N1028 1.356 . S
C1021 C1020 1.363 . S
C1021 C1027 1.363 . S
C1022 C1023 1.363 . S
C1022 C1027 1.379 . S
C1022 N1029 1.356 . S
C1023 C1022 1.363 . S
C1023 C1026 1.363 . S
N1024 C1026 1.356 . S
N1024 H1036 0.984 . S
N1024 H1037 0.985 . S
N1025 C1027 1.356 . S
N1025 H1030 0.984 . S
N1025 H1031 0.985 . S
C1026 C1020 1.379 . S
C1026 C1023 1.363 . S
C1026 N1024 1.356 . S
C1027 C1021 1.363 . S
C1027 C1022 1.379 . S
C1027 N1025 1.356 . S
N1028 C1020 1.356 . S
N1028 H1034 0.984 . S
N1028 H1035 0.984 . S
N1029 C1022 1.356 . S
N1029 H1032 0.984 . S
N1029 H1033 0.985 . S
H1030 N1025 0.984 . S
H1031 N1025 0.985 . S
H1032 N1029 0.984 . S
H1033 N1029 0.985 . S
H1034 N1028 0.984 . S
H1035 N1028 0.984 . S
H1036 N1024 0.984 . S
H1037 N1024 0.985 . S
C1038 C1039 1.363 . S
C1038 C1044 1.379 . S
C1038 N1046 1.356 . S
C1039 C1038 1.363 . S
C1039 C1045 1.363 . S
C1040 C1041 1.363 . S
C1040 C1045 1.379 . S
C1040 N1047 1.356 . S
C1041 C1040 1.363 . S
C1041 C1044 1.363 . S
N1042 C1044 1.356 . S
N1042 H1054 0.984 . S
N1042 H1055 0.985 . S
N1043 C1045 1.356 . S
N1043 H1048 0.984 . S
N1043 H1049 0.985 . S
C1044 C1038 1.379 . S
C1044 C1041 1.363 . S
C1044 N1042 1.356 . S
C1045 C1039 1.363 . S
C1045 C1040 1.379 . S
C1045 N1043 1.356 . S
N1046 C1038 1.356 . S
N1046 H1052 0.984 . S
N1046 H1053 0.984 . S
N1047 C1040 1.356 . S
N1047 H1050 0.984 . S
N1047 H1051 0.985 . S
H1048 N1043 0.984 . S
H1049 N1043 0.985 . S
H1050 N1047 0.984 . S
H1051 N1047 0.985 . S
H1052 N1046 0.984 . S
H1053 N1046 0.984 . S
H1054 N1042 0.984 . S
H1055 N1042 0.985 . S
C1056 C1057 1.363 . S
C1056 C1062 1.379 . S
C1056 N1064 1.356 . S
C1057 C1056 1.363 . S
C1057 C1063 1.363 . S
C1058 C1059 1.363 . S
C1058 C1063 1.379 . S
C1058 N1065 1.356 . S
C1059 C1058 1.363 . S
C1059 C1062 1.363 . S
N1060 C1062 1.356 . S
N1060 H1072 0.984 . S
N1060 H1073 0.985 . S
N1061 C1063 1.356 . S
N1061 H1066 0.984 . S
N1061 H1067 0.985 . S
C1062 C1056 1.379 . S
C1062 C1059 1.363 . S
C1062 N1060 1.356 . S
C1063 C1057 1.363 . S
C1063 C1058 1.379 . S
C1063 N1061 1.356 . S
N1064 C1056 1.356 . S
N1064 H1070 0.984 . S
N1064 H1071 0.984 . S
N1065 C1058 1.356 . S
N1065 H1068 0.984 . S
N1065 H1069 0.985 . S
H1066 N1061 0.984 . S
H1067 N1061 0.985 . S
H1068 N1065 0.984 . S
H1069 N1065 0.985 . S
H1070 N1064 0.984 . S
H1071 N1064 0.984 . S
H1072 N1060 0.984 . S
H1073 N1060 0.985 . S
C1074 C1075 1.363 . S
C1074 C1080 1.379 . S
C1074 N1082 1.356 . S
C1075 C1074 1.363 . S
C1075 C1081 1.363 . S
C1076 C1077 1.363 . S
C1076 C1081 1.379 . S
C1076 N1083 1.356 . S
C1077 C1076 1.363 . S
C1077 C1080 1.363 . S
N1078 C1080 1.356 . S
N1078 H1090 0.984 . S
N1078 H1091 0.985 . S
N1079 C1081 1.356 . S
N1079 H1084 0.984 . S
N1079 H1085 0.985 . S
C1080 C1074 1.379 . S
C1080 C1077 1.363 . S
C1080 N1078 1.356 . S
C1081 C1075 1.363 . S
C1081 C1076 1.379 . S
C1081 N1079 1.356 . S
N1082 C1074 1.356 . S
N1082 H1088 0.984 . S
N1082 H1089 0.984 . S
N1083 C1076 1.356 . S
N1083 H1086 0.984 . S
N1083 H1087 0.985 . S
H1084 N1079 0.984 . S
H1085 N1079 0.985 . S
H1086 N1083 0.984 . S
H1087 N1083 0.985 . S
H1088 N1082 0.984 . S
H1089 N1082 0.984 . S
H1090 N1078 0.984 . S
H1091 N1078 0.985 . S
C1092 C1093 1.363 1_554 S
C1092 C1098 1.379 . S
C1092 N1100 1.356 . S
C1093 C1092 1.363 1_556 S
C1093 C1099 1.363 . S
C1094 C1095 1.363 . S
C1094 C1099 1.379 . S
C1094 N1101 1.356 . S
C1095 C1094 1.363 . S
C1095 C1098 1.363 1_556 S
N1096 C1098 1.356 . S
N1096 H1108 0.984 . S
N1096 H1109 0.985 . S
N1097 C1099 1.356 . S
N1097 H1102 0.984 . S
N1097 H1103 0.985 . S
C1098 C1092 1.379 . S
C1098 C1095 1.363 1_554 S
C1098 N1096 1.356 . S
C1099 C1093 1.363 . S
C1099 C1094 1.379 . S
C1099 N1097 1.356 . S
N1100 C1092 1.356 . S
N1100 H1106 0.984 . S
N1100 H1107 0.984 . S
N1101 C1094 1.356 . S
N1101 H1104 0.984 . S
N1101 H1105 0.985 . S
H1102 N1097 0.984 . S
H1103 N1097 0.985 . S
H1104 N1101 0.984 . S
H1105 N1101 0.985 . S
H1106 N1100 0.984 . S
H1107 N1100 0.984 . S
H1108 N1096 0.984 . S
H1109 N1096 0.985 . S
C1110 C1111 1.363 . S
C1110 C1116 1.379 . S
C1110 N1118 1.356 . S
C1111 C1110 1.363 . S
C1111 C1117 1.363 . S
C1112 C1113 1.363 . S
C1112 C1117 1.379 . S
C1112 N1119 1.356 . S
C1113 C1112 1.363 . S
C1113 C1116 1.363 . S
N1114 C1116 1.356 . S
N1114 H1126 0.984 . S
N1114 H1127 0.985 . S
N1115 C1117 1.356 . S
N1115 H1120 0.984 . S
N1115 H1121 0.985 . S
C1116 C1110 1.379 . S
C1116 C1113 1.363 . S
C1116 N1114 1.356 . S
C1117 C1111 1.363 . S
C1117 C1112 1.379 . S
C1117 N1115 1.356 . S
N1118 C1110 1.356 . S
N1118 H1124 0.984 . S
N1118 H1125 0.984 . S
N1119 C1112 1.356 . S
N1119 H1122 0.984 . S
N1119 H1123 0.985 . S
H1120 N1115 0.984 . S
H1121 N1115 0.985 . S
H1122 N1119 0.984 . S
H1123 N1119 0.985 . S
H1124 N1118 0.984 . S
H1125 N1118 0.984 . S
H1126 N1114 0.984 . S
H1127 N1114 0.985 . S
C1128 C1129 1.363 1_556 S
C1128 C1134 1.379 . S
C1128 N1136 1.356 . S
C1129 C1128 1.363 1_554 S
C1129 C1135 1.363 . S
C1130 C1131 1.363 . S
C1130 C1135 1.379 . S
C1130 N1137 1.356 . S
C1131 C1130 1.363 . S
C1131 C1134 1.363 1_554 S
N1132 C1134 1.356 . S
N1132 H1144 0.984 . S
N1132 H1145 0.985 . S
N1133 C1135 1.356 . S
N1133 H1138 0.984 . S
N1133 H1139 0.985 . S
C1134 C1128 1.379 . S
C1134 C1131 1.363 1_556 S
C1134 N1132 1.356 . S
C1135 C1129 1.363 . S
C1135 C1130 1.379 . S
C1135 N1133 1.356 . S
N1136 C1128 1.356 . S
N1136 H1142 0.984 . S
N1136 H1143 0.984 . S
N1137 C1130 1.356 . S
N1137 H1140 0.984 . S
N1137 H1141 0.985 . S
H1138 N1133 0.984 . S
H1139 N1133 0.985 . S
H1140 N1137 0.984 . S
H1141 N1137 0.985 . S
H1142 N1136 0.984 . S
H1143 N1136 0.984 . S
H1144 N1132 0.984 . S
H1145 N1132 0.985 . S
C1146 C1147 1.389 . S
C1146 C1152 1.376 1_554 S
C1146 N1154 1.340 1_554 S
C1147 C1146 1.389 . S
C1147 C1153 1.363 . S
C1148 C1149 1.363 . S
C1148 C1153 1.379 . S
C1148 N1155 1.356 . S
C1149 C1148 1.363 . S
C1149 C1152 1.363 1_554 S
N1150 C1152 1.356 . S
N1150 H1162 0.984 . S
N1150 H1163 0.985 . S
N1151 C1153 1.356 1_545 S
N1151 H1156 0.984 . S
N1151 H1157 0.985 . S
C1152 C1146 1.376 1_556 S
C1152 C1149 1.363 1_556 S
C1152 N1150 1.356 . S
C1153 C1147 1.363 . S
C1153 C1148 1.379 . S
C1153 N1151 1.356 1_565 S
N1154 C1146 1.340 1_556 S
N1154 H1160 0.984 . S
N1154 H1161 0.984 1_565 S
N1155 C1148 1.356 . S
N1155 H1158 0.984 . S
N1155 H1159 0.985 . S
H1156 N1151 0.984 . S
H1157 N1151 0.985 . S
H1158 N1155 0.984 . S
H1159 N1155 0.985 . S
H1160 N1154 0.984 . S
H1161 N1154 0.984 1_545 S
H1162 N1150 0.984 . S
H1163 N1150 0.985 . S
C303 C154 1.443 . S
C301 C50 1.450 . S
C321 C167 1.561 . S
C319 C61 1.573 1_455 S
C337 C67 1.481 . S
C339 C180 1.468 . S
C357 C193 1.504 . S
C355 C41 1.515 1_655 S
C375 C201 1.464 . S
C373 C95 1.491 . S
C393 C214 1.434 . S
C391 C113 1.451 . S
C409 C106 1.515 . S
C411 C227 1.488 . S
C429 C240 1.500 . S
C427 C86 1.516 . S
C445 C104 1.461 . S
C447 C258 1.449 . S
C465 C269 1.500 . S
C463 C88 1.528 . S
C481 C94 1.480 . S
C483 C253 1.457 . S
C501 C261 1.456 . S
C499 C112 1.481 . S
C517 C70 1.504 . S
C519 C284 1.495 . S
C535 C40 1.511 . S
C537 C274 1.480 . S
C553 C49 1.512 . S
C555 C279 1.484 . S
C571 C59 1.553 . S
C573 C282 1.527 . S
C589 C34 1.458 . S
C591 C191 1.434 . S
C607 C133 1.448 . S
C609 C183 1.432 . S
C627 C152 1.525 1_556 S
C625 C139 1.551 1_565 S
C645 C157 1.504 . S
C643 C77 1.524 . S
C661 C43 1.518 1_545 S
C663 C204 1.489 . S
C681 C243 1.502 . S
C679 C103 1.528 . S
C699 C196 1.486 . S
C697 C85 1.514 1_545 S
C717 C222 1.441 . S
C715 C115 1.472 . S
C735 C232 1.444 . S
C733 C131 1.450 . S
C751 C142 1.573 . S
C753 C245 1.561 . S
C769 C76 1.481 . S
C771 C206 1.468 . S
C789 C219 1.504 . S
C787 C122 1.515 . S
C805 C32 1.491 . S
C807 C175 1.464 . S
C825 C188 1.434 . S
C823 C5 1.451 1_655 S
C843 C149 1.488 . S
C841 C16 1.515 . S
C861 C162 1.500 . S
C859 C23 1.516 1_455 S
C877 C14 1.461 . S
C879 C271 1.449 . S
C895 C25 1.528 1_556 S
C897 C256 1.494 1_655 S
C913 C31 1.480 . S
C915 C266 1.457 . S
C931 C4 1.481 1_556 S
C933 C248 1.456 . S
C951 C297 1.495 . S
C949 C79 1.504 . S
C969 C287 1.480 . S
C967 C121 1.511 1_554 S
C987 C292 1.484 . S
C985 C130 1.512 . S
C1003 C140 1.553 1_554 S
C1005 C295 1.521 . S
C1021 C97 1.458 . S
C1023 C217 1.434 . S
C1041 C209 1.432 . S
C1039 C52 1.448 . S
C1059 C230 1.525 . S
C1057 C58 1.551 . S
C1077 C235 1.504 . S
C1075 C68 1.527 . S
C1093 C124 1.518 . S
C1095 C178 1.489 . S
C1113 C165 1.502 . S
C1111 C13 1.531 . S
C1129 C22 1.514 . S
C1131 C170 1.486 . S
C1149 C144 1.441 . S
C1147 C7 1.472 1_565 S
