# Generated by pormake.
# Topology rtl, (3,6)-cn, num edge types: 1
# Building blocks:
#     Node 0, Type 0, BuildingBlock: CUQRIR_clean_linker_1, # of connection points: 3
#     Node 1, Type 0, BuildingBlock: CUQRIR_clean_linker_1, # of connection points: 3
#     Node 2, Type 0, BuildingBlock: CUQRIR_clean_linker_1, # of connection points: 3
#     Node 3, Type 0, BuildingBlock: CUQRIR_clean_linker_1, # of connection points: 3
#     Node 4, Type 1, BuildingBlock: KUMJIN_clean_sbu_1, # of connection points: 6
#     Node 5, Type 1, BuildingBlock: KUMJIN_clean_sbu_1, # of connection points: 6
#     Edge 6, Type (0, 1), BuildingBlock: TEMPAE_clean_linker_10, # of connection points: 2
#     Edge 7, Type (0, 1), BuildingBlock: TEMPAE_clean_linker_10, # of connection points: 2
#     Edge 8, Type (0, 1), BuildingBlock: TEMPAE_clean_linker_10, # of connection points: 2
#     Edge 9, Type (0, 1), BuildingBlock: TEMPAE_clean_linker_10, # of connection points: 2
#     Edge 10, Type (0, 1), BuildingBlock: TEMPAE_clean_linker_10, # of connection points: 2
#     Edge 11, Type (0, 1), BuildingBlock: TEMPAE_clean_linker_10, # of connection points: 2
#     Edge 12, Type (0, 1), BuildingBlock: TEMPAE_clean_linker_10, # of connection points: 2
#     Edge 13, Type (0, 1), BuildingBlock: TEMPAE_clean_linker_10, # of connection points: 2
#     Edge 14, Type (0, 1), BuildingBlock: TEMPAE_clean_linker_10, # of connection points: 2
#     Edge 15, Type (0, 1), BuildingBlock: TEMPAE_clean_linker_10, # of connection points: 2
#     Edge 16, Type (0, 1), BuildingBlock: TEMPAE_clean_linker_10, # of connection points: 2
#     Edge 17, Type (0, 1), BuildingBlock: TEMPAE_clean_linker_10, # of connection points: 2
# Relax obj value: 0.064
# Max RMSD: 0.226
# Mean RMSD: 0.176
data_MOF--net-rtl--node1-KUMJIN_clean_sbu_1--node2-CUQRIR_clean_linker_1--edge1-TEMPAE_clean_linker_10
_symmetry_space_group_name_H-M    P1
_symmetry_Int_Tables_number       1
_symmetry_cell_setting            triclinic
loop_
_symmetry_equiv_pos_as_xyz
'x, y, z'
_cell_length_a     33.49528
_cell_length_b     33.720689
_cell_length_c     25.25847
_cell_angle_alpha  76.700017
_cell_angle_beta   99.075248
_cell_angle_gamma 91.255957
loop_
_atom_site_label
_atom_site_type_symbol
_atom_site_fract_x
_atom_site_fract_y
_atom_site_fract_z
_atom_type_partial_charge
C0 C 0.235 0.80013 0.98851 0.0
N1 N 0.20633 0.82262 1.00105 0.0
N2 N 0.26107 0.78305 0.0342 0.0
C3 C 0.23972 0.7971 0.93122 0.0
C4 C 0.24776 0.79631 0.07508 0.0
N5 N 0.21464 0.82073 0.05484 0.0
C6 C 0.2653 0.7831 0.13508 0.0
H7 H 0.22156 0.77134 0.9205 0.0
H8 H 0.27178 0.7912 0.92882 0.0
H9 H 0.22911 0.82552 0.90057 0.0
H10 H 0.28684 0.80648 0.14603 0.0
H11 H 0.28183 0.75357 0.14397 0.0
H12 H 0.24119 0.78039 0.16116 0.0
C13 C 0.73005 0.72741 0.69191 0.0
N14 N 0.70331 0.69808 0.68226 0.0
N15 N 0.74254 0.74751 0.64456 0.0
C16 C 0.74209 0.73824 0.7467 0.0
C17 C 0.7224 0.72948 0.60576 0.0
N18 N 0.69819 0.69987 0.62847 0.0
C19 C 0.72873 0.73868 0.54645 0.0
H20 H 0.71669 0.73334 0.77077 0.0
H21 H 0.75168 0.77044 0.74131 0.0
H22 H 0.76786 0.71836 0.77045 0.0
H23 H 0.75924 0.75112 0.54185 0.0
H24 H 0.70583 0.76171 0.52186 0.0
H25 H 0.72491 0.71101 0.52952 0.0
C26 C 0.78977 0.20792 0.12922 0.0
N27 N 0.81536 0.18216 0.11644 0.0
N28 N 0.76937 0.23201 0.08302 0.0
C29 C 0.78746 0.21266 0.18655 0.0
C30 C 0.78365 0.22059 0.04155 0.0
N31 N 0.81204 0.19056 0.06176 0.0
C32 C 0.76751 0.23672 0.98146 0.0
H33 H 0.76422 0.19188 0.20384 0.0
H34 H 0.77862 0.24429 0.18597 0.0
H35 H 0.81692 0.20501 0.2139 0.0
H36 H 0.78592 0.263 0.96465 0.0
H37 H 0.73569 0.24739 0.97578 0.0
H38 H 0.76918 0.21302 0.9578 0.0
C39 C 0.30221 0.28533 0.41628 0.0
N40 N 0.32729 0.31561 0.42747 0.0
N41 N 0.2841 0.26843 0.46024 0.0
C42 C 0.29521 0.27214 0.36265 0.0
C43 C 0.29916 0.28903 0.49874 0.0
N44 N 0.32562 0.3174 0.47916 0.0
C45 C 0.28702 0.28244 0.55496 0.0
H46 H 0.26973 0.29032 0.33495 0.0
H47 H 0.287 0.23952 0.36916 0.0
H48 H 0.3225 0.27713 0.34225 0.0
H49 H 0.27288 0.2523 0.56685 0.0
H50 H 0.26496 0.30663 0.55456 0.0
H51 H 0.31367 0.2848 0.58623 0.0
Eu52 Eu 0.04722 0.96096 0.53062 0.0
C53 C 0.96441 0.13492 0.51202 0.0
N54 N 0.99717 0.11722 0.54789 0.0
C55 C 0.03098 0.18126 0.53686 0.0
C56 C 0.96375 0.17688 0.48703 0.0
C57 C 0.03007 0.13962 0.56105 0.0
C58 C 0.99768 0.19999 0.49968 0.0
C59 C 0.89706 0.12837 0.46283 0.0
C60 C 0.93148 0.11087 0.49984 0.0
C61 C 0.89617 0.17024 0.43829 0.0
C62 C 0.92944 0.1944 0.45026 0.0
Eu63 Eu 0.99316 0.04689 0.58608 0.0
N64 N 0.93342 0.07025 0.52376 0.0
C65 C 0.86457 0.10322 0.45148 0.0
C66 C 0.9013 0.04589 0.51422 0.0
C67 C 0.86666 0.06186 0.47747 0.0
H68 H 0.05535 0.12545 0.59092 0.0
H69 H 0.84145 0.0423 0.46952 0.0
H70 H 1.00426 0.87468 0.58851 0.0
H71 H 0.20615 0.00658 0.56028 0.0
H72 H 0.90203 0.01422 0.53493 0.0
H73 H 0.83765 0.11548 0.42311 0.0
H74 H 0.13615 0.01035 0.51305 0.0
H75 H 0.05721 0.19892 0.54721 0.0
H76 H 0.87 0.18419 0.40966 0.0
H77 H 0.92837 0.2266 0.43069 0.0
H78 H 0.02317 0.81249 0.66193 0.0
H79 H 0.9984 0.2323 0.48118 0.0
H80 H 0.22833 0.94989 0.64036 0.0
N81 N 0.0623 0.90091 0.5999 0.0
C82 C 0.10109 0.89636 0.62655 0.0
C83 C 0.04528 0.83589 0.65251 0.0
C84 C 0.11321 0.86133 0.6684 0.0
C85 C 0.03463 0.87103 0.61117 0.0
C86 C 0.08468 0.8311 0.68141 0.0
N87 N 0.11627 0.96043 0.57114 0.0
C88 C 0.14419 0.98733 0.55046 0.0
C89 C 0.16926 0.92239 0.63852 0.0
C90 C 0.12863 0.927 0.6121 0.0
C91 C 0.19695 0.95227 0.62099 0.0
C92 C 0.18449 0.98448 0.57609 0.0
H93 H 0.09286 0.80378 0.71336 0.0
H94 H 0.16313 0.83078 0.72809 0.0
H95 H 0.21221 0.88399 0.70168 0.0
O96 O 0.07769 0.95807 0.46077 0.0
O97 O 0.04029 0.95095 0.62127 0.0
O98 O 0.0499 0.01492 0.63572 0.0
O99 O 0.04196 0.90771 0.49476 0.0
O100 O 0.06677 0.02725 0.50711 0.0
O101 O 0.06042 0.05091 0.58391 0.0
O102 O 0.95574 0.03186 0.65152 0.0
O103 O 0.99004 0.0572 0.49321 0.0
O104 O 0.99337 0.99403 0.47272 0.0
O105 O 0.99384 0.08454 0.646 0.0
O106 O 0.96502 0.98378 0.59763 0.0
O107 O 0.9802 0.9519 0.53057 0.0
C108 C 0.05129 0.97548 0.65411 0.0
C109 C 0.04421 0.92019 0.39957 0.0
C110 C 0.05187 0.91041 0.30879 0.0
C111 C 0.00984 0.91546 0.29247 0.0
C112 C 1.00222 0.92405 0.38292 0.0
C113 C 0.98522 0.92195 0.32953 0.0
C114 C 0.06892 0.913 0.36254 0.0
C115 C 0.07597 0.05339 0.53863 0.0
C116 C 0.06245 0.92312 0.45553 0.0
C117 C 0.1533 0.8574 0.69567 0.0
C118 C 0.18124 0.88777 0.6807 0.0
C119 C 0.98451 0.03323 0.45835 0.0
C120 C 0.93312 0.08798 0.6809 0.0
C121 C 0.89501 0.11002 0.74449 0.0
C122 C 0.87204 0.13647 0.69896 0.0
C123 C 0.90926 0.11407 0.6366 0.0
C124 C 0.92582 0.08579 0.73491 0.0
C125 C 0.87897 0.13816 0.64557 0.0
C126 C 0.95854 0.95571 0.56845 0.0
C127 C 0.96617 0.06389 0.67089 0.0
H128 H 0.99593 0.91328 0.25153 0.0
H129 H 0.98258 0.92846 0.41133 0.0
H130 H 0.9528 0.92497 0.31699 0.0
H131 H 0.10133 0.90948 0.37552 0.0
H132 H 0.84904 0.15656 0.70448 0.0
H133 H 0.91429 0.11623 0.59509 0.0
H134 H 0.94401 0.06526 0.76911 0.0
H135 H 0.86108 0.15859 0.61102 0.0
Eu136 Eu 0.4757 0.4886 1.0047 0.0
C137 C 0.62354 0.59397 0.07488 0.0
N138 N 0.61484 0.55372 0.08053 0.0
C139 C 0.67512 0.54258 0.04562 0.0
C140 C 0.65803 0.61028 0.05261 0.0
C141 C 0.64048 0.52779 0.06766 0.0
C142 C 0.68382 0.58403 0.03771 0.0
C143 C 0.60406 0.66137 0.08162 0.0
C144 C 0.59676 0.61926 0.08907 0.0
C145 C 0.63848 0.67768 0.05961 0.0
C146 C 0.66535 0.65222 0.04511 0.0
Eu147 Eu 0.55467 0.53244 0.11596 0.0
N148 N 0.56323 0.60286 0.10918 0.0
C149 C 0.57632 0.68593 0.09607 0.0
C150 C 0.53638 0.62647 0.12408 0.0
C151 C 0.54242 0.66836 0.11757 0.0
H152 H 0.63425 0.49579 0.07387 0.0
H153 H 0.52096 0.68705 0.12919 0.0
H154 H 0.39842 0.55633 0.98834 0.0
H155 H 0.47228 0.32287 0.06586 0.0
H156 H 0.51053 0.6129 0.14162 0.0
H157 H 0.58084 0.71843 0.09091 0.0
H158 H 0.50042 0.39005 0.02773 0.0
H159 H 0.69507 0.522 0.03467 0.0
H160 H 0.64448 0.70999 0.05339 0.0
H161 H 0.69159 0.66532 0.02779 0.0
H162 H 0.33321 0.55891 0.02038 0.0
H163 H 0.7105 0.59543 0.02019 0.0
H164 H 0.40649 0.31921 0.09953 0.0
N165 N 0.41113 0.49447 0.02994 0.0
C166 C 0.3944 0.45875 0.05309 0.0
C167 C 0.35056 0.53072 0.03125 0.0
C168 C 0.35601 0.45824 0.06959 0.0
C169 C 0.38837 0.52951 0.01483 0.0
C170 C 0.33471 0.49508 0.05999 0.0
N171 N 0.45115 0.42349 0.04025 0.0
C172 C 0.47168 0.38852 0.04233 0.0
C173 C 0.39743 0.3847 0.07948 0.0
C174 C 0.41453 0.42225 0.05731 0.0
C175 C 0.4186 0.34865 0.08265 0.0
C176 C 0.4558 0.35058 0.06378 0.0
H177 H 0.30514 0.49598 0.07199 0.0
H178 H 0.31006 0.42009 0.10626 0.0
H179 H 0.3466 0.35577 0.11566 0.0
O180 O 0.46725 0.45448 0.93971 0.0
O181 O 0.48612 0.45482 0.09575 0.0
O182 O 0.49459 0.50802 0.13768 0.0
O183 O 0.44071 0.51437 0.92375 0.0
O184 O 0.53847 0.4614 0.01845 0.0
O185 O 0.56896 0.46939 0.10483 0.0
O186 O 0.57126 0.55061 0.19504 0.0
O187 O 0.55478 0.5625 0.02511 0.0
O188 O 0.53364 0.51395 0.97585 0.0
O189 O 0.58898 0.49054 0.18636 0.0
O190 O 0.4896 0.55272 0.09978 0.0
O191 O 0.47155 0.55597 1.00743 0.0
C192 C 0.48288 0.47073 0.13775 0.0
C193 C 0.40686 0.46749 0.87598 0.0
C194 C 0.37261 0.44043 0.79897 0.0
C195 C 0.3363 0.43995 0.82064 0.0
C196 C 0.37037 0.46632 0.8969 0.0
C197 C 0.33531 0.45271 0.86923 0.0
C198 C 0.40789 0.45452 0.82703 0.0
C199 C 0.56546 0.45107 0.06345 0.0
C200 C 0.44402 0.48201 0.90479 0.0
C201 C 0.33935 0.42096 0.09298 0.0
C202 C 0.36002 0.3843 0.09798 0.0
C203 C 0.55284 0.54753 0.98103 0.0
C204 C 0.60865 0.50491 0.27705 0.0
C205 C 0.62566 0.52093 0.36757 0.0
C206 C 0.63989 0.48078 0.38983 0.0
C207 C 0.6236 0.46504 0.30028 0.0
C208 C 0.61029 0.53307 0.31092 0.0
C209 C 0.63914 0.45317 0.35623 0.0
C210 C 0.47059 0.57094 0.0511 0.0
C211 C 0.58896 0.51562 0.21875 0.0
H212 H 0.30844 0.43005 0.79973 0.0
H213 H 0.36888 0.47611 0.9344 0.0
H214 H 0.3072 0.45213 0.88543 0.0
H215 H 0.43625 0.45488 0.81135 0.0
H216 H 0.65201 0.47095 0.43322 0.0
H217 H 0.62267 0.44269 0.27541 0.0
H218 H 0.59885 0.56393 0.29377 0.0
H219 H 0.65035 0.42232 0.37373 0.0
C220 C 0.21346 0.24894 0.4644 0.0
C221 C 0.25345 0.2379 0.46436 0.0
C222 C 0.18374 0.21919 0.47337 0.0
C223 C 0.19459 0.17744 0.48321 0.0
C224 C 0.235 0.16631 0.48225 0.0
C225 C 0.26399 0.19681 0.4727 0.0
C226 C 0.141 0.23234 0.47379 0.0
C227 C 0.24786 0.12218 0.49304 0.0
C228 C 0.12989 0.10057 0.56563 0.0
C229 C 0.10631 0.08498 0.52431 0.0
C230 C 0.15881 0.13052 0.55279 0.0
C231 C 0.16416 0.1454 0.49721 0.0
C232 C 0.14041 0.12975 0.45528 0.0
C233 C 0.1119 0.09953 0.46939 0.0
C234 C 0.18372 0.14617 0.59878 0.0
C235 C 0.14492 0.14515 0.39553 0.0
H236 H 0.20581 0.28091 0.45831 0.0
H237 H 0.2952 0.18868 0.47321 0.0
H238 H 0.11941 0.21865 0.44522 0.0
H239 H 0.13301 0.22124 0.51562 0.0
H240 H 0.13696 0.266 0.46176 0.0
H241 H 0.27999 0.11872 0.48859 0.0
H242 H 0.24371 0.10626 0.5354 0.0
H243 H 0.2286 0.10672 0.4642 0.0
H244 H 0.12598 0.08904 0.60822 0.0
H245 H 0.09359 0.08763 0.43731 0.0
H246 H 0.17877 0.17949 0.59205 0.0
H247 H 0.21636 0.14107 0.59895 0.0
H248 H 0.17615 0.1311 0.63986 0.0
H249 H 0.13883 0.17848 0.38276 0.0
H250 H 0.12406 0.12993 0.36788 0.0
H251 H 0.17642 0.14004 0.38987 0.0
C252 C 0.33266 0.76161 0.05546 0.0
C253 C 0.2922 0.7534 0.03841 0.0
C254 C 0.36338 0.73356 0.05664 0.0
C255 C 0.35303 0.69642 0.04101 0.0
C256 C 0.31197 0.68799 0.02433 0.0
C257 C 0.28206 0.71675 0.02302 0.0
C258 C 0.40685 0.74367 0.0743 0.0
C259 C 0.29956 0.64839 1.00862 0.0
C260 C 0.43106 0.63404 0.99953 0.0
C261 C 0.44195 0.60432 0.04826 0.0
C262 C 0.40283 0.66495 0.99689 0.0
C263 C 0.38484 0.66563 0.04387 0.0
C264 C 0.39598 0.63573 0.09318 0.0
C265 C 0.42455 0.60562 0.09485 0.0
C266 C 0.3918 0.69652 0.9437 0.0
C267 C 0.37702 0.63492 0.14387 0.0
H268 H 0.34011 0.79027 0.06688 0.0
H269 H 0.25054 0.71072 1.01011 0.0
H270 H 0.42024 0.72049 0.11124 0.0
H271 H 0.42478 0.74284 0.04117 0.0
H272 H 0.40987 0.7742 0.08401 0.0
H273 H 0.2666 0.64762 0.99358 0.0
H274 H 0.31626 0.64339 0.97606 0.0
H275 H 0.30741 0.62265 0.04491 0.0
H276 H 0.44457 0.63307 0.96357 0.0
H277 H 0.43251 0.58237 0.13249 0.0
H278 H 0.39634 0.72757 0.95126 0.0
H279 H 0.35932 0.6941 0.92729 0.0
H280 H 0.41 0.693 0.91187 0.0
H281 H 0.38148 0.66448 0.15603 0.0
H282 H 0.38985 0.61019 0.17938 0.0
H283 H 0.34395 0.63048 0.13471 0.0
C284 C 0.81154 0.77223 0.66642 0.0
C285 C 0.77226 0.779 0.63713 0.0
C286 C 0.84164 0.80151 0.6566 0.0
C287 C 0.83204 0.83843 0.61663 0.0
C288 C 0.79205 0.84568 0.58786 0.0
C289 C 0.76266 0.81579 0.59843 0.0
C290 C 0.8839 0.79253 0.68802 0.0
C291 C 0.78051 0.88469 0.54522 0.0
C292 C 0.90228 0.92829 0.62093 0.0
C293 C 0.9254 0.9264 0.57972 0.0
C294 C 0.87173 0.90002 0.63322 0.0
C295 C 0.86408 0.86894 0.60377 0.0
C296 C 0.88707 0.86697 0.56193 0.0
C297 C 0.9173 0.89575 0.55029 0.0
C298 C 0.84777 0.90326 0.67796 0.0
C299 C 0.87994 0.83422 0.52968 0.0
H300 H 0.81884 0.7435 0.69592 0.0
H301 H 0.73213 0.82084 0.57611 0.0
H302 H 0.9053 0.79166 0.65893 0.0
H303 H 0.89379 0.81714 0.70949 0.0
H304 H 0.88607 0.763 0.71894 0.0
H305 H 0.7478 0.88625 0.528 0.0
H306 H 0.78801 0.91135 0.56357 0.0
H307 H 0.79815 0.88729 0.51094 0.0
H308 H 0.90814 0.95178 0.64398 0.0
H309 H 0.93484 0.89392 0.51834 0.0
H310 H 0.85169 0.87491 0.71097 0.0
H311 H 0.81507 0.90665 0.661 0.0
H312 H 0.85709 0.9295 0.69657 0.0
H313 H 0.88466 0.80371 0.55812 0.0
H314 H 0.90035 0.83692 0.49841 0.0
H315 H 0.84818 0.83589 0.50846 0.0
C316 C 0.74552 0.30322 0.0524 0.0
C317 C 0.7395 0.26289 0.07915 0.0
C318 C 0.71713 0.33389 0.04971 0.0
C319 C 0.68179 0.32367 0.07394 0.0
C320 C 0.67548 0.28274 0.10053 0.0
C321 C 0.70462 0.25283 0.10305 0.0
C322 C 0.72512 0.37724 0.0215 0.0
C323 C 0.63801 0.27058 0.1263 0.0
C324 C 0.62594 0.40735 0.11188 0.0
C325 C 0.59471 0.41781 0.06678 0.0
C326 C 0.65452 0.37683 0.11468 0.0
C327 C 0.65154 0.35586 0.07172 0.0
C328 C 0.61983 0.36579 0.02651 0.0
C329 C 0.59195 0.39677 0.02442 0.0
C330 C 0.68815 0.3673 0.16336 0.0
C331 C 0.61544 0.34377 0.9802 0.0
H332 H 0.77283 0.31069 0.03443 0.0
H333 H 0.70021 0.22143 0.12343 0.0
H334 H 0.70022 0.38871 0.98712 0.0
H335 H 0.726 0.39721 0.05097 0.0
H336 H 0.75411 0.38006 1.00489 0.0
H337 H 0.63739 0.23732 0.14451 0.0
H338 H 0.63633 0.28716 0.15909 0.0
H339 H 0.61062 0.27921 0.0949 0.0
H340 H 0.62847 0.42333 0.14487 0.0
H341 H 0.56801 0.40449 0.98936 0.0
H342 H 0.71788 0.37229 0.14894 0.0
H343 H 0.68721 0.33477 0.18496 0.0
H344 H 0.6862 0.38641 0.19333 0.0
H345 H 0.64273 0.34839 0.95983 0.0
H346 H 0.58849 0.35444 0.94866 0.0
H347 H 0.61292 0.31052 0.99684 0.0
C348 C 0.20754 0.86528 0.11741 0.0
C349 C 0.19046 0.83795 0.08645 0.0
C350 C 0.18532 0.8801 0.15166 0.0
C351 C 0.14533 0.86656 0.15563 0.0
C352 C 0.12774 0.83949 0.12338 0.0
C353 C 0.15052 0.82573 0.0888 0.0
C354 C 0.20491 0.90951 0.18446 0.0
C355 C 0.0854 0.82396 0.12685 0.0
C356 C 0.1042 0.86726 0.28738 0.0
C357 C 0.07745 0.90076 0.27033 0.0
C358 C 0.12657 0.85592 0.2505 0.0
C359 C 0.12259 0.87909 0.19544 0.0
C360 C 0.09639 0.91361 0.17839 0.0
C361 C 0.07383 0.92381 0.21592 0.0
C362 C 0.15374 0.81858 0.2701 0.0
C363 C 0.09197 0.93955 0.12041 0.0
H364 H 0.23848 0.87468 0.11499 0.0
H365 H 0.13772 0.80432 0.0649 0.0
H366 H 0.1853 0.93693 0.17732 0.0
H367 H 0.2086 0.89501 0.22909 0.0
H368 H 0.23506 0.91929 0.17367 0.0
H369 H 0.07572 0.80414 0.09773 0.0
H370 H 0.08379 0.80629 0.16933 0.0
H371 H 0.06366 0.84988 0.11786 0.0
H372 H 0.1067 0.84913 0.32925 0.0
H373 H 0.05336 0.94992 0.20279 0.0
H374 H 0.18524 0.82678 0.26416 0.0
H375 H 0.14381 0.7959 0.2453 0.0
H376 H 0.15364 0.80403 0.31427 0.0
H377 H 0.12202 0.95034 0.11042 0.0
H378 H 0.07176 0.96644 0.11439 0.0
H379 H 0.0795 0.92112 0.09064 0.0
C380 C 0.63952 0.67252 0.7134 0.0
C381 C 0.68182 0.67206 0.7218 0.0
C382 C 0.61807 0.65121 0.75449 0.0
C383 C 0.63955 0.62875 0.80505 0.0
C384 C 0.68236 0.62707 0.81281 0.0
C385 C 0.70295 0.64875 0.77104 0.0
C386 C 0.57248 0.65388 0.74453 0.0
C387 C 0.70643 0.60318 0.86576 0.0
C388 C 0.58779 0.60868 0.93248 0.0
C389 C 0.57496 0.56841 0.93603 0.0
C390 C 0.60893 0.6286 0.89028 0.0
C391 C 0.61731 0.60787 0.85031 0.0
C392 C 0.60444 0.56721 0.85365 0.0
C393 C 0.58339 0.54803 0.89633 0.0
C394 C 0.62223 0.67189 0.88846 0.0
C395 C 0.61305 0.54389 0.81223 0.0
H396 H 0.62333 0.69088 0.67545 0.0
H397 H 0.7357 0.64818 0.77709 0.0
H398 H 0.55956 0.62288 0.75098 0.0
H399 H 0.56202 0.66906 0.77459 0.0
H400 H 0.56029 0.67119 0.70224 0.0
H401 H 0.73943 0.60356 0.86441 0.0
H402 H 0.70097 0.61607 0.90068 0.0
H403 H 0.69643 0.57106 0.87438 0.0
H404 H 0.58098 0.6249 0.96243 0.0
H405 H 0.57384 0.51683 0.89879 0.0
H406 H 0.60963 0.69195 0.84818 0.0
H407 H 0.65566 0.67342 0.89247 0.0
H408 H 0.61254 0.68403 0.92184 0.0
H409 H 0.59938 0.56013 0.77011 0.0
H410 H 0.60109 0.51245 0.82059 0.0
H411 H 0.64614 0.54208 0.81269 0.0
C412 C 0.82634 0.1266 0.19944 0.0
C413 C 0.84166 0.15206 0.15537 0.0
C414 C 0.85224 0.1036 0.24442 0.0
C415 C 0.89441 0.10432 0.24379 0.0
C416 C 0.90958 0.12595 0.19622 0.0
C417 C 0.8831 0.15061 0.15304 0.0
C418 C 0.83466 0.08034 0.29383 0.0
C419 C 0.95391 0.12429 0.19202 0.0
C420 C 0.95977 0.09372 0.38303 0.0
C421 C 0.96516 0.05136 0.40099 0.0
C422 C 0.93773 0.11133 0.33133 0.0
C423 C 0.92234 0.08618 0.29519 0.0
C424 C 0.93024 0.04365 0.31137 0.0
C425 C 0.95101 0.02675 0.36437 0.0
C426 C 0.92875 0.15661 0.31705 0.0
C427 C 0.91656 0.01522 0.27403 0.0
H428 H 0.79408 0.12663 0.20003 0.0
H429 H 0.89502 0.16997 0.11876 0.0
H430 H 0.84224 0.04744 0.30149 0.0
H431 H 0.84809 0.09106 0.33105 0.0
H432 H 0.80126 0.08393 0.28831 0.0
H433 H 0.95962 0.13658 0.14919 0.0
H434 H 0.97133 0.14241 0.21903 0.0
H435 H 0.96549 0.09238 0.2062 0.0
H436 H 0.97188 0.11329 0.40995 0.0
H437 H 0.95521 0.9941 0.37735 0.0
H438 H 0.89592 0.16169 0.31564 0.0
H439 H 0.93622 0.17107 0.27585 0.0
H440 H 0.94585 0.17227 0.34749 0.0
H441 H 0.8972 0.0301 0.23502 0.0
H442 H 0.89987 0.98941 0.29608 0.0
H443 H 0.94362 0.00209 0.26363 0.0
C444 C 0.3797 0.33523 0.54636 0.0
C445 C 0.34446 0.34654 0.50829 0.0
C446 C 0.39093 0.35536 0.58926 0.0
C447 C 0.36578 0.38705 0.59451 0.0
C448 C 0.33225 0.40101 0.5529 0.0
C449 C 0.322 0.38048 0.51024 0.0
C450 C 0.42724 0.33978 0.63204 0.0
C451 C 0.30458 0.43463 0.55663 0.0
C452 C 0.35125 0.39132 0.73923 0.0
C453 C 0.37321 0.42587 0.74754 0.0
C454 C 0.34916 0.3783 0.68998 0.0
C455 C 0.36985 0.40008 0.64775 0.0
C456 C 0.3931 0.43429 0.65632 0.0
C457 C 0.39445 0.44685 0.70608 0.0
C458 C 0.32422 0.34143 0.6829 0.0
C459 C 0.41583 0.45807 0.61253 0.0
H460 H 0.39643 0.30835 0.54529 0.0
H461 H 0.2943 0.38847 0.48128 0.0
H462 H 0.44445 0.36537 0.64491 0.0
H463 H 0.41697 0.32042 0.6691 0.0
H464 H 0.44781 0.32121 0.61662 0.0
H465 H 0.28416 0.44632 0.51712 0.0
H466 H 0.28571 0.42279 0.58907 0.0
H467 H 0.32227 0.46033 0.56835 0.0
H468 H 0.33549 0.37435 0.7714 0.0
H469 H 0.41131 0.47372 0.71192 0.0
H470 H 0.34352 0.31775 0.67507 0.0
H471 H 0.30002 0.34995 0.64668 0.0
H472 H 0.30994 0.32792 0.71966 0.0
H473 H 0.43521 0.43726 0.59899 0.0
H474 H 0.43509 0.48185 0.62716 0.0
H475 H 0.39407 0.47304 0.5759 0.0
C476 C 0.69505 0.63235 0.60782 0.0
C477 C 0.67747 0.67076 0.60083 0.0
C478 C 0.68192 0.60745 0.57107 0.0
C479 C 0.64997 0.62123 0.52689 0.0
C480 C 0.63014 0.65882 0.52239 0.0
C481 C 0.64455 0.68342 0.55907 0.0
C482 C 0.70425 0.56787 0.57712 0.0
C483 C 0.59535 0.6742 0.47693 0.0
C484 C 0.6534 0.58312 0.39704 0.0
C485 C 0.62769 0.5497 0.40422 0.0
C486 C 0.66022 0.60721 0.43614 0.0
C487 C 0.64009 0.59812 0.48281 0.0
C488 C 0.61245 0.5656 0.48859 0.0
C489 C 0.60704 0.54138 0.44961 0.0
C490 C 0.69037 0.64122 0.42877 0.0
C491 C 0.58951 0.55567 0.53674 0.0
H492 H 0.721 0.62322 0.63968 0.0
H493 H 0.63149 0.71349 0.55364 0.0
H494 H 0.68267 0.54251 0.57652 0.0
H495 H 0.72079 0.57018 0.54178 0.0
H496 H 0.72632 0.56014 0.61585 0.0
H497 H 0.5794 0.70055 0.48416 0.0
H498 H 0.60682 0.68393 0.43713 0.0
H499 H 0.57329 0.64961 0.47296 0.0
H500 H 0.66963 0.5892 0.36218 0.0
H501 H 0.58712 0.51546 0.455 0.0
H502 H 0.71588 0.63488 0.46355 0.0
H503 H 0.67607 0.67044 0.42933 0.0
H504 H 0.7027 0.64499 0.3896 0.0
H505 H 0.6108 0.54398 0.57533 0.0
H506 H 0.56604 0.53238 0.53212 0.0
H507 H 0.57475 0.58357 0.54131 0.0
C508 C 0.83392 0.12951 0.03461 0.0
C509 C 0.83436 0.17176 0.02944 0.0
C510 C 0.84978 0.11208 0.99663 0.0
C511 C 0.86508 0.13778 0.95173 0.0
C512 C 0.86807 0.18016 0.94892 0.0
C513 C 0.85334 0.19642 0.98844 0.0
C514 C 0.84785 0.06657 1.00273 0.0
C515 C 0.8837 0.20892 0.90165 0.0
C516 C 0.919 0.10696 0.84543 0.0
C517 C 0.88714 0.10944 0.80127 0.0
C518 C 0.91191 0.11259 0.89673 0.0
C519 C 0.8723 0.12209 0.90344 0.0
C520 C 0.83977 0.12195 0.86026 0.0
C521 C 0.84751 0.11485 0.81029 0.0
C522 C 0.94717 0.11064 0.94256 0.0
C523 C 0.79703 0.13219 0.8653 0.0
H524 H 0.81947 0.11042 0.06666 0.0
H525 H 0.85447 0.22897 0.98557 0.0
H526 H 0.82116 0.05915 0.97486 0.0
H527 H 0.87517 0.05481 0.99122 0.0
H528 H 0.84498 0.05047 0.04556 0.0
H529 H 0.88607 0.24066 0.90726 0.0
H530 H 0.9139 0.19863 0.89703 0.0
H531 H 0.86302 0.20899 0.86269 0.0
H532 H 0.94975 0.10259 0.83932 0.0
H533 H 0.82245 0.11524 0.77729 0.0
H534 H 0.93843 0.09588 0.98303 0.0
H535 H 0.95704 0.14198 0.94433 0.0
H536 H 0.97331 0.09364 0.936 0.0
H537 H 0.78772 0.11191 0.90233 0.0
H538 H 0.77495 0.12929 0.82869 0.0
H539 H 0.79552 0.16397 0.87029 0.0
C540 C 0.39196 0.34498 0.4031 0.0
C541 C 0.35 0.34201 0.38985 0.0
C542 C 0.41488 0.36691 0.36415 0.0
C543 C 0.3953 0.38586 0.31054 0.0
C544 C 0.35269 0.3839 0.29769 0.0
C545 C 0.3306 0.36228 0.33765 0.0
C546 C 0.46013 0.36883 0.37983 0.0
C547 C 0.3305 0.40303 0.24101 0.0
C548 C 0.44724 0.46963 0.21807 0.0
C549 C 0.46177 0.44847 0.18301 0.0
C550 C 0.42627 0.44953 0.26029 0.0
C551 C 0.41928 0.40721 0.26755 0.0
C552 C 0.43425 0.38557 0.23269 0.0
C553 C 0.45573 0.40637 0.19133 0.0
C554 C 0.41094 0.47375 0.29653 0.0
C555 C 0.42692 0.34057 0.23835 0.0
H556 H 0.40696 0.3289 0.44323 0.0
H557 H 0.29806 0.36029 0.32773 0.0
H558 H 0.47534 0.35292 0.35447 0.0
H559 H 0.47 0.401 0.37129 0.0
H560 H 0.47043 0.3546 0.42402 0.0
H561 H 0.29723 0.40371 0.23991 0.0
H562 H 0.34079 0.43458 0.22637 0.0
H563 H 0.33718 0.38507 0.2117 0.0
H564 H 0.45178 0.50219 0.21214 0.0
H565 H 0.46773 0.38965 0.16537 0.0
H566 H 0.42215 0.45986 0.34051 0.0
H567 H 0.37742 0.47306 0.29088 0.0
H568 H 0.42047 0.50606 0.28723 0.0
H569 H 0.43721 0.32366 0.28137 0.0
H570 H 0.44268 0.3277 0.21039 0.0
H571 H 0.39402 0.33538 0.22868 0.0
C572 C 0.16742 0.88661 0.95983 0.0
C573 C 0.17365 0.84519 0.96275 0.0
C574 C 0.14098 0.91041 0.9158 0.0
C575 C 0.12226 0.89266 0.87264 0.0
C576 C 0.12608 0.85015 0.87793 0.0
C577 C 0.15077 0.82678 0.9239 0.0
C578 C 0.13476 0.95488 0.91408 0.0
C579 C 0.10635 0.82966 0.83344 0.0
C580 C 0.04405 0.94164 0.75031 0.0
C581 C 0.0689 0.95814 0.71142 0.0
C582 C 0.0609 0.92293 0.80465 0.0
C583 C 0.1035 0.91878 0.81902 0.0
C584 C 0.12855 0.93629 0.77964 0.0
C585 C 0.1108 0.95692 0.72674 0.0
C586 C 0.03287 0.90679 0.84566 0.0
C587 C 0.17401 0.9312 0.79219 0.0
H588 H 0.18468 0.90081 0.99031 0.0
H589 H 0.15439 0.79436 0.92772 0.0
H590 H 0.15384 0.97372 0.88611 0.0
H591 H 0.10276 0.9643 0.89802 0.0
H592 H 0.14313 0.96145 0.95552 0.0
H593 H 0.11653 0.79746 0.84071 0.0
H594 H 0.07308 0.8302 0.8315 0.0
H595 H 0.11318 0.84635 0.79275 0.0
H596 H 0.01147 0.94333 0.73823 0.0
H597 H 0.12971 0.97067 0.69656 0.0
H598 H 0.0474 0.90576 0.8886 0.0
H599 H 0.02369 0.87551 0.84255 0.0
H600 H 1.0049 0.92587 0.83654 0.0
H601 H 0.18625 0.94366 0.82829 0.0
H602 H 0.189 0.9467 0.75692 0.0
H603 H 0.18222 0.89827 0.80272 0.0
loop_
_geom_bond_atom_site_label_1
_geom_bond_atom_site_label_2
_geom_bond_distance
_geom_bond_site_symmetry_2
_ccdc_geom_bond_type
C0 N1 1.317 . S
C0 N2 1.348 1_556 S
C0 C3 1.485 . S
N1 C0 1.317 . S
N1 N5 1.370 1_556 S
N2 C0 1.348 1_554 S
N2 C4 1.346 . S
C3 C0 1.485 . S
C3 H7 0.960 . S
C3 H8 0.961 . S
C3 H9 0.960 . S
C4 N2 1.346 . S
C4 N5 1.307 . S
C4 C6 1.486 . S
N5 N1 1.370 1_554 S
N5 C4 1.307 . S
C6 C4 1.486 . S
C6 H10 0.960 . S
C6 H11 0.960 . S
C6 H12 0.959 . S
H7 C3 0.960 . S
H8 C3 0.961 . S
H9 C3 0.960 . S
H10 C6 0.960 . S
H11 C6 0.960 . S
H12 C6 0.959 . S
C13 N14 1.317 . S
C13 N15 1.348 . S
C13 C16 1.485 . S
N14 C13 1.317 . S
N14 N18 1.370 . S
N15 C13 1.348 . S
N15 C17 1.346 . S
C16 C13 1.485 . S
C16 H20 0.960 . S
C16 H21 0.961 . S
C16 H22 0.960 . S
C17 N15 1.346 . S
C17 N18 1.307 . S
C17 C19 1.486 . S
N18 N14 1.370 . S
N18 C17 1.307 . S
C19 C17 1.486 . S
C19 H23 0.960 . S
C19 H24 0.960 . S
C19 H25 0.959 . S
H20 C16 0.960 . S
H21 C16 0.961 . S
H22 C16 0.960 . S
H23 C19 0.960 . S
H24 C19 0.960 . S
H25 C19 0.959 . S
C26 N27 1.317 . S
C26 N28 1.348 . S
C26 C29 1.485 . S
N27 C26 1.317 . S
N27 N31 1.370 . S
N28 C26 1.348 . S
N28 C30 1.346 . S
C29 C26 1.485 . S
C29 H33 0.960 . S
C29 H34 0.961 . S
C29 H35 0.960 . S
C30 N28 1.346 . S
C30 N31 1.307 . S
C30 C32 1.486 1_554 S
N31 N27 1.370 . S
N31 C30 1.307 . S
C32 C30 1.486 1_556 S
C32 H36 0.960 . S
C32 H37 0.960 . S
C32 H38 0.959 . S
H33 C29 0.960 . S
H34 C29 0.961 . S
H35 C29 0.960 . S
H36 C32 0.960 . S
H37 C32 0.960 . S
H38 C32 0.959 . S
C39 N40 1.317 . S
C39 N41 1.348 . S
C39 C42 1.485 . S
N40 C39 1.317 . S
N40 N44 1.370 . S
N41 C39 1.348 . S
N41 C43 1.346 . S
C42 C39 1.485 . S
C42 H46 0.960 . S
C42 H47 0.961 . S
C42 H48 0.960 . S
C43 N41 1.346 . S
C43 N44 1.307 . S
C43 C45 1.486 . S
N44 N40 1.370 . S
N44 C43 1.307 . S
C45 C43 1.486 . S
C45 H49 0.960 . S
C45 H50 0.960 . S
C45 H51 0.959 . S
H46 C42 0.960 . S
H47 C42 0.961 . S
H48 C42 0.960 . S
H49 C45 0.960 . S
H50 C45 0.960 . S
H51 C45 0.959 . S
Eu52 N81 2.600 . S
Eu52 N87 2.562 . S
Eu52 O96 2.462 . S
Eu52 O97 2.373 . S
Eu52 O99 2.432 . S
Eu52 O100 2.291 1_565 S
Eu52 O104 2.335 1_465 S
Eu52 O107 2.372 1_455 S
Eu52 C116 2.787 . S
C53 N54 1.365 . S
C53 C56 1.405 . S
C53 C60 1.448 . S
N54 C53 1.365 . S
N54 C57 1.319 1_655 S
N54 Eu63 2.600 . S
C55 C57 1.397 . S
C55 C58 1.367 1_455 S
C55 H75 0.931 . S
C56 C53 1.405 . S
C56 C58 1.403 . S
C56 C62 1.439 . S
C57 N54 1.319 1_455 S
C57 C55 1.397 . S
C57 H68 0.930 . S
C58 C55 1.367 1_655 S
C58 C56 1.403 . S
C58 H79 0.929 . S
C59 C60 1.430 . S
C59 C61 1.387 . S
C59 C65 1.404 . S
C60 C53 1.448 . S
C60 C59 1.430 . S
C60 N64 1.351 . S
C61 C59 1.387 . S
C61 C62 1.374 . S
C61 H76 0.931 . S
C62 C56 1.439 . S
C62 C61 1.374 . S
C62 H77 0.931 . S
Eu63 N54 2.600 . S
Eu63 N64 2.562 . S
Eu63 O98 2.335 1_655 S
Eu63 O101 2.372 1_655 S
Eu63 O102 2.462 . S
Eu63 O103 2.373 . S
Eu63 O105 2.432 . S
Eu63 O106 2.291 1_545 S
Eu63 C127 2.787 . S
N64 C60 1.351 . S
N64 Eu63 2.562 . S
N64 C66 1.325 . S
C65 C59 1.404 . S
C65 C67 1.366 . S
C65 H73 0.930 . S
C66 N64 1.325 . S
C66 C67 1.416 . S
C66 H72 0.929 . S
C67 C65 1.366 . S
C67 C66 1.416 . S
C67 H69 0.930 . S
H68 C57 0.930 . S
H69 C67 0.930 . S
H70 C85 0.930 1_655 S
H71 C92 0.930 . S
H72 C66 0.929 . S
H73 C65 0.930 . S
H74 C88 0.929 . S
H75 C55 0.931 . S
H76 C61 0.931 . S
H77 C62 0.931 . S
H78 C83 0.931 1_655 S
H79 C58 0.929 . S
H80 C91 0.930 . S
N81 Eu52 2.600 . S
N81 C82 1.365 . S
N81 C85 1.319 . S
C82 N81 1.365 . S
C82 C84 1.405 . S
C82 C90 1.448 . S
C83 H78 0.931 1_455 S
C83 C85 1.397 . S
C83 C86 1.367 . S
C84 C82 1.405 . S
C84 C86 1.403 . S
C84 C117 1.439 . S
C85 H70 0.930 1_455 S
C85 N81 1.319 . S
C85 C83 1.397 . S
C86 C83 1.367 . S
C86 C84 1.403 . S
C86 H93 0.929 . S
N87 Eu52 2.562 . S
N87 C88 1.325 . S
N87 C90 1.351 . S
C88 H74 0.929 . S
C88 N87 1.325 . S
C88 C92 1.416 . S
C89 C90 1.430 . S
C89 C91 1.404 . S
C89 C118 1.387 . S
C90 C82 1.448 . S
C90 N87 1.351 . S
C90 C89 1.430 . S
C91 H80 0.930 . S
C91 C89 1.404 . S
C91 C92 1.366 . S
C92 H71 0.930 . S
C92 C88 1.416 . S
C92 C91 1.366 . S
H93 C86 0.929 . S
H94 C117 0.931 . S
H95 C118 0.931 . S
O96 Eu52 2.462 . S
O96 C116 1.252 . S
O97 Eu52 2.373 . S
O97 C108 1.249 . S
O98 Eu63 2.335 1_455 S
O98 C108 1.264 1_545 S
O99 Eu52 2.432 . S
O99 C116 1.268 . S
O100 Eu52 2.291 1_545 S
O100 C115 1.255 . S
O101 Eu63 2.372 1_455 S
O101 C115 1.257 . S
O102 Eu63 2.462 . S
O102 C127 1.252 . S
O103 Eu63 2.373 . S
O103 C119 1.249 . S
O104 Eu52 2.335 1_645 S
O104 C119 1.264 . S
O105 Eu63 2.432 . S
O105 C127 1.268 . S
O106 Eu63 2.291 1_565 S
O106 C126 1.255 . S
O107 Eu52 2.372 1_655 S
O107 C126 1.257 . S
C108 O97 1.249 . S
C108 O98 1.264 1_565 S
C109 C112 1.382 . S
C109 C114 1.390 . S
C109 C116 1.506 . S
C110 C111 1.398 . S
C110 C114 1.392 . S
C111 C110 1.398 . S
C111 C113 1.372 . S
C111 H128 0.931 . S
C112 C109 1.382 . S
C112 C113 1.390 . S
C112 H129 0.931 . S
C113 C111 1.372 . S
C113 C112 1.390 . S
C113 H130 0.929 . S
C114 C109 1.390 . S
C114 C110 1.392 . S
C114 H131 0.930 . S
C115 O100 1.255 . S
C115 O101 1.257 . S
C116 Eu52 2.787 . S
C116 O96 1.252 . S
C116 O99 1.268 . S
C116 C109 1.506 . S
C117 C84 1.439 . S
C117 H94 0.931 . S
C117 C118 1.374 . S
C118 C89 1.387 . S
C118 H95 0.931 . S
C118 C117 1.374 . S
C119 O103 1.249 . S
C119 O104 1.264 . S
C120 C123 1.382 . S
C120 C124 1.390 . S
C120 C127 1.506 . S
C121 C122 1.398 . S
C121 C124 1.392 . S
C122 C121 1.398 . S
C122 C125 1.372 . S
C122 H132 0.931 . S
C123 C120 1.382 . S
C123 C125 1.390 . S
C123 H133 0.931 . S
C124 C120 1.390 . S
C124 C121 1.392 . S
C124 H134 0.930 . S
C125 C122 1.372 . S
C125 C123 1.390 . S
C125 H135 0.929 . S
C126 O106 1.255 . S
C126 O107 1.257 . S
C127 Eu63 2.787 . S
C127 O102 1.252 . S
C127 O105 1.268 . S
C127 C120 1.506 . S
H128 C111 0.931 . S
H129 C112 0.931 . S
H130 C113 0.929 . S
H131 C114 0.930 . S
H132 C122 0.931 . S
H133 C123 0.931 . S
H134 C124 0.930 . S
H135 C125 0.929 . S
Eu136 N165 2.599 1_556 S
Eu136 N171 2.562 1_556 S
Eu136 O180 2.462 . S
Eu136 O181 2.373 1_556 S
Eu136 O183 2.432 . S
Eu136 O184 2.291 1_556 S
Eu136 O188 2.335 . S
Eu136 O191 2.372 1_556 S
Eu136 C200 2.787 . S
C137 N138 1.365 . S
C137 C140 1.405 . S
C137 C144 1.448 . S
N138 C137 1.365 . S
N138 C141 1.319 . S
N138 Eu147 2.600 . S
C139 C141 1.397 . S
C139 C142 1.367 . S
C139 H159 0.931 . S
C140 C137 1.405 . S
C140 C142 1.403 . S
C140 C146 1.439 . S
C141 N138 1.319 . S
C141 C139 1.397 . S
C141 H152 0.930 . S
C142 C139 1.367 . S
C142 C140 1.403 . S
C142 H163 0.929 . S
C143 C144 1.430 . S
C143 C145 1.387 . S
C143 C149 1.404 . S
C144 C137 1.448 . S
C144 C143 1.430 . S
C144 N148 1.351 . S
C145 C143 1.387 . S
C145 C146 1.374 . S
C145 H160 0.931 . S
C146 C140 1.439 . S
C146 C145 1.374 . S
C146 H161 0.931 . S
Eu147 N138 2.600 . S
Eu147 N148 2.562 . S
Eu147 O182 2.335 . S
Eu147 O185 2.372 . S
Eu147 O186 2.462 . S
Eu147 O187 2.373 . S
Eu147 O189 2.432 . S
Eu147 O190 2.291 . S
Eu147 C211 2.787 . S
N148 C144 1.351 . S
N148 Eu147 2.562 . S
N148 C150 1.325 . S
C149 C143 1.404 . S
C149 C151 1.366 . S
C149 H157 0.930 . S
C150 N148 1.325 . S
C150 C151 1.416 . S
C150 H156 0.929 . S
C151 C149 1.366 . S
C151 C150 1.416 . S
C151 H153 0.930 . S
H152 C141 0.930 . S
H153 C151 0.930 . S
H154 C169 0.930 . S
H155 C176 0.930 . S
H156 C150 0.929 . S
H157 C149 0.930 . S
H158 C172 0.929 . S
H159 C139 0.931 . S
H160 C145 0.931 . S
H161 C146 0.931 . S
H162 C167 0.931 . S
H163 C142 0.929 . S
H164 C175 0.930 . S
N165 Eu136 2.599 1_554 S
N165 C166 1.366 . S
N165 C169 1.319 1_554 S
C166 N165 1.366 . S
C166 C168 1.405 . S
C166 C174 1.448 . S
C167 H162 0.931 . S
C167 C169 1.397 . S
C167 C170 1.367 1_556 S
C168 C166 1.405 . S
C168 C170 1.403 . S
C168 C201 1.439 . S
C169 H154 0.930 . S
C169 N165 1.319 1_556 S
C169 C167 1.397 . S
C170 C167 1.367 1_554 S
C170 C168 1.403 . S
C170 H177 0.929 . S
N171 Eu136 2.562 1_554 S
N171 C172 1.325 . S
N171 C174 1.351 . S
C172 H158 0.929 . S
C172 N171 1.325 . S
C172 C176 1.416 . S
C173 C174 1.430 . S
C173 C175 1.404 . S
C173 C202 1.387 . S
C174 C166 1.448 . S
C174 N171 1.351 . S
C174 C173 1.430 . S
C175 H164 0.930 . S
C175 C173 1.404 . S
C175 C176 1.366 . S
C176 H155 0.930 . S
C176 C172 1.416 . S
C176 C175 1.366 . S
H177 C170 0.929 . S
H178 C201 0.931 . S
H179 C202 0.931 . S
O180 Eu136 2.462 . S
O180 C200 1.252 . S
O181 Eu136 2.373 1_554 S
O181 C192 1.249 . S
O182 Eu147 2.335 . S
O182 C192 1.264 . S
O183 Eu136 2.432 . S
O183 C200 1.268 . S
O184 Eu136 2.291 1_554 S
O184 C199 1.255 . S
O185 Eu147 2.372 . S
O185 C199 1.257 . S
O186 Eu147 2.462 . S
O186 C211 1.252 . S
O187 Eu147 2.373 . S
O187 C203 1.249 1_554 S
O188 Eu136 2.335 . S
O188 C203 1.264 . S
O189 Eu147 2.432 . S
O189 C211 1.268 . S
O190 Eu147 2.291 . S
O190 C210 1.255 . S
O191 Eu136 2.372 1_554 S
O191 C210 1.257 . S
C192 O181 1.249 . S
C192 O182 1.264 . S
C193 C196 1.382 . S
C193 C198 1.390 . S
C193 C200 1.506 . S
C194 C195 1.398 . S
C194 C198 1.392 . S
C195 C194 1.398 . S
C195 C197 1.372 . S
C195 H212 0.931 . S
C196 C193 1.382 . S
C196 C197 1.390 . S
C196 H213 0.931 . S
C197 C195 1.372 . S
C197 C196 1.390 . S
C197 H214 0.929 . S
C198 C193 1.390 . S
C198 C194 1.392 . S
C198 H215 0.930 . S
C199 O184 1.255 . S
C199 O185 1.257 . S
C200 Eu136 2.787 . S
C200 O180 1.252 . S
C200 O183 1.268 . S
C200 C193 1.506 . S
C201 C168 1.439 . S
C201 H178 0.931 . S
C201 C202 1.374 . S
C202 C173 1.387 . S
C202 H179 0.931 . S
C202 C201 1.374 . S
C203 O187 1.249 1_556 S
C203 O188 1.264 . S
C204 C207 1.382 . S
C204 C208 1.390 . S
C204 C211 1.506 . S
C205 C206 1.398 . S
C205 C208 1.392 . S
C206 C205 1.398 . S
C206 C209 1.372 . S
C206 H216 0.931 . S
C207 C204 1.382 . S
C207 C209 1.390 . S
C207 H217 0.931 . S
C208 C204 1.390 . S
C208 C205 1.392 . S
C208 H218 0.930 . S
C209 C206 1.372 . S
C209 C207 1.390 . S
C209 H219 0.929 . S
C210 O190 1.255 . S
C210 O191 1.257 . S
C211 Eu147 2.787 . S
C211 O186 1.252 . S
C211 O189 1.268 . S
C211 C204 1.506 . S
H212 C195 0.931 . S
H213 C196 0.931 . S
H214 C197 0.929 . S
H215 C198 0.930 . S
H216 C206 0.931 . S
H217 C207 0.931 . S
H218 C208 0.930 . S
H219 C209 0.929 . S
C220 C221 1.391 . S
C220 C222 1.394 . S
C220 H236 0.931 . S
C221 C220 1.391 . S
C221 C225 1.376 . S
C222 C220 1.394 . S
C222 C223 1.369 . S
C222 C226 1.531 . S
C223 C222 1.369 . S
C223 C224 1.410 . S
C223 C231 1.503 . S
C224 C223 1.410 . S
C224 C225 1.392 . S
C224 C227 1.511 . S
C225 C221 1.376 . S
C225 C224 1.392 . S
C225 H237 0.929 . S
C226 C222 1.531 . S
C226 H238 0.960 . S
C226 H239 0.962 . S
C226 H240 0.960 . S
C227 C224 1.511 . S
C227 H241 0.961 . S
C227 H242 0.961 . S
C227 H243 0.961 . S
C228 C229 1.370 . S
C228 C230 1.363 . S
C228 H244 0.931 . S
C229 C228 1.370 . S
C229 C233 1.408 . S
C230 C228 1.363 . S
C230 C231 1.370 . S
C230 C234 1.524 . S
C231 C223 1.503 . S
C231 C230 1.370 . S
C231 C232 1.403 . S
C232 C231 1.403 . S
C232 C233 1.404 . S
C232 C235 1.539 . S
C233 C229 1.408 . S
C233 C232 1.404 . S
C233 H245 0.930 . S
C234 C230 1.524 . S
C234 H246 0.956 . S
C234 H247 0.961 . S
C234 H248 0.961 . S
C235 C232 1.539 . S
C235 H249 0.958 . S
C235 H250 0.961 . S
C235 H251 0.960 . S
H236 C220 0.931 . S
H237 C225 0.929 . S
H238 C226 0.960 . S
H239 C226 0.962 . S
H240 C226 0.960 . S
H241 C227 0.961 . S
H242 C227 0.961 . S
H243 C227 0.961 . S
H244 C228 0.931 . S
H245 C233 0.930 . S
H246 C234 0.956 . S
H247 C234 0.961 . S
H248 C234 0.961 . S
H249 C235 0.958 . S
H250 C235 0.961 . S
H251 C235 0.960 . S
C252 C253 1.391 . S
C252 C254 1.394 . S
C252 H268 0.931 . S
C253 C252 1.391 . S
C253 C257 1.376 . S
C254 C252 1.394 . S
C254 C255 1.369 . S
C254 C258 1.531 . S
C255 C254 1.369 . S
C255 C256 1.410 . S
C255 C263 1.503 . S
C256 C255 1.410 . S
C256 C257 1.392 . S
C256 C259 1.511 . S
C257 C253 1.376 . S
C257 C256 1.392 . S
C257 H269 0.929 . S
C258 C254 1.531 . S
C258 H270 0.960 . S
C258 H271 0.962 . S
C258 H272 0.960 . S
C259 C256 1.511 . S
C259 H273 0.961 . S
C259 H274 0.961 . S
C259 H275 0.961 . S
C260 C261 1.370 . S
C260 C262 1.363 . S
C260 H276 0.931 1_554 S
C261 C260 1.370 . S
C261 C265 1.408 . S
C262 C260 1.363 . S
C262 C263 1.370 . S
C262 C266 1.524 1_554 S
C263 C255 1.503 . S
C263 C262 1.370 . S
C263 C264 1.403 . S
C264 C263 1.403 . S
C264 C265 1.404 . S
C264 C267 1.539 . S
C265 C261 1.408 . S
C265 C264 1.404 . S
C265 H277 0.930 . S
C266 C262 1.524 1_556 S
C266 H278 0.956 . S
C266 H279 0.961 . S
C266 H280 0.961 . S
C267 C264 1.539 . S
C267 H281 0.958 . S
C267 H282 0.961 . S
C267 H283 0.960 . S
H268 C252 0.931 . S
H269 C257 0.929 . S
H270 C258 0.960 . S
H271 C258 0.962 . S
H272 C258 0.960 . S
H273 C259 0.961 . S
H274 C259 0.961 . S
H275 C259 0.961 . S
H276 C260 0.931 1_556 S
H277 C265 0.930 . S
H278 C266 0.956 . S
H279 C266 0.961 . S
H280 C266 0.961 . S
H281 C267 0.958 . S
H282 C267 0.961 . S
H283 C267 0.960 . S
C284 C285 1.391 . S
C284 C286 1.394 . S
C284 H300 0.931 . S
C285 C284 1.391 . S
C285 C289 1.376 . S
C286 C284 1.394 . S
C286 C287 1.369 . S
C286 C290 1.531 . S
C287 C286 1.369 . S
C287 C288 1.410 . S
C287 C295 1.503 . S
C288 C287 1.410 . S
C288 C289 1.392 . S
C288 C291 1.511 . S
C289 C285 1.376 . S
C289 C288 1.392 . S
C289 H301 0.929 . S
C290 C286 1.531 . S
C290 H302 0.960 . S
C290 H303 0.962 . S
C290 H304 0.960 . S
C291 C288 1.511 . S
C291 H305 0.961 . S
C291 H306 0.961 . S
C291 H307 0.961 . S
C292 C293 1.370 . S
C292 C294 1.363 . S
C292 H308 0.931 . S
C293 C292 1.370 . S
C293 C297 1.408 . S
C294 C292 1.363 . S
C294 C295 1.370 . S
C294 C298 1.524 . S
C295 C287 1.503 . S
C295 C294 1.370 . S
C295 C296 1.403 . S
C296 C295 1.403 . S
C296 C297 1.404 . S
C296 C299 1.539 . S
C297 C293 1.408 . S
C297 C296 1.404 . S
C297 H309 0.930 . S
C298 C294 1.524 . S
C298 H310 0.956 . S
C298 H311 0.961 . S
C298 H312 0.961 . S
C299 C296 1.539 . S
C299 H313 0.958 . S
C299 H314 0.961 . S
C299 H315 0.960 . S
H300 C284 0.931 . S
H301 C289 0.929 . S
H302 C290 0.960 . S
H303 C290 0.962 . S
H304 C290 0.960 . S
H305 C291 0.961 . S
H306 C291 0.961 . S
H307 C291 0.961 . S
H308 C292 0.931 . S
H309 C297 0.930 . S
H310 C298 0.956 . S
H311 C298 0.961 . S
H312 C298 0.961 . S
H313 C299 0.958 . S
H314 C299 0.961 . S
H315 C299 0.960 . S
C316 C317 1.391 . S
C316 C318 1.394 . S
C316 H332 0.932 1_554 S
C317 C316 1.391 . S
C317 C321 1.376 . S
C318 C316 1.394 . S
C318 C319 1.369 . S
C318 C322 1.531 1_554 S
C319 C318 1.369 . S
C319 C320 1.410 . S
C319 C327 1.503 . S
C320 C319 1.410 . S
C320 C321 1.392 . S
C320 C323 1.511 . S
C321 C317 1.376 . S
C321 C320 1.392 . S
C321 H333 0.929 . S
C322 C318 1.531 1_556 S
C322 H334 0.960 . S
C322 H335 0.962 1_556 S
C322 H336 0.960 . S
C323 C320 1.511 . S
C323 H337 0.961 . S
C323 H338 0.961 . S
C323 H339 0.961 . S
C324 C325 1.370 . S
C324 C326 1.363 . S
C324 H340 0.931 . S
C325 C324 1.370 . S
C325 C329 1.408 . S
C326 C324 1.363 . S
C326 C327 1.370 . S
C326 C330 1.524 . S
C327 C319 1.503 . S
C327 C326 1.370 . S
C327 C328 1.403 . S
C328 C327 1.403 . S
C328 C329 1.404 . S
C328 C331 1.539 1_554 S
C329 C325 1.408 . S
C329 C328 1.404 . S
C329 H341 0.930 1_554 S
C330 C326 1.524 . S
C330 H342 0.956 . S
C330 H343 0.961 . S
C330 H344 0.961 . S
C331 C328 1.539 1_556 S
C331 H345 0.958 . S
C331 H346 0.961 . S
C331 H347 0.960 . S
H332 C316 0.932 1_556 S
H333 C321 0.929 . S
H334 C322 0.960 . S
H335 C322 0.962 1_554 S
H336 C322 0.960 . S
H337 C323 0.961 . S
H338 C323 0.961 . S
H339 C323 0.961 . S
H340 C324 0.931 . S
H341 C329 0.930 1_556 S
H342 C330 0.956 . S
H343 C330 0.961 . S
H344 C330 0.961 . S
H345 C331 0.958 . S
H346 C331 0.961 . S
H347 C331 0.960 . S
C348 C349 1.391 . S
C348 C350 1.394 . S
C348 H364 0.931 . S
C349 C348 1.391 . S
C349 C353 1.376 . S
C350 C348 1.394 . S
C350 C351 1.369 . S
C350 C354 1.531 . S
C351 C350 1.369 . S
C351 C352 1.410 . S
C351 C359 1.503 . S
C352 C351 1.410 . S
C352 C353 1.392 . S
C352 C355 1.511 . S
C353 C349 1.376 . S
C353 C352 1.392 . S
C353 H365 0.929 . S
C354 C350 1.531 . S
C354 H366 0.960 . S
C354 H367 0.962 . S
C354 H368 0.960 . S
C355 C352 1.511 . S
C355 H369 0.961 . S
C355 H370 0.961 . S
C355 H371 0.961 . S
C356 C357 1.370 . S
C356 C358 1.363 . S
C356 H372 0.931 . S
C357 C356 1.370 . S
C357 C361 1.408 . S
C358 C356 1.363 . S
C358 C359 1.370 . S
C358 C362 1.524 . S
C359 C351 1.503 . S
C359 C358 1.370 . S
C359 C360 1.403 . S
C360 C359 1.403 . S
C360 C361 1.404 . S
C360 C363 1.539 . S
C361 C357 1.408 . S
C361 C360 1.404 . S
C361 H373 0.930 1_565 S
C362 C358 1.524 . S
C362 H374 0.956 . S
C362 H375 0.961 . S
C362 H376 0.961 . S
C363 C360 1.539 . S
C363 H377 0.958 1_565 S
C363 H378 0.961 1_565 S
C363 H379 0.960 . S
H364 C348 0.931 . S
H365 C353 0.929 . S
H366 C354 0.960 . S
H367 C354 0.962 . S
H368 C354 0.960 . S
H369 C355 0.961 . S
H370 C355 0.961 . S
H371 C355 0.961 . S
H372 C356 0.931 . S
H373 C361 0.930 1_545 S
H374 C362 0.956 . S
H375 C362 0.961 . S
H376 C362 0.961 . S
H377 C363 0.958 1_545 S
H378 C363 0.961 1_545 S
H379 C363 0.960 . S
C380 C381 1.391 . S
C380 C382 1.394 . S
C380 H396 0.931 . S
C381 C380 1.391 . S
C381 C385 1.376 . S
C382 C380 1.394 . S
C382 C383 1.369 . S
C382 C386 1.531 . S
C383 C382 1.369 . S
C383 C384 1.410 . S
C383 C391 1.503 . S
C384 C383 1.410 . S
C384 C385 1.392 . S
C384 C387 1.511 . S
C385 C381 1.376 . S
C385 C384 1.392 . S
C385 H397 0.929 . S
C386 C382 1.531 . S
C386 H398 0.960 . S
C386 H399 0.962 . S
C386 H400 0.960 . S
C387 C384 1.511 . S
C387 H401 0.961 . S
C387 H402 0.961 . S
C387 H403 0.961 . S
C388 C389 1.370 . S
C388 C390 1.363 . S
C388 H404 0.931 . S
C389 C388 1.370 . S
C389 C393 1.408 . S
C390 C388 1.363 . S
C390 C391 1.370 . S
C390 C394 1.524 . S
C391 C383 1.503 . S
C391 C390 1.370 . S
C391 C392 1.403 . S
C392 C391 1.403 . S
C392 C393 1.404 . S
C392 C395 1.539 . S
C393 C389 1.408 . S
C393 C392 1.404 . S
C393 H405 0.930 . S
C394 C390 1.524 . S
C394 H406 0.956 . S
C394 H407 0.961 . S
C394 H408 0.961 . S
C395 C392 1.539 . S
C395 H409 0.958 . S
C395 H410 0.961 . S
C395 H411 0.960 . S
H396 C380 0.931 . S
H397 C385 0.929 . S
H398 C386 0.960 . S
H399 C386 0.962 . S
H400 C386 0.960 . S
H401 C387 0.961 . S
H402 C387 0.961 . S
H403 C387 0.961 . S
H404 C388 0.931 . S
H405 C393 0.930 . S
H406 C394 0.956 . S
H407 C394 0.961 . S
H408 C394 0.961 . S
H409 C395 0.958 . S
H410 C395 0.961 . S
H411 C395 0.960 . S
C412 C413 1.391 . S
C412 C414 1.394 . S
C412 H428 0.931 . S
C413 C412 1.391 . S
C413 C417 1.376 . S
C414 C412 1.394 . S
C414 C415 1.369 . S
C414 C418 1.531 . S
C415 C414 1.369 . S
C415 C416 1.410 . S
C415 C423 1.503 . S
C416 C415 1.410 . S
C416 C417 1.392 . S
C416 C419 1.511 . S
C417 C413 1.376 . S
C417 C416 1.392 . S
C417 H429 0.929 . S
C418 C414 1.531 . S
C418 H430 0.960 . S
C418 H431 0.962 . S
C418 H432 0.960 . S
C419 C416 1.511 . S
C419 H433 0.961 . S
C419 H434 0.961 . S
C419 H435 0.961 . S
C420 C421 1.370 . S
C420 C422 1.363 . S
C420 H436 0.931 . S
C421 C420 1.370 . S
C421 C425 1.408 . S
C422 C420 1.363 . S
C422 C423 1.370 . S
C422 C426 1.524 . S
C423 C415 1.503 . S
C423 C422 1.370 . S
C423 C424 1.403 . S
C424 C423 1.403 . S
C424 C425 1.404 . S
C424 C427 1.539 . S
C425 C421 1.408 . S
C425 C424 1.404 . S
C425 H437 0.930 1_545 S
C426 C422 1.524 . S
C426 H438 0.956 . S
C426 H439 0.961 . S
C426 H440 0.961 . S
C427 C424 1.539 . S
C427 H441 0.958 1_545 S
C427 H442 0.961 1_545 S
C427 H443 0.960 . S
H428 C412 0.931 . S
H429 C417 0.929 . S
H430 C418 0.960 . S
H431 C418 0.962 . S
H432 C418 0.960 . S
H433 C419 0.961 . S
H434 C419 0.961 . S
H435 C419 0.961 . S
H436 C420 0.931 . S
H437 C425 0.930 1_565 S
H438 C426 0.956 . S
H439 C426 0.961 . S
H440 C426 0.961 . S
H441 C427 0.958 1_565 S
H442 C427 0.961 1_565 S
H443 C427 0.960 . S
C444 C445 1.391 . S
C444 C446 1.394 . S
C444 H460 0.931 . S
C445 C444 1.391 . S
C445 C449 1.376 . S
C446 C444 1.394 . S
C446 C447 1.369 . S
C446 C450 1.531 . S
C447 C446 1.369 . S
C447 C448 1.410 . S
C447 C455 1.503 . S
C448 C447 1.410 . S
C448 C449 1.392 . S
C448 C451 1.511 . S
C449 C445 1.376 . S
C449 C448 1.392 . S
C449 H461 0.929 . S
C450 C446 1.531 . S
C450 H462 0.960 . S
C450 H463 0.962 . S
C450 H464 0.960 . S
C451 C448 1.511 . S
C451 H465 0.961 . S
C451 H466 0.961 . S
C451 H467 0.961 . S
C452 C453 1.370 . S
C452 C454 1.363 . S
C452 H468 0.931 . S
C453 C452 1.370 . S
C453 C457 1.408 . S
C454 C452 1.363 . S
C454 C455 1.370 . S
C454 C458 1.524 . S
C455 C447 1.503 . S
C455 C454 1.370 . S
C455 C456 1.403 . S
C456 C455 1.403 . S
C456 C457 1.404 . S
C456 C459 1.539 . S
C457 C453 1.408 . S
C457 C456 1.404 . S
C457 H469 0.930 . S
C458 C454 1.524 . S
C458 H470 0.956 . S
C458 H471 0.961 . S
C458 H472 0.961 . S
C459 C456 1.539 . S
C459 H473 0.958 . S
C459 H474 0.961 . S
C459 H475 0.960 . S
H460 C444 0.931 . S
H461 C449 0.929 . S
H462 C450 0.960 . S
H463 C450 0.962 . S
H464 C450 0.960 . S
H465 C451 0.961 . S
H466 C451 0.961 . S
H467 C451 0.961 . S
H468 C452 0.931 . S
H469 C457 0.930 . S
H470 C458 0.956 . S
H471 C458 0.961 . S
H472 C458 0.961 . S
H473 C459 0.958 . S
H474 C459 0.961 . S
H475 C459 0.960 . S
C476 C477 1.391 . S
C476 C478 1.394 . S
C476 H492 0.931 . S
C477 C476 1.391 . S
C477 C481 1.376 . S
C478 C476 1.394 . S
C478 C479 1.369 . S
C478 C482 1.531 . S
C479 C478 1.369 . S
C479 C480 1.410 . S
C479 C487 1.503 . S
C480 C479 1.410 . S
C480 C481 1.392 . S
C480 C483 1.511 . S
C481 C477 1.376 . S
C481 C480 1.392 . S
C481 H493 0.929 . S
C482 C478 1.531 . S
C482 H494 0.960 . S
C482 H495 0.962 . S
C482 H496 0.960 . S
C483 C480 1.511 . S
C483 H497 0.961 . S
C483 H498 0.961 . S
C483 H499 0.961 . S
C484 C485 1.370 . S
C484 C486 1.363 . S
C484 H500 0.931 . S
C485 C484 1.370 . S
C485 C489 1.408 . S
C486 C484 1.363 . S
C486 C487 1.370 . S
C486 C490 1.524 . S
C487 C479 1.503 . S
C487 C486 1.370 . S
C487 C488 1.403 . S
C488 C487 1.403 . S
C488 C489 1.404 . S
C488 C491 1.539 . S
C489 C485 1.408 . S
C489 C488 1.404 . S
C489 H501 0.930 . S
C490 C486 1.524 . S
C490 H502 0.956 . S
C490 H503 0.961 . S
C490 H504 0.961 . S
C491 C488 1.539 . S
C491 H505 0.958 . S
C491 H506 0.961 . S
C491 H507 0.960 . S
H492 C476 0.931 . S
H493 C481 0.929 . S
H494 C482 0.960 . S
H495 C482 0.962 . S
H496 C482 0.960 . S
H497 C483 0.961 . S
H498 C483 0.961 . S
H499 C483 0.961 . S
H500 C484 0.931 . S
H501 C489 0.930 . S
H502 C490 0.956 . S
H503 C490 0.961 . S
H504 C490 0.961 . S
H505 C491 0.958 . S
H506 C491 0.961 . S
H507 C491 0.960 . S
C508 C509 1.391 . S
C508 C510 1.394 1_554 S
C508 H524 0.931 . S
C509 C508 1.391 . S
C509 C513 1.376 1_554 S
C510 C508 1.394 1_556 S
C510 C511 1.369 . S
C510 C514 1.531 1_556 S
C511 C510 1.369 . S
C511 C512 1.410 . S
C511 C519 1.503 . S
C512 C511 1.410 . S
C512 C513 1.392 . S
C512 C515 1.511 . S
C513 C509 1.376 1_556 S
C513 C512 1.392 . S
C513 H525 0.929 . S
C514 C510 1.531 1_554 S
C514 H526 0.960 1_554 S
C514 H527 0.962 . S
C514 H528 0.960 . S
C515 C512 1.511 . S
C515 H529 0.961 . S
C515 H530 0.961 . S
C515 H531 0.961 . S
C516 C517 1.370 . S
C516 C518 1.363 . S
C516 H532 0.931 . S
C517 C516 1.370 . S
C517 C521 1.408 . S
C518 C516 1.363 . S
C518 C519 1.370 . S
C518 C522 1.524 . S
C519 C511 1.503 . S
C519 C518 1.370 . S
C519 C520 1.403 . S
C520 C519 1.403 . S
C520 C521 1.404 . S
C520 C523 1.539 . S
C521 C517 1.408 . S
C521 C520 1.404 . S
C521 H533 0.930 . S
C522 C518 1.524 . S
C522 H534 0.956 . S
C522 H535 0.961 . S
C522 H536 0.961 . S
C523 C520 1.539 . S
C523 H537 0.958 . S
C523 H538 0.961 . S
C523 H539 0.960 . S
H524 C508 0.931 . S
H525 C513 0.929 . S
H526 C514 0.960 1_556 S
H527 C514 0.962 . S
H528 C514 0.960 . S
H529 C515 0.961 . S
H530 C515 0.961 . S
H531 C515 0.961 . S
H532 C516 0.931 . S
H533 C521 0.930 . S
H534 C522 0.956 . S
H535 C522 0.961 . S
H536 C522 0.961 . S
H537 C523 0.958 . S
H538 C523 0.961 . S
H539 C523 0.960 . S
C540 C541 1.391 . S
C540 C542 1.394 . S
C540 H556 0.931 . S
C541 C540 1.391 . S
C541 C545 1.376 . S
C542 C540 1.394 . S
C542 C543 1.369 . S
C542 C546 1.531 . S
C543 C542 1.369 . S
C543 C544 1.410 . S
C543 C551 1.503 . S
C544 C543 1.410 . S
C544 C545 1.392 . S
C544 C547 1.511 . S
C545 C541 1.376 . S
C545 C544 1.392 . S
C545 H557 0.929 . S
C546 C542 1.531 . S
C546 H558 0.960 . S
C546 H559 0.962 . S
C546 H560 0.960 . S
C547 C544 1.511 . S
C547 H561 0.961 . S
C547 H562 0.961 . S
C547 H563 0.961 . S
C548 C549 1.370 . S
C548 C550 1.363 . S
C548 H564 0.931 . S
C549 C548 1.370 . S
C549 C553 1.408 . S
C550 C548 1.363 . S
C550 C551 1.370 . S
C550 C554 1.524 . S
C551 C543 1.503 . S
C551 C550 1.370 . S
C551 C552 1.403 . S
C552 C551 1.403 . S
C552 C553 1.404 . S
C552 C555 1.539 . S
C553 C549 1.408 . S
C553 C552 1.404 . S
C553 H565 0.930 . S
C554 C550 1.524 . S
C554 H566 0.956 . S
C554 H567 0.961 . S
C554 H568 0.961 . S
C555 C552 1.539 . S
C555 H569 0.958 . S
C555 H570 0.961 . S
C555 H571 0.960 . S
H556 C540 0.931 . S
H557 C545 0.929 . S
H558 C546 0.960 . S
H559 C546 0.962 . S
H560 C546 0.960 . S
H561 C547 0.961 . S
H562 C547 0.961 . S
H563 C547 0.961 . S
H564 C548 0.931 . S
H565 C553 0.930 . S
H566 C554 0.956 . S
H567 C554 0.961 . S
H568 C554 0.961 . S
H569 C555 0.958 . S
H570 C555 0.961 . S
H571 C555 0.960 . S
C572 C573 1.391 . S
C572 C574 1.394 . S
C572 H588 0.931 . S
C573 C572 1.391 . S
C573 C577 1.376 . S
C574 C572 1.394 . S
C574 C575 1.369 . S
C574 C578 1.531 . S
C575 C574 1.369 . S
C575 C576 1.410 . S
C575 C583 1.503 . S
C576 C575 1.410 . S
C576 C577 1.392 . S
C576 C579 1.511 . S
C577 C573 1.376 . S
C577 C576 1.392 . S
C577 H589 0.929 . S
C578 C574 1.531 . S
C578 H590 0.960 . S
C578 H591 0.962 . S
C578 H592 0.960 . S
C579 C576 1.511 . S
C579 H593 0.961 . S
C579 H594 0.961 . S
C579 H595 0.961 . S
C580 C581 1.370 . S
C580 C582 1.363 . S
C580 H596 0.931 . S
C581 C580 1.370 . S
C581 C585 1.408 . S
C582 C580 1.363 . S
C582 C583 1.370 . S
C582 C586 1.524 . S
C583 C575 1.503 . S
C583 C582 1.370 . S
C583 C584 1.403 . S
C584 C583 1.403 . S
C584 C585 1.404 . S
C584 C587 1.539 . S
C585 C581 1.408 . S
C585 C584 1.404 . S
C585 H597 0.930 . S
C586 C582 1.524 . S
C586 H598 0.956 . S
C586 H599 0.961 . S
C586 H600 0.961 . S
C587 C584 1.539 . S
C587 H601 0.958 1_565 S
C587 H602 0.961 . S
C587 H603 0.960 . S
H588 C572 0.931 . S
H589 C577 0.929 . S
H590 C578 0.960 . S
H591 C578 0.962 . S
H592 C578 0.960 . S
H593 C579 0.961 . S
H594 C579 0.961 . S
H595 C579 0.961 . S
H596 C580 0.931 . S
H597 C585 0.930 . S
H598 C586 0.956 . S
H599 C586 0.961 . S
H600 C586 0.961 . S
H601 C587 0.958 1_545 S
H602 C587 0.961 . S
H603 C587 0.960 . S
C229 C115 1.669 . S
C221 N41 1.690 . S
C253 N2 1.647 . S
C261 C210 1.635 . S
C285 N15 1.673 . S
C293 C126 1.657 . S
C317 N28 1.645 . S
C325 C199 1.634 . S
C357 C110 1.416 . S
C349 N5 1.603 . S
C389 C203 1.670 . S
C381 N14 1.662 . S
C413 N27 1.596 . S
C421 C119 1.614 . S
C445 N44 1.580 . S
C453 C194 1.404 . S
C485 C205 1.430 . S
C477 N18 1.588 . S
C517 C121 1.423 . S
C509 N31 1.593 . S
C549 C192 1.669 . S
C541 N40 1.659 . S
C573 N1 1.589 . S
C581 C108 1.612 . S
