# Generated by pormake.
# Topology pto, (3,4)-cn, num edge types: 1
# Building blocks:
#     Node 0, Type 0, BuildingBlock: OLANEW_clean_sbu_2, # of connection points: 3
#     Node 1, Type 0, BuildingBlock: OLANEW_clean_sbu_2, # of connection points: 3
#     Node 2, Type 0, BuildingBlock: OLANEW_clean_sbu_2, # of connection points: 3
#     Node 3, Type 0, BuildingBlock: OLANEW_clean_sbu_2, # of connection points: 3
#     Node 4, Type 0, BuildingBlock: OLANEW_clean_sbu_2, # of connection points: 3
#     Node 5, Type 0, BuildingBlock: OLANEW_clean_sbu_2, # of connection points: 3
#     Node 6, Type 0, BuildingBlock: OLANEW_clean_sbu_2, # of connection points: 3
#     Node 7, Type 0, BuildingBlock: OLANEW_clean_sbu_2, # of connection points: 3
#     Node 8, Type 1, BuildingBlock: MIFKUJ_clean_linker_1, # of connection points: 4
#     Node 9, Type 1, BuildingBlock: MIFKUJ_clean_linker_1, # of connection points: 4
#     Node 10, Type 1, BuildingBlock: MIFKUJ_clean_linker_1, # of connection points: 4
#     Node 11, Type 1, BuildingBlock: MIFKUJ_clean_linker_1, # of connection points: 4
#     Node 12, Type 1, BuildingBlock: MIFKUJ_clean_linker_1, # of connection points: 4
#     Node 13, Type 1, BuildingBlock: MIFKUJ_clean_linker_1, # of connection points: 4
#     Edge 14, Type (0, 1), BuildingBlock: XUDNAN_clean_linker_2, # of connection points: 2
#     Edge 15, Type (0, 1), BuildingBlock: XUDNAN_clean_linker_2, # of connection points: 2
#     Edge 16, Type (0, 1), BuildingBlock: XUDNAN_clean_linker_2, # of connection points: 2
#     Edge 17, Type (0, 1), BuildingBlock: XUDNAN_clean_linker_2, # of connection points: 2
#     Edge 18, Type (0, 1), BuildingBlock: XUDNAN_clean_linker_2, # of connection points: 2
#     Edge 19, Type (0, 1), BuildingBlock: XUDNAN_clean_linker_2, # of connection points: 2
#     Edge 20, Type (0, 1), BuildingBlock: XUDNAN_clean_linker_2, # of connection points: 2
#     Edge 21, Type (0, 1), BuildingBlock: XUDNAN_clean_linker_2, # of connection points: 2
#     Edge 22, Type (0, 1), BuildingBlock: XUDNAN_clean_linker_2, # of connection points: 2
#     Edge 23, Type (0, 1), BuildingBlock: XUDNAN_clean_linker_2, # of connection points: 2
#     Edge 24, Type (0, 1), BuildingBlock: XUDNAN_clean_linker_2, # of connection points: 2
#     Edge 25, Type (0, 1), BuildingBlock: XUDNAN_clean_linker_2, # of connection points: 2
#     Edge 26, Type (0, 1), BuildingBlock: XUDNAN_clean_linker_2, # of connection points: 2
#     Edge 27, Type (0, 1), BuildingBlock: XUDNAN_clean_linker_2, # of connection points: 2
#     Edge 28, Type (0, 1), BuildingBlock: XUDNAN_clean_linker_2, # of connection points: 2
#     Edge 29, Type (0, 1), BuildingBlock: XUDNAN_clean_linker_2, # of connection points: 2
#     Edge 30, Type (0, 1), BuildingBlock: XUDNAN_clean_linker_2, # of connection points: 2
#     Edge 31, Type (0, 1), BuildingBlock: XUDNAN_clean_linker_2, # of connection points: 2
#     Edge 32, Type (0, 1), BuildingBlock: XUDNAN_clean_linker_2, # of connection points: 2
#     Edge 33, Type (0, 1), BuildingBlock: XUDNAN_clean_linker_2, # of connection points: 2
#     Edge 34, Type (0, 1), BuildingBlock: XUDNAN_clean_linker_2, # of connection points: 2
#     Edge 35, Type (0, 1), BuildingBlock: XUDNAN_clean_linker_2, # of connection points: 2
#     Edge 36, Type (0, 1), BuildingBlock: XUDNAN_clean_linker_2, # of connection points: 2
#     Edge 37, Type (0, 1), BuildingBlock: XUDNAN_clean_linker_2, # of connection points: 2
# Relax obj value: 0.008
# Max RMSD: 0.124
# Mean RMSD: 0.053
data_MOF--net-pto--node1-OLANEW_clean_sbu_2--node2-MIFKUJ_clean_linker_1--edge1-XUDNAN_clean_linker_2
_symmetry_space_group_name_H-M    P1
_symmetry_Int_Tables_number       1
_symmetry_cell_setting            triclinic
loop_
_symmetry_equiv_pos_as_xyz
'x, y, z'
_cell_length_a     39.741858
_cell_length_b     62.225022
_cell_length_c     50.809674
_cell_angle_alpha  92.605829
_cell_angle_beta   89.645835
_cell_angle_gamma 105.8124
loop_
_atom_site_label
_atom_site_type_symbol
_atom_site_fract_x
_atom_site_fract_y
_atom_site_fract_z
_atom_type_partial_charge
O0 O 0.39105 0.35962 0.30599 0.0
Cd1 Cd 0.35692 0.36482 0.34462 0.0
O2 O 0.36867 0.37903 0.27922 0.0
Cd3 Cd 0.333 0.38888 0.30719 0.0
O4 O 0.28956 0.40381 0.31341 0.0
C5 C 0.2731 0.40502 0.29239 0.0
O6 O 0.28296 0.39702 0.27016 0.0
C7 C 0.3894 0.36716 0.28334 0.0
C8 C 0.3385 0.32474 0.37056 0.0
O9 O 0.31765 0.3293 0.35389 0.0
O10 O 0.36768 0.33937 0.37542 0.0
O11 O 0.31497 0.90282 0.80091 0.0
Cd12 Cd 0.27893 0.92233 0.77793 0.0
O13 O 0.2844 0.87315 0.77865 0.0
Cd14 Cd 0.26726 0.83825 0.7641 0.0
O15 O 0.24265 0.80664 0.74288 0.0
C16 C 0.22728 0.78921 0.75485 0.0
O17 O 0.22696 0.79006 0.78074 0.0
C18 C 0.30767 0.88185 0.79599 0.0
C19 C 0.30719 0.94338 0.73237 0.0
O20 O 0.31054 0.95419 0.75472 0.0
O21 O 0.29134 0.92245 0.73168 0.0
O22 O 0.81824 0.79833 0.31952 0.0
Cd23 Cd 0.81829 0.77176 0.28254 0.0
O24 O 0.76722 0.7791 0.33425 0.0
Cd25 Cd 0.75426 0.76187 0.29575 0.0
O26 O 0.7375 0.76435 0.25535 0.0
C27 C 0.75353 0.78193 0.24387 0.0
O28 O 0.77949 0.79643 0.2563 0.0
C29 C 0.79485 0.79515 0.33722 0.0
C30 C 0.83353 0.73338 0.29965 0.0
O31 O 0.858 0.75035 0.29302 0.0
O32 O 0.8019 0.73454 0.29806 0.0
O33 O 0.75012 0.29613 0.63157 0.0
Cd34 Cd 0.70485 0.26117 0.63715 0.0
O35 O 0.75288 0.30762 0.67333 0.0
Cd36 Cd 0.70936 0.281 0.68732 0.0
O37 O 0.66891 0.27105 0.71719 0.0
C38 C 0.6712 0.28545 0.73615 0.0
O39 O 0.69674 0.30402 0.73599 0.0
C40 C 0.76373 0.31046 0.64982 0.0
C41 C 0.72169 0.22669 0.60753 0.0
O42 O 0.70584 0.23958 0.59705 0.0
O43 O 0.72916 0.22985 0.63215 0.0
O44 O 0.77312 0.78784 0.63505 0.0
Cd45 Cd 0.74638 0.74902 0.64623 0.0
O46 O 0.76739 0.80036 0.67558 0.0
Cd47 Cd 0.74006 0.76888 0.69266 0.0
O48 O 0.70507 0.75792 0.72564 0.0
C49 C 0.70667 0.77342 0.74316 0.0
O50 O 0.72893 0.79305 0.73994 0.0
C51 C 0.77736 0.80406 0.65199 0.0
C52 C 0.79373 0.72521 0.65941 0.0
O53 O 0.78401 0.72556 0.63546 0.0
O54 O 0.78155 0.73643 0.67701 0.0
O55 O 0.7955 0.28788 0.3462 0.0
Cd56 Cd 0.75205 0.25347 0.33149 0.0
O57 O 0.80561 0.29912 0.30574 0.0
Cd58 Cd 0.76713 0.27156 0.28557 0.0
O59 O 0.73201 0.25966 0.25193 0.0
C60 C 0.71152 0.27142 0.24665 0.0
O61 O 0.71135 0.28874 0.2624 0.0
C62 C 0.81186 0.30228 0.33034 0.0
C63 C 0.76952 0.21508 0.34585 0.0
O64 O 0.77887 0.22366 0.32359 0.0
O65 O 0.75205 0.22473 0.36138 0.0
O66 O 0.25359 0.34259 0.77114 0.0
Cd67 Cd 0.22726 0.33583 0.72707 0.0
O68 O 0.30783 0.35629 0.75822 0.0
Cd69 Cd 0.29511 0.34856 0.71657 0.0
O70 O 0.30421 0.32884 0.68199 0.0
C71 C 0.33587 0.33184 0.67504 0.0
O72 O 0.3602 0.34746 0.68762 0.0
C73 C 0.2858 0.35102 0.77667 0.0
C74 C 0.20389 0.37107 0.7093 0.0
O75 O 0.18572 0.35738 0.72546 0.0
O76 O 0.23336 0.36834 0.70181 0.0
O77 O 0.3847 0.86313 0.29716 0.0
Cd78 Cd 0.35142 0.85599 0.33806 0.0
O79 O 0.35299 0.83146 0.2787 0.0
Cd80 Cd 0.31478 0.82055 0.30971 0.0
O81 O 0.26714 0.79387 0.31589 0.0
C82 C 0.24979 0.78665 0.29486 0.0
O83 O 0.26085 0.79639 0.2728 0.0
C84 C 0.37822 0.84908 0.27762 0.0
C85 C 0.33801 0.89389 0.36245 0.0
O86 O 0.36665 0.8889 0.36681 0.0
O87 O 0.31594 0.88112 0.3463 0.0
H88 H 0.94214 0.50227 0.32626 0.0
H89 H 0.91364 0.46258 0.33051 0.0
H90 H 0.99117 0.45905 0.3882 0.0
H91 H 0.01918 0.49908 0.38435 0.0
H92 H 0.95397 0.53766 0.35827 0.0
H93 H 0.02076 0.49873 0.30908 0.0
H94 H 0.05608 0.47343 0.29719 0.0
H95 H 0.13708 0.5106 0.35113 0.0
H96 H 0.10048 0.5351 0.36415 0.0
H97 H 0.09227 0.60075 0.3629 0.0
H98 H 0.12305 0.63824 0.3501 0.0
H99 H 0.04169 0.63571 0.29289 0.0
H100 H 0.01274 0.59754 0.30431 0.0
H101 H 0.07934 0.56283 0.3345 0.0
H102 H 0.00567 0.60643 0.37517 0.0
H103 H 0.96973 0.63262 0.37186 0.0
H104 H 0.89893 0.58533 0.31903 0.0
H105 H 0.93522 0.55957 0.32174 0.0
C106 C 0.98291 0.50363 0.35486 0.0
C107 C 0.95281 0.49304 0.34005 0.0
C108 C 0.93677 0.47029 0.34229 0.0
C109 C 0.9504 0.45763 0.35948 0.0
C110 C 0.98001 0.46838 0.37486 0.0
C111 C 0.99614 0.4912 0.37256 0.0
C112 C 0.00093 0.5275 0.35096 0.0
C113 C 0.98141 0.5432 0.35309 0.0
C114 C 0.03669 0.53466 0.34407 0.0
C115 C 0.05766 0.51863 0.33786 0.0
C116 C 0.04573 0.50112 0.31887 0.0
C117 C 0.06626 0.48684 0.31177 0.0
C118 C 0.0996 0.49003 0.32305 0.0
C119 C 0.11138 0.50745 0.34228 0.0
C120 C 0.09061 0.5216 0.34959 0.0
C121 C 0.0499 0.5964 0.33487 0.0
C122 C 0.08113 0.60828 0.34756 0.0
C123 C 0.09849 0.62989 0.34041 0.0
C124 C 0.08484 0.64021 0.32052 0.0
C125 C 0.05332 0.62829 0.30803 0.0
C126 C 0.03636 0.60652 0.31484 0.0
C127 C 0.03244 0.57308 0.34188 0.0
C128 C 0.05214 0.55744 0.34036 0.0
C129 C 0.99644 0.56584 0.34821 0.0
C130 C 0.97341 0.5811 0.34847 0.0
C131 C 0.98243 0.60172 0.36286 0.0
C132 C 0.96191 0.61665 0.36098 0.0
C133 C 0.9316 0.61099 0.34516 0.0
C134 C 0.92195 0.59004 0.33158 0.0
C135 C 0.94268 0.57529 0.33315 0.0
H136 H 0.08169 0.59663 0.64377 0.0
H137 H 0.11753 0.63494 0.65232 0.0
H138 H 0.05399 0.64141 0.72002 0.0
H139 H 0.01921 0.60273 0.71199 0.0
H140 H 0.07156 0.56097 0.67391 0.0
H141 H 0.9968 0.60348 0.63757 0.0
H142 H 0.96564 0.63251 0.6414 0.0
H143 H 0.90668 0.59921 0.70666 0.0
H144 H 0.93809 0.57043 0.70291 0.0
H145 H 0.93002 0.50538 0.68797 0.0
H146 H 0.89476 0.46714 0.67868 0.0
H147 H 0.9642 0.46006 0.615 0.0
H148 H 0.99829 0.49883 0.62353 0.0
H149 H 0.94298 0.54102 0.66119 0.0
H150 H 0.01024 0.49562 0.69416 0.0
H151 H 0.04239 0.46755 0.6944 0.0
H152 H 0.11992 0.50733 0.64311 0.0
H153 H 0.0855 0.53399 0.6407 0.0
C154 C 0.04753 0.5969 0.67705 0.0
C155 C 0.07556 0.6063 0.6605 0.0
C156 C 0.09583 0.62827 0.66528 0.0
C157 C 0.08851 0.64131 0.68677 0.0
C158 C 0.06053 0.63179 0.70343 0.0
C159 C 0.04036 0.60976 0.6987 0.0
C160 C 0.02636 0.57349 0.67184 0.0
C161 C 0.04351 0.55653 0.67063 0.0
C162 C 0.98962 0.56778 0.66871 0.0
C163 C 0.96992 0.58491 0.6701 0.0
C164 C 0.97714 0.60246 0.65268 0.0
C165 C 0.95921 0.61895 0.65479 0.0
C166 C 0.93388 0.6182 0.67444 0.0
C167 C 0.92639 0.6004 0.69157 0.0
C168 C 0.9441 0.58386 0.68932 0.0
C169 C 0.96703 0.50494 0.65664 0.0
C170 C 0.93752 0.49565 0.67188 0.0
C171 C 0.91761 0.47366 0.66672 0.0
C172 C 0.92682 0.46038 0.64625 0.0
C173 C 0.95618 0.46982 0.63079 0.0
C174 C 0.97593 0.49193 0.63582 0.0
C175 C 0.98826 0.52828 0.66258 0.0
C176 C 0.97109 0.54528 0.66413 0.0
C177 C 0.02504 0.53393 0.66635 0.0
C178 C 0.04488 0.51678 0.66692 0.0
C179 C 0.03365 0.49801 0.68237 0.0
C180 C 0.0526 0.48211 0.68291 0.0
C181 C 0.08401 0.48497 0.66876 0.0
C182 C 0.09552 0.50407 0.65377 0.0
C183 C 0.07605 0.51962 0.65266 0.0
H184 H 0.30913 0.08492 0.5771 0.0
H185 H 0.30871 0.05514 0.60678 0.0
H186 H 0.39067 0.03789 0.56148 0.0
H187 H 0.39158 0.06816 0.53197 0.0
H188 H 0.35694 0.1213 0.56762 0.0
H189 H 0.29451 0.05624 0.51314 0.0
H190 H 0.28551 0.02017 0.48883 0.0
H191 H 0.38019 0.04679 0.44514 0.0
H192 H 0.38913 0.08276 0.46963 0.0
H193 H 0.38653 0.15411 0.46322 0.0
H194 H 0.37677 0.18467 0.438 0.0
H195 H 0.28318 0.1823 0.48278 0.0
H196 H 0.29308 0.15191 0.50785 0.0
H197 H 0.34217 0.10979 0.47066 0.0
H198 H 0.39738 0.1767 0.51981 0.0
H199 H 0.40133 0.21347 0.54038 0.0
H200 H 0.32012 0.18332 0.59501 0.0
H201 H 0.31488 0.14674 0.57325 0.0
C202 C 0.35022 0.07875 0.55216 0.0
C203 C 0.32719 0.07484 0.57358 0.0
C204 C 0.32701 0.05784 0.59058 0.0
C205 C 0.34977 0.04426 0.5865 0.0
C206 C 0.37267 0.048 0.56495 0.0
C207 C 0.3731 0.06524 0.54805 0.0
C208 C 0.35049 0.09735 0.53473 0.0
C209 C 0.35338 0.11868 0.54645 0.0
C210 C 0.34722 0.09424 0.50697 0.0
C211 C 0.3426 0.07209 0.49328 0.0
C212 C 0.31349 0.05421 0.49852 0.0
C213 C 0.30827 0.03369 0.48451 0.0
C214 C 0.33214 0.03069 0.46508 0.0
C215 C 0.36156 0.04854 0.46018 0.0
C216 C 0.36659 0.06911 0.47402 0.0
C217 C 0.34062 0.15088 0.48744 0.0
C218 C 0.36381 0.1601 0.46741 0.0
C219 C 0.35835 0.17761 0.4532 0.0
C220 C 0.32925 0.18584 0.4585 0.0
C221 C 0.30566 0.17618 0.47814 0.0
C222 C 0.31135 0.1589 0.49253 0.0
C223 C 0.34728 0.13332 0.50374 0.0
C224 C 0.34601 0.11235 0.49181 0.0
C225 C 0.35195 0.13672 0.53133 0.0
C226 C 0.35548 0.15896 0.54472 0.0
C227 C 0.38011 0.17804 0.536 0.0
C228 C 0.38263 0.19906 0.54801 0.0
C229 C 0.36098 0.20143 0.56934 0.0
C230 C 0.33676 0.18221 0.57833 0.0
C231 C 0.33403 0.16122 0.56612 0.0
H232 H 0.49714 0.85371 0.97113 0.0
H233 H 0.45903 0.85908 0.93612 0.0
H234 H 0.43976 0.78949 0.91068 0.0
H235 H 0.47628 0.78395 0.94683 0.0
H236 H 0.48367 0.82997 0.0123 0.0
H237 H 0.5574 0.83035 0.93692 0.0
H238 H 0.57709 0.81919 0.89409 0.0
H239 H 0.56679 0.75289 0.9213 0.0
H240 H 0.54577 0.76393 0.96372 0.0
H241 H 0.56805 0.77239 0.04368 0.0
H242 H 0.60928 0.77012 0.07842 0.0
H243 H 0.6317 0.84145 0.09426 0.0
H244 H 0.59113 0.84367 0.05922 0.0
H245 H 0.58082 0.79482 0.99882 0.0
H246 H 0.50808 0.79411 0.07375 0.0
H247 H 0.4908 0.80511 0.11743 0.0
H248 H 0.50076 0.87178 0.09165 0.0
H249 H 0.51892 0.86079 0.04807 0.0
C250 C 0.48988 0.81847 0.96156 0.0
C251 C 0.48461 0.83958 0.95807 0.0
C252 C 0.46309 0.84268 0.93778 0.0
C253 C 0.44641 0.82475 0.92037 0.0
C254 C 0.45187 0.80363 0.92383 0.0
C255 C 0.47315 0.80049 0.94433 0.0
C256 C 0.51214 0.8153 0.98368 0.0
C257 C 0.50522 0.82256 0.00924 0.0
C258 C 0.53954 0.80492 0.97993 0.0
C259 C 0.5498 0.79792 0.95346 0.0
C260 C 0.55877 0.8133 0.93349 0.0
C261 C 0.57039 0.80695 0.90911 0.0
C262 C 0.57364 0.78515 0.90429 0.0
C263 C 0.56417 0.76971 0.92422 0.0
C264 C 0.55244 0.77605 0.94856 0.0
C265 C 0.57634 0.80816 0.04898 0.0
C266 C 0.58183 0.78751 0.05469 0.0
C267 C 0.6052 0.78622 0.07464 0.0
C268 C 0.62379 0.80561 0.08903 0.0
C269 C 0.61807 0.82625 0.08333 0.0
C270 C 0.59463 0.82751 0.06349 0.0
C271 C 0.55253 0.8097 0.0272 0.0
C272 C 0.55915 0.80214 0.00179 0.0
C273 C 0.5249 0.81979 0.03104 0.0
C274 C 0.51502 0.82666 0.05769 0.0
C275 C 0.50694 0.81116 0.07757 0.0
C276 C 0.49678 0.81743 0.10247 0.0
C277 C 0.49433 0.83931 0.10797 0.0
C278 C 0.50274 0.85487 0.0881 0.0
C279 C 0.51283 0.84857 0.06314 0.0
H280 H 0.77318 0.984 0.55487 0.0
H281 H 0.77427 0.95457 0.58499 0.0
H282 H 0.86377 0.94292 0.54436 0.0
H283 H 0.8639 0.97315 0.51511 0.0
H284 H 0.81336 0.02227 0.54405 0.0
H285 H 0.76431 0.95527 0.49044 0.0
H286 H 0.76128 0.91798 0.4718 0.0
H287 H 0.864 0.94336 0.4381 0.0
H288 H 0.86579 0.98086 0.45577 0.0
H289 H 0.85918 0.05076 0.44137 0.0
H290 H 0.85502 0.0804 0.41257 0.0
H291 H 0.75207 0.07721 0.44314 0.0
H292 H 0.75674 0.04784 0.47213 0.0
H293 H 0.81559 0.00652 0.44747 0.0
H294 H 0.85135 0.07775 0.49626 0.0
H295 H 0.83857 0.11305 0.50941 0.0
H296 H 0.7503 0.07706 0.55439 0.0
H297 H 0.76214 0.04168 0.5403 0.0
C298 C 0.81808 0.9806 0.53238 0.0
C299 C 0.79338 0.97537 0.55264 0.0
C300 C 0.79394 0.95854 0.56978 0.0
C301 C 0.81894 0.94644 0.56676 0.0
C302 C 0.84398 0.95185 0.54681 0.0
C303 C 0.84391 0.96903 0.53004 0.0
C304 C 0.81629 0.99775 0.51336 0.0
C305 C 0.81364 0.01876 0.52296 0.0
C306 C 0.81675 0.99331 0.48579 0.0
C307 C 0.81528 0.97074 0.47447 0.0
C308 C 0.78611 0.95273 0.47898 0.0
C309 C 0.78462 0.93136 0.46851 0.0
C310 C 0.81249 0.92749 0.4535 0.0
C311 C 0.84179 0.94568 0.44916 0.0
C312 C 0.84298 0.96714 0.45932 0.0
C313 C 0.80845 0.04731 0.45904 0.0
C314 C 0.83559 0.0563 0.4416 0.0
C315 C 0.83312 0.07322 0.42515 0.0
C316 C 0.80331 0.08131 0.4257 0.0
C317 C 0.77566 0.07168 0.44259 0.0
C318 C 0.77817 0.05479 0.45903 0.0
C319 C 0.81251 0.03091 0.47818 0.0
C320 C 0.81571 0.01009 0.46858 0.0
C321 C 0.81154 0.03538 0.50573 0.0
C322 C 0.80725 0.05699 0.51682 0.0
C323 C 0.82922 0.07743 0.50894 0.0
C324 C 0.82198 0.09757 0.51647 0.0
C325 C 0.79328 0.09769 0.53268 0.0
C326 C 0.77262 0.07739 0.54191 0.0
C327 C 0.77944 0.0572 0.53394 0.0
H328 H 0.4846 0.35675 0.97071 0.0
H329 H 0.44389 0.36575 0.93945 0.0
H330 H 0.39273 0.2954 0.92664 0.0
H331 H 0.43401 0.28644 0.95722 0.0
H332 H 0.4627 0.33018 0.01772 0.0
H333 H 0.52818 0.33231 0.93892 0.0
H334 H 0.54446 0.32437 0.89389 0.0
H335 H 0.52655 0.25467 0.91059 0.0
H336 H 0.50881 0.26258 0.95535 0.0
H337 H 0.5273 0.26013 0.03512 0.0
H338 H 0.55943 0.24885 0.07052 0.0
H339 H 0.60379 0.31835 0.09463 0.0
H340 H 0.57107 0.32939 0.05956 0.0
H341 H 0.54791 0.28756 0.99285 0.0
H342 H 0.48043 0.28517 0.07116 0.0
H343 H 0.47062 0.29367 0.11751 0.0
H344 H 0.49415 0.3639 0.10206 0.0
H345 H 0.50449 0.35532 0.05566 0.0
C346 C 0.46232 0.32095 0.96607 0.0
C347 C 0.46477 0.3433 0.96097 0.0
C348 C 0.44165 0.34841 0.94318 0.0
C349 C 0.41522 0.33124 0.93089 0.0
C350 C 0.41281 0.30889 0.93607 0.0
C351 C 0.43639 0.30378 0.95336 0.0
C352 C 0.48571 0.31545 0.98564 0.0
C353 C 0.48174 0.32119 0.01227 0.0
C354 C 0.50977 0.30317 0.97846 0.0
C355 C 0.51692 0.29801 0.9505 0.0
C356 C 0.52688 0.31521 0.93272 0.0
C357 C 0.53665 0.3107 0.90705 0.0
C358 C 0.53703 0.2889 0.89866 0.0
C359 C 0.52619 0.27159 0.91629 0.0
C360 C 0.51631 0.27612 0.94196 0.0
C361 C 0.54656 0.29556 0.04491 0.0
C362 C 0.54424 0.2729 0.04791 0.0
C363 C 0.56265 0.2665 0.06813 0.0
C364 C 0.58395 0.28268 0.08559 0.0
C365 C 0.58704 0.30542 0.08192 0.0
C366 C 0.56855 0.31179 0.06178 0.0
C367 C 0.52481 0.30222 0.0249 0.0
C368 C 0.52891 0.2966 0.99826 0.0
C369 C 0.50071 0.31451 0.03203 0.0
C370 C 0.49371 0.31965 0.06001 0.0
C371 C 0.48388 0.30243 0.07779 0.0
C372 C 0.47832 0.3073 0.10428 0.0
C373 C 0.48191 0.32947 0.11344 0.0
C374 C 0.49107 0.34665 0.09552 0.0
C375 C 0.49695 0.34178 0.06904 0.0
H376 H 0.24642 0.42446 0.33461 0.0
H377 H 0.23481 0.41046 0.2501 0.0
H378 H 0.18841 0.42976 0.24918 0.0
H379 H 0.15385 0.41721 0.3481 0.0
H380 H 0.16196 0.43965 0.37298 0.0
H381 H 0.19366 0.42406 0.36731 0.0
H382 H 0.2414 0.4609 0.35951 0.0
H383 H 0.20983 0.47658 0.36505 0.0
H384 H 0.23432 0.47917 0.33483 0.0
H385 H 0.14536 0.45183 0.25673 0.0
H386 H 0.10715 0.47479 0.27253 0.0
H387 H 0.14474 0.4737 0.35245 0.0
C388 C 0.23395 0.42532 0.31595 0.0
C389 C 0.24431 0.41593 0.29242 0.0
C390 C 0.22738 0.41749 0.2684 0.0
C391 C 0.20095 0.42843 0.26764 0.0
C392 C 0.19158 0.43765 0.29109 0.0
C393 C 0.20738 0.43616 0.31483 0.0
C394 C 0.19261 0.44787 0.33706 0.0
C395 C 0.17444 0.4312 0.35757 0.0
C396 C 0.22125 0.46728 0.34986 0.0
C397 C 0.16638 0.45636 0.322 0.0
C398 C 0.16622 0.45022 0.29553 0.0
C399 C 0.1449 0.45652 0.27748 0.0
C400 C 0.12308 0.46945 0.28671 0.0
C401 C 0.12253 0.4759 0.31381 0.0
C402 C 0.14457 0.46918 0.33161 0.0
H403 H 0.19243 0.74866 0.77415 0.0
H404 H 0.22005 0.78297 0.70127 0.0
H405 H 0.18767 0.74891 0.676 0.0
H406 H 0.1998 0.69477 0.7492 0.0
H407 H 0.16321 0.67929 0.76791 0.0
H408 H 0.18894 0.70632 0.78026 0.0
H409 H 0.13291 0.71996 0.78373 0.0
H410 H 0.10705 0.693 0.77127 0.0
H411 H 0.10563 0.71788 0.75499 0.0
H412 H 0.15118 0.71148 0.65867 0.0
H413 H 0.11426 0.67289 0.65044 0.0
H414 H 0.11168 0.6627 0.73451 0.0
C415 C 0.1918 0.74901 0.75288 0.0
C416 C 0.20878 0.76851 0.73971 0.0
C417 C 0.20728 0.76824 0.71182 0.0
C418 C 0.18892 0.74898 0.69727 0.0
C419 C 0.17229 0.73011 0.71088 0.0
C420 C 0.17367 0.72992 0.73803 0.0
C421 C 0.15347 0.70744 0.74782 0.0
C422 C 0.17781 0.6963 0.76214 0.0
C423 C 0.12296 0.70972 0.76549 0.0
C424 C 0.14039 0.69507 0.72192 0.0
C425 C 0.15152 0.70845 0.70086 0.0
C426 C 0.1425 0.70078 0.67499 0.0
C427 C 0.12168 0.6788 0.67052 0.0
C428 C 0.11015 0.66469 0.6918 0.0
C429 C 0.1197 0.67308 0.71782 0.0
H430 H 0.89815 0.72641 0.30682 0.0
H431 H 0.78693 0.69425 0.31295 0.0
H432 H 0.80004 0.66002 0.32734 0.0
H433 H 0.92248 0.67864 0.28124 0.0
H434 H 0.96317 0.685 0.29929 0.0
H435 H 0.94506 0.70725 0.29043 0.0
H436 H 0.94666 0.72095 0.33946 0.0
H437 H 0.9647 0.69868 0.34848 0.0
H438 H 0.92512 0.70174 0.36377 0.0
H439 H 0.82507 0.62876 0.33914 0.0
H440 H 0.86048 0.60271 0.34775 0.0
H441 H 0.95529 0.65535 0.33457 0.0
C442 C 0.87653 0.71222 0.31131 0.0
C443 C 0.84149 0.71302 0.30875 0.0
C444 C 0.81398 0.69405 0.31478 0.0
C445 C 0.82115 0.67454 0.32301 0.0
C446 C 0.85596 0.67429 0.32525 0.0
C447 C 0.88321 0.69264 0.31964 0.0
C448 C 0.91828 0.68783 0.32309 0.0
C449 C 0.93842 0.68979 0.29695 0.0
C450 C 0.93996 0.70322 0.34501 0.0
C451 C 0.90646 0.66383 0.33121 0.0
C452 C 0.87041 0.65635 0.33238 0.0
C453 C 0.85332 0.63447 0.33846 0.0
C454 C 0.8736 0.6198 0.34323 0.0
C455 C 0.91057 0.62707 0.34197 0.0
C456 C 0.92711 0.64946 0.33614 0.0
H457 H 0.80125 0.34294 0.68464 0.0
H458 H 0.78801 0.32467 0.60109 0.0
H459 H 0.83084 0.36027 0.59097 0.0
H460 H 0.80659 0.39983 0.67987 0.0
H461 H 0.83922 0.40943 0.70539 0.0
H462 H 0.80956 0.38186 0.70612 0.0
H463 H 0.86196 0.36461 0.70749 0.0
H464 H 0.89184 0.39218 0.70694 0.0
H465 H 0.895 0.37099 0.68239 0.0
H466 H 0.87191 0.39922 0.59 0.0
H467 H 0.90884 0.43783 0.59831 0.0
H468 H 0.89648 0.42967 0.68256 0.0
C469 C 0.80759 0.34626 0.6642 0.0
C470 C 0.79122 0.33099 0.64366 0.0
C471 C 0.80027 0.33606 0.61718 0.0
C472 C 0.82457 0.35625 0.61123 0.0
C473 C 0.83979 0.37107 0.63198 0.0
C474 C 0.83185 0.36622 0.65793 0.0
C475 C 0.85093 0.38522 0.67658 0.0
C476 C 0.82502 0.39464 0.69294 0.0
C477 C 0.87645 0.3778 0.69439 0.0
C478 C 0.87028 0.40175 0.65705 0.0
C479 C 0.86369 0.39328 0.63142 0.0
C480 C 0.87763 0.40591 0.61001 0.0
C481 C 0.89873 0.4278 0.61494 0.0
C482 C 0.90569 0.43686 0.6411 0.0
C483 C 0.89144 0.42342 0.66232 0.0
H484 H 0.38202 0.30693 0.39891 0.0
H485 H 0.27522 0.29312 0.37026 0.0
H486 H 0.26108 0.25613 0.38988 0.0
H487 H 0.39079 0.25184 0.38606 0.0
H488 H 0.41684 0.25214 0.41506 0.0
H489 H 0.41824 0.27792 0.39977 0.0
H490 H 0.40108 0.29441 0.44399 0.0
H491 H 0.39983 0.26872 0.45945 0.0
H492 H 0.36207 0.2795 0.46062 0.0
H493 H 0.25867 0.22061 0.41253 0.0
H494 H 0.26851 0.18881 0.43589 0.0
H495 H 0.37724 0.22545 0.44856 0.0
C496 C 0.35557 0.29622 0.39695 0.0
C497 C 0.32965 0.30295 0.38317 0.0
C498 C 0.29547 0.28832 0.38077 0.0
C499 C 0.28719 0.26729 0.39185 0.0
C500 C 0.31344 0.2611 0.40511 0.0
C501 C 0.34695 0.27511 0.40766 0.0
C502 C 0.37058 0.26422 0.42228 0.0
C503 C 0.4009 0.26136 0.40473 0.0
C504 C 0.38418 0.2775 0.44812 0.0
C505 C 0.34514 0.24187 0.42751 0.0
C506 C 0.31226 0.24045 0.4176 0.0
C507 C 0.28431 0.22152 0.42035 0.0
C508 C 0.29011 0.20359 0.43369 0.0
C509 C 0.32364 0.20467 0.4439 0.0
C510 C 0.35146 0.22406 0.44064 0.0
H511 H 0.37297 0.89483 0.81814 0.0
H512 H 0.28088 0.83835 0.80945 0.0
H513 H 0.30846 0.81643 0.83733 0.0
H514 H 0.43788 0.86233 0.81958 0.0
H515 H 0.4645 0.88115 0.84407 0.0
H516 H 0.43896 0.89151 0.8211 0.0
H517 H 0.40923 0.90737 0.86006 0.0
H518 H 0.43446 0.89694 0.88312 0.0
H519 H 0.38741 0.88893 0.88501 0.0
H520 H 0.34378 0.80193 0.86957 0.0
H521 H 0.38443 0.79573 0.90302 0.0
H522 H 0.45413 0.86145 0.89015 0.0
C523 C 0.3589 0.8777 0.82171 0.0
C524 C 0.32518 0.86807 0.81095 0.0
C525 C 0.3073 0.84577 0.81649 0.0
C526 C 0.32261 0.83326 0.8326 0.0
C527 C 0.35583 0.8433 0.84301 0.0
C528 C 0.37385 0.86498 0.83767 0.0
C529 C 0.4084 0.87225 0.85241 0.0
C530 C 0.43926 0.87709 0.83313 0.0
C531 C 0.40994 0.89257 0.87127 0.0
C532 C 0.4066 0.85148 0.86737 0.0
C533 C 0.37618 0.83493 0.86158 0.0
C534 C 0.36796 0.81464 0.87395 0.0
C535 C 0.39137 0.81123 0.89285 0.0
C536 C 0.4227 0.82802 0.89923 0.0
C537 C 0.43037 0.8483 0.88598 0.0
H538 H 0.83023 0.83933 0.33914 0.0
H539 H 0.76595 0.78737 0.38613 0.0
H540 H 0.76797 0.81523 0.42289 0.0
H541 H 0.88401 0.87322 0.39281 0.0
H542 H 0.88355 0.89917 0.37863 0.0
H543 H 0.88096 0.87467 0.35758 0.0
H544 H 0.82364 0.87861 0.3368 0.0
H545 H 0.82603 0.90306 0.35778 0.0
H546 H 0.78742 0.87972 0.35786 0.0
H547 H 0.77491 0.84923 0.45362 0.0
H548 H 0.78252 0.88672 0.47475 0.0
H549 H 0.8376 0.91655 0.40555 0.0
C550 C 0.81732 0.83372 0.35741 0.0
C551 C 0.7984 0.81117 0.36003 0.0
C552 C 0.78083 0.80457 0.38388 0.0
C553 C 0.78194 0.82024 0.40485 0.0
C554 C 0.80038 0.84246 0.40147 0.0
C555 C 0.81756 0.8492 0.37826 0.0
C556 C 0.83253 0.87433 0.37857 0.0
C557 C 0.87265 0.88072 0.3768 0.0
C558 C 0.81643 0.88452 0.35645 0.0
C559 C 0.82073 0.88073 0.40544 0.0
C560 C 0.80276 0.86211 0.41854 0.0
C561 C 0.78887 0.86393 0.44351 0.0
C562 C 0.79305 0.88535 0.45524 0.0
C563 C 0.81044 0.90476 0.44181 0.0
C564 C 0.82469 0.90221 0.41666 0.0
H565 H 0.67163 0.31279 0.7798 0.0
H566 H 0.61349 0.24966 0.7422 0.0
H567 H 0.57155 0.24388 0.77917 0.0
H568 H 0.66239 0.29488 0.84581 0.0
H569 H 0.65829 0.32126 0.85955 0.0
H570 H 0.68294 0.32043 0.82986 0.0
H571 H 0.64442 0.34107 0.80582 0.0
H572 H 0.61954 0.34189 0.83542 0.0
H573 H 0.59758 0.32958 0.80522 0.0
H574 H 0.53634 0.24507 0.82097 0.0
H575 H 0.5115 0.25285 0.86399 0.0
H576 H 0.59395 0.31489 0.87372 0.0
C577 C 0.65005 0.29775 0.77922 0.0
C578 C 0.64582 0.28168 0.75807 0.0
C579 C 0.61725 0.26221 0.7582 0.0
C580 C 0.59329 0.2588 0.77909 0.0
C581 C 0.5983 0.27503 0.79964 0.0
C582 C 0.62604 0.29409 0.79983 0.0
C583 C 0.62608 0.30884 0.82433 0.0
C584 C 0.65939 0.3115 0.84086 0.0
C585 C 0.62163 0.33169 0.81726 0.0
C586 C 0.59406 0.2951 0.83801 0.0
C587 C 0.57828 0.27567 0.8235 0.0
C588 C 0.5485 0.26024 0.83247 0.0
C589 C 0.53468 0.26475 0.85697 0.0
C590 C 0.55066 0.28453 0.87222 0.0
C591 C 0.58068 0.29984 0.8624 0.0
H592 H 0.32508 0.98838 0.72547 0.0
H593 H 0.31541 0.92456 0.68376 0.0
H594 H 0.3307 0.94391 0.6421 0.0
H595 H 0.28444 0.01074 0.67719 0.0
H596 H 0.31186 0.03896 0.68185 0.0
H597 H 0.30469 0.02048 0.70877 0.0
H598 H 0.3716 0.02708 0.71419 0.0
H599 H 0.37901 0.0457 0.68732 0.0
H600 H 0.39715 0.0221 0.68629 0.0
H601 H 0.34306 0.97013 0.60447 0.0
H602 H 0.34894 0.0008 0.57389 0.0
H603 H 0.34877 0.04705 0.64035 0.0
C604 C 0.32694 0.97851 0.70769 0.0
C605 C 0.31939 0.95498 0.70788 0.0
C606 C 0.32128 0.94262 0.68407 0.0
C607 C 0.33004 0.95347 0.66034 0.0
C608 C 0.33671 0.97667 0.66076 0.0
C609 C 0.33523 0.98903 0.68384 0.0
C610 C 0.34065 0.0135 0.67872 0.0
C611 C 0.3085 0.02137 0.68713 0.0
C612 C 0.3741 0.02794 0.69244 0.0
C613 C 0.34467 0.01294 0.6491 0.0
C614 C 0.34287 0.99162 0.6391 0.0
C615 C 0.34482 0.98692 0.61211 0.0
C616 C 0.34826 0.00443 0.59491 0.0
C617 C 0.34924 0.02625 0.60478 0.0
C618 C 0.34788 0.0305 0.63225 0.0
H619 H 0.69297 0.76027 0.21698 0.0
H620 H 0.7866 0.81569 0.21254 0.0
H621 H 0.76481 0.82654 0.17126 0.0
H622 H 0.68256 0.74684 0.14575 0.0
H623 H 0.63555 0.74049 0.14701 0.0
H624 H 0.65974 0.73593 0.17512 0.0
H625 H 0.63085 0.76101 0.20443 0.0
H626 H 0.60673 0.76573 0.17642 0.0
H627 H 0.63422 0.78916 0.19521 0.0
H628 H 0.7315 0.83293 0.13222 0.0
H629 H 0.6891 0.83397 0.09734 0.0
H630 H 0.61665 0.77476 0.12722 0.0
C631 C 0.70917 0.77445 0.20709 0.0
C632 C 0.74157 0.78709 0.21796 0.0
C633 C 0.76172 0.80574 0.2046 0.0
C634 C 0.7496 0.81203 0.1811 0.0
C635 C 0.71729 0.79949 0.17118 0.0
C636 C 0.69739 0.78103 0.18363 0.0
C637 C 0.66282 0.7711 0.16944 0.0
C638 C 0.66002 0.74717 0.15869 0.0
C639 C 0.63183 0.77181 0.18745 0.0
C640 C 0.66623 0.78706 0.14731 0.0
C641 C 0.69793 0.80324 0.14863 0.0
C642 C 0.70666 0.82028 0.13088 0.0
C643 C 0.68231 0.82082 0.11127 0.0
C644 C 0.64957 0.80448 0.10958 0.0
C645 C 0.64164 0.78731 0.1278 0.0
H646 H 0.73905 0.18999 0.62494 0.0
H647 H 0.72689 0.22343 0.55393 0.0
H648 H 0.74523 0.19452 0.52709 0.0
H649 H 0.81444 0.1723 0.60487 0.0
H650 H 0.80003 0.14559 0.61972 0.0
H651 H 0.78662 0.16914 0.63341 0.0
H652 H 0.7216 0.14641 0.62874 0.0
H653 H 0.73482 0.12277 0.61513 0.0
H654 H 0.70503 0.13394 0.59704 0.0
H655 H 0.76664 0.16259 0.50812 0.0
H656 H 0.78489 0.12813 0.49813 0.0
H657 H 0.78019 0.11454 0.58124 0.0
C658 C 0.74031 0.19124 0.60375 0.0
C659 C 0.73173 0.209 0.5915 0.0
C660 C 0.7333 0.20994 0.5637 0.0
C661 C 0.74381 0.19365 0.54831 0.0
C662 C 0.75225 0.17641 0.56101 0.0
C663 C 0.75022 0.17494 0.58806 0.0
C664 C 0.7596 0.15432 0.59674 0.0
C665 C 0.79211 0.16073 0.61475 0.0
C666 C 0.7284 0.13842 0.6102 0.0
C667 C 0.76741 0.14448 0.57036 0.0
C668 C 0.76335 0.1576 0.55001 0.0
C669 C 0.76976 0.15214 0.52388 0.0
C670 C 0.78027 0.13265 0.51841 0.0
C671 C 0.78388 0.11877 0.53894 0.0
C672 C 0.77738 0.12482 0.5652 0.0
H673 H 0.39011 0.37911 0.23202 0.0
H674 H 0.43566 0.34152 0.28475 0.0
H675 H 0.46735 0.32963 0.24734 0.0
H676 H 0.3754 0.33977 0.17874 0.0
H677 H 0.38593 0.36013 0.15371 0.0
H678 H 0.36921 0.36719 0.18495 0.0
H679 H 0.42339 0.40137 0.19148 0.0
H680 H 0.44028 0.39444 0.16019 0.0
H681 H 0.4666 0.39735 0.18958 0.0
H682 H 0.49074 0.31968 0.20361 0.0
H683 H 0.50467 0.31294 0.15698 0.0
H684 H 0.44363 0.35699 0.13314 0.0
C685 C 0.40712 0.36864 0.23583 0.0
C686 C 0.41042 0.36129 0.26137 0.0
C687 C 0.43275 0.34742 0.26539 0.0
C688 C 0.4509 0.34059 0.24427 0.0
C689 C 0.4466 0.34788 0.21929 0.0
C690 C 0.42541 0.36169 0.21502 0.0
C691 C 0.42399 0.36635 0.18613 0.0
C692 C 0.3864 0.35784 0.17525 0.0
C693 C 0.4395 0.39136 0.18159 0.0
C694 C 0.44716 0.35264 0.17472 0.0
C695 C 0.46013 0.34221 0.19417 0.0
C696 C 0.48096 0.32791 0.18824 0.0
C697 C 0.48855 0.32408 0.16173 0.0
C698 C 0.47529 0.33449 0.14149 0.0
C699 C 0.45462 0.34911 0.14821 0.0
H700 H 0.82323 0.6991 0.62663 0.0
H701 H 0.8173 0.72037 0.70871 0.0
H702 H 0.85417 0.69629 0.72125 0.0
H703 H 0.8178 0.64236 0.63765 0.0
H704 H 0.84816 0.63961 0.61206 0.0
H705 H 0.82274 0.65935 0.60931 0.0
H706 H 0.87957 0.69129 0.60408 0.0
H707 H 0.90518 0.67163 0.60676 0.0
H708 H 0.91353 0.69608 0.62876 0.0
H709 H 0.8892 0.66856 0.72515 0.0
H710 H 0.92126 0.63975 0.71998 0.0
H711 H 0.90472 0.63665 0.6354 0.0
C712 C 0.82994 0.69887 0.64722 0.0
C713 C 0.81739 0.71166 0.66669 0.0
C714 C 0.82664 0.71077 0.69343 0.0
C715 C 0.84758 0.69714 0.70075 0.0
C716 C 0.85921 0.68458 0.68111 0.0
C717 C 0.85089 0.68539 0.65488 0.0
C718 C 0.86607 0.66982 0.63772 0.0
C719 C 0.83695 0.65172 0.62335 0.0
C720 C 0.89267 0.683 0.61818 0.0
C721 C 0.8839 0.65994 0.65845 0.0
C722 C 0.87964 0.6687 0.68334 0.0
C723 C 0.89285 0.66167 0.70574 0.0
C724 C 0.91083 0.64521 0.70263 0.0
C725 C 0.91548 0.63598 0.67731 0.0
C726 C 0.90197 0.64361 0.65496 0.0
H727 H 0.84739 0.33724 0.30148 0.0
H728 H 0.83175 0.31546 0.38171 0.0
H729 H 0.86931 0.35218 0.39804 0.0
H730 H 0.93833 0.37109 0.30971 0.0
H731 H 0.93206 0.39207 0.28839 0.0
H732 H 0.9069 0.36337 0.28312 0.0
H733 H 0.84962 0.37565 0.28611 0.0
H734 H 0.87454 0.40432 0.29154 0.0
H735 H 0.8417 0.39152 0.31493 0.0
H736 H 0.90534 0.39255 0.4056 0.0
H737 H 0.93597 0.43283 0.40364 0.0
H738 H 0.92728 0.42742 0.31838 0.0
C739 C 0.85225 0.33997 0.32248 0.0
C740 C 0.83668 0.3234 0.34031 0.0
C741 C 0.8435 0.32785 0.36765 0.0
C742 C 0.86482 0.34865 0.37711 0.0
C743 C 0.87921 0.36475 0.35896 0.0
C744 C 0.87329 0.36056 0.33221 0.0
C745 C 0.88998 0.38095 0.31683 0.0
C746 C 0.91852 0.37661 0.29843 0.0
C747 C 0.8623 0.38855 0.30146 0.0
C748 C 0.90558 0.39749 0.33913 0.0
C749 C 0.89949 0.38784 0.36329 0.0
C750 C 0.91054 0.4002 0.38676 0.0
C751 C 0.92799 0.42303 0.38546 0.0
C752 C 0.93389 0.43326 0.36087 0.0
C753 C 0.92285 0.42014 0.33749 0.0
H754 H 0.15795 0.39155 0.73293 0.0
H755 H 0.22001 0.39114 0.66246 0.0
H756 H 0.19561 0.41989 0.64409 0.0
H757 H 0.08176 0.39931 0.70243 0.0
H758 H 0.07363 0.4181 0.72821 0.0
H759 H 0.09564 0.39735 0.73574 0.0
H760 H 0.14784 0.4283 0.75578 0.0
H761 H 0.12585 0.44912 0.74851 0.0
H762 H 0.16934 0.45155 0.73629 0.0
H763 H 0.16139 0.44679 0.63235 0.0
H764 H 0.12506 0.47291 0.62981 0.0
H765 H 0.09032 0.45874 0.71011 0.0
C766 C 0.1664 0.39754 0.71364 0.0
C767 C 0.19065 0.38906 0.69899 0.0
C768 C 0.20148 0.39748 0.67399 0.0
C769 C 0.18766 0.41372 0.66337 0.0
C770 C 0.16356 0.42161 0.67822 0.0
C771 C 0.15348 0.4141 0.70301 0.0
C772 C 0.12813 0.42589 0.71527 0.0
C773 C 0.0927 0.40916 0.72072 0.0
C774 C 0.14373 0.43952 0.74045 0.0
C775 C 0.12514 0.44098 0.69335 0.0
C776 C 0.14548 0.43808 0.67207 0.0
C777 C 0.14588 0.44952 0.6491 0.0
C778 C 0.12528 0.46452 0.64798 0.0
C779 C 0.10493 0.46835 0.66987 0.0
C780 C 0.10506 0.45625 0.69282 0.0
H781 H 0.22128 0.76096 0.33644 0.0
H782 H 0.21086 0.76621 0.2521 0.0
H783 H 0.16459 0.7306 0.25012 0.0
H784 H 0.21169 0.70341 0.33536 0.0
H785 H 0.18657 0.69833 0.3652 0.0
H786 H 0.21661 0.72532 0.36069 0.0
H787 H 0.16658 0.74423 0.36847 0.0
H788 H 0.13639 0.71727 0.37321 0.0
H789 H 0.12729 0.73505 0.34875 0.0
H790 H 0.12423 0.69278 0.25628 0.0
H791 H 0.09039 0.65594 0.27052 0.0
H792 H 0.12411 0.67588 0.35135 0.0
C793 C 0.20885 0.75482 0.31764 0.0
C794 C 0.21974 0.7664 0.29443 0.0
C795 C 0.20298 0.75769 0.27017 0.0
C796 C 0.17661 0.73746 0.26882 0.0
C797 C 0.16701 0.72624 0.29194 0.0
C798 C 0.18229 0.73468 0.31595 0.0
C799 C 0.16812 0.71877 0.33762 0.0
C800 C 0.1975 0.711 0.35046 0.0
C801 C 0.14842 0.72947 0.35823 0.0
C802 C 0.14329 0.69982 0.32186 0.0
C803 C 0.14293 0.70453 0.29559 0.0
C804 C 0.12368 0.68906 0.27691 0.0
C805 C 0.10431 0.66817 0.28527 0.0
C806 C 0.10412 0.6629 0.31216 0.0
C807 C 0.1237 0.67918 0.33064 0.0
H808 H 0.79227 0.81949 0.60202 0.0
H809 H 0.79236 0.84176 0.68431 0.0
H810 H 0.80767 0.88086 0.67144 0.0
H811 H 0.86518 0.86726 0.58138 0.0
H812 H 0.84487 0.86822 0.54999 0.0
H813 H 0.83779 0.842 0.56575 0.0
H814 H 0.77083 0.83637 0.56312 0.0
H815 H 0.77772 0.86261 0.54756 0.0
H816 H 0.75238 0.85767 0.57732 0.0
H817 H 0.81552 0.91697 0.64981 0.0
H818 H 0.8194 0.94818 0.62043 0.0
H819 H 0.81628 0.90315 0.55227 0.0
C820 C 0.79634 0.8326 0.61737 0.0
C821 C 0.79112 0.82749 0.64419 0.0
C822 C 0.79621 0.84518 0.66363 0.0
C823 C 0.80497 0.8675 0.65654 0.0
C824 C 0.80891 0.87193 0.62994 0.0
C825 C 0.80522 0.85505 0.61064 0.0
C826 C 0.80898 0.86438 0.58339 0.0
C827 C 0.84113 0.86022 0.5693 0.0
C828 C 0.77548 0.85468 0.56689 0.0
C829 C 0.81432 0.88901 0.59043 0.0
C830 C 0.8143 0.893 0.6174 0.0
C831 C 0.81624 0.91416 0.62867 0.0
C832 C 0.81824 0.93172 0.6119 0.0
C833 C 0.8185 0.92802 0.58424 0.0
C834 C 0.81686 0.90645 0.57341 0.0
H835 H 0.6663 0.29418 0.22976 0.0
H836 H 0.71065 0.23957 0.20721 0.0
H837 H 0.68032 0.23512 0.16416 0.0
H838 H 0.58139 0.27098 0.19663 0.0
H839 H 0.57891 0.29806 0.18712 0.0
H840 H 0.60178 0.2956 0.21686 0.0
H841 H 0.65737 0.32404 0.20011 0.0
H842 H 0.6348 0.32643 0.17026 0.0
H843 H 0.67529 0.31867 0.16858 0.0
H844 H 0.64877 0.23869 0.12224 0.0
H845 H 0.61723 0.24928 0.08537 0.0
H846 H 0.5927 0.30095 0.1361 0.0
C847 C 0.66926 0.28104 0.21597 0.0
C848 C 0.69084 0.2672 0.22189 0.0
C849 C 0.69416 0.25032 0.20317 0.0
C850 C 0.67705 0.24767 0.17865 0.0
C851 C 0.65655 0.26192 0.17327 0.0
C852 C 0.65235 0.27814 0.19151 0.0
C853 C 0.63008 0.29192 0.18054 0.0
C854 C 0.59602 0.28895 0.19622 0.0
C855 C 0.65062 0.31673 0.17983 0.0
C856 C 0.62301 0.28123 0.15308 0.0
C857 C 0.6383 0.26389 0.14927 0.0
C858 C 0.63631 0.25206 0.12511 0.0
C859 C 0.61823 0.25815 0.10431 0.0
C860 C 0.60245 0.27594 0.10779 0.0
C861 C 0.60478 0.28744 0.13264 0.0
H862 H 0.29306 0.29429 0.65005 0.0
H863 H 0.40132 0.33391 0.6564 0.0
H864 H 0.41907 0.30591 0.62774 0.0
H865 H 0.30919 0.24213 0.65381 0.0
H866 H 0.27594 0.22768 0.63037 0.0
H867 H 0.27098 0.25188 0.64907 0.0
H868 H 0.26414 0.27096 0.60589 0.0
H869 H 0.26873 0.24669 0.58702 0.0
H870 H 0.29733 0.2739 0.58092 0.0
H871 H 0.4258 0.27204 0.60204 0.0
H872 H 0.42076 0.23529 0.57969 0.0
H873 H 0.30794 0.21815 0.5889 0.0
C874 C 0.32041 0.29732 0.645 0.0
C875 C 0.34579 0.31633 0.65545 0.0
C876 C 0.38137 0.31951 0.64861 0.0
C877 C 0.39174 0.3037 0.63232 0.0
C878 C 0.36619 0.28488 0.62289 0.0
C879 C 0.33122 0.28171 0.62875 0.0
C880 C 0.30924 0.25949 0.61717 0.0
C881 C 0.29023 0.24441 0.6389 0.0
C882 C 0.28333 0.26298 0.59652 0.0
C883 C 0.33744 0.25044 0.60445 0.0
C884 C 0.37006 0.2654 0.60783 0.0
C885 C 0.40032 0.26033 0.59887 0.0
C886 C 0.39715 0.23942 0.58608 0.0
C887 C 0.36393 0.22379 0.58233 0.0
C888 C 0.33375 0.22958 0.59157 0.0
H889 H 0.37267 0.82066 0.23436 0.0
H890 H 0.43321 0.88542 0.26647 0.0
H891 H 0.46956 0.89046 0.22624 0.0
H892 H 0.44383 0.80418 0.20498 0.0
H893 H 0.41876 0.7902 0.17668 0.0
H894 H 0.39729 0.79215 0.20765 0.0
H895 H 0.35491 0.8109 0.18513 0.0
H896 H 0.37617 0.80896 0.15407 0.0
H897 H 0.37248 0.83568 0.16698 0.0
H898 H 0.49945 0.88796 0.182 0.0
H899 H 0.52057 0.87792 0.13841 0.0
H900 H 0.43978 0.81485 0.13641 0.0
C901 C 0.39346 0.83599 0.23301 0.0
C902 C 0.40002 0.85268 0.2536 0.0
C903 C 0.42765 0.8724 0.25096 0.0
C904 C 0.44841 0.87541 0.22818 0.0
C905 C 0.4412 0.85852 0.20832 0.0
C906 C 0.41436 0.83921 0.2106 0.0
C907 C 0.41206 0.82339 0.18678 0.0
C908 C 0.41837 0.80117 0.1945 0.0
C909 C 0.37682 0.81952 0.17239 0.0
C910 C 0.44191 0.83675 0.17067 0.0
C911 C 0.45839 0.85701 0.18328 0.0
C912 C 0.48668 0.87214 0.17197 0.0
C913 C 0.49839 0.86635 0.14719 0.0
C914 C 0.48192 0.84557 0.13408 0.0
C915 C 0.45327 0.83071 0.14608 0.0
H916 H 0.75735 0.19453 0.39302 0.0
H917 H 0.80144 0.18903 0.3154 0.0
H918 H 0.81498 0.15427 0.32737 0.0
H919 H 0.82024 0.17446 0.42885 0.0
H920 H 0.78837 0.15956 0.45169 0.0
H921 H 0.78246 0.18412 0.43707 0.0
H922 H 0.72135 0.1613 0.41979 0.0
H923 H 0.72722 0.13668 0.43428 0.0
H924 H 0.71739 0.13612 0.39963 0.0
H925 H 0.82265 0.1197 0.34745 0.0
H926 H 0.82496 0.08819 0.37457 0.0
H927 H 0.77734 0.11689 0.43943 0.0
C928 C 0.76991 0.18606 0.37853 0.0
C929 C 0.77829 0.1945 0.35324 0.0
C930 C 0.79479 0.18291 0.3349 0.0
C931 C 0.80257 0.16314 0.3415 0.0
C932 C 0.79382 0.15523 0.36655 0.0
C933 C 0.778 0.16637 0.38483 0.0
C934 C 0.77134 0.15432 0.4104 0.0
C935 C 0.79184 0.16899 0.43335 0.0
C936 C 0.73198 0.14665 0.41636 0.0
C937 C 0.7857 0.13461 0.40356 0.0
C938 C 0.79853 0.13543 0.37819 0.0
C939 C 0.81287 0.11894 0.3674 0.0
C940 C 0.81422 0.10117 0.38301 0.0
C941 C 0.80136 0.10003 0.40914 0.0
C942 C 0.78695 0.11706 0.41942 0.0
H943 H 0.35327 0.36618 0.7952 0.0
H944 H 0.24651 0.33734 0.82043 0.0
H945 H 0.26813 0.33293 0.86467 0.0
H946 H 0.38995 0.33029 0.82597 0.0
H947 H 0.4303 0.3505 0.83566 0.0
H948 H 0.40653 0.35491 0.80734 0.0
H949 H 0.40415 0.39347 0.82747 0.0
H950 H 0.42833 0.38931 0.85581 0.0
H951 H 0.38671 0.39533 0.86007 0.0
H952 H 0.30145 0.3258 0.90333 0.0
H953 H 0.34434 0.3194 0.93508 0.0
H954 H 0.4293 0.35403 0.88566 0.0
C955 C 0.33432 0.35955 0.81023 0.0
C956 C 0.29816 0.35213 0.80429 0.0
C957 C 0.27432 0.34325 0.82448 0.0
C958 C 0.28635 0.34067 0.8497 0.0
C959 C 0.32224 0.34734 0.85457 0.0
C960 C 0.34588 0.35696 0.83555 0.0
C961 C 0.38322 0.36114 0.8452 0.0
C962 C 0.40368 0.34845 0.82749 0.0
C963 C 0.40169 0.38631 0.84726 0.0
C964 C 0.3769 0.35149 0.87219 0.0
C965 C 0.34153 0.34375 0.87728 0.0
C966 C 0.32919 0.33228 0.89987 0.0
C967 C 0.35363 0.3286 0.91767 0.0
C968 C 0.3899 0.33648 0.91283 0.0
C969 C 0.40165 0.34832 0.89 0.0
H970 H 0.38276 0.92727 0.3925 0.0
H971 H 0.27589 0.90494 0.36324 0.0
H972 H 0.26254 0.93716 0.3869 0.0
H973 H 0.36329 0.94696 0.45678 0.0
H974 H 0.40117 0.97082 0.45818 0.0
H975 H 0.40233 0.94593 0.43909 0.0
H976 H 0.41964 0.96918 0.39765 0.0
H977 H 0.41863 0.99416 0.41663 0.0
H978 H 0.39251 0.98619 0.38708 0.0
H979 H 0.26049 0.97138 0.41444 0.0
H980 H 0.27081 0.00639 0.44195 0.0
H981 H 0.37926 0.00682 0.45245 0.0
C982 C 0.35654 0.92914 0.39105 0.0
C983 C 0.33033 0.91354 0.37607 0.0
C984 C 0.29641 0.91669 0.37457 0.0
C985 C 0.28854 0.9349 0.38799 0.0
C986 C 0.31493 0.9499 0.40268 0.0
C987 C 0.34831 0.94732 0.40414 0.0
C988 C 0.37207 0.96604 0.42093 0.0
C989 C 0.38549 0.95688 0.44518 0.0
C990 C 0.4025 0.9797 0.40459 0.0
C991 C 0.34681 0.97953 0.42871 0.0
C992 C 0.31393 0.96985 0.41813 0.0
C993 C 0.28614 0.97913 0.42281 0.0
C994 C 0.29219 0.99892 0.43857 0.0
C995 C 0.32581 0.00929 0.44931 0.0
C996 C 0.35337 0.99937 0.4443 0.0
H997 H 0.706 0.80346 0.78386 0.0
H998 H 0.65406 0.736 0.75454 0.0
H999 H 0.61378 0.73149 0.79253 0.0
H1000 H 0.70107 0.79196 0.85273 0.0
H1001 H 0.69369 0.81848 0.86266 0.0
H1002 H 0.71835 0.81604 0.83336 0.0
H1003 H 0.6759 0.8315 0.80611 0.0
H1004 H 0.65097 0.83385 0.83529 0.0
H1005 H 0.62965 0.81785 0.80666 0.0
H1006 H 0.57852 0.73489 0.83369 0.0
H1007 H 0.5523 0.74553 0.87484 0.0
H1008 H 0.62867 0.81049 0.8768 0.0
C1009 C 0.68627 0.78767 0.78539 0.0
C1010 C 0.68317 0.77007 0.76621 0.0
C1011 C 0.65695 0.74971 0.76903 0.0
C1012 C 0.63393 0.74701 0.7905 0.0
C1013 C 0.63759 0.76481 0.80894 0.0
C1014 C 0.66323 0.78471 0.80661 0.0
C1015 C 0.66181 0.80132 0.82896 0.0
C1016 C 0.69574 0.80729 0.8454 0.0
C1017 C 0.65412 0.82237 0.81863 0.0
C1018 C 0.63125 0.78773 0.84427 0.0
C1019 C 0.61756 0.76672 0.83246 0.0
C1020 C 0.58915 0.75127 0.84314 0.0
C1021 C 0.57453 0.75743 0.86657 0.0
C1022 C 0.58836 0.77886 0.87905 0.0
C1023 C 0.61708 0.79412 0.86758 0.0
loop_
_geom_bond_atom_site_label_1
_geom_bond_atom_site_label_2
_geom_bond_distance
_geom_bond_site_symmetry_2
_ccdc_geom_bond_type
O0 Cd1 2.300 . S
O0 C7 1.275 . S
Cd1 O0 2.300 . S
Cd1 O9 2.381 . S
Cd1 O10 2.378 . S
O2 Cd3 2.385 . S
O2 C7 1.255 . S
Cd3 O2 2.385 . S
Cd3 O4 2.317 . S
O4 Cd3 2.317 . S
O4 C5 1.232 . S
C5 O4 1.232 . S
C5 O6 1.218 . S
O6 C5 1.218 . S
C7 O0 1.275 . S
C7 O2 1.255 . S
C8 O9 1.258 . S
C8 O10 1.256 . S
O9 Cd1 2.381 . S
O9 C8 1.258 . S
O10 Cd1 2.378 . S
O10 C8 1.256 . S
O11 Cd12 2.300 . S
O11 C18 1.275 . S
Cd12 O11 2.300 . S
Cd12 O20 2.381 . S
Cd12 O21 2.378 . S
O13 Cd14 2.385 . S
O13 C18 1.255 . S
Cd14 O13 2.385 . S
Cd14 O15 2.317 . S
O15 Cd14 2.317 . S
O15 C16 1.232 . S
C16 O15 1.232 . S
C16 O17 1.218 . S
O17 C16 1.218 . S
C18 O11 1.275 . S
C18 O13 1.255 . S
C19 O20 1.258 . S
C19 O21 1.256 . S
O20 Cd12 2.381 . S
O20 C19 1.258 . S
O21 Cd12 2.378 . S
O21 C19 1.256 . S
O22 Cd23 2.300 . S
O22 C29 1.275 . S
Cd23 O22 2.300 . S
Cd23 O31 2.381 . S
Cd23 O32 2.378 . S
O24 Cd25 2.385 . S
O24 C29 1.255 . S
Cd25 O24 2.385 . S
Cd25 O26 2.317 . S
O26 Cd25 2.317 . S
O26 C27 1.232 . S
C27 O26 1.232 . S
C27 O28 1.218 . S
O28 C27 1.218 . S
C29 O22 1.275 . S
C29 O24 1.255 . S
C30 O31 1.258 . S
C30 O32 1.256 . S
O31 Cd23 2.381 . S
O31 C30 1.258 . S
O32 Cd23 2.378 . S
O32 C30 1.256 . S
O33 Cd34 2.300 . S
O33 C40 1.275 . S
Cd34 O33 2.300 . S
Cd34 O42 2.381 . S
Cd34 O43 2.378 . S
O35 Cd36 2.385 . S
O35 C40 1.255 . S
Cd36 O35 2.385 . S
Cd36 O37 2.317 . S
O37 Cd36 2.317 . S
O37 C38 1.232 . S
C38 O37 1.232 . S
C38 O39 1.218 . S
O39 C38 1.218 . S
C40 O33 1.275 . S
C40 O35 1.255 . S
C41 O42 1.258 . S
C41 O43 1.256 . S
O42 Cd34 2.381 . S
O42 C41 1.258 . S
O43 Cd34 2.378 . S
O43 C41 1.256 . S
O44 Cd45 2.300 . S
O44 C51 1.275 . S
Cd45 O44 2.300 . S
Cd45 O53 2.381 . S
Cd45 O54 2.378 . S
O46 Cd47 2.385 . S
O46 C51 1.255 . S
Cd47 O46 2.385 . S
Cd47 O48 2.317 . S
O48 Cd47 2.317 . S
O48 C49 1.232 . S
C49 O48 1.232 . S
C49 O50 1.218 . S
O50 C49 1.218 . S
C51 O44 1.275 . S
C51 O46 1.255 . S
C52 O53 1.258 . S
C52 O54 1.256 . S
O53 Cd45 2.381 . S
O53 C52 1.258 . S
O54 Cd45 2.378 . S
O54 C52 1.256 . S
O55 Cd56 2.300 . S
O55 C62 1.275 . S
Cd56 O55 2.300 . S
Cd56 O64 2.381 . S
Cd56 O65 2.378 . S
O57 Cd58 2.385 . S
O57 C62 1.255 . S
Cd58 O57 2.385 . S
Cd58 O59 2.317 . S
O59 Cd58 2.317 . S
O59 C60 1.232 . S
C60 O59 1.232 . S
C60 O61 1.218 . S
O61 C60 1.218 . S
C62 O55 1.275 . S
C62 O57 1.255 . S
C63 O64 1.258 . S
C63 O65 1.256 . S
O64 Cd56 2.381 . S
O64 C63 1.258 . S
O65 Cd56 2.378 . S
O65 C63 1.256 . S
O66 Cd67 2.300 . S
O66 C73 1.275 . S
Cd67 O66 2.300 . S
Cd67 O75 2.381 . S
Cd67 O76 2.378 . S
O68 Cd69 2.385 . S
O68 C73 1.255 . S
Cd69 O68 2.385 . S
Cd69 O70 2.317 . S
O70 Cd69 2.317 . S
O70 C71 1.232 . S
C71 O70 1.232 . S
C71 O72 1.218 . S
O72 C71 1.218 . S
C73 O66 1.275 . S
C73 O68 1.255 . S
C74 O75 1.258 . S
C74 O76 1.256 . S
O75 Cd67 2.381 . S
O75 C74 1.258 . S
O76 Cd67 2.378 . S
O76 C74 1.256 . S
O77 Cd78 2.300 . S
O77 C84 1.275 . S
Cd78 O77 2.300 . S
Cd78 O86 2.381 . S
Cd78 O87 2.378 . S
O79 Cd80 2.385 . S
O79 C84 1.255 . S
Cd80 O79 2.385 . S
Cd80 O81 2.317 . S
O81 Cd80 2.317 . S
O81 C82 1.232 . S
C82 O81 1.232 . S
C82 O83 1.218 . S
O83 C82 1.218 . S
C84 O77 1.275 . S
C84 O79 1.255 . S
C85 O86 1.258 . S
C85 O87 1.256 . S
O86 Cd78 2.381 . S
O86 C85 1.258 . S
O87 Cd78 2.378 . S
O87 C85 1.256 . S
H88 C107 0.949 . S
H89 C108 0.950 . S
H90 C110 0.950 . S
H91 C111 0.950 . S
H92 C113 0.950 1_655 S
H93 C116 0.950 . S
H94 C117 0.950 . S
H95 C119 0.951 . S
H96 C120 0.949 . S
H97 C122 0.949 . S
H98 C123 0.950 . S
H99 C125 0.950 . S
H100 C126 0.950 . S
H101 C128 0.950 . S
H102 C131 0.950 . S
H103 C132 0.950 . S
H104 C134 0.951 . S
H105 C135 0.949 . S
C106 C107 1.376 1_455 S
C106 C111 1.386 . S
C106 C112 1.483 . S
C107 H88 0.949 . S
C107 C106 1.376 1_655 S
C107 C108 1.397 . S
C108 H89 0.950 . S
C108 C107 1.397 . S
C108 C109 1.391 . S
C109 C108 1.391 . S
C109 C110 1.405 . S
C110 H90 0.950 . S
C110 C109 1.405 . S
C110 C111 1.367 1_655 S
C111 H91 0.950 . S
C111 C106 1.386 . S
C111 C110 1.367 1_455 S
C112 C106 1.483 . S
C112 C113 1.382 . S
C112 C114 1.403 . S
C113 H92 0.950 1_455 S
C113 C112 1.382 . S
C113 C129 1.411 . S
C114 C112 1.403 . S
C114 C115 1.489 . S
C114 C128 1.411 . S
C115 C114 1.489 . S
C115 C116 1.383 . S
C115 C120 1.382 . S
C116 H93 0.950 . S
C116 C115 1.383 . S
C116 C117 1.395 . S
C117 H94 0.950 . S
C117 C116 1.395 . S
C117 C118 1.288 . S
C118 C117 1.288 . S
C118 C119 1.392 . S
C119 H95 0.951 . S
C119 C118 1.392 . S
C119 C120 1.392 . S
C120 H96 0.949 . S
C120 C115 1.382 . S
C120 C119 1.392 . S
C121 C122 1.376 . S
C121 C126 1.386 . S
C121 C127 1.483 . S
C122 H97 0.949 . S
C122 C121 1.376 . S
C122 C123 1.397 . S
C123 H98 0.950 . S
C123 C122 1.397 . S
C123 C124 1.391 . S
C124 C123 1.391 . S
C124 C125 1.405 . S
C125 H99 0.950 . S
C125 C124 1.405 . S
C125 C126 1.367 . S
C126 H100 0.950 . S
C126 C121 1.386 . S
C126 C125 1.367 . S
C127 C121 1.483 . S
C127 C128 1.382 . S
C127 C129 1.403 . S
C128 H101 0.950 . S
C128 C114 1.411 . S
C128 C127 1.382 . S
C129 C113 1.411 . S
C129 C127 1.403 . S
C129 C130 1.489 . S
C130 C129 1.489 . S
C130 C131 1.383 . S
C130 C135 1.382 1_455 S
C131 H102 0.950 . S
C131 C130 1.383 . S
C131 C132 1.395 1_455 S
C132 H103 0.950 . S
C132 C131 1.395 1_655 S
C132 C133 1.288 . S
C133 C132 1.288 . S
C133 C134 1.392 . S
C134 H104 0.951 . S
C134 C133 1.392 . S
C134 C135 1.392 . S
C135 H105 0.949 . S
C135 C130 1.382 1_655 S
C135 C134 1.392 . S
H136 C155 0.949 . S
H137 C156 0.950 . S
H138 C158 0.950 . S
H139 C159 0.950 . S
H140 C161 0.950 . S
H141 C164 0.950 . S
H142 C165 0.950 . S
H143 C167 0.951 . S
H144 C168 0.949 . S
H145 C170 0.949 . S
H146 C171 0.950 . S
H147 C173 0.950 . S
H148 C174 0.950 . S
H149 C176 0.950 . S
H150 C179 0.950 . S
H151 C180 0.950 . S
H152 C182 0.951 . S
H153 C183 0.949 . S
C154 C155 1.376 . S
C154 C159 1.386 . S
C154 C160 1.483 . S
C155 H136 0.949 . S
C155 C154 1.376 . S
C155 C156 1.397 . S
C156 H137 0.950 . S
C156 C155 1.397 . S
C156 C157 1.391 . S
C157 C156 1.391 . S
C157 C158 1.405 . S
C158 H138 0.950 . S
C158 C157 1.405 . S
C158 C159 1.367 . S
C159 H139 0.950 . S
C159 C154 1.386 . S
C159 C158 1.367 . S
C160 C154 1.483 . S
C160 C161 1.382 . S
C160 C162 1.403 1_455 S
C161 H140 0.950 . S
C161 C160 1.382 . S
C161 C177 1.411 . S
C162 C160 1.403 1_655 S
C162 C163 1.489 . S
C162 C176 1.411 . S
C163 C162 1.489 . S
C163 C164 1.383 . S
C163 C168 1.382 . S
C164 H141 0.950 . S
C164 C163 1.383 . S
C164 C165 1.395 . S
C165 H142 0.950 . S
C165 C164 1.395 . S
C165 C166 1.288 . S
C166 C165 1.288 . S
C166 C167 1.392 . S
C167 H143 0.951 . S
C167 C166 1.392 . S
C167 C168 1.392 . S
C168 H144 0.949 . S
C168 C163 1.382 . S
C168 C167 1.392 . S
C169 C170 1.376 . S
C169 C174 1.386 . S
C169 C175 1.483 . S
C170 H145 0.949 . S
C170 C169 1.376 . S
C170 C171 1.397 . S
C171 H146 0.950 . S
C171 C170 1.397 . S
C171 C172 1.391 . S
C172 C171 1.391 . S
C172 C173 1.405 . S
C173 H147 0.950 . S
C173 C172 1.405 . S
C173 C174 1.367 . S
C174 H148 0.950 . S
C174 C169 1.386 . S
C174 C173 1.367 . S
C175 C169 1.483 . S
C175 C176 1.382 . S
C175 C177 1.403 1_655 S
C176 H149 0.950 . S
C176 C162 1.411 . S
C176 C175 1.382 . S
C177 C161 1.411 . S
C177 C175 1.403 1_455 S
C177 C178 1.489 . S
C178 C177 1.489 . S
C178 C179 1.383 . S
C178 C183 1.382 . S
C179 H150 0.950 . S
C179 C178 1.383 . S
C179 C180 1.395 . S
C180 H151 0.950 . S
C180 C179 1.395 . S
C180 C181 1.288 . S
C181 C180 1.288 . S
C181 C182 1.392 . S
C182 H152 0.951 . S
C182 C181 1.392 . S
C182 C183 1.392 . S
C183 H153 0.949 . S
C183 C178 1.382 . S
C183 C182 1.392 . S
H184 C203 0.949 . S
H185 C204 0.950 . S
H186 C206 0.950 . S
H187 C207 0.950 . S
H188 C209 0.950 . S
H189 C212 0.950 . S
H190 C213 0.950 . S
H191 C215 0.951 . S
H192 C216 0.949 . S
H193 C218 0.949 . S
H194 C219 0.950 . S
H195 C221 0.950 . S
H196 C222 0.950 . S
H197 C224 0.950 . S
H198 C227 0.950 . S
H199 C228 0.950 . S
H200 C230 0.951 . S
H201 C231 0.949 . S
C202 C203 1.376 . S
C202 C207 1.386 . S
C202 C208 1.483 . S
C203 H184 0.949 . S
C203 C202 1.376 . S
C203 C204 1.397 . S
C204 H185 0.950 . S
C204 C203 1.397 . S
C204 C205 1.391 . S
C205 C204 1.391 . S
C205 C206 1.405 . S
C206 H186 0.950 . S
C206 C205 1.405 . S
C206 C207 1.367 . S
C207 H187 0.950 . S
C207 C202 1.386 . S
C207 C206 1.367 . S
C208 C202 1.483 . S
C208 C209 1.382 . S
C208 C210 1.403 . S
C209 H188 0.950 . S
C209 C208 1.382 . S
C209 C225 1.411 . S
C210 C208 1.403 . S
C210 C211 1.489 . S
C210 C224 1.411 . S
C211 C210 1.489 . S
C211 C212 1.383 . S
C211 C216 1.382 . S
C212 H189 0.950 . S
C212 C211 1.383 . S
C212 C213 1.395 . S
C213 H190 0.950 . S
C213 C212 1.395 . S
C213 C214 1.288 . S
C214 C213 1.288 . S
C214 C215 1.392 . S
C215 H191 0.951 . S
C215 C214 1.392 . S
C215 C216 1.392 . S
C216 H192 0.949 . S
C216 C211 1.382 . S
C216 C215 1.392 . S
C217 C218 1.376 . S
C217 C222 1.386 . S
C217 C223 1.483 . S
C218 H193 0.949 . S
C218 C217 1.376 . S
C218 C219 1.397 . S
C219 H194 0.950 . S
C219 C218 1.397 . S
C219 C220 1.391 . S
C220 C219 1.391 . S
C220 C221 1.405 . S
C221 H195 0.950 . S
C221 C220 1.405 . S
C221 C222 1.367 . S
C222 H196 0.950 . S
C222 C217 1.386 . S
C222 C221 1.367 . S
C223 C217 1.483 . S
C223 C224 1.382 . S
C223 C225 1.403 . S
C224 H197 0.950 . S
C224 C210 1.411 . S
C224 C223 1.382 . S
C225 C209 1.411 . S
C225 C223 1.403 . S
C225 C226 1.489 . S
C226 C225 1.489 . S
C226 C227 1.383 . S
C226 C231 1.382 . S
C227 H198 0.950 . S
C227 C226 1.383 . S
C227 C228 1.395 . S
C228 H199 0.950 . S
C228 C227 1.395 . S
C228 C229 1.288 . S
C229 C228 1.288 . S
C229 C230 1.392 . S
C230 H200 0.951 . S
C230 C229 1.392 . S
C230 C231 1.392 . S
C231 H201 0.949 . S
C231 C226 1.382 . S
C231 C230 1.392 . S
H232 C251 0.949 . S
H233 C252 0.950 . S
H234 C254 0.950 . S
H235 C255 0.950 . S
H236 C257 0.950 . S
H237 C260 0.950 . S
H238 C261 0.950 . S
H239 C263 0.951 . S
H240 C264 0.949 . S
H241 C266 0.949 . S
H242 C267 0.950 . S
H243 C269 0.950 . S
H244 C270 0.950 . S
H245 C272 0.950 . S
H246 C275 0.950 . S
H247 C276 0.950 . S
H248 C278 0.951 . S
H249 C279 0.949 . S
C250 C251 1.376 . S
C250 C255 1.386 . S
C250 C256 1.483 . S
C251 H232 0.949 . S
C251 C250 1.376 . S
C251 C252 1.397 . S
C252 H233 0.950 . S
C252 C251 1.397 . S
C252 C253 1.391 . S
C253 C252 1.391 . S
C253 C254 1.405 . S
C254 H234 0.950 . S
C254 C253 1.405 . S
C254 C255 1.367 . S
C255 H235 0.950 . S
C255 C250 1.386 . S
C255 C254 1.367 . S
C256 C250 1.483 . S
C256 C257 1.382 1_556 S
C256 C258 1.403 . S
C257 H236 0.950 . S
C257 C256 1.382 1_554 S
C257 C273 1.411 . S
C258 C256 1.403 . S
C258 C259 1.489 . S
C258 C272 1.411 1_556 S
C259 C258 1.489 . S
C259 C260 1.383 . S
C259 C264 1.382 . S
C260 H237 0.950 . S
C260 C259 1.383 . S
C260 C261 1.395 . S
C261 H238 0.950 . S
C261 C260 1.395 . S
C261 C262 1.288 . S
C262 C261 1.288 . S
C262 C263 1.392 . S
C263 H239 0.951 . S
C263 C262 1.392 . S
C263 C264 1.392 . S
C264 H240 0.949 . S
C264 C259 1.382 . S
C264 C263 1.392 . S
C265 C266 1.376 . S
C265 C270 1.386 . S
C265 C271 1.483 . S
C266 H241 0.949 . S
C266 C265 1.376 . S
C266 C267 1.397 . S
C267 H242 0.950 . S
C267 C266 1.397 . S
C267 C268 1.391 . S
C268 C267 1.391 . S
C268 C269 1.405 . S
C269 H243 0.950 . S
C269 C268 1.405 . S
C269 C270 1.367 . S
C270 H244 0.950 . S
C270 C265 1.386 . S
C270 C269 1.367 . S
C271 C265 1.483 . S
C271 C272 1.382 . S
C271 C273 1.403 . S
C272 H245 0.950 . S
C272 C258 1.411 1_554 S
C272 C271 1.382 . S
C273 C257 1.411 . S
C273 C271 1.403 . S
C273 C274 1.489 . S
C274 C273 1.489 . S
C274 C275 1.383 . S
C274 C279 1.382 . S
C275 H246 0.950 . S
C275 C274 1.383 . S
C275 C276 1.395 . S
C276 H247 0.950 . S
C276 C275 1.395 . S
C276 C277 1.288 . S
C277 C276 1.288 . S
C277 C278 1.392 . S
C278 H248 0.951 . S
C278 C277 1.392 . S
C278 C279 1.392 . S
C279 H249 0.949 . S
C279 C274 1.382 . S
C279 C278 1.392 . S
H280 C299 0.949 . S
H281 C300 0.950 . S
H282 C302 0.950 . S
H283 C303 0.950 . S
H284 C305 0.950 . S
H285 C308 0.950 . S
H286 C309 0.950 . S
H287 C311 0.951 . S
H288 C312 0.949 . S
H289 C314 0.949 . S
H290 C315 0.950 . S
H291 C317 0.950 . S
H292 C318 0.950 . S
H293 C320 0.950 . S
H294 C323 0.950 . S
H295 C324 0.950 . S
H296 C326 0.951 . S
H297 C327 0.949 . S
C298 C299 1.376 . S
C298 C303 1.386 . S
C298 C304 1.483 . S
C299 H280 0.949 . S
C299 C298 1.376 . S
C299 C300 1.397 . S
C300 H281 0.950 . S
C300 C299 1.397 . S
C300 C301 1.391 . S
C301 C300 1.391 . S
C301 C302 1.405 . S
C302 H282 0.950 . S
C302 C301 1.405 . S
C302 C303 1.367 . S
C303 H283 0.950 . S
C303 C298 1.386 . S
C303 C302 1.367 . S
C304 C298 1.483 . S
C304 C305 1.382 1_565 S
C304 C306 1.403 . S
C305 H284 0.950 . S
C305 C304 1.382 1_545 S
C305 C321 1.411 . S
C306 C304 1.403 . S
C306 C307 1.489 . S
C306 C320 1.411 1_565 S
C307 C306 1.489 . S
C307 C308 1.383 . S
C307 C312 1.382 . S
C308 H285 0.950 . S
C308 C307 1.383 . S
C308 C309 1.395 . S
C309 H286 0.950 . S
C309 C308 1.395 . S
C309 C310 1.288 . S
C310 C309 1.288 . S
C310 C311 1.392 . S
C311 H287 0.951 . S
C311 C310 1.392 . S
C311 C312 1.392 . S
C312 H288 0.949 . S
C312 C307 1.382 . S
C312 C311 1.392 . S
C313 C314 1.376 . S
C313 C318 1.386 . S
C313 C319 1.483 . S
C314 H289 0.949 . S
C314 C313 1.376 . S
C314 C315 1.397 . S
C315 H290 0.950 . S
C315 C314 1.397 . S
C315 C316 1.391 . S
C316 C315 1.391 . S
C316 C317 1.405 . S
C317 H291 0.950 . S
C317 C316 1.405 . S
C317 C318 1.367 . S
C318 H292 0.950 . S
C318 C313 1.386 . S
C318 C317 1.367 . S
C319 C313 1.483 . S
C319 C320 1.382 . S
C319 C321 1.403 . S
C320 H293 0.950 . S
C320 C306 1.411 1_545 S
C320 C319 1.382 . S
C321 C305 1.411 . S
C321 C319 1.403 . S
C321 C322 1.489 . S
C322 C321 1.489 . S
C322 C323 1.383 . S
C322 C327 1.382 . S
C323 H294 0.950 . S
C323 C322 1.383 . S
C323 C324 1.395 . S
C324 H295 0.950 . S
C324 C323 1.395 . S
C324 C325 1.288 . S
C325 C324 1.288 . S
C325 C326 1.392 . S
C326 H296 0.951 . S
C326 C325 1.392 . S
C326 C327 1.392 . S
C327 H297 0.949 . S
C327 C322 1.382 . S
C327 C326 1.392 . S
H328 C347 0.949 . S
H329 C348 0.950 . S
H330 C350 0.950 . S
H331 C351 0.950 . S
H332 C353 0.950 . S
H333 C356 0.950 . S
H334 C357 0.950 . S
H335 C359 0.951 . S
H336 C360 0.949 . S
H337 C362 0.949 . S
H338 C363 0.950 . S
H339 C365 0.950 . S
H340 C366 0.950 . S
H341 C368 0.950 . S
H342 C371 0.950 . S
H343 C372 0.950 . S
H344 C374 0.951 . S
H345 C375 0.949 . S
C346 C347 1.376 . S
C346 C351 1.386 . S
C346 C352 1.483 . S
C347 H328 0.949 . S
C347 C346 1.376 . S
C347 C348 1.397 . S
C348 H329 0.950 . S
C348 C347 1.397 . S
C348 C349 1.391 . S
C349 C348 1.391 . S
C349 C350 1.405 . S
C350 H330 0.950 . S
C350 C349 1.405 . S
C350 C351 1.367 . S
C351 H331 0.950 . S
C351 C346 1.386 . S
C351 C350 1.367 . S
C352 C346 1.483 . S
C352 C353 1.382 1_556 S
C352 C354 1.403 . S
C353 H332 0.950 . S
C353 C352 1.382 1_554 S
C353 C369 1.411 . S
C354 C352 1.403 . S
C354 C355 1.489 . S
C354 C368 1.411 1_556 S
C355 C354 1.489 . S
C355 C356 1.383 . S
C355 C360 1.382 . S
C356 H333 0.950 . S
C356 C355 1.383 . S
C356 C357 1.395 . S
C357 H334 0.950 . S
C357 C356 1.395 . S
C357 C358 1.288 . S
C358 C357 1.288 . S
C358 C359 1.392 . S
C359 H335 0.951 . S
C359 C358 1.392 . S
C359 C360 1.392 . S
C360 H336 0.949 . S
C360 C355 1.382 . S
C360 C359 1.392 . S
C361 C362 1.376 . S
C361 C366 1.386 . S
C361 C367 1.483 . S
C362 H337 0.949 . S
C362 C361 1.376 . S
C362 C363 1.397 . S
C363 H338 0.950 . S
C363 C362 1.397 . S
C363 C364 1.391 . S
C364 C363 1.391 . S
C364 C365 1.405 . S
C365 H339 0.950 . S
C365 C364 1.405 . S
C365 C366 1.367 . S
C366 H340 0.950 . S
C366 C361 1.386 . S
C366 C365 1.367 . S
C367 C361 1.483 . S
C367 C368 1.382 . S
C367 C369 1.403 . S
C368 H341 0.950 . S
C368 C354 1.411 1_554 S
C368 C367 1.382 . S
C369 C353 1.411 . S
C369 C367 1.403 . S
C369 C370 1.489 . S
C370 C369 1.489 . S
C370 C371 1.383 . S
C370 C375 1.382 . S
C371 H342 0.950 . S
C371 C370 1.383 . S
C371 C372 1.395 . S
C372 H343 0.950 . S
C372 C371 1.395 . S
C372 C373 1.288 . S
C373 C372 1.288 . S
C373 C374 1.392 . S
C374 H344 0.951 . S
C374 C373 1.392 . S
C374 C375 1.392 . S
C375 H345 0.949 . S
C375 C370 1.382 . S
C375 C374 1.392 . S
H376 C388 0.930 . S
H377 C390 0.930 . S
H378 C391 0.930 . S
H379 C395 0.959 . S
H380 C395 0.959 . S
H381 C395 0.961 . S
H382 C396 0.960 . S
H383 C396 0.961 . S
H384 C396 0.959 . S
H385 C399 0.929 . S
H386 C400 0.931 . S
H387 C402 0.930 . S
C388 H376 0.930 . S
C388 C389 1.399 . S
C388 C393 1.399 . S
C389 C388 1.399 . S
C389 C390 1.376 . S
C390 H377 0.930 . S
C390 C389 1.376 . S
C390 C391 1.388 . S
C391 H378 0.930 . S
C391 C390 1.388 . S
C391 C392 1.390 . S
C392 C391 1.390 . S
C392 C393 1.394 . S
C392 C398 1.465 . S
C393 C388 1.399 . S
C393 C392 1.394 . S
C393 C394 1.516 . S
C394 C393 1.516 . S
C394 C395 1.502 . S
C394 C396 1.561 . S
C394 C397 1.526 . S
C395 H379 0.959 . S
C395 H380 0.959 . S
C395 H381 0.961 . S
C395 C394 1.502 . S
C396 H382 0.960 . S
C396 H383 0.961 . S
C396 H384 0.959 . S
C396 C394 1.561 . S
C397 C394 1.526 . S
C397 C398 1.396 . S
C397 C402 1.390 . S
C398 C392 1.465 . S
C398 C397 1.396 . S
C398 C399 1.399 . S
C399 H385 0.929 . S
C399 C398 1.399 . S
C399 C400 1.385 . S
C400 H386 0.931 . S
C400 C399 1.385 . S
C400 C401 1.389 . S
C401 C400 1.389 . S
C401 C402 1.387 . S
C402 H387 0.930 . S
C402 C397 1.390 . S
C402 C401 1.387 . S
H403 C415 0.930 . S
H404 C417 0.930 . S
H405 C418 0.930 . S
H406 C422 0.959 . S
H407 C422 0.959 . S
H408 C422 0.961 . S
H409 C423 0.960 . S
H410 C423 0.961 . S
H411 C423 0.959 . S
H412 C426 0.929 . S
H413 C427 0.931 . S
H414 C429 0.930 . S
C415 H403 0.930 . S
C415 C416 1.399 . S
C415 C420 1.399 . S
C416 C415 1.399 . S
C416 C417 1.376 . S
C417 H404 0.930 . S
C417 C416 1.376 . S
C417 C418 1.388 . S
C418 H405 0.930 . S
C418 C417 1.388 . S
C418 C419 1.390 . S
C419 C418 1.390 . S
C419 C420 1.394 . S
C419 C425 1.465 . S
C420 C415 1.399 . S
C420 C419 1.394 . S
C420 C421 1.516 . S
C421 C420 1.516 . S
C421 C422 1.502 . S
C421 C423 1.561 . S
C421 C424 1.526 . S
C422 H406 0.959 . S
C422 H407 0.959 . S
C422 H408 0.961 . S
C422 C421 1.502 . S
C423 H409 0.960 . S
C423 H410 0.961 . S
C423 H411 0.959 . S
C423 C421 1.561 . S
C424 C421 1.526 . S
C424 C425 1.396 . S
C424 C429 1.390 . S
C425 C419 1.465 . S
C425 C424 1.396 . S
C425 C426 1.399 . S
C426 H412 0.929 . S
C426 C425 1.399 . S
C426 C427 1.385 . S
C427 H413 0.931 . S
C427 C426 1.385 . S
C427 C428 1.389 . S
C428 C427 1.389 . S
C428 C429 1.387 . S
C429 H414 0.930 . S
C429 C424 1.390 . S
C429 C428 1.387 . S
H430 C442 0.930 . S
H431 C444 0.930 . S
H432 C445 0.930 . S
H433 C449 0.959 . S
H434 C449 0.959 . S
H435 C449 0.961 . S
H436 C450 0.960 . S
H437 C450 0.961 . S
H438 C450 0.959 . S
H439 C453 0.929 . S
H440 C454 0.931 . S
H441 C456 0.930 . S
C442 H430 0.930 . S
C442 C443 1.399 . S
C442 C447 1.399 . S
C443 C442 1.399 . S
C443 C444 1.376 . S
C444 H431 0.930 . S
C444 C443 1.376 . S
C444 C445 1.388 . S
C445 H432 0.930 . S
C445 C444 1.388 . S
C445 C446 1.390 . S
C446 C445 1.390 . S
C446 C447 1.394 . S
C446 C452 1.465 . S
C447 C442 1.399 . S
C447 C446 1.394 . S
C447 C448 1.516 . S
C448 C447 1.516 . S
C448 C449 1.502 . S
C448 C450 1.561 . S
C448 C451 1.526 . S
C449 H433 0.959 . S
C449 H434 0.959 . S
C449 H435 0.961 . S
C449 C448 1.502 . S
C450 H436 0.960 . S
C450 H437 0.961 . S
C450 H438 0.959 . S
C450 C448 1.561 . S
C451 C448 1.526 . S
C451 C452 1.396 . S
C451 C456 1.390 . S
C452 C446 1.465 . S
C452 C451 1.396 . S
C452 C453 1.399 . S
C453 H439 0.929 . S
C453 C452 1.399 . S
C453 C454 1.385 . S
C454 H440 0.931 . S
C454 C453 1.385 . S
C454 C455 1.389 . S
C455 C454 1.389 . S
C455 C456 1.387 . S
C456 H441 0.930 . S
C456 C451 1.390 . S
C456 C455 1.387 . S
H457 C469 0.930 . S
H458 C471 0.930 . S
H459 C472 0.930 . S
H460 C476 0.959 . S
H461 C476 0.959 . S
H462 C476 0.961 . S
H463 C477 0.960 . S
H464 C477 0.961 . S
H465 C477 0.959 . S
H466 C480 0.929 . S
H467 C481 0.931 . S
H468 C483 0.930 . S
C469 H457 0.930 . S
C469 C470 1.399 . S
C469 C474 1.399 . S
C470 C469 1.399 . S
C470 C471 1.376 . S
C471 H458 0.930 . S
C471 C470 1.376 . S
C471 C472 1.388 . S
C472 H459 0.930 . S
C472 C471 1.388 . S
C472 C473 1.390 . S
C473 C472 1.390 . S
C473 C474 1.394 . S
C473 C479 1.465 . S
C474 C469 1.399 . S
C474 C473 1.394 . S
C474 C475 1.516 . S
C475 C474 1.516 . S
C475 C476 1.502 . S
C475 C477 1.561 . S
C475 C478 1.526 . S
C476 H460 0.959 . S
C476 H461 0.959 . S
C476 H462 0.961 . S
C476 C475 1.502 . S
C477 H463 0.960 . S
C477 H464 0.961 . S
C477 H465 0.959 . S
C477 C475 1.561 . S
C478 C475 1.526 . S
C478 C479 1.396 . S
C478 C483 1.390 . S
C479 C473 1.465 . S
C479 C478 1.396 . S
C479 C480 1.399 . S
C480 H466 0.929 . S
C480 C479 1.399 . S
C480 C481 1.385 . S
C481 H467 0.931 . S
C481 C480 1.385 . S
C481 C482 1.389 . S
C482 C481 1.389 . S
C482 C483 1.387 . S
C483 H468 0.930 . S
C483 C478 1.390 . S
C483 C482 1.387 . S
H484 C496 0.930 . S
H485 C498 0.930 . S
H486 C499 0.930 . S
H487 C503 0.959 . S
H488 C503 0.959 . S
H489 C503 0.961 . S
H490 C504 0.960 . S
H491 C504 0.961 . S
H492 C504 0.959 . S
H493 C507 0.929 . S
H494 C508 0.931 . S
H495 C510 0.930 . S
C496 H484 0.930 . S
C496 C497 1.399 . S
C496 C501 1.399 . S
C497 C496 1.399 . S
C497 C498 1.376 . S
C498 H485 0.930 . S
C498 C497 1.376 . S
C498 C499 1.388 . S
C499 H486 0.930 . S
C499 C498 1.388 . S
C499 C500 1.390 . S
C500 C499 1.390 . S
C500 C501 1.394 . S
C500 C506 1.465 . S
C501 C496 1.399 . S
C501 C500 1.394 . S
C501 C502 1.516 . S
C502 C501 1.516 . S
C502 C503 1.502 . S
C502 C504 1.561 . S
C502 C505 1.526 . S
C503 H487 0.959 . S
C503 H488 0.959 . S
C503 H489 0.961 . S
C503 C502 1.502 . S
C504 H490 0.960 . S
C504 H491 0.961 . S
C504 H492 0.959 . S
C504 C502 1.561 . S
C505 C502 1.526 . S
C505 C506 1.396 . S
C505 C510 1.390 . S
C506 C500 1.465 . S
C506 C505 1.396 . S
C506 C507 1.399 . S
C507 H493 0.929 . S
C507 C506 1.399 . S
C507 C508 1.385 . S
C508 H494 0.931 . S
C508 C507 1.385 . S
C508 C509 1.389 . S
C509 C508 1.389 . S
C509 C510 1.387 . S
C510 H495 0.930 . S
C510 C505 1.390 . S
C510 C509 1.387 . S
H511 C523 0.930 . S
H512 C525 0.930 . S
H513 C526 0.930 . S
H514 C530 0.959 . S
H515 C530 0.959 . S
H516 C530 0.961 . S
H517 C531 0.960 . S
H518 C531 0.961 . S
H519 C531 0.959 . S
H520 C534 0.929 . S
H521 C535 0.931 . S
H522 C537 0.930 . S
C523 H511 0.930 . S
C523 C524 1.399 . S
C523 C528 1.399 . S
C524 C523 1.399 . S
C524 C525 1.376 . S
C525 H512 0.930 . S
C525 C524 1.376 . S
C525 C526 1.388 . S
C526 H513 0.930 . S
C526 C525 1.388 . S
C526 C527 1.390 . S
C527 C526 1.390 . S
C527 C528 1.394 . S
C527 C533 1.465 . S
C528 C523 1.399 . S
C528 C527 1.394 . S
C528 C529 1.516 . S
C529 C528 1.516 . S
C529 C530 1.502 . S
C529 C531 1.561 . S
C529 C532 1.526 . S
C530 H514 0.959 . S
C530 H515 0.959 . S
C530 H516 0.961 . S
C530 C529 1.502 . S
C531 H517 0.960 . S
C531 H518 0.961 . S
C531 H519 0.959 . S
C531 C529 1.561 . S
C532 C529 1.526 . S
C532 C533 1.396 . S
C532 C537 1.390 . S
C533 C527 1.465 . S
C533 C532 1.396 . S
C533 C534 1.399 . S
C534 H520 0.929 . S
C534 C533 1.399 . S
C534 C535 1.385 . S
C535 H521 0.931 . S
C535 C534 1.385 . S
C535 C536 1.389 . S
C536 C535 1.389 . S
C536 C537 1.387 . S
C537 H522 0.930 . S
C537 C532 1.390 . S
C537 C536 1.387 . S
H538 C550 0.930 . S
H539 C552 0.930 . S
H540 C553 0.930 . S
H541 C557 0.959 . S
H542 C557 0.959 . S
H543 C557 0.961 . S
H544 C558 0.960 . S
H545 C558 0.961 . S
H546 C558 0.959 . S
H547 C561 0.929 . S
H548 C562 0.931 . S
H549 C564 0.930 . S
C550 H538 0.930 . S
C550 C551 1.399 . S
C550 C555 1.399 . S
C551 C550 1.399 . S
C551 C552 1.376 . S
C552 H539 0.930 . S
C552 C551 1.376 . S
C552 C553 1.388 . S
C553 H540 0.930 . S
C553 C552 1.388 . S
C553 C554 1.390 . S
C554 C553 1.390 . S
C554 C555 1.394 . S
C554 C560 1.465 . S
C555 C550 1.399 . S
C555 C554 1.394 . S
C555 C556 1.516 . S
C556 C555 1.516 . S
C556 C557 1.502 . S
C556 C558 1.561 . S
C556 C559 1.526 . S
C557 H541 0.959 . S
C557 H542 0.959 . S
C557 H543 0.961 . S
C557 C556 1.502 . S
C558 H544 0.960 . S
C558 H545 0.961 . S
C558 H546 0.959 . S
C558 C556 1.561 . S
C559 C556 1.526 . S
C559 C560 1.396 . S
C559 C564 1.390 . S
C560 C554 1.465 . S
C560 C559 1.396 . S
C560 C561 1.399 . S
C561 H547 0.929 . S
C561 C560 1.399 . S
C561 C562 1.385 . S
C562 H548 0.931 . S
C562 C561 1.385 . S
C562 C563 1.389 . S
C563 C562 1.389 . S
C563 C564 1.387 . S
C564 H549 0.930 . S
C564 C559 1.390 . S
C564 C563 1.387 . S
H565 C577 0.930 . S
H566 C579 0.930 . S
H567 C580 0.930 . S
H568 C584 0.959 . S
H569 C584 0.959 . S
H570 C584 0.961 . S
H571 C585 0.960 . S
H572 C585 0.961 . S
H573 C585 0.959 . S
H574 C588 0.929 . S
H575 C589 0.931 . S
H576 C591 0.930 . S
C577 H565 0.930 . S
C577 C578 1.399 . S
C577 C582 1.399 . S
C578 C577 1.399 . S
C578 C579 1.376 . S
C579 H566 0.930 . S
C579 C578 1.376 . S
C579 C580 1.388 . S
C580 H567 0.930 . S
C580 C579 1.388 . S
C580 C581 1.390 . S
C581 C580 1.390 . S
C581 C582 1.394 . S
C581 C587 1.465 . S
C582 C577 1.399 . S
C582 C581 1.394 . S
C582 C583 1.516 . S
C583 C582 1.516 . S
C583 C584 1.502 . S
C583 C585 1.561 . S
C583 C586 1.526 . S
C584 H568 0.959 . S
C584 H569 0.959 . S
C584 H570 0.961 . S
C584 C583 1.502 . S
C585 H571 0.960 . S
C585 H572 0.961 . S
C585 H573 0.959 . S
C585 C583 1.561 . S
C586 C583 1.526 . S
C586 C587 1.396 . S
C586 C591 1.390 . S
C587 C581 1.465 . S
C587 C586 1.396 . S
C587 C588 1.399 . S
C588 H574 0.929 . S
C588 C587 1.399 . S
C588 C589 1.385 . S
C589 H575 0.931 . S
C589 C588 1.385 . S
C589 C590 1.389 . S
C590 C589 1.389 . S
C590 C591 1.387 . S
C591 H576 0.930 . S
C591 C586 1.390 . S
C591 C590 1.387 . S
H592 C604 0.930 . S
H593 C606 0.930 . S
H594 C607 0.930 . S
H595 C611 0.959 . S
H596 C611 0.959 1_545 S
H597 C611 0.961 . S
H598 C612 0.960 . S
H599 C612 0.961 . S
H600 C612 0.959 . S
H601 C615 0.929 . S
H602 C616 0.931 1_545 S
H603 C618 0.930 . S
C604 H592 0.930 . S
C604 C605 1.399 . S
C604 C609 1.399 . S
C605 C604 1.399 . S
C605 C606 1.376 . S
C606 H593 0.930 . S
C606 C605 1.376 . S
C606 C607 1.388 . S
C607 H594 0.930 . S
C607 C606 1.388 . S
C607 C608 1.390 . S
C608 C607 1.390 . S
C608 C609 1.394 . S
C608 C614 1.465 . S
C609 C604 1.399 . S
C609 C608 1.394 . S
C609 C610 1.516 . S
C610 C609 1.516 . S
C610 C611 1.502 . S
C610 C612 1.561 . S
C610 C613 1.526 . S
C611 H595 0.959 . S
C611 H596 0.959 1_565 S
C611 H597 0.961 . S
C611 C610 1.502 . S
C612 H598 0.960 . S
C612 H599 0.961 . S
C612 H600 0.959 . S
C612 C610 1.561 . S
C613 C610 1.526 . S
C613 C614 1.396 . S
C613 C618 1.390 1_565 S
C614 C608 1.465 . S
C614 C613 1.396 . S
C614 C615 1.399 . S
C615 H601 0.929 . S
C615 C614 1.399 . S
C615 C616 1.385 . S
C616 H602 0.931 1_565 S
C616 C615 1.385 . S
C616 C617 1.389 1_565 S
C617 C616 1.389 1_545 S
C617 C618 1.387 . S
C618 H603 0.930 . S
C618 C613 1.390 1_545 S
C618 C617 1.387 . S
H619 C631 0.930 . S
H620 C633 0.930 . S
H621 C634 0.930 . S
H622 C638 0.959 . S
H623 C638 0.959 . S
H624 C638 0.961 . S
H625 C639 0.960 . S
H626 C639 0.961 . S
H627 C639 0.959 . S
H628 C642 0.929 . S
H629 C643 0.931 . S
H630 C645 0.930 . S
C631 H619 0.930 . S
C631 C632 1.399 . S
C631 C636 1.399 . S
C632 C631 1.399 . S
C632 C633 1.376 . S
C633 H620 0.930 . S
C633 C632 1.376 . S
C633 C634 1.388 . S
C634 H621 0.930 . S
C634 C633 1.388 . S
C634 C635 1.390 . S
C635 C634 1.390 . S
C635 C636 1.394 . S
C635 C641 1.465 . S
C636 C631 1.399 . S
C636 C635 1.394 . S
C636 C637 1.516 . S
C637 C636 1.516 . S
C637 C638 1.502 . S
C637 C639 1.561 . S
C637 C640 1.526 . S
C638 H622 0.959 . S
C638 H623 0.959 . S
C638 H624 0.961 . S
C638 C637 1.502 . S
C639 H625 0.960 . S
C639 H626 0.961 . S
C639 H627 0.959 . S
C639 C637 1.561 . S
C640 C637 1.526 . S
C640 C641 1.396 . S
C640 C645 1.390 . S
C641 C635 1.465 . S
C641 C640 1.396 . S
C641 C642 1.399 . S
C642 H628 0.929 . S
C642 C641 1.399 . S
C642 C643 1.385 . S
C643 H629 0.931 . S
C643 C642 1.385 . S
C643 C644 1.389 . S
C644 C643 1.389 . S
C644 C645 1.387 . S
C645 H630 0.930 . S
C645 C640 1.390 . S
C645 C644 1.387 . S
H646 C658 0.930 . S
H647 C660 0.930 . S
H648 C661 0.930 . S
H649 C665 0.959 . S
H650 C665 0.959 . S
H651 C665 0.961 . S
H652 C666 0.960 . S
H653 C666 0.961 . S
H654 C666 0.959 . S
H655 C669 0.929 . S
H656 C670 0.931 . S
H657 C672 0.930 . S
C658 H646 0.930 . S
C658 C659 1.399 . S
C658 C663 1.399 . S
C659 C658 1.399 . S
C659 C660 1.376 . S
C660 H647 0.930 . S
C660 C659 1.376 . S
C660 C661 1.388 . S
C661 H648 0.930 . S
C661 C660 1.388 . S
C661 C662 1.390 . S
C662 C661 1.390 . S
C662 C663 1.394 . S
C662 C668 1.465 . S
C663 C658 1.399 . S
C663 C662 1.394 . S
C663 C664 1.516 . S
C664 C663 1.516 . S
C664 C665 1.502 . S
C664 C666 1.561 . S
C664 C667 1.526 . S
C665 H649 0.959 . S
C665 H650 0.959 . S
C665 H651 0.961 . S
C665 C664 1.502 . S
C666 H652 0.960 . S
C666 H653 0.961 . S
C666 H654 0.959 . S
C666 C664 1.561 . S
C667 C664 1.526 . S
C667 C668 1.396 . S
C667 C672 1.390 . S
C668 C662 1.465 . S
C668 C667 1.396 . S
C668 C669 1.399 . S
C669 H655 0.929 . S
C669 C668 1.399 . S
C669 C670 1.385 . S
C670 H656 0.931 . S
C670 C669 1.385 . S
C670 C671 1.389 . S
C671 C670 1.389 . S
C671 C672 1.387 . S
C672 H657 0.930 . S
C672 C667 1.390 . S
C672 C671 1.387 . S
H673 C685 0.930 . S
H674 C687 0.930 . S
H675 C688 0.930 . S
H676 C692 0.959 . S
H677 C692 0.959 . S
H678 C692 0.961 . S
H679 C693 0.960 . S
H680 C693 0.961 . S
H681 C693 0.959 . S
H682 C696 0.929 . S
H683 C697 0.931 . S
H684 C699 0.930 . S
C685 H673 0.930 . S
C685 C686 1.399 . S
C685 C690 1.399 . S
C686 C685 1.399 . S
C686 C687 1.376 . S
C687 H674 0.930 . S
C687 C686 1.376 . S
C687 C688 1.388 . S
C688 H675 0.930 . S
C688 C687 1.388 . S
C688 C689 1.390 . S
C689 C688 1.390 . S
C689 C690 1.394 . S
C689 C695 1.465 . S
C690 C685 1.399 . S
C690 C689 1.394 . S
C690 C691 1.516 . S
C691 C690 1.516 . S
C691 C692 1.502 . S
C691 C693 1.561 . S
C691 C694 1.526 . S
C692 H676 0.959 . S
C692 H677 0.959 . S
C692 H678 0.961 . S
C692 C691 1.502 . S
C693 H679 0.960 . S
C693 H680 0.961 . S
C693 H681 0.959 . S
C693 C691 1.561 . S
C694 C691 1.526 . S
C694 C695 1.396 . S
C694 C699 1.390 . S
C695 C689 1.465 . S
C695 C694 1.396 . S
C695 C696 1.399 . S
C696 H682 0.929 . S
C696 C695 1.399 . S
C696 C697 1.385 . S
C697 H683 0.931 . S
C697 C696 1.385 . S
C697 C698 1.389 . S
C698 C697 1.389 . S
C698 C699 1.387 . S
C699 H684 0.930 . S
C699 C694 1.390 . S
C699 C698 1.387 . S
H700 C712 0.930 . S
H701 C714 0.930 . S
H702 C715 0.930 . S
H703 C719 0.959 . S
H704 C719 0.959 . S
H705 C719 0.961 . S
H706 C720 0.960 . S
H707 C720 0.961 . S
H708 C720 0.959 . S
H709 C723 0.929 . S
H710 C724 0.931 . S
H711 C726 0.930 . S
C712 H700 0.930 . S
C712 C713 1.399 . S
C712 C717 1.399 . S
C713 C712 1.399 . S
C713 C714 1.376 . S
C714 H701 0.930 . S
C714 C713 1.376 . S
C714 C715 1.388 . S
C715 H702 0.930 . S
C715 C714 1.388 . S
C715 C716 1.390 . S
C716 C715 1.390 . S
C716 C717 1.394 . S
C716 C722 1.465 . S
C717 C712 1.399 . S
C717 C716 1.394 . S
C717 C718 1.516 . S
C718 C717 1.516 . S
C718 C719 1.502 . S
C718 C720 1.561 . S
C718 C721 1.526 . S
C719 H703 0.959 . S
C719 H704 0.959 . S
C719 H705 0.961 . S
C719 C718 1.502 . S
C720 H706 0.960 . S
C720 H707 0.961 . S
C720 H708 0.959 . S
C720 C718 1.561 . S
C721 C718 1.526 . S
C721 C722 1.396 . S
C721 C726 1.390 . S
C722 C716 1.465 . S
C722 C721 1.396 . S
C722 C723 1.399 . S
C723 H709 0.929 . S
C723 C722 1.399 . S
C723 C724 1.385 . S
C724 H710 0.931 . S
C724 C723 1.385 . S
C724 C725 1.389 . S
C725 C724 1.389 . S
C725 C726 1.387 . S
C726 H711 0.930 . S
C726 C721 1.390 . S
C726 C725 1.387 . S
H727 C739 0.930 . S
H728 C741 0.930 . S
H729 C742 0.930 . S
H730 C746 0.959 . S
H731 C746 0.959 . S
H732 C746 0.961 . S
H733 C747 0.960 . S
H734 C747 0.961 . S
H735 C747 0.959 . S
H736 C750 0.929 . S
H737 C751 0.931 . S
H738 C753 0.930 . S
C739 H727 0.930 . S
C739 C740 1.399 . S
C739 C744 1.399 . S
C740 C739 1.399 . S
C740 C741 1.376 . S
C741 H728 0.930 . S
C741 C740 1.376 . S
C741 C742 1.388 . S
C742 H729 0.930 . S
C742 C741 1.388 . S
C742 C743 1.390 . S
C743 C742 1.390 . S
C743 C744 1.394 . S
C743 C749 1.465 . S
C744 C739 1.399 . S
C744 C743 1.394 . S
C744 C745 1.516 . S
C745 C744 1.516 . S
C745 C746 1.502 . S
C745 C747 1.561 . S
C745 C748 1.526 . S
C746 H730 0.959 . S
C746 H731 0.959 . S
C746 H732 0.961 . S
C746 C745 1.502 . S
C747 H733 0.960 . S
C747 H734 0.961 . S
C747 H735 0.959 . S
C747 C745 1.561 . S
C748 C745 1.526 . S
C748 C749 1.396 . S
C748 C753 1.390 . S
C749 C743 1.465 . S
C749 C748 1.396 . S
C749 C750 1.399 . S
C750 H736 0.929 . S
C750 C749 1.399 . S
C750 C751 1.385 . S
C751 H737 0.931 . S
C751 C750 1.385 . S
C751 C752 1.389 . S
C752 C751 1.389 . S
C752 C753 1.387 . S
C753 H738 0.930 . S
C753 C748 1.390 . S
C753 C752 1.387 . S
H754 C766 0.930 . S
H755 C768 0.930 . S
H756 C769 0.930 . S
H757 C773 0.959 . S
H758 C773 0.959 . S
H759 C773 0.961 . S
H760 C774 0.960 . S
H761 C774 0.961 . S
H762 C774 0.959 . S
H763 C777 0.929 . S
H764 C778 0.931 . S
H765 C780 0.930 . S
C766 H754 0.930 . S
C766 C767 1.399 . S
C766 C771 1.399 . S
C767 C766 1.399 . S
C767 C768 1.376 . S
C768 H755 0.930 . S
C768 C767 1.376 . S
C768 C769 1.388 . S
C769 H756 0.930 . S
C769 C768 1.388 . S
C769 C770 1.390 . S
C770 C769 1.390 . S
C770 C771 1.394 . S
C770 C776 1.465 . S
C771 C766 1.399 . S
C771 C770 1.394 . S
C771 C772 1.516 . S
C772 C771 1.516 . S
C772 C773 1.502 . S
C772 C774 1.561 . S
C772 C775 1.526 . S
C773 H757 0.959 . S
C773 H758 0.959 . S
C773 H759 0.961 . S
C773 C772 1.502 . S
C774 H760 0.960 . S
C774 H761 0.961 . S
C774 H762 0.959 . S
C774 C772 1.561 . S
C775 C772 1.526 . S
C775 C776 1.396 . S
C775 C780 1.390 . S
C776 C770 1.465 . S
C776 C775 1.396 . S
C776 C777 1.399 . S
C777 H763 0.929 . S
C777 C776 1.399 . S
C777 C778 1.385 . S
C778 H764 0.931 . S
C778 C777 1.385 . S
C778 C779 1.389 . S
C779 C778 1.389 . S
C779 C780 1.387 . S
C780 H765 0.930 . S
C780 C775 1.390 . S
C780 C779 1.387 . S
H781 C793 0.930 . S
H782 C795 0.930 . S
H783 C796 0.930 . S
H784 C800 0.959 . S
H785 C800 0.959 . S
H786 C800 0.961 . S
H787 C801 0.960 . S
H788 C801 0.961 . S
H789 C801 0.959 . S
H790 C804 0.929 . S
H791 C805 0.931 . S
H792 C807 0.930 . S
C793 H781 0.930 . S
C793 C794 1.399 . S
C793 C798 1.399 . S
C794 C793 1.399 . S
C794 C795 1.376 . S
C795 H782 0.930 . S
C795 C794 1.376 . S
C795 C796 1.388 . S
C796 H783 0.930 . S
C796 C795 1.388 . S
C796 C797 1.390 . S
C797 C796 1.390 . S
C797 C798 1.394 . S
C797 C803 1.465 . S
C798 C793 1.399 . S
C798 C797 1.394 . S
C798 C799 1.516 . S
C799 C798 1.516 . S
C799 C800 1.502 . S
C799 C801 1.561 . S
C799 C802 1.526 . S
C800 H784 0.959 . S
C800 H785 0.959 . S
C800 H786 0.961 . S
C800 C799 1.502 . S
C801 H787 0.960 . S
C801 H788 0.961 . S
C801 H789 0.959 . S
C801 C799 1.561 . S
C802 C799 1.526 . S
C802 C803 1.396 . S
C802 C807 1.390 . S
C803 C797 1.465 . S
C803 C802 1.396 . S
C803 C804 1.399 . S
C804 H790 0.929 . S
C804 C803 1.399 . S
C804 C805 1.385 . S
C805 H791 0.931 . S
C805 C804 1.385 . S
C805 C806 1.389 . S
C806 C805 1.389 . S
C806 C807 1.387 . S
C807 H792 0.930 . S
C807 C802 1.390 . S
C807 C806 1.387 . S
H808 C820 0.930 . S
H809 C822 0.930 . S
H810 C823 0.930 . S
H811 C827 0.959 . S
H812 C827 0.959 . S
H813 C827 0.961 . S
H814 C828 0.960 . S
H815 C828 0.961 . S
H816 C828 0.959 . S
H817 C831 0.929 . S
H818 C832 0.931 . S
H819 C834 0.930 . S
C820 H808 0.930 . S
C820 C821 1.399 . S
C820 C825 1.399 . S
C821 C820 1.399 . S
C821 C822 1.376 . S
C822 H809 0.930 . S
C822 C821 1.376 . S
C822 C823 1.388 . S
C823 H810 0.930 . S
C823 C822 1.388 . S
C823 C824 1.390 . S
C824 C823 1.390 . S
C824 C825 1.394 . S
C824 C830 1.465 . S
C825 C820 1.399 . S
C825 C824 1.394 . S
C825 C826 1.516 . S
C826 C825 1.516 . S
C826 C827 1.502 . S
C826 C828 1.561 . S
C826 C829 1.526 . S
C827 H811 0.959 . S
C827 H812 0.959 . S
C827 H813 0.961 . S
C827 C826 1.502 . S
C828 H814 0.960 . S
C828 H815 0.961 . S
C828 H816 0.959 . S
C828 C826 1.561 . S
C829 C826 1.526 . S
C829 C830 1.396 . S
C829 C834 1.390 . S
C830 C824 1.465 . S
C830 C829 1.396 . S
C830 C831 1.399 . S
C831 H817 0.929 . S
C831 C830 1.399 . S
C831 C832 1.385 . S
C832 H818 0.931 . S
C832 C831 1.385 . S
C832 C833 1.389 . S
C833 C832 1.389 . S
C833 C834 1.387 . S
C834 H819 0.930 . S
C834 C829 1.390 . S
C834 C833 1.387 . S
H835 C847 0.930 . S
H836 C849 0.930 . S
H837 C850 0.930 . S
H838 C854 0.959 . S
H839 C854 0.959 . S
H840 C854 0.961 . S
H841 C855 0.960 . S
H842 C855 0.961 . S
H843 C855 0.959 . S
H844 C858 0.929 . S
H845 C859 0.931 . S
H846 C861 0.930 . S
C847 H835 0.930 . S
C847 C848 1.399 . S
C847 C852 1.399 . S
C848 C847 1.399 . S
C848 C849 1.376 . S
C849 H836 0.930 . S
C849 C848 1.376 . S
C849 C850 1.388 . S
C850 H837 0.930 . S
C850 C849 1.388 . S
C850 C851 1.390 . S
C851 C850 1.390 . S
C851 C852 1.394 . S
C851 C857 1.465 . S
C852 C847 1.399 . S
C852 C851 1.394 . S
C852 C853 1.516 . S
C853 C852 1.516 . S
C853 C854 1.502 . S
C853 C855 1.561 . S
C853 C856 1.526 . S
C854 H838 0.959 . S
C854 H839 0.959 . S
C854 H840 0.961 . S
C854 C853 1.502 . S
C855 H841 0.960 . S
C855 H842 0.961 . S
C855 H843 0.959 . S
C855 C853 1.561 . S
C856 C853 1.526 . S
C856 C857 1.396 . S
C856 C861 1.390 . S
C857 C851 1.465 . S
C857 C856 1.396 . S
C857 C858 1.399 . S
C858 H844 0.929 . S
C858 C857 1.399 . S
C858 C859 1.385 . S
C859 H845 0.931 . S
C859 C858 1.385 . S
C859 C860 1.389 . S
C860 C859 1.389 . S
C860 C861 1.387 . S
C861 H846 0.930 . S
C861 C856 1.390 . S
C861 C860 1.387 . S
H862 C874 0.930 . S
H863 C876 0.930 . S
H864 C877 0.930 . S
H865 C881 0.959 . S
H866 C881 0.959 . S
H867 C881 0.961 . S
H868 C882 0.960 . S
H869 C882 0.961 . S
H870 C882 0.959 . S
H871 C885 0.929 . S
H872 C886 0.931 . S
H873 C888 0.930 . S
C874 H862 0.930 . S
C874 C875 1.399 . S
C874 C879 1.399 . S
C875 C874 1.399 . S
C875 C876 1.376 . S
C876 H863 0.930 . S
C876 C875 1.376 . S
C876 C877 1.388 . S
C877 H864 0.930 . S
C877 C876 1.388 . S
C877 C878 1.390 . S
C878 C877 1.390 . S
C878 C879 1.394 . S
C878 C884 1.465 . S
C879 C874 1.399 . S
C879 C878 1.394 . S
C879 C880 1.516 . S
C880 C879 1.516 . S
C880 C881 1.502 . S
C880 C882 1.561 . S
C880 C883 1.526 . S
C881 H865 0.959 . S
C881 H866 0.959 . S
C881 H867 0.961 . S
C881 C880 1.502 . S
C882 H868 0.960 . S
C882 H869 0.961 . S
C882 H870 0.959 . S
C882 C880 1.561 . S
C883 C880 1.526 . S
C883 C884 1.396 . S
C883 C888 1.390 . S
C884 C878 1.465 . S
C884 C883 1.396 . S
C884 C885 1.399 . S
C885 H871 0.929 . S
C885 C884 1.399 . S
C885 C886 1.385 . S
C886 H872 0.931 . S
C886 C885 1.385 . S
C886 C887 1.389 . S
C887 C886 1.389 . S
C887 C888 1.387 . S
C888 H873 0.930 . S
C888 C883 1.390 . S
C888 C887 1.387 . S
H889 C901 0.930 . S
H890 C903 0.930 . S
H891 C904 0.930 . S
H892 C908 0.959 . S
H893 C908 0.959 . S
H894 C908 0.961 . S
H895 C909 0.960 . S
H896 C909 0.961 . S
H897 C909 0.959 . S
H898 C912 0.929 . S
H899 C913 0.931 . S
H900 C915 0.930 . S
C901 H889 0.930 . S
C901 C902 1.399 . S
C901 C906 1.399 . S
C902 C901 1.399 . S
C902 C903 1.376 . S
C903 H890 0.930 . S
C903 C902 1.376 . S
C903 C904 1.388 . S
C904 H891 0.930 . S
C904 C903 1.388 . S
C904 C905 1.390 . S
C905 C904 1.390 . S
C905 C906 1.394 . S
C905 C911 1.465 . S
C906 C901 1.399 . S
C906 C905 1.394 . S
C906 C907 1.516 . S
C907 C906 1.516 . S
C907 C908 1.502 . S
C907 C909 1.561 . S
C907 C910 1.526 . S
C908 H892 0.959 . S
C908 H893 0.959 . S
C908 H894 0.961 . S
C908 C907 1.502 . S
C909 H895 0.960 . S
C909 H896 0.961 . S
C909 H897 0.959 . S
C909 C907 1.561 . S
C910 C907 1.526 . S
C910 C911 1.396 . S
C910 C915 1.390 . S
C911 C905 1.465 . S
C911 C910 1.396 . S
C911 C912 1.399 . S
C912 H898 0.929 . S
C912 C911 1.399 . S
C912 C913 1.385 . S
C913 H899 0.931 . S
C913 C912 1.385 . S
C913 C914 1.389 . S
C914 C913 1.389 . S
C914 C915 1.387 . S
C915 H900 0.930 . S
C915 C910 1.390 . S
C915 C914 1.387 . S
H916 C928 0.930 . S
H917 C930 0.930 . S
H918 C931 0.930 . S
H919 C935 0.959 . S
H920 C935 0.959 . S
H921 C935 0.961 . S
H922 C936 0.960 . S
H923 C936 0.961 . S
H924 C936 0.959 . S
H925 C939 0.929 . S
H926 C940 0.931 . S
H927 C942 0.930 . S
C928 H916 0.930 . S
C928 C929 1.399 . S
C928 C933 1.399 . S
C929 C928 1.399 . S
C929 C930 1.376 . S
C930 H917 0.930 . S
C930 C929 1.376 . S
C930 C931 1.388 . S
C931 H918 0.930 . S
C931 C930 1.388 . S
C931 C932 1.390 . S
C932 C931 1.390 . S
C932 C933 1.394 . S
C932 C938 1.465 . S
C933 C928 1.399 . S
C933 C932 1.394 . S
C933 C934 1.516 . S
C934 C933 1.516 . S
C934 C935 1.502 . S
C934 C936 1.561 . S
C934 C937 1.526 . S
C935 H919 0.959 . S
C935 H920 0.959 . S
C935 H921 0.961 . S
C935 C934 1.502 . S
C936 H922 0.960 . S
C936 H923 0.961 . S
C936 H924 0.959 . S
C936 C934 1.561 . S
C937 C934 1.526 . S
C937 C938 1.396 . S
C937 C942 1.390 . S
C938 C932 1.465 . S
C938 C937 1.396 . S
C938 C939 1.399 . S
C939 H925 0.929 . S
C939 C938 1.399 . S
C939 C940 1.385 . S
C940 H926 0.931 . S
C940 C939 1.385 . S
C940 C941 1.389 . S
C941 C940 1.389 . S
C941 C942 1.387 . S
C942 H927 0.930 . S
C942 C937 1.390 . S
C942 C941 1.387 . S
H943 C955 0.930 . S
H944 C957 0.930 . S
H945 C958 0.930 . S
H946 C962 0.959 . S
H947 C962 0.959 . S
H948 C962 0.961 . S
H949 C963 0.960 . S
H950 C963 0.961 . S
H951 C963 0.959 . S
H952 C966 0.929 . S
H953 C967 0.931 . S
H954 C969 0.930 . S
C955 H943 0.930 . S
C955 C956 1.399 . S
C955 C960 1.399 . S
C956 C955 1.399 . S
C956 C957 1.376 . S
C957 H944 0.930 . S
C957 C956 1.376 . S
C957 C958 1.388 . S
C958 H945 0.930 . S
C958 C957 1.388 . S
C958 C959 1.390 . S
C959 C958 1.390 . S
C959 C960 1.394 . S
C959 C965 1.465 . S
C960 C955 1.399 . S
C960 C959 1.394 . S
C960 C961 1.516 . S
C961 C960 1.516 . S
C961 C962 1.502 . S
C961 C963 1.561 . S
C961 C964 1.526 . S
C962 H946 0.959 . S
C962 H947 0.959 . S
C962 H948 0.961 . S
C962 C961 1.502 . S
C963 H949 0.960 . S
C963 H950 0.961 . S
C963 H951 0.959 . S
C963 C961 1.561 . S
C964 C961 1.526 . S
C964 C965 1.396 . S
C964 C969 1.390 . S
C965 C959 1.465 . S
C965 C964 1.396 . S
C965 C966 1.399 . S
C966 H952 0.929 . S
C966 C965 1.399 . S
C966 C967 1.385 . S
C967 H953 0.931 . S
C967 C966 1.385 . S
C967 C968 1.389 . S
C968 C967 1.389 . S
C968 C969 1.387 . S
C969 H954 0.930 . S
C969 C964 1.390 . S
C969 C968 1.387 . S
H970 C982 0.930 . S
H971 C984 0.930 . S
H972 C985 0.930 . S
H973 C989 0.959 . S
H974 C989 0.959 . S
H975 C989 0.961 . S
H976 C990 0.960 . S
H977 C990 0.961 . S
H978 C990 0.959 . S
H979 C993 0.929 . S
H980 C994 0.931 . S
H981 C996 0.930 . S
C982 H970 0.930 . S
C982 C983 1.399 . S
C982 C987 1.399 . S
C983 C982 1.399 . S
C983 C984 1.376 . S
C984 H971 0.930 . S
C984 C983 1.376 . S
C984 C985 1.388 . S
C985 H972 0.930 . S
C985 C984 1.388 . S
C985 C986 1.390 . S
C986 C985 1.390 . S
C986 C987 1.394 . S
C986 C992 1.465 . S
C987 C982 1.399 . S
C987 C986 1.394 . S
C987 C988 1.516 . S
C988 C987 1.516 . S
C988 C989 1.502 . S
C988 C990 1.561 . S
C988 C991 1.526 . S
C989 H973 0.959 . S
C989 H974 0.959 . S
C989 H975 0.961 . S
C989 C988 1.502 . S
C990 H976 0.960 . S
C990 H977 0.961 . S
C990 H978 0.959 . S
C990 C988 1.561 . S
C991 C988 1.526 . S
C991 C992 1.396 . S
C991 C996 1.390 . S
C992 C986 1.465 . S
C992 C991 1.396 . S
C992 C993 1.399 1_565 S
C993 H979 0.929 . S
C993 C992 1.399 1_545 S
C993 C994 1.385 . S
C994 H980 0.931 . S
C994 C993 1.385 . S
C994 C995 1.389 . S
C995 C994 1.389 . S
C995 C996 1.387 1_545 S
C996 H981 0.930 . S
C996 C991 1.390 . S
C996 C995 1.387 1_565 S
H997 C1009 0.930 . S
H998 C1011 0.930 . S
H999 C1012 0.930 . S
H1000 C1016 0.959 . S
H1001 C1016 0.959 . S
H1002 C1016 0.961 . S
H1003 C1017 0.960 . S
H1004 C1017 0.961 . S
H1005 C1017 0.959 . S
H1006 C1020 0.929 . S
H1007 C1021 0.931 . S
H1008 C1023 0.930 . S
C1009 H997 0.930 . S
C1009 C1010 1.399 . S
C1009 C1014 1.399 . S
C1010 C1009 1.399 . S
C1010 C1011 1.376 . S
C1011 H998 0.930 . S
C1011 C1010 1.376 . S
C1011 C1012 1.388 . S
C1012 H999 0.930 . S
C1012 C1011 1.388 . S
C1012 C1013 1.390 . S
C1013 C1012 1.390 . S
C1013 C1014 1.394 . S
C1013 C1019 1.465 . S
C1014 C1009 1.399 . S
C1014 C1013 1.394 . S
C1014 C1015 1.516 . S
C1015 C1014 1.516 . S
C1015 C1016 1.502 . S
C1015 C1017 1.561 . S
C1015 C1018 1.526 . S
C1016 H1000 0.959 . S
C1016 H1001 0.959 . S
C1016 H1002 0.961 . S
C1016 C1015 1.502 . S
C1017 H1003 0.960 . S
C1017 H1004 0.961 . S
C1017 H1005 0.959 . S
C1017 C1015 1.561 . S
C1018 C1015 1.526 . S
C1018 C1019 1.396 . S
C1018 C1023 1.390 . S
C1019 C1013 1.465 . S
C1019 C1018 1.396 . S
C1019 C1020 1.399 . S
C1020 H1006 0.929 . S
C1020 C1019 1.399 . S
C1020 C1021 1.385 . S
C1021 H1007 0.931 . S
C1021 C1020 1.385 . S
C1021 C1022 1.389 . S
C1022 C1021 1.389 . S
C1022 C1023 1.387 . S
C1023 H1008 0.930 . S
C1023 C1018 1.390 . S
C1023 C1022 1.387 . S
C401 C118 1.523 . S
C389 C5 1.305 . S
C428 C157 1.567 . S
C416 C16 1.325 . S
C455 C133 1.687 . S
C443 C30 1.696 . S
C482 C172 1.658 . S
C470 C40 1.650 . S
C509 C220 1.454 . S
C497 C8 1.474 . S
C536 C253 1.473 . S
C524 C18 1.455 . S
C551 C29 1.747 . S
C563 C310 1.776 . S
C590 C358 1.524 . S
C578 C38 1.350 . S
C617 C205 1.403 . S
C605 C19 1.413 . S
C632 C27 1.485 . S
C644 C268 1.638 . S
C671 C325 1.582 . S
C659 C41 1.621 . S
C698 C373 1.535 . S
C686 C7 1.460 . S
C713 C52 1.583 . S
C725 C166 1.594 . S
C752 C109 1.599 . S
C740 C62 1.525 . S
C767 C74 1.409 . S
C779 C181 1.449 . S
C794 C82 1.141 . S
C806 C124 1.402 . S
C833 C301 1.823 . S
C821 C51 1.770 . S
C860 C364 1.593 . S
C848 C60 1.436 . S
C887 C229 1.506 . S
C875 C71 1.186 . S
C902 C84 1.409 . S
C914 C277 1.525 . S
C941 C316 1.712 . S
C929 C63 1.716 . S
C968 C349 1.486 . S
C956 C73 1.464 . S
C995 C214 1.549 . S
C983 C85 1.537 . S
C1010 C49 1.435 . S
C1022 C262 1.623 . S
