# Generated by pormake.
# Topology anh, (6,3)-cn, num edge types: 1
# Building blocks:
#     Node 0, Type 0, BuildingBlock: MIFKUJ_clean_sbu_0, # of connection points: 6
#     Node 1, Type 0, BuildingBlock: MIFKUJ_clean_sbu_0, # of connection points: 6
#     Node 2, Type 0, BuildingBlock: MIFKUJ_clean_sbu_0, # of connection points: 6
#     Node 3, Type 1, BuildingBlock: PAMTOO_clean_linker_0, # of connection points: 3
#     Node 4, Type 1, BuildingBlock: PAMTOO_clean_linker_0, # of connection points: 3
#     Node 5, Type 1, BuildingBlock: PAMTOO_clean_linker_0, # of connection points: 3
#     Node 6, Type 1, BuildingBlock: PAMTOO_clean_linker_0, # of connection points: 3
#     Node 7, Type 1, BuildingBlock: PAMTOO_clean_linker_0, # of connection points: 3
#     Node 8, Type 1, BuildingBlock: PAMTOO_clean_linker_0, # of connection points: 3
#     Edge 9, Type (0, 1), BuildingBlock: XIVTED_clean_linker_0, # of connection points: 2
#     Edge 10, Type (0, 1), BuildingBlock: XIVTED_clean_linker_0, # of connection points: 2
#     Edge 11, Type (0, 1), BuildingBlock: XIVTED_clean_linker_0, # of connection points: 2
#     Edge 12, Type (0, 1), BuildingBlock: XIVTED_clean_linker_0, # of connection points: 2
#     Edge 13, Type (0, 1), BuildingBlock: XIVTED_clean_linker_0, # of connection points: 2
#     Edge 14, Type (0, 1), BuildingBlock: XIVTED_clean_linker_0, # of connection points: 2
#     Edge 15, Type (0, 1), BuildingBlock: XIVTED_clean_linker_0, # of connection points: 2
#     Edge 16, Type (0, 1), BuildingBlock: XIVTED_clean_linker_0, # of connection points: 2
#     Edge 17, Type (0, 1), BuildingBlock: XIVTED_clean_linker_0, # of connection points: 2
#     Edge 18, Type (0, 1), BuildingBlock: XIVTED_clean_linker_0, # of connection points: 2
#     Edge 19, Type (0, 1), BuildingBlock: XIVTED_clean_linker_0, # of connection points: 2
#     Edge 20, Type (0, 1), BuildingBlock: XIVTED_clean_linker_0, # of connection points: 2
#     Edge 21, Type (0, 1), BuildingBlock: XIVTED_clean_linker_0, # of connection points: 2
#     Edge 22, Type (0, 1), BuildingBlock: XIVTED_clean_linker_0, # of connection points: 2
#     Edge 23, Type (0, 1), BuildingBlock: XIVTED_clean_linker_0, # of connection points: 2
#     Edge 24, Type (0, 1), BuildingBlock: XIVTED_clean_linker_0, # of connection points: 2
#     Edge 25, Type (0, 1), BuildingBlock: XIVTED_clean_linker_0, # of connection points: 2
#     Edge 26, Type (0, 1), BuildingBlock: XIVTED_clean_linker_0, # of connection points: 2
# Relax obj value: 0.082
# Max RMSD: 0.147
# Mean RMSD: 0.110
data_MOF--net-anh--node1-MIFKUJ_clean_sbu_0--node2-PAMTOO_clean_linker_0--edge1-XIVTED_clean_linker_0
_symmetry_space_group_name_H-M    P1
_symmetry_Int_Tables_number       1
_symmetry_cell_setting            triclinic
loop_
_symmetry_equiv_pos_as_xyz
'x, y, z'
_cell_length_a     31.994306
_cell_length_b     32.034664
_cell_length_c     46.371451
_cell_angle_alpha  88.651016
_cell_angle_beta   93.760555
_cell_angle_gamma 120.45939
loop_
_atom_site_label
_atom_site_type_symbol
_atom_site_fract_x
_atom_site_fract_y
_atom_site_fract_z
_atom_type_partial_charge
Zn0 Zn 0.129 0.57771 0.16554 0.0
Zn1 Zn 0.97868 0.47538 0.16983 0.0
C2 C 0.20929 0.56442 0.17779 0.0
O3 O 0.214 0.59063 0.20047 0.0
C4 C 0.8886 0.471 0.16148 0.0
O5 O 0.87811 0.42956 0.14982 0.0
O6 O 0.15884 0.64777 0.15486 0.0
O7 O 0.06527 0.53369 0.14645 0.0
O8 O 0.99551 0.48036 0.12768 0.0
C9 C 0.18952 0.66466 0.13552 0.0
O10 O 0.19803 0.63499 0.12132 0.0
O11 O 0.17474 0.554 0.15892 0.0
C12 C 0.91593 0.39505 0.20221 0.0
O13 O 0.92235 0.43065 0.21893 0.0
O14 O 0.94114 0.40519 0.18033 0.0
O15 O 0.0373 0.51418 0.1991 0.0
O16 O 0.11516 0.56896 0.20752 0.0
O17 O 0.93176 0.49968 0.17152 0.0
C18 C 0.03916 0.5122 0.12406 0.0
C19 C 0.07394 0.5385 0.21681 0.0
Zn20 Zn 0.60577 0.09086 0.49359 0.0
Zn21 Zn 0.57317 0.95697 0.49581 0.0
C22 C 0.70136 0.16158 0.51572 0.0
O23 O 0.67537 0.16792 0.53404 0.0
C24 C 0.47954 0.87585 0.48484 0.0
O25 O 0.50075 0.8786 0.46098 0.0
O26 O 0.58835 0.14291 0.49319 0.0
O27 O 0.5812 0.05657 0.45546 0.0
O28 O 0.56906 0.98178 0.45575 0.0
C29 C 0.60325 0.17404 0.47319 0.0
O30 O 0.62744 0.16974 0.45274 0.0
O31 O 0.67963 0.12766 0.49692 0.0
C32 C 0.60439 0.89656 0.5187 0.0
O33 O 0.58594 0.90584 0.54049 0.0
O34 O 0.6048 0.91636 0.49456 0.0
O35 O 0.60799 0.00283 0.53007 0.0
O36 O 0.5774 0.0509 0.52842 0.0
O37 O 0.50338 0.90768 0.50459 0.0
C38 C 0.56986 0.01738 0.44249 0.0
C39 C 0.6009 0.03381 0.54202 0.0
Zn40 Zn 0.64303 0.5295 0.82132 0.0
Zn41 Zn 0.53166 0.56666 0.81724 0.0
C42 C 0.64543 0.44523 0.83029 0.0
O43 O 0.6727 0.4729 0.85227 0.0
C44 C 0.52647 0.65423 0.82057 0.0
O45 O 0.47957 0.62372 0.81695 0.0
O46 O 0.71566 0.57444 0.82173 0.0
O47 O 0.60037 0.54808 0.80037 0.0
O48 O 0.54529 0.55581 0.7763 0.0
C49 C 0.74085 0.56656 0.80491 0.0
O50 O 0.71848 0.53366 0.78435 0.0
O51 O 0.62694 0.46205 0.81174 0.0
C52 C 0.43834 0.5229 0.8434 0.0
O53 O 0.46537 0.53682 0.86773 0.0
O54 O 0.45874 0.52985 0.81973 0.0
O55 O 0.56463 0.54689 0.85087 0.0
O56 O 0.6215 0.52699 0.861 0.0
O57 O 0.55569 0.63822 0.82144 0.0
C58 C 0.58009 0.5478 0.77616 0.0
C59 C 0.58836 0.5345 0.86895 0.0
H60 H 0.59406 0.09704 0.24786 0.0
H61 H 0.46671 0.97409 0.20906 0.0
H62 H 0.57354 0.08122 0.15522 0.0
H63 H 0.46861 0.02675 0.12095 0.0
C64 C 0.45524 0.00846 0.14181 0.0
O65 O 0.49004 0.00033 0.15557 0.0
H66 H 0.44816 0.03284 0.1548 0.0
C67 C 0.57232 0.07742 0.22861 0.0
C68 C 0.58921 0.09481 0.20126 0.0
C69 C 0.52845 0.03413 0.23163 0.0
C70 C 0.50077 0.00767 0.20697 0.0
C71 C 0.51697 0.02516 0.17943 0.0
C72 C 0.56133 0.06827 0.1766 0.0
H73 H 0.67531 0.62722 0.59214 0.0
H74 H 0.64884 0.49169 0.55826 0.0
H75 H 0.65028 0.59878 0.50037 0.0
H76 H 0.58905 0.49484 0.47191 0.0
C77 C 0.59584 0.48132 0.49296 0.0
O78 O 0.64225 0.51372 0.50397 0.0
H79 H 0.56783 0.4779 0.50747 0.0
C80 C 0.66907 0.60412 0.57371 0.0
C81 C 0.66313 0.61899 0.54575 0.0
C82 C 0.66327 0.55815 0.57853 0.0
C83 C 0.65432 0.52767 0.55487 0.0
C84 C 0.6512 0.54323 0.52673 0.0
C85 C 0.65544 0.5886 0.52217 0.0
H86 H 0.04241 0.59288 0.92063 0.0
H87 H 0.14217 0.54488 0.90487 0.0
H88 H 0.05846 0.55957 0.83373 0.0
H89 H 0.09129 0.48179 0.82105 0.0
C90 C 0.11153 0.4919 0.84254 0.0
O91 O 0.12628 0.53954 0.84874 0.0
H92 H 0.08654 0.46684 0.85868 0.0
C93 C 0.05926 0.58164 0.90549 0.0
C94 C 0.04549 0.57804 0.87573 0.0
C95 C 0.09301 0.56853 0.91627 0.0
C96 C 0.11577 0.55475 0.8969 0.0
C97 C 0.1038 0.55253 0.86721 0.0
C98 C 0.06847 0.56355 0.85668 0.0
H99 H 0.99739 0.42338 0.42872 0.0
H100 H 0.13797 0.55187 0.44184 0.0
H101 H 0.06457 0.46737 0.51457 0.0
H102 H 0.13598 0.58096 0.53182 0.0
C103 C 0.14537 0.58729 0.50886 0.0
O104 O 0.14249 0.54605 0.49786 0.0
H105 H 0.1187 0.59526 0.49714 0.0
C106 C 0.02805 0.44801 0.44292 0.0
C107 C 0.02664 0.43933 0.4728 0.0
C108 C 0.0677 0.48863 0.43131 0.0
C109 C 0.10632 0.52109 0.45023 0.0
C110 C 0.1048 0.51401 0.48014 0.0
C111 C 0.065 0.47314 0.49145 0.0
H112 H 0.63574 0.98718 0.75277 0.0
H113 H 0.64104 0.12235 0.7669 0.0
H114 H 0.61263 0.02318 0.83671 0.0
H115 H 0.5621 0.08384 0.84417 0.0
C116 C 0.57767 0.10324 0.82393 0.0
O117 O 0.62178 0.10621 0.82114 0.0
H118 H 0.55106 0.0823 0.80568 0.0
C119 C 0.63505 0.01298 0.76715 0.0
C120 C 0.62502 0.00052 0.79613 0.0
C121 C 0.64056 0.05664 0.75612 0.0
C122 C 0.63692 0.08843 0.77478 0.0
C123 C 0.62683 0.07617 0.80369 0.0
C124 C 0.6209 0.0324 0.81436 0.0
H125 H 0.63739 0.52901 0.08481 0.0
H126 H 0.4983 0.51864 0.08893 0.0
H127 H 0.57834 0.51888 0.16705 0.0
H128 H 0.47121 0.45845 0.17273 0.0
C129 C 0.46057 0.47187 0.15287 0.0
O130 O 0.49924 0.5158 0.14537 0.0
H131 H 0.44971 0.44434 0.13538 0.0
C132 C 0.60881 0.52672 0.09731 0.0
C133 C 0.6131 0.52491 0.12752 0.0
C134 C 0.56731 0.52381 0.08303 0.0
C135 C 0.5307 0.52103 0.09947 0.0
C136 C 0.53487 0.51929 0.1297 0.0
C137 C 0.57579 0.5209 0.14369 0.0
H138 H 0.21386 0.51476 0.13195 0.0
H139 H 0.44273 0.50272 0.20258 0.0
H140 H 0.28291 0.57481 0.21589 0.0
H141 H 0.38635 0.46012 0.11459 0.0
H142 H 0.37921 0.5222 0.20952 0.0
H143 H 0.27197 0.48769 0.12668 0.0
C144 C 0.24118 0.52218 0.14929 0.0
C145 C 0.24369 0.54727 0.17436 0.0
C146 C 0.38037 0.50813 0.18877 0.0
C147 C 0.31015 0.51629 0.16848 0.0
C148 C 0.41635 0.49679 0.18491 0.0
C149 C 0.41891 0.479 0.15819 0.0
C150 C 0.34706 0.50202 0.16562 0.0
C151 C 0.38484 0.47298 0.13566 0.0
C152 C 0.27434 0.50673 0.14626 0.0
C153 C 0.27977 0.5558 0.19615 0.0
N154 N 0.35023 0.48447 0.13988 0.0
N155 N 0.31161 0.54037 0.19269 0.0
H156 H 0.75673 0.24236 0.54984 0.0
H157 H 0.98432 0.3471 0.45137 0.0
H158 H 0.76568 0.16436 0.47812 0.0
H159 H 0.97284 0.43003 0.51912 0.0
H160 H 0.90921 0.27618 0.46531 0.0
H161 H 0.84008 0.30714 0.54334 0.0
C162 C 0.77636 0.2385 0.53293 0.0
C163 C 0.75385 0.19791 0.51432 0.0
C164 C 0.92319 0.3097 0.47733 0.0
C165 C 0.84949 0.27235 0.50668 0.0
C166 C 0.96607 0.35029 0.46933 0.0
C167 C 0.98453 0.39481 0.48383 0.0
C168 C 0.89818 0.31342 0.49998 0.0
C169 C 0.95989 0.39649 0.50733 0.0
C170 C 0.824 0.27566 0.5292 0.0
C171 C 0.78132 0.19501 0.49288 0.0
N172 N 0.91767 0.35654 0.51447 0.0
N173 N 0.82747 0.23186 0.48952 0.0
H174 H 0.62017 0.72916 0.81691 0.0
H175 H 0.5481 0.93391 0.8256 0.0
H176 H 0.47443 0.69893 0.82783 0.0
H177 H 0.67895 0.95765 0.78914 0.0
H178 H 0.5269 0.85049 0.83649 0.0
H179 H 0.64806 0.81588 0.81616 0.0
C180 C 0.59413 0.74075 0.81941 0.0
C181 C 0.54482 0.70677 0.82216 0.0
C182 C 0.56051 0.87414 0.82639 0.0
C183 C 0.5765 0.80567 0.82148 0.0
C184 C 0.57278 0.92177 0.8204 0.0
C185 C 0.61516 0.95245 0.80632 0.0
C186 C 0.59106 0.8573 0.81844 0.0
C187 C 0.64568 0.93485 0.79975 0.0
C188 C 0.61005 0.79018 0.81891 0.0
C189 C 0.51269 0.72383 0.82537 0.0
N190 N 0.63293 0.88832 0.80575 0.0
N191 N 0.52907 0.77208 0.82486 0.0
H192 H 0.89814 0.56087 0.16398 0.0
H193 H 0.61163 0.45499 0.16262 0.0
H194 H 0.79164 0.40823 0.16312 0.0
H195 H 0.70928 0.59029 0.12295 0.0
H196 H 0.68105 0.445 0.1776 0.0
H197 H 0.8319 0.57885 0.16283 0.0
C198 C 0.8609 0.53125 0.16391 0.0
C199 C 0.85012 0.48304 0.1632 0.0
C200 C 0.6873 0.47729 0.16609 0.0
C201 C 0.77489 0.50323 0.16245 0.0
C202 C 0.64789 0.48314 0.15778 0.0
C203 C 0.65504 0.52334 0.14145 0.0
C204 C 0.734 0.51219 0.15828 0.0
C205 C 0.70253 0.55866 0.13538 0.0
C206 C 0.82328 0.5415 0.16322 0.0
C207 C 0.80137 0.44591 0.16319 0.0
N208 N 0.74033 0.55215 0.14365 0.0
N209 N 0.7655 0.45677 0.16276 0.0
H210 H 0.41551 0.81284 0.44347 0.0
H211 H 0.21518 0.64048 0.55215 0.0
H212 H 0.42975 0.84514 0.53464 0.0
H213 H 0.18951 0.63251 0.45953 0.0
H214 H 0.29602 0.71186 0.54692 0.0
H215 H 0.33488 0.74331 0.4496 0.0
C216 C 0.40163 0.80542 0.46482 0.0
C217 C 0.42955 0.835 0.48858 0.0
C218 C 0.27271 0.69445 0.52775 0.0
C219 C 0.33687 0.75475 0.4958 0.0
C220 C 0.22671 0.65366 0.53072 0.0
C221 C 0.19578 0.63043 0.50619 0.0
C222 C 0.28806 0.71184 0.50003 0.0
C223 C 0.2124 0.64903 0.47894 0.0
C224 C 0.35545 0.76564 0.46829 0.0
C225 C 0.40944 0.82347 0.5157 0.0
N226 N 0.25737 0.68847 0.47659 0.0
N227 N 0.36442 0.78407 0.51861 0.0
H228 H 0.59521 0.37885 0.78641 0.0
H229 H 0.61412 0.16654 0.86957 0.0
H230 H 0.67251 0.39715 0.86936 0.0
H231 H 0.56122 0.1541 0.78048 0.0
H232 H 0.63075 0.24999 0.87081 0.0
H233 H 0.57768 0.29504 0.78446 0.0
C234 C 0.60854 0.3653 0.80416 0.0
C235 C 0.63531 0.395 0.8281 0.0
C236 C 0.6153 0.22903 0.85099 0.0
C237 C 0.61521 0.29937 0.82608 0.0
C238 C 0.60564 0.18146 0.85038 0.0
C239 C 0.58555 0.1535 0.82508 0.0
C240 C 0.6049 0.24877 0.82606 0.0
C241 C 0.57601 0.17447 0.80053 0.0
C242 C 0.59857 0.31753 0.80302 0.0
C243 C 0.65176 0.37561 0.85048 0.0
N244 N 0.58559 0.22091 0.80164 0.0
N245 N 0.6413 0.32903 0.84896 0.0
H246 H 0.63895 0.86225 0.47784 0.0
H247 H 0.62047 0.6523 0.58059 0.0
H248 H 0.60617 0.84896 0.56761 0.0
H249 H 0.69554 0.68605 0.50165 0.0
H250 H 0.61275 0.72327 0.57438 0.0
H251 H 0.65836 0.79737 0.48429 0.0
C252 C 0.63623 0.84604 0.4989 0.0
C253 C 0.62045 0.86073 0.52215 0.0
C254 C 0.63137 0.71559 0.55849 0.0
C255 C 0.64215 0.78668 0.52954 0.0
C256 C 0.63621 0.67508 0.56214 0.0
C257 C 0.65955 0.66337 0.54189 0.0
C258 C 0.64913 0.74462 0.5341 0.0
C259 C 0.67718 0.69352 0.51779 0.0
C260 C 0.64732 0.80912 0.50255 0.0
C261 C 0.61772 0.83862 0.54898 0.0
N262 N 0.67144 0.73275 0.51448 0.0
N263 N 0.62804 0.80257 0.55184 0.0
H264 H 0.80937 0.5695 0.7711 0.0
H265 H 0.96479 0.55986 0.9039 0.0
H266 H 0.78999 0.6026 0.85718 0.0
H267 H 0.03222 0.61366 0.82292 0.0
H268 H 0.89822 0.57097 0.88615 0.0
H269 H 0.88956 0.5826 0.78787 0.0
C270 C 0.82238 0.58049 0.79335 0.0
C271 C 0.79277 0.58451 0.81284 0.0
C272 C 0.92793 0.58093 0.87242 0.0
C273 C 0.88353 0.59827 0.83217 0.0
C274 C 0.96643 0.57492 0.88259 0.0
C275 C 0.00507 0.58623 0.8651 0.0
C276 C 0.92686 0.597 0.84418 0.0
C277 C 0.00318 0.60366 0.83714 0.0
C278 C 0.86807 0.58796 0.80286 0.0
C279 C 0.81146 0.59895 0.84141 0.0
N280 N 0.96441 0.60789 0.8274 0.0
N281 N 0.8552 0.60427 0.85036 0.0
H282 H 0.19182 0.73698 0.16724 0.0
H283 H 0.4303 0.94497 0.09672 0.0
H284 H 0.25755 0.71284 0.09591 0.0
H285 H 0.37789 0.96312 0.176 0.0
H286 H 0.35918 0.86328 0.09119 0.0
H287 H 0.25107 0.82352 0.16545 0.0
C288 C 0.21828 0.74993 0.15094 0.0
C289 C 0.22019 0.71753 0.13195 0.0
C290 C 0.36284 0.88533 0.1096 0.0
C291 C 0.28824 0.81646 0.12993 0.0
C292 C 0.40324 0.93187 0.11266 0.0
C293 C 0.40931 0.96071 0.1366 0.0
C294 C 0.3286 0.86744 0.13082 0.0
C295 C 0.37396 0.94203 0.15704 0.0
C296 C 0.25221 0.79933 0.15001 0.0
C297 C 0.2551 0.73642 0.11119 0.0
N298 N 0.33511 0.89645 0.15373 0.0
N299 N 0.28804 0.7846 0.11091 0.0
H300 H 0.62886 0.24615 0.4334 0.0
H301 H 0.56527 0.40657 0.53129 0.0
H302 H 0.56402 0.19939 0.51545 0.0
H303 H 0.61884 0.44777 0.4463 0.0
H304 H 0.56282 0.32946 0.52552 0.0
H305 H 0.62337 0.31911 0.43709 0.0
C306 C 0.61319 0.25106 0.45212 0.0
C307 C 0.59705 0.21667 0.47421 0.0
C308 C 0.57466 0.3551 0.50799 0.0
C309 C 0.59093 0.30033 0.47866 0.0
C310 C 0.57592 0.39892 0.51128 0.0
C311 C 0.59137 0.43283 0.48899 0.0
C312 C 0.58966 0.34553 0.48237 0.0
C313 C 0.60597 0.42203 0.46375 0.0
C314 C 0.61009 0.29277 0.45422 0.0
C315 C 0.57698 0.22495 0.49792 0.0
N316 N 0.60479 0.37928 0.46111 0.0
N317 N 0.57475 0.26606 0.4996 0.0
H318 H 0.37423 0.50196 0.79632 0.0
H319 H 0.16153 0.47999 0.88909 0.0
H320 H 0.38345 0.50911 0.88955 0.0
H321 H 0.1625 0.49435 0.79649 0.0
H322 H 0.23783 0.4792 0.88957 0.0
H323 H 0.29133 0.4868 0.7959 0.0
C324 C 0.35866 0.49976 0.81674 0.0
C325 C 0.38609 0.50729 0.84302 0.0
C326 C 0.22113 0.482 0.8691 0.0
C327 C 0.29114 0.49026 0.84265 0.0
C328 C 0.17763 0.48232 0.86885 0.0
C329 C 0.15567 0.48669 0.84269 0.0
C330 C 0.24294 0.48641 0.84299 0.0
C331 C 0.17813 0.49035 0.81705 0.0
C332 C 0.31134 0.49129 0.81647 0.0
C333 C 0.36383 0.50386 0.86878 0.0
N334 N 0.2206 0.4902 0.81784 0.0
N335 N 0.3178 0.49596 0.86793 0.0
H336 H 0.88418 0.31558 0.16693 0.0
H337 H 0.62192 0.17935 0.23077 0.0
H338 H 0.84614 0.36546 0.24112 0.0
H339 H 0.66403 0.1132 0.16751 0.0
H340 H 0.70327 0.25025 0.23221 0.0
H341 H 0.8041 0.24195 0.16551 0.0
C342 C 0.85935 0.31074 0.18321 0.0
C343 C 0.87181 0.34691 0.2041 0.0
C344 C 0.69486 0.22032 0.21797 0.0
C345 C 0.78 0.26333 0.2022 0.0
C346 C 0.64838 0.17989 0.21709 0.0
C347 C 0.63645 0.14017 0.19922 0.0
C348 C 0.72984 0.2213 0.20078 0.0
C349 C 0.67177 0.14316 0.18151 0.0
C350 C 0.81355 0.26884 0.18225 0.0
C351 C 0.83814 0.33872 0.22457 0.0
N352 N 0.71709 0.18302 0.18284 0.0
N353 N 0.79366 0.29804 0.22293 0.0
H354 H 0.10265 0.59952 0.10189 0.0
H355 H 0.08643 0.49083 0.94539 0.0
H356 H 0.01742 0.44749 0.0805 0.0
H357 H 0.11329 0.63539 0.95878 0.0
H358 H 0.08322 0.47832 0.99772 0.0
H359 H 0.1281 0.61637 0.05205 0.0
C360 C 0.09045 0.56968 0.08685 0.0
C361 C 0.05842 0.52214 0.09519 0.0
C362 C 0.09058 0.51301 0.9892 0.0
C363 C 0.0866 0.54088 0.03844 0.0
C364 C 0.09282 0.52032 0.95943 0.0
C365 C 0.09983 0.5641 0.94784 0.0
C366 C 0.09592 0.54994 0.00746 0.0
C367 C 0.10736 0.60096 0.96693 0.0
C368 C 0.10447 0.57929 0.05844 0.0
C369 C 0.04214 0.48468 0.07478 0.0
N370 N 0.10495 0.59298 0.99585 0.0
N371 N 0.05642 0.49483 0.04729 0.0
H372 H 0.55235 0.94444 0.40463 0.0
H373 H 0.50057 0.07593 0.27006 0.0
H374 H 0.55231 0.07896 0.40923 0.0
H375 H 0.52727 0.95825 0.26029 0.0
H376 H 0.50061 0.06474 0.32235 0.0
H377 H 0.52803 0.93856 0.35292 0.0
C378 C 0.54715 0.97265 0.39484 0.0
C379 C 0.55497 0.01257 0.41127 0.0
C380 C 0.50548 0.04061 0.30882 0.0
C381 C 0.52644 0.00557 0.35238 0.0
C382 C 0.50484 0.04665 0.27901 0.0
C383 C 0.51372 0.01779 0.26111 0.0
C384 C 0.51587 0.00594 0.32081 0.0
C385 C 0.51985 0.98083 0.27356 0.0
C386 C 0.53311 0.96914 0.36537 0.0
C387 C 0.54731 0.04781 0.39746 0.0
N388 N 0.52159 0.97637 0.30281 0.0
N389 N 0.53362 0.0435 0.36888 0.0
H390 H 0.52021 0.49488 0.73024 0.0
H391 H 0.72937 0.5989 0.62446 0.0
H392 H 0.67073 0.57448 0.76093 0.0
H393 H 0.58633 0.47959 0.60075 0.0
H394 H 0.71158 0.58401 0.67546 0.0
H395 H 0.54451 0.48302 0.68357 0.0
C396 C 0.55838 0.50917 0.7272 0.0
C397 C 0.59367 0.53551 0.74931 0.0
C398 C 0.68452 0.56017 0.65919 0.0
C399 C 0.62187 0.52293 0.69602 0.0
C400 C 0.69479 0.56856 0.63014 0.0
C401 C 0.65912 0.54058 0.60854 0.0
C402 C 0.63781 0.52439 0.66653 0.0
C403 C 0.61478 0.50188 0.61686 0.0
C404 C 0.57226 0.50218 0.70068 0.0
C405 C 0.64258 0.55327 0.74446 0.0
N406 N 0.6049 0.49561 0.64521 0.0
N407 N 0.6554 0.54743 0.71813 0.0
H408 H 0.65443 0.00663 0.57775 0.0
H409 H 0.59718 0.09527 0.72051 0.0
H410 H 0.58126 0.08886 0.57691 0.0
H411 H 0.69466 0.0392 0.71988 0.0
H412 H 0.59596 0.09901 0.66788 0.0
H413 H 0.67348 0.02239 0.62956 0.0
C414 C 0.64253 0.02819 0.58842 0.0
C415 C 0.61553 0.0458 0.57301 0.0
C416 C 0.61812 0.08647 0.67927 0.0
C417 C 0.63721 0.06395 0.6324 0.0
C418 C 0.61913 0.08465 0.70938 0.0
C419 C 0.64556 0.06625 0.72467 0.0
C420 C 0.6433 0.06932 0.6643 0.0
C421 C 0.67283 0.05253 0.70896 0.0
C422 C 0.65362 0.03735 0.61801 0.0
C423 C 0.60164 0.07404 0.58795 0.0
N424 N 0.67048 0.05373 0.67963 0.0
N425 N 0.61217 0.08177 0.61688 0.0
H426 H 0.60391 0.47821 0.90754 0.0
H427 H 0.53775 0.57315 0.04552 0.0
H428 H 0.54983 0.57729 0.90058 0.0
H429 H 0.58406 0.46787 0.04787 0.0
H430 H 0.53598 0.57203 0.99243 0.0
H431 H 0.59176 0.47126 0.95896 0.0
C432 C 0.58922 0.4984 0.91687 0.0
C433 C 0.57787 0.5284 0.89978 0.0
C434 C 0.54622 0.549 0.00462 0.0
C435 C 0.56403 0.52085 0.95897 0.0
C436 C 0.54707 0.54952 0.03484 0.0
C437 C 0.56188 0.52118 0.05105 0.0
C438 C 0.5601 0.51979 0.9907 0.0
C439 C 0.57354 0.49116 0.03623 0.0
C440 C 0.58212 0.49431 0.94628 0.0
C441 C 0.55854 0.55337 0.91298 0.0
N442 N 0.57269 0.49151 0.00699 0.0
N443 N 0.55259 0.54938 0.94194 0.0
H444 H 0.00995 0.45726 0.24521 0.0
H445 H 0.10413 0.57546 0.40279 0.0
H446 H 0.12849 0.60357 0.25991 0.0
H447 H 0.03256 0.42118 0.38703 0.0
H448 H 0.10398 0.58815 0.35065 0.0
H449 H 0.00685 0.44529 0.29765 0.0
C450 C 0.03476 0.48705 0.25948 0.0
C451 C 0.06931 0.53152 0.24827 0.0
C452 C 0.08831 0.55156 0.3587 0.0
C453 C 0.06629 0.51806 0.30803 0.0
C454 C 0.08867 0.54422 0.38848 0.0
C455 C 0.06836 0.49711 0.39954 0.0
C456 C 0.06694 0.51155 0.33974 0.0
C457 C 0.04786 0.45811 0.37971 0.0
C458 C 0.03333 0.48007 0.28934 0.0
C459 C 0.10137 0.56866 0.26769 0.0
N460 N 0.04751 0.4662 0.35082 0.0
N461 N 0.09899 0.56116 0.29664 0.0
loop_
_geom_bond_atom_site_label_1
_geom_bond_atom_site_label_2
_geom_bond_distance
_geom_bond_site_symmetry_2
_ccdc_geom_bond_type
Zn0 O6 1.969 . S
Zn0 O7 1.965 . S
Zn0 O11 2.024 . S
Zn0 O16 1.969 . S
Zn1 O8 1.969 . S
Zn1 O14 1.969 . S
Zn1 O15 1.965 . S
Zn1 O17 2.024 . S
C2 O3 1.229 . S
C2 O11 1.058 . S
O3 C2 1.229 . S
C4 O5 1.229 . S
C4 O17 1.058 . S
O5 C4 1.229 . S
O6 Zn0 1.969 . S
O6 C9 1.267 . S
O7 Zn0 1.965 . S
O7 C18 1.260 . S
O8 Zn1 1.969 . S
O8 C18 1.258 1_655 S
C9 O6 1.267 . S
C9 O10 1.228 . S
O10 C9 1.228 . S
O11 Zn0 2.024 . S
O11 C2 1.058 . S
C12 O13 1.228 . S
C12 O14 1.267 . S
O13 C12 1.228 . S
O14 Zn1 1.969 . S
O14 C12 1.267 . S
O15 Zn1 1.965 . S
O15 C19 1.260 1_655 S
O16 Zn0 1.969 . S
O16 C19 1.258 . S
O17 Zn1 2.024 . S
O17 C4 1.058 . S
C18 O7 1.260 . S
C18 O8 1.258 1_455 S
C19 O15 1.260 1_455 S
C19 O16 1.258 . S
Zn20 O26 1.969 . S
Zn20 O27 1.965 . S
Zn20 O31 2.024 . S
Zn20 O36 1.969 . S
Zn21 O28 1.969 . S
Zn21 O34 1.969 . S
Zn21 O35 1.956 1_565 S
Zn21 O37 2.024 . S
C22 O23 1.229 . S
C22 O31 1.058 . S
O23 C22 1.229 . S
C24 O25 1.229 . S
C24 O37 1.058 . S
O25 C24 1.229 . S
O26 Zn20 1.969 . S
O26 C29 1.267 . S
O27 Zn20 1.965 . S
O27 C38 1.260 . S
O28 Zn21 1.969 . S
O28 C38 1.258 1_565 S
C29 O26 1.267 . S
C29 O30 1.228 . S
O30 C29 1.228 . S
O31 Zn20 2.024 . S
O31 C22 1.058 . S
C32 O33 1.228 . S
C32 O34 1.267 . S
O33 C32 1.228 . S
O34 Zn21 1.969 . S
O34 C32 1.267 . S
O35 Zn21 1.956 1_545 S
O35 C39 1.273 . S
O36 Zn20 1.969 . S
O36 C39 1.258 . S
O37 Zn21 2.024 . S
O37 C24 1.058 . S
C38 O27 1.260 . S
C38 O28 1.258 1_545 S
C39 O35 1.273 . S
C39 O36 1.258 . S
Zn40 O46 1.969 . S
Zn40 O47 1.965 . S
Zn40 O51 2.024 . S
Zn40 O56 1.969 . S
Zn41 O48 1.969 . S
Zn41 O54 1.969 . S
Zn41 O55 1.965 . S
Zn41 O57 2.024 . S
C42 O43 1.229 . S
C42 O51 1.058 . S
O43 C42 1.229 . S
C44 O45 1.229 . S
C44 O57 1.058 . S
O45 C44 1.229 . S
O46 Zn40 1.969 . S
O46 C49 1.267 . S
O47 Zn40 1.965 . S
O47 C58 1.260 . S
O48 Zn41 1.969 . S
O48 C58 1.258 . S
C49 O46 1.267 . S
C49 O50 1.228 . S
O50 C49 1.228 . S
O51 Zn40 2.024 . S
O51 C42 1.058 . S
C52 O53 1.228 . S
C52 O54 1.267 . S
O53 C52 1.228 . S
O54 Zn41 1.969 . S
O54 C52 1.267 . S
O55 Zn41 1.965 . S
O55 C59 1.260 . S
O56 Zn40 1.969 . S
O56 C59 1.258 . S
O57 Zn41 2.024 . S
O57 C44 1.058 . S
C58 O47 1.260 . S
C58 O48 1.258 . S
C59 O55 1.260 . S
C59 O56 1.258 . S
H60 C67 0.929 . S
H61 C70 0.930 1_565 S
H62 C72 0.929 . S
H63 C64 0.969 . S
C64 H63 0.969 . S
C64 O65 1.550 . S
C64 H66 0.973 . S
O65 C64 1.550 . S
O65 C71 1.412 1_565 S
H66 C64 0.973 . S
C67 H60 0.929 . S
C67 C68 1.400 . S
C67 C69 1.364 . S
C68 C67 1.400 . S
C68 C72 1.377 . S
C69 C67 1.364 . S
C69 C70 1.374 . S
C70 H61 0.930 1_545 S
C70 C69 1.374 . S
C70 C71 1.383 . S
C71 O65 1.412 1_545 S
C71 C70 1.383 . S
C71 C72 1.394 . S
C72 H62 0.929 . S
C72 C68 1.377 . S
C72 C71 1.394 . S
H73 C80 0.929 . S
H74 C83 0.930 . S
H75 C85 0.929 . S
H76 C77 0.969 . S
C77 H76 0.969 . S
C77 O78 1.550 . S
C77 H79 0.973 . S
O78 C77 1.550 . S
O78 C84 1.412 . S
H79 C77 0.973 . S
C80 H73 0.929 . S
C80 C81 1.400 . S
C80 C82 1.364 . S
C81 C80 1.400 . S
C81 C85 1.377 . S
C82 C80 1.364 . S
C82 C83 1.374 . S
C83 H74 0.930 . S
C83 C82 1.374 . S
C83 C84 1.383 . S
C84 O78 1.412 . S
C84 C83 1.383 . S
C84 C85 1.394 . S
C85 H75 0.929 . S
C85 C81 1.377 . S
C85 C84 1.394 . S
H86 C93 0.929 . S
H87 C96 0.930 . S
H88 C98 0.929 . S
H89 C90 0.969 . S
C90 H89 0.969 . S
C90 O91 1.550 . S
C90 H92 0.973 . S
O91 C90 1.550 . S
O91 C97 1.412 . S
H92 C90 0.973 . S
C93 H86 0.929 . S
C93 C94 1.400 . S
C93 C95 1.364 . S
C94 C93 1.400 . S
C94 C98 1.377 . S
C95 C93 1.364 . S
C95 C96 1.374 . S
C96 H87 0.930 . S
C96 C95 1.374 . S
C96 C97 1.383 . S
C97 O91 1.412 . S
C97 C96 1.383 . S
C97 C98 1.394 . S
C98 H88 0.929 . S
C98 C94 1.377 . S
C98 C97 1.394 . S
H99 C106 0.933 . S
H100 C109 0.930 . S
H101 C111 0.929 . S
H102 C103 0.969 . S
C103 H102 0.969 . S
C103 O104 1.550 . S
C103 H105 0.973 . S
O104 C103 1.550 . S
O104 C110 1.412 . S
H105 C103 0.973 . S
C106 H99 0.933 . S
C106 C107 1.400 . S
C106 C108 1.364 . S
C107 C106 1.400 . S
C107 C111 1.377 . S
C108 C106 1.364 . S
C108 C109 1.374 . S
C109 H100 0.930 . S
C109 C108 1.374 . S
C109 C110 1.383 . S
C110 O104 1.412 . S
C110 C109 1.383 . S
C110 C111 1.394 . S
C111 H101 0.929 . S
C111 C107 1.377 . S
C111 C110 1.394 . S
H112 C119 0.929 . S
H113 C122 0.930 . S
H114 C124 0.929 . S
H115 C116 0.969 . S
C116 H115 0.969 . S
C116 O117 1.550 . S
C116 H118 0.973 . S
O117 C116 1.550 . S
O117 C123 1.412 . S
H118 C116 0.973 . S
C119 H112 0.929 . S
C119 C120 1.400 . S
C119 C121 1.364 1_565 S
C120 C119 1.400 . S
C120 C124 1.377 1_565 S
C121 C119 1.364 1_545 S
C121 C122 1.374 . S
C122 H113 0.930 . S
C122 C121 1.374 . S
C122 C123 1.383 . S
C123 O117 1.412 . S
C123 C122 1.383 . S
C123 C124 1.394 . S
C124 H114 0.929 . S
C124 C120 1.377 1_545 S
C124 C123 1.394 . S
H125 C132 0.929 . S
H126 C135 0.930 . S
H127 C137 0.929 . S
H128 C129 0.969 . S
C129 H128 0.969 . S
C129 O130 1.550 . S
C129 H131 0.973 . S
O130 C129 1.550 . S
O130 C136 1.412 . S
H131 C129 0.973 . S
C132 H125 0.929 . S
C132 C133 1.400 . S
C132 C134 1.364 . S
C133 C132 1.400 . S
C133 C137 1.377 . S
C134 C132 1.364 . S
C134 C135 1.374 . S
C135 H126 0.930 . S
C135 C134 1.374 . S
C135 C136 1.383 . S
C136 O130 1.412 . S
C136 C135 1.383 . S
C136 C137 1.394 . S
C137 H127 0.929 . S
C137 C133 1.377 . S
C137 C136 1.394 . S
H138 C144 0.930 . S
H139 C148 0.930 . S
H140 C153 0.929 . S
H141 C151 0.929 . S
H142 C146 0.929 . S
H143 C152 0.929 . S
C144 H138 0.930 . S
C144 C145 1.367 . S
C144 C152 1.378 . S
C145 C144 1.367 . S
C145 C153 1.433 . S
C146 H142 0.929 . S
C146 C148 1.378 . S
C146 C150 1.350 . S
C147 C150 1.463 . S
C147 C152 1.350 . S
C147 N155 1.427 . S
C148 H139 0.930 . S
C148 C146 1.378 . S
C148 C149 1.367 . S
C149 C148 1.367 . S
C149 C151 1.433 . S
C150 C146 1.350 . S
C150 C147 1.463 . S
C150 N154 1.427 . S
C151 H141 0.929 . S
C151 C149 1.433 . S
C151 N154 1.384 . S
C152 H143 0.929 . S
C152 C144 1.378 . S
C152 C147 1.350 . S
C153 H140 0.929 . S
C153 C145 1.433 . S
C153 N155 1.384 . S
N154 C150 1.427 . S
N154 C151 1.384 . S
N155 C147 1.427 . S
N155 C153 1.384 . S
H156 C162 0.930 . S
H157 C166 0.930 . S
H158 C171 0.929 . S
H159 C169 0.929 . S
H160 C164 0.929 . S
H161 C170 0.929 . S
C162 H156 0.930 . S
C162 C163 1.367 . S
C162 C170 1.378 . S
C163 C162 1.367 . S
C163 C171 1.433 . S
C164 H160 0.929 . S
C164 C166 1.378 . S
C164 C168 1.350 . S
C165 C168 1.463 . S
C165 C170 1.350 . S
C165 N173 1.427 . S
C166 H157 0.930 . S
C166 C164 1.378 . S
C166 C167 1.367 . S
C167 C166 1.367 . S
C167 C169 1.433 . S
C168 C164 1.350 . S
C168 C165 1.463 . S
C168 N172 1.427 . S
C169 H159 0.929 . S
C169 C167 1.433 . S
C169 N172 1.384 . S
C170 H161 0.929 . S
C170 C162 1.378 . S
C170 C165 1.350 . S
C171 H158 0.929 . S
C171 C163 1.433 . S
C171 N173 1.384 . S
N172 C168 1.427 . S
N172 C169 1.384 . S
N173 C165 1.427 . S
N173 C171 1.384 . S
H174 C180 0.930 . S
H175 C184 0.930 . S
H176 C189 0.929 . S
H177 C187 0.929 . S
H178 C182 0.929 . S
H179 C188 0.929 . S
C180 H174 0.930 . S
C180 C181 1.367 . S
C180 C188 1.378 . S
C181 C180 1.367 . S
C181 C189 1.433 . S
C182 H178 0.929 . S
C182 C184 1.378 . S
C182 C186 1.350 . S
C183 C186 1.463 . S
C183 C188 1.350 . S
C183 N191 1.427 . S
C184 H175 0.930 . S
C184 C182 1.378 . S
C184 C185 1.367 . S
C185 C184 1.367 . S
C185 C187 1.433 . S
C186 C182 1.350 . S
C186 C183 1.463 . S
C186 N190 1.427 . S
C187 H177 0.929 . S
C187 C185 1.433 . S
C187 N190 1.384 . S
C188 H179 0.929 . S
C188 C180 1.378 . S
C188 C183 1.350 . S
C189 H176 0.929 . S
C189 C181 1.433 . S
C189 N191 1.384 . S
N190 C186 1.427 . S
N190 C187 1.384 . S
N191 C183 1.427 . S
N191 C189 1.384 . S
H192 C198 0.930 . S
H193 C202 0.930 . S
H194 C207 0.929 . S
H195 C205 0.929 . S
H196 C200 0.929 . S
H197 C206 0.929 . S
C198 H192 0.930 . S
C198 C199 1.367 . S
C198 C206 1.378 . S
C199 C198 1.367 . S
C199 C207 1.433 . S
C200 H196 0.929 . S
C200 C202 1.378 . S
C200 C204 1.350 . S
C201 C204 1.463 . S
C201 C206 1.350 . S
C201 N209 1.427 . S
C202 H193 0.930 . S
C202 C200 1.378 . S
C202 C203 1.367 . S
C203 C202 1.367 . S
C203 C205 1.433 . S
C204 C200 1.350 . S
C204 C201 1.463 . S
C204 N208 1.427 . S
C205 H195 0.929 . S
C205 C203 1.433 . S
C205 N208 1.384 . S
C206 H197 0.929 . S
C206 C198 1.378 . S
C206 C201 1.350 . S
C207 H194 0.929 . S
C207 C199 1.433 . S
C207 N209 1.384 . S
N208 C204 1.427 . S
N208 C205 1.384 . S
N209 C201 1.427 . S
N209 C207 1.384 . S
H210 C216 0.930 . S
H211 C220 0.930 . S
H212 C225 0.929 . S
H213 C223 0.929 . S
H214 C218 0.929 . S
H215 C224 0.929 . S
C216 H210 0.930 . S
C216 C217 1.367 . S
C216 C224 1.378 . S
C217 C216 1.367 . S
C217 C225 1.433 . S
C218 H214 0.929 . S
C218 C220 1.378 . S
C218 C222 1.350 . S
C219 C222 1.463 . S
C219 C224 1.350 . S
C219 N227 1.427 . S
C220 H211 0.930 . S
C220 C218 1.378 . S
C220 C221 1.367 . S
C221 C220 1.367 . S
C221 C223 1.433 . S
C222 C218 1.350 . S
C222 C219 1.463 . S
C222 N226 1.427 . S
C223 H213 0.929 . S
C223 C221 1.433 . S
C223 N226 1.384 . S
C224 H215 0.929 . S
C224 C216 1.378 . S
C224 C219 1.350 . S
C225 H212 0.929 . S
C225 C217 1.433 . S
C225 N227 1.384 . S
N226 C222 1.427 . S
N226 C223 1.384 . S
N227 C219 1.427 . S
N227 C225 1.384 . S
H228 C234 0.930 . S
H229 C238 0.930 . S
H230 C243 0.929 . S
H231 C241 0.929 . S
H232 C236 0.929 . S
H233 C242 0.929 . S
C234 H228 0.930 . S
C234 C235 1.367 . S
C234 C242 1.378 . S
C235 C234 1.367 . S
C235 C243 1.433 . S
C236 H232 0.929 . S
C236 C238 1.378 . S
C236 C240 1.350 . S
C237 C240 1.463 . S
C237 C242 1.350 . S
C237 N245 1.427 . S
C238 H229 0.930 . S
C238 C236 1.378 . S
C238 C239 1.367 . S
C239 C238 1.367 . S
C239 C241 1.433 . S
C240 C236 1.350 . S
C240 C237 1.463 . S
C240 N244 1.427 . S
C241 H231 0.929 . S
C241 C239 1.433 . S
C241 N244 1.384 . S
C242 H233 0.929 . S
C242 C234 1.378 . S
C242 C237 1.350 . S
C243 H230 0.929 . S
C243 C235 1.433 . S
C243 N245 1.384 . S
N244 C240 1.427 . S
N244 C241 1.384 . S
N245 C237 1.427 . S
N245 C243 1.384 . S
H246 C252 0.930 . S
H247 C256 0.930 . S
H248 C261 0.929 . S
H249 C259 0.929 . S
H250 C254 0.929 . S
H251 C260 0.929 . S
C252 H246 0.930 . S
C252 C253 1.367 . S
C252 C260 1.378 . S
C253 C252 1.367 . S
C253 C261 1.433 . S
C254 H250 0.929 . S
C254 C256 1.378 . S
C254 C258 1.350 . S
C255 C258 1.463 . S
C255 C260 1.350 . S
C255 N263 1.427 . S
C256 H247 0.930 . S
C256 C254 1.378 . S
C256 C257 1.367 . S
C257 C256 1.367 . S
C257 C259 1.433 . S
C258 C254 1.350 . S
C258 C255 1.463 . S
C258 N262 1.427 . S
C259 H249 0.929 . S
C259 C257 1.433 . S
C259 N262 1.384 . S
C260 H251 0.929 . S
C260 C252 1.378 . S
C260 C255 1.350 . S
C261 H248 0.929 . S
C261 C253 1.433 . S
C261 N263 1.384 . S
N262 C258 1.427 . S
N262 C259 1.384 . S
N263 C255 1.427 . S
N263 C261 1.384 . S
H264 C270 0.930 . S
H265 C274 0.930 . S
H266 C279 0.929 . S
H267 C277 0.937 . S
H268 C272 0.929 . S
H269 C278 0.929 . S
C270 H264 0.930 . S
C270 C271 1.367 . S
C270 C278 1.378 . S
C271 C270 1.367 . S
C271 C279 1.433 . S
C272 H268 0.929 . S
C272 C274 1.378 . S
C272 C276 1.350 . S
C273 C276 1.463 . S
C273 C278 1.350 . S
C273 N281 1.427 . S
C274 H265 0.930 . S
C274 C272 1.378 . S
C274 C275 1.367 . S
C275 C274 1.367 . S
C275 C277 1.438 1_655 S
C276 C272 1.350 . S
C276 C273 1.463 . S
C276 N280 1.427 . S
C277 H267 0.937 . S
C277 C275 1.438 1_455 S
C277 N280 1.370 1_455 S
C278 H269 0.929 . S
C278 C270 1.378 . S
C278 C273 1.350 . S
C279 H266 0.929 . S
C279 C271 1.433 . S
C279 N281 1.384 . S
N280 C276 1.427 . S
N280 C277 1.370 1_655 S
N281 C273 1.427 . S
N281 C279 1.384 . S
H282 C288 0.930 . S
H283 C292 0.930 . S
H284 C297 0.929 . S
H285 C295 0.929 . S
H286 C290 0.929 . S
H287 C296 0.929 . S
C288 H282 0.930 . S
C288 C289 1.367 . S
C288 C296 1.378 . S
C289 C288 1.367 . S
C289 C297 1.433 . S
C290 H286 0.929 . S
C290 C292 1.378 . S
C290 C294 1.350 . S
C291 C294 1.463 . S
C291 C296 1.350 . S
C291 N299 1.427 . S
C292 H283 0.930 . S
C292 C290 1.378 . S
C292 C293 1.367 . S
C293 C292 1.367 . S
C293 C295 1.433 . S
C294 C290 1.350 . S
C294 C291 1.463 . S
C294 N298 1.427 . S
C295 H285 0.929 . S
C295 C293 1.433 . S
C295 N298 1.384 . S
C296 H287 0.929 . S
C296 C288 1.378 . S
C296 C291 1.350 . S
C297 H284 0.929 . S
C297 C289 1.433 . S
C297 N299 1.384 . S
N298 C294 1.427 . S
N298 C295 1.384 . S
N299 C291 1.427 . S
N299 C297 1.384 . S
H300 C306 0.930 . S
H301 C310 0.930 . S
H302 C315 0.929 . S
H303 C313 0.929 . S
H304 C308 0.929 . S
H305 C314 0.929 . S
C306 H300 0.930 . S
C306 C307 1.367 . S
C306 C314 1.378 . S
C307 C306 1.367 . S
C307 C315 1.433 . S
C308 H304 0.929 . S
C308 C310 1.378 . S
C308 C312 1.350 . S
C309 C312 1.463 . S
C309 C314 1.350 . S
C309 N317 1.427 . S
C310 H301 0.930 . S
C310 C308 1.378 . S
C310 C311 1.367 . S
C311 C310 1.367 . S
C311 C313 1.433 . S
C312 C308 1.350 . S
C312 C309 1.463 . S
C312 N316 1.427 . S
C313 H303 0.929 . S
C313 C311 1.433 . S
C313 N316 1.384 . S
C314 H305 0.929 . S
C314 C306 1.378 . S
C314 C309 1.350 . S
C315 H302 0.929 . S
C315 C307 1.433 . S
C315 N317 1.384 . S
N316 C312 1.427 . S
N316 C313 1.384 . S
N317 C309 1.427 . S
N317 C315 1.384 . S
H318 C324 0.930 . S
H319 C328 0.930 . S
H320 C333 0.929 . S
H321 C331 0.929 . S
H322 C326 0.929 . S
H323 C332 0.929 . S
C324 H318 0.930 . S
C324 C325 1.367 . S
C324 C332 1.378 . S
C325 C324 1.367 . S
C325 C333 1.433 . S
C326 H322 0.929 . S
C326 C328 1.378 . S
C326 C330 1.350 . S
C327 C330 1.463 . S
C327 C332 1.350 . S
C327 N335 1.427 . S
C328 H319 0.930 . S
C328 C326 1.378 . S
C328 C329 1.367 . S
C329 C328 1.367 . S
C329 C331 1.433 . S
C330 C326 1.350 . S
C330 C327 1.463 . S
C330 N334 1.427 . S
C331 H321 0.929 . S
C331 C329 1.433 . S
C331 N334 1.384 . S
C332 H323 0.929 . S
C332 C324 1.378 . S
C332 C327 1.350 . S
C333 H320 0.929 . S
C333 C325 1.433 . S
C333 N335 1.384 . S
N334 C330 1.427 . S
N334 C331 1.384 . S
N335 C327 1.427 . S
N335 C333 1.384 . S
H336 C342 0.930 . S
H337 C346 0.930 . S
H338 C351 0.929 . S
H339 C349 0.929 . S
H340 C344 0.929 . S
H341 C350 0.929 . S
C342 H336 0.930 . S
C342 C343 1.367 . S
C342 C350 1.378 . S
C343 C342 1.367 . S
C343 C351 1.433 . S
C344 H340 0.929 . S
C344 C346 1.378 . S
C344 C348 1.350 . S
C345 C348 1.463 . S
C345 C350 1.350 . S
C345 N353 1.427 . S
C346 H337 0.930 . S
C346 C344 1.378 . S
C346 C347 1.367 . S
C347 C346 1.367 . S
C347 C349 1.433 . S
C348 C344 1.350 . S
C348 C345 1.463 . S
C348 N352 1.427 . S
C349 H339 0.929 . S
C349 C347 1.433 . S
C349 N352 1.384 . S
C350 H341 0.929 . S
C350 C342 1.378 . S
C350 C345 1.350 . S
C351 H338 0.929 . S
C351 C343 1.433 . S
C351 N353 1.384 . S
N352 C348 1.427 . S
N352 C349 1.384 . S
N353 C345 1.427 . S
N353 C351 1.384 . S
H354 C360 0.930 . S
H355 C364 0.930 1_655 S
H356 C369 0.929 . S
H357 C367 0.929 . S
H358 C362 0.929 1_655 S
H359 C368 0.929 . S
C360 H354 0.930 . S
C360 C361 1.367 . S
C360 C368 1.378 . S
C361 C360 1.367 . S
C361 C369 1.433 1_455 S
C362 H358 0.929 1_455 S
C362 C364 1.378 . S
C362 C366 1.337 1_556 S
C363 C366 1.482 . S
C363 C368 1.350 . S
C363 N371 1.427 1_455 S
C364 H355 0.930 1_455 S
C364 C362 1.378 . S
C364 C365 1.367 . S
C365 C364 1.367 . S
C365 C367 1.433 . S
C366 C362 1.337 1_554 S
C366 C363 1.482 . S
C366 N370 1.422 1_554 S
C367 H357 0.929 . S
C367 C365 1.433 . S
C367 N370 1.384 . S
C368 H359 0.929 . S
C368 C360 1.378 . S
C368 C363 1.350 . S
C369 H356 0.929 . S
C369 C361 1.433 1_655 S
C369 N371 1.384 . S
N370 C366 1.422 1_556 S
N370 C367 1.384 . S
N371 C363 1.427 1_655 S
N371 C369 1.384 . S
H372 C378 0.930 . S
H373 C382 0.930 . S
H374 C387 0.929 . S
H375 C385 0.929 . S
H376 C380 0.929 . S
H377 C386 0.929 . S
C378 H372 0.930 . S
C378 C379 1.367 1_565 S
C378 C386 1.378 . S
C379 C378 1.367 1_545 S
C379 C387 1.433 . S
C380 H376 0.929 . S
C380 C382 1.378 . S
C380 C384 1.350 . S
C381 C384 1.463 . S
C381 C386 1.350 1_545 S
C381 N389 1.427 . S
C382 H373 0.930 . S
C382 C380 1.378 . S
C382 C383 1.367 . S
C383 C382 1.367 . S
C383 C385 1.433 1_545 S
C384 C380 1.350 . S
C384 C381 1.463 . S
C384 N388 1.427 1_545 S
C385 H375 0.929 . S
C385 C383 1.433 1_565 S
C385 N388 1.384 . S
C386 H377 0.929 . S
C386 C378 1.378 . S
C386 C381 1.350 1_565 S
C387 H374 0.929 . S
C387 C379 1.433 . S
C387 N389 1.384 . S
N388 C384 1.427 1_565 S
N388 C385 1.384 . S
N389 C381 1.427 . S
N389 C387 1.384 . S
H390 C396 0.930 . S
H391 C400 0.930 . S
H392 C405 0.929 . S
H393 C403 0.929 . S
H394 C398 0.929 . S
H395 C404 0.929 . S
C396 H390 0.930 . S
C396 C397 1.367 . S
C396 C404 1.378 . S
C397 C396 1.367 . S
C397 C405 1.433 . S
C398 H394 0.929 . S
C398 C400 1.378 . S
C398 C402 1.350 . S
C399 C402 1.463 . S
C399 C404 1.350 . S
C399 N407 1.427 . S
C400 H391 0.930 . S
C400 C398 1.378 . S
C400 C401 1.367 . S
C401 C400 1.367 . S
C401 C403 1.433 . S
C402 C398 1.350 . S
C402 C399 1.463 . S
C402 N406 1.427 . S
C403 H393 0.929 . S
C403 C401 1.433 . S
C403 N406 1.384 . S
C404 H395 0.929 . S
C404 C396 1.378 . S
C404 C399 1.350 . S
C405 H392 0.929 . S
C405 C397 1.433 . S
C405 N407 1.384 . S
N406 C402 1.427 . S
N406 C403 1.384 . S
N407 C399 1.427 . S
N407 C405 1.384 . S
H408 C414 0.930 . S
H409 C418 0.930 1_565 S
H410 C423 0.932 . S
H411 C421 0.929 . S
H412 C416 0.929 1_565 S
H413 C422 0.929 . S
C414 H408 0.930 . S
C414 C415 1.367 . S
C414 C422 1.378 . S
C415 C414 1.367 . S
C415 C423 1.434 1_545 S
C416 H412 0.929 1_545 S
C416 C418 1.378 . S
C416 C420 1.350 . S
C417 C420 1.463 . S
C417 C422 1.350 . S
C417 N425 1.427 . S
C418 H409 0.930 1_545 S
C418 C416 1.378 . S
C418 C419 1.367 . S
C419 C418 1.367 . S
C419 C421 1.433 . S
C420 C416 1.350 . S
C420 C417 1.463 . S
C420 N424 1.427 . S
C421 H411 0.929 . S
C421 C419 1.433 . S
C421 N424 1.384 . S
C422 H413 0.929 . S
C422 C414 1.378 . S
C422 C417 1.350 . S
C423 H410 0.932 . S
C423 C415 1.434 1_565 S
C423 N425 1.381 1_565 S
N424 C420 1.427 . S
N424 C421 1.384 . S
N425 C417 1.427 . S
N425 C423 1.381 1_545 S
H426 C432 0.930 . S
H427 C436 0.930 . S
H428 C441 0.929 . S
H429 C439 0.929 . S
H430 C434 0.929 1_556 S
H431 C440 0.929 . S
C432 H426 0.930 . S
C432 C433 1.367 . S
C432 C440 1.378 . S
C433 C432 1.367 . S
C433 C441 1.433 . S
C434 H430 0.929 1_554 S
C434 C436 1.378 . S
C434 C438 1.350 1_554 S
C435 C438 1.463 . S
C435 C440 1.350 . S
C435 N443 1.427 . S
C436 H427 0.930 . S
C436 C434 1.378 . S
C436 C437 1.367 . S
C437 C436 1.367 . S
C437 C439 1.433 . S
C438 C434 1.350 1_556 S
C438 C435 1.463 . S
C438 N442 1.427 1_556 S
C439 H429 0.929 . S
C439 C437 1.433 . S
C439 N442 1.384 . S
C440 H431 0.929 . S
C440 C432 1.378 . S
C440 C435 1.350 . S
C441 H428 0.929 . S
C441 C433 1.433 . S
C441 N443 1.384 . S
N442 C438 1.427 1_554 S
N442 C439 1.384 . S
N443 C435 1.427 . S
N443 C441 1.384 . S
H444 C450 0.930 . S
H445 C454 0.930 . S
H446 C459 0.929 . S
H447 C457 0.929 . S
H448 C452 0.929 . S
H449 C458 0.929 . S
C450 H444 0.930 . S
C450 C451 1.367 . S
C450 C458 1.378 . S
C451 C450 1.367 . S
C451 C459 1.433 . S
C452 H448 0.929 . S
C452 C454 1.378 . S
C452 C456 1.350 . S
C453 C456 1.463 . S
C453 C458 1.350 . S
C453 N461 1.427 . S
C454 H445 0.930 . S
C454 C452 1.378 . S
C454 C455 1.367 . S
C455 C454 1.367 . S
C455 C457 1.433 . S
C456 C452 1.350 . S
C456 C453 1.463 . S
C456 N460 1.427 . S
C457 H447 0.929 . S
C457 C455 1.433 . S
C457 N460 1.384 . S
C458 H449 0.929 . S
C458 C450 1.378 . S
C458 C453 1.350 . S
C459 H446 0.929 . S
C459 C451 1.433 . S
C459 N461 1.384 . S
N460 C456 1.427 . S
N460 C457 1.384 . S
N461 C453 1.427 . S
N461 C459 1.384 . S
C145 C2 1.436 . S
C149 C129 1.414 . S
C163 C22 1.293 . S
C167 C107 1.397 1_655 S
C181 C44 1.330 . S
C185 C120 1.406 . S
C199 C4 1.452 . S
C203 C133 1.520 . S
C221 C103 1.552 . S
C217 C24 1.601 . S
C239 C116 1.507 . S
C235 C42 1.560 . S
C253 C32 1.233 . S
C257 C81 1.243 . S
C271 C49 1.150 . S
C275 C94 1.162 1_655 S
C289 C9 1.314 . S
C293 C64 1.233 . S
C311 C77 1.207 . S
C307 C29 1.280 . S
C329 C90 1.257 . S
C325 C52 1.331 . S
C343 C12 1.201 . S
C347 C68 1.228 . S
C365 C95 1.503 . S
C361 C18 1.511 . S
C379 C38 1.504 . S
C383 C69 1.542 . S
C397 C58 1.506 . S
C401 C82 1.510 . S
C419 C121 1.591 . S
C415 C39 1.569 . S
C437 C134 1.537 . S
C433 C59 1.508 . S
C451 C19 1.530 . S
C455 C108 1.574 . S
