# Generated by pormake.
# Topology ptr, (4,4)-cn, num edge types: 1
# Building blocks:
#     Node 0, Type 0, BuildingBlock: CEKHIL_clean_sbu_0, # of connection points: 4
#     Node 1, Type 0, BuildingBlock: CEKHIL_clean_sbu_0, # of connection points: 4
#     Node 2, Type 0, BuildingBlock: CEKHIL_clean_sbu_0, # of connection points: 4
#     Node 3, Type 0, BuildingBlock: CEKHIL_clean_sbu_0, # of connection points: 4
#     Node 4, Type 0, BuildingBlock: CEKHIL_clean_sbu_0, # of connection points: 4
#     Node 5, Type 0, BuildingBlock: CEKHIL_clean_sbu_0, # of connection points: 4
#     Node 6, Type 0, BuildingBlock: CEKHIL_clean_sbu_0, # of connection points: 4
#     Node 7, Type 0, BuildingBlock: CEKHIL_clean_sbu_0, # of connection points: 4
#     Node 8, Type 0, BuildingBlock: CEKHIL_clean_sbu_0, # of connection points: 4
#     Node 9, Type 0, BuildingBlock: CEKHIL_clean_sbu_0, # of connection points: 4
#     Node 10, Type 0, BuildingBlock: CEKHIL_clean_sbu_0, # of connection points: 4
#     Node 11, Type 0, BuildingBlock: CEKHIL_clean_sbu_0, # of connection points: 4
#     Node 12, Type 0, BuildingBlock: CEKHIL_clean_sbu_0, # of connection points: 4
#     Node 13, Type 0, BuildingBlock: CEKHIL_clean_sbu_0, # of connection points: 4
#     Node 14, Type 0, BuildingBlock: CEKHIL_clean_sbu_0, # of connection points: 4
#     Node 15, Type 0, BuildingBlock: CEKHIL_clean_sbu_0, # of connection points: 4
#     Node 16, Type 0, BuildingBlock: CEKHIL_clean_sbu_0, # of connection points: 4
#     Node 17, Type 0, BuildingBlock: CEKHIL_clean_sbu_0, # of connection points: 4
#     Node 18, Type 1, BuildingBlock: KUFVIS_clean_linker_0, # of connection points: 4
#     Node 19, Type 1, BuildingBlock: KUFVIS_clean_linker_0, # of connection points: 4
#     Node 20, Type 1, BuildingBlock: KUFVIS_clean_linker_0, # of connection points: 4
#     Node 21, Type 1, BuildingBlock: KUFVIS_clean_linker_0, # of connection points: 4
#     Node 22, Type 1, BuildingBlock: KUFVIS_clean_linker_0, # of connection points: 4
#     Node 23, Type 1, BuildingBlock: KUFVIS_clean_linker_0, # of connection points: 4
#     Node 24, Type 1, BuildingBlock: KUFVIS_clean_linker_0, # of connection points: 4
#     Node 25, Type 1, BuildingBlock: KUFVIS_clean_linker_0, # of connection points: 4
#     Node 26, Type 1, BuildingBlock: KUFVIS_clean_linker_0, # of connection points: 4
#     Node 27, Type 1, BuildingBlock: KUFVIS_clean_linker_0, # of connection points: 4
#     Node 28, Type 1, BuildingBlock: KUFVIS_clean_linker_0, # of connection points: 4
#     Node 29, Type 1, BuildingBlock: KUFVIS_clean_linker_0, # of connection points: 4
#     Node 30, Type 1, BuildingBlock: KUFVIS_clean_linker_0, # of connection points: 4
#     Node 31, Type 1, BuildingBlock: KUFVIS_clean_linker_0, # of connection points: 4
#     Node 32, Type 1, BuildingBlock: KUFVIS_clean_linker_0, # of connection points: 4
#     Node 33, Type 1, BuildingBlock: KUFVIS_clean_linker_0, # of connection points: 4
#     Node 34, Type 1, BuildingBlock: KUFVIS_clean_linker_0, # of connection points: 4
#     Node 35, Type 1, BuildingBlock: KUFVIS_clean_linker_0, # of connection points: 4
#     Edge 36, Type (0, 1), BuildingBlock: EZIPEK_clean_linker_0, # of connection points: 2
#     Edge 37, Type (0, 1), BuildingBlock: EZIPEK_clean_linker_0, # of connection points: 2
#     Edge 38, Type (0, 1), BuildingBlock: EZIPEK_clean_linker_0, # of connection points: 2
#     Edge 39, Type (0, 1), BuildingBlock: EZIPEK_clean_linker_0, # of connection points: 2
#     Edge 40, Type (0, 1), BuildingBlock: EZIPEK_clean_linker_0, # of connection points: 2
#     Edge 41, Type (0, 1), BuildingBlock: EZIPEK_clean_linker_0, # of connection points: 2
#     Edge 42, Type (0, 1), BuildingBlock: EZIPEK_clean_linker_0, # of connection points: 2
#     Edge 43, Type (0, 1), BuildingBlock: EZIPEK_clean_linker_0, # of connection points: 2
#     Edge 44, Type (0, 1), BuildingBlock: EZIPEK_clean_linker_0, # of connection points: 2
#     Edge 45, Type (0, 1), BuildingBlock: EZIPEK_clean_linker_0, # of connection points: 2
#     Edge 46, Type (0, 1), BuildingBlock: EZIPEK_clean_linker_0, # of connection points: 2
#     Edge 47, Type (0, 1), BuildingBlock: EZIPEK_clean_linker_0, # of connection points: 2
#     Edge 48, Type (0, 1), BuildingBlock: EZIPEK_clean_linker_0, # of connection points: 2
#     Edge 49, Type (0, 1), BuildingBlock: EZIPEK_clean_linker_0, # of connection points: 2
#     Edge 50, Type (0, 1), BuildingBlock: EZIPEK_clean_linker_0, # of connection points: 2
#     Edge 51, Type (0, 1), BuildingBlock: EZIPEK_clean_linker_0, # of connection points: 2
#     Edge 52, Type (0, 1), BuildingBlock: EZIPEK_clean_linker_0, # of connection points: 2
#     Edge 53, Type (0, 1), BuildingBlock: EZIPEK_clean_linker_0, # of connection points: 2
#     Edge 54, Type (0, 1), BuildingBlock: EZIPEK_clean_linker_0, # of connection points: 2
#     Edge 55, Type (0, 1), BuildingBlock: EZIPEK_clean_linker_0, # of connection points: 2
#     Edge 56, Type (0, 1), BuildingBlock: EZIPEK_clean_linker_0, # of connection points: 2
#     Edge 57, Type (0, 1), BuildingBlock: EZIPEK_clean_linker_0, # of connection points: 2
#     Edge 58, Type (0, 1), BuildingBlock: EZIPEK_clean_linker_0, # of connection points: 2
#     Edge 59, Type (0, 1), BuildingBlock: EZIPEK_clean_linker_0, # of connection points: 2
#     Edge 60, Type (0, 1), BuildingBlock: EZIPEK_clean_linker_0, # of connection points: 2
#     Edge 61, Type (0, 1), BuildingBlock: EZIPEK_clean_linker_0, # of connection points: 2
#     Edge 62, Type (0, 1), BuildingBlock: EZIPEK_clean_linker_0, # of connection points: 2
#     Edge 63, Type (0, 1), BuildingBlock: EZIPEK_clean_linker_0, # of connection points: 2
#     Edge 64, Type (0, 1), BuildingBlock: EZIPEK_clean_linker_0, # of connection points: 2
#     Edge 65, Type (0, 1), BuildingBlock: EZIPEK_clean_linker_0, # of connection points: 2
#     Edge 66, Type (0, 1), BuildingBlock: EZIPEK_clean_linker_0, # of connection points: 2
#     Edge 67, Type (0, 1), BuildingBlock: EZIPEK_clean_linker_0, # of connection points: 2
#     Edge 68, Type (0, 1), BuildingBlock: EZIPEK_clean_linker_0, # of connection points: 2
#     Edge 69, Type (0, 1), BuildingBlock: EZIPEK_clean_linker_0, # of connection points: 2
#     Edge 70, Type (0, 1), BuildingBlock: EZIPEK_clean_linker_0, # of connection points: 2
#     Edge 71, Type (0, 1), BuildingBlock: EZIPEK_clean_linker_0, # of connection points: 2
#     Edge 72, Type (0, 1), BuildingBlock: EZIPEK_clean_linker_0, # of connection points: 2
#     Edge 73, Type (0, 1), BuildingBlock: EZIPEK_clean_linker_0, # of connection points: 2
#     Edge 74, Type (0, 1), BuildingBlock: EZIPEK_clean_linker_0, # of connection points: 2
#     Edge 75, Type (0, 1), BuildingBlock: EZIPEK_clean_linker_0, # of connection points: 2
#     Edge 76, Type (0, 1), BuildingBlock: EZIPEK_clean_linker_0, # of connection points: 2
#     Edge 77, Type (0, 1), BuildingBlock: EZIPEK_clean_linker_0, # of connection points: 2
#     Edge 78, Type (0, 1), BuildingBlock: EZIPEK_clean_linker_0, # of connection points: 2
#     Edge 79, Type (0, 1), BuildingBlock: EZIPEK_clean_linker_0, # of connection points: 2
#     Edge 80, Type (0, 1), BuildingBlock: EZIPEK_clean_linker_0, # of connection points: 2
#     Edge 81, Type (0, 1), BuildingBlock: EZIPEK_clean_linker_0, # of connection points: 2
#     Edge 82, Type (0, 1), BuildingBlock: EZIPEK_clean_linker_0, # of connection points: 2
#     Edge 83, Type (0, 1), BuildingBlock: EZIPEK_clean_linker_0, # of connection points: 2
#     Edge 84, Type (0, 1), BuildingBlock: EZIPEK_clean_linker_0, # of connection points: 2
#     Edge 85, Type (0, 1), BuildingBlock: EZIPEK_clean_linker_0, # of connection points: 2
#     Edge 86, Type (0, 1), BuildingBlock: EZIPEK_clean_linker_0, # of connection points: 2
#     Edge 87, Type (0, 1), BuildingBlock: EZIPEK_clean_linker_0, # of connection points: 2
#     Edge 88, Type (0, 1), BuildingBlock: EZIPEK_clean_linker_0, # of connection points: 2
#     Edge 89, Type (0, 1), BuildingBlock: EZIPEK_clean_linker_0, # of connection points: 2
#     Edge 90, Type (0, 1), BuildingBlock: EZIPEK_clean_linker_0, # of connection points: 2
#     Edge 91, Type (0, 1), BuildingBlock: EZIPEK_clean_linker_0, # of connection points: 2
#     Edge 92, Type (0, 1), BuildingBlock: EZIPEK_clean_linker_0, # of connection points: 2
#     Edge 93, Type (0, 1), BuildingBlock: EZIPEK_clean_linker_0, # of connection points: 2
#     Edge 94, Type (0, 1), BuildingBlock: EZIPEK_clean_linker_0, # of connection points: 2
#     Edge 95, Type (0, 1), BuildingBlock: EZIPEK_clean_linker_0, # of connection points: 2
#     Edge 96, Type (0, 1), BuildingBlock: EZIPEK_clean_linker_0, # of connection points: 2
#     Edge 97, Type (0, 1), BuildingBlock: EZIPEK_clean_linker_0, # of connection points: 2
#     Edge 98, Type (0, 1), BuildingBlock: EZIPEK_clean_linker_0, # of connection points: 2
#     Edge 99, Type (0, 1), BuildingBlock: EZIPEK_clean_linker_0, # of connection points: 2
#     Edge 100, Type (0, 1), BuildingBlock: EZIPEK_clean_linker_0, # of connection points: 2
#     Edge 101, Type (0, 1), BuildingBlock: EZIPEK_clean_linker_0, # of connection points: 2
#     Edge 102, Type (0, 1), BuildingBlock: EZIPEK_clean_linker_0, # of connection points: 2
#     Edge 103, Type (0, 1), BuildingBlock: EZIPEK_clean_linker_0, # of connection points: 2
#     Edge 104, Type (0, 1), BuildingBlock: EZIPEK_clean_linker_0, # of connection points: 2
#     Edge 105, Type (0, 1), BuildingBlock: EZIPEK_clean_linker_0, # of connection points: 2
#     Edge 106, Type (0, 1), BuildingBlock: EZIPEK_clean_linker_0, # of connection points: 2
#     Edge 107, Type (0, 1), BuildingBlock: EZIPEK_clean_linker_0, # of connection points: 2
# Relax obj value: 0.047
# Max RMSD: 0.107
# Mean RMSD: 0.081
data_MOF--net-ptr--node1-CEKHIL_clean_sbu_0--node2-KUFVIS_clean_linker_0--edge1-EZIPEK_clean_linker_0
_symmetry_space_group_name_H-M    P1
_symmetry_Int_Tables_number       1
_symmetry_cell_setting            triclinic
loop_
_symmetry_equiv_pos_as_xyz
'x, y, z'
_cell_length_a     57.882316
_cell_length_b     57.31744
_cell_length_c     36.704059
_cell_angle_alpha  90.775187
_cell_angle_beta   89.541373
_cell_angle_gamma 120.98548
loop_
_atom_site_label
_atom_site_type_symbol
_atom_site_fract_x
_atom_site_fract_y
_atom_site_fract_z
_atom_type_partial_charge
Co0 Co 0.02416 0.36375 -0.00069 0.0
O1 O 0.03895 0.34722 0.03014 0.0
O2 O 0.06311 0.38243 0.99455 0.0
C3 C 0.98933 0.32328 0.97677 0.0
O4 O 0.01835 0.38717 0.96306 0.0
Co5 Co 0.96673 0.35457 0.00601 0.0
O6 O 0.97719 0.3816 0.96686 0.0
C7 C 1.00926 0.39233 0.05693 0.0
C8 C 0.06259 0.36545 0.01802 0.0
C9 C 1.00065 0.39301 0.95301 0.0
O10 O 0.02721 0.38914 0.04039 0.0
O11 O 0.98428 0.37928 0.0485 0.0
O12 O 1.01341 0.33431 0.96282 0.0
O13 O 0.98716 0.33633 0.0042 0.0
Co14 Co 0.65982 0.66192 0.00173 0.0
O15 O 0.69084 0.67866 0.96919 0.0
O16 O 0.67966 0.64316 0.00371 0.0
C17 C 0.6667 0.70154 0.02676 0.0
O18 O 0.63085 0.63841 0.03884 0.0
Co19 Co 0.61197 0.67215 0.00179 0.0
O20 O 0.59954 0.6499 0.04636 0.0
C21 C 0.61291 0.63256 0.9494 0.0
C22 C 0.6963 0.66054 0.98024 0.0
C23 C 0.60963 0.63552 0.05467 0.0
O24 O 0.63569 0.637 0.96164 0.0
O25 O 0.60118 0.64502 0.96101 0.0
O26 O 0.67999 0.69051 0.03851 0.0
O27 O 0.65078 0.68927 -0.00031 0.0
Co28 Co 0.36274 1.0028 0.0061 0.0
O29 O 0.34852 0.01943 0.97443 0.0
O30 O 0.37909 0.04155 0.01699 0.0
C31 C 0.32196 0.9648 0.02096 0.0
O32 O 0.38229 0.99372 0.04473 0.0
Co33 Co 0.3576 0.94797 0.98676 0.0
O34 O 0.38166 0.95528 0.02917 0.0
C35 C 0.39716 0.99628 0.94768 0.0
C36 C 0.36446 0.0424 0.99095 0.0
C37 C 0.38918 0.97589 0.04995 0.0
O38 O 0.3929 0.01122 0.97002 0.0
O39 O 0.38267 0.97033 0.94706 0.0
O40 O 0.33054 0.98807 0.03738 0.0
O41 O 0.33687 0.96568 0.9939 0.0
Co42 Co 1.00124 0.65244 0.01331 0.0
O43 O 0.98272 0.6645 0.98208 0.0
O44 O 0.96331 0.63532 0.02693 0.0
C45 C 0.03818 0.69527 0.02262 0.0
O46 O 1.01357 0.6354 0.05175 0.0
Co47 Co 0.05699 0.66075 0.99169 0.0
O48 O 0.05488 0.64281 0.03827 0.0
C49 C 1.00738 0.61706 0.95657 0.0
C50 C 0.961 0.6488 0.00039 0.0
C51 C 0.03392 0.6326 0.0583 0.0
O52 O 0.99254 0.62113 0.97893 0.0
O53 O 0.03307 0.63238 0.95515 0.0
O54 O 0.01635 0.6864 0.04197 0.0
O55 O 0.03639 0.67844 -0.0024 0.0
Co56 Co 0.36733 0.35223 0.01718 0.0
O57 O 0.3356 0.3384 0.04814 0.0
O58 O 0.34752 0.37055 0.00739 0.0
C59 C 0.35991 0.31 0.00194 0.0
O60 O 0.3975 0.3717 0.97889 0.0
Co61 Co 0.41434 0.34241 0.02988 0.0
O62 O 0.4297 0.36104 0.98353 0.0
C63 C 0.41057 0.384 0.07417 0.0
C64 C 0.33046 0.35536 0.03228 0.0
C65 C 0.41962 0.37341 0.9679 0.0
O66 O 0.38996 0.38024 0.05588 0.0
O67 O 0.42197 0.37015 0.06876 0.0
O68 O 0.34798 0.32059 0.98469 0.0
O69 O 0.37542 0.32498 0.02807 0.0
Co70 Co 0.66852 0.01635 0.0112 0.0
O71 O 0.68349 0.99989 0.04193 0.0
O72 O 0.6512 0.97744 0.00165 0.0
C73 C 0.7097 0.05302 0.99493 0.0
O74 O 0.64741 0.02418 0.97351 0.0
Co75 Co 0.67581 0.07295 0.02114 0.0
O76 O 0.66112 0.06841 0.97149 0.0
C77 C 0.63627 0.0275 0.06718 0.0
C78 C 0.6668 0.97675 0.02626 0.0
C79 C 0.64696 0.04429 0.95904 0.0
O80 O 0.64097 0.01053 0.05008 0.0
O81 O 0.64881 0.05302 0.06057 0.0
O82 O 0.69952 0.02962 0.97813 0.0
O83 O 0.69499 0.05342 0.02122 0.0
Co84 Co 0.69332 0.69954 0.33495 0.0
O85 O 0.70524 0.68032 0.36575 0.0
O86 O 0.73217 0.71591 0.33227 0.0
C87 C 0.65761 0.66077 0.31029 0.0
O88 O 0.69073 0.72558 0.29939 0.0
Co89 Co 0.63748 0.69431 0.33907 0.0
O90 O 0.65034 0.72198 0.30041 0.0
C91 C 0.67883 0.72692 0.39447 0.0
C92 C 0.72966 0.69773 0.35523 0.0
C93 C 0.67434 0.73296 0.28843 0.0
O94 O 0.69678 0.72416 0.37722 0.0
O95 O 0.65408 0.71506 0.38499 0.0
O96 O 0.68185 0.6708 0.29721 0.0
O97 O 0.65573 0.67388 0.33784 0.0
Co98 Co 0.32943 0.99519 0.33027 0.0
O99 O 0.36119 0.01133 0.2992 0.0
O100 O 0.34985 0.97731 0.33678 0.0
C101 C 0.33453 0.03517 0.35193 0.0
O102 O 0.29947 0.9728 0.36642 0.0
Co103 Co 0.28116 1.00393 0.32058 0.0
O104 O 0.26734 0.98348 0.36677 0.0
C105 C 0.28606 0.96442 0.27307 0.0
C106 C 0.36675 0.99396 0.31286 0.0
C107 C 0.2774 0.96994 0.37908 0.0
O108 O 0.30659 0.96789 0.29121 0.0
O109 O 0.27532 0.97895 0.2782 0.0
O110 O 0.34806 0.02513 0.36595 0.0
O111 O 0.31997 0.02206 0.32402 0.0
Co112 Co 0.02928 0.3389 0.33222 0.0
O113 O 1.01352 0.35514 0.30242 0.0
O114 O 0.04849 0.3782 0.33868 0.0
C115 C 0.98942 0.30389 0.35488 0.0
O116 O 0.05185 0.33169 0.3677 0.0
Co117 Co 0.01865 0.28027 0.32293 0.0
O118 O 0.04055 0.28797 0.36749 0.0
C119 C 0.05863 0.32426 0.27527 0.0
C120 C 0.03187 0.37866 0.31561 0.0
C121 C 0.05443 0.31221 0.37986 0.0
O122 O 0.05445 0.34202 0.29114 0.0
O123 O 0.04569 0.29894 0.28314 0.0
O124 O 1.00056 0.32822 0.36904 0.0
O125 O 1.00152 0.30169 0.32652 0.0
Co126 Co 0.67065 0.98514 0.35158 0.0
O127 O 0.65515 1.00088 0.32075 0.0
O128 O 0.63181 0.96746 0.35919 0.0
C129 C 0.70686 0.02601 0.37013 0.0
O130 O 0.6787 0.96361 0.3891 0.0
Co131 Co 0.72657 0.99252 0.33733 0.0
O132 O 0.71861 0.96709 0.3778 0.0
C133 C 0.68122 0.95544 0.29055 0.0
C134 C 0.63183 0.98348 0.33443 0.0
C135 C 0.69694 0.95766 0.39607 0.0
O136 O 0.66463 0.95799 0.31139 0.0
O137 O 0.70673 0.96904 0.295 0.0
O138 O 0.68351 0.01593 0.38605 0.0
O139 O 0.70735 0.01196 0.34264 0.0
Co140 Co 0.03086 0.68814 0.34375 0.0
O141 O 1.00114 0.67555 0.37803 0.0
O142 O 1.0123 0.7081 0.33804 0.0
C143 C 0.0202 0.64485 0.32773 0.0
O144 O 0.05908 0.70713 0.30343 0.0
Co145 Co 0.07639 0.67489 0.34604 0.0
O146 O 0.08597 0.69001 0.29639 0.0
C147 C 0.07817 0.7179 0.39484 0.0
C148 C 0.99627 0.69329 0.36401 0.0
C149 C 0.07805 0.70592 0.28647 0.0
O150 O 0.05668 0.71536 0.38057 0.0
O151 O 0.08809 0.70317 0.38572 0.0
O152 O 1.00849 0.65638 0.31223 0.0
O153 O 0.03805 0.66004 0.35149 0.0
Co154 Co 0.33263 0.34809 0.34183 0.0
O155 O 0.34821 0.33266 0.3729 0.0
O156 O 0.31968 0.31039 0.32812 0.0
C157 C 0.37201 0.38823 0.33008 0.0
O158 O 0.31277 0.35663 0.30321 0.0
Co159 Co 0.33253 0.39969 0.36471 0.0
O160 O 0.31156 0.39397 0.31952 0.0
C161 C 0.29356 0.34827 0.39862 0.0
C162 C 0.3345 0.31017 0.3544 0.0
C163 C 0.30549 0.37411 0.29789 0.0
O164 O 0.30069 0.3356 0.37623 0.0
O165 O 0.30603 0.37422 0.40109 0.0
O166 O 0.3655 0.36595 0.31229 0.0
O167 O 0.35606 0.3852 0.35694 0.0
Co168 Co 0.35935 0.03211 0.6627 0.0
O169 O 0.37124 0.01325 0.69428 0.0
O170 O 0.39819 0.04849 0.66025 0.0
C171 C 0.32368 0.99311 0.6383 0.0
O172 O 0.35678 0.05765 0.62626 0.0
Co173 Co 0.30361 0.02701 0.66634 0.0
O174 O 0.31647 0.05424 0.62711 0.0
C175 C 0.34493 0.06035 0.72126 0.0
C176 C 0.39567 0.03059 0.68372 0.0
C177 C 0.34038 0.06489 0.61492 0.0
O178 O 0.3628 0.05722 0.70439 0.0
O179 O 0.3202 0.04849 0.71173 0.0
O180 O 0.34798 1.00304 0.6255 0.0
O181 O 0.32172 1.00641 0.66558 0.0
Co182 Co 0.99538 0.33022 0.66511 0.0
O183 O 0.0255 0.343 0.6311 0.0
O184 O 1.01413 0.31056 0.6713 0.0
C185 C 1.00481 0.37321 0.68121 0.0
O186 O 0.96738 0.3106 0.70508 0.0
Co187 Co 0.9488 0.34187 0.665 0.0
O188 O 0.93977 0.32648 0.71453 0.0
C189 C 0.94746 0.2993 0.61557 0.0
C190 C 0.03028 0.32524 0.64544 0.0
C191 C 0.94831 0.31082 0.72302 0.0
O192 O 0.96976 0.30279 0.62834 0.0
O193 O 0.9369 0.31318 0.62598 0.0
O194 O 0.01717 0.36228 0.6966 0.0
O195 O 0.98716 0.35771 0.65751 0.0
Co196 Co 0.69476 0.66882 0.67681 0.0
O197 O 0.68056 0.68668 0.64757 0.0
O198 O 0.71318 0.70778 0.68783 0.0
C199 C 0.65428 0.63211 0.69426 0.0
O200 O 0.71463 0.65785 0.7123 0.0
Co201 Co 0.68472 0.61175 0.65459 0.0
O202 O 0.70976 0.61769 0.6951 0.0
C203 C 0.72622 0.66005 0.61606 0.0
C204 C 0.69793 0.70942 0.66341 0.0
C205 C 0.71972 0.63854 0.71601 0.0
O206 O 0.72298 0.67569 0.6384 0.0
O207 O 0.71086 0.63414 0.61557 0.0
O208 O 0.66414 0.65547 0.71091 0.0
O209 O 0.66752 0.63238 0.66564 0.0
Co210 Co 0.33757 0.31933 0.67924 0.0
O211 O 0.32545 0.33736 0.64756 0.0
O212 O 0.29813 0.30067 0.67773 0.0
C213 C 0.37021 0.35924 0.7055 0.0
O214 O 0.34318 0.2958 0.71609 0.0
Co215 Co 0.39682 0.33191 0.67488 0.0
O216 O 0.38771 0.31279 0.72226 0.0
C217 C 0.35639 0.29499 0.62039 0.0
C218 C 0.30077 0.3194 0.65545 0.0
C219 C 0.36339 0.29613 0.73153 0.0
O220 O 0.33731 0.29517 0.63846 0.0
O221 O 0.3814 0.31031 0.62849 0.0
O222 O 0.34527 0.34758 0.71614 0.0
O223 O 0.3739 0.34697 0.6785 0.0
Co224 Co 0.69808 0.02191 0.67332 0.0
O225 O 0.66759 0.00915 0.70631 0.0
O226 O 0.67833 0.04025 0.66418 0.0
C227 C 0.68987 0.97897 0.66022 0.0
O228 O 0.7267 0.04065 0.63322 0.0
Co229 Co 0.74562 0.01236 0.68159 0.0
O230 O 0.75954 0.0308 0.63469 0.0
C231 C 0.74351 0.05489 0.72651 0.0
C232 C 0.6623 0.02603 0.69048 0.0
C233 C 0.74858 0.04283 0.6205 0.0
O234 O 0.72207 0.05074 0.71014 0.0
O235 O 0.75484 0.04112 0.71967 0.0
O236 O 0.67749 0.98908 0.64289 0.0
O237 O 0.70671 0.99513 0.68437 0.0
Co238 Co 1.00454 0.68821 0.68748 0.0
O239 O 0.02419 0.67675 0.71765 0.0
O240 O 0.98947 0.64891 0.68421 0.0
C241 C 0.04305 0.72503 0.66496 0.0
O242 O 0.97956 0.69118 0.65063 0.0
Co243 Co 1.00765 0.74284 0.69325 0.0
O244 O 0.99169 0.73477 0.64409 0.0
C245 C 0.9719 0.69916 0.74353 0.0
C246 C 1.00809 0.65191 0.70669 0.0
C247 C 0.97784 0.70997 0.63417 0.0
O248 O 0.97852 0.68293 0.72847 0.0
O249 O 0.98211 0.72401 0.73437 0.0
O250 O 0.03325 0.70075 0.65095 0.0
O251 O 0.02966 0.72631 0.69242 0.0
H252 H 0.2743 0.36118 0.14169 0.0
H253 H 0.21116 0.35474 0.07375 0.0
H254 H 0.21079 0.36746 0.1908 0.0
H255 H 0.16722 0.3442 0.18591 0.0
H256 H 0.11142 0.35819 0.12973 0.0
H257 H 0.18116 0.36901 0.07252 0.0
C258 C 0.25546 0.36084 0.13883 0.0
C259 C 0.24307 0.36365 0.16975 0.0
C260 C 0.24462 0.35842 0.10425 0.0
C261 C 0.21972 0.35745 0.10064 0.0
C262 C 0.2062 0.35979 0.13198 0.0
C263 C 0.21903 0.36382 0.16632 0.0
C264 C 0.17914 0.35825 0.12993 0.0
C265 C 0.16227 0.35088 0.16134 0.0
C266 C 0.13832 0.35153 0.16143 0.0
C267 C 0.13022 0.35824 0.12972 0.0
C268 C 0.1448 0.36338 0.09747 0.0
C269 C 0.16961 0.36399 0.09749 0.0
H270 H 0.65549 0.91434 0.13129 0.0
H271 H 0.67412 0.86101 0.07189 0.0
H272 H 0.66828 0.85871 0.19019 0.0
H273 H 0.69235 0.84057 0.1882 0.0
H274 H 0.67992 0.7663 0.1427 0.0
H275 H 0.66272 0.81675 0.07726 0.0
C276 C 0.65918 0.89757 0.13094 0.0
C277 C 0.66245 0.88792 0.16383 0.0
C278 C 0.66408 0.88868 0.09789 0.0
C279 C 0.6699 0.86744 0.09766 0.0
C280 C 0.67108 0.8555 0.13102 0.0
C281 C 0.66726 0.86638 0.16393 0.0
C282 C 0.67637 0.83214 0.1325 0.0
C283 C 0.68579 0.82665 0.16525 0.0
C284 C 0.68539 0.8021 0.16979 0.0
C285 C 0.67968 0.785 0.13969 0.0
C286 C 0.67278 0.79072 0.10605 0.0
C287 C 0.67017 0.81378 0.10265 0.0
H288 H 0.25815 0.91711 0.12599 0.0
H289 H 0.19906 0.8463 0.06782 0.0
H290 H 0.19699 0.85108 0.18623 0.0
H291 H 0.16809 0.80975 0.18708 0.0
H292 H 0.10222 0.74358 0.1316 0.0
H293 H 0.15647 0.8143 0.07089 0.0
C294 C 0.2402 0.89692 0.12622 0.0
C295 C 0.22873 0.88508 0.15938 0.0
C296 C 0.22994 0.88304 0.09342 0.0
C297 C 0.20637 0.85679 0.09362 0.0
C298 C 0.19322 0.84427 0.12708 0.0
C299 C 0.20542 0.859 0.15983 0.0
C300 C 0.16744 0.81617 0.12827 0.0
C301 C 0.15773 0.80161 0.16162 0.0
C302 C 0.13402 0.77574 0.16295 0.0
C303 C 0.12034 0.76361 0.13074 0.0
C304 C 0.12804 0.77757 0.098 0.0
C305 C 0.15147 0.80375 0.09655 0.0
H306 H 0.36847 0.09981 0.8794 0.0
H307 H 0.36422 0.16079 0.94243 0.0
H308 H 0.35343 0.15532 0.82458 0.0
H309 H 0.35762 0.19334 0.82371 0.0
H310 H 0.35841 0.25804 0.88269 0.0
H311 H 0.35676 0.1938 0.9425 0.0
C312 C 0.36638 0.11759 0.88068 0.0
C313 C 0.36165 0.1272 0.84879 0.0
C314 C 0.36611 0.12879 0.91439 0.0
C315 C 0.36358 0.15216 0.9159 0.0
C316 C 0.36004 0.16357 0.88331 0.0
C317 C 0.35814 0.14965 0.85006 0.0
C318 C 0.35824 0.1894 0.88329 0.0
C319 C 0.35754 0.20183 0.85001 0.0
C320 C 0.35738 0.22638 0.84972 0.0
C321 C 0.35816 0.23896 0.88269 0.0
C322 C 0.35749 0.22702 0.91572 0.0
C323 C 0.3575 0.2024 0.91625 0.0
H324 H 0.76384 0.10278 0.87745 0.0
H325 H 0.82867 0.1681 0.9371 0.0
H326 H 0.83497 0.15906 0.82026 0.0
H327 H 0.86033 0.20249 0.81883 0.0
H328 H 0.92962 0.26586 0.87272 0.0
H329 H 0.87276 0.19692 0.93448 0.0
C330 C 0.78357 0.12125 0.87772 0.0
C331 C 0.79797 0.13037 0.84536 0.0
C332 C 0.79503 0.13386 0.91079 0.0
C333 C 0.82063 0.15809 0.91119 0.0
C334 C 0.83538 0.16881 0.87817 0.0
C335 C 0.82388 0.1536 0.84561 0.0
C336 C 0.86237 0.19539 0.87693 0.0
C337 C 0.87191 0.20992 0.84364 0.0
C338 C 0.8963 0.23507 0.842 0.0
C339 C 0.91119 0.24607 0.87368 0.0
C340 C 0.90301 0.23242 0.90666 0.0
C341 C 0.87869 0.20705 0.90852 0.0
H342 H 0.75372 0.65477 0.86643 0.0
H343 H 0.81549 0.66266 0.93861 0.0
H344 H 0.81905 0.64916 0.8224 0.0
H345 H 0.8628 0.67432 0.83035 0.0
H346 H 0.91668 0.65949 0.89026 0.0
H347 H 0.84406 0.64608 0.94197 0.0
C348 C 0.77266 0.65555 0.87063 0.0
C349 C 0.78589 0.65256 0.84083 0.0
C350 C 0.78277 0.65857 0.90584 0.0
C351 C 0.80758 0.65972 0.91125 0.0
C352 C 0.82187 0.65718 0.8811 0.0
C353 C 0.81003 0.65286 0.846 0.0
C354 C 0.84878 0.6588 0.88517 0.0
C355 C 0.86692 0.66715 0.85517 0.0
C356 C 0.89096 0.66678 0.85681 0.0
C357 C 0.89781 0.65923 0.88893 0.0
C358 C 0.88163 0.65272 0.91991 0.0
C359 C 0.85681 0.65201 0.91807 0.0
H360 H 0.94505 0.70187 0.4794 0.0
H361 H 0.88134 0.69632 0.41456 0.0
H362 H 0.87441 0.68957 0.53276 0.0
H363 H 0.84084 0.69302 0.53149 0.0
H364 H 0.77502 0.68524 0.47113 0.0
H365 H 0.84416 0.69626 0.41287 0.0
C366 C 0.92525 0.69957 0.47777 0.0
C367 C 0.91082 0.69639 0.50964 0.0
C368 C 0.91429 0.69849 0.44372 0.0
C369 C 0.88892 0.69655 0.44139 0.0
C370 C 0.87381 0.69446 0.47347 0.0
C371 C 0.88501 0.69305 0.50735 0.0
C372 C 0.84662 0.69319 0.47216 0.0
C373 C 0.83254 0.69178 0.50494 0.0
C374 C 0.80661 0.6882 0.50454 0.0
C375 C 0.79494 0.68773 0.47142 0.0
C376 C 0.80874 0.69158 0.43874 0.0
C377 C 0.83429 0.69377 0.43879 0.0
H378 H 0.34353 0.25969 0.46256 0.0
H379 H 0.34463 0.19667 0.39957 0.0
H380 H 0.33688 0.19148 0.51744 0.0
H381 H 0.36052 0.17235 0.51493 0.0
H382 H 0.34501 0.09778 0.46652 0.0
H383 H 0.33236 0.15237 0.40293 0.0
C384 C 0.34275 0.24035 0.46139 0.0
C385 C 0.34123 0.22717 0.49365 0.0
C386 C 0.34245 0.2288 0.42759 0.0
C387 C 0.34333 0.20453 0.42596 0.0
C388 C 0.34272 0.19098 0.4586 0.0
C389 C 0.33969 0.20192 0.49201 0.0
C390 C 0.34529 0.16587 0.45901 0.0
C391 C 0.35364 0.15889 0.49145 0.0
C392 C 0.35194 0.13366 0.49494 0.0
C393 C 0.34577 0.11703 0.46421 0.0
C394 C 0.33998 0.12414 0.4307 0.0
C395 C 0.33877 0.14812 0.42829 0.0
H396 H 0.92638 0.25396 0.46774 0.0
H397 H 0.87078 0.18245 0.40649 0.0
H398 H 0.85561 0.19227 0.52018 0.0
H399 H 0.83917 0.1472 0.52054 0.0
H400 H 0.76562 0.08665 0.47102 0.0
H401 H 0.82292 0.15467 0.40736 0.0
C402 C 0.90778 0.23433 0.4662 0.0
C403 C 0.89223 0.22403 0.49742 0.0
C404 C 0.90021 0.22001 0.43319 0.0
C405 C 0.87617 0.19406 0.43171 0.0
C406 C 0.8597 0.18318 0.46342 0.0
C407 C 0.86793 0.19908 0.49583 0.0
C408 C 0.83419 0.1555 0.46411 0.0
C409 C 0.82617 0.14025 0.49687 0.0
C410 C 0.80123 0.11578 0.49951 0.0
C411 C 0.78462 0.10586 0.46913 0.0
C412 C 0.79262 0.11912 0.43577 0.0
C413 C 0.81722 0.14422 0.43317 0.0
H414 H 0.0356 0.43739 0.20853 0.0
H415 H 0.0355 0.50082 0.27172 0.0
H416 H 0.02038 0.49354 0.15504 0.0
H417 H 0.03881 0.53719 0.1549 0.0
H418 H 0.02393 0.59424 0.20943 0.0
H419 H 0.01879 0.52842 0.27037 0.0
C420 C 0.03415 0.45555 0.20996 0.0
C421 C 0.02883 0.46497 0.17835 0.0
C422 C 0.03513 0.46731 0.24371 0.0
C423 C 0.03363 0.49129 0.24543 0.0
C424 C 0.02968 0.50243 0.21299 0.0
C425 C 0.02605 0.48785 0.17988 0.0
C426 C 0.02862 0.52846 0.21277 0.0
C427 C 0.03321 0.54324 0.17985 0.0
C428 C 0.03069 0.56637 0.17857 0.0
C429 C 0.02534 0.57608 0.21041 0.0
C430 C 0.02171 0.56295 0.24345 0.0
C431 C 0.02274 0.53883 0.24468 0.0
H432 H 0.43056 0.43523 0.22601 0.0
H433 H 0.49561 0.50437 0.2802 0.0
H434 H 0.50135 0.48766 0.16561 0.0
H435 H 0.52513 0.53056 0.15902 0.0
H436 H 0.59399 0.59914 0.20582 0.0
H437 H 0.53994 0.53418 0.27566 0.0
C438 C 0.45044 0.45348 0.22502 0.0
C439 C 0.46454 0.46065 0.19232 0.0
C440 C 0.46202 0.46824 0.25692 0.0
C441 C 0.48757 0.49249 0.25547 0.0
C442 C 0.50206 0.50109 0.22193 0.0
C443 C 0.49049 0.48374 0.19102 0.0
C444 C 0.52846 0.52803 0.2181 0.0
C445 C 0.53698 0.5401 0.18316 0.0
C446 C 0.56066 0.56546 0.17869 0.0
C447 C 0.57596 0.57924 0.20915 0.0
C448 C 0.56886 0.56808 0.24377 0.0
C449 C 0.54512 0.54246 0.24853 0.0
H450 H 0.42419 0.99096 0.20287 0.0
H451 H 0.48609 0.99525 0.27121 0.0
H452 H 0.48645 0.98227 0.15421 0.0
H453 H 0.53007 1.0049 0.15969 0.0
H454 H 0.58527 0.99053 0.21693 0.0
H455 H 0.51539 0.98036 0.27309 0.0
C456 C 0.44278 0.99082 0.20575 0.0
C457 C 0.45479 0.98734 0.17492 0.0
C458 C 0.45335 0.99276 0.24037 0.0
C459 C 0.47779 0.99293 0.24421 0.0
C460 C 0.49112 0.99016 0.21304 0.0
C461 C 0.47845 0.98639 0.17854 0.0
C462 C 0.51782 0.99102 0.21555 0.0
C463 C 0.5348 0.99815 0.18439 0.0
C464 C 0.55862 0.99731 0.18469 0.0
C465 C 0.56651 0.99055 0.21663 0.0
C466 C 0.55176 0.98555 0.24876 0.0
C467 C 0.52706 0.98519 0.24824 0.0
H468 H 0.61332 0.03777 0.80342 0.0
H469 H 0.54792 0.03069 0.74102 0.0
H470 H 0.54414 0.02678 0.85957 0.0
H471 H 0.51061 0.03034 0.85938 0.0
H472 H 0.44295 0.02051 0.80156 0.0
H473 H 0.51081 0.03079 0.74067 0.0
C474 C 0.59352 0.03552 0.80255 0.0
C475 C 0.5799 0.03299 0.83499 0.0
C476 C 0.58163 0.03358 0.76896 0.0
C477 C 0.55623 0.03163 0.76757 0.0
C478 C 0.54203 0.03039 0.80023 0.0
C479 C 0.5541 0.02974 0.83372 0.0
C480 C 0.5148 0.02906 0.7999 0.0
C481 C 0.50156 0.02837 0.83318 0.0
C482 C 0.47551 0.02449 0.83381 0.0
C483 C 0.46295 0.0232 0.8011 0.0
C484 C 0.47596 0.02646 0.76787 0.0
C485 C 0.50158 0.02881 0.76698 0.0
H486 H 0.99389 0.58243 0.81358 0.0
H487 H 0.01599 0.53538 0.74527 0.0
H488 H 0.9833 0.50842 0.85385 0.0
H489 H 1.01436 0.49714 0.85568 0.0
H490 H 1.00582 0.42713 0.80047 0.0
H491 H 1.00264 0.48854 0.73873 0.0
C492 C 0.99494 0.56425 0.8089 0.0
C493 C 0.98942 0.54666 0.83774 0.0
C494 C 1.00382 0.56024 0.77512 0.0
C495 C 1.00731 0.53755 0.77038 0.0
C496 C 1.00044 0.51847 0.79908 0.0
C497 C 0.9896 0.52264 0.83161 0.0
C498 C 1.00561 0.49509 0.79758 0.0
C499 C 1.01061 0.48567 0.83054 0.0
C500 C 1.00956 0.46068 0.83205 0.0
C501 C 1.00649 0.4464 0.79969 0.0
C502 C 1.006 0.45716 0.76606 0.0
C503 C 1.0047 0.48118 0.76479 0.0
H504 H 0.58989 0.58396 0.8039 0.0
H505 H 0.53915 0.50772 0.74821 0.0
H506 H 0.52249 0.52035 0.85993 0.0
H507 H 0.51244 0.47573 0.86226 0.0
H508 H 0.43999 0.40931 0.81816 0.0
H509 H 0.48701 0.48075 0.75331 0.0
C510 C 0.57231 0.56352 0.80351 0.0
C511 C 0.55732 0.55349 0.83521 0.0
C512 C 0.56623 0.54754 0.77198 0.0
C513 C 0.54356 0.52061 0.77212 0.0
C514 C 0.52731 0.51025 0.80407 0.0
C515 C 0.53441 0.52736 0.83523 0.0
C516 C 0.50364 0.48157 0.80655 0.0
C517 C 0.49865 0.46695 0.83952 0.0
C518 C 0.4752 0.44133 0.84396 0.0
C519 C 0.45783 0.42931 0.81465 0.0
C520 C 0.46155 0.44318 0.78207 0.0
C521 C 0.48455 0.46948 0.77794 0.0
H522 H 0.70251 0.76667 0.5537 0.0
H523 H 0.69927 0.82932 0.61463 0.0
H524 H 0.68526 0.82027 0.49765 0.0
H525 H 0.69942 0.86237 0.49533 0.0
H526 H 0.68493 0.92019 0.54777 0.0
H527 H 0.68558 0.85886 0.61247 0.0
C528 C 0.70026 0.78435 0.55448 0.0
C529 C 0.69496 0.7932 0.52232 0.0
C530 C 0.70047 0.79626 0.58787 0.0
C531 C 0.69803 0.81974 0.58859 0.0
C532 C 0.69383 0.83018 0.5556 0.0
C533 C 0.69105 0.81537 0.52298 0.0
C534 C 0.69172 0.85569 0.55414 0.0
C535 C 0.69428 0.86886 0.52026 0.0
C536 C 0.69094 0.89144 0.51796 0.0
C537 C 0.68664 0.90224 0.54953 0.0
C538 C 0.68559 0.89118 0.58345 0.0
C539 C 0.6874 0.86752 0.5859 0.0
H540 H 0.09975 0.76709 0.54504 0.0
H541 H 0.16209 0.83662 0.60208 0.0
H542 H 0.17122 0.82253 0.48767 0.0
H543 H 0.19293 0.86607 0.48318 0.0
H544 H 0.26078 0.93389 0.5332 0.0
H545 H 0.20702 0.86612 0.59947 0.0
C546 C 0.11929 0.78578 0.54487 0.0
C547 C 0.1341 0.79401 0.51272 0.0
C548 C 0.1298 0.80027 0.57723 0.0
C549 C 0.15488 0.82503 0.57697 0.0
C550 C 0.17008 0.83449 0.54418 0.0
C551 C 0.15969 0.81766 0.51263 0.0
C552 C 0.19604 0.86184 0.54183 0.0
C553 C 0.20458 0.87506 0.50766 0.0
C554 C 0.22801 0.90073 0.5045 0.0
C555 C 0.24293 0.91375 0.53556 0.0
C556 C 0.23576 0.9014 0.56948 0.0
C557 C 0.2123 0.87541 0.5729 0.0
H558 H 0.08329 0.31569 0.53451 0.0
H559 H 0.14251 0.31303 0.60097 0.0
H560 H 0.15476 0.32695 0.48445 0.0
H561 H 0.17531 0.30539 0.48494 0.0
H562 H 0.24489 0.31643 0.53852 0.0
H563 H 0.18576 0.32324 0.60138 0.0
C564 C 0.10245 0.31664 0.53685 0.0
C565 C 0.11761 0.32011 0.50561 0.0
C566 C 0.11202 0.31586 0.57125 0.0
C567 C 0.13615 0.31524 0.57427 0.0
C568 C 0.15158 0.31743 0.54255 0.0
C569 C 0.1427 0.32212 0.50888 0.0
C570 C 0.17665 0.31503 0.54323 0.0
C571 C 0.18639 0.30989 0.51013 0.0
C572 C 0.2119 0.31266 0.50802 0.0
C573 C 0.22557 0.31523 0.54013 0.0
C574 C 0.21601 0.31811 0.574 0.0
C575 C 0.19191 0.31894 0.57551 0.0
C576 C 1.00088 0.40184 0.12021 0.0
C577 C 0.0168 0.41142 0.08822 0.0
C578 C 0.04144 0.45738 0.11498 0.0
C579 C 0.0232 0.44812 0.14481 0.0
N580 N 0.98133 0.41303 0.17081 0.0
N581 N 0.04903 0.44956 0.05214 0.0
C582 C 1.00153 0.42079 0.14574 0.0
C583 C 0.03632 0.43957 0.08468 0.0
N584 N 0.98578 0.37454 0.12681 0.0
N585 N 0.064 0.48275 0.11599 0.0
H586 H 0.04559 0.43736 0.02911 0.0
H587 H 0.06126 0.4703 0.04712 0.0
H588 H 0.06825 0.49644 0.1375 0.0
H589 H 0.07942 0.48939 0.09679 0.0
H590 H 0.97572 0.36666 0.15135 0.0
H591 H 0.98584 0.35998 0.1095 0.0
H592 H 0.96387 0.39385 0.17053 0.0
H593 H 0.98073 0.42667 0.18937 0.0
C594 C 0.61166 0.60901 0.10825 0.0
C595 C 0.59629 0.61464 0.0837 0.0
C596 C 0.55578 0.58569 0.11996 0.0
C597 C 0.57085 0.57837 0.14241 0.0
N598 N 0.61086 0.57562 0.14857 0.0
N599 N 0.55177 0.5991 0.05941 0.0
C600 C 0.59799 0.58737 0.1331 0.0
C601 C 0.5677 0.60011 0.08735 0.0
N602 N 0.63906 0.62531 0.11023 0.0
N603 N 0.53083 0.58037 0.13028 0.0
H604 H 0.55944 0.60725 0.03384 0.0
H605 H 0.5308 0.58707 0.06021 0.0
H606 H 0.52169 0.57099 0.1547 0.0
H607 H 0.52043 0.58776 0.11608 0.0
H608 H 0.65045 0.62285 0.12999 0.0
H609 H 0.65007 0.64328 0.09574 0.0
H610 H 0.63008 0.58025 0.14059 0.0
H611 H 0.60108 0.55919 0.16626 0.0
C612 C 0.43361 1.00157 0.08332 0.0
C613 C 0.40671 0.9791 0.08141 0.0
C614 C 0.4152 0.95905 0.13453 0.0
C615 C 0.44067 0.98309 0.13942 0.0
N616 N 0.47328 0.02869 0.12076 0.0
N617 N 0.37041 0.93878 0.10907 0.0
C618 C 0.44976 1.00473 0.1143 0.0
C619 C 0.39714 0.95836 0.10796 0.0
N620 N 0.44404 0.01939 0.05504 0.0
N621 N 0.40835 0.93681 0.15535 0.0
H622 H 0.35634 0.93836 0.09112 0.0
H623 H 0.36171 0.92476 0.13002 0.0
H624 H 0.42129 0.93665 0.17487 0.0
H625 H 0.39114 0.91784 0.15082 0.0
H626 H 0.46432 0.03443 0.05311 0.0
H627 H 0.43293 0.01776 0.03191 0.0
H628 H 0.47936 0.04629 0.10593 0.0
H629 H 0.48596 0.03148 0.14253 0.0
C630 C 0.43741 0.99613 0.92322 0.0
C631 C 0.42164 0.00861 0.9241 0.0
C632 C 0.44983 0.0387 0.87519 0.0
C633 C 0.46049 0.02152 0.8685 0.0
N634 N 0.46105 0.98094 0.8846 0.0
N635 N 0.41225 0.04165 0.89901 0.0
C636 C 0.45373 0.99963 0.89238 0.0
C637 C 0.42793 0.03025 0.89998 0.0
N638 N 0.43696 0.98108 0.95206 0.0
N639 N 0.46068 0.06306 0.85782 0.0
H640 H 0.39575 0.03578 0.91611 0.0
H641 H 0.41435 0.05547 0.87921 0.0
H642 H 0.47715 0.07003 0.84024 0.0
H643 H 0.45523 0.07741 0.86383 0.0
H644 H 0.44978 0.9734 0.95395 0.0
H645 H 0.42615 0.97915 0.97587 0.0
H646 H 0.45406 0.96318 0.89951 0.0
H647 H 0.47179 0.98158 0.86136 0.0
C648 C 0.02388 0.41762 0.89414 0.0
C649 C 1.0075 0.41439 0.92502 0.0
C650 C 0.9939 0.44394 0.89667 0.0
C651 C 1.01161 0.44861 0.86698 0.0
N652 N 0.05097 0.44806 0.84595 0.0
N653 N 0.98708 0.43479 0.96103 0.0
C654 C 0.02926 0.43831 0.86874 0.0
C655 C 0.99583 0.43094 0.9281 0.0
N656 N 0.03271 0.40004 0.88711 0.0
N657 N 0.97404 0.45001 0.89446 0.0
H658 H 0.99018 0.42749 0.98527 0.0
H659 H 0.98011 0.44821 0.96465 0.0
H660 H 0.9702 0.45755 0.8711 0.0
H661 H 0.95944 0.44461 0.91469 0.0
H662 H 0.04272 0.40065 0.86306 0.0
H663 H 0.02743 0.38297 0.90268 0.0
H664 H 0.06545 0.44248 0.84802 0.0
H665 H 0.05597 0.46395 0.82799 0.0
C666 C 0.59277 0.5845 0.92541 0.0
C667 C 0.59857 0.61157 0.92073 0.0
C668 C 0.56937 0.5968 0.86712 0.0
C669 C 0.56727 0.57111 0.86826 0.0
N670 N 0.58072 0.54179 0.89571 0.0
N671 N 0.59674 0.64455 0.88238 0.0
C672 C 0.57989 0.56518 0.89674 0.0
C673 C 0.58797 0.61802 0.89031 0.0
N674 N 0.59845 0.57681 0.9576 0.0
N675 N 0.55366 0.60089 0.84358 0.0
H676 H 0.61166 0.66089 0.8974 0.0
H677 H 0.59145 0.65039 0.85859 0.0
H678 H 0.53955 0.58547 0.82652 0.0
H679 H 0.55268 0.61855 0.84377 0.0
H680 H 0.59213 0.55664 0.96346 0.0
H681 H 0.60698 0.58995 0.97987 0.0
H682 H 0.59237 0.53812 0.91358 0.0
H683 H 0.57154 0.52699 0.87535 0.0
C684 C 1.00832 0.57678 0.93349 0.0
C685 C 0.99539 0.59206 0.9335 0.0
C686 C 0.96886 0.56524 0.8809 0.0
C687 C 0.98735 0.55624 0.875 0.0
N688 N 0.02744 0.55659 0.89548 0.0
N689 N 0.96235 0.60053 0.90698 0.0
C690 C 1.00744 0.56218 0.90166 0.0
C691 C 0.97481 0.58579 0.90771 0.0
N692 N 0.02212 0.57693 0.9636 0.0
N693 N 0.94615 0.55466 0.86009 0.0
H694 H 0.96629 0.61587 0.92584 0.0
H695 H 0.94935 0.59871 0.88619 0.0
H696 H 0.94153 0.53951 0.84047 0.0
H697 H 0.93089 0.55889 0.86479 0.0
H698 H 0.03005 0.56431 0.96605 0.0
H699 H 0.02291 0.58742 0.98748 0.0
H700 H 0.04397 0.56346 0.91272 0.0
H701 H 0.02932 0.54762 0.87176 0.0
C702 C 0.44298 0.41967 0.93821 0.0
C703 C 0.43524 0.39176 0.93714 0.0
C704 C 0.46256 0.40044 0.88181 0.0
C705 C 0.46635 0.42688 0.87956 0.0
N706 N 0.45652 0.46035 0.90353 0.0
N707 N 0.43445 0.3546 0.90416 0.0
C708 C 0.45573 0.43626 0.90731 0.0
C709 C 0.44434 0.38189 0.90803 0.0
N710 N 0.43923 0.43075 0.96923 0.0
N711 N 0.4763 0.39307 0.85856 0.0
H712 H 0.42007 0.34016 0.92169 0.0
H713 H 0.43834 0.34604 0.88147 0.0
H714 H 0.48993 0.40643 0.83933 0.0
H715 H 0.47625 0.37495 0.86084 0.0
H716 H 0.44687 0.45154 0.97267 0.0
H717 H 0.43111 0.41962 0.99291 0.0
H718 H 0.44618 0.46644 0.92083 0.0
H719 H 0.46574 0.47333 0.88163 0.0
C720 C 0.62323 0.02076 0.89992 0.0
C721 C 0.62736 0.03904 0.92912 0.0
C722 C 0.59901 0.05281 0.89765 0.0
C723 C 0.5932 0.03304 0.86994 0.0
N724 N 0.59294 0.99221 0.85203 0.0
N725 N 0.61024 0.06429 0.96113 0.0
C726 C 0.60303 0.01499 0.87357 0.0
C727 C 0.61251 0.05259 0.92969 0.0
N728 N 0.63946 0.01009 0.89579 0.0
N729 N 0.59299 0.0727 0.893 0.0
H730 H 0.61785 0.06268 0.98601 0.0
H731 H 0.5978 0.07243 0.96336 0.0
H732 H 0.58417 0.07453 0.86943 0.0
H733 H 0.5993 0.08899 0.91121 0.0
H734 H 0.63862 0.99866 0.87296 0.0
H735 H 0.65571 0.0151 0.91283 0.0
H736 H 0.59786 0.97727 0.85565 0.0
H737 H 0.57741 0.98685 0.8334 0.0
C738 C 0.62369 0.0323 0.13095 0.0
C739 C 0.61605 0.01796 0.09717 0.0
C740 C 0.57002 0.98903 0.12071 0.0
C741 C 0.57716 1.00557 0.15266 0.0
N742 N 0.60924 0.047 0.18387 0.0
N743 N 0.58045 0.98577 0.0574 0.0
C744 C 0.60354 0.0285 0.15638 0.0
C745 C 0.58878 0.99708 0.09129 0.0
N746 N 0.65035 0.04877 0.13947 0.0
N747 N 0.54575 0.9652 0.11884 0.0
H748 H 0.59334 0.99138 0.035 0.0
H749 H 0.56027 0.97258 0.05076 0.0
H750 H 0.53146 0.95868 0.13967 0.0
H751 H 0.54072 0.95092 0.09793 0.0
H752 H 0.65699 0.05765 0.16514 0.0
H753 H 0.66584 0.05104 0.12236 0.0
H754 H 0.6275 0.06541 0.18578 0.0
H755 H 0.59475 0.04533 0.20249 0.0
C756 C 1.01219 0.58719 0.08997 0.0
C757 C 0.03267 0.61522 0.08903 0.0
C758 C 0.05532 0.60817 0.1404 0.0
C759 C 0.03316 0.58124 0.14427 0.0
N760 N 0.98862 0.54605 0.12567 0.0
N761 N 0.07151 0.65341 0.11711 0.0
C762 C 1.01111 0.57094 0.11974 0.0
C763 C 0.05374 0.62596 0.1152 0.0
N764 N 0.99436 0.57571 0.06176 0.0
N765 N 0.07799 0.61663 0.16078 0.0
H766 H 0.07045 0.66718 0.09993 0.0
H767 H 0.0856 0.66279 0.13792 0.0
H768 H 0.07976 0.60393 0.17921 0.0
H769 H 0.09582 0.63512 0.15689 0.0
H770 H 0.98108 0.55483 0.05899 0.0
H771 H 0.99434 0.58665 0.03933 0.0
H772 H 0.97065 0.53896 0.1115 0.0
H773 H 0.98725 0.5332 0.1465 0.0
C774 C 0.4273 0.39534 0.13788 0.0
C775 C 0.42141 0.40394 0.10497 0.0
C776 C 0.44268 0.45046 0.13012 0.0
C777 C 0.45195 0.44226 0.1603 0.0
N778 N 0.4578 0.40792 0.18871 0.0
N779 N 0.42582 0.44078 0.06822 0.0
C780 C 0.44571 0.415 0.16283 0.0
C781 C 0.4296 0.43181 0.10063 0.0
N782 N 0.41444 0.36827 0.14597 0.0
N783 N 0.44545 0.47562 0.13017 0.0
H784 H 0.4154 0.42788 0.04649 0.0
H785 H 0.43447 0.46133 0.06214 0.0
H786 H 0.45501 0.48986 0.15109 0.0
H787 H 0.43639 0.48155 0.11093 0.0
H788 H 0.41626 0.36111 0.17109 0.0
H789 H 0.39951 0.35327 0.12931 0.0
H790 H 0.45575 0.38878 0.18951 0.0
H791 H 0.47209 0.422 0.20693 0.0
C792 C 0.67017 0.73221 0.45943 0.0
C793 C 0.68609 0.74393 0.42789 0.0
C794 C 0.70977 0.78827 0.45914 0.0
C795 C 0.6912 0.7771 0.48849 0.0
N796 N 0.64988 0.73967 0.51257 0.0
N797 N 0.7184 0.78419 0.39535 0.0
C798 C 0.67025 0.74939 0.48745 0.0
C799 C 0.70534 0.77227 0.42705 0.0
N800 N 0.6554 0.70455 0.46295 0.0
N801 N 0.732 0.81378 0.46225 0.0
H802 H 0.71561 0.7733 0.37119 0.0
H803 H 0.73034 0.80519 0.3923 0.0
H804 H 0.73594 0.82609 0.48531 0.0
H805 H 0.74761 0.82178 0.44325 0.0
H806 H 0.64539 0.69501 0.48689 0.0
H807 H 0.65564 0.69128 0.4434 0.0
H808 H 0.63282 0.72024 0.51089 0.0
H809 H 0.64862 0.75191 0.53283 0.0
C810 C 0.2351 0.93642 0.41404 0.0
C811 C 0.26372 0.9507 0.40991 0.0
C812 C 0.26563 0.92387 0.45973 0.0
C813 C 0.23844 0.91455 0.46887 0.0
N814 N 0.19853 0.91683 0.45755 0.0
N815 N 0.30641 0.96263 0.43818 0.0
C816 C 0.22339 0.9221 0.44682 0.0
C817 C 0.27915 0.94565 0.4352 0.0
N818 N 0.21882 0.93527 0.38649 0.0
N819 N 0.27874 0.91227 0.47494 0.0
H820 H 0.31715 0.98105 0.42459 0.0
H821 H 0.3177 0.96032 0.45826 0.0
H822 H 0.2691 0.89562 0.4923 0.0
H823 H 0.2981 0.91732 0.467 0.0
H824 H 0.19787 0.92324 0.38779 0.0
H825 H 0.22596 0.94323 0.36077 0.0
H826 H 0.18811 0.92438 0.44374 0.0
H827 H 0.18953 0.90734 0.48198 0.0
C828 C 0.0892 0.30447 0.40865 0.0
C829 C 0.07421 0.31782 0.40952 0.0
C830 C 0.09728 0.3404 0.46632 0.0
C831 C 0.10655 0.32193 0.46977 0.0
N832 N 0.10731 0.2829 0.44503 0.0
N833 N 0.06121 0.34571 0.44421 0.0
C834 C 0.10168 0.30312 0.44103 0.0
C835 C 0.07768 0.33537 0.43948 0.0
N836 N 0.09221 0.2937 0.3768 0.0
N837 N 0.10702 0.36261 0.4889 0.0
H838 H 0.04504 0.34105 0.42726 0.0
H839 H 0.06171 0.35648 0.46761 0.0
H840 H 0.12199 0.36723 0.50818 0.0
H841 H 0.10242 0.37781 0.48559 0.0
H842 H 0.10473 0.28565 0.37449 0.0
H843 H 0.08505 0.29598 0.35191 0.0
H844 H 0.10157 0.26729 0.42584 0.0
H845 H 0.11518 0.28002 0.46881 0.0
C846 C 0.10685 0.35334 0.25296 0.0
C847 C 0.07955 0.33276 0.24628 0.0
C848 C 0.09336 0.32046 0.18942 0.0
C849 C 0.11975 0.34333 0.19342 0.0
N850 N 0.15074 0.38414 0.22675 0.0
N851 N 0.04619 0.30098 0.20377 0.0
C852 C 0.12632 0.36052 0.22463 0.0
C853 C 0.07265 0.31749 0.21325 0.0
N854 N 0.11453 0.36517 0.28671 0.0
N855 N 0.08816 0.3014 0.16291 0.0
H856 H 0.03036 0.29932 0.21958 0.0
H857 H 0.0401 0.29138 0.1784 0.0
H858 H 0.10307 0.30266 0.14544 0.0
H859 H 0.06985 0.28305 0.16084 0.0
H860 H 0.13461 0.37816 0.29402 0.0
H861 H 0.10119 0.36012 0.3085 0.0
H862 H 0.15541 0.39892 0.24684 0.0
H863 H 0.16564 0.38991 0.20688 0.0
C864 C 0.70038 0.75998 0.23185 0.0
C865 C 0.6834 0.75605 0.26229 0.0
C866 C 0.67176 0.78779 0.23587 0.0
C867 C 0.68912 0.79218 0.20577 0.0
N868 N 0.72771 0.79076 0.18385 0.0
N869 N 0.6641 0.77678 0.29978 0.0
C870 C 0.70631 0.78131 0.20712 0.0
C871 C 0.67284 0.77352 0.2665 0.0
N872 N 0.7092 0.74244 0.22447 0.0
N873 N 0.65277 0.79514 0.23471 0.0
H874 H 0.66634 0.76816 0.32337 0.0
H875 H 0.65798 0.79079 0.30449 0.0
H876 H 0.64977 0.80426 0.21242 0.0
H877 H 0.63815 0.78966 0.25492 0.0
H878 H 0.71943 0.74332 0.20054 0.0
H879 H 0.70404 0.72535 0.23991 0.0
H880 H 0.74202 0.78492 0.18536 0.0
H881 H 0.73251 0.80658 0.16582 0.0
C882 C 0.24303 0.92522 0.24862 0.0
C883 C 0.27169 0.94065 0.2477 0.0
C884 C 0.27033 0.91108 0.198 0.0
C885 C 0.2423 0.90081 0.19329 0.0
N886 N 0.20275 0.90205 0.21219 0.0
N887 N 0.3129 0.94939 0.21805 0.0
C888 C 0.22871 0.90872 0.21825 0.0
C889 C 0.28556 0.9337 0.22176 0.0
N890 N 0.22943 0.92567 0.27893 0.0
N891 N 0.28234 0.89919 0.17972 0.0
H892 H 0.32483 0.96688 0.23356 0.0
H893 H 0.32342 0.94649 0.19705 0.0
H894 H 0.27152 0.88209 0.16295 0.0
H895 H 0.30221 0.90446 0.18434 0.0
H896 H 0.20861 0.91311 0.28177 0.0
H897 H 0.23929 0.93588 0.30281 0.0
H898 H 0.19318 0.90979 0.22815 0.0
H899 H 0.19169 0.89116 0.18936 0.0
C900 C 0.68589 0.94936 0.22492 0.0
C901 C 0.67158 0.93787 0.25757 0.0
C902 C 0.6477 0.89312 0.22727 0.0
C903 C 0.66569 0.9042 0.1973 0.0
N904 N 0.7068 0.94195 0.17282 0.0
N905 N 0.64022 0.89787 0.29135 0.0
C906 C 0.68621 0.93209 0.19761 0.0
C907 C 0.6526 0.90946 0.25922 0.0
N908 N 0.6991 0.97686 0.21994 0.0
N909 N 0.62577 0.86739 0.22496 0.0
H910 H 0.643 0.90912 0.31513 0.0
H911 H 0.62858 0.8769 0.29495 0.0
H912 H 0.62162 0.85501 0.20191 0.0
H913 H 0.61061 0.85926 0.24461 0.0
H914 H 0.70805 0.98593 0.19525 0.0
H915 H 0.69833 0.99012 0.23904 0.0
H916 H 0.72334 0.96175 0.17413 0.0
H917 H 0.70901 0.92961 0.15368 0.0
C918 C 0.07905 0.73195 0.23043 0.0
C919 C 0.09296 0.72551 0.25635 0.0
C920 C 0.13494 0.75298 0.22169 0.0
C921 C 0.12143 0.76133 0.19791 0.0
N922 N 0.08253 0.76556 0.18808 0.0
N923 N 0.13635 0.73868 0.28277 0.0
C924 C 0.09409 0.75306 0.20514 0.0
C925 C 0.1216 0.73861 0.25387 0.0
N926 N 0.05157 0.71706 0.22829 0.0
N927 N 0.15996 0.75766 0.21318 0.0
H928 H 0.12786 0.73071 0.30808 0.0
H929 H 0.15736 0.74985 0.283 0.0
H930 H 0.17018 0.76737 0.18942 0.0
H931 H 0.16937 0.74953 0.22812 0.0
H932 H 0.04088 0.71968 0.20762 0.0
H933 H 0.03969 0.70004 0.24425 0.0
H934 H 0.06331 0.76169 0.19458 0.0
H935 H 0.09332 0.78195 0.17063 0.0
C936 C 0.26256 0.34809 0.2616 0.0
C937 C 0.28894 0.37116 0.26547 0.0
C938 C 0.28153 0.39173 0.21203 0.0
C939 C 0.25667 0.36731 0.20547 0.0
N940 N 0.22464 0.32085 0.22146 0.0
N941 N 0.32531 0.41295 0.24092 0.0
C942 C 0.24738 0.34511 0.22967 0.0
C943 C 0.29887 0.39254 0.23983 0.0
N944 N 0.25161 0.32948 0.28896 0.0
N945 N 0.28842 0.41424 0.19176 0.0
H946 H 0.33889 0.41366 0.26003 0.0
H947 H 0.33444 0.42759 0.22077 0.0
H948 H 0.27601 0.41432 0.17134 0.0
H949 H 0.30503 0.4334 0.19749 0.0
H950 H 0.23148 0.3139 0.28947 0.0
H951 H 0.26201 0.33091 0.31276 0.0
H952 H 0.21865 0.303 0.23566 0.0
H953 H 0.21264 0.31806 0.19885 0.0
C954 C 0.2503 0.34349 0.41947 0.0
C955 C 0.26788 0.33313 0.41963 0.0
C956 C 0.23903 0.30059 0.46609 0.0
C957 C 0.22658 0.31615 0.47273 0.0
N958 N 0.22417 0.35598 0.45717 0.0
N959 N 0.27905 0.30129 0.44434 0.0
C960 C 0.23276 0.33827 0.4494 0.0
C961 C 0.26202 0.31109 0.44276 0.0
N962 N 0.25053 0.35856 0.3908 0.0
N963 N 0.22908 0.27603 0.4826 0.0
H964 H 0.29625 0.30862 0.42821 0.0
H965 H 0.27716 0.28724 0.46365 0.0
H966 H 0.21203 0.26785 0.49929 0.0
H967 H 0.23597 0.2628 0.47674 0.0
H968 H 0.23655 0.36475 0.38813 0.0
H969 H 0.26255 0.36198 0.3678 0.0
H970 H 0.23077 0.37384 0.44265 0.0
H971 H 0.2129 0.35472 0.48004 0.0
C972 C 0.71498 0.95042 0.4539 0.0
C973 C 0.69399 0.94015 0.42764 0.0
C974 C 0.6713 0.89609 0.45901 0.0
C975 C 0.69351 0.90588 0.48321 0.0
N976 N 0.73901 0.94024 0.49868 0.0
N977 N 0.65428 0.90168 0.40155 0.0
C978 C 0.71621 0.93237 0.47884 0.0
C979 C 0.67267 0.91252 0.42917 0.0
N980 N 0.73301 0.97778 0.45626 0.0
N981 N 0.64854 0.8715 0.46524 0.0
H982 H 0.65446 0.91308 0.37956 0.0
H983 H 0.6401 0.88099 0.39903 0.0
H984 H 0.64718 0.85859 0.486 0.0
H985 H 0.63053 0.86465 0.45129 0.0
H986 H 0.74741 0.98676 0.47674 0.0
H987 H 0.73159 0.99184 0.44021 0.0
H988 H 0.75713 0.95836 0.4943 0.0
H989 H 0.74055 0.92734 0.51702 0.0
C990 C 0.10102 0.76604 0.41995 0.0
C991 C 0.09214 0.73807 0.42459 0.0
C992 C 0.11704 0.74908 0.48192 0.0
C993 C 0.12265 0.77617 0.47998 0.0
N994 N 0.11641 0.80965 0.44959 0.0
N995 N 0.08639 0.70229 0.46464 0.0
C996 C 0.11372 0.78453 0.44961 0.0
C997 C 0.0987 0.72939 0.45688 0.0
N998 N 0.0984 0.7752 0.38696 0.0
N999 N 0.12946 0.74221 0.50755 0.0
H1000 H 0.07153 0.68713 0.4481 0.0
H1001 H 0.08866 0.69511 0.48949 0.0
H1002 H 0.14357 0.75637 0.52587 0.0
H1003 H 0.12789 0.72327 0.50801 0.0
H1004 H 0.10701 0.79578 0.38115 0.0
H1005 H 0.08985 0.76249 0.36429 0.0
H1006 H 0.10757 0.81558 0.43 0.0
H1007 H 0.12564 0.82381 0.47068 0.0
C1008 C 0.33597 0.06625 0.78587 0.0
C1009 C 0.3522 0.07762 0.75448 0.0
C1010 C 0.37635 0.12206 0.78552 0.0
C1011 C 0.35758 0.11123 0.8147 0.0
N1012 N 0.31561 0.07446 0.83828 0.0
N1013 N 0.38521 0.1175 0.72196 0.0
C1014 C 0.33619 0.08373 0.81353 0.0
C1015 C 0.37183 0.10586 0.75358 0.0
N1016 N 0.3208 0.03863 0.78966 0.0
N1017 N 0.3988 0.1474 0.78866 0.0
H1018 H 0.38237 0.10646 0.69792 0.0
H1019 H 0.39752 0.13846 0.7188 0.0
H1020 H 0.40272 0.15985 0.81156 0.0
H1021 H 0.41453 0.15512 0.76985 0.0
H1022 H 0.31052 0.02933 0.81357 0.0
H1023 H 0.32098 0.02511 0.77049 0.0
H1024 H 0.2983 0.05522 0.83647 0.0
H1025 H 0.31448 0.08696 0.85827 0.0
C1026 C 0.90562 0.27665 0.75628 0.0
C1027 C 0.93419 0.29019 0.75225 0.0
C1028 C 0.93459 0.25977 0.79807 0.0
C1029 C 0.90747 0.25085 0.80763 0.0
N1030 N 0.86871 0.25568 0.79909 0.0
N1031 N 0.97635 0.29783 0.77665 0.0
C1032 C 0.8933 0.26057 0.78763 0.0
C1033 C 0.94887 0.28256 0.77506 0.0
N1034 N 0.88993 0.27774 0.72954 0.0
N1035 N 0.94675 0.24653 0.81107 0.0
H1036 H 0.98769 0.31617 0.763 0.0
H1037 H 0.98755 0.29402 0.79519 0.0
H1038 H 0.93652 0.22913 0.82703 0.0
H1039 H 0.96585 0.25106 0.80261 0.0
H1040 H 0.86893 0.26638 0.73049 0.0
H1041 H 0.89754 0.28684 0.70443 0.0
H1042 H 0.859 0.26467 0.78696 0.0
H1043 H 0.85931 0.24501 0.8227 0.0
C1044 C 0.73188 0.61876 0.76905 0.0
C1045 C 0.73864 0.64095 0.74537 0.0
C1046 C 0.77955 0.66995 0.78136 0.0
C1047 C 0.77284 0.64776 0.80452 0.0
N1048 N 0.747 0.59964 0.81519 0.0
N1049 N 0.77329 0.68459 0.72257 0.0
C1050 C 0.75046 0.62168 0.79647 0.0
C1051 C 0.76381 0.66568 0.74962 0.0
N1052 N 0.7072 0.59541 0.76698 0.0
N1053 N 0.80045 0.69531 0.79029 0.0
H1054 H 0.76314 0.68163 0.69802 0.0
H1055 H 0.79256 0.70182 0.7227 0.0
H1056 H 0.81308 0.69896 0.81247 0.0
H1057 H 0.80423 0.71289 0.77702 0.0
H1058 H 0.69999 0.58028 0.78661 0.0
H1059 H 0.69279 0.59175 0.74745 0.0
H1060 H 0.73275 0.57962 0.80815 0.0
H1061 H 0.76021 0.60124 0.8356 0.0
C1062 C 0.75809 0.69384 0.56901 0.0
C1063 C 0.75067 0.67156 0.59244 0.0
C1064 C 0.78277 0.66217 0.56154 0.0
C1065 C 0.79076 0.68478 0.53855 0.0
N1066 N 0.79235 0.72712 0.52877 0.0
N1067 N 0.76426 0.64248 0.62014 0.0
C1068 C 0.78054 0.70234 0.54521 0.0
C1069 C 0.76577 0.65834 0.59168 0.0
N1070 N 0.743 0.7059 0.56775 0.0
N1071 N 0.78975 0.64324 0.55357 0.0
H1072 H 0.75314 0.64041 0.64366 0.0
H1073 H 0.7766 0.63425 0.62218 0.0
H1074 H 0.80115 0.64428 0.53089 0.0
H1075 H 0.78191 0.62502 0.56767 0.0
H1076 H 0.746 0.72033 0.54838 0.0
H1077 H 0.72606 0.69994 0.58398 0.0
H1078 H 0.78723 0.7417 0.5349 0.0
H1079 H 0.80921 0.73411 0.51192 0.0
C1080 C 0.33938 0.10543 0.5919 0.0
C1081 C 0.34934 0.08744 0.588 0.0
C1082 C 0.37154 0.11117 0.53164 0.0
C1083 C 0.35507 0.12288 0.53054 0.0
N1084 N 0.31964 0.12724 0.55981 0.0
N1085 N 0.37354 0.07198 0.55006 0.0
C1086 C 0.33824 0.11937 0.56095 0.0
C1087 C 0.36553 0.09023 0.55708 0.0
N1088 N 0.33124 0.10947 0.6252 0.0
N1089 N 0.39252 0.11965 0.50781 0.0
H1090 H 0.36829 0.05519 0.5662 0.0
H1091 H 0.38312 0.072 0.52588 0.0
H1092 H 0.39758 0.13533 0.48942 0.0
H1093 H 0.40636 0.1132 0.50916 0.0
H1094 H 0.32562 0.12388 0.62965 0.0
H1095 H 0.33348 0.10102 0.64896 0.0
H1096 H 0.3054 0.12248 0.58037 0.0
H1097 H 0.31642 0.1359 0.53716 0.0
C1098 C 0.92444 0.28716 0.55521 0.0
C1099 C 0.93317 0.27907 0.58605 0.0
C1100 C 0.913 0.23302 0.56013 0.0
C1101 C 0.90217 0.24073 0.53127 0.0
N1102 N 0.89152 0.27292 0.50703 0.0
N1103 N 0.93035 0.24255 0.6218 0.0
C1104 C 0.9058 0.26708 0.5309 0.0
C1105 C 0.92591 0.25146 0.58975 0.0
N1106 N 0.93512 0.31414 0.54789 0.0
N1107 N 0.91202 0.2087 0.55863 0.0
H1108 H 0.93908 0.25518 0.64448 0.0
H1109 H 0.923 0.22207 0.627 0.0
H1110 H 0.90258 0.19452 0.53761 0.0
H1111 H 0.92232 0.20352 0.57685 0.0
H1112 H 0.93116 0.32098 0.52391 0.0
H1113 H 0.95035 0.3297 0.56356 0.0
H1114 H 0.89173 0.29121 0.50776 0.0
H1115 H 0.87734 0.25836 0.48914 0.0
C1116 C 0.3635 0.26043 0.5877 0.0
C1117 C 0.34949 0.27473 0.59022 0.0
C1118 C 0.32404 0.25016 0.53559 0.0
C1119 C 0.34225 0.24087 0.52904 0.0
N1120 N 0.38336 0.24251 0.54663 0.0
N1121 N 0.31856 0.2858 0.56232 0.0
C1122 C 0.36304 0.2473 0.55455 0.0
C1123 C 0.33008 0.27015 0.5632 0.0
N1124 N 0.37661 0.25858 0.61726 0.0
N1125 N 0.30091 0.23975 0.51566 0.0
H1126 H 0.32342 0.3017 0.58063 0.0
H1127 H 0.30628 0.28482 0.54102 0.0
H1128 H 0.29548 0.22442 0.49608 0.0
H1129 H 0.28592 0.24421 0.52136 0.0
H1130 H 0.38524 0.24648 0.61738 0.0
H1131 H 0.37574 0.2662 0.64282 0.0
H1132 H 0.40017 0.24934 0.56336 0.0
H1133 H 0.38508 0.23452 0.5218 0.0
C1134 C 0.77123 0.09001 0.59402 0.0
C1135 C 0.76319 0.06209 0.59021 0.0
C1136 C 0.7877 0.0724 0.53215 0.0
C1137 C 0.79186 0.09909 0.53328 0.0
N1138 N 0.78438 0.1323 0.56354 0.0
N1139 N 0.7609 0.02592 0.55306 0.0
C1140 C 0.78286 0.10771 0.56382 0.0
C1141 C 0.77081 0.05308 0.55863 0.0
N1142 N 0.76899 0.1 0.627 0.0
N1143 N 0.80013 0.06565 0.5058 0.0
H1144 H 0.74773 0.01105 0.57117 0.0
H1145 H 0.76368 0.01793 0.52892 0.0
H1146 H 0.81296 0.07952 0.4864 0.0
H1147 H 0.79991 0.04737 0.5054 0.0
H1148 H 0.7769 0.12065 0.63228 0.0
H1149 H 0.76194 0.08801 0.65018 0.0
H1150 H 0.77524 0.13817 0.58322 0.0
H1151 H 0.79301 0.14603 0.54222 0.0
C1152 C 0.94183 0.71574 0.60525 0.0
C1153 C 0.95715 0.70272 0.60509 0.0
C1154 C 0.93346 0.67838 0.54932 0.0
C1155 C 0.92343 0.69624 0.54516 0.0
N1156 N 0.92218 0.73541 0.56803 0.0
N1157 N 0.96959 0.67356 0.57309 0.0
C1158 C 0.9285 0.71577 0.57295 0.0
C1159 C 0.95333 0.68425 0.5763 0.0
N1160 N 0.93927 0.72742 0.63652 0.0
N1161 N 0.9239 0.65575 0.52759 0.0
H1162 H 0.98534 0.67828 0.59093 0.0
H1163 H 0.96916 0.66215 0.55046 0.0
H1164 H 0.90871 0.65043 0.50842 0.0
H1165 H 0.9289 0.6409 0.53146 0.0
H1166 H 0.92653 0.73522 0.63857 0.0
H1167 H 0.9471 0.72617 0.66144 0.0
H1168 H 0.92802 0.75158 0.58631 0.0
H1169 H 0.91361 0.73725 0.54422 0.0
C1170 C 0.92439 0.66749 0.76598 0.0
C1171 C 0.95116 0.68917 0.77281 0.0
C1172 C 0.93637 0.69921 0.8306 0.0
C1173 C 0.91047 0.67569 0.82589 0.0
N1174 N 0.88096 0.63476 0.7917 0.0
N1175 N 0.98373 0.72188 0.81519 0.0
C1176 C 0.90474 0.65904 0.79427 0.0
C1177 C 0.95744 0.70396 0.80618 0.0
N1178 N 0.91731 0.65578 0.73209 0.0
N1179 N 0.94067 0.71738 0.85804 0.0
H1180 H 0.99982 0.72517 0.79856 0.0
H1181 H 0.98967 0.73124 0.84072 0.0
H1182 H 0.9255 0.71487 0.87599 0.0
H1183 H 0.95841 0.73619 0.86065 0.0
H1184 H 0.89746 0.64202 0.72455 0.0
H1185 H 0.93087 0.66152 0.71045 0.0
H1186 H 0.87699 0.62041 0.77124 0.0
H1187 H 0.86597 0.62799 0.81159 0.0
C1188 C 0.33926 0.26692 0.78714 0.0
C1189 C 0.3589 0.27495 0.75908 0.0
C1190 C 0.37687 0.24933 0.78902 0.0
C1191 C 0.35607 0.23974 0.81545 0.0
N1192 N 0.31257 0.23281 0.83215 0.0
N1193 N 0.38953 0.26464 0.72728 0.0
C1194 C 0.33558 0.24631 0.81188 0.0
C1195 C 0.37557 0.26329 0.75811 0.0
N1196 N 0.32529 0.28 0.79202 0.0
N1197 N 0.39871 0.24659 0.79401 0.0
H1198 H 0.38786 0.27297 0.70315 0.0
H1199 H 0.40003 0.25442 0.7244 0.0
H1200 H 0.40119 0.23746 0.81679 0.0
H1201 H 0.41562 0.25584 0.77715 0.0
H1202 H 0.31269 0.2765 0.81431 0.0
H1203 H 0.32846 0.29639 0.77631 0.0
H1204 H 0.29607 0.2352 0.82848 0.0
H1205 H 0.30894 0.21709 0.84971 0.0
C1206 C 0.76273 0.06637 0.78893 0.0
C1207 C 0.75517 0.07478 0.75727 0.0
C1208 C 0.77558 0.1209 0.78362 0.0
C1209 C 0.78623 0.11295 0.81239 0.0
N1210 N 0.79512 0.07966 0.83747 0.0
N1211 N 0.7566 0.11126 0.72284 0.0
C1212 C 0.7815 0.08617 0.81333 0.0
C1213 C 0.76209 0.1024 0.75411 0.0
N1214 N 0.75095 0.03932 0.79665 0.0
N1215 N 0.77748 0.14566 0.78511 0.0
H1216 H 0.74571 0.09838 0.70131 0.0
H1217 H 0.76422 0.13174 0.7174 0.0
H1218 H 0.78761 0.15986 0.80591 0.0
H1219 H 0.76741 0.15134 0.76719 0.0
H1220 H 0.75409 0.03229 0.82107 0.0
H1221 H 0.73554 0.02409 0.78078 0.0
H1222 H 0.79405 0.06095 0.83703 0.0
H1223 H 0.80963 0.09393 0.85529 0.0
C1224 C 0.1089 0.39109 0.04732 0.0
C1225 C 0.08784 0.36689 0.03072 0.0
C1226 C 0.11132 0.34282 0.04667 0.0
C1227 C 0.13163 0.36662 0.0646 0.0
N1228 N 0.15423 0.41493 0.07278 0.0
N1229 N 0.07311 0.32241 0.00533 0.0
C1230 C 0.132 0.39136 0.06126 0.0
C1231 C 0.09041 0.34359 0.02739 0.0
N1232 N 0.10599 0.41311 0.05243 0.0
N1233 N 0.11118 0.31905 0.05008 0.0
H1234 H 0.05797 0.3226 0.99036 0.0
H1235 H 0.0753 0.30586 -0.00083 0.0
H1236 H 0.12693 0.31827 0.06249 0.0
H1237 H 0.09514 0.30013 0.04205 0.0
H1238 H 0.11924 0.43016 0.06783 0.0
H1239 H 0.08914 0.41361 0.04383 0.0
H1240 H 0.15704 0.43416 0.06865 0.0
H1241 H 0.17105 0.41515 0.08334 0.0
C1242 C 0.64952 0.72131 0.07328 0.0
C1243 C 0.66773 0.72547 0.04469 0.0
C1244 C 0.68585 0.77476 0.0493 0.0
C1245 C 0.66645 0.77004 0.07664 0.0
N1246 N 0.62442 0.73844 0.10518 0.0
N1247 N 0.69994 0.7557 0.00044 0.0
C1248 C 0.64609 0.74302 0.08464 0.0
C1249 C 0.68471 0.75208 0.03081 0.0
N1250 N 0.6372 0.69741 0.09175 0.0
N1251 N 0.70618 0.80071 0.0425 0.0
H1252 H 0.70043 0.7397 0.98731 0.0
H1253 H 0.71067 0.77421 0.98702 0.0
H1254 H 0.70701 0.81767 0.05466 0.0
H1255 H 0.72276 0.8053 0.02617 0.0
H1256 H 0.62513 0.69402 0.11463 0.0
H1257 H 0.64222 0.68259 0.08719 0.0
H1258 H 0.60806 0.71898 0.11001 0.0
H1259 H 0.62186 0.75436 0.11406 0.0
C1260 C 0.29269 0.91473 0.03917 0.0
C1261 C 0.29505 0.93999 0.03003 0.0
C1262 C 0.24787 0.92145 0.04911 0.0
C1263 C 0.2464 0.89715 0.0604 0.0
N1264 N 0.2635 0.86708 0.05482 0.0
N1265 N 0.27198 0.96368 0.01541 0.0
C1266 C 0.26743 0.89254 0.05099 0.0
C1267 C 0.27163 0.94212 0.03145 0.0
N1268 N 0.31497 0.9125 0.03962 0.0
N1269 N 0.22696 0.92524 0.05727 0.0
H1270 H 0.28874 0.97864 0.00138 0.0
H1271 H 0.25501 0.96537 0.01289 0.0
H1272 H 0.20896 0.90978 0.06843 0.0
H1273 H 0.22781 0.94371 0.05432 0.0
H1274 H 0.31534 0.8959 0.0501 0.0
H1275 H 0.33376 0.92846 0.03259 0.0
H1276 H 0.27707 0.86154 0.04548 0.0
H1277 H 0.24525 0.85076 0.06392 0.0
C1278 C 0.39081 0.09113 0.96813 0.0
C1279 C 0.36599 0.06831 0.97984 0.0
C1280 C 0.34201 0.09103 0.95953 0.0
C1281 C 0.36666 0.11332 0.94674 0.0
N1282 N 0.41487 0.13827 0.9482 0.0
N1283 N 0.31945 0.05013 0.99614 0.0
C1284 C 0.3912 0.11463 0.9547 0.0
C1285 C 0.34206 0.06947 0.97861 0.0
N1286 N 0.41364 0.08966 0.96705 0.0
N1287 N 0.31837 0.0897 0.95144 0.0
H1288 H 0.31898 0.03441 0.01079 0.0
H1289 H 0.30205 0.05108 -0.00089 0.0
H1290 H 0.3178 0.10569 0.9391 0.0
H1291 H 0.29946 0.07244 0.95544 0.0
H1292 H 0.43152 0.10431 0.95488 0.0
H1293 H 0.41426 0.07275 0.97565 0.0
H1294 H 0.43363 0.14169 0.95602 0.0
H1295 H 0.41528 0.15544 0.93811 0.0
C1296 C 0.96748 0.27309 0.95877 0.0
C1297 C 0.96571 0.29682 0.96353 0.0
C1298 C 0.91709 0.26899 0.95183 0.0
C1299 C 0.92018 0.24762 0.93853 0.0
N1300 N 0.94823 0.22852 0.92964 0.0
N1301 N 0.93922 0.31761 0.9541 0.0
C1302 C 0.94531 0.24924 0.94273 0.0
C1303 C 0.94042 0.29473 0.95817 0.0
N1304 N 0.98989 0.27306 0.97004 0.0
N1305 N 0.89194 0.26533 0.95483 0.0
H1306 H 0.95673 0.33617 0.95023 0.0
H1307 H 0.92159 0.31743 0.94788 0.0
H1308 H 0.87466 0.24656 0.94917 0.0
H1309 H 0.88843 0.27996 0.96637 0.0
H1310 H 0.99126 0.25564 0.96991 0.0
H1311 H 1.0061 0.28984 0.98268 0.0
H1312 H 0.96676 0.22969 0.92769 0.0
H1313 H 0.9319 0.21054 0.91931 0.0
C1314 C 0.71766 0.63472 0.95448 0.0
C1315 C 0.72042 0.6597 0.96681 0.0
C1316 C 0.76807 0.68388 0.94761 0.0
C1317 C 0.7652 0.65888 0.93576 0.0
N1318 N 0.74007 0.6101 0.93762 0.0
N1319 N 0.75039 0.70662 0.98457 0.0
C1320 C 0.74094 0.63416 0.94299 0.0
C1321 C 0.74632 0.68388 0.96631 0.0
N1322 N 0.69266 0.61195 0.95082 0.0
N1323 N 0.79115 0.70771 0.93957 0.0
H1324 H 0.73529 0.70713 -0.00039 0.0
H1325 H 0.76932 0.72403 0.98791 0.0
H1326 H 0.80779 0.70823 0.92746 0.0
H1327 H 0.79327 0.72677 0.94324 0.0
H1328 H 0.68936 0.59403 0.93845 0.0
H1329 H 0.67484 0.61164 0.95651 0.0
H1330 H 0.72375 0.59135 0.94531 0.0
H1331 H 0.7569 0.60935 0.92892 0.0
C1332 C 0.91403 0.62267 0.97363 0.0
C1333 C 0.93497 0.64666 0.99062 0.0
C1334 C 0.91261 0.67155 0.97346 0.0
C1335 C 0.89309 0.64833 0.9537 0.0
N1336 N 0.87028 0.6002 0.94342 0.0
N1337 N 0.9503 0.69122 0.01582 0.0
C1338 C 0.89205 0.62323 0.95715 0.0
C1339 C 0.93284 0.6702 0.99366 0.0
N1340 N 0.91613 0.60003 0.97102 0.0
N1341 N 0.91278 0.69538 0.97067 0.0
H1342 H 0.96513 0.69054 0.03098 0.0
H1343 H 0.94875 0.70817 0.02167 0.0
H1344 H 0.89746 0.69645 0.95743 0.0
H1345 H 0.92829 0.71408 0.98026 0.0
H1346 H 0.90335 0.58296 0.95532 0.0
H1347 H 0.93164 0.59876 0.98325 0.0
H1348 H 0.86693 0.5807 0.94694 0.0
H1349 H 0.85428 0.60062 0.93116 0.0
C1350 C 0.33164 0.26259 0.97492 0.0
C1351 C 0.35616 0.28276 0.99143 0.0
C1352 C 0.37867 0.259 0.96911 0.0
C1353 C 0.3553 0.24089 0.949 0.0
N1354 N 0.30757 0.2199 0.94056 0.0
N1355 N 0.39627 0.28924 0.02121 0.0
C1356 C 0.331 0.24079 0.95482 0.0
C1357 C 0.37771 0.2777 0.99397 0.0
N1358 N 0.30902 0.2642 0.97905 0.0
N1359 N 0.40211 0.2592 0.96338 0.0
H1360 H 0.39357 0.29894 0.04355 0.0
H1361 H 0.41157 0.28503 0.02504 0.0
H1362 H 0.40328 0.24513 0.94635 0.0
H1363 H 0.42057 0.27431 0.97392 0.0
H1364 H 0.29126 0.25239 0.96454 0.0
H1365 H 0.30795 0.27733 -0.002 0.0
H1366 H 0.28866 0.21747 0.9447 0.0
H1367 H 0.3069 0.20367 0.92634 0.0
C1368 C 0.74124 0.10421 0.9845 0.0
C1369 C 0.73674 0.0773 0.98459 0.0
C1370 C 0.78004 0.09458 0.95247 0.0
C1371 C 0.78008 0.11868 0.94402 0.0
N1372 N 0.76091 0.14693 0.95216 0.0
N1373 N 0.75596 0.04891 0.97732 0.0
C1374 C 0.76092 0.1238 0.96047 0.0
C1375 C 0.75757 0.07318 0.97133 0.0
N1376 N 0.72819 0.11173 0.00867 0.0
N1377 N 0.80152 0.09232 0.94193 0.0
H1378 H 0.74223 0.03473 0.99566 0.0
H1379 H 0.76823 0.04287 0.96473 0.0
H1380 H 0.81818 0.10799 0.92858 0.0
H1381 H 0.80396 0.07614 0.94855 0.0
H1382 H 0.73176 0.13147 0.01061 0.0
H1383 H 0.71775 0.0999 0.03094 0.0
H1384 H 0.74536 0.15016 0.95964 0.0
H1385 H 0.77583 0.1622 0.93604 0.0
C1386 C 0.69016 0.95053 0.03859 0.0
C1387 C 0.6658 0.95085 0.03602 0.0
C1388 C 0.64088 0.90287 0.0548 0.0
C1389 C 0.66528 0.90491 0.06552 0.0
N1390 N 0.71372 0.93078 0.06726 0.0
N1391 N 0.61741 0.92699 0.04456 0.0
C1392 C 0.69013 0.92858 0.05656 0.0
C1393 C 0.64087 0.9267 0.04404 0.0
N1394 N 0.7132 0.97089 0.02316 0.0
N1395 N 0.61757 0.8782 0.05676 0.0
H1396 H 0.61641 0.94422 0.03908 0.0
H1397 H 0.5992 0.91082 0.05388 0.0
H1398 H 0.6175 0.86081 0.06515 0.0
H1399 H 0.5992 0.87454 0.04672 0.0
H1400 H 0.73103 0.97063 0.02145 0.0
H1401 H 0.71361 0.98656 0.00851 0.0
H1402 H 0.7323 0.94886 0.06606 0.0
H1403 H 0.71441 0.91467 0.07895 0.0
C1404 C 0.08957 0.72707 0.02205 0.0
C1405 C 0.06343 0.72234 0.03027 0.0
C1406 C 0.08418 0.76398 0.06806 0.0
C1407 C 0.10893 0.7644 0.06699 0.0
N1408 N 0.13592 0.74724 0.04211 0.0
N1409 N 0.03827 0.74387 0.04571 0.0
C1410 C 0.11198 0.74653 0.04316 0.0
C1411 C 0.06143 0.74318 0.04872 0.0
N1412 N 0.09346 0.71468 0.99262 0.0
N1413 N 0.08222 0.78261 0.08943 0.0
H1414 H 0.0225 0.73049 0.02866 0.0
H1415 H 0.03571 0.75927 0.0565 0.0
H1416 H 0.099 0.79892 0.10198 0.0
H1417 H 0.06418 0.78162 0.09564 0.0
H1418 H 0.11236 0.71857 0.98434 0.0
H1419 H 0.0787 0.70425 0.97294 0.0
H1420 H 0.13837 0.73236 0.02916 0.0
H1421 H 0.15301 0.7621 0.0559 0.0
C1422 C 0.30862 0.38217 0.0529 0.0
C1423 C 0.3061 0.35696 0.04237 0.0
C1424 C 0.25851 0.33286 0.06186 0.0
C1425 C 0.26134 0.35794 0.0732 0.0
N1426 N 0.28592 0.40661 0.06963 0.0
N1427 N 0.27653 0.30966 0.02652 0.0
C1428 C 0.28533 0.38264 0.06483 0.0
C1429 C 0.2803 0.33271 0.04355 0.0
N1430 N 0.33348 0.40534 0.05444 0.0
N1431 N 0.23546 0.30912 0.07031 0.0
H1432 H 0.29179 0.30916 0.0119 0.0
H1433 H 0.25775 0.29197 0.02372 0.0
H1434 H 0.21881 0.30876 0.08211 0.0
H1435 H 0.23331 0.29001 0.06715 0.0
H1436 H 0.33687 0.42359 0.06577 0.0
H1437 H 0.35123 0.40592 0.04737 0.0
H1438 H 0.30191 0.42534 0.06127 0.0
H1439 H 0.26907 0.4072 0.07869 0.0
C1440 C 0.77531 0.72112 0.38636 0.0
C1441 C 0.75362 0.69738 0.36977 0.0
C1442 C 0.77416 0.67103 0.38882 0.0
C1443 C 0.79542 0.69462 0.40587 0.0
N1444 N 0.82054 0.74326 0.4117 0.0
N1445 N 0.73658 0.65187 0.34645 0.0
C1446 C 0.79752 0.7201 0.401 0.0
C1447 C 0.7544 0.67297 0.36821 0.0
N1448 N 0.77378 0.74401 0.39096 0.0
N1449 N 0.77223 0.64653 0.39391 0.0
H1450 H 0.72242 0.65296 0.33032 0.0
H1451 H 0.73751 0.63443 0.34168 0.0
H1452 H 0.78719 0.6449 0.40728 0.0
H1453 H 0.75549 0.62795 0.38634 0.0
H1454 H 0.78753 0.76079 0.40639 0.0
H1455 H 0.75747 0.74545 0.38236 0.0
H1456 H 0.82451 0.76276 0.40618 0.0
H1457 H 0.83682 0.74278 0.42285 0.0
C1458 C 0.3155 0.05517 0.39581 0.0
C1459 C 0.33434 0.05913 0.36815 0.0
C1460 C 0.35345 0.10861 0.37372 0.0
C1461 C 0.33359 0.10407 0.40026 0.0
N1462 N 0.29037 0.07291 0.42619 0.0
N1463 N 0.36799 0.08947 0.32543 0.0
C1464 C 0.3124 0.07717 0.40682 0.0
C1465 C 0.35211 0.08583 0.35506 0.0
N1466 N 0.30252 0.03131 0.41428 0.0
N1467 N 0.37442 0.13442 0.36796 0.0
H1468 H 0.36814 0.07334 0.31213 0.0
H1469 H 0.37951 0.10814 0.31262 0.0
H1470 H 0.37541 0.15142 0.38026 0.0
H1471 H 0.39126 0.1388 0.35236 0.0
H1472 H 0.28988 0.02804 0.43646 0.0
H1473 H 0.30772 0.01657 0.41083 0.0
H1474 H 0.27352 0.05359 0.43004 0.0
H1475 H 0.28816 0.08906 0.43502 0.0
C1476 C 0.93876 0.27122 0.35878 0.0
C1477 C 0.96522 0.27966 0.37113 0.0
C1478 C 0.94623 0.23869 0.40853 0.0
C1479 C 0.91984 0.23342 0.40251 0.0
N1480 N 0.89066 0.2451 0.3719 0.0
N1481 N 0.99269 0.27431 0.41518 0.0
C1482 C 0.91594 0.24953 0.37704 0.0
C1483 C 0.96865 0.26397 0.39768 0.0
N1484 N 0.93543 0.28415 0.33012 0.0
N1485 N 0.94968 0.22023 0.42705 0.0
H1486 H 1.00809 0.29437 0.4117 0.0
H1487 H 0.99581 0.26454 0.43666 0.0
H1488 H 0.93328 0.20177 0.4357 0.0
H1489 H 0.96845 0.22213 0.43034 0.0
H1490 H 0.91689 0.27737 0.3177 0.0
H1491 H 0.95161 0.30063 0.31716 0.0
H1492 H 0.88674 0.25811 0.35722 0.0
H1493 H 0.87367 0.22883 0.38383 0.0
C1494 C 1.0106 0.40729 0.30619 0.0
C1495 C 0.03384 0.40484 0.30476 0.0
C1496 C 0.05992 0.45173 0.28164 0.0
C1497 C 0.03578 0.45167 0.27571 0.0
N1498 N 0.98775 0.42958 0.28276 0.0
N1499 N 0.08079 0.42467 0.28819 0.0
C1500 C 1.01106 0.42972 0.28887 0.0
C1501 C 0.05876 0.4273 0.29248 0.0
N1502 N 0.98826 0.38851 0.32474 0.0
N1503 N 0.08393 0.47504 0.27529 0.0
H1504 H 0.08066 0.40684 0.29376 0.0
H1505 H 0.09858 0.43932 0.27582 0.0
H1506 H 0.08482 0.49283 0.26691 0.0
H1507 H 0.10254 0.47747 0.28176 0.0
H1508 H 0.97159 0.39048 0.32956 0.0
H1509 H 0.98745 0.37229 0.33847 0.0
H1510 H 0.96865 0.41267 0.28703 0.0
H1511 H 0.98766 0.44623 0.2718 0.0
C1512 C 0.63397 0.61004 0.29524 0.0
C1513 C 0.63359 0.63468 0.29704 0.0
C1514 C 0.58516 0.60857 0.28317 0.0
C1515 C 0.58697 0.58564 0.27371 0.0
N1516 N 0.61319 0.56412 0.27011 0.0
N1517 N 0.60945 0.65748 0.28399 0.0
C1518 C 0.61135 0.58612 0.28011 0.0
C1519 C 0.60917 0.63389 0.28937 0.0
N1520 N 0.65546 0.60923 0.30869 0.0
N1521 N 0.56058 0.60643 0.28358 0.0
H1522 H 0.62749 0.67588 0.2821 0.0
H1523 H 0.59266 0.65823 0.27575 0.0
H1524 H 0.54284 0.58795 0.27833 0.0
H1525 H 0.55774 0.62208 0.29269 0.0
H1526 H 0.65573 0.59128 0.311 0.0
H1527 H 0.67202 0.62607 0.32066 0.0
H1528 H 0.63127 0.56427 0.26972 0.0
H1529 H 0.59655 0.54604 0.26064 0.0
C1530 C 0.41696 0.01745 0.30116 0.0
C1531 C 0.39121 0.9931 0.3014 0.0
C1532 C 0.41237 0.96792 0.27867 0.0
C1533 C 0.43642 0.99279 0.27131 0.0
N1534 N 0.46214 0.04156 0.27547 0.0
N1535 N 0.36402 0.94513 0.28635 0.0
C1536 C 0.43902 0.01766 0.28314 0.0
C1537 C 0.38885 0.96816 0.2898 0.0
N1538 N 0.42046 0.04019 0.31881 0.0
N1539 N 0.41188 0.94404 0.27348 0.0
H1540 H 0.34606 0.94452 0.29207 0.0
H1541 H 0.36098 0.92721 0.27431 0.0
H1542 H 0.42891 0.94361 0.26492 0.0
H1543 H 0.39572 0.92519 0.28114 0.0
H1544 H 0.43921 0.05782 0.3223 0.0
H1545 H 0.405 0.04054 0.33314 0.0
H1546 H 0.46419 0.06059 0.27906 0.0
H1547 H 0.47895 0.04211 0.26391 0.0
C1548 C 0.58597 0.95751 0.3037 0.0
C1549 C 0.60653 0.98167 0.32103 0.0
C1550 C 0.58436 1.0062 0.30086 0.0
C1551 C 0.56459 0.98243 0.28222 0.0
N1552 N 0.54198 0.93407 0.27424 0.0
N1553 N 0.62104 0.0265 0.34473 0.0
C1554 C 0.56379 0.95754 0.28691 0.0
C1555 C 0.60426 1.0052 0.32244 0.0
N1556 N 0.58862 0.9352 0.30074 0.0
N1557 N 0.58502 0.03013 0.29607 0.0
H1558 H 0.63548 0.02613 0.36117 0.0
H1559 H 0.61905 0.04332 0.34955 0.0
H1560 H 0.57 0.03115 0.28193 0.0
H1561 H 0.60085 0.04898 0.3047 0.0
H1562 H 0.57605 0.91818 0.28483 0.0
H1563 H 0.60459 0.93431 0.31209 0.0
H1564 H 0.53874 0.91476 0.27918 0.0
H1565 H 0.52579 0.93396 0.2617 0.0
C1566 C 0.03498 0.60997 0.32443 0.0
C1567 C 0.01543 0.61723 0.31663 0.0
C1568 C 0.99276 0.57709 0.27611 0.0
C1569 C 0.01654 0.57569 0.27572 0.0
N1570 N 0.06074 0.59094 0.30005 0.0
N1571 N 0.97056 0.60163 0.2948 0.0
C1572 C 0.03761 0.59182 0.30049 0.0
C1573 C 0.99255 0.59877 0.29552 0.0
N1574 N 0.04982 0.61882 0.35569 0.0
N1575 N 0.97065 0.55767 0.25753 0.0
H1576 H 0.96791 0.61389 0.31354 0.0
H1577 H 0.95458 0.59135 0.27672 0.0
H1578 H 0.97057 0.5415 0.24395 0.0
H1579 H 0.95203 0.55629 0.25747 0.0
H1580 H 0.06321 0.6127 0.36324 0.0
H1581 H 0.04545 0.62822 0.37685 0.0
H1582 H 0.07796 0.60484 0.31445 0.0
H1583 H 0.06324 0.57742 0.28363 0.0
C1584 C 0.42242 0.41248 0.32334 0.0
C1585 C 0.39862 0.41389 0.32346 0.0
C1586 C 0.42495 0.46036 0.29903 0.0
C1587 C 0.44626 0.45594 0.29088 0.0
N1588 N 0.46724 0.42951 0.29816 0.0
N1589 N 0.37782 0.44059 0.31426 0.0
C1590 C 0.44584 0.4328 0.30489 0.0
C1591 C 0.40024 0.43858 0.31308 0.0
N1592 N 0.42256 0.39175 0.34111 0.0
N1593 N 0.42827 0.48523 0.29196 0.0
H1594 H 0.35987 0.42552 0.32527 0.0
H1595 H 0.37659 0.45646 0.30293 0.0
H1596 H 0.44628 0.50106 0.28136 0.0
H1597 H 0.41451 0.49097 0.29956 0.0
H1598 H 0.43974 0.39053 0.34448 0.0
H1599 H 0.4059 0.37709 0.35563 0.0
H1600 H 0.46712 0.41161 0.30313 0.0
H1601 H 0.48498 0.44477 0.28619 0.0
C1602 C 0.31225 0.26094 0.37407 0.0
C1603 C 0.33584 0.28552 0.36352 0.0
C1604 C 0.36386 0.26709 0.38305 0.0
C1605 C 0.34043 0.24324 0.39527 0.0
N1606 N 0.29247 0.21379 0.39253 0.0
N1607 N 0.38304 0.30879 0.34818 0.0
C1608 C 0.31466 0.2389 0.38688 0.0
C1609 C 0.36134 0.2875 0.36477 0.0
N1610 N 0.28786 0.25935 0.37474 0.0
N1611 N 0.38856 0.27078 0.39088 0.0
H1612 H 0.38165 0.32371 0.33407 0.0
H1613 H 0.40171 0.31037 0.34548 0.0
H1614 H 0.39072 0.25552 0.40261 0.0
H1615 H 0.40664 0.28905 0.38708 0.0
H1616 H 0.27059 0.24326 0.38627 0.0
H1617 H 0.28515 0.27505 0.36629 0.0
H1618 H 0.27313 0.20834 0.38432 0.0
H1619 H 0.29401 0.19761 0.40224 0.0
C1620 C 0.7278 0.07633 0.3856 0.0
C1621 C 0.73075 0.05333 0.38011 0.0
C1622 C 0.7795 0.08318 0.38968 0.0
C1623 C 0.77529 0.10355 0.40423 0.0
N1624 N 0.74576 0.12066 0.41491 0.0
N1625 N 0.75994 0.0349 0.38368 0.0
C1626 C 0.74956 0.10066 0.40117 0.0
C1627 C 0.7569 0.05689 0.38301 0.0
N1628 N 0.70465 0.07523 0.37525 0.0
N1629 N 0.80515 0.08844 0.3851 0.0
H1630 H 0.74345 0.01536 0.38486 0.0
H1631 H 0.77822 0.03613 0.38876 0.0
H1632 H 0.82191 0.1076 0.39072 0.0
H1633 H 0.80954 0.07485 0.37223 0.0
H1634 H 0.70231 0.09208 0.37607 0.0
H1635 H 0.68885 0.05829 0.36226 0.0
H1636 H 0.72685 0.11855 0.41777 0.0
H1637 H 0.7618 0.13903 0.42484 0.0
C1638 C 0.94676 0.67236 0.37781 0.0
C1639 C 0.97304 0.69589 0.37678 0.0
C1640 C 0.95483 0.72266 0.40383 0.0
C1641 C 0.93034 0.69833 0.41165 0.0
N1642 N 0.90254 0.64963 0.40618 0.0
N1643 N 1.00254 0.74369 0.39071 0.0
C1644 C 0.92598 0.6731 0.398 0.0
C1645 C 0.97712 0.7213 0.38955 0.0
N1646 N 0.94156 0.64946 0.3589 0.0
N1647 N 0.95682 0.74704 0.4112 0.0
H1648 H 0.01955 0.74352 0.38165 0.0
H1649 H 1.00715 0.76194 0.40341 0.0
H1650 H 0.94065 0.74821 0.42187 0.0
H1651 H 0.97323 0.76571 0.40351 0.0
H1652 H 0.9223 0.63248 0.35583 0.0
H1653 H 0.95612 0.64847 0.34315 0.0
H1654 H 0.89948 0.63029 0.40136 0.0
H1655 H 0.88651 0.64958 0.41945 0.0
C1656 C 0.44126 0.0546 0.71496 0.0
C1657 C 0.41966 0.03056 0.69882 0.0
C1658 C 0.44055 1.00479 0.71901 0.0
C1659 C 0.46184 0.02874 0.73534 0.0
N1660 N 0.48662 0.07746 0.73992 0.0
N1661 N 0.40279 0.98473 0.67692 0.0
C1662 C 0.46366 0.05403 0.72979 0.0
C1663 C 0.42059 1.00623 0.69814 0.0
N1664 N 0.4395 0.07739 0.71893 0.0
N1665 N 0.43879 0.98046 0.72494 0.0
H1666 H 0.38848 0.98542 0.66062 0.0
H1667 H 0.40385 0.9673 0.67275 0.0
H1668 H 0.45386 0.97913 0.73849 0.0
H1669 H 0.42206 0.96171 0.7179 0.0
H1670 H 0.4532 0.09443 0.73403 0.0
H1671 H 0.42303 0.07853 0.71022 0.0
H1672 H 0.49037 0.09681 0.7338 0.0
H1673 H 0.50307 0.07737 0.75118 0.0
C1674 C 0.9873 0.40595 0.68838 0.0
C1675 C 1.00852 0.40041 0.69265 0.0
C1676 C 0.0329 0.44258 0.72918 0.0
C1677 C 1.00857 0.44277 0.7335 0.0
N1678 N 0.96204 0.4241 0.7173 0.0
N1679 N 0.05505 0.41843 0.70878 0.0
C1680 C 0.98568 0.42453 0.71279 0.0
C1681 C 0.03253 0.42039 0.71044 0.0
N1682 N 0.96982 0.39522 0.65979 0.0
N1683 N 0.0562 0.46377 0.74326 0.0
H1684 H 0.05696 0.40551 0.69035 0.0
H1685 H 0.07196 0.42979 0.72507 0.0
H1686 H 0.05675 0.48032 0.75641 0.0
H1687 H 0.07515 0.46619 0.73953 0.0
H1688 H 0.955 0.39996 0.6549 0.0
H1689 H 0.97302 0.38572 0.63761 0.0
H1690 H 0.94389 0.40892 0.70605 0.0
H1691 H 0.96031 0.43795 0.7341 0.0
C1692 C 0.6349 0.59387 0.73966 0.0
C1693 C 0.63104 0.60644 0.70921 0.0
C1694 C 0.58223 0.57289 0.71222 0.0
C1695 C 0.58668 0.5601 0.74196 0.0
N1696 N 0.61808 0.55254 0.77431 0.0
N1697 N 0.60152 0.6044 0.66166 0.0
C1698 C 0.61347 0.56833 0.75154 0.0
C1699 C 0.60487 0.59455 0.69358 0.0
N1700 N 0.65815 0.60715 0.75933 0.0
N1701 N 0.55649 0.56547 0.70328 0.0
H1702 H 0.61744 0.62079 0.64821 0.0
H1703 H 0.58343 0.59513 0.6473 0.0
H1704 H 0.53979 0.54919 0.71569 0.0
H1705 H 0.5518 0.57608 0.68487 0.0
H1706 H 0.66052 0.60004 0.7842 0.0
H1707 H 0.67384 0.62657 0.753 0.0
H1708 H 0.6374 0.55672 0.78054 0.0
H1709 H 0.60237 0.53392 0.78374 0.0
C1710 C 0.6768 0.73801 0.65365 0.0
C1711 C 0.70022 0.73588 0.65324 0.0
C1712 C 0.7258 0.78193 0.62733 0.0
C1713 C 0.70145 0.78136 0.62064 0.0
N1714 N 0.65343 0.75912 0.6281 0.0
N1715 N 0.74731 0.75581 0.63773 0.0
C1716 C 0.67691 0.75974 0.63479 0.0
C1717 C 0.72501 0.75814 0.64038 0.0
N1718 N 0.65452 0.7194 0.67247 0.0
N1719 N 0.74963 0.80512 0.61979 0.0
H1720 H 0.7476 0.73863 0.6459 0.0
H1721 H 0.765 0.77002 0.62471 0.0
H1722 H 0.75028 0.82246 0.60992 0.0
H1723 H 0.76838 0.80802 0.62661 0.0
H1724 H 0.63762 0.72109 0.67659 0.0
H1725 H 0.654 0.70361 0.68702 0.0
H1726 H 0.63442 0.74229 0.63314 0.0
H1727 H 0.65305 0.77526 0.61593 0.0
C1728 C 0.275 0.96584 0.61806 0.0
C1729 C 0.2997 0.96697 0.62494 0.0
C1730 C 0.27813 0.91887 0.60588 0.0
C1731 C 0.25352 0.91808 0.60021 0.0
N1732 N 0.22643 0.93777 0.61258 0.0
N1733 N 0.32212 0.94179 0.63476 0.0
C1734 C 0.25124 0.94042 0.61134 0.0
C1735 C 0.3005 0.94259 0.62181 0.0
N1736 N 0.27478 0.98924 0.61362 0.0
N1737 N 0.28043 0.8974 0.59442 0.0
H1738 H 0.3384 0.95841 0.64754 0.0
H1739 H 0.32269 0.92395 0.63598 0.0
H1740 H 0.26397 0.87945 0.5843 0.0
H1741 H 0.29869 0.89794 0.59352 0.0
H1742 H 0.25773 0.98975 0.60607 0.0
H1743 H 0.29264 0.00778 0.61155 0.0
H1744 H 0.2233 0.95297 0.62282 0.0
H1745 H 0.20888 0.91923 0.60684 0.0
C1746 C 0.07994 0.34471 0.63295 0.0
C1747 C 0.05319 0.32189 0.63308 0.0
C1748 C 0.07049 0.2933 0.60941 0.0
C1749 C 0.09581 0.31688 0.60259 0.0
N1750 N 0.12519 0.36536 0.60789 0.0
N1751 N 0.02261 0.2743 0.61902 0.0
C1752 C 0.10084 0.34264 0.61506 0.0
C1753 C 0.04841 0.29596 0.62138 0.0
N1754 N 0.0855 0.36817 0.65063 0.0
N1755 N 0.06753 0.26836 0.60321 0.0
H1756 H 1.00575 0.27547 0.62602 0.0
H1757 H 0.01764 0.25571 0.6071 0.0
H1758 H 0.08356 0.2663 0.59419 0.0
H1759 H 0.05035 0.25011 0.61035 0.0
H1760 H 0.10496 0.38465 0.65446 0.0
H1761 H 0.07085 0.37023 0.66454 0.0
H1762 H 0.12909 0.38511 0.61167 0.0
H1763 H 0.14123 0.36433 0.59653 0.0
C1764 C 0.28218 0.33981 0.61121 0.0
C1765 C 0.27742 0.32094 0.63959 0.0
C1766 C 0.22868 0.30296 0.63164 0.0
C1767 C 0.23439 0.32334 0.60567 0.0
N1768 N 0.26696 0.36773 0.58391 0.0
N1769 N 0.24482 0.29193 0.68543 0.0
C1770 C 0.26138 0.34456 0.60141 0.0
C1771 C 0.25027 0.30471 0.65268 0.0
N1772 N 0.3049 0.35082 0.59017 0.0
N1773 N 0.20302 0.28156 0.63556 0.0
H1774 H 0.25967 0.29516 0.70402 0.0
H1775 H 0.22543 0.28132 0.69637 0.0
H1776 H 0.18678 0.28018 0.62145 0.0
H1777 H 0.19835 0.26466 0.65128 0.0
H1778 H 0.30795 0.36362 0.56841 0.0
H1779 H 0.31803 0.34351 0.58945 0.0
H1780 H 0.28655 0.38433 0.58141 0.0
H1781 H 0.25165 0.37096 0.57544 0.0
C1782 C 0.66068 0.93035 0.63646 0.0
C1783 C 0.68538 0.951 0.65212 0.0
C1784 C 0.70686 0.9251 0.63478 0.0
C1785 C 0.68336 0.90626 0.61539 0.0
N1786 N 0.63583 0.8859 0.60624 0.0
N1787 N 0.72485 0.95767 0.6843 0.0
C1788 C 0.65945 0.90718 0.61937 0.0
C1789 C 0.70636 0.94528 0.65709 0.0
N1790 N 0.6384 0.9327 0.63865 0.0
N1791 N 0.73012 0.92472 0.63055 0.0
H1792 H 0.72266 0.96882 0.70518 0.0
H1793 H 0.73957 0.95291 0.68989 0.0
H1794 H 0.73115 0.90974 0.61545 0.0
H1795 H 0.74868 0.94024 0.64029 0.0
H1796 H 0.62066 0.92046 0.62429 0.0
H1797 H 0.6375 0.9468 0.65594 0.0
H1798 H 0.61712 0.88413 0.60926 0.0
H1799 H 0.63484 0.86876 0.59429 0.0
C1800 C 0.07362 0.77494 0.64717 0.0
C1801 C 0.06987 0.74868 0.65305 0.0
C1802 C 0.11411 0.7644 0.6245 0.0
C1803 C 0.1139 0.78729 0.61077 0.0
N1804 N 0.09363 0.8148 0.60878 0.0
N1805 N 0.08995 0.72085 0.6552 0.0
C1806 C 0.09389 0.79289 0.62244 0.0
C1807 C 0.09133 0.74424 0.64427 0.0
N1808 N 0.05901 0.78345 0.66639 0.0
N1809 N 0.13613 0.76205 0.61807 0.0
H1810 H 0.07567 0.70769 0.67393 0.0
H1811 H 0.10286 0.71444 0.64609 0.0
H1812 H 0.15298 0.77682 0.60395 0.0
H1813 H 0.13878 0.74688 0.62876 0.0
H1814 H 0.06197 0.80291 0.66431 0.0
H1815 H 0.04759 0.7731 0.68891 0.0
H1816 H 0.07755 0.81793 0.61244 0.0
H1817 H 0.10894 0.82904 0.59204 0.0
C1818 C 0.99876 0.60298 0.69997 0.0
C1819 C 1.01078 0.62834 0.71959 0.0
C1820 C 0.03025 0.60948 0.76072 0.0
C1821 C 1.01195 0.58275 0.74817 0.0
N1822 N 0.97738 0.55393 0.7052 0.0
N1823 N 0.03286 0.65151 0.77637 0.0
C1824 C 0.99592 0.57941 0.71732 0.0
C1825 C 0.02563 0.63076 0.7518 0.0
N1826 N 0.99114 0.60137 0.6645 0.0
N1827 N 0.05039 0.6139 0.784 0.0
H1828 H 0.02575 0.66485 0.77562 0.0
H1829 H 0.04224 0.65263 0.80101 0.0
H1830 H 0.05353 0.59822 0.79144 0.0
H1831 H 0.06525 0.63337 0.79249 0.0
H1832 H 0.98386 0.58364 0.64884 0.0
H1833 H 0.99571 0.61841 0.64927 0.0
H1834 H 0.96314 0.55041 0.68531 0.0
H1835 H 0.97539 0.53641 0.71656 0.0
C1836 C 0.41771 0.40056 0.70218 0.0
C1837 C 0.39292 0.38522 0.72176 0.0
C1838 C 0.41255 0.42053 0.76925 0.0
C1839 C 0.43877 0.42977 0.75548 0.0
N1840 N 0.46626 0.42688 0.70794 0.0
N1841 N 0.3698 0.38004 0.77974 0.0
C1842 C 0.44144 0.41953 0.72145 0.0
C1843 C 0.39083 0.39522 0.7567 0.0
N1844 N 0.41861 0.3983 0.6652 0.0
N1845 N 0.40893 0.43493 0.79627 0.0
H1846 H 0.35517 0.3598 0.7751 0.0
H1847 H 0.36911 0.3864 0.80626 0.0
H1848 H 0.42487 0.45343 0.80604 0.0
H1849 H 0.3899 0.42987 0.80581 0.0
H1850 H 0.4361 0.4103 0.65014 0.0
H1851 H 0.40133 0.38786 0.64923 0.0
H1852 H 0.46883 0.41757 0.68491 0.0
H1853 H 0.48411 0.44087 0.72102 0.0
C1854 C 0.64316 0.05473 0.71326 0.0
C1855 C 0.63908 0.02893 0.70234 0.0
C1856 C 0.59229 1.00676 0.72448 0.0
C1857 C 0.59674 0.03239 0.73644 0.0
N1858 N 0.62285 0.08097 0.73258 0.0
N1859 N 0.60761 0.98187 0.68745 0.0
C1860 C 0.62097 0.05645 0.72703 0.0
C1861 C 0.61289 1.0054 0.70468 0.0
N1862 N 0.66853 0.07722 0.71335 0.0
N1863 N 0.56899 0.98358 0.73397 0.0
H1864 H 0.62207 0.98045 0.67205 0.0
H1865 H 0.58839 0.9647 0.68539 0.0
H1866 H 0.5531 0.98399 0.74697 0.0
H1867 H 0.5659 0.96412 0.73045 0.0
H1868 H 0.67313 0.09585 0.72478 0.0
H1869 H 0.68556 0.07687 0.70482 0.0
H1870 H 0.63905 0.09937 0.72368 0.0
H1871 H 0.60674 0.08237 0.74296 0.0
loop_
_geom_bond_atom_site_label_1
_geom_bond_atom_site_label_2
_geom_bond_distance
_geom_bond_site_symmetry_2
_ccdc_geom_bond_type
Co0 O1 2.216 . S
Co0 O2 2.091 . S
Co0 O4 2.004 1_554 S
Co0 O10 2.021 . S
Co0 O12 2.137 1_454 S
Co0 O13 2.244 1_455 S
O1 Co0 2.216 . S
O1 C8 1.247 . S
O2 Co0 2.091 . S
O2 C8 1.261 . S
C3 O12 1.247 . S
C3 O13 1.272 1_556 S
O4 Co0 2.004 1_556 S
O4 C9 1.259 1_455 S
Co5 O6 2.061 1_554 S
Co5 O11 2.052 . S
Co5 O13 2.135 . S
O6 Co5 2.061 1_556 S
O6 C9 1.235 . S
C7 O10 1.238 1_655 S
C7 O11 1.241 . S
C8 O1 1.247 . S
C8 O2 1.261 . S
C9 O4 1.259 1_655 S
C9 O6 1.235 . S
O10 Co0 2.021 . S
O10 C7 1.238 1_455 S
O11 Co5 2.052 . S
O11 C7 1.241 . S
O12 Co0 2.137 1_656 S
O12 C3 1.247 . S
O13 Co0 2.244 1_655 S
O13 C3 1.272 1_554 S
O13 Co5 2.135 . S
Co14 O15 2.216 1_554 S
Co14 O16 2.091 . S
Co14 O18 2.004 . S
Co14 O24 2.021 1_554 S
Co14 O26 2.137 . S
Co14 O27 2.244 . S
O15 Co14 2.216 1_556 S
O15 C22 1.247 . S
O16 Co14 2.091 . S
O16 C22 1.261 1_554 S
C17 O26 1.247 . S
C17 O27 1.272 . S
O18 Co14 2.004 . S
O18 C23 1.259 . S
Co19 O20 2.061 . S
Co19 O25 2.052 1_554 S
Co19 O27 2.135 . S
O20 Co19 2.061 . S
O20 C23 1.235 . S
C21 O24 1.238 . S
C21 O25 1.241 . S
C22 O15 1.247 . S
C22 O16 1.261 1_556 S
C23 O18 1.259 . S
C23 O20 1.235 . S
O24 Co14 2.021 1_556 S
O24 C21 1.238 . S
O25 Co19 2.052 1_556 S
O25 C21 1.241 . S
O26 Co14 2.137 . S
O26 C17 1.247 . S
O27 Co14 2.244 . S
O27 C17 1.272 . S
O27 Co19 2.135 . S
Co28 O29 2.216 1_554 S
Co28 O30 2.091 . S
Co28 O32 2.004 . S
Co28 O38 2.021 1_554 S
Co28 O40 2.137 1_545 S
Co28 O41 2.244 1_545 S
O29 Co28 2.216 1_556 S
O29 C36 1.247 . S
O30 Co28 2.091 . S
O30 C36 1.261 1_554 S
C31 O40 1.247 . S
C31 O41 1.272 . S
O32 Co28 2.004 . S
O32 C37 1.295 . S
Co33 O34 2.061 . S
Co33 O39 2.052 1_554 S
Co33 O41 2.135 . S
O34 Co33 2.061 . S
O34 C37 1.202 1_565 S
C35 O38 1.238 1_565 S
C35 O39 1.241 . S
C36 O29 1.247 . S
C36 O30 1.261 1_556 S
C37 O32 1.295 . S
C37 O34 1.202 1_545 S
O38 Co28 2.021 1_556 S
O38 C35 1.238 1_545 S
O39 Co33 2.052 1_556 S
O39 C35 1.241 . S
O40 Co28 2.137 1_565 S
O40 C31 1.247 . S
O41 Co28 2.244 1_565 S
O41 C31 1.272 . S
O41 Co33 2.135 . S
Co42 O43 2.216 1_554 S
Co42 O44 2.091 . S
Co42 O46 2.004 . S
Co42 O52 2.021 1_554 S
Co42 O54 2.137 1_655 S
Co42 O55 2.244 1_655 S
O43 Co42 2.216 1_556 S
O43 C50 1.247 . S
O44 Co42 2.091 . S
O44 C50 1.261 1_554 S
C45 O54 1.247 . S
C45 O55 1.272 . S
O46 Co42 2.004 . S
O46 C51 1.259 1_655 S
Co47 O48 2.061 . S
Co47 O53 2.052 1_554 S
Co47 O55 2.135 . S
O48 Co47 2.061 . S
O48 C51 1.235 . S
C49 O52 1.238 1_455 S
C49 O53 1.241 . S
C50 O43 1.247 . S
C50 O44 1.261 1_556 S
C51 O46 1.259 1_455 S
C51 O48 1.235 . S
O52 Co42 2.021 1_556 S
O52 C49 1.238 1_655 S
O53 Co47 2.052 1_556 S
O53 C49 1.241 . S
O54 Co42 2.137 1_455 S
O54 C45 1.247 . S
O55 Co42 2.244 1_455 S
O55 C45 1.272 . S
O55 Co47 2.135 . S
Co56 O57 2.216 . S
Co56 O58 2.091 . S
Co56 O60 2.004 1_554 S
Co56 O66 2.021 . S
Co56 O68 2.137 1_554 S
Co56 O69 2.243 1_554 S
O57 Co56 2.216 . S
O57 C64 1.247 . S
O58 Co56 2.091 . S
O58 C64 1.261 . S
C59 O68 1.247 . S
C59 O69 1.276 . S
O60 Co56 2.004 1_556 S
O60 C65 1.259 . S
Co61 O62 2.061 . S
Co61 O67 2.052 1_556 S
Co61 O69 2.135 . S
O62 Co61 2.061 . S
O62 C65 1.235 . S
C63 O66 1.238 . S
C63 O67 1.241 . S
C64 O57 1.247 . S
C64 O58 1.261 . S
C65 O60 1.259 . S
C65 O62 1.235 . S
O66 Co56 2.021 . S
O66 C63 1.238 . S
O67 Co61 2.052 1_554 S
O67 C63 1.241 . S
O68 Co56 2.137 1_556 S
O68 C59 1.247 . S
O69 Co56 2.243 1_556 S
O69 C59 1.276 . S
O69 Co61 2.135 . S
Co70 O71 2.216 . S
Co70 O72 2.091 . S
Co70 O74 2.004 1_554 S
Co70 O80 2.021 . S
Co70 O82 2.137 1_564 S
Co70 O83 2.244 1_565 S
O71 Co70 2.216 . S
O71 C78 1.247 . S
O72 Co70 2.091 . S
O72 C78 1.261 . S
C73 O82 1.247 . S
C73 O83 1.272 1_556 S
O74 Co70 2.004 1_556 S
O74 C79 1.259 1_565 S
Co75 O76 2.061 1_554 S
Co75 O81 2.052 . S
Co75 O83 2.135 . S
O76 Co75 2.061 1_556 S
O76 C79 1.235 . S
C77 O80 1.238 1_545 S
C77 O81 1.241 . S
C78 O71 1.247 . S
C78 O72 1.261 . S
C79 O74 1.259 1_545 S
C79 O76 1.235 . S
O80 Co70 2.021 . S
O80 C77 1.238 1_565 S
O81 Co75 2.052 . S
O81 C77 1.241 . S
O82 Co70 2.137 1_546 S
O82 C73 1.247 . S
O83 Co70 2.244 1_545 S
O83 C73 1.272 1_554 S
O83 Co75 2.135 . S
Co84 O85 2.216 . S
Co84 O86 2.091 . S
Co84 O88 2.004 . S
Co84 O94 2.021 . S
Co84 O96 2.137 . S
Co84 O97 2.244 . S
O85 Co84 2.216 . S
O85 C92 1.247 . S
O86 Co84 2.091 . S
O86 C92 1.261 . S
C87 O96 1.247 . S
C87 O97 1.272 . S
O88 Co84 2.004 . S
O88 C93 1.259 . S
Co89 O90 2.061 . S
Co89 O95 2.052 . S
Co89 O97 2.135 . S
O90 Co89 2.061 . S
O90 C93 1.235 . S
C91 O94 1.238 . S
C91 O95 1.241 . S
C92 O85 1.247 . S
C92 O86 1.261 . S
C93 O88 1.259 . S
C93 O90 1.235 . S
O94 Co84 2.021 . S
O94 C91 1.238 . S
O95 Co89 2.052 . S
O95 C91 1.241 . S
O96 Co84 2.137 . S
O96 C87 1.247 . S
O97 Co84 2.244 . S
O97 C87 1.272 . S
O97 Co89 2.135 . S
Co98 O99 2.216 1_565 S
Co98 O100 2.091 . S
Co98 O102 2.004 . S
Co98 O108 2.021 . S
Co98 O110 2.137 1_565 S
Co98 O111 2.244 1_565 S
O99 Co98 2.216 1_545 S
O99 C106 1.247 1_545 S
O100 Co98 2.091 . S
O100 C106 1.261 . S
C101 O110 1.247 . S
C101 O111 1.272 . S
O102 Co98 2.004 . S
O102 C107 1.259 . S
Co103 O104 2.061 . S
Co103 O109 2.052 . S
Co103 O111 2.135 1_565 S
O104 Co103 2.061 . S
O104 C107 1.235 . S
C105 O108 1.238 . S
C105 O109 1.241 . S
C106 O99 1.247 1_565 S
C106 O100 1.261 . S
C107 O102 1.259 . S
C107 O104 1.235 . S
O108 Co98 2.021 . S
O108 C105 1.238 . S
O109 Co103 2.052 . S
O109 C105 1.241 . S
O110 Co98 2.137 1_545 S
O110 C101 1.247 . S
O111 Co98 2.244 1_545 S
O111 C101 1.272 . S
O111 Co103 2.135 1_545 S
Co112 O113 2.216 1_455 S
Co112 O114 2.091 . S
Co112 O116 2.004 . S
Co112 O122 2.021 . S
Co112 O124 2.137 1_455 S
Co112 O125 2.244 1_455 S
O113 Co112 2.216 1_655 S
O113 C120 1.247 1_655 S
O114 Co112 2.091 . S
O114 C120 1.261 . S
C115 O124 1.247 . S
C115 O125 1.272 . S
O116 Co112 2.004 . S
O116 C121 1.259 . S
Co117 O118 2.061 . S
Co117 O123 2.052 . S
Co117 O125 2.135 1_455 S
O118 Co117 2.061 . S
O118 C121 1.235 . S
C119 O122 1.238 . S
C119 O123 1.241 . S
C120 O113 1.247 1_455 S
C120 O114 1.261 . S
C121 O116 1.259 . S
C121 O118 1.235 . S
O122 Co112 2.021 . S
O122 C119 1.238 . S
O123 Co117 2.052 . S
O123 C119 1.241 . S
O124 Co112 2.137 1_655 S
O124 C115 1.247 . S
O125 Co112 2.244 1_655 S
O125 C115 1.272 . S
O125 Co117 2.135 1_655 S
Co126 O127 2.216 1_565 S
Co126 O128 2.091 . S
Co126 O130 2.004 . S
Co126 O136 2.021 . S
Co126 O138 2.137 1_565 S
Co126 O139 2.244 1_565 S
O127 Co126 2.216 1_545 S
O127 C134 1.247 1_545 S
O128 Co126 2.091 . S
O128 C134 1.261 . S
C129 O138 1.247 . S
C129 O139 1.272 . S
O130 Co126 2.004 . S
O130 C135 1.259 . S
Co131 O132 2.061 . S
Co131 O137 2.052 . S
Co131 O139 2.135 1_565 S
O132 Co131 2.061 . S
O132 C135 1.235 . S
C133 O136 1.238 . S
C133 O137 1.241 . S
C134 O127 1.247 1_565 S
C134 O128 1.261 . S
C135 O130 1.259 . S
C135 O132 1.235 . S
O136 Co126 2.021 . S
O136 C133 1.238 . S
O137 Co131 2.052 . S
O137 C133 1.241 . S
O138 Co126 2.137 1_545 S
O138 C129 1.247 . S
O139 Co126 2.244 1_545 S
O139 C129 1.272 . S
O139 Co131 2.135 1_545 S
Co140 O141 2.216 1_455 S
Co140 O142 2.091 1_455 S
Co140 O144 2.004 . S
Co140 O150 2.021 . S
Co140 O152 2.137 1_455 S
Co140 O153 2.244 . S
O141 Co140 2.216 1_655 S
O141 C148 1.247 . S
O142 Co140 2.091 1_655 S
O142 C148 1.261 . S
C143 O152 1.247 1_455 S
C143 O153 1.272 . S
O144 Co140 2.004 . S
O144 C149 1.259 . S
Co145 O146 2.061 . S
Co145 O151 2.052 . S
Co145 O153 2.135 . S
O146 Co145 2.061 . S
O146 C149 1.235 . S
C147 O150 1.238 . S
C147 O151 1.241 . S
C148 O141 1.247 . S
C148 O142 1.261 . S
C149 O144 1.259 . S
C149 O146 1.235 . S
O150 Co140 2.021 . S
O150 C147 1.238 . S
O151 Co145 2.052 . S
O151 C147 1.241 . S
O152 Co140 2.137 1_655 S
O152 C143 1.247 1_655 S
O153 Co140 2.244 . S
O153 C143 1.272 . S
O153 Co145 2.135 . S
Co154 O155 2.216 . S
Co154 O156 2.091 . S
Co154 O158 2.004 . S
Co154 O164 2.021 . S
Co154 O166 2.137 . S
Co154 O167 2.244 . S
O155 Co154 2.216 . S
O155 C162 1.247 . S
O156 Co154 2.091 . S
O156 C162 1.261 . S
C157 O166 1.247 . S
C157 O167 1.272 . S
O158 Co154 2.004 . S
O158 C163 1.259 . S
Co159 O160 2.061 . S
Co159 O165 2.052 . S
Co159 O167 2.135 . S
O160 Co159 2.061 . S
O160 C163 1.235 . S
C161 O164 1.238 . S
C161 O165 1.241 . S
C162 O155 1.247 . S
C162 O156 1.261 . S
C163 O158 1.259 . S
C163 O160 1.235 . S
O164 Co154 2.021 . S
O164 C161 1.238 . S
O165 Co159 2.052 . S
O165 C161 1.241 . S
O166 Co154 2.137 . S
O166 C157 1.247 . S
O167 Co154 2.244 . S
O167 C157 1.272 . S
O167 Co159 2.135 . S
Co168 O169 2.216 1_545 S
Co168 O170 2.091 . S
Co168 O172 2.004 . S
Co168 O178 2.021 . S
Co168 O180 2.137 1_545 S
Co168 O181 2.244 1_545 S
O169 Co168 2.216 1_565 S
O169 C176 1.247 1_565 S
O170 Co168 2.091 . S
O170 C176 1.261 . S
C171 O180 1.247 . S
C171 O181 1.272 . S
O172 Co168 2.004 . S
O172 C177 1.259 . S
Co173 O174 2.061 . S
Co173 O179 2.052 . S
Co173 O181 2.135 1_545 S
O174 Co173 2.061 . S
O174 C177 1.235 . S
C175 O178 1.238 . S
C175 O179 1.241 . S
C176 O169 1.247 1_545 S
C176 O170 1.261 . S
C177 O172 1.259 . S
C177 O174 1.235 . S
O178 Co168 2.021 . S
O178 C175 1.238 . S
O179 Co173 2.052 . S
O179 C175 1.241 . S
O180 Co168 2.137 1_565 S
O180 C171 1.247 . S
O181 Co168 2.244 1_565 S
O181 C171 1.272 . S
O181 Co173 2.135 1_565 S
Co182 O183 2.216 1_655 S
Co182 O184 2.091 1_655 S
Co182 O186 2.004 . S
Co182 O192 2.021 . S
Co182 O194 2.137 1_655 S
Co182 O195 2.244 . S
O183 Co182 2.216 1_455 S
O183 C190 1.247 . S
O184 Co182 2.091 1_455 S
O184 C190 1.261 . S
C185 O194 1.247 1_655 S
C185 O195 1.272 . S
O186 Co182 2.004 . S
O186 C191 1.259 . S
Co187 O188 2.061 . S
Co187 O193 2.052 . S
Co187 O195 2.135 . S
O188 Co187 2.061 . S
O188 C191 1.235 . S
C189 O192 1.238 . S
C189 O193 1.241 . S
C190 O183 1.247 . S
C190 O184 1.261 . S
C191 O186 1.259 . S
C191 O188 1.235 . S
O192 Co182 2.021 . S
O192 C189 1.238 . S
O193 Co187 2.052 . S
O193 C189 1.241 . S
O194 Co182 2.137 1_455 S
O194 C185 1.247 1_455 S
O195 Co182 2.244 . S
O195 C185 1.272 . S
O195 Co187 2.135 . S
Co196 O197 2.216 . S
Co196 O198 2.091 . S
Co196 O200 2.004 . S
Co196 O206 2.021 . S
Co196 O208 2.137 . S
Co196 O209 2.244 . S
O197 Co196 2.216 . S
O197 C204 1.247 . S
O198 Co196 2.091 . S
O198 C204 1.261 . S
C199 O208 1.247 . S
C199 O209 1.272 . S
O200 Co196 2.004 . S
O200 C205 1.259 . S
Co201 O202 2.061 . S
Co201 O207 2.052 . S
Co201 O209 2.135 . S
O202 Co201 2.061 . S
O202 C205 1.235 . S
C203 O206 1.238 . S
C203 O207 1.241 . S
C204 O197 1.247 . S
C204 O198 1.261 . S
C205 O200 1.259 . S
C205 O202 1.235 . S
O206 Co196 2.021 . S
O206 C203 1.238 . S
O207 Co201 2.052 . S
O207 C203 1.241 . S
O208 Co196 2.137 . S
O208 C199 1.247 . S
O209 Co196 2.244 . S
O209 C199 1.272 . S
O209 Co201 2.135 . S
Co210 O211 2.216 . S
Co210 O212 2.091 . S
Co210 O214 2.004 . S
Co210 O220 2.021 . S
Co210 O222 2.137 . S
Co210 O223 2.244 . S
O211 Co210 2.216 . S
O211 C218 1.247 . S
O212 Co210 2.091 . S
O212 C218 1.261 . S
C213 O222 1.247 . S
C213 O223 1.272 . S
O214 Co210 2.004 . S
O214 C219 1.259 . S
Co215 O216 2.061 . S
Co215 O221 2.052 . S
Co215 O223 2.135 . S
O216 Co215 2.061 . S
O216 C219 1.235 . S
C217 O220 1.238 . S
C217 O221 1.241 . S
C218 O211 1.247 . S
C218 O212 1.261 . S
C219 O214 1.259 . S
C219 O216 1.235 . S
O220 Co210 2.021 . S
O220 C217 1.238 . S
O221 Co215 2.052 . S
O221 C217 1.241 . S
O222 Co210 2.137 . S
O222 C213 1.247 . S
O223 Co210 2.244 . S
O223 C213 1.272 . S
O223 Co215 2.135 . S
Co224 O225 2.216 1_545 S
Co224 O226 2.091 . S
Co224 O228 2.004 . S
Co224 O234 2.021 . S
Co224 O236 2.137 1_545 S
Co224 O237 2.244 1_545 S
O225 Co224 2.216 1_565 S
O225 C232 1.247 1_565 S
O226 Co224 2.091 . S
O226 C232 1.261 . S
C227 O236 1.247 . S
C227 O237 1.272 . S
O228 Co224 2.004 . S
O228 C233 1.259 . S
Co229 O230 2.061 . S
Co229 O235 2.052 . S
Co229 O237 2.135 1_545 S
O230 Co229 2.061 . S
O230 C233 1.235 . S
C231 O234 1.238 . S
C231 O235 1.241 . S
C232 O225 1.247 1_545 S
C232 O226 1.261 . S
C233 O228 1.259 . S
C233 O230 1.235 . S
O234 Co224 2.021 . S
O234 C231 1.238 . S
O235 Co229 2.052 . S
O235 C231 1.241 . S
O236 Co224 2.137 1_565 S
O236 C227 1.247 . S
O237 Co224 2.244 1_565 S
O237 C227 1.272 . S
O237 Co229 2.135 1_565 S
Co238 O239 2.216 1_655 S
Co238 O240 2.091 . S
Co238 O242 2.004 . S
Co238 O248 2.021 . S
Co238 O250 2.137 1_655 S
Co238 O251 2.244 1_655 S
O239 Co238 2.216 1_455 S
O239 C246 1.247 1_455 S
O240 Co238 2.091 . S
O240 C246 1.261 . S
C241 O250 1.247 . S
C241 O251 1.272 . S
O242 Co238 2.004 . S
O242 C247 1.259 . S
Co243 O244 2.061 . S
Co243 O249 2.052 . S
Co243 O251 2.135 1_655 S
O244 Co243 2.061 . S
O244 C247 1.235 . S
C245 O248 1.238 . S
C245 O249 1.241 . S
C246 O239 1.247 1_655 S
C246 O240 1.261 . S
C247 O242 1.259 . S
C247 O244 1.235 . S
O248 Co238 2.021 . S
O248 C245 1.238 . S
O249 Co243 2.052 . S
O249 C245 1.241 . S
O250 Co238 2.137 1_455 S
O250 C241 1.247 . S
O251 Co238 2.244 1_455 S
O251 C241 1.272 . S
O251 Co243 2.135 1_455 S
H252 C258 0.930 . S
H253 C261 0.931 . S
H254 C263 0.931 . S
H255 C265 0.930 . S
H256 C267 0.930 . S
H257 C269 0.931 . S
C258 H252 0.930 . S
C258 C259 1.380 . S
C258 C260 1.394 . S
C259 C258 1.380 . S
C259 C263 1.382 . S
C260 C258 1.394 . S
C260 C261 1.400 . S
C261 H253 0.931 . S
C261 C260 1.400 . S
C261 C262 1.375 . S
C262 C261 1.375 . S
C262 C263 1.415 . S
C262 C264 1.501 . S
C263 H254 0.931 . S
C263 C259 1.382 . S
C263 C262 1.415 . S
C264 C262 1.501 . S
C264 C265 1.384 . S
C264 C269 1.408 . S
C265 H255 0.930 . S
C265 C264 1.384 . S
C265 C266 1.389 . S
C266 C265 1.389 . S
C266 C267 1.405 . S
C267 H256 0.930 . S
C267 C266 1.405 . S
C267 C268 1.364 . S
C268 C267 1.364 . S
C268 C269 1.400 . S
C269 H257 0.931 . S
C269 C264 1.408 . S
C269 C268 1.400 . S
H270 C276 0.930 . S
H271 C279 0.931 . S
H272 C281 0.931 . S
H273 C283 0.930 . S
H274 C285 0.930 . S
H275 C287 0.931 . S
C276 H270 0.930 . S
C276 C277 1.380 . S
C276 C278 1.394 . S
C277 C276 1.380 . S
C277 C281 1.382 . S
C278 C276 1.394 . S
C278 C279 1.400 . S
C279 H271 0.931 . S
C279 C278 1.400 . S
C279 C280 1.375 . S
C280 C279 1.375 . S
C280 C281 1.415 . S
C280 C282 1.501 . S
C281 H272 0.931 . S
C281 C277 1.382 . S
C281 C280 1.415 . S
C282 C280 1.501 . S
C282 C283 1.384 . S
C282 C287 1.408 . S
C283 H273 0.930 . S
C283 C282 1.384 . S
C283 C284 1.389 . S
C284 C283 1.389 . S
C284 C285 1.405 . S
C285 H274 0.930 . S
C285 C284 1.405 . S
C285 C286 1.364 . S
C286 C285 1.364 . S
C286 C287 1.400 . S
C287 H275 0.931 . S
C287 C282 1.408 . S
C287 C286 1.400 . S
H288 C294 0.930 . S
H289 C297 0.931 . S
H290 C299 0.931 . S
H291 C301 0.930 . S
H292 C303 0.930 . S
H293 C305 0.931 . S
C294 H288 0.930 . S
C294 C295 1.380 . S
C294 C296 1.394 . S
C295 C294 1.380 . S
C295 C299 1.382 . S
C296 C294 1.394 . S
C296 C297 1.400 . S
C297 H289 0.931 . S
C297 C296 1.400 . S
C297 C298 1.375 . S
C298 C297 1.375 . S
C298 C299 1.415 . S
C298 C300 1.501 . S
C299 H290 0.931 . S
C299 C295 1.382 . S
C299 C298 1.415 . S
C300 C298 1.501 . S
C300 C301 1.384 . S
C300 C305 1.408 . S
C301 H291 0.930 . S
C301 C300 1.384 . S
C301 C302 1.389 . S
C302 C301 1.389 . S
C302 C303 1.405 . S
C303 H292 0.930 . S
C303 C302 1.405 . S
C303 C304 1.364 . S
C304 C303 1.364 . S
C304 C305 1.400 . S
C305 H293 0.931 . S
C305 C300 1.408 . S
C305 C304 1.400 . S
H306 C312 0.930 . S
H307 C315 0.931 . S
H308 C317 0.931 . S
H309 C319 0.930 . S
H310 C321 0.930 . S
H311 C323 0.931 . S
C312 H306 0.930 . S
C312 C313 1.380 . S
C312 C314 1.394 . S
C313 C312 1.380 . S
C313 C317 1.382 . S
C314 C312 1.394 . S
C314 C315 1.400 . S
C315 H307 0.931 . S
C315 C314 1.400 . S
C315 C316 1.375 . S
C316 C315 1.375 . S
C316 C317 1.415 . S
C316 C318 1.501 . S
C317 H308 0.931 . S
C317 C313 1.382 . S
C317 C316 1.415 . S
C318 C316 1.501 . S
C318 C319 1.384 . S
C318 C323 1.408 . S
C319 H309 0.930 . S
C319 C318 1.384 . S
C319 C320 1.389 . S
C320 C319 1.389 . S
C320 C321 1.405 . S
C321 H310 0.930 . S
C321 C320 1.405 . S
C321 C322 1.364 . S
C322 C321 1.364 . S
C322 C323 1.400 . S
C323 H311 0.931 . S
C323 C318 1.408 . S
C323 C322 1.400 . S
H324 C330 0.930 . S
H325 C333 0.931 . S
H326 C335 0.931 . S
H327 C337 0.930 . S
H328 C339 0.930 . S
H329 C341 0.931 . S
C330 H324 0.930 . S
C330 C331 1.380 . S
C330 C332 1.394 . S
C331 C330 1.380 . S
C331 C335 1.382 . S
C332 C330 1.394 . S
C332 C333 1.400 . S
C333 H325 0.931 . S
C333 C332 1.400 . S
C333 C334 1.375 . S
C334 C333 1.375 . S
C334 C335 1.415 . S
C334 C336 1.501 . S
C335 H326 0.931 . S
C335 C331 1.382 . S
C335 C334 1.415 . S
C336 C334 1.501 . S
C336 C337 1.384 . S
C336 C341 1.408 . S
C337 H327 0.930 . S
C337 C336 1.384 . S
C337 C338 1.389 . S
C338 C337 1.389 . S
C338 C339 1.405 . S
C339 H328 0.930 . S
C339 C338 1.405 . S
C339 C340 1.364 . S
C340 C339 1.364 . S
C340 C341 1.400 . S
C341 H329 0.931 . S
C341 C336 1.408 . S
C341 C340 1.400 . S
H342 C348 0.930 . S
H343 C351 0.931 . S
H344 C353 0.931 . S
H345 C355 0.930 . S
H346 C357 0.930 . S
H347 C359 0.931 . S
C348 H342 0.930 . S
C348 C349 1.380 . S
C348 C350 1.394 . S
C349 C348 1.380 . S
C349 C353 1.382 . S
C350 C348 1.394 . S
C350 C351 1.400 . S
C351 H343 0.931 . S
C351 C350 1.400 . S
C351 C352 1.375 . S
C352 C351 1.375 . S
C352 C353 1.415 . S
C352 C354 1.501 . S
C353 H344 0.931 . S
C353 C349 1.382 . S
C353 C352 1.415 . S
C354 C352 1.501 . S
C354 C355 1.384 . S
C354 C359 1.408 . S
C355 H345 0.930 . S
C355 C354 1.384 . S
C355 C356 1.389 . S
C356 C355 1.389 . S
C356 C357 1.405 . S
C357 H346 0.930 . S
C357 C356 1.405 . S
C357 C358 1.364 . S
C358 C357 1.364 . S
C358 C359 1.400 . S
C359 H347 0.931 . S
C359 C354 1.408 . S
C359 C358 1.400 . S
H360 C366 0.930 . S
H361 C369 0.931 . S
H362 C371 0.931 . S
H363 C373 0.930 . S
H364 C375 0.930 . S
H365 C377 0.931 . S
C366 H360 0.930 . S
C366 C367 1.380 . S
C366 C368 1.394 . S
C367 C366 1.380 . S
C367 C371 1.382 . S
C368 C366 1.394 . S
C368 C369 1.400 . S
C369 H361 0.931 . S
C369 C368 1.400 . S
C369 C370 1.375 . S
C370 C369 1.375 . S
C370 C371 1.415 . S
C370 C372 1.501 . S
C371 H362 0.931 . S
C371 C367 1.382 . S
C371 C370 1.415 . S
C372 C370 1.501 . S
C372 C373 1.384 . S
C372 C377 1.408 . S
C373 H363 0.930 . S
C373 C372 1.384 . S
C373 C374 1.389 . S
C374 C373 1.389 . S
C374 C375 1.405 . S
C375 H364 0.930 . S
C375 C374 1.405 . S
C375 C376 1.364 . S
C376 C375 1.364 . S
C376 C377 1.400 . S
C377 H365 0.931 . S
C377 C372 1.408 . S
C377 C376 1.400 . S
H378 C384 0.930 . S
H379 C387 0.931 . S
H380 C389 0.931 . S
H381 C391 0.930 . S
H382 C393 0.930 . S
H383 C395 0.931 . S
C384 H378 0.930 . S
C384 C385 1.380 . S
C384 C386 1.394 . S
C385 C384 1.380 . S
C385 C389 1.382 . S
C386 C384 1.394 . S
C386 C387 1.400 . S
C387 H379 0.931 . S
C387 C386 1.400 . S
C387 C388 1.375 . S
C388 C387 1.375 . S
C388 C389 1.415 . S
C388 C390 1.501 . S
C389 H380 0.931 . S
C389 C385 1.382 . S
C389 C388 1.415 . S
C390 C388 1.501 . S
C390 C391 1.384 . S
C390 C395 1.408 . S
C391 H381 0.930 . S
C391 C390 1.384 . S
C391 C392 1.389 . S
C392 C391 1.389 . S
C392 C393 1.405 . S
C393 H382 0.930 . S
C393 C392 1.405 . S
C393 C394 1.364 . S
C394 C393 1.364 . S
C394 C395 1.400 . S
C395 H383 0.931 . S
C395 C390 1.408 . S
C395 C394 1.400 . S
H396 C402 0.930 . S
H397 C405 0.931 . S
H398 C407 0.931 . S
H399 C409 0.930 . S
H400 C411 0.930 . S
H401 C413 0.931 . S
C402 H396 0.930 . S
C402 C403 1.380 . S
C402 C404 1.394 . S
C403 C402 1.380 . S
C403 C407 1.382 . S
C404 C402 1.394 . S
C404 C405 1.400 . S
C405 H397 0.931 . S
C405 C404 1.400 . S
C405 C406 1.375 . S
C406 C405 1.375 . S
C406 C407 1.415 . S
C406 C408 1.501 . S
C407 H398 0.931 . S
C407 C403 1.382 . S
C407 C406 1.415 . S
C408 C406 1.501 . S
C408 C409 1.384 . S
C408 C413 1.408 . S
C409 H399 0.930 . S
C409 C408 1.384 . S
C409 C410 1.389 . S
C410 C409 1.389 . S
C410 C411 1.405 . S
C411 H400 0.930 . S
C411 C410 1.405 . S
C411 C412 1.364 . S
C412 C411 1.364 . S
C412 C413 1.400 . S
C413 H401 0.931 . S
C413 C408 1.408 . S
C413 C412 1.400 . S
H414 C420 0.926 . S
H415 C423 0.931 . S
H416 C425 0.931 . S
H417 C427 0.930 . S
H418 C429 0.930 . S
H419 C431 0.941 1_655 S
C420 H414 0.926 . S
C420 C421 1.383 . S
C420 C422 1.395 1_655 S
C421 C420 1.383 . S
C421 C425 1.382 . S
C422 C420 1.395 1_455 S
C422 C423 1.400 . S
C423 H415 0.931 . S
C423 C422 1.400 . S
C423 C424 1.375 . S
C424 C423 1.375 . S
C424 C425 1.415 1_455 S
C424 C426 1.501 . S
C425 H416 0.931 . S
C425 C421 1.382 . S
C425 C424 1.415 1_655 S
C426 C424 1.501 . S
C426 C427 1.384 . S
C426 C431 1.417 . S
C427 H417 0.930 . S
C427 C426 1.384 . S
C427 C428 1.389 . S
C428 C427 1.389 . S
C428 C429 1.405 . S
C429 H418 0.930 . S
C429 C428 1.405 . S
C429 C430 1.362 . S
C430 C429 1.362 . S
C430 C431 1.389 . S
C431 H419 0.941 1_455 S
C431 C426 1.417 . S
C431 C430 1.389 . S
H432 C438 0.930 . S
H433 C441 0.931 . S
H434 C443 0.931 . S
H435 C445 0.930 . S
H436 C447 0.930 . S
H437 C449 0.931 . S
C438 H432 0.930 . S
C438 C439 1.380 . S
C438 C440 1.394 . S
C439 C438 1.380 . S
C439 C443 1.382 . S
C440 C438 1.394 . S
C440 C441 1.400 . S
C441 H433 0.931 . S
C441 C440 1.400 . S
C441 C442 1.375 . S
C442 C441 1.375 . S
C442 C443 1.415 . S
C442 C444 1.501 . S
C443 H434 0.931 . S
C443 C439 1.382 . S
C443 C442 1.415 . S
C444 C442 1.501 . S
C444 C445 1.384 . S
C444 C449 1.408 . S
C445 H435 0.930 . S
C445 C444 1.384 . S
C445 C446 1.389 . S
C446 C445 1.389 . S
C446 C447 1.405 . S
C447 H436 0.930 . S
C447 C446 1.405 . S
C447 C448 1.364 . S
C448 C447 1.364 . S
C448 C449 1.400 . S
C449 H437 0.931 . S
C449 C444 1.408 . S
C449 C448 1.400 . S
H450 C456 0.956 . S
H451 C459 0.931 . S
H452 C461 0.931 . S
H453 C463 0.930 . S
H454 C465 0.930 . S
H455 C467 0.919 1_545 S
C456 H450 0.956 . S
C456 C457 1.375 . S
C456 C458 1.375 1_545 S
C457 C456 1.375 . S
C457 C461 1.382 . S
C458 C456 1.375 1_565 S
C458 C459 1.400 . S
C459 H451 0.931 . S
C459 C458 1.400 . S
C459 C460 1.375 . S
C460 C459 1.375 . S
C460 C461 1.415 1_565 S
C460 C462 1.501 . S
C461 H452 0.931 . S
C461 C457 1.382 . S
C461 C460 1.415 1_545 S
C462 C460 1.501 . S
C462 C463 1.384 . S
C462 C467 1.397 . S
C463 H453 0.930 . S
C463 C462 1.384 . S
C463 C464 1.389 . S
C464 C463 1.389 . S
C464 C465 1.405 . S
C465 H454 0.930 . S
C465 C464 1.405 . S
C465 C466 1.376 . S
C466 C465 1.376 . S
C466 C467 1.404 . S
C467 H455 0.919 1_565 S
C467 C462 1.397 . S
C467 C466 1.404 . S
H468 C474 0.918 . S
H469 C477 0.931 . S
H470 C479 0.925 1_545 S
H471 C481 0.930 . S
H472 C483 0.930 . S
H473 C485 0.931 . S
C474 H468 0.918 . S
C474 C475 1.381 . S
C474 C476 1.400 1_545 S
C475 C474 1.381 . S
C475 C479 1.402 1_545 S
C476 C474 1.400 1_565 S
C476 C477 1.400 . S
C477 H469 0.931 . S
C477 C476 1.400 . S
C477 C478 1.375 . S
C478 C477 1.375 . S
C478 C479 1.411 . S
C478 C480 1.501 . S
C479 H470 0.925 1_565 S
C479 C475 1.402 1_565 S
C479 C478 1.411 . S
C480 C478 1.501 . S
C480 C481 1.384 . S
C480 C485 1.408 1_565 S
C481 H471 0.930 . S
C481 C480 1.384 . S
C481 C482 1.389 . S
C482 C481 1.389 . S
C482 C483 1.405 . S
C483 H472 0.930 . S
C483 C482 1.405 . S
C483 C484 1.364 1_565 S
C484 C483 1.364 1_545 S
C484 C485 1.400 . S
C485 H473 0.931 . S
C485 C480 1.408 1_545 S
C485 C484 1.400 . S
H486 C492 0.930 . S
H487 C495 0.931 . S
H488 C497 0.934 1_655 S
H489 C499 0.930 . S
H490 C501 0.930 . S
H491 C503 0.931 . S
C492 H486 0.930 . S
C492 C493 1.393 . S
C492 C494 1.382 1_655 S
C493 C492 1.393 . S
C493 C497 1.354 1_655 S
C494 C492 1.382 1_455 S
C494 C495 1.425 . S
C495 H487 0.931 . S
C495 C494 1.425 . S
C495 C496 1.375 . S
C496 C495 1.375 . S
C496 C497 1.417 . S
C496 C498 1.501 . S
C497 H488 0.934 1_455 S
C497 C493 1.354 1_455 S
C497 C496 1.417 . S
C498 C496 1.501 . S
C498 C499 1.384 . S
C498 C503 1.408 1_455 S
C499 H489 0.930 . S
C499 C498 1.384 . S
C499 C500 1.389 . S
C500 C499 1.389 . S
C500 C501 1.405 . S
C501 H490 0.930 . S
C501 C500 1.405 . S
C501 C502 1.364 1_455 S
C502 C501 1.364 1_655 S
C502 C503 1.400 . S
C503 H491 0.931 . S
C503 C498 1.408 1_655 S
C503 C502 1.400 . S
H504 C510 0.930 . S
H505 C513 0.931 . S
H506 C515 0.931 . S
H507 C517 0.930 . S
H508 C519 0.930 . S
H509 C521 0.931 . S
C510 H504 0.930 . S
C510 C511 1.380 . S
C510 C512 1.394 . S
C511 C510 1.380 . S
C511 C515 1.382 . S
C512 C510 1.394 . S
C512 C513 1.400 . S
C513 H505 0.931 . S
C513 C512 1.400 . S
C513 C514 1.375 . S
C514 C513 1.375 . S
C514 C515 1.415 . S
C514 C516 1.501 . S
C515 H506 0.931 . S
C515 C511 1.382 . S
C515 C514 1.415 . S
C516 C514 1.501 . S
C516 C517 1.384 . S
C516 C521 1.408 . S
C517 H507 0.930 . S
C517 C516 1.384 . S
C517 C518 1.389 . S
C518 C517 1.389 . S
C518 C519 1.405 . S
C519 H508 0.930 . S
C519 C518 1.405 . S
C519 C520 1.364 . S
C520 C519 1.364 . S
C520 C521 1.400 . S
C521 H509 0.931 . S
C521 C516 1.408 . S
C521 C520 1.400 . S
H522 C528 0.930 . S
H523 C531 0.931 . S
H524 C533 0.931 . S
H525 C535 0.930 . S
H526 C537 0.930 . S
H527 C539 0.931 . S
C528 H522 0.930 . S
C528 C529 1.380 . S
C528 C530 1.394 . S
C529 C528 1.380 . S
C529 C533 1.382 . S
C530 C528 1.394 . S
C530 C531 1.400 . S
C531 H523 0.931 . S
C531 C530 1.400 . S
C531 C532 1.375 . S
C532 C531 1.375 . S
C532 C533 1.415 . S
C532 C534 1.501 . S
C533 H524 0.931 . S
C533 C529 1.382 . S
C533 C532 1.415 . S
C534 C532 1.501 . S
C534 C535 1.384 . S
C534 C539 1.408 . S
C535 H525 0.930 . S
C535 C534 1.384 . S
C535 C536 1.389 . S
C536 C535 1.389 . S
C536 C537 1.405 . S
C537 H526 0.930 . S
C537 C536 1.405 . S
C537 C538 1.364 . S
C538 C537 1.364 . S
C538 C539 1.400 . S
C539 H527 0.931 . S
C539 C534 1.408 . S
C539 C538 1.400 . S
H540 C546 0.930 . S
H541 C549 0.931 . S
H542 C551 0.931 . S
H543 C553 0.930 . S
H544 C555 0.930 . S
H545 C557 0.931 . S
C546 H540 0.930 . S
C546 C547 1.380 . S
C546 C548 1.394 . S
C547 C546 1.380 . S
C547 C551 1.382 . S
C548 C546 1.394 . S
C548 C549 1.400 . S
C549 H541 0.931 . S
C549 C548 1.400 . S
C549 C550 1.375 . S
C550 C549 1.375 . S
C550 C551 1.415 . S
C550 C552 1.501 . S
C551 H542 0.931 . S
C551 C547 1.382 . S
C551 C550 1.415 . S
C552 C550 1.501 . S
C552 C553 1.384 . S
C552 C557 1.408 . S
C553 H543 0.930 . S
C553 C552 1.384 . S
C553 C554 1.389 . S
C554 C553 1.389 . S
C554 C555 1.405 . S
C555 H544 0.930 . S
C555 C554 1.405 . S
C555 C556 1.364 . S
C556 C555 1.364 . S
C556 C557 1.400 . S
C557 H545 0.931 . S
C557 C552 1.408 . S
C557 C556 1.400 . S
H558 C564 0.930 . S
H559 C567 0.931 . S
H560 C569 0.931 . S
H561 C571 0.930 . S
H562 C573 0.930 . S
H563 C575 0.931 . S
C564 H558 0.930 . S
C564 C565 1.380 . S
C564 C566 1.394 . S
C565 C564 1.380 . S
C565 C569 1.382 . S
C566 C564 1.394 . S
C566 C567 1.400 . S
C567 H559 0.931 . S
C567 C566 1.400 . S
C567 C568 1.375 . S
C568 C567 1.375 . S
C568 C569 1.415 . S
C568 C570 1.501 . S
C569 H560 0.931 . S
C569 C565 1.382 . S
C569 C568 1.415 . S
C570 C568 1.501 . S
C570 C571 1.384 . S
C570 C575 1.408 . S
C571 H561 0.930 . S
C571 C570 1.384 . S
C571 C572 1.389 . S
C572 C571 1.389 . S
C572 C573 1.405 . S
C573 H562 0.930 . S
C573 C572 1.405 . S
C573 C574 1.364 . S
C574 C573 1.364 . S
C574 C575 1.400 . S
C575 H563 0.931 . S
C575 C570 1.408 . S
C575 C574 1.400 . S
C576 C577 1.363 . S
C576 C582 1.379 . S
C576 N584 1.356 . S
C577 C576 1.363 . S
C577 C583 1.363 1_655 S
C578 C579 1.363 1_455 S
C578 C583 1.379 . S
C578 N585 1.356 . S
C579 C578 1.363 1_655 S
C579 C582 1.363 . S
N580 C582 1.356 . S
N580 H592 0.984 . S
N580 H593 0.985 . S
N581 C583 1.356 . S
N581 H586 0.984 . S
N581 H587 0.985 . S
C582 C576 1.379 . S
C582 C579 1.363 . S
C582 N580 1.356 . S
C583 C577 1.363 1_455 S
C583 C578 1.379 . S
C583 N581 1.356 . S
N584 C576 1.356 . S
N584 H590 0.984 . S
N584 H591 0.984 . S
N585 C578 1.356 . S
N585 H588 0.984 . S
N585 H589 0.985 . S
H586 N581 0.984 . S
H587 N581 0.985 . S
H588 N585 0.984 . S
H589 N585 0.985 . S
H590 N584 0.984 . S
H591 N584 0.984 . S
H592 N580 0.984 . S
H593 N580 0.985 . S
C594 C595 1.363 . S
C594 C600 1.379 . S
C594 N602 1.356 . S
C595 C594 1.363 . S
C595 C601 1.363 . S
C596 C597 1.363 . S
C596 C601 1.379 . S
C596 N603 1.356 . S
C597 C596 1.363 . S
C597 C600 1.363 . S
N598 C600 1.356 . S
N598 H610 0.984 . S
N598 H611 0.985 . S
N599 C601 1.356 . S
N599 H604 0.984 . S
N599 H605 0.985 . S
C600 C594 1.379 . S
C600 C597 1.363 . S
C600 N598 1.356 . S
C601 C595 1.363 . S
C601 C596 1.379 . S
C601 N599 1.356 . S
N602 C594 1.356 . S
N602 H608 0.984 . S
N602 H609 0.984 . S
N603 C596 1.356 . S
N603 H606 0.984 . S
N603 H607 0.985 . S
H604 N599 0.984 . S
H605 N599 0.985 . S
H606 N603 0.984 . S
H607 N603 0.985 . S
H608 N602 0.984 . S
H609 N602 0.984 . S
H610 N598 0.984 . S
H611 N598 0.985 . S
C612 C613 1.363 . S
C612 C618 1.379 . S
C612 N620 1.356 . S
C613 C612 1.363 . S
C613 C619 1.363 1_545 S
C614 C615 1.363 1_565 S
C614 C619 1.379 . S
C614 N621 1.356 . S
C615 C614 1.363 1_545 S
C615 C618 1.363 . S
N616 C618 1.356 . S
N616 H628 0.984 . S
N616 H629 0.985 . S
N617 C619 1.356 . S
N617 H622 0.984 . S
N617 H623 0.985 . S
C618 C612 1.379 . S
C618 C615 1.363 . S
C618 N616 1.356 . S
C619 C613 1.363 1_565 S
C619 C614 1.379 . S
C619 N617 1.356 . S
N620 C612 1.356 . S
N620 H626 0.984 . S
N620 H627 0.984 . S
N621 C614 1.356 . S
N621 H624 0.984 . S
N621 H625 0.985 . S
H622 N617 0.984 . S
H623 N617 0.985 . S
H624 N621 0.984 . S
H625 N621 0.985 . S
H626 N620 0.984 . S
H627 N620 0.984 . S
H628 N616 0.984 . S
H629 N616 0.985 . S
C630 C631 1.363 . S
C630 C636 1.379 . S
C630 N638 1.356 . S
C631 C630 1.363 . S
C631 C637 1.363 1_565 S
C632 C633 1.363 1_545 S
C632 C637 1.379 . S
C632 N639 1.356 . S
C633 C632 1.363 1_565 S
C633 C636 1.363 . S
N634 C636 1.356 . S
N634 H646 0.984 . S
N634 H647 0.985 . S
N635 C637 1.356 . S
N635 H640 0.984 . S
N635 H641 0.985 . S
C636 C630 1.379 . S
C636 C633 1.363 . S
C636 N634 1.356 . S
C637 C631 1.363 1_545 S
C637 C632 1.379 . S
C637 N635 1.356 . S
N638 C630 1.356 . S
N638 H644 0.984 . S
N638 H645 0.984 . S
N639 C632 1.356 . S
N639 H642 0.984 . S
N639 H643 0.985 . S
H640 N635 0.984 . S
H641 N635 0.985 . S
H642 N639 0.984 . S
H643 N639 0.985 . S
H644 N638 0.984 . S
H645 N638 0.984 . S
H646 N634 0.984 . S
H647 N634 0.985 . S
C648 C649 1.365 . S
C648 C654 1.362 . S
C648 N656 1.376 1_455 S
C649 C648 1.365 . S
C649 C655 1.363 . S
C650 C651 1.363 . S
C650 C655 1.379 . S
C650 N657 1.356 . S
C651 C650 1.363 . S
C651 C654 1.363 . S
N652 C654 1.362 . S
N652 H664 0.996 1_455 S
N652 H665 0.970 . S
N653 C655 1.356 . S
N653 H658 0.984 . S
N653 H659 0.985 . S
C654 C648 1.362 . S
C654 C651 1.363 . S
C654 N652 1.362 . S
C655 C649 1.363 . S
C655 C650 1.379 . S
C655 N653 1.356 . S
N656 C648 1.376 1_655 S
N656 H662 0.984 . S
N656 H663 0.984 . S
N657 C650 1.356 . S
N657 H660 0.984 . S
N657 H661 0.985 . S
H658 N653 0.984 . S
H659 N653 0.985 . S
H660 N657 0.984 . S
H661 N657 0.985 . S
H662 N656 0.984 . S
H663 N656 0.984 . S
H664 N652 0.996 1_655 S
H665 N652 0.970 . S
C666 C667 1.363 . S
C666 C672 1.379 . S
C666 N674 1.356 . S
C667 C666 1.363 . S
C667 C673 1.363 . S
C668 C669 1.363 . S
C668 C673 1.379 . S
C668 N675 1.356 . S
C669 C668 1.363 . S
C669 C672 1.363 . S
N670 C672 1.356 . S
N670 H682 0.984 . S
N670 H683 0.985 . S
N671 C673 1.356 . S
N671 H676 0.984 . S
N671 H677 0.985 . S
C672 C666 1.379 . S
C672 C669 1.363 . S
C672 N670 1.356 . S
C673 C667 1.363 . S
C673 C668 1.379 . S
C673 N671 1.356 . S
N674 C666 1.356 . S
N674 H680 0.984 . S
N674 H681 0.984 . S
N675 C668 1.356 . S
N675 H678 0.984 . S
N675 H679 0.985 . S
H676 N671 0.984 . S
H677 N671 0.985 . S
H678 N675 0.984 . S
H679 N675 0.985 . S
H680 N674 0.984 . S
H681 N674 0.984 . S
H682 N670 0.984 . S
H683 N670 0.985 . S
C684 C685 1.363 . S
C684 C690 1.379 . S
C684 N692 1.356 . S
C685 C684 1.363 . S
C685 C691 1.363 1_455 S
C686 C687 1.372 . S
C686 C691 1.379 . S
C686 N693 1.356 . S
C687 C686 1.372 . S
C687 C690 1.359 1_655 S
N688 C690 1.356 . S
N688 H700 0.984 . S
N688 H701 0.985 . S
N689 C691 1.356 . S
N689 H694 0.984 . S
N689 H695 0.985 . S
C690 C684 1.379 . S
C690 C687 1.359 1_455 S
C690 N688 1.356 . S
C691 C685 1.363 1_655 S
C691 C686 1.379 . S
C691 N689 1.356 . S
N692 C684 1.356 . S
N692 H698 0.984 . S
N692 H699 0.984 . S
N693 C686 1.356 . S
N693 H696 0.984 . S
N693 H697 0.985 . S
H694 N689 0.984 . S
H695 N689 0.985 . S
H696 N693 0.984 . S
H697 N693 0.985 . S
H698 N692 0.984 . S
H699 N692 0.984 . S
H700 N688 0.984 . S
H701 N688 0.985 . S
C702 C703 1.363 . S
C702 C708 1.379 . S
C702 N710 1.356 . S
C703 C702 1.363 . S
C703 C709 1.363 . S
C704 C705 1.363 . S
C704 C709 1.379 . S
C704 N711 1.356 . S
C705 C704 1.363 . S
C705 C708 1.363 . S
N706 C708 1.356 . S
N706 H718 0.984 . S
N706 H719 0.985 . S
N707 C709 1.356 . S
N707 H712 0.984 . S
N707 H713 0.985 . S
C708 C702 1.379 . S
C708 C705 1.363 . S
C708 N706 1.356 . S
C709 C703 1.363 . S
C709 C704 1.379 . S
C709 N707 1.356 . S
N710 C702 1.356 . S
N710 H716 0.984 . S
N710 H717 0.984 . S
N711 C704 1.356 . S
N711 H714 0.984 . S
N711 H715 0.985 . S
H712 N707 0.984 . S
H713 N707 0.985 . S
H714 N711 0.984 . S
H715 N711 0.985 . S
H716 N710 0.984 . S
H717 N710 0.984 . S
H718 N706 0.984 . S
H719 N706 0.985 . S
C720 C721 1.363 . S
C720 C726 1.379 . S
C720 N728 1.356 . S
C721 C720 1.363 . S
C721 C727 1.363 1_565 S
C722 C723 1.369 . S
C722 C727 1.379 . S
C722 N729 1.356 . S
C723 C722 1.369 . S
C723 C726 1.352 1_545 S
N724 C726 1.356 . S
N724 H736 0.984 . S
N724 H737 0.985 . S
N725 C727 1.356 . S
N725 H730 0.984 . S
N725 H731 0.985 . S
C726 C720 1.379 . S
C726 C723 1.352 1_565 S
C726 N724 1.356 . S
C727 C721 1.363 1_545 S
C727 C722 1.379 . S
C727 N725 1.356 . S
N728 C720 1.356 . S
N728 H734 0.984 . S
N728 H735 0.984 . S
N729 C722 1.356 . S
N729 H732 0.984 . S
N729 H733 0.985 . S
H730 N725 0.984 . S
H731 N725 0.985 . S
H732 N729 0.984 . S
H733 N729 0.985 . S
H734 N728 0.984 . S
H735 N728 0.984 . S
H736 N724 0.984 . S
H737 N724 0.985 . S
C738 C739 1.363 . S
C738 C744 1.379 . S
C738 N746 1.356 . S
C739 C738 1.363 . S
C739 C745 1.363 1_545 S
C740 C741 1.362 . S
C740 C745 1.379 . S
C740 N747 1.356 . S
C741 C740 1.362 . S
C741 C744 1.363 1_565 S
N742 C744 1.356 . S
N742 H754 0.984 . S
N742 H755 0.985 . S
N743 C745 1.356 . S
N743 H748 0.984 . S
N743 H749 0.985 . S
C744 C738 1.379 . S
C744 C741 1.363 1_545 S
C744 N742 1.356 . S
C745 C739 1.363 1_565 S
C745 C740 1.379 . S
C745 N743 1.356 . S
N746 C738 1.356 . S
N746 H752 0.984 . S
N746 H753 0.984 . S
N747 C740 1.356 . S
N747 H750 0.984 . S
N747 H751 0.985 . S
H748 N743 0.984 . S
H749 N743 0.985 . S
H750 N747 0.984 . S
H751 N747 0.985 . S
H752 N746 0.984 . S
H753 N746 0.984 . S
H754 N742 0.984 . S
H755 N742 0.985 . S
C756 C757 1.363 . S
C756 C762 1.379 . S
C756 N764 1.356 . S
C757 C756 1.363 . S
C757 C763 1.363 1_655 S
C758 C759 1.364 . S
C758 C763 1.379 . S
C758 N765 1.356 . S
C759 C758 1.364 . S
C759 C762 1.359 1_455 S
N760 C762 1.356 . S
N760 H772 0.984 . S
N760 H773 0.985 . S
N761 C763 1.356 . S
N761 H766 0.984 . S
N761 H767 0.985 . S
C762 C756 1.379 . S
C762 C759 1.359 1_655 S
C762 N760 1.356 . S
C763 C757 1.363 1_455 S
C763 C758 1.379 . S
C763 N761 1.356 . S
N764 C756 1.356 . S
N764 H770 0.984 . S
N764 H771 0.984 . S
N765 C758 1.356 . S
N765 H768 0.984 . S
N765 H769 0.985 . S
H766 N761 0.984 . S
H767 N761 0.985 . S
H768 N765 0.984 . S
H769 N765 0.985 . S
H770 N764 0.984 . S
H771 N764 0.984 . S
H772 N760 0.984 . S
H773 N760 0.985 . S
C774 C775 1.363 . S
C774 C780 1.379 . S
C774 N782 1.356 . S
C775 C774 1.363 . S
C775 C781 1.363 . S
C776 C777 1.363 . S
C776 C781 1.379 . S
C776 N783 1.356 . S
C777 C776 1.363 . S
C777 C780 1.363 . S
N778 C780 1.356 . S
N778 H790 0.984 . S
N778 H791 0.985 . S
N779 C781 1.356 . S
N779 H784 0.984 . S
N779 H785 0.985 . S
C780 C774 1.379 . S
C780 C777 1.363 . S
C780 N778 1.356 . S
C781 C775 1.363 . S
C781 C776 1.379 . S
C781 N779 1.356 . S
N782 C774 1.356 . S
N782 H788 0.984 . S
N782 H789 0.984 . S
N783 C776 1.356 . S
N783 H786 0.984 . S
N783 H787 0.985 . S
H784 N779 0.984 . S
H785 N779 0.985 . S
H786 N783 0.984 . S
H787 N783 0.985 . S
H788 N782 0.984 . S
H789 N782 0.984 . S
H790 N778 0.984 . S
H791 N778 0.985 . S
C792 C793 1.363 . S
C792 C798 1.379 . S
C792 N800 1.356 . S
C793 C792 1.363 . S
C793 C799 1.363 . S
C794 C795 1.363 . S
C794 C799 1.379 . S
C794 N801 1.356 . S
C795 C794 1.363 . S
C795 C798 1.363 . S
N796 C798 1.356 . S
N796 H808 0.984 . S
N796 H809 0.985 . S
N797 C799 1.356 . S
N797 H802 0.984 . S
N797 H803 0.985 . S
C798 C792 1.379 . S
C798 C795 1.363 . S
C798 N796 1.356 . S
C799 C793 1.363 . S
C799 C794 1.379 . S
C799 N797 1.356 . S
N800 C792 1.356 . S
N800 H806 0.984 . S
N800 H807 0.984 . S
N801 C794 1.356 . S
N801 H804 0.984 . S
N801 H805 0.985 . S
H802 N797 0.984 . S
H803 N797 0.985 . S
H804 N801 0.984 . S
H805 N801 0.985 . S
H806 N800 0.984 . S
H807 N800 0.984 . S
H808 N796 0.984 . S
H809 N796 0.985 . S
C810 C811 1.363 . S
C810 C816 1.379 . S
C810 N818 1.356 . S
C811 C810 1.363 . S
C811 C817 1.363 . S
C812 C813 1.363 . S
C812 C817 1.379 . S
C812 N819 1.356 . S
C813 C812 1.363 . S
C813 C816 1.363 . S
N814 C816 1.356 . S
N814 H826 0.984 . S
N814 H827 0.985 . S
N815 C817 1.356 . S
N815 H820 0.984 . S
N815 H821 0.985 . S
C816 C810 1.379 . S
C816 C813 1.363 . S
C816 N814 1.356 . S
C817 C811 1.363 . S
C817 C812 1.379 . S
C817 N815 1.356 . S
N818 C810 1.356 . S
N818 H824 0.984 . S
N818 H825 0.984 . S
N819 C812 1.356 . S
N819 H822 0.984 . S
N819 H823 0.985 . S
H820 N815 0.984 . S
H821 N815 0.985 . S
H822 N819 0.984 . S
H823 N819 0.985 . S
H824 N818 0.984 . S
H825 N818 0.984 . S
H826 N814 0.984 . S
H827 N814 0.985 . S
C828 C829 1.363 . S
C828 C834 1.379 . S
C828 N836 1.356 . S
C829 C828 1.363 . S
C829 C835 1.363 . S
C830 C831 1.363 . S
C830 C835 1.379 . S
C830 N837 1.356 . S
C831 C830 1.363 . S
C831 C834 1.363 . S
N832 C834 1.356 . S
N832 H844 0.984 . S
N832 H845 0.985 . S
N833 C835 1.356 . S
N833 H838 0.984 . S
N833 H839 0.985 . S
C834 C828 1.379 . S
C834 C831 1.363 . S
C834 N832 1.356 . S
C835 C829 1.363 . S
C835 C830 1.379 . S
C835 N833 1.356 . S
N836 C828 1.356 . S
N836 H842 0.984 . S
N836 H843 0.984 . S
N837 C830 1.356 . S
N837 H840 0.984 . S
N837 H841 0.985 . S
H838 N833 0.984 . S
H839 N833 0.985 . S
H840 N837 0.984 . S
H841 N837 0.985 . S
H842 N836 0.984 . S
H843 N836 0.984 . S
H844 N832 0.984 . S
H845 N832 0.985 . S
C846 C847 1.363 . S
C846 C852 1.379 . S
C846 N854 1.356 . S
C847 C846 1.363 . S
C847 C853 1.363 . S
C848 C849 1.363 . S
C848 C853 1.379 . S
C848 N855 1.356 . S
C849 C848 1.363 . S
C849 C852 1.363 . S
N850 C852 1.356 . S
N850 H862 0.984 . S
N850 H863 0.985 . S
N851 C853 1.356 . S
N851 H856 0.984 . S
N851 H857 0.985 . S
C852 C846 1.379 . S
C852 C849 1.363 . S
C852 N850 1.356 . S
C853 C847 1.363 . S
C853 C848 1.379 . S
C853 N851 1.356 . S
N854 C846 1.356 . S
N854 H860 0.984 . S
N854 H861 0.984 . S
N855 C848 1.356 . S
N855 H858 0.984 . S
N855 H859 0.985 . S
H856 N851 0.984 . S
H857 N851 0.985 . S
H858 N855 0.984 . S
H859 N855 0.985 . S
H860 N854 0.984 . S
H861 N854 0.984 . S
H862 N850 0.984 . S
H863 N850 0.985 . S
C864 C865 1.363 . S
C864 C870 1.379 . S
C864 N872 1.356 . S
C865 C864 1.363 . S
C865 C871 1.363 . S
C866 C867 1.363 . S
C866 C871 1.379 . S
C866 N873 1.356 . S
C867 C866 1.363 . S
C867 C870 1.363 . S
N868 C870 1.356 . S
N868 H880 0.984 . S
N868 H881 0.985 . S
N869 C871 1.356 . S
N869 H874 0.984 . S
N869 H875 0.985 . S
C870 C864 1.379 . S
C870 C867 1.363 . S
C870 N868 1.356 . S
C871 C865 1.363 . S
C871 C866 1.379 . S
C871 N869 1.356 . S
N872 C864 1.356 . S
N872 H878 0.984 . S
N872 H879 0.984 . S
N873 C866 1.356 . S
N873 H876 0.984 . S
N873 H877 0.985 . S
H874 N869 0.984 . S
H875 N869 0.985 . S
H876 N873 0.984 . S
H877 N873 0.985 . S
H878 N872 0.984 . S
H879 N872 0.984 . S
H880 N868 0.984 . S
H881 N868 0.985 . S
C882 C883 1.363 . S
C882 C888 1.379 . S
C882 N890 1.356 . S
C883 C882 1.363 . S
C883 C889 1.363 . S
C884 C885 1.363 . S
C884 C889 1.379 . S
C884 N891 1.356 . S
C885 C884 1.363 . S
C885 C888 1.363 . S
N886 C888 1.356 . S
N886 H898 0.984 . S
N886 H899 0.985 . S
N887 C889 1.356 . S
N887 H892 0.984 . S
N887 H893 0.985 . S
C888 C882 1.379 . S
C888 C885 1.363 . S
C888 N886 1.356 . S
C889 C883 1.363 . S
C889 C884 1.379 . S
C889 N887 1.356 . S
N890 C882 1.356 . S
N890 H896 0.984 . S
N890 H897 0.984 . S
N891 C884 1.356 . S
N891 H894 0.984 . S
N891 H895 0.985 . S
H892 N887 0.984 . S
H893 N887 0.985 . S
H894 N891 0.984 . S
H895 N891 0.985 . S
H896 N890 0.984 . S
H897 N890 0.984 . S
H898 N886 0.984 . S
H899 N886 0.985 . S
C900 C901 1.363 . S
C900 C906 1.379 . S
C900 N908 1.356 . S
C901 C900 1.363 . S
C901 C907 1.363 . S
C902 C903 1.363 . S
C902 C907 1.379 . S
C902 N909 1.356 . S
C903 C902 1.363 . S
C903 C906 1.363 . S
N904 C906 1.356 . S
N904 H916 0.984 . S
N904 H917 0.985 . S
N905 C907 1.356 . S
N905 H910 0.984 . S
N905 H911 0.985 . S
C906 C900 1.379 . S
C906 C903 1.363 . S
C906 N904 1.356 . S
C907 C901 1.363 . S
C907 C902 1.379 . S
C907 N905 1.356 . S
N908 C900 1.356 . S
N908 H914 0.984 . S
N908 H915 0.984 . S
N909 C902 1.356 . S
N909 H912 0.984 . S
N909 H913 0.985 . S
H910 N905 0.984 . S
H911 N905 0.985 . S
H912 N909 0.984 . S
H913 N909 0.985 . S
H914 N908 0.984 . S
H915 N908 0.984 . S
H916 N904 0.984 . S
H917 N904 0.985 . S
C918 C919 1.363 . S
C918 C924 1.379 . S
C918 N926 1.356 . S
C919 C918 1.363 . S
C919 C925 1.363 . S
C920 C921 1.363 . S
C920 C925 1.379 . S
C920 N927 1.356 . S
C921 C920 1.363 . S
C921 C924 1.363 . S
N922 C924 1.356 . S
N922 H934 0.984 . S
N922 H935 0.985 . S
N923 C925 1.356 . S
N923 H928 0.984 . S
N923 H929 0.985 . S
C924 C918 1.379 . S
C924 C921 1.363 . S
C924 N922 1.356 . S
C925 C919 1.363 . S
C925 C920 1.379 . S
C925 N923 1.356 . S
N926 C918 1.356 . S
N926 H932 0.984 . S
N926 H933 0.984 . S
N927 C920 1.356 . S
N927 H930 0.984 . S
N927 H931 0.985 . S
H928 N923 0.984 . S
H929 N923 0.985 . S
H930 N927 0.984 . S
H931 N927 0.985 . S
H932 N926 0.984 . S
H933 N926 0.984 . S
H934 N922 0.984 . S
H935 N922 0.985 . S
C936 C937 1.363 . S
C936 C942 1.379 . S
C936 N944 1.356 . S
C937 C936 1.363 . S
C937 C943 1.363 . S
C938 C939 1.363 . S
C938 C943 1.379 . S
C938 N945 1.356 . S
C939 C938 1.363 . S
C939 C942 1.363 . S
N940 C942 1.356 . S
N940 H952 0.984 . S
N940 H953 0.985 . S
N941 C943 1.356 . S
N941 H946 0.984 . S
N941 H947 0.985 . S
C942 C936 1.379 . S
C942 C939 1.363 . S
C942 N940 1.356 . S
C943 C937 1.363 . S
C943 C938 1.379 . S
C943 N941 1.356 . S
N944 C936 1.356 . S
N944 H950 0.984 . S
N944 H951 0.984 . S
N945 C938 1.356 . S
N945 H948 0.984 . S
N945 H949 0.985 . S
H946 N941 0.984 . S
H947 N941 0.985 . S
H948 N945 0.984 . S
H949 N945 0.985 . S
H950 N944 0.984 . S
H951 N944 0.984 . S
H952 N940 0.984 . S
H953 N940 0.985 . S
C954 C955 1.363 . S
C954 C960 1.379 . S
C954 N962 1.356 . S
C955 C954 1.363 . S
C955 C961 1.363 . S
C956 C957 1.363 . S
C956 C961 1.379 . S
C956 N963 1.356 . S
C957 C956 1.363 . S
C957 C960 1.363 . S
N958 C960 1.356 . S
N958 H970 0.984 . S
N958 H971 0.985 . S
N959 C961 1.356 . S
N959 H964 0.984 . S
N959 H965 0.985 . S
C960 C954 1.379 . S
C960 C957 1.363 . S
C960 N958 1.356 . S
C961 C955 1.363 . S
C961 C956 1.379 . S
C961 N959 1.356 . S
N962 C954 1.356 . S
N962 H968 0.984 . S
N962 H969 0.984 . S
N963 C956 1.356 . S
N963 H966 0.984 . S
N963 H967 0.985 . S
H964 N959 0.984 . S
H965 N959 0.985 . S
H966 N963 0.984 . S
H967 N963 0.985 . S
H968 N962 0.984 . S
H969 N962 0.984 . S
H970 N958 0.984 . S
H971 N958 0.985 . S
C972 C973 1.363 . S
C972 C978 1.379 . S
C972 N980 1.356 . S
C973 C972 1.363 . S
C973 C979 1.363 . S
C974 C975 1.363 . S
C974 C979 1.379 . S
C974 N981 1.356 . S
C975 C974 1.363 . S
C975 C978 1.363 . S
N976 C978 1.356 . S
N976 H988 0.984 . S
N976 H989 0.985 . S
N977 C979 1.356 . S
N977 H982 0.984 . S
N977 H983 0.985 . S
C978 C972 1.379 . S
C978 C975 1.363 . S
C978 N976 1.356 . S
C979 C973 1.363 . S
C979 C974 1.379 . S
C979 N977 1.356 . S
N980 C972 1.356 . S
N980 H986 0.984 . S
N980 H987 0.984 . S
N981 C974 1.356 . S
N981 H984 0.984 . S
N981 H985 0.985 . S
H982 N977 0.984 . S
H983 N977 0.985 . S
H984 N981 0.984 . S
H985 N981 0.985 . S
H986 N980 0.984 . S
H987 N980 0.984 . S
H988 N976 0.984 . S
H989 N976 0.985 . S
C990 C991 1.363 . S
C990 C996 1.379 . S
C990 N998 1.356 . S
C991 C990 1.363 . S
C991 C997 1.363 . S
C992 C993 1.363 . S
C992 C997 1.379 . S
C992 N999 1.356 . S
C993 C992 1.363 . S
C993 C996 1.363 . S
N994 C996 1.356 . S
N994 H1006 0.984 . S
N994 H1007 0.985 . S
N995 C997 1.356 . S
N995 H1000 0.984 . S
N995 H1001 0.985 . S
C996 C990 1.379 . S
C996 C993 1.363 . S
C996 N994 1.356 . S
C997 C991 1.363 . S
C997 C992 1.379 . S
C997 N995 1.356 . S
N998 C990 1.356 . S
N998 H1004 0.984 . S
N998 H1005 0.984 . S
N999 C992 1.356 . S
N999 H1002 0.984 . S
N999 H1003 0.985 . S
H1000 N995 0.984 . S
H1001 N995 0.985 . S
H1002 N999 0.984 . S
H1003 N999 0.985 . S
H1004 N998 0.984 . S
H1005 N998 0.984 . S
H1006 N994 0.984 . S
H1007 N994 0.985 . S
C1008 C1009 1.363 . S
C1008 C1014 1.379 . S
C1008 N1016 1.356 . S
C1009 C1008 1.363 . S
C1009 C1015 1.363 . S
C1010 C1011 1.363 . S
C1010 C1015 1.379 . S
C1010 N1017 1.356 . S
C1011 C1010 1.363 . S
C1011 C1014 1.363 . S
N1012 C1014 1.356 . S
N1012 H1024 0.984 . S
N1012 H1025 0.985 . S
N1013 C1015 1.356 . S
N1013 H1018 0.984 . S
N1013 H1019 0.985 . S
C1014 C1008 1.379 . S
C1014 C1011 1.363 . S
C1014 N1012 1.356 . S
C1015 C1009 1.363 . S
C1015 C1010 1.379 . S
C1015 N1013 1.356 . S
N1016 C1008 1.356 . S
N1016 H1022 0.984 . S
N1016 H1023 0.984 . S
N1017 C1010 1.356 . S
N1017 H1020 0.984 . S
N1017 H1021 0.985 . S
H1018 N1013 0.984 . S
H1019 N1013 0.985 . S
H1020 N1017 0.984 . S
H1021 N1017 0.985 . S
H1022 N1016 0.984 . S
H1023 N1016 0.984 . S
H1024 N1012 0.984 . S
H1025 N1012 0.985 . S
C1026 C1027 1.363 . S
C1026 C1032 1.379 . S
C1026 N1034 1.356 . S
C1027 C1026 1.363 . S
C1027 C1033 1.363 . S
C1028 C1029 1.363 . S
C1028 C1033 1.379 . S
C1028 N1035 1.356 . S
C1029 C1028 1.363 . S
C1029 C1032 1.363 . S
N1030 C1032 1.356 . S
N1030 H1042 0.984 . S
N1030 H1043 0.985 . S
N1031 C1033 1.356 . S
N1031 H1036 0.984 . S
N1031 H1037 0.985 . S
C1032 C1026 1.379 . S
C1032 C1029 1.363 . S
C1032 N1030 1.356 . S
C1033 C1027 1.363 . S
C1033 C1028 1.379 . S
C1033 N1031 1.356 . S
N1034 C1026 1.356 . S
N1034 H1040 0.984 . S
N1034 H1041 0.984 . S
N1035 C1028 1.356 . S
N1035 H1038 0.984 . S
N1035 H1039 0.985 . S
H1036 N1031 0.984 . S
H1037 N1031 0.985 . S
H1038 N1035 0.984 . S
H1039 N1035 0.985 . S
H1040 N1034 0.984 . S
H1041 N1034 0.984 . S
H1042 N1030 0.984 . S
H1043 N1030 0.985 . S
C1044 C1045 1.363 . S
C1044 C1050 1.379 . S
C1044 N1052 1.356 . S
C1045 C1044 1.363 . S
C1045 C1051 1.363 . S
C1046 C1047 1.363 . S
C1046 C1051 1.379 . S
C1046 N1053 1.356 . S
C1047 C1046 1.363 . S
C1047 C1050 1.363 . S
N1048 C1050 1.356 . S
N1048 H1060 0.984 . S
N1048 H1061 0.985 . S
N1049 C1051 1.356 . S
N1049 H1054 0.984 . S
N1049 H1055 0.985 . S
C1050 C1044 1.379 . S
C1050 C1047 1.363 . S
C1050 N1048 1.356 . S
C1051 C1045 1.363 . S
C1051 C1046 1.379 . S
C1051 N1049 1.356 . S
N1052 C1044 1.356 . S
N1052 H1058 0.984 . S
N1052 H1059 0.984 . S
N1053 C1046 1.356 . S
N1053 H1056 0.984 . S
N1053 H1057 0.985 . S
H1054 N1049 0.984 . S
H1055 N1049 0.985 . S
H1056 N1053 0.984 . S
H1057 N1053 0.985 . S
H1058 N1052 0.984 . S
H1059 N1052 0.984 . S
H1060 N1048 0.984 . S
H1061 N1048 0.985 . S
C1062 C1063 1.363 . S
C1062 C1068 1.379 . S
C1062 N1070 1.356 . S
C1063 C1062 1.363 . S
C1063 C1069 1.363 . S
C1064 C1065 1.363 . S
C1064 C1069 1.379 . S
C1064 N1071 1.356 . S
C1065 C1064 1.363 . S
C1065 C1068 1.363 . S
N1066 C1068 1.356 . S
N1066 H1078 0.984 . S
N1066 H1079 0.985 . S
N1067 C1069 1.356 . S
N1067 H1072 0.984 . S
N1067 H1073 0.985 . S
C1068 C1062 1.379 . S
C1068 C1065 1.363 . S
C1068 N1066 1.356 . S
C1069 C1063 1.363 . S
C1069 C1064 1.379 . S
C1069 N1067 1.356 . S
N1070 C1062 1.356 . S
N1070 H1076 0.984 . S
N1070 H1077 0.984 . S
N1071 C1064 1.356 . S
N1071 H1074 0.984 . S
N1071 H1075 0.985 . S
H1072 N1067 0.984 . S
H1073 N1067 0.985 . S
H1074 N1071 0.984 . S
H1075 N1071 0.985 . S
H1076 N1070 0.984 . S
H1077 N1070 0.984 . S
H1078 N1066 0.984 . S
H1079 N1066 0.985 . S
C1080 C1081 1.363 . S
C1080 C1086 1.379 . S
C1080 N1088 1.356 . S
C1081 C1080 1.363 . S
C1081 C1087 1.363 . S
C1082 C1083 1.363 . S
C1082 C1087 1.379 . S
C1082 N1089 1.356 . S
C1083 C1082 1.363 . S
C1083 C1086 1.363 . S
N1084 C1086 1.356 . S
N1084 H1096 0.984 . S
N1084 H1097 0.985 . S
N1085 C1087 1.356 . S
N1085 H1090 0.984 . S
N1085 H1091 0.985 . S
C1086 C1080 1.379 . S
C1086 C1083 1.363 . S
C1086 N1084 1.356 . S
C1087 C1081 1.363 . S
C1087 C1082 1.379 . S
C1087 N1085 1.356 . S
N1088 C1080 1.356 . S
N1088 H1094 0.984 . S
N1088 H1095 0.984 . S
N1089 C1082 1.356 . S
N1089 H1092 0.984 . S
N1089 H1093 0.985 . S
H1090 N1085 0.984 . S
H1091 N1085 0.985 . S
H1092 N1089 0.984 . S
H1093 N1089 0.985 . S
H1094 N1088 0.984 . S
H1095 N1088 0.984 . S
H1096 N1084 0.984 . S
H1097 N1084 0.985 . S
C1098 C1099 1.363 . S
C1098 C1104 1.379 . S
C1098 N1106 1.356 . S
C1099 C1098 1.363 . S
C1099 C1105 1.363 . S
C1100 C1101 1.363 . S
C1100 C1105 1.379 . S
C1100 N1107 1.356 . S
C1101 C1100 1.363 . S
C1101 C1104 1.363 . S
N1102 C1104 1.356 . S
N1102 H1114 0.984 . S
N1102 H1115 0.985 . S
N1103 C1105 1.356 . S
N1103 H1108 0.984 . S
N1103 H1109 0.985 . S
C1104 C1098 1.379 . S
C1104 C1101 1.363 . S
C1104 N1102 1.356 . S
C1105 C1099 1.363 . S
C1105 C1100 1.379 . S
C1105 N1103 1.356 . S
N1106 C1098 1.356 . S
N1106 H1112 0.984 . S
N1106 H1113 0.984 . S
N1107 C1100 1.356 . S
N1107 H1110 0.984 . S
N1107 H1111 0.985 . S
H1108 N1103 0.984 . S
H1109 N1103 0.985 . S
H1110 N1107 0.984 . S
H1111 N1107 0.985 . S
H1112 N1106 0.984 . S
H1113 N1106 0.984 . S
H1114 N1102 0.984 . S
H1115 N1102 0.985 . S
C1116 C1117 1.363 . S
C1116 C1122 1.379 . S
C1116 N1124 1.356 . S
C1117 C1116 1.363 . S
C1117 C1123 1.363 . S
C1118 C1119 1.363 . S
C1118 C1123 1.379 . S
C1118 N1125 1.356 . S
C1119 C1118 1.363 . S
C1119 C1122 1.363 . S
N1120 C1122 1.356 . S
N1120 H1132 0.984 . S
N1120 H1133 0.985 . S
N1121 C1123 1.356 . S
N1121 H1126 0.984 . S
N1121 H1127 0.985 . S
C1122 C1116 1.379 . S
C1122 C1119 1.363 . S
C1122 N1120 1.356 . S
C1123 C1117 1.363 . S
C1123 C1118 1.379 . S
C1123 N1121 1.356 . S
N1124 C1116 1.356 . S
N1124 H1130 0.984 . S
N1124 H1131 0.984 . S
N1125 C1118 1.356 . S
N1125 H1128 0.984 . S
N1125 H1129 0.985 . S
H1126 N1121 0.984 . S
H1127 N1121 0.985 . S
H1128 N1125 0.984 . S
H1129 N1125 0.985 . S
H1130 N1124 0.984 . S
H1131 N1124 0.984 . S
H1132 N1120 0.984 . S
H1133 N1120 0.985 . S
C1134 C1135 1.363 . S
C1134 C1140 1.379 . S
C1134 N1142 1.356 . S
C1135 C1134 1.363 . S
C1135 C1141 1.363 . S
C1136 C1137 1.363 . S
C1136 C1141 1.379 . S
C1136 N1143 1.356 . S
C1137 C1136 1.363 . S
C1137 C1140 1.363 . S
N1138 C1140 1.356 . S
N1138 H1150 0.984 . S
N1138 H1151 0.985 . S
N1139 C1141 1.356 . S
N1139 H1144 0.984 . S
N1139 H1145 0.985 . S
C1140 C1134 1.379 . S
C1140 C1137 1.363 . S
C1140 N1138 1.356 . S
C1141 C1135 1.363 . S
C1141 C1136 1.379 . S
C1141 N1139 1.356 . S
N1142 C1134 1.356 . S
N1142 H1148 0.984 . S
N1142 H1149 0.984 . S
N1143 C1136 1.356 . S
N1143 H1146 0.984 . S
N1143 H1147 0.985 . S
H1144 N1139 0.984 . S
H1145 N1139 0.985 . S
H1146 N1143 0.984 . S
H1147 N1143 0.985 . S
H1148 N1142 0.984 . S
H1149 N1142 0.984 . S
H1150 N1138 0.984 . S
H1151 N1138 0.985 . S
C1152 C1153 1.363 . S
C1152 C1158 1.379 . S
C1152 N1160 1.356 . S
C1153 C1152 1.363 . S
C1153 C1159 1.363 . S
C1154 C1155 1.363 . S
C1154 C1159 1.379 . S
C1154 N1161 1.356 . S
C1155 C1154 1.363 . S
C1155 C1158 1.363 . S
N1156 C1158 1.356 . S
N1156 H1168 0.984 . S
N1156 H1169 0.985 . S
N1157 C1159 1.356 . S
N1157 H1162 0.984 . S
N1157 H1163 0.985 . S
C1158 C1152 1.379 . S
C1158 C1155 1.363 . S
C1158 N1156 1.356 . S
C1159 C1153 1.363 . S
C1159 C1154 1.379 . S
C1159 N1157 1.356 . S
N1160 C1152 1.356 . S
N1160 H1166 0.984 . S
N1160 H1167 0.984 . S
N1161 C1154 1.356 . S
N1161 H1164 0.984 . S
N1161 H1165 0.985 . S
H1162 N1157 0.984 . S
H1163 N1157 0.985 . S
H1164 N1161 0.984 . S
H1165 N1161 0.985 . S
H1166 N1160 0.984 . S
H1167 N1160 0.984 . S
H1168 N1156 0.984 . S
H1169 N1156 0.985 . S
C1170 C1171 1.363 . S
C1170 C1176 1.379 . S
C1170 N1178 1.356 . S
C1171 C1170 1.363 . S
C1171 C1177 1.363 . S
C1172 C1173 1.363 . S
C1172 C1177 1.379 . S
C1172 N1179 1.356 . S
C1173 C1172 1.363 . S
C1173 C1176 1.363 . S
N1174 C1176 1.356 . S
N1174 H1186 0.984 . S
N1174 H1187 0.985 . S
N1175 C1177 1.356 . S
N1175 H1180 0.984 . S
N1175 H1181 0.985 . S
C1176 C1170 1.379 . S
C1176 C1173 1.363 . S
C1176 N1174 1.356 . S
C1177 C1171 1.363 . S
C1177 C1172 1.379 . S
C1177 N1175 1.356 . S
N1178 C1170 1.356 . S
N1178 H1184 0.984 . S
N1178 H1185 0.984 . S
N1179 C1172 1.356 . S
N1179 H1182 0.984 . S
N1179 H1183 0.985 . S
H1180 N1175 0.984 . S
H1181 N1175 0.985 . S
H1182 N1179 0.984 . S
H1183 N1179 0.985 . S
H1184 N1178 0.984 . S
H1185 N1178 0.984 . S
H1186 N1174 0.984 . S
H1187 N1174 0.985 . S
C1188 C1189 1.363 . S
C1188 C1194 1.379 . S
C1188 N1196 1.356 . S
C1189 C1188 1.363 . S
C1189 C1195 1.363 . S
C1190 C1191 1.363 . S
C1190 C1195 1.379 . S
C1190 N1197 1.356 . S
C1191 C1190 1.363 . S
C1191 C1194 1.363 . S
N1192 C1194 1.356 . S
N1192 H1204 0.984 . S
N1192 H1205 0.985 . S
N1193 C1195 1.356 . S
N1193 H1198 0.984 . S
N1193 H1199 0.985 . S
C1194 C1188 1.379 . S
C1194 C1191 1.363 . S
C1194 N1192 1.356 . S
C1195 C1189 1.363 . S
C1195 C1190 1.379 . S
C1195 N1193 1.356 . S
N1196 C1188 1.356 . S
N1196 H1202 0.984 . S
N1196 H1203 0.984 . S
N1197 C1190 1.356 . S
N1197 H1200 0.984 . S
N1197 H1201 0.985 . S
H1198 N1193 0.984 . S
H1199 N1193 0.985 . S
H1200 N1197 0.984 . S
H1201 N1197 0.985 . S
H1202 N1196 0.984 . S
H1203 N1196 0.984 . S
H1204 N1192 0.984 . S
H1205 N1192 0.985 . S
C1206 C1207 1.363 . S
C1206 C1212 1.379 . S
C1206 N1214 1.356 . S
C1207 C1206 1.363 . S
C1207 C1213 1.363 . S
C1208 C1209 1.363 . S
C1208 C1213 1.379 . S
C1208 N1215 1.356 . S
C1209 C1208 1.363 . S
C1209 C1212 1.363 . S
N1210 C1212 1.356 . S
N1210 H1222 0.984 . S
N1210 H1223 0.985 . S
N1211 C1213 1.356 . S
N1211 H1216 0.984 . S
N1211 H1217 0.985 . S
C1212 C1206 1.379 . S
C1212 C1209 1.363 . S
C1212 N1210 1.356 . S
C1213 C1207 1.363 . S
C1213 C1208 1.379 . S
C1213 N1211 1.356 . S
N1214 C1206 1.356 . S
N1214 H1220 0.984 . S
N1214 H1221 0.984 . S
N1215 C1208 1.356 . S
N1215 H1218 0.984 . S
N1215 H1219 0.985 . S
H1216 N1211 0.984 . S
H1217 N1211 0.985 . S
H1218 N1215 0.984 . S
H1219 N1215 0.985 . S
H1220 N1214 0.984 . S
H1221 N1214 0.984 . S
H1222 N1210 0.984 . S
H1223 N1210 0.985 . S
C1224 C1225 1.363 . S
C1224 C1230 1.379 . S
C1224 N1232 1.356 . S
C1225 C1224 1.363 . S
C1225 C1231 1.363 . S
C1226 C1227 1.363 . S
C1226 C1231 1.379 . S
C1226 N1233 1.356 . S
C1227 C1226 1.363 . S
C1227 C1230 1.363 . S
N1228 C1230 1.356 . S
N1228 H1240 0.984 . S
N1228 H1241 0.985 . S
N1229 C1231 1.356 . S
N1229 H1234 0.984 1_554 S
N1229 H1235 0.985 1_554 S
C1230 C1224 1.379 . S
C1230 C1227 1.363 . S
C1230 N1228 1.356 . S
C1231 C1225 1.363 . S
C1231 C1226 1.379 . S
C1231 N1229 1.356 . S
N1232 C1224 1.356 . S
N1232 H1238 0.984 . S
N1232 H1239 0.984 . S
N1233 C1226 1.356 . S
N1233 H1236 0.984 . S
N1233 H1237 0.985 . S
H1234 N1229 0.984 1_556 S
H1235 N1229 0.985 1_556 S
H1236 N1233 0.984 . S
H1237 N1233 0.985 . S
H1238 N1232 0.984 . S
H1239 N1232 0.984 . S
H1240 N1228 0.984 . S
H1241 N1228 0.985 . S
C1242 C1243 1.363 . S
C1242 C1248 1.379 . S
C1242 N1250 1.356 . S
C1243 C1242 1.363 . S
C1243 C1249 1.363 . S
C1244 C1245 1.363 . S
C1244 C1249 1.379 . S
C1244 N1251 1.356 . S
C1245 C1244 1.363 . S
C1245 C1248 1.363 . S
N1246 C1248 1.356 . S
N1246 H1258 0.984 . S
N1246 H1259 0.985 . S
N1247 C1249 1.356 . S
N1247 H1252 0.984 . S
N1247 H1253 0.984 . S
C1248 C1242 1.379 . S
C1248 C1245 1.363 . S
C1248 N1246 1.356 . S
C1249 C1243 1.363 . S
C1249 C1244 1.379 . S
C1249 N1247 1.356 . S
N1250 C1242 1.356 . S
N1250 H1256 0.984 . S
N1250 H1257 0.984 . S
N1251 C1244 1.356 . S
N1251 H1254 0.984 . S
N1251 H1255 0.985 . S
H1252 N1247 0.984 . S
H1253 N1247 0.984 . S
H1254 N1251 0.984 . S
H1255 N1251 0.985 . S
H1256 N1250 0.984 . S
H1257 N1250 0.984 . S
H1258 N1246 0.984 . S
H1259 N1246 0.985 . S
C1260 C1261 1.363 . S
C1260 C1266 1.379 . S
C1260 N1268 1.356 . S
C1261 C1260 1.363 . S
C1261 C1267 1.363 . S
C1262 C1263 1.363 . S
C1262 C1267 1.379 . S
C1262 N1269 1.356 . S
C1263 C1262 1.363 . S
C1263 C1266 1.363 . S
N1264 C1266 1.356 . S
N1264 H1276 0.984 . S
N1264 H1277 0.985 . S
N1265 C1267 1.356 . S
N1265 H1270 0.984 1_554 S
N1265 H1271 0.985 1_554 S
C1266 C1260 1.379 . S
C1266 C1263 1.363 . S
C1266 N1264 1.356 . S
C1267 C1261 1.363 . S
C1267 C1262 1.379 . S
C1267 N1265 1.356 . S
N1268 C1260 1.356 . S
N1268 H1274 0.984 . S
N1268 H1275 0.984 . S
N1269 C1262 1.356 . S
N1269 H1272 0.984 . S
N1269 H1273 0.985 . S
H1270 N1265 0.984 1_556 S
H1271 N1265 0.985 1_556 S
H1272 N1269 0.984 . S
H1273 N1269 0.985 . S
H1274 N1268 0.984 . S
H1275 N1268 0.984 . S
H1276 N1264 0.984 . S
H1277 N1264 0.985 . S
C1278 C1279 1.363 . S
C1278 C1284 1.379 . S
C1278 N1286 1.356 . S
C1279 C1278 1.363 . S
C1279 C1285 1.363 . S
C1280 C1281 1.363 . S
C1280 C1285 1.379 . S
C1280 N1287 1.356 . S
C1281 C1280 1.363 . S
C1281 C1284 1.363 . S
N1282 C1284 1.356 . S
N1282 H1294 0.984 . S
N1282 H1295 0.985 . S
N1283 C1285 1.356 1_554 S
N1283 H1288 0.984 . S
N1283 H1289 0.985 . S
C1284 C1278 1.379 . S
C1284 C1281 1.363 . S
C1284 N1282 1.356 . S
C1285 C1279 1.363 . S
C1285 C1280 1.379 . S
C1285 N1283 1.356 1_556 S
N1286 C1278 1.356 . S
N1286 H1292 0.984 . S
N1286 H1293 0.984 . S
N1287 C1280 1.356 . S
N1287 H1290 0.984 . S
N1287 H1291 0.985 1_556 S
H1288 N1283 0.984 . S
H1289 N1283 0.985 . S
H1290 N1287 0.984 . S
H1291 N1287 0.985 1_554 S
H1292 N1286 0.984 . S
H1293 N1286 0.984 . S
H1294 N1282 0.984 . S
H1295 N1282 0.985 . S
C1296 C1297 1.363 . S
C1296 C1302 1.379 . S
C1296 N1304 1.356 1_556 S
C1297 C1296 1.363 . S
C1297 C1303 1.363 . S
C1298 C1299 1.363 . S
C1298 C1303 1.379 . S
C1298 N1305 1.356 . S
C1299 C1298 1.363 . S
C1299 C1302 1.363 . S
N1300 C1302 1.356 . S
N1300 H1312 0.984 . S
N1300 H1313 0.985 . S
N1301 C1303 1.356 . S
N1301 H1306 0.984 . S
N1301 H1307 0.985 . S
C1302 C1296 1.379 . S
C1302 C1299 1.363 . S
C1302 N1300 1.356 . S
C1303 C1297 1.363 . S
C1303 C1298 1.379 . S
C1303 N1301 1.356 . S
N1304 C1296 1.356 1_554 S
N1304 H1310 0.984 . S
N1304 H1311 0.984 . S
N1305 C1298 1.356 . S
N1305 H1308 0.984 . S
N1305 H1309 0.985 . S
H1306 N1301 0.984 . S
H1307 N1301 0.985 . S
H1308 N1305 0.984 . S
H1309 N1305 0.985 . S
H1310 N1304 0.984 . S
H1311 N1304 0.984 . S
H1312 N1300 0.984 . S
H1313 N1300 0.985 . S
C1314 C1315 1.363 . S
C1314 C1320 1.379 . S
C1314 N1322 1.356 . S
C1315 C1314 1.363 . S
C1315 C1321 1.363 . S
C1316 C1317 1.363 . S
C1316 C1321 1.379 . S
C1316 N1323 1.356 . S
C1317 C1316 1.363 . S
C1317 C1320 1.363 . S
N1318 C1320 1.356 . S
N1318 H1330 0.984 . S
N1318 H1331 0.985 . S
N1319 C1321 1.356 . S
N1319 H1324 0.984 . S
N1319 H1325 0.985 . S
C1320 C1314 1.379 . S
C1320 C1317 1.363 . S
C1320 N1318 1.356 . S
C1321 C1315 1.363 . S
C1321 C1316 1.379 . S
C1321 N1319 1.356 . S
N1322 C1314 1.356 . S
N1322 H1328 0.984 1_556 S
N1322 H1329 0.983 1_556 S
N1323 C1316 1.356 . S
N1323 H1326 0.984 . S
N1323 H1327 0.985 . S
H1324 N1319 0.984 . S
H1325 N1319 0.985 . S
H1326 N1323 0.984 . S
H1327 N1323 0.985 . S
H1328 N1322 0.984 1_554 S
H1329 N1322 0.983 1_554 S
H1330 N1318 0.984 . S
H1331 N1318 0.985 . S
C1332 C1333 1.363 . S
C1332 C1338 1.379 . S
C1332 N1340 1.356 . S
C1333 C1332 1.363 . S
C1333 C1339 1.363 . S
C1334 C1335 1.363 . S
C1334 C1339 1.379 . S
C1334 N1341 1.356 . S
C1335 C1334 1.363 . S
C1335 C1338 1.363 . S
N1336 C1338 1.356 . S
N1336 H1348 0.984 . S
N1336 H1349 0.985 . S
N1337 C1339 1.356 1_554 S
N1337 H1342 0.984 . S
N1337 H1343 0.985 . S
C1338 C1332 1.379 . S
C1338 C1335 1.363 . S
C1338 N1336 1.356 . S
C1339 C1333 1.363 . S
C1339 C1334 1.379 . S
C1339 N1337 1.356 1_556 S
N1340 C1332 1.356 . S
N1340 H1346 0.984 . S
N1340 H1347 0.984 . S
N1341 C1334 1.356 . S
N1341 H1344 0.984 . S
N1341 H1345 0.985 1_556 S
H1342 N1337 0.984 . S
H1343 N1337 0.985 . S
H1344 N1341 0.984 . S
H1345 N1341 0.985 1_554 S
H1346 N1340 0.984 . S
H1347 N1340 0.984 . S
H1348 N1336 0.984 . S
H1349 N1336 0.985 . S
C1350 C1351 1.363 . S
C1350 C1356 1.379 . S
C1350 N1358 1.356 . S
C1351 C1350 1.363 . S
C1351 C1357 1.363 . S
C1352 C1353 1.363 . S
C1352 C1357 1.379 . S
C1352 N1359 1.356 . S
C1353 C1352 1.363 . S
C1353 C1356 1.363 . S
N1354 C1356 1.356 . S
N1354 H1366 0.984 . S
N1354 H1367 0.985 . S
N1355 C1357 1.356 1_554 S
N1355 H1360 0.984 . S
N1355 H1361 0.985 . S
C1356 C1350 1.379 . S
C1356 C1353 1.363 . S
C1356 N1354 1.356 . S
C1357 C1351 1.363 . S
C1357 C1352 1.379 . S
C1357 N1355 1.356 1_556 S
N1358 C1350 1.356 . S
N1358 H1364 0.984 . S
N1358 H1365 0.984 . S
N1359 C1352 1.356 . S
N1359 H1362 0.984 . S
N1359 H1363 0.985 1_556 S
H1360 N1355 0.984 . S
H1361 N1355 0.985 . S
H1362 N1359 0.984 . S
H1363 N1359 0.985 1_554 S
H1364 N1358 0.984 . S
H1365 N1358 0.984 . S
H1366 N1354 0.984 . S
H1367 N1354 0.985 . S
C1368 C1369 1.363 . S
C1368 C1374 1.379 . S
C1368 N1376 1.356 1_556 S
C1369 C1368 1.363 . S
C1369 C1375 1.363 . S
C1370 C1371 1.363 . S
C1370 C1375 1.379 . S
C1370 N1377 1.356 . S
C1371 C1370 1.363 . S
C1371 C1374 1.363 . S
N1372 C1374 1.356 . S
N1372 H1384 0.984 . S
N1372 H1385 0.985 . S
N1373 C1375 1.356 . S
N1373 H1378 0.984 . S
N1373 H1379 0.985 . S
C1374 C1368 1.379 . S
C1374 C1371 1.363 . S
C1374 N1372 1.356 . S
C1375 C1369 1.363 . S
C1375 C1370 1.379 . S
C1375 N1373 1.356 . S
N1376 C1368 1.356 1_554 S
N1376 H1382 0.984 . S
N1376 H1383 0.984 . S
N1377 C1370 1.356 . S
N1377 H1380 0.984 . S
N1377 H1381 0.985 . S
H1378 N1373 0.984 . S
H1379 N1373 0.985 . S
H1380 N1377 0.984 . S
H1381 N1377 0.985 . S
H1382 N1376 0.984 . S
H1383 N1376 0.984 . S
H1384 N1372 0.984 . S
H1385 N1372 0.985 . S
C1386 C1387 1.363 . S
C1386 C1392 1.379 . S
C1386 N1394 1.356 . S
C1387 C1386 1.363 . S
C1387 C1393 1.363 . S
C1388 C1389 1.363 . S
C1388 C1393 1.379 . S
C1388 N1395 1.356 . S
C1389 C1388 1.363 . S
C1389 C1392 1.363 . S
N1390 C1392 1.356 . S
N1390 H1402 0.984 . S
N1390 H1403 0.985 . S
N1391 C1393 1.356 . S
N1391 H1396 0.984 . S
N1391 H1397 0.985 . S
C1392 C1386 1.379 . S
C1392 C1389 1.363 . S
C1392 N1390 1.356 . S
C1393 C1387 1.363 . S
C1393 C1388 1.379 . S
C1393 N1391 1.356 . S
N1394 C1386 1.356 . S
N1394 H1400 0.984 . S
N1394 H1401 0.984 . S
N1395 C1388 1.356 . S
N1395 H1398 0.984 . S
N1395 H1399 0.985 . S
H1396 N1391 0.984 . S
H1397 N1391 0.985 . S
H1398 N1395 0.984 . S
H1399 N1395 0.985 . S
H1400 N1394 0.984 . S
H1401 N1394 0.984 . S
H1402 N1390 0.984 . S
H1403 N1390 0.985 . S
C1404 C1405 1.363 . S
C1404 C1410 1.379 . S
C1404 N1412 1.356 . S
C1405 C1404 1.363 . S
C1405 C1411 1.363 . S
C1406 C1407 1.363 . S
C1406 C1411 1.379 . S
C1406 N1413 1.356 . S
C1407 C1406 1.363 . S
C1407 C1410 1.363 . S
N1408 C1410 1.356 . S
N1408 H1420 0.984 . S
N1408 H1421 0.985 . S
N1409 C1411 1.356 . S
N1409 H1414 0.984 . S
N1409 H1415 0.985 . S
C1410 C1404 1.379 . S
C1410 C1407 1.363 . S
C1410 N1408 1.356 . S
C1411 C1405 1.363 . S
C1411 C1406 1.379 . S
C1411 N1409 1.356 . S
N1412 C1404 1.356 . S
N1412 H1418 0.984 1_554 S
N1412 H1419 0.982 1_554 S
N1413 C1406 1.356 . S
N1413 H1416 0.984 . S
N1413 H1417 0.985 . S
H1414 N1409 0.984 . S
H1415 N1409 0.985 . S
H1416 N1413 0.984 . S
H1417 N1413 0.985 . S
H1418 N1412 0.984 1_556 S
H1419 N1412 0.982 1_556 S
H1420 N1408 0.984 . S
H1421 N1408 0.985 . S
C1422 C1423 1.363 . S
C1422 C1428 1.379 . S
C1422 N1430 1.356 . S
C1423 C1422 1.363 . S
C1423 C1429 1.363 . S
C1424 C1425 1.363 . S
C1424 C1429 1.379 . S
C1424 N1431 1.356 . S
C1425 C1424 1.363 . S
C1425 C1428 1.363 . S
N1426 C1428 1.356 . S
N1426 H1438 0.984 . S
N1426 H1439 0.985 . S
N1427 C1429 1.356 . S
N1427 H1432 0.984 . S
N1427 H1433 0.985 1_554 S
C1428 C1422 1.379 . S
C1428 C1425 1.363 . S
C1428 N1426 1.356 . S
C1429 C1423 1.363 . S
C1429 C1424 1.379 . S
C1429 N1427 1.356 . S
N1430 C1422 1.356 . S
N1430 H1436 0.984 . S
N1430 H1437 0.984 . S
N1431 C1424 1.356 . S
N1431 H1434 0.984 . S
N1431 H1435 0.985 . S
H1432 N1427 0.984 . S
H1433 N1427 0.985 1_556 S
H1434 N1431 0.984 . S
H1435 N1431 0.985 . S
H1436 N1430 0.984 . S
H1437 N1430 0.984 . S
H1438 N1426 0.984 . S
H1439 N1426 0.985 . S
C1440 C1441 1.363 . S
C1440 C1446 1.379 . S
C1440 N1448 1.356 . S
C1441 C1440 1.363 . S
C1441 C1447 1.363 . S
C1442 C1443 1.363 . S
C1442 C1447 1.379 . S
C1442 N1449 1.356 . S
C1443 C1442 1.363 . S
C1443 C1446 1.363 . S
N1444 C1446 1.356 . S
N1444 H1456 0.984 . S
N1444 H1457 0.985 . S
N1445 C1447 1.356 . S
N1445 H1450 0.984 . S
N1445 H1451 0.985 . S
C1446 C1440 1.379 . S
C1446 C1443 1.363 . S
C1446 N1444 1.356 . S
C1447 C1441 1.363 . S
C1447 C1442 1.379 . S
C1447 N1445 1.356 . S
N1448 C1440 1.356 . S
N1448 H1454 0.984 . S
N1448 H1455 0.984 . S
N1449 C1442 1.356 . S
N1449 H1452 0.984 . S
N1449 H1453 0.985 . S
H1450 N1445 0.984 . S
H1451 N1445 0.985 . S
H1452 N1449 0.984 . S
H1453 N1449 0.985 . S
H1454 N1448 0.984 . S
H1455 N1448 0.984 . S
H1456 N1444 0.984 . S
H1457 N1444 0.985 . S
C1458 C1459 1.363 . S
C1458 C1464 1.379 . S
C1458 N1466 1.356 . S
C1459 C1458 1.363 . S
C1459 C1465 1.363 . S
C1460 C1461 1.363 . S
C1460 C1465 1.379 . S
C1460 N1467 1.356 . S
C1461 C1460 1.363 . S
C1461 C1464 1.363 . S
N1462 C1464 1.356 . S
N1462 H1474 0.984 . S
N1462 H1475 0.985 . S
N1463 C1465 1.356 . S
N1463 H1468 0.984 . S
N1463 H1469 0.985 . S
C1464 C1458 1.379 . S
C1464 C1461 1.363 . S
C1464 N1462 1.356 . S
C1465 C1459 1.363 . S
C1465 C1460 1.379 . S
C1465 N1463 1.356 . S
N1466 C1458 1.356 . S
N1466 H1472 0.984 . S
N1466 H1473 0.984 . S
N1467 C1460 1.356 . S
N1467 H1470 0.984 . S
N1467 H1471 0.985 . S
H1468 N1463 0.984 . S
H1469 N1463 0.985 . S
H1470 N1467 0.984 . S
H1471 N1467 0.985 . S
H1472 N1466 0.984 . S
H1473 N1466 0.984 . S
H1474 N1462 0.984 . S
H1475 N1462 0.985 . S
C1476 C1477 1.363 . S
C1476 C1482 1.379 . S
C1476 N1484 1.356 . S
C1477 C1476 1.363 . S
C1477 C1483 1.363 . S
C1478 C1479 1.363 . S
C1478 C1483 1.379 . S
C1478 N1485 1.356 . S
C1479 C1478 1.363 . S
C1479 C1482 1.363 . S
N1480 C1482 1.356 . S
N1480 H1492 0.984 . S
N1480 H1493 0.985 . S
N1481 C1483 1.356 . S
N1481 H1486 0.984 . S
N1481 H1487 0.985 . S
C1482 C1476 1.379 . S
C1482 C1479 1.363 . S
C1482 N1480 1.356 . S
C1483 C1477 1.363 . S
C1483 C1478 1.379 . S
C1483 N1481 1.356 . S
N1484 C1476 1.356 . S
N1484 H1490 0.984 . S
N1484 H1491 0.984 . S
N1485 C1478 1.356 . S
N1485 H1488 0.984 . S
N1485 H1489 0.985 . S
H1486 N1481 0.984 . S
H1487 N1481 0.985 . S
H1488 N1485 0.984 . S
H1489 N1485 0.985 . S
H1490 N1484 0.984 . S
H1491 N1484 0.984 . S
H1492 N1480 0.984 . S
H1493 N1480 0.985 . S
C1494 C1495 1.363 1_655 S
C1494 C1500 1.379 . S
C1494 N1502 1.356 . S
C1495 C1494 1.363 1_455 S
C1495 C1501 1.363 . S
C1496 C1497 1.363 . S
C1496 C1501 1.379 . S
C1496 N1503 1.356 . S
C1497 C1496 1.363 . S
C1497 C1500 1.363 1_455 S
N1498 C1500 1.356 . S
N1498 H1510 0.984 . S
N1498 H1511 0.985 . S
N1499 C1501 1.356 . S
N1499 H1504 0.984 . S
N1499 H1505 0.985 . S
C1500 C1494 1.379 . S
C1500 C1497 1.363 1_655 S
C1500 N1498 1.356 . S
C1501 C1495 1.363 . S
C1501 C1496 1.379 . S
C1501 N1499 1.356 . S
N1502 C1494 1.356 . S
N1502 H1508 0.984 . S
N1502 H1509 0.984 . S
N1503 C1496 1.356 . S
N1503 H1506 0.984 . S
N1503 H1507 0.985 . S
H1504 N1499 0.984 . S
H1505 N1499 0.985 . S
H1506 N1503 0.984 . S
H1507 N1503 0.985 . S
H1508 N1502 0.984 . S
H1509 N1502 0.984 . S
H1510 N1498 0.984 . S
H1511 N1498 0.985 . S
C1512 C1513 1.363 . S
C1512 C1518 1.379 . S
C1512 N1520 1.356 . S
C1513 C1512 1.363 . S
C1513 C1519 1.363 . S
C1514 C1515 1.363 . S
C1514 C1519 1.379 . S
C1514 N1521 1.356 . S
C1515 C1514 1.363 . S
C1515 C1518 1.363 . S
N1516 C1518 1.356 . S
N1516 H1528 0.984 . S
N1516 H1529 0.985 . S
N1517 C1519 1.356 . S
N1517 H1522 0.984 . S
N1517 H1523 0.985 . S
C1518 C1512 1.379 . S
C1518 C1515 1.363 . S
C1518 N1516 1.356 . S
C1519 C1513 1.363 . S
C1519 C1514 1.379 . S
C1519 N1517 1.356 . S
N1520 C1512 1.356 . S
N1520 H1526 0.984 . S
N1520 H1527 0.984 . S
N1521 C1514 1.356 . S
N1521 H1524 0.984 . S
N1521 H1525 0.985 . S
H1522 N1517 0.984 . S
H1523 N1517 0.985 . S
H1524 N1521 0.984 . S
H1525 N1521 0.985 . S
H1526 N1520 0.984 . S
H1527 N1520 0.984 . S
H1528 N1516 0.984 . S
H1529 N1516 0.985 . S
C1530 C1531 1.363 1_545 S
C1530 C1536 1.379 . S
C1530 N1538 1.356 . S
C1531 C1530 1.363 1_565 S
C1531 C1537 1.363 . S
C1532 C1533 1.363 . S
C1532 C1537 1.379 . S
C1532 N1539 1.356 . S
C1533 C1532 1.363 . S
C1533 C1536 1.363 1_565 S
N1534 C1536 1.356 . S
N1534 H1546 0.984 . S
N1534 H1547 0.985 . S
N1535 C1537 1.356 . S
N1535 H1540 0.984 . S
N1535 H1541 0.985 . S
C1536 C1530 1.379 . S
C1536 C1533 1.363 1_545 S
C1536 N1534 1.356 . S
C1537 C1531 1.363 . S
C1537 C1532 1.379 . S
C1537 N1535 1.356 . S
N1538 C1530 1.356 . S
N1538 H1544 0.984 . S
N1538 H1545 0.984 . S
N1539 C1532 1.356 . S
N1539 H1542 0.984 . S
N1539 H1543 0.985 . S
H1540 N1535 0.984 . S
H1541 N1535 0.985 . S
H1542 N1539 0.984 . S
H1543 N1539 0.985 . S
H1544 N1538 0.984 . S
H1545 N1538 0.984 . S
H1546 N1534 0.984 . S
H1547 N1534 0.985 . S
C1548 C1549 1.363 . S
C1548 C1554 1.379 . S
C1548 N1556 1.356 . S
C1549 C1548 1.363 . S
C1549 C1555 1.363 1_565 S
C1550 C1551 1.363 1_545 S
C1550 C1555 1.379 . S
C1550 N1557 1.356 . S
C1551 C1550 1.363 1_565 S
C1551 C1554 1.364 . S
N1552 C1554 1.356 . S
N1552 H1564 0.984 . S
N1552 H1565 0.985 . S
N1553 C1555 1.356 . S
N1553 H1558 0.984 . S
N1553 H1559 0.985 . S
C1554 C1548 1.379 . S
C1554 C1551 1.364 . S
C1554 N1552 1.356 . S
C1555 C1549 1.363 1_545 S
C1555 C1550 1.379 . S
C1555 N1553 1.356 . S
N1556 C1548 1.356 . S
N1556 H1562 0.984 . S
N1556 H1563 0.984 . S
N1557 C1550 1.356 . S
N1557 H1560 0.984 . S
N1557 H1561 0.985 . S
H1558 N1553 0.984 . S
H1559 N1553 0.985 . S
H1560 N1557 0.984 . S
H1561 N1557 0.985 . S
H1562 N1556 0.984 . S
H1563 N1556 0.984 . S
H1564 N1552 0.984 . S
H1565 N1552 0.985 . S
C1566 C1567 1.363 . S
C1566 C1572 1.379 . S
C1566 N1574 1.356 . S
C1567 C1566 1.363 . S
C1567 C1573 1.363 1_455 S
C1568 C1569 1.364 . S
C1568 C1573 1.379 . S
C1568 N1575 1.356 . S
C1569 C1568 1.364 . S
C1569 C1572 1.363 1_655 S
N1570 C1572 1.356 . S
N1570 H1582 0.984 . S
N1570 H1583 0.985 . S
N1571 C1573 1.356 . S
N1571 H1576 0.984 . S
N1571 H1577 0.985 . S
C1572 C1566 1.379 . S
C1572 C1569 1.363 1_455 S
C1572 N1570 1.356 . S
C1573 C1567 1.363 1_655 S
C1573 C1568 1.379 . S
C1573 N1571 1.356 . S
N1574 C1566 1.356 . S
N1574 H1580 0.984 . S
N1574 H1581 0.984 . S
N1575 C1568 1.356 . S
N1575 H1578 0.984 . S
N1575 H1579 0.985 . S
H1576 N1571 0.984 . S
H1577 N1571 0.985 . S
H1578 N1575 0.984 . S
H1579 N1575 0.985 . S
H1580 N1574 0.984 . S
H1581 N1574 0.984 . S
H1582 N1570 0.984 . S
H1583 N1570 0.985 . S
C1584 C1585 1.363 . S
C1584 C1590 1.379 . S
C1584 N1592 1.356 . S
C1585 C1584 1.363 . S
C1585 C1591 1.363 . S
C1586 C1587 1.363 . S
C1586 C1591 1.379 . S
C1586 N1593 1.356 . S
C1587 C1586 1.363 . S
C1587 C1590 1.363 . S
N1588 C1590 1.356 . S
N1588 H1600 0.984 . S
N1588 H1601 0.985 . S
N1589 C1591 1.356 . S
N1589 H1594 0.984 . S
N1589 H1595 0.985 . S
C1590 C1584 1.379 . S
C1590 C1587 1.363 . S
C1590 N1588 1.356 . S
C1591 C1585 1.363 . S
C1591 C1586 1.379 . S
C1591 N1589 1.356 . S
N1592 C1584 1.356 . S
N1592 H1598 0.984 . S
N1592 H1599 0.984 . S
N1593 C1586 1.356 . S
N1593 H1596 0.984 . S
N1593 H1597 0.985 . S
H1594 N1589 0.984 . S
H1595 N1589 0.985 . S
H1596 N1593 0.984 . S
H1597 N1593 0.985 . S
H1598 N1592 0.984 . S
H1599 N1592 0.984 . S
H1600 N1588 0.984 . S
H1601 N1588 0.985 . S
C1602 C1603 1.363 . S
C1602 C1608 1.379 . S
C1602 N1610 1.356 . S
C1603 C1602 1.363 . S
C1603 C1609 1.363 . S
C1604 C1605 1.363 . S
C1604 C1609 1.379 . S
C1604 N1611 1.356 . S
C1605 C1604 1.363 . S
C1605 C1608 1.363 . S
N1606 C1608 1.356 . S
N1606 H1618 0.984 . S
N1606 H1619 0.985 . S
N1607 C1609 1.356 . S
N1607 H1612 0.984 . S
N1607 H1613 0.985 . S
C1608 C1602 1.379 . S
C1608 C1605 1.363 . S
C1608 N1606 1.356 . S
C1609 C1603 1.363 . S
C1609 C1604 1.379 . S
C1609 N1607 1.356 . S
N1610 C1602 1.356 . S
N1610 H1616 0.984 . S
N1610 H1617 0.984 . S
N1611 C1604 1.356 . S
N1611 H1614 0.984 . S
N1611 H1615 0.985 . S
H1612 N1607 0.984 . S
H1613 N1607 0.985 . S
H1614 N1611 0.984 . S
H1615 N1611 0.985 . S
H1616 N1610 0.984 . S
H1617 N1610 0.984 . S
H1618 N1606 0.984 . S
H1619 N1606 0.985 . S
C1620 C1621 1.363 . S
C1620 C1626 1.379 . S
C1620 N1628 1.356 . S
C1621 C1620 1.363 . S
C1621 C1627 1.363 . S
C1622 C1623 1.363 . S
C1622 C1627 1.379 . S
C1622 N1629 1.356 . S
C1623 C1622 1.363 . S
C1623 C1626 1.363 . S
N1624 C1626 1.356 . S
N1624 H1636 0.984 . S
N1624 H1637 0.985 . S
N1625 C1627 1.356 . S
N1625 H1630 0.984 . S
N1625 H1631 0.985 . S
C1626 C1620 1.379 . S
C1626 C1623 1.363 . S
C1626 N1624 1.356 . S
C1627 C1621 1.363 . S
C1627 C1622 1.379 . S
C1627 N1625 1.356 . S
N1628 C1620 1.356 . S
N1628 H1634 0.984 . S
N1628 H1635 0.984 . S
N1629 C1622 1.356 . S
N1629 H1632 0.984 . S
N1629 H1633 0.985 . S
H1630 N1625 0.984 . S
H1631 N1625 0.985 . S
H1632 N1629 0.984 . S
H1633 N1629 0.985 . S
H1634 N1628 0.984 . S
H1635 N1628 0.984 . S
H1636 N1624 0.984 . S
H1637 N1624 0.985 . S
C1638 C1639 1.363 . S
C1638 C1644 1.379 . S
C1638 N1646 1.356 . S
C1639 C1638 1.363 . S
C1639 C1645 1.363 . S
C1640 C1641 1.363 . S
C1640 C1645 1.379 . S
C1640 N1647 1.356 . S
C1641 C1640 1.363 . S
C1641 C1644 1.363 . S
N1642 C1644 1.356 . S
N1642 H1654 0.984 . S
N1642 H1655 0.985 . S
N1643 C1645 1.356 . S
N1643 H1648 0.984 . S
N1643 H1649 0.985 . S
C1644 C1638 1.379 . S
C1644 C1641 1.363 . S
C1644 N1642 1.356 . S
C1645 C1639 1.363 . S
C1645 C1640 1.379 . S
C1645 N1643 1.356 . S
N1646 C1638 1.356 . S
N1646 H1652 0.984 . S
N1646 H1653 0.984 . S
N1647 C1640 1.356 . S
N1647 H1650 0.984 . S
N1647 H1651 0.985 . S
H1648 N1643 0.984 . S
H1649 N1643 0.985 . S
H1650 N1647 0.984 . S
H1651 N1647 0.985 . S
H1652 N1646 0.984 . S
H1653 N1646 0.984 . S
H1654 N1642 0.984 . S
H1655 N1642 0.985 . S
C1656 C1657 1.363 . S
C1656 C1662 1.379 . S
C1656 N1664 1.356 . S
C1657 C1656 1.363 . S
C1657 C1663 1.363 1_545 S
C1658 C1659 1.363 1_565 S
C1658 C1663 1.379 . S
C1658 N1665 1.356 . S
C1659 C1658 1.363 1_545 S
C1659 C1662 1.363 . S
N1660 C1662 1.356 . S
N1660 H1672 0.984 . S
N1660 H1673 0.985 . S
N1661 C1663 1.356 . S
N1661 H1666 0.984 . S
N1661 H1667 0.985 . S
C1662 C1656 1.379 . S
C1662 C1659 1.363 . S
C1662 N1660 1.356 . S
C1663 C1657 1.363 1_565 S
C1663 C1658 1.379 . S
C1663 N1661 1.356 . S
N1664 C1656 1.356 . S
N1664 H1670 0.984 . S
N1664 H1671 0.984 . S
N1665 C1658 1.356 . S
N1665 H1668 0.984 . S
N1665 H1669 0.985 . S
H1666 N1661 0.984 . S
H1667 N1661 0.985 . S
H1668 N1665 0.984 . S
H1669 N1665 0.985 . S
H1670 N1664 0.984 . S
H1671 N1664 0.984 . S
H1672 N1660 0.984 . S
H1673 N1660 0.985 . S
C1674 C1675 1.363 . S
C1674 C1680 1.379 . S
C1674 N1682 1.356 . S
C1675 C1674 1.363 . S
C1675 C1681 1.363 1_655 S
C1676 C1677 1.363 1_455 S
C1676 C1681 1.379 . S
C1676 N1683 1.356 . S
C1677 C1676 1.363 1_655 S
C1677 C1680 1.363 . S
N1678 C1680 1.356 . S
N1678 H1690 0.984 . S
N1678 H1691 0.985 . S
N1679 C1681 1.356 . S
N1679 H1684 0.984 . S
N1679 H1685 0.985 . S
C1680 C1674 1.379 . S
C1680 C1677 1.363 . S
C1680 N1678 1.356 . S
C1681 C1675 1.363 1_455 S
C1681 C1676 1.379 . S
C1681 N1679 1.356 . S
N1682 C1674 1.356 . S
N1682 H1688 0.984 . S
N1682 H1689 0.984 . S
N1683 C1676 1.356 . S
N1683 H1686 0.984 . S
N1683 H1687 0.985 . S
H1684 N1679 0.984 . S
H1685 N1679 0.985 . S
H1686 N1683 0.984 . S
H1687 N1683 0.985 . S
H1688 N1682 0.984 . S
H1689 N1682 0.984 . S
H1690 N1678 0.984 . S
H1691 N1678 0.985 . S
C1692 C1693 1.363 . S
C1692 C1698 1.379 . S
C1692 N1700 1.356 . S
C1693 C1692 1.363 . S
C1693 C1699 1.363 . S
C1694 C1695 1.363 . S
C1694 C1699 1.379 . S
C1694 N1701 1.356 . S
C1695 C1694 1.363 . S
C1695 C1698 1.363 . S
N1696 C1698 1.356 . S
N1696 H1708 0.984 . S
N1696 H1709 0.985 . S
N1697 C1699 1.356 . S
N1697 H1702 0.984 . S
N1697 H1703 0.985 . S
C1698 C1692 1.379 . S
C1698 C1695 1.363 . S
C1698 N1696 1.356 . S
C1699 C1693 1.363 . S
C1699 C1694 1.379 . S
C1699 N1697 1.356 . S
N1700 C1692 1.356 . S
N1700 H1706 0.984 . S
N1700 H1707 0.984 . S
N1701 C1694 1.356 . S
N1701 H1704 0.984 . S
N1701 H1705 0.985 . S
H1702 N1697 0.984 . S
H1703 N1697 0.985 . S
H1704 N1701 0.984 . S
H1705 N1701 0.985 . S
H1706 N1700 0.984 . S
H1707 N1700 0.984 . S
H1708 N1696 0.984 . S
H1709 N1696 0.985 . S
C1710 C1711 1.363 . S
C1710 C1716 1.379 . S
C1710 N1718 1.356 . S
C1711 C1710 1.363 . S
C1711 C1717 1.363 . S
C1712 C1713 1.363 . S
C1712 C1717 1.379 . S
C1712 N1719 1.356 . S
C1713 C1712 1.363 . S
C1713 C1716 1.363 . S
N1714 C1716 1.356 . S
N1714 H1726 0.984 . S
N1714 H1727 0.985 . S
N1715 C1717 1.356 . S
N1715 H1720 0.984 . S
N1715 H1721 0.985 . S
C1716 C1710 1.379 . S
C1716 C1713 1.363 . S
C1716 N1714 1.356 . S
C1717 C1711 1.363 . S
C1717 C1712 1.379 . S
C1717 N1715 1.356 . S
N1718 C1710 1.356 . S
N1718 H1724 0.984 . S
N1718 H1725 0.984 . S
N1719 C1712 1.356 . S
N1719 H1722 0.984 . S
N1719 H1723 0.985 . S
H1720 N1715 0.984 . S
H1721 N1715 0.985 . S
H1722 N1719 0.984 . S
H1723 N1719 0.985 . S
H1724 N1718 0.984 . S
H1725 N1718 0.984 . S
H1726 N1714 0.984 . S
H1727 N1714 0.985 . S
C1728 C1729 1.363 . S
C1728 C1734 1.379 . S
C1728 N1736 1.356 . S
C1729 C1728 1.363 . S
C1729 C1735 1.363 . S
C1730 C1731 1.363 . S
C1730 C1735 1.379 . S
C1730 N1737 1.356 . S
C1731 C1730 1.363 . S
C1731 C1734 1.363 . S
N1732 C1734 1.356 . S
N1732 H1744 0.984 . S
N1732 H1745 0.985 . S
N1733 C1735 1.356 . S
N1733 H1738 0.984 . S
N1733 H1739 0.985 . S
C1734 C1728 1.379 . S
C1734 C1731 1.363 . S
C1734 N1732 1.356 . S
C1735 C1729 1.363 . S
C1735 C1730 1.379 . S
C1735 N1733 1.356 . S
N1736 C1728 1.356 . S
N1736 H1742 0.984 . S
N1736 H1743 0.984 . S
N1737 C1730 1.356 . S
N1737 H1740 0.984 . S
N1737 H1741 0.985 . S
H1738 N1733 0.984 . S
H1739 N1733 0.985 . S
H1740 N1737 0.984 . S
H1741 N1737 0.985 . S
H1742 N1736 0.984 . S
H1743 N1736 0.984 . S
H1744 N1732 0.984 . S
H1745 N1732 0.985 . S
C1746 C1747 1.363 . S
C1746 C1752 1.379 . S
C1746 N1754 1.356 . S
C1747 C1746 1.363 . S
C1747 C1753 1.363 . S
C1748 C1749 1.363 . S
C1748 C1753 1.379 . S
C1748 N1755 1.356 . S
C1749 C1748 1.363 . S
C1749 C1752 1.363 . S
N1750 C1752 1.356 . S
N1750 H1762 0.984 . S
N1750 H1763 0.985 . S
N1751 C1753 1.356 . S
N1751 H1756 0.984 . S
N1751 H1757 0.985 . S
C1752 C1746 1.379 . S
C1752 C1749 1.363 . S
C1752 N1750 1.356 . S
C1753 C1747 1.363 . S
C1753 C1748 1.379 . S
C1753 N1751 1.356 . S
N1754 C1746 1.356 . S
N1754 H1760 0.984 . S
N1754 H1761 0.984 . S
N1755 C1748 1.356 . S
N1755 H1758 0.984 . S
N1755 H1759 0.985 . S
H1756 N1751 0.984 . S
H1757 N1751 0.985 . S
H1758 N1755 0.984 . S
H1759 N1755 0.985 . S
H1760 N1754 0.984 . S
H1761 N1754 0.984 . S
H1762 N1750 0.984 . S
H1763 N1750 0.985 . S
C1764 C1765 1.363 . S
C1764 C1770 1.379 . S
C1764 N1772 1.356 . S
C1765 C1764 1.363 . S
C1765 C1771 1.363 . S
C1766 C1767 1.363 . S
C1766 C1771 1.379 . S
C1766 N1773 1.356 . S
C1767 C1766 1.363 . S
C1767 C1770 1.363 . S
N1768 C1770 1.356 . S
N1768 H1780 0.984 . S
N1768 H1781 0.985 . S
N1769 C1771 1.356 . S
N1769 H1774 0.984 . S
N1769 H1775 0.985 . S
C1770 C1764 1.379 . S
C1770 C1767 1.363 . S
C1770 N1768 1.356 . S
C1771 C1765 1.363 . S
C1771 C1766 1.379 . S
C1771 N1769 1.356 . S
N1772 C1764 1.356 . S
N1772 H1778 0.984 . S
N1772 H1779 0.984 . S
N1773 C1766 1.356 . S
N1773 H1776 0.984 . S
N1773 H1777 0.985 . S
H1774 N1769 0.984 . S
H1775 N1769 0.985 . S
H1776 N1773 0.984 . S
H1777 N1773 0.985 . S
H1778 N1772 0.984 . S
H1779 N1772 0.984 . S
H1780 N1768 0.984 . S
H1781 N1768 0.985 . S
C1782 C1783 1.363 . S
C1782 C1788 1.379 . S
C1782 N1790 1.356 . S
C1783 C1782 1.363 . S
C1783 C1789 1.363 . S
C1784 C1785 1.363 . S
C1784 C1789 1.379 . S
C1784 N1791 1.356 . S
C1785 C1784 1.363 . S
C1785 C1788 1.363 . S
N1786 C1788 1.356 . S
N1786 H1798 0.984 . S
N1786 H1799 0.985 . S
N1787 C1789 1.356 . S
N1787 H1792 0.984 . S
N1787 H1793 0.985 . S
C1788 C1782 1.379 . S
C1788 C1785 1.363 . S
C1788 N1786 1.356 . S
C1789 C1783 1.363 . S
C1789 C1784 1.379 . S
C1789 N1787 1.356 . S
N1790 C1782 1.356 . S
N1790 H1796 0.984 . S
N1790 H1797 0.984 . S
N1791 C1784 1.356 . S
N1791 H1794 0.984 . S
N1791 H1795 0.985 . S
H1792 N1787 0.984 . S
H1793 N1787 0.985 . S
H1794 N1791 0.984 . S
H1795 N1791 0.985 . S
H1796 N1790 0.984 . S
H1797 N1790 0.984 . S
H1798 N1786 0.984 . S
H1799 N1786 0.985 . S
C1800 C1801 1.363 . S
C1800 C1806 1.379 . S
C1800 N1808 1.356 . S
C1801 C1800 1.363 . S
C1801 C1807 1.363 . S
C1802 C1803 1.363 . S
C1802 C1807 1.379 . S
C1802 N1809 1.356 . S
C1803 C1802 1.363 . S
C1803 C1806 1.363 . S
N1804 C1806 1.356 . S
N1804 H1816 0.984 . S
N1804 H1817 0.985 . S
N1805 C1807 1.356 . S
N1805 H1810 0.984 . S
N1805 H1811 0.985 . S
C1806 C1800 1.379 . S
C1806 C1803 1.363 . S
C1806 N1804 1.356 . S
C1807 C1801 1.363 . S
C1807 C1802 1.379 . S
C1807 N1805 1.356 . S
N1808 C1800 1.356 . S
N1808 H1814 0.984 . S
N1808 H1815 0.984 . S
N1809 C1802 1.356 . S
N1809 H1812 0.984 . S
N1809 H1813 0.985 . S
H1810 N1805 0.984 . S
H1811 N1805 0.985 . S
H1812 N1809 0.984 . S
H1813 N1809 0.985 . S
H1814 N1808 0.984 . S
H1815 N1808 0.984 . S
H1816 N1804 0.984 . S
H1817 N1804 0.985 . S
C1818 C1819 1.363 . S
C1818 C1824 1.379 . S
C1818 N1826 1.356 . S
C1819 C1818 1.363 . S
C1819 C1825 1.363 1_655 S
C1820 C1821 1.363 1_455 S
C1820 C1825 1.379 . S
C1820 N1827 1.356 . S
C1821 C1820 1.363 1_655 S
C1821 C1824 1.363 . S
N1822 C1824 1.356 . S
N1822 H1834 0.984 . S
N1822 H1835 0.985 . S
N1823 C1825 1.356 . S
N1823 H1828 0.984 . S
N1823 H1829 0.985 . S
C1824 C1818 1.379 . S
C1824 C1821 1.363 . S
C1824 N1822 1.356 . S
C1825 C1819 1.363 1_455 S
C1825 C1820 1.379 . S
C1825 N1823 1.356 . S
N1826 C1818 1.356 . S
N1826 H1832 0.984 . S
N1826 H1833 0.984 . S
N1827 C1820 1.356 . S
N1827 H1830 0.984 . S
N1827 H1831 0.985 . S
H1828 N1823 0.984 . S
H1829 N1823 0.985 . S
H1830 N1827 0.984 . S
H1831 N1827 0.985 . S
H1832 N1826 0.984 . S
H1833 N1826 0.984 . S
H1834 N1822 0.984 . S
H1835 N1822 0.985 . S
C1836 C1837 1.363 . S
C1836 C1842 1.379 . S
C1836 N1844 1.356 . S
C1837 C1836 1.363 . S
C1837 C1843 1.363 . S
C1838 C1839 1.363 . S
C1838 C1843 1.379 . S
C1838 N1845 1.356 . S
C1839 C1838 1.363 . S
C1839 C1842 1.363 . S
N1840 C1842 1.356 . S
N1840 H1852 0.984 . S
N1840 H1853 0.985 . S
N1841 C1843 1.356 . S
N1841 H1846 0.984 . S
N1841 H1847 0.985 . S
C1842 C1836 1.379 . S
C1842 C1839 1.363 . S
C1842 N1840 1.356 . S
C1843 C1837 1.363 . S
C1843 C1838 1.379 . S
C1843 N1841 1.356 . S
N1844 C1836 1.356 . S
N1844 H1850 0.984 . S
N1844 H1851 0.984 . S
N1845 C1838 1.356 . S
N1845 H1848 0.984 . S
N1845 H1849 0.985 . S
H1846 N1841 0.984 . S
H1847 N1841 0.985 . S
H1848 N1845 0.984 . S
H1849 N1845 0.985 . S
H1850 N1844 0.984 . S
H1851 N1844 0.984 . S
H1852 N1840 0.984 . S
H1853 N1840 0.985 . S
C1854 C1855 1.363 . S
C1854 C1860 1.379 . S
C1854 N1862 1.356 . S
C1855 C1854 1.363 . S
C1855 C1861 1.363 1_545 S
C1856 C1857 1.361 . S
C1856 C1861 1.379 . S
C1856 N1863 1.356 . S
C1857 C1856 1.361 . S
C1857 C1860 1.364 1_565 S
N1858 C1860 1.356 . S
N1858 H1870 0.984 . S
N1858 H1871 0.985 . S
N1859 C1861 1.356 . S
N1859 H1864 0.984 . S
N1859 H1865 0.985 . S
C1860 C1854 1.379 . S
C1860 C1857 1.364 1_545 S
C1860 N1858 1.356 . S
C1861 C1855 1.363 1_565 S
C1861 C1856 1.379 . S
C1861 N1859 1.356 . S
N1862 C1854 1.356 . S
N1862 H1868 0.984 . S
N1862 H1869 0.984 . S
N1863 C1856 1.356 . S
N1863 H1866 0.984 . S
N1863 H1867 0.985 . S
H1864 N1859 0.984 . S
H1865 N1859 0.985 . S
H1866 N1863 0.984 . S
H1867 N1863 0.985 . S
H1868 N1862 0.984 . S
H1869 N1862 0.984 . S
H1870 N1858 0.984 . S
H1871 N1858 0.985 . S
C577 C7 1.509 . S
C579 C421 1.524 . S
C595 C23 1.587 . S
C597 C446 1.564 . S
C615 C457 1.522 . S
C613 C37 1.522 . S
C631 C35 1.513 . S
C633 C482 1.530 . S
C649 C9 1.540 1_455 S
C651 C500 1.539 . S
C667 C21 1.545 . S
C669 C511 1.560 . S
C685 C49 1.509 . S
C687 C493 1.528 . S
C705 C518 1.536 . S
C703 C65 1.545 . S
C723 C475 1.520 . S
C721 C79 1.521 1_565 S
C739 C77 1.509 . S
C741 C464 1.518 . S
C759 C428 1.531 . S
C757 C51 1.522 1_655 S
C775 C63 1.521 . S
C777 C439 1.544 . S
C793 C91 1.575 . S
C795 C529 1.589 . S
C811 C107 1.622 . S
C813 C554 1.595 . S
C831 C565 1.583 . S
C829 C121 1.634 . S
C847 C119 1.572 . S
C849 C266 1.593 . S
C865 C93 1.630 . S
C867 C284 1.600 . S
C883 C105 1.570 . S
C885 C295 1.581 . S
C901 C133 1.518 . S
C903 C277 1.539 . S
C919 C149 1.562 . S
C921 C302 1.553 . S
C939 C259 1.561 . S
C937 C163 1.575 . S
C957 C572 1.585 . S
C955 C161 1.563 . S
C975 C536 1.560 . S
C973 C135 1.579 . S
C993 C547 1.581 . S
C991 C147 1.551 . S
C1009 C175 1.546 . S
C1011 C313 1.557 . S
C1027 C191 1.605 . S
C1029 C338 1.582 . S
C1045 C205 1.625 . S
C1047 C349 1.578 . S
C1063 C203 1.598 . S
C1065 C374 1.623 . S
C1083 C392 1.601 . S
C1081 C177 1.635 . S
C1101 C403 1.599 . S
C1099 C189 1.580 . S
C1119 C385 1.576 . S
C1117 C217 1.549 . S
C1137 C410 1.565 . S
C1135 C233 1.579 . S
C1153 C247 1.580 . S
C1155 C367 1.563 . S
C1173 C356 1.553 . S
C1171 C245 1.535 . S
C1189 C219 1.577 . S
C1191 C320 1.563 . S
C1209 C331 1.567 . S
C1207 C231 1.545 . S
C1227 C268 1.450 . S
C1225 C8 1.513 . S
C1243 C17 1.482 . S
C1245 C286 1.404 . S
C1263 C296 1.453 . S
C1261 C31 1.524 . S
C1281 C314 1.457 . S
C1279 C36 1.529 . S
C1299 C340 1.437 . S
C1297 C3 1.512 . S
C1317 C350 1.404 . S
C1315 C22 1.482 . S
C1333 C50 1.555 . S
C1335 C358 1.454 . S
C1351 C59 1.513 . S
C1353 C322 1.407 . S
C1369 C73 1.546 . S
C1371 C332 1.468 . S
C1387 C78 1.573 . S
C1389 C278 1.492 . S
C1407 C304 1.441 . S
C1405 C45 1.543 . S
C1423 C64 1.523 . S
C1425 C260 1.432 . S
C1443 C376 1.441 . S
C1441 C92 1.516 . S
C1459 C101 1.544 . S
C1461 C394 1.461 . S
C1477 C115 1.558 . S
C1479 C404 1.473 . S
C1497 C422 1.419 . S
C1495 C120 1.485 . S
C1513 C87 1.513 . S
C1515 C448 1.433 . S
C1531 C106 1.467 . S
C1533 C458 1.401 . S
C1549 C134 1.483 . S
C1551 C466 1.420 . S
C1567 C143 1.485 . S
C1569 C430 1.397 1_655 S
C1587 C440 1.465 . S
C1585 C157 1.551 . S
C1603 C162 1.556 . S
C1605 C386 1.465 . S
C1621 C129 1.582 . S
C1623 C412 1.469 . S
C1641 C368 1.478 . S
C1639 C148 1.571 . S
C1659 C484 1.410 . S
C1657 C176 1.481 . S
C1675 C185 1.482 . S
C1677 C502 1.400 . S
C1693 C199 1.524 . S
C1695 C512 1.445 . S
C1713 C530 1.437 . S
C1711 C204 1.516 . S
C1731 C556 1.466 . S
C1729 C171 1.553 . S
C1747 C190 1.535 . S
C1749 C566 1.455 . S
C1765 C218 1.554 . S
C1767 C574 1.447 . S
C1783 C227 1.572 . S
C1785 C538 1.463 . S
C1803 C548 1.488 . S
C1801 C241 1.581 . S
C1821 C494 1.399 1_655 S
C1819 C246 1.489 . S
C1839 C520 1.438 . S
C1837 C213 1.543 . S
C1855 C232 1.473 . S
C1857 C476 1.403 . S
