# Generated by pormake.
# Topology rtl, (3,6)-cn, num edge types: 1
# Building blocks:
#     Node 0, Type 0, BuildingBlock: INOVEN_clean_linker_0, # of connection points: 3
#     Node 1, Type 0, BuildingBlock: INOVEN_clean_linker_0, # of connection points: 3
#     Node 2, Type 0, BuildingBlock: INOVEN_clean_linker_0, # of connection points: 3
#     Node 3, Type 0, BuildingBlock: INOVEN_clean_linker_0, # of connection points: 3
#     Node 4, Type 1, BuildingBlock: VOLQOD_clean_sbu_1, # of connection points: 6
#     Node 5, Type 1, BuildingBlock: VOLQOD_clean_sbu_1, # of connection points: 6
#     Edge 6, Type (0, 1), BuildingBlock: UVAHIK_clean_linker_0, # of connection points: 2
#     Edge 7, Type (0, 1), BuildingBlock: UVAHIK_clean_linker_0, # of connection points: 2
#     Edge 8, Type (0, 1), BuildingBlock: UVAHIK_clean_linker_0, # of connection points: 2
#     Edge 9, Type (0, 1), BuildingBlock: UVAHIK_clean_linker_0, # of connection points: 2
#     Edge 10, Type (0, 1), BuildingBlock: UVAHIK_clean_linker_0, # of connection points: 2
#     Edge 11, Type (0, 1), BuildingBlock: UVAHIK_clean_linker_0, # of connection points: 2
#     Edge 12, Type (0, 1), BuildingBlock: UVAHIK_clean_linker_0, # of connection points: 2
#     Edge 13, Type (0, 1), BuildingBlock: UVAHIK_clean_linker_0, # of connection points: 2
#     Edge 14, Type (0, 1), BuildingBlock: UVAHIK_clean_linker_0, # of connection points: 2
#     Edge 15, Type (0, 1), BuildingBlock: UVAHIK_clean_linker_0, # of connection points: 2
#     Edge 16, Type (0, 1), BuildingBlock: UVAHIK_clean_linker_0, # of connection points: 2
#     Edge 17, Type (0, 1), BuildingBlock: UVAHIK_clean_linker_0, # of connection points: 2
# Relax obj value: 0.042
# Max RMSD: 0.144
# Mean RMSD: 0.095
data_MOF--net-rtl--node1-VOLQOD_clean_sbu_1--node2-INOVEN_clean_linker_0--edge1-UVAHIK_clean_linker_0
_symmetry_space_group_name_H-M    P1
_symmetry_Int_Tables_number       1
_symmetry_cell_setting            triclinic
loop_
_symmetry_equiv_pos_as_xyz
'x, y, z'
_cell_length_a     48.331771
_cell_length_b     48.394711
_cell_length_c     28.29002
_cell_angle_alpha  91.207231
_cell_angle_beta   91.621568
_cell_angle_gamma 90.092228
loop_
_atom_site_label
_atom_site_type_symbol
_atom_site_fract_x
_atom_site_fract_y
_atom_site_fract_z
_atom_type_partial_charge
H0 H 0.17614 0.76278 0.9062 0.0
H1 H 0.13405 0.8255 0.98648 0.0
H2 H 0.17994 0.76238 0.05846 0.0
N3 N 0.19772 0.73656 0.97887 0.0
N4 N 0.20721 0.7251 0.0149 0.0
C5 C 0.1702 0.77168 0.93989 0.0
C6 C 0.15401 0.7957 0.94129 0.0
C7 C 0.17967 0.75957 0.98186 0.0
C8 C 0.17244 0.77136 0.02577 0.0
C9 C 0.15631 0.79539 0.02752 0.0
C10 C 0.14707 0.80728 0.9852 0.0
H11 H 0.66489 0.7534 0.62311 0.0
H12 H 0.60858 0.6945 0.55664 0.0
H13 H 0.66227 0.74233 0.47178 0.0
N14 N 0.68784 0.76964 0.54461 0.0
N15 N 0.70239 0.77067 0.50898 0.0
C16 C 0.65603 0.74339 0.59154 0.0
C17 C 0.63509 0.72345 0.59522 0.0
C18 C 0.6661 0.75005 0.54722 0.0
C19 C 0.6548 0.73697 0.50617 0.0
C20 C 0.63365 0.71728 0.50926 0.0
C21 C 0.624 0.71064 0.55389 0.0
H22 H 0.82225 0.23855 0.90856 0.0
H23 H 0.88252 0.18719 0.97835 0.0
H24 H 0.8374 0.24753 0.05878 0.0
N25 N 0.80632 0.26563 0.98456 0.0
N26 N 0.80299 0.28146 0.01927 0.0
C27 C 0.83369 0.23275 0.94033 0.0
C28 C 0.85341 0.21159 0.93831 0.0
C29 C 0.82791 0.24587 0.98351 0.0
C30 C 0.84215 0.23784 0.0251 0.0
C31 C 0.86201 0.21673 0.0234 0.0
C32 C 0.86757 0.20386 0.97983 0.0
H33 H 0.31812 0.2633 0.43467 0.0
H34 H 0.36104 0.32662 0.51659 0.0
H35 H 0.31717 0.26293 0.58695 0.0
N36 N 0.29791 0.23697 0.50647 0.0
N37 N 0.28853 0.2258 0.54198 0.0
C38 C 0.32457 0.27228 0.46865 0.0
C39 C 0.34049 0.29654 0.47074 0.0
C40 C 0.31594 0.26011 0.5103 0.0
C41 C 0.32394 0.272 0.55454 0.0
C42 C 0.33994 0.29623 0.5569 0.0
C43 C 0.34818 0.30821 0.5149 0.0
O44 O 0.92974 0.98092 0.47221 0.0
Zn45 Zn 0.95782 0.0117 0.47524 0.0
O46 O 0.99554 -0.00242 0.48147 0.0
Zn47 Zn 0.01211 0.01058 0.54178 0.0
Zn48 Zn 0.99441 0.95722 0.47945 0.0
Zn49 Zn 0.01765 0.01074 0.42954 0.0
O50 O 0.04652 0.03272 0.53184 0.0
O51 O 0.05056 0.0329 0.45395 0.0
O52 O 0.94854 0.03607 0.53063 0.0
O53 O 0.98601 0.0351 0.5777 0.0
O54 O 0.02351 0.97866 0.5822 0.0
O55 O 0.01178 0.94165 0.53845 0.0
O56 O 0.01586 0.94186 0.42533 0.0
O57 O 0.95323 0.03492 0.4175 0.0
O58 O 0.03239 0.97891 0.39075 0.0
O59 O 0.99502 0.03526 0.38684 0.0
C60 C 0.93188 0.9547 0.47137 0.0
C61 C 0.05935 0.03986 0.49536 0.0
C62 C 0.02242 0.95253 0.57609 0.0
C63 C 0.96152 0.04352 0.56852 0.0
C64 C 0.03004 0.95277 0.3934 0.0
C65 C 0.9698 0.0429 0.38631 0.0
O66 O 0.95539 0.94289 0.47316 0.0
O67 O 0.56721 0.48262 0.03497 0.0
Zn68 Zn 0.53924 0.51345 0.03376 0.0
O69 O 0.50139 0.49921 0.02733 0.0
Zn70 Zn 0.48376 0.51241 0.96897 0.0
Zn71 Zn 0.50224 0.45884 0.02556 0.0
Zn72 Zn 0.48024 0.51205 0.0813 0.0
O73 O 0.44938 0.53419 0.98257 0.0
O74 O 0.44689 0.53386 0.06069 0.0
O75 O 0.54772 0.53841 0.98001 0.0
O76 O 0.5093 0.5377 0.93503 0.0
O77 O 0.47168 0.48069 0.92578 0.0
O78 O 0.48331 0.44363 0.96666 0.0
O79 O 0.48242 0.44294 0.08048 0.0
O80 O 0.54466 0.53626 0.0935 0.0
O81 O 0.46658 0.4801 0.11812 0.0
O82 O 0.50327 0.53635 0.12546 0.0
C83 C 0.56488 0.45644 0.0314 0.0
C84 C 0.43725 0.54095 0.02044 0.0
C85 C 0.47237 0.45455 0.93015 0.0
C86 C 0.5339 0.54628 0.94376 0.0
C87 C 0.46896 0.45398 0.11398 0.0
C88 C 0.52851 0.54392 0.12602 0.0
O89 O 0.5413 0.44475 0.02703 0.0
C90 C 0.25977 0.19322 0.49354 0.0
C91 C 0.26935 0.2036 0.53786 0.0
C92 C 0.23917 0.17294 0.49069 0.0
C93 C 0.18149 0.14638 0.55808 0.0
H94 H 0.18138 0.08675 0.46433 0.0
C95 C 0.09534 0.06389 0.54686 0.0
C96 C 0.08493 0.05661 0.50136 0.0
C97 C 0.11923 0.08001 0.55264 0.0
C98 C 0.18103 0.10342 0.49044 0.0
H99 H 0.26582 0.20062 0.6134 0.0
H100 H 0.22981 0.16484 0.60871 0.0
H101 H 0.2213 0.11764 0.47248 0.0
H102 H 0.09168 0.06039 0.42624 0.0
H103 H 0.13316 0.08882 0.4364 0.0
H104 H 0.14111 0.13251 0.5756 0.0
C105 C 0.23796 0.17258 0.57625 0.0
C106 C 0.2039 0.12107 0.49515 0.0
C107 C 0.2586 0.19284 0.57904 0.0
C108 C 0.09913 0.0656 0.46179 0.0
C109 C 0.12302 0.08174 0.4676 0.0
C110 C 0.15864 0.12877 0.55336 0.0
C111 C 0.22773 0.16271 0.532 0.0
C112 C 0.20427 0.14288 0.52878 0.0
C113 C 0.13325 0.08924 0.51309 0.0
C114 C 0.15806 0.10722 0.51924 0.0
H115 H 0.26768 0.20119 0.46108 0.0
H116 H 0.23154 0.16599 0.45608 0.0
H117 H 0.18094 0.16327 0.58378 0.0
H118 H 0.08503 0.0572 0.57815 0.0
H119 H 0.12679 0.08513 0.58816 0.0
C120 C 0.23623 0.69329 0.96845 0.0
C121 C 0.22639 0.70304 0.01204 0.0
C122 C 0.25685 0.67312 0.96719 0.0
C123 C 0.29252 0.6201 0.03885 0.0
H124 H 0.35347 0.63381 0.95614 0.0
C125 C 0.39797 0.56552 0.05904 0.0
C126 C 0.41149 0.55741 0.01765 0.0
C127 C 0.37388 0.58136 0.05649 0.0
C128 C 0.33643 0.62943 0.97891 0.0
H129 H 0.22952 0.69914 0.08778 0.0
H130 H 0.26581 0.66391 0.08592 0.0
H131 H 0.31354 0.66441 0.95473 0.0
H132 H 0.40998 0.55929 0.941 0.0
H133 H 0.36784 0.58678 0.93663 0.0
H134 H 0.31566 0.58532 0.06349 0.0
C135 C 0.25746 0.67157 0.05278 0.0
C136 C 0.31353 0.64696 0.97809 0.0
C137 C 0.23685 0.69175 0.05398 0.0
C138 C 0.4002 0.56529 0.97361 0.0
C139 C 0.3761 0.58114 0.97108 0.0
C140 C 0.31543 0.60254 0.03966 0.0
C141 C 0.26798 0.66235 0.00938 0.0
C142 C 0.29144 0.64265 0.00835 0.0
C143 C 0.36275 0.58946 0.0125 0.0
C144 C 0.33776 0.60718 0.01002 0.0
H145 H 0.22844 0.7016 0.93543 0.0
H146 H 0.26426 0.66615 0.9332 0.0
H147 H 0.27564 0.61603 0.06212 0.0
H148 H 0.4061 0.55985 0.09356 0.0
H149 H 0.3643 0.58776 0.08908 0.0
C150 C 0.74377 0.78587 0.47081 0.0
C151 C 0.72384 0.79039 0.50495 0.0
C152 C 0.76528 0.80476 0.46574 0.0
C153 C 0.80125 0.86374 0.52828 0.0
H154 H 0.83228 0.87397 0.40486 0.0
C155 C 0.88184 0.94822 0.48848 0.0
C156 C 0.90656 0.93757 0.47054 0.0
C157 C 0.85844 0.93139 0.49095 0.0
C158 C 0.82375 0.87125 0.43946 0.0
H159 H 0.70985 0.81856 0.55983 0.0
H160 H 0.74664 0.8523 0.54978 0.0
H161 H 0.79285 0.84304 0.41262 0.0
H162 H 0.92593 0.90133 0.43962 0.0
H163 H 0.88463 0.87216 0.44265 0.0
H164 H 0.83185 0.89276 0.55449 0.0
C165 C 0.74649 0.83366 0.52795 0.0
C166 C 0.80131 0.85339 0.44412 0.0
C167 C 0.72529 0.81443 0.53361 0.0
C168 C 0.90718 0.91005 0.45376 0.0
C169 C 0.8836 0.89341 0.45529 0.0
C170 C 0.82332 0.88202 0.52338 0.0
C171 C 0.76691 0.82901 0.4941 0.0
C172 C 0.78997 0.84908 0.48872 0.0
C173 C 0.8592 0.90385 0.47455 0.0
C174 C 0.83491 0.88567 0.47906 0.0
H175 H 0.74287 0.7674 0.44852 0.0
H176 H 0.78083 0.80005 0.43999 0.0
H177 H 0.79353 0.86066 0.56332 0.0
H178 H 0.8808 0.96932 0.50188 0.0
H179 H 0.83976 0.93983 0.50581 0.0
C180 C 0.75681 0.29602 0.99074 0.0
C181 C 0.78025 0.2999 0.02077 0.0
C182 C 0.7341 0.31359 -0.00556 0.0
C183 C 0.71292 0.38245 0.0278 0.0
H184 H 0.64082 0.34964 0.04571 0.0
C185 C 0.61508 0.44934 0.05207 0.0
C186 C 0.59004 0.43915 0.03214 0.0
C187 C 0.63871 0.43272 0.05327 0.0
C188 C 0.66069 0.35918 0.03997 0.0
H189 H 0.79855 0.32488 0.07755 0.0
H190 H 0.75884 0.35648 0.08312 0.0
H191 H 0.68152 0.32016 0.04176 0.0
H192 H 0.57023 0.40384 -0.00311 0.0
H193 H 0.61153 0.37534 -0.00295 0.0
H194 H 0.69218 0.42134 0.02386 0.0
C195 C 0.75814 0.33972 0.05711 0.0
C196 C 0.68398 0.34226 0.03808 0.0
C197 C 0.7807 0.32176 0.05402 0.0
C198 C 0.58916 0.41217 0.01295 0.0
C199 C 0.61286 0.39574 0.0134 0.0
C200 C 0.68953 0.39938 0.02881 0.0
C201 C 0.73457 0.33555 0.02764 0.0
C202 C 0.71023 0.35374 0.0317 0.0
C203 C 0.63792 0.40569 0.03387 0.0
C204 C 0.66305 0.38793 0.03456 0.0
H205 H 0.75582 0.27913 0.96503 0.0
H206 H 0.71616 0.3101 0.97122 0.0
H207 H 0.73301 0.39168 0.02254 0.0
H208 H 0.61632 0.47001 0.06745 0.0
H209 H 0.65747 0.44097 0.06999 0.0
C210 C 0.13781 0.7931 0.10931 0.0
C211 C 0.14913 0.80862 0.07316 0.0
C212 C 0.12819 0.80633 0.15008 0.0
C213 C 0.13039 0.87269 0.21812 0.0
H214 H 0.05587 0.85289 0.25209 0.0
C215 C 0.06144 0.94602 0.32512 0.0
C216 C 0.04486 0.93464 0.35983 0.0
C217 C 0.07608 0.92888 0.29443 0.0
C218 C 0.07685 0.8584 0.24359 0.0
H219 H 0.16088 0.84975 0.05233 0.0
H220 H 0.14396 0.87283 0.12306 0.0
H221 H 0.07952 0.8253 0.19261 0.0
H222 H 0.03069 0.89623 0.3894 0.0
H223 H 0.05632 0.8664 0.33587 0.0
H224 H 0.12747 0.90617 0.26832 0.0
C225 C 0.1425 0.85052 0.1202 0.0
C226 C 0.09043 0.84254 0.20961 0.0
C227 C 0.15193 0.83735 0.07948 0.0
C228 C 0.04317 0.90571 0.36297 0.0
C229 C 0.0578 0.88858 0.33223 0.0
C230 C 0.11683 0.88853 0.2521 0.0
C231 C 0.13 0.83524 0.1555 0.0
C232 C 0.11713 0.84986 0.19583 0.0
C233 C 0.07447 0.89998 0.29771 0.0
C234 C 0.0897 0.88188 0.26451 0.0
H235 H 0.1354 0.77091 0.10521 0.0
H236 H 0.11888 0.79402 0.17696 0.0
H237 H 0.15113 0.87857 0.20871 0.0
H238 H 0.0632 0.9682 0.32166 0.0
H239 H 0.08839 0.93829 0.26767 0.0
C240 C 0.64534 0.70709 0.67737 0.0
C241 C 0.62588 0.71415 0.64183 0.0
C242 C 0.63688 0.6936 0.71778 0.0
C243 C 0.57472 0.67311 0.78403 0.0
H244 H 0.61832 0.60806 0.81285 0.0
C245 C 0.52981 0.57934 0.87698 0.0
C246 C 0.54612 0.56694 0.91255 0.0
C247 C 0.54086 0.59989 0.84916 0.0
C248 C 0.60613 0.62635 0.80575 0.0
H249 H 0.58221 0.71469 0.62233 0.0
H250 H 0.5675 0.69082 0.69211 0.0
H251 H 0.63544 0.64134 0.75719 0.0
H252 H 0.58702 0.56623 0.94632 0.0
H253 H 0.60634 0.60198 0.89729 0.0
H254 H 0.54494 0.65746 0.83135 0.0
C255 C 0.58924 0.69572 0.68919 0.0
C256 C 0.61599 0.64552 0.77401 0.0
C257 C 0.59768 0.70918 0.64894 0.0
C258 C 0.57388 0.57532 0.9192 0.0
C259 C 0.58498 0.59576 0.8911 0.0
C260 C 0.56481 0.65386 0.81555 0.0
C261 C 0.60882 0.68699 0.72339 0.0
C262 C 0.60012 0.66883 0.76201 0.0
C263 C 0.56852 0.60839 0.85605 0.0
C264 C 0.58016 0.63 0.82597 0.0
H265 H 0.66723 0.71058 0.67277 0.0
H266 H 0.65242 0.68753 0.74385 0.0
H267 H 0.56222 0.69108 0.77619 0.0
H268 H 0.50836 0.57343 0.8709 0.0
H269 H 0.52781 0.60895 0.82189 0.0
C270 C 0.85965 0.19921 0.10578 0.0
C271 C 0.87556 0.20626 0.06704 0.0
C272 C 0.87164 0.18495 0.14359 0.0
C273 C 0.92905 0.13722 0.16682 0.0
H274 H 0.90876 0.14676 0.29774 0.0
C275 C 0.97786 0.07229 0.31604 0.0
C276 C 0.95983 0.06239 0.34999 0.0
C277 C 0.96872 0.09152 0.28299 0.0
C278 C 0.91445 0.14374 0.26124 0.0
H279 H 0.91681 0.20591 0.03896 0.0
H280 H 0.93787 0.18136 0.10525 0.0
H281 H 0.89138 0.17914 0.23888 0.0
H282 H 0.91793 0.06485 0.3755 0.0
H283 H 0.90196 0.09812 0.31746 0.0
H284 H 0.95177 0.10165 0.18889 0.0
C285 C 0.91601 0.1862 0.10594 0.0
C286 C 0.90455 0.1623 0.2276 0.0
C287 C 0.90401 0.20035 0.06813 0.0
C288 C 0.93239 0.07204 0.3499 0.0
C289 C 0.92328 0.0913 0.31689 0.0
C290 C 0.93895 0.1187 0.20041 0.0
C291 C 0.89978 0.17758 0.14336 0.0
C292 C 0.9116 0.15912 0.17994 0.0
C293 C 0.94136 0.10131 0.28318 0.0
C294 C 0.93159 0.12162 0.24791 0.0
H295 H 0.83762 0.20329 0.10562 0.0
H296 H 0.85852 0.17842 0.1717 0.0
H297 H 0.93443 0.13384 0.13024 0.0
H298 H -0.00084 0.0654 0.31519 0.0
H299 H 0.98322 0.09905 0.25772 0.0
C300 C 0.34541 0.33835 0.60865 0.0
C301 C 0.3481 0.30961 0.60273 0.0
C302 C 0.35619 0.35179 0.64912 0.0
C303 C 0.41097 0.34427 0.73973 0.0
H304 H 0.37622 0.40889 0.79544 0.0
C305 C 0.46002 0.40756 0.89693 0.0
C306 C 0.45872 0.4365 0.89354 0.0
C307 C 0.44559 0.39052 0.86424 0.0
C308 C 0.38624 0.39098 0.78002 0.0
H309 H 0.36296 0.27216 0.63538 0.0
H310 H 0.38169 0.29572 0.7069 0.0
H311 H 0.35078 0.381 0.73597 0.0
H312 H 0.44166 0.47016 0.85249 0.0
H313 H 0.41668 0.44038 0.79533 0.0
H314 H 0.44657 0.35452 0.78342 0.0
C315 C 0.37151 0.30785 0.67979 0.0
C316 C 0.37166 0.37497 0.74609 0.0
C317 C 0.36059 0.29434 0.63918 0.0
C318 C 0.44309 0.44798 0.85621 0.0
C319 C 0.42858 0.43093 0.82368 0.0
C320 C 0.42553 0.36025 0.77383 0.0
C321 C 0.36991 0.3368 0.68471 0.0
C322 C 0.38405 0.35174 0.72488 0.0
C323 C 0.42946 0.40204 0.82763 0.0
C324 C 0.41349 0.38406 0.79365 0.0
H325 H 0.3356 0.35057 0.58126 0.0
H326 H 0.35482 0.37411 0.65152 0.0
H327 H 0.42124 0.32673 0.72361 0.0
H328 H 0.47185 0.39802 0.92525 0.0
H329 H 0.44656 0.36833 0.86828 0.0
C330 C 0.59374 0.69737 0.46133 0.0
C331 C 0.62229 0.70266 0.46636 0.0
C332 C 0.58322 0.68171 0.42293 0.0
C333 C 0.59911 0.65574 0.30329 0.0
H334 H 0.54629 0.5983 0.33109 0.0
C335 C 0.56723 0.57013 0.16736 0.0
C336 C 0.53916 0.56241 0.16473 0.0
C337 C 0.57716 0.58793 0.20347 0.0
C338 C 0.56074 0.61446 0.3226 0.0
H339 H 0.66211 0.69615 0.43451 0.0
H340 H 0.64368 0.66888 0.36719 0.0
H341 H 0.56372 0.629 0.39446 0.0
H342 H 0.4995 0.56749 0.19799 0.0
H343 H 0.51678 0.59876 0.26056 0.0
H344 H 0.59613 0.64116 0.23137 0.0
C345 C 0.62944 0.67706 0.39282 0.0
C346 C 0.57073 0.63205 0.35891 0.0
C347 C 0.63998 0.69269 0.43133 0.0
C348 C 0.52127 0.57288 0.19907 0.0
C349 C 0.5312 0.59073 0.2351 0.0
C350 C 0.58906 0.63818 0.2669 0.0
C351 C 0.60101 0.67104 0.38864 0.0
C352 C 0.59004 0.65285 0.34967 0.0
C353 C 0.55925 0.59846 0.2377 0.0
C354 C 0.5698 0.61731 0.27618 0.0
H355 H 0.57953 0.70518 0.48734 0.0
H356 H 0.56115 0.67783 0.42018 0.0
H357 H 0.61376 0.67178 0.29504 0.0
H358 H 0.58161 0.56239 0.14158 0.0
H359 H 0.59897 0.59318 0.20489 0.0
C360 C 0.86567 0.21102 0.85284 0.0
C361 C 0.85874 0.19664 0.89345 0.0
C362 C 0.8734 0.19653 0.81201 0.0
C363 C 0.90974 0.15963 0.75021 0.0
H364 H 0.87235 0.09254 0.70601 0.0
C365 C 0.96309 0.07473 0.64035 0.0
C366 C 0.94799 0.06271 0.60201 0.0
C367 C 0.95035 0.09315 0.6715 0.0
C368 C 0.88285 0.11139 0.71759 0.0
H369 H 0.85291 0.15611 0.92275 0.0
H370 H 0.86625 0.13081 0.85154 0.0
H371 H 0.85154 0.12153 0.7671 0.0
H372 H 0.90762 0.06064 0.56635 0.0
H373 H 0.88541 0.09263 0.62109 0.0
H374 H 0.94136 0.14916 0.70145 0.0
C375 C 0.86581 0.15319 0.85111 0.0
C376 C 0.87104 0.12786 0.7527 0.0
C377 C 0.85842 0.16763 0.89195 0.0
C378 C 0.91986 0.0695 0.59555 0.0
C379 C 0.90709 0.08775 0.62693 0.0
C380 C 0.92167 0.14303 0.71536 0.0
C381 C 0.87389 0.16747 0.81104 0.0
C382 C 0.8846 0.15188 0.7699 0.0
C383 C 0.92222 0.09977 0.66517 0.0
C384 C 0.90856 0.11852 0.6993 0.0
H385 H 0.86608 0.2334 0.85329 0.0
H386 H 0.87938 0.208 0.78145 0.0
H387 H 0.92076 0.17791 0.7631 0.0
H388 H 0.9848 0.07001 0.64629 0.0
H389 H 0.96242 0.10185 0.70106 0.0
C390 C 0.34582 0.33904 0.42373 0.0
C391 C 0.34905 0.31034 0.42736 0.0
C392 C 0.35724 0.35302 0.38645 0.0
C393 C 0.38698 0.34557 0.26849 0.0
H394 H 0.42723 0.41178 0.30887 0.0
C395 C 0.45735 0.40723 0.14504 0.0
C396 C 0.4553 0.4362 0.14832 0.0
C397 C 0.44412 0.39063 0.17741 0.0
C398 C 0.41586 0.39351 0.29689 0.0
H399 H 0.3653 0.27346 0.39357 0.0
H400 H 0.38554 0.29808 0.32792 0.0
H401 H 0.40334 0.38494 0.36683 0.0
H402 H 0.43744 0.47038 0.18793 0.0
H403 H 0.41431 0.4415 0.24385 0.0
H404 H 0.39958 0.35437 0.1983 0.0
C405 C 0.37407 0.30968 0.35399 0.0
C406 C 0.40214 0.37814 0.3301 0.0
C407 C 0.36251 0.29561 0.39144 0.0
C408 C 0.43965 0.44816 0.1845 0.0
C409 C 0.42646 0.4316 0.21674 0.0
C410 C 0.40072 0.36106 0.23509 0.0
C411 C 0.37223 0.33863 0.35201 0.0
C412 C 0.38727 0.35421 0.31623 0.0
C413 C 0.42865 0.40268 0.21373 0.0
C414 C 0.41503 0.38537 0.24895 0.0
H415 H 0.33506 0.35079 0.45054 0.0
H416 H 0.35489 0.37526 0.38518 0.0
H417 H 0.37562 0.32724 0.25683 0.0
H418 H 0.46921 0.39735 0.11755 0.0
H419 H 0.44636 0.3684 0.17446 0.0
C420 C 0.13205 0.79388 0.85978 0.0
C421 C 0.14447 0.80926 0.89734 0.0
C422 C 0.12071 0.8073 0.82043 0.0
C423 C 0.1204 0.87427 0.75909 0.0
H424 H 0.04613 0.85275 0.7176 0.0
C425 C 0.0501 0.94613 0.65116 0.0
C426 C 0.03532 0.93452 0.6121 0.0
C427 C 0.06407 0.92924 0.68324 0.0
C428 C 0.06699 0.85877 0.7284 0.0
H429 H 0.15614 0.85044 0.92223 0.0
H430 H 0.13611 0.87381 0.85422 0.0
H431 H 0.07094 0.82547 0.77674 0.0
H432 H 0.02301 0.89593 0.57689 0.0
H433 H 0.04737 0.86646 0.63321 0.0
H434 H 0.11622 0.90792 0.71161 0.0
C435 C 0.13516 0.85146 0.8548 0.0
C436 C 0.08124 0.84311 0.76211 0.0
C437 C 0.14637 0.83811 0.89401 0.0
C438 C 0.03422 0.90557 0.60658 0.0
C439 C 0.0481 0.88866 0.63886 0.0
C440 C 0.10614 0.88995 0.72557 0.0
C441 C 0.12182 0.83628 0.81789 0.0
C442 C 0.10791 0.85099 0.77841 0.0
C443 C 0.06347 0.90036 0.67713 0.0
C444 C 0.07912 0.88264 0.71049 0.0
H445 H 0.13026 0.77162 0.86156 0.0
H446 H 0.1108 0.79504 0.79228 0.0
H447 H 0.14111 0.88058 0.77031 0.0
H448 H 0.05134 0.96833 0.6566 0.0
H449 H 0.07536 0.93881 0.7129 0.0
loop_
_geom_bond_atom_site_label_1
_geom_bond_atom_site_label_2
_geom_bond_distance
_geom_bond_site_symmetry_2
_ccdc_geom_bond_type
H0 C5 0.929 . S
H1 C10 0.931 . S
H2 C8 0.930 . S
N3 N4 1.234 1_556 S
N3 C7 1.457 . S
N4 N3 1.234 1_554 S
C5 H0 0.929 . S
C5 C6 1.373 . S
C5 C7 1.384 . S
C6 C5 1.373 . S
C6 C10 1.397 1_556 S
C7 N3 1.457 . S
C7 C5 1.384 . S
C7 C8 1.355 1_556 S
C8 H2 0.930 . S
C8 C7 1.355 1_554 S
C8 C9 1.371 . S
C9 C8 1.371 . S
C9 C10 1.383 . S
C10 H1 0.931 . S
C10 C6 1.397 1_554 S
C10 C9 1.383 . S
H11 C16 0.929 . S
H12 C21 0.931 . S
H13 C19 0.930 . S
N14 N15 1.234 . S
N14 C18 1.453 . S
N15 N14 1.234 . S
C16 H11 0.929 . S
C16 C17 1.373 . S
C16 C18 1.368 . S
C17 C16 1.373 . S
C17 C21 1.397 . S
C18 N14 1.453 . S
C18 C16 1.368 . S
C18 C19 1.373 . S
C19 H13 0.930 . S
C19 C18 1.373 . S
C19 C20 1.371 . S
C20 C19 1.371 . S
C20 C21 1.383 . S
C21 H12 0.931 . S
C21 C17 1.397 . S
C21 C20 1.383 . S
H22 C27 0.929 . S
H23 C32 0.931 . S
H24 C30 0.930 . S
N25 N26 1.234 1_556 S
N25 C29 1.453 . S
N26 N25 1.234 1_554 S
C27 H22 0.929 . S
C27 C28 1.373 . S
C27 C29 1.368 . S
C28 C27 1.373 . S
C28 C32 1.397 1_556 S
C29 N25 1.453 . S
C29 C27 1.368 . S
C29 C30 1.373 1_556 S
C30 H24 0.930 . S
C30 C29 1.373 1_554 S
C30 C31 1.371 . S
C31 C30 1.371 . S
C31 C32 1.383 . S
C32 H23 0.931 . S
C32 C28 1.397 1_554 S
C32 C31 1.383 . S
H33 C38 0.929 . S
H34 C43 0.931 . S
H35 C41 0.930 . S
N36 N37 1.234 . S
N36 C40 1.453 . S
N37 N36 1.234 . S
C38 H33 0.929 . S
C38 C39 1.373 . S
C38 C40 1.368 . S
C39 C38 1.373 . S
C39 C43 1.397 . S
C40 N36 1.453 . S
C40 C38 1.368 . S
C40 C41 1.373 . S
C41 H35 0.930 . S
C41 C40 1.373 . S
C41 C42 1.371 . S
C42 C41 1.371 . S
C42 C43 1.383 . S
C43 H34 0.931 . S
C43 C39 1.397 . S
C43 C42 1.383 . S
O44 Zn45 1.953 1_565 S
O44 C60 1.225 . S
Zn45 O44 1.953 1_545 S
Zn45 O46 1.949 1_655 S
Zn45 O52 1.919 . S
Zn45 O57 1.924 . S
O46 Zn45 1.949 1_455 S
O46 Zn47 1.923 . S
O46 Zn48 1.950 1_545 S
O46 Zn49 1.945 . S
Zn47 O46 1.923 . S
Zn47 O50 1.933 . S
Zn47 O53 1.943 . S
Zn47 O54 1.965 1_545 S
Zn48 O46 1.950 1_565 S
Zn48 O55 1.938 . S
Zn48 O56 1.906 . S
Zn48 O66 1.953 1_455 S
Zn49 O46 1.945 . S
Zn49 O51 1.932 . S
Zn49 O58 1.949 1_545 S
Zn49 O59 1.910 1_455 S
O50 Zn47 1.933 . S
O50 C61 1.226 . S
O51 Zn49 1.932 . S
O51 C61 1.307 . S
O52 Zn45 1.919 . S
O52 C63 1.253 . S
O53 Zn47 1.943 . S
O53 C63 1.281 1_455 S
O54 Zn47 1.965 1_565 S
O54 C62 1.303 . S
O55 Zn48 1.938 . S
O55 C62 1.247 . S
O56 Zn48 1.906 . S
O56 C64 1.304 . S
O57 Zn45 1.924 . S
O57 C65 1.311 . S
O58 Zn49 1.949 1_565 S
O58 C64 1.311 . S
O59 Zn49 1.910 1_655 S
O59 C65 1.231 . S
C60 O44 1.225 . S
C60 O66 1.298 . S
C61 O50 1.226 . S
C61 O51 1.307 . S
C62 O54 1.303 . S
C62 O55 1.247 . S
C63 O52 1.253 . S
C63 O53 1.281 1_655 S
C64 O56 1.304 . S
C64 O58 1.311 . S
C65 O57 1.311 . S
C65 O59 1.231 . S
O66 Zn48 1.953 1_655 S
O66 C60 1.298 . S
O67 Zn68 1.953 . S
O67 C83 1.225 . S
Zn68 O67 1.953 . S
Zn68 O69 1.949 . S
Zn68 O75 1.919 1_554 S
Zn68 O80 1.924 . S
O69 Zn68 1.949 . S
O69 Zn70 1.923 1_554 S
O69 Zn71 1.950 . S
O69 Zn72 1.945 . S
Zn70 O69 1.923 1_556 S
Zn70 O73 1.933 . S
Zn70 O76 1.941 . S
Zn70 O77 1.965 . S
Zn71 O69 1.950 . S
Zn71 O78 1.938 1_554 S
Zn71 O79 1.906 . S
Zn71 O89 1.953 . S
Zn72 O69 1.945 . S
Zn72 O74 1.932 . S
Zn72 O81 1.977 . S
Zn72 O82 1.910 . S
O73 Zn70 1.933 . S
O73 C84 1.226 1_556 S
O74 Zn72 1.932 . S
O74 C84 1.307 . S
O75 Zn68 1.919 1_556 S
O75 C86 1.253 . S
O76 Zn70 1.941 . S
O76 C86 1.283 . S
O77 Zn70 1.965 . S
O77 C85 1.303 . S
O78 Zn71 1.938 1_556 S
O78 C85 1.247 . S
O79 Zn71 1.906 . S
O79 C87 1.304 . S
O80 Zn68 1.924 . S
O80 C88 1.311 . S
O81 Zn72 1.977 . S
O81 C87 1.272 . S
O82 Zn72 1.910 . S
O82 C88 1.231 . S
C83 O67 1.225 . S
C83 O89 1.298 . S
C84 O73 1.226 1_554 S
C84 O74 1.307 . S
C85 O77 1.303 . S
C85 O78 1.247 . S
C86 O75 1.253 . S
C86 O76 1.283 . S
C87 O79 1.304 . S
C87 O81 1.272 . S
C88 O80 1.311 . S
C88 O82 1.231 . S
O89 Zn71 1.953 . S
O89 C83 1.298 . S
C90 C91 1.349 . S
C90 C92 1.327 . S
C90 H115 0.950 . S
C91 C90 1.349 . S
C91 C107 1.349 . S
C92 C90 1.327 . S
C92 C111 1.429 . S
C92 H116 0.950 . S
C93 C110 1.574 . S
C93 C112 1.368 . S
C93 H117 0.949 . S
H94 C98 0.949 . S
C95 C96 1.349 . S
C95 C97 1.327 . S
C95 H118 0.950 . S
C96 C95 1.349 . S
C96 C108 1.349 . S
C97 C95 1.327 . S
C97 C113 1.429 . S
C97 H119 0.950 . S
C98 H94 0.949 . S
C98 C106 1.574 . S
C98 C114 1.368 . S
H99 C107 0.950 . S
H100 C105 0.950 . S
H101 C106 0.949 . S
H102 C108 0.950 . S
H103 C109 0.950 . S
H104 C110 0.949 . S
C105 H100 0.950 . S
C105 C107 1.327 . S
C105 C111 1.429 . S
C106 C98 1.574 . S
C106 H101 0.949 . S
C106 C112 1.368 . S
C107 C91 1.349 . S
C107 H99 0.950 . S
C107 C105 1.327 . S
C108 C96 1.349 . S
C108 H102 0.950 . S
C108 C109 1.327 . S
C109 H103 0.950 . S
C109 C108 1.327 . S
C109 C113 1.429 . S
C110 C93 1.574 . S
C110 H104 0.949 . S
C110 C114 1.368 . S
C111 C92 1.429 . S
C111 C105 1.429 . S
C111 C112 1.523 . S
C112 C93 1.368 . S
C112 C106 1.368 . S
C112 C111 1.523 . S
C113 C97 1.429 . S
C113 C109 1.429 . S
C113 C114 1.523 . S
C114 C98 1.368 . S
C114 C110 1.368 . S
C114 C113 1.523 . S
H115 C90 0.950 . S
H116 C92 0.950 . S
H117 C93 0.949 . S
H118 C95 0.950 . S
H119 C97 0.950 . S
C120 C121 1.349 1_556 S
C120 C122 1.327 . S
C120 H145 0.950 . S
C121 C120 1.349 1_554 S
C121 C137 1.349 . S
C122 C120 1.327 . S
C122 C141 1.429 1_556 S
C122 H146 0.950 . S
C123 C140 1.574 . S
C123 C142 1.368 . S
C123 H147 0.949 . S
H124 C128 0.949 . S
C125 C126 1.349 . S
C125 C127 1.327 . S
C125 H148 0.950 . S
C126 C125 1.349 . S
C126 C138 1.349 1_554 S
C127 C125 1.327 . S
C127 C143 1.429 . S
C127 H149 0.950 . S
C128 H124 0.949 . S
C128 C136 1.574 . S
C128 C144 1.368 1_556 S
H129 C137 0.950 . S
H130 C135 0.950 . S
H131 C136 0.949 . S
H132 C138 0.950 . S
H133 C139 0.950 . S
H134 C140 0.949 . S
C135 H130 0.950 . S
C135 C137 1.327 . S
C135 C141 1.429 . S
C136 C128 1.574 . S
C136 H131 0.949 . S
C136 C142 1.368 1_556 S
C137 C121 1.349 . S
C137 H129 0.950 . S
C137 C135 1.327 . S
C138 C126 1.349 1_556 S
C138 H132 0.950 . S
C138 C139 1.327 . S
C139 H133 0.950 . S
C139 C138 1.327 . S
C139 C143 1.429 1_556 S
C140 C123 1.574 . S
C140 H134 0.949 . S
C140 C144 1.368 . S
C141 C122 1.429 1_554 S
C141 C135 1.429 . S
C141 C142 1.523 . S
C142 C123 1.368 . S
C142 C136 1.368 1_554 S
C142 C141 1.523 . S
C143 C127 1.429 . S
C143 C139 1.429 1_554 S
C143 C144 1.523 . S
C144 C128 1.368 1_554 S
C144 C140 1.368 . S
C144 C143 1.523 . S
H145 C120 0.950 . S
H146 C122 0.950 . S
H147 C123 0.949 . S
H148 C125 0.950 . S
H149 C127 0.950 . S
C150 C151 1.349 . S
C150 C152 1.327 . S
C150 H175 0.950 . S
C151 C150 1.349 . S
C151 C167 1.349 . S
C152 C150 1.327 . S
C152 C171 1.429 . S
C152 H176 0.950 . S
C153 C170 1.574 . S
C153 C172 1.368 . S
C153 H177 0.949 . S
H154 C158 0.949 . S
C155 C156 1.349 . S
C155 C157 1.327 . S
C155 H178 0.950 . S
C156 C155 1.349 . S
C156 C168 1.349 . S
C157 C155 1.327 . S
C157 C173 1.429 . S
C157 H179 0.950 . S
C158 H154 0.949 . S
C158 C166 1.574 . S
C158 C174 1.368 . S
H159 C167 0.950 . S
H160 C165 0.950 . S
H161 C166 0.949 . S
H162 C168 0.950 . S
H163 C169 0.950 . S
H164 C170 0.949 . S
C165 H160 0.950 . S
C165 C167 1.327 . S
C165 C171 1.429 . S
C166 C158 1.574 . S
C166 H161 0.949 . S
C166 C172 1.368 . S
C167 C151 1.349 . S
C167 H159 0.950 . S
C167 C165 1.327 . S
C168 C156 1.349 . S
C168 H162 0.950 . S
C168 C169 1.327 . S
C169 H163 0.950 . S
C169 C168 1.327 . S
C169 C173 1.429 . S
C170 C153 1.574 . S
C170 H164 0.949 . S
C170 C174 1.368 . S
C171 C152 1.429 . S
C171 C165 1.429 . S
C171 C172 1.523 . S
C172 C153 1.368 . S
C172 C166 1.368 . S
C172 C171 1.523 . S
C173 C157 1.429 . S
C173 C169 1.429 . S
C173 C174 1.523 . S
C174 C158 1.368 . S
C174 C170 1.368 . S
C174 C173 1.523 . S
H175 C150 0.950 . S
H176 C152 0.950 . S
H177 C153 0.949 . S
H178 C155 0.950 . S
H179 C157 0.950 . S
C180 C181 1.349 1_556 S
C180 C182 1.327 . S
C180 H205 0.950 . S
C181 C180 1.349 1_554 S
C181 C197 1.349 . S
C182 C180 1.327 . S
C182 C201 1.429 1_556 S
C182 H206 0.950 . S
C183 C200 1.574 . S
C183 C202 1.368 . S
C183 H207 0.949 . S
H184 C188 0.949 . S
C185 C186 1.349 . S
C185 C187 1.327 . S
C185 H208 0.950 . S
C186 C185 1.349 . S
C186 C198 1.349 1_554 S
C187 C185 1.327 . S
C187 C203 1.429 . S
C187 H209 0.950 . S
C188 H184 0.949 . S
C188 C196 1.574 . S
C188 C204 1.368 1_556 S
H189 C197 0.950 . S
H190 C195 0.950 . S
H191 C196 0.949 . S
H192 C198 0.950 . S
H193 C199 0.950 . S
H194 C200 0.949 . S
C195 H190 0.950 . S
C195 C197 1.327 . S
C195 C201 1.429 . S
C196 C188 1.574 . S
C196 H191 0.949 . S
C196 C202 1.368 1_556 S
C197 C181 1.349 . S
C197 H189 0.950 . S
C197 C195 1.327 . S
C198 C186 1.349 1_556 S
C198 H192 0.950 . S
C198 C199 1.327 . S
C199 H193 0.950 . S
C199 C198 1.327 . S
C199 C203 1.429 1_556 S
C200 C183 1.574 . S
C200 H194 0.949 . S
C200 C204 1.368 . S
C201 C182 1.429 1_554 S
C201 C195 1.429 . S
C201 C202 1.523 . S
C202 C183 1.368 . S
C202 C196 1.368 1_554 S
C202 C201 1.523 . S
C203 C187 1.429 . S
C203 C199 1.429 1_554 S
C203 C204 1.523 . S
C204 C188 1.368 1_554 S
C204 C200 1.368 . S
C204 C203 1.523 . S
H205 C180 0.950 . S
H206 C182 0.950 . S
H207 C183 0.949 . S
H208 C185 0.950 . S
H209 C187 0.950 . S
C210 C211 1.349 . S
C210 C212 1.327 . S
C210 H235 0.950 . S
C211 C210 1.349 . S
C211 C227 1.349 . S
C212 C210 1.327 . S
C212 C231 1.429 . S
C212 H236 0.950 . S
C213 C230 1.574 . S
C213 C232 1.368 . S
C213 H237 0.949 . S
H214 C218 0.949 . S
C215 C216 1.349 . S
C215 C217 1.327 . S
C215 H238 0.950 . S
C216 C215 1.349 . S
C216 C228 1.349 . S
C217 C215 1.327 . S
C217 C233 1.429 . S
C217 H239 0.950 . S
C218 H214 0.949 . S
C218 C226 1.574 . S
C218 C234 1.368 . S
H219 C227 0.950 . S
H220 C225 0.950 . S
H221 C226 0.949 . S
H222 C228 0.950 . S
H223 C229 0.950 . S
H224 C230 0.949 . S
C225 H220 0.950 . S
C225 C227 1.327 . S
C225 C231 1.429 . S
C226 C218 1.574 . S
C226 H221 0.949 . S
C226 C232 1.368 . S
C227 C211 1.349 . S
C227 H219 0.950 . S
C227 C225 1.327 . S
C228 C216 1.349 . S
C228 H222 0.950 . S
C228 C229 1.327 . S
C229 H223 0.950 . S
C229 C228 1.327 . S
C229 C233 1.429 . S
C230 C213 1.574 . S
C230 H224 0.949 . S
C230 C234 1.368 . S
C231 C212 1.429 . S
C231 C225 1.429 . S
C231 C232 1.523 . S
C232 C213 1.368 . S
C232 C226 1.368 . S
C232 C231 1.523 . S
C233 C217 1.429 . S
C233 C229 1.429 . S
C233 C234 1.523 . S
C234 C218 1.368 . S
C234 C230 1.368 . S
C234 C233 1.523 . S
H235 C210 0.950 . S
H236 C212 0.950 . S
H237 C213 0.949 . S
H238 C215 0.950 . S
H239 C217 0.950 . S
C240 C241 1.349 . S
C240 C242 1.327 . S
C240 H265 0.950 . S
C241 C240 1.349 . S
C241 C257 1.349 . S
C242 C240 1.327 . S
C242 C261 1.429 . S
C242 H266 0.950 . S
C243 C260 1.574 . S
C243 C262 1.368 . S
C243 H267 0.949 . S
H244 C248 0.949 . S
C245 C246 1.349 . S
C245 C247 1.327 . S
C245 H268 0.950 . S
C246 C245 1.349 . S
C246 C258 1.349 . S
C247 C245 1.327 . S
C247 C263 1.429 . S
C247 H269 0.950 . S
C248 H244 0.949 . S
C248 C256 1.574 . S
C248 C264 1.368 . S
H249 C257 0.950 . S
H250 C255 0.950 . S
H251 C256 0.949 . S
H252 C258 0.950 . S
H253 C259 0.950 . S
H254 C260 0.949 . S
C255 H250 0.950 . S
C255 C257 1.327 . S
C255 C261 1.429 . S
C256 C248 1.574 . S
C256 H251 0.949 . S
C256 C262 1.368 . S
C257 C241 1.349 . S
C257 H249 0.950 . S
C257 C255 1.327 . S
C258 C246 1.349 . S
C258 H252 0.950 . S
C258 C259 1.327 . S
C259 H253 0.950 . S
C259 C258 1.327 . S
C259 C263 1.429 . S
C260 C243 1.574 . S
C260 H254 0.949 . S
C260 C264 1.368 . S
C261 C242 1.429 . S
C261 C255 1.429 . S
C261 C262 1.523 . S
C262 C243 1.368 . S
C262 C256 1.368 . S
C262 C261 1.523 . S
C263 C247 1.429 . S
C263 C259 1.429 . S
C263 C264 1.523 . S
C264 C248 1.368 . S
C264 C260 1.368 . S
C264 C263 1.523 . S
H265 C240 0.950 . S
H266 C242 0.950 . S
H267 C243 0.949 . S
H268 C245 0.950 . S
H269 C247 0.950 . S
C270 C271 1.349 . S
C270 C272 1.327 . S
C270 H295 0.950 . S
C271 C270 1.349 . S
C271 C287 1.349 . S
C272 C270 1.327 . S
C272 C291 1.429 . S
C272 H296 0.950 . S
C273 C290 1.574 . S
C273 C292 1.368 . S
C273 H297 0.949 . S
H274 C278 0.949 . S
C275 C276 1.349 . S
C275 C277 1.327 . S
C275 H298 0.950 . S
C276 C275 1.349 . S
C276 C288 1.349 . S
C277 C275 1.327 . S
C277 C293 1.429 . S
C277 H299 0.950 . S
C278 H274 0.949 . S
C278 C286 1.574 . S
C278 C294 1.368 . S
H279 C287 0.950 . S
H280 C285 0.950 . S
H281 C286 0.949 . S
H282 C288 0.950 . S
H283 C289 0.950 . S
H284 C290 0.949 . S
C285 H280 0.950 . S
C285 C287 1.327 . S
C285 C291 1.429 . S
C286 C278 1.574 . S
C286 H281 0.949 . S
C286 C292 1.368 . S
C287 C271 1.349 . S
C287 H279 0.950 . S
C287 C285 1.327 . S
C288 C276 1.349 . S
C288 H282 0.950 . S
C288 C289 1.327 . S
C289 H283 0.950 . S
C289 C288 1.327 . S
C289 C293 1.429 . S
C290 C273 1.574 . S
C290 H284 0.949 . S
C290 C294 1.368 . S
C291 C272 1.429 . S
C291 C285 1.429 . S
C291 C292 1.523 . S
C292 C273 1.368 . S
C292 C286 1.368 . S
C292 C291 1.523 . S
C293 C277 1.429 . S
C293 C289 1.429 . S
C293 C294 1.523 . S
C294 C278 1.368 . S
C294 C290 1.368 . S
C294 C293 1.523 . S
H295 C270 0.950 . S
H296 C272 0.950 . S
H297 C273 0.949 . S
H298 C275 0.950 . S
H299 C277 0.950 . S
C300 C301 1.349 . S
C300 C302 1.327 . S
C300 H325 0.950 . S
C301 C300 1.349 . S
C301 C317 1.349 . S
C302 C300 1.327 . S
C302 C321 1.429 . S
C302 H326 0.950 . S
C303 C320 1.574 . S
C303 C322 1.368 . S
C303 H327 0.949 . S
H304 C308 0.949 . S
C305 C306 1.349 . S
C305 C307 1.327 . S
C305 H328 0.950 . S
C306 C305 1.349 . S
C306 C318 1.349 . S
C307 C305 1.327 . S
C307 C323 1.429 . S
C307 H329 0.950 . S
C308 H304 0.949 . S
C308 C316 1.574 . S
C308 C324 1.368 . S
H309 C317 0.950 . S
H310 C315 0.950 . S
H311 C316 0.949 . S
H312 C318 0.950 . S
H313 C319 0.950 . S
H314 C320 0.949 . S
C315 H310 0.950 . S
C315 C317 1.327 . S
C315 C321 1.429 . S
C316 C308 1.574 . S
C316 H311 0.949 . S
C316 C322 1.368 . S
C317 C301 1.349 . S
C317 H309 0.950 . S
C317 C315 1.327 . S
C318 C306 1.349 . S
C318 H312 0.950 . S
C318 C319 1.327 . S
C319 H313 0.950 . S
C319 C318 1.327 . S
C319 C323 1.429 . S
C320 C303 1.574 . S
C320 H314 0.949 . S
C320 C324 1.368 . S
C321 C302 1.429 . S
C321 C315 1.429 . S
C321 C322 1.523 . S
C322 C303 1.368 . S
C322 C316 1.368 . S
C322 C321 1.523 . S
C323 C307 1.429 . S
C323 C319 1.429 . S
C323 C324 1.523 . S
C324 C308 1.368 . S
C324 C320 1.368 . S
C324 C323 1.523 . S
H325 C300 0.950 . S
H326 C302 0.950 . S
H327 C303 0.949 . S
H328 C305 0.950 . S
H329 C307 0.950 . S
C330 C331 1.349 . S
C330 C332 1.327 . S
C330 H355 0.950 . S
C331 C330 1.349 . S
C331 C347 1.349 . S
C332 C330 1.327 . S
C332 C351 1.429 . S
C332 H356 0.950 . S
C333 C350 1.574 . S
C333 C352 1.368 . S
C333 H357 0.949 . S
H334 C338 0.949 . S
C335 C336 1.349 . S
C335 C337 1.327 . S
C335 H358 0.950 . S
C336 C335 1.349 . S
C336 C348 1.349 . S
C337 C335 1.327 . S
C337 C353 1.429 . S
C337 H359 0.950 . S
C338 H334 0.949 . S
C338 C346 1.574 . S
C338 C354 1.368 . S
H339 C347 0.950 . S
H340 C345 0.950 . S
H341 C346 0.949 . S
H342 C348 0.950 . S
H343 C349 0.950 . S
H344 C350 0.949 . S
C345 H340 0.950 . S
C345 C347 1.327 . S
C345 C351 1.429 . S
C346 C338 1.574 . S
C346 H341 0.949 . S
C346 C352 1.368 . S
C347 C331 1.349 . S
C347 H339 0.950 . S
C347 C345 1.327 . S
C348 C336 1.349 . S
C348 H342 0.950 . S
C348 C349 1.327 . S
C349 H343 0.950 . S
C349 C348 1.327 . S
C349 C353 1.429 . S
C350 C333 1.574 . S
C350 H344 0.949 . S
C350 C354 1.368 . S
C351 C332 1.429 . S
C351 C345 1.429 . S
C351 C352 1.523 . S
C352 C333 1.368 . S
C352 C346 1.368 . S
C352 C351 1.523 . S
C353 C337 1.429 . S
C353 C349 1.429 . S
C353 C354 1.523 . S
C354 C338 1.368 . S
C354 C350 1.368 . S
C354 C353 1.523 . S
H355 C330 0.950 . S
H356 C332 0.950 . S
H357 C333 0.949 . S
H358 C335 0.950 . S
H359 C337 0.950 . S
C360 C361 1.349 . S
C360 C362 1.327 . S
C360 H385 0.950 . S
C361 C360 1.349 . S
C361 C377 1.349 . S
C362 C360 1.327 . S
C362 C381 1.429 . S
C362 H386 0.950 . S
C363 C380 1.574 . S
C363 C382 1.368 . S
C363 H387 0.949 . S
H364 C368 0.949 . S
C365 C366 1.349 . S
C365 C367 1.327 . S
C365 H388 0.950 . S
C366 C365 1.349 . S
C366 C378 1.349 . S
C367 C365 1.327 . S
C367 C383 1.429 . S
C367 H389 0.950 . S
C368 H364 0.949 . S
C368 C376 1.574 . S
C368 C384 1.368 . S
H369 C377 0.950 . S
H370 C375 0.950 . S
H371 C376 0.949 . S
H372 C378 0.950 . S
H373 C379 0.950 . S
H374 C380 0.949 . S
C375 H370 0.950 . S
C375 C377 1.327 . S
C375 C381 1.429 . S
C376 C368 1.574 . S
C376 H371 0.949 . S
C376 C382 1.368 . S
C377 C361 1.349 . S
C377 H369 0.950 . S
C377 C375 1.327 . S
C378 C366 1.349 . S
C378 H372 0.950 . S
C378 C379 1.327 . S
C379 H373 0.950 . S
C379 C378 1.327 . S
C379 C383 1.429 . S
C380 C363 1.574 . S
C380 H374 0.949 . S
C380 C384 1.368 . S
C381 C362 1.429 . S
C381 C375 1.429 . S
C381 C382 1.523 . S
C382 C363 1.368 . S
C382 C376 1.368 . S
C382 C381 1.523 . S
C383 C367 1.429 . S
C383 C379 1.429 . S
C383 C384 1.523 . S
C384 C368 1.368 . S
C384 C380 1.368 . S
C384 C383 1.523 . S
H385 C360 0.950 . S
H386 C362 0.950 . S
H387 C363 0.949 . S
H388 C365 0.950 . S
H389 C367 0.950 . S
C390 C391 1.349 . S
C390 C392 1.327 . S
C390 H415 0.950 . S
C391 C390 1.349 . S
C391 C407 1.349 . S
C392 C390 1.327 . S
C392 C411 1.429 . S
C392 H416 0.950 . S
C393 C410 1.574 . S
C393 C412 1.368 . S
C393 H417 0.949 . S
H394 C398 0.949 . S
C395 C396 1.349 . S
C395 C397 1.327 . S
C395 H418 0.950 . S
C396 C395 1.349 . S
C396 C408 1.349 . S
C397 C395 1.327 . S
C397 C413 1.429 . S
C397 H419 0.950 . S
C398 H394 0.949 . S
C398 C406 1.574 . S
C398 C414 1.368 . S
H399 C407 0.950 . S
H400 C405 0.950 . S
H401 C406 0.949 . S
H402 C408 0.950 . S
H403 C409 0.950 . S
H404 C410 0.949 . S
C405 H400 0.950 . S
C405 C407 1.327 . S
C405 C411 1.429 . S
C406 C398 1.574 . S
C406 H401 0.949 . S
C406 C412 1.368 . S
C407 C391 1.349 . S
C407 H399 0.950 . S
C407 C405 1.327 . S
C408 C396 1.349 . S
C408 H402 0.950 . S
C408 C409 1.327 . S
C409 H403 0.950 . S
C409 C408 1.327 . S
C409 C413 1.429 . S
C410 C393 1.574 . S
C410 H404 0.949 . S
C410 C414 1.368 . S
C411 C392 1.429 . S
C411 C405 1.429 . S
C411 C412 1.523 . S
C412 C393 1.368 . S
C412 C406 1.368 . S
C412 C411 1.523 . S
C413 C397 1.429 . S
C413 C409 1.429 . S
C413 C414 1.523 . S
C414 C398 1.368 . S
C414 C410 1.368 . S
C414 C413 1.523 . S
H415 C390 0.950 . S
H416 C392 0.950 . S
H417 C393 0.949 . S
H418 C395 0.950 . S
H419 C397 0.950 . S
C420 C421 1.349 . S
C420 C422 1.327 . S
C420 H445 0.950 . S
C421 C420 1.349 . S
C421 C437 1.349 . S
C422 C420 1.327 . S
C422 C441 1.429 . S
C422 H446 0.950 . S
C423 C440 1.574 . S
C423 C442 1.368 . S
C423 H447 0.949 . S
H424 C428 0.949 . S
C425 C426 1.349 . S
C425 C427 1.327 . S
C425 H448 0.950 . S
C426 C425 1.349 . S
C426 C438 1.349 . S
C427 C425 1.327 . S
C427 C443 1.429 . S
C427 H449 0.950 . S
C428 H424 0.949 . S
C428 C436 1.574 . S
C428 C444 1.368 . S
H429 C437 0.950 . S
H430 C435 0.950 . S
H431 C436 0.949 . S
H432 C438 0.950 . S
H433 C439 0.950 . S
H434 C440 0.949 . S
C435 H430 0.950 . S
C435 C437 1.327 . S
C435 C441 1.429 . S
C436 C428 1.574 . S
C436 H431 0.949 . S
C436 C442 1.368 . S
C437 C421 1.349 . S
C437 H429 0.950 . S
C437 C435 1.327 . S
C438 C426 1.349 . S
C438 H432 0.950 . S
C438 C439 1.327 . S
C439 H433 0.950 . S
C439 C438 1.327 . S
C439 C443 1.429 . S
C440 C423 1.574 . S
C440 H434 0.949 . S
C440 C444 1.368 . S
C441 C422 1.429 . S
C441 C435 1.429 . S
C441 C442 1.523 . S
C442 C423 1.368 . S
C442 C436 1.368 . S
C442 C441 1.523 . S
C443 C427 1.429 . S
C443 C439 1.429 . S
C443 C444 1.523 . S
C444 C428 1.368 . S
C444 C440 1.368 . S
C444 C443 1.523 . S
H445 C420 0.950 . S
H446 C422 0.950 . S
H447 C423 0.949 . S
H448 C425 0.950 . S
H449 C427 0.950 . S
C96 C61 1.478 . S
C91 N37 1.475 . S
C121 N4 1.477 . S
C126 C84 1.481 . S
C151 N15 1.513 . S
C156 C60 1.519 . S
C181 N26 1.513 . S
C186 C83 1.518 . S
C216 C64 1.470 . S
C211 C9 1.484 . S
C246 C86 1.494 . S
C241 C17 1.541 . S
C271 C31 1.505 . S
C276 C65 1.477 . S
C301 C42 1.515 . S
C306 C85 1.486 . S
C336 C88 1.380 . S
C331 C20 1.405 . S
C366 C63 1.402 . S
C361 C28 1.450 . S
C396 C87 1.375 . S
C391 C39 1.407 . S
C421 C6 1.429 . S
C426 C62 1.388 . S
