# Generated by pormake.
# Topology pth, (4,4)-cn, num edge types: 1
# Building blocks:
#     Node 0, Type 0, BuildingBlock: UXUYUI_clean_sbu_0, # of connection points: 4
#     Node 1, Type 0, BuildingBlock: UXUYUI_clean_sbu_0, # of connection points: 4
#     Node 2, Type 0, BuildingBlock: UXUYUI_clean_sbu_0, # of connection points: 4
#     Node 3, Type 1, BuildingBlock: NAWXER_clean_linker_0, # of connection points: 4
#     Node 4, Type 1, BuildingBlock: NAWXER_clean_linker_0, # of connection points: 4
#     Node 5, Type 1, BuildingBlock: NAWXER_clean_linker_0, # of connection points: 4
#     Edge 6, Type (0, 1), BuildingBlock: FUNLAD_clean_linker_0, # of connection points: 2
#     Edge 7, Type (0, 1), BuildingBlock: FUNLAD_clean_linker_0, # of connection points: 2
#     Edge 8, Type (0, 1), BuildingBlock: FUNLAD_clean_linker_0, # of connection points: 2
#     Edge 9, Type (0, 1), BuildingBlock: FUNLAD_clean_linker_0, # of connection points: 2
#     Edge 10, Type (0, 1), BuildingBlock: FUNLAD_clean_linker_0, # of connection points: 2
#     Edge 11, Type (0, 1), BuildingBlock: FUNLAD_clean_linker_0, # of connection points: 2
#     Edge 12, Type (0, 1), BuildingBlock: FUNLAD_clean_linker_0, # of connection points: 2
#     Edge 13, Type (0, 1), BuildingBlock: FUNLAD_clean_linker_0, # of connection points: 2
#     Edge 14, Type (0, 1), BuildingBlock: FUNLAD_clean_linker_0, # of connection points: 2
#     Edge 15, Type (0, 1), BuildingBlock: FUNLAD_clean_linker_0, # of connection points: 2
#     Edge 16, Type (0, 1), BuildingBlock: FUNLAD_clean_linker_0, # of connection points: 2
#     Edge 17, Type (0, 1), BuildingBlock: FUNLAD_clean_linker_0, # of connection points: 2
# Relax obj value: 0.074
# Max RMSD: 0.209
# Mean RMSD: 0.112
data_MOF--net-pth--node1-UXUYUI_clean_sbu_0--node2-NAWXER_clean_linker_0--edge1-FUNLAD_clean_linker_0
_symmetry_space_group_name_H-M    P1
_symmetry_Int_Tables_number       1
_symmetry_cell_setting            triclinic
loop_
_symmetry_equiv_pos_as_xyz
'x, y, z'
_cell_length_a     38.447915
_cell_length_b     38.437108
_cell_length_c     87.194706
_cell_angle_alpha  90.010118
_cell_angle_beta   90.051099
_cell_angle_gamma 120.02001
loop_
_atom_site_label
_atom_site_type_symbol
_atom_site_fract_x
_atom_site_fract_y
_atom_site_fract_z
_atom_type_partial_charge
Li0 Li 0.03297 0.0233 0.04094 0.0
Li1 Li 0.98478 0.0211 0.05948 0.0
Li2 Li 0.00472 0.96811 0.05882 0.0
Li3 Li 0.9604 0.96946 0.03899 0.0
C4 C 0.0766 0.05569 0.06624 0.0
N5 N 0.15499 0.11622 0.07081 0.0
C6 C 0.08481 0.09405 0.07062 0.0
C7 C 0.10821 0.04795 0.06443 0.0
C8 C 0.12465 0.1243 0.07281 0.0
C9 C 0.14764 0.07899 0.06672 0.0
C10 C 0.965 0.04764 0.03171 0.0
C11 C 0.90328 0.04665 0.0256 0.0
N12 N 0.92481 0.08548 0.02085 0.0
C13 C 0.98651 0.08733 0.02651 0.0
C14 C 0.92305 0.02695 0.03104 0.0
C15 C 0.96565 0.10602 0.02117 0.0
C16 C 0.09491 0.04657 0.01872 0.0
N17 N 0.0784 0.05988 0.02933 0.0
C18 C 0.12282 0.12803 0.02213 0.0
C19 C 0.09184 0.09969 0.03125 0.0
C20 C 0.1399 0.11526 0.0108 0.0
C21 C 0.126 0.07393 0.0093 0.0
H22 H 0.08316 0.01468 0.01725 0.0
H23 H 0.0778 0.10938 0.03964 0.0
C24 C 0.95865 0.03849 0.08699 0.0
N25 N 0.97313 0.05305 0.07279 0.0
C26 C 0.95346 0.06244 0.09773 0.0
C27 C 0.97812 0.1159 0.079 0.0
C28 C 0.98276 0.09089 0.06863 0.0
C29 C 0.96372 0.10192 0.09385 0.0
H30 H 0.95203 0.00854 0.0901 0.0
H31 H 0.99569 0.10231 0.0575 0.0
C32 C 0.01908 0.93598 0.034 0.0
N33 N 0.03774 0.87582 0.03009 0.0
C34 C 0.99006 0.89827 0.02853 0.0
C35 C 0.05775 0.94326 0.03726 0.0
C36 C 3e-05 0.86821 0.02669 0.0
C37 C 0.06655 0.91242 0.03528 0.0
C38 C 0.91174 0.9429 0.06653 0.0
C39 C 0.89502 0.9049 0.07329 0.0
C40 C 0.88887 0.96185 0.06546 0.0
C41 C 0.85538 0.88612 0.07852 0.0
C42 C 0.84937 0.94212 0.07084 0.0
N43 N 0.83355 0.90494 0.07718 0.0
C44 C 0.03858 0.94341 0.08266 0.0
C45 C 0.98558 0.8916 0.0683 0.0
C46 C 0.03956 0.91509 0.09245 0.0
N47 N 0.01155 0.93115 0.07098 0.0
C48 C 0.9856 0.86238 0.07772 0.0
C49 C 0.01226 0.87397 0.09019 0.0
H50 H 0.05841 0.97513 0.08468 0.0
H51 H 0.96391 0.8828 0.05911 0.0
C52 C 0.92078 0.9473 0.01047 0.0
N53 N 0.91856 0.93571 0.02533 0.0
C54 C 0.89352 0.92087 -0.00035 0.0
C55 C 0.86179 0.87153 0.01974 0.0
C56 C 0.88968 0.89881 0.03013 0.0
C57 C 0.86396 0.88209 0.00421 0.0
H58 H 0.94461 0.97658 0.00693 0.0
H59 H 0.88929 0.88982 0.04187 0.0
O60 O 0.03781 0.02581 0.06387 0.0
O61 O 0.98506 0.0288 0.03683 0.0
O62 O 0.00975 0.96567 0.03604 0.0
O63 O 0.95065 0.96175 0.06142 0.0
H64 H 0.06073 0.10052 0.07218 0.0
H65 H 0.10237 0.0183 0.06131 0.0
H66 H 0.13145 0.1542 0.07608 0.0
H67 H 0.17241 0.07346 0.06527 0.0
H68 H 0.87082 0.03099 0.02509 0.0
H69 H 0.01896 0.10367 0.02668 0.0
H70 H 0.90584 0.99587 0.03449 0.0
H71 H 0.98195 0.13683 0.01725 0.0
H72 H 0.13292 0.1596 0.02382 0.0
H73 H 0.13796 0.06275 0.00058 0.0
H74 H 0.94204 0.05036 0.10901 0.0
H75 H 0.98728 0.14641 0.07562 0.0
H76 H 0.96008 0.89216 0.02582 0.0
H77 H 0.08072 0.9724 0.04128 0.0
H78 H 0.97779 0.83881 0.02256 0.0
H79 H 0.09631 0.91759 0.03784 0.0
H80 H 0.91234 0.88994 0.07444 0.0
H81 H 0.90162 0.99176 0.06078 0.0
H82 H 0.84201 0.8566 0.08367 0.0
H83 H 0.83137 0.95648 0.07006 0.0
H84 H 0.0603 0.92535 0.10203 0.0
H85 H 0.96442 0.83103 0.07542 0.0
H86 H 0.89666 0.9301 0.98776 0.0
H87 H 0.83928 0.84213 0.0238 0.0
Li88 Li 0.98321 0.95908 0.37273 0.0
Li89 Li 0.02798 0.0023 0.39285 0.0
Li90 Li 0.95588 0.98569 0.39108 0.0
Li91 Li 0.00553 0.03237 0.37282 0.0
C92 C 0.96798 0.91034 0.39641 0.0
N93 N 0.94865 0.83086 0.39799 0.0
C94 C -0.00263 0.90058 0.40025 0.0
C95 C 0.92864 0.87968 0.39359 0.0
C96 C 0.98703 0.86022 0.40094 0.0
C97 C 0.9195 0.83968 0.39438 0.0
C98 C 0.07791 0.02671 0.36617 0.0
C99 C 0.14079 0.08903 0.36413 0.0
N100 N 0.15766 0.06908 0.35742 0.0
C101 C 0.09575 0.00692 0.35906 0.0
C102 C 0.10049 0.06816 0.36857 0.0
C103 C 0.13615 0.02882 0.3548 0.0
C104 C 0.94277 0.89929 0.34981 0.0
N105 N 0.97357 0.91509 0.36005 0.0
C106 C 0.99561 0.87015 0.35169 0.0
C107 C -0.00023 0.90122 0.36115 0.0
C108 C 0.96435 0.85341 0.34087 0.0
C109 C 0.93755 0.8682 0.34004 0.0
H110 H 0.92266 0.91122 0.34905 0.0
H111 H 0.02432 0.91478 0.36926 0.0
C112 C 0.06643 0.01911 0.42146 0.0
N113 N 0.06927 0.00964 0.40667 0.0
C114 C 0.09413 0.02154 0.43238 0.0
C115 C 0.12728 0.00467 0.41262 0.0
C116 C 0.09887 0.00243 0.4021 0.0
C117 C 0.12488 0.01395 0.42802 0.0
H118 H 0.04217 0.02408 0.4248 0.0
H119 H 0.09965 0.99353 0.39043 0.0
C120 C 0.91371 0.97883 0.36555 0.0
N121 N 0.83699 0.96543 0.36051 0.0
C122 C 0.90801 0.00977 0.36004 0.0
C123 C 0.88041 0.94093 0.36828 0.0
C124 C 0.86898 0.00243 0.35761 0.0
C125 C 0.84186 0.93479 0.36574 0.0
C126 C 0.02261 0.07577 0.40162 0.0
C127 C -0.00095 0.09165 0.40685 0.0
C128 C 0.06435 0.09822 0.40327 0.0
C129 C 0.0177 0.13016 0.41323 0.0
C130 C 0.08188 0.13659 0.40973 0.0
N131 N 0.0584 0.15167 0.41452 0.0
C132 C 0.89615 0.94803 0.41391 0.0
C133 C 0.89442 0.00059 0.40034 0.0
C134 C 0.86419 0.94272 0.42316 0.0
N135 N 0.91056 0.97668 0.40281 0.0
C136 C 0.86224 0.99606 0.40919 0.0
C137 C 0.84696 0.96704 0.42086 0.0
H138 H 0.90989 0.92977 0.41575 0.0
H139 H 0.90705 0.02374 0.39168 0.0
C140 C 0.03414 0.07864 0.34598 0.0
N141 N 0.01908 0.07761 0.36017 0.0
C142 C 0.04127 0.10954 0.33579 0.0
C143 C 0.0174 0.13779 0.35507 0.0
C144 C 0.01071 0.10634 0.36485 0.0
C145 C 0.0325 0.13944 0.34025 0.0
H146 H 0.03985 0.05497 0.34246 0.0
H147 H -0.00263 0.10406 0.37595 0.0
O148 O 0.97767 0.94971 0.39543 0.0
O149 O 0.03833 0.0056 0.37038 0.0
O150 O 0.9517 0.98559 0.36814 0.0
O151 O 0.0047 0.03788 0.39548 0.0
H152 H 0.02791 0.9239 0.40254 0.0
H153 H 0.90544 0.88668 0.39079 0.0
H154 H 0.00954 0.85224 0.40379 0.0
H155 H 0.88922 0.81565 0.39213 0.0
H156 H 0.15859 0.12112 0.36595 0.0
H157 H 0.07865 0.97495 0.35691 0.0
H158 H 0.08695 0.08422 0.37358 0.0
H159 H 0.15038 0.01382 0.34939 0.0
H160 H 0.01735 0.86016 0.35254 0.0
H161 H 0.91291 0.85596 0.33192 0.0
H162 H 0.09135 0.02899 0.44413 0.0
H163 H 0.14998 -0.00223 0.40884 0.0
H164 H 0.9334 0.03919 0.35772 0.0
H165 H 0.88428 0.91658 0.37241 0.0
H166 H 0.86412 0.02617 0.35344 0.0
H167 H 0.81582 0.90568 0.36791 0.0
H168 H 0.96671 0.07459 0.40589 0.0
H169 H 0.08309 0.08606 0.3998 0.0
H170 H -0.00018 0.14291 0.41719 0.0
H171 H 0.11415 0.15429 0.41102 0.0
H172 H 0.85313 0.91992 0.43202 0.0
H173 H 0.85025 0.01587 0.40722 0.0
H174 H 0.05315 0.1098 0.32451 0.0
H175 H 0.00939 0.15969 0.35886 0.0
Li176 Li 0.02495 0.99134 0.70794 0.0
Li177 Li 0.01789 0.02927 0.72867 0.0
Li178 Li 0.96801 0.95798 0.72534 0.0
Li179 Li 0.97052 0.0079 0.70735 0.0
C180 C 0.04473 0.96172 0.73405 0.0
N181 N 0.08357 0.91992 0.74147 0.0
C182 C 0.08042 0.98039 0.7425 0.0
C183 C 0.02856 0.92171 0.72951 0.0
C184 C 0.09968 0.95878 0.74609 0.0
C185 C 0.0487 0.9011 0.73334 0.0
C186 C 0.06894 0.07412 0.70427 0.0
C187 C 0.11916 0.13126 0.69023 0.0
N188 N 0.14829 0.1312 0.69908 0.0
C189 C 0.09935 0.07459 0.71322 0.0
C190 C 0.07886 0.10262 0.69268 0.0
C191 C 0.13928 0.1037 0.71043 0.0
C192 C 0.05137 0.97992 0.67976 0.0
N193 N 0.06148 0.98604 0.69486 0.0
C194 C 0.12492 0.99137 0.68959 0.0
C195 C 0.09735 0.99156 0.69993 0.0
C196 C 0.11559 0.98579 0.67387 0.0
C197 C 0.07805 0.97956 0.66902 0.0
H198 H 0.02286 0.97621 0.67604 0.0
H199 H 0.10527 -0.00246 0.71189 0.0
C200 C 0.04747 0.05342 0.75797 0.0
N201 N 0.04615 0.0683 0.744 0.0
C202 C 0.07085 0.07923 0.76969 0.0
C203 C 0.09007 0.13542 0.75256 0.0
C204 C 0.06599 0.10846 0.74119 0.0
C205 C 0.09336 0.1208 0.76696 0.0
H206 H 0.03108 0.0213 0.75987 0.0
H207 H 0.06419 0.11948 0.72998 0.0
C208 C 0.94481 0.92091 0.6956 0.0
N209 N 0.89762 0.84857 0.68081 0.0
C210 C 0.90658 0.91084 0.6903 0.0
C211 C 0.95936 0.89455 0.69311 0.0
C212 C 0.88308 0.87401 0.68293 0.0
C213 C 0.93496 0.85803 0.68568 0.0
C214 C 0.94818 0.03139 0.73409 0.0
C215 C 0.91973 0.02247 0.74562 0.0
C216 C 0.96663 0.06925 0.72714 0.0
C217 C 0.91011 0.0516 0.75001 0.0
C218 C 0.9562 0.09756 0.73186 0.0
N219 N 0.9284 0.08823 0.7431 0.0
C220 C 0.94447 0.90298 0.7498 0.0
C221 C 0.89424 0.88709 0.73096 0.0
C222 C 0.91758 0.87073 0.75885 0.0
N223 N 0.9324 0.9105 0.73615 0.0
C224 C 0.8664 0.85444 0.7396 0.0
C225 C 0.87775 0.84627 0.75387 0.0
H226 H 0.97461 0.92287 0.75391 0.0
H227 H 0.88496 0.89453 0.72037 0.0
C228 C 0.95178 0.02886 0.67919 0.0
N229 N 0.93843 0.01833 0.69381 0.0
C230 C 0.92714 0.03181 0.66812 0.0
C231 C 0.87603 0.01418 0.6875 0.0
C232 C 0.90149 0.01118 0.69816 0.0
C233 C 0.88854 0.02394 0.6722 0.0
H234 H 0.98109 0.03369 0.67605 0.0
H235 H 0.89121 0.00172 0.70976 0.0
O236 O 0.0257 0.9826 0.73038 0.0
O237 O 0.02962 0.0457 0.70666 0.0
O238 O 0.96842 0.95708 0.70265 0.0
O239 O 0.95795 0.00314 0.72976 0.0
H240 H 0.09325 0.01134 0.74614 0.0
H241 H 0.00059 0.90664 0.72324 0.0
H242 H 0.12744 0.9729 0.75255 0.0
H243 H 0.03654 0.87012 0.72989 0.0
H244 H 0.12729 0.15351 0.68129 0.0
H245 H 0.09223 0.05277 0.72224 0.0
H246 H 0.05562 0.10255 0.68563 0.0
H247 H 0.16311 0.10441 0.71727 0.0
H248 H 0.15381 0.99701 0.69378 0.0
H249 H 0.06955 0.97484 0.65703 0.0
H250 H 0.07176 0.06665 0.78069 0.0
H251 H 0.10709 0.16715 0.74988 0.0
H252 H 0.89504 0.9311 0.69197 0.0
H253 H 0.98932 0.90236 0.69671 0.0
H254 H 0.8533 0.86568 0.67888 0.0
H255 H 0.94578 0.83728 0.68373 0.0
H256 H 0.90525 0.9933 0.75111 0.0
H257 H 0.98869 0.07675 0.71819 0.0
H258 H 0.88812 0.0451 0.75892 0.0
H259 H 0.97022 0.12696 0.72659 0.0
H260 H 0.92744 0.86611 0.76992 0.0
H261 H 0.83609 0.83629 0.73527 0.0
H262 H 0.93791 0.03957 0.65645 0.0
H263 H 0.84624 0.00725 0.69104 0.0
C264 C 0.97338 0.36302 0.24032 0.0
C265 C 0.00663 0.37375 0.24995 0.0
C266 C 0.97056 0.39228 0.23176 0.0
C267 C 0.00118 0.43267 0.23256 0.0
C268 C 0.03708 0.41427 0.25074 0.0
C269 C 0.03424 0.44342 0.24219 0.0
C270 C -0.00154 0.46438 0.224 0.0
C271 C 0.00548 0.38255 0.18855 0.0
C272 C 0.97169 0.36443 0.17885 0.0
C273 C 0.012 0.41447 0.19811 0.0
C274 C 0.98459 0.42852 0.19826 0.0
C275 C 0.94456 0.37888 0.17896 0.0
C276 C 0.95109 0.41073 0.18851 0.0
C277 C 0.99106 0.46261 0.20806 0.0
C278 C 0.03464 0.63261 0.19443 0.0
C279 C 0.00759 0.62607 0.18243 0.0
C280 C 0.03049 0.60052 0.20331 0.0
C281 C -0.00105 0.56129 0.20048 0.0
C282 C 0.9761 0.58675 0.1796 0.0
C283 C 0.97197 0.55467 0.18849 0.0
C284 C 0.99575 0.52682 0.20923 0.0
C285 C 0.96921 0.59655 0.24379 0.0
C286 C -0.00317 0.61306 0.25595 0.0
C287 C 0.97088 0.56932 0.23365 0.0
C288 C 0.00045 0.55833 0.23536 0.0
C289 C 0.02644 0.60204 0.25761 0.0
C290 C 0.02805 0.57474 0.24747 0.0
C291 C 0.00062 0.5274 0.2253 0.0
H292 H 0.9491 0.33218 0.23967 0.0
H293 H 0.94422 0.38344 0.22472 0.0
H294 H 0.06329 0.42346 0.2579 0.0
H295 H 0.05809 0.47446 0.24303 0.0
H296 H 0.02732 0.3726 0.18853 0.0
H297 H 0.03867 0.42847 0.20523 0.0
H298 H 0.91803 0.36532 0.17176 0.0
H299 H 0.92969 0.42126 0.1884 0.0
H300 H 0.05908 0.66254 0.19695 0.0
H301 H 0.05246 0.60634 0.21219 0.0
H302 H 0.95515 0.58063 0.17029 0.0
H303 H 0.94776 0.5246 0.18596 0.0
H304 H 0.94554 0.60376 0.24237 0.0
H305 H 0.94837 0.55607 0.22472 0.0
H306 H 0.04841 0.61452 0.26676 0.0
H307 H 0.05089 0.56641 0.24908 0.0
N308 N 0.00261 0.49656 0.23201 0.0
N309 N 0.99034 0.49407 0.20128 0.0
C310 C 0.62995 0.02639 0.52347 0.0
C311 C 0.61709 0.99454 0.51294 0.0
C312 C 0.60214 0.02972 0.53277 0.0
C313 C 0.56113 0.00081 0.53191 0.0
C314 C 0.57596 0.96606 0.51196 0.0
C315 C 0.54828 0.96927 0.52131 0.0
C316 C 0.53093 0.00376 0.54144 0.0
C317 C 0.61444 0.99032 0.57424 0.0
C318 C 0.63283 0.02176 0.58498 0.0
C319 C 0.58229 0.98592 0.56528 0.0
C320 C 0.56844 0.01336 0.56668 0.0
C321 C 0.61823 0.04861 0.58655 0.0
C322 C 0.58639 0.04439 0.57752 0.0
C323 C 0.53419 0.0093 0.55752 0.0
C324 C 0.36771 0.97025 0.57469 0.0
C325 C 0.37627 0.99694 0.587 0.0
C326 C 0.39839 0.97403 0.56505 0.0
C327 C 0.4382 0.00479 0.56746 0.0
C328 C 0.41613 0.02775 0.58938 0.0
C329 C 0.44684 0.03144 0.57976 0.0
C330 C 0.47119 0.00737 0.55791 0.0
C331 C 0.40038 0.03956 0.52597 0.0
C332 C 0.38138 0.01243 0.51385 0.0
C333 C 0.4283 0.0364 0.53524 0.0
C334 C 0.4376 0.0059 0.53262 0.0
C335 C 0.39064 0.98185 0.51127 0.0
C336 C 0.41873 0.97882 0.52051 0.0
C337 C 0.469 0.00398 0.54178 0.0
H338 H 0.66138 0.04915 0.52429 0.0
H339 H 0.61264 0.05503 0.54053 0.0
H340 H 0.56519 0.94103 0.50405 0.0
H341 H 0.51674 0.94681 0.52037 0.0
H342 H 0.62497 0.96917 0.57269 0.0
H343 H 0.56816 0.96096 0.55734 0.0
H344 H 0.63095 0.07257 0.59495 0.0
H345 H 0.5758 0.06555 0.57897 0.0
H346 H 0.33727 0.94634 0.57252 0.0
H347 H 0.39106 0.95236 0.55591 0.0
H348 H 0.42374 0.04841 0.59891 0.0
H349 H 0.47741 0.05506 0.58195 0.0
H350 H 0.39373 0.06332 0.52827 0.0
H351 H 0.44322 0.05833 0.54426 0.0
H352 H 0.37689 0.96085 0.50188 0.0
H353 H 0.42584 0.95539 0.51816 0.0
N354 N 0.49856 0.00157 0.5342 0.0
N355 N 0.50402 0.01063 0.56512 0.0
C356 C 0.37215 0.36947 0.86246 0.0
C357 C 0.35007 0.38036 0.85267 0.0
C358 C 0.40595 0.39893 0.87021 0.0
C359 C 0.41813 0.43973 0.86833 0.0
C360 C 0.36239 0.42124 0.85084 0.0
C361 C 0.39628 0.45064 0.85851 0.0
C362 C 0.45461 0.47146 0.87592 0.0
C363 C 0.36521 0.40342 0.91314 0.0
C364 C 0.3786 0.38505 0.92373 0.0
C365 C 0.392 0.43198 0.90279 0.0
C366 C 0.43258 0.44233 0.90269 0.0
C367 C 0.41941 0.39607 0.92378 0.0
C368 C 0.44615 0.42456 0.9134 0.0
C369 C 0.46149 0.47259 0.89187 0.0
C370 C 0.59802 0.64008 0.90062 0.0
C371 C 0.61888 0.63399 0.9126 0.0
C372 C 0.56781 0.60741 0.89264 0.0
C373 C 0.55806 0.568 0.8964 0.0
C374 C 0.60925 0.59454 0.91627 0.0
C375 C 0.57892 0.56184 0.90831 0.0
C376 C 0.52413 0.53319 0.88875 0.0
C377 C 0.61743 0.59129 0.8521 0.0
C378 C 0.60661 0.60773 0.83984 0.0
C379 C 0.58888 0.56681 0.86293 0.0
C380 C 0.54901 0.5585 0.86178 0.0
C381 C 0.5666 0.59923 0.83871 0.0
C382 C 0.53804 0.57463 0.84952 0.0
C383 C 0.51813 0.53089 0.87272 0.0
H384 H 0.36329 0.33818 0.86411 0.0
H385 H 0.42286 0.38989 0.87751 0.0
H386 H 0.34638 0.43057 0.84318 0.0
H387 H 0.40546 0.48199 0.85679 0.0
H388 H 0.33394 0.39549 0.91276 0.0
H389 H 0.38102 0.4461 0.89491 0.0
H390 H 0.43084 0.38306 0.93197 0.0
H391 H 0.47745 0.43252 0.91367 0.0
H392 H 0.60488 0.67012 0.89748 0.0
H393 H 0.55142 0.61296 0.88378 0.0
H394 H 0.6244 0.58887 0.92559 0.0
H395 H 0.57155 0.53169 0.91153 0.0
H396 H 0.64777 0.59658 0.85315 0.0
H397 H 0.59782 0.55368 0.87201 0.0
H398 H 0.55735 0.6118 0.82953 0.0
H399 H 0.50737 0.56835 0.84835 0.0
N400 N 0.4833 0.50051 0.86695 0.0
N401 N 0.4959 0.50357 0.89768 0.0
C402 C 0.94891 0.15635 0.10126 0.0
C403 C 0.96167 0.12919 0.10542 0.0
C404 C 0.94953 0.18382 0.11191 0.0
C405 C 0.96271 0.18456 0.12705 0.0
C406 C 0.97501 0.15709 0.13123 0.0
C407 C 0.97441 0.12965 0.12057 0.0
C408 C 0.96639 0.21481 0.13857 0.0
C409 C 0.94712 0.23592 0.13751 0.0
C410 C 0.95319 0.26801 0.14852 0.0
C411 C 0.94546 0.29822 0.14356 0.0
C412 C 0.95148 0.32946 0.15338 0.0
C413 C 0.96503 0.331 0.16847 0.0
H414 H 0.97101 0.24569 0.16821 0.0
C415 C 0.97208 0.30037 0.17356 0.0
C416 C 0.96609 0.26911 0.16373 0.0
H417 H 0.98168 0.30024 0.18524 0.0
H418 H 0.93876 0.15664 0.08969 0.0
H419 H 0.94078 0.20502 0.108 0.0
H420 H 0.98566 0.15716 0.14275 0.0
H421 H 0.9851 0.10963 0.12411 0.0
H422 H 0.98646 0.22013 0.14816 0.0
H423 H 0.92711 0.23084 0.12793 0.0
H424 H 0.93532 0.29804 0.13194 0.0
H425 H 0.94612 0.35277 0.14904 0.0
C426 C 0.81694 0.961 0.44691 0.0
C427 C 0.81427 0.96348 0.43091 0.0
C428 C 0.78748 0.96044 0.45645 0.0
C429 C 0.75473 0.96228 0.45015 0.0
C430 C 0.75133 0.96319 0.43415 0.0
C431 C 0.78096 0.96413 0.42462 0.0
C432 C 0.72349 0.96311 0.45987 0.0
C433 C 0.73129 0.98012 0.47391 0.0
C434 C 0.70113 0.98332 0.4836 0.0
C435 C 0.71001 0.9933 0.49917 0.0
C436 C 0.68293 0.99717 0.5087 0.0
C437 C 0.64628 0.99115 0.50285 0.0
H438 H 0.65686 0.97166 0.46572 0.0
C439 C 0.6375 0.98165 0.48725 0.0
C440 C 0.66462 0.97797 0.47771 0.0
H441 H 0.60984 0.97766 0.48235 0.0
H442 H 0.84232 0.96049 0.45207 0.0
H443 H 0.79043 0.95841 0.46872 0.0
H444 H 0.72613 0.9641 0.42901 0.0
H445 H 0.77787 0.96549 0.41232 0.0
H446 H 0.69382 0.95076 0.45487 0.0
H447 H 0.76143 0.9928 0.47859 0.0
H448 H 0.73797 -0.00209 0.50403 0.0
H449 H 0.69041 0.0043 0.5207 0.0
C450 C 0.80866 0.80863 0.76518 0.0
C451 C 0.8476 0.81424 0.76396 0.0
C452 C 0.78074 0.78006 0.77521 0.0
C453 C 0.79103 0.75623 0.78425 0.0
C454 C 0.82989 0.76178 0.78304 0.0
C455 C 0.85785 0.79032 0.77295 0.0
C456 C 0.76277 0.72724 0.79566 0.0
C457 C 0.72256 0.70949 0.79426 0.0
C458 C 0.69407 0.68261 0.8061 0.0
C459 C 0.6547 0.65451 0.80169 0.0
C460 C 0.62645 0.62996 0.81259 0.0
C461 C 0.63684 0.63334 0.82821 0.0
H462 H 0.7342 0.70825 0.82564 0.0
C463 C 0.67626 0.66159 0.83263 0.0
C464 C 0.70457 0.68601 0.82171 0.0
H465 H 0.68503 0.66552 0.84459 0.0
H466 H 0.80007 0.82725 0.75874 0.0
H467 H 0.75162 0.7778 0.7762 0.0
H468 H 0.8387 0.74404 0.78996 0.0
H469 H 0.88751 0.79371 0.77222 0.0
H470 H 0.77564 0.71972 0.80532 0.0
H471 H 0.7097 0.7139 0.78385 0.0
H472 H 0.64575 0.65146 0.78975 0.0
H473 H 0.59652 0.60816 0.80876 0.0
C474 C 0.04489 0.84565 0.10725 0.0
C475 C 0.00994 0.84335 0.10117 0.0
C476 C 0.04227 0.81651 0.11755 0.0
C477 C 0.00451 0.7846 0.12206 0.0
C478 C 0.96972 0.78239 0.11592 0.0
C479 C 0.97234 0.81145 0.10568 0.0
C480 C -0.00032 0.7523 0.13271 0.0
C481 C 0.02811 0.7557 0.14263 0.0
C482 C 0.02207 0.7227 0.15313 0.0
C483 C 0.05567 0.72051 0.15806 0.0
C484 C 0.05107 0.68937 0.16766 0.0
C485 C 0.0127 0.65992 0.17265 0.0
H486 H 0.95726 0.69539 0.15548 0.0
C487 C 0.97916 0.66274 0.16807 0.0
C488 C 0.98376 0.69385 0.15847 0.0
H489 H 0.94932 0.64108 0.17202 0.0
H490 H 0.0743 0.86956 0.10382 0.0
H491 H 0.0699 0.8188 0.12162 0.0
H492 H 0.94025 0.75818 0.11915 0.0
H493 H 0.94478 0.80912 0.10142 0.0
H494 H 0.97096 0.72456 0.13238 0.0
H495 H 0.05716 0.78299 0.14294 0.0
H496 H 0.08554 0.74253 0.15424 0.0
H497 H 0.0775 0.6879 0.1709 0.0
C498 C 0.19424 0.0308 0.43611 0.0
C499 C 0.15322 0.01385 0.43956 0.0
C500 C 0.22054 0.02885 0.44668 0.0
C501 C 0.20634 0.00994 0.46097 0.0
C502 C 0.16539 0.99309 0.4644 0.0
C503 C 0.13913 0.99522 0.45386 0.0
C504 C 0.23286 0.0053 0.47217 0.0
C505 C 0.27282 0.03049 0.4729 0.0
C506 C 0.29941 0.02507 0.4838 0.0
C507 C 0.3357 0.05882 0.48826 0.0
C508 C 0.36204 0.05477 0.49816 0.0
C509 C 0.35287 0.01674 0.50365 0.0
H510 H 0.26313 0.96006 0.48573 0.0
C511 C 0.31672 0.98287 0.49909 0.0
C512 C 0.29024 0.98694 0.48926 0.0
H513 H 0.30884 0.95319 0.50315 0.0
H514 H 0.20599 0.04542 0.42519 0.0
H515 H 0.25166 0.04122 0.44341 0.0
H516 H 0.15358 0.97799 0.47524 0.0
H517 H 0.10757 0.98129 0.45675 0.0
H518 H 0.21857 0.98103 0.48044 0.0
H519 H 0.2866 0.05706 0.46567 0.0
H520 H 0.34372 0.08845 0.48408 0.0
H521 H 0.38999 0.08136 0.50128 0.0
C522 C 0.12749 0.18713 0.78088 0.0
C523 C 0.12171 0.14833 0.77877 0.0
C524 C 0.15573 0.21354 0.79147 0.0
C525 C 0.17863 0.20154 0.80031 0.0
C526 C 0.17243 0.16261 0.79828 0.0
C527 C 0.14444 0.13637 0.78766 0.0
C528 C 0.21072 0.22887 0.81115 0.0
C529 C 0.2165 0.26483 0.81582 0.0
C530 C 0.25045 0.29269 0.82586 0.0
C531 C 0.2479 0.32341 0.83358 0.0
C532 C 0.27989 0.35145 0.84251 0.0
C533 C 0.31524 0.34941 0.84389 0.0
H534 H 0.29003 0.26861 0.82111 0.0
C535 C 0.3178 0.3186 0.83628 0.0
C536 C 0.28595 0.29072 0.82727 0.0
H537 H 0.34501 0.3168 0.83687 0.0
H538 H 0.1103 0.19722 0.77429 0.0
H539 H 0.15982 0.24339 0.79233 0.0
H540 H 0.18979 0.15255 0.80479 0.0
H541 H 0.14144 0.10703 0.78614 0.0
H542 H 0.23015 0.21828 0.81557 0.0
H543 H 0.19541 0.27437 0.81248 0.0
H544 H 0.22112 0.3259 0.83263 0.0
H545 H 0.277 0.37479 0.84831 0.0
C546 C 0.83706 0.04141 0.66337 0.0
C547 C 0.86055 0.02357 0.66042 0.0
C548 C 0.80919 0.03919 0.65255 0.0
C549 C 0.80418 0.0189 0.63856 0.0
C550 C 0.82764 0.00106 0.63564 0.0
C551 C 0.85579 0.00364 0.6464 0.0
C552 C 0.77324 0.01386 0.6272 0.0
C553 C 0.76079 0.04071 0.62546 0.0
C554 C 0.72882 0.03496 0.61448 0.0
C555 C 0.72906 0.06885 0.60842 0.0
C556 C 0.69847 0.06457 0.59858 0.0
C557 C 0.6665 0.02621 0.59479 0.0
H558 H 0.69529 0.96972 0.61543 0.0
C559 C 0.66632 0.99223 0.60087 0.0
C560 C 0.69713 0.99652 0.6106 0.0
H561 H 0.64177 0.96227 0.59847 0.0
H562 H 0.84008 0.05691 0.6741 0.0
H563 H 0.79087 0.05238 0.65537 0.0
H564 H 0.82406 0.9849 0.62503 0.0
H565 H 0.87303 0.98904 0.64392 0.0
H566 H 0.76147 0.98786 0.61967 0.0
H567 H 0.77546 0.06868 0.63188 0.0
H568 H 0.75305 0.09879 0.61128 0.0
H569 H 0.69992 0.0914 0.59395 0.0
C570 C 0.82072 0.86312 0.98053 0.0
C571 C 0.83702 0.85202 0.99275 0.0
C572 C 0.79581 0.83465 0.96969 0.0
C573 C 0.78647 0.79432 0.97091 0.0
C574 C 0.80326 0.78351 0.983 0.0
C575 C 0.82815 0.81191 0.99379 0.0
C576 C 0.76009 0.76265 0.95979 0.0
C577 C 0.73384 0.76555 0.95037 0.0
C578 C 0.70581 0.73231 0.94013 0.0
C579 C 0.67011 0.73081 0.9355 0.0
C580 C 0.64217 0.69923 0.9264 0.0
C581 C 0.64946 0.66852 0.92163 0.0
H582 H 0.74157 0.70309 0.93768 0.0
C583 C 0.68572 0.6706 0.92585 0.0
C584 C 0.71374 0.70226 0.93492 0.0
H585 H 0.69254 0.64783 0.92207 0.0
H586 H 0.827 0.89379 0.97939 0.0
H587 H 0.78453 0.84467 0.96034 0.0
H588 H 0.79703 0.75284 0.98416 0.0
H589 H 0.84094 0.80248 0.00284 0.0
H590 H 0.76075 0.73476 0.96015 0.0
H591 H 0.73046 0.7919 0.95089 0.0
H592 H 0.66336 0.75368 0.93923 0.0
H593 H 0.61439 0.69835 0.92342 0.0
C594 C 0.96752 0.79102 0.33535 0.0
C595 C 0.96096 0.82187 0.33014 0.0
C596 C 0.96729 0.76302 0.32508 0.0
C597 C 0.96081 0.76549 0.30932 0.0
C598 C 0.95265 0.79533 0.30423 0.0
C599 C 0.95287 0.82334 0.31451 0.0
C600 C 0.96232 0.73764 0.29786 0.0
C601 C 0.98367 0.71891 0.29997 0.0
C602 C 0.98655 0.69213 0.28838 0.0
C603 C -0.00388 0.6632 0.29334 0.0
C604 C -0.00042 0.63766 0.28284 0.0
C605 C 0.99396 0.64078 0.26708 0.0
H606 H 0.97555 0.71855 0.2682 0.0
C607 C 0.98503 0.6702 0.26206 0.0
C608 C 0.98145 0.69568 0.27258 0.0
H609 H 0.98135 0.67394 0.24997 0.0
H610 H 0.97287 0.78852 0.34739 0.0
H611 H 0.97197 0.73948 0.32959 0.0
H612 H 0.94715 0.79767 0.29219 0.0
H613 H 0.94793 0.84688 0.31012 0.0
H614 H 0.94626 0.73365 0.28717 0.0
H615 H -0.00021 0.72297 0.31065 0.0
H616 H 0.0005 0.66 0.30543 0.0
H617 H 0.00604 0.61503 0.28712 0.0
C618 C 0.16908 0.97049 0.66565 0.0
C619 C 0.14556 0.98826 0.66257 0.0
C620 C 0.1983 0.97413 0.65523 0.0
C621 C 0.20451 0.99555 0.64145 0.0
C622 C 0.1811 0.01341 0.63842 0.0
C623 C 0.15181 0.00966 0.64881 0.0
C624 C 0.23623 0.00146 0.63032 0.0
C625 C 0.25072 0.97613 0.62903 0.0
C626 C 0.2827 0.98236 0.61798 0.0
C627 C 0.28513 0.94893 0.613 0.0
C628 C 0.31523 0.95361 0.60284 0.0
C629 C 0.34389 0.99198 0.59757 0.0
H630 H 0.31149 0.04751 0.61672 0.0
C631 C 0.34178 0.02554 0.60267 0.0
C632 C 0.31157 0.02084 0.61279 0.0
H633 H 0.36342 0.05548 0.5988 0.0
H634 H 0.16493 0.95378 0.67614 0.0
H635 H 0.21648 0.9609 0.65821 0.0
H636 H 0.18555 0.03045 0.62799 0.0
H637 H 0.13468 0.02433 0.64623 0.0
H638 H 0.24667 0.02672 0.6225 0.0
H639 H 0.23752 0.94874 0.63578 0.0
H640 H 0.2636 0.91902 0.61696 0.0
H641 H 0.31647 0.92723 0.59932 0.0
C642 C 0.16632 0.17646 0.99419 0.0
C643 C 0.1706 0.14483 0.00016 0.0
C644 C 0.19472 0.20422 0.98407 0.0
C645 C 0.22835 0.20119 0.97973 0.0
C646 C 0.2323 0.16921 0.98548 0.0
C647 C 0.20383 0.14138 0.99563 0.0
C648 C 0.2589 0.22989 0.9688 0.0
C649 C 0.26674 0.26801 0.96704 0.0
C650 C 0.29603 0.29719 0.95585 0.0
C651 C 0.2942 0.332 0.95253 0.0
C652 C 0.32084 0.3604 0.94211 0.0
C653 C 0.35019 0.35478 0.93479 0.0
H654 H 0.32909 0.26601 0.95105 0.0
C655 C 0.35238 0.32018 0.93819 0.0
C656 C 0.32574 0.29174 0.94863 0.0
H657 H 0.37453 0.31485 0.93268 0.0
H658 H 0.14047 0.17932 -0.0029 0.0
H659 H 0.18956 0.22734 0.97942 0.0
H660 H 0.25769 0.16593 0.9822 0.0
H661 H 0.20805 0.11742 5e-05 0.0
H662 H 0.2753 0.2189 0.9622 0.0
H663 H 0.25054 0.27863 0.97401 0.0
H664 H 0.27193 0.33725 0.95799 0.0
H665 H 0.31876 0.38705 0.93995 0.0
C666 C 0.02473 0.16126 0.31397 0.0
C667 C 0.037 0.17102 0.32932 0.0
C668 C 0.02636 0.19035 0.30392 0.0
C669 C 0.04014 0.22986 0.30905 0.0
C670 C 0.05379 0.23991 0.32422 0.0
C671 C 0.05207 0.2108 0.33428 0.0
C672 C 0.04065 0.26141 0.29905 0.0
C673 C 0.01622 0.25338 0.28684 0.0
C674 C 0.01486 0.28506 0.27753 0.0
C675 C 0.00071 0.27624 0.26237 0.0
C676 C -0.00191 0.30496 0.25338 0.0
C677 C 0.00929 0.34305 0.25942 0.0
H678 H 0.03501 0.33054 0.29544 0.0
C679 C 0.02289 0.35167 0.27466 0.0
C680 C 0.02554 0.32302 0.28364 0.0
H681 H 0.03078 0.38037 0.27978 0.0
H682 H 0.01287 0.13084 0.3098 0.0
H683 H 0.01684 0.18161 0.29219 0.0
H684 H 0.06505 0.27022 0.32843 0.0
H685 H 0.06237 0.21942 0.34597 0.0
H686 H 0.06091 0.29239 0.30233 0.0
H687 H -0.00395 0.22247 0.28345 0.0
H688 H 0.9919 0.24711 0.25743 0.0
H689 H 0.98772 0.29747 0.24164 0.0
loop_
_geom_bond_atom_site_label_1
_geom_bond_atom_site_label_2
_geom_bond_distance
_geom_bond_site_symmetry_2
_ccdc_geom_bond_type
Li0 N17 1.990 . S
Li0 O60 1.956 . S
Li0 O61 1.970 1_455 S
Li0 O62 1.961 1_545 S
Li1 N25 1.990 . S
Li1 O60 1.970 1_655 S
Li1 O61 1.956 . S
Li1 O63 1.961 1_545 S
Li2 N47 1.990 . S
Li2 O60 1.961 1_565 S
Li2 O62 1.956 . S
Li2 O63 1.970 1_455 S
Li3 N53 1.990 . S
Li3 O61 1.961 1_565 S
Li3 O62 1.970 1_655 S
Li3 O63 1.956 . S
C4 C6 1.348 . S
C4 C7 1.356 . S
C4 O60 1.325 . S
N5 C8 1.314 . S
N5 C9 1.279 . S
C6 C4 1.348 . S
C6 C8 1.353 . S
C6 H64 0.929 . S
C7 C4 1.356 . S
C7 C9 1.358 . S
C7 H65 0.930 . S
C8 N5 1.314 . S
C8 C6 1.353 . S
C8 H66 0.930 . S
C9 N5 1.279 . S
C9 C7 1.358 . S
C9 H67 0.930 . S
C10 C13 1.348 1_655 S
C10 C14 1.356 . S
C10 O61 1.325 . S
C11 N12 1.279 . S
C11 C14 1.358 . S
C11 H68 0.930 . S
N12 C11 1.279 . S
N12 C15 1.314 . S
C13 C10 1.348 1_455 S
C13 C15 1.353 1_455 S
C13 H69 0.929 . S
C14 C10 1.356 . S
C14 C11 1.358 . S
C14 H70 0.930 . S
C15 N12 1.314 . S
C15 C13 1.353 1_655 S
C15 H71 0.930 1_655 S
C16 N17 1.314 . S
C16 C21 1.353 . S
C16 H22 0.930 . S
N17 Li0 1.990 . S
N17 C16 1.314 . S
N17 C19 1.279 . S
C18 C19 1.358 . S
C18 C20 1.356 . S
C18 H72 0.930 . S
C19 N17 1.279 . S
C19 C18 1.358 . S
C19 H23 0.930 . S
C20 C18 1.356 . S
C20 C21 1.348 . S
C21 C16 1.353 . S
C21 C20 1.348 . S
C21 H73 0.929 1_554 S
H22 C16 0.930 . S
H23 C19 0.930 . S
C24 N25 1.314 . S
C24 C26 1.353 . S
C24 H30 0.930 . S
N25 Li1 1.990 . S
N25 C24 1.314 . S
N25 C28 1.279 . S
C26 C24 1.353 . S
C26 C29 1.348 . S
C26 H74 0.929 . S
C27 C28 1.358 . S
C27 C29 1.356 . S
C27 H75 0.930 . S
C28 N25 1.279 . S
C28 C27 1.358 . S
C28 H31 0.930 . S
C29 C26 1.348 . S
C29 C27 1.356 . S
H30 C24 0.930 . S
H31 C28 0.930 . S
C32 C34 1.348 1_455 S
C32 C35 1.356 . S
C32 O62 1.325 . S
N33 C36 1.314 . S
N33 C37 1.279 . S
C34 C32 1.348 1_655 S
C34 C36 1.353 1_655 S
C34 H76 0.929 . S
C35 C32 1.356 . S
C35 C37 1.358 . S
C35 H77 0.930 . S
C36 N33 1.314 . S
C36 C34 1.353 1_455 S
C36 H78 0.930 1_455 S
C37 N33 1.279 . S
C37 C35 1.358 . S
C37 H79 0.930 . S
C38 C39 1.348 . S
C38 C40 1.356 . S
C38 O63 1.325 . S
C39 C38 1.348 . S
C39 C41 1.353 . S
C39 H80 0.929 . S
C40 C38 1.356 . S
C40 C42 1.358 . S
C40 H81 0.930 . S
C41 C39 1.353 . S
C41 N43 1.314 . S
C41 H82 0.930 . S
C42 C40 1.358 . S
C42 N43 1.279 . S
C42 H83 0.930 . S
N43 C41 1.314 . S
N43 C42 1.279 . S
C44 C46 1.353 . S
C44 N47 1.314 . S
C44 H50 0.930 . S
C45 N47 1.279 . S
C45 C48 1.358 . S
C45 H51 0.930 . S
C46 C44 1.353 . S
C46 C49 1.348 . S
C46 H84 0.929 . S
N47 Li2 1.990 . S
N47 C44 1.314 . S
N47 C45 1.279 . S
C48 C45 1.358 . S
C48 C49 1.356 . S
C48 H85 0.930 . S
C49 C46 1.348 . S
C49 C48 1.356 . S
H50 C44 0.930 . S
H51 C45 0.930 . S
C52 N53 1.314 . S
C52 C54 1.353 . S
C52 H58 0.930 . S
N53 Li3 1.990 . S
N53 C52 1.314 . S
N53 C56 1.279 . S
C54 C52 1.353 . S
C54 C57 1.348 . S
C54 H86 0.929 1_554 S
C55 C56 1.358 . S
C55 C57 1.356 . S
C55 H87 0.930 . S
C56 N53 1.279 . S
C56 C55 1.358 . S
C56 H59 0.930 . S
C57 C54 1.348 . S
C57 C55 1.356 . S
H58 C52 0.930 . S
H59 C56 0.930 . S
O60 Li0 1.956 . S
O60 Li1 1.970 1_455 S
O60 Li2 1.961 1_545 S
O60 C4 1.325 . S
O61 Li0 1.970 1_655 S
O61 Li1 1.956 . S
O61 Li3 1.961 1_545 S
O61 C10 1.325 . S
O62 Li0 1.961 1_565 S
O62 Li2 1.956 . S
O62 Li3 1.970 1_455 S
O62 C32 1.325 . S
O63 Li1 1.961 1_565 S
O63 Li2 1.970 1_655 S
O63 Li3 1.956 . S
O63 C38 1.325 . S
H64 C6 0.929 . S
H65 C7 0.930 . S
H66 C8 0.930 . S
H67 C9 0.930 . S
H68 C11 0.930 . S
H69 C13 0.929 . S
H70 C14 0.930 . S
H71 C15 0.930 1_455 S
H72 C18 0.930 . S
H73 C21 0.929 1_556 S
H74 C26 0.929 . S
H75 C27 0.930 . S
H76 C34 0.929 . S
H77 C35 0.930 . S
H78 C36 0.930 1_655 S
H79 C37 0.930 . S
H80 C39 0.929 . S
H81 C40 0.930 . S
H82 C41 0.930 . S
H83 C42 0.930 . S
H84 C46 0.929 . S
H85 C48 0.930 . S
H86 C54 0.929 1_556 S
H87 C55 0.930 . S
Li88 N105 1.990 . S
Li88 O148 1.956 . S
Li88 O149 1.970 1_665 S
Li88 O150 1.961 . S
Li89 N113 1.990 . S
Li89 O148 1.970 1_445 S
Li89 O149 1.956 . S
Li89 O151 1.961 . S
Li90 N135 1.990 . S
Li90 O148 1.961 . S
Li90 O150 1.956 . S
Li90 O151 1.970 1_665 S
Li91 N141 1.990 . S
Li91 O149 1.961 . S
Li91 O150 1.970 1_445 S
Li91 O151 1.956 . S
C92 C94 1.348 1_655 S
C92 C95 1.356 . S
C92 O148 1.325 . S
N93 C96 1.314 . S
N93 C97 1.279 . S
C94 C92 1.348 1_455 S
C94 C96 1.353 1_455 S
C94 H152 0.929 . S
C95 C92 1.356 . S
C95 C97 1.358 . S
C95 H153 0.930 . S
C96 N93 1.314 . S
C96 C94 1.353 1_655 S
C96 H154 0.930 1_655 S
C97 N93 1.279 . S
C97 C95 1.358 . S
C97 H155 0.930 . S
C98 C101 1.348 1_545 S
C98 C102 1.356 . S
C98 O149 1.325 . S
C99 N100 1.279 . S
C99 C102 1.358 . S
C99 H156 0.930 . S
N100 C99 1.279 . S
N100 C103 1.314 . S
C101 C98 1.348 1_565 S
C101 C103 1.353 1_565 S
C101 H157 0.929 . S
C102 C98 1.356 . S
C102 C99 1.358 . S
C102 H158 0.930 . S
C103 N100 1.314 . S
C103 C101 1.353 1_545 S
C103 H159 0.930 1_545 S
C104 N105 1.314 . S
C104 C109 1.353 . S
C104 H110 0.930 . S
N105 Li88 1.990 . S
N105 C104 1.314 . S
N105 C107 1.279 . S
C106 C107 1.358 . S
C106 C108 1.356 . S
C106 H160 0.930 . S
C107 N105 1.279 . S
C107 C106 1.358 . S
C107 H111 0.930 . S
C108 C106 1.356 . S
C108 C109 1.348 . S
C109 C104 1.353 . S
C109 C108 1.348 . S
C109 H161 0.929 . S
H110 C104 0.930 . S
H111 C107 0.930 . S
C112 N113 1.314 . S
C112 C114 1.353 . S
C112 H118 0.930 . S
N113 Li89 1.990 . S
N113 C112 1.314 . S
N113 C116 1.279 . S
C114 C112 1.353 . S
C114 C117 1.348 . S
C114 H162 0.929 . S
C115 C116 1.358 . S
C115 C117 1.356 . S
C115 H163 0.930 . S
C116 N113 1.279 . S
C116 C115 1.358 . S
C116 H119 0.930 . S
C117 C114 1.348 . S
C117 C115 1.356 . S
H118 C112 0.930 . S
H119 C116 0.930 . S
C120 C122 1.348 1_565 S
C120 C123 1.356 . S
C120 O150 1.325 . S
N121 C124 1.314 . S
N121 C125 1.279 . S
C122 C120 1.348 1_545 S
C122 C124 1.353 1_545 S
C122 H164 0.929 . S
C123 C120 1.356 . S
C123 C125 1.358 . S
C123 H165 0.930 . S
C124 N121 1.314 . S
C124 C122 1.353 1_565 S
C124 H166 0.930 1_565 S
C125 N121 1.279 . S
C125 C123 1.358 . S
C125 H167 0.930 . S
C126 C127 1.348 1_455 S
C126 C128 1.356 . S
C126 O151 1.325 . S
C127 C126 1.348 1_655 S
C127 C129 1.353 1_655 S
C127 H168 0.929 . S
C128 C126 1.356 . S
C128 C130 1.358 . S
C128 H169 0.930 . S
C129 C127 1.353 1_455 S
C129 N131 1.314 . S
C129 H170 0.930 1_455 S
C130 C128 1.358 . S
C130 N131 1.279 . S
C130 H171 0.930 . S
N131 C129 1.314 . S
N131 C130 1.279 . S
C132 C134 1.353 . S
C132 N135 1.314 . S
C132 H138 0.930 . S
C133 N135 1.279 . S
C133 C136 1.358 . S
C133 H139 0.930 . S
C134 C132 1.353 . S
C134 C137 1.348 . S
C134 H172 0.929 . S
N135 Li90 1.990 . S
N135 C132 1.314 . S
N135 C133 1.279 . S
C136 C133 1.358 . S
C136 C137 1.356 . S
C136 H173 0.930 . S
C137 C134 1.348 . S
C137 C136 1.356 . S
H138 C132 0.930 . S
H139 C133 0.930 . S
C140 N141 1.314 . S
C140 C142 1.353 . S
C140 H146 0.930 . S
N141 Li91 1.990 . S
N141 C140 1.314 . S
N141 C144 1.279 . S
C142 C140 1.353 . S
C142 C145 1.348 . S
C142 H174 0.929 . S
C143 C144 1.358 . S
C143 C145 1.356 . S
C143 H175 0.930 . S
C144 N141 1.279 . S
C144 C143 1.358 . S
C144 H147 0.930 . S
C145 C142 1.348 . S
C145 C143 1.356 . S
H146 C140 0.930 . S
H147 C144 0.930 . S
O148 Li88 1.956 . S
O148 Li89 1.970 1_665 S
O148 Li90 1.961 . S
O148 C92 1.325 . S
O149 Li88 1.970 1_445 S
O149 Li89 1.956 . S
O149 Li91 1.961 . S
O149 C98 1.325 . S
O150 Li88 1.961 . S
O150 Li90 1.956 . S
O150 Li91 1.970 1_665 S
O150 C120 1.325 . S
O151 Li89 1.961 . S
O151 Li90 1.970 1_445 S
O151 Li91 1.956 . S
O151 C126 1.325 . S
H152 C94 0.929 . S
H153 C95 0.930 . S
H154 C96 0.930 1_455 S
H155 C97 0.930 . S
H156 C99 0.930 . S
H157 C101 0.929 . S
H158 C102 0.930 . S
H159 C103 0.930 1_565 S
H160 C106 0.930 . S
H161 C109 0.929 . S
H162 C114 0.929 . S
H163 C115 0.930 . S
H164 C122 0.929 . S
H165 C123 0.930 . S
H166 C124 0.930 1_545 S
H167 C125 0.930 . S
H168 C127 0.929 . S
H169 C128 0.930 . S
H170 C129 0.930 1_655 S
H171 C130 0.930 . S
H172 C134 0.929 . S
H173 C136 0.930 . S
H174 C142 0.929 . S
H175 C143 0.930 . S
Li176 N193 1.990 . S
Li176 O236 1.956 . S
Li176 O237 1.970 1_565 S
Li176 O238 1.961 1_455 S
Li177 N201 1.990 . S
Li177 O236 1.970 1_545 S
Li177 O237 1.956 . S
Li177 O239 1.961 1_455 S
Li178 N223 1.990 . S
Li178 O236 1.961 1_655 S
Li178 O238 1.956 . S
Li178 O239 1.970 1_565 S
Li179 N229 1.990 . S
Li179 O237 1.961 1_655 S
Li179 O238 1.970 1_545 S
Li179 O239 1.956 . S
C180 C182 1.348 1_565 S
C180 C183 1.356 . S
C180 O236 1.325 . S
N181 C184 1.314 . S
N181 C185 1.279 . S
C182 C180 1.348 1_545 S
C182 C184 1.353 1_545 S
C182 H240 0.929 . S
C183 C180 1.356 . S
C183 C185 1.358 . S
C183 H241 0.930 . S
C184 N181 1.314 . S
C184 C182 1.353 1_565 S
C184 H242 0.930 1_565 S
C185 N181 1.279 . S
C185 C183 1.358 . S
C185 H243 0.930 . S
C186 C189 1.348 . S
C186 C190 1.356 . S
C186 O237 1.325 . S
C187 N188 1.279 . S
C187 C190 1.358 . S
C187 H244 0.930 . S
N188 C187 1.279 . S
N188 C191 1.314 . S
C189 C186 1.348 . S
C189 C191 1.353 . S
C189 H245 0.929 . S
C190 C186 1.356 . S
C190 C187 1.358 . S
C190 H246 0.930 . S
C191 N188 1.314 . S
C191 C189 1.353 . S
C191 H247 0.930 . S
C192 N193 1.314 . S
C192 C197 1.353 . S
C192 H198 0.930 . S
N193 Li176 1.990 . S
N193 C192 1.314 . S
N193 C195 1.279 . S
C194 C195 1.358 . S
C194 C196 1.356 . S
C194 H248 0.930 . S
C195 N193 1.279 . S
C195 C194 1.358 . S
C195 H199 0.930 . S
C196 C194 1.356 . S
C196 C197 1.348 . S
C197 C192 1.353 . S
C197 C196 1.348 . S
C197 H249 0.929 . S
H198 C192 0.930 . S
H199 C195 0.930 . S
C200 N201 1.314 . S
C200 C202 1.353 . S
C200 H206 0.930 . S
N201 Li177 1.990 . S
N201 C200 1.314 . S
N201 C204 1.279 . S
C202 C200 1.353 . S
C202 C205 1.348 . S
C202 H250 0.929 . S
C203 C204 1.358 . S
C203 C205 1.356 . S
C203 H251 0.930 . S
C204 N201 1.279 . S
C204 C203 1.358 . S
C204 H207 0.930 . S
C205 C202 1.348 . S
C205 C203 1.356 . S
H206 C200 0.930 . S
H207 C204 0.930 . S
C208 C210 1.348 . S
C208 C211 1.356 . S
C208 O238 1.325 . S
N209 C212 1.314 . S
N209 C213 1.279 . S
C210 C208 1.348 . S
C210 C212 1.353 . S
C210 H252 0.929 . S
C211 C208 1.356 . S
C211 C213 1.358 . S
C211 H253 0.930 . S
C212 N209 1.314 . S
C212 C210 1.353 . S
C212 H254 0.930 . S
C213 N209 1.279 . S
C213 C211 1.358 . S
C213 H255 0.930 . S
C214 C215 1.348 1_545 S
C214 C216 1.356 . S
C214 O239 1.325 . S
C215 C214 1.348 1_565 S
C215 C217 1.353 1_565 S
C215 H256 0.929 . S
C216 C214 1.356 . S
C216 C218 1.358 . S
C216 H257 0.930 . S
C217 C215 1.353 1_545 S
C217 N219 1.314 . S
C217 H258 0.930 1_545 S
C218 C216 1.358 . S
C218 N219 1.279 . S
C218 H259 0.930 . S
N219 C217 1.314 . S
N219 C218 1.279 . S
C220 C222 1.353 . S
C220 N223 1.314 . S
C220 H226 0.930 . S
C221 N223 1.279 . S
C221 C224 1.358 . S
C221 H227 0.930 . S
C222 C220 1.353 . S
C222 C225 1.348 . S
C222 H260 0.929 . S
N223 Li178 1.990 . S
N223 C220 1.314 . S
N223 C221 1.279 . S
C224 C221 1.358 . S
C224 C225 1.356 . S
C224 H261 0.930 . S
C225 C222 1.348 . S
C225 C224 1.356 . S
H226 C220 0.930 . S
H227 C221 0.930 . S
C228 N229 1.314 . S
C228 C230 1.353 . S
C228 H234 0.930 . S
N229 Li179 1.990 . S
N229 C228 1.314 . S
N229 C232 1.279 . S
C230 C228 1.353 . S
C230 C233 1.348 . S
C230 H262 0.929 . S
C231 C232 1.358 . S
C231 C233 1.356 . S
C231 H263 0.930 . S
C232 N229 1.279 . S
C232 C231 1.358 . S
C232 H235 0.930 . S
C233 C230 1.348 . S
C233 C231 1.356 . S
H234 C228 0.930 . S
H235 C232 0.930 . S
O236 Li176 1.956 . S
O236 Li177 1.970 1_565 S
O236 Li178 1.961 1_455 S
O236 C180 1.325 . S
O237 Li176 1.970 1_545 S
O237 Li177 1.956 . S
O237 Li179 1.961 1_455 S
O237 C186 1.325 . S
O238 Li176 1.961 1_655 S
O238 Li178 1.956 . S
O238 Li179 1.970 1_565 S
O238 C208 1.325 . S
O239 Li177 1.961 1_655 S
O239 Li178 1.970 1_545 S
O239 Li179 1.956 . S
O239 C214 1.325 . S
H240 C182 0.929 . S
H241 C183 0.930 . S
H242 C184 0.930 1_545 S
H243 C185 0.930 . S
H244 C187 0.930 . S
H245 C189 0.929 . S
H246 C190 0.930 . S
H247 C191 0.930 . S
H248 C194 0.930 . S
H249 C197 0.929 . S
H250 C202 0.929 . S
H251 C203 0.930 . S
H252 C210 0.929 . S
H253 C211 0.930 . S
H254 C212 0.930 . S
H255 C213 0.930 . S
H256 C215 0.929 . S
H257 C216 0.930 . S
H258 C217 0.930 1_565 S
H259 C218 0.930 . S
H260 C222 0.929 . S
H261 C224 0.930 . S
H262 C230 0.929 . S
H263 C231 0.930 . S
C264 C265 1.384 1_655 S
C264 C266 1.384 . S
C264 H292 0.931 . S
C265 C264 1.384 1_455 S
C265 C268 1.382 . S
C266 C264 1.384 . S
C266 C267 1.381 1_655 S
C266 H293 0.930 . S
C267 C266 1.381 1_455 S
C267 C269 1.381 . S
C267 C270 1.487 . S
C268 C265 1.382 . S
C268 C269 1.387 . S
C268 H294 0.930 . S
C269 C267 1.381 . S
C269 C268 1.387 . S
C269 H295 0.931 . S
C270 C267 1.487 . S
C270 C277 1.399 1_455 S
C270 N308 1.343 . S
C271 C272 1.367 1_455 S
C271 C273 1.384 . S
C271 H296 0.931 . S
C272 C271 1.367 1_655 S
C272 C275 1.414 . S
C273 C271 1.384 . S
C273 C274 1.381 1_455 S
C273 H297 0.930 . S
C274 C273 1.381 1_655 S
C274 C276 1.381 . S
C274 C277 1.487 . S
C275 C272 1.414 . S
C275 C276 1.387 . S
C275 H298 0.930 . S
C276 C274 1.381 . S
C276 C275 1.387 . S
C276 H299 0.931 . S
C277 C270 1.399 1_655 S
C277 C274 1.487 . S
C277 N309 1.343 . S
C278 C279 1.364 1_455 S
C278 C280 1.384 . S
C278 H300 0.931 . S
C279 C278 1.364 1_655 S
C279 C282 1.390 . S
C280 C278 1.384 . S
C280 C281 1.381 1_455 S
C280 H301 0.930 . S
C281 C280 1.381 1_655 S
C281 C283 1.381 . S
C281 C284 1.487 . S
C282 C279 1.390 . S
C282 C283 1.387 . S
C282 H302 0.930 . S
C283 C281 1.381 . S
C283 C282 1.387 . S
C283 H303 0.931 . S
C284 C281 1.487 . S
C284 C291 1.399 1_655 S
C284 N309 1.343 . S
C285 C286 1.384 1_655 S
C285 C287 1.384 . S
C285 H304 0.931 . S
C286 C285 1.384 1_455 S
C286 C289 1.382 . S
C287 C285 1.384 . S
C287 C288 1.381 1_655 S
C287 H305 0.930 . S
C288 C287 1.381 1_455 S
C288 C290 1.381 . S
C288 C291 1.487 . S
C289 C286 1.382 . S
C289 C290 1.387 . S
C289 H306 0.930 . S
C290 C288 1.381 . S
C290 C289 1.387 . S
C290 H307 0.931 . S
C291 C284 1.399 1_455 S
C291 C288 1.487 . S
C291 N308 1.343 . S
H292 C264 0.931 . S
H293 C266 0.930 . S
H294 C268 0.930 . S
H295 C269 0.931 . S
H296 C271 0.931 . S
H297 C273 0.930 . S
H298 C275 0.930 . S
H299 C276 0.931 . S
H300 C278 0.931 . S
H301 C280 0.930 . S
H302 C282 0.930 . S
H303 C283 0.931 . S
H304 C285 0.931 . S
H305 C287 0.930 . S
H306 C289 0.930 . S
H307 C290 0.931 . S
N308 C270 1.343 . S
N308 C291 1.343 . S
N309 C277 1.343 . S
N309 C284 1.343 . S
C310 C311 1.364 1_545 S
C310 C312 1.384 . S
C310 H338 0.931 . S
C311 C310 1.364 1_565 S
C311 C314 1.390 . S
C312 C310 1.384 . S
C312 C313 1.381 1_545 S
C312 H339 0.930 . S
C313 C312 1.381 1_565 S
C313 C315 1.381 . S
C313 C316 1.487 . S
C314 C311 1.390 . S
C314 C315 1.387 . S
C314 H340 0.930 . S
C315 C313 1.381 . S
C315 C314 1.387 . S
C315 H341 0.931 . S
C316 C313 1.487 . S
C316 C323 1.399 1_565 S
C316 N354 1.343 . S
C317 C318 1.384 1_565 S
C317 C319 1.384 . S
C317 H342 0.931 . S
C318 C317 1.384 1_545 S
C318 C321 1.382 . S
C319 C317 1.384 . S
C319 C320 1.381 1_565 S
C319 H343 0.930 . S
C320 C319 1.381 1_545 S
C320 C322 1.381 . S
C320 C323 1.487 . S
C321 C318 1.382 . S
C321 C322 1.387 . S
C321 H344 0.930 . S
C322 C320 1.381 . S
C322 C321 1.387 . S
C322 H345 0.931 . S
C323 C316 1.399 1_545 S
C323 C320 1.487 . S
C323 N355 1.343 . S
C324 C325 1.384 1_565 S
C324 C326 1.384 . S
C324 H346 0.931 . S
C325 C324 1.384 1_545 S
C325 C328 1.382 . S
C326 C324 1.384 . S
C326 C327 1.381 1_565 S
C326 H347 0.930 . S
C327 C326 1.381 1_545 S
C327 C329 1.381 . S
C327 C330 1.487 . S
C328 C325 1.382 . S
C328 C329 1.387 . S
C328 H348 0.930 . S
C329 C327 1.381 . S
C329 C328 1.387 . S
C329 H349 0.931 . S
C330 C327 1.487 . S
C330 C337 1.399 1_545 S
C330 N355 1.343 . S
C331 C332 1.367 1_545 S
C331 C333 1.384 . S
C331 H350 0.931 . S
C332 C331 1.367 1_565 S
C332 C335 1.414 . S
C333 C331 1.384 . S
C333 C334 1.381 1_545 S
C333 H351 0.930 . S
C334 C333 1.381 1_565 S
C334 C336 1.381 . S
C334 C337 1.487 . S
C335 C332 1.414 . S
C335 C336 1.387 . S
C335 H352 0.930 . S
C336 C334 1.381 . S
C336 C335 1.387 . S
C336 H353 0.931 . S
C337 C330 1.399 1_565 S
C337 C334 1.487 . S
C337 N354 1.343 . S
H338 C310 0.931 . S
H339 C312 0.930 . S
H340 C314 0.930 . S
H341 C315 0.931 . S
H342 C317 0.931 . S
H343 C319 0.930 . S
H344 C321 0.930 . S
H345 C322 0.931 . S
H346 C324 0.931 . S
H347 C326 0.930 . S
H348 C328 0.930 . S
H349 C329 0.931 . S
H350 C331 0.931 . S
H351 C333 0.930 . S
H352 C335 0.930 . S
H353 C336 0.931 . S
N354 C316 1.343 . S
N354 C337 1.343 . S
N355 C323 1.343 . S
N355 C330 1.343 . S
C356 C357 1.384 . S
C356 C358 1.384 . S
C356 H384 0.931 . S
C357 C356 1.384 . S
C357 C360 1.382 . S
C358 C356 1.384 . S
C358 C359 1.381 . S
C358 H385 0.930 . S
C359 C358 1.381 . S
C359 C361 1.381 . S
C359 C362 1.487 . S
C360 C357 1.382 . S
C360 C361 1.387 . S
C360 H386 0.930 . S
C361 C359 1.381 . S
C361 C360 1.387 . S
C361 H387 0.931 . S
C362 C359 1.487 . S
C362 C369 1.399 . S
C362 N400 1.343 . S
C363 C364 1.384 . S
C363 C365 1.384 . S
C363 H388 0.931 . S
C364 C363 1.384 . S
C364 C367 1.382 . S
C365 C363 1.384 . S
C365 C366 1.381 . S
C365 H389 0.930 . S
C366 C365 1.381 . S
C366 C368 1.381 . S
C366 C369 1.487 . S
C367 C364 1.382 . S
C367 C368 1.387 . S
C367 H390 0.930 . S
C368 C366 1.381 . S
C368 C367 1.387 . S
C368 H391 0.931 . S
C369 C362 1.399 . S
C369 C366 1.487 . S
C369 N401 1.343 . S
C370 C371 1.384 . S
C370 C372 1.384 . S
C370 H392 0.931 . S
C371 C370 1.384 . S
C371 C374 1.382 . S
C372 C370 1.384 . S
C372 C373 1.381 . S
C372 H393 0.930 . S
C373 C372 1.381 . S
C373 C375 1.381 . S
C373 C376 1.487 . S
C374 C371 1.382 . S
C374 C375 1.387 . S
C374 H394 0.930 . S
C375 C373 1.381 . S
C375 C374 1.387 . S
C375 H395 0.931 . S
C376 C373 1.487 . S
C376 C383 1.399 . S
C376 N401 1.343 . S
C377 C378 1.384 . S
C377 C379 1.384 . S
C377 H396 0.931 . S
C378 C377 1.384 . S
C378 C381 1.382 . S
C379 C377 1.384 . S
C379 C380 1.381 . S
C379 H397 0.930 . S
C380 C379 1.381 . S
C380 C382 1.381 . S
C380 C383 1.487 . S
C381 C378 1.382 . S
C381 C382 1.387 . S
C381 H398 0.930 . S
C382 C380 1.381 . S
C382 C381 1.387 . S
C382 H399 0.931 . S
C383 C376 1.399 . S
C383 C380 1.487 . S
C383 N400 1.343 . S
H384 C356 0.931 . S
H385 C358 0.930 . S
H386 C360 0.930 . S
H387 C361 0.931 . S
H388 C363 0.931 . S
H389 C365 0.930 . S
H390 C367 0.930 . S
H391 C368 0.931 . S
H392 C370 0.931 . S
H393 C372 0.930 . S
H394 C374 0.930 . S
H395 C375 0.931 . S
H396 C377 0.931 . S
H397 C379 0.930 . S
H398 C381 0.930 . S
H399 C382 0.931 . S
N400 C362 1.343 . S
N400 C383 1.343 . S
N401 C369 1.343 . S
N401 C376 1.343 . S
C402 C403 1.386 . S
C402 C404 1.383 . S
C402 H418 0.951 . S
C403 C402 1.386 . S
C403 C407 1.383 . S
C404 C402 1.383 . S
C404 C405 1.402 . S
C404 H419 0.951 . S
C405 C404 1.402 . S
C405 C406 1.375 . S
C405 C408 1.481 . S
C406 C405 1.375 . S
C406 C407 1.367 . S
C406 H420 0.951 . S
C407 C403 1.383 . S
C407 C406 1.367 . S
C407 H421 0.950 . S
C408 C405 1.481 . S
C408 C409 1.297 . S
C408 H422 0.950 . S
C409 C408 1.297 . S
C409 C410 1.479 . S
C409 H423 0.950 . S
C410 C409 1.479 . S
C410 C411 1.375 . S
C410 C416 1.404 . S
C411 C410 1.375 . S
C411 C412 1.369 . S
C411 H424 0.950 . S
C412 C411 1.369 . S
C412 C413 1.392 . S
C412 H425 0.951 . S
C413 C412 1.392 . S
C413 C415 1.384 . S
H414 C416 0.949 . S
C415 C413 1.384 . S
C415 C416 1.385 . S
C415 H417 0.950 1_655 S
C416 C410 1.404 . S
C416 H414 0.949 . S
C416 C415 1.385 . S
H417 C415 0.950 1_455 S
H418 C402 0.951 . S
H419 C404 0.951 . S
H420 C406 0.951 . S
H421 C407 0.950 . S
H422 C408 0.950 . S
H423 C409 0.950 . S
H424 C411 0.950 . S
H425 C412 0.951 . S
C426 C427 1.386 . S
C426 C428 1.383 . S
C426 H442 0.951 . S
C427 C426 1.386 . S
C427 C431 1.383 . S
C428 C426 1.383 . S
C428 C429 1.402 . S
C428 H443 0.949 1_565 S
C429 C428 1.402 . S
C429 C430 1.375 . S
C429 C432 1.481 . S
C430 C429 1.375 . S
C430 C431 1.367 . S
C430 H444 0.951 . S
C431 C427 1.383 . S
C431 C430 1.367 . S
C431 H445 0.950 . S
C432 C429 1.481 . S
C432 C433 1.300 . S
C432 H446 0.950 . S
C433 C432 1.300 . S
C433 C434 1.476 1_565 S
C433 H447 0.950 1_565 S
C434 C433 1.476 1_545 S
C434 C435 1.375 . S
C434 C440 1.404 1_545 S
C435 C434 1.375 . S
C435 C436 1.369 . S
C435 H448 0.950 . S
C436 C435 1.369 . S
C436 C437 1.392 . S
C436 H449 0.951 . S
C437 C436 1.392 . S
C437 C439 1.384 1_545 S
H438 C440 0.949 . S
C439 C437 1.384 1_565 S
C439 C440 1.385 . S
C439 H441 0.950 . S
C440 C434 1.404 1_565 S
C440 H438 0.949 . S
C440 C439 1.385 . S
H441 C439 0.950 . S
H442 C426 0.951 . S
H443 C428 0.949 1_545 S
H444 C430 0.951 . S
H445 C431 0.950 . S
H446 C432 0.950 . S
H447 C433 0.950 1_545 S
H448 C435 0.950 . S
H449 C436 0.951 . S
C450 C451 1.386 . S
C450 C452 1.383 . S
C450 H466 0.951 . S
C451 C450 1.386 . S
C451 C455 1.383 . S
C452 C450 1.383 . S
C452 C453 1.402 . S
C452 H467 0.951 . S
C453 C452 1.402 . S
C453 C454 1.375 . S
C453 C456 1.481 . S
C454 C453 1.375 . S
C454 C455 1.367 . S
C454 H468 0.951 . S
C455 C451 1.383 . S
C455 C454 1.367 . S
C455 H469 0.950 . S
C456 C453 1.481 . S
C456 C457 1.297 . S
C456 H470 0.950 . S
C457 C456 1.297 . S
C457 C458 1.479 . S
C457 H471 0.950 . S
C458 C457 1.479 . S
C458 C459 1.375 . S
C458 C464 1.404 . S
C459 C458 1.375 . S
C459 C460 1.369 . S
C459 H472 0.950 . S
C460 C459 1.369 . S
C460 C461 1.392 . S
C460 H473 0.951 . S
C461 C460 1.392 . S
C461 C463 1.384 . S
H462 C464 0.949 . S
C463 C461 1.384 . S
C463 C464 1.385 . S
C463 H465 0.950 . S
C464 C458 1.404 . S
C464 H462 0.949 . S
C464 C463 1.385 . S
H465 C463 0.950 . S
H466 C450 0.951 . S
H467 C452 0.951 . S
H468 C454 0.951 . S
H469 C455 0.950 . S
H470 C456 0.950 . S
H471 C457 0.950 . S
H472 C459 0.950 . S
H473 C460 0.951 . S
C474 C475 1.386 . S
C474 C476 1.383 . S
C474 H490 0.951 . S
C475 C474 1.386 . S
C475 C479 1.375 1_455 S
C476 C474 1.383 . S
C476 C477 1.402 . S
C476 H491 0.951 . S
C477 C476 1.402 . S
C477 C478 1.375 1_455 S
C477 C480 1.481 . S
C478 C477 1.375 1_655 S
C478 C479 1.365 . S
C478 H492 0.951 . S
C479 C475 1.375 1_655 S
C479 C478 1.365 . S
C479 H493 0.959 . S
C480 C477 1.481 . S
C480 C481 1.297 . S
C480 H494 0.950 1_455 S
C481 C480 1.297 . S
C481 C482 1.479 . S
C481 H495 0.950 . S
C482 C481 1.479 . S
C482 C483 1.375 . S
C482 C488 1.404 1_455 S
C483 C482 1.375 . S
C483 C484 1.369 . S
C483 H496 0.950 . S
C484 C483 1.369 . S
C484 C485 1.392 . S
C484 H497 0.951 . S
C485 C484 1.392 . S
C485 C487 1.384 1_455 S
H486 C488 0.949 . S
C487 C485 1.384 1_655 S
C487 C488 1.385 . S
C487 H489 0.950 . S
C488 C482 1.404 1_655 S
C488 H486 0.949 . S
C488 C487 1.385 . S
H489 C487 0.950 . S
H490 C474 0.951 . S
H491 C476 0.951 . S
H492 C478 0.951 . S
H493 C479 0.959 . S
H494 C480 0.950 1_655 S
H495 C481 0.950 . S
H496 C483 0.950 . S
H497 C484 0.951 . S
C498 C499 1.386 . S
C498 C500 1.383 . S
C498 H514 0.951 . S
C499 C498 1.386 . S
C499 C503 1.383 . S
C500 C498 1.383 . S
C500 C501 1.402 . S
C500 H515 0.951 . S
C501 C500 1.402 . S
C501 C502 1.375 1_545 S
C501 C504 1.481 . S
C502 C501 1.375 1_565 S
C502 C503 1.367 1_565 S
C502 H516 0.951 . S
C503 C499 1.383 . S
C503 C502 1.367 1_545 S
C503 H517 0.950 1_545 S
C504 C501 1.481 . S
C504 C505 1.297 . S
C504 H518 0.950 1_545 S
C505 C504 1.297 . S
C505 C506 1.479 . S
C505 H519 0.950 . S
C506 C505 1.479 . S
C506 C507 1.375 . S
C506 C512 1.404 1_545 S
C507 C506 1.375 . S
C507 C508 1.369 . S
C507 H520 0.950 . S
C508 C507 1.369 . S
C508 C509 1.392 . S
C508 H521 0.951 . S
C509 C508 1.392 . S
C509 C511 1.384 1_545 S
H510 C512 0.949 . S
C511 C509 1.384 1_565 S
C511 C512 1.385 . S
C511 H513 0.950 . S
C512 C506 1.404 1_565 S
C512 H510 0.949 . S
C512 C511 1.385 . S
H513 C511 0.950 . S
H514 C498 0.951 . S
H515 C500 0.951 . S
H516 C502 0.951 . S
H517 C503 0.950 1_565 S
H518 C504 0.950 1_565 S
H519 C505 0.950 . S
H520 C507 0.950 . S
H521 C508 0.951 . S
C522 C523 1.386 . S
C522 C524 1.383 . S
C522 H538 0.951 . S
C523 C522 1.386 . S
C523 C527 1.383 . S
C524 C522 1.383 . S
C524 C525 1.402 . S
C524 H539 0.951 . S
C525 C524 1.402 . S
C525 C526 1.375 . S
C525 C528 1.481 . S
C526 C525 1.375 . S
C526 C527 1.367 . S
C526 H540 0.951 . S
C527 C523 1.383 . S
C527 C526 1.367 . S
C527 H541 0.950 . S
C528 C525 1.481 . S
C528 C529 1.297 . S
C528 H542 0.950 . S
C529 C528 1.297 . S
C529 C530 1.479 . S
C529 H543 0.950 . S
C530 C529 1.479 . S
C530 C531 1.375 . S
C530 C536 1.404 . S
C531 C530 1.375 . S
C531 C532 1.369 . S
C531 H544 0.950 . S
C532 C531 1.369 . S
C532 C533 1.392 . S
C532 H545 0.951 . S
C533 C532 1.392 . S
C533 C535 1.384 . S
H534 C536 0.949 . S
C535 C533 1.384 . S
C535 C536 1.385 . S
C535 H537 0.950 . S
C536 C530 1.404 . S
C536 H534 0.949 . S
C536 C535 1.385 . S
H537 C535 0.950 . S
H538 C522 0.951 . S
H539 C524 0.951 . S
H540 C526 0.951 . S
H541 C527 0.950 . S
H542 C528 0.950 . S
H543 C529 0.950 . S
H544 C531 0.950 . S
H545 C532 0.951 . S
C546 C547 1.386 . S
C546 C548 1.383 . S
C546 H562 0.951 . S
C547 C546 1.386 . S
C547 C551 1.383 . S
C548 C546 1.383 . S
C548 C549 1.402 . S
C548 H563 0.951 . S
C549 C548 1.402 . S
C549 C550 1.375 1_545 S
C549 C552 1.481 . S
C550 C549 1.375 1_565 S
C550 C551 1.367 1_565 S
C550 H564 0.951 . S
C551 C547 1.383 . S
C551 C550 1.367 1_545 S
C551 H565 0.950 1_545 S
C552 C549 1.481 . S
C552 C553 1.297 . S
C552 H566 0.950 1_545 S
C553 C552 1.297 . S
C553 C554 1.479 . S
C553 H567 0.950 . S
C554 C553 1.479 . S
C554 C555 1.375 . S
C554 C560 1.404 1_545 S
C555 C554 1.375 . S
C555 C556 1.369 . S
C555 H568 0.950 . S
C556 C555 1.369 . S
C556 C557 1.392 . S
C556 H569 0.951 . S
C557 C556 1.392 . S
C557 C559 1.384 1_545 S
H558 C560 0.949 . S
C559 C557 1.384 1_565 S
C559 C560 1.385 . S
C559 H561 0.950 . S
C560 C554 1.404 1_565 S
C560 H558 0.949 . S
C560 C559 1.385 . S
H561 C559 0.950 . S
H562 C546 0.951 . S
H563 C548 0.951 . S
H564 C550 0.951 . S
H565 C551 0.950 1_565 S
H566 C552 0.950 1_565 S
H567 C553 0.950 . S
H568 C555 0.950 . S
H569 C556 0.951 . S
C570 C571 1.351 1_556 S
C570 C572 1.383 . S
C570 H586 0.951 . S
C571 C570 1.351 1_554 S
C571 C575 1.393 . S
C572 C570 1.383 . S
C572 C573 1.402 . S
C572 H587 0.951 . S
C573 C572 1.402 . S
C573 C574 1.375 . S
C573 C576 1.481 . S
C574 C573 1.375 . S
C574 C575 1.367 1_556 S
C574 H588 0.951 . S
C575 C571 1.393 . S
C575 C574 1.367 1_554 S
C575 H589 0.950 . S
C576 C573 1.481 . S
C576 C577 1.297 . S
C576 H590 0.950 . S
C577 C576 1.297 . S
C577 C578 1.479 . S
C577 H591 0.950 . S
C578 C577 1.479 . S
C578 C579 1.375 . S
C578 C584 1.404 . S
C579 C578 1.375 . S
C579 C580 1.369 . S
C579 H592 0.950 . S
C580 C579 1.369 . S
C580 C581 1.392 . S
C580 H593 0.951 . S
C581 C580 1.392 . S
C581 C583 1.384 . S
H582 C584 0.949 . S
C583 C581 1.384 . S
C583 C584 1.385 . S
C583 H585 0.950 . S
C584 C578 1.404 . S
C584 H582 0.949 . S
C584 C583 1.385 . S
H585 C583 0.950 . S
H586 C570 0.951 . S
H587 C572 0.951 . S
H588 C574 0.951 . S
H589 C575 0.950 . S
H590 C576 0.950 . S
H591 C577 0.950 . S
H592 C579 0.950 . S
H593 C580 0.951 . S
C594 C595 1.386 . S
C594 C596 1.383 . S
C594 H610 0.951 . S
C595 C594 1.386 . S
C595 C599 1.383 . S
C596 C594 1.383 . S
C596 C597 1.402 . S
C596 H611 0.951 . S
C597 C596 1.402 . S
C597 C598 1.375 . S
C597 C600 1.481 . S
C598 C597 1.375 . S
C598 C599 1.367 . S
C598 H612 0.951 . S
C599 C595 1.383 . S
C599 C598 1.367 . S
C599 H613 0.950 . S
C600 C597 1.481 . S
C600 C601 1.297 . S
C600 H614 0.950 . S
C601 C600 1.297 . S
C601 C602 1.479 . S
C601 H615 0.950 . S
C602 C601 1.479 . S
C602 C603 1.375 . S
C602 C608 1.404 . S
C603 C602 1.375 . S
C603 C604 1.369 . S
C603 H616 0.950 . S
C604 C603 1.369 . S
C604 C605 1.392 . S
C604 H617 0.951 . S
C605 C604 1.392 . S
C605 C607 1.384 . S
H606 C608 0.949 . S
C607 C605 1.384 . S
C607 C608 1.385 . S
C607 H609 0.946 1_655 S
C608 C602 1.404 . S
C608 H606 0.949 . S
C608 C607 1.385 . S
H609 C607 0.946 1_455 S
H610 C594 0.951 . S
H611 C596 0.951 . S
H612 C598 0.951 . S
H613 C599 0.950 . S
H614 C600 0.950 . S
H615 C601 0.950 . S
H616 C603 0.950 . S
H617 C604 0.951 . S
C618 C619 1.386 . S
C618 C620 1.383 . S
C618 H634 0.951 . S
C619 C618 1.386 . S
C619 C623 1.383 . S
C620 C618 1.383 . S
C620 C621 1.402 . S
C620 H635 0.951 . S
C621 C620 1.402 . S
C621 C622 1.375 1_565 S
C621 C624 1.481 . S
C622 C621 1.375 1_545 S
C622 C623 1.367 1_545 S
C622 H636 0.951 . S
C623 C619 1.383 . S
C623 C622 1.367 1_565 S
C623 H637 0.950 1_565 S
C624 C621 1.481 . S
C624 C625 1.297 . S
C624 H638 0.950 1_565 S
C625 C624 1.297 . S
C625 C626 1.479 . S
C625 H639 0.950 . S
C626 C625 1.479 . S
C626 C627 1.375 . S
C626 C632 1.404 1_565 S
C627 C626 1.375 . S
C627 C628 1.369 . S
C627 H640 0.950 . S
C628 C627 1.369 . S
C628 C629 1.392 . S
C628 H641 0.951 . S
C629 C628 1.392 . S
C629 C631 1.384 1_565 S
H630 C632 0.949 . S
C631 C629 1.384 1_545 S
C631 C632 1.385 . S
C631 H633 0.950 . S
C632 C626 1.404 1_545 S
C632 H630 0.949 . S
C632 C631 1.385 . S
H633 C631 0.950 . S
H634 C618 0.951 . S
H635 C620 0.951 . S
H636 C622 0.951 . S
H637 C623 0.950 1_545 S
H638 C624 0.950 1_545 S
H639 C625 0.950 . S
H640 C627 0.950 . S
H641 C628 0.951 . S
C642 C643 1.388 . S
C642 C644 1.383 1_554 S
C642 H658 0.951 . S
C643 C642 1.388 . S
C643 C647 1.360 1_554 S
C644 C642 1.383 1_556 S
C644 C645 1.402 . S
C644 H659 0.951 . S
C645 C644 1.402 . S
C645 C646 1.375 . S
C645 C648 1.481 . S
C646 C645 1.375 . S
C646 C647 1.367 . S
C646 H660 0.951 . S
C647 C643 1.360 1_556 S
C647 C646 1.367 . S
C647 H661 0.950 . S
C648 C645 1.481 . S
C648 C649 1.297 . S
C648 H662 0.950 . S
C649 C648 1.297 . S
C649 C650 1.479 . S
C649 H663 0.950 . S
C650 C649 1.479 . S
C650 C651 1.375 . S
C650 C656 1.404 . S
C651 C650 1.375 . S
C651 C652 1.369 . S
C651 H664 0.950 . S
C652 C651 1.369 . S
C652 C653 1.392 . S
C652 H665 0.951 . S
C653 C652 1.392 . S
C653 C655 1.384 . S
H654 C656 0.949 . S
C655 C653 1.384 . S
C655 C656 1.385 . S
C655 H657 0.950 . S
C656 C650 1.404 . S
C656 H654 0.949 . S
C656 C655 1.385 . S
H657 C655 0.950 . S
H658 C642 0.951 . S
H659 C644 0.951 . S
H660 C646 0.951 . S
H661 C647 0.950 . S
H662 C648 0.950 . S
H663 C649 0.950 . S
H664 C651 0.950 . S
H665 C652 0.951 . S
C666 C667 1.386 . S
C666 C668 1.383 . S
C666 H682 0.951 . S
C667 C666 1.386 . S
C667 C671 1.383 . S
C668 C666 1.383 . S
C668 C669 1.402 . S
C668 H683 0.951 . S
C669 C668 1.402 . S
C669 C670 1.375 . S
C669 C672 1.481 . S
C670 C669 1.375 . S
C670 C671 1.367 . S
C670 H684 0.951 . S
C671 C667 1.383 . S
C671 C670 1.367 . S
C671 H685 0.950 . S
C672 C669 1.481 . S
C672 C673 1.306 . S
C672 H686 0.950 . S
C673 C672 1.306 . S
C673 C674 1.470 1_455 S
C673 H687 0.951 1_455 S
C674 C673 1.470 1_655 S
C674 C675 1.375 . S
C674 C680 1.404 1_655 S
C675 C674 1.375 . S
C675 C676 1.369 . S
C675 H688 0.950 . S
C676 C675 1.369 . S
C676 C677 1.392 . S
C676 H689 0.951 . S
C677 C676 1.392 . S
C677 C679 1.384 1_655 S
H678 C680 0.949 . S
C679 C677 1.384 1_455 S
C679 C680 1.385 . S
C679 H681 0.950 . S
C680 C674 1.404 1_455 S
C680 H678 0.949 . S
C680 C679 1.385 . S
H681 C679 0.950 . S
H682 C666 0.951 . S
H683 C668 0.951 . S
H684 C670 0.951 . S
H685 C671 0.950 . S
H686 C672 0.950 . S
H687 C673 0.951 1_655 S
H688 C675 0.950 . S
H689 C676 0.951 . S
C413 C272 1.384 . S
C403 C29 1.408 . S
C427 C137 1.403 . S
C437 C311 1.443 1_545 S
C451 C225 1.422 . S
C461 C378 1.412 . S
C475 C49 1.390 . S
C485 C279 1.429 1_455 S
C509 C332 1.390 1_545 S
C499 C117 1.395 . S
C523 C205 1.397 . S
C533 C357 1.396 . S
C557 C318 1.401 . S
C547 C233 1.399 . S
C571 C57 1.413 . S
C581 C371 1.421 . S
C605 C286 1.406 1_655 S
C595 C108 1.416 . S
C629 C325 1.409 1_565 S
C619 C196 1.393 . S
C653 C364 1.406 . S
C643 C20 1.443 . S
C667 C145 1.400 . S
C677 C265 1.427 1_655 S
