# Generated by pormake.
# Topology pth, (4,4)-cn, num edge types: 1
# Building blocks:
#     Node 0, Type 0, BuildingBlock: CEKHIL_clean_sbu_0, # of connection points: 4
#     Node 1, Type 0, BuildingBlock: CEKHIL_clean_sbu_0, # of connection points: 4
#     Node 2, Type 0, BuildingBlock: CEKHIL_clean_sbu_0, # of connection points: 4
#     Node 3, Type 1, BuildingBlock: MUDLON_clean_linker_0, # of connection points: 4
#     Node 4, Type 1, BuildingBlock: MUDLON_clean_linker_0, # of connection points: 4
#     Node 5, Type 1, BuildingBlock: MUDLON_clean_linker_0, # of connection points: 4
#     Edge 6, Type (0, 1), BuildingBlock: OJICUG_clean_linker_0, # of connection points: 2
#     Edge 7, Type (0, 1), BuildingBlock: OJICUG_clean_linker_0, # of connection points: 2
#     Edge 8, Type (0, 1), BuildingBlock: OJICUG_clean_linker_0, # of connection points: 2
#     Edge 9, Type (0, 1), BuildingBlock: OJICUG_clean_linker_0, # of connection points: 2
#     Edge 10, Type (0, 1), BuildingBlock: OJICUG_clean_linker_0, # of connection points: 2
#     Edge 11, Type (0, 1), BuildingBlock: OJICUG_clean_linker_0, # of connection points: 2
#     Edge 12, Type (0, 1), BuildingBlock: OJICUG_clean_linker_0, # of connection points: 2
#     Edge 13, Type (0, 1), BuildingBlock: OJICUG_clean_linker_0, # of connection points: 2
#     Edge 14, Type (0, 1), BuildingBlock: OJICUG_clean_linker_0, # of connection points: 2
#     Edge 15, Type (0, 1), BuildingBlock: OJICUG_clean_linker_0, # of connection points: 2
#     Edge 16, Type (0, 1), BuildingBlock: OJICUG_clean_linker_0, # of connection points: 2
#     Edge 17, Type (0, 1), BuildingBlock: OJICUG_clean_linker_0, # of connection points: 2
# Relax obj value: 0.037
# Max RMSD: 0.091
# Mean RMSD: 0.088
data_MOF--net-pth--node1-CEKHIL_clean_sbu_0--node2-MUDLON_clean_linker_0--edge1-OJICUG_clean_linker_0
_symmetry_space_group_name_H-M    P1
_symmetry_Int_Tables_number       1
_symmetry_cell_setting            triclinic
loop_
_symmetry_equiv_pos_as_xyz
'x, y, z'
_cell_length_a     26.58098
_cell_length_b     26.689746
_cell_length_c     54.831459
_cell_angle_alpha  90.962038
_cell_angle_beta   89.987449
_cell_angle_gamma 120.31769
loop_
_atom_site_label
_atom_site_type_symbol
_atom_site_fract_x
_atom_site_fract_y
_atom_site_fract_z
_atom_type_partial_charge
Co0 Co 0.99999 0.02376 0.05322 0.0
O1 O 0.96372 0.96946 0.07884 0.0
O2 O 0.03168 0.97196 0.0548 0.0
C3 C 0.01702 0.10167 0.07642 0.0
O4 O 0.04903 0.07621 0.02564 0.0
Co5 Co 0.94217 0.0917 0.03509 0.0
O6 O 0.01363 0.13396 0.01538 0.0
C7 C 0.89429 0.97034 0.01888 0.0
C8 C 0.99759 0.94926 0.07344 0.0
C9 C 0.05106 0.11774 0.0132 0.0
O10 O 0.93762 0.96976 0.02911 0.0
O11 O 0.88525 0.01296 0.02114 0.0
O12 O 0.05288 0.08216 0.0767 0.0
O13 O 0.96988 0.07115 0.0637 0.0
Co14 Co 0.9981 0.00929 0.36628 0.0
O15 O 0.96294 0.0359 0.343 0.0
O16 O 0.0403 0.09342 0.36583 0.0
C17 C 0.99924 0.94221 0.34091 0.0
O18 O 0.0477 0.99817 0.39168 0.0
Co19 Co 0.93324 0.88368 0.38444 0.0
O20 O 0.00923 0.90344 0.39937 0.0
C21 C 0.9006 0.96742 0.40345 0.0
C22 C 0.00359 0.08817 0.34888 0.0
C23 C 0.04971 0.95614 0.40197 0.0
O24 O 0.94446 0.00853 0.39245 0.0
O25 O 0.88591 0.91391 0.401 0.0
O26 O 0.04032 0.99624 0.34035 0.0
O27 O 0.95675 0.93088 0.35555 0.0
Co28 Co 0.00973 0.03026 0.7008 0.0
O29 O 0.07181 0.06717 0.67786 0.0
O30 O 0.05179 0.98817 0.69809 0.0
C31 C 0.94116 0.03088 0.67659 0.0
O32 O 0.94774 0.98019 0.7256 0.0
Co33 Co 0.95386 0.09976 0.72097 0.0
O34 O 0.89721 0.02439 0.73542 0.0
C35 C 0.06961 0.12774 0.73875 0.0
C36 C 0.08376 0.02674 0.6821 0.0
C37 C 0.90564 0.98149 0.73674 0.0
O38 O 0.06329 0.08179 0.72786 0.0
O39 O 0.03362 0.14591 0.73629 0.0
O40 O 0.95366 0.9899 0.67441 0.0
O41 O 0.97377 0.07248 0.69173 0.0
H42 H 0.88637 0.69198 0.22221 0.0
N43 N 0.9709 0.68113 0.20158 0.0
H44 H 0.89329 0.75087 0.25819 0.0
H45 H 0.06743 0.7436 0.23112 0.0
H46 H 0.07427 0.80075 0.26723 0.0
H47 H 0.07225 0.78017 0.18969 0.0
H48 H 0.08543 0.84188 0.1548 0.0
H49 H 0.89944 0.65602 0.16372 0.0
H50 H 0.91298 0.7175 0.1286 0.0
H51 H 0.89742 0.5683 0.2057 0.0
H52 H 0.07989 0.69432 0.19925 0.0
H53 H 0.92041 0.49091 0.20868 0.0
H54 H 0.10422 0.61887 0.20468 0.0
H55 H 0.97482 0.26275 0.22539 0.0
H56 H 0.95653 0.20118 0.26019 0.0
H57 H 0.11175 0.33817 0.29587 0.0
H58 H 0.13208 0.39756 0.25971 0.0
H59 H 0.14152 0.32958 0.2018 0.0
H60 H 0.12815 0.26907 0.16588 0.0
H61 H 0.97234 0.27343 0.14685 0.0
H62 H 0.98379 0.32983 0.18393 0.0
H63 H 0.97753 0.36972 0.23692 0.0
H64 H 0.95495 0.44678 0.2332 0.0
H65 H 0.10707 0.54195 0.18811 0.0
N66 N 0.07267 0.36824 0.21771 0.0
H67 H 0.13203 0.46688 0.19397 0.0
C68 C 0.976 0.71298 0.22388 0.0
C69 C 0.9273 0.71526 0.23214 0.0
C70 C 0.93131 0.74864 0.25279 0.0
C71 C 0.9844 0.78062 0.26563 0.0
C72 C 0.03291 0.77725 0.25762 0.0
C73 C 0.02887 0.74402 0.23695 0.0
C74 C 0.98433 0.71364 0.17943 0.0
C75 C 0.03777 0.76533 0.17619 0.0
C76 C 0.04554 0.80038 0.15617 0.0
C77 C 1.00044 0.78378 0.139 0.0
C78 C 0.94862 0.73052 0.14145 0.0
C79 C 0.94076 0.6957 0.16149 0.0
C80 C 0.98675 0.63701 0.20271 0.0
C81 C 0.94257 0.57921 0.20527 0.0
C82 C 0.95603 0.53514 0.20728 0.0
C83 C 0.01443 0.54814 0.20731 0.0
C84 C 0.05869 0.60647 0.20446 0.0
C85 C 0.04495 0.65023 0.20176 0.0
C86 C 0.05592 0.33434 0.23965 0.0
C87 C 0.00499 0.27955 0.24067 0.0
C88 C 0.99417 0.24451 0.26092 0.0
C89 C 0.033 0.26395 0.28103 0.0
C90 C 0.08168 0.32062 0.28057 0.0
C91 C 0.09315 0.35507 0.26002 0.0
C92 C 0.0644 0.33496 0.19546 0.0
C93 C 0.10465 0.3175 0.18978 0.0
C94 C 0.09709 0.28333 0.16901 0.0
C95 C 0.04943 0.26658 0.15305 0.0
C96 C 0.00923 0.28466 0.15871 0.0
C97 C 0.01613 0.31773 0.17984 0.0
C98 C 0.05748 0.41305 0.21612 0.0
C99 C 0.00671 0.40763 0.22664 0.0
C100 C 0.99327 0.45168 0.22411 0.0
C101 C 0.02907 0.50129 0.21033 0.0
C102 C 0.07908 0.50564 0.19943 0.0
C103 C 0.09332 0.46245 0.20257 0.0
H104 H 0.81882 0.15106 0.56071 0.0
N105 N 0.71864 0.07311 0.54011 0.0
H106 H 0.8658 0.13964 0.59687 0.0
H107 H 0.67195 0.97903 0.56976 0.0
H108 H 0.71864 0.96694 0.60604 0.0
H109 H 0.70714 0.96687 0.52996 0.0
H110 H 0.74723 0.94178 0.49512 0.0
H111 H 0.76791 0.13691 0.50106 0.0
H112 H 0.8056 0.11119 0.46518 0.0
H113 H 0.68845 0.14454 0.56055 0.0
H114 H 0.61647 0.97924 0.52285 0.0
H115 H 0.59193 0.13377 0.5625 0.0
H116 H 0.52041 0.96989 0.523 0.0
H117 H 0.30731 0.12112 0.56103 0.0
H118 H 0.25456 0.1156 0.59819 0.0
H119 H 0.22904 0.94486 0.61132 0.0
H120 H 0.27922 0.95003 0.5732 0.0
H121 H 0.23235 0.93648 0.52863 0.0
H122 H 0.1698 0.9164 0.49276 0.0
H123 H 0.28415 0.09152 0.46842 0.0
H124 H 0.3441 0.11155 0.50511 0.0
H125 H 0.43041 0.13459 0.53882 0.0
H126 H 0.52488 0.14027 0.53823 0.0
H127 H 0.43845 0.95357 0.54492 0.0
N128 N 0.32593 0.04009 0.54172 0.0
H129 H 0.34395 0.9487 0.54363 0.0
C130 C 0.74233 0.06601 0.56255 0.0
C131 C 0.79652 0.11111 0.57076 0.0
C132 C 0.82303 0.10456 0.59146 0.0
C133 C 0.79588 0.05238 0.60434 0.0
C134 C 0.74079 0.00747 0.59639 0.0
C135 C 0.71404 0.01432 0.57573 0.0
C136 C 0.73542 0.05434 0.51831 0.0
C137 C 0.72848 0.99864 0.51594 0.0
C138 C 0.751 0.9841 0.49575 0.0
C139 C 0.78026 0.02458 0.47729 0.0
C140 C 0.78457 0.0793 0.47923 0.0
C141 C 0.76259 0.09398 0.49958 0.0
C142 C 0.66017 0.06351 0.54124 0.0
C143 C 0.65174 0.10614 0.55248 0.0
C144 C 0.59647 0.10006 0.55332 0.0
C145 C 0.54804 0.05146 0.54245 0.0
C146 C 0.5563 0.00781 0.5317 0.0
C147 C 0.61165 0.01341 0.53134 0.0
C148 C 0.29757 0.03641 0.56451 0.0
C149 C 0.29058 0.08277 0.57207 0.0
C150 C 0.26083 0.07957 0.59351 0.0
C151 C 0.23788 0.02995 0.60814 0.0
C152 C 0.24561 0.98358 0.60055 0.0
C153 C 0.27484 0.98664 0.57884 0.0
C154 C 0.29236 0.02564 0.51952 0.0
C155 C 0.24384 0.97024 0.51544 0.0
C156 C 0.20844 0.95884 0.49477 0.0
C157 C 0.22144 0.00246 0.4776 0.0
C158 C 0.27178 0.05719 0.48139 0.0
C159 C 0.30654 0.06866 0.50222 0.0
C160 C 0.38064 0.04151 0.54162 0.0
C161 C 0.43217 0.09505 0.5401 0.0
C162 C 0.48614 0.09807 0.54003 0.0
C163 C 0.48986 0.04744 0.54194 0.0
C164 C 0.43764 0.9935 0.54325 0.0
C165 C 0.38348 0.99056 0.54285 0.0
H166 H 0.67884 0.81418 0.89222 0.0
N167 N 0.68015 0.72221 0.87332 0.0
H168 H 0.72702 0.86834 0.92962 0.0
H169 H 0.74245 0.69711 0.90488 0.0
H170 H 0.7883 0.74868 0.94312 0.0
H171 H 0.78927 0.75077 0.85963 0.0
H172 H 0.84089 0.80622 0.82365 0.0
H173 H 0.63437 0.75019 0.83634 0.0
H174 H 0.68398 0.80248 0.79967 0.0
H175 H 0.56713 0.68771 0.8749 0.0
H176 H 0.68757 0.62486 0.87235 0.0
H177 H 0.48521 0.58806 0.87625 0.0
H178 H 0.60642 0.52475 0.87507 0.0
H179 H 0.26261 0.33856 0.89686 0.0
H180 H 0.19723 0.29484 0.93057 0.0
H181 H 0.27291 0.18738 0.9441 0.0
H182 H 0.34221 0.23571 0.91118 0.0
H183 H 0.33615 0.22676 0.85228 0.0
H184 H 0.27848 0.18631 0.815 0.0
H185 H 0.22109 0.31176 0.82111 0.0
H186 H 0.28403 0.35531 0.85665 0.0
H187 H 0.3561 0.41139 0.90398 0.0
H188 H 0.4381 0.50875 0.90211 0.0
H189 H 0.52638 0.44894 0.8539 0.0
N190 N 0.34493 0.31294 0.88032 0.0
H191 H 0.44435 0.3499 0.85675 0.0
C192 C 0.70691 0.75172 0.89594 0.0
C193 C 0.7026 0.79979 0.90337 0.0
C194 C 0.72976 0.83025 0.92491 0.0
C195 C 0.76139 0.81279 0.93968 0.0
C196 C 0.76499 0.76393 0.93219 0.0
C197 C 0.73836 0.73397 0.91043 0.0
C198 C 0.70833 0.74722 0.85071 0.0
C199 C 0.76611 0.76158 0.84643 0.0
C200 C 0.79535 0.79291 0.82574 0.0
C201 C 0.76698 0.80976 0.80883 0.0
C202 C 0.70782 0.79175 0.81254 0.0
C203 C 0.67909 0.76134 0.83337 0.0
C204 C 0.63296 0.66324 0.87367 0.0
C205 C 0.57563 0.65207 0.87479 0.0
C206 C 0.52903 0.59509 0.8758 0.0
C207 C 0.53894 0.54799 0.87602 0.0
C208 C 0.59686 0.55964 0.87468 0.0
C209 C 0.64342 0.61678 0.87335 0.0
C210 C 0.30865 0.29144 0.90167 0.0
C211 C 0.26653 0.30681 0.90735 0.0
C212 C 0.22806 0.2807 0.92656 0.0
C213 C 0.2287 0.23656 0.94004 0.0
C214 C 0.27131 0.22163 0.93449 0.0
C215 C 0.31094 0.24906 0.91559 0.0
C216 C 0.31318 0.29286 0.85756 0.0
C217 C 0.3116 0.24577 0.84525 0.0
C218 C 0.27789 0.22232 0.82407 0.0
C219 C 0.24354 0.24456 0.81505 0.0
C220 C 0.2469 0.29329 0.82713 0.0
C221 C 0.2821 0.31776 0.8479 0.0
C222 C 0.39336 0.37214 0.88041 0.0
C223 C 0.39251 0.41818 0.89299 0.0
C224 C 0.43992 0.47478 0.89178 0.0
C225 C 0.48908 0.48723 0.87772 0.0
C226 C 0.48986 0.44118 0.86522 0.0
C227 C 0.44277 0.38448 0.86669 0.0
C228 C 0.08121 0.19155 0.10069 0.0
C229 C 0.025 0.14881 0.09325 0.0
H230 H 0.13319 0.26406 0.12432 0.0
C231 C 0.97668 0.14791 0.10401 0.0
H232 H 0.11919 0.19339 0.09248 0.0
C233 C 0.98446 0.18695 0.12299 0.0
C234 C 0.04085 0.22863 0.13123 0.0
H235 H 0.93281 0.11494 0.09873 0.0
H236 H 0.94608 0.18249 0.13186 0.0
C237 C 0.08909 0.23157 0.11918 0.0
C238 C 0.89157 0.04008 0.42988 0.0
C239 C 0.86751 0.98291 0.42079 0.0
H240 H 0.884 0.09772 0.45511 0.0
C241 C 0.81287 0.94018 0.42938 0.0
H242 H 0.93374 0.07404 0.4238 0.0
C243 C 0.78368 0.95401 0.44708 0.0
C244 C 0.8087 0.01077 0.45687 0.0
H245 H 0.79278 0.89581 0.42259 0.0
H246 H 0.74163 0.91997 0.4532 0.0
C247 C 0.86275 0.05376 0.4478 0.0
C248 C 0.82104 0.93504 0.76512 0.0
C249 C 0.86728 0.93364 0.75327 0.0
H250 H 0.75471 0.89868 0.79196 0.0
C251 C 0.87828 0.88871 0.75879 0.0
H252 H 0.81103 0.96883 0.76146 0.0
C253 C 0.84495 0.84741 0.77632 0.0
C254 C 0.79989 0.85013 0.78869 0.0
H255 H 0.91347 0.8862 0.75002 0.0
H256 H 0.85487 0.81372 0.78032 0.0
C257 C 0.78813 0.89419 0.78259 0.0
C258 C 0.97756 0.90023 0.11326 0.0
C259 C 0.99973 0.90637 0.08952 0.0
H260 H 0.9616 0.85716 0.14737 0.0
C261 C 0.02396 0.87239 0.0821 0.0
H262 H 0.95937 0.92628 0.11972 0.0
C263 C 0.02486 0.83224 0.09814 0.0
C264 C 0.00228 0.82646 0.12176 0.0
H265 H 0.04139 0.87631 0.06393 0.0
H266 H 0.04276 0.80563 0.09212 0.0
C267 C 0.97903 0.86094 0.12919 0.0
C268 C 0.13092 0.0253 0.42994 0.0
C269 C 0.09806 0.96959 0.41929 0.0
H270 H 0.19391 0.07894 0.45697 0.0
C271 C 0.1088 0.9257 0.42684 0.0
H272 H 0.12349 0.06002 0.42472 0.0
C273 C 0.1501 0.93678 0.44511 0.0
C274 C 0.18124 0.99185 0.45656 0.0
H275 H 0.08464 0.8824 0.41886 0.0
H276 H 0.15711 0.90185 0.4504 0.0
C277 C 0.17164 0.03618 0.44844 0.0
C278 C 0.14443 0.21881 0.76018 0.0
C279 C 0.11801 0.15856 0.75648 0.0
H280 H 0.20678 0.29372 0.78041 0.0
C281 C 0.13537 0.12722 0.77109 0.0
H282 H 0.13213 0.24406 0.749 0.0
C283 C 0.17643 0.15514 0.7898 0.0
C284 C 0.20254 0.21553 0.79396 0.0
H285 H 0.11516 0.08057 0.76882 0.0
H286 H 0.18587 0.12863 0.80151 0.0
C287 C 0.18684 0.24711 0.77843 0.0
C288 C 0.86461 0.98751 0.64389 0.0
C289 C 0.8982 0.0335 0.66035 0.0
H290 H 0.80589 0.95742 0.61331 0.0
C291 C 0.89366 0.08366 0.65974 0.0
H292 H 0.86707 0.94821 0.64396 0.0
C293 C 0.85859 0.08893 0.64215 0.0
C294 C 0.82705 0.04399 0.62494 0.0
H295 H 0.91881 0.11972 0.67226 0.0
H296 H 0.85713 0.12874 0.64167 0.0
C297 C 0.82929 0.99263 0.62641 0.0
C298 C 0.80071 0.91257 0.99551 0.0
C299 C 0.85662 0.92293 1.00146 0.0
H300 H 0.72596 0.8682 0.97216 0.0
C301 C 0.87869 0.89244 0.98848 0.0
H302 H 0.78223 0.93494 0.00534 0.0
C303 C 0.84709 0.85528 0.96894 0.0
C304 C 0.79224 0.84703 0.96217 0.0
H305 H 0.92186 0.89984 0.99248 0.0
H306 H 0.86707 0.83531 0.95847 0.0
C307 C 0.76871 0.8747 0.97628 0.0
C308 C 0.94867 0.84241 0.32172 0.0
C309 C 0.9976 0.89857 0.32342 0.0
H310 H 0.9063 0.76074 0.30232 0.0
C311 C 0.04352 0.91426 0.30699 0.0
H312 H 0.91264 0.829 0.33417 0.0
C313 C 0.03977 0.87544 0.28869 0.0
C314 C 0.99001 0.81988 0.28639 0.0
H315 H 0.08182 0.95724 0.30779 0.0
H316 H 0.07507 0.88985 0.2758 0.0
C317 C 0.94487 0.80348 0.30337 0.0
C318 C 0.11727 0.97235 0.65556 0.0
C319 C 0.12901 0.02394 0.66763 0.0
H320 H 0.14149 0.93376 0.62676 0.0
C321 C 0.18034 0.07566 0.66229 0.0
H322 H 0.07744 0.93207 0.65917 0.0
C323 C 0.21775 0.07664 0.6442 0.0
C324 C 0.20375 0.0262 0.63042 0.0
H325 H 0.19037 0.11598 0.67147 0.0
H326 H 0.25653 0.11763 0.64039 0.0
C327 C 0.15407 0.97351 0.63695 0.0
C328 C 0.15246 0.15355 0.9975 0.0
C329 C 0.09679 0.14666 0.99463 0.0
H330 H 0.23856 0.18915 0.98312 0.0
C331 C 0.08456 0.16817 0.97365 0.0
H332 H 0.16308 0.13748 0.01355 0.0
C333 C 0.12691 0.19616 0.95594 0.0
C334 C 0.18342 0.20493 0.95894 0.0
H335 H 0.04171 0.1626 0.97069 0.0
H336 H 0.11477 0.21034 0.93974 0.0
C337 C 0.19556 0.18293 0.97995 0.0
C338 C 0.06616 0.1851 0.33026 0.0
C339 C 0.01049 0.13815 0.33499 0.0
H340 H 0.11735 0.26023 0.30904 0.0
C341 C 0.96184 0.13601 0.32392 0.0
H342 H 0.10446 0.18745 0.33839 0.0
C343 C 0.96883 0.17876 0.30762 0.0
C344 C 0.02487 0.22378 0.30137 0.0
H345 H 0.91832 0.10045 0.32745 0.0
H346 H 0.93016 0.17544 0.29948 0.0
C347 C 0.07337 0.22707 0.31344 0.0
loop_
_geom_bond_atom_site_label_1
_geom_bond_atom_site_label_2
_geom_bond_distance
_geom_bond_site_symmetry_2
_ccdc_geom_bond_type
Co0 O1 2.216 1_445 S
Co0 O2 2.091 1_545 S
Co0 O4 2.004 . S
Co0 O10 2.021 1_445 S
Co0 O12 2.137 . S
Co0 O13 2.244 1_455 S
O1 Co0 2.216 1_665 S
O1 C8 1.247 1_655 S
O2 Co0 2.091 1_565 S
O2 C8 1.261 . S
C3 O12 1.247 . S
C3 O13 1.272 1_455 S
O4 Co0 2.004 . S
O4 C9 1.259 . S
Co5 O6 2.065 1_655 S
Co5 O11 2.052 1_545 S
Co5 O13 2.135 . S
O6 Co5 2.065 1_455 S
O6 C9 1.237 . S
C7 O10 1.238 . S
C7 O11 1.241 . S
C8 O1 1.247 1_455 S
C8 O2 1.261 . S
C9 O4 1.259 . S
C9 O6 1.237 . S
O10 Co0 2.021 1_665 S
O10 C7 1.238 . S
O11 Co5 2.052 1_565 S
O11 C7 1.241 . S
O12 Co0 2.137 . S
O12 C3 1.247 . S
O13 Co0 2.244 1_655 S
O13 C3 1.272 1_655 S
O13 Co5 2.135 . S
Co14 O15 2.216 1_455 S
Co14 O16 2.091 . S
Co14 O18 2.004 . S
Co14 O24 2.021 1_455 S
Co14 O26 2.137 . S
Co14 O27 2.244 1_445 S
O15 Co14 2.216 1_655 S
O15 C22 1.247 1_655 S
O16 Co14 2.091 . S
O16 C22 1.261 . S
C17 O26 1.247 1_565 S
C17 O27 1.272 1_455 S
O18 Co14 2.004 . S
O18 C23 1.259 . S
Co19 O20 2.061 1_655 S
Co19 O25 2.052 . S
Co19 O27 2.135 . S
O20 Co19 2.061 1_455 S
O20 C23 1.235 1_565 S
C21 O24 1.238 . S
C21 O25 1.241 1_545 S
C22 O15 1.247 1_455 S
C22 O16 1.261 . S
C23 O18 1.259 . S
C23 O20 1.235 1_545 S
O24 Co14 2.021 1_655 S
O24 C21 1.238 . S
O25 Co19 2.052 . S
O25 C21 1.241 1_565 S
O26 Co14 2.137 . S
O26 C17 1.247 1_545 S
O27 Co14 2.244 1_665 S
O27 C17 1.272 1_655 S
O27 Co19 2.135 . S
Co28 O29 2.216 . S
Co28 O30 2.091 1_545 S
Co28 O32 2.004 1_445 S
Co28 O38 2.021 . S
Co28 O40 2.137 1_445 S
Co28 O41 2.244 1_455 S
O29 Co28 2.216 . S
O29 C36 1.247 . S
O30 Co28 2.091 1_565 S
O30 C36 1.261 1_565 S
C31 O40 1.247 1_545 S
C31 O41 1.272 . S
O32 Co28 2.004 1_665 S
O32 C37 1.259 . S
Co33 O34 2.061 1_545 S
Co33 O39 2.052 1_655 S
Co33 O41 2.135 . S
O34 Co33 2.061 1_565 S
O34 C37 1.235 . S
C35 O38 1.238 . S
C35 O39 1.241 . S
C36 O29 1.247 . S
C36 O30 1.261 1_545 S
C37 O32 1.259 . S
C37 O34 1.235 . S
O38 Co28 2.021 . S
O38 C35 1.238 . S
O39 Co33 2.052 1_455 S
O39 C35 1.241 . S
O40 Co28 2.137 1_665 S
O40 C31 1.247 1_565 S
O41 Co28 2.244 1_655 S
O41 C31 1.272 . S
O41 Co33 2.135 . S
H42 C69 0.929 . S
N43 C68 1.433 . S
N43 C74 1.435 . S
N43 C80 1.423 . S
H44 C70 0.930 . S
H45 C73 0.931 . S
H46 C72 0.929 . S
H47 C75 0.930 . S
H48 C76 0.932 . S
H49 C79 0.929 . S
H50 C78 0.931 . S
H51 C81 0.929 . S
H52 C85 0.932 . S
H53 C82 0.931 . S
H54 C84 0.929 1_455 S
H55 C87 0.929 . S
H56 C88 0.930 . S
H57 C90 0.929 . S
H58 C91 0.931 . S
H59 C93 0.930 . S
H60 C94 0.932 . S
H61 C96 0.931 . S
H62 C97 0.929 . S
H63 C99 0.929 . S
H64 C100 0.931 . S
H65 C102 0.929 1_455 S
N66 C86 1.433 . S
N66 C92 1.435 . S
N66 C98 1.423 . S
H67 C103 0.932 . S
C68 N43 1.433 . S
C68 C69 1.363 . S
C68 C73 1.370 1_655 S
C69 H42 0.929 . S
C69 C68 1.363 . S
C69 C70 1.385 . S
C70 H44 0.930 . S
C70 C69 1.385 . S
C70 C71 1.357 1_655 S
C71 C70 1.357 1_455 S
C71 C72 1.406 . S
C72 H46 0.929 . S
C72 C71 1.406 . S
C72 C73 1.391 . S
C73 H45 0.931 . S
C73 C68 1.370 1_455 S
C73 C72 1.391 . S
C74 N43 1.435 . S
C74 C75 1.358 1_655 S
C74 C79 1.371 . S
C75 H47 0.930 . S
C75 C74 1.358 1_455 S
C75 C76 1.405 . S
C76 H48 0.932 . S
C76 C75 1.405 . S
C76 C77 1.383 . S
C77 C76 1.383 . S
C77 C78 1.393 1_455 S
C78 H50 0.931 . S
C78 C77 1.393 1_655 S
C78 C79 1.382 . S
C79 H49 0.929 . S
C79 C74 1.371 . S
C79 C78 1.382 . S
C80 N43 1.423 . S
C80 C81 1.362 . S
C80 C85 1.388 1_655 S
C81 H51 0.929 . S
C81 C80 1.362 . S
C81 C82 1.376 . S
C82 H53 0.931 . S
C82 C81 1.376 . S
C82 C83 1.396 . S
C83 C82 1.396 . S
C83 C84 1.348 . S
C83 C101 1.472 . S
C84 H54 0.929 1_655 S
C84 C83 1.348 . S
C84 C85 1.443 1_655 S
C85 H52 0.932 . S
C85 C80 1.388 1_455 S
C85 C84 1.443 1_455 S
C86 N66 1.433 . S
C86 C87 1.363 . S
C86 C91 1.370 1_655 S
C87 H55 0.929 . S
C87 C86 1.363 . S
C87 C88 1.385 . S
C88 H56 0.930 . S
C88 C87 1.385 . S
C88 C89 1.357 1_655 S
C89 C88 1.357 1_455 S
C89 C90 1.406 . S
C90 H57 0.929 . S
C90 C89 1.406 . S
C90 C91 1.391 . S
C91 H58 0.931 . S
C91 C86 1.370 1_455 S
C91 C90 1.391 . S
C92 N66 1.435 . S
C92 C93 1.358 1_655 S
C92 C97 1.371 . S
C93 H59 0.930 . S
C93 C92 1.358 1_455 S
C93 C94 1.405 . S
C94 H60 0.932 . S
C94 C93 1.405 . S
C94 C95 1.383 . S
C95 C94 1.383 . S
C95 C96 1.393 1_455 S
C96 H61 0.931 . S
C96 C95 1.393 1_655 S
C96 C97 1.382 . S
C97 H62 0.929 . S
C97 C92 1.371 . S
C97 C96 1.382 . S
C98 N66 1.423 . S
C98 C99 1.362 . S
C98 C103 1.388 1_655 S
C99 H63 0.929 . S
C99 C98 1.362 . S
C99 C100 1.376 . S
C100 H64 0.931 . S
C100 C99 1.376 . S
C100 C101 1.396 . S
C101 C83 1.472 . S
C101 C100 1.396 . S
C101 C102 1.348 . S
C102 H65 0.929 1_655 S
C102 C101 1.348 . S
C102 C103 1.443 1_655 S
C103 H67 0.932 . S
C103 C98 1.388 1_455 S
C103 C102 1.443 1_455 S
H104 C131 0.929 . S
N105 C130 1.433 . S
N105 C136 1.435 . S
N105 C142 1.423 . S
H106 C132 0.930 . S
H107 C135 0.930 . S
H108 C134 0.929 . S
H109 C137 0.930 . S
H110 C138 0.932 . S
H111 C141 0.929 . S
H112 C140 0.931 . S
H113 C143 0.929 . S
H114 C147 0.932 1_565 S
H115 C144 0.931 . S
H116 C146 0.929 . S
H117 C149 0.929 . S
H118 C150 0.930 . S
H119 C152 0.929 . S
H120 C153 0.941 . S
H121 C155 0.930 . S
H122 C156 0.932 . S
H123 C158 0.931 . S
H124 C159 0.929 . S
H125 C161 0.929 . S
H126 C162 0.931 . S
H127 C164 0.929 . S
N128 C148 1.433 . S
N128 C154 1.435 . S
N128 C160 1.423 . S
H129 C165 0.932 1_565 S
C130 N105 1.433 . S
C130 C131 1.363 . S
C130 C135 1.367 1_545 S
C131 H104 0.929 . S
C131 C130 1.363 . S
C131 C132 1.385 . S
C132 H106 0.930 . S
C132 C131 1.385 . S
C132 C133 1.357 . S
C133 C132 1.357 . S
C133 C134 1.406 1_545 S
C134 H108 0.929 . S
C134 C133 1.406 1_565 S
C134 C135 1.396 . S
C135 H107 0.930 . S
C135 C130 1.367 1_565 S
C135 C134 1.396 . S
C136 N105 1.435 . S
C136 C137 1.358 1_545 S
C136 C141 1.371 . S
C137 H109 0.930 . S
C137 C136 1.358 1_565 S
C137 C138 1.405 . S
C138 H110 0.932 . S
C138 C137 1.405 . S
C138 C139 1.383 1_565 S
C139 C138 1.383 1_545 S
C139 C140 1.393 . S
C140 H112 0.931 . S
C140 C139 1.393 . S
C140 C141 1.382 . S
C141 H111 0.929 . S
C141 C136 1.371 . S
C141 C140 1.382 . S
C142 N105 1.423 . S
C142 C143 1.362 . S
C142 C147 1.388 . S
C143 H113 0.929 . S
C143 C142 1.362 . S
C143 C144 1.376 . S
C144 H115 0.931 . S
C144 C143 1.376 . S
C144 C145 1.396 . S
C145 C144 1.396 . S
C145 C146 1.348 . S
C145 C163 1.472 . S
C146 H116 0.929 . S
C146 C145 1.348 . S
C146 C147 1.443 . S
C147 H114 0.932 1_545 S
C147 C142 1.388 . S
C147 C146 1.443 . S
C148 N128 1.433 . S
C148 C149 1.363 . S
C148 C153 1.360 1_545 S
C149 H117 0.929 . S
C149 C148 1.363 . S
C149 C150 1.385 . S
C150 H118 0.930 . S
C150 C149 1.385 . S
C150 C151 1.357 . S
C151 C150 1.357 . S
C151 C152 1.406 1_545 S
C152 H119 0.929 . S
C152 C151 1.406 1_565 S
C152 C153 1.391 . S
C153 H120 0.941 . S
C153 C148 1.360 1_565 S
C153 C152 1.391 . S
C154 N128 1.435 . S
C154 C155 1.358 1_545 S
C154 C159 1.371 . S
C155 H121 0.930 . S
C155 C154 1.358 1_565 S
C155 C156 1.405 . S
C156 H122 0.932 . S
C156 C155 1.405 . S
C156 C157 1.383 1_565 S
C157 C156 1.383 1_545 S
C157 C158 1.393 . S
C158 H123 0.931 . S
C158 C157 1.393 . S
C158 C159 1.382 . S
C159 H124 0.929 . S
C159 C154 1.371 . S
C159 C158 1.382 . S
C160 N128 1.423 . S
C160 C161 1.362 . S
C160 C165 1.388 . S
C161 H125 0.929 . S
C161 C160 1.362 . S
C161 C162 1.376 . S
C162 H126 0.931 . S
C162 C161 1.376 . S
C162 C163 1.396 . S
C163 C145 1.472 . S
C163 C162 1.396 . S
C163 C164 1.348 . S
C164 H127 0.929 . S
C164 C163 1.348 . S
C164 C165 1.443 . S
C165 H129 0.932 1_545 S
C165 C160 1.388 . S
C165 C164 1.443 . S
H166 C193 0.929 . S
N167 C192 1.433 . S
N167 C198 1.435 . S
N167 C204 1.423 . S
H168 C194 0.930 . S
H169 C197 0.931 . S
H170 C196 0.929 . S
H171 C199 0.930 . S
H172 C200 0.932 . S
H173 C203 0.929 . S
H174 C202 0.931 . S
H175 C205 0.929 . S
H176 C209 0.932 . S
H177 C206 0.931 . S
H178 C208 0.929 . S
H179 C211 0.929 . S
H180 C212 0.930 . S
H181 C214 0.929 . S
H182 C215 0.931 . S
H183 C217 0.930 . S
H184 C218 0.932 . S
H185 C220 0.931 . S
H186 C221 0.929 . S
H187 C223 0.929 . S
H188 C224 0.931 . S
H189 C226 0.929 . S
N190 C210 1.433 . S
N190 C216 1.435 . S
N190 C222 1.423 . S
H191 C227 0.932 . S
C192 N167 1.433 . S
C192 C193 1.363 . S
C192 C197 1.370 . S
C193 H166 0.929 . S
C193 C192 1.363 . S
C193 C194 1.385 . S
C194 H168 0.930 . S
C194 C193 1.385 . S
C194 C195 1.357 . S
C195 C194 1.357 . S
C195 C196 1.406 . S
C196 H170 0.929 . S
C196 C195 1.406 . S
C196 C197 1.391 . S
C197 H169 0.931 . S
C197 C192 1.370 . S
C197 C196 1.391 . S
C198 N167 1.435 . S
C198 C199 1.358 . S
C198 C203 1.371 . S
C199 H171 0.930 . S
C199 C198 1.358 . S
C199 C200 1.405 . S
C200 H172 0.932 . S
C200 C199 1.405 . S
C200 C201 1.383 . S
C201 C200 1.383 . S
C201 C202 1.393 . S
C202 H174 0.931 . S
C202 C201 1.393 . S
C202 C203 1.382 . S
C203 H173 0.929 . S
C203 C198 1.371 . S
C203 C202 1.382 . S
C204 N167 1.423 . S
C204 C205 1.362 . S
C204 C209 1.388 . S
C205 H175 0.929 . S
C205 C204 1.362 . S
C205 C206 1.376 . S
C206 H177 0.931 . S
C206 C205 1.376 . S
C206 C207 1.396 . S
C207 C206 1.396 . S
C207 C208 1.348 . S
C207 C225 1.472 . S
C208 H178 0.929 . S
C208 C207 1.348 . S
C208 C209 1.443 . S
C209 H176 0.932 . S
C209 C204 1.388 . S
C209 C208 1.443 . S
C210 N190 1.433 . S
C210 C211 1.363 . S
C210 C215 1.370 . S
C211 H179 0.929 . S
C211 C210 1.363 . S
C211 C212 1.385 . S
C212 H180 0.930 . S
C212 C211 1.385 . S
C212 C213 1.357 . S
C213 C212 1.357 . S
C213 C214 1.406 . S
C214 H181 0.929 . S
C214 C213 1.406 . S
C214 C215 1.391 . S
C215 H182 0.931 . S
C215 C210 1.370 . S
C215 C214 1.391 . S
C216 N190 1.435 . S
C216 C217 1.358 . S
C216 C221 1.371 . S
C217 H183 0.930 . S
C217 C216 1.358 . S
C217 C218 1.405 . S
C218 H184 0.932 . S
C218 C217 1.405 . S
C218 C219 1.383 . S
C219 C218 1.383 . S
C219 C220 1.393 . S
C220 H185 0.931 . S
C220 C219 1.393 . S
C220 C221 1.382 . S
C221 H186 0.929 . S
C221 C216 1.371 . S
C221 C220 1.382 . S
C222 N190 1.423 . S
C222 C223 1.362 . S
C222 C227 1.388 . S
C223 H187 0.929 . S
C223 C222 1.362 . S
C223 C224 1.376 . S
C224 H188 0.931 . S
C224 C223 1.376 . S
C224 C225 1.396 . S
C225 C207 1.472 . S
C225 C224 1.396 . S
C225 C226 1.348 . S
C226 H189 0.929 . S
C226 C225 1.348 . S
C226 C227 1.443 . S
C227 H191 0.932 . S
C227 C222 1.388 . S
C227 C226 1.443 . S
C228 C229 1.387 . S
C228 H232 0.950 . S
C228 C237 1.390 . S
C229 C228 1.387 . S
C229 C231 1.387 1_455 S
H230 C237 0.950 . S
C231 C229 1.387 1_655 S
C231 C233 1.390 . S
C231 H235 0.950 . S
H232 C228 0.950 . S
C233 C231 1.390 . S
C233 C234 1.387 1_655 S
C233 H236 0.950 . S
C234 C233 1.387 1_455 S
C234 C237 1.387 . S
H235 C231 0.950 . S
H236 C233 0.950 . S
C237 C228 1.390 . S
C237 H230 0.950 . S
C237 C234 1.387 . S
C238 C239 1.387 . S
C238 H242 0.950 . S
C238 C247 1.390 . S
C239 C238 1.387 . S
C239 C241 1.387 1_545 S
H240 C247 0.950 . S
C241 C239 1.387 1_565 S
C241 C243 1.390 . S
C241 H245 0.950 . S
H242 C238 0.950 . S
C243 C241 1.390 . S
C243 C244 1.387 1_565 S
C243 H246 0.950 . S
C244 C243 1.387 1_545 S
C244 C247 1.387 . S
H245 C241 0.950 . S
H246 C243 0.950 . S
C247 C238 1.390 . S
C247 H240 0.950 . S
C247 C244 1.387 . S
C248 C249 1.387 . S
C248 H252 0.950 . S
C248 C257 1.390 . S
C249 C248 1.387 . S
C249 C251 1.387 . S
H250 C257 0.950 . S
C251 C249 1.387 . S
C251 C253 1.390 . S
C251 H255 0.950 . S
H252 C248 0.950 . S
C253 C251 1.390 . S
C253 C254 1.387 . S
C253 H256 0.950 . S
C254 C253 1.387 . S
C254 C257 1.387 . S
H255 C251 0.950 . S
H256 C253 0.950 . S
C257 C248 1.390 . S
C257 H250 0.950 . S
C257 C254 1.387 . S
C258 C259 1.387 1_655 S
C258 H262 0.950 . S
C258 C267 1.390 . S
C259 C258 1.387 1_455 S
C259 C261 1.387 . S
H260 C267 0.950 . S
C261 C259 1.387 . S
C261 C263 1.390 . S
C261 H265 0.950 . S
H262 C258 0.950 . S
C263 C261 1.390 . S
C263 C264 1.387 . S
C263 H266 0.950 . S
C264 C263 1.387 . S
C264 C267 1.387 1_455 S
H265 C261 0.950 . S
H266 C263 0.950 . S
C267 C258 1.390 . S
C267 H260 0.950 . S
C267 C264 1.387 1_655 S
C268 C269 1.387 . S
C268 H272 0.950 . S
C268 C277 1.390 . S
C269 C268 1.387 . S
C269 C271 1.387 1_545 S
H270 C277 0.950 . S
C271 C269 1.387 1_565 S
C271 C273 1.390 . S
C271 H275 0.950 . S
H272 C268 0.950 . S
C273 C271 1.390 . S
C273 C274 1.387 1_565 S
C273 H276 0.950 . S
C274 C273 1.387 1_545 S
C274 C277 1.387 . S
H275 C271 0.950 . S
H276 C273 0.950 . S
C277 C268 1.390 . S
C277 H270 0.950 . S
C277 C274 1.387 . S
C278 C279 1.387 . S
C278 H282 0.950 . S
C278 C287 1.390 . S
C279 C278 1.387 . S
C279 C281 1.387 . S
H280 C287 0.950 . S
C281 C279 1.387 . S
C281 C283 1.390 . S
C281 H285 0.950 . S
H282 C278 0.950 . S
C283 C281 1.390 . S
C283 C284 1.387 . S
C283 H286 0.950 . S
C284 C283 1.387 . S
C284 C287 1.387 . S
H285 C281 0.950 . S
H286 C283 0.950 . S
C287 C278 1.390 . S
C287 H280 0.950 . S
C287 C284 1.387 . S
C288 C289 1.387 1_565 S
C288 H292 0.950 . S
C288 C297 1.390 . S
C289 C288 1.387 1_545 S
C289 C291 1.387 . S
H290 C297 0.950 . S
C291 C289 1.387 . S
C291 C293 1.390 . S
C291 H295 0.950 . S
H292 C288 0.950 . S
C293 C291 1.390 . S
C293 C294 1.387 . S
C293 H296 0.950 . S
C294 C293 1.387 . S
C294 C297 1.387 1_545 S
H295 C291 0.950 . S
H296 C293 0.950 . S
C297 C288 1.390 . S
C297 H290 0.950 . S
C297 C294 1.387 1_565 S
C298 C299 1.387 1_554 S
C298 H302 0.950 . S
C298 C307 1.390 1_554 S
C299 C298 1.387 1_556 S
C299 C301 1.387 . S
H300 C307 0.950 . S
C301 C299 1.387 . S
C301 C303 1.390 . S
C301 H305 0.950 . S
H302 C298 0.950 . S
C303 C301 1.390 . S
C303 C304 1.387 . S
C303 H306 0.950 . S
C304 C303 1.387 . S
C304 C307 1.387 . S
H305 C301 0.950 . S
H306 C303 0.950 . S
C307 C298 1.390 1_556 S
C307 H300 0.950 . S
C307 C304 1.387 . S
C308 C309 1.387 1_655 S
C308 H312 0.950 . S
C308 C317 1.390 . S
C309 C308 1.387 1_455 S
C309 C311 1.387 . S
H310 C317 0.950 . S
C311 C309 1.387 . S
C311 C313 1.390 . S
C311 H315 0.950 . S
H312 C308 0.950 . S
C313 C311 1.390 . S
C313 C314 1.387 . S
C313 H316 0.950 . S
C314 C313 1.387 . S
C314 C317 1.387 1_455 S
H315 C311 0.950 . S
H316 C313 0.950 . S
C317 C308 1.390 . S
C317 H310 0.950 . S
C317 C314 1.387 1_655 S
C318 C319 1.387 1_565 S
C318 H322 0.950 . S
C318 C327 1.390 . S
C319 C318 1.387 1_545 S
C319 C321 1.387 . S
H320 C327 0.950 . S
C321 C319 1.387 . S
C321 C323 1.390 . S
C321 H325 0.950 . S
H322 C318 0.950 . S
C323 C321 1.390 . S
C323 C324 1.387 . S
C323 H326 0.950 . S
C324 C323 1.387 . S
C324 C327 1.387 1_545 S
H325 C321 0.950 . S
H326 C323 0.950 . S
C327 C318 1.390 . S
C327 H320 0.950 . S
C327 C324 1.387 1_565 S
C328 C329 1.387 . S
C328 H332 0.950 1_556 S
C328 C337 1.390 . S
C329 C328 1.387 . S
C329 C331 1.387 . S
H330 C337 0.950 . S
C331 C329 1.387 . S
C331 C333 1.390 . S
C331 H335 0.950 . S
H332 C328 0.950 1_554 S
C333 C331 1.390 . S
C333 C334 1.387 . S
C333 H336 0.950 . S
C334 C333 1.387 . S
C334 C337 1.387 . S
H335 C331 0.950 . S
H336 C333 0.950 . S
C337 C328 1.390 . S
C337 H330 0.950 . S
C337 C334 1.387 . S
C338 C339 1.387 . S
C338 H342 0.950 . S
C338 C347 1.390 . S
C339 C338 1.387 . S
C339 C341 1.387 1_455 S
H340 C347 0.950 . S
C341 C339 1.387 1_655 S
C341 C343 1.390 . S
C341 H345 0.950 . S
H342 C338 0.950 . S
C343 C341 1.390 . S
C343 C344 1.387 1_655 S
C343 H346 0.950 . S
C344 C343 1.387 1_455 S
C344 C347 1.387 . S
H345 C341 0.950 . S
H346 C343 0.950 . S
C347 C338 1.390 . S
C347 H340 0.950 . S
C347 C344 1.387 . S
C234 C95 1.450 . S
C229 C3 1.437 . S
C239 C21 1.449 . S
C244 C139 1.490 . S
C249 C37 1.439 . S
C254 C201 1.478 . S
C259 C8 1.453 . S
C264 C77 1.461 . S
C274 C157 1.463 . S
C269 C23 1.438 . S
C279 C35 1.433 . S
C284 C219 1.480 . S
C294 C133 1.582 . S
C289 C31 1.686 . S
C299 C7 1.703 1_556 S
C304 C195 1.618 . S
C314 C71 1.593 . S
C309 C17 1.703 . S
C324 C151 1.576 . S
C319 C36 1.692 . S
C334 C213 1.620 . S
C329 C9 1.691 1_556 S
C339 C22 1.713 . S
C344 C89 1.602 . S
