# Generated by pormake.
# Topology pth, (4,4)-cn, num edge types: 1
# Building blocks:
#     Node 0, Type 0, BuildingBlock: CEKHIL_clean_sbu_0, # of connection points: 4
#     Node 1, Type 0, BuildingBlock: CEKHIL_clean_sbu_0, # of connection points: 4
#     Node 2, Type 0, BuildingBlock: CEKHIL_clean_sbu_0, # of connection points: 4
#     Node 3, Type 1, BuildingBlock: AZAVOO_clean_linker_0, # of connection points: 4
#     Node 4, Type 1, BuildingBlock: AZAVOO_clean_linker_0, # of connection points: 4
#     Node 5, Type 1, BuildingBlock: AZAVOO_clean_linker_0, # of connection points: 4
#     Edge 6, Type (0, 1), BuildingBlock: FUNLAD_clean_linker_1, # of connection points: 2
#     Edge 7, Type (0, 1), BuildingBlock: FUNLAD_clean_linker_1, # of connection points: 2
#     Edge 8, Type (0, 1), BuildingBlock: FUNLAD_clean_linker_1, # of connection points: 2
#     Edge 9, Type (0, 1), BuildingBlock: FUNLAD_clean_linker_1, # of connection points: 2
#     Edge 10, Type (0, 1), BuildingBlock: FUNLAD_clean_linker_1, # of connection points: 2
#     Edge 11, Type (0, 1), BuildingBlock: FUNLAD_clean_linker_1, # of connection points: 2
#     Edge 12, Type (0, 1), BuildingBlock: FUNLAD_clean_linker_1, # of connection points: 2
#     Edge 13, Type (0, 1), BuildingBlock: FUNLAD_clean_linker_1, # of connection points: 2
#     Edge 14, Type (0, 1), BuildingBlock: FUNLAD_clean_linker_1, # of connection points: 2
#     Edge 15, Type (0, 1), BuildingBlock: FUNLAD_clean_linker_1, # of connection points: 2
#     Edge 16, Type (0, 1), BuildingBlock: FUNLAD_clean_linker_1, # of connection points: 2
#     Edge 17, Type (0, 1), BuildingBlock: FUNLAD_clean_linker_1, # of connection points: 2
# Relax obj value: 0.105
# Max RMSD: 0.224
# Mean RMSD: 0.144
data_MOF--net-pth--node1-CEKHIL_clean_sbu_0--node2-AZAVOO_clean_linker_0--edge1-FUNLAD_clean_linker_1
_symmetry_space_group_name_H-M    P1
_symmetry_Int_Tables_number       1
_symmetry_cell_setting            triclinic
loop_
_symmetry_equiv_pos_as_xyz
'x, y, z'
_cell_length_a     26.788314
_cell_length_b     27.134662
_cell_length_c     73.94444
_cell_angle_alpha  93.549962
_cell_angle_beta   88.76771
_cell_angle_gamma 120.31368
loop_
_atom_site_label
_atom_site_type_symbol
_atom_site_fract_x
_atom_site_fract_y
_atom_site_fract_z
_atom_type_partial_charge
Co0 Co 0.077 0.08511 0.10457 0.0
O1 O 0.03248 0.02301 0.1199 0.0
O2 O 0.11015 0.03606 0.10476 0.0
C3 C 0.08164 0.15332 0.12466 0.0
O4 O 0.13537 0.14507 0.08803 0.0
Co5 Co 0.02885 0.15893 0.09122 0.0
O6 O 0.10937 0.21044 0.08376 0.0
C7 C 0.99064 0.04498 0.0732 0.0
C8 C 0.0694 0.00652 0.11607 0.0
C9 C 0.14508 0.19267 0.082 0.0
O10 O 0.02565 0.0389 0.08319 0.0
O11 O 0.98337 0.08821 0.07489 0.0
O12 O 0.11773 0.13493 0.12574 0.0
O13 O 0.04175 0.12771 0.11232 0.0
Co14 Co 0.06282 0.10989 0.42106 0.0
O15 O 0.01775 0.12413 0.40441 0.0
O16 O 0.0992 0.19117 0.41775 0.0
C17 C 0.06118 0.03679 0.40426 0.0
O18 O 0.12185 0.11171 0.43848 0.0
Co19 Co 0.01194 0.99332 0.43895 0.0
O20 O 0.09406 0.02185 0.44534 0.0
C21 C 0.9816 0.07932 0.45323 0.0
C22 C 0.05695 0.17777 0.4065 0.0
C23 C 0.13129 0.07509 0.44564 0.0
O24 O 0.01688 0.11593 0.44225 0.0
O25 O 0.97087 0.0276 0.45312 0.0
O26 O 0.09828 0.08929 0.4008 0.0
O27 O 0.02368 0.03022 0.41651 0.0
Co28 Co 0.0598 0.08938 0.76064 0.0
O29 O 0.11977 0.12515 0.74282 0.0
O30 O 0.10688 0.05414 0.75929 0.0
C31 C 0.98726 0.08233 0.7436 0.0
O32 O 0.00271 0.03835 0.77931 0.0
Co33 Co 0.99118 0.14342 0.77786 0.0
O34 O 0.94235 0.06902 0.78883 0.0
C35 C 0.11286 0.18957 0.78862 0.0
C36 C 0.13628 0.08969 0.74703 0.0
C37 C 0.95879 0.03237 0.78846 0.0
O38 O 0.11282 0.14675 0.78007 0.0
O39 O 0.0701 0.19812 0.78836 0.0
O40 O 0.0033 0.04441 0.74128 0.0
O41 O 0.01734 0.12448 0.75513 0.0
H42 H 0.01037 0.45855 0.15016 0.0
H43 H 0.21728 0.98991 0.27665 0.0
H44 H 0.01273 0.46777 0.24645 0.0
H45 H 0.01207 0.38483 0.23122 0.0
H46 H 0.19236 0.45721 0.24531 0.0
H47 H 0.19278 0.54053 0.26042 0.0
H48 H 0.01181 0.55741 0.22281 0.0
H49 H 0.99536 0.51453 0.19185 0.0
H50 H 0.16804 0.53933 0.1915 0.0
H51 H 0.18397 0.58239 0.22249 0.0
H52 H 0.03481 0.6783 0.23664 0.0
H53 H 0.03721 0.73124 0.21096 0.0
H54 H 0.20587 0.75663 0.19666 0.0
H55 H 0.20223 0.70255 0.22246 0.0
H56 H 0.0463 0.70694 0.27894 0.0
H57 H 0.06125 0.80333 0.28482 0.0
H58 H 0.23442 0.87475 0.26368 0.0
H59 H 0.21909 0.77824 0.25807 0.0
H60 H 0.03755 0.61724 0.30461 0.0
H61 H 0.03999 0.67563 0.33143 0.0
H62 H 0.22129 0.79372 0.32253 0.0
H63 H 0.21858 0.73384 0.29601 0.0
H64 H 0.02612 0.49012 0.2876 0.0
H65 H 0.0268 0.43384 0.31176 0.0
H66 H 0.20515 0.56135 0.32415 0.0
H67 H 0.20378 0.6171 0.29958 0.0
O68 O 0.01785 0.47558 0.16241 0.0
O69 O 0.10942 0.49626 0.16199 0.0
O70 O 0.11967 0.91247 0.28419 0.0
O71 O 0.2102 0.95133 0.27452 0.0
C72 C 0.10785 0.56692 0.2584 0.0
C73 C 0.10816 0.5983 0.24374 0.0
C74 C 0.11627 0.65358 0.24696 0.0
C75 C 0.12303 0.67732 0.26485 0.0
C76 C 0.12224 0.64594 0.2796 0.0
C77 C 0.11484 0.59063 0.27641 0.0
C78 C 0.10298 0.51042 0.25432 0.0
C79 C 0.05162 0.46492 0.24669 0.0
C80 C 0.05158 0.41803 0.23778 0.0
C81 C 0.10291 0.41584 0.23653 0.0
C82 C 0.15254 0.45841 0.24589 0.0
C83 C 0.15272 0.5057 0.25463 0.0
C84 C 0.099 0.57289 0.22486 0.0
C85 C 0.04605 0.55365 0.21599 0.0
C86 C 0.03673 0.52904 0.19834 0.0
C87 C 0.08037 0.52347 0.1892 0.0
C88 C 0.13354 0.54301 0.19815 0.0
C89 C 0.14275 0.56753 0.21583 0.0
C90 C 0.11844 0.68691 0.23146 0.0
C91 C 0.07238 0.69569 0.228 0.0
C92 C 0.07415 0.7264 0.21325 0.0
C93 C 0.12246 0.74929 0.20174 0.0
C94 C 0.16823 0.73983 0.20527 0.0
C95 C 0.1663 0.70904 0.21998 0.0
C96 C 0.13165 0.73572 0.26811 0.0
C97 C 0.08744 0.74351 0.27563 0.0
C98 C 0.09608 0.79856 0.27895 0.0
C99 C 0.14908 0.84677 0.27471 0.0
C100 C 0.19314 0.83862 0.26711 0.0
C101 C 0.18447 0.78357 0.26384 0.0
C102 C 0.12769 0.67169 0.29827 0.0
C103 C 0.07818 0.65474 0.30882 0.0
C104 C 0.07951 0.68895 0.32397 0.0
C105 C 0.13046 0.74092 0.32866 0.0
C106 C 0.18126 0.75448 0.31909 0.0
C107 C 0.17989 0.72022 0.304 0.0
C108 C 0.11485 0.55773 0.29178 0.0
C109 C 0.0653 0.50589 0.29557 0.0
C110 C 0.06592 0.47368 0.30955 0.0
C111 C 0.11639 0.49286 0.3201 0.0
C112 C 0.16561 0.54531 0.31635 0.0
C113 C 0.16491 0.57736 0.30235 0.0
C114 C 0.07032 0.49762 0.1704 0.0
C115 C 0.15853 0.90536 0.27813 0.0
H116 H 0.5782 0.00941 0.48109 0.0
H117 H 0.34615 0.24468 0.64116 0.0
H118 H 0.59919 0.99358 0.57726 0.0
H119 H 0.67378 0.98704 0.55936 0.0
H120 H 0.79617 0.16348 0.57532 0.0
H121 H 0.72108 0.16959 0.59302 0.0
H122 H 0.50535 0.00943 0.55617 0.0
H123 H 0.52042 0.99462 0.52401 0.0
H124 H 0.68114 0.1565 0.52636 0.0
H125 H 0.66511 0.17108 0.5585 0.0
H126 H 0.41567 0.04511 0.57734 0.0
H127 H 0.36088 0.05024 0.55224 0.0
H128 H 0.51557 0.19622 0.53362 0.0
H129 H 0.56967 0.19349 0.55958 0.0
H130 H 0.40793 0.04276 0.61364 0.0
H131 H 0.3397 0.06925 0.62693 0.0
H132 H 0.46247 0.24713 0.61895 0.0
H133 H 0.53056 0.22 0.60587 0.0
H134 H 0.47904 0.00512 0.63268 0.0
H135 H 0.41493 0.99545 0.65798 0.0
H136 H 0.5039 0.17938 0.66679 0.0
H137 H 0.56757 0.18843 0.64155 0.0
H138 H 0.59199 0.99204 0.61488 0.0
H139 H 0.64945 0.97425 0.63604 0.0
H140 H 0.72333 0.14798 0.6588 0.0
H141 H 0.66568 0.1649 0.6377 0.0
O142 O 0.5732 0.01616 0.49383 0.0
O143 O 0.65224 0.10232 0.49524 0.0
O144 O 0.30899 0.14063 0.63852 0.0
O145 O 0.37132 0.23283 0.63526 0.0
C146 C 0.6065 0.09086 0.59243 0.0
C147 C 0.5745 0.09929 0.57922 0.0
C148 C 0.53101 0.1119 0.58453 0.0
C149 C 0.51851 0.11439 0.60308 0.0
C150 C 0.54842 0.10291 0.61629 0.0
C151 C 0.5929 0.09162 0.611 0.0
C152 C 0.65473 0.08214 0.58633 0.0
C153 C 0.64262 0.0302 0.57733 0.0
C154 C 0.68512 0.02673 0.56701 0.0
C155 C 0.7401 0.07525 0.56536 0.0
C156 C 0.75362 0.12584 0.57574 0.0
C157 C 0.71111 0.12916 0.58616 0.0
C158 C 0.58415 0.09124 0.55964 0.0
C159 C 0.54369 0.04169 0.54969 0.0
C160 C 0.55249 0.0333 0.53134 0.0
C161 C 0.60197 0.07438 0.52262 0.0
C162 C 0.64252 0.12406 0.53267 0.0
C163 C 0.63359 0.13243 0.55102 0.0
C164 C 0.49664 0.11925 0.57046 0.0
C165 C 0.43737 0.07959 0.56829 0.0
C166 C 0.40618 0.08239 0.55389 0.0
C167 C 0.4341 0.12406 0.54114 0.0
C168 C 0.49319 0.16403 0.54337 0.0
C169 C 0.524 0.16238 0.55813 0.0
C170 C 0.47422 0.12952 0.60887 0.0
C171 C 0.41974 0.08736 0.61462 0.0
C172 C 0.38092 0.10263 0.62223 0.0
C173 C 0.39583 0.1604 0.62414 0.0
C174 C 0.44973 0.2023 0.61777 0.0
C175 C 0.48856 0.18694 0.61018 0.0
C176 C 0.5279 0.09745 0.63527 0.0
C177 C 0.48669 0.04313 0.6407 0.0
C178 C 0.44965 0.03772 0.65502 0.0
C179 C 0.45404 0.08647 0.66433 0.0
C180 C 0.49967 0.14078 0.66014 0.0
C181 C 0.53644 0.14614 0.64571 0.0
C182 C 0.62467 0.07979 0.62473 0.0
C183 C 0.62028 0.02603 0.62456 0.0
C184 C 0.65305 0.01593 0.63668 0.0
C185 C 0.6905 0.05914 0.64935 0.0
C186 C 0.6941 0.11289 0.64965 0.0
C187 C 0.66132 0.12294 0.63748 0.0
C188 C 0.61089 0.06534 0.50309 0.0
C189 C 0.35589 0.1771 0.63303 0.0
H190 H 0.6375 0.66588 0.05018 0.0
H191 H 0.33274 0.19054 0.9008 0.0
H192 H 0.60318 0.69035 0.95711 0.0
H193 H 0.67462 0.77763 0.97395 0.0
H194 H 0.81227 0.75922 0.94931 0.0
H195 H 0.74018 0.67022 0.93289 0.0
H196 H 0.53181 0.58674 0.97801 0.0
H197 H 0.56046 0.61807 0.00972 0.0
H198 H 0.72498 0.629 0.99895 0.0
H199 H 0.69539 0.59676 0.96732 0.0
H200 H 0.44095 0.48024 0.95627 0.0
H201 H 0.38844 0.41784 0.9804 0.0
H202 H 0.53577 0.39849 0.99093 0.0
H203 H 0.58854 0.46252 0.9667 0.0
H204 H 0.42806 0.46946 0.91518 0.0
H205 H 0.35119 0.37358 0.90508 0.0
H206 H 0.4616 0.30596 0.91715 0.0
H207 H 0.53849 0.40233 0.92694 0.0
H208 H 0.5004 0.56877 0.89357 0.0
H209 H 0.44883 0.51843 0.86536 0.0
H210 H 0.53662 0.42143 0.86337 0.0
H211 H 0.58841 0.47245 0.89153 0.0
H212 H 0.60134 0.69348 0.9149 0.0
H213 H 0.65167 0.76646 0.89294 0.0
H214 H 0.73088 0.67163 0.87034 0.0
H215 H 0.68125 0.60008 0.89248 0.0
O216 O 0.62666 0.6526 0.03765 0.0
O217 O 0.71079 0.65802 0.03136 0.0
O218 O 0.30745 0.26589 0.89874 0.0
O219 O 0.36243 0.22891 0.90471 0.0
C220 C 0.6231 0.61399 0.93778 0.0
C221 C 0.59507 0.57291 0.95093 0.0
C222 C 0.55104 0.51695 0.94565 0.0
C223 C 0.53616 0.50143 0.92717 0.0
C224 C 0.56553 0.54175 0.9139 0.0
C225 C 0.60869 0.59841 0.91918 0.0
C226 C 0.66649 0.67354 0.94399 0.0
C227 C 0.64876 0.70566 0.95507 0.0
C228 C 0.68947 0.75512 0.96477 0.0
C229 C 0.74869 0.77396 0.96322 0.0
C230 C 0.76672 0.74494 0.95081 0.0
C231 C 0.72576 0.69454 0.94137 0.0
C232 C 0.61139 0.58916 0.97041 0.0
C233 C 0.5737 0.5952 0.98259 0.0
C234 C 0.59033 0.61344 1.00067 0.0
C235 C 0.64507 0.62615 0.00687 0.0
C236 C 0.68253 0.61958 0.99462 0.0
C237 C 0.66574 0.60112 0.97657 0.0
C238 C 0.51831 0.47552 0.95963 0.0
C239 C 0.4615 0.46176 0.96361 0.0
C240 C 0.43137 0.42552 0.97743 0.0
C241 C 0.45741 0.40179 0.98749 0.0
C242 C 0.51436 0.41561 0.98335 0.0
C243 C 0.54453 0.45207 0.96954 0.0
C244 C 0.48887 0.44279 0.92168 0.0
C245 C 0.43558 0.43388 0.91558 0.0
C246 C 0.39173 0.37907 0.90985 0.0
C247 C 0.40027 0.33208 0.91029 0.0
C248 C 0.45361 0.34119 0.91662 0.0
C249 C 0.49753 0.39611 0.92227 0.0
C250 C 0.54781 0.52397 0.89463 0.0
C251 C 0.50984 0.53799 0.88672 0.0
C252 C 0.47966 0.5084 0.87078 0.0
C253 C 0.48724 0.46442 0.86255 0.0
C254 C 0.5295 0.45458 0.86956 0.0
C255 C 0.55934 0.48389 0.88555 0.0
C256 C 0.63783 0.64158 0.90537 0.0
C257 C 0.62976 0.68873 0.9052 0.0
C258 C 0.6585 0.73031 0.89262 0.0
C259 C 0.69589 0.72575 0.87985 0.0
C260 C 0.70314 0.67772 0.8799 0.0
C261 C 0.67442 0.6362 0.89256 0.0
C262 C 0.66301 0.64651 0.02601 0.0
C263 C 0.3538 0.27376 0.90423 0.0
H264 H 0.0524 0.21192 0.13563 0.0
C265 C 0.08187 0.19631 0.13787 0.0
H266 H 0.14102 0.19508 0.15603 0.0
H267 H 0.1432 0.43083 0.18684 0.0
H268 H 0.1996 0.47256 0.16011 0.0
H269 H 0.21391 0.41276 0.13647 0.0
H270 H 0.17267 0.31094 0.13953 0.0
C271 C 0.11378 0.21278 0.15318 0.0
C272 C 0.10717 0.24959 0.16763 0.0
C273 C 0.13115 0.30886 0.16554 0.0
C274 C 0.12274 0.34328 0.17915 0.0
C275 C 0.1478 0.40257 0.17684 0.0
C276 C 0.18034 0.4271 0.16158 0.0
C277 C 0.18847 0.39344 0.14828 0.0
C278 C 0.16435 0.33501 0.15017 0.0
H279 H 0.13841 0.36007 0.22768 0.0
C280 C 0.10707 0.37251 0.22439 0.0
H281 H 0.05173 0.37037 0.20402 0.0
H282 H 0.05821 0.13794 0.17625 0.0
H283 H 0.00395 0.0966 0.20333 0.0
H284 H 0.9879 0.15598 0.22669 0.0
H285 H 0.02629 0.25712 0.22317 0.0
C286 C 0.07889 0.35408 0.20835 0.0
C287 C 0.09049 0.31835 0.19482 0.0
C288 C 0.06767 0.25933 0.19712 0.0
C289 C 0.07642 0.22499 0.18356 0.0
C290 C 0.05292 0.16604 0.18612 0.0
C291 C 0.0216 0.14173 0.20159 0.0
C292 C 0.01259 0.17517 0.21475 0.0
C293 C 0.03507 0.23325 0.21259 0.0
H294 H 0.96912 0.14435 0.46898 0.0
C295 C 0.95506 0.09906 0.4675 0.0
H296 H 0.90412 0.01809 0.47817 0.0
H297 H 0.88953 0.09226 0.55843 0.0
H298 H 0.95322 0.05369 0.56101 0.0
H299 H 0.99239 0.02874 0.53373 0.0
H300 H 0.9683 0.04235 0.50374 0.0
C301 C 0.91694 0.06309 0.47927 0.0
C302 C 0.89699 0.08324 0.49556 0.0
C303 C 0.91131 0.07474 0.51302 0.0
C304 C 0.88833 0.08857 0.52876 0.0
C305 C 0.90446 0.08092 0.54602 0.0
C306 C 0.94138 0.05927 0.5477 0.0
C307 C 0.96346 0.04527 0.53235 0.0
C308 C 0.94898 0.05302 0.51519 0.0
H309 H 0.77264 0.03015 0.54716 0.0
C310 C 0.78029 0.0723 0.55176 0.0
H311 H 0.82606 0.16008 0.54641 0.0
H312 H 0.86 0.10456 0.46418 0.0
H313 H 0.80153 0.14875 0.46183 0.0
H314 H 0.76545 0.17677 0.4892 0.0
H315 H 0.78573 0.15872 0.51906 0.0
C316 C 0.82026 0.11795 0.54316 0.0
C317 C 0.85057 0.11037 0.52702 0.0
C318 C 0.83908 0.1222 0.50965 0.0
C319 C 0.86151 0.10774 0.49386 0.0
C320 C 0.84621 0.11669 0.47666 0.0
C321 C 0.81216 0.1416 0.47509 0.0
C322 C 0.7916 0.15711 0.4905 0.0
C323 C 0.80397 0.14684 0.50759 0.0
H324 H 0.94062 0.94926 0.79791 0.0
C325 C 0.92762 0.98133 0.79924 0.0
H326 H 0.87138 0.0053 0.81222 0.0
H327 H 0.68205 0.75771 0.8331 0.0
H328 H 0.63135 0.77582 0.81003 0.0
H329 H 0.68234 0.86112 0.79214 0.0
H330 H 0.78444 0.9287 0.79715 0.0
C331 C 0.8857 0.97425 0.81099 0.0
C332 C 0.85537 0.92281 0.82196 0.0
C333 C 0.7954 0.88405 0.81907 0.0
C334 C 0.76576 0.83516 0.82956 0.0
C335 C 0.70637 0.79628 0.8259 0.0
C336 C 0.67679 0.80594 0.8126 0.0
C337 C 0.70551 0.85394 0.80251 0.0
C338 C 0.76413 0.89251 0.80558 0.0
H339 H 0.71676 0.80696 0.868 0.0
C340 C 0.72623 0.77232 0.86703 0.0
H341 H 0.77814 0.7434 0.85337 0.0
H342 H 0.96904 0.99126 0.83245 0.0
H343 H 0.01968 0.97261 0.85533 0.0
H344 H 0.96893 0.88644 0.87284 0.0
H345 H 0.867 0.81868 0.86767 0.0
C346 C 0.76507 0.77525 0.8546 0.0
C347 C 0.79591 0.82547 0.84316 0.0
C348 C 0.85595 0.86395 0.84596 0.0
C349 C 0.88555 0.91305 0.83556 0.0
C350 C 0.94478 0.95222 0.83941 0.0
C351 C 0.97435 0.94231 0.85266 0.0
C352 C 0.94576 0.89385 0.86253 0.0
C353 C 0.88723 0.85519 0.85937 0.0
H354 H 0.03052 0.9369 0.13463 0.0
C355 C 0.06675 0.95922 0.1256 0.0
H356 H 0.14758 0.97114 0.11705 0.0
H357 H 0.1843 0.89745 0.1934 0.0
H358 H 0.26134 0.9963 0.1934 0.0
H359 H 0.2705 0.056 0.16829 0.0
H360 H 0.20254 0.01721 0.14307 0.0
C361 C 0.10961 0.94718 0.12527 0.0
C362 C 0.11007 0.90817 0.13853 0.0
C363 C 0.15135 0.93107 0.1529 0.0
C364 C 0.14643 0.89647 0.1673 0.0
C365 C 0.1866 0.92128 0.18192 0.0
C366 C 0.23094 0.97815 0.18214 0.0
C367 C 0.23606 0.01177 0.16802 0.0
C368 C 0.19672 0.98887 0.15359 0.0
H369 H 0.1628 0.79318 0.17666 0.0
C370 C 0.12726 0.78299 0.18595 0.0
H371 H 0.05607 0.79532 0.19159 0.0
H372 H 0.03002 0.84858 0.11156 0.0
H373 H 0.95394 0.74888 0.1112 0.0
H374 H 0.94429 0.68931 0.13642 0.0
H375 H 0.01084 0.72893 0.1621 0.0
C376 C 0.09218 0.80373 0.18287 0.0
C377 C 0.10079 0.83875 0.16713 0.0
C378 C 0.06131 0.8151 0.15232 0.0
C379 C 0.0663 0.84967 0.13791 0.0
C380 C 0.02712 0.82458 0.12308 0.0
C381 C 0.98356 0.76734 0.12265 0.0
C382 C 0.97817 0.73378 0.13684 0.0
C383 C 0.01655 0.75709 0.15151 0.0
H384 H 0.20221 0.13942 0.46339 0.0
C385 C 0.18352 0.09649 0.45704 0.0
H386 H 0.18459 0.01946 0.45489 0.0
H387 H 0.40957 0.21047 0.50858 0.0
H388 H 0.44356 0.27185 0.48331 0.0
H389 H 0.38829 0.24259 0.45455 0.0
H390 H 0.29761 0.15268 0.45114 0.0
C391 C 0.2036 0.06221 0.46141 0.0
C392 C 0.24276 0.07626 0.47735 0.0
C393 C 0.29778 0.12692 0.47861 0.0
C394 C 0.33193 0.14168 0.4947 0.0
C395 C 0.38378 0.19531 0.49627 0.0
C396 C 0.40352 0.23127 0.48193 0.0
C397 C 0.37225 0.21495 0.46577 0.0
C398 C 0.31998 0.16345 0.46405 0.0
H399 H 0.42386 0.12627 0.51168 0.0
C400 C 0.40301 0.12288 0.52469 0.0
H401 H 0.32963 0.11327 0.53856 0.0
H402 H 0.13822 0.97673 0.47999 0.0
H403 H 0.10824 0.91185 0.50411 0.0
H404 H 0.17224 0.93208 0.53039 0.0
H405 H 0.26606 0.01796 0.53282 0.0
C406 C 0.34967 0.11588 0.52544 0.0
C407 C 0.31341 0.10324 0.50885 0.0
C408 C 0.25938 0.05149 0.50727 0.0
C409 C 0.22353 0.03862 0.49173 0.0
C410 C 0.1684 0.98805 0.49108 0.0
C411 C 0.15033 0.95034 0.50493 0.0
C412 C 0.18626 0.96181 0.51973 0.0
C413 C 0.24009 0.0116 0.52097 0.0
H414 H 0.1609 0.26476 0.80751 0.0
C415 C 0.1643 0.23192 0.7993 0.0
H416 H 0.21959 0.20053 0.79088 0.0
H417 H 0.38887 0.47247 0.82286 0.0
H418 H 0.35629 0.49768 0.7964 0.0
H419 H 0.28371 0.42279 0.77533 0.0
H420 H 0.24278 0.32233 0.78068 0.0
C421 C 0.21515 0.23324 0.79876 0.0
C422 C 0.2657 0.27821 0.80963 0.0
C423 C 0.29048 0.33673 0.80598 0.0
C424 C 0.33332 0.37989 0.81789 0.0
C425 C 0.3563 0.438 0.81421 0.0
C426 C 0.33813 0.45305 0.79905 0.0
C427 C 0.29719 0.41089 0.7872 0.0
C428 C 0.27366 0.35337 0.79052 0.0
H429 H 0.46514 0.40356 0.83855 0.0
C430 C 0.44892 0.42527 0.84762 0.0
H431 H 0.37446 0.42874 0.85584 0.0
H432 H 0.23223 0.1701 0.81924 0.0
H433 H 0.26835 0.14491 0.84481 0.0
H434 H 0.34288 0.21967 0.86539 0.0
H435 H 0.38146 0.3201 0.86068 0.0
C436 C 0.39278 0.4098 0.84649 0.0
C437 C 0.35256 0.36451 0.83309 0.0
C438 C 0.33041 0.30594 0.83612 0.0
C439 C 0.28718 0.26275 0.82429 0.0
C440 C 0.26518 0.20463 0.82776 0.0
C441 C 0.28547 0.18956 0.84241 0.0
C442 C 0.32742 0.23168 0.85401 0.0
C443 C 0.34946 0.28923 0.85107 0.0
H444 H 0.93143 0.11554 0.73599 0.0
C445 C 0.94113 0.08159 0.73285 0.0
H446 H 0.92295 0.00987 0.71527 0.0
H447 H 0.6823 0.98501 0.69124 0.0
H448 H 0.64793 0.90274 0.70944 0.0
H449 H 0.71634 0.88725 0.72658 0.0
H450 H 0.81969 0.95412 0.72568 0.0
C451 C 0.91456 0.04456 0.71861 0.0
C452 C 0.87372 0.0511 0.70693 0.0
C453 C 0.81363 0.01102 0.70725 0.0
C454 C 0.77418 0.01964 0.69717 0.0
C455 C 0.71425 0.97998 0.6983 0.0
C456 C 0.6939 0.93271 0.70877 0.0
C457 C 0.73243 0.92401 0.71844 0.0
C458 C 0.79162 0.96268 0.7178 0.0
H459 H 0.73214 0.01068 0.65722 0.0
C460 C 0.72714 0.04723 0.66119 0.0
H461 H 0.75056 0.11539 0.68101 0.0
H462 H 0.98679 0.13191 0.70122 0.0
H463 H 0.02129 0.21357 0.6828 0.0
H464 H 0.95288 0.22979 0.66595 0.0
H465 H 0.84954 0.16415 0.66733 0.0
C466 C 0.75437 0.07875 0.67638 0.0
C467 C 0.79506 0.06799 0.68658 0.0
C468 C 0.8553 0.10731 0.68592 0.0
C469 C 0.8947 0.09851 0.6959 0.0
C470 C 0.95477 0.1374 0.69439 0.0
C471 C 0.97524 0.18426 0.68374 0.0
C472 C 0.93673 0.19335 0.67424 0.0
C473 C 0.87747 0.15538 0.6752 0.0
H474 H 0.95251 0.95761 0.06034 0.0
C475 C 0.95701 0.9994 0.05913 0.0
H476 H 0.93769 0.0504 0.0436 0.0
H477 H 0.87569 0.81514 0.99068 0.0
H478 H 0.97677 0.84385 0.99369 0.0
H479 H 0.04308 0.92921 0.0129 0.0
H480 H 0.00813 0.98511 0.02969 0.0
C481 C 0.93316 0.00863 0.04484 0.0
C482 C 0.89586 0.96187 0.03124 0.0
C483 C 0.91801 0.93205 0.02053 0.0
C484 C 0.88072 0.88535 0.0084 0.0
C485 C 0.90271 0.85305 0.99922 0.0
C486 C 0.96063 0.86875 1.00095 0.0
C487 C 0.99788 0.91661 0.01184 0.0
C488 C 0.97709 0.94805 0.02154 0.0
H489 H 0.83145 0.85431 0.96957 0.0
C490 C 0.79139 0.82171 0.97528 0.0
H491 H 0.74295 0.78933 0.99886 0.0
H492 H 0.83917 0.00977 0.04964 0.0
H493 H 0.73996 0.98546 0.04501 0.0
H494 H 0.67767 0.90995 0.02215 0.0
H495 H 0.71405 0.85786 0.00395 0.0
C496 C 0.78255 0.82306 0.99325 0.0
C497 C 0.82253 0.8715 0.00591 0.0
C498 C 0.80105 0.90273 0.01612 0.0
C499 C 0.83746 0.94738 0.02895 0.0
C500 C 0.81404 0.97635 0.0394 0.0
C501 C 0.75698 0.96271 0.03694 0.0
C502 C 0.72189 0.92013 0.0241 0.0
C503 C 0.74337 0.89039 0.01378 0.0
H504 H 0.03059 0.94491 0.3997 0.0
C505 C 0.06279 0.98721 0.39566 0.0
H506 H 0.13276 0.03414 0.37836 0.0
H507 H 0.11775 0.78118 0.3788 0.0
H508 H 0.15413 0.81064 0.40968 0.0
H509 H 0.16724 0.90071 0.42431 0.0
H510 H 0.14334 0.96148 0.40822 0.0
C511 C 0.10155 0.99239 0.38301 0.0
C512 C 0.0989 0.94076 0.37378 0.0
C513 C 0.11487 0.90668 0.38317 0.0
C514 C 0.10927 0.85576 0.37451 0.0
C515 C 0.12301 0.82123 0.3845 0.0
C516 C 0.14361 0.83747 0.40228 0.0
C517 C 0.15083 0.88809 0.41053 0.0
C518 C 0.1367 0.92246 0.40117 0.0
H519 H 0.17359 0.81936 0.34686 0.0
C520 C 0.13157 0.78443 0.34219 0.0
H521 H 0.04211 0.75594 0.3413 0.0
H522 H 0.06475 0.99658 0.35199 0.0
H523 H 0.02977 0.96809 0.32097 0.0
H524 H 0.02234 0.88126 0.30564 0.0
H525 H 0.05045 0.82279 0.32111 0.0
C526 C 0.0843 0.78757 0.34678 0.0
C527 C 0.08938 0.84001 0.35628 0.0
C528 C 0.07399 0.87451 0.34684 0.0
C529 C 0.07874 0.92487 0.35561 0.0
C530 C 0.06238 0.9581 0.34595 0.0
C531 C 0.0422 0.94225 0.32813 0.0
C532 C 0.03805 0.89339 0.3195 0.0
C533 C 0.05406 0.85999 0.32861 0.0
H534 H 0.21112 0.0769 0.74694 0.0
C535 C 0.18736 0.09055 0.73887 0.0
H536 H 0.1789 0.11812 0.71378 0.0
H537 H 0.42665 0.2149 0.68235 0.0
H538 H 0.4113 0.29536 0.68215 0.0
H539 H 0.32668 0.29228 0.6971 0.0
H540 H 0.25606 0.20809 0.71188 0.0
C541 C 0.20344 0.10513 0.72177 0.0
C542 C 0.2561 0.10727 0.71357 0.0
C543 C 0.29866 0.15807 0.70574 0.0
C544 C 0.34893 0.16086 0.69782 0.0
C545 C 0.38869 0.21089 0.68911 0.0
C546 C 0.38034 0.25749 0.68883 0.0
C547 C 0.33263 0.25568 0.69719 0.0
C548 C 0.29221 0.2068 0.70558 0.0
H549 H 0.36281 0.04326 0.67265 0.0
C550 C 0.40541 0.07964 0.67601 0.0
H551 H 0.45261 0.15356 0.69331 0.0
H552 H 0.17769 0.99795 0.72283 0.0
H553 H 0.19633 0.92005 0.72514 0.0
H554 H 0.29133 0.93172 0.71695 0.0
H555 H 0.3671 0.02054 0.70556 0.0
C556 C 0.41047 0.11712 0.68966 0.0
C557 C 0.3583 0.11398 0.69854 0.0
C558 C 0.31675 0.06392 0.70692 0.0
C559 C 0.26415 0.05925 0.7134 0.0
C560 C 0.22031 0.00579 0.71926 0.0
C561 C 0.23015 0.96034 0.72042 0.0
C562 C 0.28345 0.96676 0.71569 0.0
C563 C 0.32639 0.01782 0.709 0.0
H564 H 0.20239 0.26629 0.06626 0.0
C565 C 0.1967 0.22665 0.07104 0.0
H566 H 0.22647 0.1678 0.06903 0.0
H567 H 0.31921 0.24098 0.98969 0.0
H568 H 0.24767 0.14037 0.98456 0.0
H569 H 0.18809 0.0841 0.00966 0.0
H570 H 0.19996 0.12781 0.04002 0.0
C571 C 0.23287 0.20854 0.06514 0.0
C572 C 0.27586 0.23961 0.05086 0.0
C573 C 0.26873 0.21311 0.03322 0.0
C574 C 0.30238 0.24578 0.01867 0.0
C575 C 0.29414 0.21836 1.00116 0.0
C576 C 0.25338 0.16061 0.99804 0.0
C577 C 0.21989 0.12892 0.01217 0.0
C578 C 0.22718 0.15461 0.02956 0.0
H579 H 0.45421 0.35788 0.01222 0.0
C580 C 0.42789 0.36493 0.00289 0.0
H581 H 0.34213 0.34254 0.99631 0.0
H582 H 0.3093 0.29959 0.08363 0.0
H583 H 0.38047 0.40041 0.08887 0.0
H584 H 0.43362 0.45915 0.06337 0.0
H585 H 0.41696 0.41747 0.03264 0.0
C586 C 0.37073 0.34028 0.00594 0.0
C587 C 0.34281 0.30492 0.02174 0.0
C588 C 0.35232 0.33067 0.0396 0.0
C589 C 0.31975 0.29752 0.05422 0.0
C590 C 0.33136 0.32352 0.07199 0.0
C591 C 0.3723 0.38117 0.07519 0.0
C592 C 0.40236 0.41418 0.06084 0.0
C593 C 0.39256 0.38954 0.04323 0.0
H594 H 0.01499 0.20574 0.38763 0.0
C595 C 0.05394 0.22016 0.39569 0.0
H596 H 0.139 0.28774 0.40138 0.0
H597 H 0.1475 0.38044 0.3234 0.0
H598 H 0.20936 0.33972 0.31883 0.0
H599 H 0.22093 0.28627 0.3426 0.0
H600 H 0.17019 0.27283 0.37105 0.0
C601 C 0.09853 0.27356 0.39424 0.0
C602 C 0.09622 0.31139 0.38086 0.0
C603 C 0.1278 0.32072 0.36455 0.0
C604 C 0.12205 0.35264 0.35098 0.0
C605 C 0.15159 0.35832 0.33442 0.0
C606 C 0.18699 0.33474 0.33155 0.0
C607 C 0.19343 0.30458 0.34492 0.0
C608 C 0.1641 0.29727 0.36121 0.0
H609 H 0.16204 0.47748 0.34177 0.0
C610 C 0.12065 0.4595 0.33476 0.0
H611 H 0.03482 0.38869 0.33358 0.0
H612 H 0.03379 0.30582 0.41118 0.0
H613 H 0.97275 0.34768 0.41604 0.0
H614 H 0.96305 0.40338 0.39264 0.0
H615 H 0.01436 0.41769 0.36424 0.0
C616 C 0.07763 0.40816 0.33956 0.0
C617 C 0.08592 0.37662 0.35396 0.0
C618 C 0.05541 0.36835 0.37046 0.0
C619 C 0.06071 0.3359 0.38393 0.0
C620 C 0.03049 0.3292 0.40038 0.0
C621 C 0.99555 0.35325 0.40338 0.0
C622 C 0.99011 0.38464 0.39021 0.0
C623 C 0.01968 0.39238 0.37394 0.0
loop_
_geom_bond_atom_site_label_1
_geom_bond_atom_site_label_2
_geom_bond_distance
_geom_bond_site_symmetry_2
_ccdc_geom_bond_type
Co0 O1 2.216 . S
Co0 O2 2.091 . S
Co0 O4 2.004 . S
Co0 O10 2.021 . S
Co0 O12 2.137 . S
Co0 O13 2.244 . S
O1 Co0 2.216 . S
O1 C8 1.247 . S
O2 Co0 2.091 . S
O2 C8 1.261 . S
C3 O12 1.247 . S
C3 O13 1.272 . S
O4 Co0 2.004 . S
O4 C9 1.259 . S
Co5 O6 2.061 . S
Co5 O11 2.053 1_455 S
Co5 O13 2.135 . S
O6 Co5 2.061 . S
O6 C9 1.235 . S
C7 O10 1.238 . S
C7 O11 1.233 1_455 S
C8 O1 1.247 . S
C8 O2 1.261 . S
C9 O4 1.259 . S
C9 O6 1.235 . S
O10 Co0 2.021 . S
O10 C7 1.238 . S
O11 Co5 2.053 1_655 S
O11 C7 1.233 1_655 S
O12 Co0 2.137 . S
O12 C3 1.247 . S
O13 Co0 2.244 . S
O13 C3 1.272 . S
O13 Co5 2.135 . S
Co14 O15 2.216 . S
Co14 O16 2.091 . S
Co14 O18 2.004 . S
Co14 O24 2.021 . S
Co14 O26 2.137 . S
Co14 O27 2.244 1_545 S
O15 Co14 2.216 . S
O15 C22 1.247 . S
O16 Co14 2.091 . S
O16 C22 1.261 . S
C17 O26 1.247 1_565 S
C17 O27 1.272 . S
O18 Co14 2.004 . S
O18 C23 1.259 . S
Co19 O20 2.061 1_565 S
Co19 O25 2.052 1_465 S
Co19 O27 2.135 . S
O20 Co19 2.061 1_545 S
O20 C23 1.235 . S
C21 O24 1.238 . S
C21 O25 1.241 1_455 S
C22 O15 1.247 . S
C22 O16 1.261 . S
C23 O18 1.259 . S
C23 O20 1.235 . S
O24 Co14 2.021 . S
O24 C21 1.238 . S
O25 Co19 2.052 1_645 S
O25 C21 1.241 1_655 S
O26 Co14 2.137 . S
O26 C17 1.247 1_545 S
O27 Co14 2.244 1_565 S
O27 C17 1.272 . S
O27 Co19 2.135 . S
Co28 O29 2.216 . S
Co28 O30 2.091 . S
Co28 O32 2.004 . S
Co28 O38 2.021 . S
Co28 O40 2.137 . S
Co28 O41 2.244 . S
O29 Co28 2.216 . S
O29 C36 1.247 . S
O30 Co28 2.091 . S
O30 C36 1.261 . S
C31 O40 1.247 . S
C31 O41 1.272 . S
O32 Co28 2.004 . S
O32 C37 1.259 . S
Co33 O34 2.061 . S
Co33 O39 2.052 . S
Co33 O41 2.135 . S
O34 Co33 2.061 . S
O34 C37 1.235 . S
C35 O38 1.238 . S
C35 O39 1.241 . S
C36 O29 1.247 . S
C36 O30 1.261 . S
C37 O32 1.259 . S
C37 O34 1.235 . S
O38 Co28 2.021 . S
O38 C35 1.238 . S
O39 Co33 2.052 . S
O39 C35 1.241 . S
O40 Co28 2.137 . S
O40 C31 1.247 . S
O41 Co28 2.244 . S
O41 C31 1.272 . S
O41 Co33 2.135 . S
H42 O68 0.856 . S
H43 O71 0.854 . S
H44 C79 0.931 . S
H45 C80 0.930 . S
H46 C82 0.930 . S
H47 C83 0.930 . S
H48 C85 0.931 1_655 S
H49 C86 0.930 1_655 S
H50 C88 0.930 . S
H51 C89 0.929 . S
H52 C91 0.930 1_655 S
H53 C92 0.951 . S
H54 C94 0.930 . S
H55 C95 0.929 . S
H56 C97 0.931 1_655 S
H57 C98 0.930 1_655 S
H58 C100 0.930 . S
H59 C101 0.932 . S
H60 C103 0.930 . S
H61 C104 0.929 . S
H62 C106 0.931 . S
H63 C107 0.930 . S
H64 C109 0.929 1_655 S
H65 C110 0.931 1_655 S
H66 C112 0.930 . S
H67 C113 0.929 . S
O68 H42 0.856 . S
O68 C114 1.300 . S
O69 C114 1.209 . S
O70 C115 1.199 . S
O71 H43 0.854 . S
O71 C115 1.297 . S
C72 C73 1.404 . S
C72 C77 1.397 . S
C72 C78 1.492 . S
C73 C72 1.404 . S
C73 C74 1.396 . S
C73 C84 1.492 . S
C74 C73 1.396 . S
C74 C75 1.397 . S
C74 C90 1.509 . S
C75 C74 1.397 . S
C75 C76 1.412 . S
C75 C96 1.485 . S
C76 C75 1.412 . S
C76 C77 1.388 . S
C76 C102 1.490 . S
C77 C72 1.397 . S
C77 C76 1.388 . S
C77 C108 1.519 . S
C78 C72 1.492 . S
C78 C79 1.363 1_455 S
C78 C83 1.390 . S
C79 H44 0.931 . S
C79 C78 1.363 1_655 S
C79 C80 1.372 . S
C80 H45 0.930 . S
C80 C79 1.372 . S
C80 C81 1.383 1_655 S
C81 C80 1.383 1_455 S
C81 C82 1.395 . S
C82 H46 0.930 . S
C82 C81 1.395 . S
C82 C83 1.362 . S
C83 H47 0.930 . S
C83 C78 1.390 . S
C83 C82 1.362 . S
C84 C73 1.492 . S
C84 C85 1.377 . S
C84 C89 1.397 . S
C85 H48 0.931 1_455 S
C85 C84 1.377 . S
C85 C86 1.376 . S
C86 H49 0.930 1_455 S
C86 C85 1.376 . S
C86 C87 1.376 . S
C87 C86 1.376 . S
C87 C88 1.378 . S
C87 C114 1.486 . S
C88 H50 0.930 . S
C88 C87 1.378 . S
C88 C89 1.376 . S
C89 H51 0.929 . S
C89 C84 1.397 . S
C89 C88 1.376 . S
C90 C74 1.509 . S
C90 C91 1.391 . S
C90 C95 1.386 . S
C91 H52 0.930 1_455 S
C91 C90 1.391 . S
C91 C92 1.375 . S
C92 H53 0.951 . S
C92 C91 1.375 . S
C92 C93 1.375 . S
C93 C92 1.375 . S
C93 C94 1.361 . S
C94 H54 0.930 . S
C94 C93 1.361 . S
C94 C95 1.399 . S
C95 H55 0.929 . S
C95 C90 1.386 . S
C95 C94 1.399 . S
C96 C75 1.485 . S
C96 C97 1.394 . S
C96 C101 1.360 . S
C97 H56 0.931 1_455 S
C97 C96 1.394 . S
C97 C98 1.372 . S
C98 H57 0.930 1_455 S
C98 C97 1.372 . S
C98 C99 1.397 . S
C99 C98 1.397 . S
C99 C100 1.390 . S
C99 C115 1.476 . S
C100 H58 0.930 . S
C100 C99 1.390 . S
C100 C101 1.366 . S
C101 H59 0.932 . S
C101 C96 1.360 . S
C101 C100 1.366 . S
C102 C76 1.490 . S
C102 C103 1.380 1_455 S
C102 C107 1.386 . S
C103 H60 0.930 . S
C103 C102 1.380 1_655 S
C103 C104 1.381 . S
C104 H61 0.929 . S
C104 C103 1.381 . S
C104 C105 1.371 1_655 S
C105 C104 1.371 1_455 S
C105 C106 1.380 . S
C106 H62 0.931 . S
C106 C105 1.380 . S
C106 C107 1.387 . S
C107 H63 0.930 . S
C107 C102 1.386 . S
C107 C106 1.387 . S
C108 C77 1.519 . S
C108 C109 1.377 . S
C108 C113 1.361 . S
C109 H64 0.929 1_455 S
C109 C108 1.377 . S
C109 C110 1.386 . S
C110 H65 0.931 1_455 S
C110 C109 1.386 . S
C110 C111 1.363 . S
C111 C110 1.363 . S
C111 C112 1.385 . S
C112 H66 0.930 . S
C112 C111 1.385 . S
C112 C113 1.396 . S
C113 H67 0.929 . S
C113 C108 1.361 . S
C113 C112 1.396 . S
C114 O68 1.300 . S
C114 O69 1.209 . S
C114 C87 1.486 . S
C115 O70 1.199 . S
C115 O71 1.297 . S
C115 C99 1.476 . S
H116 O142 0.856 . S
H117 O145 0.854 . S
H118 C153 0.930 . S
H119 C154 0.930 1_565 S
H120 C156 0.930 . S
H121 C157 0.930 . S
H122 C159 0.931 . S
H123 C160 0.930 . S
H124 C162 0.930 . S
H125 C163 0.929 . S
H126 C165 0.930 . S
H127 C166 0.931 . S
H128 C168 0.930 . S
H129 C169 0.929 . S
H130 C171 0.931 . S
H131 C172 0.930 . S
H132 C174 0.930 . S
H133 C175 0.932 . S
H134 C177 0.930 . S
H135 C178 0.929 . S
H136 C180 0.931 . S
H137 C181 0.930 . S
H138 C183 0.929 . S
H139 C184 0.931 . S
H140 C186 0.930 . S
H141 C187 0.929 . S
O142 H116 0.856 . S
O142 C188 1.300 . S
O143 C188 1.209 . S
O144 C189 1.199 . S
O145 H117 0.854 . S
O145 C189 1.297 . S
C146 C147 1.404 . S
C146 C151 1.397 . S
C146 C152 1.492 . S
C147 C146 1.404 . S
C147 C148 1.396 . S
C147 C158 1.492 . S
C148 C147 1.396 . S
C148 C149 1.397 . S
C148 C164 1.509 . S
C149 C148 1.397 . S
C149 C150 1.412 . S
C149 C170 1.485 . S
C150 C149 1.412 . S
C150 C151 1.388 . S
C150 C176 1.490 . S
C151 C146 1.397 . S
C151 C150 1.388 . S
C151 C182 1.519 . S
C152 C146 1.492 . S
C152 C153 1.363 . S
C152 C157 1.390 . S
C153 H118 0.930 . S
C153 C152 1.363 . S
C153 C154 1.372 . S
C154 H119 0.930 1_545 S
C154 C153 1.372 . S
C154 C155 1.383 . S
C155 C154 1.383 . S
C155 C156 1.395 . S
C156 H120 0.930 . S
C156 C155 1.395 . S
C156 C157 1.362 . S
C157 H121 0.930 . S
C157 C152 1.390 . S
C157 C156 1.362 . S
C158 C147 1.492 . S
C158 C159 1.377 . S
C158 C163 1.397 . S
C159 H122 0.931 . S
C159 C158 1.377 . S
C159 C160 1.376 . S
C160 H123 0.930 . S
C160 C159 1.376 . S
C160 C161 1.376 . S
C161 C160 1.376 . S
C161 C162 1.378 . S
C161 C188 1.486 . S
C162 H124 0.930 . S
C162 C161 1.378 . S
C162 C163 1.376 . S
C163 H125 0.929 . S
C163 C158 1.397 . S
C163 C162 1.376 . S
C164 C148 1.509 . S
C164 C165 1.391 . S
C164 C169 1.386 . S
C165 H126 0.930 . S
C165 C164 1.391 . S
C165 C166 1.375 . S
C166 H127 0.931 . S
C166 C165 1.375 . S
C166 C167 1.375 . S
C167 C166 1.375 . S
C167 C168 1.361 . S
C168 H128 0.930 . S
C168 C167 1.361 . S
C168 C169 1.399 . S
C169 H129 0.929 . S
C169 C164 1.386 . S
C169 C168 1.399 . S
C170 C149 1.485 . S
C170 C171 1.394 . S
C170 C175 1.360 . S
C171 H130 0.931 . S
C171 C170 1.394 . S
C171 C172 1.372 . S
C172 H131 0.930 . S
C172 C171 1.372 . S
C172 C173 1.397 . S
C173 C172 1.397 . S
C173 C174 1.390 . S
C173 C189 1.476 . S
C174 H132 0.930 . S
C174 C173 1.390 . S
C174 C175 1.366 . S
C175 H133 0.932 . S
C175 C170 1.360 . S
C175 C174 1.366 . S
C176 C150 1.490 . S
C176 C177 1.380 . S
C176 C181 1.386 . S
C177 H134 0.930 . S
C177 C176 1.380 . S
C177 C178 1.381 . S
C178 H135 0.929 . S
C178 C177 1.381 . S
C178 C179 1.371 . S
C179 C178 1.371 . S
C179 C180 1.380 . S
C180 H136 0.931 . S
C180 C179 1.380 . S
C180 C181 1.387 . S
C181 H137 0.930 . S
C181 C176 1.386 . S
C181 C180 1.387 . S
C182 C151 1.519 . S
C182 C183 1.377 . S
C182 C187 1.361 . S
C183 H138 0.929 . S
C183 C182 1.377 . S
C183 C184 1.386 . S
C184 H139 0.931 . S
C184 C183 1.386 . S
C184 C185 1.363 . S
C185 C184 1.363 . S
C185 C186 1.385 . S
C186 H140 0.930 . S
C186 C185 1.385 . S
C186 C187 1.396 . S
C187 H141 0.929 . S
C187 C182 1.361 . S
C187 C186 1.396 . S
C188 O142 1.300 . S
C188 O143 1.209 . S
C188 C161 1.486 . S
C189 O144 1.199 . S
C189 O145 1.297 . S
C189 C173 1.476 . S
H190 O216 0.856 . S
H191 O219 0.854 . S
H192 C227 0.930 . S
H193 C228 0.930 . S
H194 C230 0.930 . S
H195 C231 0.930 . S
H196 C233 0.931 . S
H197 C234 0.930 . S
H198 C236 0.930 . S
H199 C237 0.929 . S
H200 C239 0.930 . S
H201 C240 0.931 . S
H202 C242 0.930 . S
H203 C243 0.929 . S
H204 C245 0.931 . S
H205 C246 0.930 . S
H206 C248 0.930 . S
H207 C249 0.932 . S
H208 C251 0.930 . S
H209 C252 0.929 . S
H210 C254 0.931 . S
H211 C255 0.930 . S
H212 C257 0.929 . S
H213 C258 0.931 . S
H214 C260 0.930 . S
H215 C261 0.929 . S
O216 H190 0.856 . S
O216 C262 1.300 . S
O217 C262 1.209 . S
O218 C263 1.199 . S
O219 H191 0.854 . S
O219 C263 1.297 . S
C220 C221 1.404 . S
C220 C225 1.397 . S
C220 C226 1.492 . S
C221 C220 1.404 . S
C221 C222 1.396 . S
C221 C232 1.492 . S
C222 C221 1.396 . S
C222 C223 1.397 . S
C222 C238 1.509 . S
C223 C222 1.397 . S
C223 C224 1.412 . S
C223 C244 1.485 . S
C224 C223 1.412 . S
C224 C225 1.388 . S
C224 C250 1.490 . S
C225 C220 1.397 . S
C225 C224 1.388 . S
C225 C256 1.519 . S
C226 C220 1.492 . S
C226 C227 1.363 . S
C226 C231 1.390 . S
C227 H192 0.930 . S
C227 C226 1.363 . S
C227 C228 1.372 . S
C228 H193 0.930 . S
C228 C227 1.372 . S
C228 C229 1.383 . S
C229 C228 1.383 . S
C229 C230 1.395 . S
C230 H194 0.930 . S
C230 C229 1.395 . S
C230 C231 1.362 . S
C231 H195 0.930 . S
C231 C226 1.390 . S
C231 C230 1.362 . S
C232 C221 1.492 . S
C232 C233 1.377 . S
C232 C237 1.397 . S
C233 H196 0.931 . S
C233 C232 1.377 . S
C233 C234 1.376 1_556 S
C234 H197 0.930 . S
C234 C233 1.376 1_554 S
C234 C235 1.376 . S
C235 C234 1.376 . S
C235 C236 1.378 . S
C235 C262 1.486 . S
C236 H198 0.930 . S
C236 C235 1.378 . S
C236 C237 1.376 1_554 S
C237 H199 0.929 . S
C237 C232 1.397 . S
C237 C236 1.376 1_556 S
C238 C222 1.509 . S
C238 C239 1.391 . S
C238 C243 1.386 . S
C239 H200 0.930 . S
C239 C238 1.391 . S
C239 C240 1.375 . S
C240 H201 0.931 . S
C240 C239 1.375 . S
C240 C241 1.375 . S
C241 C240 1.375 . S
C241 C242 1.361 . S
C242 H202 0.930 . S
C242 C241 1.361 . S
C242 C243 1.399 . S
C243 H203 0.929 . S
C243 C238 1.386 . S
C243 C242 1.399 . S
C244 C223 1.485 . S
C244 C245 1.394 . S
C244 C249 1.360 . S
C245 H204 0.931 . S
C245 C244 1.394 . S
C245 C246 1.372 . S
C246 H205 0.930 . S
C246 C245 1.372 . S
C246 C247 1.397 . S
C247 C246 1.397 . S
C247 C248 1.390 . S
C247 C263 1.476 . S
C248 H206 0.930 . S
C248 C247 1.390 . S
C248 C249 1.366 . S
C249 H207 0.932 . S
C249 C244 1.360 . S
C249 C248 1.366 . S
C250 C224 1.490 . S
C250 C251 1.380 . S
C250 C255 1.386 . S
C251 H208 0.930 . S
C251 C250 1.380 . S
C251 C252 1.381 . S
C252 H209 0.929 . S
C252 C251 1.381 . S
C252 C253 1.371 . S
C253 C252 1.371 . S
C253 C254 1.380 . S
C254 H210 0.931 . S
C254 C253 1.380 . S
C254 C255 1.387 . S
C255 H211 0.930 . S
C255 C250 1.386 . S
C255 C254 1.387 . S
C256 C225 1.519 . S
C256 C257 1.377 . S
C256 C261 1.361 . S
C257 H212 0.929 . S
C257 C256 1.377 . S
C257 C258 1.386 . S
C258 H213 0.931 . S
C258 C257 1.386 . S
C258 C259 1.363 . S
C259 C258 1.363 . S
C259 C260 1.385 . S
C260 H214 0.930 . S
C260 C259 1.385 . S
C260 C261 1.396 . S
C261 H215 0.929 . S
C261 C256 1.361 . S
C261 C260 1.396 . S
C262 O216 1.300 . S
C262 O217 1.209 . S
C262 C235 1.486 . S
C263 O218 1.199 . S
C263 O219 1.297 . S
C263 C247 1.476 . S
H264 C265 0.951 . S
C265 H264 0.951 . S
C265 C271 1.265 . S
H266 C271 0.950 . S
H267 C275 0.949 . S
H268 C276 0.950 . S
H269 C277 0.951 . S
H270 C278 0.951 . S
C271 C265 1.265 . S
C271 H266 0.950 . S
C271 C272 1.478 . S
C272 C271 1.478 . S
C272 C273 1.397 . S
C272 C289 1.394 . S
C273 C272 1.397 . S
C273 C274 1.438 . S
C273 C278 1.429 . S
C274 C273 1.438 . S
C274 C275 1.428 . S
C274 C287 1.394 . S
C275 H267 0.949 . S
C275 C274 1.428 . S
C275 C276 1.345 . S
C276 H268 0.950 . S
C276 C275 1.345 . S
C276 C277 1.424 . S
C277 H269 0.951 . S
C277 C276 1.424 . S
C277 C278 1.347 . S
C278 H270 0.951 . S
C278 C273 1.429 . S
C278 C277 1.347 . S
H279 C280 0.951 . S
C280 H279 0.951 . S
C280 C286 1.265 . S
H281 C286 0.950 1_655 S
H282 C290 0.941 1_455 S
H283 C291 0.950 . S
H284 C292 0.951 . S
H285 C293 0.951 . S
C286 C280 1.265 . S
C286 H281 0.950 1_455 S
C286 C287 1.478 . S
C287 C274 1.394 . S
C287 C286 1.478 . S
C287 C288 1.397 . S
C288 C287 1.397 . S
C288 C289 1.438 . S
C288 C293 1.429 1_455 S
C289 C272 1.394 . S
C289 C288 1.438 . S
C289 C290 1.428 1_455 S
C290 H282 0.941 1_655 S
C290 C289 1.428 1_655 S
C290 C291 1.353 . S
C291 H283 0.950 . S
C291 C290 1.353 . S
C291 C292 1.424 . S
C292 H284 0.951 . S
C292 C291 1.424 . S
C292 C293 1.347 . S
C293 H285 0.951 . S
C293 C288 1.429 1_655 S
C293 C292 1.347 . S
H294 C295 0.951 . S
C295 H294 0.951 . S
C295 C301 1.265 . S
H296 C301 0.950 . S
H297 C305 0.949 . S
H298 C306 0.950 . S
H299 C307 0.951 . S
H300 C308 0.951 . S
C301 C295 1.265 . S
C301 H296 0.950 . S
C301 C302 1.478 . S
C302 C301 1.478 . S
C302 C303 1.397 . S
C302 C319 1.394 . S
C303 C302 1.397 . S
C303 C304 1.438 . S
C303 C308 1.429 1_545 S
C304 C303 1.438 . S
C304 C305 1.428 1_545 S
C304 C317 1.394 . S
C305 H297 0.949 . S
C305 C304 1.428 1_565 S
C305 C306 1.345 . S
C306 H298 0.950 . S
C306 C305 1.345 . S
C306 C307 1.424 . S
C307 H299 0.951 . S
C307 C306 1.424 . S
C307 C308 1.347 . S
C308 H300 0.951 . S
C308 C303 1.429 1_565 S
C308 C307 1.347 . S
H309 C310 0.951 . S
C310 H309 0.951 . S
C310 C316 1.265 . S
H311 C316 0.950 . S
H312 C320 0.949 . S
H313 C321 0.950 . S
H314 C322 0.951 1_455 S
H315 C323 0.951 . S
C316 C310 1.265 . S
C316 H311 0.950 . S
C316 C317 1.478 . S
C317 C304 1.394 . S
C317 C316 1.478 . S
C317 C318 1.397 . S
C318 C317 1.397 . S
C318 C319 1.438 . S
C318 C323 1.429 . S
C319 C302 1.394 . S
C319 C318 1.438 . S
C319 C320 1.428 . S
C320 H312 0.949 . S
C320 C319 1.428 . S
C320 C321 1.345 1_655 S
C321 H313 0.950 . S
C321 C320 1.345 1_455 S
C321 C322 1.424 1_455 S
C322 H314 0.951 1_655 S
C322 C321 1.424 1_655 S
C322 C323 1.347 . S
C323 H315 0.951 . S
C323 C318 1.429 . S
C323 C322 1.347 . S
H324 C325 0.951 . S
C325 H324 0.951 . S
C325 C331 1.265 . S
H326 C331 0.950 1_455 S
H327 C335 0.949 . S
H328 C336 0.950 . S
H329 C337 0.951 . S
H330 C338 0.951 1_545 S
C331 C325 1.265 . S
C331 H326 0.950 1_655 S
C331 C332 1.478 . S
C332 C331 1.478 . S
C332 C333 1.397 . S
C332 C349 1.394 . S
C333 C332 1.397 . S
C333 C334 1.438 . S
C333 C338 1.429 . S
C334 C333 1.438 . S
C334 C335 1.428 . S
C334 C347 1.394 . S
C335 H327 0.949 . S
C335 C334 1.428 . S
C335 C336 1.345 . S
C336 H328 0.950 . S
C336 C335 1.345 . S
C336 C337 1.424 1_565 S
C337 H329 0.951 . S
C337 C336 1.424 1_545 S
C337 C338 1.347 1_545 S
C338 H330 0.951 1_565 S
C338 C333 1.429 . S
C338 C337 1.347 1_565 S
H339 C340 0.951 . S
C340 H339 0.951 . S
C340 C346 1.265 . S
H341 C346 0.950 . S
H342 C350 0.949 . S
H343 C351 0.950 . S
H344 C352 0.951 . S
H345 C353 0.951 . S
C346 C340 1.265 . S
C346 H341 0.950 . S
C346 C347 1.478 . S
C347 C334 1.394 . S
C347 C346 1.478 . S
C347 C348 1.397 . S
C348 C347 1.397 . S
C348 C349 1.438 . S
C348 C353 1.429 . S
C349 C332 1.394 . S
C349 C348 1.438 . S
C349 C350 1.428 . S
C350 H342 0.949 . S
C350 C349 1.428 . S
C350 C351 1.345 . S
C351 H343 0.950 . S
C351 C350 1.345 . S
C351 C352 1.424 . S
C352 H344 0.951 . S
C352 C351 1.424 . S
C352 C353 1.347 . S
C353 H345 0.951 . S
C353 C348 1.429 . S
C353 C352 1.347 . S
H354 C355 0.951 1_545 S
C355 H354 0.951 1_565 S
C355 C361 1.265 . S
H356 C361 0.950 . S
H357 C365 0.949 . S
H358 C366 0.950 . S
H359 C367 0.951 . S
H360 C368 0.951 . S
C361 C355 1.265 . S
C361 H356 0.950 . S
C361 C362 1.478 . S
C362 C361 1.478 . S
C362 C363 1.397 . S
C362 C379 1.394 . S
C363 C362 1.397 . S
C363 C364 1.438 . S
C363 C368 1.429 . S
C364 C363 1.438 . S
C364 C365 1.428 . S
C364 C377 1.394 . S
C365 H357 0.949 . S
C365 C364 1.428 . S
C365 C366 1.345 . S
C366 H358 0.950 . S
C366 C365 1.345 . S
C366 C367 1.424 . S
C367 H359 0.951 . S
C367 C366 1.424 . S
C367 C368 1.347 . S
C368 H360 0.951 . S
C368 C363 1.429 . S
C368 C367 1.347 . S
H369 C370 0.951 . S
C370 H369 0.951 . S
C370 C376 1.265 . S
H371 C376 0.950 . S
H372 C380 0.949 . S
H373 C381 0.950 . S
H374 C382 0.951 . S
H375 C383 0.951 . S
C376 C370 1.265 . S
C376 H371 0.950 . S
C376 C377 1.478 . S
C377 C364 1.394 . S
C377 C376 1.478 . S
C377 C378 1.397 . S
C378 C377 1.397 . S
C378 C379 1.438 . S
C378 C383 1.429 1_455 S
C379 C362 1.394 . S
C379 C378 1.438 . S
C379 C380 1.428 1_455 S
C380 H372 0.949 . S
C380 C379 1.428 1_655 S
C380 C381 1.345 . S
C381 H373 0.950 . S
C381 C380 1.345 . S
C381 C382 1.424 . S
C382 H374 0.951 . S
C382 C381 1.424 . S
C382 C383 1.347 . S
C383 H375 0.951 . S
C383 C378 1.429 1_655 S
C383 C382 1.347 . S
H384 C385 0.951 . S
C385 H384 0.951 . S
C385 C391 1.265 . S
H386 C391 0.950 . S
H387 C395 0.949 . S
H388 C396 0.950 . S
H389 C397 0.951 . S
H390 C398 0.951 . S
C391 C385 1.265 . S
C391 H386 0.950 . S
C391 C392 1.478 . S
C392 C391 1.478 . S
C392 C393 1.397 . S
C392 C409 1.394 . S
C393 C392 1.397 . S
C393 C394 1.438 . S
C393 C398 1.429 . S
C394 C393 1.438 . S
C394 C395 1.428 . S
C394 C407 1.394 . S
C395 H387 0.949 . S
C395 C394 1.428 . S
C395 C396 1.345 . S
C396 H388 0.950 . S
C396 C395 1.345 . S
C396 C397 1.424 . S
C397 H389 0.951 . S
C397 C396 1.424 . S
C397 C398 1.347 . S
C398 H390 0.951 . S
C398 C393 1.429 . S
C398 C397 1.347 . S
H399 C400 0.951 . S
C400 H399 0.951 . S
C400 C406 1.265 . S
H401 C406 0.950 . S
H402 C410 0.949 1_565 S
H403 C411 0.950 . S
H404 C412 0.951 . S
H405 C413 0.951 . S
C406 C400 1.265 . S
C406 H401 0.950 . S
C406 C407 1.478 . S
C407 C394 1.394 . S
C407 C406 1.478 . S
C407 C408 1.397 . S
C408 C407 1.397 . S
C408 C409 1.438 . S
C408 C413 1.429 . S
C409 C392 1.394 . S
C409 C408 1.438 . S
C409 C410 1.428 . S
C410 H402 0.949 1_545 S
C410 C409 1.428 . S
C410 C411 1.345 1_545 S
C411 H403 0.950 . S
C411 C410 1.345 1_565 S
C411 C412 1.424 . S
C412 H404 0.951 . S
C412 C411 1.424 . S
C412 C413 1.347 1_565 S
C413 H405 0.951 . S
C413 C408 1.429 . S
C413 C412 1.347 1_545 S
H414 C415 0.951 . S
C415 H414 0.951 . S
C415 C421 1.265 . S
H416 C421 0.950 . S
H417 C425 0.949 . S
H418 C426 0.950 . S
H419 C427 0.951 . S
H420 C428 0.951 . S
C421 C415 1.265 . S
C421 H416 0.950 . S
C421 C422 1.478 . S
C422 C421 1.478 . S
C422 C423 1.397 . S
C422 C439 1.394 . S
C423 C422 1.397 . S
C423 C424 1.438 . S
C423 C428 1.429 . S
C424 C423 1.438 . S
C424 C425 1.428 . S
C424 C437 1.394 . S
C425 H417 0.949 . S
C425 C424 1.428 . S
C425 C426 1.345 . S
C426 H418 0.950 . S
C426 C425 1.345 . S
C426 C427 1.424 . S
C427 H419 0.951 . S
C427 C426 1.424 . S
C427 C428 1.347 . S
C428 H420 0.951 . S
C428 C423 1.429 . S
C428 C427 1.347 . S
H429 C430 0.951 . S
C430 H429 0.951 . S
C430 C436 1.265 . S
H431 C436 0.950 . S
H432 C440 0.949 . S
H433 C441 0.950 . S
H434 C442 0.951 . S
H435 C443 0.951 . S
C436 C430 1.265 . S
C436 H431 0.950 . S
C436 C437 1.478 . S
C437 C424 1.394 . S
C437 C436 1.478 . S
C437 C438 1.397 . S
C438 C437 1.397 . S
C438 C439 1.438 . S
C438 C443 1.429 . S
C439 C422 1.394 . S
C439 C438 1.438 . S
C439 C440 1.428 . S
C440 H432 0.949 . S
C440 C439 1.428 . S
C440 C441 1.345 . S
C441 H433 0.950 . S
C441 C440 1.345 . S
C441 C442 1.424 . S
C442 H434 0.951 . S
C442 C441 1.424 . S
C442 C443 1.347 . S
C443 H435 0.951 . S
C443 C438 1.429 . S
C443 C442 1.347 . S
H444 C445 0.951 . S
C445 H444 0.951 . S
C445 C451 1.265 . S
H446 C451 0.950 1_455 S
H447 C455 0.949 . S
H448 C456 0.950 . S
H449 C457 0.951 . S
H450 C458 0.951 . S
C451 C445 1.265 . S
C451 H446 0.950 1_655 S
C451 C452 1.478 . S
C452 C451 1.478 . S
C452 C453 1.397 . S
C452 C469 1.394 . S
C453 C452 1.397 . S
C453 C454 1.438 . S
C453 C458 1.429 . S
C454 C453 1.438 . S
C454 C455 1.428 . S
C454 C467 1.394 . S
C455 H447 0.949 . S
C455 C454 1.428 . S
C455 C456 1.345 1_545 S
C456 H448 0.950 . S
C456 C455 1.345 1_565 S
C456 C457 1.424 . S
C457 H449 0.951 . S
C457 C456 1.424 . S
C457 C458 1.347 1_565 S
C458 H450 0.951 . S
C458 C453 1.429 . S
C458 C457 1.347 1_545 S
H459 C460 0.951 . S
C460 H459 0.951 . S
C460 C466 1.265 . S
H461 C466 0.950 . S
H462 C470 0.949 . S
H463 C471 0.950 . S
H464 C472 0.951 . S
H465 C473 0.951 . S
C466 C460 1.265 . S
C466 H461 0.950 . S
C466 C467 1.478 . S
C467 C454 1.394 . S
C467 C466 1.478 . S
C467 C468 1.397 . S
C468 C467 1.397 . S
C468 C469 1.438 . S
C468 C473 1.429 . S
C469 C452 1.394 . S
C469 C468 1.438 . S
C469 C470 1.428 . S
C470 H462 0.949 . S
C470 C469 1.428 . S
C470 C471 1.345 . S
C471 H463 0.950 . S
C471 C470 1.345 . S
C471 C472 1.424 . S
C472 H464 0.951 . S
C472 C471 1.424 . S
C472 C473 1.347 . S
C473 H465 0.951 . S
C473 C468 1.429 . S
C473 C472 1.347 . S
H474 C475 0.951 . S
C475 H474 0.951 . S
C475 C481 1.265 . S
H476 C481 0.950 1_445 S
H477 C485 0.949 . S
H478 C486 0.950 . S
H479 C487 0.951 1_455 S
H480 C488 0.951 1_455 S
C481 C475 1.265 . S
C481 H476 0.950 1_665 S
C481 C482 1.478 . S
C482 C481 1.478 . S
C482 C483 1.397 . S
C482 C499 1.394 . S
C483 C482 1.397 . S
C483 C484 1.438 . S
C483 C488 1.429 . S
C484 C483 1.438 . S
C484 C485 1.428 1_554 S
C484 C497 1.394 . S
C485 H477 0.949 . S
C485 C484 1.428 1_556 S
C485 C486 1.345 . S
C486 H478 0.950 . S
C486 C485 1.345 . S
C486 C487 1.424 1_556 S
C487 H479 0.951 1_655 S
C487 C486 1.424 1_554 S
C487 C488 1.347 . S
C488 H480 0.951 1_655 S
C488 C483 1.429 . S
C488 C487 1.347 . S
H489 C490 0.951 . S
C490 H489 0.951 . S
C490 C496 1.265 . S
H491 C496 0.950 . S
H492 C500 0.949 1_545 S
H493 C501 0.950 1_545 S
H494 C502 0.951 . S
H495 C503 0.951 . S
C496 C490 1.265 . S
C496 H491 0.950 . S
C496 C497 1.478 1_556 S
C497 C484 1.394 . S
C497 C496 1.478 1_554 S
C497 C498 1.397 . S
C498 C497 1.397 . S
C498 C499 1.438 . S
C498 C503 1.429 . S
C499 C482 1.394 . S
C499 C498 1.438 . S
C499 C500 1.428 . S
C500 H492 0.949 1_565 S
C500 C499 1.428 . S
C500 C501 1.345 . S
C501 H493 0.950 1_565 S
C501 C500 1.345 . S
C501 C502 1.424 . S
C502 H494 0.951 . S
C502 C501 1.424 . S
C502 C503 1.347 . S
C503 H495 0.951 . S
C503 C498 1.429 . S
C503 C502 1.347 . S
H504 C505 0.951 . S
C505 H504 0.951 . S
C505 C511 1.265 . S
H506 C511 0.950 . S
H507 C515 0.949 . S
H508 C516 0.950 . S
H509 C517 0.951 . S
H510 C518 0.951 . S
C511 C505 1.265 . S
C511 H506 0.950 . S
C511 C512 1.478 . S
C512 C511 1.478 . S
C512 C513 1.397 . S
C512 C529 1.394 . S
C513 C512 1.397 . S
C513 C514 1.438 . S
C513 C518 1.429 . S
C514 C513 1.438 . S
C514 C515 1.428 . S
C514 C527 1.394 . S
C515 H507 0.949 . S
C515 C514 1.428 . S
C515 C516 1.345 . S
C516 H508 0.950 . S
C516 C515 1.345 . S
C516 C517 1.424 . S
C517 H509 0.951 . S
C517 C516 1.424 . S
C517 C518 1.347 . S
C518 H510 0.951 . S
C518 C513 1.429 . S
C518 C517 1.347 . S
H519 C520 0.951 . S
C520 H519 0.951 . S
C520 C526 1.265 . S
H521 C526 0.950 1_655 S
H522 C530 0.951 1_455 S
H523 C531 0.950 . S
H524 C532 0.951 . S
H525 C533 0.951 . S
C526 C520 1.265 . S
C526 H521 0.950 1_455 S
C526 C527 1.478 . S
C527 C514 1.394 . S
C527 C526 1.478 . S
C527 C528 1.380 1_455 S
C528 C527 1.380 1_655 S
C528 C529 1.442 1_655 S
C528 C533 1.443 . S
C529 C512 1.394 . S
C529 C528 1.442 1_455 S
C529 C530 1.428 1_455 S
C530 H522 0.951 1_655 S
C530 C529 1.428 1_655 S
C530 C531 1.345 . S
C531 H523 0.950 . S
C531 C530 1.345 . S
C531 C532 1.424 . S
C532 H524 0.951 . S
C532 C531 1.424 . S
C532 C533 1.347 . S
C533 H525 0.951 . S
C533 C528 1.443 . S
C533 C532 1.347 . S
H534 C535 0.951 . S
C535 H534 0.951 . S
C535 C541 1.265 . S
H536 C541 0.950 . S
H537 C545 0.949 . S
H538 C546 0.950 . S
H539 C547 0.951 . S
H540 C548 0.951 . S
C541 C535 1.265 . S
C541 H536 0.950 . S
C541 C542 1.478 . S
C542 C541 1.478 . S
C542 C543 1.397 . S
C542 C559 1.394 . S
C543 C542 1.397 . S
C543 C544 1.438 . S
C543 C548 1.429 . S
C544 C543 1.438 . S
C544 C545 1.428 . S
C544 C557 1.394 . S
C545 H537 0.949 . S
C545 C544 1.428 . S
C545 C546 1.345 . S
C546 H538 0.950 . S
C546 C545 1.345 . S
C546 C547 1.424 . S
C547 H539 0.951 . S
C547 C546 1.424 . S
C547 C548 1.347 . S
C548 H540 0.951 . S
C548 C543 1.429 . S
C548 C547 1.347 . S
H549 C550 0.951 . S
C550 H549 0.951 . S
C550 C556 1.265 . S
H551 C556 0.950 . S
H552 C560 0.949 . S
H553 C561 0.950 . S
H554 C562 0.951 . S
H555 C563 0.951 . S
C556 C550 1.265 . S
C556 H551 0.950 . S
C556 C557 1.478 . S
C557 C544 1.394 . S
C557 C556 1.478 . S
C557 C558 1.397 . S
C558 C557 1.397 . S
C558 C559 1.438 . S
C558 C563 1.429 1_545 S
C559 C542 1.394 . S
C559 C558 1.438 . S
C559 C560 1.428 1_545 S
C560 H552 0.949 . S
C560 C559 1.428 1_565 S
C560 C561 1.345 . S
C561 H553 0.950 . S
C561 C560 1.345 . S
C561 C562 1.424 . S
C562 H554 0.951 . S
C562 C561 1.424 . S
C562 C563 1.347 . S
C563 H555 0.951 . S
C563 C558 1.429 1_565 S
C563 C562 1.347 . S
H564 C565 0.951 . S
C565 H564 0.951 . S
C565 C571 1.265 . S
H566 C571 0.950 . S
H567 C575 0.949 1_556 S
H568 C576 0.950 1_556 S
H569 C577 0.951 . S
H570 C578 0.951 . S
C571 C565 1.265 . S
C571 H566 0.950 . S
C571 C572 1.478 . S
C572 C571 1.478 . S
C572 C573 1.397 . S
C572 C589 1.394 . S
C573 C572 1.397 . S
C573 C574 1.438 . S
C573 C578 1.429 . S
C574 C573 1.438 . S
C574 C575 1.428 . S
C574 C587 1.394 . S
C575 H567 0.949 1_554 S
C575 C574 1.428 . S
C575 C576 1.345 . S
C576 H568 0.950 1_554 S
C576 C575 1.345 . S
C576 C577 1.424 . S
C577 H569 0.951 . S
C577 C576 1.424 . S
C577 C578 1.347 . S
C578 H570 0.951 . S
C578 C573 1.429 . S
C578 C577 1.347 . S
H579 C580 0.951 . S
C580 H579 0.951 . S
C580 C586 1.265 . S
H581 C586 0.950 . S
H582 C590 0.949 . S
H583 C591 0.950 . S
H584 C592 0.951 . S
H585 C593 0.951 . S
C586 C580 1.265 . S
C586 H581 0.950 . S
C586 C587 1.478 . S
C587 C574 1.394 . S
C587 C586 1.478 . S
C587 C588 1.397 . S
C588 C587 1.397 . S
C588 C589 1.438 . S
C588 C593 1.429 . S
C589 C572 1.394 . S
C589 C588 1.438 . S
C589 C590 1.428 . S
C590 H582 0.949 . S
C590 C589 1.428 . S
C590 C591 1.345 . S
C591 H583 0.950 . S
C591 C590 1.345 . S
C591 C592 1.424 . S
C592 H584 0.951 . S
C592 C591 1.424 . S
C592 C593 1.347 . S
C593 H585 0.951 . S
C593 C588 1.429 . S
C593 C592 1.347 . S
H594 C595 0.951 . S
C595 H594 0.951 . S
C595 C601 1.265 . S
H596 C601 0.950 . S
H597 C605 0.949 . S
H598 C606 0.950 . S
H599 C607 0.951 . S
H600 C608 0.951 . S
C601 C595 1.265 . S
C601 H596 0.950 . S
C601 C602 1.478 . S
C602 C601 1.478 . S
C602 C603 1.397 . S
C602 C619 1.394 . S
C603 C602 1.397 . S
C603 C604 1.438 . S
C603 C608 1.429 . S
C604 C603 1.438 . S
C604 C605 1.428 . S
C604 C617 1.394 . S
C605 H597 0.949 . S
C605 C604 1.428 . S
C605 C606 1.345 . S
C606 H598 0.950 . S
C606 C605 1.345 . S
C606 C607 1.424 . S
C607 H599 0.951 . S
C607 C606 1.424 . S
C607 C608 1.347 . S
C608 H600 0.951 . S
C608 C603 1.429 . S
C608 C607 1.347 . S
H609 C610 0.951 . S
C610 H609 0.951 . S
C610 C616 1.265 . S
H611 C616 0.950 . S
H612 C620 0.949 . S
H613 C621 0.950 1_655 S
H614 C622 0.951 . S
H615 C623 0.951 . S
C616 C610 1.265 . S
C616 H611 0.950 . S
C616 C617 1.478 . S
C617 C604 1.394 . S
C617 C616 1.478 . S
C617 C618 1.397 . S
C618 C617 1.397 . S
C618 C619 1.438 . S
C618 C623 1.429 . S
C619 C602 1.394 . S
C619 C618 1.438 . S
C619 C620 1.428 . S
C620 H612 0.949 . S
C620 C619 1.428 . S
C620 C621 1.345 . S
C621 H613 0.950 1_455 S
C621 C620 1.345 . S
C621 C622 1.424 1_455 S
C622 H614 0.951 . S
C622 C621 1.424 1_655 S
C622 C623 1.347 1_655 S
C623 H615 0.951 . S
C623 C618 1.429 . S
C623 C622 1.347 1_455 S
C280 C81 1.442 . S
C265 C3 1.534 . S
C295 C21 1.408 1_655 S
C310 C155 1.350 . S
C325 C37 2.101 1_665 S
C340 C259 2.124 . S
C355 C8 0.815 1_565 S
C370 C93 0.846 . S
C400 C167 0.817 . S
C385 C23 0.795 . S
C415 C35 1.534 . S
C430 C253 1.508 . S
C460 C185 2.124 . S
C445 C31 2.130 1_655 S
C475 C7 1.518 1_665 S
C490 C229 1.502 . S
C520 C105 1.426 . S
C505 C17 1.590 . S
C550 C179 1.306 . S
C535 C36 1.464 . S
C580 C241 0.844 1_554 S
C565 C9 0.772 . S
C595 C22 2.158 . S
C610 C111 2.161 . S
