# Generated by pormake.
# Topology eea, (3,6)-cn, num edge types: 1
# Building blocks:
#     Node 0, Type 0, BuildingBlock: ESEHIV_clean_linker_0, # of connection points: 3
#     Node 1, Type 0, BuildingBlock: ESEHIV_clean_linker_0, # of connection points: 3
#     Node 2, Type 0, BuildingBlock: ESEHIV_clean_linker_0, # of connection points: 3
#     Node 3, Type 0, BuildingBlock: ESEHIV_clean_linker_0, # of connection points: 3
#     Node 4, Type 0, BuildingBlock: ESEHIV_clean_linker_0, # of connection points: 3
#     Node 5, Type 0, BuildingBlock: ESEHIV_clean_linker_0, # of connection points: 3
#     Node 6, Type 0, BuildingBlock: ESEHIV_clean_linker_0, # of connection points: 3
#     Node 7, Type 0, BuildingBlock: ESEHIV_clean_linker_0, # of connection points: 3
#     Node 8, Type 0, BuildingBlock: ESEHIV_clean_linker_0, # of connection points: 3
#     Node 9, Type 0, BuildingBlock: ESEHIV_clean_linker_0, # of connection points: 3
#     Node 10, Type 0, BuildingBlock: ESEHIV_clean_linker_0, # of connection points: 3
#     Node 11, Type 0, BuildingBlock: ESEHIV_clean_linker_0, # of connection points: 3
#     Node 12, Type 0, BuildingBlock: ESEHIV_clean_linker_0, # of connection points: 3
#     Node 13, Type 0, BuildingBlock: ESEHIV_clean_linker_0, # of connection points: 3
#     Node 14, Type 0, BuildingBlock: ESEHIV_clean_linker_0, # of connection points: 3
#     Node 15, Type 0, BuildingBlock: ESEHIV_clean_linker_0, # of connection points: 3
#     Node 16, Type 0, BuildingBlock: ESEHIV_clean_linker_0, # of connection points: 3
#     Node 17, Type 0, BuildingBlock: ESEHIV_clean_linker_0, # of connection points: 3
#     Node 18, Type 1, BuildingBlock: HISSIN_clean_sbu_0, # of connection points: 6
#     Node 19, Type 1, BuildingBlock: HISSIN_clean_sbu_0, # of connection points: 6
#     Node 20, Type 1, BuildingBlock: HISSIN_clean_sbu_0, # of connection points: 6
#     Node 21, Type 1, BuildingBlock: HISSIN_clean_sbu_0, # of connection points: 6
#     Node 22, Type 1, BuildingBlock: HISSIN_clean_sbu_0, # of connection points: 6
#     Node 23, Type 1, BuildingBlock: HISSIN_clean_sbu_0, # of connection points: 6
#     Node 24, Type 1, BuildingBlock: HISSIN_clean_sbu_0, # of connection points: 6
#     Node 25, Type 1, BuildingBlock: HISSIN_clean_sbu_0, # of connection points: 6
#     Node 26, Type 1, BuildingBlock: HISSIN_clean_sbu_0, # of connection points: 6
#     Edge 27, Type (0, 1), None
#     Edge 28, Type (0, 1), None
#     Edge 29, Type (0, 1), None
#     Edge 30, Type (0, 1), None
#     Edge 31, Type (0, 1), None
#     Edge 32, Type (0, 1), None
#     Edge 33, Type (0, 1), None
#     Edge 34, Type (0, 1), None
#     Edge 35, Type (0, 1), None
#     Edge 36, Type (0, 1), None
#     Edge 37, Type (0, 1), None
#     Edge 38, Type (0, 1), None
#     Edge 39, Type (0, 1), None
#     Edge 40, Type (0, 1), None
#     Edge 41, Type (0, 1), None
#     Edge 42, Type (0, 1), None
#     Edge 43, Type (0, 1), None
#     Edge 44, Type (0, 1), None
#     Edge 45, Type (0, 1), None
#     Edge 46, Type (0, 1), None
#     Edge 47, Type (0, 1), None
#     Edge 48, Type (0, 1), None
#     Edge 49, Type (0, 1), None
#     Edge 50, Type (0, 1), None
#     Edge 51, Type (0, 1), None
#     Edge 52, Type (0, 1), None
#     Edge 53, Type (0, 1), None
#     Edge 54, Type (0, 1), None
#     Edge 55, Type (0, 1), None
#     Edge 56, Type (0, 1), None
#     Edge 57, Type (0, 1), None
#     Edge 58, Type (0, 1), None
#     Edge 59, Type (0, 1), None
#     Edge 60, Type (0, 1), None
#     Edge 61, Type (0, 1), None
#     Edge 62, Type (0, 1), None
#     Edge 63, Type (0, 1), None
#     Edge 64, Type (0, 1), None
#     Edge 65, Type (0, 1), None
#     Edge 66, Type (0, 1), None
#     Edge 67, Type (0, 1), None
#     Edge 68, Type (0, 1), None
#     Edge 69, Type (0, 1), None
#     Edge 70, Type (0, 1), None
#     Edge 71, Type (0, 1), None
#     Edge 72, Type (0, 1), None
#     Edge 73, Type (0, 1), None
#     Edge 74, Type (0, 1), None
#     Edge 75, Type (0, 1), None
#     Edge 76, Type (0, 1), None
#     Edge 77, Type (0, 1), None
#     Edge 78, Type (0, 1), None
#     Edge 79, Type (0, 1), None
#     Edge 80, Type (0, 1), None
# Relax obj value: 0.031
# Max RMSD: 0.210
# Mean RMSD: 0.169
data_MOF--net-eea--node1-HISSIN_clean_sbu_0--node2-ESEHIV_clean_linker_0--edge1-none
_symmetry_space_group_name_H-M    P1
_symmetry_Int_Tables_number       1
_symmetry_cell_setting            triclinic
loop_
_symmetry_equiv_pos_as_xyz
'x, y, z'
_cell_length_a     19.842761
_cell_length_b     19.947383
_cell_length_c     37.358668
_cell_angle_alpha  91.395506
_cell_angle_beta   90.583937
_cell_angle_gamma 120.11183
loop_
_atom_site_label
_atom_site_type_symbol
_atom_site_fract_x
_atom_site_fract_y
_atom_site_fract_z
_atom_type_partial_charge
H0 H 0.25948 0.22544 0.46196 0.0
H1 H 0.25357 0.00772 0.46294 0.0
H2 H 0.15467 0.06193 0.3728 0.0
C3 C 0.24387 0.17029 0.44889 0.0
C4 C 0.20464 0.14986 0.41535 0.0
C5 C 0.26156 0.11923 0.46612 0.0
C6 C 0.23979 0.04724 0.44963 0.0
C7 C 0.20185 0.02631 0.41596 0.0
C8 C 0.18551 0.07845 0.3985 0.0
H9 H 0.72624 0.00821 0.46281 0.0
H10 H 0.93859 0.22665 0.4614 0.0
H11 H 0.88206 0.05696 0.37535 0.0
C12 C 0.7798 0.04709 0.44964 0.0
C13 C 0.79768 0.02404 0.41707 0.0
C14 C 0.83035 0.11966 0.46581 0.0
C15 C 0.89926 0.17072 0.44861 0.0
C16 C 0.91888 0.14843 0.41591 0.0
C17 C 0.86774 0.07466 0.40045 0.0
H18 H 0.72444 0.69057 0.46318 0.0
H19 H 0.93723 0.68347 0.46105 0.0
H20 H 0.87888 0.78811 0.37538 0.0
C21 C 0.77837 0.70418 0.4503 0.0
C22 C 0.79587 0.74167 0.41751 0.0
C23 C 0.82834 0.68185 0.46605 0.0
C24 C 0.89748 0.69882 0.44859 0.0
C25 C 0.9169 0.73803 0.41596 0.0
C26 C 0.86498 0.75822 0.40043 0.0
H27 H 0.00363 0.25163 0.61671 0.0
H28 H 0.2226 0.25656 0.61944 0.0
H29 H 0.06074 0.15153 0.70441 0.0
C30 C 0.04429 0.23852 0.62998 0.0
C31 C 0.02434 0.20014 0.66265 0.0
C32 C 0.11599 0.2596 0.61419 0.0
C33 C 0.16729 0.24064 0.63145 0.0
C34 C 0.14781 0.20114 0.66388 0.0
C35 C 0.07647 0.18194 0.6795 0.0
H36 H 0.68482 0.93112 0.6176 0.0
H37 H 0.67869 0.71372 0.61857 0.0
H38 H 0.79576 0.88286 0.70488 0.0
C39 C 0.7001 0.8925 0.63072 0.0
C40 C 0.74234 0.91556 0.66335 0.0
C41 C 0.67761 0.82029 0.61438 0.0
C42 C 0.69601 0.76945 0.63145 0.0
C43 C 0.73932 0.79162 0.66408 0.0
C44 C 0.76261 0.86517 0.67979 0.0
H45 H -0.00022 0.7144 0.61704 0.0
H46 H 0.21369 0.93224 0.61599 0.0
H47 H 0.06417 0.87793 0.70631 0.0
C48 C 0.0406 0.76946 0.63016 0.0
C49 C 0.02364 0.78999 0.66386 0.0
C50 C 0.10926 0.82049 0.6129 0.0
C51 C 0.16063 0.89263 0.62932 0.0
C52 C 0.14513 0.91354 0.66298 0.0
C53 C 0.07721 0.86137 0.68058 0.0
H54 H 0.92615 0.55877 0.7953 0.0
H55 H 0.92024 0.34106 0.79627 0.0
H56 H 0.82133 0.39527 0.70614 0.0
C57 C 0.91053 0.50363 0.78223 0.0
C58 C 0.87131 0.48319 0.74868 0.0
C59 C 0.92822 0.45257 0.79945 0.0
C60 C 0.90646 0.38057 0.78296 0.0
C61 C 0.86852 0.35965 0.7493 0.0
C62 C 0.85218 0.41178 0.73184 0.0
H63 H 0.39291 0.34154 0.79614 0.0
H64 H 0.60525 0.55998 0.79473 0.0
H65 H 0.54872 0.3903 0.70868 0.0
C66 C 0.44647 0.38042 0.78297 0.0
C67 C 0.46435 0.35737 0.7504 0.0
C68 C 0.49701 0.45299 0.79914 0.0
C69 C 0.56592 0.50405 0.78194 0.0
C70 C 0.58554 0.48176 0.74924 0.0
C71 C 0.53441 0.40799 0.73378 0.0
H72 H 0.39111 0.0239 0.79652 0.0
H73 H 0.6039 0.01681 0.79439 0.0
H74 H 0.54555 0.12144 0.70871 0.0
C75 C 0.44503 0.03752 0.78363 0.0
C76 C 0.46253 0.075 0.75085 0.0
C77 C 0.495 0.01519 0.79938 0.0
C78 C 0.56415 0.03215 0.78192 0.0
C79 C 0.58357 0.07136 0.74929 0.0
C80 C 0.53164 0.09155 0.73377 0.0
H81 H 0.67029 0.58496 0.95004 0.0
H82 H 0.88927 0.58989 0.95277 0.0
H83 H 0.72741 0.48486 1.03774 0.0
C84 C 0.71095 0.57185 0.96332 0.0
C85 C 0.69101 0.53347 0.99599 0.0
C86 C 0.78265 0.59292 0.94753 0.0
C87 C 0.83396 0.57396 0.96478 0.0
C88 C 0.81448 0.53447 0.99721 0.0
C89 C 0.74313 0.51526 1.01283 0.0
H90 H 0.35148 0.26445 0.95094 0.0
H91 H 0.34535 0.04705 0.9519 0.0
H92 H 0.46242 0.21619 1.03821 0.0
C93 C 0.36676 0.22583 0.96405 0.0
C94 C 0.409 0.24889 0.99668 0.0
C95 C 0.34427 0.15361 0.94771 0.0
C96 C 0.36267 0.10278 0.96478 0.0
C97 C 0.40598 0.12495 0.99742 0.0
C98 C 0.42928 0.1985 1.01312 0.0
H99 H 0.66644 0.04772 0.95037 0.0
H100 H 0.88036 0.26557 0.94933 0.0
H101 H 0.73084 0.21126 0.03964 0.0
C102 C 0.70727 0.10279 0.9635 0.0
C103 C 0.69031 0.12332 0.99719 0.0
C104 C 0.77593 0.15382 0.94624 0.0
C105 C 0.82729 0.22596 0.96265 0.0
C106 C 0.81179 0.24686 0.99632 0.0
C107 C 0.74388 0.1947 1.01391 0.0
H108 H 0.59281 0.8921 0.12863 0.0
H109 H 0.58691 0.67439 0.12961 0.0
H110 H 0.48799 0.7286 0.03947 0.0
C111 C 0.5772 0.83696 0.11556 0.0
C112 C 0.53797 0.81652 0.08201 0.0
C113 C 0.59489 0.7859 0.13279 0.0
C114 C 0.57312 0.71391 0.1163 0.0
C115 C 0.53518 0.69298 0.08263 0.0
C116 C 0.51884 0.74511 0.06517 0.0
H117 H 0.05957 0.67487 0.12948 0.0
H118 H 0.27191 0.89331 0.12806 0.0
H119 H 0.21538 0.72362 0.04202 0.0
C120 C 0.11313 0.71375 0.1163 0.0
C121 C 0.13101 0.6907 0.08373 0.0
C122 C 0.16368 0.78632 0.13247 0.0
C123 C 0.23258 0.83738 0.11527 0.0
C124 C 0.2522 0.81509 0.08257 0.0
C125 C 0.20107 0.74132 0.06712 0.0
H126 H 0.05777 0.35723 0.12985 0.0
H127 H 0.27056 0.35014 0.12772 0.0
H128 H 0.21221 0.45477 0.04204 0.0
C129 C 0.1117 0.37084 0.11696 0.0
C130 C 0.1292 0.40833 0.08418 0.0
C131 C 0.16167 0.34852 0.13271 0.0
C132 C 0.23081 0.36548 0.11526 0.0
C133 C 0.25023 0.40469 0.08262 0.0
C134 C 0.19831 0.42488 0.0671 0.0
H135 H 0.33696 0.91829 0.28337 0.0
H136 H 0.55594 0.92323 0.2861 0.0
H137 H 0.39408 0.8182 0.37108 0.0
C138 C 0.37762 0.90519 0.29665 0.0
C139 C 0.35768 0.86681 0.32932 0.0
C140 C 0.44932 0.92626 0.28086 0.0
C141 C 0.50063 0.90731 0.29812 0.0
C142 C 0.48115 0.86781 0.33055 0.0
C143 C 0.4098 0.8486 0.34616 0.0
H144 H 0.01816 0.59779 0.28427 0.0
H145 H 0.01203 0.38038 0.28524 0.0
H146 H 0.1291 0.54953 0.37155 0.0
C147 C 0.03343 0.55916 0.29738 0.0
C148 C 0.07567 0.58223 0.33001 0.0
C149 C 0.01094 0.48695 0.28105 0.0
C150 C 0.02934 0.43612 0.29811 0.0
C151 C 0.07266 0.45828 0.33075 0.0
C152 C 0.09595 0.53184 0.34646 0.0
H153 H 0.33312 0.38106 0.2837 0.0
H154 H 0.54703 0.59891 0.28266 0.0
H155 H 0.39751 0.5446 0.37298 0.0
C156 C 0.37394 0.43613 0.29683 0.0
C157 C 0.35698 0.45665 0.33052 0.0
C158 C 0.4426 0.48716 0.27957 0.0
C159 C 0.49397 0.5593 0.29599 0.0
C160 C 0.47847 0.5802 0.32965 0.0
C161 C 0.41055 0.52804 0.34725 0.0
Eu162 Eu 0.44495 0.91976 1.0004 0.0
Eu163 Eu 0.49659 0.02024 0.07916 0.0
C164 C 0.42819 0.07176 1.0141 0.0
C165 C 0.43283 0.89748 0.89992 0.0
C166 C 0.4239 0.96209 0.89443 0.0
C167 C 0.48431 0.91074 0.83988 0.0
C168 C 0.44418 0.0001 0.86194 0.0
C169 C 0.4634 0.8723 0.87237 0.0
C170 C 0.47473 -0.02498 0.8342 0.0
C171 C 0.41656 0.86038 0.93513 0.0
O172 O 0.36682 0.93992 0.07819 0.0
O173 O 0.35187 0.84316 0.0386 0.0
C174 C 0.32687 0.86825 0.06544 0.0
O175 O 0.50744 0.87038 1.03126 0.0
O176 O 0.46631 0.06901 0.12535 0.0
O177 O 0.577 0.07257 0.12507 0.0
O178 O 0.4967 0.90963 0.08831 0.0
C179 C 0.51344 0.8683 0.06621 0.0
O180 O 0.55469 0.03154 0.99137 0.0
O181 O 0.60798 0.06963 0.04829 0.0
O182 O 0.47909 0.09668 0.04109 0.0
O183 O 0.47791 0.87423 0.95416 0.0
O184 O 0.36433 0.86456 0.95459 0.0
O185 O 0.39654 0.00053 1.00071 0.0
C186 C 0.50936 0.04231 0.17979 0.0
C187 C 0.5249 -0.01775 0.18664 0.0
C188 C 0.45437 0.02662 0.23915 0.0
C189 C 0.5058 0.94511 0.21935 0.0
C190 C 0.47392 0.06411 0.2064 0.0
C191 C 0.47012 0.96662 0.24607 0.0
C192 C 0.52637 0.07945 0.1445 0.0
C193 C 0.61441 0.07192 1.01329 0.0
H194 H 0.4022 -0.01602 0.91545 0.0
H195 H 0.50715 0.88957 0.81903 0.0
H196 H 0.43708 0.05007 0.85877 0.0
H197 H 0.47185 0.8233 0.87614 0.0
H198 H 0.55115 0.96326 0.16656 0.0
H199 H 0.42753 0.04513 0.2592 0.0
H200 H 0.51773 0.89842 0.22342 0.0
H201 H 0.46085 0.10984 0.20174 0.0
Eu202 Eu 0.01811 0.49188 1.00211 0.0
Eu203 Eu 0.92216 0.44618 0.07853 0.0
C204 C 0.866 0.32418 1.01216 0.0
C205 C 0.04178 0.50505 0.90309 0.0
C206 C -0.02791 0.43483 0.89613 0.0
C207 C 0.03542 0.54341 0.84247 0.0
C208 C 0.93521 0.41852 0.86254 0.0
C209 C 0.07293 0.55953 0.87615 0.0
C210 C 0.96667 0.47232 0.83534 0.0
C211 C 0.07906 0.52294 0.93898 0.0
O212 O 0.0347 0.44866 0.09004 0.0
O213 O 0.0693 0.43212 1.03334 0.0
C214 C 0.07519 0.43069 0.06832 0.0
O215 O 0.09868 0.58535 0.04136 0.0
O216 O 0.87422 0.3672 0.12265 0.0
O217 O 0.86621 0.47155 0.12268 0.0
O218 O 0.00554 0.57499 0.08044 0.0
C219 C 0.07609 0.61348 0.06768 0.0
O220 O 0.9393 0.54277 1.00208 0.0
O221 O 0.84378 0.46154 0.03953 0.0
O222 O 0.87315 0.33372 0.04705 0.0
O223 O 0.06977 0.57248 0.95864 0.0
O224 O 0.06908 0.46352 0.95703 0.0
O225 O 0.90534 0.38127 0.99059 0.0
C226 C 0.89549 0.43409 0.17765 0.0
C227 C 0.96445 0.50488 0.1846 0.0
C228 C 0.90296 0.39585 0.23824 0.0
C229 C 0.00172 0.52138 0.21814 0.0
C230 C 0.86513 0.37953 0.20462 0.0
C231 C -0.02863 0.46721 0.24532 0.0
C232 C 0.85973 0.41422 0.14142 0.0
C233 C 0.86818 0.51207 1.01396 0.0
H234 H 0.94582 0.39254 0.9167 0.0
H235 H 0.06073 0.58577 0.82185 0.0
H236 H 0.88156 0.36401 0.85783 0.0
H237 H 0.126 0.61448 0.88121 0.0
H238 H -0.00976 0.54707 0.16393 0.0
H239 H 0.87839 0.35322 0.25879 0.0
H240 H 0.0551 0.57621 0.22275 0.0
H241 H 0.81275 0.324 0.19952 0.0
Eu242 Eu 0.49724 0.44879 0.07791 0.0
Eu243 Eu 0.44425 0.49234 1.0008 0.0
C244 C 0.51121 0.61562 0.06681 0.0
C245 C 0.50619 0.43643 0.17715 0.0
C246 C 0.50384 0.50499 0.18332 0.0
C247 C 0.46082 0.39758 0.23748 0.0
C248 C 0.48174 0.52036 0.21641 0.0
C249 C 0.48375 0.38242 0.20431 0.0
C250 C 0.46068 0.46725 0.24389 0.0
C251 C 0.52772 0.41971 0.14179 0.0
O252 O 0.55558 0.49287 0.9899 0.0
O253 O 0.60805 0.50805 0.04677 0.0
C254 C 0.61473 0.51075 1.01177 0.0
O255 O 0.48334 0.35472 0.03925 0.0
O256 O 0.47333 0.57111 0.95661 0.0
O257 O 0.36287 0.46359 0.95544 0.0
O258 O 0.39895 0.36377 0.9998 0.0
C259 C 0.43173 0.32598 1.01278 0.0
O260 O 0.36693 0.39696 0.07797 0.0
O261 O 0.35052 0.4758 0.03944 0.0
O262 O 0.50697 0.60562 1.03193 0.0
O263 O 0.46995 0.36855 0.12151 0.0
O264 O 0.57662 0.4799 0.12404 0.0
O265 O 0.49514 0.55906 0.08853 0.0
C266 C 0.43152 0.50348 0.90135 0.0
C267 C 0.43357 0.43481 0.89525 0.0
C268 C 0.47736 0.54227 0.84099 0.0
C269 C 0.45603 0.41947 0.86221 0.0
C270 C 0.45412 0.5574 0.8741 0.0
C271 C 0.47777 0.47275 0.83469 0.0
C272 C 0.41303 0.522 0.93707 0.0
C273 C 0.32569 0.42656 0.06563 0.0
H274 H 0.51905 0.54683 0.16258 0.0
H275 H 0.44493 0.35585 0.25834 0.0
H276 H 0.48087 0.57382 0.22059 0.0
H277 H 0.48402 0.32868 0.19987 0.0
H278 H 0.41856 0.39326 0.91615 0.0
H279 H 0.49366 0.58412 0.82016 0.0
H280 H 0.45701 0.36603 0.85817 0.0
H281 H 0.45437 0.6114 0.87855 0.0
Eu282 Eu 0.11162 0.2531 0.33373 0.0
Eu283 Eu 0.16326 0.35358 0.4125 0.0
C284 C 0.09487 0.4051 0.34743 0.0
C285 C 0.09949 0.23081 0.23325 0.0
C286 C 0.09056 0.29542 0.22777 0.0
C287 C 0.15098 0.24407 0.17321 0.0
C288 C 0.11084 0.33343 0.19528 0.0
C289 C 0.13007 0.20563 0.20571 0.0
C290 C 0.14139 0.30835 0.16754 0.0
C291 C 0.08323 0.19371 0.26846 0.0
O292 O 0.03349 0.27326 0.41152 0.0
O293 O 0.01854 0.1765 0.37194 0.0
C294 C -0.00646 0.20159 0.39878 0.0
O295 O 0.17412 0.20372 0.3646 0.0
O296 O 0.13299 0.40235 0.45868 0.0
O297 O 0.24367 0.40591 0.4584 0.0
O298 O 0.16337 0.24297 0.42164 0.0
C299 C 0.18012 0.20164 0.39955 0.0
O300 O 0.22137 0.36488 0.3247 0.0
O301 O 0.27466 0.40297 0.38162 0.0
O302 O 0.14577 0.43002 0.37442 0.0
O303 O 0.14458 0.20756 0.2875 0.0
O304 O 0.03101 0.1979 0.28793 0.0
O305 O 0.06322 0.33386 0.33404 0.0
C306 C 0.17603 0.37565 0.51312 0.0
C307 C 0.19157 0.31559 0.51997 0.0
C308 C 0.12104 0.35996 0.57249 0.0
C309 C 0.17247 0.27844 0.55268 0.0
C310 C 0.14059 0.39745 0.53973 0.0
C311 C 0.13679 0.29995 0.5794 0.0
C312 C 0.19305 0.41279 0.47784 0.0
C313 C 0.28109 0.40526 0.34662 0.0
H314 H 0.06886 0.31731 0.24879 0.0
H315 H 0.17382 0.22291 0.15237 0.0
H316 H 0.10374 0.3834 0.19211 0.0
H317 H 0.13852 0.15664 0.20948 0.0
H318 H 0.21782 0.29659 0.49989 0.0
H319 H 0.09421 0.37847 0.59254 0.0
H320 H 0.18439 0.23175 0.55675 0.0
H321 H 0.12752 0.44318 0.53508 0.0
Eu322 Eu 0.68478 0.82522 0.33544 0.0
Eu323 Eu 0.58883 0.77952 0.41186 0.0
C324 C 0.53267 0.65752 0.3455 0.0
C325 C 0.70845 0.83838 0.23642 0.0
C326 C 0.63876 0.76817 0.22946 0.0
C327 C 0.70208 0.87675 0.1758 0.0
C328 C 0.60188 0.75186 0.19587 0.0
C329 C 0.73959 0.89287 0.20948 0.0
C330 C 0.63334 0.80565 0.16867 0.0
C331 C 0.74573 0.85628 0.27232 0.0
O332 O 0.70137 0.782 0.42337 0.0
O333 O 0.73597 0.76546 0.36667 0.0
C334 C 0.74186 0.76404 0.40165 0.0
O335 O 0.76536 0.91869 0.37469 0.0
O336 O 0.54089 0.70054 0.45598 0.0
O337 O 0.53288 0.80489 0.45601 0.0
O338 O 0.67221 0.90833 0.41377 0.0
C339 C 0.74276 0.94682 0.40101 0.0
O340 O 0.60597 0.87612 0.33541 0.0
O341 O 0.51045 0.79488 0.37286 0.0
O342 O 0.53982 0.66706 0.38039 0.0
O343 O 0.73644 0.90582 0.29197 0.0
O344 O 0.73575 0.79687 0.29036 0.0
O345 O 0.57201 0.71461 0.32393 0.0
C346 C 0.56216 0.76743 0.51099 0.0
C347 C 0.63113 0.83822 0.51793 0.0
C348 C 0.56963 0.72919 0.57158 0.0
C349 C 0.66839 0.85472 0.55148 0.0
C350 C 0.5318 0.71287 0.53796 0.0
C351 C 0.63803 0.80055 0.57866 0.0
C352 C 0.5264 0.74756 0.47475 0.0
C353 C 0.53485 0.84542 0.3473 0.0
H354 H 0.61249 0.72587 0.25003 0.0
H355 H 0.72739 0.9191 0.15518 0.0
H356 H 0.54824 0.69734 0.19116 0.0
H357 H 0.79267 0.94782 0.21454 0.0
H358 H 0.65691 0.88041 0.49727 0.0
H359 H 0.54506 0.68656 0.59212 0.0
H360 H 0.72177 0.90954 0.55608 0.0
H361 H 0.47942 0.65735 0.53285 0.0
Eu362 Eu 0.16391 0.78213 0.41124 0.0
Eu363 Eu 0.11091 0.82568 0.33413 0.0
C364 C 0.17788 0.94895 0.40014 0.0
C365 C 0.17286 0.76977 0.51048 0.0
C366 C 0.1705 0.83832 0.51666 0.0
C367 C 0.12748 0.73092 0.57081 0.0
C368 C 0.1484 0.85369 0.54974 0.0
C369 C 0.15041 0.71575 0.53764 0.0
C370 C 0.12734 0.80058 0.57722 0.0
C371 C 0.19438 0.75305 0.47512 0.0
O372 O 0.22225 0.82621 0.32323 0.0
O373 O 0.27472 0.84139 0.3801 0.0
C374 C 0.2814 0.84409 0.34511 0.0
O375 O 0.15001 0.68806 0.37258 0.0
O376 O 0.14 0.90445 0.28995 0.0
O377 O 0.02953 0.79693 0.28877 0.0
O378 O 0.06562 0.6971 0.33313 0.0
C379 C 0.0984 0.65932 0.34611 0.0
O380 O 0.0336 0.73029 0.4113 0.0
O381 O 0.01719 0.80914 0.37278 0.0
O382 O 0.17364 0.93896 0.36527 0.0
O383 O 0.13662 0.70189 0.45484 0.0
O384 O 0.24328 0.81323 0.45737 0.0
O385 O 0.16181 0.89239 0.42186 0.0
C386 C 0.09818 0.83681 0.23469 0.0
C387 C 0.10023 0.76814 0.22858 0.0
C388 C 0.14403 0.87561 0.17432 0.0
C389 C 0.12269 0.7528 0.19554 0.0
C390 C 0.12079 0.89073 0.20744 0.0
C391 C 0.14443 0.80608 0.16802 0.0
C392 C 0.0797 0.85534 0.2704 0.0
C393 C -0.00764 0.7599 0.39896 0.0
H394 H 0.18571 0.88016 0.49591 0.0
H395 H 0.11159 0.68918 0.59168 0.0
H396 H 0.14753 0.90716 0.55392 0.0
H397 H 0.15068 0.66202 0.5332 0.0
H398 H 0.08523 0.72659 0.24948 0.0
H399 H 0.16033 0.91746 0.15349 0.0
H400 H 0.12367 0.69936 0.1915 0.0
H401 H 0.12104 0.94473 0.21188 0.0
Eu402 Eu 0.77828 0.58643 0.66707 0.0
Eu403 Eu 0.82993 0.68691 0.74583 0.0
C404 C 0.76153 0.73844 0.68077 0.0
C405 C 0.76616 0.56415 0.56659 0.0
C406 C 0.75723 0.62876 0.5611 0.0
C407 C 0.81765 0.57741 0.50654 0.0
C408 C 0.77751 0.66677 0.52861 0.0
C409 C 0.79673 0.53897 0.53904 0.0
C410 C 0.80806 0.64169 0.50087 0.0
C411 C 0.7499 0.52705 0.60179 0.0
O412 O 0.70016 0.60659 0.74486 0.0
O413 O 0.6852 0.50983 0.70527 0.0
C414 C 0.6602 0.53492 0.73211 0.0
O415 O 0.84078 0.53705 0.69793 0.0
O416 O 0.79965 0.73568 0.79201 0.0
O417 O 0.91034 0.73924 0.79173 0.0
O418 O 0.83003 0.5763 0.75498 0.0
C419 C 0.84678 0.53497 0.73288 0.0
O420 O 0.88803 0.69821 0.65803 0.0
O421 O 0.94132 0.7363 0.71496 0.0
O422 O 0.81243 0.76335 0.70775 0.0
O423 O 0.81124 0.5409 0.62083 0.0
O424 O 0.69767 0.53124 0.62126 0.0
O425 O 0.72988 0.6672 0.66737 0.0
C426 C 0.84269 0.70898 0.84646 0.0
C427 C 0.85823 0.64892 0.8533 0.0
C428 C 0.7877 0.69328 0.90582 0.0
C429 C 0.83913 0.61177 0.88601 0.0
C430 C 0.80725 0.73078 0.87306 0.0
C431 C 0.80345 0.63328 0.91273 0.0
C432 C 0.85971 0.74612 0.81117 0.0
C433 C 0.94775 0.7386 0.67995 0.0
H434 H 0.73553 0.65065 0.58212 0.0
H435 H 0.84048 0.55624 0.4857 0.0
H436 H 0.77041 0.71674 0.52544 0.0
H437 H 0.80518 0.48997 0.54281 0.0
H438 H 0.88449 0.62992 0.83322 0.0
H439 H 0.76086 0.71179 0.92587 0.0
H440 H 0.85106 0.56508 0.89008 0.0
H441 H 0.79418 0.77651 0.86841 0.0
Eu442 Eu 0.35145 0.15855 0.66878 0.0
Eu443 Eu 0.25549 0.11285 0.7452 0.0
C444 C 0.19934 -0.00915 0.67883 0.0
C445 C 0.37512 0.17171 0.56975 0.0
C446 C 0.30543 0.1015 0.5628 0.0
C447 C 0.36875 0.21008 0.50914 0.0
C448 C 0.26855 0.08519 0.52921 0.0
C449 C 0.40626 0.2262 0.54282 0.0
C450 C 0.30001 0.13899 0.50201 0.0
C451 C 0.41239 0.18961 0.60565 0.0
O452 O 0.36803 0.11533 0.75671 0.0
O453 O 0.40263 0.09879 0.7 0.0
C454 C 0.40853 0.09737 0.73499 0.0
O455 O 0.43202 0.25203 0.70802 0.0
O456 O 0.20755 0.03387 0.78931 0.0
O457 O 0.19955 0.13822 0.78934 0.0
O458 O 0.33887 0.24166 0.74711 0.0
C459 C 0.40942 0.28015 0.73434 0.0
O460 O 0.27264 0.20945 0.66875 0.0
O461 O 0.17711 0.12821 0.70619 0.0
O462 O 0.20649 0.00039 0.71372 0.0
O463 O 0.40311 0.23915 0.6253 0.0
O464 O 0.40242 0.1302 0.62369 0.0
O465 O 0.23868 0.04794 0.65726 0.0
C466 C 0.22882 0.10076 0.84432 0.0
C467 C 0.29779 0.17155 0.85126 0.0
C468 C 0.23629 0.06251 0.90491 0.0
C469 C 0.33505 0.18805 0.88481 0.0
C470 C 0.19846 0.04619 0.87129 0.0
C471 C 0.30469 0.13388 0.91199 0.0
C472 C 0.19306 0.08089 0.80809 0.0
C473 C 0.20152 0.17875 0.68063 0.0
H474 H 0.27916 0.05921 0.58336 0.0
H475 H 0.39407 0.25243 0.48851 0.0
H476 H 0.2149 0.03067 0.52449 0.0
H477 H 0.45934 0.28115 0.54787 0.0
H478 H 0.32357 0.21374 0.8306 0.0
H479 H 0.21172 0.01989 0.92546 0.0
H480 H 0.38842 0.24287 0.88942 0.0
H481 H 0.14608 -0.00933 0.86618 0.0
Eu482 Eu 0.83058 0.11547 0.74457 0.0
Eu483 Eu 0.77758 0.15901 0.66746 0.0
C484 C 0.84455 0.28229 0.73348 0.0
C485 C 0.83952 0.1031 0.84381 0.0
C486 C 0.83717 0.17165 0.84999 0.0
C487 C 0.79414 0.06425 0.90414 0.0
C488 C 0.81507 0.18702 0.88307 0.0
C489 C 0.81708 0.04909 0.87098 0.0
C490 C 0.794 0.13391 0.91055 0.0
C491 C 0.86105 0.08638 0.80846 0.0
O492 O 0.88892 0.15955 0.65656 0.0
O493 O 0.94139 0.17472 0.71343 0.0
C494 C 0.94807 0.17742 0.67844 0.0
O495 O 0.81668 0.02139 0.70591 0.0
O496 O 0.80667 0.23779 0.62328 0.0
O497 O 0.6962 0.13026 0.6221 0.0
O498 O 0.73229 0.03044 0.66646 0.0
C499 C 0.76507 -0.00734 0.67944 0.0
O500 O 0.70027 0.06363 0.74464 0.0
O501 O 0.68386 0.14247 0.70611 0.0
O502 O 0.84031 0.27229 0.6986 0.0
O503 O 0.80329 0.03522 0.78817 0.0
O504 O 0.90995 0.14657 0.7907 0.0
O505 O 0.82848 0.22573 0.7552 0.0
C506 C 0.76485 0.17015 0.56802 0.0
C507 C 0.76691 0.10148 0.56192 0.0
C508 C 0.8107 0.20894 0.50766 0.0
C509 C 0.78936 0.08614 0.52887 0.0
C510 C 0.78746 0.22407 0.54077 0.0
C511 C 0.8111 0.13942 0.50135 0.0
C512 C 0.74636 0.18867 0.60373 0.0
C513 C 0.65902 0.09323 0.73229 0.0
H514 H 0.85238 0.2135 0.82924 0.0
H515 H 0.77826 0.02251 0.92501 0.0
H516 H 0.8142 0.24049 0.88726 0.0
H517 H 0.81735 -0.00465 0.86653 0.0
H518 H 0.7519 0.05993 0.58282 0.0
H519 H 0.827 0.25079 0.48682 0.0
H520 H 0.79035 0.0327 0.52483 0.0
H521 H 0.78771 0.27807 0.54522 0.0
loop_
_geom_bond_atom_site_label_1
_geom_bond_atom_site_label_2
_geom_bond_distance
_geom_bond_site_symmetry_2
_ccdc_geom_bond_type
H0 C3 0.931 . S
H1 C6 0.928 . S
H2 C8 0.930 . S
C3 H0 0.931 . S
C3 C4 1.413 . S
C3 C5 1.360 . S
C4 C3 1.413 . S
C4 C8 1.429 . S
C5 C3 1.360 . S
C5 C6 1.372 . S
C6 H1 0.928 . S
C6 C5 1.372 . S
C6 C7 1.404 . S
C7 C6 1.404 . S
C7 C8 1.391 . S
C8 H2 0.930 . S
C8 C4 1.429 . S
C8 C7 1.391 . S
H9 C12 0.931 . S
H10 C15 0.928 . S
H11 C17 0.930 . S
C12 H9 0.931 . S
C12 C13 1.413 . S
C12 C14 1.360 . S
C13 C12 1.413 . S
C13 C17 1.429 . S
C14 C12 1.360 . S
C14 C15 1.372 . S
C15 H10 0.928 . S
C15 C14 1.372 . S
C15 C16 1.404 . S
C16 C15 1.404 . S
C16 C17 1.391 . S
C17 H11 0.930 . S
C17 C13 1.429 . S
C17 C16 1.391 . S
H18 C21 0.931 . S
H19 C24 0.928 . S
H20 C26 0.930 . S
C21 H18 0.931 . S
C21 C22 1.413 . S
C21 C23 1.360 . S
C22 C21 1.413 . S
C22 C26 1.429 . S
C23 C21 1.360 . S
C23 C24 1.372 . S
C24 H19 0.928 . S
C24 C23 1.372 . S
C24 C25 1.404 . S
C25 C24 1.404 . S
C25 C26 1.391 . S
C26 H20 0.930 . S
C26 C22 1.429 . S
C26 C25 1.391 . S
H27 C30 0.931 . S
H28 C33 0.928 . S
H29 C35 0.930 . S
C30 H27 0.931 . S
C30 C31 1.413 . S
C30 C32 1.360 . S
C31 C30 1.413 . S
C31 C35 1.429 . S
C32 C30 1.360 . S
C32 C33 1.372 . S
C33 H28 0.928 . S
C33 C32 1.372 . S
C33 C34 1.404 . S
C34 C33 1.404 . S
C34 C35 1.391 . S
C35 H29 0.930 . S
C35 C31 1.429 . S
C35 C34 1.391 . S
H36 C39 0.931 . S
H37 C42 0.928 . S
H38 C44 0.930 . S
C39 H36 0.931 . S
C39 C40 1.413 . S
C39 C41 1.360 . S
C40 C39 1.413 . S
C40 C44 1.429 . S
C41 C39 1.360 . S
C41 C42 1.372 . S
C42 H37 0.928 . S
C42 C41 1.372 . S
C42 C43 1.404 . S
C43 C42 1.404 . S
C43 C44 1.391 . S
C44 H38 0.930 . S
C44 C40 1.429 . S
C44 C43 1.391 . S
H45 C48 0.931 . S
H46 C51 0.928 . S
H47 C53 0.930 . S
C48 H45 0.931 . S
C48 C49 1.413 . S
C48 C50 1.360 . S
C49 C48 1.413 . S
C49 C53 1.429 . S
C50 C48 1.360 . S
C50 C51 1.372 . S
C51 H46 0.928 . S
C51 C50 1.372 . S
C51 C52 1.404 . S
C52 C51 1.404 . S
C52 C53 1.391 . S
C53 H47 0.930 . S
C53 C49 1.429 . S
C53 C52 1.391 . S
H54 C57 0.931 . S
H55 C60 0.928 . S
H56 C62 0.930 . S
C57 H54 0.931 . S
C57 C58 1.413 . S
C57 C59 1.360 . S
C58 C57 1.413 . S
C58 C62 1.429 . S
C59 C57 1.360 . S
C59 C60 1.372 . S
C60 H55 0.928 . S
C60 C59 1.372 . S
C60 C61 1.404 . S
C61 C60 1.404 . S
C61 C62 1.391 . S
C62 H56 0.930 . S
C62 C58 1.429 . S
C62 C61 1.391 . S
H63 C66 0.931 . S
H64 C69 0.928 . S
H65 C71 0.930 . S
C66 H63 0.931 . S
C66 C67 1.413 . S
C66 C68 1.360 . S
C67 C66 1.413 . S
C67 C71 1.429 . S
C68 C66 1.360 . S
C68 C69 1.372 . S
C69 H64 0.928 . S
C69 C68 1.372 . S
C69 C70 1.404 . S
C70 C69 1.404 . S
C70 C71 1.391 . S
C71 H65 0.930 . S
C71 C67 1.429 . S
C71 C70 1.391 . S
H72 C75 0.931 . S
H73 C78 0.928 . S
H74 C80 0.930 . S
C75 H72 0.931 . S
C75 C76 1.413 . S
C75 C77 1.360 . S
C76 C75 1.413 . S
C76 C80 1.429 . S
C77 C75 1.360 . S
C77 C78 1.372 . S
C78 H73 0.928 . S
C78 C77 1.372 . S
C78 C79 1.404 . S
C79 C78 1.404 . S
C79 C80 1.391 . S
C80 H74 0.930 . S
C80 C76 1.429 . S
C80 C79 1.391 . S
H81 C84 0.931 . S
H82 C87 0.928 . S
H83 C89 0.930 . S
C84 H81 0.931 . S
C84 C85 1.413 . S
C84 C86 1.360 . S
C85 C84 1.413 . S
C85 C89 1.429 . S
C86 C84 1.360 . S
C86 C87 1.372 . S
C87 H82 0.928 . S
C87 C86 1.372 . S
C87 C88 1.404 . S
C88 C87 1.404 . S
C88 C89 1.391 . S
C89 H83 0.930 . S
C89 C85 1.429 . S
C89 C88 1.391 . S
H90 C93 0.931 . S
H91 C96 0.928 . S
H92 C98 0.930 1_554 S
C93 H90 0.931 . S
C93 C94 1.413 . S
C93 C95 1.360 . S
C94 C93 1.413 . S
C94 C98 1.429 . S
C95 C93 1.360 . S
C95 C96 1.372 . S
C96 H91 0.928 . S
C96 C95 1.372 . S
C96 C97 1.404 . S
C97 C96 1.404 . S
C97 C98 1.391 . S
C98 H92 0.930 1_556 S
C98 C94 1.429 . S
C98 C97 1.391 . S
H99 C102 0.931 . S
H100 C105 0.928 . S
H101 C107 0.930 1_554 S
C102 H99 0.931 . S
C102 C103 1.413 . S
C102 C104 1.360 . S
C103 C102 1.413 . S
C103 C107 1.429 . S
C104 C102 1.360 . S
C104 C105 1.372 . S
C105 H100 0.928 . S
C105 C104 1.372 . S
C105 C106 1.404 . S
C106 C105 1.404 . S
C106 C107 1.391 . S
C107 H101 0.930 1_556 S
C107 C103 1.429 . S
C107 C106 1.391 . S
H108 C111 0.931 . S
H109 C114 0.928 . S
H110 C116 0.930 1_556 S
C111 H108 0.931 . S
C111 C112 1.413 . S
C111 C113 1.360 . S
C112 C111 1.413 . S
C112 C116 1.429 . S
C113 C111 1.360 . S
C113 C114 1.372 . S
C114 H109 0.928 . S
C114 C113 1.372 . S
C114 C115 1.404 . S
C115 C114 1.404 . S
C115 C116 1.391 . S
C116 H110 0.930 1_554 S
C116 C112 1.429 . S
C116 C115 1.391 . S
H117 C120 0.931 . S
H118 C123 0.928 . S
H119 C125 0.930 1_556 S
C120 H117 0.931 . S
C120 C121 1.413 . S
C120 C122 1.360 . S
C121 C120 1.413 . S
C121 C125 1.429 . S
C122 C120 1.360 . S
C122 C123 1.372 . S
C123 H118 0.928 . S
C123 C122 1.372 . S
C123 C124 1.404 . S
C124 C123 1.404 . S
C124 C125 1.391 . S
C125 H119 0.930 1_554 S
C125 C121 1.429 . S
C125 C124 1.391 . S
H126 C129 0.931 . S
H127 C132 0.928 . S
H128 C134 0.930 . S
C129 H126 0.931 . S
C129 C130 1.413 . S
C129 C131 1.360 . S
C130 C129 1.413 . S
C130 C134 1.429 . S
C131 C129 1.360 . S
C131 C132 1.372 . S
C132 H127 0.928 . S
C132 C131 1.372 . S
C132 C133 1.404 . S
C133 C132 1.404 . S
C133 C134 1.391 . S
C134 H128 0.930 . S
C134 C130 1.429 . S
C134 C133 1.391 . S
H135 C138 0.931 . S
H136 C141 0.928 . S
H137 C143 0.930 . S
C138 H135 0.931 . S
C138 C139 1.413 . S
C138 C140 1.360 . S
C139 C138 1.413 . S
C139 C143 1.429 . S
C140 C138 1.360 . S
C140 C141 1.372 . S
C141 H136 0.928 . S
C141 C140 1.372 . S
C141 C142 1.404 . S
C142 C141 1.404 . S
C142 C143 1.391 . S
C143 H137 0.930 . S
C143 C139 1.429 . S
C143 C142 1.391 . S
H144 C147 0.931 . S
H145 C150 0.928 . S
H146 C152 0.930 . S
C147 H144 0.931 . S
C147 C148 1.413 . S
C147 C149 1.360 . S
C148 C147 1.413 . S
C148 C152 1.429 . S
C149 C147 1.360 . S
C149 C150 1.372 . S
C150 H145 0.928 . S
C150 C149 1.372 . S
C150 C151 1.404 . S
C151 C150 1.404 . S
C151 C152 1.391 . S
C152 H146 0.930 . S
C152 C148 1.429 . S
C152 C151 1.391 . S
H153 C156 0.931 . S
H154 C159 0.928 . S
H155 C161 0.930 . S
C156 H153 0.931 . S
C156 C157 1.413 . S
C156 C158 1.360 . S
C157 C156 1.413 . S
C157 C161 1.429 . S
C158 C156 1.360 . S
C158 C159 1.372 . S
C159 H154 0.928 . S
C159 C158 1.372 . S
C159 C160 1.404 . S
C160 C159 1.404 . S
C160 C161 1.391 . S
C161 H155 0.930 . S
C161 C157 1.429 . S
C161 C160 1.391 . S
Eu162 C171 2.828 . S
Eu162 O173 2.392 . S
Eu162 O175 2.418 . S
Eu162 O180 2.373 1_565 S
Eu162 O183 2.488 . S
Eu162 O184 2.471 . S
Eu162 O185 2.349 1_565 S
Eu163 O172 2.373 1_545 S
Eu163 O176 2.488 . S
Eu163 O177 2.471 . S
Eu163 O178 2.349 1_545 S
Eu163 O181 2.392 . S
Eu163 O182 2.418 . S
Eu163 C192 2.828 . S
C164 O182 1.244 1_556 S
C164 O185 1.265 . S
C165 C166 1.379 1_565 S
C165 C169 1.373 . S
C165 C171 1.505 . S
C166 C165 1.379 1_545 S
C166 C168 1.369 . S
C166 H194 0.930 . S
C167 C169 1.383 . S
C167 C170 1.382 . S
C167 H195 0.930 . S
C168 C166 1.369 . S
C168 C170 1.392 1_545 S
C168 H196 0.930 . S
C169 C165 1.373 . S
C169 C167 1.383 . S
C169 H197 0.931 . S
C170 C167 1.382 . S
C170 C168 1.392 1_565 S
C171 Eu162 2.828 . S
C171 C165 1.505 . S
C171 O183 1.249 . S
C171 O184 1.244 . S
O172 Eu163 2.373 1_565 S
O172 C174 1.258 . S
O173 Eu162 2.392 . S
O173 C174 1.242 1_556 S
C174 O172 1.258 . S
C174 O173 1.242 1_554 S
O175 Eu162 2.418 . S
O175 C179 1.244 1_556 S
O176 Eu163 2.488 . S
O176 C192 1.249 . S
O177 Eu163 2.471 . S
O177 C192 1.244 . S
O178 Eu163 2.349 1_565 S
O178 C179 1.265 . S
C179 O175 1.244 1_554 S
C179 O178 1.265 . S
O180 Eu162 2.373 1_545 S
O180 C193 1.258 . S
O181 Eu163 2.392 . S
O181 C193 1.242 1_554 S
O182 Eu163 2.418 . S
O182 C164 1.244 1_554 S
O183 Eu162 2.488 . S
O183 C171 1.249 . S
O184 Eu162 2.471 . S
O184 C171 1.244 . S
O185 Eu162 2.349 1_545 S
O185 C164 1.265 . S
C186 C187 1.379 1_545 S
C186 C190 1.373 . S
C186 C192 1.505 . S
C187 C186 1.379 1_565 S
C187 C189 1.369 . S
C187 H198 0.930 . S
C188 C190 1.383 . S
C188 C191 1.382 . S
C188 H199 0.930 . S
C189 C187 1.369 . S
C189 C191 1.392 1_565 S
C189 H200 0.930 . S
C190 C186 1.373 . S
C190 C188 1.383 . S
C190 H201 0.931 . S
C191 C188 1.382 . S
C191 C189 1.392 1_545 S
C192 Eu163 2.828 . S
C192 O176 1.249 . S
C192 O177 1.244 . S
C192 C186 1.505 . S
C193 O180 1.258 . S
C193 O181 1.242 1_556 S
H194 C166 0.930 . S
H195 C167 0.930 . S
H196 C168 0.930 . S
H197 C169 0.931 . S
H198 C187 0.930 . S
H199 C188 0.930 . S
H200 C189 0.930 . S
H201 C190 0.931 . S
Eu202 C211 2.828 . S
Eu202 O213 2.392 1_556 S
Eu202 O215 2.418 . S
Eu202 O220 2.373 1_455 S
Eu202 O223 2.488 . S
Eu202 O224 2.471 1_455 S
Eu202 O225 2.349 1_455 S
Eu203 O212 2.373 1_655 S
Eu203 O216 2.488 . S
Eu203 O217 2.471 1_655 S
Eu203 O218 2.349 1_655 S
Eu203 O221 2.392 1_554 S
Eu203 O222 2.418 . S
Eu203 C232 2.828 . S
C204 O222 1.244 1_556 S
C204 O225 1.265 . S
C205 C206 1.379 1_455 S
C205 C209 1.373 . S
C205 C211 1.505 . S
C206 C205 1.379 1_655 S
C206 C208 1.369 . S
C206 H234 0.930 . S
C207 C209 1.383 . S
C207 C210 1.382 1_455 S
C207 H235 0.930 . S
C208 C206 1.369 . S
C208 C210 1.392 . S
C208 H236 0.930 . S
C209 C205 1.373 . S
C209 C207 1.383 . S
C209 H237 0.931 . S
C210 C207 1.382 1_655 S
C210 C208 1.392 . S
C211 Eu202 2.828 . S
C211 C205 1.505 . S
C211 O223 1.249 . S
C211 O224 1.244 1_455 S
O212 Eu203 2.373 1_455 S
O212 C214 1.258 . S
O213 Eu202 2.392 1_554 S
O213 C214 1.242 . S
C214 O212 1.258 . S
C214 O213 1.242 . S
O215 Eu202 2.418 . S
O215 C219 1.244 1_556 S
O216 Eu203 2.488 . S
O216 C232 1.249 . S
O217 Eu203 2.471 1_455 S
O217 C232 1.244 1_455 S
O218 Eu203 2.349 1_455 S
O218 C219 1.265 . S
C219 O215 1.244 1_554 S
C219 O218 1.265 . S
O220 Eu202 2.373 1_655 S
O220 C233 1.258 . S
O221 Eu203 2.392 1_556 S
O221 C233 1.242 . S
O222 Eu203 2.418 . S
O222 C204 1.244 1_554 S
O223 Eu202 2.488 . S
O223 C211 1.249 . S
O224 Eu202 2.471 1_655 S
O224 C211 1.244 1_655 S
O225 Eu202 2.349 1_655 S
O225 C204 1.265 . S
C226 C227 1.379 1_655 S
C226 C230 1.373 . S
C226 C232 1.505 . S
C227 C226 1.379 1_455 S
C227 C229 1.369 . S
C227 H238 0.930 . S
C228 C230 1.383 . S
C228 C231 1.382 1_655 S
C228 H239 0.930 . S
C229 C227 1.369 . S
C229 C231 1.392 . S
C229 H240 0.930 . S
C230 C226 1.373 . S
C230 C228 1.383 . S
C230 H241 0.931 . S
C231 C228 1.382 1_455 S
C231 C229 1.392 . S
C232 Eu203 2.828 . S
C232 O216 1.249 . S
C232 O217 1.244 1_655 S
C232 C226 1.505 . S
C233 O220 1.258 . S
C233 O221 1.242 . S
H234 C206 0.930 . S
H235 C207 0.930 . S
H236 C208 0.930 . S
H237 C209 0.931 . S
H238 C227 0.930 . S
H239 C228 0.930 . S
H240 C229 0.930 . S
H241 C230 0.931 . S
Eu242 C251 2.828 . S
Eu242 O253 2.392 1_554 S
Eu242 O255 2.418 . S
Eu242 O260 2.373 . S
Eu242 O263 2.488 . S
Eu242 O264 2.471 . S
Eu242 O265 2.349 . S
Eu243 O252 2.373 . S
Eu243 O256 2.488 . S
Eu243 O257 2.471 . S
Eu243 O258 2.349 . S
Eu243 O261 2.392 1_556 S
Eu243 O262 2.418 . S
Eu243 C272 2.828 . S
C244 O262 1.244 1_554 S
C244 O265 1.265 . S
C245 C246 1.379 . S
C245 C249 1.373 . S
C245 C251 1.505 . S
C246 C245 1.379 . S
C246 C248 1.369 . S
C246 H274 0.930 . S
C247 C249 1.383 . S
C247 C250 1.382 . S
C247 H275 0.930 . S
C248 C246 1.369 . S
C248 C250 1.392 . S
C248 H276 0.930 . S
C249 C245 1.373 . S
C249 C247 1.383 . S
C249 H277 0.931 . S
C250 C247 1.382 . S
C250 C248 1.392 . S
C251 Eu242 2.828 . S
C251 C245 1.505 . S
C251 O263 1.249 . S
C251 O264 1.244 . S
O252 Eu243 2.373 . S
O252 C254 1.258 . S
O253 Eu242 2.392 1_556 S
O253 C254 1.242 . S
C254 O252 1.258 . S
C254 O253 1.242 . S
O255 Eu242 2.418 . S
O255 C259 1.244 1_554 S
O256 Eu243 2.488 . S
O256 C272 1.249 . S
O257 Eu243 2.471 . S
O257 C272 1.244 . S
O258 Eu243 2.349 . S
O258 C259 1.265 . S
C259 O255 1.244 1_556 S
C259 O258 1.265 . S
O260 Eu242 2.373 . S
O260 C273 1.258 . S
O261 Eu243 2.392 1_554 S
O261 C273 1.242 . S
O262 Eu243 2.418 . S
O262 C244 1.244 1_556 S
O263 Eu242 2.488 . S
O263 C251 1.249 . S
O264 Eu242 2.471 . S
O264 C251 1.244 . S
O265 Eu242 2.349 . S
O265 C244 1.265 . S
C266 C267 1.379 . S
C266 C270 1.373 . S
C266 C272 1.505 . S
C267 C266 1.379 . S
C267 C269 1.369 . S
C267 H278 0.930 . S
C268 C270 1.383 . S
C268 C271 1.382 . S
C268 H279 0.930 . S
C269 C267 1.369 . S
C269 C271 1.392 . S
C269 H280 0.930 . S
C270 C266 1.373 . S
C270 C268 1.383 . S
C270 H281 0.931 . S
C271 C268 1.382 . S
C271 C269 1.392 . S
C272 Eu243 2.828 . S
C272 O256 1.249 . S
C272 O257 1.244 . S
C272 C266 1.505 . S
C273 O260 1.258 . S
C273 O261 1.242 . S
H274 C246 0.930 . S
H275 C247 0.930 . S
H276 C248 0.930 . S
H277 C249 0.931 . S
H278 C267 0.930 . S
H279 C268 0.930 . S
H280 C269 0.930 . S
H281 C270 0.931 . S
Eu282 C291 2.828 . S
Eu282 O293 2.392 . S
Eu282 O295 2.418 . S
Eu282 O300 2.373 . S
Eu282 O303 2.488 . S
Eu282 O304 2.471 . S
Eu282 O305 2.349 . S
Eu283 O292 2.373 . S
Eu283 O296 2.488 . S
Eu283 O297 2.471 . S
Eu283 O298 2.349 . S
Eu283 O301 2.392 . S
Eu283 O302 2.418 . S
Eu283 C312 2.828 . S
C284 O302 1.244 . S
C284 O305 1.265 . S
C285 C286 1.379 . S
C285 C289 1.373 . S
C285 C291 1.505 . S
C286 C285 1.379 . S
C286 C288 1.369 . S
C286 H314 0.930 . S
C287 C289 1.383 . S
C287 C290 1.382 . S
C287 H315 0.930 . S
C288 C286 1.369 . S
C288 C290 1.392 . S
C288 H316 0.930 . S
C289 C285 1.373 . S
C289 C287 1.383 . S
C289 H317 0.931 . S
C290 C287 1.382 . S
C290 C288 1.392 . S
C291 Eu282 2.828 . S
C291 C285 1.505 . S
C291 O303 1.249 . S
C291 O304 1.244 . S
O292 Eu283 2.373 . S
O292 C294 1.258 . S
O293 Eu282 2.392 . S
O293 C294 1.242 . S
C294 O292 1.258 . S
C294 O293 1.242 . S
O295 Eu282 2.418 . S
O295 C299 1.244 . S
O296 Eu283 2.488 . S
O296 C312 1.249 . S
O297 Eu283 2.471 . S
O297 C312 1.244 . S
O298 Eu283 2.349 . S
O298 C299 1.265 . S
C299 O295 1.244 . S
C299 O298 1.265 . S
O300 Eu282 2.373 . S
O300 C313 1.258 . S
O301 Eu283 2.392 . S
O301 C313 1.242 . S
O302 Eu283 2.418 . S
O302 C284 1.244 . S
O303 Eu282 2.488 . S
O303 C291 1.249 . S
O304 Eu282 2.471 . S
O304 C291 1.244 . S
O305 Eu282 2.349 . S
O305 C284 1.265 . S
C306 C307 1.379 . S
C306 C310 1.373 . S
C306 C312 1.505 . S
C307 C306 1.379 . S
C307 C309 1.369 . S
C307 H318 0.930 . S
C308 C310 1.383 . S
C308 C311 1.382 . S
C308 H319 0.930 . S
C309 C307 1.369 . S
C309 C311 1.392 . S
C309 H320 0.930 . S
C310 C306 1.373 . S
C310 C308 1.383 . S
C310 H321 0.931 . S
C311 C308 1.382 . S
C311 C309 1.392 . S
C312 Eu283 2.828 . S
C312 O296 1.249 . S
C312 O297 1.244 . S
C312 C306 1.505 . S
C313 O300 1.258 . S
C313 O301 1.242 . S
H314 C286 0.930 . S
H315 C287 0.930 . S
H316 C288 0.930 . S
H317 C289 0.931 . S
H318 C307 0.930 . S
H319 C308 0.930 . S
H320 C309 0.930 . S
H321 C310 0.931 . S
Eu322 C331 2.828 . S
Eu322 O333 2.392 . S
Eu322 O335 2.418 . S
Eu322 O340 2.373 . S
Eu322 O343 2.488 . S
Eu322 O344 2.471 . S
Eu322 O345 2.349 . S
Eu323 O332 2.373 . S
Eu323 O336 2.488 . S
Eu323 O337 2.471 . S
Eu323 O338 2.349 . S
Eu323 O341 2.392 . S
Eu323 O342 2.418 . S
Eu323 C352 2.828 . S
C324 O342 1.244 . S
C324 O345 1.265 . S
C325 C326 1.379 . S
C325 C329 1.373 . S
C325 C331 1.505 . S
C326 C325 1.379 . S
C326 C328 1.369 . S
C326 H354 0.930 . S
C327 C329 1.383 . S
C327 C330 1.382 . S
C327 H355 0.930 . S
C328 C326 1.369 . S
C328 C330 1.392 . S
C328 H356 0.930 . S
C329 C325 1.373 . S
C329 C327 1.383 . S
C329 H357 0.931 . S
C330 C327 1.382 . S
C330 C328 1.392 . S
C331 Eu322 2.828 . S
C331 C325 1.505 . S
C331 O343 1.249 . S
C331 O344 1.244 . S
O332 Eu323 2.373 . S
O332 C334 1.258 . S
O333 Eu322 2.392 . S
O333 C334 1.242 . S
C334 O332 1.258 . S
C334 O333 1.242 . S
O335 Eu322 2.418 . S
O335 C339 1.244 . S
O336 Eu323 2.488 . S
O336 C352 1.249 . S
O337 Eu323 2.471 . S
O337 C352 1.244 . S
O338 Eu323 2.349 . S
O338 C339 1.265 . S
C339 O335 1.244 . S
C339 O338 1.265 . S
O340 Eu322 2.373 . S
O340 C353 1.258 . S
O341 Eu323 2.392 . S
O341 C353 1.242 . S
O342 Eu323 2.418 . S
O342 C324 1.244 . S
O343 Eu322 2.488 . S
O343 C331 1.249 . S
O344 Eu322 2.471 . S
O344 C331 1.244 . S
O345 Eu322 2.349 . S
O345 C324 1.265 . S
C346 C347 1.379 . S
C346 C350 1.373 . S
C346 C352 1.505 . S
C347 C346 1.379 . S
C347 C349 1.369 . S
C347 H358 0.930 . S
C348 C350 1.383 . S
C348 C351 1.382 . S
C348 H359 0.930 . S
C349 C347 1.369 . S
C349 C351 1.392 . S
C349 H360 0.930 . S
C350 C346 1.373 . S
C350 C348 1.383 . S
C350 H361 0.931 . S
C351 C348 1.382 . S
C351 C349 1.392 . S
C352 Eu323 2.828 . S
C352 O336 1.249 . S
C352 O337 1.244 . S
C352 C346 1.505 . S
C353 O340 1.258 . S
C353 O341 1.242 . S
H354 C326 0.930 . S
H355 C327 0.930 . S
H356 C328 0.930 . S
H357 C329 0.931 . S
H358 C347 0.930 . S
H359 C348 0.930 . S
H360 C349 0.930 . S
H361 C350 0.931 . S
Eu362 C371 2.828 . S
Eu362 O373 2.392 . S
Eu362 O375 2.418 . S
Eu362 O380 2.373 . S
Eu362 O383 2.488 . S
Eu362 O384 2.471 . S
Eu362 O385 2.349 . S
Eu363 O372 2.373 . S
Eu363 O376 2.488 . S
Eu363 O377 2.471 . S
Eu363 O378 2.349 . S
Eu363 O381 2.392 . S
Eu363 O382 2.418 . S
Eu363 C392 2.828 . S
C364 O382 1.244 . S
C364 O385 1.265 . S
C365 C366 1.379 . S
C365 C369 1.373 . S
C365 C371 1.505 . S
C366 C365 1.379 . S
C366 C368 1.369 . S
C366 H394 0.930 . S
C367 C369 1.383 . S
C367 C370 1.382 . S
C367 H395 0.930 . S
C368 C366 1.369 . S
C368 C370 1.392 . S
C368 H396 0.930 . S
C369 C365 1.373 . S
C369 C367 1.383 . S
C369 H397 0.931 . S
C370 C367 1.382 . S
C370 C368 1.392 . S
C371 Eu362 2.828 . S
C371 C365 1.505 . S
C371 O383 1.249 . S
C371 O384 1.244 . S
O372 Eu363 2.373 . S
O372 C374 1.258 . S
O373 Eu362 2.392 . S
O373 C374 1.242 . S
C374 O372 1.258 . S
C374 O373 1.242 . S
O375 Eu362 2.418 . S
O375 C379 1.244 . S
O376 Eu363 2.488 . S
O376 C392 1.249 . S
O377 Eu363 2.471 . S
O377 C392 1.244 . S
O378 Eu363 2.349 . S
O378 C379 1.265 . S
C379 O375 1.244 . S
C379 O378 1.265 . S
O380 Eu362 2.373 . S
O380 C393 1.258 . S
O381 Eu363 2.392 . S
O381 C393 1.242 . S
O382 Eu363 2.418 . S
O382 C364 1.244 . S
O383 Eu362 2.488 . S
O383 C371 1.249 . S
O384 Eu362 2.471 . S
O384 C371 1.244 . S
O385 Eu362 2.349 . S
O385 C364 1.265 . S
C386 C387 1.379 . S
C386 C390 1.373 . S
C386 C392 1.505 . S
C387 C386 1.379 . S
C387 C389 1.369 . S
C387 H398 0.930 . S
C388 C390 1.383 . S
C388 C391 1.382 . S
C388 H399 0.930 . S
C389 C387 1.369 . S
C389 C391 1.392 . S
C389 H400 0.930 . S
C390 C386 1.373 . S
C390 C388 1.383 . S
C390 H401 0.931 . S
C391 C388 1.382 . S
C391 C389 1.392 . S
C392 Eu363 2.828 . S
C392 O376 1.249 . S
C392 O377 1.244 . S
C392 C386 1.505 . S
C393 O380 1.258 . S
C393 O381 1.242 . S
H394 C366 0.930 . S
H395 C367 0.930 . S
H396 C368 0.930 . S
H397 C369 0.931 . S
H398 C387 0.930 . S
H399 C388 0.930 . S
H400 C389 0.930 . S
H401 C390 0.931 . S
Eu402 C411 2.828 . S
Eu402 O413 2.392 . S
Eu402 O415 2.418 . S
Eu402 O420 2.373 . S
Eu402 O423 2.488 . S
Eu402 O424 2.471 . S
Eu402 O425 2.349 . S
Eu403 O412 2.373 . S
Eu403 O416 2.488 . S
Eu403 O417 2.471 . S
Eu403 O418 2.349 . S
Eu403 O421 2.392 . S
Eu403 O422 2.418 . S
Eu403 C432 2.828 . S
C404 O422 1.244 . S
C404 O425 1.265 . S
C405 C406 1.379 . S
C405 C409 1.373 . S
C405 C411 1.505 . S
C406 C405 1.379 . S
C406 C408 1.369 . S
C406 H434 0.930 . S
C407 C409 1.383 . S
C407 C410 1.382 . S
C407 H435 0.930 . S
C408 C406 1.369 . S
C408 C410 1.392 . S
C408 H436 0.930 . S
C409 C405 1.373 . S
C409 C407 1.383 . S
C409 H437 0.931 . S
C410 C407 1.382 . S
C410 C408 1.392 . S
C411 Eu402 2.828 . S
C411 C405 1.505 . S
C411 O423 1.249 . S
C411 O424 1.244 . S
O412 Eu403 2.373 . S
O412 C414 1.258 . S
O413 Eu402 2.392 . S
O413 C414 1.242 . S
C414 O412 1.258 . S
C414 O413 1.242 . S
O415 Eu402 2.418 . S
O415 C419 1.244 . S
O416 Eu403 2.488 . S
O416 C432 1.249 . S
O417 Eu403 2.471 . S
O417 C432 1.244 . S
O418 Eu403 2.349 . S
O418 C419 1.265 . S
C419 O415 1.244 . S
C419 O418 1.265 . S
O420 Eu402 2.373 . S
O420 C433 1.258 . S
O421 Eu403 2.392 . S
O421 C433 1.242 . S
O422 Eu403 2.418 . S
O422 C404 1.244 . S
O423 Eu402 2.488 . S
O423 C411 1.249 . S
O424 Eu402 2.471 . S
O424 C411 1.244 . S
O425 Eu402 2.349 . S
O425 C404 1.265 . S
C426 C427 1.379 . S
C426 C430 1.373 . S
C426 C432 1.505 . S
C427 C426 1.379 . S
C427 C429 1.369 . S
C427 H438 0.930 . S
C428 C430 1.383 . S
C428 C431 1.382 . S
C428 H439 0.930 . S
C429 C427 1.369 . S
C429 C431 1.392 . S
C429 H440 0.930 . S
C430 C426 1.373 . S
C430 C428 1.383 . S
C430 H441 0.931 . S
C431 C428 1.382 . S
C431 C429 1.392 . S
C432 Eu403 2.828 . S
C432 O416 1.249 . S
C432 O417 1.244 . S
C432 C426 1.505 . S
C433 O420 1.258 . S
C433 O421 1.242 . S
H434 C406 0.930 . S
H435 C407 0.930 . S
H436 C408 0.930 . S
H437 C409 0.931 . S
H438 C427 0.930 . S
H439 C428 0.930 . S
H440 C429 0.930 . S
H441 C430 0.931 . S
Eu442 C451 2.828 . S
Eu442 O453 2.392 . S
Eu442 O455 2.418 . S
Eu442 O460 2.373 . S
Eu442 O463 2.488 . S
Eu442 O464 2.471 . S
Eu442 O465 2.349 . S
Eu443 O452 2.373 . S
Eu443 O456 2.488 . S
Eu443 O457 2.471 . S
Eu443 O458 2.349 . S
Eu443 O461 2.392 . S
Eu443 O462 2.418 . S
Eu443 C472 2.828 . S
C444 O462 1.244 . S
C444 O465 1.265 . S
C445 C446 1.379 . S
C445 C449 1.373 . S
C445 C451 1.505 . S
C446 C445 1.379 . S
C446 C448 1.369 . S
C446 H474 0.930 . S
C447 C449 1.383 . S
C447 C450 1.382 . S
C447 H475 0.930 . S
C448 C446 1.369 . S
C448 C450 1.392 . S
C448 H476 0.930 . S
C449 C445 1.373 . S
C449 C447 1.383 . S
C449 H477 0.931 . S
C450 C447 1.382 . S
C450 C448 1.392 . S
C451 Eu442 2.828 . S
C451 C445 1.505 . S
C451 O463 1.249 . S
C451 O464 1.244 . S
O452 Eu443 2.373 . S
O452 C454 1.258 . S
O453 Eu442 2.392 . S
O453 C454 1.242 . S
C454 O452 1.258 . S
C454 O453 1.242 . S
O455 Eu442 2.418 . S
O455 C459 1.244 . S
O456 Eu443 2.488 . S
O456 C472 1.249 . S
O457 Eu443 2.471 . S
O457 C472 1.244 . S
O458 Eu443 2.349 . S
O458 C459 1.265 . S
C459 O455 1.244 . S
C459 O458 1.265 . S
O460 Eu442 2.373 . S
O460 C473 1.258 . S
O461 Eu443 2.392 . S
O461 C473 1.242 . S
O462 Eu443 2.418 . S
O462 C444 1.244 . S
O463 Eu442 2.488 . S
O463 C451 1.249 . S
O464 Eu442 2.471 . S
O464 C451 1.244 . S
O465 Eu442 2.349 . S
O465 C444 1.265 . S
C466 C467 1.379 . S
C466 C470 1.373 . S
C466 C472 1.505 . S
C467 C466 1.379 . S
C467 C469 1.369 . S
C467 H478 0.930 . S
C468 C470 1.383 . S
C468 C471 1.382 . S
C468 H479 0.930 . S
C469 C467 1.369 . S
C469 C471 1.392 . S
C469 H480 0.930 . S
C470 C466 1.373 . S
C470 C468 1.383 . S
C470 H481 0.931 . S
C471 C468 1.382 . S
C471 C469 1.392 . S
C472 Eu443 2.828 . S
C472 O456 1.249 . S
C472 O457 1.244 . S
C472 C466 1.505 . S
C473 O460 1.258 . S
C473 O461 1.242 . S
H474 C446 0.930 . S
H475 C447 0.930 . S
H476 C448 0.930 . S
H477 C449 0.931 . S
H478 C467 0.930 . S
H479 C468 0.930 . S
H480 C469 0.930 . S
H481 C470 0.931 . S
Eu482 C491 2.828 . S
Eu482 O493 2.392 . S
Eu482 O495 2.418 . S
Eu482 O500 2.373 . S
Eu482 O503 2.488 . S
Eu482 O504 2.471 . S
Eu482 O505 2.349 . S
Eu483 O492 2.373 . S
Eu483 O496 2.488 . S
Eu483 O497 2.471 . S
Eu483 O498 2.349 . S
Eu483 O501 2.392 . S
Eu483 O502 2.418 . S
Eu483 C512 2.828 . S
C484 O502 1.244 . S
C484 O505 1.265 . S
C485 C486 1.379 . S
C485 C489 1.373 . S
C485 C491 1.505 . S
C486 C485 1.379 . S
C486 C488 1.369 . S
C486 H514 0.930 . S
C487 C489 1.383 . S
C487 C490 1.382 . S
C487 H515 0.930 . S
C488 C486 1.369 . S
C488 C490 1.392 . S
C488 H516 0.930 . S
C489 C485 1.373 . S
C489 C487 1.383 . S
C489 H517 0.931 . S
C490 C487 1.382 . S
C490 C488 1.392 . S
C491 Eu482 2.828 . S
C491 C485 1.505 . S
C491 O503 1.249 . S
C491 O504 1.244 . S
O492 Eu483 2.373 . S
O492 C494 1.258 . S
O493 Eu482 2.392 . S
O493 C494 1.242 . S
C494 O492 1.258 . S
C494 O493 1.242 . S
O495 Eu482 2.418 . S
O495 C499 1.244 . S
O496 Eu483 2.488 . S
O496 C512 1.249 . S
O497 Eu483 2.471 . S
O497 C512 1.244 . S
O498 Eu483 2.349 . S
O498 C499 1.265 . S
C499 O495 1.244 . S
C499 O498 1.265 . S
O500 Eu482 2.373 . S
O500 C513 1.258 . S
O501 Eu483 2.392 . S
O501 C513 1.242 . S
O502 Eu483 2.418 . S
O502 C484 1.244 . S
O503 Eu482 2.488 . S
O503 C491 1.249 . S
O504 Eu482 2.471 . S
O504 C491 1.244 . S
O505 Eu482 2.349 . S
O505 C484 1.265 . S
C506 C507 1.379 . S
C506 C510 1.373 . S
C506 C512 1.505 . S
C507 C506 1.379 . S
C507 C509 1.369 . S
C507 H518 0.930 . S
C508 C510 1.383 . S
C508 C511 1.382 . S
C508 H519 0.930 . S
C509 C507 1.369 . S
C509 C511 1.392 . S
C509 H520 0.930 . S
C510 C506 1.373 . S
C510 C508 1.383 . S
C510 H521 0.931 . S
C511 C508 1.382 . S
C511 C509 1.392 . S
C512 Eu483 2.828 . S
C512 O496 1.249 . S
C512 O497 1.244 . S
C512 C506 1.505 . S
C513 O500 1.258 . S
C513 O501 1.242 . S
H514 C486 0.930 . S
H515 C487 0.930 . S
H516 C488 0.930 . S
H517 C489 0.931 . S
H518 C507 0.930 . S
H519 C508 0.930 . S
H520 C509 0.930 . S
H521 C510 0.931 . S
C124 C174 1.743 . S
C130 C214 1.813 . S
C115 C244 1.695 . S
C106 C204 1.575 . S
C254 C85 1.533 . S
C97 C164 1.549 . S
C193 C103 1.763 . S
C233 C88 1.778 . S
C94 C259 1.684 . S
C121 C219 1.564 . S
C133 C273 1.499 . S
C179 C112 1.564 . S
C294 C16 1.743 1_455 S
C22 C334 1.812 . S
C7 C364 1.695 1_545 S
C160 C324 1.576 . S
C139 C374 1.531 . S
C151 C284 1.549 . S
C157 C313 1.763 . S
C142 C353 1.777 . S
C379 C148 1.685 . S
C13 C339 1.563 1_545 S
C393 C25 1.499 1_455 S
C4 C299 1.565 . S
C414 C70 1.744 . S
C76 C454 1.813 . S
C484 C61 1.695 . S
C444 C52 1.575 1_545 S
C494 C31 1.532 1_655 S
C43 C404 1.549 . S
C49 C433 1.762 1_455 S
C34 C473 1.777 . S
C499 C40 1.685 1_545 S
C67 C459 1.564 . S
C79 C513 1.498 . S
C58 C419 1.565 . S
C140 C191 1.918 1_565 S
C231 C149 1.865 . S
C158 C250 1.621 . S
C59 C210 1.895 . S
C68 C271 1.597 . S
C170 C77 1.926 1_565 S
C32 C311 1.918 . S
C41 C351 1.865 . S
C50 C370 1.621 . S
C113 C330 1.895 . S
C391 C122 1.597 . S
C131 C290 1.926 . S
C86 C431 1.917 . S
C95 C471 1.865 . S
C490 C104 1.621 . S
C5 C450 1.894 . S
C14 C511 1.597 . S
C23 C410 1.927 . S
