# Generated by pormake.
# Topology anh, (6,3)-cn, num edge types: 1
# Building blocks:
#     Node 0, Type 0, BuildingBlock: INOVEN_clean_sbu_0, # of connection points: 6
#     Node 1, Type 0, BuildingBlock: INOVEN_clean_sbu_0, # of connection points: 6
#     Node 2, Type 0, BuildingBlock: INOVEN_clean_sbu_0, # of connection points: 6
#     Node 3, Type 1, BuildingBlock: BETDIP_clean_linker_0, # of connection points: 3
#     Node 4, Type 1, BuildingBlock: BETDIP_clean_linker_0, # of connection points: 3
#     Node 5, Type 1, BuildingBlock: BETDIP_clean_linker_0, # of connection points: 3
#     Node 6, Type 1, BuildingBlock: BETDIP_clean_linker_0, # of connection points: 3
#     Node 7, Type 1, BuildingBlock: BETDIP_clean_linker_0, # of connection points: 3
#     Node 8, Type 1, BuildingBlock: BETDIP_clean_linker_0, # of connection points: 3
#     Edge 9, Type (0, 1), BuildingBlock: MIFKUJ_clean_linker_0, # of connection points: 2
#     Edge 10, Type (0, 1), BuildingBlock: MIFKUJ_clean_linker_0, # of connection points: 2
#     Edge 11, Type (0, 1), BuildingBlock: MIFKUJ_clean_linker_0, # of connection points: 2
#     Edge 12, Type (0, 1), BuildingBlock: MIFKUJ_clean_linker_0, # of connection points: 2
#     Edge 13, Type (0, 1), BuildingBlock: MIFKUJ_clean_linker_0, # of connection points: 2
#     Edge 14, Type (0, 1), BuildingBlock: MIFKUJ_clean_linker_0, # of connection points: 2
#     Edge 15, Type (0, 1), BuildingBlock: MIFKUJ_clean_linker_0, # of connection points: 2
#     Edge 16, Type (0, 1), BuildingBlock: MIFKUJ_clean_linker_0, # of connection points: 2
#     Edge 17, Type (0, 1), BuildingBlock: MIFKUJ_clean_linker_0, # of connection points: 2
#     Edge 18, Type (0, 1), BuildingBlock: MIFKUJ_clean_linker_0, # of connection points: 2
#     Edge 19, Type (0, 1), BuildingBlock: MIFKUJ_clean_linker_0, # of connection points: 2
#     Edge 20, Type (0, 1), BuildingBlock: MIFKUJ_clean_linker_0, # of connection points: 2
#     Edge 21, Type (0, 1), BuildingBlock: MIFKUJ_clean_linker_0, # of connection points: 2
#     Edge 22, Type (0, 1), BuildingBlock: MIFKUJ_clean_linker_0, # of connection points: 2
#     Edge 23, Type (0, 1), BuildingBlock: MIFKUJ_clean_linker_0, # of connection points: 2
#     Edge 24, Type (0, 1), BuildingBlock: MIFKUJ_clean_linker_0, # of connection points: 2
#     Edge 25, Type (0, 1), BuildingBlock: MIFKUJ_clean_linker_0, # of connection points: 2
#     Edge 26, Type (0, 1), BuildingBlock: MIFKUJ_clean_linker_0, # of connection points: 2
# Relax obj value: 0.122
# Max RMSD: 0.168
# Mean RMSD: 0.120
data_MOF--net-anh--node1-INOVEN_clean_sbu_0--node2-BETDIP_clean_linker_0--edge1-MIFKUJ_clean_linker_0
_symmetry_space_group_name_H-M    P1
_symmetry_Int_Tables_number       1
_symmetry_cell_setting            triclinic
loop_
_symmetry_equiv_pos_as_xyz
'x, y, z'
_cell_length_a     40.500824
_cell_length_b     47.098215
_cell_length_c     64.264032
_cell_angle_alpha  96.16383
_cell_angle_beta   89.08346
_cell_angle_gamma 128.19133
loop_
_atom_site_label
_atom_site_type_symbol
_atom_site_fract_x
_atom_site_fract_y
_atom_site_fract_z
_atom_type_partial_charge
Gd0 Gd 0.12712 0.5502 0.14525 0.0
Gd1 Gd 0.08482 0.58074 0.16472 0.0
C2 C 0.18177 0.63834 0.15774 0.0
C3 C 0.17029 0.53733 0.12217 0.0
C4 C 0.21426 0.55136 0.1233 0.0
C5 C 0.23802 0.56632 0.14258 0.0
C6 C 0.2322 0.54852 0.10522 0.0
C7 C 0.29595 0.57188 0.12602 0.0
C8 C 0.27285 0.55898 0.10651 0.0
C9 C 0.2784 0.57628 0.14396 0.0
C10 C 0.12747 0.5546 0.18732 0.0
C11 C 1.03053 0.49259 0.1534 0.0
C12 C 1.04209 0.59476 0.18736 0.0
C13 C 0.99729 0.5784 0.1883 0.0
C14 C 0.97235 0.56907 0.17001 0.0
C15 C 0.97885 0.57108 0.20766 0.0
C16 C 0.91111 0.54532 0.19045 0.0
C17 C 0.93603 0.5545 0.20873 0.0
C18 C 0.92973 0.55287 0.1711 0.0
C19 C 0.0842 0.57506 0.12233 0.0
O20 O 0.17765 0.61149 0.14574 0.0
O21 O 0.15146 0.63192 0.16964 0.0
O22 O 0.14759 0.51791 0.13701 0.0
O23 O 0.16398 0.56033 0.1181 0.0
O24 O 0.12638 0.52988 0.17562 0.0
O25 O 0.13298 0.57789 0.17663 0.0
O26 O 1.03502 0.51983 0.16511 0.0
O27 O 0.06017 0.49858 0.14103 0.0
O28 O 0.06056 0.61058 0.17073 0.0
O29 O 1.05256 0.57532 0.19308 0.0
O30 O 0.08716 0.60093 0.13387 0.0
O31 O 0.07839 0.55226 0.13353 0.0
H32 H 0.22473 0.56903 0.1567 0.0
H33 H 0.21435 0.5373 0.09021 0.0
H34 H 0.28569 0.55599 0.0923 0.0
H35 H 0.29491 0.5857 0.15927 0.0
H36 H 0.98563 0.57396 0.15482 0.0
H37 H 0.99753 0.57794 0.22193 0.0
H38 H 0.92244 0.54905 0.22384 0.0
H39 H 0.91109 0.54552 0.15673 0.0
Gd40 Gd 0.61212 0.04084 0.49043 0.0
Gd41 Gd 0.55646 0.05975 0.47791 0.0
C42 C 0.51106 0.97628 0.47955 0.0
C43 C 0.64393 0.01449 0.50744 0.0
C44 C 0.63116 0.97822 0.50975 0.0
C45 C 0.60227 0.94779 0.49517 0.0
C46 C 0.64833 0.97402 0.52679 0.0
C47 C 0.60889 0.90953 0.51441 0.0
C48 C 0.63733 0.94001 0.52911 0.0
C49 C 0.59138 0.91374 0.49742 0.0
C50 C 0.60871 0.04634 0.44942 0.0
C51 C 0.65854 0.1243 0.48768 0.0
C52 C 0.52369 0.08596 0.46178 0.0
C53 C 0.53081 0.12101 0.46443 0.0
C54 C 0.49776 0.12164 0.47039 0.0
C55 C 0.57035 0.15399 0.46184 0.0
C56 C 0.54407 0.18778 0.47214 0.0
C57 C 0.57693 0.18702 0.46569 0.0
C58 C 0.50428 0.15462 0.47422 0.0
C59 C 0.56204 0.05674 0.51929 0.0
O60 O 0.54592 0.98744 0.48995 0.0
O61 O 0.50947 0.99906 0.47013 0.0
O62 O 0.65113 0.02389 0.48848 0.0
O63 O 0.62308 0.02364 0.51775 0.0
O64 O 0.64242 0.05674 0.45979 0.0
O65 O 0.57773 0.03147 0.46077 0.0
O66 O 0.62263 0.11334 0.47856 0.0
O67 O 0.66121 0.1016 0.49651 0.0
O68 O 0.50889 0.06736 0.47779 0.0
O69 O 0.55261 0.0853 0.45293 0.0
O70 O 0.52821 0.04677 0.50934 0.0
O71 O 0.59184 0.07008 0.5073 0.0
H72 H 0.58831 0.95041 0.48201 0.0
H73 H 0.67049 0.99714 0.53825 0.0
H74 H 0.65152 0.93765 0.54227 0.0
H75 H 0.56908 0.89065 0.48598 0.0
H76 H 0.46698 0.09658 0.47247 0.0
H77 H 0.59632 0.15436 0.45705 0.0
H78 H 0.60779 0.21198 0.46364 0.0
H79 H 0.47841 0.15418 0.47939 0.0
Gd80 Gd 0.63644 0.56711 0.84353 0.0
Gd81 Gd 0.57648 0.48651 0.84418 0.0
C82 C 0.53347 0.52601 0.84469 0.0
C83 C 0.67479 0.63272 0.8348 0.0
C84 C 0.664 0.65691 0.83213 0.0
C85 C 0.689 0.6923 0.84282 0.0
C86 C 0.62946 0.64541 0.81891 0.0
C87 C 0.646 0.70495 0.82664 0.0
C88 C 0.62069 0.66922 0.81612 0.0
C89 C 0.68003 0.71603 0.84019 0.0
C90 C 0.62201 0.54507 0.88188 0.0
C91 C 0.68021 0.52854 0.84405 0.0
C92 C 0.53712 0.42043 0.85252 0.0
C93 C 0.54357 0.39282 0.85018 0.0
C94 C 0.50939 0.35641 0.85163 0.0
C95 C 0.58299 0.40209 0.84579 0.0
C96 C 0.55359 0.33842 0.84377 0.0
C97 C 0.58802 0.37513 0.8427 0.0
C98 C 0.5143 0.32942 0.84845 0.0
C99 C 0.58817 0.50753 0.80573 0.0
O100 O 0.57144 0.55475 0.84002 0.0
O101 O 0.52849 0.49686 0.84957 0.0
O102 O 0.67427 0.62508 0.85383 0.0
O103 O 0.65891 0.60462 0.82048 0.0
O104 O 0.65892 0.57219 0.87678 0.0
O105 O 0.595 0.53229 0.86695 0.0
O106 O 0.64166 0.49904 0.84739 0.0
O107 O 0.68588 0.55835 0.84007 0.0
O108 O 0.53025 0.42843 0.83506 0.0
O109 O 0.56274 0.44916 0.86615 0.0
O110 O 0.55223 0.4804 0.81156 0.0
O111 O 0.61679 0.52098 0.82003 0.0
H112 H 0.71564 0.70166 0.85319 0.0
H113 H 0.60945 0.61815 0.81053 0.0
H114 H 0.59457 0.6598 0.80535 0.0
H115 H 0.69973 0.74304 0.84887 0.0
H116 H 0.47873 0.34878 0.85501 0.0
H117 H 0.60968 0.43001 0.84443 0.0
H118 H 0.61857 0.38289 0.83891 0.0
H119 H 0.48732 0.30147 0.84964 0.0
H120 H 0.57606 0.0359 0.16541 0.0
H121 H 0.64417 0.10243 0.22364 0.0
H122 H 0.53376 0.9914 0.22393 0.0
H123 H 0.6393 0.14199 0.20299 0.0
C124 C 0.65599 0.13921 0.19054 0.0
C125 C 0.58001 0.03894 0.18234 0.0
C126 C 0.55081 0.0095 0.19345 0.0
C127 C 0.61296 0.073 0.19327 0.0
C128 C 0.61789 0.07671 0.21528 0.0
C129 C 0.58991 0.04724 0.22646 0.0
C130 C 0.55624 0.01403 0.21539 0.0
N131 N 0.6409 0.10352 0.18219 0.0
H132 H 0.57596 0.52449 0.52566 0.0
H133 H 0.5851 0.57763 0.58663 0.0
H134 H 0.60494 0.49777 0.5811 0.0
H135 H 0.53484 0.57723 0.57003 0.0
C136 C 0.55046 0.58764 0.55572 0.0
C137 C 0.58165 0.52835 0.54252 0.0
C138 C 0.59136 0.50837 0.55182 0.0
C139 C 0.57875 0.55307 0.55494 0.0
C140 C 0.58617 0.55804 0.57685 0.0
C141 C 0.5959 0.53837 0.58632 0.0
C142 C 0.59877 0.51385 0.57372 0.0
N143 N 0.56926 0.57321 0.54516 0.0
H144 H 0.07058 0.5221 0.83619 0.0
H145 H 0.14002 0.54207 0.89364 0.0
H146 H 1.03307 0.54035 0.89627 0.0
H147 H 0.197 0.57531 0.86959 0.0
C148 C 0.18347 0.54992 0.85955 0.0
C149 C 0.07548 0.52805 0.85309 0.0
C150 C 1.04693 0.53102 0.86499 0.0
C151 C 0.11032 0.53264 0.86339 0.0
C152 C 0.11493 0.53942 0.88542 0.0
C153 C 0.08738 0.54226 0.89716 0.0
C154 C 0.05425 0.53837 0.88691 0.0
N155 N 0.13949 0.52898 0.85228 0.0
H156 H 0.116 0.57702 0.47222 0.0
H157 H 0.05608 0.50854 0.41336 0.0
H158 H 0.16685 0.61962 0.414 0.0
H159 H 0.9972 0.49378 0.43412 0.0
C160 C 1.00673 0.48592 0.44663 0.0
C161 C 0.11492 0.57314 0.45525 0.0
C162 C 0.14542 0.60237 0.44433 0.0
C163 C 0.08167 0.53942 0.44409 0.0
C164 C 0.08061 0.53474 0.42202 0.0
C165 C 0.11161 0.56333 0.41107 0.0
C166 C 0.14347 0.59705 0.42236 0.0
N167 N 1.04935 0.5104 0.45503 0.0
H168 H 0.58951 0.03737 0.79833 0.0
H169 H 0.58183 0.98253 0.73837 0.0
H170 H 0.57082 0.06794 0.74153 0.0
H171 H 0.53592 0.93318 0.76304 0.0
C172 C 0.56384 0.94597 0.77344 0.0
C173 C 0.58609 0.03421 0.78136 0.0
C174 C 0.57952 0.05559 0.77134 0.0
C175 C 0.58577 0.00718 0.76956 0.0
C176 C 0.58127 1.00292 0.74754 0.0
C177 C 0.57587 0.02479 0.73735 0.0
C178 C 0.57466 0.05077 0.74937 0.0
N179 N 0.58934 0.98402 0.77998 0.0
H180 H 0.48767 0.41245 0.1441 0.0
H181 H 0.49557 0.37598 0.08138 0.0
H182 H 0.54396 0.4869 0.09779 0.0
H183 H 0.45091 0.32576 0.14602 0.0
C184 C 0.47725 0.3481 0.13857 0.0
C185 C 0.49838 0.41845 0.12846 0.0
C186 C 0.51706 0.45323 0.12286 0.0
C187 C 0.49093 0.39065 0.11354 0.0
C188 C 0.50222 0.39772 0.09293 0.0
C189 C 0.52269 0.43283 0.08734 0.0
C190 C 0.53044 0.46045 0.10246 0.0
N191 N 0.46988 0.3549 0.11883 0.0
H192 H 0.3149 0.53056 0.10507 0.0
H193 H 0.37544 0.53291 0.11141 0.0
H194 H 0.42756 0.62516 0.15871 0.0
H195 H 0.36709 0.62377 0.15201 0.0
H196 H 0.46078 0.58264 0.11018 0.0
H197 H 0.46922 0.60816 0.19897 0.0
H198 H 0.42673 0.60619 0.22763 0.0
H199 H 0.31321 0.5195 0.1909 0.0
H200 H 0.35507 0.52071 0.16218 0.0
H201 H 0.57799 0.52747 0.13109 0.0
H202 H 0.56473 0.57077 0.1424 0.0
H203 H 0.43821 0.48195 0.15566 0.0
H204 H 0.45121 0.43894 0.14464 0.0
H205 H 0.46466 0.54559 0.179 0.0
H206 H 0.45941 0.50024 0.10456 0.0
H207 H 0.49562 0.4933 0.0756 0.0
H208 H 0.59231 0.60922 0.08189 0.0
H209 H 0.55674 0.61673 0.11103 0.0
C210 C 0.33973 0.5522 0.11635 0.0
C211 C 0.33588 0.5769 0.12806 0.0
C212 C 0.37439 0.55341 0.12001 0.0
C213 C 0.40588 0.57907 0.1356 0.0
C214 C 0.40341 0.60498 0.1467 0.0
C215 C 0.3687 0.60396 0.14293 0.0
C216 C 0.4384 0.57557 0.14129 0.0
C217 C 0.46261 0.57562 0.12543 0.0
C218 C 0.44073 0.56627 0.16116 0.0
C219 C 0.41524 0.5649 0.17838 0.0
C220 C 0.43519 0.58867 0.19706 0.0
C221 C 0.41123 0.58767 0.2133 0.0
C222 C 0.36729 0.56284 0.21105 0.0
C223 C 0.34723 0.53882 0.1926 0.0
C224 C 0.37105 0.53966 0.17633 0.0
C225 C 0.54795 0.5174 0.13726 0.0
C226 C 0.51528 0.47974 0.13647 0.0
C227 C 0.54049 0.54218 0.14379 0.0
C228 C 0.50011 0.52945 0.14929 0.0
C229 C 0.46956 0.49241 0.15139 0.0
C230 C 0.47706 0.46772 0.14503 0.0
C231 C 0.48595 0.55163 0.14769 0.0
C232 C 0.46492 0.55482 0.1642 0.0
C233 C 0.48579 0.56326 0.12828 0.0
C234 C 0.50567 0.55902 0.10998 0.0
C235 C 0.48831 0.52422 0.09968 0.0
C236 C 0.50879 0.52018 0.08332 0.0
C237 C 0.5464 0.55079 0.07702 0.0
C238 C 0.56328 0.58554 0.08686 0.0
C239 C 0.54297 0.58972 0.10328 0.0
H240 H 0.56238 0.54758 0.06446 0.0
H241 H 0.3488 0.56214 0.22363 0.0
H242 H 0.66472 0.1776 0.47009 0.0
H243 H 0.7278 0.23872 0.46611 0.0
H244 H 0.80287 0.21997 0.49955 0.0
H245 H 0.73938 0.15825 0.50369 0.0
H246 H 0.82649 0.29107 0.5105 0.0
H247 H 0.80271 0.21231 0.4489 0.0
H248 H 0.75916 0.16457 0.41925 0.0
H249 H 0.7367 0.2325 0.3941 0.0
H250 H 0.77942 0.28039 0.42384 0.0
H251 H 1.01623 0.44976 0.47439 0.0
H252 H 0.96135 0.38838 0.48384 0.0
H253 H 0.86946 0.38003 0.44465 0.0
H254 H 0.92407 0.44051 0.43489 0.0
H255 H 0.85972 0.31992 0.43742 0.0
H256 H 0.87658 0.39557 0.5 0.0
H257 H 0.91558 0.44225 0.53065 0.0
H258 H 0.94882 0.38042 0.55418 0.0
H259 H 0.91043 0.33357 0.52351 0.0
C260 C 0.69444 0.18637 0.47681 0.0
C261 C 0.6968 0.16269 0.48709 0.0
C262 C 0.73061 0.22145 0.47447 0.0
C263 C 0.7702 0.23383 0.48228 0.0
C264 C 0.77266 0.21097 0.49334 0.0
C265 C 0.73632 0.17564 0.49564 0.0
C266 C 0.80886 0.26992 0.47783 0.0
C267 C 0.83428 0.29728 0.49454 0.0
C268 C 0.81868 0.27815 0.45699 0.0
C269 C 0.79408 0.24987 0.4387 0.0
C270 C 0.78832 0.21701 0.43711 0.0
C271 C 0.76377 0.18991 0.42029 0.0
C272 C 0.74512 0.19547 0.40482 0.0
C273 C 0.75114 0.22822 0.4061 0.0
C274 C 0.77556 0.25537 0.42293 0.0
C275 C 0.98425 0.43486 0.46795 0.0
C276 C 0.97438 0.44996 0.45393 0.0
C277 C 0.95283 0.39978 0.47339 0.0
C278 C 0.91099 0.3794 0.46505 0.0
C279 C 0.90136 0.39489 0.45125 0.0
C280 C 0.93261 0.42961 0.44575 0.0
C281 C 0.87703 0.3417 0.47011 0.0
C282 C 0.85241 0.31382 0.45343 0.0
C283 C 0.8679 0.33312 0.49097 0.0
C284 C 0.8911 0.36131 0.50934 0.0
C285 C 0.89253 0.39209 0.51162 0.0
C286 C 0.91445 0.41854 0.52901 0.0
C287 C 0.93479 0.41436 0.54432 0.0
C288 C 0.93314 0.38366 0.54229 0.0
C289 C 0.91129 0.35715 0.52491 0.0
H290 H 0.95173 0.43486 0.55778 0.0
H291 H 0.72605 0.17443 0.39183 0.0
H292 H 0.70334 0.77832 0.82412 0.0
H293 H 0.68932 0.82019 0.81752 0.0
H294 H 0.55587 0.73211 0.81358 0.0
H295 H 0.56936 0.69016 0.82101 0.0
H296 H 0.58507 0.77461 0.77954 0.0
H297 H 0.5959 0.79124 0.85527 0.0
H298 H 0.63087 0.80475 0.89002 0.0
H299 H 0.73559 0.91058 0.87547 0.0
H300 H 0.7015 0.89749 0.84049 0.0
H301 H 0.50949 0.87305 0.77303 0.0
H302 H 0.52346 0.83324 0.78424 0.0
H303 H 0.65265 0.92659 0.80164 0.0
H304 H 0.638 0.96668 0.79142 0.0
H305 H 0.6273 0.88193 0.82904 0.0
H306 H 0.62133 0.86783 0.75421 0.0
H307 H 0.59138 0.85625 0.71835 0.0
H308 H 0.48467 0.74868 0.72932 0.0
H309 H 0.51372 0.75979 0.76536 0.0
C310 C 0.67094 0.76786 0.82227 0.0
C311 C 0.63749 0.73073 0.82312 0.0
C312 C 0.66303 0.79186 0.81838 0.0
C313 C 0.62158 0.77923 0.81513 0.0
C314 C 0.5881 0.74232 0.81599 0.0
C315 C 0.59594 0.71836 0.82011 0.0
C316 C 0.61317 0.80429 0.81013 0.0
C317 C 0.59371 0.7978 0.79045 0.0
C318 C 0.62596 0.83525 0.8241 0.0
C319 C 0.64632 0.84324 0.84518 0.0
C320 C 0.62654 0.81728 0.85941 0.0
C321 C 0.64617 0.82488 0.87916 0.0
C322 C 0.68547 0.85846 0.88493 0.0
C323 C 0.70517 0.88456 0.87097 0.0
C324 C 0.68569 0.87707 0.85119 0.0
C325 C 0.54076 0.88503 0.77942 0.0
C326 C 0.57268 0.92281 0.78131 0.0
C327 C 0.54884 0.86227 0.78568 0.0
C328 C 0.58941 0.87674 0.79332 0.0
C329 C 0.62114 0.91471 0.79572 0.0
C330 C 0.61279 0.9376 0.78985 0.0
C331 C 0.59873 0.85216 0.79842 0.0
C332 C 0.61854 0.85877 0.81808 0.0
C333 C 0.58701 0.82162 0.78425 0.0
C334 C 0.56952 0.81477 0.76255 0.0
C335 C 0.59134 0.84179 0.74902 0.0
C336 C 0.57454 0.8353 0.72866 0.0
C337 C 0.5361 0.80179 0.72158 0.0
C338 C 0.51442 0.77465 0.73483 0.0
C339 C 0.53106 0.78101 0.75522 0.0
H340 H 0.52314 0.79682 0.70581 0.0
H341 H 0.70062 0.8643 0.90023 0.0
H342 H 0.866 0.56179 0.17161 0.0
H343 H 0.78972 0.5279 0.17018 0.0
H344 H 0.77701 0.4534 0.20956 0.0
H345 H 0.85345 0.4871 0.2109 0.0
H346 H 0.72521 0.41872 0.17368 0.0
H347 H 0.75784 0.50983 0.22917 0.0
H348 H 0.79559 0.57233 0.24697 0.0
H349 H 0.74981 0.59757 0.19809 0.0
H350 H 0.71226 0.53538 0.17982 0.0
H351 H 0.50153 0.36295 0.18005 0.0
H352 H 0.57337 0.39615 0.19588 0.0
H353 H 0.62091 0.4106 0.1342 0.0
H354 H 0.54987 0.37797 0.11843 0.0
H355 H 0.65087 0.47095 0.18916 0.0
H356 H 0.68749 0.38818 0.13582 0.0
H357 H 0.65003 0.32597 0.11754 0.0
H358 H 0.55752 0.28385 0.16358 0.0
H359 H 0.59478 0.3457 0.18229 0.0
C360 C 0.84695 0.53837 0.18011 0.0
C361 C 0.86553 0.52695 0.1913 0.0
C362 C 0.80347 0.51924 0.17943 0.0
C363 C 0.77781 0.48833 0.1899 0.0
C364 C 0.79636 0.47733 0.20148 0.0
C365 C 0.83995 0.49665 0.20231 0.0
C366 C 0.73147 0.46587 0.18713 0.0
C367 C 0.70889 0.43 0.17733 0.0
C368 C 0.7102 0.48058 0.19203 0.0
C369 C 0.73239 0.51794 0.20307 0.0
C370 C 0.75603 0.52877 0.22214 0.0
C371 C 0.77737 0.56414 0.23233 0.0
C372 C 0.77514 0.58892 0.22366 0.0
C373 C 0.75149 0.57834 0.20479 0.0
C374 C 0.73012 0.54301 0.19453 0.0
C375 C 0.5275 0.37348 0.16997 0.0
C376 C 0.52041 0.36846 0.14811 0.0
C377 C 0.56832 0.39245 0.17898 0.0
C378 C 0.6022 0.40571 0.16615 0.0
C379 C 0.59507 0.40056 0.14432 0.0
C380 C 0.55453 0.38214 0.13536 0.0
C381 C 0.64521 0.42436 0.17525 0.0
C382 C 0.66715 0.45952 0.18602 0.0
C383 C 0.66598 0.40905 0.17129 0.0
C384 C 0.64378 0.37163 0.16036 0.0
C385 C 0.65929 0.36562 0.1421 0.0
C386 C 0.63806 0.33042 0.13165 0.0
C387 C 0.60136 0.30099 0.13936 0.0
C388 C 0.58587 0.30668 0.15758 0.0
C389 C 0.607 0.34182 0.16809 0.0
H390 H 0.58495 0.27377 0.13124 0.0
H391 H 0.7917 0.61629 0.23156 0.0
H392 H 0.50437 0.92083 0.49481 0.0
H393 H 0.44217 0.85707 0.49347 0.0
H394 H 0.36976 0.87934 0.46077 0.0
H395 H 0.43182 0.94335 0.46215 0.0
H396 H 0.32604 0.8362 0.49179 0.0
H397 H 0.40243 0.83572 0.43327 0.0
H398 H 0.46672 0.85122 0.41733 0.0
H399 H 0.47532 0.79098 0.45948 0.0
H400 H 0.41079 0.77485 0.47562 0.0
H401 H 0.15555 0.66406 0.44102 0.0
H402 H 0.21748 0.72671 0.45229 0.0
H403 H 0.27467 0.68736 0.48186 0.0
H404 H 0.2122 0.62419 0.47041 0.0
H405 H 0.32822 0.73827 0.45671 0.0
H406 H 0.24414 0.73091 0.51159 0.0
H407 H 0.18096 0.71731 0.52782 0.0
H408 H 0.18768 0.79402 0.4936 0.0
H409 H 0.25057 0.80773 0.47691 0.0
C410 C 0.47527 0.91226 0.48728 0.0
C411 C 0.47327 0.93733 0.47847 0.0
C412 C 0.43968 0.87568 0.48651 0.0
C413 C 0.40125 0.86325 0.47688 0.0
C414 C 0.39901 0.88826 0.4683 0.0
C415 C 0.43464 0.92486 0.469 0.0
C416 C 0.36357 0.82409 0.47546 0.0
C417 C 0.32635 0.81479 0.48396 0.0
C418 C 0.3643 0.796 0.46586 0.0
C419 C 0.40199 0.80427 0.4557 0.0
C420 C 0.41801 0.82573 0.43911 0.0
C421 C 0.45441 0.83454 0.43003 0.0
C422 C 0.47501 0.82199 0.43738 0.0
C423 C 0.45911 0.80042 0.45375 0.0
C424 C 0.42256 0.79133 0.46282 0.0
C425 C 0.18086 0.66881 0.45045 0.0
C426 C 0.17896 0.63937 0.45508 0.0
C427 C 0.21631 0.70464 0.45687 0.0
C428 C 0.25082 0.71194 0.46806 0.0
C429 C 0.24843 0.68247 0.47331 0.0
C430 C 0.21264 0.64644 0.46698 0.0
C431 C 0.2902 0.75025 0.47275 0.0
C432 C 0.32785 0.7595 0.46481 0.0
C433 C 0.28981 0.77829 0.4829 0.0
C434 C 0.25194 0.77015 0.49288 0.0
C435 C 0.23196 0.74468 0.50739 0.0
C436 C 0.19623 0.73699 0.5167 0.0
C437 C 0.18027 0.75474 0.51171 0.0
C438 C 0.20007 0.78028 0.49744 0.0
C439 C 0.2358 0.78806 0.48807 0.0
H440 H 0.1526 0.74875 0.51894 0.0
H441 H 0.50332 0.829 0.43041 0.0
H442 H 0.5 0.27261 0.81988 0.0
H443 H 0.50715 0.22483 0.81242 0.0
H444 H 0.62472 0.29065 0.84997 0.0
H445 H 0.61783 0.33889 0.85742 0.0
H446 H 0.63102 0.26035 0.81405 0.0
H447 H 0.53501 0.21712 0.86839 0.0
H448 H 0.4723 0.20112 0.88637 0.0
H449 H 0.39217 0.12059 0.8345 0.0
H450 H 0.45442 0.13646 0.81606 0.0
H451 H 0.6335 0.10859 0.80331 0.0
H452 H 0.6316 0.15667 0.82067 0.0
H453 H 0.51756 0.1114 0.78369 0.0
H454 H 0.51918 0.06346 0.76652 0.0
H455 H 0.51441 0.13256 0.82469 0.0
H456 H 0.60988 0.18143 0.76884 0.0
H457 H 0.67196 0.1976 0.75013 0.0
H458 H 0.75258 0.26746 0.80483 0.0
H459 H 0.69082 0.25127 0.82397 0.0
C460 C 0.52715 0.27679 0.82676 0.0
C461 C 0.55816 0.30941 0.83939 0.0
C462 C 0.53122 0.24943 0.82248 0.0
C463 C 0.5661 0.25385 0.83094 0.0
C464 C 0.59745 0.28658 0.84335 0.0
C465 C 0.59351 0.31412 0.84755 0.0
C466 C 0.57001 0.22448 0.82633 0.0
C467 C 0.60591 0.23255 0.81681 0.0
C468 C 0.53701 0.18808 0.82965 0.0
C469 C 0.49943 0.17815 0.84079 0.0
C470 C 0.50403 0.19614 0.86076 0.0
C471 C 0.46856 0.18708 0.87104 0.0
C472 C 0.42828 0.1599 0.86157 0.0
C473 C 0.42339 0.14165 0.84182 0.0
C474 C 0.45876 0.15063 0.83146 0.0
C475 C 0.60775 0.10868 0.79918 0.0
C476 C 0.57669 0.08256 0.78347 0.0
C477 C 0.60681 0.13619 0.80899 0.0
C478 C 0.57464 0.13776 0.80331 0.0
C479 C 0.54267 0.11073 0.78829 0.0
C480 C 0.54378 0.08351 0.77841 0.0
C481 C 0.57496 0.16838 0.81207 0.0
C482 C 0.53983 0.16051 0.82234 0.0
C483 C 0.60861 0.20492 0.80943 0.0
C484 C 0.64572 0.2148 0.79791 0.0
C485 C 0.64082 0.2 0.77693 0.0
C486 C 0.67594 0.20921 0.76624 0.0
C487 C 0.71619 0.23345 0.77631 0.0
C488 C 0.72139 0.24862 0.79707 0.0
C489 C 0.68634 0.23945 0.80785 0.0
H490 H 0.74335 0.24056 0.768 0.0
H491 H 0.40086 0.15293 0.86955 0.0
H492 H 0.60688 0.86259 0.48437 0.0
H493 H 0.59473 0.80594 0.48899 0.0
H494 H 0.57403 0.81875 0.55427 0.0
H495 H 0.58738 0.87587 0.54981 0.0
H496 H 0.62351 0.80233 0.55178 0.0
H497 H 0.49179 0.75187 0.51575 0.0
H498 H 0.444 0.7423 0.4876 0.0
H499 H 0.49634 0.70791 0.44285 0.0
H500 H 0.54459 0.71742 0.47075 0.0
H501 H 0.5284 0.62559 0.57685 0.0
H502 H 0.53718 0.6787 0.56727 0.0
H503 H 0.58898 0.67222 0.50947 0.0
H504 H 0.58072 0.61908 0.51913 0.0
H505 H 0.52644 0.68492 0.50622 0.0
H506 H 0.65553 0.73282 0.54486 0.0
H507 H 0.69762 0.73874 0.57477 0.0
H508 H 0.64432 0.77602 0.61654 0.0
H509 H 0.60141 0.76979 0.5869 0.0
C510 C 0.5992 0.85302 0.49963 0.0
C511 C 0.59822 0.8737 0.51675 0.0
C512 C 0.59213 0.82056 0.50226 0.0
C513 C 0.58312 0.80777 0.52197 0.0
C514 C 0.58114 0.82804 0.53894 0.0
C515 C 0.58876 0.86069 0.53638 0.0
C516 C 0.57795 0.7744 0.52529 0.0
C517 C 0.60185 0.77661 0.54192 0.0
C518 C 0.55055 0.7409 0.51216 0.0
C519 C 0.52209 0.73572 0.49529 0.0
C520 C 0.49335 0.74256 0.49988 0.0
C521 C 0.46608 0.73702 0.48398 0.0
C522 C 0.4672 0.72458 0.46344 0.0
C523 C 0.49554 0.71757 0.45876 0.0
C524 C 0.52279 0.72295 0.47462 0.0
C525 C 0.54145 0.63537 0.56204 0.0
C526 C 0.55408 0.61839 0.5488 0.0
C527 C 0.54648 0.66569 0.55661 0.0
C528 C 0.56396 0.67948 0.53774 0.0
C529 C 0.57544 0.66193 0.52411 0.0
C530 C 0.57085 0.63172 0.52967 0.0
C531 C 0.57145 0.71302 0.53282 0.0
C532 C 0.54817 0.71081 0.51591 0.0
C533 C 0.5989 0.74642 0.54587 0.0
C534 C 0.625 0.75054 0.56368 0.0
C535 C 0.65254 0.74201 0.56044 0.0
C536 C 0.67658 0.74547 0.57735 0.0
C537 C 0.67357 0.75767 0.59755 0.0
C538 C 0.64659 0.76654 0.60088 0.0
C539 C 0.62243 0.76309 0.58404 0.0
H540 H 0.69221 0.76033 0.61061 0.0
H541 H 0.44608 0.72034 0.45115 0.0
H542 H 0.68696 0.47923 0.85984 0.0
H543 H 0.74757 0.47929 0.86132 0.0
H544 H 0.82072 0.57667 0.83105 0.0
H545 H 0.76032 0.57695 0.82978 0.0
H546 H 0.83923 0.53323 0.81493 0.0
H547 H 0.83682 0.57753 0.88393 0.0
H548 H 0.81047 0.58045 0.91828 0.0
H549 H 0.78802 0.48195 0.93002 0.0
H550 H 0.81343 0.47799 0.89551 0.0
H551 H 1.04124 0.57286 0.83953 0.0
H552 H 0.98092 0.57257 0.83401 0.0
H553 H 0.90424 0.47931 0.86758 0.0
H554 H 0.96427 0.47989 0.87315 0.0
H555 H 0.88894 0.52298 0.88155 0.0
H556 H 0.8924 0.48014 0.81066 0.0
H557 H 0.92451 0.48266 0.77727 0.0
H558 H 0.95019 0.5841 0.77006 0.0
H559 H 0.91868 0.58241 0.80355 0.0
C560 C 0.71582 0.50076 0.85343 0.0
C561 C 0.71786 0.52812 0.84469 0.0
C562 C 0.75101 0.50088 0.85439 0.0
C563 C 0.78995 0.52814 0.84644 0.0
C564 C 0.79176 0.55511 0.83737 0.0
C565 C 0.75679 0.55532 0.83672 0.0
C566 C 0.82838 0.52863 0.84771 0.0
C567 C 0.85013 0.53133 0.82963 0.0
C568 C 0.84363 0.52593 0.86664 0.0
C569 C 0.82656 0.52722 0.887 0.0
C570 C 0.82567 0.55618 0.89369 0.0
C571 C 0.81103 0.55809 0.91322 0.0
C572 C 0.7976 0.53142 0.92631 0.0
C573 C 0.79845 0.5026 0.91984 0.0
C574 C 0.8129 0.50046 0.90028 0.0
C575 C 1.01115 0.55143 0.84506 0.0
C576 C 1.00808 0.52578 0.85635 0.0
C577 C 0.97626 0.55141 0.84205 0.0
C578 C 0.93671 0.52579 0.85025 0.0
C579 C 0.93359 0.49965 0.861 0.0
C580 C 0.96822 0.49965 0.86395 0.0
C581 C 0.89934 0.52678 0.84869 0.0
C582 C 0.87785 0.52452 0.86678 0.0
C583 C 0.88468 0.53028 0.82982 0.0
C584 C 0.90358 0.53133 0.80971 0.0
C585 C 0.90518 0.50312 0.80203 0.0
C586 C 0.92322 0.50437 0.78307 0.0
C587 C 0.93949 0.53357 0.77158 0.0
C588 C 0.93764 0.56153 0.779 0.0
C589 C 0.91967 0.56042 0.79795 0.0
H590 H 0.95344 0.53449 0.75691 0.0
H591 H 0.78669 0.53318 0.94151 0.0
H592 H 0.25281 0.66285 0.13651 0.0
H593 H 0.3171 0.72576 0.13691 0.0
H594 H 0.26468 0.76265 0.18021 0.0
H595 H 0.20039 0.70017 0.17974 0.0
H596 H 0.30093 0.8055 0.1494 0.0
H597 H 0.33891 0.75446 0.19638 0.0
H598 H 0.34794 0.70989 0.20532 0.0
H599 H 0.43428 0.73913 0.15687 0.0
H600 H 0.42535 0.78359 0.14748 0.0
H601 H 0.46917 0.97445 0.20189 0.0
H602 H 0.40878 0.91182 0.18967 0.0
H603 H 0.48727 0.90036 0.14952 0.0
H604 H 0.54845 0.96354 0.16211 0.0
H605 H 0.44097 0.8438 0.17214 0.0
H606 H 0.41064 0.90089 0.12832 0.0
H607 H 0.40139 0.94511 0.11902 0.0
H608 H 0.30072 0.9044 0.16036 0.0
H609 H 0.30975 0.86026 0.17016 0.0
C610 C 0.25497 0.68433 0.14616 0.0
C611 C 0.22135 0.67632 0.15815 0.0
C612 C 0.29184 0.72033 0.1464 0.0
C613 C 0.29593 0.74903 0.15869 0.0
C614 C 0.26232 0.74106 0.17056 0.0
C615 C 0.22557 0.70519 0.17035 0.0
C616 C 0.33501 0.78747 0.15937 0.0
C617 C 0.33151 0.81391 0.15449 0.0
C618 C 0.37527 0.79836 0.16523 0.0
C619 C 0.3811 0.77203 0.17108 0.0
C620 C 0.35961 0.75121 0.18755 0.0
C621 C 0.36474 0.726 0.19271 0.0
C622 C 0.39156 0.72159 0.18162 0.0
C623 C 0.41346 0.74252 0.16542 0.0
C624 C 0.4084 0.76775 0.16018 0.0
C625 C 0.47341 0.95882 0.19014 0.0
C626 C 0.51348 0.97388 0.18291 0.0
C627 C 0.43881 0.92299 0.18311 0.0
C628 C 0.44323 0.90126 0.16853 0.0
C629 C 0.48301 0.91658 0.16072 0.0
C630 C 0.51783 0.95273 0.16774 0.0
C631 C 0.40668 0.86205 0.16277 0.0
C632 C 0.41058 0.83541 0.16669 0.0
C633 C 0.36675 0.85092 0.15594 0.0
C634 C 0.36106 0.87737 0.15007 0.0
C635 C 0.38672 0.90152 0.13555 0.0
C636 C 0.38148 0.92655 0.13017 0.0
C637 C 0.35053 0.9276 0.13912 0.0
C638 C 0.32469 0.90356 0.15344 0.0
C639 C 0.32981 0.87848 0.15889 0.0
H640 H 0.34653 0.947 0.13493 0.0
H641 H 0.39544 0.70202 0.18562 0.0
H642 H 0.61295 0.25113 0.49339 0.0
H643 H 0.62366 0.30788 0.50366 0.0
H644 H 0.50247 0.26081 0.47389 0.0
H645 H 0.49207 0.20423 0.46295 0.0
H646 H 0.561 0.33112 0.46656 0.0
H647 H 0.51359 0.26519 0.52628 0.0
H648 H 0.5144 0.23193 0.55314 0.0
H649 H 0.63881 0.32649 0.57582 0.0
H650 H 0.63896 0.36017 0.54889 0.0
H651 H 0.53231 0.45473 0.52163 0.0
H652 H 0.52739 0.40293 0.50481 0.0
H653 H 0.64535 0.44609 0.53693 0.0
H654 H 0.65002 0.49754 0.55396 0.0
H655 H 0.58819 0.3776 0.54231 0.0
H656 H 0.63448 0.44432 0.48283 0.0
H657 H 0.63248 0.4771 0.45605 0.0
H658 H 0.5092 0.38113 0.43307 0.0
H659 H 0.51022 0.34789 0.4599 0.0
C660 C 0.58884 0.25298 0.4887 0.0
C661 C 0.55153 0.223 0.47742 0.0
C662 C 0.59485 0.28537 0.49476 0.0
C663 C 0.56361 0.28844 0.4898 0.0
C664 C 0.52693 0.25902 0.47797 0.0
C665 C 0.52087 0.22658 0.47189 0.0
C666 C 0.56863 0.32188 0.4976 0.0
C667 C 0.56651 0.34113 0.48314 0.0
C668 C 0.57648 0.33525 0.5192 0.0
C669 C 0.57645 0.31508 0.53543 0.0
C670 C 0.54125 0.2788 0.53689 0.0
C671 C 0.54152 0.25989 0.55214 0.0
C672 C 0.57668 0.27705 0.56614 0.0
C673 C 0.61162 0.31321 0.56495 0.0
C674 C 0.61154 0.33223 0.5497 0.0
C675 C 0.55764 0.45356 0.5247 0.0
C676 C 0.59147 0.48009 0.53917 0.0
C677 C 0.55481 0.42393 0.51509 0.0
C678 C 0.58605 0.42057 0.51956 0.0
C679 C 0.62074 0.44793 0.53331 0.0
C680 C 0.62341 0.47734 0.54302 0.0
C681 C 0.58116 0.38731 0.51127 0.0
C682 C 0.583 0.36786 0.52569 0.0
C683 C 0.57294 0.3738 0.48966 0.0
C684 C 0.57228 0.39372 0.47351 0.0
C685 C 0.6068 0.43029 0.47218 0.0
C686 C 0.60587 0.44893 0.45697 0.0
C687 C 0.57069 0.43123 0.4429 0.0
C688 C 0.53641 0.39482 0.44399 0.0
C689 C 0.53716 0.37605 0.45918 0.0
H690 H 0.57004 0.44572 0.43114 0.0
H691 H 0.57682 0.26237 0.57795 0.0
H692 H 0.53201 0.58343 0.83987 0.0
H693 H 0.47249 0.58492 0.84081 0.0
H694 H 0.38931 0.47219 0.85102 0.0
H695 H 0.44882 0.4706 0.85011 0.0
H696 H 0.34827 0.48326 0.82448 0.0
H697 H 0.42463 0.54543 0.89142 0.0
H698 H 0.4874 0.59184 0.91504 0.0
H699 H 0.50041 0.67675 0.88697 0.0
H700 H 0.43796 0.63082 0.86301 0.0
H701 H 0.17277 0.48411 0.85145 0.0
H702 H 0.22831 0.47721 0.84829 0.0
H703 H 0.32211 0.59369 0.85131 0.0
H704 H 0.26726 0.60033 0.85567 0.0
H705 H 0.35709 0.57834 0.87167 0.0
H706 H 0.28431 0.51921 0.80391 0.0
H707 H 0.22392 0.4746 0.77857 0.0
H708 H 0.20633 0.38684 0.80549 0.0
H709 H 0.26635 0.43096 0.83115 0.0
C710 C 0.50115 0.55881 0.84236 0.0
C711 C 0.49615 0.52692 0.84502 0.0
C712 C 0.46668 0.55973 0.84299 0.0
C713 C 0.42534 0.52878 0.84625 0.0
C714 C 0.4202 0.49673 0.84851 0.0
C715 C 0.45473 0.49587 0.84806 0.0
C716 C 0.38804 0.52995 0.84755 0.0
C717 C 0.35025 0.50392 0.83502 0.0
C718 C 0.38961 0.55707 0.8608 0.0
C719 C 0.42685 0.58469 0.87532 0.0
C720 C 0.44102 0.574 0.89021 0.0
C721 C 0.47652 0.60022 0.90367 0.0
C722 C 0.49793 0.63722 0.90248 0.0
C723 C 0.48381 0.64808 0.88786 0.0
C724 C 0.44834 0.62197 0.87436 0.0
C725 C 0.20511 0.50818 0.85096 0.0
C726 C 0.21483 0.54285 0.85347 0.0
C727 C 0.23745 0.50429 0.84913 0.0
C728 C 0.28085 0.53485 0.84928 0.0
C729 C 0.28985 0.56922 0.85126 0.0
C730 C 0.25791 0.57307 0.8535 0.0
C731 C 0.31708 0.53203 0.84823 0.0
C732 C 0.35482 0.5577 0.86096 0.0
C733 C 0.31563 0.50492 0.83489 0.0
C734 C 0.27948 0.47837 0.81959 0.0
C735 C 0.26736 0.49039 0.80451 0.0
C736 C 0.23324 0.4652 0.79008 0.0
C737 C 0.21122 0.42791 0.79047 0.0
C738 C 0.22336 0.41573 0.80525 0.0
C739 C 0.25743 0.44081 0.81973 0.0
H740 H 0.18482 0.40844 0.77928 0.0
H741 H 0.52542 0.65748 0.9129 0.0
H742 H 1.01102 0.42834 0.13414 0.0
H743 H 0.94862 0.36622 0.13804 0.0
H744 H 0.89946 0.40894 0.17903 0.0
H745 H 0.96175 0.47085 0.1755 0.0
H746 H 0.89325 0.35673 0.19549 0.0
H747 H 0.85973 0.37043 0.12724 0.0
H748 H 0.8725 0.3829 0.09046 0.0
H749 H 0.87732 0.29438 0.07626 0.0
H750 H 0.8651 0.28167 0.11304 0.0
H751 H 0.68312 0.20742 0.20212 0.0
H752 H 0.74726 0.26461 0.19332 0.0
H753 H 0.77989 0.20537 0.15488 0.0
H754 H 0.71468 0.14755 0.16339 0.0
H755 H 0.79839 0.26277 0.13635 0.0
H756 H 0.82772 0.24638 0.20363 0.0
H757 H 0.81547 0.23353 0.24036 0.0
H758 H 0.82028 0.32695 0.25646 0.0
H759 H 0.83196 0.34008 0.21976 0.0
C760 C 0.98677 0.42453 0.14385 0.0
C761 C 0.99154 0.45473 0.15449 0.0
C762 C 0.95098 0.38892 0.14602 0.0
C763 C 0.91904 0.38273 0.15875 0.0
C764 C 0.9236 0.41288 0.16916 0.0
C765 C 0.9593 0.44838 0.16705 0.0
C766 C 0.88147 0.34506 0.16193 0.0
C767 C 0.87231 0.33637 0.18253 0.0
C768 C 0.85486 0.31785 0.14505 0.0
C769 C 0.86196 0.32535 0.12293 0.0
C770 C 0.86383 0.3538 0.11631 0.0
C771 C 0.87091 0.36088 0.09546 0.0
C772 C 0.87584 0.33952 0.08105 0.0
C773 C 0.87357 0.31094 0.08744 0.0
C774 C 0.86653 0.30377 0.10829 0.0
C775 C 0.70379 0.20652 0.19166 0.0
C776 C 0.69396 0.17303 0.18353 0.0
C777 C 0.74061 0.23928 0.18672 0.0
C778 C 0.76899 0.23948 0.17376 0.0
C779 C 0.75864 0.20596 0.16501 0.0
C780 C 0.72141 0.17295 0.16989 0.0
C781 C 0.80965 0.27489 0.16994 0.0
C782 C 0.81951 0.28309 0.14927 0.0
C783 C 0.83716 0.30171 0.18676 0.0
C784 C 0.83041 0.29405 0.2089 0.0
C785 C 0.82588 0.26405 0.21497 0.0
C786 C 0.81908 0.25673 0.23579 0.0
C787 C 0.81702 0.27937 0.25072 0.0
C788 C 0.82186 0.30943 0.24488 0.0
C789 C 0.82862 0.31684 0.22407 0.0
H790 H 0.81174 0.27365 0.26683 0.0
H791 H 0.88133 0.34504 0.06491 0.0
H792 H 0.08272 0.52414 0.0967 0.0
H793 H 0.08607 0.51962 0.05847 0.0
H794 H 0.09172 0.61403 0.0578 0.0
H795 H 0.08884 0.6189 0.09604 0.0
H796 H 1.03388 0.55644 0.02746 0.0
H797 H 0.17834 0.62316 0.05216 0.0
H798 H 0.23677 0.6339 0.07272 0.0
H799 H 0.20954 0.53625 0.04041 0.0
H800 H 0.15045 0.52458 0.01986 0.0
H801 H 0.08712 0.59156 0.92358 0.0
H802 H 0.08952 0.59808 0.96192 0.0
H803 H 0.09951 0.51199 0.9617 0.0
H804 H 0.09794 0.50589 0.9233 0.0
H805 H 0.14913 0.5642 0.99274 0.0
H806 H 1.00505 0.49643 0.96828 0.0
H807 H 0.94543 0.48392 0.94783 0.0
H808 H 0.96962 0.58044 0.97997 0.0
H809 H 1.02981 0.59385 0.00041 0.0
C810 C 0.08477 0.54396 0.08838 0.0
C811 C 0.08563 0.57194 0.09929 0.0
C812 C 0.08677 0.5414 0.06658 0.0
C813 C 0.08941 0.56663 0.05533 0.0
C814 C 0.08972 0.5943 0.06619 0.0
C815 C 0.08815 0.5971 0.08801 0.0
C816 C 0.0915 0.56405 0.0322 0.0
C817 C 0.05935 0.55861 0.01985 0.0
C818 C 0.12411 0.56583 0.02231 0.0
C819 C 0.15972 0.57283 0.03459 0.0
C820 C 0.18457 0.6038 0.04955 0.0
C821 C 0.21785 0.61009 0.06119 0.0
C822 C 0.22686 0.58578 0.05787 0.0
C823 C 0.20254 0.55507 0.04295 0.0
C824 C 0.16915 0.54861 0.03129 0.0
C825 C 0.08999 0.57413 0.93173 0.0
C826 C 0.09204 0.54805 0.92046 0.0
C827 C 0.09127 0.57781 0.95364 0.0
C828 C 0.09385 0.55503 0.96472 0.0
C829 C 0.09739 0.52981 0.95352 0.0
C830 C 0.09654 0.52637 0.93159 0.0
C831 C 0.09161 0.55685 0.98792 0.0
C832 C 0.12363 0.56202 0.0003 0.0
C833 C 0.05863 0.55448 -0.00213 0.0
C834 C 1.02219 0.54632 0.98574 0.0
C835 C 0.99783 0.51513 0.97089 0.0
C836 C 0.96392 0.50786 0.95931 0.0
C837 C 0.95381 0.53142 0.96256 0.0
C838 C 0.97752 0.56224 0.97745 0.0
C839 C 1.01153 0.56968 0.98905 0.0
H840 H 0.92754 0.52575 0.95357 0.0
H841 H 0.25277 0.5908 0.06682 0.0
H842 H 0.53909 0.01352 0.42278 0.0
H843 H 0.53762 0.01781 0.38513 0.0
H844 H 0.67335 0.09507 0.38887 0.0
H845 H 0.67493 0.0898 0.42619 0.0
H846 H 0.56224 0.0692 0.36115 0.0
H847 H 0.71103 0.08094 0.34565 0.0
H848 H 0.75094 0.06337 0.36059 0.0
H849 H 0.63858 0.97435 0.3854 0.0
H850 H 0.59795 0.99112 0.3704 0.0
H851 H 0.6122 0.10467 0.25549 0.0
H852 H 0.61803 0.10874 0.29374 0.0
H853 H 0.58379 1.00126 0.28811 0.0
H854 H 0.57995 0.99776 0.25002 0.0
H855 H 0.6442 0.04303 0.31691 0.0
H856 H 0.51217 0.01723 0.30052 0.0
H857 H 0.46537 0.0274 0.28515 0.0
H858 H 0.53163 0.13112 0.32305 0.0
H859 H 0.57921 0.12176 0.33845 0.0
C860 C 0.56855 0.03147 0.41551 0.0
C861 C 0.60715 0.0508 0.42721 0.0
C862 C 0.56768 0.03404 0.39406 0.0
C863 C 0.60541 0.05623 0.38408 0.0
C864 C 0.64388 0.07709 0.3961 0.0
C865 C 0.64478 0.07411 0.41742 0.0
C866 C 0.60466 0.0561 0.36097 0.0
C867 C 0.58028 0.06362 0.35148 0.0
C868 C 0.6276 0.0482 0.34827 0.0
C869 C 0.6516 0.03753 0.35708 0.0
C870 C 0.69485 0.05754 0.35423 0.0
C871 C 0.71758 0.04773 0.36272 0.0
C872 C 0.69734 0.01783 0.37399 0.0
C873 C 0.65426 0.99758 0.37673 0.0
C874 C 0.63138 0.00724 0.36825 0.0
C875 C 0.60653 0.08214 0.2624 0.0
C876 C 0.59526 0.05076 0.24968 0.0
C877 C 0.6094 0.08433 0.28428 0.0
C878 C 0.6007 0.05507 0.29383 0.0
C879 C 0.59048 0.02414 0.28113 0.0
C880 C 0.58789 0.02203 0.25933 0.0
C881 C 0.60187 0.05623 0.31702 0.0
C882 C 0.62642 0.04894 0.32656 0.0
C883 C 0.57814 0.06332 0.32965 0.0
C884 C 0.54952 0.06897 0.32047 0.0
C885 C 0.51696 0.04233 0.30546 0.0
C886 C 0.49026 0.04792 0.29676 0.0
C887 C 0.4956 0.07993 0.30308 0.0
C888 C 0.52758 0.10637 0.31815 0.0
C889 C 0.55441 0.10092 0.32687 0.0
H890 H 0.4749 0.08421 0.29633 0.0
H891 H 0.715 0.01032 0.38057 0.0
H892 H 0.52984 0.49631 0.7787 0.0
H893 H 0.53714 0.508 0.7422 0.0
H894 H 0.66743 0.55202 0.7476 0.0
H895 H 0.66063 0.54206 0.78474 0.0
H896 H 0.66003 0.58882 0.72304 0.0
H897 H 0.58782 0.46241 0.72536 0.0
H898 H 0.5342 0.40143 0.73589 0.0
H899 H 0.43636 0.39763 0.70712 0.0
H900 H 0.48938 0.45883 0.69667 0.0
H901 H 0.65919 0.54941 0.61012 0.0
H902 H 0.66387 0.55058 0.64833 0.0
H903 H 0.54732 0.53489 0.65264 0.0
H904 H 0.54278 0.5342 0.6146 0.0
H905 H 0.55222 0.48394 0.67173 0.0
H906 H 0.62926 0.61307 0.66968 0.0
H907 H 0.68589 0.67252 0.65831 0.0
H908 H 0.77884 0.66826 0.68532 0.0
H909 H 0.7227 0.60848 0.69658 0.0
C910 C 0.56014 0.5088 0.77215 0.0
C911 C 0.59452 0.51781 0.78435 0.0
C912 C 0.56426 0.51531 0.75125 0.0
C913 C 0.60247 0.52982 0.74191 0.0
C914 C 0.63752 0.54047 0.75439 0.0
C915 C 0.63363 0.53472 0.77555 0.0
C916 C 0.60492 0.53237 0.71899 0.0
C917 C 0.63679 0.56572 0.71182 0.0
C918 C 0.57459 0.50228 0.70424 0.0
C919 C 0.54258 0.46534 0.71038 0.0
C920 C 0.55486 0.44867 0.7214 0.0
C921 C 0.52457 0.41405 0.72734 0.0
C922 C 0.4819 0.3957 0.72222 0.0
C923 C 0.46943 0.4119 0.71109 0.0
C924 C 0.49959 0.44653 0.70514 0.0
C925 C 0.63484 0.54657 0.6193 0.0
C926 C 0.60064 0.54175 0.60947 0.0
C927 C 0.63764 0.5474 0.64106 0.0
C928 C 0.60598 0.54291 0.65323 0.0
C929 C 0.57211 0.53853 0.64348 0.0
C930 C 0.56965 0.53829 0.62181 0.0
C931 C 0.60662 0.54044 0.67596 0.0
C932 C 0.57544 0.50695 0.68301 0.0
C933 C 0.63804 0.57011 0.69044 0.0
C934 C 0.67177 0.60611 0.68376 0.0
C935 C 0.66177 0.62463 0.67301 0.0
C936 C 0.69378 0.65843 0.66663 0.0
C937 C 0.73594 0.67411 0.67103 0.0
C938 C 0.74617 0.65606 0.68189 0.0
C939 C 0.71426 0.62223 0.68829 0.0
H940 H 0.76068 0.70028 0.66608 0.0
H941 H 0.45849 0.3689 0.72683 0.0
H942 H 0.63061 0.07582 0.54237 0.0
H943 H 0.63369 0.06717 0.5791 0.0
H944 H 0.50449 0.02458 0.58361 0.0
H945 H 0.5005 0.03136 0.54668 0.0
H946 H 0.57265 0.08548 0.61728 0.0
H947 H 0.50903 0.9651 0.58092 0.0
H948 H 0.50633 0.92247 0.55373 0.0
H949 H 0.62467 0.9559 0.57889 0.0
H950 H 0.62844 0.99931 0.60604 0.0
H951 H 0.516 0.01759 0.71322 0.0
H952 H 0.51452 0.01983 0.67545 0.0
H953 H 0.62618 0.02745 0.67149 0.0
H954 H 0.6272 0.02441 0.70937 0.0
H955 H 0.57231 0.98625 0.63711 0.0
H956 H 0.63478 0.1034 0.67485 0.0
H957 H 0.63947 0.14728 0.70189 0.0
H958 H 0.52785 0.12314 0.67388 0.0
H959 H 0.52208 0.07864 0.64686 0.0
C960 C 0.60275 0.06417 0.55113 0.0
C961 C 0.5651 0.05364 0.54163 0.0
C962 C 0.60463 0.05944 0.57207 0.0
C963 C 0.56922 0.04504 0.58388 0.0
C964 C 0.53204 0.03562 0.57463 0.0
C965 C 0.52984 0.03951 0.55359 0.0
C966 C 0.57084 0.03984 0.60597 0.0
C967 C 0.57219 0.06364 0.62167 0.0
C968 C 0.57152 0.01197 0.61152 0.0
C969 C 0.56926 0.98575 0.59536 0.0
C970 C 0.53471 0.96367 0.58052 0.0
C971 C 0.53293 0.93931 0.56515 0.0
C972 C 0.56532 0.93652 0.56458 0.0
C973 C 0.59961 0.95812 0.57936 0.0
C974 C 0.60158 0.98261 0.59475 0.0
C975 C 0.53992 0.0193 0.70423 0.0
C976 C 0.57201 0.02128 0.71418 0.0
C977 C 0.5391 0.02062 0.68269 0.0
C978 C 0.57081 0.02466 0.67075 0.0
C979 C 0.60154 0.02452 0.68044 0.0
C980 C 0.60209 0.02278 0.70203 0.0
C981 C 0.57325 0.03152 0.64857 0.0
C982 C 0.57296 0.00824 0.63282 0.0
C983 C 0.57402 0.0602 0.64293 0.0
C984 C 0.57782 0.08746 0.65892 0.0
C985 C 0.61109 0.10729 0.67452 0.0
C986 C 0.61395 0.13228 0.68985 0.0
C987 C 0.58393 0.13794 0.68963 0.0
C988 C 0.55106 0.1187 0.67404 0.0
C989 C 0.548 0.09361 0.6587 0.0
H990 H 0.58618 0.15727 0.70152 0.0
H991 H 0.56371 0.91749 0.55272 0.0
H992 H 0.67607 0.56843 0.91605 0.0
H993 H 0.65822 0.54489 0.9501 0.0
H994 H 0.52788 0.46575 0.92737 0.0
H995 H 0.54536 0.48981 0.89371 0.0
H996 H 0.53116 0.49486 0.9641 0.0
H997 H 0.59005 0.44141 0.93415 0.0
H998 H 0.64032 0.43536 0.91666 0.0
H999 H 0.73127 0.50228 0.96864 0.0
H1000 H 0.68193 0.50957 0.98623 0.0
H1001 H 0.47253 0.39309 0.05148 0.0
H1002 H 0.48843 0.40866 0.01555 0.0
H1003 H 0.61221 0.50584 0.03797 0.0
H1004 H 0.59653 0.49043 0.07391 0.0
H1005 H 0.60888 0.46273 0.00067 0.0
H1006 H 0.54325 0.52005 0.02603 0.0
H1007 H 0.48535 0.51828 0.04089 0.0
H1008 H 0.39713 0.42883 0.99458 0.0
H1009 H 0.45459 0.43072 0.97913 0.0
C1010 C 0.64367 0.546 0.91838 0.0
C1011 C 0.6121 0.53092 0.90231 0.0
C1012 C 0.63353 0.5324 0.93775 0.0
C1013 C 0.59173 0.50331 0.94124 0.0
C1014 C 0.5603 0.48821 0.92508 0.0
C1015 C 0.57036 0.50192 0.90583 0.0
C1016 C 0.58037 0.48953 0.96196 0.0
C1017 C 0.54791 0.48741 0.9719 0.0
C1018 C 0.60194 0.47959 0.9722 0.0
C1019 C 0.6324 0.47639 0.96142 0.0
C1020 C 0.62099 0.45531 0.94173 0.0
C1021 C 0.6493 0.4516 0.93181 0.0
C1022 C 0.68898 0.46848 0.94151 0.0
C1023 C 0.70056 0.48931 0.96111 0.0
C1024 C 0.67244 0.49328 0.97106 0.0
C1025 C 0.50332 0.41747 0.04868 0.0
C1026 C 0.53337 0.44051 0.06544 0.0
C1027 C 0.51222 0.42648 0.02822 0.0
C1028 C 0.55138 0.45849 0.0242 0.0
C1029 C 0.58181 0.48103 0.0408 0.0
C1030 C 0.57279 0.47226 0.06128 0.0
C1031 C 0.56051 0.4689 0.00272 0.0
C1032 C 0.5924 0.47026 0.99269 0.0
C1033 C 0.53749 0.4769 0.99204 0.0
C1034 C 0.50301 0.47529 0.00162 0.0
C1035 C 0.51143 0.49987 0.01916 0.0
C1036 C 0.47877 0.49892 0.02763 0.0
C1037 C 0.43759 0.47322 0.01885 0.0
C1038 C 0.42901 0.44864 0.00142 0.0
C1039 C 0.46161 0.44978 0.99272 0.0
H1040 H 0.41238 0.47249 0.02548 0.0
H1041 H 0.71063 0.46521 0.93388 0.0
H1042 H 0.1914 0.58505 0.21681 0.0
H1043 H 0.18617 0.58426 0.25494 0.0
H1044 H 1.05203 0.52544 0.24677 0.0
H1045 H 0.05738 0.52612 0.20867 0.0
H1046 H 0.08828 0.58053 0.27958 0.0
H1047 H 0.08822 0.48066 0.25552 0.0
H1048 H 0.11465 0.45054 0.23678 0.0
H1049 H 0.23007 0.52005 0.27542 0.0
H1050 H 0.20456 0.55096 0.29421 0.0
H1051 H 1.04377 0.53019 0.38288 0.0
H1052 H 1.04379 0.5259 0.34453 0.0
H1053 H 0.17764 0.58217 0.34849 0.0
H1054 H 0.17765 0.58575 0.38671 0.0
H1055 H 0.13823 0.5258 0.3175 0.0
H1056 H 0.13952 0.62708 0.34066 0.0
H1057 H 0.11356 0.65766 0.35934 0.0
H1058 H 0.99624 0.58585 0.32231 0.0
H1059 H 1.0213 0.55448 0.30361 0.0
C1060 C 0.16098 0.57227 0.22329 0.0
C1061 C 0.12485 0.55603 0.2101 0.0
C1062 C 0.15794 0.57164 0.24496 0.0
C1063 C 0.11864 0.55455 0.25366 0.0
C1064 C 0.08262 0.53884 0.24039 0.0
C1065 C 0.08568 0.53933 0.21872 0.0
C1066 C 0.11507 0.55265 0.27655 0.0
C1067 C 0.09862 0.56809 0.28784 0.0
C1068 C 0.12923 0.53697 0.28735 0.0
C1069 C 0.14463 0.51836 0.27614 0.0
C1070 C 0.11938 0.48972 0.25991 0.0
C1071 C 0.13417 0.47247 0.2493 0.0
C1072 C 0.17406 0.48343 0.25487 0.0
C1073 C 0.1992 0.51162 0.27111 0.0
C1074 C 0.18457 0.529 0.28175 0.0
C1075 C 0.07306 0.54118 0.37554 0.0
C1076 C 0.11077 0.55854 0.3878 0.0
C1077 C 0.0731 0.53899 0.35366 0.0
C1078 C 0.11083 0.55416 0.34368 0.0
C1079 C 0.14821 0.57042 0.35586 0.0
C1080 C 0.14822 0.57268 0.3777 0.0
C1081 C 0.11176 0.55394 0.32057 0.0
C1082 C 0.1277 0.53808 0.30923 0.0
C1083 C 0.09718 0.56929 0.30973 0.0
C1084 C 0.0821 0.58817 0.32091 0.0
C1085 C 0.10805 0.61761 0.33662 0.0
C1086 C 0.09352 0.63512 0.34719 0.0
C1087 C 1.05323 0.62364 0.34206 0.0
C1088 C 1.02742 0.59467 0.3263 0.0
C1089 C 1.04177 0.57703 0.3157 0.0
H1090 H 1.04204 0.63723 0.35025 0.0
H1091 H 0.18545 0.47004 0.24664 0.0
loop_
_geom_bond_atom_site_label_1
_geom_bond_atom_site_label_2
_geom_bond_distance
_geom_bond_site_symmetry_2
_ccdc_geom_bond_type
Gd0 C3 2.818 . S
Gd0 O20 2.377 . S
Gd0 O22 2.448 . S
Gd0 O23 2.506 . S
Gd0 O24 2.435 . S
Gd0 O25 2.717 . S
Gd0 O27 2.395 . S
Gd0 O31 2.327 . S
Gd1 C12 2.818 1_455 S
Gd1 O21 2.395 . S
Gd1 O25 2.327 . S
Gd1 O26 2.377 . S
Gd1 O28 2.448 1_455 S
Gd1 O29 2.506 1_455 S
Gd1 O30 2.435 . S
Gd1 O31 2.717 . S
C2 O20 1.240 . S
C2 O21 1.240 . S
C3 Gd0 2.818 . S
C3 C4 1.510 . S
C3 O22 1.249 . S
C3 O23 1.252 . S
C4 C3 1.510 . S
C4 C5 1.404 . S
C4 C6 1.352 . S
C5 C4 1.404 . S
C5 C9 1.389 . S
C5 H32 0.930 . S
C6 C4 1.352 . S
C6 C8 1.374 . S
C6 H33 0.931 . S
C7 C8 1.359 . S
C7 C9 1.364 . S
C8 C6 1.374 . S
C8 C7 1.359 . S
C8 H34 0.931 . S
C9 C5 1.389 . S
C9 C7 1.364 . S
C9 H35 0.931 . S
C10 O24 1.256 . S
C10 O25 1.257 . S
C11 O26 1.247 1_655 S
C11 O27 1.240 1_655 S
C12 Gd1 2.818 1_655 S
C12 C13 1.510 . S
C12 O28 1.249 . S
C12 O29 1.252 . S
C13 C12 1.510 . S
C13 C14 1.404 . S
C13 C15 1.352 . S
C14 C13 1.404 . S
C14 C18 1.389 . S
C14 H36 0.930 . S
C15 C13 1.352 . S
C15 C17 1.374 . S
C15 H37 0.931 . S
C16 C17 1.359 . S
C16 C18 1.364 . S
C17 C15 1.374 . S
C17 C16 1.359 . S
C17 H38 0.931 . S
C18 C14 1.389 . S
C18 C16 1.364 . S
C18 H39 0.931 . S
C19 O30 1.256 . S
C19 O31 1.257 . S
O20 Gd0 2.377 . S
O20 C2 1.240 . S
O21 Gd1 2.395 . S
O21 C2 1.240 . S
O22 Gd0 2.448 . S
O22 C3 1.249 . S
O23 Gd0 2.506 . S
O23 C3 1.252 . S
O24 Gd0 2.435 . S
O24 C10 1.256 . S
O25 Gd0 2.717 . S
O25 Gd1 2.327 . S
O25 C10 1.257 . S
O26 Gd1 2.377 . S
O26 C11 1.247 1_455 S
O27 Gd0 2.395 . S
O27 C11 1.240 1_455 S
O28 Gd1 2.448 1_655 S
O28 C12 1.249 . S
O29 Gd1 2.506 1_655 S
O29 C12 1.252 . S
O30 Gd1 2.435 . S
O30 C19 1.256 . S
O31 Gd0 2.327 . S
O31 Gd1 2.717 . S
O31 C19 1.257 . S
H32 C5 0.930 . S
H33 C6 0.931 . S
H34 C8 0.931 . S
H35 C9 0.931 . S
H36 C14 0.930 . S
H37 C15 0.931 . S
H38 C17 0.931 . S
H39 C18 0.931 . S
Gd40 C43 2.818 1_545 S
Gd40 O60 2.377 1_545 S
Gd40 O62 2.448 1_545 S
Gd40 O63 2.506 1_545 S
Gd40 O64 2.435 . S
Gd40 O65 2.717 . S
Gd40 O67 2.395 . S
Gd40 O71 2.327 . S
Gd41 C52 2.818 . S
Gd41 O61 2.395 1_545 S
Gd41 O65 2.327 . S
Gd41 O66 2.377 . S
Gd41 O68 2.448 . S
Gd41 O69 2.506 . S
Gd41 O70 2.435 . S
Gd41 O71 2.717 . S
C42 O60 1.240 . S
C42 O61 1.240 . S
C43 Gd40 2.818 1_565 S
C43 C44 1.510 . S
C43 O62 1.249 . S
C43 O63 1.252 . S
C44 C43 1.510 . S
C44 C45 1.404 . S
C44 C46 1.352 . S
C45 C44 1.404 . S
C45 C49 1.389 . S
C45 H72 0.930 . S
C46 C44 1.352 . S
C46 C48 1.374 . S
C46 H73 0.931 . S
C47 C48 1.359 . S
C47 C49 1.364 . S
C48 C46 1.374 . S
C48 C47 1.359 . S
C48 H74 0.931 . S
C49 C45 1.389 . S
C49 C47 1.364 . S
C49 H75 0.931 . S
C50 O64 1.256 . S
C50 O65 1.257 . S
C51 O66 1.240 . S
C51 O67 1.240 . S
C52 Gd41 2.818 . S
C52 C53 1.510 . S
C52 O68 1.249 . S
C52 O69 1.252 . S
C53 C52 1.510 . S
C53 C54 1.404 . S
C53 C55 1.352 . S
C54 C53 1.404 . S
C54 C58 1.389 . S
C54 H76 0.930 . S
C55 C53 1.352 . S
C55 C57 1.374 . S
C55 H77 0.931 . S
C56 C57 1.359 . S
C56 C58 1.364 . S
C57 C55 1.374 . S
C57 C56 1.359 . S
C57 H78 0.931 . S
C58 C54 1.389 . S
C58 C56 1.364 . S
C58 H79 0.931 . S
C59 O70 1.256 . S
C59 O71 1.257 . S
O60 Gd40 2.377 1_565 S
O60 C42 1.240 . S
O61 Gd41 2.395 1_565 S
O61 C42 1.240 . S
O62 Gd40 2.448 1_565 S
O62 C43 1.249 . S
O63 Gd40 2.506 1_565 S
O63 C43 1.252 . S
O64 Gd40 2.435 . S
O64 C50 1.256 . S
O65 Gd40 2.717 . S
O65 Gd41 2.327 . S
O65 C50 1.257 . S
O66 Gd41 2.377 . S
O66 C51 1.240 . S
O67 Gd40 2.395 . S
O67 C51 1.240 . S
O68 Gd41 2.448 . S
O68 C52 1.249 . S
O69 Gd41 2.506 . S
O69 C52 1.252 . S
O70 Gd41 2.435 . S
O70 C59 1.256 . S
O71 Gd40 2.327 . S
O71 Gd41 2.717 . S
O71 C59 1.257 . S
H72 C45 0.930 . S
H73 C46 0.931 . S
H74 C48 0.931 . S
H75 C49 0.931 . S
H76 C54 0.930 . S
H77 C55 0.931 . S
H78 C57 0.931 . S
H79 C58 0.931 . S
Gd80 C83 2.818 . S
Gd80 O100 2.377 . S
Gd80 O102 2.448 . S
Gd80 O103 2.506 . S
Gd80 O104 2.435 . S
Gd80 O105 2.717 . S
Gd80 O107 2.395 . S
Gd80 O111 2.327 . S
Gd81 C92 2.818 . S
Gd81 O101 2.395 . S
Gd81 O105 2.327 . S
Gd81 O106 2.377 . S
Gd81 O108 2.448 . S
Gd81 O109 2.506 . S
Gd81 O110 2.435 . S
Gd81 O111 2.717 . S
C82 O100 1.240 . S
C82 O101 1.240 . S
C83 Gd80 2.818 . S
C83 C84 1.510 . S
C83 O102 1.249 . S
C83 O103 1.252 . S
C84 C83 1.510 . S
C84 C85 1.404 . S
C84 C86 1.352 . S
C85 C84 1.404 . S
C85 C89 1.389 . S
C85 H112 0.930 . S
C86 C84 1.352 . S
C86 C88 1.374 . S
C86 H113 0.931 . S
C87 C88 1.359 . S
C87 C89 1.364 . S
C88 C86 1.374 . S
C88 C87 1.359 . S
C88 H114 0.931 . S
C89 C85 1.389 . S
C89 C87 1.364 . S
C89 H115 0.931 . S
C90 O104 1.256 . S
C90 O105 1.257 . S
C91 O106 1.240 . S
C91 O107 1.240 . S
C92 Gd81 2.818 . S
C92 C93 1.510 . S
C92 O108 1.249 . S
C92 O109 1.252 . S
C93 C92 1.510 . S
C93 C94 1.404 . S
C93 C95 1.352 . S
C94 C93 1.404 . S
C94 C98 1.389 . S
C94 H116 0.930 . S
C95 C93 1.352 . S
C95 C97 1.374 . S
C95 H117 0.931 . S
C96 C97 1.359 . S
C96 C98 1.364 . S
C97 C95 1.374 . S
C97 C96 1.359 . S
C97 H118 0.931 . S
C98 C94 1.389 . S
C98 C96 1.364 . S
C98 H119 0.931 . S
C99 O110 1.256 . S
C99 O111 1.257 . S
O100 Gd80 2.377 . S
O100 C82 1.240 . S
O101 Gd81 2.395 . S
O101 C82 1.240 . S
O102 Gd80 2.448 . S
O102 C83 1.249 . S
O103 Gd80 2.506 . S
O103 C83 1.252 . S
O104 Gd80 2.435 . S
O104 C90 1.256 . S
O105 Gd80 2.717 . S
O105 Gd81 2.327 . S
O105 C90 1.257 . S
O106 Gd81 2.377 . S
O106 C91 1.240 . S
O107 Gd80 2.395 . S
O107 C91 1.240 . S
O108 Gd81 2.448 . S
O108 C92 1.249 . S
O109 Gd81 2.506 . S
O109 C92 1.252 . S
O110 Gd81 2.435 . S
O110 C99 1.256 . S
O111 Gd80 2.327 . S
O111 Gd81 2.717 . S
O111 C99 1.257 . S
H112 C85 0.930 . S
H113 C86 0.931 . S
H114 C88 0.931 . S
H115 C89 0.931 . S
H116 C94 0.930 . S
H117 C95 0.931 . S
H118 C97 0.931 . S
H119 C98 0.931 . S
H120 C125 0.930 . S
H121 C128 0.930 . S
H122 C130 0.930 1_565 S
H123 C124 1.016 . S
C124 H123 1.016 . S
C124 N131 1.286 . S
C125 H120 0.930 . S
C125 C126 1.397 . S
C125 C127 1.361 . S
C126 C125 1.397 . S
C126 C130 1.390 . S
C127 C125 1.361 . S
C127 C128 1.393 . S
C127 N131 1.413 . S
C128 H121 0.930 . S
C128 C127 1.393 . S
C128 C129 1.399 . S
C129 C128 1.399 . S
C129 C130 1.381 . S
C130 H122 0.930 1_545 S
C130 C126 1.390 . S
C130 C129 1.381 . S
N131 C124 1.286 . S
N131 C127 1.413 . S
H132 C137 0.930 . S
H133 C140 0.930 . S
H134 C142 0.930 . S
H135 C136 1.016 . S
C136 H135 1.016 . S
C136 N143 1.286 . S
C137 H132 0.930 . S
C137 C138 1.397 . S
C137 C139 1.361 . S
C138 C137 1.397 . S
C138 C142 1.390 . S
C139 C137 1.361 . S
C139 C140 1.393 . S
C139 N143 1.413 . S
C140 H133 0.930 . S
C140 C139 1.393 . S
C140 C141 1.399 . S
C141 C140 1.399 . S
C141 C142 1.381 . S
C142 H134 0.930 . S
C142 C138 1.390 . S
C142 C141 1.381 . S
N143 C136 1.286 . S
N143 C139 1.413 . S
H144 C149 0.930 . S
H145 C152 0.930 . S
H146 C154 0.930 . S
H147 C148 1.016 . S
C148 H147 1.016 . S
C148 N155 1.286 . S
C149 H144 0.930 . S
C149 C150 1.397 . S
C149 C151 1.361 . S
C150 C149 1.397 . S
C150 C154 1.390 . S
C151 C149 1.361 . S
C151 C152 1.393 . S
C151 N155 1.413 . S
C152 H145 0.930 . S
C152 C151 1.393 . S
C152 C153 1.399 . S
C153 C152 1.399 . S
C153 C154 1.381 . S
C154 H146 0.930 . S
C154 C150 1.390 . S
C154 C153 1.381 . S
N155 C148 1.286 . S
N155 C151 1.413 . S
H156 C161 0.930 . S
H157 C164 0.930 . S
H158 C166 0.930 . S
H159 C160 1.016 . S
C160 H159 1.016 . S
C160 N167 1.286 . S
C161 H156 0.930 . S
C161 C162 1.397 . S
C161 C163 1.361 1_455 S
C162 C161 1.397 . S
C162 C166 1.390 . S
C163 C161 1.361 1_655 S
C163 C164 1.393 . S
C163 N167 1.413 . S
C164 H157 0.930 . S
C164 C163 1.393 . S
C164 C165 1.399 1_655 S
C165 C164 1.399 1_455 S
C165 C166 1.381 . S
C166 H158 0.930 . S
C166 C162 1.390 . S
C166 C165 1.381 . S
N167 C160 1.286 . S
N167 C163 1.413 . S
H168 C173 0.930 . S
H169 C176 0.930 . S
H170 C178 0.930 . S
H171 C172 1.016 . S
C172 H171 1.016 . S
C172 N179 1.286 . S
C173 H168 0.930 . S
C173 C174 1.397 . S
C173 C175 1.361 . S
C174 C173 1.397 . S
C174 C178 1.390 . S
C175 C173 1.361 . S
C175 C176 1.393 1_545 S
C175 N179 1.413 1_545 S
C176 H169 0.930 . S
C176 C175 1.393 1_565 S
C176 C177 1.399 1_565 S
C177 C176 1.399 1_545 S
C177 C178 1.381 . S
C178 H170 0.930 . S
C178 C174 1.390 . S
C178 C177 1.381 . S
N179 C172 1.286 . S
N179 C175 1.413 1_565 S
H180 C185 0.930 . S
H181 C188 0.930 . S
H182 C190 0.930 . S
H183 C184 1.016 . S
C184 H183 1.016 . S
C184 N191 1.286 . S
C185 H180 0.930 . S
C185 C186 1.397 . S
C185 C187 1.361 . S
C186 C185 1.397 . S
C186 C190 1.390 . S
C187 C185 1.361 . S
C187 C188 1.393 . S
C187 N191 1.413 . S
C188 H181 0.930 . S
C188 C187 1.393 . S
C188 C189 1.399 . S
C189 C188 1.399 . S
C189 C190 1.381 . S
C190 H182 0.930 . S
C190 C186 1.390 . S
C190 C189 1.381 . S
N191 C184 1.286 . S
N191 C187 1.413 . S
H192 C210 0.951 . S
H193 C212 0.951 . S
H194 C214 0.950 . S
H195 C215 0.950 . S
H196 C217 0.950 . S
H197 C220 0.950 . S
H198 C221 0.950 . S
H199 C223 0.950 . S
H200 C224 0.950 . S
H201 C225 0.951 . S
H202 C227 0.951 . S
H203 C229 0.950 . S
H204 C230 0.950 . S
H205 C232 0.950 . S
H206 C235 0.950 . S
H207 C236 0.950 . S
H208 C238 0.950 . S
H209 C239 0.950 . S
C210 H192 0.951 . S
C210 C211 1.366 . S
C210 C212 1.388 . S
C211 C210 1.366 . S
C211 C215 1.385 . S
C212 H193 0.951 . S
C212 C210 1.388 . S
C212 C213 1.366 . S
C213 C212 1.366 . S
C213 C214 1.414 . S
C213 C216 1.499 . S
C214 H194 0.950 . S
C214 C213 1.414 . S
C214 C215 1.374 . S
C215 H195 0.950 . S
C215 C211 1.385 . S
C215 C214 1.374 . S
C216 C213 1.499 . S
C216 C217 1.373 . S
C216 C218 1.389 . S
C217 H196 0.950 . S
C217 C216 1.373 . S
C217 C233 1.377 . S
C218 C216 1.389 . S
C218 C219 1.524 . S
C218 C232 1.377 . S
C219 C218 1.524 . S
C219 C220 1.397 . S
C219 C224 1.363 . S
C220 H197 0.950 . S
C220 C219 1.397 . S
C220 C221 1.334 . S
C221 H198 0.950 . S
C221 C220 1.334 . S
C221 C222 1.287 . S
C222 C221 1.287 . S
C222 C223 1.524 . S
C222 H241 0.913 . S
C223 H199 0.950 . S
C223 C222 1.524 . S
C223 C224 1.415 . S
C224 H200 0.950 . S
C224 C219 1.363 . S
C224 C223 1.415 . S
C225 H201 0.951 . S
C225 C226 1.366 . S
C225 C227 1.388 . S
C226 C225 1.366 . S
C226 C230 1.385 . S
C227 H202 0.951 . S
C227 C225 1.388 . S
C227 C228 1.366 . S
C228 C227 1.366 . S
C228 C229 1.414 . S
C228 C231 1.499 . S
C229 H203 0.950 . S
C229 C228 1.414 . S
C229 C230 1.374 . S
C230 H204 0.950 . S
C230 C226 1.385 . S
C230 C229 1.374 . S
C231 C228 1.499 . S
C231 C232 1.373 . S
C231 C233 1.389 . S
C232 H205 0.950 . S
C232 C218 1.377 . S
C232 C231 1.373 . S
C233 C217 1.377 . S
C233 C231 1.389 . S
C233 C234 1.524 . S
C234 C233 1.524 . S
C234 C235 1.397 . S
C234 C239 1.363 . S
C235 H206 0.950 . S
C235 C234 1.397 . S
C235 C236 1.334 . S
C236 H207 0.950 . S
C236 C235 1.334 . S
C236 C237 1.287 . S
C237 C236 1.287 . S
C237 C238 1.524 . S
C237 H240 0.999 . S
C238 H208 0.950 . S
C238 C237 1.524 . S
C238 C239 1.415 . S
C239 H209 0.950 . S
C239 C234 1.363 . S
C239 C238 1.415 . S
H240 C237 0.999 . S
H241 C222 0.913 . S
H242 C260 0.951 . S
H243 C262 0.951 . S
H244 C264 0.950 . S
H245 C265 0.950 . S
H246 C267 0.950 . S
H247 C270 0.950 . S
H248 C271 0.950 . S
H249 C273 0.950 . S
H250 C274 0.950 . S
H251 C275 0.951 . S
H252 C277 0.951 . S
H253 C279 0.950 . S
H254 C280 0.950 . S
H255 C282 0.950 . S
H256 C285 0.950 . S
H257 C286 0.950 . S
H258 C288 0.950 . S
H259 C289 0.950 . S
C260 H242 0.951 . S
C260 C261 1.366 . S
C260 C262 1.388 . S
C261 C260 1.366 . S
C261 C265 1.385 . S
C262 H243 0.951 . S
C262 C260 1.388 . S
C262 C263 1.366 . S
C263 C262 1.366 . S
C263 C264 1.414 . S
C263 C266 1.499 . S
C264 H244 0.950 . S
C264 C263 1.414 . S
C264 C265 1.374 . S
C265 H245 0.950 . S
C265 C261 1.385 . S
C265 C264 1.374 . S
C266 C263 1.499 . S
C266 C267 1.373 . S
C266 C268 1.389 . S
C267 H246 0.950 . S
C267 C266 1.373 . S
C267 C283 1.377 . S
C268 C266 1.389 . S
C268 C269 1.524 . S
C268 C282 1.377 . S
C269 C268 1.524 . S
C269 C270 1.397 . S
C269 C274 1.363 . S
C270 H247 0.950 . S
C270 C269 1.397 . S
C270 C271 1.334 . S
C271 H248 0.950 . S
C271 C270 1.334 . S
C271 C272 1.287 . S
C272 C271 1.287 . S
C272 C273 1.524 . S
C272 H291 0.913 . S
C273 H249 0.950 . S
C273 C272 1.524 . S
C273 C274 1.415 . S
C274 H250 0.950 . S
C274 C269 1.363 . S
C274 C273 1.415 . S
C275 H251 0.951 . S
C275 C276 1.366 . S
C275 C277 1.388 . S
C276 C275 1.366 . S
C276 C280 1.385 . S
C277 H252 0.951 . S
C277 C275 1.388 . S
C277 C278 1.366 . S
C278 C277 1.366 . S
C278 C279 1.414 . S
C278 C281 1.499 . S
C279 H253 0.950 . S
C279 C278 1.414 . S
C279 C280 1.374 . S
C280 H254 0.950 . S
C280 C276 1.385 . S
C280 C279 1.374 . S
C281 C278 1.499 . S
C281 C282 1.373 . S
C281 C283 1.389 . S
C282 H255 0.950 . S
C282 C268 1.377 . S
C282 C281 1.373 . S
C283 C267 1.377 . S
C283 C281 1.389 . S
C283 C284 1.524 . S
C284 C283 1.524 . S
C284 C285 1.397 . S
C284 C289 1.363 . S
C285 H256 0.950 . S
C285 C284 1.397 . S
C285 C286 1.334 . S
C286 H257 0.950 . S
C286 C285 1.334 . S
C286 C287 1.287 . S
C287 C286 1.287 . S
C287 C288 1.524 . S
C287 H290 0.999 . S
C288 H258 0.950 . S
C288 C287 1.524 . S
C288 C289 1.415 . S
C289 H259 0.950 . S
C289 C284 1.363 . S
C289 C288 1.415 . S
H290 C287 0.999 . S
H291 C272 0.913 . S
H292 C310 0.951 . S
H293 C312 0.951 . S
H294 C314 0.950 . S
H295 C315 0.950 . S
H296 C317 0.950 . S
H297 C320 0.950 . S
H298 C321 0.950 . S
H299 C323 0.950 . S
H300 C324 0.950 . S
H301 C325 0.951 . S
H302 C327 0.951 . S
H303 C329 0.950 . S
H304 C330 0.950 . S
H305 C332 0.950 . S
H306 C335 0.950 . S
H307 C336 0.950 . S
H308 C338 0.950 . S
H309 C339 0.950 . S
C310 H292 0.951 . S
C310 C311 1.366 . S
C310 C312 1.388 . S
C311 C310 1.366 . S
C311 C315 1.385 . S
C312 H293 0.951 . S
C312 C310 1.388 . S
C312 C313 1.366 . S
C313 C312 1.366 . S
C313 C314 1.414 . S
C313 C316 1.499 . S
C314 H294 0.950 . S
C314 C313 1.414 . S
C314 C315 1.374 . S
C315 H295 0.950 . S
C315 C311 1.385 . S
C315 C314 1.374 . S
C316 C313 1.499 . S
C316 C317 1.373 . S
C316 C318 1.389 . S
C317 H296 0.950 . S
C317 C316 1.373 . S
C317 C333 1.377 . S
C318 C316 1.389 . S
C318 C319 1.524 . S
C318 C332 1.377 . S
C319 C318 1.524 . S
C319 C320 1.397 . S
C319 C324 1.363 . S
C320 H297 0.950 . S
C320 C319 1.397 . S
C320 C321 1.334 . S
C321 H298 0.950 . S
C321 C320 1.334 . S
C321 C322 1.287 . S
C322 C321 1.287 . S
C322 C323 1.524 . S
C322 H341 0.913 . S
C323 H299 0.950 . S
C323 C322 1.524 . S
C323 C324 1.415 . S
C324 H300 0.950 . S
C324 C319 1.363 . S
C324 C323 1.415 . S
C325 H301 0.951 . S
C325 C326 1.366 . S
C325 C327 1.388 . S
C326 C325 1.366 . S
C326 C330 1.385 . S
C327 H302 0.951 . S
C327 C325 1.388 . S
C327 C328 1.366 . S
C328 C327 1.366 . S
C328 C329 1.414 . S
C328 C331 1.499 . S
C329 H303 0.950 . S
C329 C328 1.414 . S
C329 C330 1.374 . S
C330 H304 0.950 . S
C330 C326 1.385 . S
C330 C329 1.374 . S
C331 C328 1.499 . S
C331 C332 1.373 . S
C331 C333 1.389 . S
C332 H305 0.950 . S
C332 C318 1.377 . S
C332 C331 1.373 . S
C333 C317 1.377 . S
C333 C331 1.389 . S
C333 C334 1.524 . S
C334 C333 1.524 . S
C334 C335 1.397 . S
C334 C339 1.363 . S
C335 H306 0.950 . S
C335 C334 1.397 . S
C335 C336 1.334 . S
C336 H307 0.950 . S
C336 C335 1.334 . S
C336 C337 1.287 . S
C337 C336 1.287 . S
C337 C338 1.524 . S
C337 H340 0.999 . S
C338 H308 0.950 . S
C338 C337 1.524 . S
C338 C339 1.415 . S
C339 H309 0.950 . S
C339 C334 1.363 . S
C339 C338 1.415 . S
H340 C337 0.999 . S
H341 C322 0.913 . S
H342 C360 0.951 . S
H343 C362 0.951 . S
H344 C364 0.950 . S
H345 C365 0.950 . S
H346 C367 0.950 . S
H347 C370 0.950 . S
H348 C371 0.950 . S
H349 C373 0.950 . S
H350 C374 0.950 . S
H351 C375 0.951 . S
H352 C377 0.951 . S
H353 C379 0.950 . S
H354 C380 0.950 . S
H355 C382 0.950 . S
H356 C385 0.950 . S
H357 C386 0.950 . S
H358 C388 0.950 . S
H359 C389 0.950 . S
C360 H342 0.951 . S
C360 C361 1.366 . S
C360 C362 1.388 . S
C361 C360 1.366 . S
C361 C365 1.385 . S
C362 H343 0.951 . S
C362 C360 1.388 . S
C362 C363 1.366 . S
C363 C362 1.366 . S
C363 C364 1.414 . S
C363 C366 1.499 . S
C364 H344 0.950 . S
C364 C363 1.414 . S
C364 C365 1.374 . S
C365 H345 0.950 . S
C365 C361 1.385 . S
C365 C364 1.374 . S
C366 C363 1.499 . S
C366 C367 1.373 . S
C366 C368 1.389 . S
C367 H346 0.950 . S
C367 C366 1.373 . S
C367 C383 1.377 . S
C368 C366 1.389 . S
C368 C369 1.524 . S
C368 C382 1.377 . S
C369 C368 1.524 . S
C369 C370 1.397 . S
C369 C374 1.363 . S
C370 H347 0.950 . S
C370 C369 1.397 . S
C370 C371 1.334 . S
C371 H348 0.950 . S
C371 C370 1.334 . S
C371 C372 1.287 . S
C372 C371 1.287 . S
C372 C373 1.524 . S
C372 H391 0.913 . S
C373 H349 0.950 . S
C373 C372 1.524 . S
C373 C374 1.415 . S
C374 H350 0.950 . S
C374 C369 1.363 . S
C374 C373 1.415 . S
C375 H351 0.951 . S
C375 C376 1.366 . S
C375 C377 1.388 . S
C376 C375 1.366 . S
C376 C380 1.385 . S
C377 H352 0.951 . S
C377 C375 1.388 . S
C377 C378 1.366 . S
C378 C377 1.366 . S
C378 C379 1.414 . S
C378 C381 1.499 . S
C379 H353 0.950 . S
C379 C378 1.414 . S
C379 C380 1.374 . S
C380 H354 0.950 . S
C380 C376 1.385 . S
C380 C379 1.374 . S
C381 C378 1.499 . S
C381 C382 1.373 . S
C381 C383 1.389 . S
C382 H355 0.950 . S
C382 C368 1.377 . S
C382 C381 1.373 . S
C383 C367 1.377 . S
C383 C381 1.389 . S
C383 C384 1.524 . S
C384 C383 1.524 . S
C384 C385 1.397 . S
C384 C389 1.363 . S
C385 H356 0.950 . S
C385 C384 1.397 . S
C385 C386 1.334 . S
C386 H357 0.950 . S
C386 C385 1.334 . S
C386 C387 1.287 . S
C387 C386 1.287 . S
C387 C388 1.524 . S
C387 H390 0.999 . S
C388 H358 0.950 . S
C388 C387 1.524 . S
C388 C389 1.415 . S
C389 H359 0.950 . S
C389 C384 1.363 . S
C389 C388 1.415 . S
H390 C387 0.999 . S
H391 C372 0.913 . S
H392 C410 0.951 . S
H393 C412 0.951 . S
H394 C414 0.950 . S
H395 C415 0.950 . S
H396 C417 0.950 . S
H397 C420 0.950 . S
H398 C421 0.950 . S
H399 C423 0.950 . S
H400 C424 0.950 . S
H401 C425 0.951 . S
H402 C427 0.951 . S
H403 C429 0.950 . S
H404 C430 0.950 . S
H405 C432 0.950 . S
H406 C435 0.950 . S
H407 C436 0.950 . S
H408 C438 0.950 . S
H409 C439 0.950 . S
C410 H392 0.951 . S
C410 C411 1.366 . S
C410 C412 1.388 . S
C411 C410 1.366 . S
C411 C415 1.385 . S
C412 H393 0.951 . S
C412 C410 1.388 . S
C412 C413 1.366 . S
C413 C412 1.366 . S
C413 C414 1.414 . S
C413 C416 1.499 . S
C414 H394 0.950 . S
C414 C413 1.414 . S
C414 C415 1.374 . S
C415 H395 0.950 . S
C415 C411 1.385 . S
C415 C414 1.374 . S
C416 C413 1.499 . S
C416 C417 1.373 . S
C416 C418 1.389 . S
C417 H396 0.950 . S
C417 C416 1.373 . S
C417 C433 1.377 . S
C418 C416 1.389 . S
C418 C419 1.524 . S
C418 C432 1.377 . S
C419 C418 1.524 . S
C419 C420 1.397 . S
C419 C424 1.363 . S
C420 H397 0.950 . S
C420 C419 1.397 . S
C420 C421 1.334 . S
C421 H398 0.950 . S
C421 C420 1.334 . S
C421 C422 1.287 . S
C422 C421 1.287 . S
C422 C423 1.524 . S
C422 H441 0.913 . S
C423 H399 0.950 . S
C423 C422 1.524 . S
C423 C424 1.415 . S
C424 H400 0.950 . S
C424 C419 1.363 . S
C424 C423 1.415 . S
C425 H401 0.951 . S
C425 C426 1.366 . S
C425 C427 1.388 . S
C426 C425 1.366 . S
C426 C430 1.385 . S
C427 H402 0.951 . S
C427 C425 1.388 . S
C427 C428 1.366 . S
C428 C427 1.366 . S
C428 C429 1.414 . S
C428 C431 1.499 . S
C429 H403 0.950 . S
C429 C428 1.414 . S
C429 C430 1.374 . S
C430 H404 0.950 . S
C430 C426 1.385 . S
C430 C429 1.374 . S
C431 C428 1.499 . S
C431 C432 1.373 . S
C431 C433 1.389 . S
C432 H405 0.950 . S
C432 C418 1.377 . S
C432 C431 1.373 . S
C433 C417 1.377 . S
C433 C431 1.389 . S
C433 C434 1.524 . S
C434 C433 1.524 . S
C434 C435 1.397 . S
C434 C439 1.363 . S
C435 H406 0.950 . S
C435 C434 1.397 . S
C435 C436 1.334 . S
C436 H407 0.950 . S
C436 C435 1.334 . S
C436 C437 1.287 . S
C437 C436 1.287 . S
C437 C438 1.524 . S
C437 H440 0.999 . S
C438 H408 0.950 . S
C438 C437 1.524 . S
C438 C439 1.415 . S
C439 H409 0.950 . S
C439 C434 1.363 . S
C439 C438 1.415 . S
H440 C437 0.999 . S
H441 C422 0.913 . S
H442 C460 0.951 . S
H443 C462 0.951 . S
H444 C464 0.950 . S
H445 C465 0.950 . S
H446 C467 0.950 . S
H447 C470 0.950 . S
H448 C471 0.950 . S
H449 C473 0.950 . S
H450 C474 0.950 . S
H451 C475 0.951 . S
H452 C477 0.951 . S
H453 C479 0.950 . S
H454 C480 0.950 . S
H455 C482 0.950 . S
H456 C485 0.950 . S
H457 C486 0.950 . S
H458 C488 0.950 . S
H459 C489 0.950 . S
C460 H442 0.951 . S
C460 C461 1.366 . S
C460 C462 1.388 . S
C461 C460 1.366 . S
C461 C465 1.385 . S
C462 H443 0.951 . S
C462 C460 1.388 . S
C462 C463 1.366 . S
C463 C462 1.366 . S
C463 C464 1.414 . S
C463 C466 1.499 . S
C464 H444 0.950 . S
C464 C463 1.414 . S
C464 C465 1.374 . S
C465 H445 0.950 . S
C465 C461 1.385 . S
C465 C464 1.374 . S
C466 C463 1.499 . S
C466 C467 1.373 . S
C466 C468 1.389 . S
C467 H446 0.950 . S
C467 C466 1.373 . S
C467 C483 1.377 . S
C468 C466 1.389 . S
C468 C469 1.524 . S
C468 C482 1.377 . S
C469 C468 1.524 . S
C469 C470 1.397 . S
C469 C474 1.363 . S
C470 H447 0.950 . S
C470 C469 1.397 . S
C470 C471 1.334 . S
C471 H448 0.950 . S
C471 C470 1.334 . S
C471 C472 1.287 . S
C472 C471 1.287 . S
C472 C473 1.524 . S
C472 H491 0.913 . S
C473 H449 0.950 . S
C473 C472 1.524 . S
C473 C474 1.415 . S
C474 H450 0.950 . S
C474 C469 1.363 . S
C474 C473 1.415 . S
C475 H451 0.951 . S
C475 C476 1.366 . S
C475 C477 1.388 . S
C476 C475 1.366 . S
C476 C480 1.385 . S
C477 H452 0.951 . S
C477 C475 1.388 . S
C477 C478 1.366 . S
C478 C477 1.366 . S
C478 C479 1.414 . S
C478 C481 1.499 . S
C479 H453 0.950 . S
C479 C478 1.414 . S
C479 C480 1.374 . S
C480 H454 0.950 . S
C480 C476 1.385 . S
C480 C479 1.374 . S
C481 C478 1.499 . S
C481 C482 1.373 . S
C481 C483 1.389 . S
C482 H455 0.950 . S
C482 C468 1.377 . S
C482 C481 1.373 . S
C483 C467 1.377 . S
C483 C481 1.389 . S
C483 C484 1.524 . S
C484 C483 1.524 . S
C484 C485 1.397 . S
C484 C489 1.363 . S
C485 H456 0.950 . S
C485 C484 1.397 . S
C485 C486 1.334 . S
C486 H457 0.950 . S
C486 C485 1.334 . S
C486 C487 1.287 . S
C487 C486 1.287 . S
C487 C488 1.524 . S
C487 H490 0.999 . S
C488 H458 0.950 . S
C488 C487 1.524 . S
C488 C489 1.415 . S
C489 H459 0.950 . S
C489 C484 1.363 . S
C489 C488 1.415 . S
H490 C487 0.999 . S
H491 C472 0.913 . S
H492 C510 0.951 . S
H493 C512 0.951 . S
H494 C514 0.950 . S
H495 C515 0.950 . S
H496 C517 0.950 . S
H497 C520 0.950 . S
H498 C521 0.950 . S
H499 C523 0.950 . S
H500 C524 0.950 . S
H501 C525 0.951 . S
H502 C527 0.951 . S
H503 C529 0.950 . S
H504 C530 0.950 . S
H505 C532 0.950 . S
H506 C535 0.950 . S
H507 C536 0.950 . S
H508 C538 0.950 . S
H509 C539 0.950 . S
C510 H492 0.951 . S
C510 C511 1.366 . S
C510 C512 1.388 . S
C511 C510 1.366 . S
C511 C515 1.385 . S
C512 H493 0.951 . S
C512 C510 1.388 . S
C512 C513 1.366 . S
C513 C512 1.366 . S
C513 C514 1.414 . S
C513 C516 1.499 . S
C514 H494 0.950 . S
C514 C513 1.414 . S
C514 C515 1.374 . S
C515 H495 0.950 . S
C515 C511 1.385 . S
C515 C514 1.374 . S
C516 C513 1.499 . S
C516 C517 1.373 . S
C516 C518 1.389 . S
C517 H496 0.950 . S
C517 C516 1.373 . S
C517 C533 1.377 . S
C518 C516 1.389 . S
C518 C519 1.524 . S
C518 C532 1.377 . S
C519 C518 1.524 . S
C519 C520 1.397 . S
C519 C524 1.363 . S
C520 H497 0.950 . S
C520 C519 1.397 . S
C520 C521 1.334 . S
C521 H498 0.950 . S
C521 C520 1.334 . S
C521 C522 1.287 . S
C522 C521 1.287 . S
C522 C523 1.524 . S
C522 H541 0.913 . S
C523 H499 0.950 . S
C523 C522 1.524 . S
C523 C524 1.415 . S
C524 H500 0.950 . S
C524 C519 1.363 . S
C524 C523 1.415 . S
C525 H501 0.951 . S
C525 C526 1.366 . S
C525 C527 1.388 . S
C526 C525 1.366 . S
C526 C530 1.385 . S
C527 H502 0.951 . S
C527 C525 1.388 . S
C527 C528 1.366 . S
C528 C527 1.366 . S
C528 C529 1.414 . S
C528 C531 1.499 . S
C529 H503 0.950 . S
C529 C528 1.414 . S
C529 C530 1.374 . S
C530 H504 0.950 . S
C530 C526 1.385 . S
C530 C529 1.374 . S
C531 C528 1.499 . S
C531 C532 1.373 . S
C531 C533 1.389 . S
C532 H505 0.950 . S
C532 C518 1.377 . S
C532 C531 1.373 . S
C533 C517 1.377 . S
C533 C531 1.389 . S
C533 C534 1.524 . S
C534 C533 1.524 . S
C534 C535 1.397 . S
C534 C539 1.363 . S
C535 H506 0.950 . S
C535 C534 1.397 . S
C535 C536 1.334 . S
C536 H507 0.950 . S
C536 C535 1.334 . S
C536 C537 1.287 . S
C537 C536 1.287 . S
C537 C538 1.524 . S
C537 H540 0.999 . S
C538 H508 0.950 . S
C538 C537 1.524 . S
C538 C539 1.415 . S
C539 H509 0.950 . S
C539 C534 1.363 . S
C539 C538 1.415 . S
H540 C537 0.999 . S
H541 C522 0.913 . S
H542 C560 0.951 . S
H543 C562 0.951 . S
H544 C564 0.950 . S
H545 C565 0.950 . S
H546 C567 0.950 . S
H547 C570 0.950 . S
H548 C571 0.950 . S
H549 C573 0.950 . S
H550 C574 0.950 . S
H551 C575 0.951 . S
H552 C577 0.951 . S
H553 C579 0.950 . S
H554 C580 0.950 . S
H555 C582 0.950 . S
H556 C585 0.950 . S
H557 C586 0.950 . S
H558 C588 0.950 . S
H559 C589 0.950 . S
C560 H542 0.951 . S
C560 C561 1.366 . S
C560 C562 1.388 . S
C561 C560 1.366 . S
C561 C565 1.385 . S
C562 H543 0.951 . S
C562 C560 1.388 . S
C562 C563 1.366 . S
C563 C562 1.366 . S
C563 C564 1.414 . S
C563 C566 1.499 . S
C564 H544 0.950 . S
C564 C563 1.414 . S
C564 C565 1.374 . S
C565 H545 0.950 . S
C565 C561 1.385 . S
C565 C564 1.374 . S
C566 C563 1.499 . S
C566 C567 1.373 . S
C566 C568 1.389 . S
C567 H546 0.950 . S
C567 C566 1.373 . S
C567 C583 1.377 . S
C568 C566 1.389 . S
C568 C569 1.524 . S
C568 C582 1.377 . S
C569 C568 1.524 . S
C569 C570 1.397 . S
C569 C574 1.363 . S
C570 H547 0.950 . S
C570 C569 1.397 . S
C570 C571 1.334 . S
C571 H548 0.950 . S
C571 C570 1.334 . S
C571 C572 1.287 . S
C572 C571 1.287 . S
C572 C573 1.524 . S
C572 H591 0.913 . S
C573 H549 0.950 . S
C573 C572 1.524 . S
C573 C574 1.415 . S
C574 H550 0.950 . S
C574 C569 1.363 . S
C574 C573 1.415 . S
C575 H551 0.951 . S
C575 C576 1.366 . S
C575 C577 1.388 . S
C576 C575 1.366 . S
C576 C580 1.385 . S
C577 H552 0.951 . S
C577 C575 1.388 . S
C577 C578 1.366 . S
C578 C577 1.366 . S
C578 C579 1.414 . S
C578 C581 1.499 . S
C579 H553 0.950 . S
C579 C578 1.414 . S
C579 C580 1.374 . S
C580 H554 0.950 . S
C580 C576 1.385 . S
C580 C579 1.374 . S
C581 C578 1.499 . S
C581 C582 1.373 . S
C581 C583 1.389 . S
C582 H555 0.950 . S
C582 C568 1.377 . S
C582 C581 1.373 . S
C583 C567 1.377 . S
C583 C581 1.389 . S
C583 C584 1.524 . S
C584 C583 1.524 . S
C584 C585 1.397 . S
C584 C589 1.363 . S
C585 H556 0.950 . S
C585 C584 1.397 . S
C585 C586 1.334 . S
C586 H557 0.950 . S
C586 C585 1.334 . S
C586 C587 1.287 . S
C587 C586 1.287 . S
C587 C588 1.524 . S
C587 H590 0.999 . S
C588 H558 0.950 . S
C588 C587 1.524 . S
C588 C589 1.415 . S
C589 H559 0.950 . S
C589 C584 1.363 . S
C589 C588 1.415 . S
H590 C587 0.999 . S
H591 C572 0.913 . S
H592 C610 0.951 . S
H593 C612 0.951 . S
H594 C614 0.950 . S
H595 C615 0.950 . S
H596 C617 0.950 . S
H597 C620 0.950 . S
H598 C621 0.950 . S
H599 C623 0.950 . S
H600 C624 0.950 . S
H601 C625 0.951 . S
H602 C627 0.951 . S
H603 C629 0.950 . S
H604 C630 0.950 . S
H605 C632 0.950 . S
H606 C635 0.950 . S
H607 C636 0.950 . S
H608 C638 0.950 . S
H609 C639 0.950 . S
C610 H592 0.951 . S
C610 C611 1.366 . S
C610 C612 1.388 . S
C611 C610 1.366 . S
C611 C615 1.385 . S
C612 H593 0.951 . S
C612 C610 1.388 . S
C612 C613 1.366 . S
C613 C612 1.366 . S
C613 C614 1.414 . S
C613 C616 1.499 . S
C614 H594 0.950 . S
C614 C613 1.414 . S
C614 C615 1.374 . S
C615 H595 0.950 . S
C615 C611 1.385 . S
C615 C614 1.374 . S
C616 C613 1.499 . S
C616 C617 1.373 . S
C616 C618 1.389 . S
C617 H596 0.950 . S
C617 C616 1.373 . S
C617 C633 1.377 . S
C618 C616 1.389 . S
C618 C619 1.524 . S
C618 C632 1.377 . S
C619 C618 1.524 . S
C619 C620 1.397 . S
C619 C624 1.363 . S
C620 H597 0.950 . S
C620 C619 1.397 . S
C620 C621 1.334 . S
C621 H598 0.950 . S
C621 C620 1.334 . S
C621 C622 1.287 . S
C622 C621 1.287 . S
C622 C623 1.524 . S
C622 H641 0.913 . S
C623 H599 0.950 . S
C623 C622 1.524 . S
C623 C624 1.415 . S
C624 H600 0.950 . S
C624 C619 1.363 . S
C624 C623 1.415 . S
C625 H601 0.951 . S
C625 C626 1.366 . S
C625 C627 1.388 . S
C626 C625 1.366 . S
C626 C630 1.385 . S
C627 H602 0.951 . S
C627 C625 1.388 . S
C627 C628 1.366 . S
C628 C627 1.366 . S
C628 C629 1.414 . S
C628 C631 1.499 . S
C629 H603 0.950 . S
C629 C628 1.414 . S
C629 C630 1.374 . S
C630 H604 0.950 . S
C630 C626 1.385 . S
C630 C629 1.374 . S
C631 C628 1.499 . S
C631 C632 1.373 . S
C631 C633 1.389 . S
C632 H605 0.950 . S
C632 C618 1.377 . S
C632 C631 1.373 . S
C633 C617 1.377 . S
C633 C631 1.389 . S
C633 C634 1.524 . S
C634 C633 1.524 . S
C634 C635 1.397 . S
C634 C639 1.363 . S
C635 H606 0.950 . S
C635 C634 1.397 . S
C635 C636 1.334 . S
C636 H607 0.950 . S
C636 C635 1.334 . S
C636 C637 1.287 . S
C637 C636 1.287 . S
C637 C638 1.524 . S
C637 H640 0.999 . S
C638 H608 0.950 . S
C638 C637 1.524 . S
C638 C639 1.415 . S
C639 H609 0.950 . S
C639 C634 1.363 . S
C639 C638 1.415 . S
H640 C637 0.999 . S
H641 C622 0.913 . S
H642 C660 0.951 . S
H643 C662 0.951 . S
H644 C664 0.950 . S
H645 C665 0.950 . S
H646 C667 0.950 . S
H647 C670 0.950 . S
H648 C671 0.950 . S
H649 C673 0.950 . S
H650 C674 0.950 . S
H651 C675 0.951 . S
H652 C677 0.951 . S
H653 C679 0.950 . S
H654 C680 0.950 . S
H655 C682 0.950 . S
H656 C685 0.950 . S
H657 C686 0.950 . S
H658 C688 0.950 . S
H659 C689 0.950 . S
C660 H642 0.951 . S
C660 C661 1.366 . S
C660 C662 1.388 . S
C661 C660 1.366 . S
C661 C665 1.385 . S
C662 H643 0.951 . S
C662 C660 1.388 . S
C662 C663 1.366 . S
C663 C662 1.366 . S
C663 C664 1.414 . S
C663 C666 1.499 . S
C664 H644 0.950 . S
C664 C663 1.414 . S
C664 C665 1.374 . S
C665 H645 0.950 . S
C665 C661 1.385 . S
C665 C664 1.374 . S
C666 C663 1.499 . S
C666 C667 1.373 . S
C666 C668 1.389 . S
C667 H646 0.950 . S
C667 C666 1.373 . S
C667 C683 1.377 . S
C668 C666 1.389 . S
C668 C669 1.524 . S
C668 C682 1.377 . S
C669 C668 1.524 . S
C669 C670 1.397 . S
C669 C674 1.363 . S
C670 H647 0.950 . S
C670 C669 1.397 . S
C670 C671 1.334 . S
C671 H648 0.950 . S
C671 C670 1.334 . S
C671 C672 1.287 . S
C672 C671 1.287 . S
C672 C673 1.524 . S
C672 H691 0.913 . S
C673 H649 0.950 . S
C673 C672 1.524 . S
C673 C674 1.415 . S
C674 H650 0.950 . S
C674 C669 1.363 . S
C674 C673 1.415 . S
C675 H651 0.951 . S
C675 C676 1.366 . S
C675 C677 1.388 . S
C676 C675 1.366 . S
C676 C680 1.385 . S
C677 H652 0.951 . S
C677 C675 1.388 . S
C677 C678 1.366 . S
C678 C677 1.366 . S
C678 C679 1.414 . S
C678 C681 1.499 . S
C679 H653 0.950 . S
C679 C678 1.414 . S
C679 C680 1.374 . S
C680 H654 0.950 . S
C680 C676 1.385 . S
C680 C679 1.374 . S
C681 C678 1.499 . S
C681 C682 1.373 . S
C681 C683 1.389 . S
C682 H655 0.950 . S
C682 C668 1.377 . S
C682 C681 1.373 . S
C683 C667 1.377 . S
C683 C681 1.389 . S
C683 C684 1.524 . S
C684 C683 1.524 . S
C684 C685 1.397 . S
C684 C689 1.363 . S
C685 H656 0.950 . S
C685 C684 1.397 . S
C685 C686 1.334 . S
C686 H657 0.950 . S
C686 C685 1.334 . S
C686 C687 1.287 . S
C687 C686 1.287 . S
C687 C688 1.524 . S
C687 H690 0.999 . S
C688 H658 0.950 . S
C688 C687 1.524 . S
C688 C689 1.415 . S
C689 H659 0.950 . S
C689 C684 1.363 . S
C689 C688 1.415 . S
H690 C687 0.999 . S
H691 C672 0.913 . S
H692 C710 0.951 . S
H693 C712 0.951 . S
H694 C714 0.950 . S
H695 C715 0.950 . S
H696 C717 0.950 . S
H697 C720 0.950 . S
H698 C721 0.950 . S
H699 C723 0.950 . S
H700 C724 0.950 . S
H701 C725 0.951 . S
H702 C727 0.951 . S
H703 C729 0.950 . S
H704 C730 0.950 . S
H705 C732 0.950 . S
H706 C735 0.950 . S
H707 C736 0.950 . S
H708 C738 0.950 . S
H709 C739 0.950 . S
C710 H692 0.951 . S
C710 C711 1.366 . S
C710 C712 1.388 . S
C711 C710 1.366 . S
C711 C715 1.385 . S
C712 H693 0.951 . S
C712 C710 1.388 . S
C712 C713 1.366 . S
C713 C712 1.366 . S
C713 C714 1.414 . S
C713 C716 1.499 . S
C714 H694 0.950 . S
C714 C713 1.414 . S
C714 C715 1.374 . S
C715 H695 0.950 . S
C715 C711 1.385 . S
C715 C714 1.374 . S
C716 C713 1.499 . S
C716 C717 1.373 . S
C716 C718 1.389 . S
C717 H696 0.950 . S
C717 C716 1.373 . S
C717 C733 1.377 . S
C718 C716 1.389 . S
C718 C719 1.524 . S
C718 C732 1.377 . S
C719 C718 1.524 . S
C719 C720 1.397 . S
C719 C724 1.363 . S
C720 H697 0.950 . S
C720 C719 1.397 . S
C720 C721 1.334 . S
C721 H698 0.950 . S
C721 C720 1.334 . S
C721 C722 1.287 . S
C722 C721 1.287 . S
C722 C723 1.524 . S
C722 H741 0.913 . S
C723 H699 0.950 . S
C723 C722 1.524 . S
C723 C724 1.415 . S
C724 H700 0.950 . S
C724 C719 1.363 . S
C724 C723 1.415 . S
C725 H701 0.951 . S
C725 C726 1.366 . S
C725 C727 1.388 . S
C726 C725 1.366 . S
C726 C730 1.385 . S
C727 H702 0.951 . S
C727 C725 1.388 . S
C727 C728 1.366 . S
C728 C727 1.366 . S
C728 C729 1.414 . S
C728 C731 1.499 . S
C729 H703 0.950 . S
C729 C728 1.414 . S
C729 C730 1.374 . S
C730 H704 0.950 . S
C730 C726 1.385 . S
C730 C729 1.374 . S
C731 C728 1.499 . S
C731 C732 1.373 . S
C731 C733 1.389 . S
C732 H705 0.950 . S
C732 C718 1.377 . S
C732 C731 1.373 . S
C733 C717 1.377 . S
C733 C731 1.389 . S
C733 C734 1.524 . S
C734 C733 1.524 . S
C734 C735 1.397 . S
C734 C739 1.363 . S
C735 H706 0.950 . S
C735 C734 1.397 . S
C735 C736 1.334 . S
C736 H707 0.950 . S
C736 C735 1.334 . S
C736 C737 1.287 . S
C737 C736 1.287 . S
C737 C738 1.524 . S
C737 H740 0.999 . S
C738 H708 0.950 . S
C738 C737 1.524 . S
C738 C739 1.415 . S
C739 H709 0.950 . S
C739 C734 1.363 . S
C739 C738 1.415 . S
H740 C737 0.999 . S
H741 C722 0.913 . S
H742 C760 0.951 . S
H743 C762 0.951 . S
H744 C764 0.950 . S
H745 C765 0.950 . S
H746 C767 0.950 . S
H747 C770 0.950 . S
H748 C771 0.950 . S
H749 C773 0.950 . S
H750 C774 0.950 . S
H751 C775 0.951 . S
H752 C777 0.951 . S
H753 C779 0.950 . S
H754 C780 0.950 . S
H755 C782 0.950 . S
H756 C785 0.950 . S
H757 C786 0.950 . S
H758 C788 0.950 . S
H759 C789 0.950 . S
C760 H742 0.951 . S
C760 C761 1.366 . S
C760 C762 1.388 . S
C761 C760 1.366 . S
C761 C765 1.385 . S
C762 H743 0.951 . S
C762 C760 1.388 . S
C762 C763 1.366 . S
C763 C762 1.366 . S
C763 C764 1.414 . S
C763 C766 1.499 . S
C764 H744 0.950 . S
C764 C763 1.414 . S
C764 C765 1.374 . S
C765 H745 0.950 . S
C765 C761 1.385 . S
C765 C764 1.374 . S
C766 C763 1.499 . S
C766 C767 1.373 . S
C766 C768 1.389 . S
C767 H746 0.950 . S
C767 C766 1.373 . S
C767 C783 1.377 . S
C768 C766 1.389 . S
C768 C769 1.524 . S
C768 C782 1.377 . S
C769 C768 1.524 . S
C769 C770 1.397 . S
C769 C774 1.363 . S
C770 H747 0.950 . S
C770 C769 1.397 . S
C770 C771 1.334 . S
C771 H748 0.950 . S
C771 C770 1.334 . S
C771 C772 1.287 . S
C772 C771 1.287 . S
C772 C773 1.524 . S
C772 H791 0.913 . S
C773 H749 0.950 . S
C773 C772 1.524 . S
C773 C774 1.415 . S
C774 H750 0.950 . S
C774 C769 1.363 . S
C774 C773 1.415 . S
C775 H751 0.951 . S
C775 C776 1.366 . S
C775 C777 1.388 . S
C776 C775 1.366 . S
C776 C780 1.385 . S
C777 H752 0.951 . S
C777 C775 1.388 . S
C777 C778 1.366 . S
C778 C777 1.366 . S
C778 C779 1.414 . S
C778 C781 1.499 . S
C779 H753 0.950 . S
C779 C778 1.414 . S
C779 C780 1.374 . S
C780 H754 0.950 . S
C780 C776 1.385 . S
C780 C779 1.374 . S
C781 C778 1.499 . S
C781 C782 1.373 . S
C781 C783 1.389 . S
C782 H755 0.950 . S
C782 C768 1.377 . S
C782 C781 1.373 . S
C783 C767 1.377 . S
C783 C781 1.389 . S
C783 C784 1.524 . S
C784 C783 1.524 . S
C784 C785 1.397 . S
C784 C789 1.363 . S
C785 H756 0.950 . S
C785 C784 1.397 . S
C785 C786 1.334 . S
C786 H757 0.950 . S
C786 C785 1.334 . S
C786 C787 1.287 . S
C787 C786 1.287 . S
C787 C788 1.524 . S
C787 H790 0.999 . S
C788 H758 0.950 . S
C788 C787 1.524 . S
C788 C789 1.415 . S
C789 H759 0.950 . S
C789 C784 1.363 . S
C789 C788 1.415 . S
H790 C787 0.999 . S
H791 C772 0.913 . S
H792 C810 0.951 . S
H793 C812 0.951 . S
H794 C814 0.950 . S
H795 C815 0.950 . S
H796 C817 0.950 . S
H797 C820 0.950 . S
H798 C821 0.950 . S
H799 C823 0.950 . S
H800 C824 0.950 . S
H801 C825 0.951 . S
H802 C827 0.951 . S
H803 C829 0.950 . S
H804 C830 0.950 . S
H805 C832 0.950 1_556 S
H806 C835 0.950 . S
H807 C836 0.950 . S
H808 C838 0.953 . S
H809 C839 0.950 . S
C810 H792 0.951 . S
C810 C811 1.366 . S
C810 C812 1.388 . S
C811 C810 1.366 . S
C811 C815 1.385 . S
C812 H793 0.951 . S
C812 C810 1.388 . S
C812 C813 1.366 . S
C813 C812 1.366 . S
C813 C814 1.414 . S
C813 C816 1.499 . S
C814 H794 0.950 . S
C814 C813 1.414 . S
C814 C815 1.374 . S
C815 H795 0.950 . S
C815 C811 1.385 . S
C815 C814 1.374 . S
C816 C813 1.499 . S
C816 C817 1.373 . S
C816 C818 1.389 . S
C817 H796 0.950 . S
C817 C816 1.373 . S
C817 C833 1.377 . S
C818 C816 1.389 . S
C818 C819 1.524 . S
C818 C832 1.377 . S
C819 C818 1.524 . S
C819 C820 1.397 . S
C819 C824 1.363 . S
C820 H797 0.950 . S
C820 C819 1.397 . S
C820 C821 1.334 . S
C821 H798 0.950 . S
C821 C820 1.334 . S
C821 C822 1.287 . S
C822 C821 1.287 . S
C822 C823 1.524 . S
C822 H841 0.913 . S
C823 H799 0.950 . S
C823 C822 1.524 . S
C823 C824 1.415 . S
C824 H800 0.950 . S
C824 C819 1.363 . S
C824 C823 1.415 . S
C825 H801 0.951 . S
C825 C826 1.366 . S
C825 C827 1.388 . S
C826 C825 1.366 . S
C826 C830 1.385 . S
C827 H802 0.951 . S
C827 C825 1.388 . S
C827 C828 1.366 . S
C828 C827 1.366 . S
C828 C829 1.414 . S
C828 C831 1.499 . S
C829 H803 0.950 . S
C829 C828 1.414 . S
C829 C830 1.374 . S
C830 H804 0.950 . S
C830 C826 1.385 . S
C830 C829 1.374 . S
C831 C828 1.499 . S
C831 C832 1.373 1_556 S
C831 C833 1.389 1_556 S
C832 H805 0.950 1_554 S
C832 C818 1.377 . S
C832 C831 1.373 1_554 S
C833 C817 1.377 . S
C833 C831 1.389 1_554 S
C833 C834 1.528 . S
C834 C833 1.528 . S
C834 C835 1.393 1_454 S
C834 C839 1.364 . S
C835 H806 0.950 . S
C835 C834 1.393 1_656 S
C835 C836 1.334 . S
C836 H807 0.950 . S
C836 C835 1.334 . S
C836 C837 1.287 . S
C837 C836 1.287 . S
C837 C838 1.513 1_656 S
C837 H840 0.999 . S
C838 H808 0.953 . S
C838 C837 1.513 1_454 S
C838 C839 1.423 . S
C839 H809 0.950 . S
C839 C834 1.364 . S
C839 C838 1.423 . S
H840 C837 0.999 . S
H841 C822 0.913 . S
H842 C860 0.951 . S
H843 C862 0.955 . S
H844 C864 0.950 . S
H845 C865 0.950 . S
H846 C867 0.950 . S
H847 C870 0.950 . S
H848 C871 0.950 1_545 S
H849 C873 0.950 . S
H850 C874 0.950 . S
H851 C875 0.951 . S
H852 C877 0.951 . S
H853 C879 0.950 1_565 S
H854 C880 0.950 1_565 S
H855 C882 0.950 . S
H856 C885 0.950 . S
H857 C886 0.950 . S
H858 C888 0.950 . S
H859 C889 0.950 . S
C860 H842 0.951 . S
C860 C861 1.366 1_565 S
C860 C862 1.388 . S
C861 C860 1.366 1_545 S
C861 C865 1.385 . S
C862 H843 0.955 . S
C862 C860 1.388 . S
C862 C863 1.361 1_565 S
C863 C862 1.361 1_545 S
C863 C864 1.414 . S
C863 C866 1.499 . S
C864 H844 0.950 . S
C864 C863 1.414 . S
C864 C865 1.374 . S
C865 H845 0.950 . S
C865 C861 1.385 . S
C865 C864 1.374 . S
C866 C863 1.499 . S
C866 C867 1.373 . S
C866 C868 1.389 . S
C867 H846 0.950 . S
C867 C866 1.373 . S
C867 C883 1.377 . S
C868 C866 1.389 . S
C868 C869 1.524 1_545 S
C868 C882 1.377 . S
C869 C868 1.524 1_565 S
C869 C870 1.397 1_565 S
C869 C874 1.363 . S
C870 H847 0.950 . S
C870 C869 1.397 1_545 S
C870 C871 1.334 1_545 S
C871 H848 0.950 1_565 S
C871 C870 1.334 1_565 S
C871 C872 1.287 . S
C872 C871 1.287 . S
C872 C873 1.524 . S
C872 H891 0.913 . S
C873 H849 0.950 . S
C873 C872 1.524 . S
C873 C874 1.415 . S
C874 H850 0.950 . S
C874 C869 1.363 . S
C874 C873 1.415 . S
C875 H851 0.951 . S
C875 C876 1.366 . S
C875 C877 1.388 . S
C876 C875 1.366 . S
C876 C880 1.385 . S
C877 H852 0.951 . S
C877 C875 1.388 . S
C877 C878 1.366 . S
C878 C877 1.366 . S
C878 C879 1.414 . S
C878 C881 1.499 . S
C879 H853 0.950 1_545 S
C879 C878 1.414 . S
C879 C880 1.374 . S
C880 H854 0.950 1_545 S
C880 C876 1.385 . S
C880 C879 1.374 . S
C881 C878 1.499 . S
C881 C882 1.373 . S
C881 C883 1.389 . S
C882 H855 0.950 . S
C882 C868 1.377 . S
C882 C881 1.373 . S
C883 C867 1.377 . S
C883 C881 1.389 . S
C883 C884 1.524 . S
C884 C883 1.524 . S
C884 C885 1.397 . S
C884 C889 1.363 . S
C885 H856 0.950 . S
C885 C884 1.397 . S
C885 C886 1.334 . S
C886 H857 0.950 . S
C886 C885 1.334 . S
C886 C887 1.287 . S
C887 C886 1.287 . S
C887 C888 1.524 . S
C887 H890 0.999 . S
C888 H858 0.950 . S
C888 C887 1.524 . S
C888 C889 1.415 . S
C889 H859 0.950 . S
C889 C884 1.363 . S
C889 C888 1.415 . S
H890 C887 0.999 . S
H891 C872 0.913 . S
H892 C910 0.951 . S
H893 C912 0.951 . S
H894 C914 0.950 . S
H895 C915 0.950 . S
H896 C917 0.950 . S
H897 C920 0.950 . S
H898 C921 0.950 . S
H899 C923 0.950 . S
H900 C924 0.950 . S
H901 C925 0.951 . S
H902 C927 0.951 . S
H903 C929 0.950 . S
H904 C930 0.950 . S
H905 C932 0.950 . S
H906 C935 0.950 . S
H907 C936 0.950 . S
H908 C938 0.950 . S
H909 C939 0.950 . S
C910 H892 0.951 . S
C910 C911 1.366 . S
C910 C912 1.388 . S
C911 C910 1.366 . S
C911 C915 1.385 . S
C912 H893 0.951 . S
C912 C910 1.388 . S
C912 C913 1.366 . S
C913 C912 1.366 . S
C913 C914 1.414 . S
C913 C916 1.499 . S
C914 H894 0.950 . S
C914 C913 1.414 . S
C914 C915 1.374 . S
C915 H895 0.950 . S
C915 C911 1.385 . S
C915 C914 1.374 . S
C916 C913 1.499 . S
C916 C917 1.373 . S
C916 C918 1.389 . S
C917 H896 0.950 . S
C917 C916 1.373 . S
C917 C933 1.377 . S
C918 C916 1.389 . S
C918 C919 1.524 . S
C918 C932 1.377 . S
C919 C918 1.524 . S
C919 C920 1.397 . S
C919 C924 1.363 . S
C920 H897 0.950 . S
C920 C919 1.397 . S
C920 C921 1.334 . S
C921 H898 0.950 . S
C921 C920 1.334 . S
C921 C922 1.287 . S
C922 C921 1.287 . S
C922 C923 1.524 . S
C922 H941 0.913 . S
C923 H899 0.950 . S
C923 C922 1.524 . S
C923 C924 1.415 . S
C924 H900 0.950 . S
C924 C919 1.363 . S
C924 C923 1.415 . S
C925 H901 0.951 . S
C925 C926 1.366 . S
C925 C927 1.388 . S
C926 C925 1.366 . S
C926 C930 1.385 . S
C927 H902 0.951 . S
C927 C925 1.388 . S
C927 C928 1.366 . S
C928 C927 1.366 . S
C928 C929 1.414 . S
C928 C931 1.499 . S
C929 H903 0.950 . S
C929 C928 1.414 . S
C929 C930 1.374 . S
C930 H904 0.950 . S
C930 C926 1.385 . S
C930 C929 1.374 . S
C931 C928 1.499 . S
C931 C932 1.373 . S
C931 C933 1.389 . S
C932 H905 0.950 . S
C932 C918 1.377 . S
C932 C931 1.373 . S
C933 C917 1.377 . S
C933 C931 1.389 . S
C933 C934 1.524 . S
C934 C933 1.524 . S
C934 C935 1.397 . S
C934 C939 1.363 . S
C935 H906 0.950 . S
C935 C934 1.397 . S
C935 C936 1.334 . S
C936 H907 0.950 . S
C936 C935 1.334 . S
C936 C937 1.287 . S
C937 C936 1.287 . S
C937 C938 1.524 . S
C937 H940 0.999 . S
C938 H908 0.950 . S
C938 C937 1.524 . S
C938 C939 1.415 . S
C939 H909 0.950 . S
C939 C934 1.363 . S
C939 C938 1.415 . S
H940 C937 0.999 . S
H941 C922 0.913 . S
H942 C960 0.951 . S
H943 C962 0.951 . S
H944 C964 0.950 . S
H945 C965 0.950 . S
H946 C967 0.950 . S
H947 C970 0.950 . S
H948 C971 0.950 . S
H949 C973 0.950 . S
H950 C974 0.950 . S
H951 C975 0.951 . S
H952 C977 0.951 . S
H953 C979 0.950 . S
H954 C980 0.950 . S
H955 C982 0.950 . S
H956 C985 0.950 . S
H957 C986 0.950 . S
H958 C988 0.950 . S
H959 C989 0.950 . S
C960 H942 0.951 . S
C960 C961 1.366 . S
C960 C962 1.388 . S
C961 C960 1.366 . S
C961 C965 1.385 . S
C962 H943 0.951 . S
C962 C960 1.388 . S
C962 C963 1.366 . S
C963 C962 1.366 . S
C963 C964 1.414 . S
C963 C966 1.499 . S
C964 H944 0.950 . S
C964 C963 1.414 . S
C964 C965 1.374 . S
C965 H945 0.950 . S
C965 C961 1.385 . S
C965 C964 1.374 . S
C966 C963 1.499 . S
C966 C967 1.373 . S
C966 C968 1.389 1_545 S
C967 H946 0.950 . S
C967 C966 1.373 . S
C967 C983 1.377 . S
C968 C966 1.389 1_565 S
C968 C969 1.524 . S
C968 C982 1.377 . S
C969 C968 1.524 . S
C969 C970 1.397 . S
C969 C974 1.363 . S
C970 H947 0.950 . S
C970 C969 1.397 . S
C970 C971 1.334 . S
C971 H948 0.950 . S
C971 C970 1.334 . S
C971 C972 1.287 . S
C972 C971 1.287 . S
C972 C973 1.524 . S
C972 H991 0.913 . S
C973 H949 0.950 . S
C973 C972 1.524 . S
C973 C974 1.415 . S
C974 H950 0.950 . S
C974 C969 1.363 . S
C974 C973 1.415 . S
C975 H951 0.951 . S
C975 C976 1.366 . S
C975 C977 1.388 . S
C976 C975 1.366 . S
C976 C980 1.385 . S
C977 H952 0.951 . S
C977 C975 1.388 . S
C977 C978 1.366 . S
C978 C977 1.366 . S
C978 C979 1.414 . S
C978 C981 1.499 . S
C979 H953 0.950 . S
C979 C978 1.414 . S
C979 C980 1.374 . S
C980 H954 0.950 . S
C980 C976 1.385 . S
C980 C979 1.374 . S
C981 C978 1.499 . S
C981 C982 1.373 1_545 S
C981 C983 1.389 . S
C982 H955 0.950 . S
C982 C968 1.377 . S
C982 C981 1.373 1_565 S
C983 C967 1.377 . S
C983 C981 1.389 . S
C983 C984 1.524 . S
C984 C983 1.524 . S
C984 C985 1.397 . S
C984 C989 1.363 . S
C985 H956 0.950 . S
C985 C984 1.397 . S
C985 C986 1.334 . S
C986 H957 0.950 . S
C986 C985 1.334 . S
C986 C987 1.287 . S
C987 C986 1.287 . S
C987 C988 1.524 . S
C987 H990 0.999 . S
C988 H958 0.950 . S
C988 C987 1.524 . S
C988 C989 1.415 . S
C989 H959 0.950 . S
C989 C984 1.363 . S
C989 C988 1.415 . S
H990 C987 0.999 . S
H991 C972 0.913 . S
H992 C1010 0.951 . S
H993 C1012 0.951 . S
H994 C1014 0.950 . S
H995 C1015 0.950 . S
H996 C1017 0.950 . S
H997 C1020 0.950 . S
H998 C1021 0.950 . S
H999 C1023 0.950 . S
H1000 C1024 0.950 . S
H1001 C1025 0.951 . S
H1002 C1027 0.951 . S
H1003 C1029 0.950 . S
H1004 C1030 0.950 . S
H1005 C1032 0.950 1_554 S
H1006 C1035 0.950 . S
H1007 C1036 0.950 . S
H1008 C1038 0.950 . S
H1009 C1039 0.950 . S
C1010 H992 0.951 . S
C1010 C1011 1.366 . S
C1010 C1012 1.388 . S
C1011 C1010 1.366 . S
C1011 C1015 1.385 . S
C1012 H993 0.951 . S
C1012 C1010 1.388 . S
C1012 C1013 1.366 . S
C1013 C1012 1.366 . S
C1013 C1014 1.414 . S
C1013 C1016 1.499 . S
C1014 H994 0.950 . S
C1014 C1013 1.414 . S
C1014 C1015 1.374 . S
C1015 H995 0.950 . S
C1015 C1011 1.385 . S
C1015 C1014 1.374 . S
C1016 C1013 1.499 . S
C1016 C1017 1.373 . S
C1016 C1018 1.389 . S
C1017 H996 0.950 . S
C1017 C1016 1.373 . S
C1017 C1033 1.377 . S
C1018 C1016 1.389 . S
C1018 C1019 1.524 . S
C1018 C1032 1.377 . S
C1019 C1018 1.524 . S
C1019 C1020 1.397 . S
C1019 C1024 1.363 . S
C1020 H997 0.950 . S
C1020 C1019 1.397 . S
C1020 C1021 1.334 . S
C1021 H998 0.950 . S
C1021 C1020 1.334 . S
C1021 C1022 1.287 . S
C1022 C1021 1.287 . S
C1022 C1023 1.524 . S
C1022 H1041 0.913 . S
C1023 H999 0.950 . S
C1023 C1022 1.524 . S
C1023 C1024 1.415 . S
C1024 H1000 0.950 . S
C1024 C1019 1.363 . S
C1024 C1023 1.415 . S
C1025 H1001 0.951 . S
C1025 C1026 1.366 . S
C1025 C1027 1.388 . S
C1026 C1025 1.366 . S
C1026 C1030 1.385 . S
C1027 H1002 0.951 . S
C1027 C1025 1.388 . S
C1027 C1028 1.366 . S
C1028 C1027 1.366 . S
C1028 C1029 1.414 . S
C1028 C1031 1.499 . S
C1029 H1003 0.950 . S
C1029 C1028 1.414 . S
C1029 C1030 1.374 . S
C1030 H1004 0.950 . S
C1030 C1026 1.385 . S
C1030 C1029 1.374 . S
C1031 C1028 1.499 . S
C1031 C1032 1.373 1_554 S
C1031 C1033 1.389 1_554 S
C1032 H1005 0.950 1_556 S
C1032 C1018 1.377 . S
C1032 C1031 1.373 1_556 S
C1033 C1017 1.377 . S
C1033 C1031 1.389 1_556 S
C1033 C1034 1.524 . S
C1034 C1033 1.524 . S
C1034 C1035 1.397 1_556 S
C1034 C1039 1.363 . S
C1035 H1006 0.950 . S
C1035 C1034 1.397 1_554 S
C1035 C1036 1.334 . S
C1036 H1007 0.950 . S
C1036 C1035 1.334 . S
C1036 C1037 1.287 . S
C1037 C1036 1.287 . S
C1037 C1038 1.524 1_554 S
C1037 H1040 0.999 . S
C1038 H1008 0.950 . S
C1038 C1037 1.524 1_556 S
C1038 C1039 1.415 . S
C1039 H1009 0.950 . S
C1039 C1034 1.363 . S
C1039 C1038 1.415 . S
H1040 C1037 0.999 . S
H1041 C1022 0.913 . S
H1042 C1060 0.951 . S
H1043 C1062 0.951 . S
H1044 C1064 0.971 . S
H1045 C1065 0.950 . S
H1046 C1067 0.950 . S
H1047 C1070 0.950 . S
H1048 C1071 0.950 . S
H1049 C1073 0.950 . S
H1050 C1074 0.950 . S
H1051 C1075 0.951 . S
H1052 C1077 0.951 . S
H1053 C1079 0.950 . S
H1054 C1080 0.950 . S
H1055 C1082 0.950 . S
H1056 C1085 0.950 . S
H1057 C1086 0.950 . S
H1058 C1088 0.950 . S
H1059 C1089 0.950 . S
C1060 H1042 0.951 . S
C1060 C1061 1.366 . S
C1060 C1062 1.388 . S
C1061 C1060 1.366 . S
C1061 C1065 1.385 . S
C1062 H1043 0.951 . S
C1062 C1060 1.388 . S
C1062 C1063 1.366 . S
C1063 C1062 1.366 . S
C1063 C1064 1.414 . S
C1063 C1066 1.499 . S
C1064 H1044 0.971 . S
C1064 C1063 1.414 . S
C1064 C1065 1.374 . S
C1065 H1045 0.950 . S
C1065 C1061 1.385 . S
C1065 C1064 1.374 . S
C1066 C1063 1.499 . S
C1066 C1067 1.373 . S
C1066 C1068 1.389 . S
C1067 H1046 0.950 . S
C1067 C1066 1.373 . S
C1067 C1083 1.377 . S
C1068 C1066 1.389 . S
C1068 C1069 1.524 . S
C1068 C1082 1.377 . S
C1069 C1068 1.524 . S
C1069 C1070 1.397 . S
C1069 C1074 1.363 . S
C1070 H1047 0.950 . S
C1070 C1069 1.397 . S
C1070 C1071 1.334 . S
C1071 H1048 0.950 . S
C1071 C1070 1.334 . S
C1071 C1072 1.287 . S
C1072 C1071 1.287 . S
C1072 C1073 1.524 . S
C1072 H1091 0.913 . S
C1073 H1049 0.950 . S
C1073 C1072 1.524 . S
C1073 C1074 1.415 . S
C1074 H1050 0.950 . S
C1074 C1069 1.363 . S
C1074 C1073 1.415 . S
C1075 H1051 0.951 . S
C1075 C1076 1.366 1_655 S
C1075 C1077 1.388 . S
C1076 C1075 1.366 1_455 S
C1076 C1080 1.385 . S
C1077 H1052 0.951 . S
C1077 C1075 1.388 . S
C1077 C1078 1.366 1_655 S
C1078 C1077 1.366 1_455 S
C1078 C1079 1.414 . S
C1078 C1081 1.499 . S
C1079 H1053 0.950 . S
C1079 C1078 1.414 . S
C1079 C1080 1.374 . S
C1080 H1054 0.950 . S
C1080 C1076 1.385 . S
C1080 C1079 1.374 . S
C1081 C1078 1.499 . S
C1081 C1082 1.373 . S
C1081 C1083 1.389 . S
C1082 H1055 0.950 . S
C1082 C1068 1.377 . S
C1082 C1081 1.373 . S
C1083 C1067 1.377 . S
C1083 C1081 1.389 . S
C1083 C1084 1.524 . S
C1084 C1083 1.524 . S
C1084 C1085 1.397 . S
C1084 C1089 1.363 1_455 S
C1085 H1056 0.950 . S
C1085 C1084 1.397 . S
C1085 C1086 1.334 . S
C1086 H1057 0.950 . S
C1086 C1085 1.334 . S
C1086 C1087 1.287 . S
C1087 C1086 1.287 . S
C1087 C1088 1.524 1_455 S
C1087 H1090 0.999 . S
C1088 H1058 0.950 . S
C1088 C1087 1.524 1_655 S
C1088 C1089 1.415 . S
C1089 H1059 0.950 . S
C1089 C1084 1.363 1_655 S
C1089 C1088 1.415 . S
H1090 C1087 0.999 . S
H1091 C1072 0.913 . S
C211 C7 0.782 . S
C226 C186 0.784 . S
C261 C51 1.921 . S
C276 C160 1.860 . S
C311 C87 1.226 . S
C326 C172 1.214 . S
C361 C16 0.269 . S
C376 C184 0.382 . S
C426 C162 1.821 . S
C411 C42 1.853 . S
C476 C174 1.109 . S
C461 C96 1.118 . S
C511 C47 1.253 . S
C526 C136 1.239 . S
C561 C91 3.401 . S
C576 C150 3.371 1_655 S
C611 C2 1.870 . S
C626 C126 1.849 1_565 S
C676 C138 1.116 . S
C661 C56 1.123 . S
C726 C148 2.560 . S
C711 C82 2.653 . S
C761 C11 1.921 . S
C776 C124 1.866 . S
C826 C153 1.745 . S
C811 C19 1.675 . S
C861 C50 1.431 . S
C876 C129 1.485 . S
C911 C99 1.503 . S
C926 C141 1.523 . S
C976 C177 1.535 . S
C961 C59 1.522 . S
C1026 C189 1.287 . S
C1011 C90 1.253 . S
C1061 C10 1.417 . S
C1076 C165 1.450 . S
