# Generated by pormake.
# Topology ptr, (4,4)-cn, num edge types: 1
# Building blocks:
#     Node 0, Type 0, BuildingBlock: CEKHIL_clean_sbu_0, # of connection points: 4
#     Node 1, Type 0, BuildingBlock: CEKHIL_clean_sbu_0, # of connection points: 4
#     Node 2, Type 0, BuildingBlock: CEKHIL_clean_sbu_0, # of connection points: 4
#     Node 3, Type 0, BuildingBlock: CEKHIL_clean_sbu_0, # of connection points: 4
#     Node 4, Type 0, BuildingBlock: CEKHIL_clean_sbu_0, # of connection points: 4
#     Node 5, Type 0, BuildingBlock: CEKHIL_clean_sbu_0, # of connection points: 4
#     Node 6, Type 0, BuildingBlock: CEKHIL_clean_sbu_0, # of connection points: 4
#     Node 7, Type 0, BuildingBlock: CEKHIL_clean_sbu_0, # of connection points: 4
#     Node 8, Type 0, BuildingBlock: CEKHIL_clean_sbu_0, # of connection points: 4
#     Node 9, Type 0, BuildingBlock: CEKHIL_clean_sbu_0, # of connection points: 4
#     Node 10, Type 0, BuildingBlock: CEKHIL_clean_sbu_0, # of connection points: 4
#     Node 11, Type 0, BuildingBlock: CEKHIL_clean_sbu_0, # of connection points: 4
#     Node 12, Type 0, BuildingBlock: CEKHIL_clean_sbu_0, # of connection points: 4
#     Node 13, Type 0, BuildingBlock: CEKHIL_clean_sbu_0, # of connection points: 4
#     Node 14, Type 0, BuildingBlock: CEKHIL_clean_sbu_0, # of connection points: 4
#     Node 15, Type 0, BuildingBlock: CEKHIL_clean_sbu_0, # of connection points: 4
#     Node 16, Type 0, BuildingBlock: CEKHIL_clean_sbu_0, # of connection points: 4
#     Node 17, Type 0, BuildingBlock: CEKHIL_clean_sbu_0, # of connection points: 4
#     Node 18, Type 1, BuildingBlock: NAHDIM_clean_linker_0, # of connection points: 4
#     Node 19, Type 1, BuildingBlock: NAHDIM_clean_linker_0, # of connection points: 4
#     Node 20, Type 1, BuildingBlock: NAHDIM_clean_linker_0, # of connection points: 4
#     Node 21, Type 1, BuildingBlock: NAHDIM_clean_linker_0, # of connection points: 4
#     Node 22, Type 1, BuildingBlock: NAHDIM_clean_linker_0, # of connection points: 4
#     Node 23, Type 1, BuildingBlock: NAHDIM_clean_linker_0, # of connection points: 4
#     Node 24, Type 1, BuildingBlock: NAHDIM_clean_linker_0, # of connection points: 4
#     Node 25, Type 1, BuildingBlock: NAHDIM_clean_linker_0, # of connection points: 4
#     Node 26, Type 1, BuildingBlock: NAHDIM_clean_linker_0, # of connection points: 4
#     Node 27, Type 1, BuildingBlock: NAHDIM_clean_linker_0, # of connection points: 4
#     Node 28, Type 1, BuildingBlock: NAHDIM_clean_linker_0, # of connection points: 4
#     Node 29, Type 1, BuildingBlock: NAHDIM_clean_linker_0, # of connection points: 4
#     Node 30, Type 1, BuildingBlock: NAHDIM_clean_linker_0, # of connection points: 4
#     Node 31, Type 1, BuildingBlock: NAHDIM_clean_linker_0, # of connection points: 4
#     Node 32, Type 1, BuildingBlock: NAHDIM_clean_linker_0, # of connection points: 4
#     Node 33, Type 1, BuildingBlock: NAHDIM_clean_linker_0, # of connection points: 4
#     Node 34, Type 1, BuildingBlock: NAHDIM_clean_linker_0, # of connection points: 4
#     Node 35, Type 1, BuildingBlock: NAHDIM_clean_linker_0, # of connection points: 4
#     Edge 36, Type (0, 1), BuildingBlock: ZUJKAS_clean_linker_0, # of connection points: 2
#     Edge 37, Type (0, 1), BuildingBlock: ZUJKAS_clean_linker_0, # of connection points: 2
#     Edge 38, Type (0, 1), BuildingBlock: ZUJKAS_clean_linker_0, # of connection points: 2
#     Edge 39, Type (0, 1), BuildingBlock: ZUJKAS_clean_linker_0, # of connection points: 2
#     Edge 40, Type (0, 1), BuildingBlock: ZUJKAS_clean_linker_0, # of connection points: 2
#     Edge 41, Type (0, 1), BuildingBlock: ZUJKAS_clean_linker_0, # of connection points: 2
#     Edge 42, Type (0, 1), BuildingBlock: ZUJKAS_clean_linker_0, # of connection points: 2
#     Edge 43, Type (0, 1), BuildingBlock: ZUJKAS_clean_linker_0, # of connection points: 2
#     Edge 44, Type (0, 1), BuildingBlock: ZUJKAS_clean_linker_0, # of connection points: 2
#     Edge 45, Type (0, 1), BuildingBlock: ZUJKAS_clean_linker_0, # of connection points: 2
#     Edge 46, Type (0, 1), BuildingBlock: ZUJKAS_clean_linker_0, # of connection points: 2
#     Edge 47, Type (0, 1), BuildingBlock: ZUJKAS_clean_linker_0, # of connection points: 2
#     Edge 48, Type (0, 1), BuildingBlock: ZUJKAS_clean_linker_0, # of connection points: 2
#     Edge 49, Type (0, 1), BuildingBlock: ZUJKAS_clean_linker_0, # of connection points: 2
#     Edge 50, Type (0, 1), BuildingBlock: ZUJKAS_clean_linker_0, # of connection points: 2
#     Edge 51, Type (0, 1), BuildingBlock: ZUJKAS_clean_linker_0, # of connection points: 2
#     Edge 52, Type (0, 1), BuildingBlock: ZUJKAS_clean_linker_0, # of connection points: 2
#     Edge 53, Type (0, 1), BuildingBlock: ZUJKAS_clean_linker_0, # of connection points: 2
#     Edge 54, Type (0, 1), BuildingBlock: ZUJKAS_clean_linker_0, # of connection points: 2
#     Edge 55, Type (0, 1), BuildingBlock: ZUJKAS_clean_linker_0, # of connection points: 2
#     Edge 56, Type (0, 1), BuildingBlock: ZUJKAS_clean_linker_0, # of connection points: 2
#     Edge 57, Type (0, 1), BuildingBlock: ZUJKAS_clean_linker_0, # of connection points: 2
#     Edge 58, Type (0, 1), BuildingBlock: ZUJKAS_clean_linker_0, # of connection points: 2
#     Edge 59, Type (0, 1), BuildingBlock: ZUJKAS_clean_linker_0, # of connection points: 2
#     Edge 60, Type (0, 1), BuildingBlock: ZUJKAS_clean_linker_0, # of connection points: 2
#     Edge 61, Type (0, 1), BuildingBlock: ZUJKAS_clean_linker_0, # of connection points: 2
#     Edge 62, Type (0, 1), BuildingBlock: ZUJKAS_clean_linker_0, # of connection points: 2
#     Edge 63, Type (0, 1), BuildingBlock: ZUJKAS_clean_linker_0, # of connection points: 2
#     Edge 64, Type (0, 1), BuildingBlock: ZUJKAS_clean_linker_0, # of connection points: 2
#     Edge 65, Type (0, 1), BuildingBlock: ZUJKAS_clean_linker_0, # of connection points: 2
#     Edge 66, Type (0, 1), BuildingBlock: ZUJKAS_clean_linker_0, # of connection points: 2
#     Edge 67, Type (0, 1), BuildingBlock: ZUJKAS_clean_linker_0, # of connection points: 2
#     Edge 68, Type (0, 1), BuildingBlock: ZUJKAS_clean_linker_0, # of connection points: 2
#     Edge 69, Type (0, 1), BuildingBlock: ZUJKAS_clean_linker_0, # of connection points: 2
#     Edge 70, Type (0, 1), BuildingBlock: ZUJKAS_clean_linker_0, # of connection points: 2
#     Edge 71, Type (0, 1), BuildingBlock: ZUJKAS_clean_linker_0, # of connection points: 2
#     Edge 72, Type (0, 1), BuildingBlock: ZUJKAS_clean_linker_0, # of connection points: 2
#     Edge 73, Type (0, 1), BuildingBlock: ZUJKAS_clean_linker_0, # of connection points: 2
#     Edge 74, Type (0, 1), BuildingBlock: ZUJKAS_clean_linker_0, # of connection points: 2
#     Edge 75, Type (0, 1), BuildingBlock: ZUJKAS_clean_linker_0, # of connection points: 2
#     Edge 76, Type (0, 1), BuildingBlock: ZUJKAS_clean_linker_0, # of connection points: 2
#     Edge 77, Type (0, 1), BuildingBlock: ZUJKAS_clean_linker_0, # of connection points: 2
#     Edge 78, Type (0, 1), BuildingBlock: ZUJKAS_clean_linker_0, # of connection points: 2
#     Edge 79, Type (0, 1), BuildingBlock: ZUJKAS_clean_linker_0, # of connection points: 2
#     Edge 80, Type (0, 1), BuildingBlock: ZUJKAS_clean_linker_0, # of connection points: 2
#     Edge 81, Type (0, 1), BuildingBlock: ZUJKAS_clean_linker_0, # of connection points: 2
#     Edge 82, Type (0, 1), BuildingBlock: ZUJKAS_clean_linker_0, # of connection points: 2
#     Edge 83, Type (0, 1), BuildingBlock: ZUJKAS_clean_linker_0, # of connection points: 2
#     Edge 84, Type (0, 1), BuildingBlock: ZUJKAS_clean_linker_0, # of connection points: 2
#     Edge 85, Type (0, 1), BuildingBlock: ZUJKAS_clean_linker_0, # of connection points: 2
#     Edge 86, Type (0, 1), BuildingBlock: ZUJKAS_clean_linker_0, # of connection points: 2
#     Edge 87, Type (0, 1), BuildingBlock: ZUJKAS_clean_linker_0, # of connection points: 2
#     Edge 88, Type (0, 1), BuildingBlock: ZUJKAS_clean_linker_0, # of connection points: 2
#     Edge 89, Type (0, 1), BuildingBlock: ZUJKAS_clean_linker_0, # of connection points: 2
#     Edge 90, Type (0, 1), BuildingBlock: ZUJKAS_clean_linker_0, # of connection points: 2
#     Edge 91, Type (0, 1), BuildingBlock: ZUJKAS_clean_linker_0, # of connection points: 2
#     Edge 92, Type (0, 1), BuildingBlock: ZUJKAS_clean_linker_0, # of connection points: 2
#     Edge 93, Type (0, 1), BuildingBlock: ZUJKAS_clean_linker_0, # of connection points: 2
#     Edge 94, Type (0, 1), BuildingBlock: ZUJKAS_clean_linker_0, # of connection points: 2
#     Edge 95, Type (0, 1), BuildingBlock: ZUJKAS_clean_linker_0, # of connection points: 2
#     Edge 96, Type (0, 1), BuildingBlock: ZUJKAS_clean_linker_0, # of connection points: 2
#     Edge 97, Type (0, 1), BuildingBlock: ZUJKAS_clean_linker_0, # of connection points: 2
#     Edge 98, Type (0, 1), BuildingBlock: ZUJKAS_clean_linker_0, # of connection points: 2
#     Edge 99, Type (0, 1), BuildingBlock: ZUJKAS_clean_linker_0, # of connection points: 2
#     Edge 100, Type (0, 1), BuildingBlock: ZUJKAS_clean_linker_0, # of connection points: 2
#     Edge 101, Type (0, 1), BuildingBlock: ZUJKAS_clean_linker_0, # of connection points: 2
#     Edge 102, Type (0, 1), BuildingBlock: ZUJKAS_clean_linker_0, # of connection points: 2
#     Edge 103, Type (0, 1), BuildingBlock: ZUJKAS_clean_linker_0, # of connection points: 2
#     Edge 104, Type (0, 1), BuildingBlock: ZUJKAS_clean_linker_0, # of connection points: 2
#     Edge 105, Type (0, 1), BuildingBlock: ZUJKAS_clean_linker_0, # of connection points: 2
#     Edge 106, Type (0, 1), BuildingBlock: ZUJKAS_clean_linker_0, # of connection points: 2
#     Edge 107, Type (0, 1), BuildingBlock: ZUJKAS_clean_linker_0, # of connection points: 2
# Relax obj value: 0.030
# Max RMSD: 0.166
# Mean RMSD: 0.058
data_MOF--net-ptr--node1-CEKHIL_clean_sbu_0--node2-NAHDIM_clean_linker_0--edge1-ZUJKAS_clean_linker_0
_symmetry_space_group_name_H-M    P1
_symmetry_Int_Tables_number       1
_symmetry_cell_setting            triclinic
loop_
_symmetry_equiv_pos_as_xyz
'x, y, z'
_cell_length_a     115.36264
_cell_length_b     113.56659
_cell_length_c     97.932226
_cell_angle_alpha  91.637902
_cell_angle_beta   89.827722
_cell_angle_gamma 121.0666
loop_
_atom_site_label
_atom_site_type_symbol
_atom_site_fract_x
_atom_site_fract_y
_atom_site_fract_z
_atom_type_partial_charge
Co0 Co 0.00476 0.33683 0.0086 0.0
O1 O 0.00815 0.3268 0.02178 0.0
O2 O 0.02381 0.34686 0.0139 0.0
C3 C 0.99237 0.31884 0.9941 0.0
O4 O 0.00469 0.34975 0.99453 0.0
Co5 Co 0.97508 0.32932 0.00399 0.0
O6 O 0.983 0.34183 0.98851 0.0
C7 C 0.98993 0.34571 0.02846 0.0
C8 C 0.0207 0.33666 0.02186 0.0
C9 C 0.99567 0.35011 0.9871 0.0
O10 O 0.00073 0.34653 0.02373 0.0
O11 O 0.9783 0.33837 0.02266 0.0
O12 O 0.0055 0.32547 0.99378 0.0
O13 O 0.98725 0.32234 0.00404 0.0
Co14 Co 0.66241 0.65956 0.0147 0.0
O15 O 0.67408 0.67022 0.00019 0.0
O16 O 0.67085 0.65018 0.00657 0.0
C17 C 0.66998 0.67737 0.02985 0.0
O18 O 0.65169 0.64577 0.02937 0.0
Co19 Co 0.6409 0.66498 0.02713 0.0
O20 O 0.64104 0.65386 0.04229 0.0
C21 C 0.63555 0.65014 0.00037 0.0
C22 C 0.677 0.66065 0.99869 0.0
C23 C 0.64505 0.64543 0.04009 0.0
O24 O 0.64668 0.65016 0.00142 0.0
O25 O 0.63176 0.65598 0.0092 0.0
O26 O 0.67646 0.6709 0.02818 0.0
O27 O 0.65967 0.67346 0.02183 0.0
Co28 Co 0.33929 0.00429 0.00794 0.0
O29 O 0.32945 0.00781 0.99454 0.0
O30 O 0.34901 0.02371 0.00384 0.0
C31 C 0.32143 0.99132 0.02126 0.0
O32 O 0.35203 0.00437 0.02247 0.0
Co33 Co 0.33254 0.97441 0.0116 0.0
O34 O 0.34442 0.98248 0.02798 0.0
C35 C 0.34864 0.98968 0.98805 0.0
C36 C 0.33905 0.02061 0.99542 0.0
C37 C 0.35246 0.99539 0.02989 0.0
O38 O 0.3491 0.00054 0.99297 0.0
O39 O 0.34173 0.9779 0.99343 0.0
O40 O 0.32783 0.00465 0.02237 0.0
O41 O 0.32515 0.98632 0.01131 0.0
Co42 Co 0.00315 0.66944 0.01587 0.0
O43 O 0.0008 0.67988 0.00231 0.0
O44 O 0.98414 0.66064 0.01069 0.0
C45 C 0.01657 0.68759 0.02987 0.0
O46 O 0.00191 0.65622 0.03033 0.0
Co47 Co 0.0318 0.67445 0.02122 0.0
O48 O 0.02301 0.66197 0.03655 0.0
C49 C 0.0167 0.65875 0.99651 0.0
C50 C 0.98798 0.67079 0.00247 0.0
C51 C 0.01021 0.65474 0.03785 0.0
O52 O 0.0062 0.6587 0.00103 0.0
O53 O 0.02827 0.6654 0.00254 0.0
O54 O 0.00349 0.68173 0.03032 0.0
O55 O 0.02112 0.6831 0.02024 0.0
Co56 Co 0.3465 0.34701 0.99799 0.0
O57 O 0.33514 0.33555 0.01224 0.0
O58 O 0.33667 0.35494 0.00622 0.0
C59 C 0.34031 0.3295 0.98263 0.0
O60 O 0.35653 0.36125 0.98348 0.0
Co61 Co 0.36968 0.344 0.98625 0.0
O62 O 0.37004 0.35594 0.97171 0.0
C63 C 0.37301 0.3574 0.01344 0.0
C64 C 0.33111 0.34425 0.01387 0.0
C65 C 0.36447 0.36306 0.97344 0.0
O66 O 0.36191 0.35728 0.01154 0.0
O67 O 0.37732 0.35175 0.00499 0.0
O68 O 0.33299 0.33508 0.98432 0.0
O69 O 0.35065 0.33409 0.99079 0.0
Co70 Co 0.66457 0.0029 0.00754 0.0
O71 O 0.67476 0.00078 0.02167 0.0
O72 O 0.65556 0.9838 0.0127 0.0
C73 C 0.68241 0.01562 0.99409 0.0
O74 O 0.6516 0.00128 0.99245 0.0
Co75 Co 0.67003 0.03189 0.00135 0.0
O76 O 0.65916 0.02244 0.98463 0.0
C77 C 0.65447 0.01794 0.02573 0.0
C78 C 0.66561 0.9878 0.02127 0.0
C79 C 0.65129 0.00942 0.98374 0.0
O80 O 0.65435 0.00698 0.02175 0.0
O81 O 0.66098 0.0293 0.01952 0.0
O82 O 0.67641 0.00229 0.9937 0.0
O83 O 0.67823 0.02084 0.00337 0.0
Co84 Co 0.6705 0.67681 0.34176 0.0
O85 O 0.67111 0.66577 0.35596 0.0
O86 O 0.68849 0.68572 0.3498 0.0
C87 C 0.65947 0.65927 0.32633 0.0
O88 O 0.67397 0.69081 0.32728 0.0
Co89 Co 0.64322 0.6719 0.33045 0.0
O90 O 0.65456 0.68486 0.31627 0.0
C91 C 0.65322 0.6853 0.35768 0.0
C92 C 0.68381 0.67512 0.35753 0.0
C93 C 0.66736 0.69244 0.31768 0.0
O94 O 0.66475 0.6864 0.35543 0.0
O95 O 0.64306 0.67884 0.34948 0.0
O96 O 0.67251 0.66526 0.32791 0.0
O97 O 0.65351 0.66335 0.33471 0.0
Co98 Co 0.32343 0.98841 0.35228 0.0
O99 O 0.33557 0.99643 0.33723 0.0
O100 O 0.32952 0.97629 0.34593 0.0
C101 C 0.33291 0.00765 0.36571 0.0
O102 O 0.31191 0.97693 0.36796 0.0
Co103 Co 0.30442 0.99838 0.36235 0.0
O104 O 0.30105 0.98641 0.37807 0.0
C105 C 0.2979 0.98165 0.33672 0.0
C106 C 0.33662 0.98558 0.33709 0.0
C107 C 0.3045 0.97742 0.37755 0.0
O108 O 0.30748 0.97933 0.33922 0.0
O109 O 0.29576 0.98979 0.34415 0.0
O110 O 0.33809 0.99984 0.36526 0.0
O111 O 0.32286 0.00413 0.35745 0.0
Co112 Co 0.018 0.3374 0.34315 0.0
O113 O 0.00853 0.33976 0.32828 0.0
O114 O 0.02845 0.35591 0.3367 0.0
C115 C 0.99985 0.3267 0.35682 0.0
O116 O 0.03069 0.33943 0.35864 0.0
Co117 Co 0.0109 0.3089 0.35323 0.0
O118 O 0.02331 0.31934 0.36878 0.0
C119 C 0.02544 0.31894 0.32727 0.0
C120 C 0.01859 0.35239 0.32805 0.0
C121 C 0.03143 0.33228 0.36819 0.0
O122 O 0.02711 0.33091 0.32988 0.0
O123 O 0.01838 0.3086 0.33477 0.0
O124 O 0.00668 0.34004 0.35629 0.0
O125 O 0.00362 0.32031 0.34851 0.0
Co126 Co 0.66501 0.98732 0.34619 0.0
O127 O 0.66244 0.99625 0.33101 0.0
O128 O 0.64691 0.97604 0.33875 0.0
C129 C 0.67496 0.00617 0.36022 0.0
O130 O 0.66336 0.97505 0.36177 0.0
Co131 Co 0.69326 0.99577 0.3577 0.0
O132 O 0.68318 0.98376 0.37301 0.0
C133 C 0.68365 0.97963 0.33168 0.0
C134 C 0.65018 0.98572 0.33011 0.0
C135 C 0.67054 0.97506 0.37181 0.0
O136 O 0.67187 0.97805 0.33344 0.0
O137 O 0.69374 0.98712 0.3397 0.0
O138 O 0.66186 0.99884 0.35901 0.0
O139 O 0.68157 0.00246 0.35232 0.0
Co140 Co 0.01809 0.68788 0.34168 0.0
O141 O 0.00604 0.67534 0.35497 0.0
O142 O 0.00699 0.69456 0.34936 0.0
C143 C 0.01405 0.67163 0.3255 0.0
O144 O 0.02852 0.703 0.32801 0.0
Co145 Co 0.04304 0.68684 0.33138 0.0
O146 O 0.04489 0.70058 0.31822 0.0
C147 C 0.0436 0.69838 0.35896 0.0
C148 C 0.00131 0.68347 0.35645 0.0
C149 C 0.03806 0.70649 0.31929 0.0
O150 O 0.03247 0.69803 0.35636 0.0
O151 O 0.04875 0.6934 0.35075 0.0
O152 O 0.00584 0.67619 0.32695 0.0
O153 O 0.02374 0.6762 0.33445 0.0
Co154 Co 0.32228 0.33644 0.34263 0.0
O155 O 0.3332 0.33614 0.35726 0.0
O156 O 0.31376 0.31819 0.34998 0.0
C157 C 0.33959 0.34762 0.32809 0.0
O158 O 0.30852 0.3326 0.32749 0.0
Co159 Co 0.32675 0.36384 0.332 0.0
O160 O 0.31474 0.35215 0.31672 0.0
C161 C 0.31306 0.35363 0.35831 0.0
C162 C 0.32422 0.32317 0.35816 0.0
C163 C 0.30724 0.33917 0.31766 0.0
O164 O 0.31262 0.34217 0.35604 0.0
O165 O 0.31911 0.36385 0.35044 0.0
O166 O 0.33371 0.33439 0.32923 0.0
O167 O 0.33551 0.35374 0.33639 0.0
Co168 Co 0.33692 0.01652 0.66959 0.0
O169 O 0.34018 0.00766 0.68439 0.0
O170 O 0.3553 0.02782 0.67616 0.0
C171 C 0.32643 0.99774 0.65552 0.0
O172 O 0.3379 0.02882 0.65436 0.0
Co173 Co 0.30824 0.00814 0.65945 0.0
O174 O 0.31756 0.02127 0.64466 0.0
C175 C 0.31873 0.02365 0.68569 0.0
C176 C 0.35245 0.01822 0.68476 0.0
C177 C 0.33032 0.02956 0.64525 0.0
O178 O 0.33057 0.02575 0.68301 0.0
O179 O 0.30831 0.01595 0.67814 0.0
O180 O 0.33956 0.00506 0.65624 0.0
O181 O 0.32011 0.00139 0.66393 0.0
Co182 Co 0.99068 0.32166 0.67643 0.0
O183 O 0.0031 0.33306 0.6627 0.0
O184 O 0.00089 0.31361 0.66969 0.0
C185 C 0.99558 0.33889 0.69169 0.0
O186 O 0.97956 0.30746 0.69064 0.0
Co187 Co 0.96677 0.32495 0.68596 0.0
O188 O 0.96536 0.31284 0.70084 0.0
C189 C 0.96531 0.31156 0.65911 0.0
C190 C 0.00705 0.32422 0.66199 0.0
C191 C 0.97096 0.30568 0.69997 0.0
O192 O 0.97615 0.31144 0.66195 0.0
O193 O 0.96064 0.31736 0.66689 0.0
O194 O 0.00324 0.33362 0.69088 0.0
O195 O 0.986 0.33439 0.68265 0.0
Co196 Co 0.67738 0.67026 0.67439 0.0
O197 O 0.66615 0.6706 0.66013 0.0
O198 O 0.68592 0.68841 0.66683 0.0
C199 C 0.66042 0.65937 0.68933 0.0
O200 O 0.69152 0.67407 0.68905 0.0
Co201 Co 0.67292 0.64298 0.68539 0.0
O202 O 0.68432 0.65492 0.70094 0.0
C203 C 0.68587 0.65258 0.65858 0.0
C204 C 0.67524 0.6835 0.65897 0.0
C205 C 0.69228 0.66776 0.69941 0.0
O206 O 0.6865 0.66415 0.66071 0.0
O207 O 0.68001 0.64256 0.66672 0.0
O208 O 0.66642 0.67261 0.68821 0.0
O209 O 0.66422 0.6531 0.68091 0.0
Co210 Co 0.33851 0.32867 0.68339 0.0
O211 O 0.33839 0.34018 0.66943 0.0
O212 O 0.32065 0.32027 0.67509 0.0
C213 C 0.34957 0.34598 0.69908 0.0
O214 O 0.33447 0.31428 0.6976 0.0
Co215 Co 0.36519 0.33256 0.69482 0.0
O216 O 0.35358 0.31931 0.70867 0.0
C217 C 0.35538 0.3196 0.66746 0.0
C218 C 0.32565 0.33109 0.66763 0.0
C219 C 0.34077 0.31211 0.70711 0.0
O220 O 0.34409 0.31905 0.66958 0.0
O221 O 0.36544 0.32557 0.67583 0.0
O222 O 0.33655 0.34008 0.69737 0.0
O223 O 0.35555 0.34186 0.69074 0.0
Co224 Co 0.68235 0.01829 0.66237 0.0
O225 O 0.67025 0.0083 0.67692 0.0
O226 O 0.67403 0.0282 0.6695 0.0
C227 C 0.67507 0.99989 0.64794 0.0
O228 O 0.69339 0.03138 0.64734 0.0
Co229 Co 0.70421 0.01226 0.65223 0.0
O230 O 0.70776 0.02572 0.638 0.0
C231 C 0.70808 0.02701 0.67866 0.0
C232 C 0.66764 0.01813 0.67779 0.0
C233 C 0.70237 0.03307 0.63849 0.0
O234 O 0.6978 0.02818 0.67598 0.0
O235 O 0.71157 0.02006 0.671 0.0
O236 O 0.66854 0.00638 0.64885 0.0
O237 O 0.68516 0.00412 0.65635 0.0
Co238 Co 0.97864 0.6665 0.67718 0.0
O239 O 0.9875 0.6642 0.69268 0.0
O240 O 0.96748 0.64834 0.6842 0.0
C241 C 0.99704 0.67595 0.6638 0.0
O242 O 0.96647 0.66447 0.6611 0.0
Co243 Co 0.98714 0.69489 0.66575 0.0
O244 O 0.97539 0.68419 0.6499 0.0
C245 C 0.97157 0.68615 0.6913 0.0
C246 C 0.97714 0.65176 0.69308 0.0
C247 C 0.96666 0.67144 0.65088 0.0
O248 O 0.96983 0.67405 0.68958 0.0
O249 O 0.97888 0.69608 0.68343 0.0
O250 O 0.9897 0.66269 0.66485 0.0
O251 O 0.99361 0.68307 0.67149 0.0
C252 C 0.20845 0.27601 0.09735 0.0
C253 C 0.20925 0.28873 0.09134 0.0
C254 C 0.19851 0.29666 0.10805 0.0
C255 C 0.2009 0.30765 0.11678 0.0
C256 C 0.19029 0.30772 0.12373 0.0
C257 C 0.17697 0.29627 0.1222 0.0
C258 C 0.17445 0.28505 0.11343 0.0
C259 C 0.18522 0.28541 0.10633 0.0
C260 C 0.19335 0.32005 0.1327 0.0
C261 C 0.16038 0.27265 0.1116 0.0
C262 C 0.09633 0.31095 0.08306 0.0
C263 C 0.10301 0.30414 0.0894 0.0
C264 C 0.12234 0.3096 0.10414 0.0
C265 C 0.11835 0.29582 0.10629 0.0
C266 C 0.12617 0.29255 0.11454 0.0
C267 C 0.13818 0.30326 0.12084 0.0
C268 C 0.14215 0.31712 0.11882 0.0
C269 C 0.13417 0.3201 0.11047 0.0
C270 C 0.12168 0.27766 0.11645 0.0
C271 C 0.15486 0.32878 0.12543 0.0
C272 C 0.10817 0.29349 0.20708 0.0
C273 C 0.10529 0.28083 0.20107 0.0
C274 C 0.1154 0.27959 0.19436 0.0
C275 C 0.12862 0.29121 0.19358 0.0
C276 C 0.1316 0.30388 0.19978 0.0
C277 C 0.12132 0.30483 0.20648 0.0
C278 C 0.11194 0.2659 0.18791 0.0
C279 C 0.14559 0.31647 0.19915 0.0
C280 C 0.20748 0.26734 0.2032 0.0
C281 C 0.20644 0.27891 0.21035 0.0
C282 C 0.1846 0.27716 0.20826 0.0
C283 C 0.17145 0.26663 0.20488 0.0
C284 C 0.16253 0.26939 0.1979 0.0
C285 C 0.16683 0.28309 0.19458 0.0
C286 C 0.17988 0.29389 0.19873 0.0
C287 C 0.18867 0.2908 0.20547 0.0
C288 C 0.14865 0.25763 0.19378 0.0
C289 C 0.18463 0.30868 0.19585 0.0
C290 C 0.16569 0.29609 0.12972 0.0
C291 C 0.15728 0.29937 0.12263 0.0
C292 C 0.14679 0.29994 0.12918 0.0
C293 C 0.14471 0.29739 0.14329 0.0
C294 C 0.13448 0.29821 0.15029 0.0
C295 C 0.13262 0.29584 0.16421 0.0
C296 C 0.14091 0.29252 0.17168 0.0
C297 C 0.1392 0.29024 0.18586 0.0
C298 C 0.14771 0.28712 0.19301 0.0
C299 C 0.15789 0.28608 0.18633 0.0
C300 C 0.15963 0.28813 0.17211 0.0
C301 C 0.16959 0.28689 0.165 0.0
C302 C 0.1715 0.28935 0.1511 0.0
C303 C 0.16352 0.29313 0.14375 0.0
C304 C 0.15312 0.29398 0.1506 0.0
C305 C 0.1512 0.29151 0.1648 0.0
C306 C 0.07747 0.28444 0.20123 0.0
C307 C 0.08497 0.28583 0.21464 0.0
O308 O 0.20934 0.29736 0.10168 0.0
O309 O 0.19315 0.27389 0.21421 0.0
O310 O 0.09868 0.29532 0.21343 0.0
O311 O 0.11513 0.31319 0.09608 0.0
H312 H 0.20036 0.28534 0.08444 0.0
H313 H 0.1989 0.26993 0.10299 0.0
H314 H 0.21702 0.27903 0.10456 0.0
H315 H 0.20872 0.26929 0.08903 0.0
H316 H 0.21117 0.31629 0.11803 0.0
H317 H 0.18314 0.2768 0.09962 0.0
H318 H 0.18615 0.32349 0.1304 0.0
H319 H 0.20383 0.32881 0.13138 0.0
H320 H 0.19208 0.31718 0.14358 0.0
H321 H 0.1603 0.26419 0.10553 0.0
H322 H 0.15384 0.27566 0.10631 0.0
H323 H 0.15586 0.26874 0.12172 0.0
H324 H 0.10364 0.29643 0.08264 0.0
H325 H 0.09632 0.30886 0.07175 0.0
H326 H 0.10425 0.32221 0.08257 0.0
H327 H 0.07846 0.30367 0.09418 0.0
H328 H 0.10919 0.28755 0.10152 0.0
H329 H 0.13716 0.33069 0.1088 0.0
H330 H 0.12971 0.2757 0.11291 0.0
H331 H 0.11214 0.27051 0.11079 0.0
H332 H 0.12013 0.27535 0.12748 0.0
H333 H 0.15627 0.33899 0.12332 0.0
H334 H 0.16379 0.32849 0.12161 0.0
H335 H 0.15452 0.32754 0.13666 0.0
H336 H 0.08347 0.27565 0.21717 0.0
H337 H 0.09521 0.2719 0.20143 0.0
H338 H 0.12348 0.31453 0.21116 0.0
H339 H 0.11332 0.26689 0.17669 0.0
H340 H 0.10136 0.25767 0.18992 0.0
H341 H 0.11891 0.26276 0.19188 0.0
H342 H 0.1463 0.32556 0.20457 0.0
H343 H 0.14843 0.31902 0.18832 0.0
H344 H 0.15306 0.31433 0.20378 0.0
H345 H 0.20965 0.28712 0.20276 0.0
H346 H 0.21809 0.27112 0.20013 0.0
H347 H 0.20098 0.2637 0.19385 0.0
H348 H 0.20408 0.2585 0.20999 0.0
H349 H 0.16836 0.25616 0.2073 0.0
H350 H 0.19869 0.29902 0.20859 0.0
H351 H 0.14715 0.25756 0.18257 0.0
H352 H 0.14082 0.25906 0.19885 0.0
H353 H 0.14708 0.2475 0.19656 0.0
H354 H 0.1943 0.31597 0.20123 0.0
H355 H 0.17683 0.31114 0.19898 0.0
H356 H 0.18614 0.31027 0.1847 0.0
H357 H 0.15897 0.30158 0.11185 0.0
H358 H 0.12783 0.30077 0.14508 0.0
H359 H 0.12463 0.29668 0.16906 0.0
H360 H 0.14643 0.28555 0.20391 0.0
H361 H 0.17607 0.28408 0.17012 0.0
H362 H 0.17935 0.2883 0.1462 0.0
H363 H 0.06646 0.27699 0.2023 0.0
H364 H 0.08123 0.28061 0.19281 0.0
H365 H 0.07899 0.29454 0.19839 0.0
C366 C 0.7258 0.92844 0.10453 0.0
C367 C 0.71376 0.91575 0.09753 0.0
C368 C 0.7069 0.89741 0.1141 0.0
C369 C 0.69654 0.88862 0.12273 0.0
C370 C 0.69749 0.87881 0.13024 0.0
C371 C 0.70934 0.87805 0.12939 0.0
C372 C 0.71991 0.88693 0.12069 0.0
C373 C 0.71852 0.89639 0.113 0.0
C374 C 0.6858 0.86924 0.13906 0.0
C375 C 0.73271 0.88643 0.11949 0.0
C376 C 0.70577 0.78471 0.09176 0.0
C377 C 0.71061 0.7988 0.09744 0.0
C378 C 0.70389 0.81066 0.11392 0.0
C379 C 0.7166 0.82289 0.11464 0.0
C380 C 0.71849 0.83434 0.12241 0.0
C381 C 0.70741 0.83361 0.12943 0.0
C382 C 0.6946 0.82134 0.12868 0.0
C383 C 0.69305 0.80997 0.12102 0.0
C384 C 0.73233 0.84722 0.12312 0.0
C385 C 0.68255 0.82027 0.13593 0.0
C386 C 0.71761 0.81899 0.2167 0.0
C387 C 0.73006 0.8296 0.21188 0.0
C388 C 0.73081 0.84063 0.20492 0.0
C389 C 0.71891 0.84106 0.20278 0.0
C390 C 0.70646 0.8306 0.20794 0.0
C391 C 0.706 0.81971 0.21485 0.0
C392 C 0.74425 0.85169 0.19961 0.0
C393 C 0.69359 0.83078 0.20593 0.0
C394 C 0.73204 0.9441 0.20797 0.0
C395 C 0.72289 0.9304 0.21477 0.0
C396 C 0.72799 0.91203 0.21352 0.0
C397 C 0.73898 0.91045 0.21062 0.0
C398 C 0.73702 0.89809 0.20485 0.0
C399 C 0.7237 0.88699 0.20221 0.0
C400 C 0.71252 0.88821 0.20604 0.0
C401 C 0.71478 0.90075 0.21165 0.0
C402 C 0.74917 0.89707 0.20107 0.0
C403 C 0.69818 0.87641 0.2038 0.0
C404 C 0.71059 0.86783 0.13741 0.0
C405 C 0.70844 0.85588 0.13058 0.0
C406 C 0.70927 0.84573 0.1375 0.0
C407 C 0.712 0.84732 0.15171 0.0
C408 C 0.71262 0.83718 0.15903 0.0
C409 C 0.71501 0.83871 0.17307 0.0
C410 C 0.71708 0.85054 0.18031 0.0
C411 C 0.71933 0.8521 0.19462 0.0
C412 C 0.7215 0.86406 0.20147 0.0
C413 C 0.72148 0.87458 0.1944 0.0
C414 C 0.71917 0.87316 0.1801 0.0
C415 C 0.71912 0.88355 0.17266 0.0
C416 C 0.71643 0.88189 0.15867 0.0
C417 C 0.71372 0.86979 0.15156 0.0
C418 C 0.71419 0.85939 0.15877 0.0
C419 C 0.71685 0.86104 0.17306 0.0
C420 C 0.72824 0.79864 0.21123 0.0
C421 C 0.7258 0.80408 0.22478 0.0
O422 O 0.70525 0.9067 0.10718 0.0
O423 O 0.73049 0.92455 0.21802 0.0
O424 O 0.7162 0.80781 0.22303 0.0
O425 O 0.70167 0.79936 0.10654 0.0
H426 H 0.71764 0.91055 0.09076 0.0
H427 H 0.73205 0.92552 0.11046 0.0
H428 H 0.72225 0.93368 0.11167 0.0
H429 H 0.73237 0.93583 0.09675 0.0
H430 H 0.68758 0.88941 0.12347 0.0
H431 H 0.72661 0.90296 0.10628 0.0
H432 H 0.68321 0.85845 0.13722 0.0
H433 H 0.67664 0.86984 0.13711 0.0
H434 H 0.68874 0.87198 0.14999 0.0
H435 H 0.74076 0.89536 0.11401 0.0
H436 H 0.73042 0.87688 0.11377 0.0
H437 H 0.73662 0.88621 0.12976 0.0
H438 H 0.7144 0.807 0.08974 0.0
H439 H 0.71997 0.78016 0.0992 0.0
H440 H 0.70411 0.78525 0.08053 0.0
H441 H 0.69466 0.77838 0.09411 0.0
H442 H 0.72511 0.82356 0.10924 0.0
H443 H 0.6833 0.8005 0.12042 0.0
H444 H 0.73191 0.8557 0.11825 0.0
H445 H 0.74011 0.84581 0.11789 0.0
H446 H 0.7355 0.85041 0.13395 0.0
H447 H 0.67309 0.8103 0.13365 0.0
H448 H 0.68106 0.82876 0.13289 0.0
H449 H 0.68444 0.82138 0.14713 0.0
H450 H 0.73545 0.81314 0.22861 0.0
H451 H 0.73919 0.82932 0.21337 0.0
H452 H 0.69646 0.81155 0.21867 0.0
H453 H 0.74371 0.85179 0.1883 0.0
H454 H 0.75267 0.85015 0.20249 0.0
H455 H 0.74655 0.86192 0.20365 0.0
H456 H 0.68479 0.82209 0.21092 0.0
H457 H 0.69132 0.83022 0.19484 0.0
H458 H 0.69493 0.84059 0.21015 0.0
H459 H 0.71478 0.92382 0.20715 0.0
H460 H 0.72617 0.949 0.20528 0.0
H461 H 0.73623 0.94231 0.19844 0.0
H462 H 0.74061 0.95123 0.21486 0.0
H463 H 0.74913 0.91915 0.21238 0.0
H464 H 0.70623 0.90174 0.21448 0.0
H465 H 0.74904 0.89506 0.18989 0.0
H466 H 0.7487 0.88827 0.20627 0.0
H467 H 0.75886 0.90658 0.20392 0.0
H468 H 0.69069 0.8784 0.20883 0.0
H469 H 0.69704 0.86681 0.20779 0.0
H470 H 0.69585 0.87468 0.19268 0.0
H471 H 0.70615 0.85447 0.11971 0.0
H472 H 0.71112 0.82787 0.15401 0.0
H473 H 0.71522 0.83049 0.17817 0.0
H474 H 0.72313 0.86516 0.21246 0.0
H475 H 0.72107 0.89308 0.17756 0.0
H476 H 0.71647 0.89022 0.15351 0.0
H477 H 0.7357 0.79537 0.21274 0.0
H478 H 0.73234 0.80675 0.20352 0.0
H479 H 0.71864 0.78973 0.20712 0.0
C480 C 0.18878 0.91618 0.08617 0.0
C481 C 0.19929 0.91834 0.09709 0.0
C482 C 0.18565 0.89825 0.1113 0.0
C483 C 0.17753 0.9029 0.11721 0.0
C484 C 0.16647 0.89427 0.12534 0.0
C485 C 0.16355 0.88079 0.12775 0.0
C486 C 0.17199 0.87627 0.12226 0.0
C487 C 0.18295 0.88508 0.11411 0.0
C488 C 0.15769 0.89943 0.13112 0.0
C489 C 0.16925 0.86201 0.12476 0.0
C490 C 0.0817 0.83051 0.07092 0.0
C491 C 0.0879 0.82529 0.08114 0.0
C492 C 0.09459 0.83314 0.10467 0.0
C493 C 0.10362 0.82853 0.10655 0.0
C494 C 0.11379 0.83462 0.11667 0.0
C495 C 0.11511 0.84574 0.12484 0.0
C496 C 0.10568 0.85008 0.12325 0.0
C497 C 0.09533 0.84347 0.11336 0.0
C498 C 0.12343 0.82948 0.11826 0.0
C499 C 0.10691 0.8621 0.13154 0.0
C500 C 0.0881 0.8264 0.21264 0.0
C501 C 0.09532 0.82039 0.20759 0.0
C502 C 0.10769 0.82834 0.20091 0.0
C503 C 0.11278 0.84251 0.19909 0.0
C504 C 0.1056 0.8486 0.20443 0.0
C505 C 0.09346 0.84048 0.21133 0.0
C506 C 0.11533 0.82162 0.19581 0.0
C507 C 0.11071 0.86368 0.2028 0.0
C508 C 0.20883 0.92874 0.21293 0.0
C509 C 0.20193 0.92067 0.22573 0.0
C510 C 0.18486 0.89774 0.21638 0.0
C511 C 0.18182 0.88422 0.21421 0.0
C512 C 0.17019 0.87451 0.20684 0.0
C513 C 0.16131 0.87845 0.20162 0.0
C514 C 0.16409 0.89201 0.20408 0.0
C515 C 0.17587 0.90154 0.21135 0.0
C516 C 0.16753 0.86015 0.20434 0.0
C517 C 0.15476 0.89652 0.19877 0.0
C518 C 0.15118 0.87115 0.13526 0.0
C519 C 0.13935 0.86294 0.12761 0.0
C520 C 0.12718 0.85377 0.13387 0.0
C521 C 0.12674 0.8527 0.14824 0.0
C522 C 0.1147 0.84357 0.1549 0.0
C523 C 0.11428 0.84299 0.16909 0.0
C524 C 0.12594 0.85134 0.17715 0.0
C525 C 0.12558 0.85103 0.19161 0.0
C526 C 0.13735 0.85966 0.19927 0.0
C527 C 0.14952 0.86868 0.19292 0.0
C528 C 0.15012 0.86899 0.1785 0.0
C529 C 0.16226 0.87784 0.1718 0.0
C530 C 0.16267 0.87847 0.15764 0.0
C531 C 0.15095 0.8703 0.14963 0.0
C532 C 0.13866 0.86108 0.15615 0.0
C533 C 0.13826 0.86039 0.17061 0.0
C534 C 0.05266 0.8049 0.21424 0.0
C535 C 0.06613 0.80552 0.21608 0.0
O536 O 0.19598 0.90593 0.1027 0.0
O537 O 0.19657 0.90671 0.22319 0.0
O538 O 0.0761 0.81905 0.21908 0.0
O539 O 0.08535 0.82813 0.09429 0.0
H540 H 0.19967 0.92553 0.10529 0.0
H541 H 0.17865 0.91215 0.09073 0.0
H542 H 0.18796 0.90873 0.07807 0.0
H543 H 0.1917 0.9261 0.08143 0.0
H544 H 0.17958 0.91314 0.11538 0.0
H545 H 0.18932 0.88161 0.10964 0.0
H546 H 0.14719 0.89288 0.1271 0.0
H547 H 0.16144 0.91027 0.12854 0.0
H548 H 0.15731 0.89867 0.14241 0.0
H549 H 0.17726 0.86035 0.12053 0.0
H550 H 0.1594 0.85427 0.11996 0.0
H551 H 0.16848 0.8602 0.1359 0.0
H552 H 0.09902 0.8311 0.07929 0.0
H553 H 0.08364 0.82835 0.06029 0.0
H554 H 0.08634 0.8418 0.07241 0.0
H555 H 0.0706 0.82552 0.07236 0.0
H556 H 0.10282 0.82027 0.10003 0.0
H557 H 0.0882 0.84685 0.11186 0.0
H558 H 0.12527 0.82873 0.12924 0.0
H559 H 0.13329 0.83688 0.11369 0.0
H560 H 0.11955 0.81926 0.1131 0.0
H561 H 0.09952 0.86496 0.12816 0.0
H562 H 0.11728 0.87119 0.13073 0.0
H563 H 0.10513 0.85947 0.14246 0.0
H564 H 0.06823 0.80188 0.20621 0.0
H565 H 0.09142 0.80956 0.20902 0.0
H566 H 0.08789 0.84504 0.21547 0.0
H567 H 0.11538 0.82145 0.18448 0.0
H568 H 0.11076 0.8109 0.19926 0.0
H569 H 0.12602 0.82768 0.19943 0.0
H570 H 0.10318 0.86645 0.20612 0.0
H571 H 0.11327 0.86648 0.19197 0.0
H572 H 0.12008 0.86991 0.20903 0.0
H573 H 0.19373 0.92259 0.22874 0.0
H574 H 0.21332 0.93994 0.21506 0.0
H575 H 0.20136 0.92561 0.20443 0.0
H576 H 0.21693 0.92683 0.20956 0.0
H577 H 0.18877 0.88135 0.21813 0.0
H578 H 0.17796 0.91192 0.21288 0.0
H579 H 0.16709 0.85792 0.19318 0.0
H580 H 0.15756 0.85258 0.20858 0.0
H581 H 0.17545 0.85871 0.20905 0.0
H582 H 0.15757 0.90694 0.20275 0.0
H583 H 0.14416 0.88911 0.20165 0.0
H584 H 0.15513 0.89667 0.18745 0.0
H585 H 0.13959 0.86379 0.11659 0.0
H586 H 0.10544 0.83687 0.1492 0.0
H587 H 0.10467 0.83593 0.17365 0.0
H588 H 0.13695 0.85962 0.21034 0.0
H589 H 0.17159 0.88444 0.17744 0.0
H590 H 0.17226 0.88554 0.15304 0.0
H591 H 0.04989 0.80828 0.22382 0.0
H592 H 0.04446 0.79427 0.21137 0.0
H593 H 0.05351 0.81178 0.20596 0.0
C594 C 0.28814 0.10254 0.93851 0.0
C595 C 0.29515 0.09946 0.9268 0.0
C596 C 0.30007 0.11808 0.91116 0.0
C597 C 0.28665 0.11279 0.90662 0.0
C598 C 0.28335 0.1204 0.89809 0.0
C599 C 0.29363 0.13354 0.89397 0.0
C600 C 0.30717 0.13874 0.89823 0.0
C601 C 0.31021 0.1309 0.90673 0.0
C602 C 0.26882 0.11452 0.89364 0.0
C603 C 0.31839 0.1527 0.89402 0.0
C604 C 0.25817 0.18544 0.94489 0.0
C605 C 0.2701 0.19016 0.93522 0.0
C606 C 0.26981 0.1805 0.91271 0.0
C607 C 0.28364 0.18517 0.91157 0.0
C608 C 0.28811 0.1786 0.90249 0.0
C609 C 0.27851 0.16694 0.89464 0.0
C610 C 0.26456 0.16239 0.89561 0.0
C611 C 0.26044 0.16947 0.90442 0.0
C612 C 0.30308 0.18397 0.90153 0.0
C613 C 0.25393 0.14978 0.88772 0.0
C614 C 0.27265 0.18418 0.80634 0.0
C615 C 0.28588 0.18986 0.81148 0.0
C616 C 0.28972 0.18169 0.81839 0.0
C617 C 0.28005 0.16764 0.82035 0.0
C618 C 0.26681 0.16185 0.81483 0.0
C619 C 0.26337 0.17018 0.8077 0.0
C620 C 0.30407 0.18809 0.82364 0.0
C621 C 0.25624 0.1469 0.81662 0.0
C622 C 0.28745 0.0806 0.81025 0.0
C623 C 0.28817 0.08786 0.79704 0.0
C624 C 0.29466 0.11117 0.80544 0.0
C625 C 0.30545 0.12472 0.80705 0.0
C626 C 0.30393 0.13472 0.81423 0.0
C627 C 0.29123 0.13105 0.81981 0.0
C628 C 0.28015 0.11744 0.81794 0.0
C629 C 0.28199 0.10762 0.81087 0.0
C630 C 0.31594 0.14913 0.81606 0.0
C631 C 0.26639 0.11322 0.8236 0.0
C632 C 0.29011 0.14215 0.88587 0.0
C633 C 0.28635 0.15045 0.89303 0.0
C634 C 0.28296 0.15893 0.88621 0.0
C635 C 0.28347 0.15931 0.87179 0.0
C636 C 0.2805 0.168 0.86459 0.0
C637 C 0.28057 0.16794 0.85038 0.0
C638 C 0.28379 0.15932 0.8428 0.0
C639 C 0.28369 0.15902 0.82833 0.0
C640 C 0.28654 0.15 0.82115 0.0
C641 C 0.28955 0.14125 0.82802 0.0
C642 C 0.29009 0.1417 0.84246 0.0
C643 C 0.29346 0.13331 0.84968 0.0
C644 C 0.29361 0.13353 0.86389 0.0
C645 C 0.29029 0.14208 0.87144 0.0
C646 C 0.28698 0.15071 0.86437 0.0
C647 C 0.28704 0.15064 0.84987 0.0
C648 C 0.25875 0.20485 0.80725 0.0
C649 C 0.27181 0.20506 0.80396 0.0
O650 O 0.30368 0.11135 0.9199 0.0
O651 O 0.297 0.10193 0.79872 0.0
O652 O 0.2686 0.1919 0.79989 0.0
O653 O 0.26521 0.18621 0.92194 0.0
H654 H 0.28735 0.09168 0.91959 0.0
H655 H 0.28168 0.10629 0.93451 0.0
H656 H 0.29574 0.11054 0.9457 0.0
H657 H 0.28156 0.09305 0.94421 0.0
H658 H 0.27864 0.10283 0.90977 0.0
H659 H 0.32053 0.13489 0.91019 0.0
H660 H 0.26506 0.1211 0.89785 0.0
H661 H 0.26209 0.10386 0.8971 0.0
H662 H 0.26814 0.1145 0.88233 0.0
H663 H 0.32845 0.15518 0.89796 0.0
H664 H 0.31633 0.16073 0.89788 0.0
H665 H 0.31873 0.15312 0.8827 0.0
H666 H 0.27546 0.1848 0.93832 0.0
H667 H 0.26187 0.18849 0.95562 0.0
H668 H 0.25161 0.17405 0.94417 0.0
H669 H 0.25198 0.18998 0.9422 0.0
H670 H 0.29093 0.19393 0.91779 0.0
H671 H 0.2498 0.16603 0.90534 0.0
H672 H 0.30605 0.18437 0.89068 0.0
H673 H 0.30543 0.17689 0.90675 0.0
H674 H 0.30927 0.19439 0.90639 0.0
H675 H 0.24352 0.14649 0.89112 0.0
H676 H 0.25566 0.1411 0.88888 0.0
H677 H 0.2546 0.152 0.87669 0.0
H678 H 0.27805 0.20845 0.81354 0.0
H679 H 0.29323 0.20062 0.80998 0.0
H680 H 0.25324 0.16588 0.80349 0.0
H681 H 0.30416 0.18866 0.83498 0.0
H682 H 0.31075 0.19863 0.81987 0.0
H683 H 0.30831 0.1816 0.82049 0.0
H684 H 0.24609 0.14432 0.81288 0.0
H685 H 0.25553 0.14433 0.82757 0.0
H686 H 0.25925 0.14034 0.81089 0.0
H687 H 0.2779 0.08573 0.79431 0.0
H688 H 0.28052 0.06931 0.80883 0.0
H689 H 0.28353 0.08423 0.81871 0.0
H690 H 0.29765 0.08272 0.81327 0.0
H691 H 0.31517 0.1274 0.80281 0.0
H692 H 0.27347 0.09722 0.80975 0.0
H693 H 0.31795 0.15192 0.82712 0.0
H694 H 0.31365 0.15651 0.81139 0.0
H695 H 0.32523 0.15028 0.81134 0.0
H696 H 0.25852 0.10263 0.82017 0.0
H697 H 0.26324 0.12047 0.82041 0.0
H698 H 0.26692 0.11365 0.83493 0.0
H699 H 0.28596 0.15023 0.9041 0.0
H700 H 0.27799 0.17488 0.86988 0.0
H701 H 0.27801 0.17471 0.84541 0.0
H702 H 0.28613 0.14957 0.81007 0.0
H703 H 0.29602 0.12645 0.84441 0.0
H704 H 0.29623 0.12682 0.8689 0.0
H705 H 0.26105 0.21526 0.81068 0.0
H706 H 0.2534 0.19764 0.81561 0.0
H707 H 0.25192 0.20141 0.79814 0.0
C708 C 0.81917 0.08282 0.94306 0.0
C709 C 0.81241 0.08811 0.93363 0.0
C710 C 0.82012 0.0943 0.91045 0.0
C711 C 0.8177 0.10507 0.90876 0.0
C712 C 0.82516 0.11535 0.89938 0.0
C713 C 0.83537 0.11493 0.89171 0.0
C714 C 0.83745 0.10375 0.89305 0.0
C715 C 0.82956 0.09341 0.90224 0.0
C716 C 0.8224 0.12689 0.89798 0.0
C717 C 0.84839 0.10302 0.88527 0.0
C718 C 0.92174 0.21253 0.92835 0.0
C719 C 0.91424 0.19897 0.92099 0.0
C720 C 0.89321 0.18491 0.90788 0.0
C721 C 0.89621 0.17488 0.90349 0.0
C722 C 0.88697 0.1635 0.89533 0.0
C723 C 0.87455 0.16219 0.89143 0.0
C724 C 0.87159 0.17234 0.89568 0.0
C725 C 0.88098 0.18358 0.90387 0.0
C726 C 0.8904 0.15283 0.89094 0.0
C727 C 0.85844 0.17125 0.89166 0.0
C728 C 0.89542 0.18154 0.80375 0.0
C729 C 0.89689 0.17062 0.80789 0.0
C730 C 0.88639 0.15944 0.81464 0.0
C731 C 0.8742 0.15918 0.81733 0.0
C732 C 0.87257 0.16997 0.81288 0.0
C733 C 0.8832 0.181 0.80612 0.0
C734 C 0.88841 0.14802 0.81917 0.0
C735 C 0.85969 0.17 0.81556 0.0
C736 C 0.78061 0.05793 0.80927 0.0
C737 C 0.78637 0.07183 0.80256 0.0
C738 C 0.81044 0.08932 0.80537 0.0
C739 C 0.82281 0.09026 0.80789 0.0
C740 C 0.83368 0.10215 0.81402 0.0
C741 C 0.83213 0.11343 0.81754 0.0
C742 C 0.81991 0.11286 0.81427 0.0
C743 C 0.80919 0.10082 0.80814 0.0
C744 C 0.84666 0.10252 0.81715 0.0
C745 C 0.81809 0.12486 0.81757 0.0
C746 C 0.84474 0.1268 0.88336 0.0
C747 C 0.85487 0.13854 0.8903 0.0
C748 C 0.86444 0.14997 0.88326 0.0
C749 C 0.8642 0.14964 0.86883 0.0
C750 C 0.87398 0.16079 0.86142 0.0
C751 C 0.87377 0.16027 0.84721 0.0
C752 C 0.86367 0.14866 0.83986 0.0
C753 C 0.86346 0.14797 0.82541 0.0
C754 C 0.85308 0.13642 0.81841 0.0
C755 C 0.84291 0.12539 0.8255 0.0
C756 C 0.84312 0.12575 0.83996 0.0
C757 C 0.83318 0.11471 0.84741 0.0
C758 C 0.83361 0.11506 0.86162 0.0
C759 C 0.84399 0.12646 0.86893 0.0
C760 C 0.8539 0.13785 0.86164 0.0
C761 C 0.85355 0.13743 0.84714 0.0
C762 C 0.92702 0.20133 0.80858 0.0
C763 C 0.91865 0.19622 0.79527 0.0
O764 O 0.81376 0.08488 0.92019 0.0
O765 O 0.80004 0.07721 0.80024 0.0
O766 O 0.90543 0.19284 0.79761 0.0
O767 O 0.90174 0.19594 0.91599 0.0
H768 H 0.81784 0.09948 0.93542 0.0
H769 H 0.83011 0.08786 0.9407 0.0
H770 H 0.81452 0.07152 0.94164 0.0
H771 H 0.81818 0.08528 0.95391 0.0
H772 H 0.81009 0.1055 0.91491 0.0
H773 H 0.83121 0.08494 0.90356 0.0
H774 H 0.83061 0.13632 0.90323 0.0
H775 H 0.81261 0.1244 0.9026 0.0
H776 H 0.82228 0.12919 0.88706 0.0
H777 H 0.84957 0.0944 0.8885 0.0
H778 H 0.85824 0.1128 0.88675 0.0
H779 H 0.8459 0.1016 0.87418 0.0
H780 H 0.91383 0.19027 0.92644 0.0
H781 H 0.92261 0.20999 0.93918 0.0
H782 H 0.91419 0.21575 0.93077 0.0
H783 H 0.93867 0.22406 0.91613 0.0
H784 H 0.90569 0.17582 0.90645 0.0
H785 H 0.87878 0.19139 0.90726 0.0
H786 H 0.8827 0.14266 0.89484 0.0
H787 H 0.90055 0.1554 0.89471 0.0
H788 H 0.89016 0.15184 0.87962 0.0
H789 H 0.85782 0.18021 0.8955 0.0
H790 H 0.84982 0.16174 0.89577 0.0
H791 H 0.85732 0.17048 0.88035 0.0
H792 H 0.91873 0.18704 0.79109 0.0
H793 H 0.90621 0.17077 0.80605 0.0
H794 H 0.88212 0.18942 0.80283 0.0
H795 H 0.88833 0.14781 0.83049 0.0
H796 H 0.89811 0.14927 0.81554 0.0
H797 H 0.87994 0.13794 0.81528 0.0
H798 H 0.85995 0.1791 0.81133 0.0
H799 H 0.85802 0.16992 0.82673 0.0
H800 H 0.85094 0.16054 0.81095 0.0
H801 H 0.78472 0.07848 0.80989 0.0
H802 H 0.76963 0.05336 0.81122 0.0
H803 H 0.78587 0.05933 0.8192 0.0
H804 H 0.78205 0.05068 0.80266 0.0
H805 H 0.82376 0.08143 0.80543 0.0
H806 H 0.79989 0.10045 0.80555 0.0
H807 H 0.84839 0.10341 0.82837 0.0
H808 H 0.85534 0.11171 0.81262 0.0
H809 H 0.84649 0.09317 0.81316 0.0
H810 H 0.80825 0.1231 0.81373 0.0
H811 H 0.82641 0.13432 0.81303 0.0
H812 H 0.81865 0.12671 0.82881 0.0
H813 H 0.85533 0.1388 0.90139 0.0
H814 H 0.88198 0.16999 0.86653 0.0
H815 H 0.88163 0.16912 0.84206 0.0
H816 H 0.85295 0.13599 0.80733 0.0
H817 H 0.82498 0.10563 0.84234 0.0
H818 H 0.82573 0.10627 0.86682 0.0
H819 H 0.93766 0.20429 0.80662 0.0
H820 H 0.92286 0.19314 0.81621 0.0
H821 H 0.9269 0.21038 0.81303 0.0
C822 C 0.80991 0.69858 0.93875 0.0
C823 C 0.80251 0.70398 0.93032 0.0
C824 C 0.81249 0.70387 0.90828 0.0
C825 C 0.82386 0.71725 0.90887 0.0
C826 C 0.83506 0.72082 0.90056 0.0
C827 C 0.83499 0.71073 0.89166 0.0
C828 C 0.8234 0.69733 0.89081 0.0
C829 C 0.81218 0.69417 0.89896 0.0
C830 C 0.84711 0.7353 0.90151 0.0
C831 C 0.82302 0.68623 0.88163 0.0
C832 C 0.92978 0.73242 0.91942 0.0
C833 C 0.91732 0.72029 0.92582 0.0
C834 C 0.89919 0.7133 0.90857 0.0
C835 C 0.89064 0.70284 0.89926 0.0
C836 C 0.88098 0.7038 0.8915 0.0
C837 C 0.88003 0.71572 0.89291 0.0
C838 C 0.88869 0.72641 0.90226 0.0
C839 C 0.89809 0.72505 0.9101 0.0
C840 C 0.87173 0.69205 0.88184 0.0
C841 C 0.888 0.73928 0.904 0.0
C842 C 0.91408 0.73858 0.81053 0.0
C843 C 0.90356 0.7249 0.81194 0.0
C844 C 0.89106 0.7219 0.81731 0.0
C845 C 0.88912 0.7328 0.82145 0.0
C846 C 0.89947 0.74657 0.81935 0.0
C847 C 0.91179 0.74926 0.81376 0.0
C848 C 0.88006 0.70708 0.81891 0.0
C849 C 0.89768 0.75843 0.82348 0.0
C850 C 0.79482 0.72091 0.81243 0.0
C851 C 0.80167 0.72492 0.79845 0.0
C852 C 0.82055 0.72138 0.80357 0.0
C853 C 0.82372 0.71106 0.80345 0.0
C854 C 0.83457 0.71247 0.81124 0.0
C855 C 0.84271 0.72474 0.81907 0.0
C856 C 0.83995 0.73552 0.81876 0.0
C857 C 0.8288 0.73368 0.81112 0.0
C858 C 0.8372 0.70075 0.81126 0.0
C859 C 0.8487 0.74891 0.8266 0.0
C860 C 0.84738 0.71398 0.88401 0.0
C861 C 0.8577 0.71367 0.89113 0.0
C862 C 0.86979 0.71684 0.8848 0.0
C863 C 0.87178 0.72058 0.87096 0.0
C864 C 0.884 0.7243 0.8644 0.0
C865 C 0.8857 0.72755 0.85067 0.0
C866 C 0.87521 0.7271 0.84293 0.0
C867 C 0.87667 0.72983 0.82882 0.0
C868 C 0.86606 0.72933 0.82144 0.0
C869 C 0.85391 0.72609 0.82775 0.0
C870 C 0.85229 0.72337 0.84187 0.0
C871 C 0.84024 0.72012 0.84859 0.0
C872 C 0.83871 0.71734 0.86245 0.0
C873 C 0.849 0.71728 0.87005 0.0
C874 C 0.86125 0.72058 0.8635 0.0
C875 C 0.86295 0.72376 0.84944 0.0
C876 C 0.94714 0.74462 0.81462 0.0
C877 C 0.93292 0.73459 0.80896 0.0
O878 O 0.80179 0.69987 0.9167 0.0
O879 O 0.80946 0.71896 0.79633 0.0
O880 O 0.92656 0.74183 0.80622 0.0
O881 O 0.90831 0.71161 0.91573 0.0
H882 H 0.80807 0.71538 0.93129 0.0
H883 H 0.82039 0.70281 0.93504 0.0
H884 H 0.8045 0.68717 0.93791 0.0
H885 H 0.8106 0.7018 0.94968 0.0
H886 H 0.82406 0.72496 0.91576 0.0
H887 H 0.80331 0.6839 0.89851 0.0
H888 H 0.85559 0.73527 0.90679 0.0
H889 H 0.84481 0.74241 0.90728 0.0
H890 H 0.85055 0.7393 0.89114 0.0
H891 H 0.81367 0.67607 0.88295 0.0
H892 H 0.83193 0.68525 0.88377 0.0
H893 H 0.82354 0.68906 0.8708 0.0
H894 H 0.91227 0.72432 0.93257 0.0
H895 H 0.93709 0.7392 0.92754 0.0
H896 H 0.92686 0.73869 0.91348 0.0
H897 H 0.93487 0.7287 0.9124 0.0
H898 H 0.89152 0.6938 0.89816 0.0
H899 H 0.90453 0.73325 0.9173 0.0
H900 H 0.87405 0.69545 0.87115 0.0
H901 H 0.86102 0.68889 0.88369 0.0
H902 H 0.87285 0.68297 0.88293 0.0
H903 H 0.89648 0.74733 0.91041 0.0
H904 H 0.87832 0.73669 0.90893 0.0
H905 H 0.88818 0.74354 0.89388 0.0
H906 H 0.9275 0.72706 0.81711 0.0
H907 H 0.90513 0.71658 0.80893 0.0
H908 H 0.91991 0.75978 0.81238 0.0
H909 H 0.87875 0.7047 0.82993 0.0
H910 H 0.88246 0.69985 0.81355 0.0
H911 H 0.87028 0.7053 0.81489 0.0
H912 H 0.90675 0.76855 0.82128 0.0
H913 H 0.89559 0.75812 0.83458 0.0
H914 H 0.88883 0.75747 0.81795 0.0
H915 H 0.80818 0.7363 0.79807 0.0
H916 H 0.78861 0.72567 0.81436 0.0
H917 H 0.80251 0.72456 0.82077 0.0
H918 H 0.78822 0.70955 0.8129 0.0
H919 H 0.81737 0.70167 0.79749 0.0
H920 H 0.82663 0.74187 0.81107 0.0
H921 H 0.83771 0.69794 0.82191 0.0
H922 H 0.84712 0.70405 0.8065 0.0
H923 H 0.82926 0.69148 0.80555 0.0
H924 H 0.8462 0.75683 0.82406 0.0
H925 H 0.85955 0.75295 0.82441 0.0
H926 H 0.8473 0.74713 0.83772 0.0
H927 H 0.85627 0.71087 0.90177 0.0
H928 H 0.89238 0.72471 0.86979 0.0
H929 H 0.89533 0.73029 0.84618 0.0
H930 H 0.86719 0.73125 0.81059 0.0
H931 H 0.83185 0.71973 0.84323 0.0
H932 H 0.82926 0.71501 0.8671 0.0
H933 H 0.95246 0.73905 0.81693 0.0
H934 H 0.94648 0.74968 0.82422 0.0
H935 H 0.95318 0.75272 0.80718 0.0
C936 C 0.87254 0.6124 0.43203 0.0
C937 C 0.87386 0.62512 0.42539 0.0
C938 C 0.86196 0.63272 0.44098 0.0
C939 C 0.86376 0.64338 0.44988 0.0
C940 C 0.85275 0.64299 0.45644 0.0
C941 C 0.83958 0.6314 0.45431 0.0
C942 C 0.83763 0.62059 0.44524 0.0
C943 C 0.84881 0.62142 0.43853 0.0
C944 C 0.85523 0.65496 0.46569 0.0
C945 C 0.82375 0.60807 0.44273 0.0
C946 C 0.75662 0.64358 0.41626 0.0
C947 C 0.76355 0.637 0.4225 0.0
C948 C 0.78312 0.64287 0.43708 0.0
C949 C 0.77961 0.62918 0.43895 0.0
C950 C 0.7879 0.62619 0.44677 0.0
C951 C 0.79989 0.63707 0.45292 0.0
C952 C 0.80342 0.65084 0.45112 0.0
C953 C 0.79496 0.65355 0.44321 0.0
C954 C 0.78387 0.61139 0.44849 0.0
C955 C 0.8161 0.66268 0.45757 0.0
C956 C 0.77104 0.62843 0.53955 0.0
C957 C 0.76789 0.6157 0.53352 0.0
C958 C 0.7778 0.61423 0.52667 0.0
C959 C 0.79109 0.6257 0.52575 0.0
C960 C 0.79434 0.63845 0.53197 0.0
C961 C 0.78426 0.63962 0.53882 0.0
C962 C 0.77405 0.60046 0.52022 0.0
C963 C 0.80842 0.65089 0.5312 0.0
C964 C 0.86864 0.59894 0.5356 0.0
C965 C 0.86751 0.61085 0.54171 0.0
C966 C 0.84594 0.60972 0.53963 0.0
C967 C 0.8326 0.59956 0.53638 0.0
C968 C 0.82394 0.60277 0.52957 0.0
C969 C 0.82868 0.61659 0.52632 0.0
C970 C 0.84193 0.62705 0.53037 0.0
C971 C 0.85046 0.62349 0.5369 0.0
C972 C 0.80985 0.59137 0.52556 0.0
C973 C 0.84715 0.64196 0.5276 0.0
C974 C 0.82793 0.63061 0.4617 0.0
C975 C 0.81939 0.63373 0.45462 0.0
C976 C 0.80876 0.63403 0.46119 0.0
C977 C 0.80675 0.63149 0.47531 0.0
C978 C 0.79652 0.63227 0.48236 0.0
C979 C 0.79477 0.62999 0.49631 0.0
C980 C 0.8031 0.6267 0.50372 0.0
C981 C 0.80149 0.62448 0.51792 0.0
C982 C 0.80994 0.62122 0.52497 0.0
C983 C 0.82 0.62002 0.51821 0.0
C984 C 0.82174 0.62218 0.50399 0.0
C985 C 0.83167 0.62094 0.49682 0.0
C986 C 0.83364 0.62358 0.48296 0.0
C987 C 0.82568 0.62743 0.47568 0.0
C988 C 0.81523 0.62815 0.48257 0.0
C989 C 0.81334 0.62565 0.49677 0.0
C990 C 0.74056 0.62006 0.53382 0.0
C991 C 0.74797 0.62121 0.54722 0.0
O992 O 0.8732 0.6338 0.43518 0.0
O993 O 0.85419 0.60597 0.54537 0.0
O994 O 0.76173 0.63048 0.54604 0.0
O995 O 0.77542 0.6462 0.4295 0.0
H996 H 0.86552 0.62173 0.41775 0.0
H997 H 0.86254 0.60629 0.4369 0.0
H998 H 0.88049 0.61545 0.44001 0.0
H999 H 0.87347 0.60569 0.42418 0.0
H1000 H 0.8739 0.65209 0.45165 0.0
H1001 H 0.84716 0.61312 0.43157 0.0
H1002 H 0.84777 0.65808 0.46346 0.0
H1003 H 0.86559 0.664 0.46458 0.0
H1004 H 0.85394 0.65183 0.47648 0.0
H1005 H 0.82408 0.59996 0.43644 0.0
H1006 H 0.81726 0.61111 0.43738 0.0
H1007 H 0.8189 0.60369 0.45261 0.0
H1008 H 0.76467 0.62969 0.41557 0.0
H1009 H 0.75698 0.64184 0.40494 0.0
H1010 H 0.76424 0.65495 0.41613 0.0
H1011 H 0.73841 0.63536 0.4269 0.0
H1012 H 0.77044 0.62077 0.43434 0.0
H1013 H 0.79758 0.66406 0.44176 0.0
H1014 H 0.79209 0.60978 0.44483 0.0
H1015 H 0.77438 0.60409 0.44282 0.0
H1016 H 0.78241 0.60896 0.45949 0.0
H1017 H 0.81728 0.6728 0.45544 0.0
H1018 H 0.82509 0.66256 0.45366 0.0
H1019 H 0.81592 0.66152 0.4688 0.0
H1020 H 0.74623 0.61093 0.54969 0.0
H1021 H 0.75775 0.60687 0.53398 0.0
H1022 H 0.78663 0.64939 0.54352 0.0
H1023 H 0.77533 0.60139 0.50899 0.0
H1024 H 0.76344 0.59236 0.52234 0.0
H1025 H 0.78094 0.59715 0.52409 0.0
H1026 H 0.80934 0.66007 0.53661 0.0
H1027 H 0.81117 0.65335 0.52034 0.0
H1028 H 0.81582 0.6486 0.53575 0.0
H1029 H 0.87065 0.61853 0.53356 0.0
H1030 H 0.87925 0.6026 0.53262 0.0
H1031 H 0.86208 0.59462 0.52631 0.0
H1032 H 0.86535 0.59061 0.54302 0.0
H1033 H 0.82916 0.58899 0.53875 0.0
H1034 H 0.86064 0.63143 0.53991 0.0
H1035 H 0.8082 0.59148 0.5144 0.0
H1036 H 0.8023 0.59306 0.5309 0.0
H1037 H 0.80798 0.58107 0.52813 0.0
H1038 H 0.85684 0.64897 0.5331 0.0
H1039 H 0.83957 0.64475 0.53067 0.0
H1040 H 0.84884 0.64363 0.51648 0.0
H1041 H 0.82109 0.63605 0.44387 0.0
H1042 H 0.78982 0.63479 0.47721 0.0
H1043 H 0.78681 0.63085 0.5012 0.0
H1044 H 0.80869 0.61961 0.53588 0.0
H1045 H 0.83812 0.61804 0.50186 0.0
H1046 H 0.8415 0.62257 0.47801 0.0
H1047 H 0.7295 0.61279 0.53486 0.0
H1048 H 0.74419 0.61612 0.52537 0.0
H1049 H 0.74231 0.63026 0.53103 0.0
C1050 C 0.3884 0.26397 0.4386 0.0
C1051 C 0.37683 0.25211 0.4302 0.0
C1052 C 0.36983 0.23197 0.44443 0.0
C1053 C 0.35934 0.2222 0.45231 0.0
C1054 C 0.36051 0.21205 0.45891 0.0
C1055 C 0.3727 0.21194 0.45793 0.0
C1056 C 0.38332 0.22167 0.4498 0.0
C1057 C 0.38171 0.23147 0.44297 0.0
C1058 C 0.34872 0.20153 0.46703 0.0
C1059 C 0.39643 0.22183 0.44843 0.0
C1060 C 0.37119 0.11795 0.42202 0.0
C1061 C 0.3761 0.13229 0.42696 0.0
C1062 C 0.36882 0.14488 0.44188 0.0
C1063 C 0.38153 0.15711 0.4427 0.0
C1064 C 0.38323 0.16867 0.45014 0.0
C1065 C 0.37201 0.16801 0.45676 0.0
C1066 C 0.35917 0.15578 0.45577 0.0
C1067 C 0.35779 0.14434 0.44842 0.0
C1068 C 0.39706 0.18155 0.45105 0.0
C1069 C 0.34695 0.15477 0.46257 0.0
C1070 C 0.37528 0.1493 0.54525 0.0
C1071 C 0.38824 0.16062 0.54277 0.0
C1072 C 0.3898 0.1718 0.53543 0.0
C1073 C 0.37821 0.17167 0.53055 0.0
C1074 C 0.36516 0.16031 0.53311 0.0
C1075 C 0.3639 0.14924 0.54034 0.0
C1076 C 0.40384 0.18372 0.53279 0.0
C1077 C 0.35255 0.15987 0.5282 0.0
C1078 C 0.38555 0.26933 0.53762 0.0
C1079 C 0.37739 0.25768 0.54744 0.0
C1080 C 0.38361 0.24018 0.54478 0.0
C1081 C 0.39538 0.23994 0.54207 0.0
C1082 C 0.39478 0.22858 0.53528 0.0
C1083 C 0.38205 0.21712 0.53136 0.0
C1084 C 0.37006 0.217 0.53477 0.0
C1085 C 0.37096 0.22853 0.54148 0.0
C1086 C 0.40774 0.22895 0.53197 0.0
C1087 C 0.3563 0.20476 0.5311 0.0
C1088 C 0.37438 0.20177 0.46556 0.0
C1089 C 0.37296 0.19027 0.45835 0.0
C1090 C 0.37376 0.17999 0.46503 0.0
C1091 C 0.3758 0.18101 0.47935 0.0
C1092 C 0.37637 0.17071 0.48643 0.0
C1093 C 0.37777 0.1715 0.50059 0.0
C1094 C 0.3788 0.1827 0.5082 0.0
C1095 C 0.37963 0.18331 0.52264 0.0
C1096 C 0.38092 0.19474 0.52988 0.0
C1097 C 0.38126 0.20557 0.52308 0.0
C1098 C 0.38021 0.20502 0.50866 0.0
C1099 C 0.38037 0.21567 0.50151 0.0
C1100 C 0.3787 0.21475 0.48738 0.0
C1101 C 0.37679 0.20314 0.47985 0.0
C1102 C 0.37722 0.19258 0.48678 0.0
C1103 C 0.37885 0.19348 0.50122 0.0
C1104 C 0.37711 0.12566 0.56914 0.0
C1105 C 0.38301 0.13714 0.55943 0.0
O1106 O 0.36804 0.24169 0.43862 0.0
O1107 O 0.38482 0.25168 0.55083 0.0
O1108 O 0.37327 0.1383 0.55234 0.0
O1109 O 0.36677 0.13338 0.43501 0.0
H1110 H 0.3812 0.24801 0.42263 0.0
H1111 H 0.39467 0.26054 0.44371 0.0
H1112 H 0.38437 0.26797 0.44662 0.0
H1113 H 0.39511 0.27249 0.43183 0.0
H1114 H 0.35016 0.22255 0.45328 0.0
H1115 H 0.38986 0.23874 0.4367 0.0
H1116 H 0.34691 0.19106 0.46482 0.0
H1117 H 0.33927 0.2015 0.46479 0.0
H1118 H 0.35107 0.20388 0.4781 0.0
H1119 H 0.40424 0.23096 0.443 0.0
H1120 H 0.39454 0.21243 0.44267 0.0
H1121 H 0.40048 0.22174 0.45868 0.0
H1122 H 0.38054 0.14021 0.41898 0.0
H1123 H 0.38447 0.11316 0.43136 0.0
H1124 H 0.37026 0.11814 0.4106 0.0
H1125 H 0.35994 0.11195 0.42372 0.0
H1126 H 0.39016 0.15768 0.43769 0.0
H1127 H 0.34804 0.13486 0.44771 0.0
H1128 H 0.39666 0.19018 0.44649 0.0
H1129 H 0.40487 0.18029 0.4457 0.0
H1130 H 0.40017 0.18445 0.46194 0.0
H1131 H 0.33749 0.14494 0.4599 0.0
H1132 H 0.34576 0.16345 0.45956 0.0
H1133 H 0.34841 0.15556 0.47383 0.0
H1134 H 0.39109 0.13769 0.55273 0.0
H1135 H 0.39714 0.16077 0.54647 0.0
H1136 H 0.35396 0.14047 0.54232 0.0
H1137 H 0.40523 0.18542 0.52165 0.0
H1138 H 0.41186 0.18202 0.53675 0.0
H1139 H 0.4051 0.19324 0.53774 0.0
H1140 H 0.34317 0.15083 0.53198 0.0
H1141 H 0.35218 0.15941 0.51686 0.0
H1142 H 0.35276 0.16938 0.53163 0.0
H1143 H 0.36779 0.25016 0.54206 0.0
H1144 H 0.37981 0.27435 0.53488 0.0
H1145 H 0.3875 0.26511 0.5281 0.0
H1146 H 0.39543 0.27717 0.54231 0.0
H1147 H 0.40508 0.24887 0.54494 0.0
H1148 H 0.36178 0.22835 0.54423 0.0
H1149 H 0.40855 0.22808 0.52073 0.0
H1150 H 0.4076 0.22002 0.53648 0.0
H1151 H 0.41684 0.23855 0.53587 0.0
H1152 H 0.34794 0.20585 0.53532 0.0
H1153 H 0.35541 0.19524 0.53499 0.0
H1154 H 0.35509 0.2035 0.51982 0.0
H1155 H 0.37105 0.18924 0.44741 0.0
H1156 H 0.37555 0.16181 0.48113 0.0
H1157 H 0.37796 0.16318 0.5055 0.0
H1158 H 0.3814 0.19508 0.54096 0.0
H1159 H 0.38165 0.2248 0.50676 0.0
H1160 H 0.37881 0.22322 0.48245 0.0
H1161 H 0.38024 0.11832 0.56516 0.0
H1162 H 0.36613 0.11872 0.56612 0.0
H1163 H 0.38328 0.13567 0.58837 0.0
C1164 C 0.86068 0.24834 0.40711 0.0
C1165 C 0.86978 0.25053 0.41948 0.0
C1166 C 0.8557 0.22941 0.43225 0.0
C1167 C 0.84623 0.23282 0.43695 0.0
C1168 C 0.83503 0.22355 0.44459 0.0
C1169 C 0.83327 0.21062 0.44762 0.0
C1170 C 0.84279 0.20718 0.44298 0.0
C1171 C 0.85391 0.21665 0.43538 0.0
C1172 C 0.82506 0.22755 0.44942 0.0
C1173 C 0.84121 0.19349 0.44606 0.0
C1174 C 0.74858 0.15027 0.3972 0.0
C1175 C 0.75333 0.14445 0.40831 0.0
C1176 C 0.763 0.15698 0.42985 0.0
C1177 C 0.77259 0.15316 0.43217 0.0
C1178 C 0.78376 0.16115 0.44091 0.0
C1179 C 0.78537 0.17324 0.44735 0.0
C1180 C 0.77547 0.17687 0.44532 0.0
C1181 C 0.76427 0.16852 0.43676 0.0
C1182 C 0.79395 0.15681 0.44309 0.0
C1183 C 0.77692 0.18976 0.45189 0.0
C1184 C 0.76263 0.15881 0.53646 0.0
C1185 C 0.76957 0.15268 0.53094 0.0
C1186 C 0.78162 0.1605 0.52372 0.0
C1187 C 0.78659 0.17462 0.52172 0.0
C1188 C 0.77968 0.18083 0.52751 0.0
C1189 C 0.76792 0.17286 0.53504 0.0
C1190 C 0.78903 0.15367 0.51825 0.0
C1191 C 0.78464 0.19586 0.52573 0.0
C1192 C 0.88176 0.26274 0.5309 0.0
C1193 C 0.87585 0.25451 0.54385 0.0
C1194 C 0.85899 0.2313 0.53497 0.0
C1195 C 0.85632 0.21792 0.53269 0.0
C1196 C 0.84441 0.20784 0.52597 0.0
C1197 C 0.83489 0.21124 0.52151 0.0
C1198 C 0.83733 0.22466 0.52405 0.0
C1199 C 0.84937 0.23458 0.53069 0.0
C1200 C 0.84213 0.19363 0.52336 0.0
C1201 C 0.82735 0.22863 0.51948 0.0
C1202 C 0.82145 0.20075 0.45569 0.0
C1203 C 0.80943 0.19163 0.44865 0.0
C1204 C 0.79775 0.18244 0.45562 0.0
C1205 C 0.79798 0.18231 0.47006 0.0
C1206 C 0.78637 0.17338 0.47742 0.0
C1207 C 0.78662 0.17363 0.49165 0.0
C1208 C 0.79858 0.18257 0.49906 0.0
C1209 C 0.79893 0.18297 0.51354 0.0
C1210 C 0.811 0.19211 0.52053 0.0
C1211 C 0.82273 0.20105 0.51349 0.0
C1212 C 0.82257 0.20078 0.49905 0.0
C1213 C 0.83421 0.20966 0.49167 0.0
C1214 C 0.83388 0.20964 0.47748 0.0
C1215 C 0.82193 0.20067 0.4701 0.0
C1216 C 0.81013 0.19146 0.47731 0.0
C1217 C 0.81045 0.19153 0.49182 0.0
C1218 C 0.72747 0.13903 0.53866 0.0
C1219 C 0.74039 0.13847 0.53989 0.0
O1220 O 0.86661 0.23796 0.42463 0.0
O1221 O 0.87096 0.24066 0.54114 0.0
O1222 O 0.75099 0.15155 0.54347 0.0
O1223 O 0.7525 0.14982 0.42092 0.0
H1224 H 0.86838 0.25678 0.42754 0.0
H1225 H 0.84989 0.24301 0.41007 0.0
H1226 H 0.86184 0.242 0.39899 0.0
H1227 H 0.86334 0.2584 0.40288 0.0
H1228 H 0.84742 0.24265 0.43472 0.0
H1229 H 0.86125 0.21408 0.43175 0.0
H1230 H 0.81484 0.22008 0.44519 0.0
H1231 H 0.8279 0.23803 0.44632 0.0
H1232 H 0.82441 0.22718 0.46073 0.0
H1233 H 0.84944 0.1923 0.44162 0.0
H1234 H 0.83134 0.18503 0.44195 0.0
H1235 H 0.8412 0.19238 0.45729 0.0
H1236 H 0.76405 0.14781 0.40596 0.0
H1237 H 0.74916 0.14611 0.38697 0.0
H1238 H 0.7552 0.16165 0.39725 0.0
H1239 H 0.738 0.14764 0.39897 0.0
H1240 H 0.77136 0.14395 0.42715 0.0
H1241 H 0.7567 0.17126 0.43499 0.0
H1242 H 0.79591 0.15681 0.45418 0.0
H1243 H 0.80367 0.16431 0.43835 0.0
H1244 H 0.79051 0.14642 0.43855 0.0
H1245 H 0.76879 0.19158 0.44858 0.0
H1246 H 0.78687 0.19881 0.44932 0.0
H1247 H 0.77659 0.18895 0.46317 0.0
H1248 H 0.74214 0.13507 0.5297 0.0
H1249 H 0.76567 0.14186 0.53245 0.0
H1250 H 0.76257 0.1775 0.53955 0.0
H1251 H 0.78806 0.15271 0.50695 0.0
H1252 H 0.78496 0.14324 0.52232 0.0
H1253 H 0.79997 0.16005 0.52088 0.0
H1254 H 0.77711 0.19859 0.52915 0.0
H1255 H 0.78703 0.19857 0.51486 0.0
H1256 H 0.79408 0.20219 0.53183 0.0
H1257 H 0.86751 0.25593 0.54754 0.0
H1258 H 0.88593 0.27387 0.53318 0.0
H1259 H 0.87379 0.25933 0.52289 0.0
H1260 H 0.88994 0.2613 0.52678 0.0
H1261 H 0.86376 0.21546 0.53602 0.0
H1262 H 0.85116 0.24484 0.53231 0.0
H1263 H 0.84127 0.19131 0.51219 0.0
H1264 H 0.83245 0.18587 0.52798 0.0
H1265 H 0.85045 0.19256 0.5276 0.0
H1266 H 0.83021 0.23915 0.52314 0.0
H1267 H 0.81711 0.22121 0.52327 0.0
H1268 H 0.82674 0.22819 0.50814 0.0
H1269 H 0.80914 0.19179 0.43759 0.0
H1270 H 0.77691 0.16619 0.47227 0.0
H1271 H 0.7773 0.16668 0.49675 0.0
H1272 H 0.81117 0.19253 0.53162 0.0
H1273 H 0.8437 0.21681 0.49678 0.0
H1274 H 0.84312 0.21678 0.47237 0.0
H1275 H 0.72505 0.14215 0.54862 0.0
H1276 H 0.71879 0.12884 0.53528 0.0
H1277 H 0.72887 0.14664 0.53096 0.0
C1278 C 0.99008 0.4524 0.27 0.0
C1279 C 0.99459 0.44682 0.25797 0.0
C1280 C 0.00311 0.46597 0.2422 0.0
C1281 C 0.99033 0.46314 0.23762 0.0
C1282 C 0.98913 0.4721 0.22898 0.0
C1283 C 0.00088 0.4843 0.22498 0.0
C1284 C 0.01375 0.48718 0.22947 0.0
C1285 C 0.01469 0.47789 0.23792 0.0
C1286 C 0.97523 0.46855 0.22418 0.0
C1287 C 0.02648 0.50008 0.22538 0.0
C1288 C 0.96941 0.55853 0.22195 0.0
C1289 C 0.98188 0.56055 0.2296 0.0
C1290 C 0.98283 0.5398 0.23211 0.0
C1291 C 0.99627 0.54463 0.22839 0.0
C1292 C 1.00018 0.53548 0.22345 0.0
C1293 C 0.9904 0.52127 0.22214 0.0
C1294 C 0.97704 0.51632 0.22666 0.0
C1295 C 0.97348 0.52569 0.23178 0.0
C1296 C 0.01463 0.54105 0.21921 0.0
C1297 C 0.96641 0.50122 0.22572 0.0
C1298 C 0.98116 0.53059 0.13313 0.0
C1299 C 0.99428 0.53705 0.13861 0.0
C1300 C 0.99862 0.52959 0.14603 0.0
C1301 C 0.98946 0.51545 0.14827 0.0
C1302 C 0.97623 0.5089 0.14252 0.0
C1303 C 0.97232 0.51655 0.13482 0.0
C1304 C 0.01293 0.53684 0.1516 0.0
C1305 C 0.96617 0.49387 0.14462 0.0
C1306 C 0.01559 0.43799 0.15142 0.0
C1307 C 0.00613 0.43813 0.14058 0.0
C1308 C 0.00839 0.46072 0.14036 0.0
C1309 C 0.01878 0.47441 0.14222 0.0
C1310 C 0.01615 0.48436 0.14765 0.0
C1311 C 0.00274 0.48047 0.15109 0.0
C1312 C 0.99206 0.4668 0.14844 0.0
C1313 C 0.99499 0.45706 0.14301 0.0
C1314 C 0.02772 0.49891 0.15016 0.0
C1315 C 0.9776 0.4624 0.15166 0.0
C1316 C 0.99953 0.49402 0.21621 0.0
C1317 C 0.9967 0.50343 0.22256 0.0
C1318 C 0.9938 0.5118 0.21487 0.0
C1319 C 0.99368 0.5108 0.20043 0.0
C1320 C 0.99014 0.51858 0.19239 0.0
C1321 C 0.98999 0.51749 0.17821 0.0
C1322 C 0.99351 0.5087 0.17147 0.0
C1323 C 0.99348 0.50761 0.15703 0.0
C1324 C 0.9968 0.49855 0.15068 0.0
C1325 C 0.99999 0.4904 0.15838 0.0
C1326 C 1.0001 0.49138 0.17282 0.0
C1327 C 0.00312 0.4832 0.18087 0.0
C1328 C 0.00294 0.48404 0.19506 0.0
C1329 C 0.99991 0.49321 0.20178 0.0
C1330 C 0.99694 0.50162 0.19388 0.0
C1331 C 0.99693 0.50063 0.17938 0.0
C1332 C 0.95838 0.53845 0.13574 0.0
C1333 C 0.97339 0.54659 0.13205 0.0
O1334 O 0.0047 0.45761 0.25077 0.0
O1335 O 0.01162 0.45135 0.13588 0.0
O1336 O 0.977 0.5378 0.12596 0.0
O1337 O 0.97857 0.54849 0.23601 0.0
H1338 H 0.98577 0.44033 0.25109 0.0
H1339 H 0.98583 0.45855 0.26627 0.0
H1340 H 0.9988 0.45908 0.27694 0.0
H1341 H 0.98211 0.44378 0.27587 0.0
H1342 H 0.98119 0.45401 0.24069 0.0
H1343 H 0.02451 0.48002 0.24143 0.0
H1344 H 0.97289 0.47618 0.22859 0.0
H1345 H 0.96719 0.45814 0.22723 0.0
H1346 H 0.97497 0.46904 0.21289 0.0
H1347 H 0.03571 0.50106 0.23007 0.0
H1348 H 0.02589 0.50924 0.22847 0.0
H1349 H 0.02744 0.50007 0.2141 0.0
H1350 H 0.98981 0.56312 0.2218 0.0
H1351 H 0.97181 0.56813 0.21683 0.0
H1352 H 0.96088 0.55564 0.22905 0.0
H1353 H 0.96615 0.5502 0.21401 0.0
H1354 H 0.00368 0.55553 0.22927 0.0
H1355 H 0.96321 0.52208 0.235 0.0
H1356 H 0.01506 0.54051 0.2079 0.0
H1357 H 0.01851 0.5347 0.22335 0.0
H1358 H 0.0214 0.55191 0.22274 0.0
H1359 H 0.95623 0.49918 0.22862 0.0
H1360 H 0.96929 0.49556 0.23265 0.0
H1361 H 0.96582 0.49707 0.21517 0.0
H1362 H 0.97946 0.55133 0.14161 0.0
H1363 H 0.00109 0.54792 0.13701 0.0
H1364 H 0.96224 0.51167 0.13035 0.0
H1365 H 0.01282 0.53827 0.16284 0.0
H1366 H 0.01935 0.54711 0.14714 0.0
H1367 H 0.0176 0.53054 0.1495 0.0
H1368 H 0.95587 0.49075 0.14084 0.0
H1369 H 0.9656 0.49155 0.15563 0.0
H1370 H 0.96957 0.48755 0.13907 0.0
H1371 H 0.99629 0.4346 0.14566 0.0
H1372 H 0.01152 0.42739 0.15503 0.0
H1373 H 0.01643 0.4447 0.16032 0.0
H1374 H 0.02589 0.44188 0.1473 0.0
H1375 H 0.02905 0.47719 0.13985 0.0
H1376 H 0.98678 0.44665 0.14084 0.0
H1377 H 0.02885 0.50145 0.16129 0.0
H1378 H 0.02551 0.5062 0.14515 0.0
H1379 H 0.03746 0.50047 0.14627 0.0
H1380 H 0.97038 0.45154 0.14843 0.0
H1381 H 0.97475 0.46913 0.14649 0.0
H1382 H 0.97663 0.46358 0.16283 0.0
H1383 H 0.99641 0.504 0.23363 0.0
H1384 H 0.98735 0.52555 0.19695 0.0
H1385 H 0.98707 0.52366 0.17261 0.0
H1386 H 0.99666 0.49766 0.13961 0.0
H1387 H 0.00559 0.47599 0.17629 0.0
H1388 H 0.00526 0.47743 0.2007 0.0
H1389 H 0.95201 0.53345 0.12645 0.0
H1390 H 0.95531 0.54533 0.14069 0.0
H1391 H 0.95653 0.53036 0.14304 0.0
C1392 C 0.4774 0.42171 0.27544 0.0
C1393 C 0.46898 0.42456 0.2655 0.0
C1394 C 0.47851 0.43023 0.24291 0.0
C1395 C 0.47674 0.44115 0.23972 0.0
C1396 C 0.48539 0.45112 0.23055 0.0
C1397 C 0.49609 0.45017 0.2246 0.0
C1398 C 0.49763 0.4389 0.22754 0.0
C1399 C 0.48863 0.42892 0.2365 0.0
C1400 C 0.48326 0.46281 0.22745 0.0
C1401 C 0.50902 0.43763 0.22154 0.0
C1402 C 0.57539 0.52107 0.26468 0.0
C1403 C 0.57851 0.53089 0.25292 0.0
C1404 C 0.55743 0.51833 0.23919 0.0
C1405 C 0.55946 0.50782 0.23415 0.0
C1406 C 0.54942 0.49672 0.22627 0.0
C1407 C 0.53718 0.49619 0.22322 0.0
C1408 C 0.53522 0.50689 0.228 0.0
C1409 C 0.54539 0.51783 0.23593 0.0
C1410 C 0.55182 0.48544 0.22131 0.0
C1411 C 0.52233 0.50669 0.22484 0.0
C1412 C 0.55669 0.51365 0.135 0.0
C1413 C 0.55962 0.50469 0.14167 0.0
C1414 C 0.54949 0.49336 0.14858 0.0
C1415 C 0.53626 0.4912 0.14917 0.0
C1416 C 0.53321 0.50002 0.14215 0.0
C1417 C 0.54345 0.511 0.13497 0.0
C1418 C 0.553 0.48383 0.15543 0.0
C1419 C 0.51924 0.49805 0.14248 0.0
C1420 C 0.44666 0.38545 0.14172 0.0
C1421 C 0.45191 0.39991 0.13657 0.0
C1422 C 0.4754 0.41893 0.13918 0.0
C1423 C 0.48832 0.42131 0.14188 0.0
C1424 C 0.49848 0.43389 0.14767 0.0
C1425 C 0.49565 0.44442 0.15058 0.0
C1426 C 0.48284 0.44239 0.14706 0.0
C1427 C 0.47281 0.42964 0.14139 0.0
C1428 C 0.5121 0.43579 0.15111 0.0
C1429 C 0.47964 0.45357 0.14966 0.0
C1430 C 0.50613 0.46139 0.216 0.0
C1431 C 0.5164 0.47324 0.22268 0.0
C1432 C 0.5263 0.48423 0.21535 0.0
C1433 C 0.52598 0.48347 0.20091 0.0
C1434 C 0.53563 0.49445 0.19323 0.0
C1435 C 0.53544 0.49347 0.17903 0.0
C1436 C 0.5257 0.4814 0.17197 0.0
C1437 C 0.52576 0.48008 0.15755 0.0
C1438 C 0.51581 0.46799 0.15087 0.0
C1439 C 0.50573 0.45712 0.1582 0.0
C1440 C 0.50556 0.45822 0.17262 0.0
C1441 C 0.49558 0.44746 0.18031 0.0
C1442 C 0.49561 0.44855 0.1945 0.0
C1443 C 0.50573 0.46035 0.20156 0.0
C1444 C 0.51576 0.47141 0.194 0.0
C1445 C 0.51565 0.47036 0.17951 0.0
C1446 C 0.58227 0.5395 0.14591 0.0
C1447 C 0.58003 0.53267 0.1316 0.0
O1448 O 0.47071 0.42098 0.25233 0.0
O1449 O 0.46573 0.4062 0.13452 0.0
O1450 O 0.56627 0.52498 0.12857 0.0
O1451 O 0.56662 0.52902 0.24732 0.0
H1452 H 0.47279 0.43579 0.26648 0.0
H1453 H 0.48828 0.42801 0.27286 0.0
H1454 H 0.47432 0.41069 0.27484 0.0
H1455 H 0.47612 0.42448 0.28608 0.0
H1456 H 0.46863 0.44189 0.24446 0.0
H1457 H 0.48979 0.42034 0.23898 0.0
H1458 H 0.49162 0.4725 0.23216 0.0
H1459 H 0.47351 0.46112 0.23146 0.0
H1460 H 0.48347 0.46417 0.21625 0.0
H1461 H 0.50941 0.42882 0.22565 0.0
H1462 H 0.51887 0.44722 0.22372 0.0
H1463 H 0.50773 0.43621 0.21028 0.0
H1464 H 0.58425 0.52897 0.2449 0.0
H1465 H 0.58495 0.52282 0.26932 0.0
H1466 H 0.56946 0.5102 0.26095 0.0
H1467 H 0.56946 0.52269 0.27268 0.0
H1468 H 0.56876 0.50809 0.23639 0.0
H1469 H 0.54392 0.526 0.23979 0.0
H1470 H 0.54368 0.47539 0.22503 0.0
H1471 H 0.56175 0.48719 0.22482 0.0
H1472 H 0.55144 0.48477 0.20998 0.0
H1473 H 0.52267 0.51617 0.22865 0.0
H1474 H 0.51367 0.49768 0.2296 0.0
H1475 H 0.52043 0.50555 0.21363 0.0
H1476 H 0.58437 0.52591 0.13128 0.0
H1477 H 0.56976 0.50642 0.1415 0.0
H1478 H 0.54126 0.5179 0.12967 0.0
H1479 H 0.55366 0.48578 0.16665 0.0
H1480 H 0.56284 0.48537 0.15194 0.0
H1481 H 0.54499 0.47293 0.15336 0.0
H1482 H 0.51881 0.50645 0.13744 0.0
H1483 H 0.51592 0.49754 0.15322 0.0
H1484 H 0.51194 0.48814 0.13722 0.0
H1485 H 0.44972 0.40552 0.14471 0.0
H1486 H 0.43561 0.38019 0.14357 0.0
H1487 H 0.45185 0.38609 0.1515 0.0
H1488 H 0.44864 0.37921 0.13418 0.0
H1489 H 0.49028 0.41305 0.13989 0.0
H1490 H 0.46299 0.42806 0.13875 0.0
H1491 H 0.51404 0.4377 0.16229 0.0
H1492 H 0.5202 0.44493 0.14595 0.0
H1493 H 0.51277 0.42667 0.148 0.0
H1494 H 0.46968 0.45086 0.14523 0.0
H1495 H 0.48763 0.46333 0.14528 0.0
H1496 H 0.47953 0.45542 0.16084 0.0
H1497 H 0.51677 0.47389 0.23376 0.0
H1498 H 0.54346 0.50392 0.19811 0.0
H1499 H 0.54312 0.50226 0.17368 0.0
H1500 H 0.51595 0.46699 0.13982 0.0
H1501 H 0.48764 0.43804 0.17547 0.0
H1502 H 0.48768 0.43996 0.19988 0.0
H1503 H 0.57813 0.54643 0.14631 0.0
H1504 H 0.59321 0.54555 0.14865 0.0
H1505 H 0.57715 0.5316 0.15373 0.0
C1506 C 0.45942 0.99704 0.2779 0.0
C1507 C 0.4517 0.00011 0.26723 0.0
C1508 C 0.45997 0.99466 0.24624 0.0
C1509 C 0.47234 0.00723 0.24557 0.0
C1510 C 0.48243 0.00874 0.23651 0.0
C1511 C 0.48025 0.99742 0.22811 0.0
C1512 C 0.46776 0.98481 0.22861 0.0
C1513 C 0.4577 0.98369 0.23753 0.0
C1514 C 0.49555 0.02241 0.23609 0.0
C1515 C 0.46516 0.97246 0.21995 0.0
C1516 C 0.56223 0.98226 0.25893 0.0
C1517 C 0.55026 0.98037 0.25121 0.0
C1518 C 0.54174 0.99374 0.24064 0.0
C1519 C 0.53063 0.98236 0.23402 0.0
C1520 C 0.52115 0.98393 0.22658 0.0
C1521 C 0.52278 0.99711 0.22572 0.0
C1522 C 0.53403 0.00861 0.23222 0.0
C1523 C 0.54339 0.00676 0.23957 0.0
C1524 C 0.50932 0.97147 0.21968 0.0
C1525 C 0.53608 0.02281 0.2315 0.0
C1526 C 0.55031 0.0141 0.13993 0.0
C1527 C 0.53896 0.00101 0.14196 0.0
C1528 C 0.52754 0.99953 0.14868 0.0
C1529 C 0.52754 0.01139 0.15355 0.0
C1530 C 0.53874 0.0246 0.15099 0.0
C1531 C 0.54994 0.02577 0.14404 0.0
C1532 C 0.51556 0.9853 0.15078 0.0
C1533 C 0.53903 0.03746 0.15592 0.0
C1534 C 0.44428 0.02353 0.14842 0.0
C1535 C 0.45125 0.02388 0.13496 0.0
C1536 C 0.46434 0.01315 0.14135 0.0
C1537 C 0.46437 0.00086 0.14074 0.0
C1538 C 0.47422 0.99953 0.14776 0.0
C1539 C 0.48443 0.0109 0.15545 0.0
C1540 C 0.48464 0.02348 0.15592 0.0
C1541 C 0.47455 0.02445 0.14896 0.0
C1542 C 0.47367 0.98596 0.147 0.0
C1543 C 0.49555 0.03589 0.16379 0.0
C1544 C 0.49134 0.99862 0.2194 0.0
C1545 C 0.50146 0.99728 0.22567 0.0
C1546 C 0.51252 0.99879 0.21832 0.0
C1547 C 0.51357 0.00169 0.20428 0.0
C1548 C 0.52463 0.00341 0.19662 0.0
C1549 C 0.52556 0.00622 0.18279 0.0
C1550 C 0.5154 0.00731 0.17606 0.0
C1551 C 0.51617 0.00994 0.16195 0.0
C1552 C 0.50597 0.01108 0.15559 0.0
C1553 C 0.49491 0.00963 0.16294 0.0
C1554 C 0.49393 0.00691 0.17705 0.0
C1555 C 0.48294 0.00533 0.18477 0.0
C1556 C 0.48212 0.00274 0.19866 0.0
C1557 C 0.49214 0.0014 0.20533 0.0
C1558 C 0.5033 0.00293 0.19774 0.0
C1559 C 0.50421 0.00573 0.18361 0.0
C1560 C 0.57632 0.01411 0.14985 0.0
C1561 C 0.5679 0.00845 0.13664 0.0
O1562 O 0.45009 0.99262 0.2552 0.0
O1563 O 0.4543 0.01354 0.13448 0.0
O1564 O 0.56168 0.01584 0.13389 0.0
O1565 O 0.551 0.99259 0.24816 0.0
H1566 H 0.4574 0.01129 0.26522 0.0
H1567 H 0.46969 0.00016 0.2742 0.0
H1568 H 0.45393 0.98587 0.27994 0.0
H1569 H 0.46058 0.00288 0.28761 0.0
H1570 H 0.47428 0.01593 0.25205 0.0
H1571 H 0.44812 0.97406 0.23805 0.0
H1572 H 0.50382 0.02139 0.24053 0.0
H1573 H 0.49503 0.03066 0.24191 0.0
H1574 H 0.49821 0.02556 0.22535 0.0
H1575 H 0.45521 0.96318 0.2221 0.0
H1576 H 0.47325 0.97013 0.22181 0.0
H1577 H 0.46541 0.97475 0.20898 0.0
H1578 H 0.54027 0.97261 0.25543 0.0
H1579 H 0.55819 0.97762 0.26914 0.0
H1580 H 0.56781 0.99319 0.2631 0.0
H1581 H 0.57098 0.97457 0.2453 0.0
H1582 H 0.52927 0.97223 0.23462 0.0
H1583 H 0.55199 0.01549 0.24464 0.0
H1584 H 0.50925 0.97318 0.20858 0.0
H1585 H 0.4997 0.96993 0.22391 0.0
H1586 H 0.50962 0.96196 0.22105 0.0
H1587 H 0.54545 0.03073 0.23693 0.0
H1588 H 0.52729 0.02287 0.23607 0.0
H1589 H 0.53662 0.02564 0.22065 0.0
H1590 H 0.56021 0.99743 0.13803 0.0
H1591 H 0.53889 0.99192 0.1382 0.0
H1592 H 0.55866 0.03583 0.14219 0.0
H1593 H 0.51474 0.98299 0.16179 0.0
H1594 H 0.51644 0.97725 0.14497 0.0
H1595 H 0.50606 0.98476 0.14759 0.0
H1596 H 0.54865 0.04696 0.15342 0.0
H1597 H 0.53768 0.03727 0.16716 0.0
H1598 H 0.53049 0.03782 0.15118 0.0
H1599 H 0.4607 0.03406 0.13409 0.0
H1600 H 0.44171 0.03172 0.14878 0.0
H1601 H 0.45106 0.02532 0.15725 0.0
H1602 H 0.43485 0.01338 0.14949 0.0
H1603 H 0.45651 0.9922 0.13483 0.0
H1604 H 0.47477 0.03409 0.14954 0.0
H1605 H 0.47372 0.98246 0.15746 0.0
H1606 H 0.48279 0.98729 0.14176 0.0
H1607 H 0.46454 0.97784 0.14139 0.0
H1608 H 0.49501 0.04524 0.1622 0.0
H1609 H 0.50569 0.03798 0.16069 0.0
H1610 H 0.49453 0.0338 0.17487 0.0
H1611 H 0.50076 0.99512 0.23646 0.0
H1612 H 0.53271 0.00262 0.20123 0.0
H1613 H 0.53435 0.0075 0.17746 0.0
H1614 H 0.50664 0.01309 0.14476 0.0
H1615 H 0.47485 0.00611 0.18017 0.0
H1616 H 0.47347 0.00172 0.2041 0.0
H1617 H 0.58404 0.0252 0.14901 0.0
H1618 H 0.58148 0.00837 0.15206 0.0
H1619 H 0.56963 0.01291 0.15855 0.0
C1620 C 0.55835 0.98401 0.77588 0.0
C1621 C 0.55753 0.99305 0.76504 0.0
C1622 C 0.54709 0.00424 0.77773 0.0
C1623 C 0.5497 0.01653 0.78417 0.0
C1624 C 0.53959 0.01735 0.79136 0.0
C1625 C 0.52649 0.00553 0.7921 0.0
C1626 C 0.52368 0.99309 0.78546 0.0
C1627 C 0.53399 0.99256 0.77833 0.0
C1628 C 0.54291 0.03079 0.79828 0.0
C1629 C 0.50979 0.98033 0.78602 0.0
C1630 C 0.47517 0.034 0.74687 0.0
C1631 C 0.46341 0.02187 0.75399 0.0
C1632 C 0.47257 0.02061 0.77577 0.0
C1633 C 0.46975 0.00705 0.77584 0.0
C1634 C 0.4776 0.00359 0.78381 0.0
C1635 C 0.48855 0.01397 0.79174 0.0
C1636 C 0.49132 0.02766 0.79175 0.0
C1637 C 0.4831 0.03074 0.78393 0.0
C1638 C 0.47419 0.98885 0.78374 0.0
C1639 C 0.50302 0.03904 0.7999 0.0
C1640 C 0.46092 0.00677 0.87797 0.0
C1641 C 0.45733 0.99403 0.87175 0.0
C1642 C 0.46707 0.99211 0.86513 0.0
C1643 C 0.48063 0.00317 0.8647 0.0
C1644 C 0.48436 0.01586 0.87142 0.0
C1645 C 0.47444 0.01743 0.87813 0.0
C1646 C 0.46286 0.97831 0.85845 0.0
C1647 C 0.49875 0.02783 0.87127 0.0
C1648 C 0.55383 0.97434 0.86803 0.0
C1649 C 0.55496 0.98479 0.87896 0.0
C1650 C 0.53413 0.98515 0.87775 0.0
C1651 C 0.52083 0.97521 0.8741 0.0
C1652 C 0.51242 0.97884 0.86741 0.0
C1653 C 0.5174 0.99282 0.86467 0.0
C1654 C 0.53062 0.00301 0.86907 0.0
C1655 C 0.53888 0.99905 0.87551 0.0
C1656 C 0.49833 0.96772 0.86301 0.0
C1657 C 0.53607 0.01806 0.86678 0.0
C1658 C 0.51579 0.00617 0.79996 0.0
C1659 C 0.50737 0.00955 0.79304 0.0
C1660 C 0.49721 0.01052 0.79985 0.0
C1661 C 0.49544 0.0082 0.81403 0.0
C1662 C 0.48542 0.00922 0.82124 0.0
C1663 C 0.48394 0.00719 0.83523 0.0
C1664 C 0.49225 0.00379 0.84252 0.0
C1665 C 0.4908 0.00167 0.85675 0.0
C1666 C 0.49914 0.99817 0.86366 0.0
C1667 C 0.50897 0.99671 0.85674 0.0
C1668 C 0.51063 0.99888 0.84253 0.0
C1669 C 0.52043 0.99752 0.83524 0.0
C1670 C 0.52216 0.99992 0.82132 0.0
C1671 C 0.51404 0.00361 0.81409 0.0
C1672 C 0.50392 0.00476 0.82117 0.0
C1673 C 0.50226 0.00247 0.83542 0.0
C1674 C 0.44044 0.01626 0.86915 0.0
C1675 C 0.43904 0.00526 0.87882 0.0
O1676 O 0.55751 0.00419 0.77121 0.0
O1677 O 0.54214 0.98107 0.88348 0.0
O1678 O 0.45166 0.00903 0.88417 0.0
O1679 O 0.46515 0.02412 0.76802 0.0
H1680 H 0.54813 0.98685 0.75879 0.0
H1681 H 0.54942 0.97981 0.78262 0.0
H1682 H 0.56761 0.99007 0.78233 0.0
H1683 H 0.55854 0.9752 0.77091 0.0
H1684 H 0.5598 0.0255 0.78364 0.0
H1685 H 0.5317 0.98296 0.77336 0.0
H1686 H 0.53592 0.034 0.7945 0.0
H1687 H 0.55349 0.03914 0.79646 0.0
H1688 H 0.54142 0.02943 0.80946 0.0
H1689 H 0.50922 0.9714 0.78042 0.0
H1690 H 0.5022 0.98238 0.78155 0.0
H1691 H 0.50701 0.97759 0.79683 0.0
H1692 H 0.46341 0.01236 0.75088 0.0
H1693 H 0.47409 0.03233 0.7356 0.0
H1694 H 0.4849 0.03501 0.75001 0.0
H1695 H 0.47553 0.04373 0.74967 0.0
H1696 H 0.46133 0.99916 0.76978 0.0
H1697 H 0.48508 0.04117 0.78386 0.0
H1698 H 0.4825 0.98811 0.77886 0.0
H1699 H 0.4646 0.9818 0.77811 0.0
H1700 H 0.4733 0.98537 0.79438 0.0
H1701 H 0.50457 0.04931 0.7978 0.0
H1702 H 0.51248 0.03912 0.79751 0.0
H1703 H 0.50114 0.0372 0.81097 0.0
H1704 H 0.43466 0.99537 0.87286 0.0
H1705 H 0.44699 0.98552 0.87217 0.0
H1706 H 0.47714 0.02714 0.88319 0.0
H1707 H 0.46398 0.97937 0.84721 0.0
H1708 H 0.45219 0.97043 0.86065 0.0
H1709 H 0.46955 0.97465 0.86202 0.0
H1710 H 0.49996 0.03709 0.87681 0.0
H1711 H 0.50201 0.03051 0.86055 0.0
H1712 H 0.50557 0.0249 0.87605 0.0
H1713 H 0.55985 0.99501 0.87417 0.0
H1714 H 0.56404 0.97712 0.86437 0.0
H1715 H 0.5478 0.97426 0.85917 0.0
H1716 H 0.54875 0.96382 0.87214 0.0
H1717 H 0.5172 0.96453 0.8761 0.0
H1718 H 0.54901 0.00681 0.87887 0.0
H1719 H 0.49699 0.96813 0.85184 0.0
H1720 H 0.49079 0.96949 0.86824 0.0
H1721 H 0.49618 0.95728 0.8654 0.0
H1722 H 0.54589 0.02479 0.87219 0.0
H1723 H 0.52869 0.02095 0.87033 0.0
H1724 H 0.53757 0.02 0.85569 0.0
H1725 H 0.50875 0.01146 0.78219 0.0
H1726 H 0.47867 0.01171 0.81616 0.0
H1727 H 0.47616 0.00828 0.84024 0.0
H1728 H 0.49795 0.99656 0.87457 0.0
H1729 H 0.52694 0.99465 0.84022 0.0
H1730 H 0.52993 0.99882 0.81628 0.0
H1731 H 0.43038 0.01343 0.86488 0.0
H1732 H 0.44709 0.01715 0.86052 0.0
H1733 H 0.44495 0.02643 0.87459 0.0
C1734 C 0.99094 0.54006 0.74701 0.0
C1735 C 0.98468 0.54444 0.7584 0.0
C1736 C 0.9931 0.53897 0.77859 0.0
C1737 C 0.98139 0.52686 0.78249 0.0
C1738 C 0.98226 0.5174 0.79068 0.0
C1739 C 0.99511 0.52009 0.79503 0.0
C1740 C 0.00691 0.53248 0.79145 0.0
C1741 C 0.00572 0.54186 0.78342 0.0
C1742 C 0.96946 0.50445 0.79459 0.0
C1743 C 0.02077 0.53566 0.79589 0.0
C1744 C 0.0113 0.43643 0.76004 0.0
C1745 C 0.01373 0.44918 0.7673 0.0
C1746 C 0.00116 0.45883 0.77804 0.0
C1747 C 0.01269 0.47059 0.7836 0.0
C1748 C 0.01149 0.48049 0.79131 0.0
C1749 C 0.99851 0.47852 0.79367 0.0
C1750 C 0.98689 0.46671 0.78811 0.0
C1751 C 0.98839 0.45702 0.78032 0.0
C1752 C 0.02412 0.49305 0.79699 0.0
C1753 C 0.97291 0.46429 0.79049 0.0
C1754 C 0.00617 0.4606 0.88047 0.0
C1755 C 0.01703 0.47116 0.8734 0.0
C1756 C 0.0157 0.48135 0.86707 0.0
C1757 C 0.00313 0.48074 0.86743 0.0
C1758 C 0.99224 0.47024 0.87469 0.0
C1759 C 0.99398 0.46041 0.88125 0.0
C1760 C 0.02772 0.49267 0.85986 0.0
C1761 C 0.9787 0.46926 0.87531 0.0
C1762 C 0.00408 0.57268 0.87119 0.0
C1763 C 0.9994 0.56557 0.88487 0.0
C1764 C 0.00487 0.54751 0.88216 0.0
C1765 C 0.01633 0.54673 0.87939 0.0
C1766 C 0.01524 0.53513 0.87262 0.0
C1767 C 0.00228 0.5239 0.86891 0.0
C1768 C 0.99057 0.52429 0.87245 0.0
C1769 C 0.99198 0.53614 0.87895 0.0
C1770 C 0.02793 0.53503 0.86911 0.0
C1771 C 0.97659 0.51227 0.8691 0.0
C1772 C 0.99618 0.50968 0.80287 0.0
C1773 C 0.99636 0.49906 0.79549 0.0
C1774 C 0.99717 0.48878 0.80214 0.0
C1775 C 0.99756 0.48887 0.81657 0.0
C1776 C 0.99786 0.47839 0.82357 0.0
C1777 C 0.99878 0.47886 0.83775 0.0
C1778 C 0.99963 0.48991 0.84548 0.0
C1779 C 0.0013 0.49086 0.85986 0.0
C1780 C 0.00192 0.50191 0.86722 0.0
C1781 C 0.00103 0.51217 0.86059 0.0
C1782 C 0.99949 0.51147 0.84621 0.0
C1783 C 0.99871 0.52169 0.8392 0.0
C1784 C 0.99738 0.52101 0.82504 0.0
C1785 C 0.99706 0.51024 0.8173 0.0
C1786 C 0.99776 0.49978 0.82417 0.0
C1787 C 0.99888 0.50034 0.83864 0.0
C1788 C 0.01421 0.43925 0.87065 0.0
C1789 C 0.01657 0.44669 0.88458 0.0
O1790 O 0.99259 0.54802 0.7702 0.0
O1791 O 0.00664 0.55931 0.88803 0.0
O1792 O 0.00695 0.45041 0.88663 0.0
O1793 O 0.00194 0.44904 0.77047 0.0
H1794 H 0.97433 0.53567 0.76027 0.0
H1795 H 0.99121 0.53085 0.75003 0.0
H1796 H 0.00145 0.54847 0.74498 0.0
H1797 H 0.9848 0.53738 0.73745 0.0
H1798 H 0.97153 0.52481 0.77931 0.0
H1799 H 0.01469 0.55131 0.78049 0.0
H1800 H 0.96932 0.49538 0.78986 0.0
H1801 H 0.9602 0.50433 0.79124 0.0
H1802 H 0.96919 0.50339 0.80584 0.0
H1803 H 0.02897 0.54554 0.79192 0.0
H1804 H 0.0224 0.52727 0.79227 0.0
H1805 H 0.02149 0.53619 0.80722 0.0
H1806 H 0.02152 0.45893 0.7626 0.0
H1807 H 0.01588 0.43991 0.74969 0.0
H1808 H 0.00052 0.43089 0.75612 0.0
H1809 H 0.01843 0.42776 0.77387 0.0
H1810 H 0.02265 0.47213 0.78199 0.0
H1811 H 0.97956 0.44792 0.77601 0.0
H1812 H 0.02413 0.49279 0.80832 0.0
H1813 H 0.02426 0.50252 0.79418 0.0
H1814 H 0.03351 0.49366 0.79324 0.0
H1815 H 0.96485 0.45428 0.78599 0.0
H1816 H 0.97208 0.47266 0.78592 0.0
H1817 H 0.97118 0.46456 0.80163 0.0
H1818 H 0.02688 0.45601 0.885 0.0
H1819 H 0.0266 0.47162 0.87276 0.0
H1820 H 0.98568 0.4523 0.88679 0.0
H1821 H 0.02612 0.49085 0.84864 0.0
H1822 H 0.03729 0.49313 0.86257 0.0
H1823 H 0.02885 0.50281 0.86241 0.0
H1824 H 0.97097 0.4599 0.8805 0.0
H1825 H 0.97501 0.46917 0.86482 0.0
H1826 H 0.97983 0.47844 0.88092 0.0
H1827 H 0.98841 0.55782 0.88401 0.0
H1828 H 0.99851 0.57795 0.86871 0.0
H1829 H 0.00203 0.56495 0.86289 0.0
H1830 H 0.01512 0.58037 0.87154 0.0
H1831 H 0.02621 0.55547 0.88213 0.0
H1832 H 0.983 0.53636 0.88162 0.0
H1833 H 0.02823 0.53334 0.85792 0.0
H1834 H 0.02788 0.5264 0.87422 0.0
H1835 H 0.03726 0.54479 0.87228 0.0
H1836 H 0.96854 0.51345 0.87404 0.0
H1837 H 0.97566 0.50256 0.87243 0.0
H1838 H 0.97488 0.51135 0.85788 0.0
H1839 H 0.99603 0.49888 0.78441 0.0
H1840 H 0.99742 0.46972 0.81816 0.0
H1841 H 0.99898 0.4705 0.84257 0.0
H1842 H 0.00333 0.50266 0.87823 0.0
H1843 H 0.99913 0.53038 0.84457 0.0
H1844 H 0.9968 0.52915 0.82021 0.0
H1845 H 0.02181 0.43613 0.869 0.0
H1846 H 0.01524 0.44614 0.86232 0.0
H1847 H 0.0039 0.42994 0.87001 0.0
C1848 C 0.53034 0.56295 0.74775 0.0
C1849 C 0.53625 0.57523 0.75798 0.0
C1850 C 0.52501 0.56294 0.77846 0.0
C1851 C 0.51494 0.56627 0.7801 0.0
C1852 C 0.50328 0.55788 0.78763 0.0
C1853 C 0.5016 0.54583 0.79345 0.0
C1854 C 0.51181 0.54253 0.79187 0.0
C1855 C 0.52353 0.55131 0.78462 0.0
C1856 C 0.49274 0.56189 0.78933 0.0
C1857 C 0.51027 0.52962 0.79764 0.0
C1858 C 0.41692 0.4896 0.73877 0.0
C1859 C 0.42302 0.48444 0.74917 0.0
C1860 C 0.43155 0.49504 0.77162 0.0
C1861 C 0.4411 0.49112 0.77372 0.0
C1862 C 0.45184 0.49846 0.78309 0.0
C1863 C 0.45316 0.51009 0.7903 0.0
C1864 C 0.44339 0.51391 0.78833 0.0
C1865 C 0.43251 0.5061 0.77922 0.0
C1866 C 0.46188 0.4939 0.78513 0.0
C1867 C 0.4446 0.52645 0.79552 0.0
C1868 C 0.42422 0.49113 0.8758 0.0
C1869 C 0.43295 0.4864 0.87224 0.0
C1870 C 0.44566 0.49529 0.8666 0.0
C1871 C 0.44961 0.50913 0.86438 0.0
C1872 C 0.44107 0.51405 0.86854 0.0
C1873 C 0.42853 0.50499 0.87437 0.0
C1874 C 0.45474 0.48984 0.86276 0.0
C1875 C 0.44502 0.52877 0.86646 0.0
C1876 C 0.54942 0.58811 0.87274 0.0
C1877 C 0.54254 0.58688 0.8865 0.0
C1878 C 0.5217 0.56454 0.88226 0.0
C1879 C 0.51728 0.55054 0.88148 0.0
C1880 C 0.50559 0.54119 0.87398 0.0
C1881 C 0.49791 0.54596 0.86747 0.0
C1882 C 0.5019 0.56 0.8689 0.0
C1883 C 0.51387 0.56919 0.8761 0.0
C1884 C 0.50165 0.5263 0.87273 0.0
C1885 C 0.49364 0.56536 0.86262 0.0
C1886 C 0.489 0.53652 0.80086 0.0
C1887 C 0.47739 0.5277 0.79311 0.0
C1888 C 0.46514 0.51869 0.79933 0.0
C1889 C 0.46441 0.5183 0.81374 0.0
C1890 C 0.45233 0.50918 0.82035 0.0
C1891 C 0.45162 0.50918 0.83454 0.0
C1892 C 0.46301 0.51815 0.84268 0.0
C1893 C 0.46236 0.51828 0.85712 0.0
C1894 C 0.47387 0.5274 0.86489 0.0
C1895 C 0.48611 0.53641 0.85865 0.0
C1896 C 0.48698 0.53636 0.84423 0.0
C1897 C 0.49916 0.54521 0.8376 0.0
C1898 C 0.49983 0.54536 0.82342 0.0
C1899 C 0.48842 0.53647 0.81529 0.0
C1900 C 0.47607 0.52731 0.82174 0.0
C1901 C 0.47536 0.52725 0.83623 0.0
C1902 C 0.38971 0.46777 0.8709 0.0
C1903 C 0.4029 0.46916 0.87599 0.0
O1904 O 0.53624 0.57072 0.77101 0.0
O1905 O 0.53352 0.57313 0.88903 0.0
O1906 O 0.4116 0.48261 0.88058 0.0
O1907 O 0.42145 0.48849 0.76218 0.0
H1908 H 0.52997 0.58005 0.75767 0.0
H1909 H 0.51978 0.55524 0.7505 0.0
H1910 H 0.53647 0.55795 0.7478 0.0
H1911 H 0.53011 0.56629 0.73725 0.0
H1912 H 0.51624 0.5755 0.77569 0.0
H1913 H 0.53143 0.54891 0.78335 0.0
H1914 H 0.48344 0.55441 0.78352 0.0
H1915 H 0.49627 0.57235 0.7856 0.0
H1916 H 0.48999 0.56155 0.80025 0.0
H1917 H 0.51837 0.52774 0.79418 0.0
H1918 H 0.5003 0.52057 0.79457 0.0
H1919 H 0.51064 0.53048 0.80896 0.0
H1920 H 0.43398 0.48937 0.74674 0.0
H1921 H 0.41814 0.48654 0.72823 0.0
H1922 H 0.42221 0.501 0.73954 0.0
H1923 H 0.40599 0.48534 0.7407 0.0
H1924 H 0.44013 0.48233 0.76803 0.0
H1925 H 0.42501 0.50896 0.77756 0.0
H1926 H 0.47168 0.50143 0.78054 0.0
H1927 H 0.45837 0.4836 0.78033 0.0
H1928 H 0.46374 0.49359 0.7962 0.0
H1929 H 0.43722 0.52903 0.79148 0.0
H1930 H 0.45498 0.53546 0.79443 0.0
H1931 H 0.44275 0.52456 0.80659 0.0
H1932 H 0.40722 0.46655 0.86702 0.0
H1933 H 0.42984 0.47577 0.87386 0.0
H1934 H 0.42179 0.50857 0.87738 0.0
H1935 H 0.45554 0.48954 0.85148 0.0
H1936 H 0.45088 0.47932 0.8665 0.0
H1937 H 0.4651 0.4968 0.86701 0.0
H1938 H 0.43706 0.53089 0.8699 0.0
H1939 H 0.44698 0.53115 0.85547 0.0
H1940 H 0.45453 0.53579 0.87221 0.0
H1941 H 0.53712 0.59259 0.88625 0.0
H1942 H 0.55663 0.59907 0.87052 0.0
H1943 H 0.54174 0.58367 0.86436 0.0
H1944 H 0.55499 0.58253 0.87283 0.0
H1945 H 0.5233 0.54703 0.88641 0.0
H1946 H 0.51693 0.57993 0.87693 0.0
H1947 H 0.5005 0.52298 0.86179 0.0
H1948 H 0.49173 0.51979 0.87764 0.0
H1949 H 0.50923 0.52444 0.8776 0.0
H1950 H 0.49667 0.57581 0.8667 0.0
H1951 H 0.48269 0.55832 0.86454 0.0
H1952 H 0.49506 0.56588 0.8514 0.0
H1953 H 0.47788 0.52793 0.78204 0.0
H1954 H 0.44326 0.502 0.81462 0.0
H1955 H 0.44199 0.50204 0.83902 0.0
H1956 H 0.47326 0.52752 0.87595 0.0
H1957 H 0.50833 0.55221 0.84329 0.0
H1958 H 0.50943 0.55254 0.81891 0.0
H1959 H 0.38253 0.45703 0.86724 0.0
H1960 H 0.39184 0.4747 0.86226 0.0
H1961 H 0.38488 0.4706 0.87915 0.0
C1962 C 0.61954 0.7632 0.60488 0.0
C1963 C 0.62585 0.76003 0.59256 0.0
C1964 C 0.63165 0.7796 0.57793 0.0
C1965 C 0.61831 0.77531 0.57386 0.0
C1966 C 0.61557 0.78366 0.56583 0.0
C1967 C 0.62636 0.79653 0.56173 0.0
C1968 C 0.6398 0.80079 0.5656 0.0
C1969 C 0.64225 0.79223 0.57362 0.0
C1970 C 0.60113 0.7788 0.56179 0.0
C1971 C 0.65153 0.81444 0.56138 0.0
C1972 C 0.59889 0.85429 0.61238 0.0
C1973 C 0.61028 0.85981 0.60196 0.0
C1974 C 0.60824 0.84842 0.57996 0.0
C1975 C 0.62179 0.85224 0.57813 0.0
C1976 C 0.62516 0.84454 0.56929 0.0
C1977 C 0.61474 0.83268 0.56233 0.0
C1978 C 0.60107 0.82901 0.56396 0.0
C1979 C 0.59804 0.83714 0.57256 0.0
C1980 C 0.63985 0.84894 0.56758 0.0
C1981 C 0.58964 0.81631 0.55694 0.0
C1982 C 0.60905 0.85034 0.47542 0.0
C1983 C 0.62237 0.85468 0.47944 0.0
C1984 C 0.62541 0.84563 0.48573 0.0
C1985 C 0.61489 0.83199 0.48812 0.0
C1986 C 0.60157 0.82743 0.48349 0.0
C1987 C 0.59887 0.83665 0.47703 0.0
C1988 C 0.63981 0.85068 0.4901 0.0
C1989 C 0.59014 0.81293 0.48571 0.0
C1990 C 0.61884 0.74279 0.47977 0.0
C1991 C 0.62054 0.74997 0.46624 0.0
C1992 C 0.62721 0.77349 0.47407 0.0
C1993 C 0.63819 0.7869 0.47598 0.0
C1994 C 0.63671 0.7971 0.48277 0.0
C1995 C 0.62386 0.79378 0.48765 0.0
C1996 C 0.61259 0.78036 0.48539 0.0
C1997 C 0.61437 0.77033 0.47868 0.0
C1998 C 0.64893 0.81132 0.48501 0.0
C1999 C 0.5987 0.77654 0.49032 0.0
C2000 C 0.62355 0.80569 0.55367 0.0
C2001 C 0.62078 0.81477 0.56081 0.0
C2002 C 0.61805 0.82372 0.55395 0.0
C2003 C 0.6182 0.82375 0.5395 0.0
C2004 C 0.6158 0.83281 0.53226 0.0
C2005 C 0.61562 0.83251 0.51805 0.0
C2006 C 0.61796 0.82321 0.51051 0.0
C2007 C 0.61767 0.82273 0.49604 0.0
C2008 C 0.61981 0.8132 0.48889 0.0
C2009 C 0.6223 0.8041 0.4958 0.0
C2010 C 0.62286 0.80459 0.51025 0.0
C2011 C 0.62558 0.79574 0.5175 0.0
C2012 C 0.62589 0.79613 0.53172 0.0
C2013 C 0.62345 0.80535 0.53923 0.0
C2014 C 0.62077 0.81442 0.53212 0.0
C2015 C 0.62058 0.81411 0.51761 0.0
C2016 C 0.59885 0.87363 0.4804 0.0
C2017 C 0.61057 0.87251 0.47456 0.0
O2018 O 0.63478 0.77205 0.58605 0.0
O2019 O 0.62954 0.76401 0.46792 0.0
O2020 O 0.60572 0.85908 0.46997 0.0
O2021 O 0.6047 0.85529 0.58897 0.0
H2022 H 0.61769 0.75287 0.58528 0.0
H2023 H 0.61362 0.76783 0.60158 0.0
H2024 H 0.62754 0.77054 0.6122 0.0
H2025 H 0.61258 0.75359 0.61022 0.0
H2026 H 0.60994 0.76554 0.57696 0.0
H2027 H 0.65251 0.79545 0.57673 0.0
H2028 H 0.59825 0.78608 0.56606 0.0
H2029 H 0.59389 0.76835 0.56546 0.0
H2030 H 0.60021 0.77866 0.55049 0.0
H2031 H 0.6614 0.81624 0.56518 0.0
H2032 H 0.65016 0.82289 0.56537 0.0
H2033 H 0.6518 0.81489 0.55006 0.0
H2034 H 0.61671 0.85549 0.60462 0.0
H2035 H 0.60313 0.85782 0.62289 0.0
H2036 H 0.5932 0.84286 0.61191 0.0
H2037 H 0.59171 0.8578 0.61023 0.0
H2038 H 0.62971 0.86122 0.58361 0.0
H2039 H 0.58763 0.83438 0.57399 0.0
H2040 H 0.64218 0.84888 0.55657 0.0
H2041 H 0.64185 0.84153 0.57264 0.0
H2042 H 0.64677 0.85937 0.57212 0.0
H2043 H 0.57956 0.81407 0.56048 0.0
H2044 H 0.59061 0.80725 0.55881 0.0
H2045 H 0.59012 0.81772 0.54574 0.0
H2046 H 0.61799 0.87543 0.48312 0.0
H2047 H 0.63039 0.86514 0.47765 0.0
H2048 H 0.58866 0.83335 0.47366 0.0
H2049 H 0.64052 0.85118 0.50142 0.0
H2050 H 0.64703 0.86105 0.48624 0.0
H2051 H 0.64288 0.84338 0.48634 0.0
H2052 H 0.58027 0.8111 0.48186 0.0
H2053 H 0.58926 0.81077 0.49678 0.0
H2054 H 0.59234 0.80554 0.48041 0.0
H2055 H 0.61054 0.74805 0.46273 0.0
H2056 H 0.61182 0.73152 0.47833 0.0
H2057 H 0.61453 0.74661 0.48764 0.0
H2058 H 0.62876 0.74475 0.48361 0.0
H2059 H 0.64803 0.78929 0.47235 0.0
H2060 H 0.60569 0.76006 0.47725 0.0
H2061 H 0.65068 0.81383 0.49614 0.0
H2062 H 0.64705 0.81901 0.4804 0.0
H2063 H 0.65822 0.81228 0.48052 0.0
H2064 H 0.59076 0.76602 0.48679 0.0
H2065 H 0.59599 0.784 0.48665 0.0
H2066 H 0.59875 0.77706 0.50166 0.0
H2067 H 0.62067 0.81481 0.5719 0.0
H2068 H 0.61398 0.84021 0.53751 0.0
H2069 H 0.61358 0.83964 0.51305 0.0
H2070 H 0.6194 0.81276 0.4778 0.0
H2071 H 0.62749 0.78839 0.51229 0.0
H2072 H 0.62799 0.78905 0.53674 0.0
H2073 H 0.60248 0.88436 0.48402 0.0
H2074 H 0.59449 0.86679 0.48922 0.0
H2075 H 0.59072 0.87049 0.4726 0.0
C2076 C 0.12351 0.73539 0.58147 0.0
C2077 C 0.12387 0.74489 0.59313 0.0
C2078 C 0.13764 0.76773 0.58306 0.0
C2079 C 0.13692 0.77841 0.57722 0.0
C2080 C 0.14824 0.78936 0.57116 0.0
C2081 C 0.1606 0.78956 0.57086 0.0
C2082 C 0.16157 0.77904 0.57717 0.0
C2083 C 0.15009 0.76826 0.58329 0.0
C2084 C 0.14689 0.80054 0.56476 0.0
C2085 C 0.17464 0.77902 0.57711 0.0
C2086 C 0.25577 0.88698 0.60104 0.0
C2087 C 0.2464 0.87243 0.59651 0.0
C2088 C 0.22389 0.85806 0.58612 0.0
C2089 C 0.22549 0.84682 0.58293 0.0
C2090 C 0.21532 0.83514 0.57579 0.0
C2091 C 0.20336 0.83472 0.57169 0.0
C2092 C 0.20163 0.84591 0.57505 0.0
C2093 C 0.21194 0.85744 0.58225 0.0
C2094 C 0.21741 0.82332 0.57245 0.0
C2095 C 0.189 0.84577 0.57083 0.0
C2096 C 0.22581 0.85405 0.48406 0.0
C2097 C 0.22794 0.84349 0.48802 0.0
C2098 C 0.21785 0.83205 0.49485 0.0
C2099 C 0.2054 0.83115 0.49775 0.0
C2100 C 0.20311 0.84158 0.4935 0.0
C2101 C 0.21336 0.85289 0.4867 0.0
C2102 C 0.22055 0.82104 0.49919 0.0
C2103 C 0.18992 0.8409 0.49636 0.0
C2104 C 0.11676 0.72596 0.48963 0.0
C2105 C 0.12113 0.73986 0.4835 0.0
C2106 C 0.14456 0.75906 0.48563 0.0
C2107 C 0.15748 0.76133 0.4881 0.0
C2108 C 0.16768 0.77375 0.49413 0.0
C2109 C 0.16489 0.78423 0.4975 0.0
C2110 C 0.1521 0.78234 0.49415 0.0
C2111 C 0.14204 0.76975 0.48824 0.0
C2112 C 0.18128 0.77551 0.49737 0.0
C2113 C 0.14894 0.79349 0.4972 0.0
C2114 C 0.17218 0.80029 0.56316 0.0
C2115 C 0.18218 0.81197 0.57032 0.0
C2116 C 0.19288 0.82276 0.56347 0.0
C2117 C 0.19355 0.82204 0.54906 0.0
C2118 C 0.20391 0.83292 0.54181 0.0
C2119 C 0.2044 0.83216 0.52763 0.0
C2120 C 0.19462 0.82044 0.52015 0.0
C2121 C 0.19497 0.81959 0.50572 0.0
C2122 C 0.18517 0.80773 0.49861 0.0
C2123 C 0.17492 0.79663 0.50554 0.0
C2124 C 0.17432 0.79735 0.51996 0.0
C2125 C 0.16409 0.78639 0.52724 0.0
C2126 C 0.16339 0.78731 0.54137 0.0
C2127 C 0.17298 0.79916 0.54881 0.0
C2128 C 0.18359 0.81016 0.54173 0.0
C2129 C 0.18419 0.80931 0.52727 0.0
C2130 C 0.25739 0.87479 0.48813 0.0
C2131 C 0.24866 0.86941 0.47506 0.0
O2132 O 0.12603 0.75714 0.58809 0.0
O2133 O 0.13484 0.74646 0.48073 0.0
O2134 O 0.23539 0.86556 0.47785 0.0
O2135 O 0.23363 0.86967 0.59275 0.0
H2136 H 0.1321 0.74707 0.60052 0.0
H2137 H 0.13339 0.74008 0.57624 0.0
H2138 H 0.11558 0.73337 0.57378 0.0
H2139 H 0.12137 0.72543 0.58555 0.0
H2140 H 0.12732 0.778 0.57721 0.0
H2141 H 0.15092 0.76023 0.58802 0.0
H2142 H 0.15529 0.81082 0.5683 0.0
H2143 H 0.1371 0.79974 0.56722 0.0
H2144 H 0.14758 0.79982 0.55349 0.0
H2145 H 0.17374 0.77005 0.58235 0.0
H2146 H 0.18275 0.7886 0.58225 0.0
H2147 H 0.1778 0.77888 0.56641 0.0
H2148 H 0.24609 0.86459 0.60335 0.0
H2149 H 0.258 0.88648 0.61213 0.0
H2150 H 0.24932 0.8916 0.60323 0.0
H2151 H 0.27083 0.89449 0.58614 0.0
H2152 H 0.23465 0.8471 0.58591 0.0
H2153 H 0.21078 0.86613 0.58478 0.0
H2154 H 0.20878 0.81361 0.57625 0.0
H2155 H 0.22695 0.8249 0.57699 0.0
H2156 H 0.21772 0.82205 0.5612 0.0
H2157 H 0.18921 0.85531 0.5742 0.0
H2158 H 0.18 0.8368 0.57523 0.0
H2159 H 0.1878 0.84461 0.55953 0.0
H2160 H 0.24899 0.86043 0.47071 0.0
H2161 H 0.23745 0.84411 0.48597 0.0
H2162 H 0.21177 0.86103 0.48356 0.0
H2163 H 0.22008 0.82041 0.51049 0.0
H2164 H 0.23061 0.82303 0.49586 0.0
H2165 H 0.2126 0.81088 0.49487 0.0
H2166 H 0.18957 0.84964 0.49202 0.0
H2167 H 0.18845 0.84097 0.50757 0.0
H2168 H 0.18136 0.83112 0.49201 0.0
H2169 H 0.11899 0.74579 0.49132 0.0
H2170 H 0.1058 0.72046 0.49206 0.0
H2171 H 0.12256 0.72755 0.49923 0.0
H2172 H 0.11868 0.71945 0.4824 0.0
H2173 H 0.1594 0.7531 0.48576 0.0
H2174 H 0.13223 0.76828 0.48572 0.0
H2175 H 0.18327 0.7772 0.50855 0.0
H2176 H 0.18938 0.78473 0.49231 0.0
H2177 H 0.18188 0.76642 0.49398 0.0
H2178 H 0.13913 0.79106 0.4926 0.0
H2179 H 0.15711 0.80344 0.49332 0.0
H2180 H 0.14849 0.7948 0.50843 0.0
H2181 H 0.18157 0.81272 0.58134 0.0
H2182 H 0.21171 0.84219 0.547 0.0
H2183 H 0.21256 0.84088 0.52261 0.0
H2184 H 0.18552 0.80715 0.48755 0.0
H2185 H 0.15643 0.777 0.5221 0.0
H2186 H 0.15524 0.77857 0.54638 0.0
H2187 H 0.26807 0.87812 0.48581 0.0
H2188 H 0.25373 0.86661 0.49575 0.0
H2189 H 0.25702 0.88363 0.49278 0.0
C2190 C 0.14391 0.365 0.61098 0.0
C2191 C 0.137 0.37028 0.60163 0.0
C2192 C 0.14805 0.36971 0.58036 0.0
C2193 C 0.16007 0.38256 0.58194 0.0
C2194 C 0.17141 0.38579 0.57396 0.0
C2195 C 0.17082 0.37588 0.56442 0.0
C2196 C 0.15867 0.36298 0.56274 0.0
C2197 C 0.14736 0.36021 0.57053 0.0
C2198 C 0.1841 0.39974 0.57587 0.0
C2199 C 0.15768 0.35196 0.55296 0.0
C2200 C 0.26554 0.38969 0.58065 0.0
C2201 C 0.25482 0.38051 0.59094 0.0
C2202 C 0.23363 0.37353 0.57831 0.0
C2203 C 0.22295 0.36268 0.57091 0.0
C2204 C 0.21328 0.36443 0.56411 0.0
C2205 C 0.21437 0.37742 0.56472 0.0
C2206 C 0.22497 0.3884 0.57244 0.0
C2207 C 0.23449 0.38635 0.57921 0.0
C2208 C 0.20202 0.35244 0.55609 0.0
C2209 C 0.22634 0.40235 0.57336 0.0
C2210 C 0.24482 0.39309 0.48019 0.0
C2211 C 0.23338 0.3801 0.48235 0.0
C2212 C 0.2218 0.37889 0.48848 0.0
C2213 C 0.22172 0.39091 0.49253 0.0
C2214 C 0.233 0.404 0.48975 0.0
C2215 C 0.24438 0.4049 0.48347 0.0
C2216 C 0.20977 0.36476 0.49087 0.0
C2217 C 0.23317 0.41701 0.49376 0.0
C2218 C 0.13677 0.39877 0.47915 0.0
C2219 C 0.14132 0.39388 0.46659 0.0
C2220 C 0.15533 0.38567 0.47691 0.0
C2221 C 0.15552 0.37385 0.47999 0.0
C2222 C 0.16636 0.37465 0.48728 0.0
C2223 C 0.17728 0.38767 0.49166 0.0
C2224 C 0.17732 0.39973 0.48836 0.0
C2225 C 0.16635 0.39864 0.48097 0.0
C2226 C 0.16605 0.36157 0.49046 0.0
C2227 C 0.18885 0.41375 0.49284 0.0
C2228 C 0.18309 0.37875 0.55672 0.0
C2229 C 0.19305 0.37762 0.56363 0.0
C2230 C 0.20461 0.37957 0.55696 0.0
C2231 C 0.20637 0.38277 0.54297 0.0
C2232 C 0.21791 0.38485 0.53597 0.0
C2233 C 0.21929 0.3874 0.52208 0.0
C2234 C 0.20915 0.38788 0.51462 0.0
C2235 C 0.21016 0.38979 0.50036 0.0
C2236 C 0.19982 0.39006 0.49323 0.0
C2237 C 0.18844 0.38853 0.49999 0.0
C2238 C 0.18736 0.38682 0.51429 0.0
C2239 C 0.17617 0.38549 0.52146 0.0
C2240 C 0.1749 0.38318 0.53541 0.0
C2241 C 0.18466 0.38191 0.54271 0.0
C2242 C 0.19627 0.38374 0.53578 0.0
C2243 C 0.19765 0.38626 0.52157 0.0
C2244 C 0.27508 0.39584 0.48635 0.0
C2245 C 0.26211 0.38684 0.47797 0.0
O2246 O 0.13701 0.366 0.58821 0.0
O2247 O 0.14424 0.38395 0.47015 0.0
O2248 O 0.25635 0.39458 0.47482 0.0
O2249 O 0.24284 0.37113 0.58424 0.0
H2250 H 0.14251 0.3817 0.60241 0.0
H2251 H 0.13851 0.35358 0.61033 0.0
H2252 H 0.15458 0.36915 0.60792 0.0
H2253 H 0.14405 0.36837 0.62176 0.0
H2254 H 0.16066 0.39013 0.58931 0.0
H2255 H 0.13802 0.35036 0.56935 0.0
H2256 H 0.19198 0.39858 0.58105 0.0
H2257 H 0.18232 0.40696 0.58214 0.0
H2258 H 0.1881 0.40431 0.56581 0.0
H2259 H 0.14827 0.34188 0.55438 0.0
H2260 H 0.16652 0.35069 0.55431 0.0
H2261 H 0.15774 0.35504 0.5423 0.0
H2262 H 0.25295 0.38701 0.59826 0.0
H2263 H 0.2752 0.39702 0.58604 0.0
H2264 H 0.2622 0.39577 0.57499 0.0
H2265 H 0.2674 0.38335 0.57312 0.0
H2266 H 0.22231 0.35282 0.57033 0.0
H2267 H 0.24257 0.39484 0.58504 0.0
H2268 H 0.20303 0.3548 0.54508 0.0
H2269 H 0.19207 0.35075 0.55942 0.0
H2270 H 0.20209 0.34279 0.55733 0.0
H2271 H 0.23523 0.40991 0.57966 0.0
H2272 H 0.21706 0.4014 0.57787 0.0
H2273 H 0.22734 0.40638 0.56295 0.0
H2274 H 0.25527 0.37805 0.48443 0.0
H2275 H 0.23343 0.37092 0.4792 0.0
H2276 H 0.25317 0.41487 0.48149 0.0
H2277 H 0.20853 0.36302 0.50201 0.0
H2278 H 0.21088 0.35649 0.48591 0.0
H2279 H 0.20039 0.36401 0.4869 0.0
H2280 H 0.24275 0.4264 0.49092 0.0
H2281 H 0.23185 0.4174 0.50497 0.0
H2282 H 0.22457 0.41702 0.48872 0.0
H2283 H 0.15045 0.40278 0.46221 0.0
H2284 H 0.13418 0.40653 0.4762 0.0
H2285 H 0.14497 0.40361 0.48699 0.0
H2286 H 0.12776 0.38997 0.48378 0.0
H2287 H 0.14702 0.36392 0.47676 0.0
H2288 H 0.16646 0.40792 0.47854 0.0
H2289 H 0.16556 0.36029 0.50168 0.0
H2290 H 0.17549 0.36217 0.48689 0.0
H2291 H 0.15724 0.35233 0.48559 0.0
H2292 H 0.18736 0.42217 0.48957 0.0
H2293 H 0.19847 0.41538 0.48851 0.0
H2294 H 0.18994 0.41434 0.50414 0.0
H2295 H 0.19168 0.37494 0.5743 0.0
H2296 H 0.22597 0.38443 0.54113 0.0
H2297 H 0.22836 0.38883 0.51723 0.0
H2298 H 0.2005 0.39119 0.48224 0.0
H2299 H 0.16823 0.38614 0.51633 0.0
H2300 H 0.16606 0.3822 0.54038 0.0
H2301 H 0.27987 0.38986 0.48902 0.0
H2302 H 0.27265 0.39948 0.49598 0.0
H2303 H 0.28239 0.40496 0.48055 0.0
H2304 H 0.96961 0.34578 0.04308 0.0
H2305 H 0.97202 0.36107 0.06242 0.0
H2306 H 0.01541 0.38036 0.06092 0.0
H2307 H 0.01319 0.36514 0.04168 0.0
H2308 H 0.98839 0.36596 0.08919 0.0
H2309 H 0.00526 0.41161 0.05712 0.0
H2310 H 0.99556 0.3942 0.05019 0.0
H2311 H 0.01316 0.40162 0.05431 0.0
C2312 C 0.97967 0.35321 0.0469 0.0
C2313 C 0.99121 0.35426 0.04075 0.0
C2314 C 0.98101 0.36192 0.05795 0.0
C2315 C 0.99389 0.37189 0.06295 0.0
C2316 C 0.00539 0.37278 0.05709 0.0
H2317 H 0.0248 0.4399 0.12192 0.0
H2318 H 0.0216 0.42349 0.10339 0.0
C2319 C 0.00408 0.36403 0.04612 0.0
C2320 C 0.99535 0.38156 0.07415 0.0
H2321 H 0.00543 0.41515 0.08098 0.0
C2322 C 0.99205 0.37671 0.08744 0.0
C2323 C 1.00022 0.39555 0.07176 0.0
C2324 C 0.0037 0.40113 0.05758 0.0
C2325 C 0.99375 0.3856 0.09852 0.0
C2326 C 0.99852 0.39962 0.09613 0.0
C2327 C 0.00176 0.40442 0.08279 0.0
C2328 C 1.00036 0.40953 0.10734 0.0
C2329 C 0.9908 0.37998 0.11271 0.0
C2330 C 0.98943 0.40725 0.11554 0.0
C2331 C 0.99128 0.41652 0.12622 0.0
C2332 C 0.00405 0.42835 0.12874 0.0
C2333 C 0.01489 0.43081 0.12026 0.0
C2334 C 0.01306 0.42147 0.10967 0.0
H2335 H 0.99109 0.37037 0.11322 0.0
H2336 H 0.99817 0.3876 0.12031 0.0
H2337 H 0.98051 0.37753 0.11564 0.0
H2338 H 0.97946 0.39831 0.11369 0.0
H2339 H 0.98273 0.41443 0.13251 0.0
H2340 H 0.63834 0.61904 0.03406 0.0
H2341 H 0.62821 0.5996 0.04935 0.0
H2342 H 0.63265 0.62703 0.08304 0.0
H2343 H 0.64199 0.6463 0.0676 0.0
H2344 H 0.63519 0.59214 0.07106 0.0
H2345 H 0.59335 0.60032 0.08519 0.0
H2346 H 0.60514 0.60982 0.07198 0.0
H2347 H 0.60946 0.61508 0.08969 0.0
C2348 C 0.63722 0.62091 0.04475 0.0
C2349 C 0.64075 0.63411 0.04963 0.0
C2350 C 0.63143 0.6098 0.05349 0.0
C2351 C 0.62926 0.61175 0.06728 0.0
C2352 C 0.6337 0.62514 0.07234 0.0
H2353 H 0.60735 0.54958 0.12871 0.0
H2354 H 0.61953 0.56848 0.11315 0.0
C2355 C 0.63915 0.63617 0.06355 0.0
C2356 C 0.62203 0.59976 0.07625 0.0
H2357 H 0.59576 0.58445 0.09839 0.0
C2358 C 0.6265 0.5904 0.07697 0.0
C2359 C 0.61049 0.59728 0.08374 0.0
C2360 C 0.60424 0.60607 0.0825 0.0
C2361 C 0.61989 0.57875 0.08507 0.0
C2362 C 0.60882 0.57671 0.09315 0.0
C2363 C 0.6043 0.58603 0.09233 0.0
C2364 C 0.60157 0.56493 0.10239 0.0
C2365 C 0.62462 0.56859 0.0845 0.0
C2366 C 0.58736 0.55688 0.10193 0.0
C2367 C 0.58035 0.54645 0.1112 0.0
C2368 C 0.5874 0.54361 0.12104 0.0
C2369 C 0.60163 0.5515 0.12128 0.0
C2370 C 0.60862 0.56219 0.11224 0.0
H2371 H 0.62969 0.56907 0.0747 0.0
H2372 H 0.63212 0.57117 0.09285 0.0
H2373 H 0.61609 0.5579 0.0857 0.0
H2374 H 0.58165 0.55878 0.09447 0.0
H2375 H 0.5694 0.54071 0.11065 0.0
H2376 H 0.35742 0.97923 0.04605 0.0
H2377 H 0.3752 0.9864 0.06321 0.0
H2378 H 0.38948 0.02894 0.05569 0.0
H2379 H 0.37157 0.02187 0.03834 0.0
H2380 H 0.40384 0.00341 0.05853 0.0
H2381 H 0.38513 0.02556 0.09813 0.0
H2382 H 0.3743 0.01388 0.08465 0.0
H2383 H 0.38648 0.0314 0.08098 0.0
C2384 C 0.36424 0.99014 0.04804 0.0
C2385 C 0.36302 0.99998 0.04076 0.0
C2386 C 0.37444 0.9942 0.05787 0.0
C2387 C 0.3836 0.00817 0.06077 0.0
C2388 C 0.3824 0.01808 0.05368 0.0
H2389 H 0.45003 0.04383 0.12109 0.0
H2390 H 0.43442 0.04099 0.10256 0.0
C2391 C 0.37219 0.01402 0.04375 0.0
C2392 C 0.39457 0.01216 0.07097 0.0
H2393 H 0.40526 0.0259 0.10319 0.0
C2394 C 0.40422 0.00841 0.06826 0.0
C2395 C 0.39503 0.0187 0.08363 0.0
C2396 C 0.38466 0.02258 0.08715 0.0
C2397 C 0.41422 0.01087 0.07796 0.0
C2398 C 0.41443 0.01703 0.09077 0.0
C2399 C 0.40503 0.02114 0.09335 0.0
C2400 C 0.424 0.01877 0.10182 0.0
C2401 C 0.42447 0.00683 0.07442 0.0
C2402 C 0.42316 0.00721 0.10765 0.0
C2403 C 0.43202 0.0088 0.11822 0.0
C2404 C 0.44201 0.02201 0.12306 0.0
C2405 C 0.44266 0.03356 0.11733 0.0
C2406 C 0.43373 0.03195 0.10682 0.0
H2407 H 0.4251 0.00554 0.06321 0.0
H2408 H 0.43467 0.01465 0.07846 0.0
H2409 H 0.42146 0.99689 0.07913 0.0
H2410 H 0.41552 0.99694 0.10414 0.0
H2411 H 0.43099 0.9997 0.12268 0.0
H2412 H 0.35235 0.96989 0.97572 0.0
H2413 H 0.36733 0.97264 0.95681 0.0
H2414 H 0.379 0.01518 0.95415 0.0
H2415 H 0.36398 0.01257 0.97299 0.0
H2416 H 0.37327 0.0005 0.92845 0.0
H2417 H 0.40916 0.99423 0.9607 0.0
H2418 H 0.39176 0.98067 0.96173 0.0
H2419 H 0.39675 0.99773 0.96783 0.0
C2420 C 0.35803 0.97983 0.97109 0.0
C2421 C 0.35702 0.99104 0.97598 0.0
C2422 C 0.36664 0.98138 0.96033 0.0
C2423 C 0.37442 0.99416 0.95426 0.0
C2424 C 0.37313 0.00525 0.95878 0.0
H2425 H 0.44444 0.02121 0.90241 0.0
H2426 H 0.42867 0.01876 0.92051 0.0
C2427 C 0.36454 0.00373 0.96956 0.0
C2428 C 0.38406 0.99603 0.94332 0.0
H2429 H 0.41278 0.9953 0.93682 0.0
C2430 C 0.38192 0.99938 0.93025 0.0
C2431 C 0.39542 0.99475 0.94579 0.0
C2432 C 0.39853 0.99177 0.95979 0.0
C2433 C 0.39073 0.00124 0.91951 0.0
C2434 C 0.40188 0.99956 0.9219 0.0
C2435 C 0.40415 0.99646 0.93502 0.0
C2436 C 0.41135 0.00103 0.91092 0.0
C2437 C 0.38818 0.00515 0.90573 0.0
C2438 C 0.40682 0.9918 0.89963 0.0
C2439 C 0.41581 0.99311 0.88935 0.0
C2440 C 0.42952 0.00359 0.89027 0.0
C2441 C 0.43399 0.01288 0.90157 0.0
C2442 C 0.425 0.01153 0.91187 0.0
H2443 H 0.3812 0.00916 0.90642 0.0
H2444 H 0.39781 0.01307 0.90115 0.0
H2445 H 0.3835 0.99594 0.89876 0.0
H2446 H 0.39635 0.98354 0.89879 0.0
H2447 H 0.41206 0.98594 0.88067 0.0
H2448 H 0.02116 0.36732 0.97693 0.0
H2449 H 0.02756 0.38516 0.95993 0.0
H2450 H 0.9861 0.37499 0.95713 0.0
H2451 H 0.9796 0.35728 0.97385 0.0
H2452 H 0.01455 0.38088 0.93159 0.0
H2453 H 0.00995 0.41785 0.96615 0.0
H2454 H 0.01277 0.40468 0.97237 0.0
H2455 H 0.99616 0.40032 0.96678 0.0
C2456 C 0.01343 0.36891 0.97269 0.0
C2457 C 0.99987 0.36086 0.97678 0.0
C2458 C 0.01709 0.37907 0.96299 0.0
C2459 C 0.0073 0.38144 0.95743 0.0
C2460 C 0.99381 0.37339 0.96142 0.0
H2461 H 0.9942 0.42773 0.89892 0.0
H2462 H 0.99331 0.41246 0.9166 0.0
C2463 C 0.99013 0.36322 0.97096 0.0
C2464 C 0.01088 0.39216 0.94729 0.0
H2465 H 0.01036 0.42151 0.94226 0.0
C2466 C 0.0139 0.38991 0.93394 0.0
C2467 C 0.00992 0.40385 0.95042 0.0
C2468 C 0.00713 0.40694 0.96473 0.0
C2469 C 0.0154 0.39878 0.92346 0.0
C2470 C 0.01397 0.41021 0.92652 0.0
C2471 C 0.01138 0.41269 0.93996 0.0
C2472 C 0.01464 0.41945 0.9158 0.0
C2473 C 0.01791 0.39558 0.90908 0.0
C2474 C 0.02695 0.42845 0.90958 0.0
C2475 C 0.02752 0.43732 0.89962 0.0
C2476 C 0.01582 0.43739 0.89578 0.0
C2477 C 0.00345 0.42817 0.90189 0.0
C2478 C 0.00291 0.4194 0.91193 0.0
H2479 H 0.01681 0.38528 0.90806 0.0
H2480 H 0.01077 0.39601 0.90182 0.0
H2481 H 0.02833 0.40343 0.90611 0.0
H2482 H 0.03611 0.42866 0.91247 0.0
H2483 H 0.03712 0.44411 0.89488 0.0
H2484 H 0.64304 0.64745 0.97452 0.0
H2485 H 0.62834 0.63742 0.95425 0.0
H2486 H 0.59341 0.62644 0.97907 0.0
H2487 H 0.6081 0.63712 0.99912 0.0
H2488 H 0.609 0.61304 0.94687 0.0
H2489 H 0.58709 0.64625 0.95022 0.0
H2490 H 0.60117 0.64931 0.96083 0.0
H2491 H 0.58406 0.63695 0.96557 0.0
C2492 C 0.63222 0.6429 0.97561 0.0
C2493 C 0.6267 0.64322 0.98833 0.0
C2494 C 0.62383 0.63718 0.96404 0.0
C2495 C 0.60978 0.63152 0.96504 0.0
C2496 C 0.60424 0.63123 0.9779 0.0
H2497 H 0.54942 0.57443 0.90653 0.0
H2498 H 0.56616 0.5856 0.92487 0.0
C2499 C 0.61263 0.63723 0.98938 0.0
C2500 C 0.60089 0.62578 0.95271 0.0
H2501 H 0.57522 0.62602 0.93575 0.0
C2502 C 0.60171 0.61599 0.94435 0.0
C2503 C 0.59159 0.62985 0.94919 0.0
C2504 C 0.59103 0.64128 0.95684 0.0
C2505 C 0.59323 0.60986 0.93284 0.0
C2506 C 0.58325 0.61319 0.92993 0.0
C2507 C 0.58271 0.62328 0.93806 0.0
C2508 C 0.57319 0.60634 0.9186 0.0
C2509 C 0.59528 0.6001 0.92381 0.0
C2510 C 0.57115 0.61425 0.90921 0.0
C2511 C 0.5612 0.60788 0.89899 0.0
C2512 C 0.55314 0.59347 0.89784 0.0
C2513 C 0.55534 0.58556 0.90713 0.0
C2514 C 0.56509 0.59194 0.91753 0.0
H2515 H 0.60588 0.60244 0.9245 0.0
H2516 H 0.5886 0.58944 0.92725 0.0
H2517 H 0.59284 0.60057 0.91295 0.0
H2518 H 0.57723 0.62538 0.90982 0.0
H2519 H 0.55978 0.61423 0.89194 0.0
H2520 H 0.99421 0.64394 0.98009 0.0
H2521 H 0.99143 0.62902 0.96036 0.0
H2522 H 0.03281 0.63928 0.96501 0.0
H2523 H 0.03579 0.65437 0.98468 0.0
H2524 H 0.02488 0.63943 0.9377 0.0
H2525 H 0.98825 0.59143 0.96345 0.0
H2526 H 0.9837 0.60436 0.96339 0.0
H2527 H 0.99853 0.60759 0.97269 0.0
C2528 C 0.00275 0.64308 0.97693 0.0
C2529 C 0.0152 0.65028 0.98408 0.0
C2530 C 0.00112 0.63449 0.96567 0.0
C2531 C 0.01184 0.63287 0.9614 0.0
C2532 C 0.02438 0.64035 0.96822 0.0
H2533 H 0.02287 0.58363 0.89911 0.0
H2534 H 0.02603 0.60036 0.91726 0.0
C2535 C 0.02605 0.64896 0.97947 0.0
C2536 C 0.00994 0.62323 0.94994 0.0
H2537 H 0.99215 0.58929 0.94005 0.0
C2538 C 0.01775 0.62846 0.93819 0.0
C2539 C 0.00063 0.60894 0.95067 0.0
C2540 C 0.99237 0.60269 0.96326 0.0
C2541 C 0.01634 0.61977 0.92702 0.0
C2542 C 0.00705 0.60547 0.92776 0.0
C2543 C 0.99923 0.60026 0.93951 0.0
C2544 C 0.0053 0.59565 0.91653 0.0
C2545 C 0.02461 0.62601 0.91443 0.0
C2546 C 0.99256 0.58729 0.91029 0.0
C2547 C 0.99069 0.5776 0.90009 0.0
C2548 C 0.00149 0.57598 0.89605 0.0
C2549 C 0.01431 0.58451 0.90218 0.0
C2550 C 0.01617 0.59417 0.91243 0.0
H2551 H 0.02832 0.63718 0.91402 0.0
H2552 H 0.03355 0.6248 0.91458 0.0
H2553 H 0.01862 0.62079 0.90499 0.0
H2554 H 0.98405 0.58828 0.91333 0.0
H2555 H 0.98077 0.57132 0.89537 0.0
H2556 H 0.35912 0.38395 0.97601 0.0
H2557 H 0.36526 0.40259 0.9602 0.0
H2558 H 0.38326 0.38591 0.93331 0.0
H2559 H 0.37725 0.36732 0.94896 0.0
H2560 H 0.39337 0.42197 0.95019 0.0
H2561 H 0.35586 0.39078 0.90914 0.0
H2562 H 0.35383 0.38543 0.92663 0.0
H2563 H 0.36544 0.3837 0.91573 0.0
C2564 C 0.36431 0.38419 0.96669 0.0
C2565 C 0.36768 0.37411 0.96376 0.0
C2566 C 0.36784 0.39487 0.95771 0.0
C2567 C 0.37461 0.39553 0.94557 0.0
C2568 C 0.37792 0.38548 0.94257 0.0
H2569 H 0.4041 0.44567 0.87492 0.0
H2570 H 0.39777 0.4286 0.89253 0.0
C2571 C 0.3745 0.37489 0.95157 0.0
C2572 C 0.37853 0.40686 0.93609 0.0
H2573 H 0.37294 0.41341 0.90376 0.0
C2574 C 0.38885 0.42018 0.94007 0.0
C2575 C 0.37262 0.4044 0.92292 0.0
C2576 C 0.36125 0.39033 0.91832 0.0
C2577 C 0.39375 0.43107 0.93101 0.0
C2578 C 0.38794 0.42859 0.91775 0.0
C2579 C 0.37743 0.41529 0.9139 0.0
C2580 C 0.3927 0.43952 0.90756 0.0
C2581 C 0.4054 0.445 0.93556 0.0
C2582 C 0.39203 0.45137 0.91019 0.0
C2583 C 0.39578 0.46121 0.90018 0.0
C2584 C 0.40012 0.45928 0.88732 0.0
C2585 C 0.40089 0.44747 0.88477 0.0
C2586 C 0.39723 0.4377 0.8948 0.0
H2587 H 0.41098 0.4443 0.94442 0.0
H2588 H 0.41262 0.44999 0.92712 0.0
H2589 H 0.40143 0.45171 0.93873 0.0
H2590 H 0.38827 0.45285 0.91983 0.0
H2591 H 0.39496 0.47015 0.90234 0.0
H2592 H 0.62754 0.98435 0.98208 0.0
H2593 H 0.60976 0.97624 0.96436 0.0
H2594 H 0.63403 0.01364 0.9427 0.0
H2595 H 0.65171 0.0218 0.9602 0.0
H2596 H 0.59641 0.99106 0.95686 0.0
H2597 H 0.62196 0.98256 0.91299 0.0
H2598 H 0.62713 0.98311 0.93052 0.0
H2599 H 0.63227 0.9988 0.92189 0.0
C2600 C 0.62916 0.99074 0.97342 0.0
C2601 C 0.64103 0.00373 0.97256 0.0
C2602 C 0.61899 0.98611 0.96336 0.0
C2603 C 0.62066 0.99429 0.95218 0.0
C2604 C 0.63263 0.00708 0.95114 0.0
H2605 H 0.5814 0.0044 0.88453 0.0
H2606 H 0.59615 0.00502 0.90279 0.0
C2607 C 0.64269 0.01176 0.96122 0.0
C2608 C 0.60967 0.99009 0.94197 0.0
H2609 H 0.60325 0.98532 0.90764 0.0
C2610 C 0.59774 0.98953 0.94612 0.0
C2611 C 0.61149 0.98813 0.92799 0.0
C2612 C 0.62385 0.98805 0.92306 0.0
C2613 C 0.58793 0.98787 0.93653 0.0
C2614 C 0.59005 0.98653 0.92247 0.0
C2615 C 0.6017 0.98645 0.91841 0.0
C2616 C 0.58081 0.98611 0.91172 0.0
C2617 C 0.57575 0.98832 0.94143 0.0
C2618 C 0.5673 0.97525 0.91068 0.0
C2619 C 0.55882 0.97493 0.90029 0.0
C2620 C 0.56373 0.98548 0.89079 0.0
C2621 C 0.57729 0.99626 0.89183 0.0
C2622 C 0.58573 0.99659 0.90221 0.0
H2623 H 0.57697 0.99212 0.95222 0.0
H2624 H 0.57386 0.99504 0.93495 0.0
H2625 H 0.56668 0.97781 0.94072 0.0
H2626 H 0.56338 0.96692 0.91774 0.0
H2627 H 0.54849 0.96636 0.89954 0.0
H2628 H 0.65099 0.03835 0.03682 0.0
H2629 H 0.63686 0.03684 0.05609 0.0
H2630 H 0.62548 0.99466 0.06136 0.0
H2631 H 0.63946 0.99596 0.042 0.0
H2632 H 0.60356 0.99879 0.06084 0.0
H2633 H 0.6437 0.03588 0.09698 0.0
H2634 H 0.64426 0.0425 0.0804 0.0
H2635 H 0.6473 0.0286 0.0821 0.0
C2636 C 0.64559 0.02876 0.04212 0.0
C2637 C 0.64639 0.01727 0.03783 0.0
C2638 C 0.63757 0.02796 0.05319 0.0
C2639 C 0.63028 0.0157 0.06026 0.0
C2640 C 0.63109 0.00424 0.05607 0.0
H2641 H 0.57211 0.98838 0.12611 0.0
H2642 H 0.58718 0.99003 0.10764 0.0
C2643 C 0.6391 0.00501 0.045 0.0
C2644 C 0.62128 0.01463 0.07159 0.0
H2645 H 0.62098 0.02812 0.1031 0.0
C2646 C 0.60736 0.00514 0.07012 0.0
C2647 C 0.62629 0.02297 0.08364 0.0
C2648 C 0.64122 0.03298 0.08598 0.0
C2649 C 0.59824 0.00394 0.08029 0.0
C2650 C 0.60324 0.01228 0.09235 0.0
C2651 C 0.61718 0.02176 0.09383 0.0
C2652 C 0.59417 0.01129 0.10357 0.0
C2653 C 0.58331 0.99398 0.07788 0.0
C2654 C 0.59342 0.02282 0.10769 0.0
C2655 C 0.58488 0.02192 0.11828 0.0
C2656 C 0.57687 0.00944 0.12489 0.0
C2657 C 0.5779 0.99801 0.12095 0.0
C2658 C 0.58647 0.99893 0.1104 0.0
H2659 H 0.58087 0.99116 0.06686 0.0
H2660 H 0.58021 0.98441 0.08338 0.0
H2661 H 0.57723 0.99837 0.08176 0.0
H2662 H 0.59941 0.0325 0.10265 0.0
H2663 H 0.58454 0.03098 0.12133 0.0
H2664 H 0.98491 0.64129 0.04934 0.0
H2665 H 0.97671 0.62363 0.06671 0.0
H2666 H 0.01507 0.62561 0.06629 0.0
H2667 H 0.02342 0.64341 0.04947 0.0
H2668 H 0.97307 0.59844 0.06655 0.0
H2669 H 0.01122 0.62994 0.10635 0.0
H2670 H 0.00889 0.63734 0.09131 0.0
H2671 H 0.01933 0.62979 0.09078 0.0
C2672 C 0.9916 0.638 0.05304 0.0
C2673 C 0.00488 0.64391 0.04816 0.0
C2674 C 0.98691 0.62792 0.06296 0.0
C2675 C 0.99541 0.62355 0.06809 0.0
C2676 C 0.00849 0.62915 0.06289 0.0
H2677 H 0.97523 0.54711 0.10371 0.0
H2678 H 0.97943 0.5658 0.0889 0.0
C2679 C 0.01323 0.6393 0.05318 0.0
C2680 C 0.99062 0.61284 0.07855 0.0
H2681 H 1.00023 0.60536 0.10842 0.0
C2682 C 0.97889 0.60001 0.07582 0.0
C2683 C 0.99801 0.61495 0.09081 0.0
C2684 C 0.00997 0.62881 0.09505 0.0
C2685 C 0.97475 0.58904 0.08466 0.0
C2686 C 0.98282 0.59082 0.09631 0.0
C2687 C 0.99416 0.60386 0.09937 0.0
C2688 C 0.97997 0.5793 0.1053 0.0
C2689 C 0.96173 0.57571 0.08143 0.0
C2690 C 0.97936 0.58079 0.11952 0.0
C2691 C 0.97741 0.57028 0.12806 0.0
C2692 C 0.97604 0.55804 0.12258 0.0
C2693 C 0.97645 0.55647 0.10831 0.0
C2694 C 0.97863 0.56708 0.09979 0.0
H2695 H 0.95461 0.57751 0.07551 0.0
H2696 H 0.96396 0.5689 0.07506 0.0
H2697 H 0.95663 0.57031 0.09086 0.0
H2698 H 0.98039 0.59011 0.12404 0.0
H2699 H 0.97692 0.57168 0.13899 0.0
H2700 H 0.39777 0.36134 0.02028 0.0
H2701 H 0.41072 0.37152 0.04138 0.0
H2702 H 0.37997 0.37924 0.05627 0.0
H2703 H 0.36676 0.3689 0.03518 0.0
H2704 H 0.42093 0.39823 0.05347 0.0
H2705 H 0.38372 0.35668 0.08645 0.0
H2706 H 0.38326 0.35477 0.06807 0.0
H2707 H 0.37728 0.36498 0.07619 0.0
C2708 C 0.39371 0.3652 0.028 0.0
C2709 C 0.38114 0.36419 0.02604 0.0
C2710 C 0.40118 0.37106 0.04004 0.0
C2711 C 0.39623 0.37598 0.05043 0.0
C2712 C 0.38386 0.37531 0.04844 0.0
H2713 H 0.42991 0.40275 0.13331 0.0
H2714 H 0.41657 0.39897 0.11243 0.0
C2715 C 0.37636 0.36945 0.03635 0.0
C2716 C 0.404 0.3815 0.0634 0.0
H2717 H 0.40354 0.37444 0.09711 0.0
C2718 C 0.4171 0.39311 0.06305 0.0
C2719 C 0.39894 0.37481 0.07587 0.0
C2720 C 0.38507 0.36206 0.07675 0.0
C2721 C 0.4254 0.39807 0.0748 0.0
C2722 C 0.42051 0.39108 0.08715 0.0
C2723 C 0.40724 0.37977 0.08762 0.0
C2724 C 0.42928 0.39471 0.09946 0.0
C2725 C 0.43932 0.4107 0.07388 0.0
C2726 C 0.44081 0.39356 0.09907 0.0
C2727 C 0.44842 0.39571 0.11094 0.0
C2728 C 0.44466 0.39912 0.12342 0.0
C2729 C 0.43317 0.40039 0.12377 0.0
C2730 C 0.42554 0.3982 0.11188 0.0
H2731 H 0.43998 0.4171 0.06521 0.0
H2732 H 0.44214 0.4171 0.08347 0.0
H2733 H 0.44683 0.40749 0.0722 0.0
H2734 H 0.44367 0.39051 0.08966 0.0
H2735 H 0.45703 0.39434 0.11044 0.0
H2736 H 0.67267 0.70275 0.37651 0.0
H2737 H 0.66952 0.71398 0.39678 0.0
H2738 H 0.62692 0.69418 0.38726 0.0
H2739 H 0.62986 0.68293 0.36717 0.0
H2740 H 0.65865 0.73179 0.39725 0.0
H2741 H 0.62796 0.68549 0.42769 0.0
H2742 H 0.63814 0.68575 0.41351 0.0
H2743 H 0.62179 0.68363 0.41049 0.0
C2744 C 0.66261 0.70071 0.37879 0.0
C2745 C 0.65152 0.69191 0.37019 0.0
C2746 C 0.66085 0.70714 0.39035 0.0
C2747 C 0.64796 0.70473 0.39359 0.0
C2748 C 0.6369 0.69597 0.38507 0.0
H2749 H 0.60604 0.73066 0.44606 0.0
H2750 H 0.61412 0.72036 0.42914 0.0
C2751 C 0.63864 0.68961 0.37352 0.0
C2752 C 0.64595 0.71177 0.40551 0.0
H2753 H 0.6271 0.70551 0.43426 0.0
C2754 C 0.65195 0.72611 0.40549 0.0
C2755 C 0.63721 0.70429 0.41622 0.0
C2756 C 0.631 0.68895 0.41709 0.0
C2757 C 0.64882 0.7331 0.41552 0.0
C2758 C 0.63962 0.72553 0.4259 0.0
C2759 C 0.63407 0.71126 0.42622 0.0
C2760 C 0.63499 0.73206 0.43608 0.0
C2761 C 0.65485 0.74841 0.41455 0.0
C2762 C 0.64405 0.74197 0.44566 0.0
C2763 C 0.63946 0.74792 0.45529 0.0
C2764 C 0.62575 0.74409 0.45547 0.0
C2765 C 0.6167 0.734 0.44599 0.0
C2766 C 0.62129 0.72807 0.43638 0.0
H2767 H 0.65964 0.75225 0.40451 0.0
H2768 H 0.64698 0.75115 0.41616 0.0
H2769 H 0.66272 0.75382 0.42265 0.0
H2770 H 0.65461 0.74497 0.44579 0.0
H2771 H 0.64659 0.75544 0.46269 0.0
H2772 H 0.2882 0.97443 0.39926 0.0
H2773 H 0.27929 0.95642 0.41612 0.0
H2774 H 0.30003 0.93817 0.39647 0.0
H2775 H 0.30914 0.95618 0.37967 0.0
H2776 H 0.26292 0.92807 0.41108 0.0
H2777 H 0.31116 0.94101 0.43662 0.0
H2778 H 0.30975 0.95279 0.42573 0.0
H2779 H 0.31109 0.93886 0.41838 0.0
C2780 C 0.29098 0.96666 0.39857 0.0
C2781 C 0.29943 0.9668 0.3881 0.0
C2782 C 0.28585 0.95637 0.40821 0.0
C2783 C 0.28915 0.94608 0.40765 0.0
C2784 C 0.29759 0.94618 0.39725 0.0
H2785 H 0.26512 0.87268 0.45338 0.0
H2786 H 0.27469 0.89113 0.43687 0.0
C2787 C 0.30272 0.95646 0.38761 0.0
C2788 C 0.2833 0.93491 0.41759 0.0
H2789 H 0.29163 0.91984 0.44232 0.0
C2790 C 0.26918 0.92631 0.41798 0.0
C2791 C 0.29152 0.93262 0.42652 0.0
C2792 C 0.30672 0.94187 0.42692 0.0
C2793 C 0.26304 0.91533 0.42691 0.0
C2794 C 0.27125 0.91304 0.43582 0.0
C2795 C 0.28537 0.92162 0.43544 0.0
C2796 C 0.26535 0.90184 0.44572 0.0
C2797 C 0.24783 0.90609 0.42653 0.0
C2798 C 0.25711 0.9019 0.45626 0.0
C2799 C 0.25163 0.89139 0.46565 0.0
C2800 C 0.25424 0.88058 0.46464 0.0
C2801 C 0.26272 0.88072 0.45423 0.0
C2802 C 0.26823 0.89126 0.44485 0.0
H2803 H 0.24334 0.90711 0.41695 0.0
H2804 H 0.24482 0.89515 0.42748 0.0
H2805 H 0.2435 0.90893 0.43525 0.0
H2806 H 0.25504 0.91016 0.4573 0.0
H2807 H 0.24541 0.89173 0.47377 0.0
H2808 H 0.03632 0.32097 0.39019 0.0
H2809 H 0.05499 0.33233 0.40674 0.0
H2810 H 0.07045 0.37058 0.38617 0.0
H2811 H 0.05172 0.3594 0.36966 0.0
H2812 H 0.08244 0.34521 0.4014 0.0
H2813 H 0.07 0.38194 0.42601 0.0
H2814 H 0.05801 0.36744 0.41542 0.0
H2815 H 0.07116 0.38273 0.40774 0.0
C2816 C 0.04361 0.33183 0.38922 0.0
C2817 C 0.04247 0.33926 0.37858 0.0
C2818 C 0.05429 0.3383 0.39869 0.0
C2819 C 0.06401 0.35233 0.39779 0.0
C2820 C 0.06291 0.35981 0.38723 0.0
H2821 H 0.13835 0.40637 0.44434 0.0
H2822 H 0.11991 0.39659 0.42725 0.0
C2823 C 0.05221 0.35336 0.37775 0.0
C2824 C 0.07561 0.35896 0.40756 0.0
H2825 H 0.09109 0.3845 0.43213 0.0
C2826 C 0.08431 0.35377 0.40815 0.0
C2827 C 0.07806 0.37018 0.41629 0.0
C2828 C 0.06876 0.37585 0.41646 0.0
C2829 C 0.09543 0.35953 0.41721 0.0
C2830 C 0.0978 0.37066 0.42601 0.0
C2831 C 0.08922 0.37598 0.42533 0.0
C2832 C 0.10891 0.37662 0.43631 0.0
C2833 C 0.10465 0.35378 0.4172 0.0
C2834 C 0.10866 0.36868 0.44715 0.0
C2835 C 0.11912 0.37423 0.45688 0.0
C2836 C 0.13011 0.38779 0.45588 0.0
C2837 C 0.13017 0.39581 0.44518 0.0
C2838 C 0.11964 0.39027 0.43547 0.0
H2839 H 0.10337 0.34755 0.40774 0.0
H2840 H 0.11541 0.36216 0.41818 0.0
H2841 H 0.10225 0.34704 0.42605 0.0
H2842 H 0.10031 0.35822 0.44813 0.0
H2843 H 0.11862 0.36792 0.46521 0.0
H2844 H 0.02355 0.29506 0.31803 0.0
H2845 H 0.03423 0.29152 0.29814 0.0
H2846 H 0.05268 0.33434 0.28875 0.0
H2847 H 0.04207 0.3381 0.3088 0.0
H2848 H 0.0313 0.29657 0.27036 0.0
H2849 H 0.08467 0.3274 0.28915 0.0
H2850 H 0.07045 0.32167 0.30042 0.0
H2851 H 0.07509 0.33585 0.28954 0.0
C2852 C 0.0299 0.30379 0.31181 0.0
C2853 C 0.03198 0.3169 0.31509 0.0
C2854 C 0.03598 0.30172 0.30041 0.0
C2855 C 0.04434 0.31269 0.29207 0.0
C2856 C 0.04641 0.32578 0.2952 0.0
H2857 H 0.08986 0.3119 0.22064 0.0
H2858 H 0.0799 0.31909 0.23879 0.0
C2859 C 0.04029 0.32789 0.30662 0.0
C2860 C 0.05065 0.3102 0.28002 0.0
H2861 H 0.08094 0.31678 0.26728 0.0
C2862 C 0.04216 0.30104 0.26964 0.0
C2863 C 0.06481 0.3161 0.2791 0.0
C2864 C 0.07434 0.32574 0.29016 0.0
C2865 C 0.04744 0.29748 0.25842 0.0
C2866 C 0.06157 0.30304 0.25771 0.0
C2867 C 0.07011 0.31251 0.26789 0.0
C2868 C 0.06763 0.29873 0.24677 0.0
C2869 C 0.03785 0.28783 0.2474 0.0
C2870 C 0.06415 0.28494 0.24538 0.0
C2871 C 0.06983 0.28083 0.23508 0.0
C2872 C 0.07927 0.29047 0.22611 0.0
C2873 C 0.08277 0.30429 0.22755 0.0
C2874 C 0.07707 0.3084 0.23786 0.0
H2875 H 0.02815 0.28768 0.24741 0.0
H2876 H 0.04242 0.29077 0.23714 0.0
H2877 H 0.03554 0.27724 0.24925 0.0
H2878 H 0.05704 0.27736 0.25229 0.0
H2879 H 0.06685 0.2701 0.23412 0.0
H2880 H 0.69466 0.71151 0.31714 0.0
H2881 H 0.70633 0.73125 0.30228 0.0
H2882 H 0.66849 0.71918 0.28205 0.0
H2883 H 0.65675 0.69956 0.29677 0.0
H2884 H 0.70726 0.73206 0.27272 0.0
H2885 H 0.6832 0.75948 0.29528 0.0
H2886 H 0.68332 0.74558 0.30366 0.0
H2887 H 0.67138 0.74195 0.29007 0.0
C2888 C 0.68882 0.71302 0.3095 0.0
C2889 C 0.67473 0.70398 0.30826 0.0
C2890 C 0.69551 0.72431 0.30103 0.0
C2891 C 0.68822 0.72679 0.29125 0.0
C2892 C 0.67426 0.71759 0.28972 0.0
H2893 H 0.69993 0.78212 0.22806 0.0
H2894 H 0.69198 0.76389 0.24464 0.0
C2895 C 0.66757 0.70633 0.29813 0.0
C2896 C 0.69506 0.739 0.28262 0.0
H2897 H 0.69452 0.76767 0.27417 0.0
C2898 C 0.70463 0.73996 0.27313 0.0
C2899 C 0.69162 0.74928 0.28323 0.0
C2900 C 0.68191 0.74914 0.29369 0.0
C2901 C 0.71041 0.75065 0.2638 0.0
C2902 C 0.70661 0.76067 0.26414 0.0
C2903 C 0.69734 0.75992 0.2739 0.0
C2904 C 0.71165 0.77171 0.25409 0.0
C2905 C 0.72012 0.75088 0.25332 0.0
C2906 C 0.72534 0.78217 0.25397 0.0
C2907 C 0.72989 0.79268 0.24458 0.0
C2908 C 0.72079 0.79296 0.23525 0.0
C2909 C 0.70712 0.78234 0.23531 0.0
C2910 C 0.70258 0.7719 0.24473 0.0
H2911 H 0.72016 0.74111 0.25287 0.0
H2912 H 0.7175 0.75275 0.24302 0.0
H2913 H 0.73052 0.7594 0.25597 0.0
H2914 H 0.73247 0.78225 0.2612 0.0
H2915 H 0.74051 0.8006 0.2446 0.0
H2916 H 0.2987 0.96362 0.31791 0.0
H2917 H 0.28306 0.95155 0.29867 0.0
H2918 H 0.26077 0.97135 0.30941 0.0
H2919 H 0.27614 0.98331 0.32865 0.0
H2920 H 0.24458 0.94242 0.30484 0.0
H2921 H 0.28053 0.96831 0.26255 0.0
H2922 H 0.28572 0.96084 0.27533 0.0
H2923 H 0.28397 0.97526 0.27986 0.0
C2924 C 0.2905 0.96545 0.31616 0.0
C2925 C 0.28871 0.97446 0.32486 0.0
C2926 C 0.28162 0.95859 0.30512 0.0
C2927 C 0.27086 0.96067 0.30257 0.0
C2928 C 0.26904 0.96963 0.3112 0.0
H2929 H 0.20488 0.93781 0.24744 0.0
H2930 H 0.22164 0.94634 0.26603 0.0
C2931 C 0.27788 0.97648 0.3222 0.0
C2932 C 0.26118 0.95333 0.29113 0.0
H2933 H 0.25811 0.95144 0.25636 0.0
C2934 C 0.24754 0.94432 0.29424 0.0
C2935 C 0.26512 0.95579 0.27733 0.0
C2936 C 0.2796 0.96564 0.27348 0.0
C2937 C 0.23766 0.93787 0.28389 0.0
C2938 C 0.24152 0.9407 0.2701 0.0
C2939 C 0.25522 0.94934 0.26696 0.0
C2940 C 0.23135 0.93537 0.25886 0.0
C2941 C 0.22317 0.92812 0.2878 0.0
C2942 C 0.23149 0.92666 0.24851 0.0
C2943 C 0.22191 0.92176 0.23787 0.0
C2944 C 0.21206 0.92554 0.23742 0.0
C2945 C 0.21216 0.9345 0.24768 0.0
C2946 C 0.2217 0.93935 0.25831 0.0
H2947 H 0.2225 0.92412 0.29818 0.0
H2948 H 0.21758 0.93367 0.28785 0.0
H2949 H 0.21809 0.91929 0.28037 0.0
H2950 H 0.23897 0.92361 0.24869 0.0
H2951 H 0.22221 0.91507 0.22995 0.0
H2952 H 0.66601 0.96487 0.31048 0.0
H2953 H 0.66996 0.95355 0.29087 0.0
H2954 H 0.70997 0.96705 0.30644 0.0
H2955 H 0.70616 0.97826 0.32604 0.0
H2956 H 0.69086 0.96634 0.27152 0.0
H2957 H 0.69399 0.92575 0.29837 0.0
H2958 H 0.68661 0.93501 0.306 0.0
H2959 H 0.70469 0.94268 0.3058 0.0
C2960 C 0.67561 0.96533 0.3098 0.0
C2961 C 0.68575 0.97247 0.31988 0.0
C2962 C 0.67784 0.95886 0.29858 0.0
C2963 C 0.69017 0.95928 0.29734 0.0
C2964 C 0.70028 0.96636 0.30736 0.0
H2965 H 0.73502 0.94109 0.23986 0.0
H2966 H 0.72565 0.94682 0.2597 0.0
C2967 C 0.6981 0.97286 0.31852 0.0
C2968 C 0.69288 0.95301 0.28522 0.0
H2969 H 0.70272 0.93034 0.27569 0.0
C2970 C 0.69325 0.95832 0.27236 0.0
C2971 C 0.69601 0.94257 0.2864 0.0
C2972 C 0.69519 0.93606 0.29987 0.0
C2973 C 0.6973 0.95392 0.26073 0.0
C2974 C 0.70082 0.94376 0.26198 0.0
C2975 C 0.70005 0.93815 0.27478 0.0
C2976 C 0.70602 0.93936 0.25028 0.0
C2977 C 0.69838 0.96064 0.24733 0.0
C2978 C 0.69798 0.933 0.23855 0.0
C2979 C 0.70332 0.92975 0.22722 0.0
C2980 C 0.71672 0.93263 0.22751 0.0
C2981 C 0.72462 0.93864 0.23942 0.0
C2982 C 0.71929 0.94192 0.25073 0.0
H2983 H 0.69818 0.97028 0.24874 0.0
H2984 H 0.70784 0.96305 0.24202 0.0
H2985 H 0.6897 0.95346 0.2406 0.0
H2986 H 0.68765 0.93075 0.23809 0.0
H2987 H 0.69705 0.92519 0.21814 0.0
H2988 H 0.06271 0.72455 0.30906 0.0
H2989 H 0.06832 0.7427 0.29296 0.0
H2990 H 0.02647 0.73164 0.29177 0.0
H2991 H 0.02098 0.71394 0.30853 0.0
H2992 H 0.06099 0.74082 0.26809 0.0
H2993 H 0.0437 0.77205 0.29568 0.0
H2994 H 0.04486 0.75863 0.30379 0.0
H2995 H 0.03027 0.7545 0.29342 0.0
C2996 C 0.05474 0.72612 0.3055 0.0
C2997 C 0.04142 0.71788 0.31007 0.0
C2998 C 0.05795 0.73649 0.29628 0.0
C2999 C 0.04787 0.73872 0.29123 0.0
C3000 C 0.03452 0.73046 0.29579 0.0
H3001 H 0.05497 0.77776 0.21422 0.0
H3002 H 0.05086 0.76183 0.23243 0.0
C3003 C 0.03137 0.72027 0.3053 0.0
C3004 C 0.05129 0.74909 0.2806 0.0
H3005 H 0.04817 0.77625 0.27189 0.0
C3006 C 0.05828 0.74865 0.26901 0.0
C3007 C 0.04797 0.75947 0.28182 0.0
C3008 C 0.04142 0.7613 0.29442 0.0
C3009 C 0.0619 0.75811 0.25859 0.0
C3010 C 0.05791 0.76799 0.25945 0.0
C3011 C 0.0511 0.76859 0.27112 0.0
C3012 C 0.06059 0.7777 0.24832 0.0
C3013 C 0.07023 0.75757 0.24694 0.0
C3014 C 0.067 0.79191 0.25122 0.0
C3015 C 0.06908 0.801 0.24086 0.0
C3016 C 0.06498 0.79608 0.22732 0.0
C3017 C 0.05854 0.78186 0.22448 0.0
C3018 C 0.05625 0.77276 0.23487 0.0
H3019 H 0.07622 0.75294 0.25007 0.0
H3020 H 0.06338 0.75105 0.23844 0.0
H3021 H 0.0773 0.76798 0.24309 0.0
H3022 H 0.07032 0.79596 0.26154 0.0
H3023 H 0.07377 0.81185 0.24349 0.0
H3024 H 0.3033 0.34896 0.29405 0.0
H3025 H 0.28524 0.33676 0.27706 0.0
H3026 H 0.26848 0.29991 0.30025 0.0
H3027 H 0.28658 0.31206 0.31747 0.0
H3028 H 0.2786 0.31149 0.26179 0.0
H3029 H 0.23631 0.30658 0.29365 0.0
H3030 H 0.25382 0.31898 0.29777 0.0
H3031 H 0.24707 0.30111 0.30081 0.0
C3032 C 0.2958 0.33827 0.29561 0.0
C3033 C 0.29639 0.33152 0.30719 0.0
C3034 C 0.28548 0.33131 0.28586 0.0
C3035 C 0.27546 0.3175 0.28749 0.0
C3036 C 0.27604 0.31064 0.29892 0.0
H3037 H 0.20435 0.26646 0.23477 0.0
H3038 H 0.22081 0.27493 0.25378 0.0
C3039 C 0.28643 0.31758 0.3087 0.0
C3040 C 0.2646 0.31038 0.277 0.0
H3041 H 0.23102 0.29789 0.27097 0.0
C3042 C 0.26817 0.30843 0.2638 0.0
C3043 C 0.25101 0.30632 0.27972 0.0
C3044 C 0.24674 0.30839 0.29372 0.0
C3045 C 0.25854 0.30269 0.25315 0.0
C3046 C 0.24505 0.29915 0.25569 0.0
C3047 C 0.24138 0.3007 0.26902 0.0
C3048 C 0.23475 0.29425 0.24455 0.0
C3049 C 0.26293 0.3004 0.23928 0.0
C3050 C 0.23695 0.30247 0.23325 0.0
C3051 C 0.22763 0.29763 0.2224 0.0
C3052 C 0.21582 0.28457 0.22271 0.0
C3053 C 0.21338 0.27657 0.23427 0.0
C3054 C 0.22276 0.28138 0.24511 0.0
H3055 H 0.27209 0.29957 0.24006 0.0
H3056 H 0.25475 0.29093 0.23406 0.0
H3057 H 0.26546 0.30928 0.23284 0.0
H3058 H 0.24596 0.31258 0.23276 0.0
H3059 H 0.22977 0.30404 0.21365 0.0
H3060 H 0.30069 0.33555 0.37907 0.0
H3061 H 0.28977 0.3386 0.39926 0.0
H3062 H 0.29935 0.37833 0.38551 0.0
H3063 H 0.31011 0.3754 0.36536 0.0
H3064 H 0.30161 0.35995 0.41955 0.0
H3065 H 0.25876 0.35927 0.39337 0.0
H3066 H 0.2687 0.353 0.38522 0.0
H3067 H 0.2749 0.37115 0.38628 0.0
C3068 C 0.30039 0.34489 0.38028 0.0
C3069 C 0.30625 0.35519 0.37052 0.0
C3070 C 0.29415 0.34662 0.39183 0.0
C3071 C 0.29355 0.35859 0.39374 0.0
C3072 C 0.29944 0.36888 0.38408 0.0
H3073 H 0.27277 0.40033 0.45405 0.0
H3074 H 0.27948 0.39217 0.43383 0.0
C3075 C 0.30568 0.3672 0.37259 0.0
C3076 C 0.28732 0.36072 0.4061 0.0
H3077 H 0.26354 0.36831 0.41639 0.0
C3078 C 0.29316 0.36157 0.41891 0.0
C3079 C 0.2763 0.36284 0.4052 0.0
C3080 C 0.2692 0.36139 0.39179 0.0
C3081 C 0.28866 0.36512 0.4308 0.0
C3082 C 0.27791 0.36766 0.42983 0.0
C3083 C 0.27182 0.36642 0.41707 0.0
C3084 C 0.27324 0.37222 0.44186 0.0
C3085 C 0.2958 0.36668 0.44421 0.0
C3086 C 0.26731 0.36362 0.45294 0.0
C3087 C 0.26342 0.36824 0.46446 0.0
C3088 C 0.26525 0.38148 0.46502 0.0
C3089 C 0.27104 0.39 0.45381 0.0
C3090 C 0.2749 0.38537 0.44229 0.0
H3091 H 0.30557 0.36711 0.44275 0.0
H3092 H 0.29778 0.37615 0.44991 0.0
H3093 H 0.28926 0.35776 0.45059 0.0
H3094 H 0.2658 0.35338 0.45273 0.0
H3095 H 0.25914 0.36153 0.47302 0.0
H3096 H 0.68155 0.97294 0.39569 0.0
H3097 H 0.67094 0.95487 0.41239 0.0
H3098 H 0.63418 0.93467 0.38818 0.0
H3099 H 0.64468 0.95268 0.37135 0.0
H3100 H 0.64598 0.94664 0.42703 0.0
H3101 H 0.6436 0.90428 0.39476 0.0
H3102 H 0.65469 0.9222 0.39102 0.0
H3103 H 0.63691 0.91387 0.38727 0.0
C3104 C 0.67121 0.96466 0.39387 0.0
C3105 C 0.664 0.96427 0.38213 0.0
C3106 C 0.66517 0.95435 0.40344 0.0
C3107 C 0.65185 0.94337 0.40141 0.0
C3108 C 0.64455 0.94297 0.38981 0.0
H3109 H 0.60022 0.87115 0.44886 0.0
H3110 H 0.6101 0.88824 0.43101 0.0
C3111 C 0.65055 0.95332 0.38025 0.0
C3112 C 0.64555 0.93251 0.41163 0.0
H3113 H 0.63363 0.8985 0.41652 0.0
C3114 C 0.64329 0.93611 0.42476 0.0
C3115 C 0.64198 0.91879 0.40857 0.0
C3116 C 0.64448 0.9145 0.39468 0.0
C3117 C 0.63744 0.92631 0.43493 0.0
C3118 C 0.63412 0.91263 0.43197 0.0
C3119 C 0.63625 0.909 0.41878 0.0
C3120 C 0.62846 0.90197 0.44248 0.0
C3121 C 0.63463 0.93066 0.44864 0.0
C3122 C 0.63566 0.90383 0.45467 0.0
C3123 C 0.63001 0.89416 0.46488 0.0
C3124 C 0.61714 0.88231 0.463 0.0
C3125 C 0.61016 0.88019 0.45056 0.0
C3126 C 0.61578 0.88993 0.44039 0.0
H3127 H 0.63405 0.9401 0.44797 0.0
H3128 H 0.62501 0.92238 0.4529 0.0
H3129 H 0.64298 0.93296 0.45588 0.0
H3130 H 0.64561 0.91286 0.45636 0.0
H3131 H 0.63563 0.89603 0.47433 0.0
H3132 H 0.03463 0.706 0.38178 0.0
H3133 H 0.04641 0.71456 0.40395 0.0
H3134 H 0.08064 0.71335 0.38791 0.0
H3135 H 0.06909 0.70481 0.36595 0.0
H3136 H 0.06955 0.69894 0.41284 0.0
H3137 H 0.08039 0.7528 0.41541 0.0
H3138 H 0.06341 0.73923 0.41107 0.0
H3139 H 0.07687 0.74315 0.39942 0.0
C3140 C 0.04474 0.70773 0.38293 0.0
C3141 C 0.05086 0.70461 0.37209 0.0
C3142 C 0.05146 0.71266 0.39558 0.0
C3143 C 0.06441 0.71463 0.39751 0.0
C3144 C 0.07065 0.71189 0.38662 0.0
H3145 H 0.12566 0.73344 0.45746 0.0
H3146 H 0.11126 0.72782 0.43714 0.0
C3147 C 0.06398 0.70697 0.37406 0.0
C3148 C 0.07128 0.71863 0.41103 0.0
H3149 H 0.08847 0.74576 0.43364 0.0
C3150 C 0.0736 0.70914 0.41746 0.0
C3151 C 0.07643 0.7319 0.41704 0.0
C3152 C 0.07426 0.74245 0.41041 0.0
C3153 C 0.08124 0.71266 0.42958 0.0
C3154 C 0.08695 0.72614 0.43527 0.0
C3155 C 0.08418 0.73548 0.42916 0.0
C3156 C 0.09621 0.73077 0.44728 0.0
C3157 C 0.08316 0.70192 0.43615 0.0
C3158 C 0.09277 0.73482 0.45956 0.0
C3159 C 0.10109 0.73821 0.47114 0.0
C3160 C 0.11304 0.73777 0.47058 0.0
C3161 C 0.11661 0.73405 0.45816 0.0
C3162 C 0.10833 0.73072 0.44658 0.0
H3163 H 0.07511 0.69134 0.43291 0.0
H3164 H 0.09303 0.7033 0.43302 0.0
H3165 H 0.08317 0.70288 0.44747 0.0
H3166 H 0.08346 0.73493 0.46028 0.0
H3167 H 0.09802 0.74086 0.48064 0.0
H3168 H 0.33832 0.04258 0.70351 0.0
H3169 H 0.33511 0.05399 0.72355 0.0
H3170 H 0.29212 0.03188 0.71552 0.0
H3171 H 0.29512 0.02041 0.69563 0.0
H3172 H 0.32283 0.07052 0.72421 0.0
H3173 H 0.29531 0.02461 0.756 0.0
H3174 H 0.30518 0.02513 0.74143 0.0
H3175 H 0.28841 0.02214 0.73903 0.0
C3176 C 0.32817 0.04008 0.70605 0.0
C3177 C 0.31698 0.03053 0.69795 0.0
C3178 C 0.32637 0.04663 0.71749 0.0
C3179 C 0.31336 0.04362 0.7211 0.0
C3180 C 0.30221 0.03416 0.71304 0.0
H3181 H 0.27269 0.06826 0.77747 0.0
H3182 H 0.28 0.05828 0.7594 0.0
C3183 C 0.30398 0.02766 0.70161 0.0
C3184 C 0.31133 0.0506 0.73304 0.0
H3185 H 0.29409 0.04428 0.76293 0.0
C3186 C 0.31672 0.06485 0.73279 0.0
C3187 C 0.30335 0.04314 0.74419 0.0
C3188 C 0.29782 0.02793 0.74529 0.0
C3189 C 0.3138 0.07175 0.74311 0.0
C3190 C 0.30545 0.06419 0.75403 0.0
C3191 C 0.30043 0.05002 0.75449 0.0
C3192 C 0.30128 0.07063 0.76478 0.0
C3193 C 0.31919 0.08693 0.74197 0.0
C3194 C 0.31082 0.08081 0.77384 0.0
C3195 C 0.30667 0.08657 0.78414 0.0
C3196 C 0.2929 0.08228 0.78549 0.0
C3197 C 0.28338 0.07196 0.77649 0.0
C3198 C 0.28753 0.06621 0.76622 0.0
H3199 H 0.32313 0.09062 0.73162 0.0
H3200 H 0.31117 0.08931 0.74432 0.0
H3201 H 0.32758 0.09275 0.74948 0.0
H3202 H 0.32144 0.08414 0.77308 0.0
H3203 H 0.31418 0.09427 0.79114 0.0
H3204 H 0.97882 0.28658 0.70069 0.0
H3205 H 0.9709 0.26742 0.71622 0.0
H3206 H 0.94623 0.28046 0.73701 0.0
H3207 H 0.9539 0.29947 0.72158 0.0
H3208 H 0.97214 0.26731 0.74533 0.0
H3209 H 0.91923 0.24011 0.72576 0.0
H3210 H 0.93308 0.25374 0.71666 0.0
H3211 H 0.92555 0.25774 0.73076 0.0
C3212 C 0.97173 0.2854 0.70859 0.0
C3213 C 0.96689 0.29451 0.70977 0.0
C3214 C 0.96723 0.27445 0.71744 0.0
C3215 C 0.95779 0.27239 0.72757 0.0
C3216 C 0.9533 0.2817 0.72906 0.0
H3217 H 0.91592 0.21878 0.79308 0.0
H3218 H 0.92614 0.23692 0.77634 0.0
C3219 C 0.95775 0.29261 0.72024 0.0
C3220 C 0.95249 0.26049 0.73659 0.0
H3221 H 0.92308 0.23244 0.74674 0.0
C3222 C 0.96145 0.25958 0.74555 0.0
C3223 C 0.93854 0.2504 0.73679 0.0
C3224 C 0.92855 0.25043 0.72689 0.0
C3225 C 0.95671 0.24913 0.75512 0.0
C3226 C 0.9427 0.23933 0.75559 0.0
C3227 C 0.93381 0.24004 0.74639 0.0
C3228 C 0.93693 0.22851 0.76586 0.0
C3229 C 0.96662 0.24891 0.76497 0.0
C3230 C 0.93962 0.21778 0.76546 0.0
C3231 C 0.93369 0.20734 0.77494 0.0
C3232 C 0.92488 0.20739 0.78487 0.0
C3233 C 0.92243 0.21831 0.78536 0.0
C3234 C 0.9283 0.22869 0.77586 0.0
H3235 H 0.97668 0.25854 0.76484 0.0
H3236 H 0.96268 0.2474 0.77554 0.0
H3237 H 0.96797 0.24016 0.76216 0.0
H3238 H 0.94618 0.21741 0.75774 0.0
H3239 H 0.93592 0.19917 0.77447 0.0
H3240 H 0.69087 0.6647 0.72688 0.0
H3241 H 0.70926 0.67638 0.74374 0.0
H3242 H 0.73703 0.69882 0.71157 0.0
H3243 H 0.7184 0.68785 0.69487 0.0
H3244 H 0.72987 0.67473 0.74693 0.0
H3245 H 0.74899 0.72954 0.73815 0.0
H3246 H 0.7334 0.71601 0.7305 0.0
H3247 H 0.74941 0.72096 0.7227 0.0
C3248 C 0.70087 0.67233 0.72348 0.0
C3249 C 0.70323 0.67545 0.70962 0.0
C3250 C 0.71139 0.67899 0.7331 0.0
C3251 C 0.72458 0.68868 0.72903 0.0
C3252 C 0.72692 0.69178 0.71512 0.0
H3253 H 0.79386 0.70417 0.77825 0.0
H3254 H 0.77588 0.6963 0.76124 0.0
C3255 C 0.71629 0.68542 0.70554 0.0
C3256 C 0.73595 0.69467 0.73919 0.0
H3257 H 0.76383 0.72463 0.75059 0.0
C3258 C 0.73719 0.68568 0.7478 0.0
C3259 C 0.74546 0.70897 0.74056 0.0
C3260 C 0.74416 0.71942 0.73258 0.0
C3261 C 0.74764 0.6905 0.75759 0.0
C3262 C 0.75765 0.70468 0.75833 0.0
C3263 C 0.75632 0.71373 0.74988 0.0
C3264 C 0.76941 0.71032 0.76796 0.0
C3265 C 0.74753 0.68031 0.76725 0.0
C3266 C 0.77243 0.72149 0.77688 0.0
C3267 C 0.78313 0.72642 0.78633 0.0
C3268 C 0.79091 0.72017 0.78724 0.0
C3269 C 0.78809 0.70923 0.77802 0.0
C3270 C 0.77764 0.70456 0.76834 0.0
H3271 H 0.73714 0.67135 0.76847 0.0
H3272 H 0.75385 0.67635 0.76302 0.0
H3273 H 0.75158 0.68511 0.7775 0.0
H3274 H 0.76634 0.72622 0.77673 0.0
H3275 H 0.78512 0.73494 0.79319 0.0
H3276 H 0.70238 0.67194 0.64022 0.0
H3277 H 0.71319 0.66849 0.62014 0.0
H3278 H 0.69484 0.62558 0.62904 0.0
H3279 H 0.68401 0.62883 0.64898 0.0
H3280 H 0.73123 0.65768 0.61985 0.0
H3281 H 0.68481 0.62564 0.58838 0.0
H3282 H 0.68545 0.63638 0.60267 0.0
H3283 H 0.68369 0.61996 0.60553 0.0
C3284 C 0.70057 0.66175 0.63786 0.0
C3285 C 0.69229 0.65066 0.64623 0.0
C3286 C 0.70678 0.65982 0.6264 0.0
C3287 C 0.70466 0.64675 0.62304 0.0
C3288 C 0.69642 0.6357 0.63134 0.0
H3289 H 0.72956 0.60555 0.56651 0.0
H3290 H 0.7197 0.6129 0.58455 0.0
C3291 C 0.6903 0.63761 0.6428 0.0
C3292 C 0.71133 0.64458 0.61111 0.0
H3293 H 0.70463 0.62561 0.58139 0.0
C3294 C 0.72547 0.65083 0.61132 0.0
C3295 C 0.70375 0.63563 0.60004 0.0
C3296 C 0.68859 0.6291 0.59903 0.0
C3297 C 0.73219 0.64785 0.60104 0.0
C3298 C 0.72455 0.63857 0.59018 0.0
C3299 C 0.71045 0.63267 0.58977 0.0
C3300 C 0.73088 0.63437 0.57942 0.0
C3301 C 0.74732 0.6542 0.60219 0.0
C3302 C 0.74035 0.644 0.57049 0.0
C3303 C 0.74605 0.63983 0.56022 0.0
C3304 C 0.74239 0.62596 0.55873 0.0
C3305 C 0.73276 0.61633 0.56758 0.0
C3306 C 0.72708 0.62051 0.57784 0.0
H3307 H 0.75124 0.65866 0.61259 0.0
H3308 H 0.7502 0.64645 0.5997 0.0
H3309 H 0.75234 0.66257 0.59481 0.0
H3310 H 0.74318 0.65469 0.57133 0.0
H3311 H 0.75321 0.6474 0.55334 0.0
H3312 H 0.31755 0.03839 0.62846 0.0
H3313 H 0.32802 0.05881 0.61449 0.0
H3314 H 0.3676 0.06734 0.62645 0.0
H3315 H 0.35729 0.04701 0.64054 0.0
H3316 H 0.3483 0.08696 0.62714 0.0
H3317 H 0.36751 0.07029 0.58297 0.0
H3318 H 0.35339 0.05819 0.59303 0.0
H3319 H 0.37028 0.0662 0.59984 0.0
C3320 C 0.32848 0.04448 0.62798 0.0
C3321 C 0.33657 0.04107 0.63568 0.0
C3322 C 0.33443 0.05615 0.62001 0.0
C3323 C 0.34855 0.06449 0.61941 0.0
C3324 C 0.35668 0.06092 0.6267 0.0
H3325 H 0.40896 0.14342 0.57362 0.0
H3326 H 0.3962 0.11868 0.58928 0.0
C3327 C 0.35075 0.04933 0.63478 0.0
C3328 C 0.3548 0.07752 0.61205 0.0
H3329 H 0.37348 0.09357 0.58412 0.0
C3330 C 0.35372 0.0884 0.61767 0.0
C3331 C 0.36206 0.07939 0.59987 0.0
C3332 C 0.36338 0.06791 0.59346 0.0
C3333 C 0.35988 0.10123 0.61152 0.0
C3334 C 0.36687 0.10301 0.59912 0.0
C3335 C 0.36803 0.09214 0.59355 0.0
C3336 C 0.3732 0.11606 0.59183 0.0
C3337 C 0.35929 0.11281 0.61878 0.0
C3338 C 0.36362 0.12429 0.58878 0.0
C3339 C 0.37096 0.1401 0.57976 0.0
C3340 C 0.38744 0.14519 0.57159 0.0
C3341 C 0.39893 0.13945 0.5777 0.0
C3342 C 0.39066 0.12367 0.58683 0.0
H3343 H 0.35846 0.11144 0.63 0.0
H3344 H 0.36838 0.12297 0.61678 0.0
H3345 H 0.35015 0.11278 0.61526 0.0
H3346 H 0.35326 0.11958 0.59211 0.0
H3347 H 0.36495 0.14446 0.57689 0.0
H3348 H 0.94099 0.30777 0.65101 0.0
H3349 H 0.92874 0.2975 0.62967 0.0
H3350 H 0.95992 0.28973 0.61641 0.0
H3351 H 0.97242 0.30004 0.63796 0.0
H3352 H 0.93999 0.30707 0.60257 0.0
H3353 H 0.92296 0.25208 0.61066 0.0
H3354 H 0.92798 0.2644 0.62478 0.0
H3355 H 0.94053 0.26496 0.61354 0.0
C3356 C 0.94531 0.30386 0.64364 0.0
C3357 C 0.95775 0.30478 0.64623 0.0
C3358 C 0.93825 0.29798 0.63142 0.0
C3359 C 0.94341 0.29283 0.62152 0.0
C3360 C 0.95573 0.29354 0.62403 0.0
H3361 H 0.89782 0.25114 0.54574 0.0
H3362 H 0.91579 0.26074 0.56334 0.0
C3363 C 0.96285 0.29946 0.63632 0.0
C3364 C 0.93587 0.28717 0.60847 0.0
H3365 H 0.91427 0.25698 0.59139 0.0
C3366 C 0.93451 0.29614 0.6 0.0
C3367 C 0.92887 0.27294 0.60512 0.0
C3368 C 0.93004 0.26294 0.61398 0.0
C3369 C 0.92587 0.29119 0.58853 0.0
C3370 C 0.91816 0.27686 0.58567 0.0
C3371 C 0.9201 0.26795 0.5937 0.0
C3372 C 0.90734 0.27091 0.57505 0.0
C3373 C 0.92492 0.30137 0.57973 0.0
C3374 C 0.89653 0.27324 0.57597 0.0
C3375 C 0.88635 0.26784 0.56597 0.0
C3376 C 0.88662 0.25979 0.55496 0.0
C3377 C 0.89734 0.25725 0.55417 0.0
C3378 C 0.90758 0.26273 0.56418 0.0
H3379 H 0.93432 0.31165 0.58049 0.0
H3380 H 0.92303 0.29782 0.56884 0.0
H3381 H 0.91643 0.30256 0.58328 0.0
H3382 H 0.89598 0.27926 0.58445 0.0
H3383 H 0.87825 0.27 0.56683 0.0
H3384 H 0.3363 0.30471 0.64738 0.0
H3385 H 0.3388 0.29316 0.62705 0.0
H3386 H 0.3802 0.30786 0.63865 0.0
H3387 H 0.37782 0.31924 0.659 0.0
H3388 H 0.3572 0.30442 0.60551 0.0
H3389 H 0.36423 0.26645 0.63295 0.0
H3390 H 0.35771 0.27627 0.64114 0.0
H3391 H 0.37561 0.28392 0.63862 0.0
C3392 C 0.34593 0.30546 0.64564 0.0
C3393 C 0.35682 0.31282 0.65492 0.0
C3394 C 0.34734 0.29886 0.63401 0.0
C3395 C 0.3596 0.29944 0.6315 0.0
C3396 C 0.37055 0.307 0.64057 0.0
H3397 H 0.39435 0.27258 0.56905 0.0
H3398 H 0.38934 0.28238 0.58923 0.0
C3399 C 0.36917 0.31357 0.65218 0.0
C3400 C 0.36114 0.2924 0.61927 0.0
H3401 H 0.36948 0.26869 0.60926 0.0
C3402 C 0.35975 0.2965 0.6063 0.0
C3403 C 0.36447 0.28209 0.62037 0.0
C3404 C 0.36547 0.27681 0.63401 0.0
C3405 C 0.36206 0.29089 0.59437 0.0
C3406 C 0.36563 0.28076 0.59549 0.0
C3407 C 0.36679 0.2765 0.60845 0.0
C3408 C 0.3685 0.27465 0.58334 0.0
C3409 C 0.3611 0.29616 0.58071 0.0
C3410 C 0.3584 0.26693 0.57345 0.0
C3411 C 0.36123 0.26132 0.56195 0.0
C3412 C 0.37418 0.26319 0.56022 0.0
C3413 C 0.38425 0.27085 0.57021 0.0
C3414 C 0.38141 0.27646 0.5817 0.0
H3415 H 0.36139 0.30608 0.58178 0.0
H3416 H 0.36946 0.2976 0.57397 0.0
H3417 H 0.35138 0.28854 0.57561 0.0
H3418 H 0.34832 0.26524 0.57464 0.0
H3419 H 0.35332 0.25555 0.55437 0.0
H3420 H 0.72702 0.04732 0.62651 0.0
H3421 H 0.73489 0.0662 0.61079 0.0
H3422 H 0.69574 0.06252 0.61206 0.0
H3423 H 0.68809 0.04413 0.62842 0.0
H3424 H 0.72778 0.06734 0.58648 0.0
H3425 H 0.7188 0.10271 0.61838 0.0
H3426 H 0.71746 0.08744 0.62506 0.0
H3427 H 0.70348 0.08643 0.61578 0.0
C3428 C 0.72011 0.0506 0.6235 0.0
C3429 C 0.70696 0.0443 0.62875 0.0
C3430 C 0.72463 0.0614 0.61451 0.0
C3431 C 0.71602 0.06602 0.61041 0.0
C3432 C 0.70275 0.05951 0.61541 0.0
H3433 H 0.72646 0.1106 0.5367 0.0
H3434 H 0.72124 0.09337 0.55381 0.0
C3435 C 0.69833 0.0489 0.62466 0.0
C3436 C 0.72082 0.07728 0.60052 0.0
H3437 H 0.72251 0.10761 0.5946 0.0
C3438 C 0.72674 0.07621 0.58835 0.0
C3439 C 0.71976 0.08904 0.603 0.0
C3440 C 0.71467 0.09156 0.61634 0.0
C3441 C 0.73134 0.08637 0.5785 0.0
C3442 C 0.72944 0.09764 0.58057 0.0
C3443 C 0.72381 0.09889 0.59288 0.0
C3444 C 0.73296 0.10814 0.57005 0.0
C3445 C 0.73844 0.08498 0.56613 0.0
C3446 C 0.74089 0.12223 0.57355 0.0
C3447 C 0.74357 0.13211 0.56385 0.0
C3448 C 0.73856 0.12809 0.55038 0.0
C3449 C 0.73069 0.11398 0.54691 0.0
C3450 C 0.72779 0.10413 0.55667 0.0
H3451 H 0.74331 0.07897 0.56839 0.0
H3452 H 0.73091 0.07938 0.55779 0.0
H3453 H 0.74631 0.09518 0.56245 0.0
H3454 H 0.7449 0.1256 0.58384 0.0
H3455 H 0.74944 0.14288 0.56698 0.0
H3456 H 0.96525 0.68173 0.6264 0.0
H3457 H 0.94764 0.67056 0.60873 0.0
H3458 H 0.92655 0.63441 0.63287 0.0
H3459 H 0.94412 0.64547 0.65068 0.0
H3460 H 0.9389 0.64422 0.59451 0.0
H3461 H 0.89773 0.64508 0.62348 0.0
H3462 H 0.91539 0.65613 0.6281 0.0
H3463 H 0.90669 0.63823 0.63198 0.0
C3464 C 0.95687 0.67141 0.62801 0.0
C3465 C 0.95609 0.66453 0.64002 0.0
C3466 C 0.94682 0.66505 0.61787 0.0
C3467 C 0.93573 0.65175 0.61958 0.0
C3468 C 0.93494 0.64477 0.63146 0.0
H3469 H 0.86487 0.60037 0.56735 0.0
H3470 H 0.88124 0.60991 0.58644 0.0
C3471 C 0.94504 0.65109 0.64159 0.0
C3472 C 0.92515 0.64515 0.60877 0.0
H3473 H 0.89215 0.63444 0.6015 0.0
C3474 C 0.92867 0.64206 0.59602 0.0
C3475 C 0.91181 0.64228 0.61084 0.0
C3476 C 0.90762 0.64566 0.62429 0.0
C3477 C 0.91918 0.63614 0.58525 0.0
C3478 C 0.90592 0.63359 0.58718 0.0
C3479 C 0.90233 0.63647 0.60002 0.0
C3480 C 0.89572 0.62815 0.57592 0.0
C3481 C 0.92341 0.63248 0.57196 0.0
C3482 C 0.89827 0.63541 0.56383 0.0
C3483 C 0.88899 0.62998 0.55295 0.0
C3484 C 0.87686 0.61727 0.55401 0.0
C3485 C 0.87411 0.61022 0.56629 0.0
C3486 C 0.88344 0.61564 0.57717 0.0
H3487 H 0.9323 0.6313 0.57342 0.0
H3488 H 0.91501 0.62279 0.56729 0.0
H3489 H 0.92629 0.64085 0.56469 0.0
H3490 H 0.90754 0.64523 0.56276 0.0
H3491 H 0.89138 0.63562 0.54361 0.0
H3492 H 0.95863 0.66971 0.71299 0.0
H3493 H 0.94877 0.67501 0.73271 0.0
H3494 H 0.9599 0.71407 0.71583 0.0
H3495 H 0.96967 0.70891 0.69614 0.0
H3496 H 0.96305 0.69805 0.75098 0.0
H3497 H 0.91997 0.69801 0.72603 0.0
H3498 H 0.9285 0.69 0.7182 0.0
H3499 H 0.93581 0.70831 0.71763 0.0
C3500 C 0.95884 0.67936 0.71339 0.0
C3501 C 0.96496 0.68888 0.70296 0.0
C3502 C 0.95321 0.68236 0.72467 0.0
C3503 C 0.95343 0.69484 0.72561 0.0
C3504 C 0.95938 0.70426 0.71517 0.0
H3505 H 0.94021 0.74463 0.78312 0.0
H3506 H 0.94386 0.73355 0.7631 0.0
C3507 C 0.96506 0.70133 0.70396 0.0
C3508 C 0.94835 0.69853 0.73792 0.0
H3509 H 0.92656 0.70882 0.74829 0.0
C3510 C 0.95493 0.7002 0.75047 0.0
C3511 C 0.9378 0.70138 0.73716 0.0
C3512 C 0.93001 0.69922 0.72406 0.0
C3513 C 0.95167 0.70525 0.76218 0.0
C3514 C 0.94134 0.70844 0.76135 0.0
C3515 C 0.93449 0.70639 0.74888 0.0
C3516 C 0.93801 0.71458 0.77316 0.0
C3517 C 0.95972 0.70773 0.77518 0.0
C3518 C 0.93319 0.70745 0.78531 0.0
C3519 C 0.93113 0.71377 0.79675 0.0
C3520 C 0.93367 0.72725 0.79615 0.0
C3521 C 0.93806 0.73419 0.78381 0.0
C3522 C 0.94015 0.72788 0.7724 0.0
H3523 H 0.96921 0.7077 0.77328 0.0
H3524 H 0.96237 0.71773 0.78019 0.0
H3525 H 0.95355 0.69947 0.78237 0.0
H3526 H 0.93126 0.69709 0.78604 0.0
H3527 H 0.92781 0.70822 0.80615 0.0
H3528 H 0.31316 0.29492 0.70838 0.0
H3529 H 0.30053 0.27576 0.72368 0.0
H3530 H 0.33796 0.2839 0.74209 0.0
H3531 H 0.35067 0.30297 0.72689 0.0
H3532 H 0.31907 0.25543 0.73467 0.0
H3533 H 0.29592 0.27978 0.7655 0.0
H3534 H 0.2938 0.27928 0.74726 0.0
H3535 H 0.31038 0.28957 0.75479 0.0
C3536 C 0.31872 0.29267 0.7157 0.0
C3537 C 0.33296 0.30056 0.71642 0.0
C3538 C 0.31147 0.28174 0.72445 0.0
C3539 C 0.31832 0.27851 0.73407 0.0
C3540 C 0.33249 0.28625 0.73474 0.0
H3541 H 0.29259 0.23174 0.80701 0.0
H3542 H 0.30358 0.2489 0.78942 0.0
C3543 C 0.33974 0.29719 0.72606 0.0
C3544 C 0.31082 0.26707 0.74352 0.0
H3545 H 0.29001 0.25731 0.77107 0.0
C3546 C 0.31264 0.25578 0.74259 0.0
C3547 C 0.30255 0.26765 0.75388 0.0
C3548 C 0.30057 0.27974 0.75556 0.0
C3549 C 0.30647 0.24505 0.75183 0.0
C3550 C 0.29823 0.24564 0.7622 0.0
C3551 C 0.29632 0.25689 0.76307 0.0
C3552 C 0.29192 0.23498 0.77263 0.0
C3553 C 0.30911 0.23336 0.75068 0.0
C3554 C 0.28173 0.22149 0.769 0.0
C3555 C 0.27547 0.21166 0.77903 0.0
C3556 C 0.27936 0.21516 0.79285 0.0
C3557 C 0.28958 0.22869 0.79642 0.0
C3558 C 0.2958 0.2385 0.78641 0.0
H3559 H 0.31767 0.23573 0.7438 0.0
H3560 H 0.31137 0.23095 0.76089 0.0
H3561 H 0.29993 0.22403 0.74651 0.0
H3562 H 0.27843 0.21864 0.75845 0.0
H3563 H 0.26739 0.2014 0.77603 0.0
H3564 H 0.70323 0.04095 0.69915 0.0
H3565 H 0.71674 0.05177 0.72002 0.0
H3566 H 0.74479 0.03931 0.70745 0.0
H3567 H 0.73156 0.02865 0.68663 0.0
H3568 H 0.72288 0.03871 0.74032 0.0
H3569 H 0.76971 0.08019 0.71743 0.0
H3570 H 0.75377 0.07104 0.70821 0.0
H3571 H 0.76414 0.06355 0.70973 0.0
C3572 C 0.71235 0.04063 0.70076 0.0
C3573 C 0.71631 0.03395 0.69117 0.0
C3574 C 0.72004 0.04681 0.71269 0.0
C3575 C 0.73188 0.04654 0.71515 0.0
C3576 C 0.73586 0.03991 0.70561 0.0
H3577 H 0.78922 0.06153 0.77786 0.0
H3578 H 0.7758 0.0568 0.75689 0.0
C3579 C 0.72819 0.03372 0.69374 0.0
C3580 C 0.73975 0.05245 0.72802 0.0
H3581 H 0.77169 0.07456 0.7404 0.0
C3582 C 0.73349 0.04672 0.7404 0.0
C3583 C 0.75359 0.06288 0.72806 0.0
C3584 C 0.76068 0.06988 0.71516 0.0
C3585 C 0.74089 0.05064 0.75274 0.0
C3586 C 0.75486 0.06072 0.75269 0.0
C3587 C 0.761 0.0668 0.74039 0.0
C3588 C 0.76343 0.06447 0.76516 0.0
C3589 C 0.73387 0.04349 0.76561 0.0
C3590 C 0.76109 0.07059 0.77664 0.0
C3591 C 0.76874 0.07331 0.78861 0.0
C3592 C 0.77898 0.07009 0.78924 0.0
C3593 C 0.7815 0.06426 0.7776 0.0
C3594 C 0.77384 0.06154 0.76565 0.0
H3595 H 0.72387 0.03408 0.7634 0.0
H3596 H 0.7402 0.0406 0.77148 0.0
H3597 H 0.73219 0.05059 0.77217 0.0
H3598 H 0.75322 0.0731 0.77639 0.0
H3599 H 0.76653 0.07772 0.79746 0.0
H3600 H 0.04849 0.3538 0.02281 0.0
H3601 H 0.06463 0.35134 0.03709 0.0
H3602 H 0.03145 0.31531 0.05478 0.0
H3603 H 0.01545 0.3177 0.04081 0.0
H3604 H 0.05099 0.33453 0.07404 0.0
H3605 H 0.07374 0.32036 0.03111 0.0
H3606 H 0.07344 0.336 0.03 0.0
H3607 H 0.05786 0.31972 0.02922 0.0
C3608 C 0.04468 0.34542 0.0298 0.0
C3609 C 0.03071 0.33591 0.03063 0.0
C3610 C 0.05389 0.34399 0.03789 0.0
C3611 C 0.04921 0.33308 0.04691 0.0
C3612 C 0.03527 0.3238 0.0479 0.0
H3613 H 0.07666 0.27847 0.08137 0.0
H3614 H 0.06638 0.29284 0.06641 0.0
C3615 C 0.02614 0.32518 0.03985 0.0
C3616 C 0.05857 0.33088 0.0553 0.0
H3617 H 0.07971 0.31822 0.05338 0.0
C3618 C 0.05752 0.33125 0.06957 0.0
C3619 C 0.06688 0.32641 0.04938 0.0
C3620 C 0.06807 0.32549 0.03409 0.0
C3621 C 0.06405 0.32664 0.07808 0.0
C3622 C 0.07213 0.32187 0.07213 0.0
C3623 C 0.07361 0.32201 0.0579 0.0
C3624 C 0.07779 0.31519 0.08022 0.0
C3625 C 0.0614 0.32604 0.09322 0.0
C3626 C 0.0878 0.32367 0.09547 0.0
C3627 C 0.09402 0.31522 0.10587 0.0
C3628 C 0.09183 0.299 0.09806 0.0
C3629 C 0.07862 0.28845 0.08491 0.0
C3630 C 0.0729 0.29778 0.07524 0.0
H3631 H 0.05213 0.32637 0.09553 0.0
H3632 H 0.06023 0.31655 0.09752 0.0
H3633 H 0.07004 0.33507 0.09849 0.0
H3634 H 0.09019 0.33394 0.09838 0.0
H3635 H 0.10089 0.32057 0.11439 0.0
H3636 H 0.66235 0.69638 0.03072 0.0
H3637 H 0.67156 0.71707 0.04542 0.0
H3638 H 0.69689 0.70533 0.0661 0.0
H3639 H 0.68813 0.68489 0.05096 0.0
H3640 H 0.6716 0.7216 0.07183 0.0
H3641 H 0.72464 0.74333 0.05531 0.0
H3642 H 0.71067 0.72842 0.04695 0.0
H3643 H 0.71768 0.72678 0.06268 0.0
C3644 C 0.66986 0.69819 0.03843 0.0
C3645 C 0.67465 0.68913 0.03961 0.0
C3646 C 0.67511 0.71001 0.04683 0.0
C3647 C 0.68515 0.71293 0.05667 0.0
C3648 C 0.68947 0.70353 0.0583 0.0
H3649 H 0.70614 0.78247 0.12416 0.0
H3650 H 0.69503 0.75611 0.10988 0.0
C3651 C 0.68438 0.6918 0.04973 0.0
C3652 C 0.69113 0.72591 0.06502 0.0
H3653 H 0.72098 0.75515 0.07349 0.0
C3654 C 0.6824 0.72896 0.0722 0.0
C3655 C 0.7052 0.73562 0.06528 0.0
C3656 C 0.71508 0.73346 0.05704 0.0
C3657 C 0.68731 0.74147 0.07954 0.0
C3658 C 0.70144 0.75097 0.08017 0.0
C3659 C 0.71016 0.74788 0.07307 0.0
C3660 C 0.70747 0.76441 0.0876 0.0
C3661 C 0.67718 0.74452 0.08588 0.0
C3662 C 0.72083 0.77936 0.07937 0.0
C3663 C 0.72883 0.79605 0.08781 0.0
C3664 C 0.72043 0.7969 0.10374 0.0
C3665 C 0.70972 0.7816 0.11418 0.0
C3666 C 0.70235 0.76535 0.10489 0.0
H3667 H 0.66717 0.73858 0.08061 0.0
H3668 H 0.67567 0.74145 0.09669 0.0
H3669 H 0.68062 0.75559 0.08548 0.0
H3670 H 0.72398 0.77833 0.06922 0.0
H3671 H 0.73591 0.8052 0.08249 0.0
H3672 H 0.31193 0.99965 0.0426 0.0
H3673 H 0.29226 0.98545 0.0566 0.0
H3674 H 0.28568 0.94903 0.03455 0.0
H3675 H 0.30534 0.96324 0.02033 0.0
H3676 H 0.26269 0.9509 0.03638 0.0
H3677 H 0.28694 0.95979 0.08739 0.0
H3678 H 0.29166 0.97544 0.07895 0.0
H3679 H 0.2964 0.9638 0.07174 0.0
C3680 C 0.3064 0.9886 0.04083 0.0
C3681 C 0.31016 0.98255 0.03036 0.0
C3682 C 0.29522 0.98049 0.04891 0.0
C3683 C 0.28763 0.96617 0.04675 0.0
C3684 C 0.29147 0.96007 0.03644 0.0
H3685 H 0.2096 0.9056 0.08112 0.0
H3686 H 0.23127 0.91625 0.06923 0.0
C3687 C 0.30269 0.96819 0.02834 0.0
C3688 C 0.27513 0.95777 0.0546 0.0
H3689 H 0.26296 0.95038 0.08702 0.0
C3690 C 0.26274 0.9506 0.04744 0.0
C3691 C 0.27525 0.95746 0.06903 0.0
C3692 C 0.28829 0.96443 0.07723 0.0
C3693 C 0.25042 0.94358 0.05435 0.0
C3694 C 0.25053 0.94356 0.06879 0.0
C3695 C 0.26293 0.95046 0.07595 0.0
C3696 C 0.23783 0.93692 0.07664 0.0
C3697 C 0.23736 0.9367 0.04616 0.0
C3698 C 0.23454 0.94497 0.08501 0.0
C3699 C 0.22224 0.93891 0.09188 0.0
C3700 C 0.21309 0.92466 0.09063 0.0
C3701 C 0.21654 0.91658 0.08241 0.0
C3702 C 0.22884 0.92265 0.07554 0.0
H3703 H 0.23894 0.9401 0.03544 0.0
H3704 H 0.23296 0.9254 0.04597 0.0
H3705 H 0.22989 0.9389 0.05091 0.0
H3706 H 0.24135 0.95601 0.08596 0.0
H3707 H 0.21976 0.9454 0.09798 0.0
H3708 H 0.3209 0.01578 0.97527 0.0
H3709 H 0.31823 0.03246 0.96278 0.0
H3710 H 0.35243 0.06565 0.98462 0.0
H3711 H 0.35516 0.04884 0.99738 0.0
H3712 H 0.32916 0.0679 0.98428 0.0
H3713 H 0.34081 0.05751 0.9321 0.0
H3714 H 0.32871 0.04205 0.94029 0.0
H3715 H 0.34565 0.05219 0.94718 0.0
C3716 C 0.32798 0.02662 0.97736 0.0
C3717 C 0.33826 0.03099 0.98732 0.0
C3718 C 0.32649 0.03615 0.97011 0.0
C3719 C 0.33527 0.05029 0.97259 0.0
C3720 C 0.34563 0.05476 0.98247 0.0
H3721 H 0.31988 0.11302 0.94032 0.0
H3722 H 0.3318 0.10295 0.95119 0.0
C3723 C 0.34719 0.04517 0.98972 0.0
C3724 C 0.33281 0.06017 0.96546 0.0
H3725 H 0.3272 0.06801 0.93368 0.0
C3726 C 0.32902 0.0682 0.97322 0.0
C3727 C 0.33265 0.06052 0.95103 0.0
C3728 C 0.33731 0.05271 0.94217 0.0
C3729 C 0.3242 0.07585 0.96693 0.0
C3730 C 0.32335 0.07559 0.9525 0.0
C3731 C 0.3278 0.06813 0.94474 0.0
C3732 C 0.31676 0.08197 0.94531 0.0
C3733 C 0.31933 0.08351 0.97574 0.0
C3734 C 0.30455 0.07354 0.93814 0.0
C3735 C 0.29779 0.07925 0.9319 0.0
C3736 C 0.3032 0.09353 0.93253 0.0
C3737 C 0.31557 0.102 0.93953 0.0
C3738 C 0.32232 0.09626 0.94581 0.0
H3739 H 0.31862 0.08084 0.98666 0.0
H3740 H 0.32649 0.09474 0.97501 0.0
H3741 H 0.30924 0.08124 0.97215 0.0
H3742 H 0.30008 0.06248 0.93767 0.0
H3743 H 0.2882 0.07246 0.92676 0.0
H3744 H 0.00107 0.31012 0.97239 0.0
H3745 H 0.98748 0.29057 0.95676 0.0
H3746 H 0.9512 0.28262 0.9775 0.0
H3747 H 0.9648 0.30217 0.99333 0.0
H3748 H 0.95353 0.25954 0.97414 0.0
H3749 H 0.96215 0.28601 0.92521 0.0
H3750 H 0.97754 0.29082 0.93429 0.0
H3751 H 0.96571 0.29496 0.94162 0.0
C3752 C 0.99018 0.30432 0.97354 0.0
C3753 C 0.98398 0.30765 0.98409 0.0
C3754 C 0.98242 0.2932 0.96454 0.0
C3755 C 0.96833 0.28527 0.96586 0.0
C3756 C 0.96207 0.28869 0.97627 0.0
H3757 H 0.91494 0.21839 0.8987 0.0
H3758 H 0.92749 0.24264 0.91665 0.0
C3759 C 0.96984 0.29984 0.98528 0.0
C3760 C 0.96031 0.27285 0.95699 0.0
H3761 H 0.95332 0.26175 0.92363 0.0
C3762 C 0.95338 0.26001 0.9631 0.0
C3763 C 0.95995 0.27353 0.94261 0.0
C3764 C 0.96663 0.28708 0.93554 0.0
C3765 C 0.9465 0.24777 0.95518 0.0
C3766 C 0.94681 0.24842 0.94078 0.0
C3767 C 0.95325 0.26127 0.93468 0.0
C3768 C 0.94071 0.23597 0.93182 0.0
C3769 C 0.93876 0.23432 0.96236 0.0
C3770 C 0.94567 0.2234 0.93398 0.0
C3771 C 0.93884 0.2083 0.92292 0.0
C3772 C 0.9247 0.20557 0.91157 0.0
C3773 C 0.92233 0.21986 0.90638 0.0
C3774 C 0.92969 0.23457 0.91799 0.0
H3775 H 0.93639 0.23586 0.97304 0.0
H3776 H 0.92912 0.22717 0.95689 0.0
H3777 H 0.94496 0.22945 0.96277 0.0
H3778 H 0.95295 0.22502 0.94184 0.0
H3779 H 0.94085 0.20017 0.92483 0.0
H3780 H 0.69411 0.65105 0.00161 0.0
H3781 H 0.71444 0.65741 0.98838 0.0
H3782 H 0.7042 0.68005 0.9612 0.0
H3783 H 0.68436 0.67445 0.97497 0.0
H3784 H 0.72056 0.6541 0.96376 0.0
H3785 H 0.74085 0.70978 0.97271 0.0
H3786 H 0.72584 0.69686 0.98097 0.0
H3787 H 0.72493 0.70155 0.96374 0.0
C3788 C 0.69615 0.65726 0.99272 0.0
C3789 C 0.6878 0.66242 0.98939 0.0
C3790 C 0.70777 0.66092 0.98517 0.0
C3791 C 0.71111 0.66959 0.97403 0.0
C3792 C 0.70216 0.67382 0.97007 0.0
H3793 H 0.77732 0.68373 0.91955 0.0
H3794 H 0.75509 0.67553 0.92938 0.0
C3795 C 0.69075 0.67049 0.97784 0.0
C3796 C 0.72419 0.67459 0.96694 0.0
H3797 H 0.75278 0.70373 0.9571 0.0
C3798 C 0.72763 0.66496 0.96234 0.0
C3799 C 0.73356 0.68879 0.96532 0.0
C3800 C 0.73118 0.69984 0.97108 0.0
C3801 C 0.74014 0.66911 0.95622 0.0
C3802 C 0.74925 0.68327 0.95407 0.0
C3803 C 0.74577 0.69287 0.9586 0.0
C3804 C 0.76271 0.68849 0.94773 0.0
C3805 C 0.74363 0.65829 0.95264 0.0
C3806 C 0.77441 0.69901 0.95441 0.0
C3807 C 0.78711 0.70411 0.94856 0.0
C3808 C 0.78846 0.69871 0.93596 0.0
C3809 C 0.77672 0.68819 0.92924 0.0
C3810 C 0.76396 0.68332 0.93496 0.0
H3811 H 0.7377 0.64896 0.95876 0.0
H3812 H 0.74114 0.65513 0.94171 0.0
H3813 H 0.75456 0.66224 0.95437 0.0
H3814 H 0.77375 0.70322 0.96425 0.0
H3815 H 0.79596 0.71219 0.95397 0.0
H3816 H 0.96052 0.65924 0.00555 0.0
H3817 H 0.94573 0.66496 0.99298 0.0
H3818 H 0.97925 0.69191 0.9677 0.0
H3819 H 0.99401 0.68655 0.98033 0.0
H3820 H 0.96701 0.70462 0.97911 0.0
H3821 H 0.92869 0.65461 0.95468 0.0
H3822 H 0.93075 0.65444 0.97285 0.0
H3823 H 0.94443 0.65755 0.96179 0.0
C3824 C 0.96463 0.66618 0.99715 0.0
C3825 C 0.97843 0.67252 0.99397 0.0
C3826 C 0.95617 0.66941 0.98994 0.0
C3827 C 0.96138 0.67883 0.97936 0.0
C3828 C 0.97502 0.68466 0.97585 0.0
H3829 H 0.92617 0.70304 0.91709 0.0
H3830 H 0.93554 0.69216 0.93091 0.0
C3831 C 0.98345 0.68158 0.98309 0.0
C3832 C 0.95314 0.68363 0.97255 0.0
H3833 H 0.92552 0.67341 0.9519 0.0
C3834 C 0.9579 0.69778 0.97321 0.0
C3835 C 0.94131 0.6747 0.9648 0.0
C3836 C 0.93601 0.65949 0.96335 0.0
C3837 C 0.95135 0.70331 0.96611 0.0
C3838 C 0.93946 0.69439 0.95843 0.0
C3839 C 0.93457 0.6802 0.95791 0.0
C3840 C 0.93249 0.69979 0.95027 0.0
C3841 C 0.95756 0.71872 0.96649 0.0
C3842 C 0.92738 0.7074 0.95659 0.0
C3843 C 0.92215 0.71372 0.94871 0.0
C3844 C 0.92171 0.71233 0.93438 0.0
C3845 C 0.92633 0.70422 0.92812 0.0
C3846 C 0.93164 0.69799 0.936 0.0
H3847 H 0.9683 0.72422 0.96999 0.0
H3848 H 0.95708 0.72243 0.95626 0.0
H3849 H 0.95187 0.72151 0.97372 0.0
H3850 H 0.92772 0.70872 0.96761 0.0
H3851 H 0.91869 0.71992 0.95382 0.0
H3852 H 0.3178 0.3165 0.96615 0.0
H3853 H 0.30824 0.29385 0.95475 0.0
H3854 H 0.34269 0.29166 0.96788 0.0
H3855 H 0.35232 0.31428 0.97936 0.0
H3856 H 0.31923 0.28169 0.93462 0.0
H3857 H 0.30835 0.25917 0.98618 0.0
H3858 H 0.31224 0.27648 0.98342 0.0
H3859 H 0.32551 0.27263 0.98327 0.0
C3860 C 0.32347 0.31132 0.96639 0.0
C3861 C 0.33572 0.31707 0.97381 0.0
C3862 C 0.318 0.2984 0.95985 0.0
C3863 C 0.32469 0.29105 0.96065 0.0
C3864 C 0.33734 0.29715 0.96728 0.0
H3865 H 0.29535 0.20433 0.94707 0.0
H3866 H 0.3097 0.22913 0.95148 0.0
C3867 C 0.34282 0.31007 0.97381 0.0
C3868 C 0.31782 0.27653 0.95577 0.0
H3869 H 0.30243 0.24385 0.9673 0.0
C3870 C 0.31559 0.27338 0.94172 0.0
C3871 C 0.31306 0.26577 0.96511 0.0
C3872 C 0.31478 0.26859 0.98035 0.0
C3873 C 0.30881 0.25967 0.93672 0.0
C3874 C 0.30393 0.2489 0.94608 0.0
C3875 C 0.30625 0.25211 0.96013 0.0
C3876 C 0.29605 0.23416 0.94172 0.0
C3877 C 0.30713 0.25687 0.92149 0.0
C3878 C 0.28369 0.22876 0.93463 0.0
C3879 C 0.27553 0.21459 0.93199 0.0
C3880 C 0.27954 0.20558 0.93656 0.0
C3881 C 0.29205 0.21104 0.94338 0.0
C3882 C 0.30024 0.2252 0.94591 0.0
H3883 H 0.31479 0.26589 0.91581 0.0
H3884 H 0.30798 0.24783 0.91853 0.0
H3885 H 0.29697 0.25467 0.91829 0.0
H3886 H 0.28008 0.23543 0.9316 0.0
H3887 H 0.26588 0.21062 0.92681 0.0
H3888 H 0.69821 0.04366 0.99443 0.0
H3889 H 0.71892 0.05762 0.98154 0.0
H3890 H 0.71372 0.0209 0.96136 0.0
H3891 H 0.69299 0.00693 0.97408 0.0
H3892 H 0.74137 0.05465 0.98349 0.0
H3893 H 0.72335 0.04713 0.92973 0.0
H3894 H 0.71222 0.04342 0.94408 0.0
H3895 H 0.71713 0.03138 0.93859 0.0
C3896 C 0.70135 0.03859 0.98707 0.0
C3897 C 0.69402 0.0242 0.9853 0.0
C3898 C 0.71317 0.04657 0.97971 0.0
C3899 C 0.71777 0.0403 0.97039 0.0
C3900 C 0.71021 0.02598 0.96829 0.0
H3901 H 0.79141 0.06156 0.92864 0.0
H3902 H 0.76812 0.05083 0.93688 0.0
C3903 C 0.69842 0.018 0.97565 0.0
C3904 C 0.73114 0.04852 0.96394 0.0
H3905 H 0.7471 0.0565 0.93322 0.0
C3906 C 0.74263 0.05522 0.9725 0.0
C3907 C 0.73272 0.04912 0.94961 0.0
C3908 C 0.7207 0.04248 0.93995 0.0
C3909 C 0.7557 0.06216 0.96713 0.0
C3910 C 0.75731 0.06265 0.95279 0.0
C3911 C 0.74582 0.05612 0.9442 0.0
C3912 C 0.7709 0.06949 0.9466 0.0
C3913 C 0.76769 0.06844 0.97687 0.0
C3914 C 0.78002 0.08359 0.949 0.0
C3915 C 0.7933 0.0897 0.94439 0.0
C3916 C 0.79764 0.08184 0.93712 0.0
C3917 C 0.7883 0.06785 0.93418 0.0
C3918 C 0.77503 0.06173 0.93886 0.0
H3919 H 0.76476 0.06434 0.98728 0.0
H3920 H 0.77566 0.06649 0.97313 0.0
H3921 H 0.77208 0.07973 0.97765 0.0
H3922 H 0.77695 0.0898 0.95476 0.0
H3923 H 0.80028 0.10049 0.9468 0.0
H3924 H 0.65296 0.95966 0.01827 0.0
H3925 H 0.65837 0.94454 0.03067 0.0
H3926 H 0.68738 0.97923 0.05567 0.0
H3927 H 0.68227 0.99431 0.04324 0.0
H3928 H 0.69814 0.96506 0.04374 0.0
H3929 H 0.64985 0.92934 0.06925 0.0
H3930 H 0.64865 0.9307 0.05113 0.0
H3931 H 0.6532 0.94533 0.06226 0.0
C3932 C 0.6603 0.96397 0.02658 0.0
C3933 C 0.66725 0.97817 0.02974 0.0
C3934 C 0.66336 0.95533 0.03368 0.0
C3935 C 0.67325 0.96076 0.04413 0.0
C3936 C 0.67975 0.97483 0.04762 0.0
H3937 H 0.69783 0.92597 0.10614 0.0
H3938 H 0.68715 0.93547 0.09225 0.0
C3939 C 0.6768 0.98344 0.0405 0.0
C3940 C 0.67778 0.95222 0.0508 0.0
H3941 H 0.66779 0.92515 0.07173 0.0
C3942 C 0.69149 0.95629 0.04981 0.0
C3943 C 0.6691 0.94084 0.05876 0.0
C3944 C 0.6544 0.93631 0.06055 0.0
C3945 C 0.69685 0.94952 0.0568 0.0
C3946 C 0.68817 0.93808 0.06473 0.0
C3947 C 0.67439 0.93384 0.06555 0.0
C3948 C 0.69345 0.93102 0.07292 0.0
C3949 C 0.71188 0.95508 0.05607 0.0
C3950 C 0.70023 0.92504 0.06665 0.0
C3951 C 0.70651 0.9198 0.07457 0.0
C3952 C 0.70587 0.92018 0.0889 0.0
C3953 C 0.6985 0.92556 0.09512 0.0
C3954 C 0.69236 0.93094 0.0872 0.0
H3955 H 0.7175 0.96579 0.05244 0.0
H3956 H 0.71608 0.95494 0.06621 0.0
H3957 H 0.71372 0.94858 0.04879 0.0
H3958 H 0.70096 0.92474 0.05563 0.0
H3959 H 0.71207 0.91568 0.0695 0.0
H3960 H 0.04419 0.70329 0.02939 0.0
H3961 H 0.05866 0.72546 0.04134 0.0
H3962 H 0.02369 0.722 0.06129 0.0
H3963 H 0.00923 0.69982 0.04957 0.0
H3964 H 0.05564 0.74755 0.0375 0.0
H3965 H 0.05124 0.73611 0.0925 0.0
H3966 H 0.04657 0.72301 0.07921 0.0
H3967 H 0.03513 0.72871 0.08395 0.0
C3968 C 0.03964 0.70712 0.03656 0.0
C3969 C 0.02557 0.69988 0.03849 0.0
C3970 C 0.04791 0.71977 0.04338 0.0
C3971 C 0.04228 0.72531 0.05231 0.0
C3972 C 0.02831 0.71779 0.05469 0.0
H3973 H 0.06238 0.80385 0.08686 0.0
H3974 H 0.05247 0.7794 0.08068 0.0
C3975 C 0.02004 0.70516 0.04789 0.0
C3976 C 0.05061 0.73963 0.05775 0.0
H3977 H 0.05934 0.75959 0.08703 0.0
C3978 C 0.05665 0.75018 0.04834 0.0
C3979 C 0.05179 0.74303 0.07189 0.0
C3980 C 0.04594 0.7321 0.08248 0.0
C3981 C 0.06339 0.76406 0.05263 0.0
C3982 C 0.06436 0.76747 0.06676 0.0
C3983 C 0.05858 0.75693 0.07621 0.0
C3984 C 0.0708 0.78195 0.07178 0.0
C3985 C 0.06889 0.77492 0.04195 0.0
C3986 C 0.08446 0.79138 0.06916 0.0
C3987 C 0.09007 0.80532 0.07256 0.0
C3988 C 0.08218 0.81003 0.07884 0.0
C3989 C 0.06867 0.80047 0.08203 0.0
C3990 C 0.06303 0.78653 0.07854 0.0
H3991 H 0.06454 0.77055 0.03165 0.0
H3992 H 0.06676 0.78319 0.0446 0.0
H3993 H 0.08003 0.77964 0.04141 0.0
H3994 H 0.09068 0.788 0.06417 0.0
H3995 H 0.10052 0.81247 0.07001 0.0
H3996 H 0.32061 0.32498 0.03337 0.0
H3997 H 0.30017 0.3178 0.04657 0.0
H3998 H 0.29536 0.34918 0.02837 0.0
H3999 H 0.31607 0.35666 0.01525 0.0
H4000 H 0.28924 0.34621 0.05624 0.0
H4001 H 0.26287 0.29586 0.02821 0.0
H4002 H 0.27842 0.29946 0.03613 0.0
H4003 H 0.27876 0.31012 0.02269 0.0
C4004 C 0.31531 0.33048 0.03228 0.0
C4005 C 0.31986 0.34129 0.02316 0.0
C4006 C 0.30358 0.3263 0.03978 0.0
C4007 C 0.29607 0.33272 0.03817 0.0
C4008 C 0.30097 0.34401 0.02965 0.0
H4009 H 0.21174 0.29132 0.06347 0.0
H4010 H 0.23251 0.30335 0.05021 0.0
C4011 C 0.3128 0.34829 0.02219 0.0
C4012 C 0.28286 0.32722 0.04502 0.0
H4013 H 0.25215 0.29783 0.04826 0.0
C4014 C 0.28107 0.33567 0.05444 0.0
C4015 C 0.27211 0.31356 0.04241 0.0
C4016 C 0.27305 0.30426 0.03171 0.0
C4017 C 0.26898 0.33065 0.06173 0.0
C4018 C 0.25855 0.31673 0.05971 0.0
C4019 C 0.26019 0.30845 0.04992 0.0
C4020 C 0.24598 0.31036 0.06784 0.0
C4021 C 0.26748 0.34033 0.07141 0.0
C4022 C 0.24663 0.31025 0.08214 0.0
C4023 C 0.23479 0.30351 0.08973 0.0
C4024 C 0.22205 0.29657 0.08314 0.0
C4025 C 0.22141 0.29665 0.06882 0.0
C4026 C 0.23326 0.3035 0.06125 0.0
H4027 H 0.27414 0.35121 0.06854 0.0
H4028 H 0.25686 0.33794 0.07165 0.0
H4029 H 0.27048 0.33932 0.08187 0.0
H4030 H 0.25632 0.31511 0.08744 0.0
H4031 H 0.23557 0.30352 0.10075 0.0
H4032 H 0.6759 0.6554 0.37647 0.0
H4033 H 0.69027 0.65076 0.39082 0.0
H4034 H 0.72584 0.6856 0.37456 0.0
H4035 H 0.71147 0.69033 0.36007 0.0
H4036 H 0.72621 0.66093 0.37351 0.0
H4037 H 0.71309 0.67114 0.4252 0.0
H4038 H 0.69854 0.66 0.41467 0.0
H4039 H 0.70972 0.67751 0.40992 0.0
C4040 C 0.68678 0.66221 0.37607 0.0
C4041 C 0.69256 0.67324 0.36713 0.0
C4042 C 0.69497 0.65958 0.38434 0.0
C4043 C 0.70911 0.66793 0.38387 0.0
C4044 C 0.71494 0.6791 0.37514 0.0
H4045 H 0.75997 0.65206 0.44794 0.0
H4046 H 0.74878 0.66521 0.43218 0.0
C4047 C 0.70672 0.6818 0.3669 0.0
C4048 C 0.71768 0.66426 0.39176 0.0
H4049 H 0.72353 0.65757 0.42394 0.0
C4050 C 0.72577 0.66035 0.38456 0.0
C4051 C 0.71726 0.66372 0.40617 0.0
C4052 C 0.70929 0.66845 0.41447 0.0
C4053 C 0.73292 0.65527 0.39134 0.0
C4054 C 0.73178 0.6539 0.40567 0.0
C4055 C 0.72429 0.65849 0.41294 0.0
C4056 C 0.73766 0.64711 0.41325 0.0
C4057 C 0.7417 0.65157 0.38307 0.0
C4058 C 0.73343 0.62999 0.40778 0.0
C4059 C 0.7394 0.62077 0.41728 0.0
C4060 C 0.75213 0.63121 0.43088 0.0
C4061 C 0.75351 0.6469 0.43911 0.0
C4062 C 0.74708 0.65526 0.42887 0.0
H4063 H 0.745 0.65736 0.37348 0.0
H4064 H 0.75083 0.65374 0.38896 0.0
H4065 H 0.73582 0.64045 0.38019 0.0
H4066 H 0.72702 0.62507 0.39888 0.0
H4067 H 0.73784 0.611 0.4135 0.0
H4068 H 0.32765 0.02828 0.36418 0.0
H4069 H 0.33756 0.04956 0.37798 0.0
H4070 H 0.36005 0.03629 0.40161 0.0
H4071 H 0.35057 0.01516 0.38736 0.0
H4072 H 0.33623 0.05454 0.40396 0.0
H4073 H 0.38987 0.07364 0.3914 0.0
H4074 H 0.37601 0.05896 0.38261 0.0
H4075 H 0.3816 0.05718 0.39916 0.0
C4076 C 0.33472 0.02989 0.37231 0.0
C4077 C 0.33843 0.02012 0.37464 0.0
C4078 C 0.34038 0.04207 0.3802 0.0
C4079 C 0.34975 0.04467 0.39068 0.0
C4080 C 0.35314 0.03471 0.39333 0.0
H4081 H 0.36957 0.1169 0.45455 0.0
H4082 H 0.35853 0.08999 0.44151 0.0
C4083 C 0.34765 0.02259 0.38526 0.0
C4084 C 0.35581 0.05782 0.39878 0.0
H4085 H 0.38581 0.08656 0.40802 0.0
C4086 C 0.34708 0.06156 0.40486 0.0
C4087 C 0.36996 0.06706 0.39977 0.0
C4088 C 0.37991 0.0641 0.39278 0.0
C4089 C 0.35206 0.07433 0.4117 0.0
C4090 C 0.36623 0.08342 0.413 0.0
C4091 C 0.37496 0.07961 0.40707 0.0
C4092 C 0.37232 0.09713 0.4199 0.0
C4093 C 0.34198 0.07809 0.41673 0.0
C4094 C 0.38644 0.11155 0.41178 0.0
C4095 C 0.39441 0.12855 0.41955 0.0
C4096 C 0.38529 0.1303 0.43445 0.0
C4097 C 0.37363 0.11552 0.44508 0.0
C4098 C 0.36634 0.09893 0.43649 0.0
H4099 H 0.33222 0.07224 0.41099 0.0
H4100 H 0.3398 0.07546 0.42762 0.0
H4101 H 0.34586 0.0892 0.4157 0.0
H4102 H 0.39006 0.11001 0.40209 0.0
H4103 H 0.402 0.13739 0.41419 0.0
H4104 H 0.98501 0.29908 0.36046 0.0
H4105 H 0.96391 0.28625 0.37296 0.0
H4106 H 0.96625 0.32422 0.38514 0.0
H4107 H 0.98754 0.3372 0.37276 0.0
H4108 H 0.95798 0.30459 0.40629 0.0
H4109 H 0.92836 0.28163 0.3582 0.0
H4110 H 0.94235 0.27907 0.36035 0.0
H4111 H 0.94548 0.29616 0.35843 0.0
C4112 C 0.98111 0.30473 0.36589 0.0
C4113 C 0.98786 0.31915 0.36551 0.0
C4114 C 0.96902 0.29737 0.37298 0.0
C4115 C 0.9634 0.30427 0.37973 0.0
C4116 C 0.9704 0.3187 0.3799 0.0
H4117 H 0.8878 0.27829 0.42169 0.0
H4118 H 0.91086 0.29133 0.41293 0.0
C4119 C 0.98255 0.3261 0.37283 0.0
C4120 C 0.94995 0.29638 0.38615 0.0
H4121 H 0.91667 0.27322 0.37887 0.0
C4122 C 0.94893 0.29775 0.40032 0.0
C4123 C 0.93817 0.28749 0.37831 0.0
C4124 C 0.93856 0.28605 0.36296 0.0
C4125 C 0.93644 0.29023 0.40691 0.0
C4126 C 0.92467 0.28131 0.39905 0.0
C4127 C 0.92572 0.27999 0.38488 0.0
C4128 C 0.91108 0.27339 0.40521 0.0
C4129 C 0.93601 0.29169 0.42223 0.0
C4130 C 0.90344 0.25901 0.40355 0.0
C4131 C 0.89025 0.25156 0.40846 0.0
C4132 C 0.88446 0.25836 0.41521 0.0
C4133 C 0.89213 0.27277 0.41684 0.0
C4134 C 0.90531 0.28021 0.41189 0.0
H4135 H 0.94615 0.29581 0.42703 0.0
H4136 H 0.93256 0.29897 0.42479 0.0
H4137 H 0.92882 0.28166 0.42676 0.0
H4138 H 0.90764 0.25356 0.39827 0.0
H4139 H 0.88447 0.2405 0.40676 0.0
H4140 H 0.99813 0.34838 0.311 0.0
H4141 H 0.99675 0.36561 0.29787 0.0
H4142 H 0.0369 0.39651 0.31166 0.0
H4143 H 0.03839 0.37932 0.32489 0.0
H4144 H 1.00007 0.39079 0.3112 0.0
H4145 H 0.03625 0.40101 0.26898 0.0
H4146 H 0.0284 0.38516 0.27812 0.0
H4147 H 0.04173 0.40068 0.2861 0.0
C4148 C 0.00676 0.35878 0.3111 0.0
C4149 C 0.01836 0.36249 0.31902 0.0
C4150 C 0.00594 0.36861 0.30359 0.0
C4151 C 0.01675 0.38229 0.30374 0.0
C4152 C 0.02852 0.38596 0.31129 0.0
H4153 H 0.01962 0.45433 0.26916 0.0
H4154 H 0.02618 0.43938 0.28017 0.0
C4155 C 0.02932 0.37614 0.31888 0.0
C4156 C 0.01516 0.39284 0.2969 0.0
H4157 H 0.0255 0.41396 0.26968 0.0
C4158 C 0.00565 0.39589 0.30214 0.0
C4159 C 0.02259 0.39956 0.28521 0.0
C4160 C 0.03279 0.39645 0.27915 0.0
C4161 C 0.00321 0.40536 0.29588 0.0
C4162 C 0.01027 0.41174 0.2839 0.0
C4163 C 0.02008 0.409 0.27885 0.0
C4164 C 0.00697 0.42066 0.27616 0.0
C4165 C 0.99305 0.40845 0.30211 0.0
C4166 C 0.99415 0.41501 0.27002 0.0
C4167 C 0.99043 0.42346 0.26371 0.0
C4168 C 0.99951 0.43772 0.26327 0.0
C4169 C 0.01251 0.44334 0.26914 0.0
C4170 C 0.01625 0.43484 0.27545 0.0
H4171 H 0.99114 0.40552 0.31298 0.0
H4172 H 0.99658 0.41955 0.30151 0.0
H4173 H 0.98331 0.40252 0.29639 0.0
H4174 H 0.98689 0.40408 0.2704 0.0
H4175 H 0.98029 0.41886 0.25948 0.0
H4176 H 0.63244 0.64598 0.32075 0.0
H4177 H 0.61912 0.62532 0.3063 0.0
H4178 H 0.65547 0.6256 0.29525 0.0
H4179 H 0.66895 0.64643 0.30963 0.0
H4180 H 0.63631 0.61917 0.27299 0.0
H4181 H 0.61268 0.58782 0.3186 0.0
H4182 H 0.61127 0.6028 0.31761 0.0
H4183 H 0.62766 0.60477 0.31973 0.0
C4184 C 0.63763 0.64174 0.31515 0.0
C4185 C 0.65172 0.64773 0.31644 0.0
C4186 C 0.63 0.62992 0.30693 0.0
C4187 C 0.6363 0.62382 0.29993 0.0
C4188 C 0.65044 0.63013 0.30066 0.0
H4189 H 0.60613 0.54758 0.25207 0.0
H4190 H 0.62035 0.57058 0.26257 0.0
C4191 C 0.6581 0.64201 0.30887 0.0
C4192 C 0.62803 0.61051 0.29243 0.0
H4193 H 0.60396 0.57689 0.29703 0.0
C4194 C 0.62926 0.6099 0.27821 0.0
C4195 C 0.61889 0.59845 0.29932 0.0
C4196 C 0.61759 0.5984 0.31467 0.0
C4197 C 0.62132 0.59755 0.27063 0.0
C4198 C 0.6121 0.58552 0.27753 0.0
C4199 C 0.61097 0.58615 0.29176 0.0
C4200 C 0.60355 0.57209 0.27028 0.0
C4201 C 0.62262 0.59755 0.2553 0.0
C4202 C 0.58941 0.56523 0.27133 0.0
C4203 C 0.58129 0.55209 0.26543 0.0
C4204 C 0.58717 0.54558 0.25828 0.0
C4205 C 0.60133 0.55248 0.25724 0.0
C4206 C 0.60945 0.56563 0.26318 0.0
H4207 H 0.62738 0.60811 0.25134 0.0
H4208 H 0.62908 0.59331 0.25241 0.0
H4209 H 0.61257 0.59103 0.25024 0.0
H4210 H 0.58467 0.56997 0.27692 0.0
H4211 H 0.57043 0.54689 0.26666 0.0
H4212 H 0.35247 0.00335 0.31762 0.0
H4213 H 0.36971 0.00238 0.30392 0.0
H4214 H 0.35956 0.96407 0.32196 0.0
H4215 H 0.34234 0.96501 0.33583 0.0
H4216 H 0.38698 0.98378 0.32342 0.0
H4217 H 0.36727 0.97848 0.27065 0.0
H4218 H 0.36772 0.99231 0.28046 0.0
H4219 H 0.35675 0.97486 0.2855 0.0
C4220 C 0.35375 0.9946 0.31853 0.0
C4221 C 0.34606 0.98427 0.32783 0.0
C4222 C 0.36355 0.99402 0.31061 0.0
C4223 C 0.36579 0.98306 0.31179 0.0
C4224 C 0.35792 0.97256 0.32083 0.0
H4225 H 0.42717 0.97531 0.26546 0.0
H4226 H 0.40561 0.9698 0.27589 0.0
C4227 C 0.34808 0.97312 0.32874 0.0
C4228 C 0.37718 0.98329 0.30453 0.0
H4229 H 0.39086 0.98603 0.27295 0.0
C4230 C 0.38773 0.98406 0.31237 0.0
C4231 C 0.3781 0.98357 0.29012 0.0
C4232 C 0.3668 0.98212 0.28117 0.0
C4233 C 0.39946 0.98574 0.30621 0.0
C4234 C 0.40067 0.98675 0.29188 0.0
C4235 C 0.3899 0.98536 0.28396 0.0
C4236 C 0.41342 0.99009 0.28509 0.0
C4237 C 0.41062 0.98672 0.31507 0.0
C4238 C 0.42481 0.00334 0.28673 0.0
C4239 C 0.43702 0.00655 0.28068 0.0
C4240 C 0.43806 0.9966 0.2728 0.0
C4241 C 0.4266 0.98328 0.27121 0.0
C4242 C 0.41432 0.98011 0.27719 0.0
H4243 H 0.40705 0.98296 0.32549 0.0
H4244 H 0.41479 0.98069 0.31037 0.0
H4245 H 0.41896 0.99762 0.31602 0.0
H4246 H 0.42427 0.01116 0.29281 0.0
H4247 H 0.44575 0.0168 0.2823 0.0
H4248 H 0.65335 0.00579 0.31308 0.0
H4249 H 0.63674 0.00491 0.29696 0.0
H4250 H 0.60833 0.96313 0.30783 0.0
H4251 H 0.62475 0.96406 0.32423 0.0
H4252 H 0.62472 0.98851 0.27465 0.0
H4253 H 0.58554 0.98047 0.31227 0.0
H4254 H 0.60255 0.98544 0.3173 0.0
H4255 H 0.59026 0.96772 0.31308 0.0
C4256 C 0.64355 0.99642 0.31206 0.0
C4257 C 0.64032 0.98501 0.31999 0.0
C4258 C 0.63407 0.99594 0.30285 0.0
C4259 C 0.62118 0.98406 0.30139 0.0
C4260 C 0.61806 0.97255 0.30907 0.0
H4261 H 0.54297 0.95082 0.25001 0.0
H4262 H 0.56474 0.95536 0.26815 0.0
C4263 C 0.6275 0.97305 0.31836 0.0
C4264 C 0.61115 0.98358 0.29156 0.0
H4265 H 0.5787 0.9767 0.28877 0.0
C4266 C 0.61471 0.98609 0.27776 0.0
C4267 C 0.5981 0.98044 0.29563 0.0
C4268 C 0.59392 0.97851 0.3104 0.0
C4269 C 0.60543 0.98507 0.26786 0.0
C4270 C 0.5923 0.98165 0.27192 0.0
C4271 C 0.58878 0.97931 0.2857 0.0
C4272 C 0.58182 0.97974 0.26203 0.0
C4273 C 0.60962 0.98711 0.2531 0.0
C4274 C 0.58519 0.99324 0.25044 0.0
C4275 C 0.57247 0.99107 0.2383 0.0
C4276 C 0.55539 0.97561 0.24084 0.0
C4277 C 0.55279 0.96014 0.24965 0.0
C4278 C 0.56615 0.96335 0.26138 0.0
H4279 H 0.6182 0.98548 0.25123 0.0
H4280 H 0.60109 0.98001 0.24617 0.0
H4281 H 0.61299 0.99783 0.25043 0.0
H4282 H 0.59483 0.00279 0.25089 0.0
H4283 H 0.57394 0.99946 0.23211 0.0
H4284 H 0.03094 0.6622 0.31918 0.0
H4285 H 0.02718 0.64433 0.30218 0.0
H4286 H 0.98889 0.63972 0.2909 0.0
H4287 H 0.99274 0.65782 0.30765 0.0
H4288 H 0.00696 0.61766 0.30137 0.0
H4289 H 0.0058 0.64255 0.25398 0.0
H4290 H 0.01194 0.65192 0.27009 0.0
H4291 H 0.99406 0.64182 0.26646 0.0
C4292 C 0.0218 0.6575 0.31296 0.0
C4293 C 0.01215 0.66143 0.3147 0.0
C4294 C 0.01966 0.64728 0.30327 0.0
C4295 C 0.00784 0.64082 0.29515 0.0
C4296 C 0.99823 0.64479 0.29683 0.0
H4297 H 0.97038 0.56105 0.25407 0.0
H4298 H 0.9775 0.58058 0.27014 0.0
C4299 C 1.00041 0.65508 0.30645 0.0
C4300 C 0.00525 0.62943 0.28547 0.0
H4301 H 0.99753 0.61845 0.25213 0.0
C4302 C 0.005 0.61788 0.29058 0.0
C4303 C 0.00289 0.62981 0.27136 0.0
C4304 C 0.00382 0.64225 0.26511 0.0
C4305 C 0.00211 0.60653 0.28204 0.0
C4306 C 0.99911 0.60664 0.26807 0.0
C4307 C 0.99971 0.61834 0.26288 0.0
C4308 C 0.99512 0.59466 0.25867 0.0
C4309 C 0.00243 0.59461 0.28803 0.0
C4310 C 0.00251 0.59617 0.24677 0.0
C4311 C 0.99839 0.58508 0.23753 0.0
C4312 C 0.98682 0.57226 0.24005 0.0
C4313 C 0.97945 0.57076 0.252 0.0
C4314 C 0.98354 0.58188 0.2612 0.0
H4315 H 0.0087 0.59778 0.29753 0.0
H4316 H 0.99199 0.58652 0.29066 0.0
H4317 H 0.00648 0.59007 0.28063 0.0
H4318 H 0.01142 0.60598 0.24458 0.0
H4319 H 0.00416 0.58655 0.22833 0.0
H4320 H 0.35469 0.3754 0.3253 0.0
H4321 H 0.37532 0.38831 0.31206 0.0
H4322 H 0.37141 0.3503 0.29715 0.0
H4323 H 0.35071 0.33729 0.31032 0.0
H4324 H 0.39839 0.38601 0.31634 0.0
H4325 H 0.38013 0.37328 0.26243 0.0
H4326 H 0.36906 0.37107 0.27649 0.0
H4327 H 0.37427 0.35883 0.2733 0.0
C4328 C 0.35809 0.36978 0.31903 0.0
C4329 C 0.35112 0.35534 0.31889 0.0
C4330 C 0.36987 0.37717 0.31147 0.0
C4331 C 0.37482 0.37026 0.30355 0.0
C4332 C 0.36763 0.35583 0.30302 0.0
H4333 H 0.45066 0.39678 0.26185 0.0
H4334 H 0.42747 0.3836 0.27044 0.0
C4335 C 0.35585 0.34842 0.31061 0.0
C4336 C 0.38815 0.37815 0.29694 0.0
H4337 H 0.40394 0.38536 0.26611 0.0
C4338 C 0.3996 0.38595 0.30536 0.0
C4339 C 0.38968 0.3779 0.28262 0.0
C4340 C 0.37764 0.36992 0.27313 0.0
C4341 C 0.41259 0.39341 0.29987 0.0
C4342 C 0.41414 0.39332 0.28553 0.0
C4343 C 0.4027 0.38545 0.27709 0.0
C4344 C 0.42761 0.40137 0.27922 0.0
C4345 C 0.42459 0.40106 0.3095 0.0
C4346 C 0.43519 0.41573 0.28101 0.0
C4347 C 0.44839 0.42324 0.27617 0.0
C4348 C 0.4542 0.41654 0.26928 0.0
C4349 C 0.44639 0.4022 0.26704 0.0
C4350 C 0.43318 0.39468 0.27194 0.0
H4351 H 0.42207 0.3972 0.32004 0.0
H4352 H 0.43325 0.40015 0.30593 0.0
H4353 H 0.42784 0.41212 0.30992 0.0
H4354 H 0.43099 0.42111 0.28642 0.0
H4355 H 0.45418 0.43426 0.27808 0.0
H4356 H 0.31229 0.29512 0.35697 0.0
H4357 H 0.31904 0.28136 0.36982 0.0
H4358 H 0.34825 0.31778 0.3927 0.0
H4359 H 0.34186 0.3316 0.37963 0.0
H4360 H 0.35961 0.30449 0.38212 0.0
H4361 H 0.31247 0.26717 0.40805 0.0
H4362 H 0.31045 0.26723 0.3899 0.0
H4363 H 0.31448 0.28228 0.40018 0.0
C4364 C 0.31995 0.30012 0.36494 0.0
C4365 C 0.32658 0.31444 0.36727 0.0
C4366 C 0.32376 0.29224 0.37232 0.0
C4367 C 0.3341 0.29851 0.38231 0.0
C4368 C 0.34027 0.31271 0.38504 0.0
H4369 H 0.36045 0.26101 0.44079 0.0
H4370 H 0.34966 0.27157 0.42877 0.0
C4371 C 0.33659 0.32059 0.37758 0.0
C4372 C 0.3394 0.29066 0.38908 0.0
H4373 H 0.33063 0.26291 0.40866 0.0
C4374 C 0.35327 0.29542 0.38796 0.0
C4375 C 0.33115 0.27888 0.39677 0.0
C4376 C 0.31634 0.27365 0.39893 0.0
C4377 C 0.35913 0.28881 0.39434 0.0
C4378 C 0.35083 0.2768 0.40172 0.0
C4379 C 0.33696 0.27202 0.40287 0.0
C4380 C 0.35651 0.26943 0.40876 0.0
C4381 C 0.37426 0.29503 0.39344 0.0
C4382 C 0.36365 0.2644 0.40147 0.0
C4383 C 0.36999 0.25857 0.40834 0.0
C4384 C 0.36907 0.25738 0.42261 0.0
C4385 C 0.36138 0.26185 0.4298 0.0
C4386 C 0.35518 0.26783 0.42294 0.0
H4387 H 0.37949 0.30605 0.39079 0.0
H4388 H 0.37858 0.29421 0.40322 0.0
H4389 H 0.37645 0.28948 0.38531 0.0
H4390 H 0.36453 0.26521 0.39048 0.0
H4391 H 0.37578 0.25516 0.40252 0.0
H4392 H 0.66372 0.0168 0.37755 0.0
H4393 H 0.67551 0.0388 0.39047 0.0
H4394 H 0.71378 0.04586 0.37568 0.0
H4395 H 0.70214 0.02383 0.36304 0.0
H4396 H 0.71497 0.05369 0.40304 0.0
H4397 H 0.69074 0.07504 0.37103 0.0
H4398 H 0.67929 0.05971 0.37985 0.0
H4399 H 0.6898 0.05903 0.36664 0.0
C4400 C 0.67466 0.02298 0.37719 0.0
C4401 C 0.682 0.01867 0.36916 0.0
C4402 C 0.68137 0.03557 0.38452 0.0
C4403 C 0.6955 0.04408 0.38381 0.0
C4404 C 0.70287 0.03948 0.37632 0.0
H4405 H 0.76016 0.12607 0.3984 0.0
H4406 H 0.74553 0.10116 0.39504 0.0
C4407 C 0.69619 0.0269 0.36907 0.0
C4408 C 0.70265 0.05812 0.39018 0.0
H4409 H 0.70638 0.08983 0.38778 0.0
C4410 C 0.71301 0.06157 0.39981 0.0
C4411 C 0.70008 0.06839 0.38594 0.0
C4412 C 0.68946 0.06545 0.37522 0.0
C4413 C 0.72104 0.07508 0.40511 0.0
C4414 C 0.71875 0.08542 0.40053 0.0
C4415 C 0.70808 0.08186 0.3913 0.0
C4416 C 0.72796 0.10017 0.4042 0.0
C4417 C 0.732 0.07822 0.41546 0.0
C4418 C 0.72293 0.10789 0.41042 0.0
C4419 C 0.73128 0.12214 0.41234 0.0
C4420 C 0.74478 0.12891 0.40797 0.0
C4421 C 0.74986 0.1211 0.40202 0.0
C4422 C 0.74153 0.10687 0.40016 0.0
H4423 H 0.72983 0.06886 0.42092 0.0
H4424 H 0.74176 0.08213 0.41012 0.0
H4425 H 0.73318 0.08621 0.42309 0.0
H4426 H 0.71244 0.10294 0.41347 0.0
H4427 H 0.72707 0.12795 0.41681 0.0
H4428 H 0.98987 0.66305 0.37482 0.0
H4429 H 0.96857 0.6548 0.38682 0.0
H4430 H 0.9639 0.68637 0.36887 0.0
H4431 H 0.98546 0.69495 0.35708 0.0
H4432 H 0.95628 0.68273 0.39559 0.0
H4433 H 0.93222 0.6324 0.36757 0.0
H4434 H 0.94734 0.63621 0.37659 0.0
H4435 H 0.94834 0.64681 0.36278 0.0
C4436 C 0.98439 0.66833 0.37353 0.0
C4437 C 0.98928 0.67957 0.36491 0.0
C4438 C 0.97216 0.66354 0.38032 0.0
C4439 C 0.96446 0.66973 0.37845 0.0
C4440 C 0.96962 0.68136 0.37036 0.0
H4441 H 0.87857 0.62749 0.39774 0.0
H4442 H 0.90036 0.63938 0.38613 0.0
C4443 C 0.98195 0.68626 0.36365 0.0
C4444 C 0.95089 0.66382 0.38466 0.0
H4445 H 0.9202 0.63412 0.38659 0.0
C4446 C 0.94836 0.67213 0.39357 0.0
C4447 C 0.94045 0.65007 0.38179 0.0
C4448 C 0.94215 0.6409 0.37155 0.0
C4449 C 0.9358 0.66693 0.39999 0.0
C4450 C 0.92562 0.65295 0.39768 0.0
C4451 C 0.92804 0.64478 0.38848 0.0
C4452 C 0.91242 0.6465 0.40477 0.0
C4453 C 0.93351 0.67652 0.40901 0.0
C4454 C 0.91193 0.64648 0.4191 0.0
C4455 C 0.8995 0.63984 0.42573 0.0
C4456 C 0.88729 0.63289 0.41817 0.0
C4457 C 0.8878 0.63285 0.40383 0.0
C4458 C 0.90024 0.6396 0.3972 0.0
H4459 H 0.94032 0.68742 0.40629 0.0
H4460 H 0.92287 0.67403 0.40828 0.0
H4461 H 0.93574 0.67551 0.41979 0.0
H4462 H 0.92117 0.65137 0.42517 0.0
H4463 H 0.89941 0.63993 0.43679 0.0
H4464 H 0.34857 0.00341 0.70761 0.0
H4465 H 0.36594 0.00419 0.72259 0.0
H4466 H 0.39708 0.03488 0.69745 0.0
H4467 H 0.3798 0.03461 0.68291 0.0
H4468 H 0.38384 0.99755 0.71765 0.0
H4469 H 0.41164 0.05235 0.73387 0.0
H4470 H 0.39551 0.04446 0.72508 0.0
H4471 H 0.41093 0.05071 0.71561 0.0
C4472 C 0.35914 0.01046 0.70542 0.0
C4473 C 0.36285 0.01902 0.69416 0.0
C4474 C 0.36905 0.01089 0.71397 0.0
C4475 C 0.38286 0.0198 0.71134 0.0
C4476 C 0.38654 0.02827 0.70001 0.0
H4477 H 0.44882 0.00862 0.73093 0.0
H4478 H 0.42854 0.00752 0.72197 0.0
C4479 C 0.37664 0.02803 0.69162 0.0
C4480 C 0.39341 0.0196 0.71984 0.0
H4481 H 0.42389 0.04047 0.73583 0.0
C4482 C 0.39249 0.00693 0.7218 0.0
C4483 C 0.40458 0.03175 0.72557 0.0
C4484 C 0.40564 0.04554 0.72505 0.0
C4485 C 0.4027 0.00617 0.72875 0.0
C4486 C 0.41443 0.01846 0.73342 0.0
C4487 C 0.41504 0.03105 0.73204 0.0
C4488 C 0.42639 0.01859 0.73923 0.0
C4489 C 0.40073 0.99217 0.73104 0.0
C4490 C 0.43228 0.02559 0.75169 0.0
C4491 C 0.44408 0.0265 0.75667 0.0
C4492 C 0.4501 0.02021 0.74939 0.0
C4493 C 0.44419 0.01324 0.73692 0.0
C4494 C 0.43254 0.01253 0.73185 0.0
H4495 H 0.38981 0.9842 0.73156 0.0
H4496 H 0.40503 0.98927 0.72233 0.0
H4497 H 0.40581 0.99207 0.74061 0.0
H4498 H 0.42783 0.03051 0.75749 0.0
H4499 H 0.44855 0.03225 0.76614 0.0
H4500 H 0.01456 0.34986 0.71232 0.0
H4501 H 0.01829 0.36797 0.72911 0.0
H4502 H 0.98474 0.36939 0.71175 0.0
H4503 H 0.98098 0.3514 0.69495 0.0
H4504 H 0.00917 0.3952 0.71459 0.0
H4505 H 0.99508 0.36618 0.76258 0.0
H4506 H 0.00688 0.36442 0.75195 0.0
H4507 H 0.98989 0.35781 0.74588 0.0
C4508 C 0.00791 0.35395 0.71217 0.0
C4509 C 0.9975 0.34925 0.70231 0.0
C4510 C 0.01001 0.36423 0.7218 0.0
C4511 C 0.00171 0.3699 0.72171 0.0
C4512 C 0.99121 0.36509 0.71199 0.0
H4513 H 0.99472 0.42676 0.78763 0.0
H4514 H 0.9902 0.40401 0.76965 0.0
C4515 C 0.98909 0.35482 0.70241 0.0
C4516 C 0.00443 0.38146 0.73116 0.0
H4517 H 0.00471 0.39032 0.76481 0.0
C4518 C 0.00826 0.39418 0.72558 0.0
C4519 C 0.00297 0.37996 0.74545 0.0
C4520 C 0.99837 0.36634 0.75188 0.0
C4521 C 0.01084 0.40554 0.73392 0.0
C4522 C 0.00974 0.40414 0.74823 0.0
C4523 C 0.00568 0.39137 0.75383 0.0
C4524 C 0.0126 0.41575 0.75756 0.0
C4525 C 0.01412 0.41872 0.72729 0.0
C4526 C 0.02914 0.4312 0.75745 0.0
C4527 C 0.03307 0.44565 0.76867 0.0
C4528 C 0.01827 0.44429 0.77777 0.0
C4529 C 0.00267 0.4275 0.78116 0.0
C4530 C 0.99976 0.41365 0.76952 0.0
H4531 H 0.01218 0.41727 0.71609 0.0
H4532 H 0.00795 0.42273 0.73179 0.0
H4533 H 0.02496 0.42656 0.72902 0.0
H4534 H 0.03681 0.43178 0.75065 0.0
H4535 H 0.0425 0.45534 0.76785 0.0
H4536 H 0.65467 0.66938 0.71248 0.0
H4537 H 0.63577 0.65664 0.72804 0.0
H4538 H 0.62197 0.6198 0.70294 0.0
H4539 H 0.64117 0.63226 0.68794 0.0
H4540 H 0.6103 0.64519 0.72444 0.0
H4541 H 0.6191 0.60394 0.73884 0.0
H4542 H 0.63158 0.61872 0.72985 0.0
H4543 H 0.61814 0.60402 0.72062 0.0
C4544 C 0.6477 0.65851 0.71045 0.0
C4545 C 0.64943 0.65176 0.69909 0.0
C4546 C 0.6369 0.65123 0.71933 0.0
C4547 C 0.62757 0.63714 0.71688 0.0
C4548 C 0.62927 0.6305 0.70541 0.0
H4549 H 0.54361 0.59236 0.7366 0.0
H4550 H 0.56624 0.60826 0.72826 0.0
C4551 C 0.6402 0.63767 0.69674 0.0
C4552 C 0.61553 0.62955 0.72567 0.0
H4553 H 0.59591 0.59868 0.74061 0.0
C4554 C 0.60729 0.63512 0.72819 0.0
C4555 C 0.6117 0.61657 0.73095 0.0
C4556 C 0.62071 0.61058 0.73006 0.0
C4557 C 0.59502 0.62776 0.73514 0.0
C4558 C 0.59053 0.61419 0.73914 0.0
C4559 C 0.59913 0.60895 0.73731 0.0
C4560 C 0.57677 0.60501 0.74465 0.0
C4561 C 0.58708 0.63472 0.73813 0.0
C4562 C 0.57502 0.5974 0.75635 0.0
C4563 C 0.56203 0.58789 0.76084 0.0
C4564 C 0.5505 0.58598 0.75387 0.0
C4565 C 0.5523 0.59374 0.74228 0.0
C4566 C 0.56525 0.60297 0.7376 0.0
H4567 H 0.59394 0.64603 0.73947 0.0
H4568 H 0.58022 0.63286 0.72936 0.0
H4569 H 0.58096 0.63079 0.74749 0.0
H4570 H 0.58371 0.59866 0.76191 0.0
H4571 H 0.56109 0.58198 0.7697 0.0
H4572 H 0.68998 0.71163 0.65736 0.0
H4573 H 0.68376 0.72599 0.64471 0.0
H4574 H 0.64882 0.68952 0.62772 0.0
H4575 H 0.65484 0.67516 0.64033 0.0
H4576 H 0.67782 0.72675 0.61555 0.0
H4577 H 0.63357 0.71072 0.64912 0.0
H4578 H 0.64737 0.70828 0.65347 0.0
H4579 H 0.63453 0.69671 0.6414 0.0
C4580 C 0.68109 0.70669 0.65077 0.0
C4581 C 0.67281 0.69227 0.64996 0.0
C4582 C 0.67756 0.7149 0.64356 0.0
C4583 C 0.66571 0.70879 0.63549 0.0
C4584 C 0.65789 0.69442 0.63408 0.0
H4585 H 0.61674 0.73249 0.59206 0.0
H4586 H 0.62753 0.72084 0.6018 0.0
C4587 C 0.66137 0.68624 0.64127 0.0
C4588 C 0.66096 0.71728 0.62919 0.0
H4589 H 0.63466 0.72298 0.62949 0.0
C4590 C 0.66845 0.72604 0.61864 0.0
C4591 C 0.64876 0.71636 0.63332 0.0
C4592 C 0.64063 0.70761 0.64503 0.0
C4593 C 0.66377 0.73354 0.61175 0.0
C4594 C 0.65139 0.73233 0.61568 0.0
C4595 C 0.64409 0.72379 0.62643 0.0
C4596 C 0.64561 0.73959 0.60869 0.0
C4597 C 0.67185 0.74235 0.60008 0.0
C4598 C 0.65221 0.754 0.60932 0.0
C4599 C 0.64607 0.76068 0.60373 0.0
C4600 C 0.63323 0.75305 0.59736 0.0
C4601 C 0.62672 0.73863 0.59667 0.0
C4602 C 0.63286 0.73198 0.60226 0.0
H4603 H 0.6795 0.73986 0.59643 0.0
H4604 H 0.6651 0.74105 0.59138 0.0
H4605 H 0.67726 0.75332 0.60353 0.0
H4606 H 0.6619 0.76005 0.61453 0.0
H4607 H 0.65117 0.77179 0.60468 0.0
H4608 H 0.29914 0.98027 0.6532 0.0
H4609 H 0.28702 0.95911 0.63913 0.0
H4610 H 0.32487 0.96635 0.6229 0.0
H4611 H 0.33711 0.98761 0.63694 0.0
H4612 H 0.30291 0.95762 0.60297 0.0
H4613 H 0.28845 0.92405 0.64776 0.0
H4614 H 0.28433 0.93731 0.64889 0.0
H4615 H 0.30175 0.94193 0.64858 0.0
C4616 C 0.30489 0.97742 0.64658 0.0
C4617 C 0.31909 0.98554 0.64625 0.0
C4618 C 0.29795 0.9653 0.63859 0.0
C4619 C 0.30508 0.9611 0.63015 0.0
C4620 C 0.31921 0.96942 0.62942 0.0
H4621 H 0.27184 0.87125 0.5987 0.0
H4622 H 0.28783 0.8986 0.61087 0.0
C4623 C 0.32618 0.98153 0.63744 0.0
C4624 C 0.2978 0.94783 0.62237 0.0
H4625 H 0.27894 0.91313 0.62636 0.0
C4626 C 0.29765 0.94788 0.60805 0.0
C4627 C 0.29116 0.93516 0.62906 0.0
C4628 C 0.29148 0.93451 0.64442 0.0
C4629 C 0.29082 0.93554 0.60022 0.0
C4630 C 0.28382 0.9229 0.60694 0.0
C4631 C 0.28421 0.92286 0.62124 0.0
C4632 C 0.27625 0.90955 0.59949 0.0
C4633 C 0.29154 0.93623 0.58486 0.0
C4634 C 0.26371 0.90676 0.58674 0.0
C4635 C 0.25371 0.89024 0.57814 0.0
C4636 C 0.25537 0.87622 0.58553 0.0
C4637 C 0.27053 0.87952 0.59547 0.0
C4638 C 0.27996 0.89639 0.60347 0.0
H4639 H 0.30081 0.9457 0.58158 0.0
H4640 H 0.29143 0.92718 0.58012 0.0
H4641 H 0.2827 0.93654 0.5809 0.0
H4642 H 0.2619 0.91494 0.58446 0.0
H4643 H 0.24539 0.88811 0.57139 0.0
H4644 H 0.02465 0.31547 0.66643 0.0
H4645 H 0.04593 0.32267 0.65467 0.0
H4646 H 0.03685 0.34556 0.62662 0.0
H4647 H 0.01599 0.33908 0.63893 0.0
H4648 H 0.05339 0.31987 0.63061 0.0
H4649 H 0.07281 0.37536 0.63974 0.0
H4650 H 0.05741 0.36223 0.64726 0.0
H4651 H 0.05739 0.36712 0.62991 0.0
C4652 C 0.02717 0.32196 0.65769 0.0
C4653 C 0.01879 0.32687 0.65367 0.0
C4654 C 0.03934 0.32609 0.65098 0.0
C4655 C 0.04323 0.33502 0.63999 0.0
C4656 C 0.03437 0.33913 0.63539 0.0
H4657 H 0.11238 0.35017 0.58963 0.0
H4658 H 0.08964 0.34189 0.59808 0.0
C4659 C 0.02238 0.3353 0.64233 0.0
C4660 C 0.0567 0.34025 0.63363 0.0
H4661 H 0.08566 0.36967 0.62502 0.0
C4662 C 0.06046 0.33077 0.62943 0.0
C4663 C 0.06607 0.35449 0.63231 0.0
C4664 C 0.06328 0.36538 0.63768 0.0
C4665 C 0.0733 0.3351 0.62402 0.0
C4666 C 0.08245 0.34931 0.62216 0.0
C4667 C 0.07863 0.35877 0.62629 0.0
C4668 C 0.09625 0.35471 0.61658 0.0
C4669 C 0.07705 0.3244 0.62089 0.0
C4670 C 0.10758 0.36521 0.62375 0.0
C4671 C 0.12059 0.37037 0.61866 0.0
C4672 C 0.12264 0.36503 0.60638 0.0
C4673 C 0.11126 0.35458 0.59912 0.0
C4674 C 0.0982 0.34966 0.60406 0.0
H4675 H 0.07087 0.31499 0.62682 0.0
H4676 H 0.07513 0.32135 0.60989 0.0
H4677 H 0.0879 0.32841 0.62321 0.0
H4678 H 0.10638 0.36935 0.6334 0.0
H4679 H 0.12913 0.37843 0.62446 0.0
H4680 H 0.29847 0.3145 0.662 0.0
H4681 H 0.28443 0.31969 0.64752 0.0
H4682 H 0.31965 0.35862 0.63795 0.0
H4683 H 0.33369 0.35342 0.65206 0.0
H4684 H 0.27997 0.34087 0.6508 0.0
H4685 H 0.30312 0.34413 0.60048 0.0
H4686 H 0.30625 0.33658 0.61493 0.0
H4687 H 0.31555 0.35496 0.61316 0.0
C4688 C 0.30323 0.32406 0.65663 0.0
C4689 C 0.31719 0.33352 0.65813 0.0
C4690 C 0.2952 0.32702 0.64839 0.0
C4691 C 0.30102 0.33945 0.64148 0.0
C4692 C 0.31498 0.34882 0.64289 0.0
H4693 H 0.26757 0.38752 0.61599 0.0
H4694 H 0.27744 0.37617 0.62818 0.0
C4695 C 0.32299 0.34585 0.65105 0.0
C4696 C 0.29249 0.34315 0.63352 0.0
H4697 H 0.29015 0.3552 0.60274 0.0
C4698 C 0.28206 0.34382 0.64023 0.0
C4699 C 0.29508 0.34681 0.61967 0.0
C4700 C 0.30552 0.34544 0.6116 0.0
C4701 C 0.27457 0.34864 0.63365 0.0
C4702 C 0.27779 0.35317 0.6201 0.0
C4703 C 0.2878 0.35191 0.6132 0.0
C4704 C 0.27124 0.35967 0.61303 0.0
C4705 C 0.2633 0.34884 0.6413 0.0
C4706 C 0.26479 0.35439 0.60029 0.0
C4707 C 0.25926 0.36093 0.59327 0.0
C4708 C 0.25999 0.37284 0.5989 0.0
C4709 C 0.26656 0.37817 0.61159 0.0
C4710 C 0.27214 0.37166 0.61858 0.0
H4711 H 0.25936 0.34121 0.64951 0.0
H4712 H 0.26724 0.35918 0.64618 0.0
H4713 H 0.25479 0.34664 0.63433 0.0
H4714 H 0.26414 0.34526 0.59573 0.0
H4715 H 0.25455 0.35678 0.58335 0.0
H4716 H 0.65191 0.98633 0.63231 0.0
H4717 H 0.64217 0.96347 0.62124 0.0
H4718 H 0.67725 0.96191 0.63332 0.0
H4719 H 0.687 0.98466 0.64448 0.0
H4720 H 0.65257 0.95136 0.60074 0.0
H4721 H 0.64412 0.9292 0.65227 0.0
H4722 H 0.64768 0.94642 0.64965 0.0
H4723 H 0.66112 0.94282 0.64906 0.0
C4724 C 0.65765 0.98122 0.6324 0.0
C4725 C 0.67014 0.9872 0.63942 0.0
C4726 C 0.65208 0.96818 0.62606 0.0
C4727 C 0.65892 0.96096 0.62666 0.0
C4728 C 0.67176 0.96727 0.63291 0.0
H4729 H 0.6359 0.8762 0.61249 0.0
H4730 H 0.64832 0.90111 0.6167 0.0
C4731 C 0.67731 0.98027 0.63926 0.0
C4732 C 0.65219 0.94641 0.62184 0.0
H4733 H 0.63912 0.91395 0.63338 0.0
C4734 C 0.6496 0.94315 0.60783 0.0
C4735 C 0.64828 0.93576 0.63117 0.0
C4736 C 0.65032 0.93865 0.64639 0.0
C4737 C 0.64347 0.92945 0.60286 0.0
C4738 C 0.63965 0.91881 0.6122 0.0
C4739 C 0.64216 0.92213 0.62621 0.0
C4740 C 0.63288 0.90408 0.60786 0.0
C4741 C 0.64141 0.92653 0.58766 0.0
C4742 C 0.62015 0.8975 0.60131 0.0
C4743 C 0.61308 0.88326 0.5988 0.0
C4744 C 0.61857 0.87536 0.60292 0.0
C4745 C 0.63146 0.88204 0.60913 0.0
C4746 C 0.63855 0.89626 0.61156 0.0
H4747 H 0.64812 0.93584 0.5818 0.0
H4748 H 0.64332 0.91823 0.58447 0.0
H4749 H 0.63078 0.92312 0.58492 0.0
H4750 H 0.61542 0.90327 0.59866 0.0
H4751 H 0.6031 0.87834 0.59411 0.0
H4752 H 0.01179 0.70293 0.65717 0.0
H4753 H 0.03268 0.71428 0.6441 0.0
H4754 H 0.03084 0.67554 0.63833 0.0
H4755 H 0.00971 0.66405 0.65104 0.0
H4756 H 0.05637 0.71669 0.65032 0.0
H4757 H 0.03827 0.68938 0.60005 0.0
H4758 H 0.02683 0.68816 0.6133 0.0
H4759 H 0.03464 0.67795 0.61383 0.0
C4760 C 0.01574 0.69679 0.65295 0.0
C4761 C 0.0091 0.6826 0.65508 0.0
C4762 C 0.02769 0.7033 0.64551 0.0
C4763 C 0.03326 0.69574 0.64009 0.0
C4764 C 0.02658 0.68153 0.64212 0.0
H4765 H 0.11768 0.73121 0.61726 0.0
H4766 H 0.0958 0.71923 0.62873 0.0
C4767 C 0.01453 0.67499 0.64944 0.0
C4768 C 0.04643 0.70291 0.63301 0.0
H4769 H 0.06218 0.70329 0.6033 0.0
C4770 C 0.05762 0.7138 0.64001 0.0
C4771 C 0.04804 0.69922 0.61952 0.0
C4772 C 0.03628 0.68813 0.61118 0.0
C4773 C 0.07038 0.72101 0.63394 0.0
C4774 C 0.07208 0.71702 0.62063 0.0
C4775 C 0.06088 0.70623 0.61357 0.0
C4776 C 0.08532 0.72413 0.61371 0.0
C4777 C 0.08184 0.73303 0.64174 0.0
C4778 C 0.08659 0.73051 0.60128 0.0
C4779 C 0.09903 0.73728 0.59469 0.0
C4780 C 0.11048 0.73786 0.60046 0.0
C4781 C 0.10911 0.73119 0.61276 0.0
C4782 C 0.09664 0.72439 0.61932 0.0
H4783 H 0.07807 0.737 0.65005 0.0
H4784 H 0.08836 0.72968 0.64645 0.0
H4785 H 0.08817 0.74157 0.63484 0.0
H4786 H 0.07795 0.73032 0.5967 0.0
H4787 H 0.09971 0.74206 0.58507 0.0
H4788 H 0.95699 0.62501 0.69593 0.0
H4789 H 0.95776 0.60758 0.70935 0.0
H4790 H 0.9977 0.63794 0.72424 0.0
H4791 H 0.99693 0.65547 0.71104 0.0
H4792 H 0.97643 0.59967 0.70556 0.0
H4793 H 0.97917 0.6185 0.75907 0.0
H4794 H 0.97399 0.62475 0.74498 0.0
H4795 H 0.99163 0.63108 0.74808 0.0
C4796 C 0.96584 0.62804 0.70226 0.0
C4797 C 0.9769 0.64162 0.70241 0.0
C4798 C 0.96627 0.61806 0.70991 0.0
C4799 C 0.97773 0.62148 0.7179 0.0
C4800 C 0.98864 0.63512 0.71838 0.0
H4801 H 0.0044 0.57208 0.75856 0.0
H4802 H 0.00273 0.59102 0.74926 0.0
C4803 C 0.9882 0.64512 0.71076 0.0
C4804 C 0.97874 0.61053 0.7247 0.0
H4805 H 0.98345 0.60023 0.7556 0.0
C4806 C 0.97787 0.59975 0.71651 0.0
C4807 C 0.98075 0.61073 0.73898 0.0
C4808 C 0.98133 0.62181 0.74833 0.0
C4809 C 0.97906 0.58921 0.72218 0.0
C4810 C 0.98098 0.58936 0.73645 0.0
C4811 C 0.98196 0.60018 0.74466 0.0
C4812 C 0.98175 0.57817 0.74296 0.0
C4813 C 0.97847 0.57811 0.71283 0.0
C4814 C 0.97044 0.56478 0.7427 0.0
C4815 C 0.97134 0.55401 0.74804 0.0
C4816 C 0.98354 0.55645 0.75389 0.0
C4817 C 0.99481 0.56994 0.75434 0.0
C4818 C 0.99388 0.58074 0.74901 0.0
H4819 H 0.98009 0.58117 0.702 0.0
H4820 H 0.98618 0.57559 0.71589 0.0
H4821 H 0.96835 0.56865 0.71354 0.0
H4822 H 0.96096 0.56262 0.73815 0.0
H4823 H 0.96256 0.5437 0.74739 0.0
H4824 H 0.33972 0.35842 0.71581 0.0
H4825 H 0.35282 0.38082 0.72782 0.0
H4826 H 0.38991 0.3837 0.71482 0.0
H4827 H 0.37695 0.36135 0.7028 0.0
H4828 H 0.37702 0.39269 0.74832 0.0
H4829 H 0.38722 0.41635 0.69733 0.0
H4830 H 0.37342 0.39909 0.70014 0.0
H4831 H 0.39043 0.40257 0.69922 0.0
C4832 C 0.35067 0.36369 0.71574 0.0
C4833 C 0.35731 0.35822 0.70822 0.0
C4834 C 0.35812 0.37646 0.72263 0.0
C4835 C 0.37229 0.38391 0.72207 0.0
C4836 C 0.37896 0.37809 0.71529 0.0
H4837 H 0.43283 0.4695 0.73683 0.0
H4838 H 0.42095 0.44468 0.73197 0.0
C4839 C 0.37154 0.36533 0.70843 0.0
C4840 C 0.38005 0.39833 0.72725 0.0
H4841 H 0.39767 0.43127 0.71637 0.0
C4842 C 0.38156 0.40116 0.74139 0.0
C4843 C 0.38587 0.40929 0.71813 0.0
C4844 C 0.38412 0.40677 0.70285 0.0
C4845 C 0.38901 0.41477 0.74665 0.0
C4846 C 0.39486 0.42574 0.73749 0.0
C4847 C 0.39326 0.42284 0.72337 0.0
C4848 C 0.40256 0.44037 0.74218 0.0
C4849 C 0.39079 0.4173 0.76191 0.0
C4850 C 0.39622 0.44615 0.74968 0.0
C4851 C 0.40302 0.46033 0.75252 0.0
C4852 C 0.41627 0.46896 0.74786 0.0
C4853 C 0.42269 0.46308 0.74066 0.0
C4854 C 0.41591 0.44892 0.73787 0.0
H4855 H 0.3888 0.40795 0.76727 0.0
H4856 H 0.40119 0.42582 0.76459 0.0
H4857 H 0.38354 0.42025 0.76572 0.0
H4858 H 0.38581 0.4398 0.75282 0.0
H4859 H 0.39777 0.46464 0.7579 0.0
H4860 H 0.66072 0.03758 0.68282 0.0
H4861 H 0.6434 0.03609 0.69846 0.0
H4862 H 0.63414 0.99577 0.7099 0.0
H4863 H 0.65155 0.99729 0.69459 0.0
H4864 H 0.61633 0.01766 0.69799 0.0
H4865 H 0.63837 0.01446 0.74683 0.0
H4866 H 0.64793 0.0196 0.73126 0.0
H4867 H 0.63664 0.00166 0.73448 0.0
C4868 C 0.65508 0.02846 0.68878 0.0
C4869 C 0.65755 0.01758 0.68753 0.0
C4870 C 0.64518 0.02762 0.6977 0.0
C4871 C 0.63763 0.01592 0.70553 0.0
C4872 C 0.64007 0.00505 0.70424 0.0
H4873 H 0.55866 0.98208 0.74014 0.0
H4874 H 0.57836 0.98904 0.72568 0.0
C4875 C 0.64998 0.0059 0.69541 0.0
C4876 C 0.62673 0.01471 0.71456 0.0
H4877 H 0.61482 0.00728 0.74705 0.0
C4878 C 0.61607 0.01555 0.70876 0.0
C4879 C 0.6265 0.01218 0.72865 0.0
C4880 C 0.63805 0.01207 0.73571 0.0
C4881 C 0.60493 0.01337 0.71655 0.0
C4882 C 0.6043 0.00998 0.73043 0.0
C4883 C 0.61522 0.00971 0.73636 0.0
C4884 C 0.59224 0.00623 0.73888 0.0
C4885 C 0.59394 0.01473 0.70982 0.0
C4886 C 0.59354 0.01336 0.75128 0.0
C4887 C 0.58231 0.00933 0.7596 0.0
C4888 C 0.56954 0.99813 0.75564 0.0
C4889 C 0.5683 0.99096 0.74328 0.0
C4890 C 0.57953 0.99496 0.73498 0.0
H4891 H 0.59781 0.02143 0.70085 0.0
H4892 H 0.58572 0.00442 0.70616 0.0
H4893 H 0.58958 0.01904 0.7171 0.0
H4894 H 0.60329 0.02197 0.75457 0.0
H4895 H 0.58364 0.01485 0.76923 0.0
loop_
_geom_bond_atom_site_label_1
_geom_bond_atom_site_label_2
_geom_bond_distance
_geom_bond_site_symmetry_2
_ccdc_geom_bond_type
Co0 O1 2.216 . S
Co0 O2 2.091 . S
Co0 O4 2.004 1_554 S
Co0 O10 2.021 . S
Co0 O12 2.137 1_554 S
Co0 O13 2.244 1_455 S
O1 Co0 2.216 . S
O1 C8 1.247 . S
O2 Co0 2.091 . S
O2 C8 1.261 . S
C3 O12 1.247 1_655 S
C3 O13 1.272 1_556 S
O4 Co0 2.004 1_556 S
O4 C9 1.259 . S
Co5 O6 2.061 1_554 S
Co5 O11 2.052 . S
Co5 O13 2.135 . S
O6 Co5 2.061 1_556 S
O6 C9 1.235 1_655 S
C7 O10 1.238 1_655 S
C7 O11 1.241 . S
C8 O1 1.247 . S
C8 O2 1.261 . S
C9 O4 1.259 . S
C9 O6 1.235 1_455 S
O10 Co0 2.021 . S
O10 C7 1.238 1_455 S
O11 Co5 2.052 . S
O11 C7 1.241 . S
O12 Co0 2.137 1_556 S
O12 C3 1.247 1_455 S
O13 Co0 2.244 1_655 S
O13 C3 1.272 1_554 S
O13 Co5 2.135 . S
Co14 O15 2.192 1_554 S
Co14 O16 2.091 . S
Co14 O18 2.004 . S
Co14 O24 2.021 . S
Co14 O26 2.137 . S
Co14 O27 2.244 . S
O15 Co14 2.192 1_556 S
O15 C22 1.242 1_556 S
O16 Co14 2.091 . S
O16 C22 1.286 . S
C17 O26 1.247 . S
C17 O27 1.272 . S
O18 Co14 2.004 . S
O18 C23 1.259 . S
Co19 O20 2.061 . S
Co19 O25 2.052 . S
Co19 O27 2.135 . S
O20 Co19 2.061 . S
O20 C23 1.235 . S
C21 O24 1.238 1_556 S
C21 O25 1.241 1_556 S
C22 O15 1.242 1_554 S
C22 O16 1.286 . S
C23 O18 1.259 . S
C23 O20 1.235 . S
O24 Co14 2.021 . S
O24 C21 1.238 1_554 S
O25 Co19 2.052 . S
O25 C21 1.241 1_554 S
O26 Co14 2.137 . S
O26 C17 1.247 . S
O27 Co14 2.244 . S
O27 C17 1.272 . S
O27 Co19 2.135 . S
Co28 O29 2.216 1_554 S
Co28 O30 2.091 . S
Co28 O32 2.004 . S
Co28 O38 2.021 1_554 S
Co28 O40 2.137 . S
Co28 O41 2.244 1_545 S
O29 Co28 2.216 1_556 S
O29 C36 1.247 . S
O30 Co28 2.091 . S
O30 C36 1.261 1_554 S
C31 O40 1.247 1_565 S
C31 O41 1.272 . S
O32 Co28 2.004 . S
O32 C37 1.259 . S
Co33 O34 2.061 . S
Co33 O39 2.052 1_554 S
Co33 O41 2.135 . S
O34 Co33 2.061 . S
O34 C37 1.235 1_565 S
C35 O38 1.256 . S
C35 O39 1.225 1_545 S
C36 O29 1.247 . S
C36 O30 1.261 1_556 S
C37 O32 1.259 . S
C37 O34 1.235 1_545 S
O38 Co28 2.021 1_556 S
O38 C35 1.256 . S
O39 Co33 2.052 1_556 S
O39 C35 1.225 1_565 S
O40 Co28 2.137 . S
O40 C31 1.247 1_545 S
O41 Co28 2.244 1_565 S
O41 C31 1.272 . S
O41 Co33 2.135 . S
Co42 O43 2.216 1_554 S
Co42 O44 2.091 . S
Co42 O46 2.004 . S
Co42 O52 2.021 1_554 S
Co42 O54 2.137 1_655 S
Co42 O55 2.244 1_655 S
O43 Co42 2.216 1_556 S
O43 C50 1.247 . S
O44 Co42 2.091 . S
O44 C50 1.261 1_554 S
C45 O54 1.247 . S
C45 O55 1.272 . S
O46 Co42 2.004 . S
O46 C51 1.259 . S
Co47 O48 2.061 . S
Co47 O53 2.052 1_554 S
Co47 O55 2.135 . S
O48 Co47 2.061 . S
O48 C51 1.235 1_455 S
C49 O52 1.238 1_455 S
C49 O53 1.241 . S
C50 O43 1.247 . S
C50 O44 1.261 1_556 S
C51 O46 1.259 . S
C51 O48 1.235 1_655 S
O52 Co42 2.021 1_556 S
O52 C49 1.238 1_655 S
O53 Co47 2.052 1_556 S
O53 C49 1.241 . S
O54 Co42 2.137 1_455 S
O54 C45 1.247 . S
O55 Co42 2.244 1_455 S
O55 C45 1.272 . S
O55 Co47 2.135 . S
Co56 O57 2.216 . S
Co56 O58 2.091 . S
Co56 O60 2.004 1_554 S
Co56 O66 2.021 . S
Co56 O68 2.137 1_554 S
Co56 O69 2.244 1_554 S
O57 Co56 2.216 . S
O57 C64 1.247 . S
O58 Co56 2.091 . S
O58 C64 1.261 . S
C59 O68 1.247 . S
C59 O69 1.272 . S
O60 Co56 2.004 1_556 S
O60 C65 1.259 . S
Co61 O62 2.061 . S
Co61 O67 2.052 1_556 S
Co61 O69 2.135 . S
O62 Co61 2.061 . S
O62 C65 1.235 . S
C63 O66 1.238 . S
C63 O67 1.241 . S
C64 O57 1.247 . S
C64 O58 1.261 . S
C65 O60 1.259 . S
C65 O62 1.235 . S
O66 Co56 2.021 . S
O66 C63 1.238 . S
O67 Co61 2.052 1_554 S
O67 C63 1.241 . S
O68 Co56 2.137 1_556 S
O68 C59 1.247 . S
O69 Co56 2.244 1_556 S
O69 C59 1.272 . S
O69 Co61 2.135 . S
Co70 O71 2.216 . S
Co70 O72 2.091 . S
Co70 O74 2.004 1_554 S
Co70 O80 2.021 . S
Co70 O82 2.137 1_564 S
Co70 O83 2.244 1_565 S
O71 Co70 2.216 . S
O71 C78 1.247 . S
O72 Co70 2.091 . S
O72 C78 1.261 . S
C73 O82 1.247 . S
C73 O83 1.272 1_556 S
O74 Co70 2.004 1_556 S
O74 C79 1.259 . S
Co75 O76 2.061 1_554 S
Co75 O81 2.052 . S
Co75 O83 2.135 . S
O76 Co75 2.061 1_556 S
O76 C79 1.235 1_545 S
C77 O80 1.238 1_545 S
C77 O81 1.241 . S
C78 O71 1.247 . S
C78 O72 1.261 . S
C79 O74 1.259 . S
C79 O76 1.235 1_565 S
O80 Co70 2.021 . S
O80 C77 1.238 1_565 S
O81 Co75 2.052 . S
O81 C77 1.241 . S
O82 Co70 2.137 1_546 S
O82 C73 1.247 . S
O83 Co70 2.244 1_545 S
O83 C73 1.272 1_554 S
O83 Co75 2.135 . S
Co84 O85 2.216 . S
Co84 O86 2.091 . S
Co84 O88 2.004 . S
Co84 O94 2.021 . S
Co84 O96 2.137 . S
Co84 O97 2.244 . S
O85 Co84 2.216 . S
O85 C92 1.247 . S
O86 Co84 2.091 . S
O86 C92 1.261 . S
C87 O96 1.247 . S
C87 O97 1.272 . S
O88 Co84 2.004 . S
O88 C93 1.259 . S
Co89 O90 2.061 . S
Co89 O95 2.052 . S
Co89 O97 2.135 . S
O90 Co89 2.061 . S
O90 C93 1.235 . S
C91 O94 1.238 . S
C91 O95 1.241 . S
C92 O85 1.247 . S
C92 O86 1.261 . S
C93 O88 1.259 . S
C93 O90 1.235 . S
O94 Co84 2.021 . S
O94 C91 1.238 . S
O95 Co89 2.052 . S
O95 C91 1.241 . S
O96 Co84 2.137 . S
O96 C87 1.247 . S
O97 Co84 2.244 . S
O97 C87 1.272 . S
O97 Co89 2.135 . S
Co98 O99 2.216 . S
Co98 O100 2.091 . S
Co98 O102 2.004 . S
Co98 O108 2.021 . S
Co98 O110 2.141 . S
Co98 O111 2.244 . S
O99 Co98 2.216 . S
O99 C106 1.247 . S
O100 Co98 2.091 . S
O100 C106 1.261 . S
C101 O110 1.242 1_545 S
C101 O111 1.272 1_545 S
O102 Co98 2.004 . S
O102 C107 1.259 . S
Co103 O104 2.061 . S
Co103 O109 2.052 . S
Co103 O111 2.135 . S
O104 Co103 2.061 . S
O104 C107 1.235 . S
C105 O108 1.238 . S
C105 O109 1.241 . S
C106 O99 1.247 . S
C106 O100 1.261 . S
C107 O102 1.259 . S
C107 O104 1.235 . S
O108 Co98 2.021 . S
O108 C105 1.238 . S
O109 Co103 2.052 . S
O109 C105 1.241 . S
O110 Co98 2.141 . S
O110 C101 1.242 1_565 S
O111 Co98 2.244 . S
O111 C101 1.272 1_565 S
O111 Co103 2.135 . S
Co112 O113 2.216 . S
Co112 O114 2.091 . S
Co112 O116 2.004 . S
Co112 O122 2.021 . S
Co112 O124 2.137 . S
Co112 O125 2.244 . S
O113 Co112 2.216 . S
O113 C120 1.247 . S
O114 Co112 2.091 . S
O114 C120 1.261 . S
C115 O124 1.247 . S
C115 O125 1.272 . S
O116 Co112 2.004 . S
O116 C121 1.259 . S
Co117 O118 2.061 . S
Co117 O123 2.052 . S
Co117 O125 2.135 . S
O118 Co117 2.061 . S
O118 C121 1.235 . S
C119 O122 1.238 . S
C119 O123 1.241 . S
C120 O113 1.247 . S
C120 O114 1.261 . S
C121 O116 1.259 . S
C121 O118 1.235 . S
O122 Co112 2.021 . S
O122 C119 1.238 . S
O123 Co117 2.052 . S
O123 C119 1.241 . S
O124 Co112 2.137 . S
O124 C115 1.247 . S
O125 Co112 2.244 . S
O125 C115 1.272 . S
O125 Co117 2.135 . S
Co126 O127 2.216 . S
Co126 O128 2.091 . S
Co126 O130 2.004 . S
Co126 O136 2.021 . S
Co126 O138 2.085 1_565 S
Co126 O139 2.244 . S
O127 Co126 2.216 . S
O127 C134 1.247 . S
O128 Co126 2.091 . S
O128 C134 1.261 . S
C129 O138 1.234 . S
C129 O139 1.272 1_545 S
O130 Co126 2.004 . S
O130 C135 1.259 . S
Co131 O132 2.061 . S
Co131 O137 2.052 . S
Co131 O139 2.135 . S
O132 Co131 2.061 . S
O132 C135 1.235 . S
C133 O136 1.238 . S
C133 O137 1.241 . S
C134 O127 1.247 . S
C134 O128 1.261 . S
C135 O130 1.259 . S
C135 O132 1.235 . S
O136 Co126 2.021 . S
O136 C133 1.238 . S
O137 Co131 2.052 . S
O137 C133 1.241 . S
O138 Co126 2.085 1_545 S
O138 C129 1.234 . S
O139 Co126 2.244 . S
O139 C129 1.272 1_565 S
O139 Co131 2.135 . S
Co140 O141 2.216 1_455 S
Co140 O142 2.091 1_455 S
Co140 O144 2.004 . S
Co140 O150 2.021 . S
Co140 O152 2.137 . S
Co140 O153 2.244 . S
O141 Co140 2.216 1_655 S
O141 C148 1.247 . S
O142 Co140 2.091 1_655 S
O142 C148 1.261 . S
C143 O152 1.247 . S
C143 O153 1.272 . S
O144 Co140 2.004 . S
O144 C149 1.259 . S
Co145 O146 2.061 . S
Co145 O151 2.052 . S
Co145 O153 2.135 . S
O146 Co145 2.061 . S
O146 C149 1.235 . S
C147 O150 1.238 . S
C147 O151 1.241 . S
C148 O141 1.247 . S
C148 O142 1.261 . S
C149 O144 1.259 . S
C149 O146 1.235 . S
O150 Co140 2.021 . S
O150 C147 1.238 . S
O151 Co145 2.052 . S
O151 C147 1.241 . S
O152 Co140 2.137 . S
O152 C143 1.247 . S
O153 Co140 2.244 . S
O153 C143 1.272 . S
O153 Co145 2.135 . S
Co154 O155 2.216 . S
Co154 O156 2.091 . S
Co154 O158 2.004 . S
Co154 O164 2.021 . S
Co154 O166 2.137 . S
Co154 O167 2.244 . S
O155 Co154 2.216 . S
O155 C162 1.247 . S
O156 Co154 2.091 . S
O156 C162 1.261 . S
C157 O166 1.247 . S
C157 O167 1.272 . S
O158 Co154 2.004 . S
O158 C163 1.259 . S
Co159 O160 2.061 . S
Co159 O165 2.052 . S
Co159 O167 2.135 . S
O160 Co159 2.061 . S
O160 C163 1.235 . S
C161 O164 1.238 . S
C161 O165 1.241 . S
C162 O155 1.247 . S
C162 O156 1.261 . S
C163 O158 1.259 . S
C163 O160 1.235 . S
O164 Co154 2.021 . S
O164 C161 1.238 . S
O165 Co159 2.052 . S
O165 C161 1.241 . S
O166 Co154 2.137 . S
O166 C157 1.247 . S
O167 Co154 2.244 . S
O167 C157 1.272 . S
O167 Co159 2.135 . S
Co168 O169 2.216 . S
Co168 O170 2.091 . S
Co168 O172 2.004 . S
Co168 O178 2.021 . S
Co168 O180 2.137 . S
Co168 O181 2.244 . S
O169 Co168 2.216 . S
O169 C176 1.247 . S
O170 Co168 2.091 . S
O170 C176 1.261 . S
C171 O180 1.265 1_565 S
C171 O181 1.215 1_565 S
O172 Co168 2.004 . S
O172 C177 1.259 . S
Co173 O174 2.061 . S
Co173 O179 2.052 . S
Co173 O181 2.135 . S
O174 Co173 2.061 . S
O174 C177 1.235 . S
C175 O178 1.238 . S
C175 O179 1.241 . S
C176 O169 1.247 . S
C176 O170 1.261 . S
C177 O172 1.259 . S
C177 O174 1.235 . S
O178 Co168 2.021 . S
O178 C175 1.238 . S
O179 Co173 2.052 . S
O179 C175 1.241 . S
O180 Co168 2.137 . S
O180 C171 1.265 1_545 S
O181 Co168 2.244 . S
O181 C171 1.215 1_545 S
O181 Co173 2.135 . S
Co182 O183 2.216 1_655 S
Co182 O184 2.091 1_655 S
Co182 O186 2.004 . S
Co182 O192 2.021 . S
Co182 O194 2.134 1_655 S
Co182 O195 2.244 . S
O183 Co182 2.216 1_455 S
O183 C190 1.247 . S
O184 Co182 2.091 1_455 S
O184 C190 1.261 . S
C185 O194 1.193 1_655 S
C185 O195 1.272 . S
O186 Co182 2.004 . S
O186 C191 1.259 . S
Co187 O188 2.061 . S
Co187 O193 2.052 . S
Co187 O195 2.135 . S
O188 Co187 2.061 . S
O188 C191 1.235 . S
C189 O192 1.238 . S
C189 O193 1.241 . S
C190 O183 1.247 . S
C190 O184 1.261 . S
C191 O186 1.259 . S
C191 O188 1.235 . S
O192 Co182 2.021 . S
O192 C189 1.238 . S
O193 Co187 2.052 . S
O193 C189 1.241 . S
O194 Co182 2.134 1_455 S
O194 C185 1.193 1_455 S
O195 Co182 2.244 . S
O195 C185 1.272 . S
O195 Co187 2.135 . S
Co196 O197 2.216 . S
Co196 O198 2.091 . S
Co196 O200 2.004 . S
Co196 O206 2.021 . S
Co196 O208 2.137 . S
Co196 O209 2.244 . S
O197 Co196 2.216 . S
O197 C204 1.247 . S
O198 Co196 2.091 . S
O198 C204 1.261 . S
C199 O208 1.247 . S
C199 O209 1.272 . S
O200 Co196 2.004 . S
O200 C205 1.259 . S
Co201 O202 2.061 . S
Co201 O207 2.052 . S
Co201 O209 2.135 . S
O202 Co201 2.061 . S
O202 C205 1.235 . S
C203 O206 1.238 . S
C203 O207 1.241 . S
C204 O197 1.247 . S
C204 O198 1.261 . S
C205 O200 1.259 . S
C205 O202 1.235 . S
O206 Co196 2.021 . S
O206 C203 1.238 . S
O207 Co201 2.052 . S
O207 C203 1.241 . S
O208 Co196 2.137 . S
O208 C199 1.247 . S
O209 Co196 2.244 . S
O209 C199 1.272 . S
O209 Co201 2.135 . S
Co210 O211 2.216 . S
Co210 O212 2.091 . S
Co210 O214 2.004 . S
Co210 O220 2.021 . S
Co210 O222 2.137 . S
Co210 O223 2.244 . S
O211 Co210 2.216 . S
O211 C218 1.247 . S
O212 Co210 2.091 . S
O212 C218 1.261 . S
C213 O222 1.247 . S
C213 O223 1.272 . S
O214 Co210 2.004 . S
O214 C219 1.259 . S
Co215 O216 2.061 . S
Co215 O221 2.052 . S
Co215 O223 2.135 . S
O216 Co215 2.061 . S
O216 C219 1.235 . S
C217 O220 1.238 . S
C217 O221 1.241 . S
C218 O211 1.247 . S
C218 O212 1.261 . S
C219 O214 1.259 . S
C219 O216 1.235 . S
O220 Co210 2.021 . S
O220 C217 1.238 . S
O221 Co215 2.052 . S
O221 C217 1.241 . S
O222 Co210 2.137 . S
O222 C213 1.247 . S
O223 Co210 2.244 . S
O223 C213 1.272 . S
O223 Co215 2.135 . S
Co224 O225 2.216 . S
Co224 O226 2.091 . S
Co224 O228 2.004 . S
Co224 O234 2.021 . S
Co224 O236 2.137 . S
Co224 O237 2.244 . S
O225 Co224 2.216 . S
O225 C232 1.247 . S
O226 Co224 2.091 . S
O226 C232 1.261 . S
C227 O236 1.243 . S
C227 O237 1.271 . S
O228 Co224 2.004 . S
O228 C233 1.259 . S
Co229 O230 2.061 . S
Co229 O235 2.052 . S
Co229 O237 2.135 . S
O230 Co229 2.061 . S
O230 C233 1.235 . S
C231 O234 1.238 . S
C231 O235 1.241 . S
C232 O225 1.247 . S
C232 O226 1.261 . S
C233 O228 1.259 . S
C233 O230 1.235 . S
O234 Co224 2.021 . S
O234 C231 1.238 . S
O235 Co229 2.052 . S
O235 C231 1.241 . S
O236 Co224 2.137 . S
O236 C227 1.243 . S
O237 Co224 2.244 . S
O237 C227 1.271 . S
O237 Co229 2.135 . S
Co238 O239 2.216 . S
Co238 O240 2.091 . S
Co238 O242 2.004 . S
Co238 O248 2.021 . S
Co238 O250 2.137 . S
Co238 O251 2.244 . S
O239 Co238 2.216 . S
O239 C246 1.247 . S
O240 Co238 2.091 . S
O240 C246 1.261 . S
C241 O250 1.231 . S
C241 O251 1.348 . S
O242 Co238 2.004 . S
O242 C247 1.259 . S
Co243 O244 2.061 . S
Co243 O249 2.052 . S
Co243 O251 2.135 . S
O244 Co243 2.061 . S
O244 C247 1.235 . S
C245 O248 1.238 . S
C245 O249 1.241 . S
C246 O239 1.247 . S
C246 O240 1.261 . S
C247 O242 1.259 . S
C247 O244 1.235 . S
O248 Co238 2.021 . S
O248 C245 1.238 . S
O249 Co243 2.052 . S
O249 C245 1.241 . S
O250 Co238 2.137 . S
O250 C241 1.231 . S
O251 Co238 2.244 . S
O251 C241 1.348 . S
O251 Co243 2.135 . S
C252 C253 1.560 . S
C252 H313 0.959 . S
C252 H314 0.959 . S
C252 H315 0.960 . S
C253 C252 1.560 . S
C253 O308 1.426 . S
C253 H312 0.980 . S
C254 C255 1.407 . S
C254 C259 1.418 . S
C254 O308 1.334 . S
C255 C254 1.407 . S
C255 C256 1.360 . S
C255 H316 0.929 . S
C256 C255 1.360 . S
C256 C257 1.401 . S
C256 C260 1.527 . S
C257 C256 1.401 . S
C257 C258 1.405 . S
C257 C290 1.587 . S
C258 C257 1.405 . S
C258 C259 1.332 . S
C258 C261 1.496 . S
C259 C254 1.418 . S
C259 C258 1.332 . S
C259 H317 0.929 . S
C260 C256 1.527 . S
C260 H318 0.959 . S
C260 H319 0.961 . S
C260 H320 0.961 . S
C261 C258 1.496 . S
C261 H321 0.960 . S
C261 H322 0.960 . S
C261 H323 0.961 . S
C262 C263 1.517 . S
C262 H325 0.961 . S
C262 H326 0.960 . S
C262 H327 0.959 . S
C263 C262 1.517 . S
C263 O311 1.468 . S
C263 H324 0.980 . S
C264 C265 1.349 . S
C264 C269 1.367 . S
C264 O311 1.408 . S
C265 C264 1.349 . S
C265 C266 1.407 . S
C265 H328 0.930 . S
C266 C265 1.407 . S
C266 C267 1.449 . S
C266 C270 1.535 . S
C267 C266 1.449 . S
C267 C268 1.384 . S
C267 C292 1.553 . S
C268 C267 1.384 . S
C268 C269 1.364 . S
C268 C271 1.450 . S
C269 C264 1.367 . S
C269 C268 1.364 . S
C269 H329 0.931 . S
C270 C266 1.535 . S
C270 H330 0.959 . S
C270 H331 0.961 . S
C270 H332 0.959 . S
C271 C268 1.450 . S
C271 H333 0.960 . S
C271 H334 0.960 . S
C271 H335 0.960 . S
C272 C273 1.309 . S
C272 C277 1.304 . S
C272 O310 1.435 . S
C273 C272 1.309 . S
C273 C274 1.476 . S
C273 H337 0.930 . S
C274 C273 1.476 . S
C274 C275 1.400 . S
C274 C278 1.567 . S
C275 C274 1.400 . S
C275 C276 1.373 . S
C275 C297 1.432 . S
C276 C275 1.373 . S
C276 C277 1.339 . S
C276 C279 1.530 . S
C277 C272 1.304 . S
C277 C276 1.339 . S
C277 H338 0.930 . S
C278 C274 1.567 . S
C278 H339 0.961 . S
C278 H340 0.960 . S
C278 H341 0.958 . S
C279 C276 1.530 . S
C279 H342 0.961 . S
C279 H343 0.960 . S
C279 H344 0.960 . S
C280 C281 1.530 . S
C280 H346 0.961 . S
C280 H347 0.961 . S
C280 H348 0.959 . S
C281 C280 1.530 . S
C281 O309 1.412 . S
C281 H345 0.980 . S
C282 C283 1.288 . S
C282 C287 1.377 . S
C282 O309 1.393 . S
C283 C282 1.288 . S
C283 C284 1.369 . S
C283 H349 0.932 . S
C284 C283 1.369 . S
C284 C285 1.398 . S
C284 C288 1.527 . S
C285 C284 1.398 . S
C285 C286 1.380 . S
C285 C299 1.497 . S
C286 C285 1.380 . S
C286 C287 1.383 . S
C286 C289 1.603 . S
C287 C282 1.377 . S
C287 C286 1.383 . S
C287 H350 0.929 . S
C288 C284 1.527 . S
C288 H351 0.961 . S
C288 H352 0.959 . S
C288 H353 0.959 . S
C289 C286 1.603 . S
C289 H354 0.960 . S
C289 H355 0.962 . S
C289 H356 0.961 . S
C290 C257 1.587 . S
C290 C291 1.360 . S
C290 C303 1.412 . S
C291 C290 1.360 . S
C291 C292 1.365 . S
C291 H357 0.929 . S
C292 C267 1.553 . S
C292 C291 1.365 . S
C292 C293 1.404 . S
C293 C292 1.404 . S
C293 C294 1.395 . S
C293 C304 1.451 . S
C294 C293 1.395 . S
C294 C295 1.322 . S
C294 H358 0.930 . S
C295 C294 1.322 . S
C295 C296 1.459 . S
C295 H359 0.929 . S
C296 C295 1.459 . S
C296 C297 1.445 . S
C296 C305 1.395 . S
C297 C275 1.432 . S
C297 C296 1.445 . S
C297 C298 1.370 . S
C298 C297 1.370 . S
C298 C299 1.438 . S
C298 H360 0.930 . S
C299 C285 1.497 . S
C299 C298 1.438 . S
C299 C300 1.360 . S
C300 C299 1.360 . S
C300 C301 1.401 . S
C300 C305 1.446 . S
C301 C300 1.401 . S
C301 C302 1.347 . S
C301 H361 0.929 . S
C302 C301 1.347 . S
C302 C303 1.455 . S
C302 H362 0.930 . S
C303 C290 1.412 . S
C303 C302 1.455 . S
C303 C304 1.331 . S
C304 C293 1.451 . S
C304 C303 1.331 . S
C304 C305 1.497 . S
C305 C296 1.395 . S
C305 C300 1.446 . S
C305 C304 1.497 . S
C306 C307 1.582 . S
C306 H363 0.962 . S
C306 H364 0.959 . S
C306 H365 0.958 . S
C307 C306 1.582 . S
C307 O310 1.458 . S
C307 H336 0.980 . S
O308 C253 1.426 . S
O308 C254 1.334 . S
O309 C281 1.412 . S
O309 C282 1.393 . S
O310 C272 1.435 . S
O310 C307 1.458 . S
O311 C263 1.468 . S
O311 C264 1.408 . S
H312 C253 0.980 . S
H313 C252 0.959 . S
H314 C252 0.959 . S
H315 C252 0.960 . S
H316 C255 0.929 . S
H317 C259 0.929 . S
H318 C260 0.959 . S
H319 C260 0.961 . S
H320 C260 0.961 . S
H321 C261 0.960 . S
H322 C261 0.960 . S
H323 C261 0.961 . S
H324 C263 0.980 . S
H325 C262 0.961 . S
H326 C262 0.960 . S
H327 C262 0.959 . S
H328 C265 0.930 . S
H329 C269 0.931 . S
H330 C270 0.959 . S
H331 C270 0.961 . S
H332 C270 0.959 . S
H333 C271 0.960 . S
H334 C271 0.960 . S
H335 C271 0.960 . S
H336 C307 0.980 . S
H337 C273 0.930 . S
H338 C277 0.930 . S
H339 C278 0.961 . S
H340 C278 0.960 . S
H341 C278 0.958 . S
H342 C279 0.961 . S
H343 C279 0.960 . S
H344 C279 0.960 . S
H345 C281 0.980 . S
H346 C280 0.961 . S
H347 C280 0.961 . S
H348 C280 0.959 . S
H349 C283 0.932 . S
H350 C287 0.929 . S
H351 C288 0.961 . S
H352 C288 0.959 . S
H353 C288 0.959 . S
H354 C289 0.960 . S
H355 C289 0.962 . S
H356 C289 0.961 . S
H357 C291 0.929 . S
H358 C294 0.930 . S
H359 C295 0.929 . S
H360 C298 0.930 . S
H361 C301 0.929 . S
H362 C302 0.930 . S
H363 C306 0.962 . S
H364 C306 0.959 . S
H365 C306 0.958 . S
C366 C367 1.560 . S
C366 H427 0.959 . S
C366 H428 0.959 . S
C366 H429 0.960 . S
C367 C366 1.560 . S
C367 O422 1.426 . S
C367 H426 0.980 . S
C368 C369 1.407 . S
C368 C373 1.418 . S
C368 O422 1.334 . S
C369 C368 1.407 . S
C369 C370 1.360 . S
C369 H430 0.929 . S
C370 C369 1.360 . S
C370 C371 1.401 . S
C370 C374 1.527 . S
C371 C370 1.401 . S
C371 C372 1.405 . S
C371 C404 1.587 . S
C372 C371 1.405 . S
C372 C373 1.332 . S
C372 C375 1.496 . S
C373 C368 1.418 . S
C373 C372 1.332 . S
C373 H431 0.929 . S
C374 C370 1.527 . S
C374 H432 0.959 . S
C374 H433 0.961 . S
C374 H434 0.961 . S
C375 C372 1.496 . S
C375 H435 0.960 . S
C375 H436 0.960 . S
C375 H437 0.961 . S
C376 C377 1.517 . S
C376 H439 0.961 . S
C376 H440 0.960 . S
C376 H441 0.959 . S
C377 C376 1.517 . S
C377 O425 1.468 . S
C377 H438 0.980 . S
C378 C379 1.349 . S
C378 C383 1.367 . S
C378 O425 1.408 . S
C379 C378 1.349 . S
C379 C380 1.407 . S
C379 H442 0.930 . S
C380 C379 1.407 . S
C380 C381 1.449 . S
C380 C384 1.535 . S
C381 C380 1.449 . S
C381 C382 1.384 . S
C381 C406 1.553 . S
C382 C381 1.384 . S
C382 C383 1.364 . S
C382 C385 1.450 . S
C383 C378 1.367 . S
C383 C382 1.364 . S
C383 H443 0.931 . S
C384 C380 1.535 . S
C384 H444 0.959 . S
C384 H445 0.961 . S
C384 H446 0.959 . S
C385 C382 1.450 . S
C385 H447 0.960 . S
C385 H448 0.960 . S
C385 H449 0.960 . S
C386 C387 1.309 . S
C386 C391 1.304 . S
C386 O424 1.435 . S
C387 C386 1.309 . S
C387 C388 1.476 . S
C387 H451 0.930 . S
C388 C387 1.476 . S
C388 C389 1.400 . S
C388 C392 1.567 . S
C389 C388 1.400 . S
C389 C390 1.373 . S
C389 C411 1.432 . S
C390 C389 1.373 . S
C390 C391 1.339 . S
C390 C393 1.530 . S
C391 C386 1.304 . S
C391 C390 1.339 . S
C391 H452 0.930 . S
C392 C388 1.567 . S
C392 H453 0.961 . S
C392 H454 0.960 . S
C392 H455 0.958 . S
C393 C390 1.530 . S
C393 H456 0.961 . S
C393 H457 0.960 . S
C393 H458 0.960 . S
C394 C395 1.530 . S
C394 H460 0.961 . S
C394 H461 0.961 . S
C394 H462 0.959 . S
C395 C394 1.530 . S
C395 O423 1.412 . S
C395 H459 0.980 . S
C396 C397 1.288 . S
C396 C401 1.377 . S
C396 O423 1.393 . S
C397 C396 1.288 . S
C397 C398 1.369 . S
C397 H463 0.932 . S
C398 C397 1.369 . S
C398 C399 1.398 . S
C398 C402 1.527 . S
C399 C398 1.398 . S
C399 C400 1.380 . S
C399 C413 1.497 . S
C400 C399 1.380 . S
C400 C401 1.383 . S
C400 C403 1.603 . S
C401 C396 1.377 . S
C401 C400 1.383 . S
C401 H464 0.929 . S
C402 C398 1.527 . S
C402 H465 0.961 . S
C402 H466 0.959 . S
C402 H467 0.959 . S
C403 C400 1.603 . S
C403 H468 0.960 . S
C403 H469 0.962 . S
C403 H470 0.961 . S
C404 C371 1.587 . S
C404 C405 1.360 . S
C404 C417 1.412 . S
C405 C404 1.360 . S
C405 C406 1.365 . S
C405 H471 0.929 . S
C406 C381 1.553 . S
C406 C405 1.365 . S
C406 C407 1.404 . S
C407 C406 1.404 . S
C407 C408 1.395 . S
C407 C418 1.451 . S
C408 C407 1.395 . S
C408 C409 1.322 . S
C408 H472 0.930 . S
C409 C408 1.322 . S
C409 C410 1.459 . S
C409 H473 0.929 . S
C410 C409 1.459 . S
C410 C411 1.445 . S
C410 C419 1.395 . S
C411 C389 1.432 . S
C411 C410 1.445 . S
C411 C412 1.370 . S
C412 C411 1.370 . S
C412 C413 1.438 . S
C412 H474 0.930 . S
C413 C399 1.497 . S
C413 C412 1.438 . S
C413 C414 1.360 . S
C414 C413 1.360 . S
C414 C415 1.401 . S
C414 C419 1.446 . S
C415 C414 1.401 . S
C415 C416 1.347 . S
C415 H475 0.929 . S
C416 C415 1.347 . S
C416 C417 1.455 . S
C416 H476 0.930 . S
C417 C404 1.412 . S
C417 C416 1.455 . S
C417 C418 1.331 . S
C418 C407 1.451 . S
C418 C417 1.331 . S
C418 C419 1.497 . S
C419 C410 1.395 . S
C419 C414 1.446 . S
C419 C418 1.497 . S
C420 C421 1.582 . S
C420 H477 0.962 . S
C420 H478 0.959 . S
C420 H479 0.958 . S
C421 C420 1.582 . S
C421 O424 1.458 . S
C421 H450 0.980 . S
O422 C367 1.426 . S
O422 C368 1.334 . S
O423 C395 1.412 . S
O423 C396 1.393 . S
O424 C386 1.435 . S
O424 C421 1.458 . S
O425 C377 1.468 . S
O425 C378 1.408 . S
H426 C367 0.980 . S
H427 C366 0.959 . S
H428 C366 0.959 . S
H429 C366 0.960 . S
H430 C369 0.929 . S
H431 C373 0.929 . S
H432 C374 0.959 . S
H433 C374 0.961 . S
H434 C374 0.961 . S
H435 C375 0.960 . S
H436 C375 0.960 . S
H437 C375 0.961 . S
H438 C377 0.980 . S
H439 C376 0.961 . S
H440 C376 0.960 . S
H441 C376 0.959 . S
H442 C379 0.930 . S
H443 C383 0.931 . S
H444 C384 0.959 . S
H445 C384 0.961 . S
H446 C384 0.959 . S
H447 C385 0.960 . S
H448 C385 0.960 . S
H449 C385 0.960 . S
H450 C421 0.980 . S
H451 C387 0.930 . S
H452 C391 0.930 . S
H453 C392 0.961 . S
H454 C392 0.960 . S
H455 C392 0.958 . S
H456 C393 0.961 . S
H457 C393 0.960 . S
H458 C393 0.960 . S
H459 C395 0.980 . S
H460 C394 0.961 . S
H461 C394 0.961 . S
H462 C394 0.959 . S
H463 C397 0.932 . S
H464 C401 0.929 . S
H465 C402 0.961 . S
H466 C402 0.959 . S
H467 C402 0.959 . S
H468 C403 0.960 . S
H469 C403 0.962 . S
H470 C403 0.961 . S
H471 C405 0.929 . S
H472 C408 0.930 . S
H473 C409 0.929 . S
H474 C412 0.930 . S
H475 C415 0.929 . S
H476 C416 0.930 . S
H477 C420 0.962 . S
H478 C420 0.959 . S
H479 C420 0.958 . S
C480 C481 1.560 . S
C480 H541 0.959 . S
C480 H542 0.959 . S
C480 H543 0.960 . S
C481 C480 1.560 . S
C481 O536 1.426 . S
C481 H540 0.980 . S
C482 C483 1.407 . S
C482 C487 1.418 . S
C482 O536 1.334 . S
C483 C482 1.407 . S
C483 C484 1.360 . S
C483 H544 0.929 . S
C484 C483 1.360 . S
C484 C485 1.401 . S
C484 C488 1.527 . S
C485 C484 1.401 . S
C485 C486 1.405 . S
C485 C518 1.587 . S
C486 C485 1.405 . S
C486 C487 1.332 . S
C486 C489 1.496 . S
C487 C482 1.418 . S
C487 C486 1.332 . S
C487 H545 0.929 . S
C488 C484 1.527 . S
C488 H546 0.959 . S
C488 H547 0.961 . S
C488 H548 0.961 . S
C489 C486 1.496 . S
C489 H549 0.960 . S
C489 H550 0.960 . S
C489 H551 0.961 . S
C490 C491 1.517 . S
C490 H553 0.961 . S
C490 H554 0.960 . S
C490 H555 0.959 . S
C491 C490 1.517 . S
C491 O539 1.468 . S
C491 H552 0.980 . S
C492 C493 1.349 . S
C492 C497 1.367 . S
C492 O539 1.408 . S
C493 C492 1.349 . S
C493 C494 1.407 . S
C493 H556 0.930 . S
C494 C493 1.407 . S
C494 C495 1.449 . S
C494 C498 1.535 . S
C495 C494 1.449 . S
C495 C496 1.384 . S
C495 C520 1.553 . S
C496 C495 1.384 . S
C496 C497 1.364 . S
C496 C499 1.450 . S
C497 C492 1.367 . S
C497 C496 1.364 . S
C497 H557 0.931 . S
C498 C494 1.535 . S
C498 H558 0.959 . S
C498 H559 0.961 . S
C498 H560 0.959 . S
C499 C496 1.450 . S
C499 H561 0.960 . S
C499 H562 0.960 . S
C499 H563 0.960 . S
C500 C501 1.309 . S
C500 C505 1.304 . S
C500 O538 1.435 . S
C501 C500 1.309 . S
C501 C502 1.476 . S
C501 H565 0.930 . S
C502 C501 1.476 . S
C502 C503 1.400 . S
C502 C506 1.567 . S
C503 C502 1.400 . S
C503 C504 1.373 . S
C503 C525 1.432 . S
C504 C503 1.373 . S
C504 C505 1.339 . S
C504 C507 1.530 . S
C505 C500 1.304 . S
C505 C504 1.339 . S
C505 H566 0.930 . S
C506 C502 1.567 . S
C506 H567 0.961 . S
C506 H568 0.960 . S
C506 H569 0.958 . S
C507 C504 1.530 . S
C507 H570 0.961 . S
C507 H571 0.960 . S
C507 H572 0.960 . S
C508 C509 1.530 . S
C508 H574 0.961 . S
C508 H575 0.961 . S
C508 H576 0.959 . S
C509 C508 1.530 . S
C509 O537 1.412 . S
C509 H573 0.980 . S
C510 C511 1.288 . S
C510 C515 1.377 . S
C510 O537 1.393 . S
C511 C510 1.288 . S
C511 C512 1.369 . S
C511 H577 0.932 . S
C512 C511 1.369 . S
C512 C513 1.398 . S
C512 C516 1.527 . S
C513 C512 1.398 . S
C513 C514 1.380 . S
C513 C527 1.497 . S
C514 C513 1.380 . S
C514 C515 1.383 . S
C514 C517 1.603 . S
C515 C510 1.377 . S
C515 C514 1.383 . S
C515 H578 0.929 . S
C516 C512 1.527 . S
C516 H579 0.961 . S
C516 H580 0.959 . S
C516 H581 0.959 . S
C517 C514 1.603 . S
C517 H582 0.960 . S
C517 H583 0.962 . S
C517 H584 0.961 . S
C518 C485 1.587 . S
C518 C519 1.360 . S
C518 C531 1.412 . S
C519 C518 1.360 . S
C519 C520 1.365 . S
C519 H585 0.929 . S
C520 C495 1.553 . S
C520 C519 1.365 . S
C520 C521 1.404 . S
C521 C520 1.404 . S
C521 C522 1.395 . S
C521 C532 1.451 . S
C522 C521 1.395 . S
C522 C523 1.322 . S
C522 H586 0.930 . S
C523 C522 1.322 . S
C523 C524 1.459 . S
C523 H587 0.929 . S
C524 C523 1.459 . S
C524 C525 1.445 . S
C524 C533 1.395 . S
C525 C503 1.432 . S
C525 C524 1.445 . S
C525 C526 1.370 . S
C526 C525 1.370 . S
C526 C527 1.438 . S
C526 H588 0.930 . S
C527 C513 1.497 . S
C527 C526 1.438 . S
C527 C528 1.360 . S
C528 C527 1.360 . S
C528 C529 1.401 . S
C528 C533 1.446 . S
C529 C528 1.401 . S
C529 C530 1.347 . S
C529 H589 0.929 . S
C530 C529 1.347 . S
C530 C531 1.455 . S
C530 H590 0.930 . S
C531 C518 1.412 . S
C531 C530 1.455 . S
C531 C532 1.331 . S
C532 C521 1.451 . S
C532 C531 1.331 . S
C532 C533 1.497 . S
C533 C524 1.395 . S
C533 C528 1.446 . S
C533 C532 1.497 . S
C534 C535 1.582 . S
C534 H591 0.962 . S
C534 H592 0.959 . S
C534 H593 0.958 . S
C535 C534 1.582 . S
C535 O538 1.458 . S
C535 H564 0.980 . S
O536 C481 1.426 . S
O536 C482 1.334 . S
O537 C509 1.412 . S
O537 C510 1.393 . S
O538 C500 1.435 . S
O538 C535 1.458 . S
O539 C491 1.468 . S
O539 C492 1.408 . S
H540 C481 0.980 . S
H541 C480 0.959 . S
H542 C480 0.959 . S
H543 C480 0.960 . S
H544 C483 0.929 . S
H545 C487 0.929 . S
H546 C488 0.959 . S
H547 C488 0.961 . S
H548 C488 0.961 . S
H549 C489 0.960 . S
H550 C489 0.960 . S
H551 C489 0.961 . S
H552 C491 0.980 . S
H553 C490 0.961 . S
H554 C490 0.960 . S
H555 C490 0.959 . S
H556 C493 0.930 . S
H557 C497 0.931 . S
H558 C498 0.959 . S
H559 C498 0.961 . S
H560 C498 0.959 . S
H561 C499 0.960 . S
H562 C499 0.960 . S
H563 C499 0.960 . S
H564 C535 0.980 . S
H565 C501 0.930 . S
H566 C505 0.930 . S
H567 C506 0.961 . S
H568 C506 0.960 . S
H569 C506 0.958 . S
H570 C507 0.961 . S
H571 C507 0.960 . S
H572 C507 0.960 . S
H573 C509 0.980 . S
H574 C508 0.961 . S
H575 C508 0.961 . S
H576 C508 0.959 . S
H577 C511 0.932 . S
H578 C515 0.929 . S
H579 C516 0.961 . S
H580 C516 0.959 . S
H581 C516 0.959 . S
H582 C517 0.960 . S
H583 C517 0.962 . S
H584 C517 0.961 . S
H585 C519 0.929 . S
H586 C522 0.930 . S
H587 C523 0.929 . S
H588 C526 0.930 . S
H589 C529 0.929 . S
H590 C530 0.930 . S
H591 C534 0.962 . S
H592 C534 0.959 . S
H593 C534 0.958 . S
C594 C595 1.560 . S
C594 H655 0.959 . S
C594 H656 0.959 . S
C594 H657 0.960 . S
C595 C594 1.560 . S
C595 O650 1.426 . S
C595 H654 0.980 . S
C596 C597 1.407 . S
C596 C601 1.418 . S
C596 O650 1.334 . S
C597 C596 1.407 . S
C597 C598 1.360 . S
C597 H658 0.929 . S
C598 C597 1.360 . S
C598 C599 1.401 . S
C598 C602 1.527 . S
C599 C598 1.401 . S
C599 C600 1.405 . S
C599 C632 1.587 . S
C600 C599 1.405 . S
C600 C601 1.332 . S
C600 C603 1.496 . S
C601 C596 1.418 . S
C601 C600 1.332 . S
C601 H659 0.929 . S
C602 C598 1.527 . S
C602 H660 0.959 . S
C602 H661 0.961 . S
C602 H662 0.961 . S
C603 C600 1.496 . S
C603 H663 0.960 . S
C603 H664 0.960 . S
C603 H665 0.961 . S
C604 C605 1.517 . S
C604 H667 0.961 . S
C604 H668 0.960 . S
C604 H669 0.959 . S
C605 C604 1.517 . S
C605 O653 1.468 . S
C605 H666 0.980 . S
C606 C607 1.349 . S
C606 C611 1.367 . S
C606 O653 1.408 . S
C607 C606 1.349 . S
C607 C608 1.407 . S
C607 H670 0.930 . S
C608 C607 1.407 . S
C608 C609 1.449 . S
C608 C612 1.535 . S
C609 C608 1.449 . S
C609 C610 1.384 . S
C609 C634 1.553 . S
C610 C609 1.384 . S
C610 C611 1.364 . S
C610 C613 1.450 . S
C611 C606 1.367 . S
C611 C610 1.364 . S
C611 H671 0.931 . S
C612 C608 1.535 . S
C612 H672 0.959 . S
C612 H673 0.961 . S
C612 H674 0.959 . S
C613 C610 1.450 . S
C613 H675 0.960 . S
C613 H676 0.960 . S
C613 H677 0.960 . S
C614 C615 1.309 . S
C614 C619 1.304 . S
C614 O652 1.435 . S
C615 C614 1.309 . S
C615 C616 1.476 . S
C615 H679 0.930 . S
C616 C615 1.476 . S
C616 C617 1.400 . S
C616 C620 1.567 . S
C617 C616 1.400 . S
C617 C618 1.373 . S
C617 C639 1.432 . S
C618 C617 1.373 . S
C618 C619 1.339 . S
C618 C621 1.530 . S
C619 C614 1.304 . S
C619 C618 1.339 . S
C619 H680 0.930 . S
C620 C616 1.567 . S
C620 H681 0.961 . S
C620 H682 0.960 . S
C620 H683 0.958 . S
C621 C618 1.530 . S
C621 H684 0.961 . S
C621 H685 0.960 . S
C621 H686 0.960 . S
C622 C623 1.530 . S
C622 H688 0.961 . S
C622 H689 0.961 . S
C622 H690 0.959 . S
C623 C622 1.530 . S
C623 O651 1.412 . S
C623 H687 0.980 . S
C624 C625 1.288 . S
C624 C629 1.377 . S
C624 O651 1.393 . S
C625 C624 1.288 . S
C625 C626 1.369 . S
C625 H691 0.932 . S
C626 C625 1.369 . S
C626 C627 1.398 . S
C626 C630 1.527 . S
C627 C626 1.398 . S
C627 C628 1.380 . S
C627 C641 1.497 . S
C628 C627 1.380 . S
C628 C629 1.383 . S
C628 C631 1.603 . S
C629 C624 1.377 . S
C629 C628 1.383 . S
C629 H692 0.929 . S
C630 C626 1.527 . S
C630 H693 0.961 . S
C630 H694 0.959 . S
C630 H695 0.959 . S
C631 C628 1.603 . S
C631 H696 0.960 . S
C631 H697 0.962 . S
C631 H698 0.961 . S
C632 C599 1.587 . S
C632 C633 1.360 . S
C632 C645 1.412 . S
C633 C632 1.360 . S
C633 C634 1.365 . S
C633 H699 0.929 . S
C634 C609 1.553 . S
C634 C633 1.365 . S
C634 C635 1.404 . S
C635 C634 1.404 . S
C635 C636 1.395 . S
C635 C646 1.451 . S
C636 C635 1.395 . S
C636 C637 1.322 . S
C636 H700 0.930 . S
C637 C636 1.322 . S
C637 C638 1.459 . S
C637 H701 0.929 . S
C638 C637 1.459 . S
C638 C639 1.445 . S
C638 C647 1.395 . S
C639 C617 1.432 . S
C639 C638 1.445 . S
C639 C640 1.370 . S
C640 C639 1.370 . S
C640 C641 1.438 . S
C640 H702 0.930 . S
C641 C627 1.497 . S
C641 C640 1.438 . S
C641 C642 1.360 . S
C642 C641 1.360 . S
C642 C643 1.401 . S
C642 C647 1.446 . S
C643 C642 1.401 . S
C643 C644 1.347 . S
C643 H703 0.929 . S
C644 C643 1.347 . S
C644 C645 1.455 . S
C644 H704 0.930 . S
C645 C632 1.412 . S
C645 C644 1.455 . S
C645 C646 1.331 . S
C646 C635 1.451 . S
C646 C645 1.331 . S
C646 C647 1.497 . S
C647 C638 1.395 . S
C647 C642 1.446 . S
C647 C646 1.497 . S
C648 C649 1.582 . S
C648 H705 0.962 . S
C648 H706 0.959 . S
C648 H707 0.958 . S
C649 C648 1.582 . S
C649 O652 1.458 . S
C649 H678 0.980 . S
O650 C595 1.426 . S
O650 C596 1.334 . S
O651 C623 1.412 . S
O651 C624 1.393 . S
O652 C614 1.435 . S
O652 C649 1.458 . S
O653 C605 1.468 . S
O653 C606 1.408 . S
H654 C595 0.980 . S
H655 C594 0.959 . S
H656 C594 0.959 . S
H657 C594 0.960 . S
H658 C597 0.929 . S
H659 C601 0.929 . S
H660 C602 0.959 . S
H661 C602 0.961 . S
H662 C602 0.961 . S
H663 C603 0.960 . S
H664 C603 0.960 . S
H665 C603 0.961 . S
H666 C605 0.980 . S
H667 C604 0.961 . S
H668 C604 0.960 . S
H669 C604 0.959 . S
H670 C607 0.930 . S
H671 C611 0.931 . S
H672 C612 0.959 . S
H673 C612 0.961 . S
H674 C612 0.959 . S
H675 C613 0.960 . S
H676 C613 0.960 . S
H677 C613 0.960 . S
H678 C649 0.980 . S
H679 C615 0.930 . S
H680 C619 0.930 . S
H681 C620 0.961 . S
H682 C620 0.960 . S
H683 C620 0.958 . S
H684 C621 0.961 . S
H685 C621 0.960 . S
H686 C621 0.960 . S
H687 C623 0.980 . S
H688 C622 0.961 . S
H689 C622 0.961 . S
H690 C622 0.959 . S
H691 C625 0.932 . S
H692 C629 0.929 . S
H693 C630 0.961 . S
H694 C630 0.959 . S
H695 C630 0.959 . S
H696 C631 0.960 . S
H697 C631 0.962 . S
H698 C631 0.961 . S
H699 C633 0.929 . S
H700 C636 0.930 . S
H701 C637 0.929 . S
H702 C640 0.930 . S
H703 C643 0.929 . S
H704 C644 0.930 . S
H705 C648 0.962 . S
H706 C648 0.959 . S
H707 C648 0.958 . S
C708 C709 1.560 . S
C708 H769 0.959 . S
C708 H770 0.959 . S
C708 H771 0.960 . S
C709 C708 1.560 . S
C709 O764 1.426 . S
C709 H768 0.980 . S
C710 C711 1.407 . S
C710 C715 1.418 . S
C710 O764 1.334 . S
C711 C710 1.407 . S
C711 C712 1.360 . S
C711 H772 0.929 . S
C712 C711 1.360 . S
C712 C713 1.401 . S
C712 C716 1.527 . S
C713 C712 1.401 . S
C713 C714 1.405 . S
C713 C746 1.587 . S
C714 C713 1.405 . S
C714 C715 1.332 . S
C714 C717 1.496 . S
C715 C710 1.418 . S
C715 C714 1.332 . S
C715 H773 0.929 . S
C716 C712 1.527 . S
C716 H774 0.959 . S
C716 H775 0.961 . S
C716 H776 0.961 . S
C717 C714 1.496 . S
C717 H777 0.960 . S
C717 H778 0.960 . S
C717 H779 0.961 . S
C718 C719 1.517 . S
C718 H781 0.961 . S
C718 H782 0.960 . S
C718 H783 0.959 . S
C719 C718 1.517 . S
C719 O767 1.468 . S
C719 H780 0.980 . S
C720 C721 1.349 . S
C720 C725 1.367 . S
C720 O767 1.408 . S
C721 C720 1.349 . S
C721 C722 1.407 . S
C721 H784 0.930 . S
C722 C721 1.407 . S
C722 C723 1.449 . S
C722 C726 1.535 . S
C723 C722 1.449 . S
C723 C724 1.384 . S
C723 C748 1.553 . S
C724 C723 1.384 . S
C724 C725 1.364 . S
C724 C727 1.450 . S
C725 C720 1.367 . S
C725 C724 1.364 . S
C725 H785 0.931 . S
C726 C722 1.535 . S
C726 H786 0.959 . S
C726 H787 0.961 . S
C726 H788 0.959 . S
C727 C724 1.450 . S
C727 H789 0.960 . S
C727 H790 0.960 . S
C727 H791 0.960 . S
C728 C729 1.309 . S
C728 C733 1.304 . S
C728 O766 1.435 . S
C729 C728 1.309 . S
C729 C730 1.476 . S
C729 H793 0.930 . S
C730 C729 1.476 . S
C730 C731 1.400 . S
C730 C734 1.567 . S
C731 C730 1.400 . S
C731 C732 1.373 . S
C731 C753 1.432 . S
C732 C731 1.373 . S
C732 C733 1.339 . S
C732 C735 1.530 . S
C733 C728 1.304 . S
C733 C732 1.339 . S
C733 H794 0.930 . S
C734 C730 1.567 . S
C734 H795 0.961 . S
C734 H796 0.960 . S
C734 H797 0.958 . S
C735 C732 1.530 . S
C735 H798 0.961 . S
C735 H799 0.960 . S
C735 H800 0.960 . S
C736 C737 1.530 . S
C736 H802 0.961 . S
C736 H803 0.961 . S
C736 H804 0.959 . S
C737 C736 1.530 . S
C737 O765 1.412 . S
C737 H801 0.980 . S
C738 C739 1.288 . S
C738 C743 1.377 . S
C738 O765 1.393 . S
C739 C738 1.288 . S
C739 C740 1.369 . S
C739 H805 0.932 . S
C740 C739 1.369 . S
C740 C741 1.398 . S
C740 C744 1.527 . S
C741 C740 1.398 . S
C741 C742 1.380 . S
C741 C755 1.497 . S
C742 C741 1.380 . S
C742 C743 1.383 . S
C742 C745 1.603 . S
C743 C738 1.377 . S
C743 C742 1.383 . S
C743 H806 0.929 . S
C744 C740 1.527 . S
C744 H807 0.961 . S
C744 H808 0.959 . S
C744 H809 0.959 . S
C745 C742 1.603 . S
C745 H810 0.960 . S
C745 H811 0.962 . S
C745 H812 0.961 . S
C746 C713 1.587 . S
C746 C747 1.360 . S
C746 C759 1.412 . S
C747 C746 1.360 . S
C747 C748 1.365 . S
C747 H813 0.929 . S
C748 C723 1.553 . S
C748 C747 1.365 . S
C748 C749 1.404 . S
C749 C748 1.404 . S
C749 C750 1.395 . S
C749 C760 1.451 . S
C750 C749 1.395 . S
C750 C751 1.322 . S
C750 H814 0.930 . S
C751 C750 1.322 . S
C751 C752 1.459 . S
C751 H815 0.929 . S
C752 C751 1.459 . S
C752 C753 1.445 . S
C752 C761 1.395 . S
C753 C731 1.432 . S
C753 C752 1.445 . S
C753 C754 1.370 . S
C754 C753 1.370 . S
C754 C755 1.438 . S
C754 H816 0.930 . S
C755 C741 1.497 . S
C755 C754 1.438 . S
C755 C756 1.360 . S
C756 C755 1.360 . S
C756 C757 1.401 . S
C756 C761 1.446 . S
C757 C756 1.401 . S
C757 C758 1.347 . S
C757 H817 0.929 . S
C758 C757 1.347 . S
C758 C759 1.455 . S
C758 H818 0.930 . S
C759 C746 1.412 . S
C759 C758 1.455 . S
C759 C760 1.331 . S
C760 C749 1.451 . S
C760 C759 1.331 . S
C760 C761 1.497 . S
C761 C752 1.395 . S
C761 C756 1.446 . S
C761 C760 1.497 . S
C762 C763 1.582 . S
C762 H819 0.962 . S
C762 H820 0.959 . S
C762 H821 0.958 . S
C763 C762 1.582 . S
C763 O766 1.458 . S
C763 H792 0.980 . S
O764 C709 1.426 . S
O764 C710 1.334 . S
O765 C737 1.412 . S
O765 C738 1.393 . S
O766 C728 1.435 . S
O766 C763 1.458 . S
O767 C719 1.468 . S
O767 C720 1.408 . S
H768 C709 0.980 . S
H769 C708 0.959 . S
H770 C708 0.959 . S
H771 C708 0.960 . S
H772 C711 0.929 . S
H773 C715 0.929 . S
H774 C716 0.959 . S
H775 C716 0.961 . S
H776 C716 0.961 . S
H777 C717 0.960 . S
H778 C717 0.960 . S
H779 C717 0.961 . S
H780 C719 0.980 . S
H781 C718 0.961 . S
H782 C718 0.960 . S
H783 C718 0.959 . S
H784 C721 0.930 . S
H785 C725 0.931 . S
H786 C726 0.959 . S
H787 C726 0.961 . S
H788 C726 0.959 . S
H789 C727 0.960 . S
H790 C727 0.960 . S
H791 C727 0.960 . S
H792 C763 0.980 . S
H793 C729 0.930 . S
H794 C733 0.930 . S
H795 C734 0.961 . S
H796 C734 0.960 . S
H797 C734 0.958 . S
H798 C735 0.961 . S
H799 C735 0.960 . S
H800 C735 0.960 . S
H801 C737 0.980 . S
H802 C736 0.961 . S
H803 C736 0.961 . S
H804 C736 0.959 . S
H805 C739 0.932 . S
H806 C743 0.929 . S
H807 C744 0.961 . S
H808 C744 0.959 . S
H809 C744 0.959 . S
H810 C745 0.960 . S
H811 C745 0.962 . S
H812 C745 0.961 . S
H813 C747 0.929 . S
H814 C750 0.930 . S
H815 C751 0.929 . S
H816 C754 0.930 . S
H817 C757 0.929 . S
H818 C758 0.930 . S
H819 C762 0.962 . S
H820 C762 0.959 . S
H821 C762 0.958 . S
C822 C823 1.560 . S
C822 H883 0.959 . S
C822 H884 0.959 . S
C822 H885 0.960 . S
C823 C822 1.560 . S
C823 O878 1.426 . S
C823 H882 0.980 . S
C824 C825 1.407 . S
C824 C829 1.418 . S
C824 O878 1.334 . S
C825 C824 1.407 . S
C825 C826 1.360 . S
C825 H886 0.929 . S
C826 C825 1.360 . S
C826 C827 1.401 . S
C826 C830 1.527 . S
C827 C826 1.401 . S
C827 C828 1.405 . S
C827 C860 1.587 . S
C828 C827 1.405 . S
C828 C829 1.332 . S
C828 C831 1.496 . S
C829 C824 1.418 . S
C829 C828 1.332 . S
C829 H887 0.929 . S
C830 C826 1.527 . S
C830 H888 0.959 . S
C830 H889 0.961 . S
C830 H890 0.961 . S
C831 C828 1.496 . S
C831 H891 0.960 . S
C831 H892 0.960 . S
C831 H893 0.961 . S
C832 C833 1.517 . S
C832 H895 0.961 . S
C832 H896 0.960 . S
C832 H897 0.959 . S
C833 C832 1.517 . S
C833 O881 1.468 . S
C833 H894 0.980 . S
C834 C835 1.349 . S
C834 C839 1.367 . S
C834 O881 1.408 . S
C835 C834 1.349 . S
C835 C836 1.407 . S
C835 H898 0.930 . S
C836 C835 1.407 . S
C836 C837 1.449 . S
C836 C840 1.535 . S
C837 C836 1.449 . S
C837 C838 1.384 . S
C837 C862 1.553 . S
C838 C837 1.384 . S
C838 C839 1.364 . S
C838 C841 1.450 . S
C839 C834 1.367 . S
C839 C838 1.364 . S
C839 H899 0.931 . S
C840 C836 1.535 . S
C840 H900 0.959 . S
C840 H901 0.961 . S
C840 H902 0.959 . S
C841 C838 1.450 . S
C841 H903 0.960 . S
C841 H904 0.960 . S
C841 H905 0.960 . S
C842 C843 1.309 . S
C842 C847 1.304 . S
C842 O880 1.435 . S
C843 C842 1.309 . S
C843 C844 1.476 . S
C843 H907 0.930 . S
C844 C843 1.476 . S
C844 C845 1.400 . S
C844 C848 1.567 . S
C845 C844 1.400 . S
C845 C846 1.373 . S
C845 C867 1.432 . S
C846 C845 1.373 . S
C846 C847 1.339 . S
C846 C849 1.530 . S
C847 C842 1.304 . S
C847 C846 1.339 . S
C847 H908 0.930 . S
C848 C844 1.567 . S
C848 H909 0.961 . S
C848 H910 0.960 . S
C848 H911 0.958 . S
C849 C846 1.530 . S
C849 H912 0.961 . S
C849 H913 0.960 . S
C849 H914 0.960 . S
C850 C851 1.530 . S
C850 H916 0.961 . S
C850 H917 0.961 . S
C850 H918 0.959 . S
C851 C850 1.530 . S
C851 O879 1.412 . S
C851 H915 0.980 . S
C852 C853 1.288 . S
C852 C857 1.377 . S
C852 O879 1.393 . S
C853 C852 1.288 . S
C853 C854 1.369 . S
C853 H919 0.932 . S
C854 C853 1.369 . S
C854 C855 1.398 . S
C854 C858 1.527 . S
C855 C854 1.398 . S
C855 C856 1.380 . S
C855 C869 1.497 . S
C856 C855 1.380 . S
C856 C857 1.383 . S
C856 C859 1.603 . S
C857 C852 1.377 . S
C857 C856 1.383 . S
C857 H920 0.929 . S
C858 C854 1.527 . S
C858 H921 0.961 . S
C858 H922 0.959 . S
C858 H923 0.959 . S
C859 C856 1.603 . S
C859 H924 0.960 . S
C859 H925 0.962 . S
C859 H926 0.961 . S
C860 C827 1.587 . S
C860 C861 1.360 . S
C860 C873 1.412 . S
C861 C860 1.360 . S
C861 C862 1.365 . S
C861 H927 0.929 . S
C862 C837 1.553 . S
C862 C861 1.365 . S
C862 C863 1.404 . S
C863 C862 1.404 . S
C863 C864 1.395 . S
C863 C874 1.451 . S
C864 C863 1.395 . S
C864 C865 1.322 . S
C864 H928 0.930 . S
C865 C864 1.322 . S
C865 C866 1.459 . S
C865 H929 0.929 . S
C866 C865 1.459 . S
C866 C867 1.445 . S
C866 C875 1.395 . S
C867 C845 1.432 . S
C867 C866 1.445 . S
C867 C868 1.370 . S
C868 C867 1.370 . S
C868 C869 1.438 . S
C868 H930 0.930 . S
C869 C855 1.497 . S
C869 C868 1.438 . S
C869 C870 1.360 . S
C870 C869 1.360 . S
C870 C871 1.401 . S
C870 C875 1.446 . S
C871 C870 1.401 . S
C871 C872 1.347 . S
C871 H931 0.929 . S
C872 C871 1.347 . S
C872 C873 1.455 . S
C872 H932 0.930 . S
C873 C860 1.412 . S
C873 C872 1.455 . S
C873 C874 1.331 . S
C874 C863 1.451 . S
C874 C873 1.331 . S
C874 C875 1.497 . S
C875 C866 1.395 . S
C875 C870 1.446 . S
C875 C874 1.497 . S
C876 C877 1.582 . S
C876 H933 0.962 . S
C876 H934 0.959 . S
C876 H935 0.958 . S
C877 C876 1.582 . S
C877 O880 1.458 . S
C877 H906 0.980 . S
O878 C823 1.426 . S
O878 C824 1.334 . S
O879 C851 1.412 . S
O879 C852 1.393 . S
O880 C842 1.435 . S
O880 C877 1.458 . S
O881 C833 1.468 . S
O881 C834 1.408 . S
H882 C823 0.980 . S
H883 C822 0.959 . S
H884 C822 0.959 . S
H885 C822 0.960 . S
H886 C825 0.929 . S
H887 C829 0.929 . S
H888 C830 0.959 . S
H889 C830 0.961 . S
H890 C830 0.961 . S
H891 C831 0.960 . S
H892 C831 0.960 . S
H893 C831 0.961 . S
H894 C833 0.980 . S
H895 C832 0.961 . S
H896 C832 0.960 . S
H897 C832 0.959 . S
H898 C835 0.930 . S
H899 C839 0.931 . S
H900 C840 0.959 . S
H901 C840 0.961 . S
H902 C840 0.959 . S
H903 C841 0.960 . S
H904 C841 0.960 . S
H905 C841 0.960 . S
H906 C877 0.980 . S
H907 C843 0.930 . S
H908 C847 0.930 . S
H909 C848 0.961 . S
H910 C848 0.960 . S
H911 C848 0.958 . S
H912 C849 0.961 . S
H913 C849 0.960 . S
H914 C849 0.960 . S
H915 C851 0.980 . S
H916 C850 0.961 . S
H917 C850 0.961 . S
H918 C850 0.959 . S
H919 C853 0.932 . S
H920 C857 0.929 . S
H921 C858 0.961 . S
H922 C858 0.959 . S
H923 C858 0.959 . S
H924 C859 0.960 . S
H925 C859 0.962 . S
H926 C859 0.961 . S
H927 C861 0.929 . S
H928 C864 0.930 . S
H929 C865 0.929 . S
H930 C868 0.930 . S
H931 C871 0.929 . S
H932 C872 0.930 . S
H933 C876 0.962 . S
H934 C876 0.959 . S
H935 C876 0.958 . S
C936 C937 1.560 . S
C936 H997 0.959 . S
C936 H998 0.959 . S
C936 H999 0.960 . S
C937 C936 1.560 . S
C937 O992 1.426 . S
C937 H996 0.980 . S
C938 C939 1.407 . S
C938 C943 1.418 . S
C938 O992 1.334 . S
C939 C938 1.407 . S
C939 C940 1.360 . S
C939 H1000 0.929 . S
C940 C939 1.360 . S
C940 C941 1.401 . S
C940 C944 1.527 . S
C941 C940 1.401 . S
C941 C942 1.405 . S
C941 C974 1.587 . S
C942 C941 1.405 . S
C942 C943 1.332 . S
C942 C945 1.496 . S
C943 C938 1.418 . S
C943 C942 1.332 . S
C943 H1001 0.929 . S
C944 C940 1.527 . S
C944 H1002 0.959 . S
C944 H1003 0.961 . S
C944 H1004 0.961 . S
C945 C942 1.496 . S
C945 H1005 0.960 . S
C945 H1006 0.960 . S
C945 H1007 0.961 . S
C946 C947 1.517 . S
C946 H1009 0.961 . S
C946 H1010 0.960 . S
C946 H1011 0.959 . S
C947 C946 1.517 . S
C947 O995 1.468 . S
C947 H1008 0.980 . S
C948 C949 1.349 . S
C948 C953 1.367 . S
C948 O995 1.408 . S
C949 C948 1.349 . S
C949 C950 1.407 . S
C949 H1012 0.930 . S
C950 C949 1.407 . S
C950 C951 1.449 . S
C950 C954 1.535 . S
C951 C950 1.449 . S
C951 C952 1.384 . S
C951 C976 1.553 . S
C952 C951 1.384 . S
C952 C953 1.364 . S
C952 C955 1.450 . S
C953 C948 1.367 . S
C953 C952 1.364 . S
C953 H1013 0.931 . S
C954 C950 1.535 . S
C954 H1014 0.959 . S
C954 H1015 0.961 . S
C954 H1016 0.959 . S
C955 C952 1.450 . S
C955 H1017 0.960 . S
C955 H1018 0.960 . S
C955 H1019 0.960 . S
C956 C957 1.309 . S
C956 C961 1.304 . S
C956 O994 1.435 . S
C957 C956 1.309 . S
C957 C958 1.476 . S
C957 H1021 0.930 . S
C958 C957 1.476 . S
C958 C959 1.400 . S
C958 C962 1.567 . S
C959 C958 1.400 . S
C959 C960 1.373 . S
C959 C981 1.432 . S
C960 C959 1.373 . S
C960 C961 1.339 . S
C960 C963 1.530 . S
C961 C956 1.304 . S
C961 C960 1.339 . S
C961 H1022 0.930 . S
C962 C958 1.567 . S
C962 H1023 0.961 . S
C962 H1024 0.960 . S
C962 H1025 0.958 . S
C963 C960 1.530 . S
C963 H1026 0.961 . S
C963 H1027 0.960 . S
C963 H1028 0.960 . S
C964 C965 1.530 . S
C964 H1030 0.961 . S
C964 H1031 0.961 . S
C964 H1032 0.959 . S
C965 C964 1.530 . S
C965 O993 1.412 . S
C965 H1029 0.980 . S
C966 C967 1.288 . S
C966 C971 1.377 . S
C966 O993 1.393 . S
C967 C966 1.288 . S
C967 C968 1.369 . S
C967 H1033 0.932 . S
C968 C967 1.369 . S
C968 C969 1.398 . S
C968 C972 1.527 . S
C969 C968 1.398 . S
C969 C970 1.380 . S
C969 C983 1.497 . S
C970 C969 1.380 . S
C970 C971 1.383 . S
C970 C973 1.603 . S
C971 C966 1.377 . S
C971 C970 1.383 . S
C971 H1034 0.929 . S
C972 C968 1.527 . S
C972 H1035 0.961 . S
C972 H1036 0.959 . S
C972 H1037 0.959 . S
C973 C970 1.603 . S
C973 H1038 0.960 . S
C973 H1039 0.962 . S
C973 H1040 0.961 . S
C974 C941 1.587 . S
C974 C975 1.360 . S
C974 C987 1.412 . S
C975 C974 1.360 . S
C975 C976 1.365 . S
C975 H1041 0.929 . S
C976 C951 1.553 . S
C976 C975 1.365 . S
C976 C977 1.404 . S
C977 C976 1.404 . S
C977 C978 1.395 . S
C977 C988 1.451 . S
C978 C977 1.395 . S
C978 C979 1.322 . S
C978 H1042 0.930 . S
C979 C978 1.322 . S
C979 C980 1.459 . S
C979 H1043 0.929 . S
C980 C979 1.459 . S
C980 C981 1.445 . S
C980 C989 1.395 . S
C981 C959 1.432 . S
C981 C980 1.445 . S
C981 C982 1.370 . S
C982 C981 1.370 . S
C982 C983 1.438 . S
C982 H1044 0.930 . S
C983 C969 1.497 . S
C983 C982 1.438 . S
C983 C984 1.360 . S
C984 C983 1.360 . S
C984 C985 1.401 . S
C984 C989 1.446 . S
C985 C984 1.401 . S
C985 C986 1.347 . S
C985 H1045 0.929 . S
C986 C985 1.347 . S
C986 C987 1.455 . S
C986 H1046 0.930 . S
C987 C974 1.412 . S
C987 C986 1.455 . S
C987 C988 1.331 . S
C988 C977 1.451 . S
C988 C987 1.331 . S
C988 C989 1.497 . S
C989 C980 1.395 . S
C989 C984 1.446 . S
C989 C988 1.497 . S
C990 C991 1.582 . S
C990 H1047 0.962 . S
C990 H1048 0.959 . S
C990 H1049 0.958 . S
C991 C990 1.582 . S
C991 O994 1.458 . S
C991 H1020 0.980 . S
O992 C937 1.426 . S
O992 C938 1.334 . S
O993 C965 1.412 . S
O993 C966 1.393 . S
O994 C956 1.435 . S
O994 C991 1.458 . S
O995 C947 1.468 . S
O995 C948 1.408 . S
H996 C937 0.980 . S
H997 C936 0.959 . S
H998 C936 0.959 . S
H999 C936 0.960 . S
H1000 C939 0.929 . S
H1001 C943 0.929 . S
H1002 C944 0.959 . S
H1003 C944 0.961 . S
H1004 C944 0.961 . S
H1005 C945 0.960 . S
H1006 C945 0.960 . S
H1007 C945 0.961 . S
H1008 C947 0.980 . S
H1009 C946 0.961 . S
H1010 C946 0.960 . S
H1011 C946 0.959 . S
H1012 C949 0.930 . S
H1013 C953 0.931 . S
H1014 C954 0.959 . S
H1015 C954 0.961 . S
H1016 C954 0.959 . S
H1017 C955 0.960 . S
H1018 C955 0.960 . S
H1019 C955 0.960 . S
H1020 C991 0.980 . S
H1021 C957 0.930 . S
H1022 C961 0.930 . S
H1023 C962 0.961 . S
H1024 C962 0.960 . S
H1025 C962 0.958 . S
H1026 C963 0.961 . S
H1027 C963 0.960 . S
H1028 C963 0.960 . S
H1029 C965 0.980 . S
H1030 C964 0.961 . S
H1031 C964 0.961 . S
H1032 C964 0.959 . S
H1033 C967 0.932 . S
H1034 C971 0.929 . S
H1035 C972 0.961 . S
H1036 C972 0.959 . S
H1037 C972 0.959 . S
H1038 C973 0.960 . S
H1039 C973 0.962 . S
H1040 C973 0.961 . S
H1041 C975 0.929 . S
H1042 C978 0.930 . S
H1043 C979 0.929 . S
H1044 C982 0.930 . S
H1045 C985 0.929 . S
H1046 C986 0.930 . S
H1047 C990 0.962 . S
H1048 C990 0.959 . S
H1049 C990 0.958 . S
C1050 C1051 1.560 . S
C1050 H1111 0.959 . S
C1050 H1112 0.959 . S
C1050 H1113 0.960 . S
C1051 C1050 1.560 . S
C1051 O1106 1.426 . S
C1051 H1110 0.980 . S
C1052 C1053 1.407 . S
C1052 C1057 1.418 . S
C1052 O1106 1.334 . S
C1053 C1052 1.407 . S
C1053 C1054 1.360 . S
C1053 H1114 0.929 . S
C1054 C1053 1.360 . S
C1054 C1055 1.401 . S
C1054 C1058 1.527 . S
C1055 C1054 1.401 . S
C1055 C1056 1.405 . S
C1055 C1088 1.587 . S
C1056 C1055 1.405 . S
C1056 C1057 1.332 . S
C1056 C1059 1.496 . S
C1057 C1052 1.418 . S
C1057 C1056 1.332 . S
C1057 H1115 0.929 . S
C1058 C1054 1.527 . S
C1058 H1116 0.959 . S
C1058 H1117 0.961 . S
C1058 H1118 0.961 . S
C1059 C1056 1.496 . S
C1059 H1119 0.960 . S
C1059 H1120 0.960 . S
C1059 H1121 0.961 . S
C1060 C1061 1.517 . S
C1060 H1123 0.961 . S
C1060 H1124 0.960 . S
C1060 H1125 0.959 . S
C1061 C1060 1.517 . S
C1061 O1109 1.468 . S
C1061 H1122 0.980 . S
C1062 C1063 1.349 . S
C1062 C1067 1.367 . S
C1062 O1109 1.408 . S
C1063 C1062 1.349 . S
C1063 C1064 1.407 . S
C1063 H1126 0.930 . S
C1064 C1063 1.407 . S
C1064 C1065 1.449 . S
C1064 C1068 1.535 . S
C1065 C1064 1.449 . S
C1065 C1066 1.384 . S
C1065 C1090 1.553 . S
C1066 C1065 1.384 . S
C1066 C1067 1.364 . S
C1066 C1069 1.450 . S
C1067 C1062 1.367 . S
C1067 C1066 1.364 . S
C1067 H1127 0.931 . S
C1068 C1064 1.535 . S
C1068 H1128 0.959 . S
C1068 H1129 0.961 . S
C1068 H1130 0.959 . S
C1069 C1066 1.450 . S
C1069 H1131 0.960 . S
C1069 H1132 0.960 . S
C1069 H1133 0.960 . S
C1070 C1071 1.309 . S
C1070 C1075 1.304 . S
C1070 O1108 1.435 . S
C1071 C1070 1.309 . S
C1071 C1072 1.476 . S
C1071 H1135 0.930 . S
C1072 C1071 1.476 . S
C1072 C1073 1.400 . S
C1072 C1076 1.567 . S
C1073 C1072 1.400 . S
C1073 C1074 1.373 . S
C1073 C1095 1.432 . S
C1074 C1073 1.373 . S
C1074 C1075 1.339 . S
C1074 C1077 1.530 . S
C1075 C1070 1.304 . S
C1075 C1074 1.339 . S
C1075 H1136 0.930 . S
C1076 C1072 1.567 . S
C1076 H1137 0.961 . S
C1076 H1138 0.960 . S
C1076 H1139 0.958 . S
C1077 C1074 1.530 . S
C1077 H1140 0.961 . S
C1077 H1141 0.960 . S
C1077 H1142 0.960 . S
C1078 C1079 1.530 . S
C1078 H1144 0.961 . S
C1078 H1145 0.961 . S
C1078 H1146 0.959 . S
C1079 C1078 1.530 . S
C1079 O1107 1.412 . S
C1079 H1143 0.980 . S
C1080 C1081 1.288 . S
C1080 C1085 1.377 . S
C1080 O1107 1.393 . S
C1081 C1080 1.288 . S
C1081 C1082 1.369 . S
C1081 H1147 0.932 . S
C1082 C1081 1.369 . S
C1082 C1083 1.398 . S
C1082 C1086 1.527 . S
C1083 C1082 1.398 . S
C1083 C1084 1.380 . S
C1083 C1097 1.497 . S
C1084 C1083 1.380 . S
C1084 C1085 1.383 . S
C1084 C1087 1.603 . S
C1085 C1080 1.377 . S
C1085 C1084 1.383 . S
C1085 H1148 0.929 . S
C1086 C1082 1.527 . S
C1086 H1149 0.961 . S
C1086 H1150 0.959 . S
C1086 H1151 0.959 . S
C1087 C1084 1.603 . S
C1087 H1152 0.960 . S
C1087 H1153 0.962 . S
C1087 H1154 0.961 . S
C1088 C1055 1.587 . S
C1088 C1089 1.360 . S
C1088 C1101 1.412 . S
C1089 C1088 1.360 . S
C1089 C1090 1.365 . S
C1089 H1155 0.929 . S
C1090 C1065 1.553 . S
C1090 C1089 1.365 . S
C1090 C1091 1.404 . S
C1091 C1090 1.404 . S
C1091 C1092 1.395 . S
C1091 C1102 1.451 . S
C1092 C1091 1.395 . S
C1092 C1093 1.322 . S
C1092 H1156 0.930 . S
C1093 C1092 1.322 . S
C1093 C1094 1.459 . S
C1093 H1157 0.929 . S
C1094 C1093 1.459 . S
C1094 C1095 1.445 . S
C1094 C1103 1.395 . S
C1095 C1073 1.432 . S
C1095 C1094 1.445 . S
C1095 C1096 1.370 . S
C1096 C1095 1.370 . S
C1096 C1097 1.438 . S
C1096 H1158 0.930 . S
C1097 C1083 1.497 . S
C1097 C1096 1.438 . S
C1097 C1098 1.360 . S
C1098 C1097 1.360 . S
C1098 C1099 1.401 . S
C1098 C1103 1.446 . S
C1099 C1098 1.401 . S
C1099 C1100 1.347 . S
C1099 H1159 0.929 . S
C1100 C1099 1.347 . S
C1100 C1101 1.455 . S
C1100 H1160 0.930 . S
C1101 C1088 1.412 . S
C1101 C1100 1.455 . S
C1101 C1102 1.331 . S
C1102 C1091 1.451 . S
C1102 C1101 1.331 . S
C1102 C1103 1.497 . S
C1103 C1094 1.395 . S
C1103 C1098 1.446 . S
C1103 C1102 1.497 . S
C1104 C1105 1.582 . S
C1104 H1161 0.962 . S
C1104 H1162 0.959 . S
C1104 H1163 0.958 . S
C1105 C1104 1.582 . S
C1105 O1108 1.458 . S
C1105 H1134 0.980 . S
O1106 C1051 1.426 . S
O1106 C1052 1.334 . S
O1107 C1079 1.412 . S
O1107 C1080 1.393 . S
O1108 C1070 1.435 . S
O1108 C1105 1.458 . S
O1109 C1061 1.468 . S
O1109 C1062 1.408 . S
H1110 C1051 0.980 . S
H1111 C1050 0.959 . S
H1112 C1050 0.959 . S
H1113 C1050 0.960 . S
H1114 C1053 0.929 . S
H1115 C1057 0.929 . S
H1116 C1058 0.959 . S
H1117 C1058 0.961 . S
H1118 C1058 0.961 . S
H1119 C1059 0.960 . S
H1120 C1059 0.960 . S
H1121 C1059 0.961 . S
H1122 C1061 0.980 . S
H1123 C1060 0.961 . S
H1124 C1060 0.960 . S
H1125 C1060 0.959 . S
H1126 C1063 0.930 . S
H1127 C1067 0.931 . S
H1128 C1068 0.959 . S
H1129 C1068 0.961 . S
H1130 C1068 0.959 . S
H1131 C1069 0.960 . S
H1132 C1069 0.960 . S
H1133 C1069 0.960 . S
H1134 C1105 0.980 . S
H1135 C1071 0.930 . S
H1136 C1075 0.930 . S
H1137 C1076 0.961 . S
H1138 C1076 0.960 . S
H1139 C1076 0.958 . S
H1140 C1077 0.961 . S
H1141 C1077 0.960 . S
H1142 C1077 0.960 . S
H1143 C1079 0.980 . S
H1144 C1078 0.961 . S
H1145 C1078 0.961 . S
H1146 C1078 0.959 . S
H1147 C1081 0.932 . S
H1148 C1085 0.929 . S
H1149 C1086 0.961 . S
H1150 C1086 0.959 . S
H1151 C1086 0.959 . S
H1152 C1087 0.960 . S
H1153 C1087 0.962 . S
H1154 C1087 0.961 . S
H1155 C1089 0.929 . S
H1156 C1092 0.930 . S
H1157 C1093 0.929 . S
H1158 C1096 0.930 . S
H1159 C1099 0.929 . S
H1160 C1100 0.930 . S
H1161 C1104 0.962 . S
H1162 C1104 0.959 . S
H1163 C1104 0.958 . S
C1164 C1165 1.560 . S
C1164 H1225 0.959 . S
C1164 H1226 0.959 . S
C1164 H1227 0.960 . S
C1165 C1164 1.560 . S
C1165 O1220 1.426 . S
C1165 H1224 0.980 . S
C1166 C1167 1.407 . S
C1166 C1171 1.418 . S
C1166 O1220 1.334 . S
C1167 C1166 1.407 . S
C1167 C1168 1.360 . S
C1167 H1228 0.929 . S
C1168 C1167 1.360 . S
C1168 C1169 1.401 . S
C1168 C1172 1.527 . S
C1169 C1168 1.401 . S
C1169 C1170 1.405 . S
C1169 C1202 1.587 . S
C1170 C1169 1.405 . S
C1170 C1171 1.332 . S
C1170 C1173 1.496 . S
C1171 C1166 1.418 . S
C1171 C1170 1.332 . S
C1171 H1229 0.929 . S
C1172 C1168 1.527 . S
C1172 H1230 0.959 . S
C1172 H1231 0.961 . S
C1172 H1232 0.961 . S
C1173 C1170 1.496 . S
C1173 H1233 0.960 . S
C1173 H1234 0.960 . S
C1173 H1235 0.961 . S
C1174 C1175 1.517 . S
C1174 H1237 0.961 . S
C1174 H1238 0.960 . S
C1174 H1239 0.959 . S
C1175 C1174 1.517 . S
C1175 O1223 1.468 . S
C1175 H1236 0.980 . S
C1176 C1177 1.349 . S
C1176 C1181 1.367 . S
C1176 O1223 1.408 . S
C1177 C1176 1.349 . S
C1177 C1178 1.407 . S
C1177 H1240 0.930 . S
C1178 C1177 1.407 . S
C1178 C1179 1.449 . S
C1178 C1182 1.535 . S
C1179 C1178 1.449 . S
C1179 C1180 1.384 . S
C1179 C1204 1.553 . S
C1180 C1179 1.384 . S
C1180 C1181 1.364 . S
C1180 C1183 1.450 . S
C1181 C1176 1.367 . S
C1181 C1180 1.364 . S
C1181 H1241 0.931 . S
C1182 C1178 1.535 . S
C1182 H1242 0.959 . S
C1182 H1243 0.961 . S
C1182 H1244 0.959 . S
C1183 C1180 1.450 . S
C1183 H1245 0.960 . S
C1183 H1246 0.960 . S
C1183 H1247 0.960 . S
C1184 C1185 1.309 . S
C1184 C1189 1.304 . S
C1184 O1222 1.435 . S
C1185 C1184 1.309 . S
C1185 C1186 1.476 . S
C1185 H1249 0.930 . S
C1186 C1185 1.476 . S
C1186 C1187 1.400 . S
C1186 C1190 1.567 . S
C1187 C1186 1.400 . S
C1187 C1188 1.373 . S
C1187 C1209 1.432 . S
C1188 C1187 1.373 . S
C1188 C1189 1.339 . S
C1188 C1191 1.530 . S
C1189 C1184 1.304 . S
C1189 C1188 1.339 . S
C1189 H1250 0.930 . S
C1190 C1186 1.567 . S
C1190 H1251 0.961 . S
C1190 H1252 0.960 . S
C1190 H1253 0.958 . S
C1191 C1188 1.530 . S
C1191 H1254 0.961 . S
C1191 H1255 0.960 . S
C1191 H1256 0.960 . S
C1192 C1193 1.530 . S
C1192 H1258 0.961 . S
C1192 H1259 0.961 . S
C1192 H1260 0.959 . S
C1193 C1192 1.530 . S
C1193 O1221 1.412 . S
C1193 H1257 0.980 . S
C1194 C1195 1.288 . S
C1194 C1199 1.377 . S
C1194 O1221 1.393 . S
C1195 C1194 1.288 . S
C1195 C1196 1.369 . S
C1195 H1261 0.932 . S
C1196 C1195 1.369 . S
C1196 C1197 1.398 . S
C1196 C1200 1.527 . S
C1197 C1196 1.398 . S
C1197 C1198 1.380 . S
C1197 C1211 1.497 . S
C1198 C1197 1.380 . S
C1198 C1199 1.383 . S
C1198 C1201 1.603 . S
C1199 C1194 1.377 . S
C1199 C1198 1.383 . S
C1199 H1262 0.929 . S
C1200 C1196 1.527 . S
C1200 H1263 0.961 . S
C1200 H1264 0.959 . S
C1200 H1265 0.959 . S
C1201 C1198 1.603 . S
C1201 H1266 0.960 . S
C1201 H1267 0.962 . S
C1201 H1268 0.961 . S
C1202 C1169 1.587 . S
C1202 C1203 1.360 . S
C1202 C1215 1.412 . S
C1203 C1202 1.360 . S
C1203 C1204 1.365 . S
C1203 H1269 0.929 . S
C1204 C1179 1.553 . S
C1204 C1203 1.365 . S
C1204 C1205 1.404 . S
C1205 C1204 1.404 . S
C1205 C1206 1.395 . S
C1205 C1216 1.451 . S
C1206 C1205 1.395 . S
C1206 C1207 1.322 . S
C1206 H1270 0.930 . S
C1207 C1206 1.322 . S
C1207 C1208 1.459 . S
C1207 H1271 0.929 . S
C1208 C1207 1.459 . S
C1208 C1209 1.445 . S
C1208 C1217 1.395 . S
C1209 C1187 1.432 . S
C1209 C1208 1.445 . S
C1209 C1210 1.370 . S
C1210 C1209 1.370 . S
C1210 C1211 1.438 . S
C1210 H1272 0.930 . S
C1211 C1197 1.497 . S
C1211 C1210 1.438 . S
C1211 C1212 1.360 . S
C1212 C1211 1.360 . S
C1212 C1213 1.401 . S
C1212 C1217 1.446 . S
C1213 C1212 1.401 . S
C1213 C1214 1.347 . S
C1213 H1273 0.929 . S
C1214 C1213 1.347 . S
C1214 C1215 1.455 . S
C1214 H1274 0.930 . S
C1215 C1202 1.412 . S
C1215 C1214 1.455 . S
C1215 C1216 1.331 . S
C1216 C1205 1.451 . S
C1216 C1215 1.331 . S
C1216 C1217 1.497 . S
C1217 C1208 1.395 . S
C1217 C1212 1.446 . S
C1217 C1216 1.497 . S
C1218 C1219 1.582 . S
C1218 H1275 0.962 . S
C1218 H1276 0.959 . S
C1218 H1277 0.958 . S
C1219 C1218 1.582 . S
C1219 O1222 1.458 . S
C1219 H1248 0.980 . S
O1220 C1165 1.426 . S
O1220 C1166 1.334 . S
O1221 C1193 1.412 . S
O1221 C1194 1.393 . S
O1222 C1184 1.435 . S
O1222 C1219 1.458 . S
O1223 C1175 1.468 . S
O1223 C1176 1.408 . S
H1224 C1165 0.980 . S
H1225 C1164 0.959 . S
H1226 C1164 0.959 . S
H1227 C1164 0.960 . S
H1228 C1167 0.929 . S
H1229 C1171 0.929 . S
H1230 C1172 0.959 . S
H1231 C1172 0.961 . S
H1232 C1172 0.961 . S
H1233 C1173 0.960 . S
H1234 C1173 0.960 . S
H1235 C1173 0.961 . S
H1236 C1175 0.980 . S
H1237 C1174 0.961 . S
H1238 C1174 0.960 . S
H1239 C1174 0.959 . S
H1240 C1177 0.930 . S
H1241 C1181 0.931 . S
H1242 C1182 0.959 . S
H1243 C1182 0.961 . S
H1244 C1182 0.959 . S
H1245 C1183 0.960 . S
H1246 C1183 0.960 . S
H1247 C1183 0.960 . S
H1248 C1219 0.980 . S
H1249 C1185 0.930 . S
H1250 C1189 0.930 . S
H1251 C1190 0.961 . S
H1252 C1190 0.960 . S
H1253 C1190 0.958 . S
H1254 C1191 0.961 . S
H1255 C1191 0.960 . S
H1256 C1191 0.960 . S
H1257 C1193 0.980 . S
H1258 C1192 0.961 . S
H1259 C1192 0.961 . S
H1260 C1192 0.959 . S
H1261 C1195 0.932 . S
H1262 C1199 0.929 . S
H1263 C1200 0.961 . S
H1264 C1200 0.959 . S
H1265 C1200 0.959 . S
H1266 C1201 0.960 . S
H1267 C1201 0.962 . S
H1268 C1201 0.961 . S
H1269 C1203 0.929 . S
H1270 C1206 0.930 . S
H1271 C1207 0.929 . S
H1272 C1210 0.930 . S
H1273 C1213 0.929 . S
H1274 C1214 0.930 . S
H1275 C1218 0.962 . S
H1276 C1218 0.959 . S
H1277 C1218 0.958 . S
C1278 C1279 1.560 . S
C1278 H1339 0.959 . S
C1278 H1340 0.959 . S
C1278 H1341 0.960 . S
C1279 C1278 1.560 . S
C1279 O1334 1.426 . S
C1279 H1338 0.980 . S
C1280 C1281 1.407 1_455 S
C1280 C1285 1.418 . S
C1280 O1334 1.334 . S
C1281 C1280 1.407 1_655 S
C1281 C1282 1.360 . S
C1281 H1342 0.929 . S
C1282 C1281 1.360 . S
C1282 C1283 1.401 1_655 S
C1282 C1286 1.527 . S
C1283 C1282 1.401 1_455 S
C1283 C1284 1.405 . S
C1283 C1316 1.587 1_455 S
C1284 C1283 1.405 . S
C1284 C1285 1.332 . S
C1284 C1287 1.496 . S
C1285 C1280 1.418 . S
C1285 C1284 1.332 . S
C1285 H1343 0.929 . S
C1286 C1282 1.527 . S
C1286 H1344 0.959 . S
C1286 H1345 0.961 . S
C1286 H1346 0.961 . S
C1287 C1284 1.496 . S
C1287 H1347 0.960 . S
C1287 H1348 0.960 . S
C1287 H1349 0.961 . S
C1288 C1289 1.517 . S
C1288 H1351 0.961 . S
C1288 H1352 0.960 . S
C1288 H1353 0.959 . S
C1289 C1288 1.517 . S
C1289 O1337 1.468 . S
C1289 H1350 0.980 1_655 S
C1290 C1291 1.349 . S
C1290 C1295 1.367 . S
C1290 O1337 1.408 . S
C1291 C1290 1.349 . S
C1291 C1292 1.379 1_655 S
C1291 H1354 0.930 1_655 S
C1292 C1291 1.379 1_455 S
C1292 C1293 1.426 1_455 S
C1292 C1296 1.583 . S
C1293 C1292 1.426 1_655 S
C1293 C1294 1.384 . S
C1293 C1318 1.553 . S
C1294 C1293 1.384 . S
C1294 C1295 1.364 . S
C1294 C1297 1.450 . S
C1295 C1290 1.367 . S
C1295 C1294 1.364 . S
C1295 H1355 0.931 . S
C1296 C1292 1.583 . S
C1296 H1356 0.959 . S
C1296 H1357 0.961 . S
C1296 H1358 0.959 . S
C1297 C1294 1.450 . S
C1297 H1359 0.960 . S
C1297 H1360 0.960 . S
C1297 H1361 0.960 . S
C1298 C1299 1.309 . S
C1298 C1303 1.304 . S
C1298 O1336 1.435 . S
C1299 C1298 1.309 . S
C1299 C1300 1.482 1_655 S
C1299 H1363 0.930 1_655 S
C1300 C1299 1.482 1_455 S
C1300 C1301 1.404 1_455 S
C1300 C1304 1.557 . S
C1301 C1300 1.404 1_655 S
C1301 C1302 1.373 . S
C1301 C1323 1.432 . S
C1302 C1301 1.373 . S
C1302 C1303 1.339 . S
C1302 C1305 1.530 . S
C1303 C1298 1.304 . S
C1303 C1302 1.339 . S
C1303 H1364 0.930 . S
C1304 C1300 1.557 . S
C1304 H1365 0.961 . S
C1304 H1366 0.960 . S
C1304 H1367 0.958 . S
C1305 C1302 1.530 . S
C1305 H1368 0.961 . S
C1305 H1369 0.960 . S
C1305 H1370 0.960 . S
C1306 C1307 1.559 . S
C1306 H1372 0.961 . S
C1306 H1373 0.961 . S
C1306 H1374 0.959 . S
C1307 C1306 1.559 . S
C1307 O1335 1.417 . S
C1307 H1371 0.973 1_455 S
C1308 C1309 1.288 . S
C1308 C1313 1.377 1_455 S
C1308 O1335 1.393 . S
C1309 C1308 1.288 . S
C1309 C1310 1.369 . S
C1309 H1375 0.932 . S
C1310 C1309 1.369 . S
C1310 C1311 1.398 1_455 S
C1310 C1314 1.527 . S
C1311 C1310 1.398 1_655 S
C1311 C1312 1.380 . S
C1311 C1325 1.497 . S
C1312 C1311 1.380 . S
C1312 C1313 1.383 . S
C1312 C1315 1.603 . S
C1313 C1308 1.377 1_655 S
C1313 C1312 1.383 . S
C1313 H1376 0.929 . S
C1314 C1310 1.527 . S
C1314 H1377 0.961 . S
C1314 H1378 0.959 . S
C1314 H1379 0.959 . S
C1315 C1312 1.603 . S
C1315 H1380 0.960 . S
C1315 H1381 0.962 . S
C1315 H1382 0.961 . S
C1316 C1283 1.587 1_655 S
C1316 C1317 1.360 . S
C1316 C1329 1.412 . S
C1317 C1316 1.360 . S
C1317 C1318 1.365 . S
C1317 H1383 0.929 . S
C1318 C1293 1.553 . S
C1318 C1317 1.365 . S
C1318 C1319 1.404 . S
C1319 C1318 1.404 . S
C1319 C1320 1.395 . S
C1319 C1330 1.451 . S
C1320 C1319 1.395 . S
C1320 C1321 1.322 . S
C1320 H1384 0.930 . S
C1321 C1320 1.322 . S
C1321 C1322 1.459 . S
C1321 H1385 0.929 . S
C1322 C1321 1.459 . S
C1322 C1323 1.445 . S
C1322 C1331 1.395 . S
C1323 C1301 1.432 . S
C1323 C1322 1.445 . S
C1323 C1324 1.370 . S
C1324 C1323 1.370 . S
C1324 C1325 1.438 . S
C1324 H1386 0.930 . S
C1325 C1311 1.497 . S
C1325 C1324 1.438 . S
C1325 C1326 1.360 . S
C1326 C1325 1.360 . S
C1326 C1327 1.401 . S
C1326 C1331 1.446 . S
C1327 C1326 1.401 . S
C1327 C1328 1.347 . S
C1327 H1387 0.986 . S
C1328 C1327 1.347 . S
C1328 C1329 1.455 . S
C1328 H1388 0.984 . S
C1329 C1316 1.412 . S
C1329 C1328 1.455 . S
C1329 C1330 1.331 . S
C1330 C1319 1.451 . S
C1330 C1329 1.331 . S
C1330 C1331 1.497 . S
C1331 C1322 1.395 . S
C1331 C1326 1.446 . S
C1331 C1330 1.497 . S
C1332 C1333 1.582 . S
C1332 H1389 0.962 . S
C1332 H1390 0.959 . S
C1332 H1391 0.958 . S
C1333 C1332 1.582 . S
C1333 O1336 1.458 . S
C1333 H1362 0.980 . S
O1334 C1279 1.426 . S
O1334 C1280 1.334 . S
O1335 C1307 1.417 . S
O1335 C1308 1.393 . S
O1336 C1298 1.435 . S
O1336 C1333 1.458 . S
O1337 C1289 1.468 . S
O1337 C1290 1.408 . S
H1338 C1279 0.980 . S
H1339 C1278 0.959 . S
H1340 C1278 0.959 . S
H1341 C1278 0.960 . S
H1342 C1281 0.929 . S
H1343 C1285 0.929 . S
H1344 C1286 0.959 . S
H1345 C1286 0.961 . S
H1346 C1286 0.961 . S
H1347 C1287 0.960 . S
H1348 C1287 0.960 . S
H1349 C1287 0.961 . S
H1350 C1289 0.980 1_455 S
H1351 C1288 0.961 . S
H1352 C1288 0.960 . S
H1353 C1288 0.959 . S
H1354 C1291 0.930 1_455 S
H1355 C1295 0.931 . S
H1356 C1296 0.959 . S
H1357 C1296 0.961 . S
H1358 C1296 0.959 . S
H1359 C1297 0.960 . S
H1360 C1297 0.960 . S
H1361 C1297 0.960 . S
H1362 C1333 0.980 . S
H1363 C1299 0.930 1_455 S
H1364 C1303 0.930 . S
H1365 C1304 0.961 . S
H1366 C1304 0.960 . S
H1367 C1304 0.958 . S
H1368 C1305 0.961 . S
H1369 C1305 0.960 . S
H1370 C1305 0.960 . S
H1371 C1307 0.973 1_655 S
H1372 C1306 0.961 . S
H1373 C1306 0.961 . S
H1374 C1306 0.959 . S
H1375 C1309 0.932 . S
H1376 C1313 0.929 . S
H1377 C1314 0.961 . S
H1378 C1314 0.959 . S
H1379 C1314 0.959 . S
H1380 C1315 0.960 . S
H1381 C1315 0.962 . S
H1382 C1315 0.961 . S
H1383 C1317 0.929 . S
H1384 C1320 0.930 . S
H1385 C1321 0.929 . S
H1386 C1324 0.930 . S
H1387 C1327 0.986 . S
H1388 C1328 0.984 . S
H1389 C1332 0.962 . S
H1390 C1332 0.959 . S
H1391 C1332 0.958 . S
C1392 C1393 1.560 . S
C1392 H1453 0.959 . S
C1392 H1454 0.959 . S
C1392 H1455 0.960 . S
C1393 C1392 1.560 . S
C1393 O1448 1.426 . S
C1393 H1452 0.980 . S
C1394 C1395 1.407 . S
C1394 C1399 1.418 . S
C1394 O1448 1.334 . S
C1395 C1394 1.407 . S
C1395 C1396 1.360 . S
C1395 H1456 0.929 . S
C1396 C1395 1.360 . S
C1396 C1397 1.401 . S
C1396 C1400 1.527 . S
C1397 C1396 1.401 . S
C1397 C1398 1.405 . S
C1397 C1430 1.587 . S
C1398 C1397 1.405 . S
C1398 C1399 1.332 . S
C1398 C1401 1.496 . S
C1399 C1394 1.418 . S
C1399 C1398 1.332 . S
C1399 H1457 0.929 . S
C1400 C1396 1.527 . S
C1400 H1458 0.959 . S
C1400 H1459 0.961 . S
C1400 H1460 0.961 . S
C1401 C1398 1.496 . S
C1401 H1461 0.960 . S
C1401 H1462 0.960 . S
C1401 H1463 0.961 . S
C1402 C1403 1.517 . S
C1402 H1465 0.961 . S
C1402 H1466 0.960 . S
C1402 H1467 0.959 . S
C1403 C1402 1.517 . S
C1403 O1451 1.468 . S
C1403 H1464 0.980 . S
C1404 C1405 1.349 . S
C1404 C1409 1.367 . S
C1404 O1451 1.408 . S
C1405 C1404 1.349 . S
C1405 C1406 1.407 . S
C1405 H1468 0.930 . S
C1406 C1405 1.407 . S
C1406 C1407 1.449 . S
C1406 C1410 1.535 . S
C1407 C1406 1.449 . S
C1407 C1408 1.384 . S
C1407 C1432 1.553 . S
C1408 C1407 1.384 . S
C1408 C1409 1.364 . S
C1408 C1411 1.450 . S
C1409 C1404 1.367 . S
C1409 C1408 1.364 . S
C1409 H1469 0.931 . S
C1410 C1406 1.535 . S
C1410 H1470 0.959 . S
C1410 H1471 0.961 . S
C1410 H1472 0.959 . S
C1411 C1408 1.450 . S
C1411 H1473 0.960 . S
C1411 H1474 0.960 . S
C1411 H1475 0.960 . S
C1412 C1413 1.309 . S
C1412 C1417 1.304 . S
C1412 O1450 1.435 . S
C1413 C1412 1.309 . S
C1413 C1414 1.476 . S
C1413 H1477 0.930 . S
C1414 C1413 1.476 . S
C1414 C1415 1.400 . S
C1414 C1418 1.567 . S
C1415 C1414 1.400 . S
C1415 C1416 1.373 . S
C1415 C1437 1.432 . S
C1416 C1415 1.373 . S
C1416 C1417 1.339 . S
C1416 C1419 1.530 . S
C1417 C1412 1.304 . S
C1417 C1416 1.339 . S
C1417 H1478 0.930 . S
C1418 C1414 1.567 . S
C1418 H1479 0.961 . S
C1418 H1480 0.960 . S
C1418 H1481 0.958 . S
C1419 C1416 1.530 . S
C1419 H1482 0.961 . S
C1419 H1483 0.960 . S
C1419 H1484 0.960 . S
C1420 C1421 1.530 . S
C1420 H1486 0.961 . S
C1420 H1487 0.961 . S
C1420 H1488 0.959 . S
C1421 C1420 1.530 . S
C1421 O1449 1.412 . S
C1421 H1485 0.980 . S
C1422 C1423 1.288 . S
C1422 C1427 1.377 . S
C1422 O1449 1.393 . S
C1423 C1422 1.288 . S
C1423 C1424 1.369 . S
C1423 H1489 0.932 . S
C1424 C1423 1.369 . S
C1424 C1425 1.398 . S
C1424 C1428 1.527 . S
C1425 C1424 1.398 . S
C1425 C1426 1.380 . S
C1425 C1439 1.497 . S
C1426 C1425 1.380 . S
C1426 C1427 1.383 . S
C1426 C1429 1.603 . S
C1427 C1422 1.377 . S
C1427 C1426 1.383 . S
C1427 H1490 0.929 . S
C1428 C1424 1.527 . S
C1428 H1491 0.961 . S
C1428 H1492 0.959 . S
C1428 H1493 0.959 . S
C1429 C1426 1.603 . S
C1429 H1494 0.960 . S
C1429 H1495 0.962 . S
C1429 H1496 0.961 . S
C1430 C1397 1.587 . S
C1430 C1431 1.360 . S
C1430 C1443 1.412 . S
C1431 C1430 1.360 . S
C1431 C1432 1.365 . S
C1431 H1497 0.929 . S
C1432 C1407 1.553 . S
C1432 C1431 1.365 . S
C1432 C1433 1.404 . S
C1433 C1432 1.404 . S
C1433 C1434 1.395 . S
C1433 C1444 1.451 . S
C1434 C1433 1.395 . S
C1434 C1435 1.322 . S
C1434 H1498 0.930 . S
C1435 C1434 1.322 . S
C1435 C1436 1.459 . S
C1435 H1499 0.929 . S
C1436 C1435 1.459 . S
C1436 C1437 1.445 . S
C1436 C1445 1.395 . S
C1437 C1415 1.432 . S
C1437 C1436 1.445 . S
C1437 C1438 1.370 . S
C1438 C1437 1.370 . S
C1438 C1439 1.438 . S
C1438 H1500 0.930 . S
C1439 C1425 1.497 . S
C1439 C1438 1.438 . S
C1439 C1440 1.360 . S
C1440 C1439 1.360 . S
C1440 C1441 1.401 . S
C1440 C1445 1.446 . S
C1441 C1440 1.401 . S
C1441 C1442 1.347 . S
C1441 H1501 0.929 . S
C1442 C1441 1.347 . S
C1442 C1443 1.455 . S
C1442 H1502 0.930 . S
C1443 C1430 1.412 . S
C1443 C1442 1.455 . S
C1443 C1444 1.331 . S
C1444 C1433 1.451 . S
C1444 C1443 1.331 . S
C1444 C1445 1.497 . S
C1445 C1436 1.395 . S
C1445 C1440 1.446 . S
C1445 C1444 1.497 . S
C1446 C1447 1.582 . S
C1446 H1503 0.962 . S
C1446 H1504 0.959 . S
C1446 H1505 0.958 . S
C1447 C1446 1.582 . S
C1447 O1450 1.458 . S
C1447 H1476 0.980 . S
O1448 C1393 1.426 . S
O1448 C1394 1.334 . S
O1449 C1421 1.412 . S
O1449 C1422 1.393 . S
O1450 C1412 1.435 . S
O1450 C1447 1.458 . S
O1451 C1403 1.468 . S
O1451 C1404 1.408 . S
H1452 C1393 0.980 . S
H1453 C1392 0.959 . S
H1454 C1392 0.959 . S
H1455 C1392 0.960 . S
H1456 C1395 0.929 . S
H1457 C1399 0.929 . S
H1458 C1400 0.959 . S
H1459 C1400 0.961 . S
H1460 C1400 0.961 . S
H1461 C1401 0.960 . S
H1462 C1401 0.960 . S
H1463 C1401 0.961 . S
H1464 C1403 0.980 . S
H1465 C1402 0.961 . S
H1466 C1402 0.960 . S
H1467 C1402 0.959 . S
H1468 C1405 0.930 . S
H1469 C1409 0.931 . S
H1470 C1410 0.959 . S
H1471 C1410 0.961 . S
H1472 C1410 0.959 . S
H1473 C1411 0.960 . S
H1474 C1411 0.960 . S
H1475 C1411 0.960 . S
H1476 C1447 0.980 . S
H1477 C1413 0.930 . S
H1478 C1417 0.930 . S
H1479 C1418 0.961 . S
H1480 C1418 0.960 . S
H1481 C1418 0.958 . S
H1482 C1419 0.961 . S
H1483 C1419 0.960 . S
H1484 C1419 0.960 . S
H1485 C1421 0.980 . S
H1486 C1420 0.961 . S
H1487 C1420 0.961 . S
H1488 C1420 0.959 . S
H1489 C1423 0.932 . S
H1490 C1427 0.929 . S
H1491 C1428 0.961 . S
H1492 C1428 0.959 . S
H1493 C1428 0.959 . S
H1494 C1429 0.960 . S
H1495 C1429 0.962 . S
H1496 C1429 0.961 . S
H1497 C1431 0.929 . S
H1498 C1434 0.930 . S
H1499 C1435 0.929 . S
H1500 C1438 0.930 . S
H1501 C1441 0.929 . S
H1502 C1442 0.930 . S
H1503 C1446 0.962 . S
H1504 C1446 0.959 . S
H1505 C1446 0.958 . S
C1506 C1507 1.560 . S
C1506 H1567 0.959 . S
C1506 H1568 0.959 . S
C1506 H1569 0.960 . S
C1507 C1506 1.560 . S
C1507 O1562 1.426 . S
C1507 H1566 0.980 . S
C1508 C1509 1.407 1_565 S
C1508 C1513 1.418 . S
C1508 O1562 1.334 . S
C1509 C1508 1.407 1_545 S
C1509 C1510 1.360 . S
C1509 H1570 0.929 . S
C1510 C1509 1.360 . S
C1510 C1511 1.401 1_545 S
C1510 C1514 1.527 . S
C1511 C1510 1.401 1_565 S
C1511 C1512 1.405 . S
C1511 C1544 1.587 1_565 S
C1512 C1511 1.405 . S
C1512 C1513 1.332 . S
C1512 C1515 1.496 . S
C1513 C1508 1.418 . S
C1513 C1512 1.332 . S
C1513 H1571 0.929 . S
C1514 C1510 1.527 . S
C1514 H1572 0.959 . S
C1514 H1573 0.961 . S
C1514 H1574 0.961 . S
C1515 C1512 1.496 . S
C1515 H1575 0.960 . S
C1515 H1576 0.960 . S
C1515 H1577 0.961 . S
C1516 C1517 1.517 . S
C1516 H1579 0.961 1_545 S
C1516 H1580 0.960 . S
C1516 H1581 0.959 . S
C1517 C1516 1.517 . S
C1517 O1565 1.468 . S
C1517 H1578 0.980 1_545 S
C1518 C1519 1.359 . S
C1518 C1523 1.367 . S
C1518 O1565 1.408 . S
C1519 C1518 1.359 . S
C1519 C1520 1.414 1_545 S
C1519 H1582 0.914 1_545 S
C1520 C1519 1.414 1_565 S
C1520 C1521 1.449 1_565 S
C1520 C1524 1.535 . S
C1521 C1520 1.449 1_545 S
C1521 C1522 1.384 . S
C1521 C1546 1.553 . S
C1522 C1521 1.384 . S
C1522 C1523 1.364 . S
C1522 C1525 1.450 . S
C1523 C1518 1.367 . S
C1523 C1522 1.364 . S
C1523 H1583 0.931 . S
C1524 C1520 1.535 . S
C1524 H1584 0.959 . S
C1524 H1585 0.961 . S
C1524 H1586 0.959 . S
C1525 C1522 1.450 . S
C1525 H1587 0.960 . S
C1525 H1588 0.960 . S
C1525 H1589 0.960 . S
C1526 C1527 1.309 . S
C1526 C1531 1.304 . S
C1526 O1564 1.435 . S
C1527 C1526 1.309 . S
C1527 C1528 1.493 1_545 S
C1527 H1591 0.930 1_545 S
C1528 C1527 1.493 1_565 S
C1528 C1529 1.347 1_565 S
C1528 C1532 1.603 . S
C1529 C1528 1.347 1_545 S
C1529 C1530 1.373 . S
C1529 C1551 1.432 . S
C1530 C1529 1.373 . S
C1530 C1531 1.339 . S
C1530 C1533 1.530 . S
C1531 C1526 1.304 . S
C1531 C1530 1.339 . S
C1531 H1592 0.930 . S
C1532 C1528 1.603 . S
C1532 H1593 0.961 . S
C1532 H1594 0.960 . S
C1532 H1595 0.958 . S
C1533 C1530 1.530 . S
C1533 H1596 0.961 . S
C1533 H1597 0.960 . S
C1533 H1598 0.960 . S
C1534 C1535 1.530 1_565 S
C1534 H1600 0.961 . S
C1534 H1601 0.961 . S
C1534 H1602 0.959 . S
C1535 C1534 1.530 1_545 S
C1535 O1563 1.412 1_545 S
C1535 H1599 0.980 . S
C1536 C1537 1.288 . S
C1536 C1541 1.377 1_565 S
C1536 O1563 1.393 . S
C1537 C1536 1.288 . S
C1537 C1538 1.369 . S
C1537 H1603 0.932 . S
C1538 C1537 1.369 . S
C1538 C1539 1.398 1_565 S
C1538 C1542 1.527 . S
C1539 C1538 1.398 1_545 S
C1539 C1540 1.380 . S
C1539 C1553 1.497 . S
C1540 C1539 1.380 . S
C1540 C1541 1.383 . S
C1540 C1543 1.603 . S
C1541 C1536 1.377 1_545 S
C1541 C1540 1.383 . S
C1541 H1604 0.929 . S
C1542 C1538 1.527 . S
C1542 H1605 0.961 . S
C1542 H1606 0.959 . S
C1542 H1607 0.959 . S
C1543 C1540 1.603 . S
C1543 H1608 0.960 . S
C1543 H1609 0.962 . S
C1543 H1610 0.961 . S
C1544 C1511 1.587 1_545 S
C1544 C1545 1.360 . S
C1544 C1557 1.412 . S
C1545 C1544 1.360 . S
C1545 C1546 1.365 . S
C1545 H1611 0.929 . S
C1546 C1521 1.553 . S
C1546 C1545 1.365 . S
C1546 C1547 1.404 . S
C1547 C1546 1.404 . S
C1547 C1548 1.395 . S
C1547 C1558 1.451 . S
C1548 C1547 1.395 . S
C1548 C1549 1.322 . S
C1548 H1612 0.930 . S
C1549 C1548 1.322 . S
C1549 C1550 1.459 . S
C1549 H1613 0.929 . S
C1550 C1549 1.459 . S
C1550 C1551 1.445 . S
C1550 C1559 1.395 . S
C1551 C1529 1.432 . S
C1551 C1550 1.445 . S
C1551 C1552 1.370 . S
C1552 C1551 1.370 . S
C1552 C1553 1.438 . S
C1552 H1614 0.930 . S
C1553 C1539 1.497 . S
C1553 C1552 1.438 . S
C1553 C1554 1.360 . S
C1554 C1553 1.360 . S
C1554 C1555 1.401 . S
C1554 C1559 1.446 . S
C1555 C1554 1.401 . S
C1555 C1556 1.347 . S
C1555 H1615 0.929 . S
C1556 C1555 1.347 . S
C1556 C1557 1.455 . S
C1556 H1616 0.930 . S
C1557 C1544 1.412 . S
C1557 C1556 1.455 . S
C1557 C1558 1.331 . S
C1558 C1547 1.451 . S
C1558 C1557 1.331 . S
C1558 C1559 1.497 . S
C1559 C1550 1.395 . S
C1559 C1554 1.446 . S
C1559 C1558 1.497 . S
C1560 C1561 1.582 . S
C1560 H1617 0.962 . S
C1560 H1618 0.959 . S
C1560 H1619 0.958 . S
C1561 C1560 1.582 . S
C1561 O1564 1.458 . S
C1561 H1590 0.980 . S
O1562 C1507 1.426 . S
O1562 C1508 1.334 . S
O1563 C1535 1.412 1_565 S
O1563 C1536 1.393 . S
O1564 C1526 1.435 . S
O1564 C1561 1.458 . S
O1565 C1517 1.468 . S
O1565 C1518 1.408 . S
H1566 C1507 0.980 . S
H1567 C1506 0.959 . S
H1568 C1506 0.959 . S
H1569 C1506 0.960 . S
H1570 C1509 0.929 . S
H1571 C1513 0.929 . S
H1572 C1514 0.959 . S
H1573 C1514 0.961 . S
H1574 C1514 0.961 . S
H1575 C1515 0.960 . S
H1576 C1515 0.960 . S
H1577 C1515 0.961 . S
H1578 C1517 0.980 1_565 S
H1579 C1516 0.961 1_565 S
H1580 C1516 0.960 . S
H1581 C1516 0.959 . S
H1582 C1519 0.914 1_565 S
H1583 C1523 0.931 . S
H1584 C1524 0.959 . S
H1585 C1524 0.961 . S
H1586 C1524 0.959 . S
H1587 C1525 0.960 . S
H1588 C1525 0.960 . S
H1589 C1525 0.960 . S
H1590 C1561 0.980 . S
H1591 C1527 0.930 1_565 S
H1592 C1531 0.930 . S
H1593 C1532 0.961 . S
H1594 C1532 0.960 . S
H1595 C1532 0.958 . S
H1596 C1533 0.961 . S
H1597 C1533 0.960 . S
H1598 C1533 0.960 . S
H1599 C1535 0.980 . S
H1600 C1534 0.961 . S
H1601 C1534 0.961 . S
H1602 C1534 0.959 . S
H1603 C1537 0.932 . S
H1604 C1541 0.929 . S
H1605 C1542 0.961 . S
H1606 C1542 0.959 . S
H1607 C1542 0.959 . S
H1608 C1543 0.960 . S
H1609 C1543 0.962 . S
H1610 C1543 0.961 . S
H1611 C1545 0.929 . S
H1612 C1548 0.930 . S
H1613 C1549 0.929 . S
H1614 C1552 0.930 . S
H1615 C1555 0.929 . S
H1616 C1556 0.930 . S
H1617 C1560 0.962 . S
H1618 C1560 0.959 . S
H1619 C1560 0.958 . S
C1620 C1621 1.560 . S
C1620 H1681 0.959 . S
C1620 H1682 0.959 . S
C1620 H1683 0.960 . S
C1621 C1620 1.560 . S
C1621 O1676 1.426 . S
C1621 H1680 0.980 1_565 S
C1622 C1623 1.407 1_565 S
C1622 C1627 1.418 . S
C1622 O1676 1.334 . S
C1623 C1622 1.407 1_545 S
C1623 C1624 1.360 . S
C1623 H1684 0.929 . S
C1624 C1623 1.360 . S
C1624 C1625 1.401 . S
C1624 C1628 1.527 . S
C1625 C1624 1.401 . S
C1625 C1626 1.405 1_545 S
C1625 C1658 1.587 . S
C1626 C1625 1.405 1_565 S
C1626 C1627 1.332 . S
C1626 C1629 1.496 . S
C1627 C1622 1.418 . S
C1627 C1626 1.332 . S
C1627 H1685 0.929 . S
C1628 C1624 1.527 . S
C1628 H1686 0.959 . S
C1628 H1687 0.961 . S
C1628 H1688 0.961 . S
C1629 C1626 1.496 . S
C1629 H1689 0.960 . S
C1629 H1690 0.960 . S
C1629 H1691 0.961 . S
C1630 C1631 1.517 . S
C1630 H1693 0.961 . S
C1630 H1694 0.960 . S
C1630 H1695 0.959 . S
C1631 C1630 1.517 . S
C1631 O1679 1.468 . S
C1631 H1692 0.980 . S
C1632 C1633 1.349 . S
C1632 C1637 1.367 . S
C1632 O1679 1.408 . S
C1633 C1632 1.349 . S
C1633 C1634 1.407 . S
C1633 H1696 0.933 . S
C1634 C1633 1.407 . S
C1634 C1635 1.449 . S
C1634 C1638 1.535 1_545 S
C1635 C1634 1.449 . S
C1635 C1636 1.384 . S
C1635 C1660 1.553 . S
C1636 C1635 1.384 . S
C1636 C1637 1.364 . S
C1636 C1639 1.450 . S
C1637 C1632 1.367 . S
C1637 C1636 1.364 . S
C1637 H1697 0.931 . S
C1638 C1634 1.535 1_565 S
C1638 H1698 0.959 . S
C1638 H1699 0.961 . S
C1638 H1700 0.959 . S
C1639 C1636 1.450 . S
C1639 H1701 0.960 . S
C1639 H1702 0.960 . S
C1639 H1703 0.960 . S
C1640 C1641 1.309 1_545 S
C1640 C1645 1.304 . S
C1640 O1678 1.435 . S
C1641 C1640 1.309 1_565 S
C1641 C1642 1.476 . S
C1641 H1705 0.930 . S
C1642 C1641 1.476 . S
C1642 C1643 1.400 1_565 S
C1642 C1646 1.567 . S
C1643 C1642 1.400 1_545 S
C1643 C1644 1.373 . S
C1643 C1665 1.432 . S
C1644 C1643 1.373 . S
C1644 C1645 1.339 . S
C1644 C1647 1.530 . S
C1645 C1640 1.304 . S
C1645 C1644 1.339 . S
C1645 H1706 0.930 . S
C1646 C1642 1.567 . S
C1646 H1707 0.961 . S
C1646 H1708 0.960 . S
C1646 H1709 0.958 . S
C1647 C1644 1.530 . S
C1647 H1710 0.961 . S
C1647 H1711 0.960 . S
C1647 H1712 0.960 . S
C1648 C1649 1.530 . S
C1648 H1714 0.961 . S
C1648 H1715 0.961 . S
C1648 H1716 0.959 . S
C1649 C1648 1.530 . S
C1649 O1677 1.412 . S
C1649 H1713 1.014 . S
C1650 C1651 1.288 . S
C1650 C1655 1.377 1_565 S
C1650 O1677 1.393 . S
C1651 C1650 1.288 . S
C1651 C1652 1.369 . S
C1651 H1717 0.932 . S
C1652 C1651 1.369 . S
C1652 C1653 1.398 . S
C1652 C1656 1.527 . S
C1653 C1652 1.398 . S
C1653 C1654 1.380 1_565 S
C1653 C1667 1.497 1_565 S
C1654 C1653 1.380 1_545 S
C1654 C1655 1.383 . S
C1654 C1657 1.603 . S
C1655 C1650 1.377 1_545 S
C1655 C1654 1.383 . S
C1655 H1718 0.929 . S
C1656 C1652 1.527 . S
C1656 H1719 0.961 . S
C1656 H1720 0.959 . S
C1656 H1721 0.959 . S
C1657 C1654 1.603 . S
C1657 H1722 0.960 . S
C1657 H1723 0.962 . S
C1657 H1724 0.961 . S
C1658 C1625 1.587 . S
C1658 C1659 1.360 . S
C1658 C1671 1.412 . S
C1659 C1658 1.360 . S
C1659 C1660 1.365 . S
C1659 H1725 0.929 . S
C1660 C1635 1.553 . S
C1660 C1659 1.365 . S
C1660 C1661 1.404 . S
C1661 C1660 1.404 . S
C1661 C1662 1.395 . S
C1661 C1672 1.451 . S
C1662 C1661 1.395 . S
C1662 C1663 1.322 . S
C1662 H1726 0.930 . S
C1663 C1662 1.322 . S
C1663 C1664 1.459 . S
C1663 H1727 0.929 . S
C1664 C1663 1.459 . S
C1664 C1665 1.445 . S
C1664 C1673 1.395 . S
C1665 C1643 1.432 . S
C1665 C1664 1.445 . S
C1665 C1666 1.370 . S
C1666 C1665 1.370 . S
C1666 C1667 1.438 . S
C1666 H1728 0.930 . S
C1667 C1653 1.497 1_545 S
C1667 C1666 1.438 . S
C1667 C1668 1.360 . S
C1668 C1667 1.360 . S
C1668 C1669 1.401 . S
C1668 C1673 1.446 . S
C1669 C1668 1.401 . S
C1669 C1670 1.347 . S
C1669 H1729 0.952 . S
C1670 C1669 1.347 . S
C1670 C1671 1.455 . S
C1670 H1730 0.930 . S
C1671 C1658 1.412 . S
C1671 C1670 1.455 . S
C1671 C1672 1.331 . S
C1672 C1661 1.451 . S
C1672 C1671 1.331 . S
C1672 C1673 1.497 . S
C1673 C1664 1.395 . S
C1673 C1668 1.446 . S
C1673 C1672 1.497 . S
C1674 C1675 1.582 . S
C1674 H1731 0.962 . S
C1674 H1732 0.959 . S
C1674 H1733 0.958 . S
C1675 C1674 1.582 . S
C1675 O1678 1.458 . S
C1675 H1704 0.980 1_545 S
O1676 C1621 1.426 . S
O1676 C1622 1.334 . S
O1677 C1649 1.412 . S
O1677 C1650 1.393 . S
O1678 C1640 1.435 . S
O1678 C1675 1.458 . S
O1679 C1631 1.468 . S
O1679 C1632 1.408 . S
H1680 C1621 0.980 1_545 S
H1681 C1620 0.959 . S
H1682 C1620 0.959 . S
H1683 C1620 0.960 . S
H1684 C1623 0.929 . S
H1685 C1627 0.929 . S
H1686 C1628 0.959 . S
H1687 C1628 0.961 . S
H1688 C1628 0.961 . S
H1689 C1629 0.960 . S
H1690 C1629 0.960 . S
H1691 C1629 0.961 . S
H1692 C1631 0.980 . S
H1693 C1630 0.961 . S
H1694 C1630 0.960 . S
H1695 C1630 0.959 . S
H1696 C1633 0.933 . S
H1697 C1637 0.931 . S
H1698 C1638 0.959 . S
H1699 C1638 0.961 . S
H1700 C1638 0.959 . S
H1701 C1639 0.960 . S
H1702 C1639 0.960 . S
H1703 C1639 0.960 . S
H1704 C1675 0.980 1_565 S
H1705 C1641 0.930 . S
H1706 C1645 0.930 . S
H1707 C1646 0.961 . S
H1708 C1646 0.960 . S
H1709 C1646 0.958 . S
H1710 C1647 0.961 . S
H1711 C1647 0.960 . S
H1712 C1647 0.960 . S
H1713 C1649 1.014 . S
H1714 C1648 0.961 . S
H1715 C1648 0.961 . S
H1716 C1648 0.959 . S
H1717 C1651 0.932 . S
H1718 C1655 0.929 . S
H1719 C1656 0.961 . S
H1720 C1656 0.959 . S
H1721 C1656 0.959 . S
H1722 C1657 0.960 . S
H1723 C1657 0.962 . S
H1724 C1657 0.961 . S
H1725 C1659 0.929 . S
H1726 C1662 0.930 . S
H1727 C1663 0.929 . S
H1728 C1666 0.930 . S
H1729 C1669 0.952 . S
H1730 C1670 0.930 . S
H1731 C1674 0.962 . S
H1732 C1674 0.959 . S
H1733 C1674 0.958 . S
C1734 C1735 1.595 . S
C1734 H1795 0.959 . S
C1734 H1796 0.959 . S
C1734 H1797 0.960 . S
C1735 C1734 1.595 . S
C1735 O1790 1.497 . S
C1735 H1794 0.965 1_455 S
C1736 C1737 1.407 1_455 S
C1736 C1741 1.418 . S
C1736 O1790 1.334 . S
C1737 C1736 1.407 1_655 S
C1737 C1738 1.360 . S
C1737 H1798 0.929 . S
C1738 C1737 1.360 . S
C1738 C1739 1.401 . S
C1738 C1742 1.527 . S
C1739 C1738 1.401 . S
C1739 C1740 1.405 1_655 S
C1739 C1772 1.587 . S
C1740 C1739 1.405 1_455 S
C1740 C1741 1.332 . S
C1740 C1743 1.496 . S
C1741 C1736 1.418 . S
C1741 C1740 1.332 . S
C1741 H1799 0.929 . S
C1742 C1738 1.527 . S
C1742 H1800 0.959 . S
C1742 H1801 0.961 . S
C1742 H1802 0.961 . S
C1743 C1740 1.496 . S
C1743 H1803 0.960 . S
C1743 H1804 0.960 . S
C1743 H1805 0.961 . S
C1744 C1745 1.517 . S
C1744 H1807 0.961 . S
C1744 H1808 0.960 . S
C1744 H1809 0.959 . S
C1745 C1744 1.517 . S
C1745 O1793 1.468 . S
C1745 H1806 0.980 . S
C1746 C1747 1.349 . S
C1746 C1751 1.367 . S
C1746 O1793 1.408 . S
C1747 C1746 1.349 . S
C1747 C1748 1.407 . S
C1747 H1810 0.893 1_655 S
C1748 C1747 1.407 . S
C1748 C1749 1.449 . S
C1748 C1752 1.535 1_655 S
C1749 C1748 1.449 . S
C1749 C1750 1.384 . S
C1749 C1774 1.553 . S
C1750 C1749 1.384 . S
C1750 C1751 1.364 . S
C1750 C1753 1.450 . S
C1751 C1746 1.367 . S
C1751 C1750 1.364 . S
C1751 H1811 0.931 . S
C1752 C1748 1.535 1_455 S
C1752 H1812 0.959 . S
C1752 H1813 0.961 . S
C1752 H1814 0.959 . S
C1753 C1750 1.450 . S
C1753 H1815 0.960 . S
C1753 H1816 0.960 . S
C1753 H1817 0.960 . S
C1754 C1755 1.309 1_655 S
C1754 C1759 1.304 . S
C1754 O1792 1.435 . S
C1755 C1754 1.309 1_455 S
C1755 C1756 1.476 . S
C1755 H1819 0.930 . S
C1756 C1755 1.476 . S
C1756 C1757 1.400 1_455 S
C1756 C1760 1.567 . S
C1757 C1756 1.400 1_655 S
C1757 C1758 1.373 . S
C1757 C1779 1.432 . S
C1758 C1757 1.373 . S
C1758 C1759 1.339 . S
C1758 C1761 1.530 . S
C1759 C1754 1.304 . S
C1759 C1758 1.339 . S
C1759 H1820 0.930 . S
C1760 C1756 1.567 . S
C1760 H1821 0.961 . S
C1760 H1822 0.960 . S
C1760 H1823 0.958 . S
C1761 C1758 1.530 . S
C1761 H1824 0.961 . S
C1761 H1825 0.960 . S
C1761 H1826 0.960 . S
C1762 C1763 1.530 . S
C1762 H1828 0.961 . S
C1762 H1829 0.961 . S
C1762 H1830 0.959 . S
C1763 C1762 1.530 . S
C1763 O1791 1.412 . S
C1763 H1827 0.961 1_455 S
C1764 C1765 1.288 . S
C1764 C1769 1.377 1_455 S
C1764 O1791 1.393 . S
C1765 C1764 1.288 . S
C1765 C1766 1.369 . S
C1765 H1831 0.932 . S
C1766 C1765 1.369 . S
C1766 C1767 1.398 . S
C1766 C1770 1.527 . S
C1767 C1766 1.398 . S
C1767 C1768 1.380 1_455 S
C1767 C1781 1.497 1_455 S
C1768 C1767 1.380 1_655 S
C1768 C1769 1.383 . S
C1768 C1771 1.603 . S
C1769 C1764 1.377 1_655 S
C1769 C1768 1.383 . S
C1769 H1832 0.929 . S
C1770 C1766 1.527 . S
C1770 H1833 0.961 . S
C1770 H1834 0.959 . S
C1770 H1835 0.959 . S
C1771 C1768 1.603 . S
C1771 H1836 0.960 . S
C1771 H1837 0.962 . S
C1771 H1838 0.961 . S
C1772 C1739 1.587 . S
C1772 C1773 1.360 . S
C1772 C1785 1.412 . S
C1773 C1772 1.360 . S
C1773 C1774 1.365 . S
C1773 H1839 0.929 . S
C1774 C1749 1.553 . S
C1774 C1773 1.365 . S
C1774 C1775 1.404 . S
C1775 C1774 1.404 . S
C1775 C1776 1.395 . S
C1775 C1786 1.451 . S
C1776 C1775 1.395 . S
C1776 C1777 1.322 . S
C1776 H1840 0.930 . S
C1777 C1776 1.322 . S
C1777 C1778 1.459 . S
C1777 H1841 0.929 . S
C1778 C1777 1.459 . S
C1778 C1779 1.445 . S
C1778 C1787 1.395 . S
C1779 C1757 1.432 . S
C1779 C1778 1.445 . S
C1779 C1780 1.370 . S
C1780 C1779 1.370 . S
C1780 C1781 1.438 . S
C1780 H1842 0.930 . S
C1781 C1767 1.497 1_655 S
C1781 C1780 1.438 . S
C1781 C1782 1.360 . S
C1782 C1781 1.360 . S
C1782 C1783 1.401 . S
C1782 C1787 1.446 . S
C1783 C1782 1.401 . S
C1783 C1784 1.347 . S
C1783 H1843 0.929 . S
C1784 C1783 1.347 . S
C1784 C1785 1.455 . S
C1784 H1844 0.930 . S
C1785 C1772 1.412 . S
C1785 C1784 1.455 . S
C1785 C1786 1.331 . S
C1786 C1775 1.451 . S
C1786 C1785 1.331 . S
C1786 C1787 1.497 . S
C1787 C1778 1.395 . S
C1787 C1782 1.446 . S
C1787 C1786 1.497 . S
C1788 C1789 1.582 1_655 S
C1788 H1845 0.919 1_655 S
C1788 H1846 0.959 . S
C1788 H1847 0.958 . S
C1789 C1788 1.582 1_455 S
C1789 O1792 1.458 1_455 S
C1789 H1818 0.980 . S
O1790 C1735 1.497 . S
O1790 C1736 1.334 . S
O1791 C1763 1.412 . S
O1791 C1764 1.393 . S
O1792 C1754 1.435 . S
O1792 C1789 1.458 1_655 S
O1793 C1745 1.468 . S
O1793 C1746 1.408 . S
H1794 C1735 0.965 1_655 S
H1795 C1734 0.959 . S
H1796 C1734 0.959 . S
H1797 C1734 0.960 . S
H1798 C1737 0.929 . S
H1799 C1741 0.929 . S
H1800 C1742 0.959 . S
H1801 C1742 0.961 . S
H1802 C1742 0.961 . S
H1803 C1743 0.960 . S
H1804 C1743 0.960 . S
H1805 C1743 0.961 . S
H1806 C1745 0.980 . S
H1807 C1744 0.961 . S
H1808 C1744 0.960 . S
H1809 C1744 0.959 . S
H1810 C1747 0.893 1_455 S
H1811 C1751 0.931 . S
H1812 C1752 0.959 . S
H1813 C1752 0.961 . S
H1814 C1752 0.959 . S
H1815 C1753 0.960 . S
H1816 C1753 0.960 . S
H1817 C1753 0.960 . S
H1818 C1789 0.980 . S
H1819 C1755 0.930 . S
H1820 C1759 0.930 . S
H1821 C1760 0.961 . S
H1822 C1760 0.960 . S
H1823 C1760 0.958 . S
H1824 C1761 0.961 . S
H1825 C1761 0.960 . S
H1826 C1761 0.960 . S
H1827 C1763 0.961 1_655 S
H1828 C1762 0.961 . S
H1829 C1762 0.961 . S
H1830 C1762 0.959 . S
H1831 C1765 0.932 . S
H1832 C1769 0.929 . S
H1833 C1770 0.961 . S
H1834 C1770 0.959 . S
H1835 C1770 0.959 . S
H1836 C1771 0.960 . S
H1837 C1771 0.962 . S
H1838 C1771 0.961 . S
H1839 C1773 0.929 . S
H1840 C1776 0.930 . S
H1841 C1777 0.929 . S
H1842 C1780 0.930 . S
H1843 C1783 0.929 . S
H1844 C1784 0.930 . S
H1845 C1788 0.919 1_455 S
H1846 C1788 0.959 . S
H1847 C1788 0.958 . S
C1848 C1849 1.560 . S
C1848 H1909 0.959 . S
C1848 H1910 0.959 . S
C1848 H1911 0.960 . S
C1849 C1848 1.560 . S
C1849 O1904 1.426 . S
C1849 H1908 0.980 . S
C1850 C1851 1.407 . S
C1850 C1855 1.418 . S
C1850 O1904 1.334 . S
C1851 C1850 1.407 . S
C1851 C1852 1.360 . S
C1851 H1912 0.929 . S
C1852 C1851 1.360 . S
C1852 C1853 1.401 . S
C1852 C1856 1.527 . S
C1853 C1852 1.401 . S
C1853 C1854 1.405 . S
C1853 C1886 1.587 . S
C1854 C1853 1.405 . S
C1854 C1855 1.332 . S
C1854 C1857 1.496 . S
C1855 C1850 1.418 . S
C1855 C1854 1.332 . S
C1855 H1913 0.929 . S
C1856 C1852 1.527 . S
C1856 H1914 0.959 . S
C1856 H1915 0.961 . S
C1856 H1916 0.961 . S
C1857 C1854 1.496 . S
C1857 H1917 0.960 . S
C1857 H1918 0.960 . S
C1857 H1919 0.961 . S
C1858 C1859 1.517 . S
C1858 H1921 0.961 . S
C1858 H1922 0.960 . S
C1858 H1923 0.959 . S
C1859 C1858 1.517 . S
C1859 O1907 1.468 . S
C1859 H1920 0.980 . S
C1860 C1861 1.349 . S
C1860 C1865 1.367 . S
C1860 O1907 1.408 . S
C1861 C1860 1.349 . S
C1861 C1862 1.407 . S
C1861 H1924 0.930 . S
C1862 C1861 1.407 . S
C1862 C1863 1.449 . S
C1862 C1866 1.535 . S
C1863 C1862 1.449 . S
C1863 C1864 1.384 . S
C1863 C1888 1.553 . S
C1864 C1863 1.384 . S
C1864 C1865 1.364 . S
C1864 C1867 1.450 . S
C1865 C1860 1.367 . S
C1865 C1864 1.364 . S
C1865 H1925 0.931 . S
C1866 C1862 1.535 . S
C1866 H1926 0.959 . S
C1866 H1927 0.961 . S
C1866 H1928 0.959 . S
C1867 C1864 1.450 . S
C1867 H1929 0.960 . S
C1867 H1930 0.960 . S
C1867 H1931 0.960 . S
C1868 C1869 1.309 . S
C1868 C1873 1.304 . S
C1868 O1906 1.435 . S
C1869 C1868 1.309 . S
C1869 C1870 1.476 . S
C1869 H1933 0.930 . S
C1870 C1869 1.476 . S
C1870 C1871 1.400 . S
C1870 C1874 1.567 . S
C1871 C1870 1.400 . S
C1871 C1872 1.373 . S
C1871 C1893 1.432 . S
C1872 C1871 1.373 . S
C1872 C1873 1.339 . S
C1872 C1875 1.530 . S
C1873 C1868 1.304 . S
C1873 C1872 1.339 . S
C1873 H1934 0.930 . S
C1874 C1870 1.567 . S
C1874 H1935 0.961 . S
C1874 H1936 0.960 . S
C1874 H1937 0.958 . S
C1875 C1872 1.530 . S
C1875 H1938 0.961 . S
C1875 H1939 0.960 . S
C1875 H1940 0.960 . S
C1876 C1877 1.530 . S
C1876 H1942 0.961 . S
C1876 H1943 0.961 . S
C1876 H1944 0.959 . S
C1877 C1876 1.530 . S
C1877 O1905 1.412 . S
C1877 H1941 0.980 . S
C1878 C1879 1.288 . S
C1878 C1883 1.377 . S
C1878 O1905 1.393 . S
C1879 C1878 1.288 . S
C1879 C1880 1.369 . S
C1879 H1945 0.932 . S
C1880 C1879 1.369 . S
C1880 C1881 1.398 . S
C1880 C1884 1.527 . S
C1881 C1880 1.398 . S
C1881 C1882 1.380 . S
C1881 C1895 1.497 . S
C1882 C1881 1.380 . S
C1882 C1883 1.383 . S
C1882 C1885 1.603 . S
C1883 C1878 1.377 . S
C1883 C1882 1.383 . S
C1883 H1946 0.929 . S
C1884 C1880 1.527 . S
C1884 H1947 0.961 . S
C1884 H1948 0.959 . S
C1884 H1949 0.959 . S
C1885 C1882 1.603 . S
C1885 H1950 0.960 . S
C1885 H1951 0.962 . S
C1885 H1952 0.961 . S
C1886 C1853 1.587 . S
C1886 C1887 1.360 . S
C1886 C1899 1.412 . S
C1887 C1886 1.360 . S
C1887 C1888 1.365 . S
C1887 H1953 0.929 . S
C1888 C1863 1.553 . S
C1888 C1887 1.365 . S
C1888 C1889 1.404 . S
C1889 C1888 1.404 . S
C1889 C1890 1.395 . S
C1889 C1900 1.451 . S
C1890 C1889 1.395 . S
C1890 C1891 1.322 . S
C1890 H1954 0.930 . S
C1891 C1890 1.322 . S
C1891 C1892 1.459 . S
C1891 H1955 0.929 . S
C1892 C1891 1.459 . S
C1892 C1893 1.445 . S
C1892 C1901 1.395 . S
C1893 C1871 1.432 . S
C1893 C1892 1.445 . S
C1893 C1894 1.370 . S
C1894 C1893 1.370 . S
C1894 C1895 1.438 . S
C1894 H1956 0.930 . S
C1895 C1881 1.497 . S
C1895 C1894 1.438 . S
C1895 C1896 1.360 . S
C1896 C1895 1.360 . S
C1896 C1897 1.401 . S
C1896 C1901 1.446 . S
C1897 C1896 1.401 . S
C1897 C1898 1.347 . S
C1897 H1957 0.929 . S
C1898 C1897 1.347 . S
C1898 C1899 1.455 . S
C1898 H1958 0.930 . S
C1899 C1886 1.412 . S
C1899 C1898 1.455 . S
C1899 C1900 1.331 . S
C1900 C1889 1.451 . S
C1900 C1899 1.331 . S
C1900 C1901 1.497 . S
C1901 C1892 1.395 . S
C1901 C1896 1.446 . S
C1901 C1900 1.497 . S
C1902 C1903 1.582 . S
C1902 H1959 0.962 . S
C1902 H1960 0.959 . S
C1902 H1961 0.958 . S
C1903 C1902 1.582 . S
C1903 O1906 1.458 . S
C1903 H1932 0.980 . S
O1904 C1849 1.426 . S
O1904 C1850 1.334 . S
O1905 C1877 1.412 . S
O1905 C1878 1.393 . S
O1906 C1868 1.435 . S
O1906 C1903 1.458 . S
O1907 C1859 1.468 . S
O1907 C1860 1.408 . S
H1908 C1849 0.980 . S
H1909 C1848 0.959 . S
H1910 C1848 0.959 . S
H1911 C1848 0.960 . S
H1912 C1851 0.929 . S
H1913 C1855 0.929 . S
H1914 C1856 0.959 . S
H1915 C1856 0.961 . S
H1916 C1856 0.961 . S
H1917 C1857 0.960 . S
H1918 C1857 0.960 . S
H1919 C1857 0.961 . S
H1920 C1859 0.980 . S
H1921 C1858 0.961 . S
H1922 C1858 0.960 . S
H1923 C1858 0.959 . S
H1924 C1861 0.930 . S
H1925 C1865 0.931 . S
H1926 C1866 0.959 . S
H1927 C1866 0.961 . S
H1928 C1866 0.959 . S
H1929 C1867 0.960 . S
H1930 C1867 0.960 . S
H1931 C1867 0.960 . S
H1932 C1903 0.980 . S
H1933 C1869 0.930 . S
H1934 C1873 0.930 . S
H1935 C1874 0.961 . S
H1936 C1874 0.960 . S
H1937 C1874 0.958 . S
H1938 C1875 0.961 . S
H1939 C1875 0.960 . S
H1940 C1875 0.960 . S
H1941 C1877 0.980 . S
H1942 C1876 0.961 . S
H1943 C1876 0.961 . S
H1944 C1876 0.959 . S
H1945 C1879 0.932 . S
H1946 C1883 0.929 . S
H1947 C1884 0.961 . S
H1948 C1884 0.959 . S
H1949 C1884 0.959 . S
H1950 C1885 0.960 . S
H1951 C1885 0.962 . S
H1952 C1885 0.961 . S
H1953 C1887 0.929 . S
H1954 C1890 0.930 . S
H1955 C1891 0.929 . S
H1956 C1894 0.930 . S
H1957 C1897 0.929 . S
H1958 C1898 0.930 . S
H1959 C1902 0.962 . S
H1960 C1902 0.959 . S
H1961 C1902 0.958 . S
C1962 C1963 1.560 . S
C1962 H2023 0.959 . S
C1962 H2024 0.959 . S
C1962 H2025 0.960 . S
C1963 C1962 1.560 . S
C1963 O2018 1.426 . S
C1963 H2022 0.980 . S
C1964 C1965 1.407 . S
C1964 C1969 1.418 . S
C1964 O2018 1.334 . S
C1965 C1964 1.407 . S
C1965 C1966 1.360 . S
C1965 H2026 0.929 . S
C1966 C1965 1.360 . S
C1966 C1967 1.401 . S
C1966 C1970 1.527 . S
C1967 C1966 1.401 . S
C1967 C1968 1.405 . S
C1967 C2000 1.587 . S
C1968 C1967 1.405 . S
C1968 C1969 1.332 . S
C1968 C1971 1.496 . S
C1969 C1964 1.418 . S
C1969 C1968 1.332 . S
C1969 H2027 0.929 . S
C1970 C1966 1.527 . S
C1970 H2028 0.959 . S
C1970 H2029 0.961 . S
C1970 H2030 0.961 . S
C1971 C1968 1.496 . S
C1971 H2031 0.960 . S
C1971 H2032 0.960 . S
C1971 H2033 0.961 . S
C1972 C1973 1.517 . S
C1972 H2035 0.961 . S
C1972 H2036 0.960 . S
C1972 H2037 0.959 . S
C1973 C1972 1.517 . S
C1973 O2021 1.468 . S
C1973 H2034 0.980 . S
C1974 C1975 1.349 . S
C1974 C1979 1.367 . S
C1974 O2021 1.408 . S
C1975 C1974 1.349 . S
C1975 C1976 1.407 . S
C1975 H2038 0.930 . S
C1976 C1975 1.407 . S
C1976 C1977 1.449 . S
C1976 C1980 1.535 . S
C1977 C1976 1.449 . S
C1977 C1978 1.384 . S
C1977 C2002 1.553 . S
C1978 C1977 1.384 . S
C1978 C1979 1.364 . S
C1978 C1981 1.450 . S
C1979 C1974 1.367 . S
C1979 C1978 1.364 . S
C1979 H2039 0.931 . S
C1980 C1976 1.535 . S
C1980 H2040 0.959 . S
C1980 H2041 0.961 . S
C1980 H2042 0.959 . S
C1981 C1978 1.450 . S
C1981 H2043 0.960 . S
C1981 H2044 0.960 . S
C1981 H2045 0.960 . S
C1982 C1983 1.309 . S
C1982 C1987 1.304 . S
C1982 O2020 1.435 . S
C1983 C1982 1.309 . S
C1983 C1984 1.476 . S
C1983 H2047 0.930 . S
C1984 C1983 1.476 . S
C1984 C1985 1.400 . S
C1984 C1988 1.567 . S
C1985 C1984 1.400 . S
C1985 C1986 1.373 . S
C1985 C2007 1.432 . S
C1986 C1985 1.373 . S
C1986 C1987 1.339 . S
C1986 C1989 1.530 . S
C1987 C1982 1.304 . S
C1987 C1986 1.339 . S
C1987 H2048 0.930 . S
C1988 C1984 1.567 . S
C1988 H2049 0.961 . S
C1988 H2050 0.960 . S
C1988 H2051 0.958 . S
C1989 C1986 1.530 . S
C1989 H2052 0.961 . S
C1989 H2053 0.960 . S
C1989 H2054 0.960 . S
C1990 C1991 1.530 . S
C1990 H2056 0.961 . S
C1990 H2057 0.961 . S
C1990 H2058 0.959 . S
C1991 C1990 1.530 . S
C1991 O2019 1.412 . S
C1991 H2055 0.980 . S
C1992 C1993 1.288 . S
C1992 C1997 1.377 . S
C1992 O2019 1.393 . S
C1993 C1992 1.288 . S
C1993 C1994 1.369 . S
C1993 H2059 0.932 . S
C1994 C1993 1.369 . S
C1994 C1995 1.398 . S
C1994 C1998 1.527 . S
C1995 C1994 1.398 . S
C1995 C1996 1.380 . S
C1995 C2009 1.497 . S
C1996 C1995 1.380 . S
C1996 C1997 1.383 . S
C1996 C1999 1.603 . S
C1997 C1992 1.377 . S
C1997 C1996 1.383 . S
C1997 H2060 0.929 . S
C1998 C1994 1.527 . S
C1998 H2061 0.961 . S
C1998 H2062 0.959 . S
C1998 H2063 0.959 . S
C1999 C1996 1.603 . S
C1999 H2064 0.960 . S
C1999 H2065 0.962 . S
C1999 H2066 0.961 . S
C2000 C1967 1.587 . S
C2000 C2001 1.360 . S
C2000 C2013 1.412 . S
C2001 C2000 1.360 . S
C2001 C2002 1.365 . S
C2001 H2067 0.929 . S
C2002 C1977 1.553 . S
C2002 C2001 1.365 . S
C2002 C2003 1.404 . S
C2003 C2002 1.404 . S
C2003 C2004 1.395 . S
C2003 C2014 1.451 . S
C2004 C2003 1.395 . S
C2004 C2005 1.322 . S
C2004 H2068 0.930 . S
C2005 C2004 1.322 . S
C2005 C2006 1.459 . S
C2005 H2069 0.929 . S
C2006 C2005 1.459 . S
C2006 C2007 1.445 . S
C2006 C2015 1.395 . S
C2007 C1985 1.432 . S
C2007 C2006 1.445 . S
C2007 C2008 1.370 . S
C2008 C2007 1.370 . S
C2008 C2009 1.438 . S
C2008 H2070 0.930 . S
C2009 C1995 1.497 . S
C2009 C2008 1.438 . S
C2009 C2010 1.360 . S
C2010 C2009 1.360 . S
C2010 C2011 1.401 . S
C2010 C2015 1.446 . S
C2011 C2010 1.401 . S
C2011 C2012 1.347 . S
C2011 H2071 0.929 . S
C2012 C2011 1.347 . S
C2012 C2013 1.455 . S
C2012 H2072 0.930 . S
C2013 C2000 1.412 . S
C2013 C2012 1.455 . S
C2013 C2014 1.331 . S
C2014 C2003 1.451 . S
C2014 C2013 1.331 . S
C2014 C2015 1.497 . S
C2015 C2006 1.395 . S
C2015 C2010 1.446 . S
C2015 C2014 1.497 . S
C2016 C2017 1.582 . S
C2016 H2073 0.962 . S
C2016 H2074 0.959 . S
C2016 H2075 0.958 . S
C2017 C2016 1.582 . S
C2017 O2020 1.458 . S
C2017 H2046 0.980 . S
O2018 C1963 1.426 . S
O2018 C1964 1.334 . S
O2019 C1991 1.412 . S
O2019 C1992 1.393 . S
O2020 C1982 1.435 . S
O2020 C2017 1.458 . S
O2021 C1973 1.468 . S
O2021 C1974 1.408 . S
H2022 C1963 0.980 . S
H2023 C1962 0.959 . S
H2024 C1962 0.959 . S
H2025 C1962 0.960 . S
H2026 C1965 0.929 . S
H2027 C1969 0.929 . S
H2028 C1970 0.959 . S
H2029 C1970 0.961 . S
H2030 C1970 0.961 . S
H2031 C1971 0.960 . S
H2032 C1971 0.960 . S
H2033 C1971 0.961 . S
H2034 C1973 0.980 . S
H2035 C1972 0.961 . S
H2036 C1972 0.960 . S
H2037 C1972 0.959 . S
H2038 C1975 0.930 . S
H2039 C1979 0.931 . S
H2040 C1980 0.959 . S
H2041 C1980 0.961 . S
H2042 C1980 0.959 . S
H2043 C1981 0.960 . S
H2044 C1981 0.960 . S
H2045 C1981 0.960 . S
H2046 C2017 0.980 . S
H2047 C1983 0.930 . S
H2048 C1987 0.930 . S
H2049 C1988 0.961 . S
H2050 C1988 0.960 . S
H2051 C1988 0.958 . S
H2052 C1989 0.961 . S
H2053 C1989 0.960 . S
H2054 C1989 0.960 . S
H2055 C1991 0.980 . S
H2056 C1990 0.961 . S
H2057 C1990 0.961 . S
H2058 C1990 0.959 . S
H2059 C1993 0.932 . S
H2060 C1997 0.929 . S
H2061 C1998 0.961 . S
H2062 C1998 0.959 . S
H2063 C1998 0.959 . S
H2064 C1999 0.960 . S
H2065 C1999 0.962 . S
H2066 C1999 0.961 . S
H2067 C2001 0.929 . S
H2068 C2004 0.930 . S
H2069 C2005 0.929 . S
H2070 C2008 0.930 . S
H2071 C2011 0.929 . S
H2072 C2012 0.930 . S
H2073 C2016 0.962 . S
H2074 C2016 0.959 . S
H2075 C2016 0.958 . S
C2076 C2077 1.560 . S
C2076 H2137 0.959 . S
C2076 H2138 0.959 . S
C2076 H2139 0.960 . S
C2077 C2076 1.560 . S
C2077 O2132 1.426 . S
C2077 H2136 0.980 . S
C2078 C2079 1.407 . S
C2078 C2083 1.418 . S
C2078 O2132 1.334 . S
C2079 C2078 1.407 . S
C2079 C2080 1.360 . S
C2079 H2140 0.929 . S
C2080 C2079 1.360 . S
C2080 C2081 1.401 . S
C2080 C2084 1.527 . S
C2081 C2080 1.401 . S
C2081 C2082 1.405 . S
C2081 C2114 1.587 . S
C2082 C2081 1.405 . S
C2082 C2083 1.332 . S
C2082 C2085 1.496 . S
C2083 C2078 1.418 . S
C2083 C2082 1.332 . S
C2083 H2141 0.929 . S
C2084 C2080 1.527 . S
C2084 H2142 0.959 . S
C2084 H2143 0.961 . S
C2084 H2144 0.961 . S
C2085 C2082 1.496 . S
C2085 H2145 0.960 . S
C2085 H2146 0.960 . S
C2085 H2147 0.961 . S
C2086 C2087 1.517 . S
C2086 H2149 0.961 . S
C2086 H2150 0.960 . S
C2086 H2151 0.959 . S
C2087 C2086 1.517 . S
C2087 O2135 1.468 . S
C2087 H2148 0.980 . S
C2088 C2089 1.349 . S
C2088 C2093 1.367 . S
C2088 O2135 1.408 . S
C2089 C2088 1.349 . S
C2089 C2090 1.407 . S
C2089 H2152 0.930 . S
C2090 C2089 1.407 . S
C2090 C2091 1.449 . S
C2090 C2094 1.535 . S
C2091 C2090 1.449 . S
C2091 C2092 1.384 . S
C2091 C2116 1.553 . S
C2092 C2091 1.384 . S
C2092 C2093 1.364 . S
C2092 C2095 1.450 . S
C2093 C2088 1.367 . S
C2093 C2092 1.364 . S
C2093 H2153 0.931 . S
C2094 C2090 1.535 . S
C2094 H2154 0.959 . S
C2094 H2155 0.961 . S
C2094 H2156 0.959 . S
C2095 C2092 1.450 . S
C2095 H2157 0.960 . S
C2095 H2158 0.960 . S
C2095 H2159 0.960 . S
C2096 C2097 1.309 . S
C2096 C2101 1.304 . S
C2096 O2134 1.435 . S
C2097 C2096 1.309 . S
C2097 C2098 1.476 . S
C2097 H2161 0.930 . S
C2098 C2097 1.476 . S
C2098 C2099 1.400 . S
C2098 C2102 1.567 . S
C2099 C2098 1.400 . S
C2099 C2100 1.373 . S
C2099 C2121 1.432 . S
C2100 C2099 1.373 . S
C2100 C2101 1.339 . S
C2100 C2103 1.530 . S
C2101 C2096 1.304 . S
C2101 C2100 1.339 . S
C2101 H2162 0.930 . S
C2102 C2098 1.567 . S
C2102 H2163 0.961 . S
C2102 H2164 0.960 . S
C2102 H2165 0.958 . S
C2103 C2100 1.530 . S
C2103 H2166 0.961 . S
C2103 H2167 0.960 . S
C2103 H2168 0.960 . S
C2104 C2105 1.530 . S
C2104 H2170 0.961 . S
C2104 H2171 0.961 . S
C2104 H2172 0.959 . S
C2105 C2104 1.530 . S
C2105 O2133 1.412 . S
C2105 H2169 0.980 . S
C2106 C2107 1.288 . S
C2106 C2111 1.377 . S
C2106 O2133 1.393 . S
C2107 C2106 1.288 . S
C2107 C2108 1.369 . S
C2107 H2173 0.932 . S
C2108 C2107 1.369 . S
C2108 C2109 1.398 . S
C2108 C2112 1.527 . S
C2109 C2108 1.398 . S
C2109 C2110 1.380 . S
C2109 C2123 1.497 . S
C2110 C2109 1.380 . S
C2110 C2111 1.383 . S
C2110 C2113 1.603 . S
C2111 C2106 1.377 . S
C2111 C2110 1.383 . S
C2111 H2174 0.929 . S
C2112 C2108 1.527 . S
C2112 H2175 0.961 . S
C2112 H2176 0.959 . S
C2112 H2177 0.959 . S
C2113 C2110 1.603 . S
C2113 H2178 0.960 . S
C2113 H2179 0.962 . S
C2113 H2180 0.961 . S
C2114 C2081 1.587 . S
C2114 C2115 1.360 . S
C2114 C2127 1.412 . S
C2115 C2114 1.360 . S
C2115 C2116 1.365 . S
C2115 H2181 0.929 . S
C2116 C2091 1.553 . S
C2116 C2115 1.365 . S
C2116 C2117 1.404 . S
C2117 C2116 1.404 . S
C2117 C2118 1.395 . S
C2117 C2128 1.451 . S
C2118 C2117 1.395 . S
C2118 C2119 1.322 . S
C2118 H2182 0.930 . S
C2119 C2118 1.322 . S
C2119 C2120 1.459 . S
C2119 H2183 0.929 . S
C2120 C2119 1.459 . S
C2120 C2121 1.445 . S
C2120 C2129 1.395 . S
C2121 C2099 1.432 . S
C2121 C2120 1.445 . S
C2121 C2122 1.370 . S
C2122 C2121 1.370 . S
C2122 C2123 1.438 . S
C2122 H2184 0.930 . S
C2123 C2109 1.497 . S
C2123 C2122 1.438 . S
C2123 C2124 1.360 . S
C2124 C2123 1.360 . S
C2124 C2125 1.401 . S
C2124 C2129 1.446 . S
C2125 C2124 1.401 . S
C2125 C2126 1.347 . S
C2125 H2185 0.929 . S
C2126 C2125 1.347 . S
C2126 C2127 1.455 . S
C2126 H2186 0.930 . S
C2127 C2114 1.412 . S
C2127 C2126 1.455 . S
C2127 C2128 1.331 . S
C2128 C2117 1.451 . S
C2128 C2127 1.331 . S
C2128 C2129 1.497 . S
C2129 C2120 1.395 . S
C2129 C2124 1.446 . S
C2129 C2128 1.497 . S
C2130 C2131 1.582 . S
C2130 H2187 0.962 . S
C2130 H2188 0.959 . S
C2130 H2189 0.958 . S
C2131 C2130 1.582 . S
C2131 O2134 1.458 . S
C2131 H2160 0.980 . S
O2132 C2077 1.426 . S
O2132 C2078 1.334 . S
O2133 C2105 1.412 . S
O2133 C2106 1.393 . S
O2134 C2096 1.435 . S
O2134 C2131 1.458 . S
O2135 C2087 1.468 . S
O2135 C2088 1.408 . S
H2136 C2077 0.980 . S
H2137 C2076 0.959 . S
H2138 C2076 0.959 . S
H2139 C2076 0.960 . S
H2140 C2079 0.929 . S
H2141 C2083 0.929 . S
H2142 C2084 0.959 . S
H2143 C2084 0.961 . S
H2144 C2084 0.961 . S
H2145 C2085 0.960 . S
H2146 C2085 0.960 . S
H2147 C2085 0.961 . S
H2148 C2087 0.980 . S
H2149 C2086 0.961 . S
H2150 C2086 0.960 . S
H2151 C2086 0.959 . S
H2152 C2089 0.930 . S
H2153 C2093 0.931 . S
H2154 C2094 0.959 . S
H2155 C2094 0.961 . S
H2156 C2094 0.959 . S
H2157 C2095 0.960 . S
H2158 C2095 0.960 . S
H2159 C2095 0.960 . S
H2160 C2131 0.980 . S
H2161 C2097 0.930 . S
H2162 C2101 0.930 . S
H2163 C2102 0.961 . S
H2164 C2102 0.960 . S
H2165 C2102 0.958 . S
H2166 C2103 0.961 . S
H2167 C2103 0.960 . S
H2168 C2103 0.960 . S
H2169 C2105 0.980 . S
H2170 C2104 0.961 . S
H2171 C2104 0.961 . S
H2172 C2104 0.959 . S
H2173 C2107 0.932 . S
H2174 C2111 0.929 . S
H2175 C2112 0.961 . S
H2176 C2112 0.959 . S
H2177 C2112 0.959 . S
H2178 C2113 0.960 . S
H2179 C2113 0.962 . S
H2180 C2113 0.961 . S
H2181 C2115 0.929 . S
H2182 C2118 0.930 . S
H2183 C2119 0.929 . S
H2184 C2122 0.930 . S
H2185 C2125 0.929 . S
H2186 C2126 0.930 . S
H2187 C2130 0.962 . S
H2188 C2130 0.959 . S
H2189 C2130 0.958 . S
C2190 C2191 1.560 . S
C2190 H2251 0.959 . S
C2190 H2252 0.959 . S
C2190 H2253 0.960 . S
C2191 C2190 1.560 . S
C2191 O2246 1.426 . S
C2191 H2250 0.980 . S
C2192 C2193 1.407 . S
C2192 C2197 1.418 . S
C2192 O2246 1.334 . S
C2193 C2192 1.407 . S
C2193 C2194 1.360 . S
C2193 H2254 0.929 . S
C2194 C2193 1.360 . S
C2194 C2195 1.401 . S
C2194 C2198 1.527 . S
C2195 C2194 1.401 . S
C2195 C2196 1.405 . S
C2195 C2228 1.587 . S
C2196 C2195 1.405 . S
C2196 C2197 1.332 . S
C2196 C2199 1.496 . S
C2197 C2192 1.418 . S
C2197 C2196 1.332 . S
C2197 H2255 0.929 . S
C2198 C2194 1.527 . S
C2198 H2256 0.959 . S
C2198 H2257 0.961 . S
C2198 H2258 0.961 . S
C2199 C2196 1.496 . S
C2199 H2259 0.960 . S
C2199 H2260 0.960 . S
C2199 H2261 0.961 . S
C2200 C2201 1.517 . S
C2200 H2263 0.961 . S
C2200 H2264 0.960 . S
C2200 H2265 0.959 . S
C2201 C2200 1.517 . S
C2201 O2249 1.468 . S
C2201 H2262 0.980 . S
C2202 C2203 1.349 . S
C2202 C2207 1.367 . S
C2202 O2249 1.408 . S
C2203 C2202 1.349 . S
C2203 C2204 1.407 . S
C2203 H2266 0.930 . S
C2204 C2203 1.407 . S
C2204 C2205 1.449 . S
C2204 C2208 1.535 . S
C2205 C2204 1.449 . S
C2205 C2206 1.384 . S
C2205 C2230 1.553 . S
C2206 C2205 1.384 . S
C2206 C2207 1.364 . S
C2206 C2209 1.450 . S
C2207 C2202 1.367 . S
C2207 C2206 1.364 . S
C2207 H2267 0.931 . S
C2208 C2204 1.535 . S
C2208 H2268 0.959 . S
C2208 H2269 0.961 . S
C2208 H2270 0.959 . S
C2209 C2206 1.450 . S
C2209 H2271 0.960 . S
C2209 H2272 0.960 . S
C2209 H2273 0.960 . S
C2210 C2211 1.309 . S
C2210 C2215 1.304 . S
C2210 O2248 1.435 . S
C2211 C2210 1.309 . S
C2211 C2212 1.476 . S
C2211 H2275 0.930 . S
C2212 C2211 1.476 . S
C2212 C2213 1.400 . S
C2212 C2216 1.567 . S
C2213 C2212 1.400 . S
C2213 C2214 1.373 . S
C2213 C2235 1.432 . S
C2214 C2213 1.373 . S
C2214 C2215 1.339 . S
C2214 C2217 1.530 . S
C2215 C2210 1.304 . S
C2215 C2214 1.339 . S
C2215 H2276 0.930 . S
C2216 C2212 1.567 . S
C2216 H2277 0.961 . S
C2216 H2278 0.960 . S
C2216 H2279 0.958 . S
C2217 C2214 1.530 . S
C2217 H2280 0.961 . S
C2217 H2281 0.960 . S
C2217 H2282 0.960 . S
C2218 C2219 1.530 . S
C2218 H2284 0.961 . S
C2218 H2285 0.961 . S
C2218 H2286 0.959 . S
C2219 C2218 1.530 . S
C2219 O2247 1.412 . S
C2219 H2283 0.980 . S
C2220 C2221 1.288 . S
C2220 C2225 1.377 . S
C2220 O2247 1.393 . S
C2221 C2220 1.288 . S
C2221 C2222 1.369 . S
C2221 H2287 0.932 . S
C2222 C2221 1.369 . S
C2222 C2223 1.398 . S
C2222 C2226 1.527 . S
C2223 C2222 1.398 . S
C2223 C2224 1.380 . S
C2223 C2237 1.497 . S
C2224 C2223 1.380 . S
C2224 C2225 1.383 . S
C2224 C2227 1.603 . S
C2225 C2220 1.377 . S
C2225 C2224 1.383 . S
C2225 H2288 0.929 . S
C2226 C2222 1.527 . S
C2226 H2289 0.961 . S
C2226 H2290 0.959 . S
C2226 H2291 0.959 . S
C2227 C2224 1.603 . S
C2227 H2292 0.960 . S
C2227 H2293 0.962 . S
C2227 H2294 0.961 . S
C2228 C2195 1.587 . S
C2228 C2229 1.360 . S
C2228 C2241 1.412 . S
C2229 C2228 1.360 . S
C2229 C2230 1.365 . S
C2229 H2295 0.929 . S
C2230 C2205 1.553 . S
C2230 C2229 1.365 . S
C2230 C2231 1.404 . S
C2231 C2230 1.404 . S
C2231 C2232 1.395 . S
C2231 C2242 1.451 . S
C2232 C2231 1.395 . S
C2232 C2233 1.322 . S
C2232 H2296 0.930 . S
C2233 C2232 1.322 . S
C2233 C2234 1.459 . S
C2233 H2297 0.929 . S
C2234 C2233 1.459 . S
C2234 C2235 1.445 . S
C2234 C2243 1.395 . S
C2235 C2213 1.432 . S
C2235 C2234 1.445 . S
C2235 C2236 1.370 . S
C2236 C2235 1.370 . S
C2236 C2237 1.438 . S
C2236 H2298 0.930 . S
C2237 C2223 1.497 . S
C2237 C2236 1.438 . S
C2237 C2238 1.360 . S
C2238 C2237 1.360 . S
C2238 C2239 1.401 . S
C2238 C2243 1.446 . S
C2239 C2238 1.401 . S
C2239 C2240 1.347 . S
C2239 H2299 0.929 . S
C2240 C2239 1.347 . S
C2240 C2241 1.455 . S
C2240 H2300 0.930 . S
C2241 C2228 1.412 . S
C2241 C2240 1.455 . S
C2241 C2242 1.331 . S
C2242 C2231 1.451 . S
C2242 C2241 1.331 . S
C2242 C2243 1.497 . S
C2243 C2234 1.395 . S
C2243 C2238 1.446 . S
C2243 C2242 1.497 . S
C2244 C2245 1.582 . S
C2244 H2301 0.962 . S
C2244 H2302 0.959 . S
C2244 H2303 0.958 . S
C2245 C2244 1.582 . S
C2245 O2248 1.458 . S
C2245 H2274 0.980 . S
O2246 C2191 1.426 . S
O2246 C2192 1.334 . S
O2247 C2219 1.412 . S
O2247 C2220 1.393 . S
O2248 C2210 1.435 . S
O2248 C2245 1.458 . S
O2249 C2201 1.468 . S
O2249 C2202 1.408 . S
H2250 C2191 0.980 . S
H2251 C2190 0.959 . S
H2252 C2190 0.959 . S
H2253 C2190 0.960 . S
H2254 C2193 0.929 . S
H2255 C2197 0.929 . S
H2256 C2198 0.959 . S
H2257 C2198 0.961 . S
H2258 C2198 0.961 . S
H2259 C2199 0.960 . S
H2260 C2199 0.960 . S
H2261 C2199 0.961 . S
H2262 C2201 0.980 . S
H2263 C2200 0.961 . S
H2264 C2200 0.960 . S
H2265 C2200 0.959 . S
H2266 C2203 0.930 . S
H2267 C2207 0.931 . S
H2268 C2208 0.959 . S
H2269 C2208 0.961 . S
H2270 C2208 0.959 . S
H2271 C2209 0.960 . S
H2272 C2209 0.960 . S
H2273 C2209 0.960 . S
H2274 C2245 0.980 . S
H2275 C2211 0.930 . S
H2276 C2215 0.930 . S
H2277 C2216 0.961 . S
H2278 C2216 0.960 . S
H2279 C2216 0.958 . S
H2280 C2217 0.961 . S
H2281 C2217 0.960 . S
H2282 C2217 0.960 . S
H2283 C2219 0.980 . S
H2284 C2218 0.961 . S
H2285 C2218 0.961 . S
H2286 C2218 0.959 . S
H2287 C2221 0.932 . S
H2288 C2225 0.929 . S
H2289 C2226 0.961 . S
H2290 C2226 0.959 . S
H2291 C2226 0.959 . S
H2292 C2227 0.960 . S
H2293 C2227 0.962 . S
H2294 C2227 0.961 . S
H2295 C2229 0.929 . S
H2296 C2232 0.930 . S
H2297 C2233 0.929 . S
H2298 C2236 0.930 . S
H2299 C2239 0.929 . S
H2300 C2240 0.930 . S
H2301 C2244 0.962 . S
H2302 C2244 0.959 . S
H2303 C2244 0.958 . S
H2304 C2312 0.929 . S
H2305 C2314 0.930 . S
H2306 C2316 0.930 . S
H2307 C2319 0.929 . S
H2308 C2322 0.930 . S
H2309 C2324 0.960 . S
H2310 C2324 0.960 . S
H2311 C2324 0.960 . S
C2312 H2304 0.929 . S
C2312 C2313 1.432 . S
C2312 C2314 1.384 . S
C2313 C2312 1.432 . S
C2313 C2319 1.360 1_655 S
C2314 H2305 0.930 . S
C2314 C2312 1.384 . S
C2314 C2315 1.372 . S
C2315 C2314 1.372 . S
C2315 C2316 1.400 1_655 S
C2315 C2320 1.490 . S
C2316 H2306 0.930 . S
C2316 C2315 1.400 1_455 S
C2316 C2319 1.386 . S
H2317 C2333 0.930 . S
H2318 C2334 0.931 . S
C2319 H2307 0.929 . S
C2319 C2313 1.360 1_455 S
C2319 C2316 1.386 . S
C2320 C2315 1.490 . S
C2320 C2322 1.395 . S
C2320 C2323 1.403 1_655 S
H2321 C2327 0.930 . S
C2322 H2308 0.930 . S
C2322 C2320 1.395 . S
C2322 C2325 1.403 . S
C2323 C2320 1.403 1_455 S
C2323 C2324 1.524 . S
C2323 C2327 1.400 . S
C2324 H2309 0.960 . S
C2324 H2310 0.960 . S
C2324 H2311 0.960 . S
C2324 C2323 1.524 . S
C2325 C2322 1.403 . S
C2325 C2326 1.392 . S
C2325 C2329 1.495 . S
C2326 C2325 1.392 . S
C2326 C2327 1.385 1_655 S
C2326 C2328 1.478 . S
C2327 H2321 0.930 . S
C2327 C2323 1.400 . S
C2327 C2326 1.385 1_455 S
C2328 C2326 1.478 . S
C2328 C2330 1.381 . S
C2328 C2334 1.383 1_655 S
C2329 C2325 1.495 . S
C2329 H2335 0.959 . S
C2329 H2336 0.961 . S
C2329 H2337 0.960 . S
C2330 C2328 1.381 . S
C2330 C2331 1.394 . S
C2330 H2338 0.930 . S
C2331 C2330 1.394 . S
C2331 C2332 1.383 . S
C2331 H2339 0.929 . S
C2332 C2331 1.383 . S
C2332 C2333 1.377 1_655 S
C2333 H2317 0.930 . S
C2333 C2332 1.377 1_455 S
C2333 C2334 1.379 . S
C2334 H2318 0.931 . S
C2334 C2328 1.383 1_455 S
C2334 C2333 1.379 . S
H2335 C2329 0.959 . S
H2336 C2329 0.961 . S
H2337 C2329 0.960 . S
H2338 C2330 0.930 . S
H2339 C2331 0.929 . S
H2340 C2348 0.929 . S
H2341 C2350 0.930 . S
H2342 C2352 0.930 . S
H2343 C2355 0.929 . S
H2344 C2358 0.930 . S
H2345 C2360 0.960 . S
H2346 C2360 0.960 . S
H2347 C2360 0.960 . S
C2348 H2340 0.929 . S
C2348 C2349 1.377 . S
C2348 C2350 1.384 . S
C2349 C2348 1.377 . S
C2349 C2355 1.390 . S
C2350 H2341 0.930 . S
C2350 C2348 1.384 . S
C2350 C2351 1.372 . S
C2351 C2350 1.372 . S
C2351 C2352 1.400 . S
C2351 C2356 1.490 . S
C2352 H2342 0.930 . S
C2352 C2351 1.400 . S
C2352 C2355 1.386 . S
H2353 C2369 0.930 . S
H2354 C2370 0.931 . S
C2355 H2343 0.929 . S
C2355 C2349 1.390 . S
C2355 C2352 1.386 . S
C2356 C2351 1.490 . S
C2356 C2358 1.395 . S
C2356 C2359 1.403 . S
H2357 C2363 0.930 . S
C2358 H2344 0.930 . S
C2358 C2356 1.395 . S
C2358 C2361 1.403 . S
C2359 C2356 1.403 . S
C2359 C2360 1.524 . S
C2359 C2363 1.400 . S
C2360 H2345 0.960 . S
C2360 H2346 0.960 . S
C2360 H2347 0.960 . S
C2360 C2359 1.524 . S
C2361 C2358 1.403 . S
C2361 C2362 1.392 . S
C2361 C2365 1.495 . S
C2362 C2361 1.392 . S
C2362 C2363 1.385 . S
C2362 C2364 1.478 . S
C2363 H2357 0.930 . S
C2363 C2359 1.400 . S
C2363 C2362 1.385 . S
C2364 C2362 1.478 . S
C2364 C2366 1.381 . S
C2364 C2370 1.383 . S
C2365 C2361 1.495 . S
C2365 H2371 0.959 . S
C2365 H2372 0.961 . S
C2365 H2373 0.960 . S
C2366 C2364 1.381 . S
C2366 C2367 1.394 . S
C2366 H2374 0.930 . S
C2367 C2366 1.394 . S
C2367 C2368 1.383 . S
C2367 H2375 0.929 . S
C2368 C2367 1.383 . S
C2368 C2369 1.377 . S
C2369 H2353 0.930 . S
C2369 C2368 1.377 . S
C2369 C2370 1.379 . S
C2370 H2354 0.931 . S
C2370 C2364 1.383 . S
C2370 C2369 1.379 . S
H2371 C2365 0.959 . S
H2372 C2365 0.961 . S
H2373 C2365 0.960 . S
H2374 C2366 0.930 . S
H2375 C2367 0.929 . S
H2376 C2384 0.961 . S
H2377 C2386 0.925 1_565 S
H2378 C2388 0.930 . S
H2379 C2391 0.929 . S
H2380 C2394 0.930 . S
H2381 C2396 0.960 . S
H2382 C2396 0.960 . S
H2383 C2396 0.960 1_545 S
C2384 H2376 0.961 . S
C2384 C2385 1.377 . S
C2384 C2386 1.384 . S
C2385 C2384 1.377 . S
C2385 C2391 1.390 . S
C2386 H2377 0.925 1_545 S
C2386 C2384 1.384 . S
C2386 C2387 1.372 . S
C2387 C2386 1.372 . S
C2387 C2388 1.400 . S
C2387 C2392 1.490 . S
C2388 H2378 0.930 . S
C2388 C2387 1.400 . S
C2388 C2391 1.386 . S
H2389 C2405 0.930 . S
H2390 C2406 0.931 . S
C2391 H2379 0.929 . S
C2391 C2385 1.390 . S
C2391 C2388 1.386 . S
C2392 C2387 1.490 . S
C2392 C2394 1.395 . S
C2392 C2395 1.403 . S
H2393 C2399 0.944 . S
C2394 H2380 0.930 . S
C2394 C2392 1.395 . S
C2394 C2397 1.403 . S
C2395 C2392 1.403 . S
C2395 C2396 1.524 1_545 S
C2395 C2399 1.400 . S
C2396 H2381 0.960 . S
C2396 H2382 0.960 . S
C2396 H2383 0.960 1_565 S
C2396 C2395 1.524 1_565 S
C2397 C2394 1.403 . S
C2397 C2398 1.392 . S
C2397 C2401 1.495 . S
C2398 C2397 1.392 . S
C2398 C2399 1.385 . S
C2398 C2400 1.478 . S
C2399 H2393 0.944 . S
C2399 C2395 1.400 . S
C2399 C2398 1.385 . S
C2400 C2398 1.478 . S
C2400 C2402 1.381 . S
C2400 C2406 1.383 . S
C2401 C2397 1.495 . S
C2401 H2407 0.959 . S
C2401 H2408 0.961 . S
C2401 H2409 0.960 . S
C2402 C2400 1.381 . S
C2402 C2403 1.438 . S
C2402 H2410 0.930 1_545 S
C2403 C2402 1.438 . S
C2403 C2404 1.430 . S
C2403 H2411 0.844 1_545 S
C2404 C2403 1.430 . S
C2404 C2405 1.377 . S
C2405 H2389 0.930 . S
C2405 C2404 1.377 . S
C2405 C2406 1.379 . S
C2406 H2390 0.931 . S
C2406 C2400 1.383 . S
C2406 C2405 1.379 . S
H2407 C2401 0.959 . S
H2408 C2401 0.961 . S
H2409 C2401 0.960 . S
H2410 C2402 0.930 1_565 S
H2411 C2403 0.844 1_565 S
H2412 C2420 0.929 . S
H2413 C2422 0.930 . S
H2414 C2424 0.930 . S
H2415 C2427 0.929 . S
H2416 C2430 0.930 . S
H2417 C2432 0.960 . S
H2418 C2432 0.960 . S
H2419 C2432 0.960 . S
C2420 H2412 0.929 . S
C2420 C2421 1.362 1_565 S
C2420 C2422 1.384 . S
C2421 C2420 1.362 1_545 S
C2421 C2427 1.385 . S
C2422 H2413 0.930 . S
C2422 C2420 1.384 . S
C2422 C2423 1.372 . S
C2423 C2422 1.372 . S
C2423 C2424 1.400 1_565 S
C2423 C2428 1.490 . S
C2424 H2414 0.930 . S
C2424 C2423 1.400 1_545 S
C2424 C2427 1.386 . S
H2425 C2441 0.930 . S
H2426 C2442 0.931 . S
C2427 H2415 0.929 . S
C2427 C2421 1.385 . S
C2427 C2424 1.386 . S
C2428 C2423 1.490 . S
C2428 C2430 1.395 1_565 S
C2428 C2431 1.403 . S
H2429 C2435 0.930 . S
C2430 H2416 0.930 . S
C2430 C2428 1.395 1_545 S
C2430 C2433 1.403 . S
C2431 C2428 1.403 . S
C2431 C2432 1.524 . S
C2431 C2435 1.400 . S
C2432 H2417 0.960 . S
C2432 H2418 0.960 . S
C2432 H2419 0.960 . S
C2432 C2431 1.524 . S
C2433 C2430 1.403 . S
C2433 C2434 1.392 1_545 S
C2433 C2437 1.495 . S
C2434 C2433 1.392 1_565 S
C2434 C2435 1.385 . S
C2434 C2436 1.478 . S
C2435 H2429 0.930 . S
C2435 C2431 1.400 . S
C2435 C2434 1.385 . S
C2436 C2434 1.478 . S
C2436 C2438 1.381 . S
C2436 C2442 1.383 1_565 S
C2437 C2433 1.495 . S
C2437 H2443 0.959 . S
C2437 H2444 0.961 . S
C2437 H2445 0.960 . S
C2438 C2436 1.381 . S
C2438 C2439 1.394 . S
C2438 H2446 0.930 . S
C2439 C2438 1.394 . S
C2439 C2440 1.383 . S
C2439 H2447 0.929 . S
C2440 C2439 1.383 . S
C2440 C2441 1.377 1_565 S
C2441 H2425 0.930 . S
C2441 C2440 1.377 1_545 S
C2441 C2442 1.379 . S
C2442 H2426 0.931 . S
C2442 C2436 1.383 1_545 S
C2442 C2441 1.379 . S
H2443 C2437 0.959 . S
H2444 C2437 0.961 . S
H2445 C2437 0.960 . S
H2446 C2438 0.930 . S
H2447 C2439 0.929 . S
H2448 C2456 0.929 . S
H2449 C2458 0.930 . S
H2450 C2460 0.930 . S
H2451 C2463 0.929 . S
H2452 C2466 0.930 1_655 S
H2453 C2468 0.960 . S
H2454 C2468 0.960 . S
H2455 C2468 0.960 . S
C2456 H2448 0.929 . S
C2456 C2457 1.377 . S
C2456 C2458 1.384 . S
C2457 C2456 1.377 . S
C2457 C2463 1.390 . S
C2458 H2449 0.930 . S
C2458 C2456 1.384 . S
C2458 C2459 1.372 . S
C2459 C2458 1.372 . S
C2459 C2460 1.400 . S
C2459 C2464 1.490 . S
C2460 H2450 0.930 . S
C2460 C2459 1.400 . S
C2460 C2463 1.386 . S
H2461 C2477 0.868 1_655 S
H2462 C2478 0.912 1_655 S
C2463 H2451 0.929 . S
C2463 C2457 1.390 . S
C2463 C2460 1.386 . S
C2464 C2459 1.490 . S
C2464 C2466 1.395 . S
C2464 C2467 1.403 . S
H2465 C2471 0.930 . S
C2466 H2452 0.930 1_455 S
C2466 C2464 1.395 . S
C2466 C2469 1.403 . S
C2467 C2464 1.403 . S
C2467 C2468 1.524 . S
C2467 C2471 1.400 . S
C2468 H2453 0.960 . S
C2468 H2454 0.960 . S
C2468 H2455 0.960 . S
C2468 C2467 1.524 . S
C2469 C2466 1.403 . S
C2469 C2470 1.392 . S
C2469 C2473 1.495 1_455 S
C2470 C2469 1.392 . S
C2470 C2471 1.385 . S
C2470 C2472 1.478 . S
C2471 H2465 0.930 . S
C2471 C2467 1.400 . S
C2471 C2470 1.385 . S
C2472 C2470 1.478 . S
C2472 C2474 1.381 . S
C2472 C2478 1.419 . S
C2473 C2469 1.495 1_655 S
C2473 H2479 0.959 . S
C2473 H2480 0.961 . S
C2473 H2481 0.960 . S
C2474 C2472 1.381 . S
C2474 C2475 1.394 . S
C2474 H2482 0.930 . S
C2475 C2474 1.394 . S
C2475 C2476 1.383 . S
C2475 H2483 0.929 . S
C2476 C2475 1.383 . S
C2476 C2477 1.412 . S
C2477 H2461 0.868 1_455 S
C2477 C2476 1.412 . S
C2477 C2478 1.392 . S
C2478 H2462 0.912 1_455 S
C2478 C2472 1.419 . S
C2478 C2477 1.392 . S
H2479 C2473 0.959 . S
H2480 C2473 0.961 . S
H2481 C2473 0.960 . S
H2482 C2474 0.930 . S
H2483 C2475 0.929 . S
H2484 C2492 0.929 . S
H2485 C2494 0.930 . S
H2486 C2496 0.930 . S
H2487 C2499 0.929 . S
H2488 C2502 0.930 . S
H2489 C2504 0.960 . S
H2490 C2504 0.960 . S
H2491 C2504 0.960 . S
C2492 H2484 0.929 . S
C2492 C2493 1.377 . S
C2492 C2494 1.384 . S
C2493 C2492 1.377 . S
C2493 C2499 1.390 . S
C2494 H2485 0.930 . S
C2494 C2492 1.384 . S
C2494 C2495 1.372 . S
C2495 C2494 1.372 . S
C2495 C2496 1.400 . S
C2495 C2500 1.490 . S
C2496 H2486 0.930 . S
C2496 C2495 1.400 . S
C2496 C2499 1.386 . S
H2497 C2513 0.930 . S
H2498 C2514 0.931 . S
C2499 H2487 0.929 . S
C2499 C2493 1.390 . S
C2499 C2496 1.386 . S
C2500 C2495 1.490 . S
C2500 C2502 1.395 . S
C2500 C2503 1.403 . S
H2501 C2507 0.930 . S
C2502 H2488 0.930 . S
C2502 C2500 1.395 . S
C2502 C2505 1.403 . S
C2503 C2500 1.403 . S
C2503 C2504 1.524 . S
C2503 C2507 1.400 . S
C2504 H2489 0.960 . S
C2504 H2490 0.960 . S
C2504 H2491 0.960 . S
C2504 C2503 1.524 . S
C2505 C2502 1.403 . S
C2505 C2506 1.392 . S
C2505 C2509 1.495 . S
C2506 C2505 1.392 . S
C2506 C2507 1.385 . S
C2506 C2508 1.478 . S
C2507 H2501 0.930 . S
C2507 C2503 1.400 . S
C2507 C2506 1.385 . S
C2508 C2506 1.478 . S
C2508 C2510 1.381 . S
C2508 C2514 1.383 . S
C2509 C2505 1.495 . S
C2509 H2515 0.959 . S
C2509 H2516 0.961 . S
C2509 H2517 0.960 . S
C2510 C2508 1.381 . S
C2510 C2511 1.394 . S
C2510 H2518 0.930 . S
C2511 C2510 1.394 . S
C2511 C2512 1.383 . S
C2511 H2519 0.929 . S
C2512 C2511 1.383 . S
C2512 C2513 1.377 . S
C2513 H2497 0.930 . S
C2513 C2512 1.377 . S
C2513 C2514 1.379 . S
C2514 H2498 0.931 . S
C2514 C2508 1.383 . S
C2514 C2513 1.379 . S
H2515 C2509 0.959 . S
H2516 C2509 0.961 . S
H2517 C2509 0.960 . S
H2518 C2510 0.930 . S
H2519 C2511 0.929 . S
H2520 C2528 0.929 . S
H2521 C2530 0.930 . S
H2522 C2532 0.930 . S
H2523 C2535 0.929 . S
H2524 C2538 0.930 . S
H2525 C2540 0.960 . S
H2526 C2540 0.960 . S
H2527 C2540 0.960 . S
C2528 H2520 0.929 . S
C2528 C2529 1.377 . S
C2528 C2530 1.384 . S
C2529 C2528 1.377 . S
C2529 C2535 1.390 . S
C2530 H2521 0.930 . S
C2530 C2528 1.384 . S
C2530 C2531 1.372 . S
C2531 C2530 1.372 . S
C2531 C2532 1.400 . S
C2531 C2536 1.490 . S
C2532 H2522 0.930 . S
C2532 C2531 1.400 . S
C2532 C2535 1.386 . S
H2533 C2549 0.930 . S
H2534 C2550 0.931 . S
C2535 H2523 0.929 . S
C2535 C2529 1.390 . S
C2535 C2532 1.386 . S
C2536 C2531 1.490 . S
C2536 C2538 1.395 . S
C2536 C2539 1.403 1_455 S
H2537 C2543 0.930 . S
C2538 H2524 0.930 . S
C2538 C2536 1.395 . S
C2538 C2541 1.403 . S
C2539 C2536 1.403 1_655 S
C2539 C2540 1.524 . S
C2539 C2543 1.400 . S
C2540 H2525 0.960 . S
C2540 H2526 0.960 . S
C2540 H2527 0.960 . S
C2540 C2539 1.524 . S
C2541 C2538 1.403 . S
C2541 C2542 1.392 . S
C2541 C2545 1.495 . S
C2542 C2541 1.392 . S
C2542 C2543 1.385 1_455 S
C2542 C2544 1.478 . S
C2543 H2537 0.930 . S
C2543 C2539 1.400 . S
C2543 C2542 1.385 1_655 S
C2544 C2542 1.478 . S
C2544 C2546 1.381 . S
C2544 C2550 1.383 . S
C2545 C2541 1.495 . S
C2545 H2551 0.959 . S
C2545 H2552 0.961 . S
C2545 H2553 0.960 . S
C2546 C2544 1.381 . S
C2546 C2547 1.403 1_455 S
C2546 H2554 0.926 1_455 S
C2547 C2546 1.403 1_655 S
C2547 C2548 1.368 1_655 S
C2547 H2555 0.937 . S
C2548 C2547 1.368 1_455 S
C2548 C2549 1.377 . S
C2549 H2533 0.930 . S
C2549 C2548 1.377 . S
C2549 C2550 1.379 . S
C2550 H2534 0.931 . S
C2550 C2544 1.383 . S
C2550 C2549 1.379 . S
H2551 C2545 0.959 . S
H2552 C2545 0.961 . S
H2553 C2545 0.960 . S
H2554 C2546 0.926 1_655 S
H2555 C2547 0.937 . S
H2556 C2564 0.929 . S
H2557 C2566 0.930 . S
H2558 C2568 0.930 . S
H2559 C2571 0.929 . S
H2560 C2574 0.930 . S
H2561 C2576 0.960 . S
H2562 C2576 0.960 . S
H2563 C2576 0.960 . S
C2564 H2556 0.929 . S
C2564 C2565 1.377 . S
C2564 C2566 1.384 . S
C2565 C2564 1.377 . S
C2565 C2571 1.390 . S
C2566 H2557 0.930 . S
C2566 C2564 1.384 . S
C2566 C2567 1.372 . S
C2567 C2566 1.372 . S
C2567 C2568 1.400 . S
C2567 C2572 1.490 . S
C2568 H2558 0.930 . S
C2568 C2567 1.400 . S
C2568 C2571 1.386 . S
H2569 C2585 0.930 . S
H2570 C2586 0.931 . S
C2571 H2559 0.929 . S
C2571 C2565 1.390 . S
C2571 C2568 1.386 . S
C2572 C2567 1.490 . S
C2572 C2574 1.395 . S
C2572 C2575 1.403 . S
H2573 C2579 0.930 . S
C2574 H2560 0.930 . S
C2574 C2572 1.395 . S
C2574 C2577 1.403 . S
C2575 C2572 1.403 . S
C2575 C2576 1.524 . S
C2575 C2579 1.400 . S
C2576 H2561 0.960 . S
C2576 H2562 0.960 . S
C2576 H2563 0.960 . S
C2576 C2575 1.524 . S
C2577 C2574 1.403 . S
C2577 C2578 1.392 . S
C2577 C2581 1.495 . S
C2578 C2577 1.392 . S
C2578 C2579 1.385 . S
C2578 C2580 1.478 . S
C2579 H2573 0.930 . S
C2579 C2575 1.400 . S
C2579 C2578 1.385 . S
C2580 C2578 1.478 . S
C2580 C2582 1.381 . S
C2580 C2586 1.383 . S
C2581 C2577 1.495 . S
C2581 H2587 0.959 . S
C2581 H2588 0.961 . S
C2581 H2589 0.960 . S
C2582 C2580 1.381 . S
C2582 C2583 1.394 . S
C2582 H2590 0.930 . S
C2583 C2582 1.394 . S
C2583 C2584 1.383 . S
C2583 H2591 0.929 . S
C2584 C2583 1.383 . S
C2584 C2585 1.377 . S
C2585 H2569 0.930 . S
C2585 C2584 1.377 . S
C2585 C2586 1.379 . S
C2586 H2570 0.931 . S
C2586 C2580 1.383 . S
C2586 C2585 1.379 . S
H2587 C2581 0.959 . S
H2588 C2581 0.961 . S
H2589 C2581 0.960 . S
H2590 C2582 0.930 . S
H2591 C2583 0.929 . S
H2592 C2600 0.929 . S
H2593 C2602 0.930 . S
H2594 C2604 0.930 . S
H2595 C2607 0.929 . S
H2596 C2610 0.926 1_545 S
H2597 C2612 0.960 . S
H2598 C2612 0.960 . S
H2599 C2612 0.960 . S
C2600 H2592 0.929 . S
C2600 C2601 1.377 . S
C2600 C2602 1.384 . S
C2601 C2600 1.377 . S
C2601 C2607 1.390 1_565 S
C2602 H2593 0.930 . S
C2602 C2600 1.384 . S
C2602 C2603 1.372 . S
C2603 C2602 1.372 . S
C2603 C2604 1.400 1_565 S
C2603 C2608 1.490 . S
C2604 H2594 0.930 . S
C2604 C2603 1.400 1_545 S
C2604 C2607 1.386 . S
H2605 C2621 0.930 . S
H2606 C2622 0.931 . S
C2607 H2595 0.929 . S
C2607 C2601 1.390 1_545 S
C2607 C2604 1.386 . S
C2608 C2603 1.490 . S
C2608 C2610 1.406 . S
C2608 C2611 1.403 . S
H2609 C2615 0.930 . S
C2610 H2596 0.926 1_565 S
C2610 C2608 1.406 . S
C2610 C2613 1.365 1_565 S
C2611 C2608 1.403 . S
C2611 C2612 1.524 . S
C2611 C2615 1.400 . S
C2612 H2597 0.960 . S
C2612 H2598 0.960 . S
C2612 H2599 0.960 . S
C2612 C2611 1.524 . S
C2613 C2610 1.365 1_545 S
C2613 C2614 1.378 1_545 S
C2613 C2617 1.544 . S
C2614 C2613 1.378 1_565 S
C2614 C2615 1.385 . S
C2614 C2616 1.478 . S
C2615 H2609 0.930 . S
C2615 C2611 1.400 . S
C2615 C2614 1.385 . S
C2616 C2614 1.478 . S
C2616 C2618 1.381 . S
C2616 C2622 1.383 1_565 S
C2617 C2613 1.544 . S
C2617 H2623 0.959 . S
C2617 H2624 0.961 . S
C2617 H2625 0.960 1_545 S
C2618 C2616 1.381 . S
C2618 C2619 1.394 . S
C2618 H2626 0.930 . S
C2619 C2618 1.394 . S
C2619 C2620 1.383 . S
C2619 H2627 0.929 . S
C2620 C2619 1.383 . S
C2620 C2621 1.377 1_565 S
C2621 H2605 0.930 . S
C2621 C2620 1.377 1_545 S
C2621 C2622 1.379 . S
C2622 H2606 0.931 . S
C2622 C2616 1.383 1_545 S
C2622 C2621 1.379 . S
H2623 C2617 0.959 . S
H2624 C2617 0.961 . S
H2625 C2617 0.960 1_565 S
H2626 C2618 0.930 . S
H2627 C2619 0.929 . S
H2628 C2636 0.935 . S
H2629 C2638 0.947 1_565 S
H2630 C2640 0.930 . S
H2631 C2643 0.929 . S
H2632 C2646 0.930 . S
H2633 C2648 0.960 . S
H2634 C2648 0.960 . S
H2635 C2648 0.960 . S
C2636 H2628 0.935 . S
C2636 C2637 1.377 . S
C2636 C2638 1.384 . S
C2637 C2636 1.377 . S
C2637 C2643 1.390 . S
C2638 H2629 0.947 1_545 S
C2638 C2636 1.384 . S
C2638 C2639 1.372 . S
C2639 C2638 1.372 . S
C2639 C2640 1.400 . S
C2639 C2644 1.490 . S
C2640 H2630 0.930 . S
C2640 C2639 1.400 . S
C2640 C2643 1.386 . S
H2641 C2657 0.930 . S
H2642 C2658 0.931 . S
C2643 H2631 0.929 . S
C2643 C2637 1.390 . S
C2643 C2640 1.386 . S
C2644 C2639 1.490 . S
C2644 C2646 1.395 1_545 S
C2644 C2647 1.403 . S
H2645 C2651 0.930 . S
C2646 H2632 0.930 . S
C2646 C2644 1.395 1_565 S
C2646 C2649 1.403 . S
C2647 C2644 1.403 . S
C2647 C2648 1.524 . S
C2647 C2651 1.400 . S
C2648 H2633 0.960 . S
C2648 H2634 0.960 . S
C2648 H2635 0.960 . S
C2648 C2647 1.524 . S
C2649 C2646 1.403 . S
C2649 C2650 1.376 1_565 S
C2649 C2653 1.495 . S
C2650 C2649 1.376 1_545 S
C2650 C2651 1.396 . S
C2650 C2652 1.499 1_545 S
C2651 H2645 0.930 . S
C2651 C2647 1.400 . S
C2651 C2650 1.396 . S
C2652 C2650 1.499 1_565 S
C2652 C2654 1.363 . S
C2652 C2658 1.385 1_565 S
C2653 C2649 1.495 . S
C2653 H2659 0.959 . S
C2653 H2660 0.961 . S
C2653 H2661 0.960 . S
C2654 C2652 1.363 . S
C2654 C2655 1.394 . S
C2654 H2662 0.930 . S
C2655 C2654 1.394 . S
C2655 C2656 1.384 . S
C2655 H2663 0.929 . S
C2656 C2655 1.384 . S
C2656 C2657 1.373 1_565 S
C2657 H2641 0.930 . S
C2657 C2656 1.373 1_545 S
C2657 C2658 1.379 . S
C2658 H2642 0.931 . S
C2658 C2652 1.385 1_545 S
C2658 C2657 1.379 . S
H2659 C2653 0.959 . S
H2660 C2653 0.961 . S
H2661 C2653 0.960 . S
H2662 C2654 0.930 . S
H2663 C2655 0.929 . S
H2664 C2672 0.929 . S
H2665 C2674 0.930 . S
H2666 C2676 0.930 . S
H2667 C2679 0.929 . S
H2668 C2682 0.930 . S
H2669 C2684 0.960 . S
H2670 C2684 0.960 . S
H2671 C2684 0.960 . S
C2672 H2664 0.929 . S
C2672 C2673 1.377 . S
C2672 C2674 1.384 . S
C2673 C2672 1.377 . S
C2673 C2679 1.390 1_655 S
C2674 H2665 0.930 . S
C2674 C2672 1.384 . S
C2674 C2675 1.372 . S
C2675 C2674 1.372 . S
C2675 C2676 1.400 1_655 S
C2675 C2680 1.490 . S
C2676 H2666 0.930 . S
C2676 C2675 1.400 1_455 S
C2676 C2679 1.386 . S
H2677 C2693 0.930 . S
H2678 C2694 0.931 . S
C2679 H2667 0.929 . S
C2679 C2673 1.390 1_455 S
C2679 C2676 1.386 . S
C2680 C2675 1.490 . S
C2680 C2682 1.395 . S
C2680 C2683 1.403 1_655 S
H2681 C2687 0.930 . S
C2682 H2668 0.930 . S
C2682 C2680 1.395 . S
C2682 C2685 1.403 . S
C2683 C2680 1.403 1_455 S
C2683 C2684 1.524 . S
C2683 C2687 1.400 . S
C2684 H2669 0.960 . S
C2684 H2670 0.960 . S
C2684 H2671 0.960 . S
C2684 C2683 1.524 . S
C2685 C2682 1.403 . S
C2685 C2686 1.392 . S
C2685 C2689 1.495 . S
C2686 C2685 1.392 . S
C2686 C2687 1.385 1_655 S
C2686 C2688 1.478 . S
C2687 H2681 0.930 . S
C2687 C2683 1.400 . S
C2687 C2686 1.385 1_455 S
C2688 C2686 1.478 . S
C2688 C2690 1.381 . S
C2688 C2694 1.383 1_655 S
C2689 C2685 1.495 . S
C2689 H2695 0.959 . S
C2689 H2696 0.961 . S
C2689 H2697 0.960 . S
C2690 C2688 1.381 . S
C2690 C2691 1.394 . S
C2690 H2698 0.930 . S
C2691 C2690 1.394 . S
C2691 C2692 1.383 . S
C2691 H2699 0.929 . S
C2692 C2691 1.383 . S
C2692 C2693 1.377 1_655 S
C2693 H2677 0.930 . S
C2693 C2692 1.377 1_455 S
C2693 C2694 1.379 . S
C2694 H2678 0.931 . S
C2694 C2688 1.383 1_455 S
C2694 C2693 1.379 . S
H2695 C2689 0.959 . S
H2696 C2689 0.961 . S
H2697 C2689 0.960 . S
H2698 C2690 0.930 . S
H2699 C2691 0.929 . S
H2700 C2708 0.929 . S
H2701 C2710 0.930 . S
H2702 C2712 0.930 . S
H2703 C2715 0.929 . S
H2704 C2718 0.930 . S
H2705 C2720 0.960 . S
H2706 C2720 0.960 . S
H2707 C2720 0.960 . S
C2708 H2700 0.929 . S
C2708 C2709 1.377 . S
C2708 C2710 1.384 . S
C2709 C2708 1.377 . S
C2709 C2715 1.390 . S
C2710 H2701 0.930 . S
C2710 C2708 1.384 . S
C2710 C2711 1.372 . S
C2711 C2710 1.372 . S
C2711 C2712 1.400 . S
C2711 C2716 1.490 . S
C2712 H2702 0.930 . S
C2712 C2711 1.400 . S
C2712 C2715 1.386 . S
H2713 C2729 0.930 . S
H2714 C2730 0.931 . S
C2715 H2703 0.929 . S
C2715 C2709 1.390 . S
C2715 C2712 1.386 . S
C2716 C2711 1.490 . S
C2716 C2718 1.395 . S
C2716 C2719 1.403 . S
H2717 C2723 0.930 . S
C2718 H2704 0.930 . S
C2718 C2716 1.395 . S
C2718 C2721 1.403 . S
C2719 C2716 1.403 . S
C2719 C2720 1.524 . S
C2719 C2723 1.400 . S
C2720 H2705 0.960 . S
C2720 H2706 0.960 . S
C2720 H2707 0.960 . S
C2720 C2719 1.524 . S
C2721 C2718 1.403 . S
C2721 C2722 1.392 . S
C2721 C2725 1.495 . S
C2722 C2721 1.392 . S
C2722 C2723 1.385 . S
C2722 C2724 1.478 . S
C2723 H2717 0.930 . S
C2723 C2719 1.400 . S
C2723 C2722 1.385 . S
C2724 C2722 1.478 . S
C2724 C2726 1.381 . S
C2724 C2730 1.383 . S
C2725 C2721 1.495 . S
C2725 H2731 0.959 . S
C2725 H2732 0.961 . S
C2725 H2733 0.960 . S
C2726 C2724 1.381 . S
C2726 C2727 1.394 . S
C2726 H2734 0.930 . S
C2727 C2726 1.394 . S
C2727 C2728 1.383 . S
C2727 H2735 0.929 . S
C2728 C2727 1.383 . S
C2728 C2729 1.377 . S
C2729 H2713 0.930 . S
C2729 C2728 1.377 . S
C2729 C2730 1.379 . S
C2730 H2714 0.931 . S
C2730 C2724 1.383 . S
C2730 C2729 1.379 . S
H2731 C2725 0.959 . S
H2732 C2725 0.961 . S
H2733 C2725 0.960 . S
H2734 C2726 0.930 . S
H2735 C2727 0.929 . S
H2736 C2744 0.929 . S
H2737 C2746 0.930 . S
H2738 C2748 0.930 . S
H2739 C2751 0.929 . S
H2740 C2754 0.930 . S
H2741 C2756 0.960 . S
H2742 C2756 0.960 . S
H2743 C2756 0.960 . S
C2744 H2736 0.929 . S
C2744 C2745 1.377 . S
C2744 C2746 1.384 . S
C2745 C2744 1.377 . S
C2745 C2751 1.390 . S
C2746 H2737 0.930 . S
C2746 C2744 1.384 . S
C2746 C2747 1.372 . S
C2747 C2746 1.372 . S
C2747 C2748 1.400 . S
C2747 C2752 1.490 . S
C2748 H2738 0.930 . S
C2748 C2747 1.400 . S
C2748 C2751 1.386 . S
H2749 C2765 0.930 . S
H2750 C2766 0.931 . S
C2751 H2739 0.929 . S
C2751 C2745 1.390 . S
C2751 C2748 1.386 . S
C2752 C2747 1.490 . S
C2752 C2754 1.395 . S
C2752 C2755 1.403 . S
H2753 C2759 0.930 . S
C2754 H2740 0.930 . S
C2754 C2752 1.395 . S
C2754 C2757 1.403 . S
C2755 C2752 1.403 . S
C2755 C2756 1.524 . S
C2755 C2759 1.400 . S
C2756 H2741 0.960 . S
C2756 H2742 0.960 . S
C2756 H2743 0.960 . S
C2756 C2755 1.524 . S
C2757 C2754 1.403 . S
C2757 C2758 1.392 . S
C2757 C2761 1.495 . S
C2758 C2757 1.392 . S
C2758 C2759 1.385 . S
C2758 C2760 1.478 . S
C2759 H2753 0.930 . S
C2759 C2755 1.400 . S
C2759 C2758 1.385 . S
C2760 C2758 1.478 . S
C2760 C2762 1.381 . S
C2760 C2766 1.383 . S
C2761 C2757 1.495 . S
C2761 H2767 0.959 . S
C2761 H2768 0.961 . S
C2761 H2769 0.960 . S
C2762 C2760 1.381 . S
C2762 C2763 1.394 . S
C2762 H2770 0.930 . S
C2763 C2762 1.394 . S
C2763 C2764 1.383 . S
C2763 H2771 0.929 . S
C2764 C2763 1.383 . S
C2764 C2765 1.377 . S
C2765 H2749 0.930 . S
C2765 C2764 1.377 . S
C2765 C2766 1.379 . S
C2766 H2750 0.931 . S
C2766 C2760 1.383 . S
C2766 C2765 1.379 . S
H2767 C2761 0.959 . S
H2768 C2761 0.961 . S
H2769 C2761 0.960 . S
H2770 C2762 0.930 . S
H2771 C2763 0.929 . S
H2772 C2780 0.929 . S
H2773 C2782 0.930 . S
H2774 C2784 0.930 . S
H2775 C2787 0.929 . S
H2776 C2790 0.930 . S
H2777 C2792 0.960 . S
H2778 C2792 0.960 . S
H2779 C2792 0.960 . S
C2780 H2772 0.929 . S
C2780 C2781 1.377 . S
C2780 C2782 1.384 . S
C2781 C2780 1.377 . S
C2781 C2787 1.390 . S
C2782 H2773 0.930 . S
C2782 C2780 1.384 . S
C2782 C2783 1.372 . S
C2783 C2782 1.372 . S
C2783 C2784 1.400 . S
C2783 C2788 1.490 . S
C2784 H2774 0.930 . S
C2784 C2783 1.400 . S
C2784 C2787 1.386 . S
H2785 C2801 0.930 . S
H2786 C2802 0.931 . S
C2787 H2775 0.929 . S
C2787 C2781 1.390 . S
C2787 C2784 1.386 . S
C2788 C2783 1.490 . S
C2788 C2790 1.395 . S
C2788 C2791 1.403 . S
H2789 C2795 0.930 . S
C2790 H2776 0.930 . S
C2790 C2788 1.395 . S
C2790 C2793 1.403 . S
C2791 C2788 1.403 . S
C2791 C2792 1.524 . S
C2791 C2795 1.400 . S
C2792 H2777 0.960 . S
C2792 H2778 0.960 . S
C2792 H2779 0.960 . S
C2792 C2791 1.524 . S
C2793 C2790 1.403 . S
C2793 C2794 1.392 . S
C2793 C2797 1.495 . S
C2794 C2793 1.392 . S
C2794 C2795 1.385 . S
C2794 C2796 1.478 . S
C2795 H2789 0.930 . S
C2795 C2791 1.400 . S
C2795 C2794 1.385 . S
C2796 C2794 1.478 . S
C2796 C2798 1.381 . S
C2796 C2802 1.383 . S
C2797 C2793 1.495 . S
C2797 H2803 0.959 . S
C2797 H2804 0.961 . S
C2797 H2805 0.960 . S
C2798 C2796 1.381 . S
C2798 C2799 1.394 . S
C2798 H2806 0.930 . S
C2799 C2798 1.394 . S
C2799 C2800 1.383 . S
C2799 H2807 0.929 . S
C2800 C2799 1.383 . S
C2800 C2801 1.377 . S
C2801 H2785 0.930 . S
C2801 C2800 1.377 . S
C2801 C2802 1.379 . S
C2802 H2786 0.931 . S
C2802 C2796 1.383 . S
C2802 C2801 1.379 . S
H2803 C2797 0.959 . S
H2804 C2797 0.961 . S
H2805 C2797 0.960 . S
H2806 C2798 0.930 . S
H2807 C2799 0.929 . S
H2808 C2816 0.929 . S
H2809 C2818 0.930 . S
H2810 C2820 0.930 . S
H2811 C2823 0.929 . S
H2812 C2826 0.930 . S
H2813 C2828 0.960 . S
H2814 C2828 0.960 . S
H2815 C2828 0.960 . S
C2816 H2808 0.929 . S
C2816 C2817 1.377 . S
C2816 C2818 1.384 . S
C2817 C2816 1.377 . S
C2817 C2823 1.390 . S
C2818 H2809 0.930 . S
C2818 C2816 1.384 . S
C2818 C2819 1.372 . S
C2819 C2818 1.372 . S
C2819 C2820 1.400 . S
C2819 C2824 1.490 . S
C2820 H2810 0.930 . S
C2820 C2819 1.400 . S
C2820 C2823 1.386 . S
H2821 C2837 0.930 . S
H2822 C2838 0.931 . S
C2823 H2811 0.929 . S
C2823 C2817 1.390 . S
C2823 C2820 1.386 . S
C2824 C2819 1.490 . S
C2824 C2826 1.395 . S
C2824 C2827 1.403 . S
H2825 C2831 0.930 . S
C2826 H2812 0.930 . S
C2826 C2824 1.395 . S
C2826 C2829 1.403 . S
C2827 C2824 1.403 . S
C2827 C2828 1.524 . S
C2827 C2831 1.400 . S
C2828 H2813 0.960 . S
C2828 H2814 0.960 . S
C2828 H2815 0.960 . S
C2828 C2827 1.524 . S
C2829 C2826 1.403 . S
C2829 C2830 1.392 . S
C2829 C2833 1.495 . S
C2830 C2829 1.392 . S
C2830 C2831 1.385 . S
C2830 C2832 1.478 . S
C2831 H2825 0.930 . S
C2831 C2827 1.400 . S
C2831 C2830 1.385 . S
C2832 C2830 1.478 . S
C2832 C2834 1.381 . S
C2832 C2838 1.383 . S
C2833 C2829 1.495 . S
C2833 H2839 0.959 . S
C2833 H2840 0.961 . S
C2833 H2841 0.960 . S
C2834 C2832 1.381 . S
C2834 C2835 1.394 . S
C2834 H2842 0.930 . S
C2835 C2834 1.394 . S
C2835 C2836 1.383 . S
C2835 H2843 0.929 . S
C2836 C2835 1.383 . S
C2836 C2837 1.377 . S
C2837 H2821 0.930 . S
C2837 C2836 1.377 . S
C2837 C2838 1.379 . S
C2838 H2822 0.931 . S
C2838 C2832 1.383 . S
C2838 C2837 1.379 . S
H2839 C2833 0.959 . S
H2840 C2833 0.961 . S
H2841 C2833 0.960 . S
H2842 C2834 0.930 . S
H2843 C2835 0.929 . S
H2844 C2852 0.929 . S
H2845 C2854 0.930 . S
H2846 C2856 0.930 . S
H2847 C2859 0.929 . S
H2848 C2862 0.930 . S
H2849 C2864 0.960 . S
H2850 C2864 0.960 . S
H2851 C2864 0.960 . S
C2852 H2844 0.929 . S
C2852 C2853 1.377 . S
C2852 C2854 1.384 . S
C2853 C2852 1.377 . S
C2853 C2859 1.390 . S
C2854 H2845 0.930 . S
C2854 C2852 1.384 . S
C2854 C2855 1.372 . S
C2855 C2854 1.372 . S
C2855 C2856 1.400 . S
C2855 C2860 1.490 . S
C2856 H2846 0.930 . S
C2856 C2855 1.400 . S
C2856 C2859 1.386 . S
H2857 C2873 0.930 . S
H2858 C2874 0.931 . S
C2859 H2847 0.929 . S
C2859 C2853 1.390 . S
C2859 C2856 1.386 . S
C2860 C2855 1.490 . S
C2860 C2862 1.395 . S
C2860 C2863 1.403 . S
H2861 C2867 0.930 . S
C2862 H2848 0.930 . S
C2862 C2860 1.395 . S
C2862 C2865 1.403 . S
C2863 C2860 1.403 . S
C2863 C2864 1.524 . S
C2863 C2867 1.400 . S
C2864 H2849 0.960 . S
C2864 H2850 0.960 . S
C2864 H2851 0.960 . S
C2864 C2863 1.524 . S
C2865 C2862 1.403 . S
C2865 C2866 1.392 . S
C2865 C2869 1.495 . S
C2866 C2865 1.392 . S
C2866 C2867 1.385 . S
C2866 C2868 1.478 . S
C2867 H2861 0.930 . S
C2867 C2863 1.400 . S
C2867 C2866 1.385 . S
C2868 C2866 1.478 . S
C2868 C2870 1.381 . S
C2868 C2874 1.383 . S
C2869 C2865 1.495 . S
C2869 H2875 0.959 . S
C2869 H2876 0.961 . S
C2869 H2877 0.960 . S
C2870 C2868 1.381 . S
C2870 C2871 1.394 . S
C2870 H2878 0.930 . S
C2871 C2870 1.394 . S
C2871 C2872 1.383 . S
C2871 H2879 0.929 . S
C2872 C2871 1.383 . S
C2872 C2873 1.377 . S
C2873 H2857 0.930 . S
C2873 C2872 1.377 . S
C2873 C2874 1.379 . S
C2874 H2858 0.931 . S
C2874 C2868 1.383 . S
C2874 C2873 1.379 . S
H2875 C2869 0.959 . S
H2876 C2869 0.961 . S
H2877 C2869 0.960 . S
H2878 C2870 0.930 . S
H2879 C2871 0.929 . S
H2880 C2888 0.929 . S
H2881 C2890 0.930 . S
H2882 C2892 0.930 . S
H2883 C2895 0.929 . S
H2884 C2898 0.930 . S
H2885 C2900 0.960 . S
H2886 C2900 0.960 . S
H2887 C2900 0.960 . S
C2888 H2880 0.929 . S
C2888 C2889 1.377 . S
C2888 C2890 1.384 . S
C2889 C2888 1.377 . S
C2889 C2895 1.390 . S
C2890 H2881 0.930 . S
C2890 C2888 1.384 . S
C2890 C2891 1.372 . S
C2891 C2890 1.372 . S
C2891 C2892 1.400 . S
C2891 C2896 1.490 . S
C2892 H2882 0.930 . S
C2892 C2891 1.400 . S
C2892 C2895 1.386 . S
H2893 C2909 0.930 . S
H2894 C2910 0.931 . S
C2895 H2883 0.929 . S
C2895 C2889 1.390 . S
C2895 C2892 1.386 . S
C2896 C2891 1.490 . S
C2896 C2898 1.395 . S
C2896 C2899 1.403 . S
H2897 C2903 0.930 . S
C2898 H2884 0.930 . S
C2898 C2896 1.395 . S
C2898 C2901 1.403 . S
C2899 C2896 1.403 . S
C2899 C2900 1.524 . S
C2899 C2903 1.400 . S
C2900 H2885 0.960 . S
C2900 H2886 0.960 . S
C2900 H2887 0.960 . S
C2900 C2899 1.524 . S
C2901 C2898 1.403 . S
C2901 C2902 1.392 . S
C2901 C2905 1.495 . S
C2902 C2901 1.392 . S
C2902 C2903 1.385 . S
C2902 C2904 1.478 . S
C2903 H2897 0.930 . S
C2903 C2899 1.400 . S
C2903 C2902 1.385 . S
C2904 C2902 1.478 . S
C2904 C2906 1.381 . S
C2904 C2910 1.383 . S
C2905 C2901 1.495 . S
C2905 H2911 0.959 . S
C2905 H2912 0.961 . S
C2905 H2913 0.960 . S
C2906 C2904 1.381 . S
C2906 C2907 1.394 . S
C2906 H2914 0.930 . S
C2907 C2906 1.394 . S
C2907 C2908 1.383 . S
C2907 H2915 0.929 . S
C2908 C2907 1.383 . S
C2908 C2909 1.377 . S
C2909 H2893 0.930 . S
C2909 C2908 1.377 . S
C2909 C2910 1.379 . S
C2910 H2894 0.931 . S
C2910 C2904 1.383 . S
C2910 C2909 1.379 . S
H2911 C2905 0.959 . S
H2912 C2905 0.961 . S
H2913 C2905 0.960 . S
H2914 C2906 0.930 . S
H2915 C2907 0.929 . S
H2916 C2924 0.929 . S
H2917 C2926 0.930 . S
H2918 C2928 0.930 . S
H2919 C2931 0.929 . S
H2920 C2934 0.930 . S
H2921 C2936 0.960 . S
H2922 C2936 0.960 . S
H2923 C2936 0.960 . S
C2924 H2916 0.929 . S
C2924 C2925 1.377 . S
C2924 C2926 1.384 . S
C2925 C2924 1.377 . S
C2925 C2931 1.390 . S
C2926 H2917 0.930 . S
C2926 C2924 1.384 . S
C2926 C2927 1.372 . S
C2927 C2926 1.372 . S
C2927 C2928 1.400 . S
C2927 C2932 1.490 . S
C2928 H2918 0.930 . S
C2928 C2927 1.400 . S
C2928 C2931 1.386 . S
H2929 C2945 0.930 . S
H2930 C2946 0.931 . S
C2931 H2919 0.929 . S
C2931 C2925 1.390 . S
C2931 C2928 1.386 . S
C2932 C2927 1.490 . S
C2932 C2934 1.395 . S
C2932 C2935 1.403 . S
H2933 C2939 0.930 . S
C2934 H2920 0.930 . S
C2934 C2932 1.395 . S
C2934 C2937 1.403 . S
C2935 C2932 1.403 . S
C2935 C2936 1.524 . S
C2935 C2939 1.400 . S
C2936 H2921 0.960 . S
C2936 H2922 0.960 . S
C2936 H2923 0.960 . S
C2936 C2935 1.524 . S
C2937 C2934 1.403 . S
C2937 C2938 1.392 . S
C2937 C2941 1.495 . S
C2938 C2937 1.392 . S
C2938 C2939 1.385 . S
C2938 C2940 1.478 . S
C2939 H2933 0.930 . S
C2939 C2935 1.400 . S
C2939 C2938 1.385 . S
C2940 C2938 1.478 . S
C2940 C2942 1.381 . S
C2940 C2946 1.383 . S
C2941 C2937 1.495 . S
C2941 H2947 0.959 . S
C2941 H2948 0.961 . S
C2941 H2949 0.960 . S
C2942 C2940 1.381 . S
C2942 C2943 1.394 . S
C2942 H2950 0.930 . S
C2943 C2942 1.394 . S
C2943 C2944 1.383 . S
C2943 H2951 0.929 . S
C2944 C2943 1.383 . S
C2944 C2945 1.377 . S
C2945 H2929 0.930 . S
C2945 C2944 1.377 . S
C2945 C2946 1.379 . S
C2946 H2930 0.931 . S
C2946 C2940 1.383 . S
C2946 C2945 1.379 . S
H2947 C2941 0.959 . S
H2948 C2941 0.961 . S
H2949 C2941 0.960 . S
H2950 C2942 0.930 . S
H2951 C2943 0.929 . S
H2952 C2960 0.929 . S
H2953 C2962 0.930 . S
H2954 C2964 0.930 . S
H2955 C2967 0.929 . S
H2956 C2970 0.930 . S
H2957 C2972 0.960 . S
H2958 C2972 0.960 . S
H2959 C2972 0.960 . S
C2960 H2952 0.929 . S
C2960 C2961 1.377 . S
C2960 C2962 1.384 . S
C2961 C2960 1.377 . S
C2961 C2967 1.390 . S
C2962 H2953 0.930 . S
C2962 C2960 1.384 . S
C2962 C2963 1.372 . S
C2963 C2962 1.372 . S
C2963 C2964 1.400 . S
C2963 C2968 1.490 . S
C2964 H2954 0.930 . S
C2964 C2963 1.400 . S
C2964 C2967 1.386 . S
H2965 C2981 0.930 . S
H2966 C2982 0.931 . S
C2967 H2955 0.929 . S
C2967 C2961 1.390 . S
C2967 C2964 1.386 . S
C2968 C2963 1.490 . S
C2968 C2970 1.395 . S
C2968 C2971 1.403 . S
H2969 C2975 0.930 . S
C2970 H2956 0.930 . S
C2970 C2968 1.395 . S
C2970 C2973 1.403 . S
C2971 C2968 1.403 . S
C2971 C2972 1.524 . S
C2971 C2975 1.400 . S
C2972 H2957 0.960 . S
C2972 H2958 0.960 . S
C2972 H2959 0.960 . S
C2972 C2971 1.524 . S
C2973 C2970 1.403 . S
C2973 C2974 1.392 . S
C2973 C2977 1.495 . S
C2974 C2973 1.392 . S
C2974 C2975 1.385 . S
C2974 C2976 1.478 . S
C2975 H2969 0.930 . S
C2975 C2971 1.400 . S
C2975 C2974 1.385 . S
C2976 C2974 1.478 . S
C2976 C2978 1.381 . S
C2976 C2982 1.383 . S
C2977 C2973 1.495 . S
C2977 H2983 0.959 . S
C2977 H2984 0.961 . S
C2977 H2985 0.960 . S
C2978 C2976 1.381 . S
C2978 C2979 1.394 . S
C2978 H2986 0.930 . S
C2979 C2978 1.394 . S
C2979 C2980 1.383 . S
C2979 H2987 0.929 . S
C2980 C2979 1.383 . S
C2980 C2981 1.377 . S
C2981 H2965 0.930 . S
C2981 C2980 1.377 . S
C2981 C2982 1.379 . S
C2982 H2966 0.931 . S
C2982 C2976 1.383 . S
C2982 C2981 1.379 . S
H2983 C2977 0.959 . S
H2984 C2977 0.961 . S
H2985 C2977 0.960 . S
H2986 C2978 0.930 . S
H2987 C2979 0.929 . S
H2988 C2996 0.929 . S
H2989 C2998 0.930 . S
H2990 C3000 0.930 . S
H2991 C3003 0.929 . S
H2992 C3006 0.930 . S
H2993 C3008 0.960 . S
H2994 C3008 0.960 . S
H2995 C3008 0.960 . S
C2996 H2988 0.929 . S
C2996 C2997 1.377 . S
C2996 C2998 1.384 . S
C2997 C2996 1.377 . S
C2997 C3003 1.390 . S
C2998 H2989 0.930 . S
C2998 C2996 1.384 . S
C2998 C2999 1.372 . S
C2999 C2998 1.372 . S
C2999 C3000 1.400 . S
C2999 C3004 1.490 . S
C3000 H2990 0.930 . S
C3000 C2999 1.400 . S
C3000 C3003 1.386 . S
H3001 C3017 0.930 . S
H3002 C3018 0.931 . S
C3003 H2991 0.929 . S
C3003 C2997 1.390 . S
C3003 C3000 1.386 . S
C3004 C2999 1.490 . S
C3004 C3006 1.395 . S
C3004 C3007 1.403 . S
H3005 C3011 0.930 . S
C3006 H2992 0.930 . S
C3006 C3004 1.395 . S
C3006 C3009 1.403 . S
C3007 C3004 1.403 . S
C3007 C3008 1.524 . S
C3007 C3011 1.400 . S
C3008 H2993 0.960 . S
C3008 H2994 0.960 . S
C3008 H2995 0.960 . S
C3008 C3007 1.524 . S
C3009 C3006 1.403 . S
C3009 C3010 1.392 . S
C3009 C3013 1.495 . S
C3010 C3009 1.392 . S
C3010 C3011 1.385 . S
C3010 C3012 1.478 . S
C3011 H3005 0.930 . S
C3011 C3007 1.400 . S
C3011 C3010 1.385 . S
C3012 C3010 1.478 . S
C3012 C3014 1.381 . S
C3012 C3018 1.383 . S
C3013 C3009 1.495 . S
C3013 H3019 0.959 . S
C3013 H3020 0.961 . S
C3013 H3021 0.960 . S
C3014 C3012 1.381 . S
C3014 C3015 1.394 . S
C3014 H3022 0.930 . S
C3015 C3014 1.394 . S
C3015 C3016 1.383 . S
C3015 H3023 0.929 . S
C3016 C3015 1.383 . S
C3016 C3017 1.377 . S
C3017 H3001 0.930 . S
C3017 C3016 1.377 . S
C3017 C3018 1.379 . S
C3018 H3002 0.931 . S
C3018 C3012 1.383 . S
C3018 C3017 1.379 . S
H3019 C3013 0.959 . S
H3020 C3013 0.961 . S
H3021 C3013 0.960 . S
H3022 C3014 0.930 . S
H3023 C3015 0.929 . S
H3024 C3032 0.929 . S
H3025 C3034 0.930 . S
H3026 C3036 0.930 . S
H3027 C3039 0.929 . S
H3028 C3042 0.930 . S
H3029 C3044 0.960 . S
H3030 C3044 0.960 . S
H3031 C3044 0.960 . S
C3032 H3024 0.929 . S
C3032 C3033 1.377 . S
C3032 C3034 1.384 . S
C3033 C3032 1.377 . S
C3033 C3039 1.390 . S
C3034 H3025 0.930 . S
C3034 C3032 1.384 . S
C3034 C3035 1.372 . S
C3035 C3034 1.372 . S
C3035 C3036 1.400 . S
C3035 C3040 1.490 . S
C3036 H3026 0.930 . S
C3036 C3035 1.400 . S
C3036 C3039 1.386 . S
H3037 C3053 0.930 . S
H3038 C3054 0.931 . S
C3039 H3027 0.929 . S
C3039 C3033 1.390 . S
C3039 C3036 1.386 . S
C3040 C3035 1.490 . S
C3040 C3042 1.395 . S
C3040 C3043 1.403 . S
H3041 C3047 0.930 . S
C3042 H3028 0.930 . S
C3042 C3040 1.395 . S
C3042 C3045 1.403 . S
C3043 C3040 1.403 . S
C3043 C3044 1.524 . S
C3043 C3047 1.400 . S
C3044 H3029 0.960 . S
C3044 H3030 0.960 . S
C3044 H3031 0.960 . S
C3044 C3043 1.524 . S
C3045 C3042 1.403 . S
C3045 C3046 1.392 . S
C3045 C3049 1.495 . S
C3046 C3045 1.392 . S
C3046 C3047 1.385 . S
C3046 C3048 1.478 . S
C3047 H3041 0.930 . S
C3047 C3043 1.400 . S
C3047 C3046 1.385 . S
C3048 C3046 1.478 . S
C3048 C3050 1.381 . S
C3048 C3054 1.383 . S
C3049 C3045 1.495 . S
C3049 H3055 0.959 . S
C3049 H3056 0.961 . S
C3049 H3057 0.960 . S
C3050 C3048 1.381 . S
C3050 C3051 1.394 . S
C3050 H3058 0.930 . S
C3051 C3050 1.394 . S
C3051 C3052 1.383 . S
C3051 H3059 0.929 . S
C3052 C3051 1.383 . S
C3052 C3053 1.377 . S
C3053 H3037 0.930 . S
C3053 C3052 1.377 . S
C3053 C3054 1.379 . S
C3054 H3038 0.931 . S
C3054 C3048 1.383 . S
C3054 C3053 1.379 . S
H3055 C3049 0.959 . S
H3056 C3049 0.961 . S
H3057 C3049 0.960 . S
H3058 C3050 0.930 . S
H3059 C3051 0.929 . S
H3060 C3068 0.929 . S
H3061 C3070 0.930 . S
H3062 C3072 0.930 . S
H3063 C3075 0.929 . S
H3064 C3078 0.930 . S
H3065 C3080 0.960 . S
H3066 C3080 0.960 . S
H3067 C3080 0.960 . S
C3068 H3060 0.929 . S
C3068 C3069 1.377 . S
C3068 C3070 1.384 . S
C3069 C3068 1.377 . S
C3069 C3075 1.390 . S
C3070 H3061 0.930 . S
C3070 C3068 1.384 . S
C3070 C3071 1.372 . S
C3071 C3070 1.372 . S
C3071 C3072 1.400 . S
C3071 C3076 1.490 . S
C3072 H3062 0.930 . S
C3072 C3071 1.400 . S
C3072 C3075 1.386 . S
H3073 C3089 0.930 . S
H3074 C3090 0.931 . S
C3075 H3063 0.929 . S
C3075 C3069 1.390 . S
C3075 C3072 1.386 . S
C3076 C3071 1.490 . S
C3076 C3078 1.395 . S
C3076 C3079 1.403 . S
H3077 C3083 0.930 . S
C3078 H3064 0.930 . S
C3078 C3076 1.395 . S
C3078 C3081 1.403 . S
C3079 C3076 1.403 . S
C3079 C3080 1.524 . S
C3079 C3083 1.400 . S
C3080 H3065 0.960 . S
C3080 H3066 0.960 . S
C3080 H3067 0.960 . S
C3080 C3079 1.524 . S
C3081 C3078 1.403 . S
C3081 C3082 1.392 . S
C3081 C3085 1.495 . S
C3082 C3081 1.392 . S
C3082 C3083 1.385 . S
C3082 C3084 1.478 . S
C3083 H3077 0.930 . S
C3083 C3079 1.400 . S
C3083 C3082 1.385 . S
C3084 C3082 1.478 . S
C3084 C3086 1.381 . S
C3084 C3090 1.383 . S
C3085 C3081 1.495 . S
C3085 H3091 0.959 . S
C3085 H3092 0.961 . S
C3085 H3093 0.960 . S
C3086 C3084 1.381 . S
C3086 C3087 1.394 . S
C3086 H3094 0.930 . S
C3087 C3086 1.394 . S
C3087 C3088 1.383 . S
C3087 H3095 0.929 . S
C3088 C3087 1.383 . S
C3088 C3089 1.377 . S
C3089 H3073 0.930 . S
C3089 C3088 1.377 . S
C3089 C3090 1.379 . S
C3090 H3074 0.931 . S
C3090 C3084 1.383 . S
C3090 C3089 1.379 . S
H3091 C3085 0.959 . S
H3092 C3085 0.961 . S
H3093 C3085 0.960 . S
H3094 C3086 0.930 . S
H3095 C3087 0.929 . S
H3096 C3104 0.929 . S
H3097 C3106 0.930 . S
H3098 C3108 0.930 . S
H3099 C3111 0.929 . S
H3100 C3114 0.930 . S
H3101 C3116 0.960 . S
H3102 C3116 0.960 . S
H3103 C3116 0.960 . S
C3104 H3096 0.929 . S
C3104 C3105 1.377 . S
C3104 C3106 1.384 . S
C3105 C3104 1.377 . S
C3105 C3111 1.390 . S
C3106 H3097 0.930 . S
C3106 C3104 1.384 . S
C3106 C3107 1.372 . S
C3107 C3106 1.372 . S
C3107 C3108 1.400 . S
C3107 C3112 1.490 . S
C3108 H3098 0.930 . S
C3108 C3107 1.400 . S
C3108 C3111 1.386 . S
H3109 C3125 0.930 . S
H3110 C3126 0.931 . S
C3111 H3099 0.929 . S
C3111 C3105 1.390 . S
C3111 C3108 1.386 . S
C3112 C3107 1.490 . S
C3112 C3114 1.395 . S
C3112 C3115 1.403 . S
H3113 C3119 0.930 . S
C3114 H3100 0.930 . S
C3114 C3112 1.395 . S
C3114 C3117 1.403 . S
C3115 C3112 1.403 . S
C3115 C3116 1.524 . S
C3115 C3119 1.400 . S
C3116 H3101 0.960 . S
C3116 H3102 0.960 . S
C3116 H3103 0.960 . S
C3116 C3115 1.524 . S
C3117 C3114 1.403 . S
C3117 C3118 1.392 . S
C3117 C3121 1.495 . S
C3118 C3117 1.392 . S
C3118 C3119 1.385 . S
C3118 C3120 1.478 . S
C3119 H3113 0.930 . S
C3119 C3115 1.400 . S
C3119 C3118 1.385 . S
C3120 C3118 1.478 . S
C3120 C3122 1.381 . S
C3120 C3126 1.383 . S
C3121 C3117 1.495 . S
C3121 H3127 0.959 . S
C3121 H3128 0.961 . S
C3121 H3129 0.960 . S
C3122 C3120 1.381 . S
C3122 C3123 1.394 . S
C3122 H3130 0.930 . S
C3123 C3122 1.394 . S
C3123 C3124 1.383 . S
C3123 H3131 0.929 . S
C3124 C3123 1.383 . S
C3124 C3125 1.377 . S
C3125 H3109 0.930 . S
C3125 C3124 1.377 . S
C3125 C3126 1.379 . S
C3126 H3110 0.931 . S
C3126 C3120 1.383 . S
C3126 C3125 1.379 . S
H3127 C3121 0.959 . S
H3128 C3121 0.961 . S
H3129 C3121 0.960 . S
H3130 C3122 0.930 . S
H3131 C3123 0.929 . S
H3132 C3140 0.929 . S
H3133 C3142 0.930 . S
H3134 C3144 0.930 . S
H3135 C3147 0.929 . S
H3136 C3150 0.930 . S
H3137 C3152 0.960 . S
H3138 C3152 0.960 . S
H3139 C3152 0.960 . S
C3140 H3132 0.929 . S
C3140 C3141 1.377 . S
C3140 C3142 1.384 . S
C3141 C3140 1.377 . S
C3141 C3147 1.390 . S
C3142 H3133 0.930 . S
C3142 C3140 1.384 . S
C3142 C3143 1.372 . S
C3143 C3142 1.372 . S
C3143 C3144 1.400 . S
C3143 C3148 1.490 . S
C3144 H3134 0.930 . S
C3144 C3143 1.400 . S
C3144 C3147 1.386 . S
H3145 C3161 0.930 . S
H3146 C3162 0.931 . S
C3147 H3135 0.929 . S
C3147 C3141 1.390 . S
C3147 C3144 1.386 . S
C3148 C3143 1.490 . S
C3148 C3150 1.395 . S
C3148 C3151 1.403 . S
H3149 C3155 0.930 . S
C3150 H3136 0.930 . S
C3150 C3148 1.395 . S
C3150 C3153 1.403 . S
C3151 C3148 1.403 . S
C3151 C3152 1.524 . S
C3151 C3155 1.400 . S
C3152 H3137 0.960 . S
C3152 H3138 0.960 . S
C3152 H3139 0.960 . S
C3152 C3151 1.524 . S
C3153 C3150 1.403 . S
C3153 C3154 1.392 . S
C3153 C3157 1.495 . S
C3154 C3153 1.392 . S
C3154 C3155 1.385 . S
C3154 C3156 1.478 . S
C3155 H3149 0.930 . S
C3155 C3151 1.400 . S
C3155 C3154 1.385 . S
C3156 C3154 1.478 . S
C3156 C3158 1.381 . S
C3156 C3162 1.383 . S
C3157 C3153 1.495 . S
C3157 H3163 0.959 . S
C3157 H3164 0.961 . S
C3157 H3165 0.960 . S
C3158 C3156 1.381 . S
C3158 C3159 1.394 . S
C3158 H3166 0.930 . S
C3159 C3158 1.394 . S
C3159 C3160 1.383 . S
C3159 H3167 0.929 . S
C3160 C3159 1.383 . S
C3160 C3161 1.377 . S
C3161 H3145 0.930 . S
C3161 C3160 1.377 . S
C3161 C3162 1.379 . S
C3162 H3146 0.931 . S
C3162 C3156 1.383 . S
C3162 C3161 1.379 . S
H3163 C3157 0.959 . S
H3164 C3157 0.961 . S
H3165 C3157 0.960 . S
H3166 C3158 0.930 . S
H3167 C3159 0.929 . S
H3168 C3176 0.929 . S
H3169 C3178 0.930 . S
H3170 C3180 0.930 . S
H3171 C3183 0.929 . S
H3172 C3186 0.930 . S
H3173 C3188 0.960 . S
H3174 C3188 0.960 . S
H3175 C3188 0.960 . S
C3176 H3168 0.929 . S
C3176 C3177 1.377 . S
C3176 C3178 1.384 . S
C3177 C3176 1.377 . S
C3177 C3183 1.390 . S
C3178 H3169 0.930 . S
C3178 C3176 1.384 . S
C3178 C3179 1.372 . S
C3179 C3178 1.372 . S
C3179 C3180 1.400 . S
C3179 C3184 1.490 . S
C3180 H3170 0.930 . S
C3180 C3179 1.400 . S
C3180 C3183 1.386 . S
H3181 C3197 0.930 . S
H3182 C3198 0.931 . S
C3183 H3171 0.929 . S
C3183 C3177 1.390 . S
C3183 C3180 1.386 . S
C3184 C3179 1.490 . S
C3184 C3186 1.395 . S
C3184 C3187 1.403 . S
H3185 C3191 0.930 . S
C3186 H3172 0.930 . S
C3186 C3184 1.395 . S
C3186 C3189 1.403 . S
C3187 C3184 1.403 . S
C3187 C3188 1.524 . S
C3187 C3191 1.400 . S
C3188 H3173 0.960 . S
C3188 H3174 0.960 . S
C3188 H3175 0.960 . S
C3188 C3187 1.524 . S
C3189 C3186 1.403 . S
C3189 C3190 1.392 . S
C3189 C3193 1.495 . S
C3190 C3189 1.392 . S
C3190 C3191 1.385 . S
C3190 C3192 1.478 . S
C3191 H3185 0.930 . S
C3191 C3187 1.400 . S
C3191 C3190 1.385 . S
C3192 C3190 1.478 . S
C3192 C3194 1.381 . S
C3192 C3198 1.383 . S
C3193 C3189 1.495 . S
C3193 H3199 0.959 . S
C3193 H3200 0.961 . S
C3193 H3201 0.960 . S
C3194 C3192 1.381 . S
C3194 C3195 1.394 . S
C3194 H3202 0.930 . S
C3195 C3194 1.394 . S
C3195 C3196 1.383 . S
C3195 H3203 0.929 . S
C3196 C3195 1.383 . S
C3196 C3197 1.377 . S
C3197 H3181 0.930 . S
C3197 C3196 1.377 . S
C3197 C3198 1.379 . S
C3198 H3182 0.931 . S
C3198 C3192 1.383 . S
C3198 C3197 1.379 . S
H3199 C3193 0.959 . S
H3200 C3193 0.961 . S
H3201 C3193 0.960 . S
H3202 C3194 0.930 . S
H3203 C3195 0.929 . S
H3204 C3212 0.929 . S
H3205 C3214 0.930 . S
H3206 C3216 0.930 . S
H3207 C3219 0.929 . S
H3208 C3222 0.930 . S
H3209 C3224 0.960 . S
H3210 C3224 0.960 . S
H3211 C3224 0.960 . S
C3212 H3204 0.929 . S
C3212 C3213 1.377 . S
C3212 C3214 1.384 . S
C3213 C3212 1.377 . S
C3213 C3219 1.390 . S
C3214 H3205 0.930 . S
C3214 C3212 1.384 . S
C3214 C3215 1.372 . S
C3215 C3214 1.372 . S
C3215 C3216 1.400 . S
C3215 C3220 1.490 . S
C3216 H3206 0.930 . S
C3216 C3215 1.400 . S
C3216 C3219 1.386 . S
H3217 C3233 0.930 . S
H3218 C3234 0.931 . S
C3219 H3207 0.929 . S
C3219 C3213 1.390 . S
C3219 C3216 1.386 . S
C3220 C3215 1.490 . S
C3220 C3222 1.395 . S
C3220 C3223 1.403 . S
H3221 C3227 0.930 . S
C3222 H3208 0.930 . S
C3222 C3220 1.395 . S
C3222 C3225 1.403 . S
C3223 C3220 1.403 . S
C3223 C3224 1.524 . S
C3223 C3227 1.400 . S
C3224 H3209 0.960 . S
C3224 H3210 0.960 . S
C3224 H3211 0.960 . S
C3224 C3223 1.524 . S
C3225 C3222 1.403 . S
C3225 C3226 1.392 . S
C3225 C3229 1.495 . S
C3226 C3225 1.392 . S
C3226 C3227 1.385 . S
C3226 C3228 1.478 . S
C3227 H3221 0.930 . S
C3227 C3223 1.400 . S
C3227 C3226 1.385 . S
C3228 C3226 1.478 . S
C3228 C3230 1.381 . S
C3228 C3234 1.383 . S
C3229 C3225 1.495 . S
C3229 H3235 0.959 . S
C3229 H3236 0.961 . S
C3229 H3237 0.960 . S
C3230 C3228 1.381 . S
C3230 C3231 1.394 . S
C3230 H3238 0.930 . S
C3231 C3230 1.394 . S
C3231 C3232 1.383 . S
C3231 H3239 0.929 . S
C3232 C3231 1.383 . S
C3232 C3233 1.377 . S
C3233 H3217 0.930 . S
C3233 C3232 1.377 . S
C3233 C3234 1.379 . S
C3234 H3218 0.931 . S
C3234 C3228 1.383 . S
C3234 C3233 1.379 . S
H3235 C3229 0.959 . S
H3236 C3229 0.961 . S
H3237 C3229 0.960 . S
H3238 C3230 0.930 . S
H3239 C3231 0.929 . S
H3240 C3248 0.929 . S
H3241 C3250 0.930 . S
H3242 C3252 0.930 . S
H3243 C3255 0.929 . S
H3244 C3258 0.930 . S
H3245 C3260 0.960 . S
H3246 C3260 0.960 . S
H3247 C3260 0.960 . S
C3248 H3240 0.929 . S
C3248 C3249 1.377 . S
C3248 C3250 1.384 . S
C3249 C3248 1.377 . S
C3249 C3255 1.390 . S
C3250 H3241 0.930 . S
C3250 C3248 1.384 . S
C3250 C3251 1.372 . S
C3251 C3250 1.372 . S
C3251 C3252 1.400 . S
C3251 C3256 1.490 . S
C3252 H3242 0.930 . S
C3252 C3251 1.400 . S
C3252 C3255 1.386 . S
H3253 C3269 0.930 . S
H3254 C3270 0.931 . S
C3255 H3243 0.929 . S
C3255 C3249 1.390 . S
C3255 C3252 1.386 . S
C3256 C3251 1.490 . S
C3256 C3258 1.395 . S
C3256 C3259 1.403 . S
H3257 C3263 0.930 . S
C3258 H3244 0.930 . S
C3258 C3256 1.395 . S
C3258 C3261 1.403 . S
C3259 C3256 1.403 . S
C3259 C3260 1.524 . S
C3259 C3263 1.400 . S
C3260 H3245 0.960 . S
C3260 H3246 0.960 . S
C3260 H3247 0.960 . S
C3260 C3259 1.524 . S
C3261 C3258 1.403 . S
C3261 C3262 1.392 . S
C3261 C3265 1.495 . S
C3262 C3261 1.392 . S
C3262 C3263 1.385 . S
C3262 C3264 1.478 . S
C3263 H3257 0.930 . S
C3263 C3259 1.400 . S
C3263 C3262 1.385 . S
C3264 C3262 1.478 . S
C3264 C3266 1.381 . S
C3264 C3270 1.383 . S
C3265 C3261 1.495 . S
C3265 H3271 0.959 . S
C3265 H3272 0.961 . S
C3265 H3273 0.960 . S
C3266 C3264 1.381 . S
C3266 C3267 1.394 . S
C3266 H3274 0.930 . S
C3267 C3266 1.394 . S
C3267 C3268 1.383 . S
C3267 H3275 0.929 . S
C3268 C3267 1.383 . S
C3268 C3269 1.377 . S
C3269 H3253 0.930 . S
C3269 C3268 1.377 . S
C3269 C3270 1.379 . S
C3270 H3254 0.931 . S
C3270 C3264 1.383 . S
C3270 C3269 1.379 . S
H3271 C3265 0.959 . S
H3272 C3265 0.961 . S
H3273 C3265 0.960 . S
H3274 C3266 0.930 . S
H3275 C3267 0.929 . S
H3276 C3284 0.929 . S
H3277 C3286 0.930 . S
H3278 C3288 0.930 . S
H3279 C3291 0.929 . S
H3280 C3294 0.930 . S
H3281 C3296 0.960 . S
H3282 C3296 0.960 . S
H3283 C3296 0.960 . S
C3284 H3276 0.929 . S
C3284 C3285 1.377 . S
C3284 C3286 1.384 . S
C3285 C3284 1.377 . S
C3285 C3291 1.390 . S
C3286 H3277 0.930 . S
C3286 C3284 1.384 . S
C3286 C3287 1.372 . S
C3287 C3286 1.372 . S
C3287 C3288 1.400 . S
C3287 C3292 1.490 . S
C3288 H3278 0.930 . S
C3288 C3287 1.400 . S
C3288 C3291 1.386 . S
H3289 C3305 0.930 . S
H3290 C3306 0.931 . S
C3291 H3279 0.929 . S
C3291 C3285 1.390 . S
C3291 C3288 1.386 . S
C3292 C3287 1.490 . S
C3292 C3294 1.395 . S
C3292 C3295 1.403 . S
H3293 C3299 0.930 . S
C3294 H3280 0.930 . S
C3294 C3292 1.395 . S
C3294 C3297 1.403 . S
C3295 C3292 1.403 . S
C3295 C3296 1.524 . S
C3295 C3299 1.400 . S
C3296 H3281 0.960 . S
C3296 H3282 0.960 . S
C3296 H3283 0.960 . S
C3296 C3295 1.524 . S
C3297 C3294 1.403 . S
C3297 C3298 1.392 . S
C3297 C3301 1.495 . S
C3298 C3297 1.392 . S
C3298 C3299 1.385 . S
C3298 C3300 1.478 . S
C3299 H3293 0.930 . S
C3299 C3295 1.400 . S
C3299 C3298 1.385 . S
C3300 C3298 1.478 . S
C3300 C3302 1.381 . S
C3300 C3306 1.383 . S
C3301 C3297 1.495 . S
C3301 H3307 0.959 . S
C3301 H3308 0.961 . S
C3301 H3309 0.960 . S
C3302 C3300 1.381 . S
C3302 C3303 1.394 . S
C3302 H3310 0.930 . S
C3303 C3302 1.394 . S
C3303 C3304 1.383 . S
C3303 H3311 0.929 . S
C3304 C3303 1.383 . S
C3304 C3305 1.377 . S
C3305 H3289 0.930 . S
C3305 C3304 1.377 . S
C3305 C3306 1.379 . S
C3306 H3290 0.931 . S
C3306 C3300 1.383 . S
C3306 C3305 1.379 . S
H3307 C3301 0.959 . S
H3308 C3301 0.961 . S
H3309 C3301 0.960 . S
H3310 C3302 0.930 . S
H3311 C3303 0.929 . S
H3312 C3320 0.929 . S
H3313 C3322 0.930 . S
H3314 C3324 0.930 . S
H3315 C3327 0.929 . S
H3316 C3330 0.930 . S
H3317 C3332 0.960 . S
H3318 C3332 0.960 . S
H3319 C3332 0.960 . S
C3320 H3312 0.929 . S
C3320 C3321 1.377 . S
C3320 C3322 1.384 . S
C3321 C3320 1.377 . S
C3321 C3327 1.390 . S
C3322 H3313 0.930 . S
C3322 C3320 1.384 . S
C3322 C3323 1.372 . S
C3323 C3322 1.372 . S
C3323 C3324 1.400 . S
C3323 C3328 1.490 . S
C3324 H3314 0.930 . S
C3324 C3323 1.400 . S
C3324 C3327 1.386 . S
H3325 C3341 0.930 . S
H3326 C3342 0.931 . S
C3327 H3315 0.929 . S
C3327 C3321 1.390 . S
C3327 C3324 1.386 . S
C3328 C3323 1.490 . S
C3328 C3330 1.395 . S
C3328 C3331 1.403 . S
H3329 C3335 0.930 . S
C3330 H3316 0.930 . S
C3330 C3328 1.395 . S
C3330 C3333 1.403 . S
C3331 C3328 1.403 . S
C3331 C3332 1.524 . S
C3331 C3335 1.400 . S
C3332 H3317 0.960 . S
C3332 H3318 0.960 . S
C3332 H3319 0.960 . S
C3332 C3331 1.524 . S
C3333 C3330 1.403 . S
C3333 C3334 1.392 . S
C3333 C3337 1.495 . S
C3334 C3333 1.392 . S
C3334 C3335 1.385 . S
C3334 C3336 1.478 . S
C3335 H3329 0.930 . S
C3335 C3331 1.400 . S
C3335 C3334 1.385 . S
C3336 C3334 1.478 . S
C3336 C3338 1.381 . S
C3336 C3342 1.383 . S
C3337 C3333 1.495 . S
C3337 H3343 0.959 . S
C3337 H3344 0.961 . S
C3337 H3345 0.960 . S
C3338 C3336 1.381 . S
C3338 C3339 1.394 . S
C3338 H3346 0.930 . S
C3339 C3338 1.394 . S
C3339 C3340 1.383 . S
C3339 H3347 0.929 . S
C3340 C3339 1.383 . S
C3340 C3341 1.377 . S
C3341 H3325 0.930 . S
C3341 C3340 1.377 . S
C3341 C3342 1.379 . S
C3342 H3326 0.931 . S
C3342 C3336 1.383 . S
C3342 C3341 1.379 . S
H3343 C3337 0.959 . S
H3344 C3337 0.961 . S
H3345 C3337 0.960 . S
H3346 C3338 0.930 . S
H3347 C3339 0.929 . S
H3348 C3356 0.929 . S
H3349 C3358 0.930 . S
H3350 C3360 0.930 . S
H3351 C3363 0.929 . S
H3352 C3366 0.930 . S
H3353 C3368 0.960 . S
H3354 C3368 0.960 . S
H3355 C3368 0.960 . S
C3356 H3348 0.929 . S
C3356 C3357 1.377 . S
C3356 C3358 1.384 . S
C3357 C3356 1.377 . S
C3357 C3363 1.390 . S
C3358 H3349 0.930 . S
C3358 C3356 1.384 . S
C3358 C3359 1.372 . S
C3359 C3358 1.372 . S
C3359 C3360 1.400 . S
C3359 C3364 1.490 . S
C3360 H3350 0.930 . S
C3360 C3359 1.400 . S
C3360 C3363 1.386 . S
H3361 C3377 0.930 . S
H3362 C3378 0.931 . S
C3363 H3351 0.929 . S
C3363 C3357 1.390 . S
C3363 C3360 1.386 . S
C3364 C3359 1.490 . S
C3364 C3366 1.395 . S
C3364 C3367 1.403 . S
H3365 C3371 0.930 . S
C3366 H3352 0.930 . S
C3366 C3364 1.395 . S
C3366 C3369 1.403 . S
C3367 C3364 1.403 . S
C3367 C3368 1.524 . S
C3367 C3371 1.400 . S
C3368 H3353 0.960 . S
C3368 H3354 0.960 . S
C3368 H3355 0.960 . S
C3368 C3367 1.524 . S
C3369 C3366 1.403 . S
C3369 C3370 1.392 . S
C3369 C3373 1.495 . S
C3370 C3369 1.392 . S
C3370 C3371 1.385 . S
C3370 C3372 1.478 . S
C3371 H3365 0.930 . S
C3371 C3367 1.400 . S
C3371 C3370 1.385 . S
C3372 C3370 1.478 . S
C3372 C3374 1.381 . S
C3372 C3378 1.383 . S
C3373 C3369 1.495 . S
C3373 H3379 0.959 . S
C3373 H3380 0.961 . S
C3373 H3381 0.960 . S
C3374 C3372 1.381 . S
C3374 C3375 1.394 . S
C3374 H3382 0.930 . S
C3375 C3374 1.394 . S
C3375 C3376 1.383 . S
C3375 H3383 0.929 . S
C3376 C3375 1.383 . S
C3376 C3377 1.377 . S
C3377 H3361 0.930 . S
C3377 C3376 1.377 . S
C3377 C3378 1.379 . S
C3378 H3362 0.931 . S
C3378 C3372 1.383 . S
C3378 C3377 1.379 . S
H3379 C3373 0.959 . S
H3380 C3373 0.961 . S
H3381 C3373 0.960 . S
H3382 C3374 0.930 . S
H3383 C3375 0.929 . S
H3384 C3392 0.929 . S
H3385 C3394 0.930 . S
H3386 C3396 0.930 . S
H3387 C3399 0.929 . S
H3388 C3402 0.930 . S
H3389 C3404 0.960 . S
H3390 C3404 0.960 . S
H3391 C3404 0.960 . S
C3392 H3384 0.929 . S
C3392 C3393 1.377 . S
C3392 C3394 1.384 . S
C3393 C3392 1.377 . S
C3393 C3399 1.390 . S
C3394 H3385 0.930 . S
C3394 C3392 1.384 . S
C3394 C3395 1.372 . S
C3395 C3394 1.372 . S
C3395 C3396 1.400 . S
C3395 C3400 1.490 . S
C3396 H3386 0.930 . S
C3396 C3395 1.400 . S
C3396 C3399 1.386 . S
H3397 C3413 0.930 . S
H3398 C3414 0.931 . S
C3399 H3387 0.929 . S
C3399 C3393 1.390 . S
C3399 C3396 1.386 . S
C3400 C3395 1.490 . S
C3400 C3402 1.395 . S
C3400 C3403 1.403 . S
H3401 C3407 0.930 . S
C3402 H3388 0.930 . S
C3402 C3400 1.395 . S
C3402 C3405 1.403 . S
C3403 C3400 1.403 . S
C3403 C3404 1.524 . S
C3403 C3407 1.400 . S
C3404 H3389 0.960 . S
C3404 H3390 0.960 . S
C3404 H3391 0.960 . S
C3404 C3403 1.524 . S
C3405 C3402 1.403 . S
C3405 C3406 1.392 . S
C3405 C3409 1.495 . S
C3406 C3405 1.392 . S
C3406 C3407 1.385 . S
C3406 C3408 1.478 . S
C3407 H3401 0.930 . S
C3407 C3403 1.400 . S
C3407 C3406 1.385 . S
C3408 C3406 1.478 . S
C3408 C3410 1.381 . S
C3408 C3414 1.383 . S
C3409 C3405 1.495 . S
C3409 H3415 0.959 . S
C3409 H3416 0.961 . S
C3409 H3417 0.960 . S
C3410 C3408 1.381 . S
C3410 C3411 1.394 . S
C3410 H3418 0.930 . S
C3411 C3410 1.394 . S
C3411 C3412 1.383 . S
C3411 H3419 0.929 . S
C3412 C3411 1.383 . S
C3412 C3413 1.377 . S
C3413 H3397 0.930 . S
C3413 C3412 1.377 . S
C3413 C3414 1.379 . S
C3414 H3398 0.931 . S
C3414 C3408 1.383 . S
C3414 C3413 1.379 . S
H3415 C3409 0.959 . S
H3416 C3409 0.961 . S
H3417 C3409 0.960 . S
H3418 C3410 0.930 . S
H3419 C3411 0.929 . S
H3420 C3428 0.929 . S
H3421 C3430 0.930 . S
H3422 C3432 0.930 . S
H3423 C3435 0.929 . S
H3424 C3438 0.930 . S
H3425 C3440 0.960 . S
H3426 C3440 0.960 . S
H3427 C3440 0.960 . S
C3428 H3420 0.929 . S
C3428 C3429 1.377 . S
C3428 C3430 1.384 . S
C3429 C3428 1.377 . S
C3429 C3435 1.390 . S
C3430 H3421 0.930 . S
C3430 C3428 1.384 . S
C3430 C3431 1.372 . S
C3431 C3430 1.372 . S
C3431 C3432 1.400 . S
C3431 C3436 1.490 . S
C3432 H3422 0.930 . S
C3432 C3431 1.400 . S
C3432 C3435 1.386 . S
H3433 C3449 0.930 . S
H3434 C3450 0.931 . S
C3435 H3423 0.929 . S
C3435 C3429 1.390 . S
C3435 C3432 1.386 . S
C3436 C3431 1.490 . S
C3436 C3438 1.395 . S
C3436 C3439 1.403 . S
H3437 C3443 0.930 . S
C3438 H3424 0.930 . S
C3438 C3436 1.395 . S
C3438 C3441 1.403 . S
C3439 C3436 1.403 . S
C3439 C3440 1.524 . S
C3439 C3443 1.400 . S
C3440 H3425 0.960 . S
C3440 H3426 0.960 . S
C3440 H3427 0.960 . S
C3440 C3439 1.524 . S
C3441 C3438 1.403 . S
C3441 C3442 1.392 . S
C3441 C3445 1.495 . S
C3442 C3441 1.392 . S
C3442 C3443 1.385 . S
C3442 C3444 1.478 . S
C3443 H3437 0.930 . S
C3443 C3439 1.400 . S
C3443 C3442 1.385 . S
C3444 C3442 1.478 . S
C3444 C3446 1.381 . S
C3444 C3450 1.383 . S
C3445 C3441 1.495 . S
C3445 H3451 0.959 . S
C3445 H3452 0.961 . S
C3445 H3453 0.960 . S
C3446 C3444 1.381 . S
C3446 C3447 1.394 . S
C3446 H3454 0.930 . S
C3447 C3446 1.394 . S
C3447 C3448 1.383 . S
C3447 H3455 0.929 . S
C3448 C3447 1.383 . S
C3448 C3449 1.377 . S
C3449 H3433 0.930 . S
C3449 C3448 1.377 . S
C3449 C3450 1.379 . S
C3450 H3434 0.931 . S
C3450 C3444 1.383 . S
C3450 C3449 1.379 . S
H3451 C3445 0.959 . S
H3452 C3445 0.961 . S
H3453 C3445 0.960 . S
H3454 C3446 0.930 . S
H3455 C3447 0.929 . S
H3456 C3464 0.929 . S
H3457 C3466 0.930 . S
H3458 C3468 0.930 . S
H3459 C3471 0.929 . S
H3460 C3474 0.930 . S
H3461 C3476 0.960 . S
H3462 C3476 0.960 . S
H3463 C3476 0.960 . S
C3464 H3456 0.929 . S
C3464 C3465 1.377 . S
C3464 C3466 1.384 . S
C3465 C3464 1.377 . S
C3465 C3471 1.390 . S
C3466 H3457 0.930 . S
C3466 C3464 1.384 . S
C3466 C3467 1.372 . S
C3467 C3466 1.372 . S
C3467 C3468 1.400 . S
C3467 C3472 1.490 . S
C3468 H3458 0.930 . S
C3468 C3467 1.400 . S
C3468 C3471 1.386 . S
H3469 C3485 0.930 . S
H3470 C3486 0.931 . S
C3471 H3459 0.929 . S
C3471 C3465 1.390 . S
C3471 C3468 1.386 . S
C3472 C3467 1.490 . S
C3472 C3474 1.395 . S
C3472 C3475 1.403 . S
H3473 C3479 0.930 . S
C3474 H3460 0.930 . S
C3474 C3472 1.395 . S
C3474 C3477 1.403 . S
C3475 C3472 1.403 . S
C3475 C3476 1.524 . S
C3475 C3479 1.400 . S
C3476 H3461 0.960 . S
C3476 H3462 0.960 . S
C3476 H3463 0.960 . S
C3476 C3475 1.524 . S
C3477 C3474 1.403 . S
C3477 C3478 1.392 . S
C3477 C3481 1.495 . S
C3478 C3477 1.392 . S
C3478 C3479 1.385 . S
C3478 C3480 1.478 . S
C3479 H3473 0.930 . S
C3479 C3475 1.400 . S
C3479 C3478 1.385 . S
C3480 C3478 1.478 . S
C3480 C3482 1.381 . S
C3480 C3486 1.383 . S
C3481 C3477 1.495 . S
C3481 H3487 0.959 . S
C3481 H3488 0.961 . S
C3481 H3489 0.960 . S
C3482 C3480 1.381 . S
C3482 C3483 1.394 . S
C3482 H3490 0.930 . S
C3483 C3482 1.394 . S
C3483 C3484 1.383 . S
C3483 H3491 0.929 . S
C3484 C3483 1.383 . S
C3484 C3485 1.377 . S
C3485 H3469 0.930 . S
C3485 C3484 1.377 . S
C3485 C3486 1.379 . S
C3486 H3470 0.931 . S
C3486 C3480 1.383 . S
C3486 C3485 1.379 . S
H3487 C3481 0.959 . S
H3488 C3481 0.961 . S
H3489 C3481 0.960 . S
H3490 C3482 0.930 . S
H3491 C3483 0.929 . S
H3492 C3500 0.929 . S
H3493 C3502 0.930 . S
H3494 C3504 0.930 . S
H3495 C3507 0.929 . S
H3496 C3510 0.930 . S
H3497 C3512 0.960 . S
H3498 C3512 0.960 . S
H3499 C3512 0.960 . S
C3500 H3492 0.929 . S
C3500 C3501 1.377 . S
C3500 C3502 1.384 . S
C3501 C3500 1.377 . S
C3501 C3507 1.390 . S
C3502 H3493 0.930 . S
C3502 C3500 1.384 . S
C3502 C3503 1.372 . S
C3503 C3502 1.372 . S
C3503 C3504 1.400 . S
C3503 C3508 1.490 . S
C3504 H3494 0.930 . S
C3504 C3503 1.400 . S
C3504 C3507 1.386 . S
H3505 C3521 0.930 . S
H3506 C3522 0.931 . S
C3507 H3495 0.929 . S
C3507 C3501 1.390 . S
C3507 C3504 1.386 . S
C3508 C3503 1.490 . S
C3508 C3510 1.395 . S
C3508 C3511 1.403 . S
H3509 C3515 0.930 . S
C3510 H3496 0.930 . S
C3510 C3508 1.395 . S
C3510 C3513 1.403 . S
C3511 C3508 1.403 . S
C3511 C3512 1.524 . S
C3511 C3515 1.400 . S
C3512 H3497 0.960 . S
C3512 H3498 0.960 . S
C3512 H3499 0.960 . S
C3512 C3511 1.524 . S
C3513 C3510 1.403 . S
C3513 C3514 1.392 . S
C3513 C3517 1.495 . S
C3514 C3513 1.392 . S
C3514 C3515 1.385 . S
C3514 C3516 1.478 . S
C3515 H3509 0.930 . S
C3515 C3511 1.400 . S
C3515 C3514 1.385 . S
C3516 C3514 1.478 . S
C3516 C3518 1.381 . S
C3516 C3522 1.383 . S
C3517 C3513 1.495 . S
C3517 H3523 0.959 . S
C3517 H3524 0.961 . S
C3517 H3525 0.960 . S
C3518 C3516 1.381 . S
C3518 C3519 1.394 . S
C3518 H3526 0.930 . S
C3519 C3518 1.394 . S
C3519 C3520 1.383 . S
C3519 H3527 0.929 . S
C3520 C3519 1.383 . S
C3520 C3521 1.377 . S
C3521 H3505 0.930 . S
C3521 C3520 1.377 . S
C3521 C3522 1.379 . S
C3522 H3506 0.931 . S
C3522 C3516 1.383 . S
C3522 C3521 1.379 . S
H3523 C3517 0.959 . S
H3524 C3517 0.961 . S
H3525 C3517 0.960 . S
H3526 C3518 0.930 . S
H3527 C3519 0.929 . S
H3528 C3536 0.929 . S
H3529 C3538 0.930 . S
H3530 C3540 0.930 . S
H3531 C3543 0.929 . S
H3532 C3546 0.930 . S
H3533 C3548 0.960 . S
H3534 C3548 0.960 . S
H3535 C3548 0.960 . S
C3536 H3528 0.929 . S
C3536 C3537 1.377 . S
C3536 C3538 1.384 . S
C3537 C3536 1.377 . S
C3537 C3543 1.390 . S
C3538 H3529 0.930 . S
C3538 C3536 1.384 . S
C3538 C3539 1.372 . S
C3539 C3538 1.372 . S
C3539 C3540 1.400 . S
C3539 C3544 1.490 . S
C3540 H3530 0.930 . S
C3540 C3539 1.400 . S
C3540 C3543 1.386 . S
H3541 C3557 0.930 . S
H3542 C3558 0.931 . S
C3543 H3531 0.929 . S
C3543 C3537 1.390 . S
C3543 C3540 1.386 . S
C3544 C3539 1.490 . S
C3544 C3546 1.395 . S
C3544 C3547 1.403 . S
H3545 C3551 0.930 . S
C3546 H3532 0.930 . S
C3546 C3544 1.395 . S
C3546 C3549 1.403 . S
C3547 C3544 1.403 . S
C3547 C3548 1.524 . S
C3547 C3551 1.400 . S
C3548 H3533 0.960 . S
C3548 H3534 0.960 . S
C3548 H3535 0.960 . S
C3548 C3547 1.524 . S
C3549 C3546 1.403 . S
C3549 C3550 1.392 . S
C3549 C3553 1.495 . S
C3550 C3549 1.392 . S
C3550 C3551 1.385 . S
C3550 C3552 1.478 . S
C3551 H3545 0.930 . S
C3551 C3547 1.400 . S
C3551 C3550 1.385 . S
C3552 C3550 1.478 . S
C3552 C3554 1.381 . S
C3552 C3558 1.383 . S
C3553 C3549 1.495 . S
C3553 H3559 0.959 . S
C3553 H3560 0.961 . S
C3553 H3561 0.960 . S
C3554 C3552 1.381 . S
C3554 C3555 1.394 . S
C3554 H3562 0.930 . S
C3555 C3554 1.394 . S
C3555 C3556 1.383 . S
C3555 H3563 0.929 . S
C3556 C3555 1.383 . S
C3556 C3557 1.377 . S
C3557 H3541 0.930 . S
C3557 C3556 1.377 . S
C3557 C3558 1.379 . S
C3558 H3542 0.931 . S
C3558 C3552 1.383 . S
C3558 C3557 1.379 . S
H3559 C3553 0.959 . S
H3560 C3553 0.961 . S
H3561 C3553 0.960 . S
H3562 C3554 0.930 . S
H3563 C3555 0.929 . S
H3564 C3572 0.929 . S
H3565 C3574 0.930 . S
H3566 C3576 0.930 . S
H3567 C3579 0.929 . S
H3568 C3582 0.930 . S
H3569 C3584 0.960 . S
H3570 C3584 0.960 . S
H3571 C3584 0.960 . S
C3572 H3564 0.929 . S
C3572 C3573 1.377 . S
C3572 C3574 1.384 . S
C3573 C3572 1.377 . S
C3573 C3579 1.390 . S
C3574 H3565 0.930 . S
C3574 C3572 1.384 . S
C3574 C3575 1.372 . S
C3575 C3574 1.372 . S
C3575 C3576 1.400 . S
C3575 C3580 1.490 . S
C3576 H3566 0.930 . S
C3576 C3575 1.400 . S
C3576 C3579 1.386 . S
H3577 C3593 0.930 . S
H3578 C3594 0.931 . S
C3579 H3567 0.929 . S
C3579 C3573 1.390 . S
C3579 C3576 1.386 . S
C3580 C3575 1.490 . S
C3580 C3582 1.395 . S
C3580 C3583 1.403 . S
H3581 C3587 0.930 . S
C3582 H3568 0.930 . S
C3582 C3580 1.395 . S
C3582 C3585 1.403 . S
C3583 C3580 1.403 . S
C3583 C3584 1.524 . S
C3583 C3587 1.400 . S
C3584 H3569 0.960 . S
C3584 H3570 0.960 . S
C3584 H3571 0.960 . S
C3584 C3583 1.524 . S
C3585 C3582 1.403 . S
C3585 C3586 1.392 . S
C3585 C3589 1.495 . S
C3586 C3585 1.392 . S
C3586 C3587 1.385 . S
C3586 C3588 1.478 . S
C3587 H3581 0.930 . S
C3587 C3583 1.400 . S
C3587 C3586 1.385 . S
C3588 C3586 1.478 . S
C3588 C3590 1.381 . S
C3588 C3594 1.383 . S
C3589 C3585 1.495 . S
C3589 H3595 0.959 . S
C3589 H3596 0.961 . S
C3589 H3597 0.960 . S
C3590 C3588 1.381 . S
C3590 C3591 1.394 . S
C3590 H3598 0.930 . S
C3591 C3590 1.394 . S
C3591 C3592 1.383 . S
C3591 H3599 0.929 . S
C3592 C3591 1.383 . S
C3592 C3593 1.377 . S
C3593 H3577 0.930 . S
C3593 C3592 1.377 . S
C3593 C3594 1.379 . S
C3594 H3578 0.931 . S
C3594 C3588 1.383 . S
C3594 C3593 1.379 . S
H3595 C3589 0.959 . S
H3596 C3589 0.961 . S
H3597 C3589 0.960 . S
H3598 C3590 0.930 . S
H3599 C3591 0.929 . S
H3600 C3608 0.929 . S
H3601 C3610 0.930 . S
H3602 C3612 0.930 . S
H3603 C3615 0.929 . S
H3604 C3618 0.930 . S
H3605 C3620 0.960 . S
H3606 C3620 0.960 . S
H3607 C3620 0.960 . S
C3608 H3600 0.929 . S
C3608 C3609 1.377 . S
C3608 C3610 1.384 . S
C3609 C3608 1.377 . S
C3609 C3615 1.390 . S
C3610 H3601 0.930 . S
C3610 C3608 1.384 . S
C3610 C3611 1.372 . S
C3611 C3610 1.372 . S
C3611 C3612 1.400 . S
C3611 C3616 1.490 . S
C3612 H3602 0.930 . S
C3612 C3611 1.400 . S
C3612 C3615 1.386 . S
H3613 C3629 0.930 . S
H3614 C3630 0.931 . S
C3615 H3603 0.929 . S
C3615 C3609 1.390 . S
C3615 C3612 1.386 . S
C3616 C3611 1.490 . S
C3616 C3618 1.395 . S
C3616 C3619 1.403 . S
H3617 C3623 0.930 . S
C3618 H3604 0.930 . S
C3618 C3616 1.395 . S
C3618 C3621 1.403 . S
C3619 C3616 1.403 . S
C3619 C3620 1.524 . S
C3619 C3623 1.400 . S
C3620 H3605 0.960 . S
C3620 H3606 0.960 . S
C3620 H3607 0.960 . S
C3620 C3619 1.524 . S
C3621 C3618 1.403 . S
C3621 C3622 1.392 . S
C3621 C3625 1.495 . S
C3622 C3621 1.392 . S
C3622 C3623 1.385 . S
C3622 C3624 1.478 . S
C3623 H3617 0.930 . S
C3623 C3619 1.400 . S
C3623 C3622 1.385 . S
C3624 C3622 1.478 . S
C3624 C3626 1.381 . S
C3624 C3630 1.383 . S
C3625 C3621 1.495 . S
C3625 H3631 0.959 . S
C3625 H3632 0.961 . S
C3625 H3633 0.960 . S
C3626 C3624 1.381 . S
C3626 C3627 1.394 . S
C3626 H3634 0.930 . S
C3627 C3626 1.394 . S
C3627 C3628 1.383 . S
C3627 H3635 0.929 . S
C3628 C3627 1.383 . S
C3628 C3629 1.377 . S
C3629 H3613 0.930 . S
C3629 C3628 1.377 . S
C3629 C3630 1.379 . S
C3630 H3614 0.931 . S
C3630 C3624 1.383 . S
C3630 C3629 1.379 . S
H3631 C3625 0.959 . S
H3632 C3625 0.961 . S
H3633 C3625 0.960 . S
H3634 C3626 0.930 . S
H3635 C3627 0.929 . S
H3636 C3644 0.929 . S
H3637 C3646 0.930 . S
H3638 C3648 0.930 . S
H3639 C3651 0.929 . S
H3640 C3654 0.930 . S
H3641 C3656 0.960 . S
H3642 C3656 0.960 . S
H3643 C3656 0.960 . S
C3644 H3636 0.929 . S
C3644 C3645 1.377 . S
C3644 C3646 1.384 . S
C3645 C3644 1.377 . S
C3645 C3651 1.390 . S
C3646 H3637 0.930 . S
C3646 C3644 1.384 . S
C3646 C3647 1.372 . S
C3647 C3646 1.372 . S
C3647 C3648 1.400 . S
C3647 C3652 1.490 . S
C3648 H3638 0.930 . S
C3648 C3647 1.400 . S
C3648 C3651 1.386 . S
H3649 C3665 0.930 . S
H3650 C3666 0.931 . S
C3651 H3639 0.929 . S
C3651 C3645 1.390 . S
C3651 C3648 1.386 . S
C3652 C3647 1.490 . S
C3652 C3654 1.395 . S
C3652 C3655 1.403 . S
H3653 C3659 0.930 . S
C3654 H3640 0.930 . S
C3654 C3652 1.395 . S
C3654 C3657 1.403 . S
C3655 C3652 1.403 . S
C3655 C3656 1.524 . S
C3655 C3659 1.400 . S
C3656 H3641 0.960 . S
C3656 H3642 0.960 . S
C3656 H3643 0.960 . S
C3656 C3655 1.524 . S
C3657 C3654 1.403 . S
C3657 C3658 1.392 . S
C3657 C3661 1.495 . S
C3658 C3657 1.392 . S
C3658 C3659 1.385 . S
C3658 C3660 1.478 . S
C3659 H3653 0.930 . S
C3659 C3655 1.400 . S
C3659 C3658 1.385 . S
C3660 C3658 1.478 . S
C3660 C3662 1.381 . S
C3660 C3666 1.383 . S
C3661 C3657 1.495 . S
C3661 H3667 0.959 . S
C3661 H3668 0.961 . S
C3661 H3669 0.960 . S
C3662 C3660 1.381 . S
C3662 C3663 1.394 . S
C3662 H3670 0.930 . S
C3663 C3662 1.394 . S
C3663 C3664 1.383 . S
C3663 H3671 0.929 . S
C3664 C3663 1.383 . S
C3664 C3665 1.377 . S
C3665 H3649 0.930 . S
C3665 C3664 1.377 . S
C3665 C3666 1.379 . S
C3666 H3650 0.931 . S
C3666 C3660 1.383 . S
C3666 C3665 1.379 . S
H3667 C3661 0.959 . S
H3668 C3661 0.961 . S
H3669 C3661 0.960 . S
H3670 C3662 0.930 . S
H3671 C3663 0.929 . S
H3672 C3680 0.929 . S
H3673 C3682 0.930 . S
H3674 C3684 0.930 . S
H3675 C3687 0.929 . S
H3676 C3690 0.930 . S
H3677 C3692 0.960 . S
H3678 C3692 0.960 . S
H3679 C3692 0.960 . S
C3680 H3672 0.929 . S
C3680 C3681 1.377 . S
C3680 C3682 1.384 . S
C3681 C3680 1.377 . S
C3681 C3687 1.390 . S
C3682 H3673 0.930 . S
C3682 C3680 1.384 . S
C3682 C3683 1.372 . S
C3683 C3682 1.372 . S
C3683 C3684 1.400 . S
C3683 C3688 1.490 . S
C3684 H3674 0.930 . S
C3684 C3683 1.400 . S
C3684 C3687 1.386 . S
H3685 C3701 0.930 . S
H3686 C3702 0.931 . S
C3687 H3675 0.929 . S
C3687 C3681 1.390 . S
C3687 C3684 1.386 . S
C3688 C3683 1.490 . S
C3688 C3690 1.395 . S
C3688 C3691 1.403 . S
H3689 C3695 0.930 . S
C3690 H3676 0.930 . S
C3690 C3688 1.395 . S
C3690 C3693 1.403 . S
C3691 C3688 1.403 . S
C3691 C3692 1.524 . S
C3691 C3695 1.400 . S
C3692 H3677 0.960 . S
C3692 H3678 0.960 . S
C3692 H3679 0.960 . S
C3692 C3691 1.524 . S
C3693 C3690 1.403 . S
C3693 C3694 1.392 . S
C3693 C3697 1.495 . S
C3694 C3693 1.392 . S
C3694 C3695 1.385 . S
C3694 C3696 1.478 . S
C3695 H3689 0.930 . S
C3695 C3691 1.400 . S
C3695 C3694 1.385 . S
C3696 C3694 1.478 . S
C3696 C3698 1.381 . S
C3696 C3702 1.383 . S
C3697 C3693 1.495 . S
C3697 H3703 0.959 . S
C3697 H3704 0.961 . S
C3697 H3705 0.960 . S
C3698 C3696 1.381 . S
C3698 C3699 1.394 . S
C3698 H3706 0.930 . S
C3699 C3698 1.394 . S
C3699 C3700 1.383 . S
C3699 H3707 0.929 . S
C3700 C3699 1.383 . S
C3700 C3701 1.377 . S
C3701 H3685 0.930 . S
C3701 C3700 1.377 . S
C3701 C3702 1.379 . S
C3702 H3686 0.931 . S
C3702 C3696 1.383 . S
C3702 C3701 1.379 . S
H3703 C3697 0.959 . S
H3704 C3697 0.961 . S
H3705 C3697 0.960 . S
H3706 C3698 0.930 . S
H3707 C3699 0.929 . S
H3708 C3716 0.929 . S
H3709 C3718 0.930 . S
H3710 C3720 0.930 . S
H3711 C3723 0.929 . S
H3712 C3726 0.930 . S
H3713 C3728 0.960 . S
H3714 C3728 0.960 . S
H3715 C3728 0.960 . S
C3716 H3708 0.929 . S
C3716 C3717 1.377 . S
C3716 C3718 1.384 . S
C3717 C3716 1.377 . S
C3717 C3723 1.390 . S
C3718 H3709 0.930 . S
C3718 C3716 1.384 . S
C3718 C3719 1.372 . S
C3719 C3718 1.372 . S
C3719 C3720 1.400 . S
C3719 C3724 1.490 . S
C3720 H3710 0.930 . S
C3720 C3719 1.400 . S
C3720 C3723 1.386 . S
H3721 C3737 0.930 . S
H3722 C3738 0.931 . S
C3723 H3711 0.929 . S
C3723 C3717 1.390 . S
C3723 C3720 1.386 . S
C3724 C3719 1.490 . S
C3724 C3726 1.395 . S
C3724 C3727 1.403 . S
H3725 C3731 0.930 . S
C3726 H3712 0.930 . S
C3726 C3724 1.395 . S
C3726 C3729 1.403 . S
C3727 C3724 1.403 . S
C3727 C3728 1.524 . S
C3727 C3731 1.400 . S
C3728 H3713 0.960 . S
C3728 H3714 0.960 . S
C3728 H3715 0.960 . S
C3728 C3727 1.524 . S
C3729 C3726 1.403 . S
C3729 C3730 1.392 . S
C3729 C3733 1.495 . S
C3730 C3729 1.392 . S
C3730 C3731 1.385 . S
C3730 C3732 1.478 . S
C3731 H3725 0.930 . S
C3731 C3727 1.400 . S
C3731 C3730 1.385 . S
C3732 C3730 1.478 . S
C3732 C3734 1.381 . S
C3732 C3738 1.383 . S
C3733 C3729 1.495 . S
C3733 H3739 0.959 . S
C3733 H3740 0.961 . S
C3733 H3741 0.960 . S
C3734 C3732 1.381 . S
C3734 C3735 1.394 . S
C3734 H3742 0.930 . S
C3735 C3734 1.394 . S
C3735 C3736 1.383 . S
C3735 H3743 0.929 . S
C3736 C3735 1.383 . S
C3736 C3737 1.377 . S
C3737 H3721 0.930 . S
C3737 C3736 1.377 . S
C3737 C3738 1.379 . S
C3738 H3722 0.931 . S
C3738 C3732 1.383 . S
C3738 C3737 1.379 . S
H3739 C3733 0.959 . S
H3740 C3733 0.961 . S
H3741 C3733 0.960 . S
H3742 C3734 0.930 . S
H3743 C3735 0.929 . S
H3744 C3752 0.929 . S
H3745 C3754 0.930 . S
H3746 C3756 0.930 . S
H3747 C3759 0.929 . S
H3748 C3762 0.930 . S
H3749 C3764 0.960 . S
H3750 C3764 0.960 . S
H3751 C3764 0.960 . S
C3752 H3744 0.929 . S
C3752 C3753 1.377 . S
C3752 C3754 1.384 . S
C3753 C3752 1.377 . S
C3753 C3759 1.390 . S
C3754 H3745 0.930 . S
C3754 C3752 1.384 . S
C3754 C3755 1.372 . S
C3755 C3754 1.372 . S
C3755 C3756 1.400 . S
C3755 C3760 1.490 . S
C3756 H3746 0.930 . S
C3756 C3755 1.400 . S
C3756 C3759 1.386 . S
H3757 C3773 0.930 . S
H3758 C3774 0.931 . S
C3759 H3747 0.929 . S
C3759 C3753 1.390 . S
C3759 C3756 1.386 . S
C3760 C3755 1.490 . S
C3760 C3762 1.395 . S
C3760 C3763 1.403 . S
H3761 C3767 0.930 . S
C3762 H3748 0.930 . S
C3762 C3760 1.395 . S
C3762 C3765 1.403 . S
C3763 C3760 1.403 . S
C3763 C3764 1.524 . S
C3763 C3767 1.400 . S
C3764 H3749 0.960 . S
C3764 H3750 0.960 . S
C3764 H3751 0.960 . S
C3764 C3763 1.524 . S
C3765 C3762 1.403 . S
C3765 C3766 1.392 . S
C3765 C3769 1.495 . S
C3766 C3765 1.392 . S
C3766 C3767 1.385 . S
C3766 C3768 1.478 . S
C3767 H3761 0.930 . S
C3767 C3763 1.400 . S
C3767 C3766 1.385 . S
C3768 C3766 1.478 . S
C3768 C3770 1.381 . S
C3768 C3774 1.383 . S
C3769 C3765 1.495 . S
C3769 H3775 0.959 . S
C3769 H3776 0.961 . S
C3769 H3777 0.960 . S
C3770 C3768 1.381 . S
C3770 C3771 1.394 . S
C3770 H3778 0.930 . S
C3771 C3770 1.394 . S
C3771 C3772 1.383 . S
C3771 H3779 0.929 . S
C3772 C3771 1.383 . S
C3772 C3773 1.377 . S
C3773 H3757 0.930 . S
C3773 C3772 1.377 . S
C3773 C3774 1.379 . S
C3774 H3758 0.931 . S
C3774 C3768 1.383 . S
C3774 C3773 1.379 . S
H3775 C3769 0.959 . S
H3776 C3769 0.961 . S
H3777 C3769 0.960 . S
H3778 C3770 0.930 . S
H3779 C3771 0.929 . S
H3780 C3788 0.929 1_554 S
H3781 C3790 0.930 . S
H3782 C3792 0.930 . S
H3783 C3795 0.929 . S
H3784 C3798 0.930 . S
H3785 C3800 0.960 . S
H3786 C3800 0.960 . S
H3787 C3800 0.960 . S
C3788 H3780 0.929 1_556 S
C3788 C3789 1.377 . S
C3788 C3790 1.384 . S
C3789 C3788 1.377 . S
C3789 C3795 1.390 . S
C3790 H3781 0.930 . S
C3790 C3788 1.384 . S
C3790 C3791 1.372 . S
C3791 C3790 1.372 . S
C3791 C3792 1.400 . S
C3791 C3796 1.490 . S
C3792 H3782 0.930 . S
C3792 C3791 1.400 . S
C3792 C3795 1.386 . S
H3793 C3809 0.930 . S
H3794 C3810 0.931 . S
C3795 H3783 0.929 . S
C3795 C3789 1.390 . S
C3795 C3792 1.386 . S
C3796 C3791 1.490 . S
C3796 C3798 1.395 . S
C3796 C3799 1.403 . S
H3797 C3803 0.930 . S
C3798 H3784 0.930 . S
C3798 C3796 1.395 . S
C3798 C3801 1.403 . S
C3799 C3796 1.403 . S
C3799 C3800 1.524 . S
C3799 C3803 1.400 . S
C3800 H3785 0.960 . S
C3800 H3786 0.960 . S
C3800 H3787 0.960 . S
C3800 C3799 1.524 . S
C3801 C3798 1.403 . S
C3801 C3802 1.392 . S
C3801 C3805 1.495 . S
C3802 C3801 1.392 . S
C3802 C3803 1.385 . S
C3802 C3804 1.478 . S
C3803 H3797 0.930 . S
C3803 C3799 1.400 . S
C3803 C3802 1.385 . S
C3804 C3802 1.478 . S
C3804 C3806 1.381 . S
C3804 C3810 1.383 . S
C3805 C3801 1.495 . S
C3805 H3811 0.959 . S
C3805 H3812 0.961 . S
C3805 H3813 0.960 . S
C3806 C3804 1.381 . S
C3806 C3807 1.394 . S
C3806 H3814 0.930 . S
C3807 C3806 1.394 . S
C3807 C3808 1.383 . S
C3807 H3815 0.929 . S
C3808 C3807 1.383 . S
C3808 C3809 1.377 . S
C3809 H3793 0.930 . S
C3809 C3808 1.377 . S
C3809 C3810 1.379 . S
C3810 H3794 0.931 . S
C3810 C3804 1.383 . S
C3810 C3809 1.379 . S
H3811 C3805 0.959 . S
H3812 C3805 0.961 . S
H3813 C3805 0.960 . S
H3814 C3806 0.930 . S
H3815 C3807 0.929 . S
H3816 C3824 0.929 1_554 S
H3817 C3826 0.930 . S
H3818 C3828 0.930 . S
H3819 C3831 0.929 . S
H3820 C3834 0.930 . S
H3821 C3836 0.960 . S
H3822 C3836 0.960 . S
H3823 C3836 0.960 . S
C3824 H3816 0.929 1_556 S
C3824 C3825 1.377 . S
C3824 C3826 1.384 . S
C3825 C3824 1.377 . S
C3825 C3831 1.390 . S
C3826 H3817 0.930 . S
C3826 C3824 1.384 . S
C3826 C3827 1.372 . S
C3827 C3826 1.372 . S
C3827 C3828 1.400 . S
C3827 C3832 1.490 . S
C3828 H3818 0.930 . S
C3828 C3827 1.400 . S
C3828 C3831 1.386 . S
H3829 C3845 0.930 . S
H3830 C3846 0.931 . S
C3831 H3819 0.929 . S
C3831 C3825 1.390 . S
C3831 C3828 1.386 . S
C3832 C3827 1.490 . S
C3832 C3834 1.395 . S
C3832 C3835 1.403 . S
H3833 C3839 0.930 . S
C3834 H3820 0.930 . S
C3834 C3832 1.395 . S
C3834 C3837 1.403 . S
C3835 C3832 1.403 . S
C3835 C3836 1.524 . S
C3835 C3839 1.400 . S
C3836 H3821 0.960 . S
C3836 H3822 0.960 . S
C3836 H3823 0.960 . S
C3836 C3835 1.524 . S
C3837 C3834 1.403 . S
C3837 C3838 1.392 . S
C3837 C3841 1.495 . S
C3838 C3837 1.392 . S
C3838 C3839 1.385 . S
C3838 C3840 1.478 . S
C3839 H3833 0.930 . S
C3839 C3835 1.400 . S
C3839 C3838 1.385 . S
C3840 C3838 1.478 . S
C3840 C3842 1.381 . S
C3840 C3846 1.383 . S
C3841 C3837 1.495 . S
C3841 H3847 0.959 . S
C3841 H3848 0.961 . S
C3841 H3849 0.960 . S
C3842 C3840 1.381 . S
C3842 C3843 1.394 . S
C3842 H3850 0.930 . S
C3843 C3842 1.394 . S
C3843 C3844 1.383 . S
C3843 H3851 0.929 . S
C3844 C3843 1.383 . S
C3844 C3845 1.377 . S
C3845 H3829 0.930 . S
C3845 C3844 1.377 . S
C3845 C3846 1.379 . S
C3846 H3830 0.931 . S
C3846 C3840 1.383 . S
C3846 C3845 1.379 . S
H3847 C3841 0.959 . S
H3848 C3841 0.961 . S
H3849 C3841 0.960 . S
H3850 C3842 0.930 . S
H3851 C3843 0.929 . S
H3852 C3860 0.929 . S
H3853 C3862 0.930 . S
H3854 C3864 0.930 . S
H3855 C3867 0.929 . S
H3856 C3870 0.930 . S
H3857 C3872 0.960 . S
H3858 C3872 0.960 . S
H3859 C3872 0.960 . S
C3860 H3852 0.929 . S
C3860 C3861 1.377 . S
C3860 C3862 1.384 . S
C3861 C3860 1.377 . S
C3861 C3867 1.390 . S
C3862 H3853 0.930 . S
C3862 C3860 1.384 . S
C3862 C3863 1.372 . S
C3863 C3862 1.372 . S
C3863 C3864 1.400 . S
C3863 C3868 1.490 . S
C3864 H3854 0.930 . S
C3864 C3863 1.400 . S
C3864 C3867 1.386 . S
H3865 C3881 0.930 . S
H3866 C3882 0.931 . S
C3867 H3855 0.929 . S
C3867 C3861 1.390 . S
C3867 C3864 1.386 . S
C3868 C3863 1.490 . S
C3868 C3870 1.395 . S
C3868 C3871 1.403 . S
H3869 C3875 0.930 . S
C3870 H3856 0.930 . S
C3870 C3868 1.395 . S
C3870 C3873 1.403 . S
C3871 C3868 1.403 . S
C3871 C3872 1.524 . S
C3871 C3875 1.400 . S
C3872 H3857 0.960 . S
C3872 H3858 0.960 . S
C3872 H3859 0.960 . S
C3872 C3871 1.524 . S
C3873 C3870 1.403 . S
C3873 C3874 1.392 . S
C3873 C3877 1.495 . S
C3874 C3873 1.392 . S
C3874 C3875 1.385 . S
C3874 C3876 1.478 . S
C3875 H3869 0.930 . S
C3875 C3871 1.400 . S
C3875 C3874 1.385 . S
C3876 C3874 1.478 . S
C3876 C3878 1.381 . S
C3876 C3882 1.383 . S
C3877 C3873 1.495 . S
C3877 H3883 0.959 . S
C3877 H3884 0.961 . S
C3877 H3885 0.960 . S
C3878 C3876 1.381 . S
C3878 C3879 1.394 . S
C3878 H3886 0.930 . S
C3879 C3878 1.394 . S
C3879 C3880 1.383 . S
C3879 H3887 0.929 . S
C3880 C3879 1.383 . S
C3880 C3881 1.377 . S
C3881 H3865 0.930 . S
C3881 C3880 1.377 . S
C3881 C3882 1.379 . S
C3882 H3866 0.931 . S
C3882 C3876 1.383 . S
C3882 C3881 1.379 . S
H3883 C3877 0.959 . S
H3884 C3877 0.961 . S
H3885 C3877 0.960 . S
H3886 C3878 0.930 . S
H3887 C3879 0.929 . S
H3888 C3896 0.929 . S
H3889 C3898 0.930 . S
H3890 C3900 0.930 . S
H3891 C3903 0.929 . S
H3892 C3906 0.930 . S
H3893 C3908 0.960 . S
H3894 C3908 0.960 . S
H3895 C3908 0.960 . S
C3896 H3888 0.929 . S
C3896 C3897 1.377 . S
C3896 C3898 1.384 . S
C3897 C3896 1.377 . S
C3897 C3903 1.390 . S
C3898 H3889 0.930 . S
C3898 C3896 1.384 . S
C3898 C3899 1.372 . S
C3899 C3898 1.372 . S
C3899 C3900 1.400 . S
C3899 C3904 1.490 . S
C3900 H3890 0.930 . S
C3900 C3899 1.400 . S
C3900 C3903 1.386 . S
H3901 C3917 0.930 . S
H3902 C3918 0.931 . S
C3903 H3891 0.929 . S
C3903 C3897 1.390 . S
C3903 C3900 1.386 . S
C3904 C3899 1.490 . S
C3904 C3906 1.395 . S
C3904 C3907 1.403 . S
H3905 C3911 0.930 . S
C3906 H3892 0.930 . S
C3906 C3904 1.395 . S
C3906 C3909 1.403 . S
C3907 C3904 1.403 . S
C3907 C3908 1.524 . S
C3907 C3911 1.400 . S
C3908 H3893 0.960 . S
C3908 H3894 0.960 . S
C3908 H3895 0.960 . S
C3908 C3907 1.524 . S
C3909 C3906 1.403 . S
C3909 C3910 1.392 . S
C3909 C3913 1.495 . S
C3910 C3909 1.392 . S
C3910 C3911 1.385 . S
C3910 C3912 1.478 . S
C3911 H3905 0.930 . S
C3911 C3907 1.400 . S
C3911 C3910 1.385 . S
C3912 C3910 1.478 . S
C3912 C3914 1.381 . S
C3912 C3918 1.383 . S
C3913 C3909 1.495 . S
C3913 H3919 0.959 . S
C3913 H3920 0.961 . S
C3913 H3921 0.960 . S
C3914 C3912 1.381 . S
C3914 C3915 1.394 . S
C3914 H3922 0.930 . S
C3915 C3914 1.394 . S
C3915 C3916 1.383 . S
C3915 H3923 0.929 . S
C3916 C3915 1.383 . S
C3916 C3917 1.377 . S
C3917 H3901 0.930 . S
C3917 C3916 1.377 . S
C3917 C3918 1.379 . S
C3918 H3902 0.931 . S
C3918 C3912 1.383 . S
C3918 C3917 1.379 . S
H3919 C3913 0.959 . S
H3920 C3913 0.961 . S
H3921 C3913 0.960 . S
H3922 C3914 0.930 . S
H3923 C3915 0.929 . S
H3924 C3932 0.929 . S
H3925 C3934 0.930 . S
H3926 C3936 0.930 . S
H3927 C3939 0.929 . S
H3928 C3942 0.930 . S
H3929 C3944 0.960 . S
H3930 C3944 0.960 . S
H3931 C3944 0.960 . S
C3932 H3924 0.929 . S
C3932 C3933 1.377 . S
C3932 C3934 1.384 . S
C3933 C3932 1.377 . S
C3933 C3939 1.390 . S
C3934 H3925 0.930 . S
C3934 C3932 1.384 . S
C3934 C3935 1.372 . S
C3935 C3934 1.372 . S
C3935 C3936 1.400 . S
C3935 C3940 1.490 . S
C3936 H3926 0.930 . S
C3936 C3935 1.400 . S
C3936 C3939 1.386 . S
H3937 C3953 0.930 . S
H3938 C3954 0.931 . S
C3939 H3927 0.929 . S
C3939 C3933 1.390 . S
C3939 C3936 1.386 . S
C3940 C3935 1.490 . S
C3940 C3942 1.395 . S
C3940 C3943 1.403 . S
H3941 C3947 0.930 . S
C3942 H3928 0.930 . S
C3942 C3940 1.395 . S
C3942 C3945 1.403 . S
C3943 C3940 1.403 . S
C3943 C3944 1.524 . S
C3943 C3947 1.400 . S
C3944 H3929 0.960 . S
C3944 H3930 0.960 . S
C3944 H3931 0.960 . S
C3944 C3943 1.524 . S
C3945 C3942 1.403 . S
C3945 C3946 1.392 . S
C3945 C3949 1.495 . S
C3946 C3945 1.392 . S
C3946 C3947 1.385 . S
C3946 C3948 1.478 . S
C3947 H3941 0.930 . S
C3947 C3943 1.400 . S
C3947 C3946 1.385 . S
C3948 C3946 1.478 . S
C3948 C3950 1.381 . S
C3948 C3954 1.383 . S
C3949 C3945 1.495 . S
C3949 H3955 0.959 . S
C3949 H3956 0.961 . S
C3949 H3957 0.960 . S
C3950 C3948 1.381 . S
C3950 C3951 1.394 . S
C3950 H3958 0.930 . S
C3951 C3950 1.394 . S
C3951 C3952 1.383 . S
C3951 H3959 0.929 . S
C3952 C3951 1.383 . S
C3952 C3953 1.377 . S
C3953 H3937 0.930 . S
C3953 C3952 1.377 . S
C3953 C3954 1.379 . S
C3954 H3938 0.931 . S
C3954 C3948 1.383 . S
C3954 C3953 1.379 . S
H3955 C3949 0.959 . S
H3956 C3949 0.961 . S
H3957 C3949 0.960 . S
H3958 C3950 0.930 . S
H3959 C3951 0.929 . S
H3960 C3968 0.929 . S
H3961 C3970 0.930 . S
H3962 C3972 0.930 . S
H3963 C3975 0.929 . S
H3964 C3978 0.930 . S
H3965 C3980 0.960 . S
H3966 C3980 0.960 . S
H3967 C3980 0.960 . S
C3968 H3960 0.929 . S
C3968 C3969 1.377 . S
C3968 C3970 1.384 . S
C3969 C3968 1.377 . S
C3969 C3975 1.390 . S
C3970 H3961 0.930 . S
C3970 C3968 1.384 . S
C3970 C3971 1.372 . S
C3971 C3970 1.372 . S
C3971 C3972 1.400 . S
C3971 C3976 1.490 . S
C3972 H3962 0.930 . S
C3972 C3971 1.400 . S
C3972 C3975 1.386 . S
H3973 C3989 0.930 . S
H3974 C3990 0.931 . S
C3975 H3963 0.929 . S
C3975 C3969 1.390 . S
C3975 C3972 1.386 . S
C3976 C3971 1.490 . S
C3976 C3978 1.395 . S
C3976 C3979 1.403 . S
H3977 C3983 0.930 . S
C3978 H3964 0.930 . S
C3978 C3976 1.395 . S
C3978 C3981 1.403 . S
C3979 C3976 1.403 . S
C3979 C3980 1.524 . S
C3979 C3983 1.400 . S
C3980 H3965 0.960 . S
C3980 H3966 0.960 . S
C3980 H3967 0.960 . S
C3980 C3979 1.524 . S
C3981 C3978 1.403 . S
C3981 C3982 1.392 . S
C3981 C3985 1.495 . S
C3982 C3981 1.392 . S
C3982 C3983 1.385 . S
C3982 C3984 1.478 . S
C3983 H3977 0.930 . S
C3983 C3979 1.400 . S
C3983 C3982 1.385 . S
C3984 C3982 1.478 . S
C3984 C3986 1.381 . S
C3984 C3990 1.383 . S
C3985 C3981 1.495 . S
C3985 H3991 0.959 . S
C3985 H3992 0.961 . S
C3985 H3993 0.960 . S
C3986 C3984 1.381 . S
C3986 C3987 1.394 . S
C3986 H3994 0.930 . S
C3987 C3986 1.394 . S
C3987 C3988 1.383 . S
C3987 H3995 0.929 . S
C3988 C3987 1.383 . S
C3988 C3989 1.377 . S
C3989 H3973 0.930 . S
C3989 C3988 1.377 . S
C3989 C3990 1.379 . S
C3990 H3974 0.931 . S
C3990 C3984 1.383 . S
C3990 C3989 1.379 . S
H3991 C3985 0.959 . S
H3992 C3985 0.961 . S
H3993 C3985 0.960 . S
H3994 C3986 0.930 . S
H3995 C3987 0.929 . S
H3996 C4004 0.929 . S
H3997 C4006 0.930 . S
H3998 C4008 0.930 . S
H3999 C4011 0.929 . S
H4000 C4014 0.930 . S
H4001 C4016 0.960 . S
H4002 C4016 0.960 . S
H4003 C4016 0.960 . S
C4004 H3996 0.929 . S
C4004 C4005 1.377 . S
C4004 C4006 1.384 . S
C4005 C4004 1.377 . S
C4005 C4011 1.390 . S
C4006 H3997 0.930 . S
C4006 C4004 1.384 . S
C4006 C4007 1.372 . S
C4007 C4006 1.372 . S
C4007 C4008 1.400 . S
C4007 C4012 1.490 . S
C4008 H3998 0.930 . S
C4008 C4007 1.400 . S
C4008 C4011 1.386 . S
H4009 C4025 0.930 . S
H4010 C4026 0.931 . S
C4011 H3999 0.929 . S
C4011 C4005 1.390 . S
C4011 C4008 1.386 . S
C4012 C4007 1.490 . S
C4012 C4014 1.395 . S
C4012 C4015 1.403 . S
H4013 C4019 0.930 . S
C4014 H4000 0.930 . S
C4014 C4012 1.395 . S
C4014 C4017 1.403 . S
C4015 C4012 1.403 . S
C4015 C4016 1.524 . S
C4015 C4019 1.400 . S
C4016 H4001 0.960 . S
C4016 H4002 0.960 . S
C4016 H4003 0.960 . S
C4016 C4015 1.524 . S
C4017 C4014 1.403 . S
C4017 C4018 1.392 . S
C4017 C4021 1.495 . S
C4018 C4017 1.392 . S
C4018 C4019 1.385 . S
C4018 C4020 1.478 . S
C4019 H4013 0.930 . S
C4019 C4015 1.400 . S
C4019 C4018 1.385 . S
C4020 C4018 1.478 . S
C4020 C4022 1.381 . S
C4020 C4026 1.383 . S
C4021 C4017 1.495 . S
C4021 H4027 0.959 . S
C4021 H4028 0.961 . S
C4021 H4029 0.960 . S
C4022 C4020 1.381 . S
C4022 C4023 1.394 . S
C4022 H4030 0.930 . S
C4023 C4022 1.394 . S
C4023 C4024 1.383 . S
C4023 H4031 0.929 . S
C4024 C4023 1.383 . S
C4024 C4025 1.377 . S
C4025 H4009 0.930 . S
C4025 C4024 1.377 . S
C4025 C4026 1.379 . S
C4026 H4010 0.931 . S
C4026 C4020 1.383 . S
C4026 C4025 1.379 . S
H4027 C4021 0.959 . S
H4028 C4021 0.961 . S
H4029 C4021 0.960 . S
H4030 C4022 0.930 . S
H4031 C4023 0.929 . S
H4032 C4040 0.929 . S
H4033 C4042 0.930 . S
H4034 C4044 0.930 . S
H4035 C4047 0.929 . S
H4036 C4050 0.930 . S
H4037 C4052 0.960 . S
H4038 C4052 0.960 . S
H4039 C4052 0.960 . S
C4040 H4032 0.929 . S
C4040 C4041 1.377 . S
C4040 C4042 1.384 . S
C4041 C4040 1.377 . S
C4041 C4047 1.390 . S
C4042 H4033 0.930 . S
C4042 C4040 1.384 . S
C4042 C4043 1.372 . S
C4043 C4042 1.372 . S
C4043 C4044 1.400 . S
C4043 C4048 1.490 . S
C4044 H4034 0.930 . S
C4044 C4043 1.400 . S
C4044 C4047 1.386 . S
H4045 C4061 0.930 . S
H4046 C4062 0.931 . S
C4047 H4035 0.929 . S
C4047 C4041 1.390 . S
C4047 C4044 1.386 . S
C4048 C4043 1.490 . S
C4048 C4050 1.395 . S
C4048 C4051 1.403 . S
H4049 C4055 0.930 . S
C4050 H4036 0.930 . S
C4050 C4048 1.395 . S
C4050 C4053 1.403 . S
C4051 C4048 1.403 . S
C4051 C4052 1.524 . S
C4051 C4055 1.400 . S
C4052 H4037 0.960 . S
C4052 H4038 0.960 . S
C4052 H4039 0.960 . S
C4052 C4051 1.524 . S
C4053 C4050 1.403 . S
C4053 C4054 1.392 . S
C4053 C4057 1.495 . S
C4054 C4053 1.392 . S
C4054 C4055 1.385 . S
C4054 C4056 1.478 . S
C4055 H4049 0.930 . S
C4055 C4051 1.400 . S
C4055 C4054 1.385 . S
C4056 C4054 1.478 . S
C4056 C4058 1.381 . S
C4056 C4062 1.383 . S
C4057 C4053 1.495 . S
C4057 H4063 0.959 . S
C4057 H4064 0.961 . S
C4057 H4065 0.960 . S
C4058 C4056 1.381 . S
C4058 C4059 1.394 . S
C4058 H4066 0.930 . S
C4059 C4058 1.394 . S
C4059 C4060 1.383 . S
C4059 H4067 0.929 . S
C4060 C4059 1.383 . S
C4060 C4061 1.377 . S
C4061 H4045 0.930 . S
C4061 C4060 1.377 . S
C4061 C4062 1.379 . S
C4062 H4046 0.931 . S
C4062 C4056 1.383 . S
C4062 C4061 1.379 . S
H4063 C4057 0.959 . S
H4064 C4057 0.961 . S
H4065 C4057 0.960 . S
H4066 C4058 0.930 . S
H4067 C4059 0.929 . S
H4068 C4076 0.929 . S
H4069 C4078 0.930 . S
H4070 C4080 0.930 . S
H4071 C4083 0.929 . S
H4072 C4086 0.930 . S
H4073 C4088 0.960 . S
H4074 C4088 0.960 . S
H4075 C4088 0.960 . S
C4076 H4068 0.929 . S
C4076 C4077 1.377 . S
C4076 C4078 1.384 . S
C4077 C4076 1.377 . S
C4077 C4083 1.390 . S
C4078 H4069 0.930 . S
C4078 C4076 1.384 . S
C4078 C4079 1.372 . S
C4079 C4078 1.372 . S
C4079 C4080 1.400 . S
C4079 C4084 1.490 . S
C4080 H4070 0.930 . S
C4080 C4079 1.400 . S
C4080 C4083 1.386 . S
H4081 C4097 0.930 . S
H4082 C4098 0.931 . S
C4083 H4071 0.929 . S
C4083 C4077 1.390 . S
C4083 C4080 1.386 . S
C4084 C4079 1.490 . S
C4084 C4086 1.395 . S
C4084 C4087 1.403 . S
H4085 C4091 0.930 . S
C4086 H4072 0.930 . S
C4086 C4084 1.395 . S
C4086 C4089 1.403 . S
C4087 C4084 1.403 . S
C4087 C4088 1.524 . S
C4087 C4091 1.400 . S
C4088 H4073 0.960 . S
C4088 H4074 0.960 . S
C4088 H4075 0.960 . S
C4088 C4087 1.524 . S
C4089 C4086 1.403 . S
C4089 C4090 1.392 . S
C4089 C4093 1.495 . S
C4090 C4089 1.392 . S
C4090 C4091 1.385 . S
C4090 C4092 1.478 . S
C4091 H4085 0.930 . S
C4091 C4087 1.400 . S
C4091 C4090 1.385 . S
C4092 C4090 1.478 . S
C4092 C4094 1.381 . S
C4092 C4098 1.383 . S
C4093 C4089 1.495 . S
C4093 H4099 0.959 . S
C4093 H4100 0.961 . S
C4093 H4101 0.960 . S
C4094 C4092 1.381 . S
C4094 C4095 1.394 . S
C4094 H4102 0.930 . S
C4095 C4094 1.394 . S
C4095 C4096 1.383 . S
C4095 H4103 0.929 . S
C4096 C4095 1.383 . S
C4096 C4097 1.377 . S
C4097 H4081 0.930 . S
C4097 C4096 1.377 . S
C4097 C4098 1.379 . S
C4098 H4082 0.931 . S
C4098 C4092 1.383 . S
C4098 C4097 1.379 . S
H4099 C4093 0.959 . S
H4100 C4093 0.961 . S
H4101 C4093 0.960 . S
H4102 C4094 0.930 . S
H4103 C4095 0.929 . S
H4104 C4112 0.929 . S
H4105 C4114 0.930 . S
H4106 C4116 0.930 . S
H4107 C4119 0.929 . S
H4108 C4122 0.930 . S
H4109 C4124 0.960 . S
H4110 C4124 0.960 . S
H4111 C4124 0.960 . S
C4112 H4104 0.929 . S
C4112 C4113 1.377 . S
C4112 C4114 1.384 . S
C4113 C4112 1.377 . S
C4113 C4119 1.390 . S
C4114 H4105 0.930 . S
C4114 C4112 1.384 . S
C4114 C4115 1.372 . S
C4115 C4114 1.372 . S
C4115 C4116 1.400 . S
C4115 C4120 1.490 . S
C4116 H4106 0.930 . S
C4116 C4115 1.400 . S
C4116 C4119 1.386 . S
H4117 C4133 0.930 . S
H4118 C4134 0.931 . S
C4119 H4107 0.929 . S
C4119 C4113 1.390 . S
C4119 C4116 1.386 . S
C4120 C4115 1.490 . S
C4120 C4122 1.395 . S
C4120 C4123 1.403 . S
H4121 C4127 0.930 . S
C4122 H4108 0.930 . S
C4122 C4120 1.395 . S
C4122 C4125 1.403 . S
C4123 C4120 1.403 . S
C4123 C4124 1.524 . S
C4123 C4127 1.400 . S
C4124 H4109 0.960 . S
C4124 H4110 0.960 . S
C4124 H4111 0.960 . S
C4124 C4123 1.524 . S
C4125 C4122 1.403 . S
C4125 C4126 1.392 . S
C4125 C4129 1.495 . S
C4126 C4125 1.392 . S
C4126 C4127 1.385 . S
C4126 C4128 1.478 . S
C4127 H4121 0.930 . S
C4127 C4123 1.400 . S
C4127 C4126 1.385 . S
C4128 C4126 1.478 . S
C4128 C4130 1.381 . S
C4128 C4134 1.383 . S
C4129 C4125 1.495 . S
C4129 H4135 0.959 . S
C4129 H4136 0.961 . S
C4129 H4137 0.960 . S
C4130 C4128 1.381 . S
C4130 C4131 1.394 . S
C4130 H4138 0.930 . S
C4131 C4130 1.394 . S
C4131 C4132 1.383 . S
C4131 H4139 0.929 . S
C4132 C4131 1.383 . S
C4132 C4133 1.377 . S
C4133 H4117 0.930 . S
C4133 C4132 1.377 . S
C4133 C4134 1.379 . S
C4134 H4118 0.931 . S
C4134 C4128 1.383 . S
C4134 C4133 1.379 . S
H4135 C4129 0.959 . S
H4136 C4129 0.961 . S
H4137 C4129 0.960 . S
H4138 C4130 0.930 . S
H4139 C4131 0.929 . S
H4140 C4148 0.929 1_655 S
H4141 C4150 0.930 1_655 S
H4142 C4152 0.930 . S
H4143 C4155 0.929 . S
H4144 C4158 0.930 1_655 S
H4145 C4160 0.960 . S
H4146 C4160 0.960 . S
H4147 C4160 0.960 . S
C4148 H4140 0.929 1_455 S
C4148 C4149 1.377 . S
C4148 C4150 1.384 . S
C4149 C4148 1.377 . S
C4149 C4155 1.390 . S
C4150 H4141 0.930 1_455 S
C4150 C4148 1.384 . S
C4150 C4151 1.372 . S
C4151 C4150 1.372 . S
C4151 C4152 1.400 . S
C4151 C4156 1.490 . S
C4152 H4142 0.930 . S
C4152 C4151 1.400 . S
C4152 C4155 1.386 . S
H4153 C4169 0.930 . S
H4154 C4170 0.931 . S
C4155 H4143 0.929 . S
C4155 C4149 1.390 . S
C4155 C4152 1.386 . S
C4156 C4151 1.490 . S
C4156 C4158 1.395 . S
C4156 C4159 1.403 . S
H4157 C4163 0.930 . S
C4158 H4144 0.930 1_455 S
C4158 C4156 1.395 . S
C4158 C4161 1.451 . S
C4159 C4156 1.403 . S
C4159 C4160 1.524 . S
C4159 C4163 1.400 . S
C4160 H4145 0.960 . S
C4160 H4146 0.960 . S
C4160 H4147 0.960 . S
C4160 C4159 1.524 . S
C4161 C4158 1.451 . S
C4161 C4162 1.428 . S
C4161 C4165 1.418 1_455 S
C4162 C4161 1.428 . S
C4162 C4163 1.385 . S
C4162 C4164 1.478 . S
C4163 H4157 0.930 . S
C4163 C4159 1.400 . S
C4163 C4162 1.385 . S
C4164 C4162 1.478 . S
C4164 C4166 1.381 1_455 S
C4164 C4170 1.383 . S
C4165 C4161 1.418 1_655 S
C4165 H4171 0.959 . S
C4165 H4172 0.961 . S
C4165 H4173 0.960 . S
C4166 C4164 1.381 1_655 S
C4166 C4167 1.394 . S
C4166 H4174 0.930 . S
C4167 C4166 1.394 . S
C4167 C4168 1.383 1_655 S
C4167 H4175 0.929 . S
C4168 C4167 1.383 1_455 S
C4168 C4169 1.377 . S
C4169 H4153 0.930 . S
C4169 C4168 1.377 . S
C4169 C4170 1.379 . S
C4170 H4154 0.931 . S
C4170 C4164 1.383 . S
C4170 C4169 1.379 . S
H4171 C4165 0.959 . S
H4172 C4165 0.961 . S
H4173 C4165 0.960 . S
H4174 C4166 0.930 . S
H4175 C4167 0.929 . S
H4176 C4184 0.929 . S
H4177 C4186 0.930 . S
H4178 C4188 0.930 . S
H4179 C4191 0.929 . S
H4180 C4194 0.930 . S
H4181 C4196 0.960 . S
H4182 C4196 0.960 . S
H4183 C4196 0.960 . S
C4184 H4176 0.929 . S
C4184 C4185 1.377 . S
C4184 C4186 1.384 . S
C4185 C4184 1.377 . S
C4185 C4191 1.390 . S
C4186 H4177 0.930 . S
C4186 C4184 1.384 . S
C4186 C4187 1.372 . S
C4187 C4186 1.372 . S
C4187 C4188 1.400 . S
C4187 C4192 1.490 . S
C4188 H4178 0.930 . S
C4188 C4187 1.400 . S
C4188 C4191 1.386 . S
H4189 C4205 0.930 . S
H4190 C4206 0.931 . S
C4191 H4179 0.929 . S
C4191 C4185 1.390 . S
C4191 C4188 1.386 . S
C4192 C4187 1.490 . S
C4192 C4194 1.395 . S
C4192 C4195 1.403 . S
H4193 C4199 0.930 . S
C4194 H4180 0.930 . S
C4194 C4192 1.395 . S
C4194 C4197 1.403 . S
C4195 C4192 1.403 . S
C4195 C4196 1.524 . S
C4195 C4199 1.400 . S
C4196 H4181 0.960 . S
C4196 H4182 0.960 . S
C4196 H4183 0.960 . S
C4196 C4195 1.524 . S
C4197 C4194 1.403 . S
C4197 C4198 1.392 . S
C4197 C4201 1.495 . S
C4198 C4197 1.392 . S
C4198 C4199 1.385 . S
C4198 C4200 1.478 . S
C4199 H4193 0.930 . S
C4199 C4195 1.400 . S
C4199 C4198 1.385 . S
C4200 C4198 1.478 . S
C4200 C4202 1.381 . S
C4200 C4206 1.383 . S
C4201 C4197 1.495 . S
C4201 H4207 0.959 . S
C4201 H4208 0.961 . S
C4201 H4209 0.960 . S
C4202 C4200 1.381 . S
C4202 C4203 1.394 . S
C4202 H4210 0.930 . S
C4203 C4202 1.394 . S
C4203 C4204 1.383 . S
C4203 H4211 0.929 . S
C4204 C4203 1.383 . S
C4204 C4205 1.377 . S
C4205 H4189 0.930 . S
C4205 C4204 1.377 . S
C4205 C4206 1.379 . S
C4206 H4190 0.931 . S
C4206 C4200 1.383 . S
C4206 C4205 1.379 . S
H4207 C4201 0.959 . S
H4208 C4201 0.961 . S
H4209 C4201 0.960 . S
H4210 C4202 0.930 . S
H4211 C4203 0.929 . S
H4212 C4220 0.929 . S
H4213 C4222 0.930 . S
H4214 C4224 0.930 . S
H4215 C4227 0.929 . S
H4216 C4230 0.930 . S
H4217 C4232 0.960 . S
H4218 C4232 0.960 . S
H4219 C4232 0.960 . S
C4220 H4212 0.929 . S
C4220 C4221 1.377 1_545 S
C4220 C4222 1.384 . S
C4221 C4220 1.377 1_565 S
C4221 C4227 1.390 . S
C4222 H4213 0.930 . S
C4222 C4220 1.384 . S
C4222 C4223 1.372 1_545 S
C4223 C4222 1.372 1_565 S
C4223 C4224 1.400 . S
C4223 C4228 1.490 . S
C4224 H4214 0.930 . S
C4224 C4223 1.400 . S
C4224 C4227 1.386 . S
H4225 C4241 0.930 . S
H4226 C4242 0.931 . S
C4227 H4215 0.929 . S
C4227 C4221 1.390 . S
C4227 C4224 1.386 . S
C4228 C4223 1.490 . S
C4228 C4230 1.395 . S
C4228 C4231 1.403 . S
H4229 C4235 0.930 . S
C4230 H4216 0.930 . S
C4230 C4228 1.395 . S
C4230 C4233 1.403 . S
C4231 C4228 1.403 . S
C4231 C4232 1.524 . S
C4231 C4235 1.400 . S
C4232 H4217 0.960 . S
C4232 H4218 0.960 . S
C4232 H4219 0.960 . S
C4232 C4231 1.524 . S
C4233 C4230 1.403 . S
C4233 C4234 1.392 . S
C4233 C4237 1.495 . S
C4234 C4233 1.392 . S
C4234 C4235 1.385 . S
C4234 C4236 1.478 . S
C4235 H4229 0.930 . S
C4235 C4231 1.400 . S
C4235 C4234 1.385 . S
C4236 C4234 1.478 . S
C4236 C4238 1.381 1_565 S
C4236 C4242 1.383 . S
C4237 C4233 1.495 . S
C4237 H4243 0.959 . S
C4237 H4244 0.961 . S
C4237 H4245 0.960 1_565 S
C4238 C4236 1.381 1_545 S
C4238 C4239 1.394 . S
C4238 H4246 0.930 . S
C4239 C4238 1.394 . S
C4239 C4240 1.383 1_545 S
C4239 H4247 0.929 . S
C4240 C4239 1.383 1_565 S
C4240 C4241 1.377 . S
C4241 H4225 0.930 . S
C4241 C4240 1.377 . S
C4241 C4242 1.379 . S
C4242 H4226 0.931 . S
C4242 C4236 1.383 . S
C4242 C4241 1.379 . S
H4243 C4237 0.959 . S
H4244 C4237 0.961 . S
H4245 C4237 0.960 1_545 S
H4246 C4238 0.930 . S
H4247 C4239 0.929 . S
H4248 C4256 0.929 . S
H4249 C4258 0.930 . S
H4250 C4260 0.930 . S
H4251 C4263 0.929 . S
H4252 C4266 0.930 1_545 S
H4253 C4268 0.960 . S
H4254 C4268 0.960 . S
H4255 C4268 0.960 . S
C4256 H4248 0.929 . S
C4256 C4257 1.377 1_545 S
C4256 C4258 1.384 . S
C4257 C4256 1.377 1_565 S
C4257 C4263 1.390 . S
C4258 H4249 0.930 . S
C4258 C4256 1.384 . S
C4258 C4259 1.372 1_545 S
C4259 C4258 1.372 1_565 S
C4259 C4260 1.400 . S
C4259 C4264 1.490 . S
C4260 H4250 0.930 . S
C4260 C4259 1.400 . S
C4260 C4263 1.386 . S
H4261 C4277 0.930 . S
H4262 C4278 0.931 . S
C4263 H4251 0.929 . S
C4263 C4257 1.390 . S
C4263 C4260 1.386 . S
C4264 C4259 1.490 . S
C4264 C4266 1.395 . S
C4264 C4267 1.403 . S
H4265 C4271 0.930 . S
C4266 H4252 0.930 1_565 S
C4266 C4264 1.395 . S
C4266 C4269 1.400 . S
C4267 C4264 1.403 . S
C4267 C4268 1.524 . S
C4267 C4271 1.400 . S
C4268 H4253 0.960 . S
C4268 H4254 0.960 . S
C4268 H4255 0.960 . S
C4268 C4267 1.524 . S
C4269 C4266 1.400 . S
C4269 C4270 1.394 . S
C4269 C4273 1.497 1_565 S
C4270 C4269 1.394 . S
C4270 C4271 1.385 . S
C4270 C4272 1.478 . S
C4271 H4265 0.930 . S
C4271 C4267 1.400 . S
C4271 C4270 1.385 . S
C4272 C4270 1.478 . S
C4272 C4274 1.381 1_565 S
C4272 C4278 1.383 . S
C4273 C4269 1.497 1_545 S
C4273 H4279 0.959 . S
C4273 H4280 0.961 1_545 S
C4273 H4281 0.960 . S
C4274 C4272 1.381 1_545 S
C4274 C4275 1.394 . S
C4274 H4282 0.930 . S
C4275 C4274 1.394 . S
C4275 C4276 1.383 1_545 S
C4275 H4283 0.929 . S
C4276 C4275 1.383 1_565 S
C4276 C4277 1.377 . S
C4277 H4261 0.930 . S
C4277 C4276 1.377 . S
C4277 C4278 1.379 . S
C4278 H4262 0.931 . S
C4278 C4272 1.383 . S
C4278 C4277 1.379 . S
H4279 C4273 0.959 . S
H4280 C4273 0.961 1_565 S
H4281 C4273 0.960 . S
H4282 C4274 0.930 . S
H4283 C4275 0.929 . S
H4284 C4292 0.929 . S
H4285 C4294 0.930 . S
H4286 C4296 0.951 . S
H4287 C4299 0.915 1_655 S
H4288 C4302 0.930 . S
H4289 C4304 0.960 . S
H4290 C4304 0.960 . S
H4291 C4304 0.960 . S
C4292 H4284 0.929 . S
C4292 C4293 1.377 . S
C4292 C4294 1.384 . S
C4293 C4292 1.377 . S
C4293 C4299 1.396 . S
C4294 H4285 0.930 . S
C4294 C4292 1.384 . S
C4294 C4295 1.372 . S
C4295 C4294 1.372 . S
C4295 C4296 1.357 1_455 S
C4295 C4300 1.490 . S
C4296 H4286 0.951 . S
C4296 C4295 1.357 1_655 S
C4296 C4299 1.423 1_655 S
H4297 C4313 0.930 . S
H4298 C4314 0.931 . S
C4299 H4287 0.915 1_455 S
C4299 C4293 1.396 . S
C4299 C4296 1.423 1_455 S
C4300 C4295 1.490 . S
C4300 C4302 1.395 . S
C4300 C4303 1.403 1_455 S
H4301 C4307 0.930 . S
C4302 H4288 0.930 . S
C4302 C4300 1.395 . S
C4302 C4305 1.403 . S
C4303 C4300 1.403 1_655 S
C4303 C4304 1.524 . S
C4303 C4307 1.400 . S
C4304 H4289 0.960 . S
C4304 H4290 0.960 . S
C4304 H4291 0.960 . S
C4304 C4303 1.524 . S
C4305 C4302 1.403 . S
C4305 C4306 1.392 . S
C4305 C4309 1.495 . S
C4306 C4305 1.392 . S
C4306 C4307 1.385 1_455 S
C4306 C4308 1.478 . S
C4307 H4301 0.930 . S
C4307 C4303 1.400 . S
C4307 C4306 1.385 1_655 S
C4308 C4306 1.478 . S
C4308 C4310 1.381 . S
C4308 C4314 1.383 1_455 S
C4309 C4305 1.495 . S
C4309 H4315 0.959 . S
C4309 H4316 0.961 . S
C4309 H4317 0.960 . S
C4310 C4308 1.381 . S
C4310 C4311 1.394 . S
C4310 H4318 0.930 . S
C4311 C4310 1.394 . S
C4311 C4312 1.383 . S
C4311 H4319 0.929 . S
C4312 C4311 1.383 . S
C4312 C4313 1.377 1_455 S
C4313 H4297 0.930 . S
C4313 C4312 1.377 1_655 S
C4313 C4314 1.379 . S
C4314 H4298 0.931 . S
C4314 C4308 1.383 1_655 S
C4314 C4313 1.379 . S
H4315 C4309 0.959 . S
H4316 C4309 0.961 . S
H4317 C4309 0.960 . S
H4318 C4310 0.930 . S
H4319 C4311 0.929 . S
H4320 C4328 0.929 . S
H4321 C4330 0.930 . S
H4322 C4332 0.930 . S
H4323 C4335 0.929 . S
H4324 C4338 0.930 . S
H4325 C4340 0.960 . S
H4326 C4340 0.960 . S
H4327 C4340 0.960 . S
C4328 H4320 0.929 . S
C4328 C4329 1.377 . S
C4328 C4330 1.384 . S
C4329 C4328 1.377 . S
C4329 C4335 1.390 . S
C4330 H4321 0.930 . S
C4330 C4328 1.384 . S
C4330 C4331 1.372 . S
C4331 C4330 1.372 . S
C4331 C4332 1.400 . S
C4331 C4336 1.490 . S
C4332 H4322 0.930 . S
C4332 C4331 1.400 . S
C4332 C4335 1.386 . S
H4333 C4349 0.930 . S
H4334 C4350 0.931 . S
C4335 H4323 0.929 . S
C4335 C4329 1.390 . S
C4335 C4332 1.386 . S
C4336 C4331 1.490 . S
C4336 C4338 1.395 . S
C4336 C4339 1.403 . S
H4337 C4343 0.930 . S
C4338 H4324 0.930 . S
C4338 C4336 1.395 . S
C4338 C4341 1.403 . S
C4339 C4336 1.403 . S
C4339 C4340 1.524 . S
C4339 C4343 1.400 . S
C4340 H4325 0.960 . S
C4340 H4326 0.960 . S
C4340 H4327 0.960 . S
C4340 C4339 1.524 . S
C4341 C4338 1.403 . S
C4341 C4342 1.392 . S
C4341 C4345 1.495 . S
C4342 C4341 1.392 . S
C4342 C4343 1.385 . S
C4342 C4344 1.478 . S
C4343 H4337 0.930 . S
C4343 C4339 1.400 . S
C4343 C4342 1.385 . S
C4344 C4342 1.478 . S
C4344 C4346 1.381 . S
C4344 C4350 1.383 . S
C4345 C4341 1.495 . S
C4345 H4351 0.959 . S
C4345 H4352 0.961 . S
C4345 H4353 0.960 . S
C4346 C4344 1.381 . S
C4346 C4347 1.394 . S
C4346 H4354 0.930 . S
C4347 C4346 1.394 . S
C4347 C4348 1.383 . S
C4347 H4355 0.929 . S
C4348 C4347 1.383 . S
C4348 C4349 1.377 . S
C4349 H4333 0.930 . S
C4349 C4348 1.377 . S
C4349 C4350 1.379 . S
C4350 H4334 0.931 . S
C4350 C4344 1.383 . S
C4350 C4349 1.379 . S
H4351 C4345 0.959 . S
H4352 C4345 0.961 . S
H4353 C4345 0.960 . S
H4354 C4346 0.930 . S
H4355 C4347 0.929 . S
H4356 C4364 0.929 . S
H4357 C4366 0.930 . S
H4358 C4368 0.930 . S
H4359 C4371 0.929 . S
H4360 C4374 0.930 . S
H4361 C4376 0.960 . S
H4362 C4376 0.960 . S
H4363 C4376 0.960 . S
C4364 H4356 0.929 . S
C4364 C4365 1.377 . S
C4364 C4366 1.384 . S
C4365 C4364 1.377 . S
C4365 C4371 1.390 . S
C4366 H4357 0.930 . S
C4366 C4364 1.384 . S
C4366 C4367 1.372 . S
C4367 C4366 1.372 . S
C4367 C4368 1.400 . S
C4367 C4372 1.490 . S
C4368 H4358 0.930 . S
C4368 C4367 1.400 . S
C4368 C4371 1.386 . S
H4369 C4385 0.930 . S
H4370 C4386 0.931 . S
C4371 H4359 0.929 . S
C4371 C4365 1.390 . S
C4371 C4368 1.386 . S
C4372 C4367 1.490 . S
C4372 C4374 1.395 . S
C4372 C4375 1.403 . S
H4373 C4379 0.930 . S
C4374 H4360 0.930 . S
C4374 C4372 1.395 . S
C4374 C4377 1.403 . S
C4375 C4372 1.403 . S
C4375 C4376 1.524 . S
C4375 C4379 1.400 . S
C4376 H4361 0.960 . S
C4376 H4362 0.960 . S
C4376 H4363 0.960 . S
C4376 C4375 1.524 . S
C4377 C4374 1.403 . S
C4377 C4378 1.392 . S
C4377 C4381 1.495 . S
C4378 C4377 1.392 . S
C4378 C4379 1.385 . S
C4378 C4380 1.478 . S
C4379 H4373 0.930 . S
C4379 C4375 1.400 . S
C4379 C4378 1.385 . S
C4380 C4378 1.478 . S
C4380 C4382 1.381 . S
C4380 C4386 1.383 . S
C4381 C4377 1.495 . S
C4381 H4387 0.959 . S
C4381 H4388 0.961 . S
C4381 H4389 0.960 . S
C4382 C4380 1.381 . S
C4382 C4383 1.394 . S
C4382 H4390 0.930 . S
C4383 C4382 1.394 . S
C4383 C4384 1.383 . S
C4383 H4391 0.929 . S
C4384 C4383 1.383 . S
C4384 C4385 1.377 . S
C4385 H4369 0.930 . S
C4385 C4384 1.377 . S
C4385 C4386 1.379 . S
C4386 H4370 0.931 . S
C4386 C4380 1.383 . S
C4386 C4385 1.379 . S
H4387 C4381 0.959 . S
H4388 C4381 0.961 . S
H4389 C4381 0.960 . S
H4390 C4382 0.930 . S
H4391 C4383 0.929 . S
H4392 C4400 0.929 . S
H4393 C4402 0.930 . S
H4394 C4404 0.930 . S
H4395 C4407 0.929 . S
H4396 C4410 0.930 . S
H4397 C4412 0.960 . S
H4398 C4412 0.960 . S
H4399 C4412 0.960 . S
C4400 H4392 0.929 . S
C4400 C4401 1.377 . S
C4400 C4402 1.384 . S
C4401 C4400 1.377 . S
C4401 C4407 1.390 . S
C4402 H4393 0.930 . S
C4402 C4400 1.384 . S
C4402 C4403 1.372 . S
C4403 C4402 1.372 . S
C4403 C4404 1.400 . S
C4403 C4408 1.490 . S
C4404 H4394 0.930 . S
C4404 C4403 1.400 . S
C4404 C4407 1.386 . S
H4405 C4421 0.930 . S
H4406 C4422 0.931 . S
C4407 H4395 0.929 . S
C4407 C4401 1.390 . S
C4407 C4404 1.386 . S
C4408 C4403 1.490 . S
C4408 C4410 1.395 . S
C4408 C4411 1.403 . S
H4409 C4415 0.930 . S
C4410 H4396 0.930 . S
C4410 C4408 1.395 . S
C4410 C4413 1.403 . S
C4411 C4408 1.403 . S
C4411 C4412 1.524 . S
C4411 C4415 1.400 . S
C4412 H4397 0.960 . S
C4412 H4398 0.960 . S
C4412 H4399 0.960 . S
C4412 C4411 1.524 . S
C4413 C4410 1.403 . S
C4413 C4414 1.392 . S
C4413 C4417 1.495 . S
C4414 C4413 1.392 . S
C4414 C4415 1.385 . S
C4414 C4416 1.478 . S
C4415 H4409 0.930 . S
C4415 C4411 1.400 . S
C4415 C4414 1.385 . S
C4416 C4414 1.478 . S
C4416 C4418 1.381 . S
C4416 C4422 1.383 . S
C4417 C4413 1.495 . S
C4417 H4423 0.959 . S
C4417 H4424 0.961 . S
C4417 H4425 0.960 . S
C4418 C4416 1.381 . S
C4418 C4419 1.394 . S
C4418 H4426 0.930 . S
C4419 C4418 1.394 . S
C4419 C4420 1.383 . S
C4419 H4427 0.929 . S
C4420 C4419 1.383 . S
C4420 C4421 1.377 . S
C4421 H4405 0.930 . S
C4421 C4420 1.377 . S
C4421 C4422 1.379 . S
C4422 H4406 0.931 . S
C4422 C4416 1.383 . S
C4422 C4421 1.379 . S
H4423 C4417 0.959 . S
H4424 C4417 0.961 . S
H4425 C4417 0.960 . S
H4426 C4418 0.930 . S
H4427 C4419 0.929 . S
H4428 C4436 0.929 . S
H4429 C4438 0.930 . S
H4430 C4440 0.930 . S
H4431 C4443 0.929 . S
H4432 C4446 0.930 . S
H4433 C4448 0.960 . S
H4434 C4448 0.960 . S
H4435 C4448 0.960 . S
C4436 H4428 0.929 . S
C4436 C4437 1.377 . S
C4436 C4438 1.384 . S
C4437 C4436 1.377 . S
C4437 C4443 1.390 . S
C4438 H4429 0.930 . S
C4438 C4436 1.384 . S
C4438 C4439 1.372 . S
C4439 C4438 1.372 . S
C4439 C4440 1.400 . S
C4439 C4444 1.490 . S
C4440 H4430 0.930 . S
C4440 C4439 1.400 . S
C4440 C4443 1.386 . S
H4441 C4457 0.930 . S
H4442 C4458 0.931 . S
C4443 H4431 0.929 . S
C4443 C4437 1.390 . S
C4443 C4440 1.386 . S
C4444 C4439 1.490 . S
C4444 C4446 1.395 . S
C4444 C4447 1.403 . S
H4445 C4451 0.930 . S
C4446 H4432 0.930 . S
C4446 C4444 1.395 . S
C4446 C4449 1.403 . S
C4447 C4444 1.403 . S
C4447 C4448 1.524 . S
C4447 C4451 1.400 . S
C4448 H4433 0.960 . S
C4448 H4434 0.960 . S
C4448 H4435 0.960 . S
C4448 C4447 1.524 . S
C4449 C4446 1.403 . S
C4449 C4450 1.392 . S
C4449 C4453 1.495 . S
C4450 C4449 1.392 . S
C4450 C4451 1.385 . S
C4450 C4452 1.478 . S
C4451 H4445 0.930 . S
C4451 C4447 1.400 . S
C4451 C4450 1.385 . S
C4452 C4450 1.478 . S
C4452 C4454 1.381 . S
C4452 C4458 1.383 . S
C4453 C4449 1.495 . S
C4453 H4459 0.959 . S
C4453 H4460 0.961 . S
C4453 H4461 0.960 . S
C4454 C4452 1.381 . S
C4454 C4455 1.394 . S
C4454 H4462 0.930 . S
C4455 C4454 1.394 . S
C4455 C4456 1.383 . S
C4455 H4463 0.929 . S
C4456 C4455 1.383 . S
C4456 C4457 1.377 . S
C4457 H4441 0.930 . S
C4457 C4456 1.377 . S
C4457 C4458 1.379 . S
C4458 H4442 0.931 . S
C4458 C4452 1.383 . S
C4458 C4457 1.379 . S
H4459 C4453 0.959 . S
H4460 C4453 0.961 . S
H4461 C4453 0.960 . S
H4462 C4454 0.930 . S
H4463 C4455 0.929 . S
H4464 C4472 0.929 . S
H4465 C4474 0.930 . S
H4466 C4476 0.930 . S
H4467 C4479 0.929 . S
H4468 C4482 0.927 1_565 S
H4469 C4484 0.960 . S
H4470 C4484 0.960 . S
H4471 C4484 0.960 . S
C4472 H4464 0.929 . S
C4472 C4473 1.377 . S
C4472 C4474 1.384 . S
C4473 C4472 1.377 . S
C4473 C4479 1.390 . S
C4474 H4465 0.930 . S
C4474 C4472 1.384 . S
C4474 C4475 1.372 . S
C4475 C4474 1.372 . S
C4475 C4476 1.400 . S
C4475 C4480 1.490 . S
C4476 H4466 0.930 . S
C4476 C4475 1.400 . S
C4476 C4479 1.386 . S
H4477 C4493 0.917 1_565 S
H4478 C4494 0.932 1_565 S
C4479 H4467 0.929 . S
C4479 C4473 1.390 . S
C4479 C4476 1.386 . S
C4480 C4475 1.490 . S
C4480 C4482 1.457 . S
C4480 C4483 1.403 . S
H4481 C4487 0.930 . S
C4482 H4468 0.927 1_545 S
C4482 C4480 1.457 . S
C4482 C4485 1.312 1_545 S
C4483 C4480 1.403 . S
C4483 C4484 1.524 . S
C4483 C4487 1.400 . S
C4484 H4469 0.960 . S
C4484 H4470 0.960 . S
C4484 H4471 0.960 . S
C4484 C4483 1.524 . S
C4485 C4482 1.312 1_565 S
C4485 C4486 1.387 1_565 S
C4485 C4489 1.554 . S
C4486 C4485 1.387 1_545 S
C4486 C4487 1.385 . S
C4486 C4488 1.478 . S
C4487 H4481 0.930 . S
C4487 C4483 1.400 . S
C4487 C4486 1.385 . S
C4488 C4486 1.478 . S
C4488 C4490 1.381 . S
C4488 C4494 1.383 . S
C4489 C4485 1.554 . S
C4489 H4495 0.959 . S
C4489 H4496 0.961 . S
C4489 H4497 0.960 . S
C4490 C4488 1.381 . S
C4490 C4491 1.394 . S
C4490 H4498 0.930 . S
C4491 C4490 1.394 . S
C4491 C4492 1.383 . S
C4491 H4499 0.929 . S
C4492 C4491 1.383 . S
C4492 C4493 1.377 . S
C4493 H4477 0.917 1_545 S
C4493 C4492 1.377 . S
C4493 C4494 1.379 . S
C4494 H4478 0.932 1_545 S
C4494 C4488 1.383 . S
C4494 C4493 1.379 . S
H4495 C4489 0.959 . S
H4496 C4489 0.961 . S
H4497 C4489 0.960 . S
H4498 C4490 0.930 . S
H4499 C4491 0.929 . S
H4500 C4508 0.929 . S
H4501 C4510 0.930 . S
H4502 C4512 0.930 . S
H4503 C4515 0.929 . S
H4504 C4518 0.930 . S
H4505 C4520 0.960 . S
H4506 C4520 0.960 . S
H4507 C4520 0.960 . S
C4508 H4500 0.929 . S
C4508 C4509 1.377 1_455 S
C4508 C4510 1.384 . S
C4509 C4508 1.377 1_655 S
C4509 C4515 1.390 . S
C4510 H4501 0.930 . S
C4510 C4508 1.384 . S
C4510 C4511 1.372 1_455 S
C4511 C4510 1.372 1_655 S
C4511 C4512 1.400 . S
C4511 C4516 1.490 . S
C4512 H4502 0.930 . S
C4512 C4511 1.400 . S
C4512 C4515 1.386 . S
H4513 C4529 0.930 . S
H4514 C4530 0.931 . S
C4515 H4503 0.929 . S
C4515 C4509 1.390 . S
C4515 C4512 1.386 . S
C4516 C4511 1.490 . S
C4516 C4518 1.395 1_655 S
C4516 C4519 1.403 . S
H4517 C4523 0.930 . S
C4518 H4504 0.930 . S
C4518 C4516 1.395 1_455 S
C4518 C4521 1.403 . S
C4519 C4516 1.403 . S
C4519 C4520 1.524 . S
C4519 C4523 1.400 . S
C4520 H4505 0.960 . S
C4520 H4506 0.960 . S
C4520 H4507 0.960 . S
C4520 C4519 1.524 . S
C4521 C4518 1.403 . S
C4521 C4522 1.392 1_455 S
C4521 C4525 1.495 . S
C4522 C4521 1.392 1_655 S
C4522 C4523 1.385 . S
C4522 C4524 1.478 . S
C4523 H4517 0.930 . S
C4523 C4519 1.400 . S
C4523 C4522 1.385 . S
C4524 C4522 1.478 . S
C4524 C4526 1.381 1_655 S
C4524 C4530 1.383 . S
C4525 C4521 1.495 . S
C4525 H4531 0.959 . S
C4525 H4532 0.961 . S
C4525 H4533 0.960 . S
C4526 C4524 1.381 1_455 S
C4526 C4527 1.394 . S
C4526 H4534 0.930 . S
C4527 C4526 1.394 . S
C4527 C4528 1.383 1_455 S
C4527 H4535 0.929 . S
C4528 C4527 1.383 1_655 S
C4528 C4529 1.377 . S
C4529 H4513 0.930 . S
C4529 C4528 1.377 . S
C4529 C4530 1.379 . S
C4530 H4514 0.931 . S
C4530 C4524 1.383 . S
C4530 C4529 1.379 . S
H4531 C4525 0.959 . S
H4532 C4525 0.961 . S
H4533 C4525 0.960 . S
H4534 C4526 0.930 . S
H4535 C4527 0.929 . S
H4536 C4544 0.929 . S
H4537 C4546 0.930 . S
H4538 C4548 0.930 . S
H4539 C4551 0.929 . S
H4540 C4554 0.930 . S
H4541 C4556 0.960 . S
H4542 C4556 0.960 . S
H4543 C4556 0.960 . S
C4544 H4536 0.929 . S
C4544 C4545 1.377 . S
C4544 C4546 1.384 . S
C4545 C4544 1.377 . S
C4545 C4551 1.390 . S
C4546 H4537 0.930 . S
C4546 C4544 1.384 . S
C4546 C4547 1.372 . S
C4547 C4546 1.372 . S
C4547 C4548 1.400 . S
C4547 C4552 1.490 . S
C4548 H4538 0.930 . S
C4548 C4547 1.400 . S
C4548 C4551 1.386 . S
H4549 C4565 0.930 . S
H4550 C4566 0.931 . S
C4551 H4539 0.929 . S
C4551 C4545 1.390 . S
C4551 C4548 1.386 . S
C4552 C4547 1.490 . S
C4552 C4554 1.395 . S
C4552 C4555 1.403 . S
H4553 C4559 0.930 . S
C4554 H4540 0.930 . S
C4554 C4552 1.395 . S
C4554 C4557 1.403 . S
C4555 C4552 1.403 . S
C4555 C4556 1.524 . S
C4555 C4559 1.400 . S
C4556 H4541 0.960 . S
C4556 H4542 0.960 . S
C4556 H4543 0.960 . S
C4556 C4555 1.524 . S
C4557 C4554 1.403 . S
C4557 C4558 1.392 . S
C4557 C4561 1.495 . S
C4558 C4557 1.392 . S
C4558 C4559 1.385 . S
C4558 C4560 1.478 . S
C4559 H4553 0.930 . S
C4559 C4555 1.400 . S
C4559 C4558 1.385 . S
C4560 C4558 1.478 . S
C4560 C4562 1.381 . S
C4560 C4566 1.383 . S
C4561 C4557 1.495 . S
C4561 H4567 0.959 . S
C4561 H4568 0.961 . S
C4561 H4569 0.960 . S
C4562 C4560 1.381 . S
C4562 C4563 1.394 . S
C4562 H4570 0.930 . S
C4563 C4562 1.394 . S
C4563 C4564 1.383 . S
C4563 H4571 0.929 . S
C4564 C4563 1.383 . S
C4564 C4565 1.377 . S
C4565 H4549 0.930 . S
C4565 C4564 1.377 . S
C4565 C4566 1.379 . S
C4566 H4550 0.931 . S
C4566 C4560 1.383 . S
C4566 C4565 1.379 . S
H4567 C4561 0.959 . S
H4568 C4561 0.961 . S
H4569 C4561 0.960 . S
H4570 C4562 0.930 . S
H4571 C4563 0.929 . S
H4572 C4580 0.929 . S
H4573 C4582 0.930 . S
H4574 C4584 0.930 . S
H4575 C4587 0.929 . S
H4576 C4590 0.930 . S
H4577 C4592 0.960 . S
H4578 C4592 0.960 . S
H4579 C4592 0.960 . S
C4580 H4572 0.929 . S
C4580 C4581 1.377 . S
C4580 C4582 1.384 . S
C4581 C4580 1.377 . S
C4581 C4587 1.390 . S
C4582 H4573 0.930 . S
C4582 C4580 1.384 . S
C4582 C4583 1.372 . S
C4583 C4582 1.372 . S
C4583 C4584 1.400 . S
C4583 C4588 1.490 . S
C4584 H4574 0.930 . S
C4584 C4583 1.400 . S
C4584 C4587 1.386 . S
H4585 C4601 0.930 . S
H4586 C4602 0.931 . S
C4587 H4575 0.929 . S
C4587 C4581 1.390 . S
C4587 C4584 1.386 . S
C4588 C4583 1.490 . S
C4588 C4590 1.395 . S
C4588 C4591 1.403 . S
H4589 C4595 0.930 . S
C4590 H4576 0.930 . S
C4590 C4588 1.395 . S
C4590 C4593 1.403 . S
C4591 C4588 1.403 . S
C4591 C4592 1.524 . S
C4591 C4595 1.400 . S
C4592 H4577 0.960 . S
C4592 H4578 0.960 . S
C4592 H4579 0.960 . S
C4592 C4591 1.524 . S
C4593 C4590 1.403 . S
C4593 C4594 1.392 . S
C4593 C4597 1.495 . S
C4594 C4593 1.392 . S
C4594 C4595 1.385 . S
C4594 C4596 1.478 . S
C4595 H4589 0.930 . S
C4595 C4591 1.400 . S
C4595 C4594 1.385 . S
C4596 C4594 1.478 . S
C4596 C4598 1.381 . S
C4596 C4602 1.383 . S
C4597 C4593 1.495 . S
C4597 H4603 0.959 . S
C4597 H4604 0.961 . S
C4597 H4605 0.960 . S
C4598 C4596 1.381 . S
C4598 C4599 1.394 . S
C4598 H4606 0.930 . S
C4599 C4598 1.394 . S
C4599 C4600 1.383 . S
C4599 H4607 0.929 . S
C4600 C4599 1.383 . S
C4600 C4601 1.377 . S
C4601 H4585 0.930 . S
C4601 C4600 1.377 . S
C4601 C4602 1.379 . S
C4602 H4586 0.931 . S
C4602 C4596 1.383 . S
C4602 C4601 1.379 . S
H4603 C4597 0.959 . S
H4604 C4597 0.961 . S
H4605 C4597 0.960 . S
H4606 C4598 0.930 . S
H4607 C4599 0.929 . S
H4608 C4616 0.929 . S
H4609 C4618 0.930 . S
H4610 C4620 0.930 . S
H4611 C4623 0.929 . S
H4612 C4626 0.930 . S
H4613 C4628 0.960 . S
H4614 C4628 0.960 . S
H4615 C4628 0.960 . S
C4616 H4608 0.929 . S
C4616 C4617 1.377 . S
C4616 C4618 1.384 . S
C4617 C4616 1.377 . S
C4617 C4623 1.390 . S
C4618 H4609 0.930 . S
C4618 C4616 1.384 . S
C4618 C4619 1.372 . S
C4619 C4618 1.372 . S
C4619 C4620 1.400 . S
C4619 C4624 1.490 . S
C4620 H4610 0.930 . S
C4620 C4619 1.400 . S
C4620 C4623 1.386 . S
H4621 C4637 0.930 . S
H4622 C4638 0.931 . S
C4623 H4611 0.929 . S
C4623 C4617 1.390 . S
C4623 C4620 1.386 . S
C4624 C4619 1.490 . S
C4624 C4626 1.395 . S
C4624 C4627 1.403 . S
H4625 C4631 0.930 . S
C4626 H4612 0.930 . S
C4626 C4624 1.395 . S
C4626 C4629 1.403 . S
C4627 C4624 1.403 . S
C4627 C4628 1.524 . S
C4627 C4631 1.400 . S
C4628 H4613 0.960 . S
C4628 H4614 0.960 . S
C4628 H4615 0.960 . S
C4628 C4627 1.524 . S
C4629 C4626 1.403 . S
C4629 C4630 1.392 . S
C4629 C4633 1.495 . S
C4630 C4629 1.392 . S
C4630 C4631 1.385 . S
C4630 C4632 1.478 . S
C4631 H4625 0.930 . S
C4631 C4627 1.400 . S
C4631 C4630 1.385 . S
C4632 C4630 1.478 . S
C4632 C4634 1.381 . S
C4632 C4638 1.383 . S
C4633 C4629 1.495 . S
C4633 H4639 0.959 . S
C4633 H4640 0.961 . S
C4633 H4641 0.960 . S
C4634 C4632 1.381 . S
C4634 C4635 1.394 . S
C4634 H4642 0.930 . S
C4635 C4634 1.394 . S
C4635 C4636 1.383 . S
C4635 H4643 0.929 . S
C4636 C4635 1.383 . S
C4636 C4637 1.377 . S
C4637 H4621 0.930 . S
C4637 C4636 1.377 . S
C4637 C4638 1.379 . S
C4638 H4622 0.931 . S
C4638 C4632 1.383 . S
C4638 C4637 1.379 . S
H4639 C4633 0.959 . S
H4640 C4633 0.961 . S
H4641 C4633 0.960 . S
H4642 C4634 0.930 . S
H4643 C4635 0.929 . S
H4644 C4652 0.929 . S
H4645 C4654 0.930 . S
H4646 C4656 0.930 . S
H4647 C4659 0.929 . S
H4648 C4662 0.930 . S
H4649 C4664 0.960 . S
H4650 C4664 0.960 . S
H4651 C4664 0.960 . S
C4652 H4644 0.929 . S
C4652 C4653 1.377 . S
C4652 C4654 1.384 . S
C4653 C4652 1.377 . S
C4653 C4659 1.390 . S
C4654 H4645 0.930 . S
C4654 C4652 1.384 . S
C4654 C4655 1.372 . S
C4655 C4654 1.372 . S
C4655 C4656 1.400 . S
C4655 C4660 1.490 . S
C4656 H4646 0.930 . S
C4656 C4655 1.400 . S
C4656 C4659 1.386 . S
H4657 C4673 0.930 . S
H4658 C4674 0.931 . S
C4659 H4647 0.929 . S
C4659 C4653 1.390 . S
C4659 C4656 1.386 . S
C4660 C4655 1.490 . S
C4660 C4662 1.395 . S
C4660 C4663 1.403 . S
H4661 C4667 0.930 . S
C4662 H4648 0.930 . S
C4662 C4660 1.395 . S
C4662 C4665 1.403 . S
C4663 C4660 1.403 . S
C4663 C4664 1.524 . S
C4663 C4667 1.400 . S
C4664 H4649 0.960 . S
C4664 H4650 0.960 . S
C4664 H4651 0.960 . S
C4664 C4663 1.524 . S
C4665 C4662 1.403 . S
C4665 C4666 1.392 . S
C4665 C4669 1.495 . S
C4666 C4665 1.392 . S
C4666 C4667 1.385 . S
C4666 C4668 1.478 . S
C4667 H4661 0.930 . S
C4667 C4663 1.400 . S
C4667 C4666 1.385 . S
C4668 C4666 1.478 . S
C4668 C4670 1.381 . S
C4668 C4674 1.383 . S
C4669 C4665 1.495 . S
C4669 H4675 0.959 . S
C4669 H4676 0.961 . S
C4669 H4677 0.960 . S
C4670 C4668 1.381 . S
C4670 C4671 1.394 . S
C4670 H4678 0.930 . S
C4671 C4670 1.394 . S
C4671 C4672 1.383 . S
C4671 H4679 0.929 . S
C4672 C4671 1.383 . S
C4672 C4673 1.377 . S
C4673 H4657 0.930 . S
C4673 C4672 1.377 . S
C4673 C4674 1.379 . S
C4674 H4658 0.931 . S
C4674 C4668 1.383 . S
C4674 C4673 1.379 . S
H4675 C4669 0.959 . S
H4676 C4669 0.961 . S
H4677 C4669 0.960 . S
H4678 C4670 0.930 . S
H4679 C4671 0.929 . S
H4680 C4688 0.929 . S
H4681 C4690 0.930 . S
H4682 C4692 0.930 . S
H4683 C4695 0.929 . S
H4684 C4698 0.930 . S
H4685 C4700 0.960 . S
H4686 C4700 0.960 . S
H4687 C4700 0.960 . S
C4688 H4680 0.929 . S
C4688 C4689 1.377 . S
C4688 C4690 1.384 . S
C4689 C4688 1.377 . S
C4689 C4695 1.390 . S
C4690 H4681 0.930 . S
C4690 C4688 1.384 . S
C4690 C4691 1.372 . S
C4691 C4690 1.372 . S
C4691 C4692 1.400 . S
C4691 C4696 1.490 . S
C4692 H4682 0.930 . S
C4692 C4691 1.400 . S
C4692 C4695 1.386 . S
H4693 C4709 0.930 . S
H4694 C4710 0.931 . S
C4695 H4683 0.929 . S
C4695 C4689 1.390 . S
C4695 C4692 1.386 . S
C4696 C4691 1.490 . S
C4696 C4698 1.395 . S
C4696 C4699 1.403 . S
H4697 C4703 0.930 . S
C4698 H4684 0.930 . S
C4698 C4696 1.395 . S
C4698 C4701 1.403 . S
C4699 C4696 1.403 . S
C4699 C4700 1.524 . S
C4699 C4703 1.400 . S
C4700 H4685 0.960 . S
C4700 H4686 0.960 . S
C4700 H4687 0.960 . S
C4700 C4699 1.524 . S
C4701 C4698 1.403 . S
C4701 C4702 1.392 . S
C4701 C4705 1.495 . S
C4702 C4701 1.392 . S
C4702 C4703 1.385 . S
C4702 C4704 1.478 . S
C4703 H4697 0.930 . S
C4703 C4699 1.400 . S
C4703 C4702 1.385 . S
C4704 C4702 1.478 . S
C4704 C4706 1.381 . S
C4704 C4710 1.383 . S
C4705 C4701 1.495 . S
C4705 H4711 0.959 . S
C4705 H4712 0.961 . S
C4705 H4713 0.960 . S
C4706 C4704 1.381 . S
C4706 C4707 1.394 . S
C4706 H4714 0.930 . S
C4707 C4706 1.394 . S
C4707 C4708 1.383 . S
C4707 H4715 0.929 . S
C4708 C4707 1.383 . S
C4708 C4709 1.377 . S
C4709 H4693 0.930 . S
C4709 C4708 1.377 . S
C4709 C4710 1.379 . S
C4710 H4694 0.931 . S
C4710 C4704 1.383 . S
C4710 C4709 1.379 . S
H4711 C4705 0.959 . S
H4712 C4705 0.961 . S
H4713 C4705 0.960 . S
H4714 C4706 0.930 . S
H4715 C4707 0.929 . S
H4716 C4724 0.929 . S
H4717 C4726 0.930 . S
H4718 C4728 0.930 . S
H4719 C4731 0.929 . S
H4720 C4734 0.930 . S
H4721 C4736 0.960 . S
H4722 C4736 0.960 . S
H4723 C4736 0.960 . S
C4724 H4716 0.929 . S
C4724 C4725 1.377 . S
C4724 C4726 1.384 . S
C4725 C4724 1.377 . S
C4725 C4731 1.390 . S
C4726 H4717 0.930 . S
C4726 C4724 1.384 . S
C4726 C4727 1.372 . S
C4727 C4726 1.372 . S
C4727 C4728 1.400 . S
C4727 C4732 1.490 . S
C4728 H4718 0.930 . S
C4728 C4727 1.400 . S
C4728 C4731 1.386 . S
H4729 C4745 0.930 . S
H4730 C4746 0.931 . S
C4731 H4719 0.929 . S
C4731 C4725 1.390 . S
C4731 C4728 1.386 . S
C4732 C4727 1.490 . S
C4732 C4734 1.395 . S
C4732 C4735 1.403 . S
H4733 C4739 0.930 . S
C4734 H4720 0.930 . S
C4734 C4732 1.395 . S
C4734 C4737 1.403 . S
C4735 C4732 1.403 . S
C4735 C4736 1.524 . S
C4735 C4739 1.400 . S
C4736 H4721 0.960 . S
C4736 H4722 0.960 . S
C4736 H4723 0.960 . S
C4736 C4735 1.524 . S
C4737 C4734 1.403 . S
C4737 C4738 1.392 . S
C4737 C4741 1.495 . S
C4738 C4737 1.392 . S
C4738 C4739 1.385 . S
C4738 C4740 1.478 . S
C4739 H4733 0.930 . S
C4739 C4735 1.400 . S
C4739 C4738 1.385 . S
C4740 C4738 1.478 . S
C4740 C4742 1.381 . S
C4740 C4746 1.383 . S
C4741 C4737 1.495 . S
C4741 H4747 0.959 . S
C4741 H4748 0.961 . S
C4741 H4749 0.960 . S
C4742 C4740 1.381 . S
C4742 C4743 1.394 . S
C4742 H4750 0.930 . S
C4743 C4742 1.394 . S
C4743 C4744 1.383 . S
C4743 H4751 0.929 . S
C4744 C4743 1.383 . S
C4744 C4745 1.377 . S
C4745 H4729 0.930 . S
C4745 C4744 1.377 . S
C4745 C4746 1.379 . S
C4746 H4730 0.931 . S
C4746 C4740 1.383 . S
C4746 C4745 1.379 . S
H4747 C4741 0.959 . S
H4748 C4741 0.961 . S
H4749 C4741 0.960 . S
H4750 C4742 0.930 . S
H4751 C4743 0.929 . S
H4752 C4760 0.929 . S
H4753 C4762 0.930 . S
H4754 C4764 0.930 . S
H4755 C4767 0.929 . S
H4756 C4770 0.930 . S
H4757 C4772 0.960 . S
H4758 C4772 0.960 . S
H4759 C4772 0.960 . S
C4760 H4752 0.929 . S
C4760 C4761 1.377 . S
C4760 C4762 1.384 . S
C4761 C4760 1.377 . S
C4761 C4767 1.390 . S
C4762 H4753 0.930 . S
C4762 C4760 1.384 . S
C4762 C4763 1.372 . S
C4763 C4762 1.372 . S
C4763 C4764 1.400 . S
C4763 C4768 1.490 . S
C4764 H4754 0.930 . S
C4764 C4763 1.400 . S
C4764 C4767 1.386 . S
H4765 C4781 0.930 . S
H4766 C4782 0.931 . S
C4767 H4755 0.929 . S
C4767 C4761 1.390 . S
C4767 C4764 1.386 . S
C4768 C4763 1.490 . S
C4768 C4770 1.395 . S
C4768 C4771 1.403 . S
H4769 C4775 0.930 . S
C4770 H4756 0.930 . S
C4770 C4768 1.395 . S
C4770 C4773 1.403 . S
C4771 C4768 1.403 . S
C4771 C4772 1.524 . S
C4771 C4775 1.400 . S
C4772 H4757 0.960 . S
C4772 H4758 0.960 . S
C4772 H4759 0.960 . S
C4772 C4771 1.524 . S
C4773 C4770 1.403 . S
C4773 C4774 1.392 . S
C4773 C4777 1.495 . S
C4774 C4773 1.392 . S
C4774 C4775 1.385 . S
C4774 C4776 1.478 . S
C4775 H4769 0.930 . S
C4775 C4771 1.400 . S
C4775 C4774 1.385 . S
C4776 C4774 1.478 . S
C4776 C4778 1.381 . S
C4776 C4782 1.383 . S
C4777 C4773 1.495 . S
C4777 H4783 0.959 . S
C4777 H4784 0.961 . S
C4777 H4785 0.960 . S
C4778 C4776 1.381 . S
C4778 C4779 1.394 . S
C4778 H4786 0.930 . S
C4779 C4778 1.394 . S
C4779 C4780 1.383 . S
C4779 H4787 0.929 . S
C4780 C4779 1.383 . S
C4780 C4781 1.377 . S
C4781 H4765 0.930 . S
C4781 C4780 1.377 . S
C4781 C4782 1.379 . S
C4782 H4766 0.931 . S
C4782 C4776 1.383 . S
C4782 C4781 1.379 . S
H4783 C4777 0.959 . S
H4784 C4777 0.961 . S
H4785 C4777 0.960 . S
H4786 C4778 0.930 . S
H4787 C4779 0.929 . S
H4788 C4796 0.929 . S
H4789 C4798 0.930 . S
H4790 C4800 0.930 1_455 S
H4791 C4803 0.929 1_455 S
H4792 C4806 0.930 . S
H4793 C4808 0.960 . S
H4794 C4808 0.960 1_655 S
H4795 C4808 0.960 . S
C4796 H4788 0.929 . S
C4796 C4797 1.377 . S
C4796 C4798 1.384 . S
C4797 C4796 1.377 . S
C4797 C4803 1.390 . S
C4798 H4789 0.930 . S
C4798 C4796 1.384 . S
C4798 C4799 1.372 . S
C4799 C4798 1.372 . S
C4799 C4800 1.400 . S
C4799 C4804 1.490 . S
C4800 H4790 0.930 1_655 S
C4800 C4799 1.400 . S
C4800 C4803 1.386 . S
H4801 C4817 0.930 . S
H4802 C4818 0.931 . S
C4803 H4791 0.929 1_655 S
C4803 C4797 1.390 . S
C4803 C4800 1.386 . S
C4804 C4799 1.490 . S
C4804 C4806 1.395 . S
C4804 C4807 1.403 . S
H4805 C4811 0.930 1_455 S
C4806 H4792 0.930 . S
C4806 C4804 1.395 . S
C4806 C4809 1.403 . S
C4807 C4804 1.403 . S
C4807 C4808 1.524 1_655 S
C4807 C4811 1.400 . S
C4808 H4793 0.960 . S
C4808 H4794 0.960 1_455 S
C4808 H4795 0.960 . S
C4808 C4807 1.524 1_455 S
C4809 C4806 1.403 . S
C4809 C4810 1.392 . S
C4809 C4813 1.495 . S
C4810 C4809 1.392 . S
C4810 C4811 1.385 . S
C4810 C4812 1.478 . S
C4811 H4805 0.930 1_655 S
C4811 C4807 1.400 . S
C4811 C4810 1.385 . S
C4812 C4810 1.478 . S
C4812 C4814 1.381 . S
C4812 C4818 1.383 1_655 S
C4813 C4809 1.495 . S
C4813 H4819 0.959 . S
C4813 H4820 0.961 . S
C4813 H4821 0.960 . S
C4814 C4812 1.381 . S
C4814 C4815 1.394 . S
C4814 H4822 0.930 . S
C4815 C4814 1.394 . S
C4815 C4816 1.383 . S
C4815 H4823 0.929 . S
C4816 C4815 1.383 . S
C4816 C4817 1.377 1_655 S
C4817 H4801 0.930 . S
C4817 C4816 1.377 1_455 S
C4817 C4818 1.379 . S
C4818 H4802 0.931 . S
C4818 C4812 1.383 1_455 S
C4818 C4817 1.379 . S
H4819 C4813 0.959 . S
H4820 C4813 0.961 . S
H4821 C4813 0.960 . S
H4822 C4814 0.930 . S
H4823 C4815 0.929 . S
H4824 C4832 0.929 . S
H4825 C4834 0.930 . S
H4826 C4836 0.930 . S
H4827 C4839 0.929 . S
H4828 C4842 0.930 . S
H4829 C4844 0.960 . S
H4830 C4844 0.960 . S
H4831 C4844 0.960 . S
C4832 H4824 0.929 . S
C4832 C4833 1.377 . S
C4832 C4834 1.384 . S
C4833 C4832 1.377 . S
C4833 C4839 1.390 . S
C4834 H4825 0.930 . S
C4834 C4832 1.384 . S
C4834 C4835 1.372 . S
C4835 C4834 1.372 . S
C4835 C4836 1.400 . S
C4835 C4840 1.490 . S
C4836 H4826 0.930 . S
C4836 C4835 1.400 . S
C4836 C4839 1.386 . S
H4837 C4853 0.930 . S
H4838 C4854 0.931 . S
C4839 H4827 0.929 . S
C4839 C4833 1.390 . S
C4839 C4836 1.386 . S
C4840 C4835 1.490 . S
C4840 C4842 1.395 . S
C4840 C4843 1.403 . S
H4841 C4847 0.930 . S
C4842 H4828 0.930 . S
C4842 C4840 1.395 . S
C4842 C4845 1.403 . S
C4843 C4840 1.403 . S
C4843 C4844 1.524 . S
C4843 C4847 1.400 . S
C4844 H4829 0.960 . S
C4844 H4830 0.960 . S
C4844 H4831 0.960 . S
C4844 C4843 1.524 . S
C4845 C4842 1.403 . S
C4845 C4846 1.392 . S
C4845 C4849 1.495 . S
C4846 C4845 1.392 . S
C4846 C4847 1.385 . S
C4846 C4848 1.478 . S
C4847 H4841 0.930 . S
C4847 C4843 1.400 . S
C4847 C4846 1.385 . S
C4848 C4846 1.478 . S
C4848 C4850 1.381 . S
C4848 C4854 1.383 . S
C4849 C4845 1.495 . S
C4849 H4855 0.959 . S
C4849 H4856 0.961 . S
C4849 H4857 0.960 . S
C4850 C4848 1.381 . S
C4850 C4851 1.394 . S
C4850 H4858 0.930 . S
C4851 C4850 1.394 . S
C4851 C4852 1.383 . S
C4851 H4859 0.929 . S
C4852 C4851 1.383 . S
C4852 C4853 1.377 . S
C4853 H4837 0.930 . S
C4853 C4852 1.377 . S
C4853 C4854 1.379 . S
C4854 H4838 0.931 . S
C4854 C4848 1.383 . S
C4854 C4853 1.379 . S
H4855 C4849 0.959 . S
H4856 C4849 0.961 . S
H4857 C4849 0.960 . S
H4858 C4850 0.930 . S
H4859 C4851 0.929 . S
H4860 C4868 0.929 . S
H4861 C4870 0.930 . S
H4862 C4872 0.930 1_565 S
H4863 C4875 0.929 1_565 S
H4864 C4878 0.930 . S
H4865 C4880 0.960 . S
H4866 C4880 0.960 . S
H4867 C4880 0.960 . S
C4868 H4860 0.929 . S
C4868 C4869 1.377 . S
C4868 C4870 1.384 . S
C4869 C4868 1.377 . S
C4869 C4875 1.390 . S
C4870 H4861 0.930 . S
C4870 C4868 1.384 . S
C4870 C4871 1.372 . S
C4871 C4870 1.372 . S
C4871 C4872 1.400 . S
C4871 C4876 1.490 . S
C4872 H4862 0.930 1_545 S
C4872 C4871 1.400 . S
C4872 C4875 1.386 . S
H4873 C4889 0.930 . S
H4874 C4890 0.931 . S
C4875 H4863 0.929 1_545 S
C4875 C4869 1.390 . S
C4875 C4872 1.386 . S
C4876 C4871 1.490 . S
C4876 C4878 1.395 . S
C4876 C4879 1.403 1_545 S
H4877 C4883 0.930 . S
C4878 H4864 0.930 . S
C4878 C4876 1.395 . S
C4878 C4881 1.403 . S
C4879 C4876 1.403 1_565 S
C4879 C4880 1.524 . S
C4879 C4883 1.400 . S
C4880 H4865 0.960 . S
C4880 H4866 0.960 . S
C4880 H4867 0.960 . S
C4880 C4879 1.524 . S
C4881 C4878 1.403 . S
C4881 C4882 1.392 . S
C4881 C4885 1.495 . S
C4882 C4881 1.392 . S
C4882 C4883 1.385 1_545 S
C4882 C4884 1.478 . S
C4883 H4877 0.930 . S
C4883 C4879 1.400 . S
C4883 C4882 1.385 1_565 S
C4884 C4882 1.478 . S
C4884 C4886 1.381 . S
C4884 C4890 1.383 1_545 S
C4885 C4881 1.495 . S
C4885 H4891 0.959 . S
C4885 H4892 0.961 . S
C4885 H4893 0.960 . S
C4886 C4884 1.381 . S
C4886 C4887 1.394 . S
C4886 H4894 0.930 . S
C4887 C4886 1.394 . S
C4887 C4888 1.383 . S
C4887 H4895 0.929 . S
C4888 C4887 1.383 . S
C4888 C4889 1.377 1_545 S
C4889 H4873 0.930 . S
C4889 C4888 1.377 1_565 S
C4889 C4890 1.379 . S
C4890 H4874 0.931 . S
C4890 C4884 1.383 1_565 S
C4890 C4889 1.379 . S
H4891 C4885 0.959 . S
H4892 C4885 0.961 . S
H4893 C4885 0.960 . S
H4894 C4886 0.930 . S
H4895 C4887 0.929 . S
C2313 C7 1.249 . S
C2332 C1307 1.046 1_655 S
C2349 C23 1.715 . S
C2368 C1447 1.185 . S
C2404 C1535 1.178 . S
C2385 C37 1.318 . S
C2421 C35 1.407 . S
C2440 C1675 0.972 1_565 S
C2457 C9 1.361 . S
C2476 C1789 0.962 . S
C2493 C21 1.708 . S
C2512 C1877 1.263 . S
C2529 C49 1.248 . S
C2548 C1763 0.969 . S
C2584 C1903 1.389 . S
C2565 C65 1.625 . S
C2620 C1649 1.202 . S
C2601 C79 1.351 . S
C2637 C77 1.359 . S
C2656 C1561 1.090 1_565 S
C2692 C1333 1.046 . S
C2673 C51 1.373 . S
C2709 C63 1.615 . S
C2728 C1421 1.520 . S
C2745 C91 1.778 . S
C2764 C1991 1.359 . S
C2781 C107 1.801 . S
C2800 C2131 1.225 . S
C2836 C2219 1.358 . S
C2817 C121 1.770 . S
C2853 C119 1.794 . S
C2872 C307 1.180 . S
C2889 C93 1.860 . S
C2908 C421 1.183 . S
C2925 C105 1.782 . S
C2944 C509 1.419 . S
C2961 C133 1.491 . S
C2980 C395 1.347 . S
C2997 C149 1.698 . S
C3016 C535 1.479 . S
C3052 C281 1.526 . S
C3033 C163 1.709 . S
C3088 C2245 1.624 . S
C3069 C161 1.896 . S
C3124 C2017 1.433 . S
C3105 C135 1.709 . S
C3160 C2105 1.578 . S
C3141 C147 1.717 . S
C3177 C175 1.595 . S
C3196 C623 1.244 . S
C3213 C191 1.785 . S
C3232 C763 1.160 . S
C3249 C205 1.806 . S
C3268 C851 1.306 . S
C3285 C203 1.980 . S
C3304 C991 1.393 . S
C3340 C1105 1.190 . S
C3321 C177 1.825 . S
C3376 C1193 1.446 . S
C3357 C189 1.803 . S
C3412 C1079 1.564 . S
C3393 C217 1.694 . S
C3448 C1219 1.488 . S
C3429 C233 1.718 . S
C3465 C247 1.657 . S
C3484 C965 1.448 . S
C3520 C877 1.434 . S
C3501 C245 1.700 . S
C3537 C219 1.763 . S
C3556 C649 1.537 . S
C3592 C737 1.558 . S
C3573 C231 1.691 . S
C3628 C263 1.102 . S
C3609 C8 1.850 . S
C3645 C17 1.589 . S
C3664 C377 0.863 . S
C3700 C481 1.263 . S
C3681 C31 1.724 . S
C3736 C595 1.190 . S
C3717 C36 1.671 . S
C3772 C719 0.967 . S
C3753 C3 1.763 . S
C3808 C823 1.123 . S
C3789 C22 1.600 1_556 S
C3825 C50 1.952 . S
C3844 C833 1.425 . S
C3861 C59 1.667 . S
C3880 C605 1.308 . S
C3897 C73 1.797 . S
C3916 C709 1.526 . S
C3933 C78 1.797 . S
C3952 C367 1.540 . S
C3988 C491 1.402 . S
C3969 C45 1.846 . S
C4005 C64 1.714 . S
C4024 C253 1.508 . S
C4060 C947 0.956 . S
C4041 C92 1.751 . S
C4077 C101 1.826 . S
C4096 C1061 1.012 . S
C4113 C115 1.802 1_655 S
C4132 C1165 1.423 . S
C4168 C1279 0.989 . S
C4149 C120 1.226 . S
C4185 C87 1.691 . S
C4204 C1403 1.034 . S
C4221 C106 1.286 . S
C4240 C1507 0.985 . S
C4257 C134 1.428 . S
C4276 C1517 0.956 1_565 S
C4293 C143 1.319 . S
C4312 C1289 0.894 1_455 S
C4348 C1393 1.467 . S
C4329 C157 1.755 . S
C4365 C162 1.691 . S
C4384 C1051 1.452 . S
C4401 C129 1.913 . S
C4420 C1175 1.493 . S
C4456 C937 1.688 . S
C4437 C148 1.924 . S
C4492 C1631 0.983 . S
C4473 C176 1.432 . S
C4509 C185 1.303 . S
C4528 C1745 0.838 . S
C4545 C199 1.661 . S
C4564 C1849 1.291 . S
C4600 C1963 1.164 . S
C4581 C204 1.573 . S
C4636 C2087 1.132 . S
C4617 C171 1.885 . S
C4653 C190 1.833 . S
C4672 C2191 1.337 . S
C4689 C218 1.853 . S
C4708 C2201 1.378 . S
C4725 C227 1.910 1_565 S
C4744 C1973 1.478 . S
C4780 C2077 1.634 . S
C4761 C241 1.802 1_455 S
C4816 C1735 0.903 1_655 S
C4797 C246 1.217 . S
C4852 C1859 1.388 . S
C4833 C213 1.783 . S
C4869 C232 1.312 . S
C4888 C1621 1.067 1_545 S
