# Generated by pormake.
# Topology ctn, (3,4)-cn, num edge types: 1
# Building blocks:
#     Node 0, Type 0, BuildingBlock: ESEHIV_clean_linker_0, # of connection points: 3
#     Node 1, Type 0, BuildingBlock: ESEHIV_clean_linker_0, # of connection points: 3
#     Node 2, Type 0, BuildingBlock: ESEHIV_clean_linker_0, # of connection points: 3
#     Node 3, Type 0, BuildingBlock: ESEHIV_clean_linker_0, # of connection points: 3
#     Node 4, Type 0, BuildingBlock: ESEHIV_clean_linker_0, # of connection points: 3
#     Node 5, Type 0, BuildingBlock: ESEHIV_clean_linker_0, # of connection points: 3
#     Node 6, Type 0, BuildingBlock: ESEHIV_clean_linker_0, # of connection points: 3
#     Node 7, Type 0, BuildingBlock: ESEHIV_clean_linker_0, # of connection points: 3
#     Node 8, Type 0, BuildingBlock: ESEHIV_clean_linker_0, # of connection points: 3
#     Node 9, Type 0, BuildingBlock: ESEHIV_clean_linker_0, # of connection points: 3
#     Node 10, Type 0, BuildingBlock: ESEHIV_clean_linker_0, # of connection points: 3
#     Node 11, Type 0, BuildingBlock: ESEHIV_clean_linker_0, # of connection points: 3
#     Node 12, Type 0, BuildingBlock: ESEHIV_clean_linker_0, # of connection points: 3
#     Node 13, Type 0, BuildingBlock: ESEHIV_clean_linker_0, # of connection points: 3
#     Node 14, Type 0, BuildingBlock: ESEHIV_clean_linker_0, # of connection points: 3
#     Node 15, Type 0, BuildingBlock: ESEHIV_clean_linker_0, # of connection points: 3
#     Node 16, Type 1, BuildingBlock: TATPOV_clean_sbu_0, # of connection points: 4
#     Node 17, Type 1, BuildingBlock: TATPOV_clean_sbu_0, # of connection points: 4
#     Node 18, Type 1, BuildingBlock: TATPOV_clean_sbu_0, # of connection points: 4
#     Node 19, Type 1, BuildingBlock: TATPOV_clean_sbu_0, # of connection points: 4
#     Node 20, Type 1, BuildingBlock: TATPOV_clean_sbu_0, # of connection points: 4
#     Node 21, Type 1, BuildingBlock: TATPOV_clean_sbu_0, # of connection points: 4
#     Node 22, Type 1, BuildingBlock: TATPOV_clean_sbu_0, # of connection points: 4
#     Node 23, Type 1, BuildingBlock: TATPOV_clean_sbu_0, # of connection points: 4
#     Node 24, Type 1, BuildingBlock: TATPOV_clean_sbu_0, # of connection points: 4
#     Node 25, Type 1, BuildingBlock: TATPOV_clean_sbu_0, # of connection points: 4
#     Node 26, Type 1, BuildingBlock: TATPOV_clean_sbu_0, # of connection points: 4
#     Node 27, Type 1, BuildingBlock: TATPOV_clean_sbu_0, # of connection points: 4
#     Edge 28, Type (0, 1), BuildingBlock: ZUJKAS_clean_linker_0, # of connection points: 2
#     Edge 29, Type (0, 1), BuildingBlock: ZUJKAS_clean_linker_0, # of connection points: 2
#     Edge 30, Type (0, 1), BuildingBlock: ZUJKAS_clean_linker_0, # of connection points: 2
#     Edge 31, Type (0, 1), BuildingBlock: ZUJKAS_clean_linker_0, # of connection points: 2
#     Edge 32, Type (0, 1), BuildingBlock: ZUJKAS_clean_linker_0, # of connection points: 2
#     Edge 33, Type (0, 1), BuildingBlock: ZUJKAS_clean_linker_0, # of connection points: 2
#     Edge 34, Type (0, 1), BuildingBlock: ZUJKAS_clean_linker_0, # of connection points: 2
#     Edge 35, Type (0, 1), BuildingBlock: ZUJKAS_clean_linker_0, # of connection points: 2
#     Edge 36, Type (0, 1), BuildingBlock: ZUJKAS_clean_linker_0, # of connection points: 2
#     Edge 37, Type (0, 1), BuildingBlock: ZUJKAS_clean_linker_0, # of connection points: 2
#     Edge 38, Type (0, 1), BuildingBlock: ZUJKAS_clean_linker_0, # of connection points: 2
#     Edge 39, Type (0, 1), BuildingBlock: ZUJKAS_clean_linker_0, # of connection points: 2
#     Edge 40, Type (0, 1), BuildingBlock: ZUJKAS_clean_linker_0, # of connection points: 2
#     Edge 41, Type (0, 1), BuildingBlock: ZUJKAS_clean_linker_0, # of connection points: 2
#     Edge 42, Type (0, 1), BuildingBlock: ZUJKAS_clean_linker_0, # of connection points: 2
#     Edge 43, Type (0, 1), BuildingBlock: ZUJKAS_clean_linker_0, # of connection points: 2
#     Edge 44, Type (0, 1), BuildingBlock: ZUJKAS_clean_linker_0, # of connection points: 2
#     Edge 45, Type (0, 1), BuildingBlock: ZUJKAS_clean_linker_0, # of connection points: 2
#     Edge 46, Type (0, 1), BuildingBlock: ZUJKAS_clean_linker_0, # of connection points: 2
#     Edge 47, Type (0, 1), BuildingBlock: ZUJKAS_clean_linker_0, # of connection points: 2
#     Edge 48, Type (0, 1), BuildingBlock: ZUJKAS_clean_linker_0, # of connection points: 2
#     Edge 49, Type (0, 1), BuildingBlock: ZUJKAS_clean_linker_0, # of connection points: 2
#     Edge 50, Type (0, 1), BuildingBlock: ZUJKAS_clean_linker_0, # of connection points: 2
#     Edge 51, Type (0, 1), BuildingBlock: ZUJKAS_clean_linker_0, # of connection points: 2
#     Edge 52, Type (0, 1), BuildingBlock: ZUJKAS_clean_linker_0, # of connection points: 2
#     Edge 53, Type (0, 1), BuildingBlock: ZUJKAS_clean_linker_0, # of connection points: 2
#     Edge 54, Type (0, 1), BuildingBlock: ZUJKAS_clean_linker_0, # of connection points: 2
#     Edge 55, Type (0, 1), BuildingBlock: ZUJKAS_clean_linker_0, # of connection points: 2
#     Edge 56, Type (0, 1), BuildingBlock: ZUJKAS_clean_linker_0, # of connection points: 2
#     Edge 57, Type (0, 1), BuildingBlock: ZUJKAS_clean_linker_0, # of connection points: 2
#     Edge 58, Type (0, 1), BuildingBlock: ZUJKAS_clean_linker_0, # of connection points: 2
#     Edge 59, Type (0, 1), BuildingBlock: ZUJKAS_clean_linker_0, # of connection points: 2
#     Edge 60, Type (0, 1), BuildingBlock: ZUJKAS_clean_linker_0, # of connection points: 2
#     Edge 61, Type (0, 1), BuildingBlock: ZUJKAS_clean_linker_0, # of connection points: 2
#     Edge 62, Type (0, 1), BuildingBlock: ZUJKAS_clean_linker_0, # of connection points: 2
#     Edge 63, Type (0, 1), BuildingBlock: ZUJKAS_clean_linker_0, # of connection points: 2
#     Edge 64, Type (0, 1), BuildingBlock: ZUJKAS_clean_linker_0, # of connection points: 2
#     Edge 65, Type (0, 1), BuildingBlock: ZUJKAS_clean_linker_0, # of connection points: 2
#     Edge 66, Type (0, 1), BuildingBlock: ZUJKAS_clean_linker_0, # of connection points: 2
#     Edge 67, Type (0, 1), BuildingBlock: ZUJKAS_clean_linker_0, # of connection points: 2
#     Edge 68, Type (0, 1), BuildingBlock: ZUJKAS_clean_linker_0, # of connection points: 2
#     Edge 69, Type (0, 1), BuildingBlock: ZUJKAS_clean_linker_0, # of connection points: 2
#     Edge 70, Type (0, 1), BuildingBlock: ZUJKAS_clean_linker_0, # of connection points: 2
#     Edge 71, Type (0, 1), BuildingBlock: ZUJKAS_clean_linker_0, # of connection points: 2
#     Edge 72, Type (0, 1), BuildingBlock: ZUJKAS_clean_linker_0, # of connection points: 2
#     Edge 73, Type (0, 1), BuildingBlock: ZUJKAS_clean_linker_0, # of connection points: 2
#     Edge 74, Type (0, 1), BuildingBlock: ZUJKAS_clean_linker_0, # of connection points: 2
#     Edge 75, Type (0, 1), BuildingBlock: ZUJKAS_clean_linker_0, # of connection points: 2
# Relax obj value: 0.003
# Max RMSD: 0.048
# Mean RMSD: 0.022
data_MOF--net-ctn--node1-TATPOV_clean_sbu_0--node2-ESEHIV_clean_linker_0--edge1-ZUJKAS_clean_linker_0
_symmetry_space_group_name_H-M    P1
_symmetry_Int_Tables_number       1
_symmetry_cell_setting            triclinic
loop_
_symmetry_equiv_pos_as_xyz
'x, y, z'
_cell_length_a     68.124686
_cell_length_b     68.153871
_cell_length_c     68.019733
_cell_angle_alpha  90.905952
_cell_angle_beta   91.117347
_cell_angle_gamma 91.03349
loop_
_atom_site_label
_atom_site_type_symbol
_atom_site_fract_x
_atom_site_fract_y
_atom_site_fract_z
_atom_type_partial_charge
H0 H 0.0045 0.05597 0.03657 0.0
H1 H 0.03527 0.00589 0.05818 0.0
H2 H 0.0547 0.03461 0.00597 0.0
C3 C 0.01644 0.04574 0.03538 0.0
C4 C 0.02932 0.04712 0.01952 0.0
C5 C 0.01843 0.03092 0.0494 0.0
C6 C 0.0336 0.01733 0.04742 0.0
C7 C 0.04667 0.01844 0.03169 0.0
C8 C 0.04436 0.03336 0.01782 0.0
H9 H 0.27054 0.69005 0.25049 0.0
H10 H 0.29055 0.74 0.21809 0.0
H11 H 0.23405 0.71341 0.2045 0.0
C12 C 0.26802 0.70087 0.23925 0.0
C13 C 0.25046 0.7001 0.22806 0.0
C14 C 0.28255 0.71523 0.23582 0.0
C15 C 0.27931 0.72903 0.221 0.0
C16 C 0.26185 0.72847 0.2096 0.0
C17 C 0.24746 0.71404 0.21335 0.0
H18 H 0.96693 0.47189 0.07608 0.0
H19 H 0.99748 0.41982 0.05935 0.0
H20 H 0.94374 0.43459 0.0293 0.0
C21 C 0.96791 0.45883 0.06688 0.0
C22 C 0.95359 0.45498 0.05212 0.0
C23 C 0.98358 0.44601 0.06981 0.0
C24 C 0.98498 0.42929 0.05761 0.0
C25 C 0.97082 0.42513 0.04276 0.0
C26 C 0.95505 0.43796 0.04031 0.0
H27 H 0.70749 0.73662 0.21457 0.0
H28 H 0.75431 0.77504 0.19652 0.0
H29 H 0.71746 0.79217 0.24423 0.0
C30 C 0.71606 0.75008 0.21654 0.0
C31 C 0.71095 0.76367 0.23124 0.0
C32 C 0.73148 0.7542 0.20371 0.0
C33 C 0.74203 0.77204 0.20598 0.0
C34 C 0.73711 0.78589 0.22051 0.0
C35 C 0.72153 0.78154 0.23309 0.0
H36 H 0.02604 0.95141 0.43471 0.0
H37 H 0.05819 0.00342 0.41842 0.0
H38 H 0.07498 0.97249 0.47043 0.0
C39 C 0.03786 0.962 0.43747 0.0
C40 C 0.04995 0.96023 0.45433 0.0
C41 C 0.04075 0.97746 0.42429 0.0
C42 C 0.05611 0.99113 0.42812 0.0
C43 C 0.0684 0.98951 0.4448 0.0
C44 C 0.06523 0.97403 0.45779 0.0
H45 H 0.19138 0.75148 0.76927 0.0
H46 H 0.2403 0.71649 0.7871 0.0
H47 H 0.21033 0.70423 0.73194 0.0
C48 C 0.20133 0.7396 0.76638 0.0
C49 C 0.19922 0.72858 0.74878 0.0
C50 C 0.21599 0.73528 0.78039 0.0
C51 C 0.22874 0.71974 0.77654 0.0
C52 C 0.22695 0.70858 0.75901 0.0
C53 C 0.2122 0.71317 0.74518 0.0
H54 H 0.92721 0.5508 0.49852 0.0
H55 H 0.97996 0.56686 0.46851 0.0
H56 H 0.94537 0.51665 0.44867 0.0
C57 C 0.93754 0.54822 0.48687 0.0
C58 C 0.93418 0.53249 0.47358 0.0
C59 C 0.9541 0.56062 0.48522 0.0
C60 C 0.96743 0.55704 0.47014 0.0
C61 C 0.96442 0.54128 0.45678 0.0
C62 C 0.94765 0.52913 0.45857 0.0
H63 H 0.80866 0.83115 0.852 0.0
H64 H 0.83683 0.8511 0.79978 0.0
H65 H 0.86176 0.80428 0.8331 0.0
C66 C 0.82091 0.83071 0.84208 0.0
C67 C 0.8353 0.81643 0.84465 0.0
C68 C 0.82139 0.84342 0.826 0.0
C69 C 0.83663 0.84171 0.81246 0.0
C70 C 0.85107 0.82737 0.81465 0.0
C71 C 0.85051 0.81514 0.83106 0.0
H72 H 0.31463 0.33871 0.36095 0.0
H73 H 0.34003 0.35275 0.30553 0.0
H74 H 0.36101 0.30358 0.33816 0.0
C75 C 0.32522 0.33571 0.34966 0.0
C76 C 0.33747 0.31946 0.35146 0.0
C77 C 0.32595 0.34774 0.33312 0.0
C78 C 0.33998 0.34404 0.31872 0.0
C79 C 0.35289 0.32825 0.32051 0.0
C80 C 0.35156 0.31612 0.33699 0.0
H81 H 0.46625 0.96698 0.57337 0.0
H82 H 0.49652 0.91462 0.55685 0.0
H83 H 0.44293 0.92958 0.52671 0.0
C84 C 0.46717 0.95388 0.56422 0.0
C85 C 0.45276 0.94997 0.54956 0.0
C86 C 0.48284 0.94106 0.56713 0.0
C87 C 0.48411 0.92421 0.55508 0.0
C88 C 0.46993 0.92011 0.54025 0.0
C89 C 0.45421 0.93296 0.53776 0.0
H90 H 0.20468 0.23412 0.71319 0.0
H91 H 0.25118 0.27178 0.69297 0.0
H92 H 0.21853 0.28839 0.74389 0.0
C93 C 0.21342 0.24753 0.71464 0.0
C94 C 0.20971 0.26085 0.73005 0.0
C95 C 0.22852 0.25122 0.70133 0.0
C96 C 0.23997 0.2685 0.70358 0.0
C97 C 0.23649 0.28204 0.71886 0.0
C98 C 0.22138 0.27802 0.7321 0.0
H99 H 0.7723 0.18655 0.75225 0.0
H100 H 0.78726 0.23984 0.72246 0.0
H101 H 0.73381 0.20823 0.70703 0.0
C102 C 0.76883 0.19755 0.74145 0.0
C103 C 0.75143 0.19557 0.73009 0.0
C104 C 0.78186 0.21347 0.73884 0.0
C105 C 0.77725 0.22756 0.72466 0.0
C106 C 0.75997 0.22576 0.71307 0.0
C107 C 0.74711 0.20976 0.71596 0.0
H108 H 0.50514 0.55179 0.53681 0.0
H109 H 0.53614 0.50185 0.55842 0.0
H110 H 0.55589 0.53116 0.50668 0.0
C111 C 0.51703 0.54153 0.53557 0.0
C112 C 0.53045 0.5435 0.52023 0.0
C113 C 0.51882 0.52643 0.54935 0.0
C114 C 0.53433 0.51319 0.54758 0.0
C115 C 0.54792 0.51487 0.53235 0.0
C116 C 0.54582 0.53007 0.51876 0.0
H117 H 0.52809 0.44998 0.93844 0.0
H118 H 0.56067 0.50118 0.92103 0.0
H119 H 0.57744 0.47111 0.97368 0.0
C120 C 0.54028 0.46023 0.94088 0.0
C121 C 0.55238 0.45864 0.95775 0.0
C122 C 0.5432 0.4755 0.92756 0.0
C123 C 0.55845 0.48928 0.93119 0.0
C124 C 0.57076 0.4879 0.9479 0.0
C125 C 0.56767 0.4725 0.96103 0.0
H126 H 0.6839 0.25287 0.27576 0.0
H127 H 0.73404 0.21942 0.29301 0.0
H128 H 0.70488 0.20747 0.23728 0.0
C129 C 0.69433 0.24148 0.27259 0.0
C130 C 0.6927 0.23082 0.25475 0.0
C131 C 0.70919 0.23749 0.28647 0.0
C132 C 0.72257 0.2226 0.28232 0.0
C133 C 0.72112 0.21159 0.26465 0.0
C134 C 0.70616 0.21589 0.25091 0.0
H135 H 0.41227 0.06039 0.98656 0.0
H136 H 0.4656 0.07497 0.95703 0.0
H137 H 0.43024 0.02543 0.93706 0.0
C138 C 0.42237 0.05763 0.97477 0.0
C139 C 0.41893 0.04162 0.96179 0.0
C140 C 0.43922 0.06963 0.97321 0.0
C141 C 0.45277 0.06551 0.9585 0.0
C142 C 0.44971 0.04954 0.94543 0.0
C143 C 0.43267 0.03778 0.94708 0.0
Zn144 Zn 0.27549 0.84786 0.99717 0.0
Zn145 Zn 0.24117 0.86561 0.99944 0.0
O146 O 0.24291 0.84972 0.02542 0.0
O147 O 0.27129 0.83504 0.02301 0.0
O148 O 0.21551 0.88015 0.00148 0.0
O149 O 0.28994 0.87373 0.99646 0.0
O150 O 0.26148 0.88849 0.99712 0.0
C151 C 0.25587 0.83834 0.0325 0.0
C152 C 0.24936 0.83717 0.96496 0.0
O153 O 0.23778 0.8487 0.97385 0.0
O154 O 0.2664 0.83437 0.97202 0.0
C155 C 0.21174 0.88982 0.01707 0.0
O156 O 0.22444 0.88975 0.03185 0.0
C157 C 0.28017 0.88934 0.9963 0.0
Zn158 Zn 0.11249 0.45164 0.2808 0.0
Zn159 Zn 0.12788 0.48783 0.27508 0.0
O160 O 0.10876 0.49268 0.2976 0.0
O161 O 0.09563 0.46335 0.30201 0.0
O162 O 0.14055 0.51428 0.27074 0.0
O163 O 0.13947 0.4417 0.28771 0.0
O164 O 0.15177 0.47113 0.28227 0.0
C165 C 0.09686 0.48145 0.30655 0.0
C166 C 0.10511 0.46587 0.24176 0.0
O167 O 0.1143 0.48106 0.2485 0.0
O168 O 0.10269 0.45106 0.25255 0.0
C169 C 0.13181 0.52831 0.2624 0.0
O170 O 0.11345 0.52581 0.25648 0.0
C171 C 0.15415 0.45331 0.28703 0.0
Zn172 Zn 0.78656 0.60838 0.95981 0.0
Zn173 Zn 0.7795 0.62535 0.99485 0.0
O174 O 0.80072 0.60534 0.00196 0.0
O175 O 0.80645 0.59132 0.9733 0.0
O176 O 0.77425 0.63935 0.02046 0.0
O177 O 0.79502 0.6344 0.94889 0.0
O178 O 0.78861 0.6482 0.97745 0.0
C179 C 0.80987 0.59282 0.99164 0.0
C180 C 0.74662 0.60292 0.97194 0.0
O181 O 0.75279 0.61255 0.98712 0.0
O182 O 0.75813 0.59949 0.95794 0.0
C183 C 0.77003 0.63055 0.03621 0.0
O184 O 0.76902 0.61127 0.0361 0.0
C185 C 0.79437 0.64958 0.95979 0.0
Zn186 Zn 0.84594 0.00475 0.27855 0.0
Zn187 Zn 0.86404 0.00667 0.24433 0.0
O188 O 0.8476 0.03223 0.24486 0.0
O189 O 0.8322 0.02984 0.27289 0.0
O190 O 0.87896 0.0079 0.21881 0.0
O191 O 0.87165 0.00567 0.29345 0.0
O192 O 0.88671 0.00563 0.26512 0.0
C193 C 0.83564 0.03913 0.25732 0.0
C194 C 0.83665 0.97154 0.25346 0.0
O195 O 0.84767 0.98071 0.24158 0.0
O196 O 0.8337 0.97871 0.27041 0.0
C197 C 0.88905 0.02311 0.21462 0.0
O198 O 0.88912 0.0383 0.22677 0.0
C199 C 0.88739 0.00559 0.28388 0.0
Zn200 Zn 0.28667 0.1045 0.45787 0.0
Zn201 Zn 0.27986 0.12156 0.49302 0.0
O202 O 0.30038 0.10084 0.50011 0.0
O203 O 0.30564 0.08655 0.47148 0.0
O204 O 0.27506 0.13567 0.51868 0.0
O205 O 0.2964 0.13025 0.4473 0.0
O206 O 0.28966 0.14417 0.47573 0.0
C207 C 0.30906 0.08796 0.48982 0.0
C208 C 0.24639 0.10061 0.46966 0.0
O209 O 0.25282 0.10975 0.48503 0.0
O210 O 0.25785 0.09694 0.45568 0.0
C211 C 0.26525 0.12828 0.53253 0.0
O212 O 0.25794 0.11038 0.5304 0.0
C213 C 0.29586 0.14543 0.45822 0.0
Zn214 Zn 0.34642 0.49881 0.77859 0.0
Zn215 Zn 0.36664 0.50085 0.74576 0.0
O216 O 0.35039 0.52662 0.74556 0.0
O217 O 0.33374 0.52435 0.77286 0.0
O218 O 0.38373 0.50236 0.72163 0.0
O219 O 0.37089 0.49832 0.79534 0.0
O220 O 0.38776 0.49908 0.76811 0.0
C221 C 0.33797 0.53364 0.75751 0.0
C222 C 0.33782 0.46627 0.75237 0.0
O223 O 0.35011 0.47509 0.74148 0.0
O224 O 0.33377 0.47352 0.76902 0.0
C225 C 0.37932 0.51115 0.70582 0.0
O226 O 0.3623 0.51982 0.7043 0.0
C227 C 0.38724 0.4983 0.78683 0.0
Zn228 Zn 0.77659 0.34225 0.50203 0.0
Zn229 Zn 0.74559 0.36507 0.50528 0.0
O230 O 0.74621 0.34994 0.53177 0.0
O231 O 0.77188 0.3311 0.52856 0.0
O232 O 0.72249 0.38327 0.50793 0.0
O233 O 0.79454 0.36573 0.4994 0.0
O234 O 0.76882 0.38466 0.50151 0.0
C235 C 0.75764 0.33694 0.53863 0.0
C236 C 0.74783 0.33446 0.47148 0.0
O237 O 0.73868 0.34812 0.48029 0.0
O238 O 0.7644 0.32916 0.47801 0.0
C239 C 0.7054 0.37733 0.51251 0.0
O240 O 0.70235 0.35856 0.51562 0.0
C241 C 0.78727 0.38268 0.4995 0.0
Zn242 Zn 0.60422 0.9506 0.78054 0.0
Zn243 Zn 0.6216 0.98582 0.7748 0.0
O244 O 0.60106 0.99199 0.79581 0.0
O245 O 0.58599 0.96349 0.79962 0.0
O246 O 0.63552 0.01185 0.77088 0.0
O247 O 0.62993 0.93983 0.79023 0.0
O248 O 0.64428 0.96812 0.78367 0.0
C249 C 0.58781 0.98159 0.80388 0.0
C250 C 0.60043 0.96361 0.74063 0.0
O251 O 0.60953 0.97877 0.74757 0.0
O252 O 0.59685 0.9492 0.75163 0.0
C253 C 0.62922 0.02476 0.75915 0.0
O254 O 0.61276 0.02135 0.7492 0.0
C255 C 0.64529 0.95051 0.78961 0.0
Zn256 Zn 0.99792 0.27665 0.84862 0.0
Zn257 Zn 0.00085 0.24363 0.86865 0.0
O258 O 0.02653 0.24422 0.85242 0.0
O259 O 0.02307 0.27099 0.83508 0.0
O260 O 0.00328 0.21954 0.88559 0.0
O261 O 0.99826 0.29302 0.87347 0.0
O262 O 0.99895 0.26552 0.88995 0.0
C263 C 0.03291 0.25607 0.83954 0.0
C264 C 0.96558 0.24988 0.84055 0.0
O265 O 0.97501 0.23889 0.85232 0.0
O266 O 0.97228 0.26683 0.83679 0.0
C267 C 0.00778 0.20253 0.8794 0.0
O268 O 0.01101 0.19976 0.86059 0.0
C269 C 0.99832 0.28421 0.88971 0.0
Zn270 Zn 0.49731 0.77078 0.34596 0.0
Zn271 Zn 0.50102 0.73821 0.36644 0.0
O272 O 0.52721 0.73971 0.351 0.0
O273 O 0.52423 0.76753 0.33531 0.0
O274 O 0.50339 0.71418 0.38358 0.0
O275 O 0.49339 0.78692 0.37043 0.0
O276 O 0.49765 0.76016 0.38752 0.0
C277 C 0.53416 0.75258 0.33944 0.0
C278 C 0.46735 0.74234 0.33576 0.0
O279 O 0.47589 0.73253 0.34919 0.0
O280 O 0.47402 0.7591 0.33129 0.0
C281 C 0.51293 0.69884 0.37937 0.0
O282 O 0.52196 0.69776 0.3625 0.0
C283 C 0.49449 0.77853 0.38686 0.0
Zn284 Zn 0.95768 0.78167 0.59661 0.0
Zn285 Zn 0.99262 0.7761 0.6147 0.0
O286 O 0.999 0.79826 0.59539 0.0
O287 O 0.97068 0.8022 0.57993 0.0
O288 O 0.01809 0.77187 0.62948 0.0
O289 O 0.94588 0.78962 0.62246 0.0
O290 O 0.97421 0.78378 0.63712 0.0
C291 C 0.98866 0.80684 0.58241 0.0
C292 C 0.97185 0.74241 0.59147 0.0
O293 O 0.98655 0.74926 0.60142 0.0
O294 O 0.95735 0.75322 0.58776 0.0
C295 C 0.03391 0.76696 0.62126 0.0
O296 O 0.03403 0.76461 0.60205 0.0
C297 C 0.95637 0.78896 0.638 0.0
Zn298 Zn 0.45229 0.28428 0.0993 0.0
Zn299 Zn 0.48727 0.27517 0.11562 0.0
O300 O 0.49444 0.29816 0.09761 0.0
O301 O 0.46606 0.30506 0.08354 0.0
O302 O 0.51306 0.26785 0.12835 0.0
O303 O 0.44214 0.291 0.1262 0.0
O304 O 0.47039 0.28239 0.13942 0.0
C305 C 0.48436 0.3083 0.08563 0.0
C306 C 0.46335 0.24462 0.09086 0.0
O307 O 0.47872 0.24984 0.10072 0.0
O308 O 0.44953 0.25658 0.08842 0.0
C309 C 0.52416 0.28074 0.13679 0.0
O310 O 0.5188 0.29916 0.13688 0.0
C311 C 0.45297 0.2886 0.14128 0.0
H312 H 0.21309 0.77509 0.78582 0.0
H313 H 0.2158 0.79386 0.81676 0.0
H314 H 0.226 0.74047 0.84825 0.0
H315 H 0.22267 0.72151 0.81749 0.0
H316 H 0.19912 0.76556 0.86659 0.0
H317 H 0.26773 0.8053 0.84671 0.0
H318 H 0.24761 0.80741 0.82945 0.0
H319 H 0.25857 0.78394 0.83318 0.0
C320 C 0.21574 0.76731 0.79935 0.0
C321 C 0.21777 0.74679 0.79915 0.0
C322 C 0.21745 0.77809 0.81699 0.0
C323 C 0.22134 0.76859 0.83476 0.0
C324 C 0.22308 0.7481 0.83468 0.0
H325 H 0.27042 0.81086 0.94391 0.0
H326 H 0.26177 0.79515 0.9125 0.0
C327 C 0.22136 0.73731 0.81706 0.0
C328 C 0.2239 0.77995 0.85345 0.0
H329 H 0.25379 0.81389 0.87704 0.0
C330 C 0.211 0.77622 0.86887 0.0
C331 C 0.2395 0.79373 0.85641 0.0
C332 C 0.25427 0.79778 0.84066 0.0
C333 C 0.21342 0.78576 0.88727 0.0
C334 C 0.22902 0.79952 0.8902 0.0
C335 C 0.24174 0.80343 0.87469 0.0
C336 C 0.23349 0.80886 0.90967 0.0
C337 C 0.19973 0.78053 0.90362 0.0
C338 C 0.22041 0.8218 0.9186 0.0
C339 C 0.22531 0.83088 0.93674 0.0
C340 C 0.24343 0.8272 0.94615 0.0
C341 C 0.25636 0.8141 0.93713 0.0
C342 C 0.25146 0.80509 0.91912 0.0
H343 H 0.19082 0.76707 0.90008 0.0
H344 H 0.20811 0.77825 0.91754 0.0
H345 H 0.18953 0.79281 0.9061 0.0
H346 H 0.20657 0.82513 0.9114 0.0
H347 H 0.21506 0.84094 0.94323 0.0
H348 H 0.00454 0.54361 0.45989 0.0
H349 H 0.02838 0.53683 0.43441 0.0
H350 H 0.98117 0.52221 0.3933 0.0
H351 H 0.95719 0.52982 0.41843 0.0
H352 H 0.03438 0.50255 0.41551 0.0
H353 H 0.01463 0.559 0.36127 0.0
H354 H 0.00598 0.55956 0.38619 0.0
H355 H 0.994 0.54393 0.36787 0.0
C356 C 0.99919 0.53934 0.44532 0.0
C357 C 0.97892 0.53736 0.44119 0.0
C358 C 0.01286 0.53534 0.43081 0.0
C359 C 0.00657 0.52932 0.41186 0.0
C360 C 0.98637 0.52727 0.40768 0.0
H361 H 0.06872 0.46176 0.32681 0.0
H362 H 0.04796 0.47448 0.35265 0.0
C363 C 0.97267 0.53135 0.42216 0.0
C364 C 0.02115 0.52408 0.39683 0.0
H365 H 0.03497 0.53306 0.34977 0.0
C366 C 0.03462 0.50936 0.40121 0.0
C367 C 0.02168 0.53319 0.37829 0.0
C368 C 0.00843 0.54994 0.37317 0.0
C369 C 0.04816 0.50302 0.38731 0.0
C370 C 0.04792 0.51133 0.36838 0.0
C371 C 0.03495 0.52655 0.36422 0.0
C372 C 0.06052 0.50387 0.3525 0.0
C373 C 0.06261 0.48748 0.39305 0.0
C374 C 0.07408 0.51633 0.34339 0.0
C375 C 0.08594 0.50913 0.32842 0.0
C376 C 0.08433 0.48935 0.32227 0.0
C377 C 0.0705 0.47702 0.33128 0.0
C378 C 0.05866 0.48424 0.34615 0.0
H379 H 0.0649 0.48706 0.40926 0.0
H380 H 0.05678 0.47289 0.38809 0.0
H381 H 0.07703 0.49002 0.38611 0.0
H382 H 0.07562 0.53158 0.34799 0.0
H383 H 0.09638 0.51903 0.32174 0.0
H384 H 0.84094 0.77698 0.84168 0.0
H385 H 0.83596 0.75232 0.86677 0.0
H386 H 0.81986 0.79748 0.90822 0.0
H387 H 0.825 0.82244 0.88313 0.0
H388 H 0.85356 0.74894 0.90484 0.0
H389 H 0.77257 0.75854 0.90745 0.0
H390 H 0.78713 0.76821 0.88781 0.0
H391 H 0.7878 0.78011 0.91155 0.0
C392 C 0.83667 0.78176 0.85622 0.0
C393 C 0.8334 0.8017 0.86041 0.0
C394 C 0.83373 0.76762 0.87051 0.0
C395 C 0.82735 0.77306 0.88926 0.0
C396 C 0.82448 0.79297 0.89372 0.0
H397 H 0.79084 0.68616 0.97686 0.0
H398 H 0.80012 0.7179 0.9628 0.0
C399 C 0.82743 0.80718 0.87939 0.0
C400 C 0.82332 0.75761 0.90377 0.0
H401 H 0.78591 0.73315 0.9261 0.0
C402 C 0.83882 0.74564 0.90972 0.0
C403 C 0.80408 0.75343 0.91018 0.0
C404 C 0.78686 0.76562 0.90388 0.0
C405 C 0.83546 0.72912 0.92131 0.0
C406 C 0.81608 0.72434 0.92683 0.0
C407 C 0.80074 0.73689 0.9218 0.0
C408 C 0.81116 0.70533 0.93589 0.0
C409 C 0.85262 0.71666 0.92718 0.0
C410 C 0.8141 0.68786 0.92528 0.0
C411 C 0.80875 0.66982 0.93315 0.0
C412 C 0.80029 0.66885 0.95182 0.0
C413 C 0.79739 0.6864 0.96248 0.0
C414 C 0.80267 0.70452 0.95449 0.0
H415 H 0.86667 0.72521 0.92709 0.0
H416 H 0.85065 0.7105 0.94204 0.0
H417 H 0.85377 0.70427 0.91651 0.0
H418 H 0.82027 0.68821 0.91073 0.0
H419 H 0.81117 0.65663 0.92451 0.0
H420 H 0.00089 0.97115 0.422 0.0
H421 H 0.97897 0.97542 0.39363 0.0
H422 H 0.02802 0.99393 0.35896 0.0
H423 H 0.05031 0.98902 0.38708 0.0
H424 H 0.99291 0.01967 0.35959 0.0
H425 H 0.9758 0.9415 0.34084 0.0
H426 H 0.97441 0.94799 0.36651 0.0
H427 H 0.99767 0.94923 0.35456 0.0
C428 C 0.00715 0.97573 0.40826 0.0
C429 C 0.02743 0.97965 0.40685 0.0
C430 C 0.99456 0.97824 0.39208 0.0
C431 C 0.00194 0.9848 0.3742 0.0
C432 C 0.0221 0.98878 0.37265 0.0
H433 H 0.92307 0.99372 0.27029 0.0
H434 H 0.95351 0.98968 0.28974 0.0
C435 C 0.03477 0.9861 0.38879 0.0
C436 C 0.98831 0.98836 0.3575 0.0
H437 H 0.95464 0.96533 0.32684 0.0
C438 C 0.98477 0.0078 0.35217 0.0
C439 C 0.97787 0.97282 0.34778 0.0
C440 C 0.98168 0.95167 0.35254 0.0
C441 C 0.9702 0.01214 0.33811 0.0
C442 C 0.95899 0.99666 0.32921 0.0
C443 C 0.96328 0.97717 0.33374 0.0
C444 C 0.94137 0.00045 0.31691 0.0
C445 C 0.96644 0.03328 0.33325 0.0
C446 C 0.92462 0.00785 0.32581 0.0
C447 C 0.90727 0.00994 0.31489 0.0
C448 C 0.90636 0.00479 0.29478 0.0
C449 C 0.92336 0.9979 0.28572 0.0
C450 C 0.94071 0.99554 0.29679 0.0
H451 H 0.97905 0.04302 0.33773 0.0
H452 H 0.96347 0.03488 0.31725 0.0
H453 H 0.9533 0.03824 0.3412 0.0
H454 H 0.92481 0.01151 0.34137 0.0
H455 H 0.89447 0.01535 0.32229 0.0
H456 H 0.26383 0.23885 0.68765 0.0
H457 H 0.26962 0.21715 0.65941 0.0
H458 H 0.20715 0.20995 0.6497 0.0
H459 H 0.20122 0.23209 0.67754 0.0
H460 H 0.25728 0.17793 0.65221 0.0
H461 H 0.22711 0.22827 0.59622 0.0
H462 H 0.23316 0.23621 0.62108 0.0
H463 H 0.21076 0.22264 0.61584 0.0
C464 C 0.25132 0.23276 0.67941 0.0
C465 C 0.23206 0.23731 0.68476 0.0
C466 C 0.25466 0.22026 0.66338 0.0
C467 C 0.23882 0.21216 0.65232 0.0
C468 C 0.21958 0.2163 0.65786 0.0
H469 H 0.24409 0.11754 0.56463 0.0
H470 H 0.23771 0.13736 0.59407 0.0
C471 C 0.21622 0.22879 0.6739 0.0
C472 C 0.24249 0.19953 0.63489 0.0
H473 H 0.23585 0.1966 0.58505 0.0
C474 C 0.2526 0.18197 0.63752 0.0
C475 C 0.23656 0.205 0.61573 0.0
C476 C 0.22645 0.22413 0.61193 0.0
C477 C 0.2568 0.16962 0.62147 0.0
C478 C 0.2505 0.17489 0.60236 0.0
C479 C 0.24052 0.19252 0.59974 0.0
C480 C 0.2546 0.16264 0.58477 0.0
C481 C 0.26832 0.15127 0.62504 0.0
C482 C 0.26592 0.17039 0.56963 0.0
C483 C 0.26951 0.15917 0.55276 0.0
C484 C 0.26174 0.13996 0.55064 0.0
C485 C 0.25038 0.13223 0.56584 0.0
C486 C 0.24679 0.1435 0.58272 0.0
H487 H 0.27604 0.15177 0.63959 0.0
H488 H 0.25812 0.13839 0.62471 0.0
H489 H 0.27933 0.14906 0.61342 0.0
H490 H 0.27202 0.18516 0.57089 0.0
H491 H 0.2783 0.1656 0.54135 0.0
H492 H 0.50324 0.5558 0.57196 0.0
H493 H 0.47957 0.55263 0.59834 0.0
H494 H 0.47876 0.48973 0.59041 0.0
H495 H 0.50194 0.4928 0.56354 0.0
H496 H 0.44154 0.50493 0.59374 0.0
H497 H 0.49068 0.53353 0.65396 0.0
H498 H 0.48843 0.5498 0.63357 0.0
H499 H 0.49967 0.52635 0.63017 0.0
C500 C 0.49794 0.54128 0.57571 0.0
C501 C 0.50456 0.52454 0.56562 0.0
C502 C 0.48457 0.53949 0.59097 0.0
C503 C 0.47762 0.52092 0.59658 0.0
C504 C 0.48403 0.5042 0.58644 0.0
H505 H 0.41566 0.49466 0.7041 0.0
H506 H 0.43907 0.49643 0.67734 0.0
C507 C 0.4974 0.50597 0.57117 0.0
C508 C 0.46337 0.51895 0.61276 0.0
H509 H 0.457 0.52903 0.66157 0.0
C510 C 0.44493 0.51014 0.60859 0.0
C511 C 0.4679 0.52552 0.6322 0.0
C512 C 0.4878 0.53416 0.63785 0.0
C513 C 0.43079 0.50804 0.62322 0.0
C514 C 0.43507 0.51522 0.6425 0.0
C515 C 0.45364 0.52371 0.64675 0.0
C516 C 0.42059 0.51391 0.65853 0.0
C517 C 0.4115 0.49786 0.61797 0.0
C518 C 0.40244 0.52328 0.65696 0.0
C519 C 0.38898 0.52225 0.67222 0.0
C520 C 0.39344 0.51195 0.68946 0.0
C521 C 0.41169 0.50267 0.69103 0.0
C522 C 0.42512 0.5037 0.67575 0.0
H523 H 0.41254 0.48868 0.60439 0.0
H524 H 0.40652 0.4884 0.63012 0.0
H525 H 0.40017 0.50906 0.61531 0.0
H526 H 0.39877 0.53159 0.644 0.0
H527 H 0.37514 0.52968 0.67055 0.0
H528 H 0.76295 0.2659 0.71544 0.0
H529 H 0.75769 0.28935 0.68897 0.0
H530 H 0.74299 0.24147 0.6488 0.0
H531 H 0.74791 0.2181 0.67519 0.0
H532 H 0.77742 0.29277 0.65633 0.0
H533 H 0.69977 0.27837 0.6355 0.0
H534 H 0.71055 0.2694 0.65802 0.0
H535 H 0.71325 0.25603 0.63518 0.0
C536 C 0.75842 0.26043 0.70099 0.0
C537 C 0.75577 0.24016 0.69741 0.0
C538 C 0.75533 0.27383 0.68591 0.0
C539 C 0.74954 0.26724 0.66695 0.0
C540 C 0.7468 0.24701 0.66341 0.0
H541 H 0.77895 0.30829 0.55578 0.0
H542 H 0.77534 0.29447 0.5882 0.0
C543 C 0.74973 0.23363 0.6785 0.0
C544 C 0.7482 0.28121 0.65042 0.0
H545 H 0.71998 0.29298 0.61036 0.0
C546 C 0.76469 0.29307 0.64652 0.0
C547 C 0.73148 0.282 0.63776 0.0
C548 C 0.7127 0.27092 0.64197 0.0
C549 C 0.76541 0.30463 0.62966 0.0
C550 C 0.7494 0.30398 0.61608 0.0
C551 C 0.73237 0.29322 0.62062 0.0
C552 C 0.75099 0.31265 0.59629 0.0
C553 C 0.78355 0.31707 0.62631 0.0
C554 C 0.73801 0.32706 0.58972 0.0
C555 C 0.73994 0.33502 0.57092 0.0
C556 C 0.75481 0.32855 0.55841 0.0
C557 C 0.76744 0.31381 0.56501 0.0
C558 C 0.76549 0.30593 0.58365 0.0
H559 H 0.79112 0.32117 0.64044 0.0
H560 H 0.79397 0.30856 0.61735 0.0
H561 H 0.77992 0.33068 0.61836 0.0
H562 H 0.72656 0.33228 0.5992 0.0
H563 H 0.72992 0.34628 0.56626 0.0
H564 H 0.4985 0.91545 0.59332 0.0
H565 H 0.52248 0.92261 0.61981 0.0
H566 H 0.52532 0.98324 0.60265 0.0
H567 H 0.50128 0.97619 0.57611 0.0
H568 H 0.56089 0.93818 0.61868 0.0
H569 H 0.51159 0.98683 0.66089 0.0
H570 H 0.50268 0.97108 0.64097 0.0
H571 H 0.51565 0.99355 0.63585 0.0
C572 C 0.50436 0.93027 0.59508 0.0
C573 C 0.4979 0.94529 0.58274 0.0
C574 C 0.51801 0.93435 0.61023 0.0
C575 C 0.52545 0.9535 0.61334 0.0
C576 C 0.51945 0.96844 0.60074 0.0
H577 H 0.59811 0.99402 0.71477 0.0
H578 H 0.58277 0.99326 0.68182 0.0
C579 C 0.50571 0.9644 0.58562 0.0
C580 C 0.5392 0.95773 0.63005 0.0
H581 H 0.54304 0.98169 0.67445 0.0
C582 C 0.55708 0.94782 0.63081 0.0
C583 C 0.53422 0.97042 0.64578 0.0
C584 C 0.51495 0.981 0.64601 0.0
C585 C 0.5699 0.94987 0.64713 0.0
C586 C 0.56455 0.96193 0.66317 0.0
C587 C 0.54709 0.97249 0.66207 0.0
C588 C 0.57572 0.96219 0.68205 0.0
C589 C 0.58893 0.93889 0.64721 0.0
C590 C 0.57685 0.94497 0.69299 0.0
C591 C 0.58544 0.94537 0.71177 0.0
C592 C 0.59306 0.96302 0.72002 0.0
C593 C 0.59243 0.98018 0.7088 0.0
C594 C 0.58367 0.97978 0.69001 0.0
H595 H 0.59362 0.93536 0.63202 0.0
H596 H 0.60083 0.94751 0.65492 0.0
H597 H 0.58686 0.92486 0.65502 0.0
H598 H 0.57045 0.93132 0.68727 0.0
H599 H 0.58569 0.93189 0.71999 0.0
H600 H 0.78729 0.20701 0.77825 0.0
H601 H 0.81795 0.20966 0.79758 0.0
H602 H 0.84901 0.22666 0.74573 0.0
H603 H 0.81855 0.2235 0.72618 0.0
H604 H 0.86852 0.19816 0.76884 0.0
H605 H 0.845 0.26227 0.81361 0.0
H606 H 0.8288 0.24117 0.81355 0.0
H607 H 0.83226 0.25444 0.79125 0.0
C608 C 0.80067 0.21116 0.77093 0.0
C609 C 0.80044 0.21516 0.75068 0.0
C610 C 0.81815 0.21281 0.78203 0.0
C611 C 0.8357 0.21856 0.77313 0.0
C612 C 0.83559 0.22227 0.75289 0.0
H613 H 0.94242 0.27058 0.81561 0.0
H614 H 0.91098 0.2608 0.80067 0.0
C615 C 0.81814 0.22064 0.74178 0.0
C616 C 0.85416 0.2211 0.78487 0.0
H617 H 0.87631 0.24983 0.82072 0.0
C618 C 0.87022 0.20934 0.78031 0.0
C619 C 0.85631 0.23577 0.79974 0.0
C620 C 0.83977 0.24928 0.8048 0.0
C621 C 0.8885 0.2121 0.78999 0.0
C622 C 0.89068 0.2269 0.80471 0.0
C623 C 0.87452 0.23838 0.80954 0.0
C624 C 0.91005 0.23214 0.81384 0.0
C625 C 0.90556 0.19974 0.78389 0.0
C626 C 0.92003 0.21922 0.82626 0.0
C627 C 0.9382 0.22478 0.83493 0.0
C628 C 0.9466 0.24337 0.8313 0.0
C629 C 0.93648 0.25615 0.81878 0.0
C630 C 0.91843 0.25062 0.81021 0.0
H631 H 0.9022 0.19099 0.77028 0.0
H632 H 0.91873 0.20916 0.78141 0.0
H633 H 0.90926 0.18946 0.79584 0.0
H634 H 0.91368 0.20496 0.82942 0.0
H635 H 0.94556 0.21462 0.84454 0.0
H636 H 0.48062 0.8827 0.54975 0.0
H637 H 0.48435 0.85453 0.52733 0.0
H638 H 0.46731 0.89025 0.47831 0.0
H639 H 0.46373 0.91841 0.50048 0.0
H640 H 0.44793 0.85305 0.47929 0.0
H641 H 0.52912 0.84729 0.48784 0.0
H642 H 0.51516 0.84713 0.51001 0.0
H643 H 0.51615 0.86888 0.49551 0.0
C644 C 0.47782 0.88457 0.53417 0.0
C645 C 0.47188 0.9028 0.52689 0.0
C646 C 0.47995 0.86848 0.5214 0.0
C647 C 0.47628 0.87038 0.50116 0.0
C648 C 0.47018 0.88848 0.49391 0.0
H649 H 0.48344 0.81665 0.38974 0.0
H650 H 0.47842 0.83617 0.41943 0.0
C651 C 0.46805 0.90453 0.50661 0.0
C652 C 0.47867 0.85365 0.48731 0.0
H653 H 0.51322 0.82548 0.46532 0.0
C654 C 0.46216 0.84686 0.4764 0.0
C655 C 0.49725 0.84552 0.48368 0.0
C656 C 0.51551 0.8526 0.49474 0.0
C657 C 0.46384 0.83262 0.46145 0.0
C658 C 0.48254 0.8252 0.45716 0.0
C659 C 0.49891 0.83124 0.46869 0.0
C660 C 0.48564 0.81291 0.43942 0.0
C661 C 0.44566 0.82596 0.45001 0.0
C662 C 0.49176 0.79343 0.44086 0.0
C663 C 0.49464 0.7821 0.42381 0.0
C664 C 0.49168 0.79023 0.40511 0.0
C665 C 0.48582 0.80987 0.40386 0.0
C666 C 0.48284 0.82106 0.42082 0.0
H667 H 0.43212 0.82876 0.45837 0.0
H668 H 0.44472 0.83419 0.43609 0.0
H669 H 0.44621 0.81006 0.44625 0.0
H670 H 0.49414 0.78697 0.45514 0.0
H671 H 0.49922 0.76705 0.42528 0.0
H672 H 0.17233 0.24856 0.72042 0.0
H673 H 0.14461 0.24434 0.74236 0.0
H674 H 0.18202 0.2603 0.79217 0.0
H675 H 0.2098 0.26481 0.77022 0.0
H676 H 0.13787 0.22085 0.77423 0.0
H677 H 0.13839 0.29975 0.79634 0.0
H678 H 0.15268 0.2906 0.77625 0.0
H679 H 0.16095 0.28735 0.80123 0.0
C680 C 0.17471 0.25098 0.73607 0.0
C681 C 0.19321 0.25718 0.74358 0.0
C682 C 0.15885 0.24857 0.74859 0.0
C683 C 0.16116 0.25229 0.76887 0.0
C684 C 0.17979 0.25777 0.77652 0.0
H685 H 0.06225 0.23026 0.84918 0.0
H686 H 0.0945 0.22755 0.8338 0.0
C687 C 0.19564 0.26034 0.76397 0.0
C688 C 0.14379 0.25122 0.78171 0.0
H689 H 0.11455 0.27937 0.8105 0.0
C690 C 0.13283 0.23358 0.78231 0.0
C691 C 0.13719 0.26791 0.79213 0.0
C692 C 0.14778 0.28753 0.79138 0.0
C693 C 0.11517 0.23232 0.79264 0.0
C694 C 0.10849 0.24907 0.80285 0.0
C695 C 0.11977 0.26651 0.80274 0.0
C696 C 0.08888 0.24964 0.81197 0.0
C697 C 0.10335 0.21338 0.79179 0.0
C698 C 0.07511 0.26296 0.80488 0.0
C699 C 0.05691 0.26465 0.81366 0.0
C700 C 0.05195 0.25303 0.82981 0.0
C701 C 0.06559 0.23935 0.83672 0.0
C702 C 0.08398 0.23774 0.82791 0.0
H703 H 0.10876 0.20302 0.78042 0.0
H704 H 0.10439 0.20615 0.80627 0.0
H705 H 0.08763 0.21627 0.78862 0.0
H706 H 0.07853 0.27224 0.79256 0.0
H707 H 0.04677 0.27526 0.80784 0.0
H708 H 0.55956 0.56659 0.50484 0.0
H709 H 0.55618 0.59271 0.48082 0.0
H710 H 0.49342 0.58325 0.47899 0.0
H711 H 0.49671 0.55667 0.50254 0.0
H712 H 0.50931 0.58679 0.44189 0.0
H713 H 0.53548 0.64773 0.49131 0.0
H714 H 0.55224 0.62777 0.48955 0.0
H715 H 0.52863 0.62385 0.50033 0.0
C716 C 0.54504 0.56996 0.49924 0.0
C717 C 0.5284 0.55955 0.5057 0.0
C718 C 0.54311 0.58506 0.48567 0.0
C719 C 0.52452 0.59016 0.47834 0.0
C720 C 0.5079 0.57967 0.48456 0.0
H721 H 0.4959 0.69638 0.41543 0.0
H722 H 0.49824 0.66971 0.43895 0.0
C723 C 0.5098 0.56457 0.49814 0.0
C724 C 0.52241 0.6062 0.46393 0.0
H725 H 0.53122 0.65518 0.45751 0.0
C726 C 0.51406 0.60176 0.44531 0.0
C727 C 0.52837 0.62578 0.46849 0.0
C728 C 0.53651 0.63167 0.48856 0.0
C729 C 0.5118 0.61629 0.43104 0.0
C730 C 0.51833 0.63573 0.43539 0.0
C731 C 0.52639 0.64024 0.45412 0.0
C732 C 0.51673 0.6517 0.42082 0.0
C733 C 0.50211 0.61074 0.41155 0.0
C734 C 0.52647 0.65054 0.40285 0.0
C735 C 0.52513 0.66576 0.38932 0.0
C736 C 0.51412 0.68253 0.39356 0.0
C737 C 0.50447 0.68368 0.41164 0.0
C738 C 0.50581 0.66845 0.42514 0.0
H739 H 0.49339 0.59686 0.41243 0.0
H740 H 0.49231 0.62252 0.40638 0.0
H741 H 0.5136 0.60857 0.40041 0.0
H742 H 0.53531 0.63796 0.39936 0.0
H743 H 0.53285 0.66443 0.37561 0.0
H744 H 0.87048 0.85472 0.79245 0.0
H745 H 0.89055 0.84854 0.76363 0.0
H746 H 0.88515 0.78623 0.77273 0.0
H747 H 0.86419 0.79214 0.80072 0.0
H748 H 0.92518 0.82961 0.75722 0.0
H749 H 0.86342 0.79146 0.71732 0.0
H750 H 0.86013 0.80505 0.73994 0.0
H751 H 0.86949 0.78053 0.74043 0.0
C752 C 0.87349 0.83969 0.78828 0.0
C753 C 0.86547 0.82394 0.79881 0.0
C754 C 0.88511 0.8362 0.77191 0.0
C755 C 0.88897 0.81691 0.7658 0.0
C756 C 0.88198 0.80121 0.77693 0.0
H757 H 0.9711 0.78198 0.675 0.0
H758 H 0.95567 0.78924 0.70644 0.0
C759 C 0.87021 0.80466 0.79314 0.0
C760 C 0.89949 0.81317 0.74728 0.0
H761 H 0.89451 0.79032 0.70242 0.0
C762 C 0.9185 0.82106 0.74519 0.0
C763 C 0.89059 0.80228 0.7315 0.0
C764 C 0.86972 0.79451 0.73228 0.0
C765 C 0.92894 0.81817 0.72779 0.0
C766 C 0.92027 0.80673 0.71228 0.0
C767 C 0.90122 0.79896 0.71438 0.0
C768 C 0.93027 0.80307 0.69343 0.0
C769 C 0.94893 0.82782 0.72603 0.0
C770 C 0.92096 0.80804 0.67566 0.0
C771 C 0.92954 0.80359 0.65772 0.0
C772 C 0.9477 0.79414 0.65714 0.0
C773 C 0.95717 0.78939 0.67496 0.0
C774 C 0.94844 0.79366 0.69294 0.0
H775 H 0.95101 0.8403 0.73662 0.0
H776 H 0.9604 0.81692 0.72929 0.0
H777 H 0.95118 0.83328 0.71093 0.0
H778 H 0.90692 0.81526 0.67567 0.0
H779 H 0.92189 0.80753 0.64428 0.0
H780 H 0.05153 0.96261 0.49453 0.0
H781 H 0.04522 0.93649 0.5179 0.0
H782 H 0.03306 0.89582 0.46979 0.0
H783 H 0.0402 0.92164 0.4463 0.0
H784 H 0.01132 0.91654 0.52263 0.0
H785 H 0.06979 0.86439 0.50407 0.0
H786 H 0.06995 0.8894 0.49571 0.0
H787 H 0.05517 0.87088 0.48301 0.0
C788 C 0.04792 0.94801 0.4889 0.0
C789 C 0.04645 0.94421 0.46852 0.0
C790 C 0.0442 0.93313 0.50228 0.0
C791 C 0.03898 0.91413 0.49561 0.0
C792 C 0.03751 0.91025 0.47529 0.0
H793 H 0.97075 0.8265 0.55265 0.0
H794 H 0.98439 0.85272 0.5329 0.0
C795 C 0.0413 0.92511 0.46187 0.0
C796 C 0.03374 0.89875 0.50987 0.0
H797 H 0.04334 0.85173 0.52326 0.0
C798 C 0.01848 0.90245 0.5229 0.0
C799 C 0.04329 0.88048 0.51045 0.0
C800 C 0.0606 0.8761 0.4977 0.0
C801 C 0.01197 0.88812 0.53595 0.0
C802 C 0.02071 0.86945 0.53568 0.0
C803 C 0.03652 0.86599 0.52325 0.0
C804 C 0.0129 0.8531 0.54748 0.0
C805 C 0.99573 0.89309 0.54985 0.0
C806 C 0.02464 0.84415 0.56184 0.0
C807 C 0.0169 0.82897 0.57317 0.0
C808 C 0.99733 0.82247 0.57021 0.0
C809 C 0.98582 0.83123 0.55548 0.0
C810 C 0.99355 0.84631 0.54421 0.0
H811 H 0.99478 0.90919 0.55239 0.0
H812 H 0.98148 0.88782 0.54337 0.0
H813 H 0.99791 0.88591 0.56426 0.0
H814 H 0.03968 0.8491 0.56446 0.0
H815 H 0.02618 0.82248 0.58432 0.0
H816 H 0.16111 0.7374 0.75673 0.0
H817 H 0.13459 0.74446 0.73334 0.0
H818 H 0.17392 0.73602 0.68516 0.0
H819 H 0.2007 0.72921 0.7085 0.0
H820 H 0.13386 0.77457 0.70438 0.0
H821 H 0.12603 0.69961 0.67122 0.0
H822 H 0.13877 0.70435 0.69439 0.0
H823 H 0.15038 0.71025 0.67171 0.0
C824 C 0.16421 0.73722 0.74117 0.0
C825 C 0.18307 0.73278 0.73449 0.0
C826 C 0.14899 0.74114 0.72783 0.0
C827 C 0.15225 0.74056 0.70754 0.0
C828 C 0.17103 0.73621 0.70076 0.0
H829 H 0.07047 0.75709 0.60862 0.0
H830 H 0.09998 0.7516 0.62882 0.0
C831 C 0.1863 0.73231 0.71412 0.0
C832 C 0.13597 0.74484 0.69357 0.0
H833 H 0.10594 0.72412 0.65789 0.0
C834 C 0.12776 0.76357 0.69418 0.0
C835 C 0.12817 0.73048 0.68022 0.0
C836 C 0.13614 0.70998 0.67935 0.0
C837 C 0.11188 0.76832 0.68181 0.0
C838 C 0.10373 0.75382 0.66879 0.0
C839 C 0.1122 0.7352 0.6679 0.0
C840 C 0.08596 0.75745 0.65652 0.0
C841 C 0.1041 0.78891 0.68267 0.0
C842 C 0.06824 0.7623 0.66541 0.0
C843 C 0.0514 0.7655 0.65394 0.0
C844 C 0.05188 0.76372 0.63333 0.0
C845 C 0.06961 0.75864 0.62445 0.0
C846 C 0.08648 0.75548 0.63596 0.0
H847 H 0.11529 0.79952 0.68876 0.0
H848 H 0.09934 0.79382 0.66786 0.0
H849 H 0.09123 0.78923 0.69242 0.0
H850 H 0.06738 0.76344 0.68127 0.0
H851 H 0.03798 0.76923 0.66129 0.0
H852 H 0.98852 0.57275 0.50342 0.0
H853 H 0.99397 0.60136 0.52523 0.0
H854 H 0.93263 0.61534 0.51972 0.0
H855 H 0.92708 0.58683 0.49796 0.0
H856 H 0.98813 0.63999 0.5167 0.0
H857 H 0.94172 0.61825 0.57888 0.0
H858 H 0.94901 0.60103 0.56007 0.0
H859 H 0.92862 0.61694 0.55575 0.0
C860 C 0.97619 0.58191 0.50691 0.0
C861 C 0.95734 0.57751 0.49903 0.0
C862 C 0.97931 0.59818 0.51943 0.0
C863 C 0.96364 0.61026 0.52438 0.0
C864 C 0.94483 0.6059 0.51654 0.0
H865 H 0.94143 0.72247 0.57316 0.0
H866 H 0.94147 0.6895 0.5587 0.0
C867 C 0.94168 0.58963 0.50407 0.0
C868 C 0.96709 0.62813 0.53675 0.0
H869 H 0.95064 0.65246 0.5773 0.0
C870 C 0.9802 0.64261 0.53014 0.0
C871 C 0.95678 0.63145 0.55432 0.0
C872 C 0.9434 0.616 0.56279 0.0
C873 C 0.98249 0.66074 0.54006 0.0
C874 C 0.97153 0.66435 0.55713 0.0
C875 C 0.95897 0.64963 0.56416 0.0
C876 C 0.97165 0.68389 0.56692 0.0
C877 C 0.9959 0.67625 0.53173 0.0
C878 C 0.98856 0.69151 0.57662 0.0
C879 C 0.9886 0.71042 0.58497 0.0
C880 C 0.97173 0.72198 0.58369 0.0
C881 C 0.95471 0.71404 0.57433 0.0
C882 C 0.95467 0.69517 0.56609 0.0
H883 H 0.001 0.67218 0.51682 0.0
H884 H 0.98831 0.69051 0.53091 0.0
H885 H 0.00898 0.67834 0.54156 0.0
H886 H 0.00174 0.68289 0.57758 0.0
H887 H 0.00192 0.71608 0.59212 0.0
H888 H 0.74886 0.80583 0.25421 0.0
H889 H 0.76645 0.83737 0.257 0.0
H890 H 0.7687 0.84027 0.1938 0.0
H891 H 0.75032 0.80922 0.19083 0.0
H892 H 0.80303 0.8475 0.24433 0.0
H893 H 0.74698 0.89348 0.20788 0.0
H894 H 0.74172 0.86876 0.21559 0.0
H895 H 0.75471 0.87299 0.19325 0.0
C896 C 0.75281 0.81331 0.24088 0.0
C897 C 0.74806 0.80499 0.22229 0.0
C898 C 0.76301 0.83127 0.24251 0.0
C899 C 0.76865 0.84133 0.22561 0.0
C900 C 0.76416 0.83298 0.20704 0.0
H901 H 0.83521 0.95296 0.21715 0.0
H902 H 0.81977 0.92092 0.20876 0.0
C903 C 0.75388 0.81507 0.20539 0.0
C904 C 0.77956 0.86035 0.22754 0.0
H905 H 0.77732 0.90907 0.2166 0.0
C906 C 0.79742 0.86094 0.23822 0.0
C907 C 0.77227 0.87789 0.21949 0.0
C908 C 0.75279 0.87837 0.20856 0.0
C909 C 0.80805 0.87859 0.24125 0.0
C910 C 0.80059 0.89613 0.23349 0.0
C911 C 0.78303 0.89553 0.22239 0.0
C912 C 0.80997 0.91543 0.23825 0.0
C913 C 0.82713 0.87844 0.25288 0.0
C914 C 0.80931 0.92294 0.2575 0.0
C915 C 0.81791 0.94116 0.26229 0.0
C916 C 0.82744 0.95228 0.24793 0.0
C917 C 0.82804 0.94474 0.22857 0.0
C918 C 0.81923 0.92649 0.22374 0.0
H919 H 0.83307 0.86341 0.25397 0.0
H920 H 0.8383 0.88814 0.2461 0.0
H921 H 0.82461 0.88408 0.268 0.0
H922 H 0.80203 0.91471 0.26884 0.0
H923 H 0.81715 0.94646 0.27735 0.0
H924 H 0.73396 0.18415 0.29056 0.0
H925 H 0.75658 0.15745 0.28463 0.0
H926 H 0.76179 0.17481 0.22425 0.0
H927 H 0.73921 0.20184 0.23012 0.0
H928 H 0.75561 0.13421 0.22878 0.0
H929 H 0.81606 0.16173 0.27785 0.0
H930 H 0.79291 0.16091 0.28997 0.0
H931 H 0.79633 0.17714 0.26965 0.0
C932 C 0.74012 0.18252 0.27608 0.0
C933 C 0.7349 0.19529 0.26088 0.0
C934 C 0.75306 0.16723 0.27271 0.0
C935 C 0.76117 0.16437 0.2541 0.0
C936 C 0.7558 0.17685 0.23876 0.0
H937 H 0.83691 0.06325 0.22504 0.0
H938 H 0.82043 0.09485 0.22102 0.0
C939 C 0.74283 0.19222 0.24213 0.0
C940 C 0.77474 0.14791 0.25073 0.0
H941 H 0.81624 0.12727 0.26948 0.0
C942 C 0.7691 0.13284 0.23735 0.0
C943 C 0.79242 0.14625 0.26179 0.0
C944 C 0.79991 0.16247 0.27547 0.0
C945 C 0.77998 0.11556 0.23577 0.0
C946 C 0.79694 0.11342 0.24778 0.0
C947 C 0.80317 0.12894 0.26033 0.0
C948 C 0.80692 0.09438 0.24953 0.0
C949 C 0.77269 0.09919 0.22219 0.0
C950 C 0.80482 0.08381 0.26687 0.0
C951 C 0.81407 0.06591 0.26918 0.0
C952 C 0.8258 0.05814 0.25423 0.0
C953 C 0.82796 0.06879 0.23681 0.0
C954 C 0.81854 0.08679 0.23446 0.0
H955 H 0.75854 0.10268 0.21476 0.0
H956 H 0.78376 0.0964 0.21077 0.0
H957 H 0.77074 0.08546 0.23056 0.0
H958 H 0.79592 0.08942 0.27866 0.0
H959 H 0.81206 0.05822 0.28282 0.0
H960 H 0.41675 0.00154 0.95769 0.0
H961 H 0.38834 0.97996 0.96253 0.0
H962 H 0.35326 0.02994 0.97703 0.0
H963 H 0.38144 0.05187 0.97148 0.0
H964 H 0.35395 0.99627 0.00521 0.0
H965 H 0.33588 0.97484 0.92771 0.0
H966 H 0.36149 0.97413 0.9346 0.0
H967 H 0.34922 0.99722 0.93436 0.0
C968 C 0.40292 0.00806 0.96146 0.0
C969 C 0.40142 0.0285 0.96411 0.0
C970 C 0.38671 0.99567 0.96431 0.0
C971 C 0.36872 0.00341 0.96996 0.0
C972 C 0.36705 0.02374 0.9726 0.0
H973 H 0.26573 0.92442 0.98357 0.0
H974 H 0.28459 0.9549 0.97798 0.0
C975 C 0.38321 0.03621 0.96955 0.0
C976 C 0.35205 0.99002 0.9741 0.0
H977 H 0.32195 0.95494 0.95264 0.0
C978 C 0.34668 0.98747 0.99371 0.0
C979 C 0.34254 0.9787 0.95902 0.0
C980 C 0.34741 0.9814 0.93769 0.0
C981 C 0.33279 0.97303 0.99874 0.0
C982 C 0.32412 0.96096 0.98377 0.0
C983 C 0.32866 0.96426 0.96406 0.0
C984 C 0.31219 0.94339 0.98845 0.0
C985 C 0.32795 0.97026 0.02007 0.0
C986 C 0.32153 0.927 0.99621 0.0
C987 C 0.31095 0.90965 0.99917 0.0
C988 C 0.29074 0.90837 0.99457 0.0
C989 C 0.28125 0.92502 0.98734 0.0
C990 C 0.29198 0.94238 0.9841 0.0
H991 H 0.33248 0.98324 0.02927 0.0
H992 H 0.31196 0.96749 0.02172 0.0
H993 H 0.3358 0.9573 0.02568 0.0
H994 H 0.33717 0.92749 0.99948 0.0
H995 H 0.31868 0.89712 0.00484 0.0
H996 H 0.33045 0.38495 0.31843 0.0
H997 H 0.30455 0.40873 0.31181 0.0
H998 H 0.26129 0.36797 0.33355 0.0
H999 H 0.28678 0.34422 0.33993 0.0
H1000 H 0.27139 0.4034 0.28697 0.0
H1001 H 0.24906 0.41868 0.36333 0.0
H1002 H 0.27212 0.40744 0.35759 0.0
H1003 H 0.24984 0.39285 0.358 0.0
C1004 C 0.31541 0.38113 0.32188 0.0
C1005 C 0.31072 0.36278 0.32995 0.0
C1006 C 0.30068 0.39474 0.31816 0.0
C1007 C 0.28108 0.39026 0.32259 0.0
C1008 C 0.2764 0.37196 0.33057 0.0
H1009 H 0.16362 0.41736 0.30106 0.0
H1010 H 0.19616 0.40529 0.30945 0.0
C1011 C 0.29102 0.3584 0.33424 0.0
C1012 C 0.26513 0.40399 0.31788 0.0
H1013 H 0.22493 0.42512 0.33785 0.0
C1014 C 0.26147 0.40858 0.29811 0.0
C1015 C 0.25228 0.41079 0.33248 0.0
C1016 C 0.25613 0.40736 0.35406 0.0
C1017 C 0.24449 0.41861 0.29243 0.0
C1018 C 0.23102 0.42422 0.30692 0.0
C1019 C 0.23526 0.42063 0.32677 0.0
C1020 C 0.21154 0.43198 0.30163 0.0
C1021 C 0.24043 0.42213 0.2709 0.0
C1022 C 0.20948 0.45105 0.29452 0.0
C1023 C 0.19082 0.45808 0.28974 0.0
C1024 C 0.17399 0.44608 0.29196 0.0
C1025 C 0.17623 0.42698 0.2991 0.0
C1026 C 0.19481 0.42005 0.30396 0.0
H1027 H 0.25161 0.41541 0.26135 0.0
H1028 H 0.22572 0.41604 0.26655 0.0
H1029 H 0.24033 0.43816 0.26826 0.0
H1030 H 0.22227 0.4605 0.29278 0.0
H1031 H 0.1896 0.47286 0.2843 0.0
H1032 H 0.0948 0.00375 0.41863 0.0
H1033 H 0.1226 0.02627 0.42535 0.0
H1034 H 0.10645 0.03045 0.48626 0.0
H1035 H 0.07869 0.0078 0.47967 0.0
H1036 H 0.1243 0.06453 0.44032 0.0
H1037 H 0.16343 0.01346 0.48989 0.0
H1038 H 0.14282 0.00566 0.47445 0.0
H1039 H 0.13887 0.01914 0.4969 0.0
C1040 C 0.09708 0.0096 0.43342 0.0
C1041 C 0.08469 0.00389 0.44866 0.0
C1042 C 0.11298 0.02242 0.43724 0.0
C1043 C 0.11676 0.02976 0.45636 0.0
C1044 C 0.10405 0.02459 0.47149 0.0
H1045 H 0.21935 0.09896 0.499 0.0
H1046 H 0.1862 0.08431 0.49697 0.0
C1047 C 0.08821 0.01167 0.46771 0.0
C1048 C 0.13425 0.04252 0.46041 0.0
H1049 H 0.17828 0.04446 0.48528 0.0
C1050 C 0.13606 0.06021 0.45024 0.0
C1051 C 0.14953 0.03687 0.47342 0.0
C1052 C 0.14873 0.01768 0.48419 0.0
C1053 C 0.15291 0.07225 0.45248 0.0
C1054 C 0.16839 0.06631 0.46505 0.0
C1055 C 0.16632 0.04898 0.47572 0.0
C1056 C 0.18756 0.07686 0.466 0.0
C1057 C 0.1541 0.09113 0.44127 0.0
C1058 C 0.19921 0.07751 0.44926 0.0
C1059 C 0.21812 0.08571 0.45038 0.0
C1060 C 0.22577 0.09342 0.4683 0.0
C1061 C 0.21387 0.09321 0.48497 0.0
C1062 C 0.19495 0.08484 0.48386 0.0
H1063 H 0.13929 0.09631 0.43693 0.0
H1064 H 0.16181 0.10285 0.45012 0.0
H1065 H 0.16248 0.08865 0.42765 0.0
H1066 H 0.19391 0.07109 0.43544 0.0
H1067 H 0.22687 0.08564 0.43726 0.0
H1068 H 0.76108 0.15699 0.73337 0.0
H1069 H 0.7389 0.12881 0.73785 0.0
H1070 H 0.68928 0.16719 0.73705 0.0
H1071 H 0.71141 0.19553 0.7328 0.0
H1072 H 0.69067 0.13902 0.76897 0.0
H1073 H 0.70007 0.10483 0.69511 0.0
H1074 H 0.72246 0.11127 0.7083 0.0
H1075 H 0.70628 0.13026 0.70047 0.0
C1076 C 0.74545 0.15944 0.73425 0.0
C1077 C 0.73797 0.17847 0.73273 0.0
C1078 C 0.73281 0.14332 0.73664 0.0
C1079 C 0.71247 0.14593 0.73756 0.0
C1080 C 0.70494 0.16489 0.73624 0.0
H1081 H 0.62224 0.05351 0.73239 0.0
H1082 H 0.64158 0.0836 0.7274 0.0
C1083 C 0.71757 0.18103 0.73372 0.0
C1084 C 0.69911 0.12885 0.74028 0.0
H1085 H 0.68287 0.08595 0.71847 0.0
C1086 C 0.68887 0.12745 0.75791 0.0
C1087 C 0.69668 0.11392 0.72573 0.0
C1088 C 0.7068 0.11512 0.70624 0.0
C1089 C 0.6766 0.11119 0.76159 0.0
C1090 C 0.67467 0.09595 0.74729 0.0
C1091 C 0.68451 0.09761 0.72945 0.0
C1092 C 0.66271 0.078 0.75069 0.0
C1093 C 0.66573 0.11045 0.78068 0.0
C1094 C 0.6683 0.06486 0.76535 0.0
C1095 C 0.65735 0.04762 0.76819 0.0
C1096 C 0.64059 0.04323 0.75641 0.0
C1097 C 0.63502 0.05648 0.74176 0.0
C1098 C 0.64605 0.07367 0.73887 0.0
H1099 H 0.6652 0.12512 0.78799 0.0
H1100 H 0.65048 0.10478 0.7782 0.0
H1101 H 0.67334 0.10036 0.79083 0.0
H1102 H 0.68128 0.06781 0.77444 0.0
H1103 H 0.66209 0.03772 0.77956 0.0
H1104 H 0.43158 0.96996 0.57718 0.0
H1105 H 0.40525 0.99334 0.57134 0.0
H1106 H 0.41057 0.98453 0.50879 0.0
H1107 H 0.43717 0.96164 0.51439 0.0
H1108 H 0.40757 0.02889 0.54753 0.0
H1109 H 0.35106 0.97499 0.52015 0.0
H1110 H 0.37228 0.96802 0.5346 0.0
H1111 H 0.37454 0.97273 0.50881 0.0
C1112 C 0.42724 0.97309 0.56217 0.0
C1113 C 0.43645 0.96384 0.54624 0.0
C1114 C 0.41213 0.98636 0.55889 0.0
C1115 C 0.40584 0.99041 0.53966 0.0
C1116 C 0.415 0.98129 0.52376 0.0
H1117 H 0.33139 0.06075 0.47144 0.0
H1118 H 0.35395 0.03773 0.4863 0.0
C1119 C 0.43015 0.96815 0.527 0.0
C1120 C 0.39009 0.0046 0.53596 0.0
H1121 H 0.34518 0.00869 0.51352 0.0
C1122 C 0.39377 0.02452 0.54039 0.0
C1123 C 0.37212 0.99874 0.52673 0.0
C1124 C 0.36712 0.97743 0.52244 0.0
C1125 C 0.38038 0.03893 0.53473 0.0
C1126 C 0.36278 0.03312 0.52472 0.0
C1127 C 0.35874 0.0131 0.52114 0.0
C1128 C 0.34918 0.04756 0.51619 0.0
C1129 C 0.38563 0.06027 0.53857 0.0
C1130 C 0.33897 0.06076 0.52811 0.0
C1131 C 0.32604 0.0741 0.51962 0.0
C1132 C 0.32303 0.07432 0.4991 0.0
C1133 C 0.33331 0.06102 0.48729 0.0
C1134 C 0.34621 0.0478 0.49576 0.0
H1135 H 0.40125 0.0624 0.54322 0.0
H1136 H 0.38282 0.06902 0.52521 0.0
H1137 H 0.37632 0.06608 0.55045 0.0
H1138 H 0.34084 0.06059 0.54396 0.0
H1139 H 0.31826 0.08408 0.52913 0.0
H1140 H 0.54665 0.475 0.53739 0.0
H1141 H 0.5736 0.4519 0.53459 0.0
H1142 H 0.61298 0.49942 0.51985 0.0
H1143 H 0.5863 0.52269 0.52322 0.0
H1144 H 0.59638 0.44364 0.50198 0.0
H1145 H 0.64295 0.47248 0.56414 0.0
H1146 H 0.61754 0.47901 0.56088 0.0
H1147 H 0.6362 0.49063 0.54653 0.0
C1148 C 0.56111 0.48059 0.53382 0.0
C1149 C 0.5643 0.50074 0.53063 0.0
C1150 C 0.57646 0.46734 0.5321 0.0
C1151 C 0.59538 0.47395 0.52728 0.0
C1152 C 0.59861 0.49402 0.52393 0.0
H1153 H 0.70671 0.41715 0.50732 0.0
H1154 H 0.67984 0.44028 0.51049 0.0
C1155 C 0.58326 0.50728 0.52564 0.0
C1156 C 0.61159 0.45978 0.52526 0.0
H1157 H 0.65713 0.44856 0.54331 0.0
C1158 C 0.60962 0.44464 0.51108 0.0
C1159 C 0.62889 0.46114 0.53712 0.0
C1160 C 0.63152 0.47657 0.55315 0.0
C1161 C 0.62461 0.43105 0.50818 0.0
C1162 C 0.64191 0.43241 0.52003 0.0
C1163 C 0.64388 0.44755 0.53422 0.0
C1164 C 0.65812 0.41824 0.51799 0.0
C1165 C 0.62198 0.41562 0.49215 0.0
C1166 C 0.65491 0.39818 0.52137 0.0
C1167 C 0.67023 0.3849 0.51954 0.0
C1168 C 0.68913 0.39143 0.51441 0.0
C1169 C 0.69234 0.41159 0.51122 0.0
C1170 C 0.677 0.42485 0.51306 0.0
H1171 H 0.6105 0.41967 0.48119 0.0
H1172 H 0.63594 0.41324 0.48438 0.0
H1173 H 0.61738 0.40154 0.49878 0.0
H1174 H 0.64056 0.3928 0.52558 0.0
H1175 H 0.66725 0.36952 0.52223 0.0
H1176 H 0.74214 0.2529 0.30499 0.0
H1177 H 0.74436 0.27061 0.33659 0.0
H1178 H 0.68155 0.2655 0.34219 0.0
H1179 H 0.67923 0.24741 0.3108 0.0
H1180 H 0.72515 0.30628 0.3483 0.0
H1181 H 0.70433 0.24225 0.39376 0.0
H1182 H 0.7122 0.23957 0.36868 0.0
H1183 H 0.68791 0.24783 0.37368 0.0
C1184 C 0.72882 0.25542 0.31301 0.0
C1185 C 0.71052 0.24866 0.30543 0.0
C1186 C 0.73009 0.26566 0.33098 0.0
C1187 C 0.71314 0.26921 0.34178 0.0
C1188 C 0.69483 0.26274 0.33416 0.0
H1189 H 0.71677 0.34599 0.44804 0.0
H1190 H 0.7055 0.33095 0.4166 0.0
C1191 C 0.69352 0.25255 0.31616 0.0
C1192 C 0.71479 0.27946 0.36114 0.0
H1193 H 0.71088 0.27222 0.41049 0.0
C1194 C 0.72185 0.29894 0.36191 0.0
C1195 C 0.71054 0.26976 0.37883 0.0
C1196 C 0.70345 0.24865 0.37885 0.0
C1197 C 0.72515 0.30887 0.37997 0.0
C1198 C 0.72117 0.29907 0.39766 0.0
C1199 C 0.71371 0.27974 0.39687 0.0
C1200 C 0.7268 0.30779 0.41711 0.0
C1201 C 0.73369 0.32945 0.38006 0.0
C1202 C 0.74213 0.29946 0.42795 0.0
C1203 C 0.74857 0.30795 0.44575 0.0
C1204 C 0.73973 0.32494 0.45324 0.0
C1205 C 0.7239 0.33294 0.44267 0.0
C1206 C 0.71752 0.32444 0.42468 0.0
H1207 H 0.73843 0.33394 0.36522 0.0
H1208 H 0.72248 0.33988 0.38517 0.0
H1209 H 0.7465 0.33069 0.39039 0.0
H1210 H 0.74946 0.28658 0.42238 0.0
H1211 H 0.7607 0.30129 0.45354 0.0
H1212 H 0.44346 0.03775 0.90701 0.0
H1213 H 0.46808 0.02827 0.88309 0.0
H1214 H 0.51421 0.042 0.92567 0.0
H1215 H 0.48974 0.05071 0.94992 0.0
H1216 H 0.49957 0.04924 0.86736 0.0
H1217 H 0.52513 0.98528 0.90982 0.0
H1218 H 0.50285 0.99794 0.91545 0.0
H1219 H 0.52629 0.00817 0.92325 0.0
C1220 C 0.45884 0.03859 0.91135 0.0
C1221 C 0.46461 0.04482 0.93045 0.0
C1222 C 0.47289 0.03335 0.8976 0.0
C1223 C 0.49294 0.03418 0.90271 0.0
C1224 C 0.49879 0.04094 0.92154 0.0
H1225 H 0.58849 0.01924 0.81911 0.0
H1226 H 0.56605 0.03326 0.84311 0.0
C1227 C 0.48477 0.04612 0.93531 0.0
C1228 C 0.50769 0.02749 0.88848 0.0
H1229 H 0.54275 0.9931 0.88133 0.0
C1230 C 0.50906 0.037 0.87039 0.0
C1231 C 0.51988 0.01138 0.89244 0.0
C1232 C 0.5184 -5e-05 0.9112 0.0
C1233 C 0.5223 0.03078 0.85609 0.0
C1234 C 0.53468 0.01485 0.86018 0.0
C1235 C 0.53336 0.00543 0.87831 0.0
C1236 C 0.54824 0.0068 0.84544 0.0
C1237 C 0.5225 0.04091 0.83652 0.0
C1238 C 0.54589 0.98721 0.8391 0.0
C1239 C 0.55875 0.97913 0.82563 0.0
C1240 C 0.57428 0.99047 0.81816 0.0
C1241 C 0.57663 0.01014 0.82451 0.0
C1242 C 0.56375 0.01821 0.83812 0.0
H1243 H 0.50916 0.04978 0.83411 0.0
H1244 H 0.5355 0.05092 0.83607 0.0
H1245 H 0.52354 0.03006 0.82425 0.0
H1246 H 0.53404 0.97814 0.84459 0.0
H1247 H 0.55644 0.96396 0.82106 0.0
H1248 H 0.30223 0.30719 0.36599 0.0
H1249 H 0.296 0.28081 0.38875 0.0
H1250 H 0.35815 0.27043 0.39375 0.0
H1251 H 0.3647 0.29784 0.37195 0.0
H1252 H 0.30347 0.24397 0.38096 0.0
H1253 H 0.34266 0.26557 0.45026 0.0
H1254 H 0.33797 0.28272 0.43084 0.0
H1255 H 0.3583 0.2663 0.42935 0.0
C1256 C 0.3147 0.29987 0.37245 0.0
C1257 C 0.33402 0.30477 0.36709 0.0
C1258 C 0.31106 0.2846 0.38536 0.0
C1259 C 0.32659 0.2737 0.3931 0.0
C1260 C 0.34594 0.27886 0.3883 0.0
H1261 H 0.31557 0.15223 0.42444 0.0
H1262 H 0.32359 0.18382 0.40998 0.0
C1263 C 0.34964 0.29437 0.37555 0.0
C1264 C 0.32226 0.2557 0.40432 0.0
H1265 H 0.33268 0.2317 0.4469 0.0
C1266 C 0.30973 0.24141 0.39546 0.0
C1267 C 0.33027 0.25241 0.42332 0.0
C1268 C 0.34288 0.26765 0.43409 0.0
C1269 C 0.30527 0.2238 0.40486 0.0
C1270 C 0.31405 0.22007 0.4234 0.0
C1271 C 0.3262 0.23451 0.43255 0.0
C1272 C 0.31086 0.2011 0.43328 0.0
C1273 C 0.29102 0.20945 0.39487 0.0
C1274 C 0.30185 0.20038 0.45164 0.0
C1275 C 0.29742 0.18228 0.4601 0.0
C1276 C 0.3019 0.16465 0.45027 0.0
C1277 C 0.31165 0.16552 0.43227 0.0
C1278 C 0.31621 0.18356 0.42394 0.0
H1279 H 0.28143 0.21679 0.38394 0.0
H1280 H 0.29936 0.19806 0.38693 0.0
H1281 H 0.28157 0.20205 0.40573 0.0
H1282 H 0.29773 0.21379 0.45913 0.0
H1283 H 0.28998 0.18211 0.47403 0.0
H1284 H 0.53094 0.44668 0.90149 0.0
H1285 H 0.50788 0.44958 0.87364 0.0
H1286 H 0.50192 0.51125 0.88706 0.0
H1287 H 0.52522 0.50849 0.91461 0.0
H1288 H 0.4706 0.45897 0.87458 0.0
H1289 H 0.50902 0.51309 0.82871 0.0
H1290 H 0.52112 0.50088 0.84882 0.0
H1291 H 0.50647 0.52216 0.85339 0.0
C1292 C 0.52481 0.46088 0.89837 0.0
C1293 C 0.52991 0.47737 0.91016 0.0
C1294 C 0.51172 0.46254 0.88242 0.0
C1295 C 0.50344 0.48072 0.878 0.0
C1296 C 0.50857 0.49721 0.88976 0.0
H1297 H 0.3912 0.50221 0.8266 0.0
H1298 H 0.42042 0.49724 0.84695 0.0
C1299 C 0.52181 0.4956 0.90558 0.0
C1300 C 0.48819 0.48211 0.8622 0.0
H1301 H 0.47413 0.50909 0.82258 0.0
C1302 C 0.47154 0.46975 0.86305 0.0
C1303 C 0.4895 0.49593 0.84692 0.0
C1304 C 0.5076 0.50861 0.84426 0.0
C1305 C 0.45579 0.47144 0.84965 0.0
C1306 C 0.45646 0.48625 0.83532 0.0
C1307 C 0.4735 0.49797 0.8338 0.0
C1308 C 0.43918 0.49039 0.82256 0.0
C1309 C 0.4385 0.45741 0.85109 0.0
C1310 C 0.44024 0.4891 0.80198 0.0
C1311 C 0.4235 0.49217 0.79019 0.0
C1312 C 0.40548 0.49659 0.79885 0.0
C1313 C 0.40475 0.49857 0.81944 0.0
C1314 C 0.42143 0.49562 0.83113 0.0
H1315 H 0.4428 0.44351 0.85819 0.0
H1316 H 0.42709 0.46425 0.86023 0.0
H1317 H 0.43195 0.45385 0.83635 0.0
H1318 H 0.45388 0.48527 0.79508 0.0
H1319 H 0.42456 0.4906 0.77438 0.0
H1320 H 0.73281 0.71396 0.20479 0.0
H1321 H 0.74014 0.69121 0.17773 0.0
H1322 H 0.74793 0.74009 0.139 0.0
H1323 H 0.74037 0.76285 0.16575 0.0
H1324 H 0.7204 0.68693 0.14049 0.0
H1325 H 0.79866 0.70875 0.13262 0.0
H1326 H 0.78484 0.7148 0.15422 0.0
H1327 H 0.78211 0.72895 0.13228 0.0
C1328 C 0.73601 0.71985 0.19049 0.0
C1329 C 0.73616 0.74025 0.18748 0.0
C1330 C 0.74028 0.70685 0.17509 0.0
C1331 C 0.74489 0.714 0.15648 0.0
C1332 C 0.74485 0.7343 0.15338 0.0
H1333 H 0.77008 0.67044 0.04091 0.0
H1334 H 0.76379 0.68939 0.07082 0.0
C1335 C 0.74056 0.74729 0.16871 0.0
C1336 C 0.74924 0.70032 0.14005 0.0
H1337 H 0.78428 0.68909 0.1067 0.0
C1338 C 0.73443 0.68721 0.13321 0.0
C1339 C 0.76756 0.70076 0.13063 0.0
C1340 C 0.78429 0.71393 0.1379 0.0
C1341 C 0.73719 0.67504 0.11666 0.0
C1342 C 0.75537 0.6758 0.10697 0.0
C1343 C 0.77033 0.68859 0.11411 0.0
C1344 C 0.75898 0.66401 0.08893 0.0
C1345 C 0.72038 0.66204 0.10925 0.0
C1346 C 0.75853 0.64342 0.08922 0.0
C1347 C 0.76207 0.63249 0.0721 0.0
C1348 C 0.76626 0.642 0.05441 0.0
C1349 C 0.76687 0.66264 0.05425 0.0
C1350 C 0.7633 0.67351 0.07135 0.0
H1351 H 0.70615 0.66648 0.11551 0.0
H1352 H 0.7191 0.66237 0.09296 0.0
H1353 H 0.72311 0.64669 0.11358 0.0
H1354 H 0.7556 0.63579 0.10273 0.0
H1355 H 0.7616 0.61663 0.07275 0.0
H1356 H 0.00038 0.9981 0.06402 0.0
H1357 H 0.97743 0.99627 0.09125 0.0
H1358 H 0.98267 0.05897 0.09996 0.0
H1359 H 0.00544 0.06093 0.07268 0.0
H1360 H 0.98233 0.0063 0.12989 0.0
H1361 H 0.92375 0.05131 0.09684 0.0
H1362 H 0.94389 0.04209 0.08276 0.0
H1363 H 0.94718 0.06377 0.09802 0.0
C1364 C 0.99667 0.01149 0.07177 0.0
C1365 C 0.00464 0.02968 0.06609 0.0
C1366 C 0.9835 0.01043 0.08728 0.0
C1367 C 0.978 0.02752 0.09742 0.0
C1368 C 0.98622 0.04565 0.09202 0.0
H1369 H 0.90996 0.05415 0.20019 0.0
H1370 H 0.93114 0.05448 0.17156 0.0
C1371 C 0.99929 0.04674 0.07645 0.0
C1372 C 0.96408 0.02634 0.11398 0.0
H1373 H 0.92087 0.04422 0.1309 0.0
C1374 C 0.96881 0.01446 0.13003 0.0
C1375 C 0.9464 0.03696 0.11416 0.0
C1376 C 0.93988 0.04909 0.09694 0.0
C1377 C 0.95663 0.01333 0.14644 0.0
C1378 C 0.93916 0.02422 0.14674 0.0
C1379 C 0.93431 0.03595 0.13065 0.0
C1380 C 0.92591 0.02392 0.16381 0.0
C1381 C 0.96279 0.0009 0.16357 0.0
C1382 C 0.91567 0.00669 0.16876 0.0
C1383 C 0.90346 0.00645 0.18509 0.0
C1384 C 0.90128 0.02346 0.19679 0.0
C1385 C 0.91134 0.04077 0.19157 0.0
C1386 C 0.92344 0.04101 0.17519 0.0
H1387 H 0.97841 0.99661 0.16276 0.0
H1388 H 0.9606 0.00886 0.17771 0.0
H1389 H 0.95357 0.98731 0.16359 0.0
H1390 H 0.91715 0.99341 0.16 0.0
H1391 H 0.89591 0.99289 0.18865 0.0
H1392 H 0.22885 0.74883 0.19948 0.0
H1393 H 0.22367 0.76909 0.17036 0.0
H1394 H 0.28326 0.75912 0.1531 0.0
H1395 H 0.28849 0.73872 0.18193 0.0
H1396 H 0.24768 0.80413 0.15659 0.0
H1397 H 0.24597 0.73938 0.10592 0.0
H1398 H 0.24164 0.73747 0.13195 0.0
H1399 H 0.26623 0.74043 0.12327 0.0
C1400 C 0.24085 0.75101 0.18949 0.0
C1401 C 0.25906 0.74211 0.19296 0.0
C1402 C 0.23789 0.76266 0.17295 0.0
C1403 C 0.25303 0.76542 0.15954 0.0
C1404 C 0.27136 0.75703 0.16325 0.0
H1405 H 0.2819 0.81503 0.05136 0.0
H1406 H 0.27826 0.79853 0.08248 0.0
C1407 C 0.27437 0.74551 0.1798 0.0
C1408 C 0.24964 0.77642 0.14123 0.0
H1409 H 0.249 0.7707 0.09131 0.0
C1410 C 0.24767 0.79687 0.14229 0.0
C1411 C 0.24949 0.76681 0.12267 0.0
C1412 C 0.25077 0.74479 0.12077 0.0
C1413 C 0.2467 0.80812 0.12513 0.0
C1414 C 0.24742 0.79855 0.10655 0.0
C1415 C 0.24848 0.77801 0.10558 0.0
C1416 C 0.24926 0.80951 0.08798 0.0
C1417 C 0.24593 0.83017 0.12697 0.0
C1418 C 0.23412 0.82128 0.08069 0.0
C1419 C 0.23616 0.83089 0.06271 0.0
C1420 C 0.25334 0.82875 0.05176 0.0
C1421 C 0.26843 0.81701 0.05928 0.0
C1422 C 0.26639 0.80752 0.07713 0.0
H1423 H 0.24849 0.83543 0.14236 0.0
H1424 H 0.25707 0.83714 0.11748 0.0
H1425 H 0.23126 0.83511 0.12196 0.0
H1426 H 0.22065 0.82278 0.08873 0.0
H1427 H 0.22426 0.83978 0.05731 0.0
H1428 H 0.99908 0.42002 0.09568 0.0
H1429 H 0.02304 0.42671 0.12229 0.0
H1430 H 0.02583 0.48767 0.1063 0.0
H1431 H 0.00182 0.48109 0.07961 0.0
H1432 H 0.06145 0.44226 0.12097 0.0
H1433 H 0.0128 0.49009 0.16485 0.0
H1434 H 0.0036 0.47472 0.14475 0.0
H1435 H 0.0165 0.49728 0.13988 0.0
C1436 C 0.00491 0.43482 0.09773 0.0
C1437 C 0.99848 0.45005 0.08563 0.0
C1438 C 0.01854 0.43863 0.11296 0.0
C1439 C 0.02599 0.45772 0.11641 0.0
C1440 C 0.01994 0.47291 0.10412 0.0
H1441 H 0.10118 0.49671 0.2166 0.0
H1442 H 0.08441 0.49636 0.18434 0.0
C1443 C 0.00623 0.46913 0.08891 0.0
C1444 C 0.03994 0.46158 0.13304 0.0
H1445 H 0.04447 0.48472 0.17783 0.0
C1446 C 0.05782 0.45166 0.13334 0.0
C1447 C 0.03519 0.47396 0.14909 0.0
C1448 C 0.01594 0.48454 0.14981 0.0
C1449 C 0.07089 0.45342 0.14949 0.0
C1450 C 0.0658 0.46519 0.16584 0.0
C1451 C 0.04831 0.47574 0.16522 0.0
C1452 C 0.07742 0.46528 0.18444 0.0
C1453 C 0.08993 0.44248 0.14903 0.0
C1454 C 0.07899 0.44793 0.19511 0.0
C1455 C 0.08842 0.44808 0.2135 0.0
C1456 C 0.09645 0.46563 0.22163 0.0
C1457 C 0.09522 0.48295 0.21072 0.0
C1458 C 0.08564 0.48279 0.19232 0.0
H1459 H 0.09431 0.43911 0.13371 0.0
H1460 H 0.10197 0.45104 0.15658 0.0
H1461 H 0.08806 0.42835 0.15673 0.0
H1462 H 0.07241 0.43434 0.18946 0.0
H1463 H 0.08909 0.43448 0.22149 0.0
H1464 H 0.30535 0.68392 0.24507 0.0
H1465 H 0.33633 0.68415 0.26396 0.0
H1466 H 0.33353 0.74702 0.27095 0.0
H1467 H 0.30235 0.74687 0.25238 0.0
H1468 H 0.3714 0.7044 0.25483 0.0
H1469 H 0.34366 0.72773 0.32751 0.0
H1470 H 0.32771 0.71814 0.30797 0.0
H1471 H 0.33629 0.74323 0.30766 0.0
C1472 C 0.3112 0.69777 0.25086 0.0
C1473 C 0.30134 0.71538 0.24733 0.0
C1474 C 0.32894 0.69787 0.26156 0.0
C1475 C 0.33706 0.71555 0.2691 0.0
C1476 C 0.32732 0.73317 0.26556 0.0
H1477 H 0.45143 0.75529 0.30152 0.0
H1478 H 0.42025 0.74545 0.2859 0.0
C1479 C 0.30963 0.73309 0.25478 0.0
C1480 C 0.35618 0.71573 0.27991 0.0
H1481 H 0.37844 0.72968 0.32347 0.0
C1482 C 0.37292 0.70969 0.26992 0.0
C1483 C 0.35808 0.72235 0.29969 0.0
C1484 C 0.34047 0.72806 0.31144 0.0
C1485 C 0.39165 0.71103 0.27887 0.0
C1486 C 0.39368 0.71873 0.29824 0.0
C1487 C 0.37685 0.72385 0.30858 0.0
C1488 C 0.41321 0.72338 0.30727 0.0
C1489 C 0.40918 0.70455 0.2674 0.0
C1490 C 0.41959 0.71425 0.32457 0.0
C1491 C 0.43759 0.7198 0.33358 0.0
C1492 C 0.44924 0.73483 0.32559 0.0
C1493 C 0.44283 0.74369 0.30811 0.0
C1494 C 0.42504 0.73802 0.29907 0.0
H1495 H 0.40485 0.69409 0.25532 0.0
H1496 H 0.41628 0.71756 0.26074 0.0
H1497 H 0.42018 0.69751 0.27714 0.0
H1498 H 0.41056 0.703 0.33119 0.0
H1499 H 0.44207 0.71279 0.34708 0.0
H1500 H 0.9628 0.42268 0.00316 0.0
H1501 H 0.96693 0.39457 0.98105 0.0
H1502 H 0.98844 0.36043 0.02943 0.0
H1503 H 0.98368 0.38828 0.05195 0.0
H1504 H 0.01275 0.36234 0.99302 0.0
H1505 H 0.93459 0.34064 0.97935 0.0
H1506 H 0.94012 0.36649 0.9779 0.0
H1507 H 0.94283 0.35438 0.00102 0.0
C1508 C 0.96801 0.4091 0.00925 0.0
C1509 C 0.97283 0.40777 0.0294 0.0
C1510 C 0.97044 0.39307 0.99655 0.0
C1511 C 0.97782 0.37544 0.00368 0.0
C1512 C 0.98266 0.37395 0.02371 0.0
H1513 H 0.98847 0.27129 0.92632 0.0
H1514 H 0.98445 0.29135 0.95627 0.0
C1515 C 0.98005 0.38993 0.0365 0.0
C1516 C 0.98136 0.35897 0.98987 0.0
H1517 H 0.95795 0.32746 0.9573 0.0
C1518 C 0.0008 0.35447 0.98542 0.0
C1519 C 0.96571 0.3487 0.98012 0.0
C1520 C 0.9446 0.35262 0.98489 0.0
C1521 C 0.00499 0.34062 0.97068 0.0
C1522 C 0.98933 0.33109 0.96022 0.0
C1523 C 0.9699 0.33485 0.96536 0.0
C1524 C 0.99279 0.31865 0.94269 0.0
C1525 C 0.02609 0.33661 0.96594 0.0
C1526 C 0.99877 0.32745 0.92527 0.0
C1527 C 0.00086 0.31616 0.90818 0.0
C1528 C 0.99714 0.29579 0.90822 0.0
C1529 C 0.99153 0.28692 0.92585 0.0
C1530 C 0.9892 0.29833 0.94293 0.0
H1531 H 0.03632 0.34189 0.97789 0.0
H1532 H 0.02822 0.32066 0.96342 0.0
H1533 H 0.02995 0.34429 0.95224 0.0
H1534 H 0.00143 0.34316 0.9248 0.0
H1535 H 0.00525 0.32344 0.89489 0.0
H1536 H 0.68159 0.7885 0.24119 0.0
H1537 H 0.65302 0.78149 0.26133 0.0
H1538 H 0.67291 0.72252 0.27004 0.0
H1539 H 0.70175 0.72947 0.25 0.0
H1540 H 0.62471 0.74755 0.25241 0.0
H1541 H 0.66041 0.7468 0.32687 0.0
H1542 H 0.67116 0.76006 0.30682 0.0
H1543 H 0.6716 0.73379 0.30684 0.0
C1544 C 0.68006 0.77412 0.24762 0.0
C1545 C 0.69397 0.75956 0.24406 0.0
C1546 C 0.66369 0.77012 0.25903 0.0
C1547 C 0.66097 0.75155 0.26726 0.0
C1548 C 0.67487 0.737 0.26394 0.0
H1549 H 0.55938 0.72128 0.34139 0.0
H1550 H 0.59063 0.71774 0.32415 0.0
C1551 C 0.69123 0.74095 0.25239 0.0
C1552 C 0.64305 0.74737 0.27853 0.0
H1553 H 0.62592 0.74364 0.32523 0.0
C1554 C 0.62498 0.74643 0.26831 0.0
C1555 C 0.64351 0.74569 0.29922 0.0
C1556 C 0.66265 0.74668 0.31073 0.0
C1557 C 0.60726 0.7446 0.27831 0.0
C1558 C 0.60761 0.74411 0.2991 0.0
C1559 C 0.62572 0.74404 0.30929 0.0
C1560 C 0.58932 0.74609 0.31036 0.0
C1561 C 0.58824 0.74367 0.26655 0.0
C1562 C 0.57861 0.76335 0.30869 0.0
C1563 C 0.56096 0.76541 0.31842 0.0
C1564 C 0.55357 0.75028 0.33019 0.0
C1565 C 0.56462 0.73316 0.33238 0.0
C1566 C 0.58244 0.73112 0.32255 0.0
H1567 H 0.59053 0.73823 0.2513 0.0
H1568 H 0.57724 0.734 0.27361 0.0
H1569 H 0.58215 0.75863 0.26568 0.0
H1570 H 0.58386 0.77523 0.29967 0.0
H1571 H 0.55302 0.7789 0.3165 0.0
H1572 H 0.0329 0.04445 0.97945 0.0
H1573 H 0.02981 0.07069 0.95548 0.0
H1574 H 0.01697 0.11173 0.00217 0.0
H1575 H 0.02069 0.08578 0.02629 0.0
H1576 H 0.99772 0.09387 0.94691 0.0
H1577 H 0.06102 0.13993 0.97359 0.0
H1578 H 0.05739 0.11484 0.98102 0.0
H1579 H 0.04373 0.13418 0.99231 0.0
C1580 C 0.02968 0.05912 0.98466 0.0
C1581 C 0.02716 0.063 0.00484 0.0
C1582 C 0.02778 0.07407 0.97092 0.0
C1583 C 0.02345 0.09325 0.97705 0.0
C1584 C 0.02069 0.09714 0.99712 0.0
H1585 H 0.00296 0.20364 0.91927 0.0
H1586 H 0.00643 0.17674 0.94237 0.0
C1587 C 0.02259 0.08221 0.01088 0.0
C1588 C 0.02143 0.10908 0.9624 0.0
H1589 H 0.03971 0.15412 0.9499 0.0
C1590 C 0.00697 0.10699 0.94748 0.0
C1591 C 0.03352 0.1262 0.96316 0.0
C1592 C 0.04992 0.1289 0.97826 0.0
C1593 C 0.00397 0.12175 0.93358 0.0
C1594 C 0.01596 0.13892 0.93444 0.0
C1595 C 0.03049 0.14096 0.94929 0.0
C1596 C 0.01358 0.15506 0.9202 0.0
C1597 C 0.98767 0.11905 0.91839 0.0
C1598 C 0.01661 0.15186 0.90005 0.0
C1599 C 0.01463 0.16723 0.88677 0.0
C1600 C 0.00967 0.18613 0.8934 0.0
C1601 C 0.00674 0.18927 0.91362 0.0
C1602 C 0.00874 0.17392 0.92687 0.0
H1603 H 0.97688 0.10752 0.92264 0.0
H1604 H 0.97979 0.13298 0.91614 0.0
H1605 H 0.99402 0.11452 0.90417 0.0
H1606 H 0.02072 0.13752 0.89461 0.0
H1607 H 0.01709 0.1643 0.87132 0.0
H1608 H 0.36213 0.29187 0.30593 0.0
H1609 H 0.38299 0.28408 0.27833 0.0
H1610 H 0.39398 0.3458 0.26947 0.0
H1611 H 0.37415 0.35373 0.29795 0.0
H1612 H 0.37647 0.2928 0.24159 0.0
H1613 H 0.44844 0.32543 0.2643 0.0
H1614 H 0.42868 0.32215 0.28131 0.0
H1615 H 0.42926 0.34305 0.26544 0.0
C1616 C 0.36946 0.30382 0.29856 0.0
C1617 C 0.36652 0.32346 0.30432 0.0
C1618 C 0.38126 0.29932 0.28262 0.0
C1619 C 0.3903 0.31432 0.27196 0.0
C1620 C 0.38758 0.33394 0.27774 0.0
H1621 H 0.4193 0.30763 0.14992 0.0
H1622 H 0.40528 0.3133 0.18215 0.0
C1623 C 0.37596 0.33846 0.29386 0.0
C1624 C 0.4011 0.30947 0.25381 0.0
H1625 H 0.44398 0.31782 0.22983 0.0
C1626 C 0.39131 0.2981 0.23914 0.0
C1627 C 0.42059 0.31611 0.25069 0.0
C1628 C 0.43242 0.32718 0.26637 0.0
C1629 C 0.4002 0.29372 0.22124 0.0
C1630 C 0.41919 0.30142 0.21762 0.0
C1631 C 0.4293 0.31219 0.23252 0.0
C1632 C 0.42848 0.29887 0.19824 0.0
C1633 C 0.38915 0.28077 0.20641 0.0
C1634 C 0.44665 0.28964 0.19663 0.0
C1635 C 0.45489 0.28658 0.17816 0.0
C1636 C 0.44504 0.29271 0.16101 0.0
C1637 C 0.42714 0.30247 0.16279 0.0
C1638 C 0.41904 0.30565 0.18121 0.0
H1639 H 0.37809 0.27126 0.21361 0.0
H1640 H 0.38122 0.29013 0.1958 0.0
H1641 H 0.39928 0.27128 0.19811 0.0
H1642 H 0.45425 0.28444 0.20963 0.0
H1643 H 0.46874 0.27909 0.17729 0.0
H1644 H 0.55457 0.46142 0.99797 0.0
H1645 H 0.54762 0.43582 0.02169 0.0
H1646 H 0.53375 0.39496 0.97416 0.0
H1647 H 0.54165 0.42018 0.95031 0.0
H1648 H 0.51341 0.41758 0.02716 0.0
H1649 H 0.56862 0.36213 0.00847 0.0
H1650 H 0.56991 0.38693 -0.00042 0.0
H1651 H 0.55415 0.36884 0.9874 0.0
C1652 C 0.5505 0.44686 0.99252 0.0
C1653 C 0.54874 0.44286 0.97219 0.0
C1654 C 0.54641 0.43228 0.00613 0.0
C1655 C 0.54046 0.41338 -0.00027 0.0
C1656 C 0.53877 0.40929 0.97946 0.0
H1657 H 0.46732 0.33035 0.05715 0.0
H1658 H 0.48244 0.3561 0.03785 0.0
C1659 C 0.54299 0.42383 0.96583 0.0
C1660 C 0.53458 0.39842 0.0142 0.0
H1661 H 0.54134 0.35086 0.02751 0.0
C1662 C 0.51971 0.40308 0.02739 0.0
C1663 C 0.54301 0.3796 0.01475 0.0
C1664 C 0.55995 0.37413 0.00193 0.0
C1665 C 0.51245 0.38918 0.04051 0.0
C1666 C 0.51995 0.36997 0.04012 0.0
C1667 C 0.53543 0.36553 0.02759 0.0
C1668 C 0.51112 0.35405 0.05183 0.0
C1669 C 0.49672 0.39521 0.0546 0.0
C1670 C 0.5224 0.34388 0.06569 0.0
C1671 C 0.5138 0.32894 0.07672 0.0
C1672 C 0.4938 0.3239 0.07397 0.0
C1673 C 0.4827 0.33395 0.05982 0.0
C1674 C 0.49129 0.34877 0.04881 0.0
H1675 H 0.49708 0.41132 0.05738 0.0
H1676 H 0.48209 0.3912 0.0481 0.0
H1677 H 0.49836 0.38767 0.06887 0.0
H1678 H 0.53779 0.34765 0.06811 0.0
H1679 H 0.52278 0.32144 0.08745 0.0
H1680 H 0.67955 0.26674 0.2435 0.0
H1681 H 0.65165 0.27374 0.22173 0.0
H1682 H 0.64195 0.21173 0.21122 0.0
H1683 H 0.66941 0.20456 0.23355 0.0
H1684 H 0.64453 0.26411 0.18221 0.0
H1685 H 0.58843 0.22992 0.22973 0.0
H1686 H 0.61322 0.23526 0.23829 0.0
H1687 H 0.60801 0.21405 0.2229 0.0
C1688 C 0.6714 0.25457 0.23668 0.0
C1689 C 0.67659 0.23508 0.24043 0.0
C1690 C 0.65555 0.25861 0.22413 0.0
C1691 C 0.64453 0.24325 0.21512 0.0
C1692 C 0.65003 0.22379 0.21832 0.0
H1693 H 0.53845 0.24372 0.14123 0.0
H1694 H 0.56832 0.23425 0.15896 0.0
C1695 C 0.66587 0.21973 0.2309 0.0
C1696 C 0.62717 0.2477 0.20258 0.0
H1697 H 0.57734 0.24163 0.19903 0.0
C1698 C 0.62984 0.25919 0.18586 0.0
C1699 C 0.60801 0.24126 0.2074 0.0
C1700 C 0.60413 0.22958 0.22564 0.0
C1701 C 0.61386 0.26434 0.17376 0.0
C1702 C 0.5947 0.25807 0.1787 0.0
C1703 C 0.59206 0.24637 0.19527 0.0
C1704 C 0.5771 0.26395 0.16723 0.0
C1705 C 0.61763 0.27628 0.15569 0.0
C1706 C 0.57208 0.28378 0.16611 0.0
C1707 C 0.55501 0.28926 0.15603 0.0
C1708 C 0.54258 0.27497 0.14693 0.0
C1709 C 0.54771 0.2551 0.14802 0.0
C1710 C 0.56477 0.24965 0.15815 0.0
H1711 H 0.63318 0.27544 0.15114 0.0
H1712 H 0.60798 0.27126 0.1432 0.0
H1713 H 0.61445 0.2919 0.15893 0.0
H1714 H 0.5812 0.29502 0.17334 0.0
H1715 H 0.55147 0.30467 0.15555 0.0
H1716 H 0.41291 0.09681 0.98546 0.0
H1717 H 0.41898 0.12481 0.00787 0.0
H1718 H 0.47947 0.10817 0.0149 0.0
H1719 H 0.47353 0.08019 0.99242 0.0
H1720 H 0.43222 0.12582 0.04684 0.0
H1721 H 0.48422 0.16542 0.99874 0.0
H1722 H 0.469 0.14507 0.98992 0.0
H1723 H 0.49084 0.1407 0.00432 0.0
C1724 C 0.42748 0.09907 0.99186 0.0
C1725 C 0.44279 0.0864 0.98708 0.0
C1726 C 0.43093 0.11508 0.00461 0.0
C1727 C 0.44974 0.11872 0.01279 0.0
C1728 C 0.46496 0.10588 0.00838 0.0
H1729 H 0.49191 0.21689 0.08798 0.0
H1730 H 0.48941 0.18495 0.07091 0.0
C1731 C 0.46154 0.08991 0.99556 0.0
C1732 C 0.45331 0.13599 0.02594 0.0
H1733 H 0.47886 0.17948 0.03007 0.0
C1734 C 0.44246 0.13753 0.04321 0.0
C1735 C 0.46674 0.15119 0.02119 0.0
C1736 C 0.47827 0.15068 0.00246 0.0
C1737 C 0.44455 0.15398 0.05579 0.0
C1738 C 0.45765 0.16935 0.05082 0.0
C1739 C 0.46888 0.1676 0.03384 0.0
C1740 C 0.4589 0.18798 0.06226 0.0
C1741 C 0.43269 0.15483 0.07427 0.0
C1742 C 0.4426 0.2002 0.06295 0.0
C1743 C 0.44398 0.21842 0.07256 0.0
C1744 C 0.46174 0.22481 0.08165 0.0
C1745 C 0.47801 0.21238 0.08118 0.0
C1746 C 0.47662 0.19416 0.07144 0.0
H1747 H 0.42758 0.13999 0.07868 0.0
H1748 H 0.44138 0.16167 0.08663 0.0
H1749 H 0.41954 0.16387 0.07163 0.0
H1750 H 0.4289 0.19583 0.05565 0.0
H1751 H 0.43117 0.22761 0.07262 0.0
H1752 H 0.27619 0.28711 0.71463 0.0
H1753 H 0.29542 0.3178 0.71708 0.0
H1754 H 0.24284 0.34956 0.72965 0.0
H1755 H 0.22342 0.31906 0.7267 0.0
H1756 H 0.26745 0.36772 0.7015 0.0
H1757 H 0.3087 0.34717 0.76928 0.0
H1758 H 0.30969 0.33001 0.749 0.0
H1759 H 0.28675 0.33414 0.76081 0.0
C1760 C 0.2687 0.30065 0.71779 0.0
C1761 C 0.24828 0.30061 0.7206 0.0
C1762 C 0.27973 0.31814 0.71932 0.0
C1763 C 0.27058 0.33591 0.72375 0.0
C1764 C 0.25019 0.33598 0.72629 0.0
H1765 H 0.31128 0.44468 0.77268 0.0
H1766 H 0.29634 0.41308 0.76363 0.0
C1767 C 0.23915 0.31851 0.72479 0.0
C1768 C 0.2822 0.35444 0.72605 0.0
H1769 H 0.31662 0.37778 0.75563 0.0
C1770 C 0.27832 0.36991 0.71322 0.0
C1771 C 0.29629 0.35723 0.74144 0.0
C1772 C 0.30057 0.34135 0.75605 0.0
C1773 C 0.28795 0.38824 0.71558 0.0
C1774 C 0.30189 0.39107 0.73108 0.0
C1775 C 0.30603 0.37548 0.74366 0.0
C1776 C 0.31092 0.41058 0.73579 0.0
C1777 C 0.2826 0.40468 0.70201 0.0
C1778 C 0.32411 0.41974 0.72305 0.0
C1779 C 0.33278 0.43799 0.7282 0.0
C1780 C 0.3284 0.44729 0.74617 0.0
C1781 C 0.31506 0.43802 0.75873 0.0
C1782 C 0.30648 0.41989 0.75361 0.0
H1783 H 0.26943 0.40097 0.6927 0.0
H1784 H 0.27974 0.41829 0.71061 0.0
H1785 H 0.29507 0.40779 0.69221 0.0
H1786 H 0.32789 0.41267 0.70931 0.0
H1787 H 0.34304 0.44469 0.71823 0.0
H1788 H 0.23752 0.68039 0.78505 0.0
H1789 H 0.25807 0.6519 0.77917 0.0
H1790 H 0.26604 0.66952 0.71924 0.0
H1791 H 0.24556 0.69828 0.72502 0.0
H1792 H 0.24927 0.62234 0.74442 0.0
H1793 H 0.3233 0.65871 0.74632 0.0
H1794 H 0.30307 0.66899 0.75957 0.0
H1795 H 0.30316 0.66984 0.73327 0.0
C1796 C 0.24385 0.67838 0.77068 0.0
C1797 C 0.23996 0.69163 0.75551 0.0
C1798 C 0.2555 0.66205 0.76733 0.0
C1799 C 0.26362 0.65872 0.74882 0.0
C1800 C 0.25998 0.67195 0.73366 0.0
H1801 H 0.34125 0.5581 0.7256 0.0
H1802 H 0.32343 0.58871 0.71992 0.0
C1803 C 0.24819 0.68827 0.73696 0.0
C1804 C 0.27519 0.64087 0.74539 0.0
H1805 H 0.32215 0.62414 0.74466 0.0
C1806 C 0.2652 0.62273 0.74417 0.0
C1807 C 0.29592 0.6415 0.74485 0.0
C1808 C 0.30716 0.66075 0.74609 0.0
C1809 C 0.27544 0.60508 0.74323 0.0
C1810 C 0.29621 0.6056 0.74397 0.0
C1811 C 0.30622 0.6238 0.74412 0.0
C1812 C 0.30752 0.58749 0.74711 0.0
C1813 C 0.2639 0.58598 0.74195 0.0
C1814 C 0.30479 0.57701 0.76441 0.0
C1815 C 0.31484 0.55972 0.76768 0.0
C1816 C 0.32802 0.55247 0.75376 0.0
C1817 C 0.33114 0.56323 0.73656 0.0
C1818 C 0.321 0.58069 0.7333 0.0
H1819 H 0.24905 0.58804 0.73534 0.0
H1820 H 0.27167 0.57482 0.73311 0.0
H1821 H 0.26201 0.58023 0.75699 0.0
H1822 H 0.29478 0.58221 0.77545 0.0
H1823 H 0.31214 0.552 0.78119 0.0
H1824 H 0.90825 0.51989 0.44474 0.0
H1825 H 0.88 0.4975 0.44796 0.0
H1826 H 0.89316 0.49245 0.50997 0.0
H1827 H 0.92106 0.51519 0.50688 0.0
H1828 H 0.87939 0.46056 0.45802 0.0
H1829 H 0.83538 0.50164 0.5116 0.0
H1830 H 0.85591 0.5127 0.49926 0.0
H1831 H 0.85988 0.49815 0.52082 0.0
C1832 C 0.905 0.51409 0.45907 0.0
C1833 C 0.91678 0.51933 0.47558 0.0
C1834 C 0.88883 0.50136 0.46092 0.0
C1835 C 0.88419 0.49357 0.47929 0.0
C1836 C 0.89602 0.49874 0.49577 0.0
H1837 H 0.82722 0.38382 0.50156 0.0
H1838 H 0.8492 0.41161 0.49584 0.0
C1839 C 0.91204 0.51164 0.49398 0.0
C1840 C 0.86788 0.47896 0.48097 0.0
H1841 H 0.82781 0.46704 0.50808 0.0
C1842 C 0.86797 0.46213 0.4688 0.0
C1843 C 0.85272 0.48111 0.49476 0.0
C1844 C 0.85082 0.49949 0.50718 0.0
C1845 C 0.85388 0.44705 0.47062 0.0
C1846 C 0.83963 0.44855 0.48541 0.0
C1847 C 0.83894 0.46575 0.49697 0.0
C1848 C 0.82598 0.43201 0.48966 0.0
C1849 C 0.85444 0.42965 0.45664 0.0
C1850 C 0.80554 0.43443 0.48899 0.0
C1851 C 0.79283 0.41853 0.49255 0.0
C1852 C 0.80039 0.39998 0.49683 0.0
C1853 C 0.82087 0.39782 0.49803 0.0
C1854 C 0.8335 0.41368 0.49464 0.0
H1855 H 0.8615 0.43362 0.44262 0.0
H1856 H 0.86322 0.41792 0.46346 0.0
H1857 H 0.83946 0.42369 0.45325 0.0
H1858 H 0.79943 0.44852 0.48536 0.0
H1859 H 0.77713 0.42069 0.49158 0.0
H1860 H 0.80179 0.86546 0.85322 0.0
H1861 H 0.77289 0.88557 0.84762 0.0
H1862 H 0.77575 0.87372 0.78529 0.0
H1863 H 0.80377 0.85267 0.7908 0.0
H1864 H 0.76582 0.91829 0.82629 0.0
H1865 H 0.72062 0.85559 0.79699 0.0
H1866 H 0.74424 0.85239 0.8088 0.0
H1867 H 0.74265 0.85957 0.78347 0.0
C1868 C 0.79619 0.86701 0.83832 0.0
C1869 C 0.80505 0.85725 0.8225 0.0
C1870 C 0.77978 0.87866 0.83514 0.0
C1871 C 0.77194 0.88082 0.81608 0.0
C1872 C 0.78129 0.8719 0.80017 0.0
H1873 H 0.68214 0.96376 0.7803 0.0
H1874 H 0.71341 0.94791 0.78745 0.0
C1875 C 0.79753 0.86008 0.80334 0.0
C1876 C 0.7536 0.89183 0.81291 0.0
H1877 H 0.707 0.88717 0.79395 0.0
C1878 C 0.75291 0.9115 0.81928 0.0
C1879 C 0.73668 0.88284 0.80406 0.0
C1880 C 0.73596 0.86138 0.79812 0.0
C1881 C 0.73581 0.9225 0.81683 0.0
C1882 C 0.71913 0.91369 0.80733 0.0
C1883 C 0.71983 0.89398 0.8011 0.0
C1884 C 0.70052 0.92428 0.80409 0.0
C1885 C 0.73564 0.94326 0.82486 0.0
C1886 C 0.68285 0.91615 0.81081 0.0
C1887 C 0.665 0.92493 0.8064 0.0
C1888 C 0.66442 0.94213 0.79531 0.0
C1889 C 0.68215 0.9506 0.78902 0.0
C1890 C 0.70004 0.94162 0.79321 0.0
H1891 H 0.74714 0.94576 0.83648 0.0
H1892 H 0.73865 0.95358 0.81278 0.0
H1893 H 0.72114 0.94679 0.83106 0.0
H1894 H 0.68285 0.90279 0.81922 0.0
H1895 H 0.65161 0.9181 0.81156 0.0
H1896 H 0.58132 0.50611 0.98276 0.0
H1897 H 0.60855 0.52947 0.98901 0.0
H1898 H 0.62397 0.52575 0.92788 0.0
H1899 H 0.59682 0.50245 0.92152 0.0
H1900 H 0.64772 0.52341 0.98393 0.0
H1901 H 0.62325 0.5847 0.93754 0.0
H1902 H 0.607 0.56479 0.94427 0.0
H1903 H 0.62362 0.56177 0.92424 0.0
C1904 C 0.59051 0.5103 0.97065 0.0
C1905 C 0.58691 0.50248 0.95163 0.0
C1906 C 0.60598 0.52372 0.97422 0.0
C1907 C 0.61805 0.52962 0.95884 0.0
C1908 C 0.6145 0.52182 0.93985 0.0
H1909 H 0.72803 0.58528 0.94031 0.0
H1910 H 0.69563 0.56947 0.93903 0.0
C1911 C 0.59901 0.50846 0.93625 0.0
C1912 C 0.63511 0.54298 0.9628 0.0
H1913 H 0.65731 0.5852 0.94744 0.0
C1914 C 0.64969 0.53709 0.97621 0.0
C1915 C 0.63759 0.56085 0.95276 0.0
C1916 C 0.62193 0.56852 0.93905 0.0
C1917 C 0.66715 0.54809 0.9791 0.0
C1918 C 0.66995 0.56553 0.96845 0.0
C1919 C 0.65509 0.57179 0.95555 0.0
C1920 C 0.68887 0.57652 0.96923 0.0
C1921 C 0.68286 0.54051 0.9928 0.0
C1922 C 0.6956 0.5861 0.98655 0.0
C1923 C 0.71419 0.59522 0.98736 0.0
C1924 C 0.7263 0.59483 0.97084 0.0
C1925 C 0.71916 0.58575 0.95335 0.0
C1926 C 0.70061 0.57674 0.95255 0.0
H1927 H 0.67966 0.52526 0.99749 0.0
H1928 H 0.69737 0.54089 0.98563 0.0
H1929 H 0.68394 0.55008 0.00615 0.0
H1930 H 0.68661 0.58626 -0.00049 0.0
H1931 H 0.71923 0.60213 0.00104 0.0
H1932 H 0.23012 0.67827 0.20007 0.0
H1933 H 0.2072 0.65088 0.20512 0.0
H1934 H 0.21535 0.65767 0.26791 0.0
H1935 H 0.23774 0.68554 0.26302 0.0
H1936 H 0.21579 0.61638 0.22299 0.0
H1937 H 0.1558 0.65345 0.26202 0.0
H1938 H 0.17443 0.66679 0.24891 0.0
H1939 H 0.17957 0.65796 0.27322 0.0
C1940 C 0.2267 0.67423 0.21497 0.0
C1941 C 0.23571 0.68414 0.23115 0.0
C1942 C 0.2137 0.65849 0.21782 0.0
C1943 C 0.20937 0.65239 0.23689 0.0
C1944 C 0.21817 0.66236 0.25308 0.0
H1945 H 0.16966 0.53806 0.27308 0.0
H1946 H 0.18769 0.56841 0.26634 0.0
C1947 C 0.23115 0.67814 0.25025 0.0
C1948 C 0.19672 0.63478 0.23979 0.0
H1949 H 0.15555 0.61838 0.26275 0.0
C1950 C 0.20254 0.61685 0.23155 0.0
C1951 C 0.17931 0.63547 0.25077 0.0
C1952 C 0.17177 0.65448 0.25908 0.0
C1953 C 0.19172 0.59947 0.23445 0.0
C1954 C 0.17482 0.59998 0.24619 0.0
C1955 C 0.16865 0.618 0.25395 0.0
C1956 C 0.16356 0.58189 0.25079 0.0
C1957 C 0.19842 0.58071 0.22481 0.0
C1958 C 0.14381 0.57964 0.24481 0.0
C1959 C 0.13338 0.56231 0.24874 0.0
C1960 C 0.14252 0.54698 0.25882 0.0
C1961 C 0.1622 0.5495 0.26516 0.0
C1962 C 0.17258 0.56681 0.26124 0.0
H1963 H 0.20812 0.58368 0.21221 0.0
H1964 H 0.20688 0.57215 0.23572 0.0
H1965 H 0.1857 0.57154 0.2195 0.0
H1966 H 0.13656 0.59118 0.23683 0.0
H1967 H 0.11823 0.56088 0.24371 0.0
H1968 H 0.9322 0.47502 0.07955 0.0
H1969 H 0.90606 0.49856 0.07345 0.0
H1970 H 0.91211 0.48989 0.01096 0.0
H1971 H 0.93848 0.46681 0.01682 0.0
H1972 H 0.9086 0.53414 0.05004 0.0
H1973 H 0.85254 0.48048 0.02128 0.0
H1974 H 0.87361 0.47336 0.03586 0.0
H1975 H 0.87613 0.47836 0.01016 0.0
C1976 C 0.92805 0.47821 0.0645 0.0
C1977 C 0.93738 0.46893 0.04866 0.0
C1978 C 0.91306 0.49157 0.06107 0.0
C1979 C 0.90702 0.49571 0.04178 0.0
C1980 C 0.91632 0.48658 0.02597 0.0
H1981 H 0.8333 0.56663 0.9732 0.0
H1982 H 0.85609 0.54383 0.98805 0.0
C1983 C 0.93135 0.47333 0.02936 0.0
C1984 C 0.89133 0.50995 0.03792 0.0
H1985 H 0.84681 0.51425 0.01477 0.0
C1986 C 0.89492 0.52983 0.04262 0.0
C1987 C 0.87353 0.50418 0.02833 0.0
C1988 C 0.86858 0.48291 0.02375 0.0
C1989 C 0.88161 0.54429 0.0369 0.0
C1990 C 0.86419 0.53857 0.02652 0.0
C1991 C 0.86023 0.51858 0.02265 0.0
C1992 C 0.85066 0.55308 0.01799 0.0
C1993 C 0.88673 0.56559 0.04108 0.0
C1994 C 0.84006 0.56592 0.02994 0.0
C1995 C 0.82697 0.57912 0.02145 0.0
C1996 C 0.82422 0.57956 0.0009 0.0
C1997 C 0.835 0.56671 0.98907 0.0
C1998 C 0.84804 0.55362 0.99753 0.0
H1999 H 0.90225 0.56771 0.04611 0.0
H2000 H 0.88421 0.57449 0.02776 0.0
H2001 H 0.87713 0.57126 0.0528 0.0
H2002 H 0.84167 0.56552 0.0458 0.0
H2003 H 0.81881 0.58875 0.03098 0.0
H2004 H 0.07134 0.0054 0.06079 0.0
H2005 H 0.09859 0.9827 0.05756 0.0
H2006 H 0.08591 0.97648 0.99539 0.0
H2007 H 0.05875 0.99927 0.99848 0.0
H2008 H 0.09923 0.94437 0.04502 0.0
H2009 H 0.14389 0.9907 0.99587 0.0
H2010 H 0.12301 -2e-05 0.00876 0.0
H2011 H 0.11948 0.98554 0.98657 0.0
C2012 C 0.07429 0.99912 0.04644 0.0
C2013 C 0.06294 0.00424 0.02986 0.0
C2014 C 0.08991 0.9862 0.04461 0.0
C2015 C 0.09455 0.97815 0.02618 0.0
C2016 C 0.08297 0.9829 0.00968 0.0
H2017 H 0.18442 0.89688 0.98795 0.0
H2018 H 0.15536 0.91744 0.99009 0.0
C2019 C 0.06741 0.9959 0.01147 0.0
C2020 C 0.11134 0.96463 0.02431 0.0
H2021 H 0.15495 0.95837 0.00117 0.0
C2022 C 0.11144 0.94746 0.03547 0.0
C2023 C 0.12728 0.96866 0.01184 0.0
C2024 C 0.12857 0.9873 0.00021 0.0
C2025 C 0.12691 0.93415 0.03436 0.0
C2026 C 0.14282 0.93819 0.02191 0.0
C2027 C 0.14268 0.95526 0.01063 0.0
C2028 C 0.16005 0.9252 0.0208 0.0
C2029 C 0.12601 0.91572 0.04633 0.0
C2030 C 0.17239 0.92284 0.03732 0.0
C2031 C 0.18902 0.91118 0.03614 0.0
C2032 C 0.19369 0.90163 0.01838 0.0
C2033 C 0.18123 0.90395 0.00186 0.0
C2034 C 0.16463 0.91572 0.00304 0.0
H2035 H 0.11087 0.91241 0.05127 0.0
H2036 H 0.1313 0.90293 0.03775 0.0
H2037 H 0.13564 0.91766 0.05959 0.0
H2038 H 0.16931 0.93028 0.05108 0.0
H2039 H 0.1983 0.90978 0.04913 0.0
loop_
_geom_bond_atom_site_label_1
_geom_bond_atom_site_label_2
_geom_bond_distance
_geom_bond_site_symmetry_2
_ccdc_geom_bond_type
H0 C3 0.931 . S
H1 C6 0.928 . S
H2 C8 0.930 . S
C3 H0 0.931 . S
C3 C4 1.413 . S
C3 C5 1.360 . S
C4 C3 1.413 . S
C4 C8 1.429 . S
C5 C3 1.360 . S
C5 C6 1.372 . S
C6 H1 0.928 . S
C6 C5 1.372 . S
C6 C7 1.404 . S
C7 C6 1.404 . S
C7 C8 1.391 . S
C8 H2 0.930 . S
C8 C4 1.429 . S
C8 C7 1.391 . S
H9 C12 0.931 . S
H10 C15 0.928 . S
H11 C17 0.930 . S
C12 H9 0.931 . S
C12 C13 1.413 . S
C12 C14 1.360 . S
C13 C12 1.413 . S
C13 C17 1.429 . S
C14 C12 1.360 . S
C14 C15 1.372 . S
C15 H10 0.928 . S
C15 C14 1.372 . S
C15 C16 1.404 . S
C16 C15 1.404 . S
C16 C17 1.391 . S
C17 H11 0.930 . S
C17 C13 1.429 . S
C17 C16 1.391 . S
H18 C21 0.931 . S
H19 C24 0.928 . S
H20 C26 0.930 . S
C21 H18 0.931 . S
C21 C22 1.413 . S
C21 C23 1.360 . S
C22 C21 1.413 . S
C22 C26 1.429 . S
C23 C21 1.360 . S
C23 C24 1.372 . S
C24 H19 0.928 . S
C24 C23 1.372 . S
C24 C25 1.404 . S
C25 C24 1.404 . S
C25 C26 1.391 . S
C26 H20 0.930 . S
C26 C22 1.429 . S
C26 C25 1.391 . S
H27 C30 0.931 . S
H28 C33 0.928 . S
H29 C35 0.930 . S
C30 H27 0.931 . S
C30 C31 1.413 . S
C30 C32 1.360 . S
C31 C30 1.413 . S
C31 C35 1.429 . S
C32 C30 1.360 . S
C32 C33 1.372 . S
C33 H28 0.928 . S
C33 C32 1.372 . S
C33 C34 1.404 . S
C34 C33 1.404 . S
C34 C35 1.391 . S
C35 H29 0.930 . S
C35 C31 1.429 . S
C35 C34 1.391 . S
H36 C39 0.931 . S
H37 C42 0.928 . S
H38 C44 0.930 . S
C39 H36 0.931 . S
C39 C40 1.413 . S
C39 C41 1.360 . S
C40 C39 1.413 . S
C40 C44 1.429 . S
C41 C39 1.360 . S
C41 C42 1.372 . S
C42 H37 0.928 . S
C42 C41 1.372 . S
C42 C43 1.404 . S
C43 C42 1.404 . S
C43 C44 1.391 . S
C44 H38 0.930 . S
C44 C40 1.429 . S
C44 C43 1.391 . S
H45 C48 0.931 . S
H46 C51 0.928 . S
H47 C53 0.930 . S
C48 H45 0.931 . S
C48 C49 1.413 . S
C48 C50 1.360 . S
C49 C48 1.413 . S
C49 C53 1.429 . S
C50 C48 1.360 . S
C50 C51 1.372 . S
C51 H46 0.928 . S
C51 C50 1.372 . S
C51 C52 1.404 . S
C52 C51 1.404 . S
C52 C53 1.391 . S
C53 H47 0.930 . S
C53 C49 1.429 . S
C53 C52 1.391 . S
H54 C57 0.931 . S
H55 C60 0.928 . S
H56 C62 0.930 . S
C57 H54 0.931 . S
C57 C58 1.413 . S
C57 C59 1.360 . S
C58 C57 1.413 . S
C58 C62 1.429 . S
C59 C57 1.360 . S
C59 C60 1.372 . S
C60 H55 0.928 . S
C60 C59 1.372 . S
C60 C61 1.404 . S
C61 C60 1.404 . S
C61 C62 1.391 . S
C62 H56 0.930 . S
C62 C58 1.429 . S
C62 C61 1.391 . S
H63 C66 0.931 . S
H64 C69 0.928 . S
H65 C71 0.930 . S
C66 H63 0.931 . S
C66 C67 1.413 . S
C66 C68 1.360 . S
C67 C66 1.413 . S
C67 C71 1.429 . S
C68 C66 1.360 . S
C68 C69 1.372 . S
C69 H64 0.928 . S
C69 C68 1.372 . S
C69 C70 1.404 . S
C70 C69 1.404 . S
C70 C71 1.391 . S
C71 H65 0.930 . S
C71 C67 1.429 . S
C71 C70 1.391 . S
H72 C75 0.931 . S
H73 C78 0.928 . S
H74 C80 0.930 . S
C75 H72 0.931 . S
C75 C76 1.413 . S
C75 C77 1.360 . S
C76 C75 1.413 . S
C76 C80 1.429 . S
C77 C75 1.360 . S
C77 C78 1.372 . S
C78 H73 0.928 . S
C78 C77 1.372 . S
C78 C79 1.404 . S
C79 C78 1.404 . S
C79 C80 1.391 . S
C80 H74 0.930 . S
C80 C76 1.429 . S
C80 C79 1.391 . S
H81 C84 0.931 . S
H82 C87 0.928 . S
H83 C89 0.930 . S
C84 H81 0.931 . S
C84 C85 1.413 . S
C84 C86 1.360 . S
C85 C84 1.413 . S
C85 C89 1.429 . S
C86 C84 1.360 . S
C86 C87 1.372 . S
C87 H82 0.928 . S
C87 C86 1.372 . S
C87 C88 1.404 . S
C88 C87 1.404 . S
C88 C89 1.391 . S
C89 H83 0.930 . S
C89 C85 1.429 . S
C89 C88 1.391 . S
H90 C93 0.931 . S
H91 C96 0.928 . S
H92 C98 0.930 . S
C93 H90 0.931 . S
C93 C94 1.413 . S
C93 C95 1.360 . S
C94 C93 1.413 . S
C94 C98 1.429 . S
C95 C93 1.360 . S
C95 C96 1.372 . S
C96 H91 0.928 . S
C96 C95 1.372 . S
C96 C97 1.404 . S
C97 C96 1.404 . S
C97 C98 1.391 . S
C98 H92 0.930 . S
C98 C94 1.429 . S
C98 C97 1.391 . S
H99 C102 0.931 . S
H100 C105 0.928 . S
H101 C107 0.930 . S
C102 H99 0.931 . S
C102 C103 1.413 . S
C102 C104 1.360 . S
C103 C102 1.413 . S
C103 C107 1.429 . S
C104 C102 1.360 . S
C104 C105 1.372 . S
C105 H100 0.928 . S
C105 C104 1.372 . S
C105 C106 1.404 . S
C106 C105 1.404 . S
C106 C107 1.391 . S
C107 H101 0.930 . S
C107 C103 1.429 . S
C107 C106 1.391 . S
H108 C111 0.931 . S
H109 C114 0.928 . S
H110 C116 0.930 . S
C111 H108 0.931 . S
C111 C112 1.413 . S
C111 C113 1.360 . S
C112 C111 1.413 . S
C112 C116 1.429 . S
C113 C111 1.360 . S
C113 C114 1.372 . S
C114 H109 0.928 . S
C114 C113 1.372 . S
C114 C115 1.404 . S
C115 C114 1.404 . S
C115 C116 1.391 . S
C116 H110 0.930 . S
C116 C112 1.429 . S
C116 C115 1.391 . S
H117 C120 0.931 . S
H118 C123 0.928 . S
H119 C125 0.930 . S
C120 H117 0.931 . S
C120 C121 1.413 . S
C120 C122 1.360 . S
C121 C120 1.413 . S
C121 C125 1.429 . S
C122 C120 1.360 . S
C122 C123 1.372 . S
C123 H118 0.928 . S
C123 C122 1.372 . S
C123 C124 1.404 . S
C124 C123 1.404 . S
C124 C125 1.391 . S
C125 H119 0.930 . S
C125 C121 1.429 . S
C125 C124 1.391 . S
H126 C129 0.931 . S
H127 C132 0.928 . S
H128 C134 0.930 . S
C129 H126 0.931 . S
C129 C130 1.413 . S
C129 C131 1.360 . S
C130 C129 1.413 . S
C130 C134 1.429 . S
C131 C129 1.360 . S
C131 C132 1.372 . S
C132 H127 0.928 . S
C132 C131 1.372 . S
C132 C133 1.404 . S
C133 C132 1.404 . S
C133 C134 1.391 . S
C134 H128 0.930 . S
C134 C130 1.429 . S
C134 C133 1.391 . S
H135 C138 0.931 . S
H136 C141 0.928 . S
H137 C143 0.930 . S
C138 H135 0.931 . S
C138 C139 1.413 . S
C138 C140 1.360 . S
C139 C138 1.413 . S
C139 C143 1.429 . S
C140 C138 1.360 . S
C140 C141 1.372 . S
C141 H136 0.928 . S
C141 C140 1.372 . S
C141 C142 1.404 . S
C142 C141 1.404 . S
C142 C143 1.391 . S
C143 H137 0.930 . S
C143 C139 1.429 . S
C143 C142 1.391 . S
Zn144 O147 2.025 1_556 S
Zn144 O149 2.054 . S
Zn144 O154 2.075 . S
Zn145 O146 1.962 . S
Zn145 O148 1.986 . S
Zn145 O150 1.996 . S
Zn145 O153 1.943 1_554 S
O146 Zn145 1.962 . S
O146 C151 1.254 . S
O147 Zn144 2.025 1_554 S
O147 C151 1.269 . S
O148 Zn145 1.986 . S
O148 C155 1.262 . S
O149 Zn144 2.054 . S
O149 C157 1.260 . S
O150 Zn145 1.996 . S
O150 C157 1.257 1_554 S
C151 O146 1.254 . S
C151 O147 1.269 . S
C152 O153 1.249 . S
C152 O154 1.270 . S
O153 Zn145 1.943 1_556 S
O153 C152 1.249 . S
O154 Zn144 2.075 . S
O154 C152 1.270 . S
C155 O148 1.262 . S
C155 O156 1.232 . S
O156 C155 1.232 . S
C157 O149 1.260 . S
C157 O150 1.257 1_556 S
Zn158 O161 2.031 . S
Zn158 O163 2.049 . S
Zn158 O168 2.067 . S
Zn159 O160 1.962 . S
Zn159 O162 1.986 . S
Zn159 O164 1.996 . S
Zn159 O167 1.943 . S
O160 Zn159 1.962 . S
O160 C165 1.254 . S
O161 Zn158 2.031 . S
O161 C165 1.269 . S
O162 Zn159 1.986 . S
O162 C169 1.262 . S
O163 Zn158 2.049 . S
O163 C171 1.260 . S
O164 Zn159 1.996 . S
O164 C171 1.257 . S
C165 O160 1.254 . S
C165 O161 1.269 . S
C166 O167 1.249 . S
C166 O168 1.270 . S
O167 Zn159 1.943 . S
O167 C166 1.249 . S
O168 Zn158 2.067 . S
O168 C166 1.270 . S
C169 O162 1.262 . S
C169 O170 1.232 . S
O170 C169 1.232 . S
C171 O163 1.260 . S
C171 O164 1.257 . S
Zn172 O175 2.031 . S
Zn172 O177 2.049 . S
Zn172 O182 2.067 . S
Zn173 O174 1.962 . S
Zn173 O176 1.986 . S
Zn173 O178 1.996 1_554 S
Zn173 O181 1.943 . S
O174 Zn173 1.962 . S
O174 C179 1.254 . S
O175 Zn172 2.031 . S
O175 C179 1.269 1_556 S
O176 Zn173 1.986 . S
O176 C183 1.262 . S
O177 Zn172 2.049 . S
O177 C185 1.260 . S
O178 Zn173 1.996 1_556 S
O178 C185 1.257 . S
C179 O174 1.254 . S
C179 O175 1.269 1_554 S
C180 O181 1.249 1_556 S
C180 O182 1.270 . S
O181 Zn173 1.943 . S
O181 C180 1.249 1_554 S
O182 Zn172 2.067 . S
O182 C180 1.270 . S
C183 O176 1.262 . S
C183 O184 1.232 . S
O184 C183 1.232 . S
C185 O177 1.260 . S
C185 O178 1.257 . S
Zn186 O189 2.041 . S
Zn186 O191 2.043 1_545 S
Zn186 O196 2.054 1_545 S
Zn187 O188 1.962 . S
Zn187 O190 1.986 . S
Zn187 O192 1.996 . S
Zn187 O195 1.943 1_545 S
O188 Zn187 1.962 . S
O188 C193 1.254 . S
O189 Zn186 2.041 . S
O189 C193 1.269 . S
O190 Zn187 1.986 . S
O190 C197 1.262 . S
O191 Zn186 2.043 1_565 S
O191 C199 1.260 . S
O192 Zn187 1.996 . S
O192 C199 1.257 1_545 S
C193 O188 1.254 . S
C193 O189 1.269 . S
C194 O195 1.249 . S
C194 O196 1.270 . S
O195 Zn187 1.943 1_565 S
O195 C194 1.249 . S
O196 Zn186 2.054 1_565 S
O196 C194 1.270 . S
C197 O190 1.262 . S
C197 O198 1.232 . S
O198 C197 1.232 . S
C199 O191 1.260 . S
C199 O192 1.257 1_565 S
Zn200 O203 2.031 . S
Zn200 O205 2.049 . S
Zn200 O210 2.067 . S
Zn201 O202 1.962 . S
Zn201 O204 1.986 . S
Zn201 O206 1.996 . S
Zn201 O209 1.943 . S
O202 Zn201 1.962 . S
O202 C207 1.254 . S
O203 Zn200 2.031 . S
O203 C207 1.269 . S
O204 Zn201 1.986 . S
O204 C211 1.262 . S
O205 Zn200 2.049 . S
O205 C213 1.260 . S
O206 Zn201 1.996 . S
O206 C213 1.257 . S
C207 O202 1.254 . S
C207 O203 1.269 . S
C208 O209 1.249 . S
C208 O210 1.270 . S
O209 Zn201 1.943 . S
O209 C208 1.249 . S
O210 Zn200 2.067 . S
O210 C208 1.270 . S
C211 O204 1.262 . S
C211 O212 1.232 . S
O212 C211 1.232 . S
C213 O205 1.260 . S
C213 O206 1.257 . S
Zn214 O217 2.031 . S
Zn214 O219 2.049 . S
Zn214 O224 2.067 . S
Zn215 O216 1.962 . S
Zn215 O218 1.986 . S
Zn215 O220 1.996 . S
Zn215 O223 1.943 . S
O216 Zn215 1.962 . S
O216 C221 1.254 . S
O217 Zn214 2.031 . S
O217 C221 1.269 . S
O218 Zn215 1.986 . S
O218 C225 1.262 . S
O219 Zn214 2.049 . S
O219 C227 1.260 . S
O220 Zn215 1.996 . S
O220 C227 1.257 . S
C221 O216 1.254 . S
C221 O217 1.269 . S
C222 O223 1.249 . S
C222 O224 1.270 . S
O223 Zn215 1.943 . S
O223 C222 1.249 . S
O224 Zn214 2.067 . S
O224 C222 1.270 . S
C225 O218 1.262 . S
C225 O226 1.232 . S
O226 C225 1.232 . S
C227 O219 1.260 . S
C227 O220 1.257 . S
Zn228 O231 2.031 . S
Zn228 O233 2.049 . S
Zn228 O238 2.067 . S
Zn229 O230 1.962 . S
Zn229 O232 1.986 . S
Zn229 O234 1.996 . S
Zn229 O237 1.943 . S
O230 Zn229 1.962 . S
O230 C235 1.254 . S
O231 Zn228 2.031 . S
O231 C235 1.269 . S
O232 Zn229 1.986 . S
O232 C239 1.262 . S
O233 Zn228 2.049 . S
O233 C241 1.260 . S
O234 Zn229 1.996 . S
O234 C241 1.257 . S
C235 O230 1.254 . S
C235 O231 1.269 . S
C236 O237 1.249 . S
C236 O238 1.270 . S
O237 Zn229 1.943 . S
O237 C236 1.249 . S
O238 Zn228 2.067 . S
O238 C236 1.270 . S
C239 O232 1.262 . S
C239 O240 1.232 . S
O240 C239 1.232 . S
C241 O233 1.260 . S
C241 O234 1.257 . S
Zn242 O245 2.031 . S
Zn242 O247 2.049 . S
Zn242 O252 2.067 . S
Zn243 O244 1.962 . S
Zn243 O246 1.986 . S
Zn243 O248 1.996 1_545 S
Zn243 O251 1.943 . S
O244 Zn243 1.962 . S
O244 C249 1.254 . S
O245 Zn242 2.031 . S
O245 C249 1.269 1_565 S
O246 Zn243 1.986 . S
O246 C253 1.262 . S
O247 Zn242 2.049 . S
O247 C255 1.260 . S
O248 Zn243 1.996 1_565 S
O248 C255 1.257 . S
C249 O244 1.254 . S
C249 O245 1.269 1_545 S
C250 O251 1.249 1_565 S
C250 O252 1.270 . S
O251 Zn243 1.943 . S
O251 C250 1.249 1_545 S
O252 Zn242 2.067 . S
O252 C250 1.270 . S
C253 O246 1.262 . S
C253 O254 1.232 . S
O254 C253 1.232 . S
C255 O247 1.260 . S
C255 O248 1.257 . S
Zn256 O259 2.028 . S
Zn256 O261 2.052 1_455 S
Zn256 O266 2.072 1_455 S
Zn257 O258 1.962 . S
Zn257 O260 1.986 . S
Zn257 O262 1.996 . S
Zn257 O265 1.943 1_455 S
O258 Zn257 1.962 . S
O258 C263 1.254 . S
O259 Zn256 2.028 . S
O259 C263 1.269 . S
O260 Zn257 1.986 . S
O260 C267 1.262 . S
O261 Zn256 2.052 1_655 S
O261 C269 1.260 . S
O262 Zn257 1.996 . S
O262 C269 1.257 1_455 S
C263 O258 1.254 . S
C263 O259 1.269 . S
C264 O265 1.249 . S
C264 O266 1.270 . S
O265 Zn257 1.943 1_655 S
O265 C264 1.249 . S
O266 Zn256 2.072 1_655 S
O266 C264 1.270 . S
C267 O260 1.262 . S
C267 O268 1.232 . S
O268 C267 1.232 . S
C269 O261 1.260 . S
C269 O262 1.257 1_655 S
Zn270 O273 2.031 . S
Zn270 O275 2.049 . S
Zn270 O280 2.067 . S
Zn271 O272 1.962 . S
Zn271 O274 1.986 . S
Zn271 O276 1.996 . S
Zn271 O279 1.943 . S
O272 Zn271 1.962 . S
O272 C277 1.254 . S
O273 Zn270 2.031 . S
O273 C277 1.269 . S
O274 Zn271 1.986 . S
O274 C281 1.262 . S
O275 Zn270 2.049 . S
O275 C283 1.260 . S
O276 Zn271 1.996 . S
O276 C283 1.257 . S
C277 O272 1.254 . S
C277 O273 1.269 . S
C278 O279 1.249 . S
C278 O280 1.270 . S
O279 Zn271 1.943 . S
O279 C278 1.249 . S
O280 Zn270 2.067 . S
O280 C278 1.270 . S
C281 O274 1.262 . S
C281 O282 1.232 . S
O282 C281 1.232 . S
C283 O275 1.260 . S
C283 O276 1.257 . S
Zn284 O287 2.031 . S
Zn284 O289 2.049 . S
Zn284 O294 2.067 . S
Zn285 O286 1.962 . S
Zn285 O288 1.986 . S
Zn285 O290 1.996 1_455 S
Zn285 O293 1.943 . S
O286 Zn285 1.962 . S
O286 C291 1.254 . S
O287 Zn284 2.031 . S
O287 C291 1.269 1_655 S
O288 Zn285 1.986 . S
O288 C295 1.262 . S
O289 Zn284 2.049 . S
O289 C297 1.260 . S
O290 Zn285 1.996 1_655 S
O290 C297 1.257 . S
C291 O286 1.254 . S
C291 O287 1.269 1_455 S
C292 O293 1.249 1_655 S
C292 O294 1.270 . S
O293 Zn285 1.943 . S
O293 C292 1.249 1_455 S
O294 Zn284 2.067 . S
O294 C292 1.270 . S
C295 O288 1.262 . S
C295 O296 1.232 . S
O296 C295 1.232 . S
C297 O289 1.260 . S
C297 O290 1.257 . S
Zn298 O301 2.031 . S
Zn298 O303 2.049 . S
Zn298 O308 2.067 . S
Zn299 O300 1.962 . S
Zn299 O302 1.986 . S
Zn299 O304 1.996 . S
Zn299 O307 1.943 . S
O300 Zn299 1.962 . S
O300 C305 1.254 . S
O301 Zn298 2.031 . S
O301 C305 1.269 . S
O302 Zn299 1.986 . S
O302 C309 1.262 . S
O303 Zn298 2.049 . S
O303 C311 1.260 . S
O304 Zn299 1.996 . S
O304 C311 1.257 . S
C305 O300 1.254 . S
C305 O301 1.269 . S
C306 O307 1.249 . S
C306 O308 1.270 . S
O307 Zn299 1.943 . S
O307 C306 1.249 . S
O308 Zn298 2.067 . S
O308 C306 1.270 . S
C309 O302 1.262 . S
C309 O310 1.232 . S
O310 C309 1.232 . S
C311 O303 1.260 . S
C311 O304 1.257 . S
H312 C320 0.929 . S
H313 C322 0.930 . S
H314 C324 0.930 . S
H315 C327 0.929 . S
H316 C330 0.930 . S
H317 C332 0.960 . S
H318 C332 0.960 . S
H319 C332 0.960 . S
C320 H312 0.929 . S
C320 C321 1.377 . S
C320 C322 1.384 . S
C321 C320 1.377 . S
C321 C327 1.390 . S
C322 H313 0.930 . S
C322 C320 1.384 . S
C322 C323 1.372 . S
C323 C322 1.372 . S
C323 C324 1.400 . S
C323 C328 1.490 . S
C324 H314 0.930 . S
C324 C323 1.400 . S
C324 C327 1.386 . S
H325 C341 0.930 . S
H326 C342 0.931 . S
C327 H315 0.929 . S
C327 C321 1.390 . S
C327 C324 1.386 . S
C328 C323 1.490 . S
C328 C330 1.395 . S
C328 C331 1.403 . S
H329 C335 0.930 . S
C330 H316 0.930 . S
C330 C328 1.395 . S
C330 C333 1.403 . S
C331 C328 1.403 . S
C331 C332 1.524 . S
C331 C335 1.400 . S
C332 H317 0.960 . S
C332 H318 0.960 . S
C332 H319 0.960 . S
C332 C331 1.524 . S
C333 C330 1.403 . S
C333 C334 1.392 . S
C333 C337 1.495 . S
C334 C333 1.392 . S
C334 C335 1.385 . S
C334 C336 1.478 . S
C335 H329 0.930 . S
C335 C331 1.400 . S
C335 C334 1.385 . S
C336 C334 1.478 . S
C336 C338 1.381 . S
C336 C342 1.383 . S
C337 C333 1.495 . S
C337 H343 0.959 . S
C337 H344 0.961 . S
C337 H345 0.960 . S
C338 C336 1.381 . S
C338 C339 1.394 . S
C338 H346 0.930 . S
C339 C338 1.394 . S
C339 C340 1.383 . S
C339 H347 0.929 . S
C340 C339 1.383 . S
C340 C341 1.377 . S
C341 H325 0.930 . S
C341 C340 1.377 . S
C341 C342 1.379 . S
C342 H326 0.931 . S
C342 C336 1.383 . S
C342 C341 1.379 . S
H343 C337 0.959 . S
H344 C337 0.961 . S
H345 C337 0.960 . S
H346 C338 0.930 . S
H347 C339 0.929 . S
H348 C356 0.929 . S
H349 C358 0.930 . S
H350 C360 0.930 . S
H351 C363 0.929 . S
H352 C366 0.930 . S
H353 C368 0.960 . S
H354 C368 0.960 . S
H355 C368 0.960 1_655 S
C356 H348 0.929 . S
C356 C357 1.377 1_455 S
C356 C358 1.384 . S
C357 C356 1.377 1_655 S
C357 C363 1.390 . S
C358 H349 0.930 . S
C358 C356 1.384 . S
C358 C359 1.372 . S
C359 C358 1.372 . S
C359 C360 1.400 1_455 S
C359 C364 1.490 . S
C360 H350 0.930 . S
C360 C359 1.400 1_655 S
C360 C363 1.386 . S
H361 C377 0.930 . S
H362 C378 0.931 . S
C363 H351 0.929 . S
C363 C357 1.390 . S
C363 C360 1.386 . S
C364 C359 1.490 . S
C364 C366 1.395 . S
C364 C367 1.403 . S
H365 C371 0.930 . S
C366 H352 0.930 . S
C366 C364 1.395 . S
C366 C369 1.403 . S
C367 C364 1.403 . S
C367 C368 1.524 . S
C367 C371 1.400 . S
C368 H353 0.960 . S
C368 H354 0.960 . S
C368 H355 0.960 1_455 S
C368 C367 1.524 . S
C369 C366 1.403 . S
C369 C370 1.392 . S
C369 C373 1.495 . S
C370 C369 1.392 . S
C370 C371 1.385 . S
C370 C372 1.478 . S
C371 H365 0.930 . S
C371 C367 1.400 . S
C371 C370 1.385 . S
C372 C370 1.478 . S
C372 C374 1.381 . S
C372 C378 1.383 . S
C373 C369 1.495 . S
C373 H379 0.959 . S
C373 H380 0.961 . S
C373 H381 0.960 . S
C374 C372 1.381 . S
C374 C375 1.394 . S
C374 H382 0.930 . S
C375 C374 1.394 . S
C375 C376 1.383 . S
C375 H383 0.929 . S
C376 C375 1.383 . S
C376 C377 1.377 . S
C377 H361 0.930 . S
C377 C376 1.377 . S
C377 C378 1.379 . S
C378 H362 0.931 . S
C378 C372 1.383 . S
C378 C377 1.379 . S
H379 C373 0.959 . S
H380 C373 0.961 . S
H381 C373 0.960 . S
H382 C374 0.930 . S
H383 C375 0.929 . S
H384 C392 0.929 . S
H385 C394 0.930 . S
H386 C396 0.930 . S
H387 C399 0.929 . S
H388 C402 0.930 . S
H389 C404 0.960 . S
H390 C404 0.960 . S
H391 C404 0.960 . S
C392 H384 0.929 . S
C392 C393 1.377 . S
C392 C394 1.384 . S
C393 C392 1.377 . S
C393 C399 1.390 . S
C394 H385 0.930 . S
C394 C392 1.384 . S
C394 C395 1.372 . S
C395 C394 1.372 . S
C395 C396 1.400 . S
C395 C400 1.490 . S
C396 H386 0.930 . S
C396 C395 1.400 . S
C396 C399 1.386 . S
H397 C413 0.930 . S
H398 C414 0.931 . S
C399 H387 0.929 . S
C399 C393 1.390 . S
C399 C396 1.386 . S
C400 C395 1.490 . S
C400 C402 1.395 . S
C400 C403 1.403 . S
H401 C407 0.930 . S
C402 H388 0.930 . S
C402 C400 1.395 . S
C402 C405 1.403 . S
C403 C400 1.403 . S
C403 C404 1.524 . S
C403 C407 1.400 . S
C404 H389 0.960 . S
C404 H390 0.960 . S
C404 H391 0.960 . S
C404 C403 1.524 . S
C405 C402 1.403 . S
C405 C406 1.392 . S
C405 C409 1.495 . S
C406 C405 1.392 . S
C406 C407 1.385 . S
C406 C408 1.478 . S
C407 H401 0.930 . S
C407 C403 1.400 . S
C407 C406 1.385 . S
C408 C406 1.478 . S
C408 C410 1.381 . S
C408 C414 1.383 . S
C409 C405 1.495 . S
C409 H415 0.959 . S
C409 H416 0.961 . S
C409 H417 0.960 . S
C410 C408 1.381 . S
C410 C411 1.394 . S
C410 H418 0.930 . S
C411 C410 1.394 . S
C411 C412 1.383 . S
C411 H419 0.929 . S
C412 C411 1.383 . S
C412 C413 1.377 . S
C413 H397 0.930 . S
C413 C412 1.377 . S
C413 C414 1.379 . S
C414 H398 0.931 . S
C414 C408 1.383 . S
C414 C413 1.379 . S
H415 C409 0.959 . S
H416 C409 0.961 . S
H417 C409 0.960 . S
H418 C410 0.930 . S
H419 C411 0.929 . S
H420 C428 0.929 . S
H421 C430 0.930 . S
H422 C432 0.930 . S
H423 C435 0.929 . S
H424 C438 0.930 . S
H425 C440 0.960 . S
H426 C440 0.960 . S
H427 C440 0.960 . S
C428 H420 0.929 . S
C428 C429 1.377 . S
C428 C430 1.384 1_455 S
C429 C428 1.377 . S
C429 C435 1.390 . S
C430 H421 0.930 . S
C430 C428 1.384 1_655 S
C430 C431 1.372 1_655 S
C431 C430 1.372 1_455 S
C431 C432 1.400 . S
C431 C436 1.490 1_455 S
C432 H422 0.930 . S
C432 C431 1.400 . S
C432 C435 1.386 . S
H433 C449 0.930 . S
H434 C450 0.931 1_545 S
C435 H423 0.929 . S
C435 C429 1.390 . S
C435 C432 1.386 . S
C436 C431 1.490 1_655 S
C436 C438 1.395 . S
C436 C439 1.403 . S
H437 C443 0.930 . S
C438 H424 0.930 . S
C438 C436 1.395 . S
C438 C441 1.403 . S
C439 C436 1.403 . S
C439 C440 1.524 1_655 S
C439 C443 1.400 . S
C440 H425 0.960 . S
C440 H426 0.960 . S
C440 H427 0.960 . S
C440 C439 1.524 1_455 S
C441 C438 1.403 . S
C441 C442 1.392 . S
C441 C445 1.495 . S
C442 C441 1.392 . S
C442 C443 1.385 . S
C442 C444 1.478 . S
C443 H437 0.930 . S
C443 C439 1.400 . S
C443 C442 1.385 . S
C444 C442 1.478 . S
C444 C446 1.381 . S
C444 C450 1.383 . S
C445 C441 1.495 . S
C445 H451 0.959 . S
C445 H452 0.961 . S
C445 H453 0.960 . S
C446 C444 1.381 . S
C446 C447 1.394 . S
C446 H454 0.930 . S
C447 C446 1.394 . S
C447 C448 1.383 . S
C447 H455 0.929 . S
C448 C447 1.383 . S
C448 C449 1.377 1_565 S
C449 H433 0.930 . S
C449 C448 1.377 1_545 S
C449 C450 1.379 1_545 S
C450 H434 0.931 1_565 S
C450 C444 1.383 . S
C450 C449 1.379 1_565 S
H451 C445 0.959 . S
H452 C445 0.961 . S
H453 C445 0.960 . S
H454 C446 0.930 . S
H455 C447 0.929 . S
H456 C464 0.929 . S
H457 C466 0.930 . S
H458 C468 0.930 . S
H459 C471 0.929 . S
H460 C474 0.930 . S
H461 C476 0.960 . S
H462 C476 0.960 . S
H463 C476 0.960 . S
C464 H456 0.929 . S
C464 C465 1.377 . S
C464 C466 1.384 . S
C465 C464 1.377 . S
C465 C471 1.390 . S
C466 H457 0.930 . S
C466 C464 1.384 . S
C466 C467 1.372 . S
C467 C466 1.372 . S
C467 C468 1.400 . S
C467 C472 1.490 . S
C468 H458 0.930 . S
C468 C467 1.400 . S
C468 C471 1.386 . S
H469 C485 0.930 . S
H470 C486 0.931 . S
C471 H459 0.929 . S
C471 C465 1.390 . S
C471 C468 1.386 . S
C472 C467 1.490 . S
C472 C474 1.395 . S
C472 C475 1.403 . S
H473 C479 0.930 . S
C474 H460 0.930 . S
C474 C472 1.395 . S
C474 C477 1.403 . S
C475 C472 1.403 . S
C475 C476 1.524 . S
C475 C479 1.400 . S
C476 H461 0.960 . S
C476 H462 0.960 . S
C476 H463 0.960 . S
C476 C475 1.524 . S
C477 C474 1.403 . S
C477 C478 1.392 . S
C477 C481 1.495 . S
C478 C477 1.392 . S
C478 C479 1.385 . S
C478 C480 1.478 . S
C479 H473 0.930 . S
C479 C475 1.400 . S
C479 C478 1.385 . S
C480 C478 1.478 . S
C480 C482 1.381 . S
C480 C486 1.383 . S
C481 C477 1.495 . S
C481 H487 0.959 . S
C481 H488 0.961 . S
C481 H489 0.960 . S
C482 C480 1.381 . S
C482 C483 1.394 . S
C482 H490 0.930 . S
C483 C482 1.394 . S
C483 C484 1.383 . S
C483 H491 0.929 . S
C484 C483 1.383 . S
C484 C485 1.377 . S
C485 H469 0.930 . S
C485 C484 1.377 . S
C485 C486 1.379 . S
C486 H470 0.931 . S
C486 C480 1.383 . S
C486 C485 1.379 . S
H487 C481 0.959 . S
H488 C481 0.961 . S
H489 C481 0.960 . S
H490 C482 0.930 . S
H491 C483 0.929 . S
H492 C500 0.929 . S
H493 C502 0.930 . S
H494 C504 0.930 . S
H495 C507 0.929 . S
H496 C510 0.930 . S
H497 C512 0.960 . S
H498 C512 0.960 . S
H499 C512 0.960 . S
C500 H492 0.929 . S
C500 C501 1.377 . S
C500 C502 1.384 . S
C501 C500 1.377 . S
C501 C507 1.390 . S
C502 H493 0.930 . S
C502 C500 1.384 . S
C502 C503 1.372 . S
C503 C502 1.372 . S
C503 C504 1.400 . S
C503 C508 1.490 . S
C504 H494 0.930 . S
C504 C503 1.400 . S
C504 C507 1.386 . S
H505 C521 0.930 . S
H506 C522 0.931 . S
C507 H495 0.929 . S
C507 C501 1.390 . S
C507 C504 1.386 . S
C508 C503 1.490 . S
C508 C510 1.395 . S
C508 C511 1.403 . S
H509 C515 0.930 . S
C510 H496 0.930 . S
C510 C508 1.395 . S
C510 C513 1.403 . S
C511 C508 1.403 . S
C511 C512 1.524 . S
C511 C515 1.400 . S
C512 H497 0.960 . S
C512 H498 0.960 . S
C512 H499 0.960 . S
C512 C511 1.524 . S
C513 C510 1.403 . S
C513 C514 1.392 . S
C513 C517 1.495 . S
C514 C513 1.392 . S
C514 C515 1.385 . S
C514 C516 1.478 . S
C515 H509 0.930 . S
C515 C511 1.400 . S
C515 C514 1.385 . S
C516 C514 1.478 . S
C516 C518 1.381 . S
C516 C522 1.383 . S
C517 C513 1.495 . S
C517 H523 0.959 . S
C517 H524 0.961 . S
C517 H525 0.960 . S
C518 C516 1.381 . S
C518 C519 1.394 . S
C518 H526 0.930 . S
C519 C518 1.394 . S
C519 C520 1.383 . S
C519 H527 0.929 . S
C520 C519 1.383 . S
C520 C521 1.377 . S
C521 H505 0.930 . S
C521 C520 1.377 . S
C521 C522 1.379 . S
C522 H506 0.931 . S
C522 C516 1.383 . S
C522 C521 1.379 . S
H523 C517 0.959 . S
H524 C517 0.961 . S
H525 C517 0.960 . S
H526 C518 0.930 . S
H527 C519 0.929 . S
H528 C536 0.929 . S
H529 C538 0.930 . S
H530 C540 0.930 . S
H531 C543 0.929 . S
H532 C546 0.930 . S
H533 C548 0.960 . S
H534 C548 0.960 . S
H535 C548 0.960 . S
C536 H528 0.929 . S
C536 C537 1.377 . S
C536 C538 1.384 . S
C537 C536 1.377 . S
C537 C543 1.390 . S
C538 H529 0.930 . S
C538 C536 1.384 . S
C538 C539 1.372 . S
C539 C538 1.372 . S
C539 C540 1.400 . S
C539 C544 1.490 . S
C540 H530 0.930 . S
C540 C539 1.400 . S
C540 C543 1.386 . S
H541 C557 0.930 . S
H542 C558 0.931 . S
C543 H531 0.929 . S
C543 C537 1.390 . S
C543 C540 1.386 . S
C544 C539 1.490 . S
C544 C546 1.395 . S
C544 C547 1.403 . S
H545 C551 0.930 . S
C546 H532 0.930 . S
C546 C544 1.395 . S
C546 C549 1.403 . S
C547 C544 1.403 . S
C547 C548 1.524 . S
C547 C551 1.400 . S
C548 H533 0.960 . S
C548 H534 0.960 . S
C548 H535 0.960 . S
C548 C547 1.524 . S
C549 C546 1.403 . S
C549 C550 1.392 . S
C549 C553 1.495 . S
C550 C549 1.392 . S
C550 C551 1.385 . S
C550 C552 1.478 . S
C551 H545 0.930 . S
C551 C547 1.400 . S
C551 C550 1.385 . S
C552 C550 1.478 . S
C552 C554 1.381 . S
C552 C558 1.383 . S
C553 C549 1.495 . S
C553 H559 0.959 . S
C553 H560 0.961 . S
C553 H561 0.960 . S
C554 C552 1.381 . S
C554 C555 1.394 . S
C554 H562 0.930 . S
C555 C554 1.394 . S
C555 C556 1.383 . S
C555 H563 0.929 . S
C556 C555 1.383 . S
C556 C557 1.377 . S
C557 H541 0.930 . S
C557 C556 1.377 . S
C557 C558 1.379 . S
C558 H542 0.931 . S
C558 C552 1.383 . S
C558 C557 1.379 . S
H559 C553 0.959 . S
H560 C553 0.961 . S
H561 C553 0.960 . S
H562 C554 0.930 . S
H563 C555 0.929 . S
H564 C572 0.929 . S
H565 C574 0.930 . S
H566 C576 0.930 . S
H567 C579 0.929 . S
H568 C582 0.930 . S
H569 C584 0.960 . S
H570 C584 0.960 . S
H571 C584 0.960 . S
C572 H564 0.929 . S
C572 C573 1.377 . S
C572 C574 1.384 . S
C573 C572 1.377 . S
C573 C579 1.390 . S
C574 H565 0.930 . S
C574 C572 1.384 . S
C574 C575 1.372 . S
C575 C574 1.372 . S
C575 C576 1.400 . S
C575 C580 1.490 . S
C576 H566 0.930 . S
C576 C575 1.400 . S
C576 C579 1.386 . S
H577 C593 0.930 . S
H578 C594 0.931 . S
C579 H567 0.929 . S
C579 C573 1.390 . S
C579 C576 1.386 . S
C580 C575 1.490 . S
C580 C582 1.395 . S
C580 C583 1.403 . S
H581 C587 0.930 . S
C582 H568 0.930 . S
C582 C580 1.395 . S
C582 C585 1.403 . S
C583 C580 1.403 . S
C583 C584 1.524 . S
C583 C587 1.400 . S
C584 H569 0.960 . S
C584 H570 0.960 . S
C584 H571 0.960 . S
C584 C583 1.524 . S
C585 C582 1.403 . S
C585 C586 1.392 . S
C585 C589 1.495 . S
C586 C585 1.392 . S
C586 C587 1.385 . S
C586 C588 1.478 . S
C587 H581 0.930 . S
C587 C583 1.400 . S
C587 C586 1.385 . S
C588 C586 1.478 . S
C588 C590 1.381 . S
C588 C594 1.383 1_565 S
C589 C585 1.495 . S
C589 H595 0.959 . S
C589 H596 0.961 . S
C589 H597 0.960 . S
C590 C588 1.381 . S
C590 C591 1.394 . S
C590 H598 0.930 . S
C591 C590 1.394 . S
C591 C592 1.383 . S
C591 H599 0.929 . S
C592 C591 1.383 . S
C592 C593 1.377 1_565 S
C593 H577 0.930 . S
C593 C592 1.377 1_545 S
C593 C594 1.379 . S
C594 H578 0.931 . S
C594 C588 1.383 1_545 S
C594 C593 1.379 . S
H595 C589 0.959 . S
H596 C589 0.961 . S
H597 C589 0.960 . S
H598 C590 0.930 . S
H599 C591 0.929 . S
H600 C608 0.929 . S
H601 C610 0.930 . S
H602 C612 0.930 . S
H603 C615 0.929 . S
H604 C618 0.930 . S
H605 C620 0.960 . S
H606 C620 0.960 . S
H607 C620 0.960 . S
C608 H600 0.929 . S
C608 C609 1.377 . S
C608 C610 1.384 . S
C609 C608 1.377 . S
C609 C615 1.390 . S
C610 H601 0.930 . S
C610 C608 1.384 . S
C610 C611 1.372 . S
C611 C610 1.372 . S
C611 C612 1.400 . S
C611 C616 1.490 . S
C612 H602 0.930 . S
C612 C611 1.400 . S
C612 C615 1.386 . S
H613 C629 0.930 . S
H614 C630 0.931 . S
C615 H603 0.929 . S
C615 C609 1.390 . S
C615 C612 1.386 . S
C616 C611 1.490 . S
C616 C618 1.395 . S
C616 C619 1.403 . S
H617 C623 0.930 . S
C618 H604 0.930 . S
C618 C616 1.395 . S
C618 C621 1.403 . S
C619 C616 1.403 . S
C619 C620 1.524 . S
C619 C623 1.400 . S
C620 H605 0.960 . S
C620 H606 0.960 . S
C620 H607 0.960 . S
C620 C619 1.524 . S
C621 C618 1.403 . S
C621 C622 1.392 . S
C621 C625 1.495 . S
C622 C621 1.392 . S
C622 C623 1.385 . S
C622 C624 1.478 . S
C623 H617 0.930 . S
C623 C619 1.400 . S
C623 C622 1.385 . S
C624 C622 1.478 . S
C624 C626 1.381 . S
C624 C630 1.383 . S
C625 C621 1.495 . S
C625 H631 0.959 . S
C625 H632 0.961 . S
C625 H633 0.960 . S
C626 C624 1.381 . S
C626 C627 1.394 . S
C626 H634 0.930 . S
C627 C626 1.394 . S
C627 C628 1.383 . S
C627 H635 0.929 . S
C628 C627 1.383 . S
C628 C629 1.377 . S
C629 H613 0.930 . S
C629 C628 1.377 . S
C629 C630 1.379 . S
C630 H614 0.931 . S
C630 C624 1.383 . S
C630 C629 1.379 . S
H631 C625 0.959 . S
H632 C625 0.961 . S
H633 C625 0.960 . S
H634 C626 0.930 . S
H635 C627 0.929 . S
H636 C644 0.929 . S
H637 C646 0.930 . S
H638 C648 0.930 . S
H639 C651 0.929 . S
H640 C654 0.930 . S
H641 C656 0.960 . S
H642 C656 0.960 . S
H643 C656 0.960 . S
C644 H636 0.929 . S
C644 C645 1.377 . S
C644 C646 1.384 . S
C645 C644 1.377 . S
C645 C651 1.390 . S
C646 H637 0.930 . S
C646 C644 1.384 . S
C646 C647 1.372 . S
C647 C646 1.372 . S
C647 C648 1.400 . S
C647 C652 1.490 . S
C648 H638 0.930 . S
C648 C647 1.400 . S
C648 C651 1.386 . S
H649 C665 0.930 . S
H650 C666 0.931 . S
C651 H639 0.929 . S
C651 C645 1.390 . S
C651 C648 1.386 . S
C652 C647 1.490 . S
C652 C654 1.395 . S
C652 C655 1.403 . S
H653 C659 0.930 . S
C654 H640 0.930 . S
C654 C652 1.395 . S
C654 C657 1.403 . S
C655 C652 1.403 . S
C655 C656 1.524 . S
C655 C659 1.400 . S
C656 H641 0.960 . S
C656 H642 0.960 . S
C656 H643 0.960 . S
C656 C655 1.524 . S
C657 C654 1.403 . S
C657 C658 1.392 . S
C657 C661 1.495 . S
C658 C657 1.392 . S
C658 C659 1.385 . S
C658 C660 1.478 . S
C659 H653 0.930 . S
C659 C655 1.400 . S
C659 C658 1.385 . S
C660 C658 1.478 . S
C660 C662 1.381 . S
C660 C666 1.383 . S
C661 C657 1.495 . S
C661 H667 0.959 . S
C661 H668 0.961 . S
C661 H669 0.960 . S
C662 C660 1.381 . S
C662 C663 1.394 . S
C662 H670 0.930 . S
C663 C662 1.394 . S
C663 C664 1.383 . S
C663 H671 0.929 . S
C664 C663 1.383 . S
C664 C665 1.377 . S
C665 H649 0.930 . S
C665 C664 1.377 . S
C665 C666 1.379 . S
C666 H650 0.931 . S
C666 C660 1.383 . S
C666 C665 1.379 . S
H667 C661 0.959 . S
H668 C661 0.961 . S
H669 C661 0.960 . S
H670 C662 0.930 . S
H671 C663 0.929 . S
H672 C680 0.929 . S
H673 C682 0.930 . S
H674 C684 0.930 . S
H675 C687 0.929 . S
H676 C690 0.930 . S
H677 C692 0.960 . S
H678 C692 0.960 . S
H679 C692 0.960 . S
C680 H672 0.929 . S
C680 C681 1.377 . S
C680 C682 1.384 . S
C681 C680 1.377 . S
C681 C687 1.390 . S
C682 H673 0.930 . S
C682 C680 1.384 . S
C682 C683 1.372 . S
C683 C682 1.372 . S
C683 C684 1.400 . S
C683 C688 1.490 . S
C684 H674 0.930 . S
C684 C683 1.400 . S
C684 C687 1.386 . S
H685 C701 0.930 . S
H686 C702 0.931 . S
C687 H675 0.929 . S
C687 C681 1.390 . S
C687 C684 1.386 . S
C688 C683 1.490 . S
C688 C690 1.395 . S
C688 C691 1.403 . S
H689 C695 0.930 . S
C690 H676 0.930 . S
C690 C688 1.395 . S
C690 C693 1.403 . S
C691 C688 1.403 . S
C691 C692 1.524 . S
C691 C695 1.400 . S
C692 H677 0.960 . S
C692 H678 0.960 . S
C692 H679 0.960 . S
C692 C691 1.524 . S
C693 C690 1.403 . S
C693 C694 1.392 . S
C693 C697 1.495 . S
C694 C693 1.392 . S
C694 C695 1.385 . S
C694 C696 1.478 . S
C695 H689 0.930 . S
C695 C691 1.400 . S
C695 C694 1.385 . S
C696 C694 1.478 . S
C696 C698 1.381 . S
C696 C702 1.383 . S
C697 C693 1.495 . S
C697 H703 0.959 . S
C697 H704 0.961 . S
C697 H705 0.960 . S
C698 C696 1.381 . S
C698 C699 1.394 . S
C698 H706 0.930 . S
C699 C698 1.394 . S
C699 C700 1.383 . S
C699 H707 0.929 . S
C700 C699 1.383 . S
C700 C701 1.377 . S
C701 H685 0.930 . S
C701 C700 1.377 . S
C701 C702 1.379 . S
C702 H686 0.931 . S
C702 C696 1.383 . S
C702 C701 1.379 . S
H703 C697 0.959 . S
H704 C697 0.961 . S
H705 C697 0.960 . S
H706 C698 0.930 . S
H707 C699 0.929 . S
H708 C716 0.929 . S
H709 C718 0.930 . S
H710 C720 0.930 . S
H711 C723 0.929 . S
H712 C726 0.930 . S
H713 C728 0.960 . S
H714 C728 0.960 . S
H715 C728 0.960 . S
C716 H708 0.929 . S
C716 C717 1.377 . S
C716 C718 1.384 . S
C717 C716 1.377 . S
C717 C723 1.390 . S
C718 H709 0.930 . S
C718 C716 1.384 . S
C718 C719 1.372 . S
C719 C718 1.372 . S
C719 C720 1.400 . S
C719 C724 1.490 . S
C720 H710 0.930 . S
C720 C719 1.400 . S
C720 C723 1.386 . S
H721 C737 0.930 . S
H722 C738 0.931 . S
C723 H711 0.929 . S
C723 C717 1.390 . S
C723 C720 1.386 . S
C724 C719 1.490 . S
C724 C726 1.395 . S
C724 C727 1.403 . S
H725 C731 0.930 . S
C726 H712 0.930 . S
C726 C724 1.395 . S
C726 C729 1.403 . S
C727 C724 1.403 . S
C727 C728 1.524 . S
C727 C731 1.400 . S
C728 H713 0.960 . S
C728 H714 0.960 . S
C728 H715 0.960 . S
C728 C727 1.524 . S
C729 C726 1.403 . S
C729 C730 1.392 . S
C729 C733 1.495 . S
C730 C729 1.392 . S
C730 C731 1.385 . S
C730 C732 1.478 . S
C731 H725 0.930 . S
C731 C727 1.400 . S
C731 C730 1.385 . S
C732 C730 1.478 . S
C732 C734 1.381 . S
C732 C738 1.383 . S
C733 C729 1.495 . S
C733 H739 0.959 . S
C733 H740 0.961 . S
C733 H741 0.960 . S
C734 C732 1.381 . S
C734 C735 1.394 . S
C734 H742 0.930 . S
C735 C734 1.394 . S
C735 C736 1.383 . S
C735 H743 0.929 . S
C736 C735 1.383 . S
C736 C737 1.377 . S
C737 H721 0.930 . S
C737 C736 1.377 . S
C737 C738 1.379 . S
C738 H722 0.931 . S
C738 C732 1.383 . S
C738 C737 1.379 . S
H739 C733 0.959 . S
H740 C733 0.961 . S
H741 C733 0.960 . S
H742 C734 0.930 . S
H743 C735 0.929 . S
H744 C752 0.929 . S
H745 C754 0.930 . S
H746 C756 0.930 . S
H747 C759 0.929 . S
H748 C762 0.930 . S
H749 C764 0.960 . S
H750 C764 0.960 . S
H751 C764 0.960 . S
C752 H744 0.929 . S
C752 C753 1.377 . S
C752 C754 1.384 . S
C753 C752 1.377 . S
C753 C759 1.390 . S
C754 H745 0.930 . S
C754 C752 1.384 . S
C754 C755 1.372 . S
C755 C754 1.372 . S
C755 C756 1.400 . S
C755 C760 1.490 . S
C756 H746 0.930 . S
C756 C755 1.400 . S
C756 C759 1.386 . S
H757 C773 0.930 . S
H758 C774 0.931 . S
C759 H747 0.929 . S
C759 C753 1.390 . S
C759 C756 1.386 . S
C760 C755 1.490 . S
C760 C762 1.395 . S
C760 C763 1.403 . S
H761 C767 0.930 . S
C762 H748 0.930 . S
C762 C760 1.395 . S
C762 C765 1.403 . S
C763 C760 1.403 . S
C763 C764 1.524 . S
C763 C767 1.400 . S
C764 H749 0.960 . S
C764 H750 0.960 . S
C764 H751 0.960 . S
C764 C763 1.524 . S
C765 C762 1.403 . S
C765 C766 1.392 . S
C765 C769 1.495 . S
C766 C765 1.392 . S
C766 C767 1.385 . S
C766 C768 1.478 . S
C767 H761 0.930 . S
C767 C763 1.400 . S
C767 C766 1.385 . S
C768 C766 1.478 . S
C768 C770 1.381 . S
C768 C774 1.383 . S
C769 C765 1.495 . S
C769 H775 0.959 . S
C769 H776 0.961 . S
C769 H777 0.960 . S
C770 C768 1.381 . S
C770 C771 1.394 . S
C770 H778 0.930 . S
C771 C770 1.394 . S
C771 C772 1.383 . S
C771 H779 0.929 . S
C772 C771 1.383 . S
C772 C773 1.377 . S
C773 H757 0.930 . S
C773 C772 1.377 . S
C773 C774 1.379 . S
C774 H758 0.931 . S
C774 C768 1.383 . S
C774 C773 1.379 . S
H775 C769 0.959 . S
H776 C769 0.961 . S
H777 C769 0.960 . S
H778 C770 0.930 . S
H779 C771 0.929 . S
H780 C788 0.929 . S
H781 C790 0.930 . S
H782 C792 0.930 . S
H783 C795 0.929 . S
H784 C798 0.930 . S
H785 C800 0.960 . S
H786 C800 0.960 . S
H787 C800 0.960 . S
C788 H780 0.929 . S
C788 C789 1.377 . S
C788 C790 1.384 . S
C789 C788 1.377 . S
C789 C795 1.390 . S
C790 H781 0.930 . S
C790 C788 1.384 . S
C790 C791 1.372 . S
C791 C790 1.372 . S
C791 C792 1.400 . S
C791 C796 1.490 . S
C792 H782 0.930 . S
C792 C791 1.400 . S
C792 C795 1.386 . S
H793 C809 0.930 1_655 S
H794 C810 0.931 . S
C795 H783 0.929 . S
C795 C789 1.390 . S
C795 C792 1.386 . S
C796 C791 1.490 . S
C796 C798 1.395 . S
C796 C799 1.403 . S
H797 C803 0.930 . S
C798 H784 0.930 . S
C798 C796 1.395 . S
C798 C801 1.403 . S
C799 C796 1.403 . S
C799 C800 1.524 . S
C799 C803 1.400 . S
C800 H785 0.960 . S
C800 H786 0.960 . S
C800 H787 0.960 . S
C800 C799 1.524 . S
C801 C798 1.403 . S
C801 C802 1.392 . S
C801 C805 1.495 . S
C802 C801 1.392 . S
C802 C803 1.385 . S
C802 C804 1.478 . S
C803 H797 0.930 . S
C803 C799 1.400 . S
C803 C802 1.385 . S
C804 C802 1.478 . S
C804 C806 1.381 . S
C804 C810 1.383 . S
C805 C801 1.495 . S
C805 H811 0.959 . S
C805 H812 0.961 1_455 S
C805 H813 0.960 . S
C806 C804 1.381 . S
C806 C807 1.394 . S
C806 H814 0.930 . S
C807 C806 1.394 . S
C807 C808 1.383 . S
C807 H815 0.929 . S
C808 C807 1.383 . S
C808 C809 1.377 . S
C809 H793 0.930 1_455 S
C809 C808 1.377 . S
C809 C810 1.379 . S
C810 H794 0.931 . S
C810 C804 1.383 . S
C810 C809 1.379 . S
H811 C805 0.959 . S
H812 C805 0.961 1_655 S
H813 C805 0.960 . S
H814 C806 0.930 . S
H815 C807 0.929 . S
H816 C824 0.929 . S
H817 C826 0.930 . S
H818 C828 0.930 . S
H819 C831 0.929 . S
H820 C834 0.930 . S
H821 C836 0.960 . S
H822 C836 0.960 . S
H823 C836 0.960 . S
C824 H816 0.929 . S
C824 C825 1.377 . S
C824 C826 1.384 . S
C825 C824 1.377 . S
C825 C831 1.390 . S
C826 H817 0.930 . S
C826 C824 1.384 . S
C826 C827 1.372 . S
C827 C826 1.372 . S
C827 C828 1.400 . S
C827 C832 1.490 . S
C828 H818 0.930 . S
C828 C827 1.400 . S
C828 C831 1.386 . S
H829 C845 0.930 . S
H830 C846 0.931 . S
C831 H819 0.929 . S
C831 C825 1.390 . S
C831 C828 1.386 . S
C832 C827 1.490 . S
C832 C834 1.395 . S
C832 C835 1.403 . S
H833 C839 0.930 . S
C834 H820 0.930 . S
C834 C832 1.395 . S
C834 C837 1.403 . S
C835 C832 1.403 . S
C835 C836 1.524 . S
C835 C839 1.400 . S
C836 H821 0.960 . S
C836 H822 0.960 . S
C836 H823 0.960 . S
C836 C835 1.524 . S
C837 C834 1.403 . S
C837 C838 1.392 . S
C837 C841 1.495 . S
C838 C837 1.392 . S
C838 C839 1.385 . S
C838 C840 1.478 . S
C839 H833 0.930 . S
C839 C835 1.400 . S
C839 C838 1.385 . S
C840 C838 1.478 . S
C840 C842 1.381 . S
C840 C846 1.383 . S
C841 C837 1.495 . S
C841 H847 0.959 . S
C841 H848 0.961 . S
C841 H849 0.960 . S
C842 C840 1.381 . S
C842 C843 1.394 . S
C842 H850 0.930 . S
C843 C842 1.394 . S
C843 C844 1.383 . S
C843 H851 0.929 . S
C844 C843 1.383 . S
C844 C845 1.377 . S
C845 H829 0.930 . S
C845 C844 1.377 . S
C845 C846 1.379 . S
C846 H830 0.931 . S
C846 C840 1.383 . S
C846 C845 1.379 . S
H847 C841 0.959 . S
H848 C841 0.961 . S
H849 C841 0.960 . S
H850 C842 0.930 . S
H851 C843 0.929 . S
H852 C860 0.929 . S
H853 C862 0.930 . S
H854 C864 0.930 . S
H855 C867 0.929 . S
H856 C870 0.930 . S
H857 C872 0.960 . S
H858 C872 0.960 . S
H859 C872 0.960 . S
C860 H852 0.929 . S
C860 C861 1.377 . S
C860 C862 1.384 . S
C861 C860 1.377 . S
C861 C867 1.390 . S
C862 H853 0.930 . S
C862 C860 1.384 . S
C862 C863 1.372 . S
C863 C862 1.372 . S
C863 C864 1.400 . S
C863 C868 1.490 . S
C864 H854 0.930 . S
C864 C863 1.400 . S
C864 C867 1.386 . S
H865 C881 0.930 . S
H866 C882 0.931 . S
C867 H855 0.929 . S
C867 C861 1.390 . S
C867 C864 1.386 . S
C868 C863 1.490 . S
C868 C870 1.395 . S
C868 C871 1.403 . S
H869 C875 0.930 . S
C870 H856 0.930 . S
C870 C868 1.395 . S
C870 C873 1.403 . S
C871 C868 1.403 . S
C871 C872 1.524 . S
C871 C875 1.400 . S
C872 H857 0.960 . S
C872 H858 0.960 . S
C872 H859 0.960 . S
C872 C871 1.524 . S
C873 C870 1.403 . S
C873 C874 1.392 . S
C873 C877 1.495 . S
C874 C873 1.392 . S
C874 C875 1.385 . S
C874 C876 1.478 . S
C875 H869 0.930 . S
C875 C871 1.400 . S
C875 C874 1.385 . S
C876 C874 1.478 . S
C876 C878 1.381 1_655 S
C876 C882 1.383 . S
C877 C873 1.495 . S
C877 H883 0.959 . S
C877 H884 0.961 . S
C877 H885 0.960 . S
C878 C876 1.381 1_455 S
C878 C879 1.394 . S
C878 H886 0.930 . S
C879 C878 1.394 . S
C879 C880 1.383 1_455 S
C879 H887 0.929 . S
C880 C879 1.383 1_655 S
C880 C881 1.377 . S
C881 H865 0.930 . S
C881 C880 1.377 . S
C881 C882 1.379 . S
C882 H866 0.931 . S
C882 C876 1.383 . S
C882 C881 1.379 . S
H883 C877 0.959 . S
H884 C877 0.961 . S
H885 C877 0.960 . S
H886 C878 0.930 . S
H887 C879 0.929 . S
H888 C896 0.929 . S
H889 C898 0.930 . S
H890 C900 0.930 . S
H891 C903 0.929 . S
H892 C906 0.930 . S
H893 C908 0.960 . S
H894 C908 0.960 . S
H895 C908 0.960 . S
C896 H888 0.929 . S
C896 C897 1.377 . S
C896 C898 1.384 . S
C897 C896 1.377 . S
C897 C903 1.390 . S
C898 H889 0.930 . S
C898 C896 1.384 . S
C898 C899 1.372 . S
C899 C898 1.372 . S
C899 C900 1.400 . S
C899 C904 1.490 . S
C900 H890 0.930 . S
C900 C899 1.400 . S
C900 C903 1.386 . S
H901 C917 0.930 . S
H902 C918 0.931 . S
C903 H891 0.929 . S
C903 C897 1.390 . S
C903 C900 1.386 . S
C904 C899 1.490 . S
C904 C906 1.395 . S
C904 C907 1.403 . S
H905 C911 0.930 . S
C906 H892 0.930 . S
C906 C904 1.395 . S
C906 C909 1.403 . S
C907 C904 1.403 . S
C907 C908 1.524 . S
C907 C911 1.400 . S
C908 H893 0.960 . S
C908 H894 0.960 . S
C908 H895 0.960 . S
C908 C907 1.524 . S
C909 C906 1.403 . S
C909 C910 1.392 . S
C909 C913 1.495 . S
C910 C909 1.392 . S
C910 C911 1.385 . S
C910 C912 1.478 . S
C911 H905 0.930 . S
C911 C907 1.400 . S
C911 C910 1.385 . S
C912 C910 1.478 . S
C912 C914 1.381 . S
C912 C918 1.383 . S
C913 C909 1.495 . S
C913 H919 0.959 . S
C913 H920 0.961 . S
C913 H921 0.960 . S
C914 C912 1.381 . S
C914 C915 1.394 . S
C914 H922 0.930 . S
C915 C914 1.394 . S
C915 C916 1.383 . S
C915 H923 0.929 . S
C916 C915 1.383 . S
C916 C917 1.377 . S
C917 H901 0.930 . S
C917 C916 1.377 . S
C917 C918 1.379 . S
C918 H902 0.931 . S
C918 C912 1.383 . S
C918 C917 1.379 . S
H919 C913 0.959 . S
H920 C913 0.961 . S
H921 C913 0.960 . S
H922 C914 0.930 . S
H923 C915 0.929 . S
H924 C932 0.929 . S
H925 C934 0.930 . S
H926 C936 0.930 . S
H927 C939 0.929 . S
H928 C942 0.930 . S
H929 C944 0.960 . S
H930 C944 0.960 . S
H931 C944 0.960 . S
C932 H924 0.929 . S
C932 C933 1.377 . S
C932 C934 1.384 . S
C933 C932 1.377 . S
C933 C939 1.390 . S
C934 H925 0.930 . S
C934 C932 1.384 . S
C934 C935 1.372 . S
C935 C934 1.372 . S
C935 C936 1.400 . S
C935 C940 1.490 . S
C936 H926 0.930 . S
C936 C935 1.400 . S
C936 C939 1.386 . S
H937 C953 0.930 . S
H938 C954 0.931 . S
C939 H927 0.929 . S
C939 C933 1.390 . S
C939 C936 1.386 . S
C940 C935 1.490 . S
C940 C942 1.395 . S
C940 C943 1.403 . S
H941 C947 0.930 . S
C942 H928 0.930 . S
C942 C940 1.395 . S
C942 C945 1.403 . S
C943 C940 1.403 . S
C943 C944 1.524 . S
C943 C947 1.400 . S
C944 H929 0.960 . S
C944 H930 0.960 . S
C944 H931 0.960 . S
C944 C943 1.524 . S
C945 C942 1.403 . S
C945 C946 1.392 . S
C945 C949 1.495 . S
C946 C945 1.392 . S
C946 C947 1.385 . S
C946 C948 1.478 . S
C947 H941 0.930 . S
C947 C943 1.400 . S
C947 C946 1.385 . S
C948 C946 1.478 . S
C948 C950 1.381 . S
C948 C954 1.383 . S
C949 C945 1.495 . S
C949 H955 0.959 . S
C949 H956 0.961 . S
C949 H957 0.960 . S
C950 C948 1.381 . S
C950 C951 1.394 . S
C950 H958 0.930 . S
C951 C950 1.394 . S
C951 C952 1.383 . S
C951 H959 0.929 . S
C952 C951 1.383 . S
C952 C953 1.377 . S
C953 H937 0.930 . S
C953 C952 1.377 . S
C953 C954 1.379 . S
C954 H938 0.931 . S
C954 C948 1.383 . S
C954 C953 1.379 . S
H955 C949 0.959 . S
H956 C949 0.961 . S
H957 C949 0.960 . S
H958 C950 0.930 . S
H959 C951 0.929 . S
H960 C968 0.929 . S
H961 C970 0.930 . S
H962 C972 0.930 . S
H963 C975 0.929 . S
H964 C978 0.930 . S
H965 C980 0.960 . S
H966 C980 0.960 . S
H967 C980 0.960 . S
C968 H960 0.929 . S
C968 C969 1.377 . S
C968 C970 1.384 1_545 S
C969 C968 1.377 . S
C969 C975 1.390 . S
C970 H961 0.930 . S
C970 C968 1.384 1_565 S
C970 C971 1.369 1_565 S
C971 C970 1.369 1_545 S
C971 C972 1.410 . S
C971 C976 1.483 1_545 S
C972 H962 0.930 . S
C972 C971 1.410 . S
C972 C975 1.386 . S
H973 C989 0.930 . S
H974 C990 0.931 . S
C975 H963 0.929 . S
C975 C969 1.390 . S
C975 C972 1.386 . S
C976 C971 1.483 1_565 S
C976 C978 1.395 . S
C976 C979 1.403 . S
H977 C983 0.930 . S
C978 H964 0.930 . S
C978 C976 1.395 . S
C978 C981 1.403 . S
C979 C976 1.403 . S
C979 C980 1.524 . S
C979 C983 1.400 . S
C980 H965 0.960 . S
C980 H966 0.960 . S
C980 H967 0.960 . S
C980 C979 1.524 . S
C981 C978 1.403 . S
C981 C982 1.392 . S
C981 C985 1.495 1_556 S
C982 C981 1.392 . S
C982 C983 1.385 . S
C982 C984 1.478 . S
C983 H977 0.930 . S
C983 C979 1.400 . S
C983 C982 1.385 . S
C984 C982 1.478 . S
C984 C986 1.381 . S
C984 C990 1.383 . S
C985 C981 1.495 1_554 S
C985 H991 0.959 . S
C985 H992 0.961 . S
C985 H993 0.960 . S
C986 C984 1.381 . S
C986 C987 1.394 . S
C986 H994 0.930 . S
C987 C986 1.394 . S
C987 C988 1.383 . S
C987 H995 0.929 . S
C988 C987 1.383 . S
C988 C989 1.377 . S
C989 H973 0.930 . S
C989 C988 1.377 . S
C989 C990 1.379 . S
C990 H974 0.931 . S
C990 C984 1.383 . S
C990 C989 1.379 . S
H991 C985 0.959 . S
H992 C985 0.961 . S
H993 C985 0.960 . S
H994 C986 0.930 . S
H995 C987 0.929 . S
H996 C1004 0.929 . S
H997 C1006 0.930 . S
H998 C1008 0.930 . S
H999 C1011 0.929 . S
H1000 C1014 0.930 . S
H1001 C1016 0.960 . S
H1002 C1016 0.960 . S
H1003 C1016 0.960 . S
C1004 H996 0.929 . S
C1004 C1005 1.377 . S
C1004 C1006 1.384 . S
C1005 C1004 1.377 . S
C1005 C1011 1.390 . S
C1006 H997 0.930 . S
C1006 C1004 1.384 . S
C1006 C1007 1.372 . S
C1007 C1006 1.372 . S
C1007 C1008 1.400 . S
C1007 C1012 1.490 . S
C1008 H998 0.930 . S
C1008 C1007 1.400 . S
C1008 C1011 1.386 . S
H1009 C1025 0.930 . S
H1010 C1026 0.931 . S
C1011 H999 0.929 . S
C1011 C1005 1.390 . S
C1011 C1008 1.386 . S
C1012 C1007 1.490 . S
C1012 C1014 1.395 . S
C1012 C1015 1.403 . S
H1013 C1019 0.930 . S
C1014 H1000 0.930 . S
C1014 C1012 1.395 . S
C1014 C1017 1.403 . S
C1015 C1012 1.403 . S
C1015 C1016 1.524 . S
C1015 C1019 1.400 . S
C1016 H1001 0.960 . S
C1016 H1002 0.960 . S
C1016 H1003 0.960 . S
C1016 C1015 1.524 . S
C1017 C1014 1.403 . S
C1017 C1018 1.392 . S
C1017 C1021 1.495 . S
C1018 C1017 1.392 . S
C1018 C1019 1.385 . S
C1018 C1020 1.478 . S
C1019 H1013 0.930 . S
C1019 C1015 1.400 . S
C1019 C1018 1.385 . S
C1020 C1018 1.478 . S
C1020 C1022 1.381 . S
C1020 C1026 1.383 . S
C1021 C1017 1.495 . S
C1021 H1027 0.959 . S
C1021 H1028 0.961 . S
C1021 H1029 0.960 . S
C1022 C1020 1.381 . S
C1022 C1023 1.394 . S
C1022 H1030 0.930 . S
C1023 C1022 1.394 . S
C1023 C1024 1.383 . S
C1023 H1031 0.929 . S
C1024 C1023 1.383 . S
C1024 C1025 1.377 . S
C1025 H1009 0.930 . S
C1025 C1024 1.377 . S
C1025 C1026 1.379 . S
C1026 H1010 0.931 . S
C1026 C1020 1.383 . S
C1026 C1025 1.379 . S
H1027 C1021 0.959 . S
H1028 C1021 0.961 . S
H1029 C1021 0.960 . S
H1030 C1022 0.930 . S
H1031 C1023 0.929 . S
H1032 C1040 0.929 . S
H1033 C1042 0.930 . S
H1034 C1044 0.930 . S
H1035 C1047 0.929 . S
H1036 C1050 0.930 . S
H1037 C1052 0.960 . S
H1038 C1052 0.960 . S
H1039 C1052 0.960 . S
C1040 H1032 0.929 . S
C1040 C1041 1.377 . S
C1040 C1042 1.384 1_565 S
C1041 C1040 1.377 . S
C1041 C1047 1.390 . S
C1042 H1033 0.930 . S
C1042 C1040 1.384 1_545 S
C1042 C1043 1.372 . S
C1043 C1042 1.372 . S
C1043 C1044 1.400 1_545 S
C1043 C1048 1.490 . S
C1044 H1034 0.930 . S
C1044 C1043 1.400 1_565 S
C1044 C1047 1.386 . S
H1045 C1061 0.930 . S
H1046 C1062 0.931 . S
C1047 H1035 0.929 . S
C1047 C1041 1.390 . S
C1047 C1044 1.386 . S
C1048 C1043 1.490 . S
C1048 C1050 1.395 . S
C1048 C1051 1.403 . S
H1049 C1055 0.930 . S
C1050 H1036 0.930 . S
C1050 C1048 1.395 . S
C1050 C1053 1.403 . S
C1051 C1048 1.403 . S
C1051 C1052 1.524 1_545 S
C1051 C1055 1.400 . S
C1052 H1037 0.960 . S
C1052 H1038 0.960 . S
C1052 H1039 0.960 . S
C1052 C1051 1.524 1_565 S
C1053 C1050 1.403 . S
C1053 C1054 1.392 . S
C1053 C1057 1.495 . S
C1054 C1053 1.392 . S
C1054 C1055 1.385 . S
C1054 C1056 1.478 . S
C1055 H1049 0.930 . S
C1055 C1051 1.400 . S
C1055 C1054 1.385 . S
C1056 C1054 1.478 . S
C1056 C1058 1.381 . S
C1056 C1062 1.383 . S
C1057 C1053 1.495 . S
C1057 H1063 0.959 . S
C1057 H1064 0.961 . S
C1057 H1065 0.960 . S
C1058 C1056 1.381 . S
C1058 C1059 1.394 . S
C1058 H1066 0.930 . S
C1059 C1058 1.394 . S
C1059 C1060 1.383 . S
C1059 H1067 0.929 . S
C1060 C1059 1.383 . S
C1060 C1061 1.377 . S
C1061 H1045 0.930 . S
C1061 C1060 1.377 . S
C1061 C1062 1.379 . S
C1062 H1046 0.931 . S
C1062 C1056 1.383 . S
C1062 C1061 1.379 . S
H1063 C1057 0.959 . S
H1064 C1057 0.961 . S
H1065 C1057 0.960 . S
H1066 C1058 0.930 . S
H1067 C1059 0.929 . S
H1068 C1076 0.929 . S
H1069 C1078 0.930 . S
H1070 C1080 0.930 . S
H1071 C1083 0.929 . S
H1072 C1086 0.930 . S
H1073 C1088 0.960 . S
H1074 C1088 0.960 . S
H1075 C1088 0.960 . S
C1076 H1068 0.929 . S
C1076 C1077 1.377 . S
C1076 C1078 1.384 . S
C1077 C1076 1.377 . S
C1077 C1083 1.390 . S
C1078 H1069 0.930 . S
C1078 C1076 1.384 . S
C1078 C1079 1.372 . S
C1079 C1078 1.372 . S
C1079 C1080 1.400 . S
C1079 C1084 1.490 . S
C1080 H1070 0.930 . S
C1080 C1079 1.400 . S
C1080 C1083 1.386 . S
H1081 C1097 0.930 . S
H1082 C1098 0.931 . S
C1083 H1071 0.929 . S
C1083 C1077 1.390 . S
C1083 C1080 1.386 . S
C1084 C1079 1.490 . S
C1084 C1086 1.395 . S
C1084 C1087 1.403 . S
H1085 C1091 0.930 . S
C1086 H1072 0.930 . S
C1086 C1084 1.395 . S
C1086 C1089 1.403 . S
C1087 C1084 1.403 . S
C1087 C1088 1.524 . S
C1087 C1091 1.400 . S
C1088 H1073 0.960 . S
C1088 H1074 0.960 . S
C1088 H1075 0.960 . S
C1088 C1087 1.524 . S
C1089 C1086 1.403 . S
C1089 C1090 1.392 . S
C1089 C1093 1.495 . S
C1090 C1089 1.392 . S
C1090 C1091 1.385 . S
C1090 C1092 1.478 . S
C1091 H1085 0.930 . S
C1091 C1087 1.400 . S
C1091 C1090 1.385 . S
C1092 C1090 1.478 . S
C1092 C1094 1.381 . S
C1092 C1098 1.383 . S
C1093 C1089 1.495 . S
C1093 H1099 0.959 . S
C1093 H1100 0.961 . S
C1093 H1101 0.960 . S
C1094 C1092 1.381 . S
C1094 C1095 1.394 . S
C1094 H1102 0.930 . S
C1095 C1094 1.394 . S
C1095 C1096 1.383 . S
C1095 H1103 0.929 . S
C1096 C1095 1.383 . S
C1096 C1097 1.377 . S
C1097 H1081 0.930 . S
C1097 C1096 1.377 . S
C1097 C1098 1.379 . S
C1098 H1082 0.931 . S
C1098 C1092 1.383 . S
C1098 C1097 1.379 . S
H1099 C1093 0.959 . S
H1100 C1093 0.961 . S
H1101 C1093 0.960 . S
H1102 C1094 0.930 . S
H1103 C1095 0.929 . S
H1104 C1112 0.929 . S
H1105 C1114 0.930 . S
H1106 C1116 0.931 . S
H1107 C1119 0.929 . S
H1108 C1122 0.930 . S
H1109 C1124 0.960 . S
H1110 C1124 0.960 . S
H1111 C1124 0.960 . S
C1112 H1104 0.929 . S
C1112 C1113 1.377 . S
C1112 C1114 1.384 1_565 S
C1113 C1112 1.377 . S
C1113 C1119 1.390 . S
C1114 H1105 0.930 . S
C1114 C1112 1.384 1_545 S
C1114 C1115 1.372 . S
C1115 C1114 1.372 . S
C1115 C1116 1.402 . S
C1115 C1120 1.490 . S
C1116 H1106 0.931 . S
C1116 C1115 1.402 . S
C1116 C1119 1.381 1_545 S
H1117 C1133 0.930 . S
H1118 C1134 0.931 . S
C1119 H1107 0.929 . S
C1119 C1113 1.390 . S
C1119 C1116 1.381 1_565 S
C1120 C1115 1.490 . S
C1120 C1122 1.395 . S
C1120 C1123 1.403 . S
H1121 C1127 0.930 . S
C1122 H1108 0.930 . S
C1122 C1120 1.395 . S
C1122 C1125 1.403 . S
C1123 C1120 1.403 . S
C1123 C1124 1.524 1_545 S
C1123 C1127 1.400 . S
C1124 H1109 0.960 . S
C1124 H1110 0.960 . S
C1124 H1111 0.960 . S
C1124 C1123 1.524 1_565 S
C1125 C1122 1.403 . S
C1125 C1126 1.392 . S
C1125 C1129 1.495 . S
C1126 C1125 1.392 . S
C1126 C1127 1.385 . S
C1126 C1128 1.478 . S
C1127 H1121 0.930 . S
C1127 C1123 1.400 . S
C1127 C1126 1.385 . S
C1128 C1126 1.478 . S
C1128 C1130 1.381 . S
C1128 C1134 1.383 . S
C1129 C1125 1.495 . S
C1129 H1135 0.959 . S
C1129 H1136 0.961 . S
C1129 H1137 0.960 . S
C1130 C1128 1.381 . S
C1130 C1131 1.394 . S
C1130 H1138 0.930 . S
C1131 C1130 1.394 . S
C1131 C1132 1.383 . S
C1131 H1139 0.929 . S
C1132 C1131 1.383 . S
C1132 C1133 1.377 . S
C1133 H1117 0.930 . S
C1133 C1132 1.377 . S
C1133 C1134 1.379 . S
C1134 H1118 0.931 . S
C1134 C1128 1.383 . S
C1134 C1133 1.379 . S
H1135 C1129 0.959 . S
H1136 C1129 0.961 . S
H1137 C1129 0.960 . S
H1138 C1130 0.930 . S
H1139 C1131 0.929 . S
H1140 C1148 0.929 . S
H1141 C1150 0.930 . S
H1142 C1152 0.930 . S
H1143 C1155 0.929 . S
H1144 C1158 0.930 . S
H1145 C1160 0.960 . S
H1146 C1160 0.960 . S
H1147 C1160 0.960 . S
C1148 H1140 0.929 . S
C1148 C1149 1.377 . S
C1148 C1150 1.384 . S
C1149 C1148 1.377 . S
C1149 C1155 1.390 . S
C1150 H1141 0.930 . S
C1150 C1148 1.384 . S
C1150 C1151 1.372 . S
C1151 C1150 1.372 . S
C1151 C1152 1.400 . S
C1151 C1156 1.490 . S
C1152 H1142 0.930 . S
C1152 C1151 1.400 . S
C1152 C1155 1.386 . S
H1153 C1169 0.930 . S
H1154 C1170 0.931 . S
C1155 H1143 0.929 . S
C1155 C1149 1.390 . S
C1155 C1152 1.386 . S
C1156 C1151 1.490 . S
C1156 C1158 1.395 . S
C1156 C1159 1.403 . S
H1157 C1163 0.930 . S
C1158 H1144 0.930 . S
C1158 C1156 1.395 . S
C1158 C1161 1.403 . S
C1159 C1156 1.403 . S
C1159 C1160 1.524 . S
C1159 C1163 1.400 . S
C1160 H1145 0.960 . S
C1160 H1146 0.960 . S
C1160 H1147 0.960 . S
C1160 C1159 1.524 . S
C1161 C1158 1.403 . S
C1161 C1162 1.392 . S
C1161 C1165 1.495 . S
C1162 C1161 1.392 . S
C1162 C1163 1.385 . S
C1162 C1164 1.478 . S
C1163 H1157 0.930 . S
C1163 C1159 1.400 . S
C1163 C1162 1.385 . S
C1164 C1162 1.478 . S
C1164 C1166 1.381 . S
C1164 C1170 1.383 . S
C1165 C1161 1.495 . S
C1165 H1171 0.959 . S
C1165 H1172 0.961 . S
C1165 H1173 0.960 . S
C1166 C1164 1.381 . S
C1166 C1167 1.394 . S
C1166 H1174 0.930 . S
C1167 C1166 1.394 . S
C1167 C1168 1.383 . S
C1167 H1175 0.929 . S
C1168 C1167 1.383 . S
C1168 C1169 1.377 . S
C1169 H1153 0.930 . S
C1169 C1168 1.377 . S
C1169 C1170 1.379 . S
C1170 H1154 0.931 . S
C1170 C1164 1.383 . S
C1170 C1169 1.379 . S
H1171 C1165 0.959 . S
H1172 C1165 0.961 . S
H1173 C1165 0.960 . S
H1174 C1166 0.930 . S
H1175 C1167 0.929 . S
H1176 C1184 0.929 . S
H1177 C1186 0.930 . S
H1178 C1188 0.930 . S
H1179 C1191 0.929 . S
H1180 C1194 0.930 . S
H1181 C1196 0.960 . S
H1182 C1196 0.960 . S
H1183 C1196 0.960 . S
C1184 H1176 0.929 . S
C1184 C1185 1.377 . S
C1184 C1186 1.384 . S
C1185 C1184 1.377 . S
C1185 C1191 1.390 . S
C1186 H1177 0.930 . S
C1186 C1184 1.384 . S
C1186 C1187 1.372 . S
C1187 C1186 1.372 . S
C1187 C1188 1.400 . S
C1187 C1192 1.490 . S
C1188 H1178 0.930 . S
C1188 C1187 1.400 . S
C1188 C1191 1.386 . S
H1189 C1205 0.930 . S
H1190 C1206 0.931 . S
C1191 H1179 0.929 . S
C1191 C1185 1.390 . S
C1191 C1188 1.386 . S
C1192 C1187 1.490 . S
C1192 C1194 1.395 . S
C1192 C1195 1.403 . S
H1193 C1199 0.930 . S
C1194 H1180 0.930 . S
C1194 C1192 1.395 . S
C1194 C1197 1.403 . S
C1195 C1192 1.403 . S
C1195 C1196 1.524 . S
C1195 C1199 1.400 . S
C1196 H1181 0.960 . S
C1196 H1182 0.960 . S
C1196 H1183 0.960 . S
C1196 C1195 1.524 . S
C1197 C1194 1.403 . S
C1197 C1198 1.392 . S
C1197 C1201 1.495 . S
C1198 C1197 1.392 . S
C1198 C1199 1.385 . S
C1198 C1200 1.478 . S
C1199 H1193 0.930 . S
C1199 C1195 1.400 . S
C1199 C1198 1.385 . S
C1200 C1198 1.478 . S
C1200 C1202 1.381 . S
C1200 C1206 1.383 . S
C1201 C1197 1.495 . S
C1201 H1207 0.959 . S
C1201 H1208 0.961 . S
C1201 H1209 0.960 . S
C1202 C1200 1.381 . S
C1202 C1203 1.394 . S
C1202 H1210 0.930 . S
C1203 C1202 1.394 . S
C1203 C1204 1.383 . S
C1203 H1211 0.929 . S
C1204 C1203 1.383 . S
C1204 C1205 1.377 . S
C1205 H1189 0.930 . S
C1205 C1204 1.377 . S
C1205 C1206 1.379 . S
C1206 H1190 0.931 . S
C1206 C1200 1.383 . S
C1206 C1205 1.379 . S
H1207 C1201 0.959 . S
H1208 C1201 0.961 . S
H1209 C1201 0.960 . S
H1210 C1202 0.930 . S
H1211 C1203 0.929 . S
H1212 C1220 0.929 . S
H1213 C1222 0.930 . S
H1214 C1224 0.930 . S
H1215 C1227 0.929 . S
H1216 C1230 0.930 . S
H1217 C1232 0.960 . S
H1218 C1232 0.960 . S
H1219 C1232 0.960 . S
C1220 H1212 0.929 . S
C1220 C1221 1.377 . S
C1220 C1222 1.384 . S
C1221 C1220 1.377 . S
C1221 C1227 1.390 . S
C1222 H1213 0.930 . S
C1222 C1220 1.384 . S
C1222 C1223 1.372 . S
C1223 C1222 1.372 . S
C1223 C1224 1.400 . S
C1223 C1228 1.490 . S
C1224 H1214 0.930 . S
C1224 C1223 1.400 . S
C1224 C1227 1.386 . S
H1225 C1241 0.930 . S
H1226 C1242 0.931 . S
C1227 H1215 0.929 . S
C1227 C1221 1.390 . S
C1227 C1224 1.386 . S
C1228 C1223 1.490 . S
C1228 C1230 1.395 . S
C1228 C1231 1.403 . S
H1229 C1235 0.930 . S
C1230 H1216 0.930 . S
C1230 C1228 1.395 . S
C1230 C1233 1.403 . S
C1231 C1228 1.403 . S
C1231 C1232 1.524 . S
C1231 C1235 1.400 . S
C1232 H1217 0.960 . S
C1232 H1218 0.960 . S
C1232 H1219 0.960 . S
C1232 C1231 1.524 . S
C1233 C1230 1.403 . S
C1233 C1234 1.392 . S
C1233 C1237 1.495 . S
C1234 C1233 1.392 . S
C1234 C1235 1.385 . S
C1234 C1236 1.478 . S
C1235 H1229 0.930 . S
C1235 C1231 1.400 . S
C1235 C1234 1.385 . S
C1236 C1234 1.478 . S
C1236 C1238 1.381 . S
C1236 C1242 1.383 . S
C1237 C1233 1.495 . S
C1237 H1243 0.959 . S
C1237 H1244 0.961 . S
C1237 H1245 0.960 . S
C1238 C1236 1.381 . S
C1238 C1239 1.394 . S
C1238 H1246 0.930 1_545 S
C1239 C1238 1.394 . S
C1239 C1240 1.383 . S
C1239 H1247 0.929 1_545 S
C1240 C1239 1.383 . S
C1240 C1241 1.377 . S
C1241 H1225 0.930 . S
C1241 C1240 1.377 . S
C1241 C1242 1.379 . S
C1242 H1226 0.931 . S
C1242 C1236 1.383 . S
C1242 C1241 1.379 . S
H1243 C1237 0.959 . S
H1244 C1237 0.961 . S
H1245 C1237 0.960 . S
H1246 C1238 0.930 1_565 S
H1247 C1239 0.929 1_565 S
H1248 C1256 0.929 . S
H1249 C1258 0.930 . S
H1250 C1260 0.930 . S
H1251 C1263 0.929 . S
H1252 C1266 0.930 . S
H1253 C1268 0.960 . S
H1254 C1268 0.960 . S
H1255 C1268 0.960 . S
C1256 H1248 0.929 . S
C1256 C1257 1.377 . S
C1256 C1258 1.384 . S
C1257 C1256 1.377 . S
C1257 C1263 1.390 . S
C1258 H1249 0.930 . S
C1258 C1256 1.384 . S
C1258 C1259 1.372 . S
C1259 C1258 1.372 . S
C1259 C1260 1.400 . S
C1259 C1264 1.490 . S
C1260 H1250 0.930 . S
C1260 C1259 1.400 . S
C1260 C1263 1.386 . S
H1261 C1277 0.930 . S
H1262 C1278 0.931 . S
C1263 H1251 0.929 . S
C1263 C1257 1.390 . S
C1263 C1260 1.386 . S
C1264 C1259 1.490 . S
C1264 C1266 1.395 . S
C1264 C1267 1.403 . S
H1265 C1271 0.930 . S
C1266 H1252 0.930 . S
C1266 C1264 1.395 . S
C1266 C1269 1.403 . S
C1267 C1264 1.403 . S
C1267 C1268 1.524 . S
C1267 C1271 1.400 . S
C1268 H1253 0.960 . S
C1268 H1254 0.960 . S
C1268 H1255 0.960 . S
C1268 C1267 1.524 . S
C1269 C1266 1.403 . S
C1269 C1270 1.392 . S
C1269 C1273 1.495 . S
C1270 C1269 1.392 . S
C1270 C1271 1.385 . S
C1270 C1272 1.478 . S
C1271 H1265 0.930 . S
C1271 C1267 1.400 . S
C1271 C1270 1.385 . S
C1272 C1270 1.478 . S
C1272 C1274 1.381 . S
C1272 C1278 1.383 . S
C1273 C1269 1.495 . S
C1273 H1279 0.959 . S
C1273 H1280 0.961 . S
C1273 H1281 0.960 . S
C1274 C1272 1.381 . S
C1274 C1275 1.394 . S
C1274 H1282 0.930 . S
C1275 C1274 1.394 . S
C1275 C1276 1.383 . S
C1275 H1283 0.929 . S
C1276 C1275 1.383 . S
C1276 C1277 1.377 . S
C1277 H1261 0.930 . S
C1277 C1276 1.377 . S
C1277 C1278 1.379 . S
C1278 H1262 0.931 . S
C1278 C1272 1.383 . S
C1278 C1277 1.379 . S
H1279 C1273 0.959 . S
H1280 C1273 0.961 . S
H1281 C1273 0.960 . S
H1282 C1274 0.930 . S
H1283 C1275 0.929 . S
H1284 C1292 0.929 . S
H1285 C1294 0.930 . S
H1286 C1296 0.930 . S
H1287 C1299 0.929 . S
H1288 C1302 0.930 . S
H1289 C1304 0.960 . S
H1290 C1304 0.960 . S
H1291 C1304 0.960 . S
C1292 H1284 0.929 . S
C1292 C1293 1.377 . S
C1292 C1294 1.384 . S
C1293 C1292 1.377 . S
C1293 C1299 1.390 . S
C1294 H1285 0.930 . S
C1294 C1292 1.384 . S
C1294 C1295 1.372 . S
C1295 C1294 1.372 . S
C1295 C1296 1.400 . S
C1295 C1300 1.490 . S
C1296 H1286 0.930 . S
C1296 C1295 1.400 . S
C1296 C1299 1.386 . S
H1297 C1313 0.930 . S
H1298 C1314 0.931 . S
C1299 H1287 0.929 . S
C1299 C1293 1.390 . S
C1299 C1296 1.386 . S
C1300 C1295 1.490 . S
C1300 C1302 1.395 . S
C1300 C1303 1.403 . S
H1301 C1307 0.930 . S
C1302 H1288 0.930 . S
C1302 C1300 1.395 . S
C1302 C1305 1.403 . S
C1303 C1300 1.403 . S
C1303 C1304 1.524 . S
C1303 C1307 1.400 . S
C1304 H1289 0.960 . S
C1304 H1290 0.960 . S
C1304 H1291 0.960 . S
C1304 C1303 1.524 . S
C1305 C1302 1.403 . S
C1305 C1306 1.392 . S
C1305 C1309 1.495 . S
C1306 C1305 1.392 . S
C1306 C1307 1.385 . S
C1306 C1308 1.478 . S
C1307 H1301 0.930 . S
C1307 C1303 1.400 . S
C1307 C1306 1.385 . S
C1308 C1306 1.478 . S
C1308 C1310 1.381 . S
C1308 C1314 1.383 . S
C1309 C1305 1.495 . S
C1309 H1315 0.959 . S
C1309 H1316 0.961 . S
C1309 H1317 0.960 . S
C1310 C1308 1.381 . S
C1310 C1311 1.394 . S
C1310 H1318 0.930 . S
C1311 C1310 1.394 . S
C1311 C1312 1.383 . S
C1311 H1319 0.929 . S
C1312 C1311 1.383 . S
C1312 C1313 1.377 . S
C1313 H1297 0.930 . S
C1313 C1312 1.377 . S
C1313 C1314 1.379 . S
C1314 H1298 0.931 . S
C1314 C1308 1.383 . S
C1314 C1313 1.379 . S
H1315 C1309 0.959 . S
H1316 C1309 0.961 . S
H1317 C1309 0.960 . S
H1318 C1310 0.930 . S
H1319 C1311 0.929 . S
H1320 C1328 0.929 . S
H1321 C1330 0.930 . S
H1322 C1332 0.930 . S
H1323 C1335 0.929 . S
H1324 C1338 0.930 . S
H1325 C1340 0.960 . S
H1326 C1340 0.960 . S
H1327 C1340 0.960 . S
C1328 H1320 0.929 . S
C1328 C1329 1.377 . S
C1328 C1330 1.384 . S
C1329 C1328 1.377 . S
C1329 C1335 1.390 . S
C1330 H1321 0.930 . S
C1330 C1328 1.384 . S
C1330 C1331 1.372 . S
C1331 C1330 1.372 . S
C1331 C1332 1.400 . S
C1331 C1336 1.490 . S
C1332 H1322 0.930 . S
C1332 C1331 1.400 . S
C1332 C1335 1.386 . S
H1333 C1349 0.930 . S
H1334 C1350 0.931 . S
C1335 H1323 0.929 . S
C1335 C1329 1.390 . S
C1335 C1332 1.386 . S
C1336 C1331 1.490 . S
C1336 C1338 1.395 . S
C1336 C1339 1.403 . S
H1337 C1343 0.930 . S
C1338 H1324 0.930 . S
C1338 C1336 1.395 . S
C1338 C1341 1.403 . S
C1339 C1336 1.403 . S
C1339 C1340 1.524 . S
C1339 C1343 1.400 . S
C1340 H1325 0.960 . S
C1340 H1326 0.960 . S
C1340 H1327 0.960 . S
C1340 C1339 1.524 . S
C1341 C1338 1.403 . S
C1341 C1342 1.392 . S
C1341 C1345 1.495 . S
C1342 C1341 1.392 . S
C1342 C1343 1.385 . S
C1342 C1344 1.478 . S
C1343 H1337 0.930 . S
C1343 C1339 1.400 . S
C1343 C1342 1.385 . S
C1344 C1342 1.478 . S
C1344 C1346 1.381 . S
C1344 C1350 1.383 . S
C1345 C1341 1.495 . S
C1345 H1351 0.959 . S
C1345 H1352 0.961 . S
C1345 H1353 0.960 . S
C1346 C1344 1.381 . S
C1346 C1347 1.394 . S
C1346 H1354 0.930 . S
C1347 C1346 1.394 . S
C1347 C1348 1.383 . S
C1347 H1355 0.929 . S
C1348 C1347 1.383 . S
C1348 C1349 1.377 . S
C1349 H1333 0.930 . S
C1349 C1348 1.377 . S
C1349 C1350 1.379 . S
C1350 H1334 0.931 . S
C1350 C1344 1.383 . S
C1350 C1349 1.379 . S
H1351 C1345 0.959 . S
H1352 C1345 0.961 . S
H1353 C1345 0.960 . S
H1354 C1346 0.930 . S
H1355 C1347 0.929 . S
H1356 C1364 0.929 . S
H1357 C1366 0.928 1_655 S
H1358 C1368 0.930 . S
H1359 C1371 0.929 . S
H1360 C1374 0.930 1_455 S
H1361 C1376 0.960 . S
H1362 C1376 0.960 . S
H1363 C1376 0.960 . S
C1364 H1356 0.929 . S
C1364 C1365 1.377 . S
C1364 C1366 1.384 . S
C1365 C1364 1.377 . S
C1365 C1371 1.390 . S
C1366 H1357 0.928 1_455 S
C1366 C1364 1.384 . S
C1366 C1367 1.372 1_455 S
C1367 C1366 1.372 1_655 S
C1367 C1368 1.400 . S
C1367 C1372 1.490 . S
C1368 H1358 0.930 . S
C1368 C1367 1.400 . S
C1368 C1371 1.386 1_655 S
H1369 C1385 0.930 . S
H1370 C1386 0.931 . S
C1371 H1359 0.929 . S
C1371 C1365 1.390 . S
C1371 C1368 1.386 1_455 S
C1372 C1367 1.490 . S
C1372 C1374 1.395 . S
C1372 C1375 1.403 . S
H1373 C1379 0.930 . S
C1374 H1360 0.930 1_655 S
C1374 C1372 1.395 . S
C1374 C1377 1.403 . S
C1375 C1372 1.403 . S
C1375 C1376 1.524 . S
C1375 C1379 1.400 . S
C1376 H1361 0.960 . S
C1376 H1362 0.960 . S
C1376 H1363 0.960 . S
C1376 C1375 1.524 . S
C1377 C1374 1.403 . S
C1377 C1378 1.392 . S
C1377 C1381 1.495 . S
C1378 C1377 1.392 . S
C1378 C1379 1.385 . S
C1378 C1380 1.478 . S
C1379 H1373 0.930 . S
C1379 C1375 1.400 . S
C1379 C1378 1.385 . S
C1380 C1378 1.478 . S
C1380 C1382 1.381 1_545 S
C1380 C1386 1.383 . S
C1381 C1377 1.495 . S
C1381 H1387 0.959 1_655 S
C1381 H1388 0.961 . S
C1381 H1389 0.960 1_545 S
C1382 C1380 1.381 1_565 S
C1382 C1383 1.394 . S
C1382 H1390 0.930 . S
C1383 C1382 1.394 . S
C1383 C1384 1.383 1_565 S
C1383 H1391 0.929 . S
C1384 C1383 1.383 1_545 S
C1384 C1385 1.377 . S
C1385 H1369 0.930 . S
C1385 C1384 1.377 . S
C1385 C1386 1.379 . S
C1386 H1370 0.931 . S
C1386 C1380 1.383 . S
C1386 C1385 1.379 . S
H1387 C1381 0.959 1_455 S
H1388 C1381 0.961 . S
H1389 C1381 0.960 1_565 S
H1390 C1382 0.930 . S
H1391 C1383 0.929 . S
H1392 C1400 0.929 . S
H1393 C1402 0.930 . S
H1394 C1404 0.930 . S
H1395 C1407 0.929 . S
H1396 C1410 0.930 . S
H1397 C1412 0.960 . S
H1398 C1412 0.960 . S
H1399 C1412 0.960 . S
C1400 H1392 0.929 . S
C1400 C1401 1.377 . S
C1400 C1402 1.384 . S
C1401 C1400 1.377 . S
C1401 C1407 1.390 . S
C1402 H1393 0.930 . S
C1402 C1400 1.384 . S
C1402 C1403 1.372 . S
C1403 C1402 1.372 . S
C1403 C1404 1.400 . S
C1403 C1408 1.490 . S
C1404 H1394 0.930 . S
C1404 C1403 1.400 . S
C1404 C1407 1.386 . S
H1405 C1421 0.930 . S
H1406 C1422 0.931 . S
C1407 H1395 0.929 . S
C1407 C1401 1.390 . S
C1407 C1404 1.386 . S
C1408 C1403 1.490 . S
C1408 C1410 1.395 . S
C1408 C1411 1.403 . S
H1409 C1415 0.930 . S
C1410 H1396 0.930 . S
C1410 C1408 1.395 . S
C1410 C1413 1.403 . S
C1411 C1408 1.403 . S
C1411 C1412 1.524 . S
C1411 C1415 1.400 . S
C1412 H1397 0.960 . S
C1412 H1398 0.960 . S
C1412 H1399 0.960 . S
C1412 C1411 1.524 . S
C1413 C1410 1.403 . S
C1413 C1414 1.392 . S
C1413 C1417 1.495 . S
C1414 C1413 1.392 . S
C1414 C1415 1.385 . S
C1414 C1416 1.478 . S
C1415 H1409 0.930 . S
C1415 C1411 1.400 . S
C1415 C1414 1.385 . S
C1416 C1414 1.478 . S
C1416 C1418 1.381 . S
C1416 C1422 1.383 . S
C1417 C1413 1.495 . S
C1417 H1423 0.959 . S
C1417 H1424 0.961 . S
C1417 H1425 0.960 . S
C1418 C1416 1.381 . S
C1418 C1419 1.394 . S
C1418 H1426 0.930 . S
C1419 C1418 1.394 . S
C1419 C1420 1.383 . S
C1419 H1427 0.929 . S
C1420 C1419 1.383 . S
C1420 C1421 1.377 . S
C1421 H1405 0.930 . S
C1421 C1420 1.377 . S
C1421 C1422 1.379 . S
C1422 H1406 0.931 . S
C1422 C1416 1.383 . S
C1422 C1421 1.379 . S
H1423 C1417 0.959 . S
H1424 C1417 0.961 . S
H1425 C1417 0.960 . S
H1426 C1418 0.930 . S
H1427 C1419 0.929 . S
H1428 C1436 0.929 . S
H1429 C1438 0.930 . S
H1430 C1440 0.930 . S
H1431 C1443 0.929 . S
H1432 C1446 0.930 . S
H1433 C1448 0.960 . S
H1434 C1448 0.960 . S
H1435 C1448 0.960 . S
C1436 H1428 0.929 . S
C1436 C1437 1.377 . S
C1436 C1438 1.384 1_655 S
C1437 C1436 1.377 . S
C1437 C1443 1.390 . S
C1438 H1429 0.930 . S
C1438 C1436 1.384 1_455 S
C1438 C1439 1.372 . S
C1439 C1438 1.372 . S
C1439 C1440 1.400 1_455 S
C1439 C1444 1.490 . S
C1440 H1430 0.930 . S
C1440 C1439 1.400 1_655 S
C1440 C1443 1.386 . S
H1441 C1457 0.930 . S
H1442 C1458 0.931 . S
C1443 H1431 0.929 . S
C1443 C1437 1.390 . S
C1443 C1440 1.386 . S
C1444 C1439 1.490 . S
C1444 C1446 1.395 . S
C1444 C1447 1.403 . S
H1445 C1451 0.930 . S
C1446 H1432 0.930 . S
C1446 C1444 1.395 . S
C1446 C1449 1.403 . S
C1447 C1444 1.403 . S
C1447 C1448 1.524 1_455 S
C1447 C1451 1.400 . S
C1448 H1433 0.960 . S
C1448 H1434 0.960 . S
C1448 H1435 0.960 . S
C1448 C1447 1.524 1_655 S
C1449 C1446 1.403 . S
C1449 C1450 1.392 . S
C1449 C1453 1.495 . S
C1450 C1449 1.392 . S
C1450 C1451 1.385 . S
C1450 C1452 1.478 . S
C1451 H1445 0.930 . S
C1451 C1447 1.400 . S
C1451 C1450 1.385 . S
C1452 C1450 1.478 . S
C1452 C1454 1.381 . S
C1452 C1458 1.383 . S
C1453 C1449 1.495 . S
C1453 H1459 0.959 . S
C1453 H1460 0.961 . S
C1453 H1461 0.960 . S
C1454 C1452 1.381 . S
C1454 C1455 1.394 . S
C1454 H1462 0.930 . S
C1455 C1454 1.394 . S
C1455 C1456 1.383 . S
C1455 H1463 0.929 . S
C1456 C1455 1.383 . S
C1456 C1457 1.377 . S
C1457 H1441 0.930 . S
C1457 C1456 1.377 . S
C1457 C1458 1.379 . S
C1458 H1442 0.931 . S
C1458 C1452 1.383 . S
C1458 C1457 1.379 . S
H1459 C1453 0.959 . S
H1460 C1453 0.961 . S
H1461 C1453 0.960 . S
H1462 C1454 0.930 . S
H1463 C1455 0.929 . S
H1464 C1472 0.929 . S
H1465 C1474 0.930 . S
H1466 C1476 0.930 . S
H1467 C1479 0.929 . S
H1468 C1482 0.930 . S
H1469 C1484 0.960 . S
H1470 C1484 0.960 . S
H1471 C1484 0.960 . S
C1472 H1464 0.929 . S
C1472 C1473 1.377 . S
C1472 C1474 1.384 . S
C1473 C1472 1.377 . S
C1473 C1479 1.390 . S
C1474 H1465 0.930 . S
C1474 C1472 1.384 . S
C1474 C1475 1.372 . S
C1475 C1474 1.372 . S
C1475 C1476 1.400 . S
C1475 C1480 1.490 . S
C1476 H1466 0.930 . S
C1476 C1475 1.400 . S
C1476 C1479 1.386 . S
H1477 C1493 0.930 . S
H1478 C1494 0.931 . S
C1479 H1467 0.929 . S
C1479 C1473 1.390 . S
C1479 C1476 1.386 . S
C1480 C1475 1.490 . S
C1480 C1482 1.395 . S
C1480 C1483 1.403 . S
H1481 C1487 0.930 . S
C1482 H1468 0.930 . S
C1482 C1480 1.395 . S
C1482 C1485 1.403 . S
C1483 C1480 1.403 . S
C1483 C1484 1.524 . S
C1483 C1487 1.400 . S
C1484 H1469 0.960 . S
C1484 H1470 0.960 . S
C1484 H1471 0.960 . S
C1484 C1483 1.524 . S
C1485 C1482 1.403 . S
C1485 C1486 1.392 . S
C1485 C1489 1.495 . S
C1486 C1485 1.392 . S
C1486 C1487 1.385 . S
C1486 C1488 1.478 . S
C1487 H1481 0.930 . S
C1487 C1483 1.400 . S
C1487 C1486 1.385 . S
C1488 C1486 1.478 . S
C1488 C1490 1.381 . S
C1488 C1494 1.383 . S
C1489 C1485 1.495 . S
C1489 H1495 0.959 . S
C1489 H1496 0.961 . S
C1489 H1497 0.960 . S
C1490 C1488 1.381 . S
C1490 C1491 1.394 . S
C1490 H1498 0.930 . S
C1491 C1490 1.394 . S
C1491 C1492 1.383 . S
C1491 H1499 0.929 . S
C1492 C1491 1.383 . S
C1492 C1493 1.377 . S
C1493 H1477 0.930 . S
C1493 C1492 1.377 . S
C1493 C1494 1.379 . S
C1494 H1478 0.931 . S
C1494 C1488 1.383 . S
C1494 C1493 1.379 . S
H1495 C1489 0.959 . S
H1496 C1489 0.961 . S
H1497 C1489 0.960 . S
H1498 C1490 0.930 . S
H1499 C1491 0.929 . S
H1500 C1508 0.929 . S
H1501 C1510 0.930 . S
H1502 C1512 0.930 . S
H1503 C1515 0.929 . S
H1504 C1518 0.930 . S
H1505 C1520 0.960 . S
H1506 C1520 0.960 . S
H1507 C1520 0.960 1_554 S
C1508 H1500 0.929 . S
C1508 C1509 1.377 . S
C1508 C1510 1.384 1_554 S
C1509 C1508 1.377 . S
C1509 C1515 1.390 . S
C1510 H1501 0.930 . S
C1510 C1508 1.384 1_556 S
C1510 C1511 1.368 1_556 S
C1511 C1510 1.368 1_554 S
C1511 C1512 1.413 . S
C1511 C1516 1.481 1_554 S
C1512 H1502 0.930 . S
C1512 C1511 1.413 . S
C1512 C1515 1.386 . S
H1513 C1529 0.930 . S
H1514 C1530 0.931 . S
C1515 H1503 0.929 . S
C1515 C1509 1.390 . S
C1515 C1512 1.386 . S
C1516 C1511 1.481 1_556 S
C1516 C1518 1.395 . S
C1516 C1519 1.403 . S
H1517 C1523 0.930 . S
C1518 H1504 0.930 . S
C1518 C1516 1.395 . S
C1518 C1521 1.403 . S
C1519 C1516 1.403 . S
C1519 C1520 1.524 . S
C1519 C1523 1.400 . S
C1520 H1505 0.960 . S
C1520 H1506 0.960 . S
C1520 H1507 0.960 1_556 S
C1520 C1519 1.524 . S
C1521 C1518 1.403 . S
C1521 C1522 1.392 . S
C1521 C1525 1.495 1_655 S
C1522 C1521 1.392 . S
C1522 C1523 1.385 . S
C1522 C1524 1.478 . S
C1523 H1517 0.930 . S
C1523 C1519 1.400 . S
C1523 C1522 1.385 . S
C1524 C1522 1.478 . S
C1524 C1526 1.381 . S
C1524 C1530 1.383 . S
C1525 C1521 1.495 1_455 S
C1525 H1531 0.959 . S
C1525 H1532 0.961 . S
C1525 H1533 0.960 . S
C1526 C1524 1.381 . S
C1526 C1527 1.394 . S
C1526 H1534 0.930 . S
C1527 C1526 1.394 . S
C1527 C1528 1.383 . S
C1527 H1535 0.929 . S
C1528 C1527 1.383 . S
C1528 C1529 1.377 . S
C1529 H1513 0.930 . S
C1529 C1528 1.377 . S
C1529 C1530 1.379 . S
C1530 H1514 0.931 . S
C1530 C1524 1.383 . S
C1530 C1529 1.379 . S
H1531 C1525 0.959 . S
H1532 C1525 0.961 . S
H1533 C1525 0.960 . S
H1534 C1526 0.930 . S
H1535 C1527 0.929 . S
H1536 C1544 0.929 . S
H1537 C1546 0.930 . S
H1538 C1548 0.930 . S
H1539 C1551 0.929 . S
H1540 C1554 0.930 . S
H1541 C1556 0.960 . S
H1542 C1556 0.960 . S
H1543 C1556 0.960 . S
C1544 H1536 0.929 . S
C1544 C1545 1.377 . S
C1544 C1546 1.384 . S
C1545 C1544 1.377 . S
C1545 C1551 1.390 . S
C1546 H1537 0.930 . S
C1546 C1544 1.384 . S
C1546 C1547 1.372 . S
C1547 C1546 1.372 . S
C1547 C1548 1.400 . S
C1547 C1552 1.490 . S
C1548 H1538 0.930 . S
C1548 C1547 1.400 . S
C1548 C1551 1.386 . S
H1549 C1565 0.930 . S
H1550 C1566 0.931 . S
C1551 H1539 0.929 . S
C1551 C1545 1.390 . S
C1551 C1548 1.386 . S
C1552 C1547 1.490 . S
C1552 C1554 1.395 . S
C1552 C1555 1.403 . S
H1553 C1559 0.930 . S
C1554 H1540 0.930 . S
C1554 C1552 1.395 . S
C1554 C1557 1.403 . S
C1555 C1552 1.403 . S
C1555 C1556 1.524 . S
C1555 C1559 1.400 . S
C1556 H1541 0.960 . S
C1556 H1542 0.960 . S
C1556 H1543 0.960 . S
C1556 C1555 1.524 . S
C1557 C1554 1.403 . S
C1557 C1558 1.392 . S
C1557 C1561 1.495 . S
C1558 C1557 1.392 . S
C1558 C1559 1.385 . S
C1558 C1560 1.478 . S
C1559 H1553 0.930 . S
C1559 C1555 1.400 . S
C1559 C1558 1.385 . S
C1560 C1558 1.478 . S
C1560 C1562 1.381 . S
C1560 C1566 1.383 . S
C1561 C1557 1.495 . S
C1561 H1567 0.959 . S
C1561 H1568 0.961 . S
C1561 H1569 0.960 . S
C1562 C1560 1.381 . S
C1562 C1563 1.394 . S
C1562 H1570 0.930 . S
C1563 C1562 1.394 . S
C1563 C1564 1.383 . S
C1563 H1571 0.929 . S
C1564 C1563 1.383 . S
C1564 C1565 1.377 . S
C1565 H1549 0.930 . S
C1565 C1564 1.377 . S
C1565 C1566 1.379 . S
C1566 H1550 0.931 . S
C1566 C1560 1.383 . S
C1566 C1565 1.379 . S
H1567 C1561 0.959 . S
H1568 C1561 0.961 . S
H1569 C1561 0.960 . S
H1570 C1562 0.930 . S
H1571 C1563 0.929 . S
H1572 C1580 0.929 . S
H1573 C1582 0.930 . S
H1574 C1584 0.930 . S
H1575 C1587 0.929 . S
H1576 C1590 0.930 . S
H1577 C1592 0.960 . S
H1578 C1592 0.960 . S
H1579 C1592 0.960 1_554 S
C1580 H1572 0.929 . S
C1580 C1581 1.377 1_556 S
C1580 C1582 1.384 . S
C1581 C1580 1.377 1_554 S
C1581 C1587 1.390 . S
C1582 H1573 0.930 . S
C1582 C1580 1.384 . S
C1582 C1583 1.372 . S
C1583 C1582 1.372 . S
C1583 C1584 1.400 1_556 S
C1583 C1588 1.490 . S
C1584 H1574 0.930 . S
C1584 C1583 1.400 1_554 S
C1584 C1587 1.386 . S
H1585 C1601 0.930 . S
H1586 C1602 0.931 . S
C1587 H1575 0.929 . S
C1587 C1581 1.390 . S
C1587 C1584 1.386 . S
C1588 C1583 1.490 . S
C1588 C1590 1.395 . S
C1588 C1591 1.403 . S
H1589 C1595 0.930 . S
C1590 H1576 0.930 . S
C1590 C1588 1.395 . S
C1590 C1593 1.403 . S
C1591 C1588 1.403 . S
C1591 C1592 1.524 . S
C1591 C1595 1.400 . S
C1592 H1577 0.960 . S
C1592 H1578 0.960 . S
C1592 H1579 0.960 1_556 S
C1592 C1591 1.524 . S
C1593 C1590 1.403 . S
C1593 C1594 1.392 . S
C1593 C1597 1.495 1_455 S
C1594 C1593 1.392 . S
C1594 C1595 1.385 . S
C1594 C1596 1.478 . S
C1595 H1589 0.930 . S
C1595 C1591 1.400 . S
C1595 C1594 1.385 . S
C1596 C1594 1.478 . S
C1596 C1598 1.381 . S
C1596 C1602 1.383 . S
C1597 C1593 1.495 1_655 S
C1597 H1603 0.959 . S
C1597 H1604 0.961 . S
C1597 H1605 0.979 . S
C1598 C1596 1.381 . S
C1598 C1599 1.394 . S
C1598 H1606 0.930 . S
C1599 C1598 1.394 . S
C1599 C1600 1.383 . S
C1599 H1607 0.929 . S
C1600 C1599 1.383 . S
C1600 C1601 1.377 . S
C1601 H1585 0.930 . S
C1601 C1600 1.377 . S
C1601 C1602 1.379 . S
C1602 H1586 0.931 . S
C1602 C1596 1.383 . S
C1602 C1601 1.379 . S
H1603 C1597 0.959 . S
H1604 C1597 0.961 . S
H1605 C1597 0.979 . S
H1606 C1598 0.930 . S
H1607 C1599 0.929 . S
H1608 C1616 0.929 . S
H1609 C1618 0.930 . S
H1610 C1620 0.930 . S
H1611 C1623 0.929 . S
H1612 C1626 0.930 . S
H1613 C1628 0.960 . S
H1614 C1628 0.960 . S
H1615 C1628 0.960 . S
C1616 H1608 0.929 . S
C1616 C1617 1.377 . S
C1616 C1618 1.384 . S
C1617 C1616 1.377 . S
C1617 C1623 1.390 . S
C1618 H1609 0.930 . S
C1618 C1616 1.384 . S
C1618 C1619 1.372 . S
C1619 C1618 1.372 . S
C1619 C1620 1.400 . S
C1619 C1624 1.490 . S
C1620 H1610 0.930 . S
C1620 C1619 1.400 . S
C1620 C1623 1.386 . S
H1621 C1637 0.930 . S
H1622 C1638 0.931 . S
C1623 H1611 0.929 . S
C1623 C1617 1.390 . S
C1623 C1620 1.386 . S
C1624 C1619 1.490 . S
C1624 C1626 1.395 . S
C1624 C1627 1.403 . S
H1625 C1631 0.930 . S
C1626 H1612 0.930 . S
C1626 C1624 1.395 . S
C1626 C1629 1.403 . S
C1627 C1624 1.403 . S
C1627 C1628 1.524 . S
C1627 C1631 1.400 . S
C1628 H1613 0.960 . S
C1628 H1614 0.960 . S
C1628 H1615 0.960 . S
C1628 C1627 1.524 . S
C1629 C1626 1.403 . S
C1629 C1630 1.392 . S
C1629 C1633 1.495 . S
C1630 C1629 1.392 . S
C1630 C1631 1.385 . S
C1630 C1632 1.478 . S
C1631 H1625 0.930 . S
C1631 C1627 1.400 . S
C1631 C1630 1.385 . S
C1632 C1630 1.478 . S
C1632 C1634 1.381 . S
C1632 C1638 1.383 . S
C1633 C1629 1.495 . S
C1633 H1639 0.959 . S
C1633 H1640 0.961 . S
C1633 H1641 0.960 . S
C1634 C1632 1.381 . S
C1634 C1635 1.394 . S
C1634 H1642 0.930 . S
C1635 C1634 1.394 . S
C1635 C1636 1.383 . S
C1635 H1643 0.929 . S
C1636 C1635 1.383 . S
C1636 C1637 1.377 . S
C1637 H1621 0.930 . S
C1637 C1636 1.377 . S
C1637 C1638 1.379 . S
C1638 H1622 0.931 . S
C1638 C1632 1.383 . S
C1638 C1637 1.379 . S
H1639 C1633 0.959 . S
H1640 C1633 0.961 . S
H1641 C1633 0.960 . S
H1642 C1634 0.930 . S
H1643 C1635 0.929 . S
H1644 C1652 0.929 . S
H1645 C1654 0.930 . S
H1646 C1656 0.930 . S
H1647 C1659 0.929 . S
H1648 C1662 0.930 . S
H1649 C1664 0.960 . S
H1650 C1664 0.960 . S
H1651 C1664 0.960 . S
C1652 H1644 0.929 . S
C1652 C1653 1.377 1_554 S
C1652 C1654 1.384 . S
C1653 C1652 1.377 1_556 S
C1653 C1659 1.390 . S
C1654 H1645 0.930 . S
C1654 C1652 1.384 . S
C1654 C1655 1.372 . S
C1655 C1654 1.372 . S
C1655 C1656 1.400 1_554 S
C1655 C1660 1.490 . S
C1656 H1646 0.930 . S
C1656 C1655 1.400 1_556 S
C1656 C1659 1.386 . S
H1657 C1673 0.930 . S
H1658 C1674 0.931 . S
C1659 H1647 0.929 . S
C1659 C1653 1.390 . S
C1659 C1656 1.386 . S
C1660 C1655 1.490 . S
C1660 C1662 1.395 . S
C1660 C1663 1.403 . S
H1661 C1667 0.930 . S
C1662 H1648 0.930 . S
C1662 C1660 1.395 . S
C1662 C1665 1.403 . S
C1663 C1660 1.403 . S
C1663 C1664 1.524 . S
C1663 C1667 1.400 . S
C1664 H1649 0.960 . S
C1664 H1650 0.960 . S
C1664 H1651 0.960 . S
C1664 C1663 1.524 . S
C1665 C1662 1.403 . S
C1665 C1666 1.392 . S
C1665 C1669 1.495 . S
C1666 C1665 1.392 . S
C1666 C1667 1.385 . S
C1666 C1668 1.478 . S
C1667 H1661 0.930 . S
C1667 C1663 1.400 . S
C1667 C1666 1.385 . S
C1668 C1666 1.478 . S
C1668 C1670 1.381 . S
C1668 C1674 1.383 . S
C1669 C1665 1.495 . S
C1669 H1675 0.959 . S
C1669 H1676 0.961 . S
C1669 H1677 0.960 . S
C1670 C1668 1.381 . S
C1670 C1671 1.394 . S
C1670 H1678 0.930 . S
C1671 C1670 1.394 . S
C1671 C1672 1.383 . S
C1671 H1679 0.929 . S
C1672 C1671 1.383 . S
C1672 C1673 1.377 . S
C1673 H1657 0.930 . S
C1673 C1672 1.377 . S
C1673 C1674 1.379 . S
C1674 H1658 0.931 . S
C1674 C1668 1.383 . S
C1674 C1673 1.379 . S
H1675 C1669 0.959 . S
H1676 C1669 0.961 . S
H1677 C1669 0.960 . S
H1678 C1670 0.930 . S
H1679 C1671 0.929 . S
H1680 C1688 0.929 . S
H1681 C1690 0.930 . S
H1682 C1692 0.930 . S
H1683 C1695 0.929 . S
H1684 C1698 0.930 . S
H1685 C1700 0.960 . S
H1686 C1700 0.960 . S
H1687 C1700 0.960 . S
C1688 H1680 0.929 . S
C1688 C1689 1.377 . S
C1688 C1690 1.384 . S
C1689 C1688 1.377 . S
C1689 C1695 1.390 . S
C1690 H1681 0.930 . S
C1690 C1688 1.384 . S
C1690 C1691 1.372 . S
C1691 C1690 1.372 . S
C1691 C1692 1.400 . S
C1691 C1696 1.490 . S
C1692 H1682 0.930 . S
C1692 C1691 1.400 . S
C1692 C1695 1.386 . S
H1693 C1709 0.930 . S
H1694 C1710 0.931 . S
C1695 H1683 0.929 . S
C1695 C1689 1.390 . S
C1695 C1692 1.386 . S
C1696 C1691 1.490 . S
C1696 C1698 1.395 . S
C1696 C1699 1.403 . S
H1697 C1703 0.930 . S
C1698 H1684 0.930 . S
C1698 C1696 1.395 . S
C1698 C1701 1.403 . S
C1699 C1696 1.403 . S
C1699 C1700 1.524 . S
C1699 C1703 1.400 . S
C1700 H1685 0.960 . S
C1700 H1686 0.960 . S
C1700 H1687 0.960 . S
C1700 C1699 1.524 . S
C1701 C1698 1.403 . S
C1701 C1702 1.392 . S
C1701 C1705 1.495 . S
C1702 C1701 1.392 . S
C1702 C1703 1.385 . S
C1702 C1704 1.478 . S
C1703 H1697 0.930 . S
C1703 C1699 1.400 . S
C1703 C1702 1.385 . S
C1704 C1702 1.478 . S
C1704 C1706 1.381 . S
C1704 C1710 1.383 . S
C1705 C1701 1.495 . S
C1705 H1711 0.959 . S
C1705 H1712 0.961 . S
C1705 H1713 0.960 . S
C1706 C1704 1.381 . S
C1706 C1707 1.394 . S
C1706 H1714 0.930 . S
C1707 C1706 1.394 . S
C1707 C1708 1.383 . S
C1707 H1715 0.929 . S
C1708 C1707 1.383 . S
C1708 C1709 1.377 . S
C1709 H1693 0.930 . S
C1709 C1708 1.377 . S
C1709 C1710 1.379 . S
C1710 H1694 0.931 . S
C1710 C1704 1.383 . S
C1710 C1709 1.379 . S
H1711 C1705 0.959 . S
H1712 C1705 0.961 . S
H1713 C1705 0.960 . S
H1714 C1706 0.930 . S
H1715 C1707 0.929 . S
H1716 C1724 0.929 . S
H1717 C1726 0.930 . S
H1718 C1728 0.930 . S
H1719 C1731 0.929 . S
H1720 C1734 0.930 . S
H1721 C1736 0.960 . S
H1722 C1736 0.960 1_556 S
H1723 C1736 0.960 . S
C1724 H1716 0.929 . S
C1724 C1725 1.377 . S
C1724 C1726 1.384 . S
C1725 C1724 1.377 . S
C1725 C1731 1.390 . S
C1726 H1717 0.930 . S
C1726 C1724 1.384 . S
C1726 C1727 1.372 1_556 S
C1727 C1726 1.372 1_554 S
C1727 C1728 1.400 . S
C1727 C1732 1.490 . S
C1728 H1718 0.930 . S
C1728 C1727 1.400 . S
C1728 C1731 1.386 1_554 S
H1729 C1745 0.930 . S
H1730 C1746 0.931 . S
C1731 H1719 0.929 . S
C1731 C1725 1.390 . S
C1731 C1728 1.386 1_556 S
C1732 C1727 1.490 . S
C1732 C1734 1.395 . S
C1732 C1735 1.403 . S
H1733 C1739 0.930 . S
C1734 H1720 0.930 . S
C1734 C1732 1.395 . S
C1734 C1737 1.403 . S
C1735 C1732 1.403 . S
C1735 C1736 1.524 . S
C1735 C1739 1.400 . S
C1736 H1721 0.960 . S
C1736 H1722 0.960 1_554 S
C1736 H1723 0.960 . S
C1736 C1735 1.524 . S
C1737 C1734 1.403 . S
C1737 C1738 1.392 . S
C1737 C1741 1.495 . S
C1738 C1737 1.392 . S
C1738 C1739 1.385 . S
C1738 C1740 1.478 . S
C1739 H1733 0.930 . S
C1739 C1735 1.400 . S
C1739 C1738 1.385 . S
C1740 C1738 1.478 . S
C1740 C1742 1.381 . S
C1740 C1746 1.383 . S
C1741 C1737 1.495 . S
C1741 H1747 0.959 . S
C1741 H1748 0.961 . S
C1741 H1749 0.960 . S
C1742 C1740 1.381 . S
C1742 C1743 1.394 . S
C1742 H1750 0.930 . S
C1743 C1742 1.394 . S
C1743 C1744 1.383 . S
C1743 H1751 0.929 . S
C1744 C1743 1.383 . S
C1744 C1745 1.377 . S
C1745 H1729 0.930 . S
C1745 C1744 1.377 . S
C1745 C1746 1.379 . S
C1746 H1730 0.931 . S
C1746 C1740 1.383 . S
C1746 C1745 1.379 . S
H1747 C1741 0.959 . S
H1748 C1741 0.961 . S
H1749 C1741 0.960 . S
H1750 C1742 0.930 . S
H1751 C1743 0.929 . S
H1752 C1760 0.929 . S
H1753 C1762 0.930 . S
H1754 C1764 0.930 . S
H1755 C1767 0.929 . S
H1756 C1770 0.930 . S
H1757 C1772 0.960 . S
H1758 C1772 0.960 . S
H1759 C1772 0.960 . S
C1760 H1752 0.929 . S
C1760 C1761 1.377 . S
C1760 C1762 1.384 . S
C1761 C1760 1.377 . S
C1761 C1767 1.390 . S
C1762 H1753 0.930 . S
C1762 C1760 1.384 . S
C1762 C1763 1.372 . S
C1763 C1762 1.372 . S
C1763 C1764 1.400 . S
C1763 C1768 1.490 . S
C1764 H1754 0.930 . S
C1764 C1763 1.400 . S
C1764 C1767 1.386 . S
H1765 C1781 0.930 . S
H1766 C1782 0.931 . S
C1767 H1755 0.929 . S
C1767 C1761 1.390 . S
C1767 C1764 1.386 . S
C1768 C1763 1.490 . S
C1768 C1770 1.395 . S
C1768 C1771 1.403 . S
H1769 C1775 0.930 . S
C1770 H1756 0.930 . S
C1770 C1768 1.395 . S
C1770 C1773 1.403 . S
C1771 C1768 1.403 . S
C1771 C1772 1.524 . S
C1771 C1775 1.400 . S
C1772 H1757 0.960 . S
C1772 H1758 0.960 . S
C1772 H1759 0.960 . S
C1772 C1771 1.524 . S
C1773 C1770 1.403 . S
C1773 C1774 1.392 . S
C1773 C1777 1.495 . S
C1774 C1773 1.392 . S
C1774 C1775 1.385 . S
C1774 C1776 1.478 . S
C1775 H1769 0.930 . S
C1775 C1771 1.400 . S
C1775 C1774 1.385 . S
C1776 C1774 1.478 . S
C1776 C1778 1.381 . S
C1776 C1782 1.383 . S
C1777 C1773 1.495 . S
C1777 H1783 0.959 . S
C1777 H1784 0.961 . S
C1777 H1785 0.960 . S
C1778 C1776 1.381 . S
C1778 C1779 1.394 . S
C1778 H1786 0.930 . S
C1779 C1778 1.394 . S
C1779 C1780 1.383 . S
C1779 H1787 0.929 . S
C1780 C1779 1.383 . S
C1780 C1781 1.377 . S
C1781 H1765 0.930 . S
C1781 C1780 1.377 . S
C1781 C1782 1.379 . S
C1782 H1766 0.931 . S
C1782 C1776 1.383 . S
C1782 C1781 1.379 . S
H1783 C1777 0.959 . S
H1784 C1777 0.961 . S
H1785 C1777 0.960 . S
H1786 C1778 0.930 . S
H1787 C1779 0.929 . S
H1788 C1796 0.929 . S
H1789 C1798 0.930 . S
H1790 C1800 0.930 . S
H1791 C1803 0.929 . S
H1792 C1806 0.930 . S
H1793 C1808 0.960 . S
H1794 C1808 0.960 . S
H1795 C1808 0.960 . S
C1796 H1788 0.929 . S
C1796 C1797 1.377 . S
C1796 C1798 1.384 . S
C1797 C1796 1.377 . S
C1797 C1803 1.390 . S
C1798 H1789 0.930 . S
C1798 C1796 1.384 . S
C1798 C1799 1.372 . S
C1799 C1798 1.372 . S
C1799 C1800 1.400 . S
C1799 C1804 1.490 . S
C1800 H1790 0.930 . S
C1800 C1799 1.400 . S
C1800 C1803 1.386 . S
H1801 C1817 0.930 . S
H1802 C1818 0.931 . S
C1803 H1791 0.929 . S
C1803 C1797 1.390 . S
C1803 C1800 1.386 . S
C1804 C1799 1.490 . S
C1804 C1806 1.395 . S
C1804 C1807 1.403 . S
H1805 C1811 0.930 . S
C1806 H1792 0.930 . S
C1806 C1804 1.395 . S
C1806 C1809 1.403 . S
C1807 C1804 1.403 . S
C1807 C1808 1.524 . S
C1807 C1811 1.400 . S
C1808 H1793 0.960 . S
C1808 H1794 0.960 . S
C1808 H1795 0.960 . S
C1808 C1807 1.524 . S
C1809 C1806 1.403 . S
C1809 C1810 1.392 . S
C1809 C1813 1.495 . S
C1810 C1809 1.392 . S
C1810 C1811 1.385 . S
C1810 C1812 1.478 . S
C1811 H1805 0.930 . S
C1811 C1807 1.400 . S
C1811 C1810 1.385 . S
C1812 C1810 1.478 . S
C1812 C1814 1.381 . S
C1812 C1818 1.383 . S
C1813 C1809 1.495 . S
C1813 H1819 0.959 . S
C1813 H1820 0.961 . S
C1813 H1821 0.960 . S
C1814 C1812 1.381 . S
C1814 C1815 1.394 . S
C1814 H1822 0.930 . S
C1815 C1814 1.394 . S
C1815 C1816 1.383 . S
C1815 H1823 0.929 . S
C1816 C1815 1.383 . S
C1816 C1817 1.377 . S
C1817 H1801 0.930 . S
C1817 C1816 1.377 . S
C1817 C1818 1.379 . S
C1818 H1802 0.931 . S
C1818 C1812 1.383 . S
C1818 C1817 1.379 . S
H1819 C1813 0.959 . S
H1820 C1813 0.961 . S
H1821 C1813 0.960 . S
H1822 C1814 0.930 . S
H1823 C1815 0.929 . S
H1824 C1832 0.929 . S
H1825 C1834 0.930 . S
H1826 C1836 0.930 . S
H1827 C1839 0.929 . S
H1828 C1842 0.930 . S
H1829 C1844 0.960 . S
H1830 C1844 0.960 . S
H1831 C1844 0.960 . S
C1832 H1824 0.929 . S
C1832 C1833 1.377 . S
C1832 C1834 1.384 . S
C1833 C1832 1.377 . S
C1833 C1839 1.390 . S
C1834 H1825 0.930 . S
C1834 C1832 1.384 . S
C1834 C1835 1.372 . S
C1835 C1834 1.372 . S
C1835 C1836 1.400 . S
C1835 C1840 1.490 . S
C1836 H1826 0.930 . S
C1836 C1835 1.400 . S
C1836 C1839 1.386 . S
H1837 C1853 0.930 . S
H1838 C1854 0.931 . S
C1839 H1827 0.929 . S
C1839 C1833 1.390 . S
C1839 C1836 1.386 . S
C1840 C1835 1.490 . S
C1840 C1842 1.395 . S
C1840 C1843 1.403 . S
H1841 C1847 0.930 . S
C1842 H1828 0.930 . S
C1842 C1840 1.395 . S
C1842 C1845 1.403 . S
C1843 C1840 1.403 . S
C1843 C1844 1.524 . S
C1843 C1847 1.400 . S
C1844 H1829 0.960 . S
C1844 H1830 0.960 . S
C1844 H1831 0.960 . S
C1844 C1843 1.524 . S
C1845 C1842 1.403 . S
C1845 C1846 1.392 . S
C1845 C1849 1.495 . S
C1846 C1845 1.392 . S
C1846 C1847 1.385 . S
C1846 C1848 1.478 . S
C1847 H1841 0.930 . S
C1847 C1843 1.400 . S
C1847 C1846 1.385 . S
C1848 C1846 1.478 . S
C1848 C1850 1.381 . S
C1848 C1854 1.383 . S
C1849 C1845 1.495 . S
C1849 H1855 0.959 . S
C1849 H1856 0.961 . S
C1849 H1857 0.960 . S
C1850 C1848 1.381 . S
C1850 C1851 1.394 . S
C1850 H1858 0.930 . S
C1851 C1850 1.394 . S
C1851 C1852 1.383 . S
C1851 H1859 0.929 . S
C1852 C1851 1.383 . S
C1852 C1853 1.377 . S
C1853 H1837 0.930 . S
C1853 C1852 1.377 . S
C1853 C1854 1.379 . S
C1854 H1838 0.931 . S
C1854 C1848 1.383 . S
C1854 C1853 1.379 . S
H1855 C1849 0.959 . S
H1856 C1849 0.961 . S
H1857 C1849 0.960 . S
H1858 C1850 0.930 . S
H1859 C1851 0.929 . S
H1860 C1868 0.929 . S
H1861 C1870 0.930 . S
H1862 C1872 0.930 . S
H1863 C1875 0.929 . S
H1864 C1878 0.930 . S
H1865 C1880 0.960 . S
H1866 C1880 0.960 . S
H1867 C1880 0.960 . S
C1868 H1860 0.929 . S
C1868 C1869 1.377 . S
C1868 C1870 1.384 . S
C1869 C1868 1.377 . S
C1869 C1875 1.390 . S
C1870 H1861 0.930 . S
C1870 C1868 1.384 . S
C1870 C1871 1.372 . S
C1871 C1870 1.372 . S
C1871 C1872 1.400 . S
C1871 C1876 1.490 . S
C1872 H1862 0.930 . S
C1872 C1871 1.400 . S
C1872 C1875 1.386 . S
H1873 C1889 0.930 . S
H1874 C1890 0.931 . S
C1875 H1863 0.929 . S
C1875 C1869 1.390 . S
C1875 C1872 1.386 . S
C1876 C1871 1.490 . S
C1876 C1878 1.395 . S
C1876 C1879 1.403 . S
H1877 C1883 0.930 . S
C1878 H1864 0.930 . S
C1878 C1876 1.395 . S
C1878 C1881 1.403 . S
C1879 C1876 1.403 . S
C1879 C1880 1.524 . S
C1879 C1883 1.400 . S
C1880 H1865 0.960 . S
C1880 H1866 0.960 . S
C1880 H1867 0.960 . S
C1880 C1879 1.524 . S
C1881 C1878 1.403 . S
C1881 C1882 1.392 . S
C1881 C1885 1.495 . S
C1882 C1881 1.392 . S
C1882 C1883 1.385 . S
C1882 C1884 1.478 . S
C1883 H1877 0.930 . S
C1883 C1879 1.400 . S
C1883 C1882 1.385 . S
C1884 C1882 1.478 . S
C1884 C1886 1.381 . S
C1884 C1890 1.383 . S
C1885 C1881 1.495 . S
C1885 H1891 0.959 . S
C1885 H1892 0.961 . S
C1885 H1893 0.960 . S
C1886 C1884 1.381 . S
C1886 C1887 1.394 . S
C1886 H1894 0.930 . S
C1887 C1886 1.394 . S
C1887 C1888 1.383 . S
C1887 H1895 0.929 . S
C1888 C1887 1.383 . S
C1888 C1889 1.377 . S
C1889 H1873 0.930 . S
C1889 C1888 1.377 . S
C1889 C1890 1.379 . S
C1890 H1874 0.931 . S
C1890 C1884 1.383 . S
C1890 C1889 1.379 . S
H1891 C1885 0.959 . S
H1892 C1885 0.961 . S
H1893 C1885 0.960 . S
H1894 C1886 0.930 . S
H1895 C1887 0.929 . S
H1896 C1904 0.929 . S
H1897 C1906 0.930 1_554 S
H1898 C1908 0.930 . S
H1899 C1911 0.929 . S
H1900 C1914 0.930 . S
H1901 C1916 0.960 . S
H1902 C1916 0.960 . S
H1903 C1916 0.960 . S
C1904 H1896 0.929 . S
C1904 C1905 1.377 . S
C1904 C1906 1.384 . S
C1905 C1904 1.377 . S
C1905 C1911 1.390 . S
C1906 H1897 0.930 1_556 S
C1906 C1904 1.384 . S
C1906 C1907 1.372 . S
C1907 C1906 1.372 . S
C1907 C1908 1.400 . S
C1907 C1912 1.490 . S
C1908 H1898 0.930 . S
C1908 C1907 1.400 . S
C1908 C1911 1.386 . S
H1909 C1925 0.930 . S
H1910 C1926 0.931 . S
C1911 H1899 0.929 . S
C1911 C1905 1.390 . S
C1911 C1908 1.386 . S
C1912 C1907 1.490 . S
C1912 C1914 1.395 . S
C1912 C1915 1.403 . S
H1913 C1919 0.930 . S
C1914 H1900 0.930 . S
C1914 C1912 1.395 . S
C1914 C1917 1.403 . S
C1915 C1912 1.403 . S
C1915 C1916 1.524 . S
C1915 C1919 1.400 . S
C1916 H1901 0.960 . S
C1916 H1902 0.960 . S
C1916 H1903 0.960 . S
C1916 C1915 1.524 . S
C1917 C1914 1.403 . S
C1917 C1918 1.392 . S
C1917 C1921 1.495 1_556 S
C1918 C1917 1.392 . S
C1918 C1919 1.385 . S
C1918 C1920 1.478 . S
C1919 H1913 0.930 . S
C1919 C1915 1.400 . S
C1919 C1918 1.385 . S
C1920 C1918 1.478 . S
C1920 C1922 1.381 1_556 S
C1920 C1926 1.383 . S
C1921 C1917 1.495 1_554 S
C1921 H1927 0.959 . S
C1921 H1928 0.961 1_554 S
C1921 H1929 0.960 . S
C1922 C1920 1.381 1_554 S
C1922 C1923 1.394 . S
C1922 H1930 0.930 . S
C1923 C1922 1.394 . S
C1923 C1924 1.383 1_554 S
C1923 H1931 0.929 . S
C1924 C1923 1.383 1_556 S
C1924 C1925 1.377 . S
C1925 H1909 0.930 . S
C1925 C1924 1.377 . S
C1925 C1926 1.379 . S
C1926 H1910 0.931 . S
C1926 C1920 1.383 . S
C1926 C1925 1.379 . S
H1927 C1921 0.959 . S
H1928 C1921 0.961 1_556 S
H1929 C1921 0.960 . S
H1930 C1922 0.930 . S
H1931 C1923 0.929 . S
H1932 C1940 0.929 . S
H1933 C1942 0.930 . S
H1934 C1944 0.930 . S
H1935 C1947 0.929 . S
H1936 C1950 0.930 . S
H1937 C1952 0.960 . S
H1938 C1952 0.960 . S
H1939 C1952 0.960 . S
C1940 H1932 0.929 . S
C1940 C1941 1.377 . S
C1940 C1942 1.384 . S
C1941 C1940 1.377 . S
C1941 C1947 1.390 . S
C1942 H1933 0.930 . S
C1942 C1940 1.384 . S
C1942 C1943 1.372 . S
C1943 C1942 1.372 . S
C1943 C1944 1.400 . S
C1943 C1948 1.490 . S
C1944 H1934 0.930 . S
C1944 C1943 1.400 . S
C1944 C1947 1.386 . S
H1945 C1961 0.930 . S
H1946 C1962 0.931 . S
C1947 H1935 0.929 . S
C1947 C1941 1.390 . S
C1947 C1944 1.386 . S
C1948 C1943 1.490 . S
C1948 C1950 1.395 . S
C1948 C1951 1.403 . S
H1949 C1955 0.930 . S
C1950 H1936 0.930 . S
C1950 C1948 1.395 . S
C1950 C1953 1.403 . S
C1951 C1948 1.403 . S
C1951 C1952 1.524 . S
C1951 C1955 1.400 . S
C1952 H1937 0.960 . S
C1952 H1938 0.960 . S
C1952 H1939 0.960 . S
C1952 C1951 1.524 . S
C1953 C1950 1.403 . S
C1953 C1954 1.392 . S
C1953 C1957 1.495 . S
C1954 C1953 1.392 . S
C1954 C1955 1.385 . S
C1954 C1956 1.478 . S
C1955 H1949 0.930 . S
C1955 C1951 1.400 . S
C1955 C1954 1.385 . S
C1956 C1954 1.478 . S
C1956 C1958 1.381 . S
C1956 C1962 1.383 . S
C1957 C1953 1.495 . S
C1957 H1963 0.959 . S
C1957 H1964 0.961 . S
C1957 H1965 0.960 . S
C1958 C1956 1.381 . S
C1958 C1959 1.394 . S
C1958 H1966 0.930 . S
C1959 C1958 1.394 . S
C1959 C1960 1.383 . S
C1959 H1967 0.929 . S
C1960 C1959 1.383 . S
C1960 C1961 1.377 . S
C1961 H1945 0.930 . S
C1961 C1960 1.377 . S
C1961 C1962 1.379 . S
C1962 H1946 0.931 . S
C1962 C1956 1.383 . S
C1962 C1961 1.379 . S
H1963 C1957 0.959 . S
H1964 C1957 0.961 . S
H1965 C1957 0.960 . S
H1966 C1958 0.930 . S
H1967 C1959 0.929 . S
H1968 C1976 0.929 . S
H1969 C1978 0.930 . S
H1970 C1980 0.930 . S
H1971 C1983 0.929 . S
H1972 C1986 0.930 . S
H1973 C1988 0.960 . S
H1974 C1988 0.960 . S
H1975 C1988 0.960 . S
C1976 H1968 0.929 . S
C1976 C1977 1.377 . S
C1976 C1978 1.384 . S
C1977 C1976 1.377 . S
C1977 C1983 1.390 . S
C1978 H1969 0.930 . S
C1978 C1976 1.384 . S
C1978 C1979 1.372 . S
C1979 C1978 1.372 . S
C1979 C1980 1.400 . S
C1979 C1984 1.490 . S
C1980 H1970 0.930 . S
C1980 C1979 1.400 . S
C1980 C1983 1.386 . S
H1981 C1997 0.930 1_556 S
H1982 C1998 0.947 . S
C1983 H1971 0.929 . S
C1983 C1977 1.390 . S
C1983 C1980 1.386 . S
C1984 C1979 1.490 . S
C1984 C1986 1.395 . S
C1984 C1987 1.403 . S
H1985 C1991 0.930 . S
C1986 H1972 0.930 . S
C1986 C1984 1.395 . S
C1986 C1989 1.403 . S
C1987 C1984 1.403 . S
C1987 C1988 1.524 . S
C1987 C1991 1.400 . S
C1988 H1973 0.960 . S
C1988 H1974 0.960 . S
C1988 H1975 0.960 . S
C1988 C1987 1.524 . S
C1989 C1986 1.403 . S
C1989 C1990 1.392 . S
C1989 C1993 1.495 . S
C1990 C1989 1.392 . S
C1990 C1991 1.385 . S
C1990 C1992 1.478 . S
C1991 H1985 0.930 . S
C1991 C1987 1.400 . S
C1991 C1990 1.385 . S
C1992 C1990 1.478 . S
C1992 C1994 1.381 . S
C1992 C1998 1.383 . S
C1993 C1989 1.495 . S
C1993 H1999 0.959 . S
C1993 H2000 0.961 . S
C1993 H2001 0.960 . S
C1994 C1992 1.381 . S
C1994 C1995 1.394 . S
C1994 H2002 0.930 . S
C1995 C1994 1.394 . S
C1995 C1996 1.383 . S
C1995 H2003 0.929 . S
C1996 C1995 1.383 . S
C1996 C1997 1.377 . S
C1997 H1981 0.930 1_554 S
C1997 C1996 1.377 . S
C1997 C1998 1.379 . S
C1998 H1982 0.947 . S
C1998 C1992 1.383 . S
C1998 C1997 1.379 . S
H1999 C1993 0.959 . S
H2000 C1993 0.961 . S
H2001 C1993 0.960 . S
H2002 C1994 0.930 . S
H2003 C1995 0.929 . S
H2004 C2012 0.929 . S
H2005 C2014 0.930 . S
H2006 C2016 0.926 1_565 S
H2007 C2019 0.929 . S
H2008 C2022 0.930 . S
H2009 C2024 0.960 . S
H2010 C2024 0.960 . S
H2011 C2024 0.960 . S
C2012 H2004 0.929 . S
C2012 C2013 1.377 . S
C2012 C2014 1.384 1_545 S
C2013 C2012 1.377 . S
C2013 C2019 1.390 . S
C2014 H2005 0.930 . S
C2014 C2012 1.384 1_565 S
C2014 C2015 1.372 . S
C2015 C2014 1.372 . S
C2015 C2016 1.388 1_565 S
C2015 C2020 1.490 . S
C2016 H2006 0.926 1_545 S
C2016 C2015 1.388 1_545 S
C2016 C2019 1.401 . S
H2017 C2033 0.930 . S
H2018 C2034 0.931 1_556 S
C2019 H2007 0.929 . S
C2019 C2013 1.390 . S
C2019 C2016 1.401 . S
C2020 C2015 1.490 . S
C2020 C2022 1.395 . S
C2020 C2023 1.403 . S
H2021 C2027 0.930 . S
C2022 H2008 0.930 . S
C2022 C2020 1.395 . S
C2022 C2025 1.403 . S
C2023 C2020 1.403 . S
C2023 C2024 1.524 1_565 S
C2023 C2027 1.400 . S
C2024 H2009 0.960 . S
C2024 H2010 0.960 . S
C2024 H2011 0.960 . S
C2024 C2023 1.524 1_545 S
C2025 C2022 1.403 . S
C2025 C2026 1.392 . S
C2025 C2029 1.495 . S
C2026 C2025 1.392 . S
C2026 C2027 1.385 . S
C2026 C2028 1.478 . S
C2027 H2021 0.930 . S
C2027 C2023 1.400 . S
C2027 C2026 1.385 . S
C2028 C2026 1.478 . S
C2028 C2030 1.381 . S
C2028 C2034 1.383 . S
C2029 C2025 1.495 . S
C2029 H2035 0.959 . S
C2029 H2036 0.961 . S
C2029 H2037 0.960 . S
C2030 C2028 1.381 . S
C2030 C2031 1.394 . S
C2030 H2038 0.930 . S
C2031 C2030 1.394 . S
C2031 C2032 1.383 . S
C2031 H2039 0.929 . S
C2032 C2031 1.383 . S
C2032 C2033 1.377 1_554 S
C2033 H2017 0.930 . S
C2033 C2032 1.377 1_556 S
C2033 C2034 1.379 1_556 S
C2034 H2018 0.931 1_554 S
C2034 C2028 1.383 . S
C2034 C2033 1.379 1_554 S
H2035 C2029 0.959 . S
H2036 C2029 0.961 . S
H2037 C2029 0.960 . S
H2038 C2030 0.930 . S
H2039 C2031 0.929 . S
C340 C152 1.503 . S
C321 C50 1.524 . S
C376 C165 1.455 . S
C357 C61 1.471 . S
C393 C67 1.644 . S
C412 C185 1.519 . S
C448 C199 1.316 . S
C429 C41 1.432 . S
C484 C211 1.500 . S
C465 C95 1.516 . S
C520 C225 1.421 . S
C501 C113 1.430 . S
C537 C106 1.478 . S
C556 C235 1.456 . S
C592 C250 1.510 . S
C573 C86 1.546 . S
C609 C104 1.510 . S
C628 C264 1.499 . S
C664 C283 1.373 . S
C645 C88 1.443 . S
C681 C94 1.509 . S
C700 C263 1.504 . S
C736 C281 1.407 . S
C717 C112 1.416 . S
C753 C70 1.628 . S
C772 C297 1.551 . S
C789 C40 1.485 . S
C808 C291 1.467 . S
C825 C49 1.524 . S
C844 C295 1.513 . S
C861 C59 1.545 . S
C880 C292 1.504 . S
C897 C34 1.509 . S
C916 C194 1.463 . S
C933 C133 1.487 . S
C952 C193 1.479 . S
C988 C157 1.351 . S
C969 C139 1.442 . S
C1024 C171 1.544 . S
C1005 C77 1.641 . S
C1041 C43 1.524 . S
C1060 C208 1.489 . S
C1096 C253 1.506 . S
C1077 C103 1.522 . S
C1132 C207 1.493 . S
C1113 C85 1.500 . S
C1168 C239 1.401 . S
C1149 C115 1.409 . S
C1204 C236 1.492 . S
C1185 C131 1.524 . S
C1221 C142 1.471 . S
C1240 C249 1.462 . S
C1257 C76 1.643 . S
C1276 C213 1.500 . S
C1312 C227 1.328 . S
C1293 C122 1.432 . S
C1329 C32 1.515 . S
C1348 C183 1.507 . S
C1384 C197 1.431 . S
C1365 C5 1.431 . S
C1420 C151 1.471 . S
C1401 C16 1.478 . S
C1456 C166 1.507 . S
C1437 C23 1.546 . S
C1473 C14 1.511 . S
C1492 C278 1.491 . S
C1509 C25 1.443 . S
C1528 C269 1.342 . S
C1545 C31 1.509 . S
C1564 C277 1.496 . S
C1581 C4 1.416 . S
C1600 C267 1.413 . S
C1636 C311 1.502 . S
C1617 C79 1.628 . S
C1672 C305 1.464 . S
C1653 C121 1.485 . S
C1708 C309 1.508 . S
C1689 C130 1.524 . S
C1725 C140 1.546 . S
C1744 C306 1.490 . S
C1761 C97 1.508 . S
C1780 C222 1.497 . S
C1816 C221 1.467 . S
C1797 C52 1.487 . S
C1852 C241 1.328 . S
C1833 C58 1.443 . S
C1888 C255 1.565 . S
C1869 C68 1.642 . S
C1905 C124 1.524 . S
C1924 C180 1.495 . S
C1960 C169 1.521 . S
C1941 C13 1.521 . S
C1977 C22 1.500 . S
C1996 C179 1.496 . S
C2032 C155 1.398 . S
C2013 C7 1.409 . S
