# Generated by pormake.
# Topology zzz, (3,6)-cn, num edge types: 1
# Building blocks:
#     Node 0, Type 0, BuildingBlock: BETDAH_clean_linker_0, # of connection points: 3
#     Node 1, Type 0, BuildingBlock: BETDAH_clean_linker_0, # of connection points: 3
#     Node 2, Type 0, BuildingBlock: BETDAH_clean_linker_0, # of connection points: 3
#     Node 3, Type 0, BuildingBlock: BETDAH_clean_linker_0, # of connection points: 3
#     Node 4, Type 0, BuildingBlock: BETDAH_clean_linker_0, # of connection points: 3
#     Node 5, Type 0, BuildingBlock: BETDAH_clean_linker_0, # of connection points: 3
#     Node 6, Type 0, BuildingBlock: BETDAH_clean_linker_0, # of connection points: 3
#     Node 7, Type 0, BuildingBlock: BETDAH_clean_linker_0, # of connection points: 3
#     Node 8, Type 1, BuildingBlock: HISSIN_clean_sbu_0, # of connection points: 6
#     Node 9, Type 1, BuildingBlock: HISSIN_clean_sbu_0, # of connection points: 6
#     Node 10, Type 1, BuildingBlock: HISSIN_clean_sbu_0, # of connection points: 6
#     Node 11, Type 1, BuildingBlock: HISSIN_clean_sbu_0, # of connection points: 6
#     Edge 12, Type (0, 1), BuildingBlock: UVAHIK_clean_linker_0, # of connection points: 2
#     Edge 13, Type (0, 1), BuildingBlock: UVAHIK_clean_linker_0, # of connection points: 2
#     Edge 14, Type (0, 1), BuildingBlock: UVAHIK_clean_linker_0, # of connection points: 2
#     Edge 15, Type (0, 1), BuildingBlock: UVAHIK_clean_linker_0, # of connection points: 2
#     Edge 16, Type (0, 1), BuildingBlock: UVAHIK_clean_linker_0, # of connection points: 2
#     Edge 17, Type (0, 1), BuildingBlock: UVAHIK_clean_linker_0, # of connection points: 2
#     Edge 18, Type (0, 1), BuildingBlock: UVAHIK_clean_linker_0, # of connection points: 2
#     Edge 19, Type (0, 1), BuildingBlock: UVAHIK_clean_linker_0, # of connection points: 2
#     Edge 20, Type (0, 1), BuildingBlock: UVAHIK_clean_linker_0, # of connection points: 2
#     Edge 21, Type (0, 1), BuildingBlock: UVAHIK_clean_linker_0, # of connection points: 2
#     Edge 22, Type (0, 1), BuildingBlock: UVAHIK_clean_linker_0, # of connection points: 2
#     Edge 23, Type (0, 1), BuildingBlock: UVAHIK_clean_linker_0, # of connection points: 2
#     Edge 24, Type (0, 1), BuildingBlock: UVAHIK_clean_linker_0, # of connection points: 2
#     Edge 25, Type (0, 1), BuildingBlock: UVAHIK_clean_linker_0, # of connection points: 2
#     Edge 26, Type (0, 1), BuildingBlock: UVAHIK_clean_linker_0, # of connection points: 2
#     Edge 27, Type (0, 1), BuildingBlock: UVAHIK_clean_linker_0, # of connection points: 2
#     Edge 28, Type (0, 1), BuildingBlock: UVAHIK_clean_linker_0, # of connection points: 2
#     Edge 29, Type (0, 1), BuildingBlock: UVAHIK_clean_linker_0, # of connection points: 2
#     Edge 30, Type (0, 1), BuildingBlock: UVAHIK_clean_linker_0, # of connection points: 2
#     Edge 31, Type (0, 1), BuildingBlock: UVAHIK_clean_linker_0, # of connection points: 2
#     Edge 32, Type (0, 1), BuildingBlock: UVAHIK_clean_linker_0, # of connection points: 2
#     Edge 33, Type (0, 1), BuildingBlock: UVAHIK_clean_linker_0, # of connection points: 2
#     Edge 34, Type (0, 1), BuildingBlock: UVAHIK_clean_linker_0, # of connection points: 2
#     Edge 35, Type (0, 1), BuildingBlock: UVAHIK_clean_linker_0, # of connection points: 2
# Relax obj value: 0.220
# Max RMSD: 0.170
# Mean RMSD: 0.092
data_MOF--net-zzz--node1-HISSIN_clean_sbu_0--node2-BETDAH_clean_linker_0--edge1-UVAHIK_clean_linker_0
_symmetry_space_group_name_H-M    P1
_symmetry_Int_Tables_number       1
_symmetry_cell_setting            triclinic
loop_
_symmetry_equiv_pos_as_xyz
'x, y, z'
_cell_length_a     63.866384
_cell_length_b     64.177185
_cell_length_c     21.238903
_cell_angle_alpha  90.219824
_cell_angle_beta   90.495431
_cell_angle_gamma 90.011716
loop_
_atom_site_label
_atom_site_type_symbol
_atom_site_fract_x
_atom_site_fract_y
_atom_site_fract_z
_atom_type_partial_charge
H0 H 0.81478 0.55153 0.23683 0.0
H1 H 0.75139 0.54611 0.17135 0.0
H2 H 0.76429 0.56028 0.36692 0.0
C3 C 0.79813 0.55264 0.24609 0.0
C4 C 0.79141 0.55665 0.3075 0.0
C5 C 0.78378 0.5487 0.19729 0.0
C6 C 0.7623 0.54934 0.20942 0.0
C7 C 0.75505 0.554 0.27034 0.0
C8 C 0.76974 0.55719 0.31962 0.0
N9 N 0.73322 0.55538 0.2831 0.0
C10 C 0.71766 0.55399 0.23662 0.0
H11 H 0.98964 0.80212 0.2485 0.0
H12 H 1.00126 0.74022 0.18275 0.0
H13 H 1.01064 0.75542 0.37955 0.0
C14 C 0.99361 0.78607 0.2591 0.0
C15 C 0.99948 0.78069 0.32068 0.0
C16 C 0.99427 0.77158 0.20976 0.0
C17 C 1.00055 0.75113 0.2217 0.0
C18 C 1.00621 0.74498 0.28306 0.0
C19 C 1.00594 0.75995 0.33243 0.0
N20 N 1.01249 0.72404 0.29558 0.0
C21 C 1.01321 0.70842 0.24935 0.0
H22 H 0.74016 0.98436 0.21892 0.0
H23 H 0.8023 0.99471 0.15251 0.0
H24 H 0.78788 1.00596 0.34786 0.0
C25 C 0.75638 0.98822 0.22901 0.0
C26 C 0.7622 0.99452 0.29003 0.0
C27 C 0.77073 0.98849 0.17953 0.0
C28 C 0.79144 0.99451 0.19127 0.0
C29 C 0.79788 1.00068 0.25204 0.0
C30 C 0.7831 1.00086 0.30121 0.0
N31 N 0.81888 1.00723 0.26423 0.0
C32 C 0.83438 1.00802 0.21817 0.0
H33 H 0.50955 0.74435 0.20111 0.0
H34 H 0.51902 0.80638 0.13407 0.0
H35 H 0.53785 0.79025 0.32356 0.0
C36 C 0.51494 0.76013 0.20999 0.0
C37 C 0.52352 0.76543 0.26896 0.0
C38 C 0.51329 0.77485 0.16183 0.0
C39 C 0.52037 0.79521 0.17195 0.0
C40 C 0.52947 0.80088 0.23022 0.0
C41 C 0.53104 0.78588 0.2785 0.0
N42 N 0.53712 0.82144 0.24145 0.0
C43 C 0.53661 0.83728 0.19659 0.0
H44 H 0.24962 0.50461 0.07038 0.0
H45 H 0.31327 0.5107 0.1327 0.0
H46 H 0.29942 0.49619 0.93776 0.0
C47 C 0.26622 0.50373 0.06021 0.0
C48 C 0.27262 0.49961 0.99855 0.0
C49 C 0.28077 0.50785 0.1083 0.0
C50 C 0.30218 0.50747 0.09507 0.0
C51 C 0.30913 0.50291 0.03371 0.0
C52 C 0.29421 0.49938 0.98525 0.0
N53 N 0.3309 0.50185 0.01976 0.0
C54 C 0.3467 0.50381 0.0653 0.0
H55 H 0.06046 0.23908 0.08561 0.0
H56 H 0.05223 0.30162 0.15047 0.0
H57 H 0.05395 0.28879 0.95103 0.0
C58 C 0.05908 0.25555 0.07498 0.0
C59 C 0.05793 0.26205 0.01206 0.0
C60 C 0.05676 0.26978 0.12445 0.0
C61 C 0.05413 0.29094 0.11155 0.0
C62 C 0.05346 0.29812 0.04917 0.0
C63 C 0.05499 0.28349 0.99933 0.0
N64 N 0.05079 0.31976 0.03574 0.0
C65 C 0.04956 0.33537 0.08192 0.0
H66 H 0.3122 0.03336 0.07703 0.0
H67 H 0.24937 0.03242 0.14613 0.0
H68 H 0.26218 0.05753 0.96199 0.0
C69 C 0.29576 0.03711 0.07059 0.0
C70 C 0.28908 0.04626 0.01416 0.0
C71 C 0.28152 0.032 0.11791 0.0
C72 C 0.26021 0.03632 0.10915 0.0
C73 C 0.25308 0.0458 0.05319 0.0
C74 C 0.26758 0.05039 0.00532 0.0
N75 N 0.23157 0.05097 0.04404 0.0
C76 C 0.21631 0.04904 0.09042 0.0
H77 H 0.54228 0.3109 0.05588 0.0
H78 H 0.52704 0.25161 0.13645 0.0
H79 H 0.49948 0.27007 0.95897 0.0
C80 C 0.53435 0.29598 0.0527 0.0
C81 C 0.52109 0.29206 0.00118 0.0
C82 C 0.53639 0.2816 0.10195 0.0
C83 C 0.5254 0.26269 0.09843 0.0
C84 C 0.51219 0.25829 0.04657 0.0
C85 C 0.50988 0.27321 0.99846 0.0
N86 N 0.50085 0.23921 0.04217 0.0
C87 C 0.50216 0.22342 0.08698 0.0
Eu88 Eu 1.00784 0.03289 0.60576 0.0
Eu89 Eu 0.04319 0.0157 0.7038 0.0
C90 C 0.03452 0.06451 0.69564 0.0
C91 C 0.97802 0.07375 0.52299 0.0
C92 C 0.98029 0.08787 0.57342 0.0
C93 C 0.98053 0.10258 0.44985 0.0
C94 C 0.98364 0.10897 0.56208 0.0
C95 C 0.9774 0.08136 0.46121 0.0
C96 C 0.98455 0.11634 0.5002 0.0
C97 C 0.98016 0.05123 0.53442 0.0
O98 O 1.01382 0.02156 0.75981 0.0
O99 O 0.98982 0.01628 0.68162 0.0
C100 C 0.99458 0.01746 0.74169 0.0
O101 O 1.01235 0.99944 0.57481 0.0
O102 O 0.05757 0.01565 0.7975 0.0
O103 O 0.06822 0.99382 0.727 0.0
O104 O 0.02591 0.98709 0.66775 0.0
C105 C 0.01789 0.98383 0.61128 0.0
O106 O 0.03885 0.04119 0.56095 0.0
O107 O 0.06051 0.0183 0.61246 0.0
O108 O 0.04932 0.05038 0.70111 0.0
O109 O 0.99719 0.0428 0.51238 0.0
O110 O 0.9763 0.04509 0.59158 0.0
O111 O 1.01609 0.05964 0.67165 0.0
C112 C 0.06075 0.98064 0.82573 0.0
C113 C 0.0393 0.97612 0.82776 0.0
C114 C 0.06803 0.94854 0.88167 0.0
C115 C 0.03224 0.95793 0.85542 0.0
C116 C 0.07515 0.96688 0.85322 0.0
C117 C 0.04647 0.94379 0.88223 0.0
C118 C 0.06741 0.99818 0.78689 0.0
C119 C 0.05673 0.03113 0.56576 0.0
H120 H 0.98077 0.08247 0.62163 0.0
H121 H 0.98131 0.10796 0.40164 0.0
H122 H 0.98656 0.11935 0.60153 0.0
H123 H 0.97583 0.07073 0.42168 0.0
H124 H 0.02795 0.98626 0.80541 0.0
H125 H 0.07936 0.93798 0.90232 0.0
H126 H 1.01562 0.95461 0.85334 0.0
H127 H 0.0918 0.96999 0.85109 0.0
Eu128 Eu 0.53227 0.04651 0.68713 0.0
Eu129 Eu 0.51381 1.0119 0.58886 0.0
C130 C 0.52684 0.99943 0.72775 0.0
C131 C 0.57261 0.06885 0.79157 0.0
C132 C 0.57542 0.05887 0.8498 0.0
C133 C 0.60972 0.06416 0.77033 0.0
C134 C 0.59484 0.0505 0.86623 0.0
C135 C 0.59022 0.07237 0.7535 0.0
C136 C 0.61188 0.0523 0.82528 0.0
C137 C 0.5512 0.07142 0.76558 0.0
O138 O 0.48476 0.02777 0.62633 0.0
O139 O 0.49836 0.0437 0.71491 0.0
C140 C 0.48228 0.03745 0.68057 0.0
O141 O 0.51615 0.06473 0.61039 0.0
O142 O 0.50775 0.97919 0.5655 0.0
O143 O 0.49914 1.00342 0.4996 0.0
O144 O 0.5213 0.04077 0.53243 0.0
C145 C 0.51748 0.06001 0.55038 0.0
O146 O 0.55905 0.0391 0.62222 0.0
O147 O 0.54895 1.00698 0.58579 0.0
O148 O 0.51147 0.99868 0.68663 0.0
O149 O 0.54983 0.07512 0.70526 0.0
O150 O 0.53763 0.05742 0.78328 0.0
O151 O 0.54047 0.01467 0.72552 0.0
C152 C 0.47609 0.97512 0.50922 0.0
C153 C 0.45881 0.98738 0.52561 0.0
C154 C 0.45248 0.94729 0.47736 0.0
C155 C 0.43854 0.98 0.51584 0.0
C156 C 0.47286 0.95483 0.48664 0.0
C157 C 0.43504 0.96004 0.49006 0.0
C158 C 0.49733 0.9838 0.51439 0.0
C159 C 0.5634 0.02136 0.59429 0.0
H160 H 0.56224 0.05612 0.88047 0.0
H161 H 0.62271 0.06585 0.73827 0.0
H162 H 0.59631 0.04175 0.90956 0.0
H163 H 0.58868 0.08014 0.70852 0.0
H164 H 0.46096 1.00304 0.54368 0.0
H165 H 0.45043 0.93172 0.45846 0.0
H166 H 0.42569 0.99053 0.52525 0.0
H167 H 0.48607 0.94503 0.47467 0.0
Eu168 Eu 0.51217 0.54002 0.70061 0.0
Eu169 Eu 0.54951 0.52412 0.60787 0.0
C170 C 0.55953 0.53862 0.74743 0.0
C171 C 0.47254 0.57541 0.77633 0.0
C172 C 0.4806 0.59223 0.74231 0.0
C173 C 0.44836 0.59886 0.8282 0.0
C174 C 0.4732 0.61237 0.75296 0.0
C175 C 0.45599 0.5787 0.81796 0.0
C176 C 0.45741 0.61605 0.79751 0.0
C177 C 0.48267 0.55494 0.77237 0.0
O178 O 0.54239 0.49655 0.66955 0.0
O179 O 0.50946 0.50487 0.70417 0.0
C180 C 0.52469 0.49132 0.69636 0.0
O181 O 0.49928 0.54023 0.60143 0.0
O182 O 0.58141 0.51264 0.59797 0.0
O183 O 0.56217 0.51726 0.51477 0.0
O184 O 0.519 0.51359 0.56293 0.0
C185 C 0.50224 0.52542 0.55969 0.0
O186 O 0.52706 0.56963 0.66402 0.0
O187 O 0.54263 0.55675 0.57499 0.0
O188 O 0.5646 0.54179 0.68851 0.0
O189 O 0.47893 0.54413 0.7214 0.0
O190 O 0.50246 0.55482 0.78791 0.0
O191 O 0.54045 0.53277 0.76136 0.0
C192 C 0.58421 0.48791 0.51583 0.0
C193 C 0.58317 0.47087 0.55713 0.0
C194 C 0.59006 0.46402 0.42895 0.0
C195 C 0.58527 0.45056 0.53432 0.0
C196 C 0.58814 0.48435 0.45188 0.0
C197 C 0.58819 0.44693 0.46977 0.0
C198 C 0.57931 0.50914 0.53772 0.0
C199 C 0.53564 0.57247 0.60858 0.0
H200 H 0.49333 0.58991 0.7097 0.0
H201 H 0.43592 0.60106 0.86188 0.0
H202 H 0.48078 0.62512 0.72895 0.0
H203 H 0.44949 0.56583 0.84425 0.0
H204 H 0.57996 0.47316 0.60667 0.0
H205 H 0.59242 0.46161 0.379 0.0
H206 H 0.58351 0.43767 0.56664 0.0
H207 H 0.58896 0.49727 0.41928 0.0
Eu208 Eu 0.04025 0.54394 0.60858 0.0
Eu209 Eu 0.02232 0.50713 0.69947 0.0
C210 C 0.07186 0.51693 0.6963 0.0
C211 C 0.07947 0.57487 0.51935 0.0
C212 C 0.09363 0.55857 0.53019 0.0
C213 C 0.10751 0.59536 0.47428 0.0
C214 C 0.11451 0.56056 0.51322 0.0
C215 C 0.08651 0.59338 0.49192 0.0
C216 C 0.12168 0.57889 0.48458 0.0
C217 C 0.05759 0.57238 0.53817 0.0
O218 O 1.0137 0.5373 0.74881 0.0
O219 O 0.03957 0.55737 0.70703 0.0
C220 C 0.02539 0.55415 0.7503 0.0
O221 O 1.00528 0.5494 0.60691 0.0
O222 O 1.01503 0.49365 0.79093 0.0
O223 O 1.00782 0.4765 0.70558 0.0
O224 O 0.99523 0.51661 0.63672 0.0
C225 C 0.99081 0.53497 0.61286 0.0
O226 O 0.03408 0.51589 0.54583 0.0
O227 O 0.03905 0.49084 0.62012 0.0
O228 O 0.05599 0.51086 0.73079 0.0
O229 O 0.04811 0.55595 0.51569 0.0
O230 O 0.05417 0.57481 0.59802 0.0
O231 O 0.06898 0.52643 0.64216 0.0
C232 C 0.98317 0.47563 0.78552 0.0
C233 C 0.96879 0.49131 0.76998 0.0
C234 C 0.95551 0.45628 0.83649 0.0
C235 C 0.94796 0.48961 0.7879 0.0
C236 C 0.97644 0.45797 0.81815 0.0
C237 C 0.9411 0.4722 0.82196 0.0
C238 C 1.00497 0.47789 0.76611 0.0
C239 C 0.0378 0.49639 0.56084 0.0
H240 H 0.08844 0.5441 0.55087 0.0
H241 H 0.11262 0.60964 0.45219 0.0
H242 H 0.12487 0.5474 0.52042 0.0
H243 H 0.07578 0.60616 0.48364 0.0
H244 H 0.97377 0.50507 0.74477 0.0
H245 H 0.95064 0.44267 0.8626 0.0
H246 H 0.93743 0.50237 0.77715 0.0
H247 H 0.98738 0.44566 0.82994 0.0
C248 C 0.18264 0.06067 0.13518 0.0
C249 C 0.20017 0.04754 0.1378 0.0
C250 C 0.16698 0.05928 0.18084 0.0
C251 C 0.14589 0.0236 0.30306 0.0
H252 H 0.11878 0.0736 0.36509 0.0
C253 C 0.09173 0.02225 0.51946 0.0
C254 C 0.07314 0.03401 0.51702 0.0
C255 C 0.10696 0.02429 0.47291 0.0
C256 C 0.12602 0.05946 0.34781 0.0
H257 H 0.21528 0.02271 0.18957 0.0
H258 H 0.18824 0.02044 0.27005 0.0
H259 H 0.14584 0.07635 0.28509 0.0
H260 H 0.05625 0.05742 0.46349 0.0
H261 H 0.08289 0.06098 0.38217 0.0
H262 H 0.1262 1.00674 0.3661 0.0
C263 C 0.18626 0.03163 0.23243 0.0
C264 C 0.14156 0.06102 0.30179 0.0
C265 C 0.20188 0.03301 0.18664 0.0
C266 C 0.07035 0.0481 0.46702 0.0
C267 C 0.08568 0.05022 0.42049 0.0
C268 C 0.13042 0.02206 0.34917 0.0
C269 C 0.16854 0.04472 0.23019 0.0
C270 C 0.15179 0.04311 0.27887 0.0
C271 C 0.10413 0.03821 0.42257 0.0
C272 C 0.12033 0.03996 0.37241 0.0
H273 H 0.18101 0.07196 0.09767 0.0
H274 H 0.15349 0.06942 0.17686 0.0
H275 H 0.15303 1.00941 0.28582 0.0
H276 H 0.09452 1.01127 0.5572 0.0
H277 H 0.12108 0.01502 0.4767 0.0
C278 C 0.50251 0.2118 0.19777 0.0
C279 C 0.50357 0.20703 0.13345 0.0
C280 C 0.50383 0.19593 0.24277 0.0
C281 C 0.52181 0.14138 0.26451 0.0
H282 H 0.48594 0.14298 0.41078 0.0
C283 C 0.51648 0.0721 0.43777 0.0
C284 C 0.51527 0.07673 0.50243 0.0
C285 C 0.51481 0.08792 0.39272 0.0
C286 C 0.49626 0.14238 0.37062 0.0
H287 H 0.50681 0.18228 0.06493 0.0
H288 H 0.50899 0.15442 0.14327 0.0
H289 H 0.48367 0.17068 0.33277 0.0
H290 H 0.51128 0.10179 0.57015 0.0
H291 H 0.5086 0.12932 0.49184 0.0
H292 H 0.53446 0.11314 0.3024 0.0
C293 C 0.50737 0.17036 0.1594 0.0
C294 C 0.49495 0.1583 0.3258 0.0
C295 C 0.50601 0.18625 0.11449 0.0
C296 C 0.51222 0.09759 0.52082 0.0
C297 C 0.51056 0.11341 0.47578 0.0
C298 C 0.52314 0.12547 0.30936 0.0
C299 C 0.50628 0.17497 0.2242 0.0
C300 C 0.5077 0.15802 0.2721 0.0
C301 C 0.51189 0.10881 0.41108 0.0
C302 C 0.51038 0.12574 0.36307 0.0
H303 H 0.50071 0.22781 0.21326 0.0
H304 H 0.50321 0.20012 0.29216 0.0
H305 H 0.53212 0.14079 0.22433 0.0
H306 H 0.51874 0.05622 0.42178 0.0
H307 H 0.5156 0.08372 0.34338 0.0
C308 C 0.38012 0.4924 0.114 0.0
C309 C 0.3628 0.50581 0.11351 0.0
C310 C 0.39558 0.49424 0.16101 0.0
C311 C 0.41681 0.53135 0.2807 0.0
H312 H 0.44158 0.48182 0.35407 0.0
C313 C 0.4688 0.53538 0.50438 0.0
C314 C 0.48661 0.52253 0.50786 0.0
C315 C 0.45414 0.53306 0.45548 0.0
C316 C 0.43503 0.49583 0.33361 0.0
H317 H 0.34776 0.53153 0.16108 0.0
H318 H 0.37455 0.53471 0.24368 0.0
H319 H 0.41526 0.47837 0.27067 0.0
H320 H 0.50283 0.497 0.46223 0.0
H321 H 0.47729 0.49302 0.37656 0.0
H322 H 0.43649 0.54882 0.34364 0.0
C323 C 0.37651 0.52294 0.20753 0.0
C324 C 0.4199 0.49386 0.28567 0.0
C325 C 0.36108 0.52108 0.16051 0.0
C326 C 0.48929 0.50716 0.46119 0.0
C327 C 0.47457 0.50481 0.41217 0.0
C328 C 0.43191 0.53332 0.32857 0.0
C329 C 0.39401 0.50956 0.20849 0.0
C330 C 0.41048 0.51159 0.25876 0.0
C331 C 0.45683 0.51781 0.40848 0.0
C332 C 0.44116 0.5156 0.35605 0.0
H333 H 0.38172 0.48052 0.078 0.0
H334 H 0.40891 0.48382 0.15965 0.0
H335 H 0.41026 0.54539 0.26038 0.0
H336 H 0.4661 0.54734 0.53951 0.0
H337 H 0.44054 0.54313 0.45497 0.0
C338 C 0.0494 0.37286 0.11117 0.0
C339 C 0.04842 0.35186 0.12911 0.0
C340 C 0.04851 0.3888 0.15661 0.0
C341 C 0.0569 0.39881 0.32757 0.0
H342 H 0.02399 0.44855 0.29719 0.0
C343 C 0.04113 0.45898 0.52584 0.0
C344 C 0.03996 0.48025 0.51043 0.0
C345 C 0.04252 0.4437 0.47869 0.0
C346 C 0.03352 0.43493 0.3063 0.0
H347 H 0.04544 0.33103 0.20847 0.0
H348 H 0.04397 0.35865 0.28759 0.0
H349 H 0.02571 0.42147 0.21648 0.0
H350 H 0.03962 0.50203 0.43265 0.0
H351 H 0.04251 0.47548 0.35058 0.0
H352 H 0.06491 0.41224 0.41697 0.0
C353 C 0.04567 0.36294 0.23863 0.0
C354 C 0.03447 0.41933 0.25986 0.0
C355 C 0.04644 0.34705 0.19317 0.0
C356 C 0.04041 0.48582 0.44642 0.0
C357 C 0.04192 0.47052 0.39919 0.0
C358 C 0.05606 0.41444 0.37381 0.0
C359 C 0.04674 0.38406 0.2211 0.0
C360 C 0.04606 0.40097 0.26997 0.0
C361 C 0.04293 0.44918 0.41454 0.0
C362 C 0.04425 0.43272 0.36418 0.0
H363 H 0.05095 0.37696 0.06199 0.0
H364 H 0.04956 0.40483 0.14127 0.0
H365 H 0.06629 0.38509 0.33673 0.0
H366 H 0.04068 0.45402 0.57451 0.0
H367 H 0.04289 0.4275 0.49273 0.0
C368 C 0.87161 1.00678 0.18675 0.0
C369 C 0.85042 1.00874 0.17015 0.0
C370 C 0.88712 1.00737 0.14041 0.0
C371 C 0.89537 1.00015 0.9688 0.0
H372 H 0.94662 0.03095 1.00038 0.0
C373 C 0.95664 0.0148 0.77286 0.0
C374 C 0.97797 0.01503 0.78999 0.0
C375 C 0.94106 1.01355 0.81889 0.0
C376 C 0.93257 0.022 0.99091 0.0
H377 H 0.82864 1.01305 0.09268 0.0
H378 H 0.85563 1.01399 0.01154 0.0
H379 H 0.91975 0.02974 0.08096 0.0
H380 H 0.99955 1.01349 0.86924 0.0
H381 H 0.97255 1.01086 0.949 0.0
H382 H 0.90822 0.99226 0.87897 0.0
C383 C 0.86038 1.01179 0.06014 0.0
C384 C 0.91709 0.02135 0.03727 0.0
C385 C 0.84491 1.01132 0.10658 0.0
C386 C 0.9833 1.01355 0.85423 0.0
C387 C 0.96775 1.01218 0.90017 0.0
C388 C 0.9109 1.0007 0.92252 0.0
C389 C 0.88172 1.00983 0.07638 0.0
C390 C 0.89826 1.01044 0.02689 0.0
C391 C 0.94636 1.01238 0.88334 0.0
C392 C 0.92975 1.01165 0.93282 0.0
H393 H 0.8762 1.00474 0.23558 0.0
H394 H 0.90334 1.0056 0.15468 0.0
H395 H 0.88121 0.99136 0.95941 0.0
H396 H 0.95193 0.016 0.7239 0.0
H397 H 0.92482 1.014 0.80388 0.0
C398 C 0.55202 0.86874 0.14866 0.0
C399 C 0.53613 0.85369 0.14997 0.0
C400 C 0.55161 0.88459 0.10339 0.0
C401 C 0.5287 0.89792 0.94742 0.0
H402 H 0.54355 0.95456 0.99369 0.0
C403 C 0.5136 0.96695 0.77954 0.0
C404 C 0.52861 0.98296 0.77666 0.0
C405 C 0.51511 0.95133 0.82511 0.0
C406 C 0.53962 0.93879 0.97968 0.0
H407 H 0.5073 0.84322 0.10614 0.0
H408 H 0.50642 0.87088 0.02707 0.0
H409 H 0.54502 0.92712 0.07287 0.0
H410 H 0.55702 0.99502 0.81998 0.0
H411 H 0.55979 0.9676 0.89916 0.0
H412 H 0.52332 0.9095 0.85433 0.0
C413 C 0.51937 0.87043 0.06026 0.0
C414 C 0.54044 0.92303 0.02519 0.0
C415 C 0.51979 0.85465 0.10565 0.0
C416 C 0.54516 0.98296 0.82081 0.0
C417 C 0.54668 0.96728 0.8665 0.0
C418 C 0.52792 0.91365 0.90195 0.0
C419 C 0.53529 0.88562 0.05842 0.0
C420 C 0.53486 0.90239 0.00977 0.0
C421 C 0.5317 0.9512 0.86916 0.0
C422 C 0.53322 0.93434 0.91747 0.0
H423 H 0.56481 0.86822 0.1825 0.0
H424 H 0.56424 0.89585 0.10304 0.0
H425 H 0.52468 0.88216 0.93344 0.0
H426 H 0.50057 0.96646 0.7466 0.0
H427 H 0.50306 0.93947 0.82625 0.0
C428 C 0.68154 0.54551 0.202 0.0
C429 C 0.70167 0.55269 0.18785 0.0
C430 C 0.66608 0.54425 0.15483 0.0
C431 C 0.6525 0.56401 0.99464 0.0
H432 H 0.61371 0.51754 0.9929 0.0
C433 C 0.59602 0.54767 0.78445 0.0
C434 C 0.57558 0.54102 0.79827 0.0
C435 C 0.61124 0.54942 0.83215 0.0
C436 C 0.62425 0.53076 0.99302 0.0
H437 H 0.72166 0.56422 0.11408 0.0
H438 H 0.69489 0.56173 0.03125 0.0
H439 H 0.64046 0.51983 0.07517 0.0
H440 H 0.55518 0.53113 0.87366 0.0
H441 H 0.58164 0.53428 0.95663 0.0
H442 H 0.63635 0.57484 0.91216 0.0
C443 C 0.69078 0.55734 0.07873 0.0
C444 C 0.63963 0.53209 0.04036 0.0
C445 C 0.70619 0.55862 0.126 0.0
C446 C 0.57075 0.53627 0.86113 0.0
C447 C 0.58599 0.53794 0.90876 0.0
C448 C 0.63716 0.56264 0.94719 0.0
C449 C 0.67047 0.55013 0.09242 0.0
C450 C 0.654 0.54874 0.04191 0.0
C451 C 0.60647 0.54448 0.89495 0.0
C452 C 0.62281 0.546 0.9457 0.0
H453 H 0.67772 0.54093 0.2496 0.0
H454 H 0.6506 0.53892 0.16754 0.0
H455 H 0.66301 0.57725 0.99472 0.0
H456 H 0.60035 0.55141 0.73662 0.0
H457 H 0.62689 0.55428 0.81954 0.0
C458 C 1.00197 0.67439 0.20436 0.0
C459 C 1.01389 0.69268 0.19991 0.0
C460 C 1.00249 0.65933 0.15622 0.0
C461 C 1.01689 0.65222 0.98711 0.0
H462 H 1.01562 0.59342 0.02816 0.0
C463 C 0.03474 0.58842 0.80148 0.0
C464 C 0.02298 0.56985 0.80198 0.0
C465 C 0.03284 0.60321 0.84983 0.0
C466 C 1.01573 0.60977 0.01568 0.0
H467 H 0.03565 0.70974 0.14225 0.0
H468 H 0.03691 0.68344 0.05856 0.0
H469 H 1.01404 0.61936 0.11232 0.0
H470 H 0.99992 0.55246 0.85454 0.0
H471 H 0.99657 0.57831 0.93891 0.0
H472 H 0.01874 0.64264 0.89057 0.0
C473 C 0.02688 0.68069 0.09852 0.0
C474 C 1.01482 0.62471 0.06411 0.0
C475 C 0.02632 0.69572 0.14666 0.0
C476 C 1.00924 0.56653 0.85244 0.0
C477 C 1.00741 0.58133 0.90112 0.0
C478 C 0.01785 0.63729 0.93878 0.0
C479 C 1.01495 0.66223 0.10241 0.0
C480 C 1.01551 0.64619 0.05065 0.0
C481 C 0.01918 0.59993 0.90048 0.0
C482 C 1.01741 0.61582 0.95226 0.0
H483 H 0.99216 0.67178 0.24495 0.0
H484 H 0.99286 0.64554 0.1608 0.0
H485 H 1.01701 0.66854 0.97443 0.0
H486 H 0.04553 0.5916 0.76367 0.0
H487 H 0.04241 0.61712 0.84793 0.0
C488 C 0.06999 0.25002 0.21764 0.0
C489 C 0.05424 0.26194 0.18893 0.0
C490 C 0.06592 0.23934 0.2734 0.0
C491 C 0.02331 0.22895 0.39147 0.0
H492 H 0.0459 0.17297 0.38196 0.0
C493 C 0.98202 0.15086 0.44627 0.0
C494 C 0.99254 0.13749 0.48793 0.0
C495 C 0.99115 0.16974 0.42888 0.0
C496 C 0.03975 0.18866 0.3859 0.0
H497 H 0.02243 0.27312 0.1965 0.0
H498 H 1.01477 0.25367 0.29111 0.0
H499 H 0.06053 0.20004 0.31643 0.0
H500 H 0.02047 0.13337 0.54539 0.0
H501 H 0.03677 0.1661 0.51286 0.0
H502 H 1.00107 0.2165 0.4567 0.0
C503 C 0.03055 0.25299 0.27303 0.0
C504 C 0.04822 0.20431 0.3487 0.0
C505 C 0.03483 0.26408 0.21836 0.0
C506 C 1.01197 0.14357 0.51367 0.0
C507 C 0.02129 0.1622 0.49521 0.0
C508 C 1.01446 0.21308 0.42744 0.0
C509 C 0.04578 0.23982 0.30006 0.0
C510 C 0.03968 0.22455 0.34931 0.0
C511 C 1.01108 0.17521 0.45193 0.0
C512 C 0.02233 0.19276 0.42353 0.0
H513 H 0.08514 0.24835 0.19562 0.0
H514 H 0.07828 0.22993 0.29376 0.0
H515 H 1.01668 0.24443 0.39474 0.0
H516 H 0.96706 0.14642 0.42587 0.0
H517 H 0.98321 0.17949 0.39469 0.0
C518 C 0.30703 0.02963 0.20657 0.0
C519 C 0.28941 0.0215 0.17517 0.0
C520 C 0.3178 0.01763 0.25059 0.0
C521 C 0.34542 0.97985 0.2724 0.0
H522 H 0.33227 0.95853 0.43798 0.0
C523 C 0.41071 0.94401 0.41018 0.0
C524 C 0.41358 0.95415 0.46844 0.0
C525 C 0.39115 0.94408 0.38039 0.0
C526 C 0.33605 0.96418 0.39145 0.0
H527 H 0.26802 0.99534 0.169 0.0
H528 H 0.2871 0.97416 0.24703 0.0
H529 H 0.30535 0.97731 0.37695 0.0
H530 H 0.39728 0.96901 0.54585 0.0
H531 H 0.36359 0.97037 0.49216 0.0
H532 H 0.37615 0.9681 0.28669 0.0
C533 C 0.29242 0.98984 0.23723 0.0
C534 C 0.32066 0.97482 0.35671 0.0
C535 C 0.28157 1.00191 0.19284 0.0
C536 C 0.39582 0.96182 0.49981 0.0
C537 C 0.37634 0.96228 0.46939 0.0
C538 C 0.36063 0.96921 0.30656 0.0
C539 C 0.31111 0.99733 0.26413 0.0
C540 C 0.32557 0.98332 0.29792 0.0
C541 C 0.37419 0.95471 0.40751 0.0
C542 C 0.35641 0.96177 0.36735 0.0
H543 H 0.31321 0.04478 0.19418 0.0
H544 H 0.33213 0.02372 0.27129 0.0
H545 H 0.34944 0.98619 0.22684 0.0
H546 H 0.42386 0.93771 0.38455 0.0
H547 H 0.38982 0.93747 0.33353 0.0
C548 C 0.53902 0.28558 0.21899 0.0
C549 C 0.54823 0.28768 0.15952 0.0
C550 C 0.54732 0.29624 0.27098 0.0
C551 C 0.55321 0.33722 0.33758 0.0
H552 H 0.61053 0.35563 0.36305 0.0
C553 C 0.5735 0.42121 0.39337 0.0
C554 C 0.58698 0.42548 0.44431 0.0
C555 C 0.57074 0.40086 0.37202 0.0
C556 C 0.5945 0.3504 0.3573 0.0
H557 H 0.57483 0.30017 0.10949 0.0
H558 H 0.58899 0.31918 0.19948 0.0
H559 H 0.60351 0.32311 0.3056 0.0
H560 H 0.60855 0.41192 0.51204 0.0
H561 H 0.60402 0.37601 0.47322 0.0
H562 H 0.54415 0.36498 0.38618 0.0
C563 C 0.57544 0.30934 0.20644 0.0
C564 C 0.59047 0.33188 0.32428 0.0
C565 C 0.56718 0.29864 0.15458 0.0
C566 C 0.59804 0.40899 0.47268 0.0
C567 C 0.5955 0.38855 0.45056 0.0
C568 C 0.55724 0.3557 0.37003 0.0
C569 C 0.5649 0.30922 0.26428 0.0
C570 C 0.56973 0.32553 0.312 0.0
C571 C 0.58152 0.38433 0.40076 0.0
C572 C 0.57784 0.36286 0.37793 0.0
H573 H 0.52444 0.27717 0.22436 0.0
H574 H 0.53909 0.29554 0.3153 0.0
H575 H 0.53704 0.33299 0.32851 0.0
H576 H 0.56458 0.43357 0.37114 0.0
H577 H 0.56007 0.39801 0.33297 0.0
C578 C 0.25744 0.5019 0.19946 0.0
C579 C 0.27293 0.51401 0.1708 0.0
C580 C 0.24539 0.51027 0.24764 0.0
C581 C 0.21136 0.5405 0.28113 0.0
H582 H 0.22396 0.5722 0.43262 0.0
C583 C 0.14682 0.58606 0.39794 0.0
C584 C 0.14331 0.5796 0.46003 0.0
C585 C 0.16597 0.58203 0.36925 0.0
C586 C 0.22034 0.56348 0.39016 0.0
H587 H 0.28963 0.54337 0.17407 0.0
H588 H 0.26837 0.55814 0.25886 0.0
H589 H 0.25244 0.55452 0.3758 0.0
H590 H 0.15779 0.56609 0.54312 0.0
H591 H 0.19123 0.55881 0.4925 0.0
H592 H 0.17951 0.54923 0.29448 0.0
C593 C 0.26563 0.54219 0.24407 0.0
C594 C 0.23654 0.55338 0.35794 0.0
C595 C 0.27777 0.53376 0.19571 0.0
C596 C 0.15999 0.57093 0.49481 0.0
C597 C 0.17918 0.56693 0.4661 0.0
C598 C 0.19537 0.55075 0.31249 0.0
C599 C 0.24861 0.5309 0.26774 0.0
C600 C 0.23205 0.54158 0.30365 0.0
C601 C 0.18193 0.57151 0.40217 0.0
C602 C 0.19963 0.56228 0.36738 0.0
H603 H 0.25361 0.48655 0.18129 0.0
H604 H 0.23251 0.50118 0.26592 0.0
H605 H 0.20754 0.53179 0.23874 0.0
H606 H 0.13429 0.59274 0.36989 0.0
H607 H 0.16784 0.58593 0.32003 0.0
C608 C 1.00801 0.77879 0.10327 0.0
C609 C 0.99111 0.77915 0.14501 0.0
C610 C 1.00868 0.79291 0.05349 0.0
C611 C 0.99354 0.84597 0.0465 0.0
H612 H 0.02248 0.84696 0.88694 0.0
C613 C 0.01922 0.92319 0.93851 0.0
C614 C 0.03854 0.92379 0.90738 0.0
C615 C 1.01046 0.90429 0.95619 0.0
C616 C 1.01452 0.8469 0.93174 0.0
H617 H 0.96021 0.79166 0.16216 0.0
H618 H 0.96119 0.81612 0.07449 0.0
H619 H 1.01001 0.81373 0.92899 0.0
H620 H 0.06403 0.90491 0.87175 0.0
H621 H 0.04938 0.87188 0.9067 0.0
H622 H 0.99922 0.87855 0.05252 0.0
C623 C 0.97409 0.80535 0.0808 0.0
C624 C 1.00717 0.82794 0.95526 0.0
C625 C 0.97349 0.79136 0.13075 0.0
C626 C 0.04924 0.90502 0.89629 0.0
C627 C 0.04061 0.88605 0.91512 0.0
C628 C 1.0011 0.86474 0.02366 0.0
C629 C 0.99241 0.80741 0.04521 0.0
C630 C 0.99683 0.82731 0.01327 0.0
C631 C 0.02102 0.88546 0.94485 0.0
C632 C 1.01194 0.86546 0.96645 0.0
H633 H 0.02176 0.76947 0.1135 0.0
H634 H 0.02297 0.79413 0.02666 0.0
H635 H 0.9862 0.84593 0.09231 0.0
H636 H 1.01068 0.93738 0.94866 0.0
H637 H 0.99524 0.90448 0.97827 0.0
C638 C 0.75007 0.96834 0.09973 0.0
C639 C 0.76299 0.98537 0.11451 0.0
C640 C 0.73787 0.96849 0.04492 0.0
C641 C 0.72308 1.001 0.90475 0.0
H642 H 0.6672 0.99037 0.96671 0.0
C643 C 0.65088 0.04964 0.83643 0.0
C644 C 0.6311 0.04016 0.83721 0.0
C645 C 0.66878 0.03812 0.85175 0.0
C646 C 0.68263 0.993 0.94748 0.0
H647 H 0.77514 0.01478 0.08102 0.0
H648 H 0.7534 0.01547 0.98671 0.0
H649 H 0.69698 0.97696 0.0238 0.0
H650 H 0.61452 1.01099 0.84887 0.0
H651 H 0.64571 0.99079 0.87458 0.0
H652 H 0.70836 0.01822 0.83022 0.0
C653 C 0.75284 1.00177 0.01622 0.0
C654 C 0.69983 0.98519 0.98028 0.0
C655 C 0.76528 1.00144 0.07052 0.0
C656 C 0.62959 0.01876 0.84968 0.0
C657 C 0.64744 1.0072 0.86414 0.0
C658 C 0.70577 1.00888 0.87181 0.0
C659 C 0.73804 0.98591 0.0049 0.0
C660 C 0.7203 0.98974 0.96079 0.0
C661 C 0.66716 0.01687 0.8673 0.0
C662 C 0.68539 1.00558 0.89423 0.0
H663 H 0.74831 0.95564 0.13273 0.0
H664 H 0.72706 0.95575 0.03658 0.0
H665 H 0.73865 1.00453 0.88799 0.0
H666 H 0.65239 0.06612 0.82647 0.0
H667 H 0.6837 0.04611 0.85443 0.0
C668 C 0.51529 0.75429 0.06309 0.0
C669 C 0.50427 0.76837 0.10087 0.0
C670 C 0.50541 0.74467 0.01192 0.0
C671 C 0.45401 0.72549 0.97153 0.0
H672 H 0.48302 0.70587 0.8231 0.0
C673 C 0.44982 0.64236 0.88171 0.0
C674 C 0.45257 0.63778 0.81751 0.0
C675 C 0.44952 0.66295 0.90286 0.0
C676 C 0.47436 0.71152 0.86333 0.0
H677 H 0.47483 0.78438 0.11409 0.0
H678 H 0.45727 0.7673 0.02434 0.0
H679 H 0.49671 0.73573 0.88149 0.0
H680 H 0.45504 0.65144 0.72452 0.0
H681 H 0.45507 0.6875 0.76198 0.0
H682 H 0.43234 0.70053 0.9554 0.0
C683 C 0.47358 0.76383 0.03399 0.0
C684 C 0.48233 0.72852 0.89708 0.0
C685 C 0.48359 0.77365 0.08493 0.0
C686 C 0.45339 0.65439 0.77446 0.0
C687 C 0.4533 0.67504 0.79579 0.0
C688 C 0.44608 0.70845 0.93787 0.0
C689 C 0.48422 0.74876 0.99816 0.0
C690 C 0.47283 0.735 0.95327 0.0
C691 C 0.45211 0.67949 0.86048 0.0
C692 C 0.45678 0.70065 0.88528 0.0
H693 H 0.5312 0.74993 0.07521 0.0
H694 H 0.51397 0.73292 0.98598 0.0
H695 H 0.44634 0.73006 0.01472 0.0
H696 H 0.44943 0.63009 0.91651 0.0
H697 H 0.44888 0.66579 0.95311 0.0
C698 C 0.80754 0.55397 0.10671 0.0
C699 C 0.79181 0.54219 0.13537 0.0
C700 C 0.81945 0.54532 0.05863 0.0
C701 C 0.85309 0.5151 0.02356 0.0
H702 H 0.83922 0.48074 0.87846 0.0
C703 C 0.91652 0.46707 0.91133 0.0
C704 C 0.91962 0.47208 0.8478 0.0
C705 C 0.89759 0.47179 0.94025 0.0
C706 C 0.8432 0.49024 0.91909 0.0
H707 H 0.7746 0.51312 0.1325 0.0
H708 H 0.79567 0.49781 0.0483 0.0
H709 H 0.81126 0.49953 0.93426 0.0
H710 H 0.90454 0.48358 0.76286 0.0
H711 H 0.87151 0.4922 0.81398 0.0
H712 H 0.8848 0.50604 0.00935 0.0
C713 C 0.79869 0.51374 0.06274 0.0
C714 C 0.8273 0.50096 0.95074 0.0
C715 C 0.78666 0.52248 0.11083 0.0
C716 C 0.9027 0.47993 0.81225 0.0
C717 C 0.88373 0.48467 0.84128 0.0
C718 C 0.86881 0.50427 0.99272 0.0
C719 C 0.8159 0.52469 0.03887 0.0
C720 C 0.83222 0.51366 0.00286 0.0
C721 C 0.88144 0.48162 0.90623 0.0
C722 C 0.86408 0.49174 0.94023 0.0
H723 H 0.8116 0.5693 0.12459 0.0
H724 H 0.83243 0.5542 0.0401 0.0
H725 H 0.85728 0.52445 0.06435 0.0
H726 H 0.92923 0.46105 0.94005 0.0
H727 H 0.89606 0.46902 0.9903 0.0
C728 C 0.07399 0.23024 0.96316 0.0
C729 C 0.05839 0.24573 0.96176 0.0
C730 C 0.07237 0.2124 0.92521 0.0
C731 C 0.03223 0.17951 0.84763 0.0
H732 H 0.08015 0.15114 0.77644 0.0
C733 C 0.02281 0.10172 0.7105 0.0
C734 C 0.03819 0.08624 0.71902 0.0
C735 C 0.02576 0.12197 0.73386 0.0
C736 C 0.0666 0.1587 0.79657 0.0
H737 H 0.02925 0.25494 0.91728 0.0
H738 H 0.02644 0.22381 0.85026 0.0
H739 H 0.08461 0.18538 0.82511 0.0
H740 H 0.06897 0.0803 0.75882 0.0
H741 H 0.07397 0.11544 0.80075 0.0
H742 H 1.01427 0.15272 0.82059 0.0
C743 C 0.0399 0.22542 0.88125 0.0
C744 C 0.06916 0.17844 0.82436 0.0
C745 C 0.04163 0.24341 0.91897 0.0
C746 C 0.05677 0.09174 0.75111 0.0
C747 C 0.05969 0.11202 0.77488 0.0
C748 C 0.02968 0.15975 0.8201 0.0
C749 C 0.05499 0.2094 0.885 0.0
C750 C 0.05204 0.18908 0.8508 0.0
C751 C 0.04415 0.12744 0.76704 0.0
C752 C 0.04684 0.14892 0.79452 0.0
H753 H 0.08706 0.23153 0.99583 0.0
H754 H 0.08423 0.20045 0.92996 0.0
H755 H 0.01873 0.18697 0.86842 0.0
H756 H 1.00833 0.09819 0.68598 0.0
H757 H 1.01356 0.13338 0.72561 0.0
C758 C 0.30399 0.04204 0.90527 0.0
C759 C 0.30513 0.05095 0.96574 0.0
C760 C 0.32126 0.04299 0.86477 0.0
C761 C 0.37312 0.06914 0.84197 0.0
H762 H 0.38855 0.01708 0.76172 0.0
C763 C 0.45758 0.05233 0.76079 0.0
C764 C 0.4607 0.04098 0.70484 0.0
C765 C 0.43746 0.05504 0.78522 0.0
C766 C 0.38436 0.03185 0.78293 0.0
H767 H 0.32471 0.06881 0.02978 0.0
H768 H 0.35459 0.07059 0.95975 0.0
H769 H 0.35503 0.01992 0.81526 0.0
H770 H 0.44478 0.02376 0.63049 0.0
H771 H 0.4097 0.02852 0.67306 0.0
H772 H 0.40265 0.08092 0.81097 0.0
C773 C 0.3405 0.06291 0.94298 0.0
C774 C 0.36506 0.0335 0.8136 0.0
C775 C 0.32337 0.06185 0.98336 0.0
C776 C 0.44306 0.03258 0.67365 0.0
C777 C 0.4229 0.03521 0.6983 0.0
C778 C 0.39241 0.06748 0.81144 0.0
C779 C 0.33995 0.05302 0.88374 0.0
C780 C 0.35932 0.05205 0.84461 0.0
C781 C 0.41982 0.04642 0.75459 0.0
C782 C 0.39849 0.0487 0.78249 0.0
H783 H 0.2902 0.03339 0.89068 0.0
H784 H 0.32016 0.03542 0.8192 0.0
H785 H 0.36912 0.0838 0.86424 0.0
H786 H 0.47072 0.05902 0.78632 0.0
H787 H 0.4358 0.0635 0.8291 0.0
C788 C 0.53646 0.31565 0.92078 0.0
C789 C 0.51873 0.30855 0.95283 0.0
C790 C 0.53567 0.334 0.88558 0.0
C791 C 0.49999 0.37487 0.81925 0.0
H792 H 0.54954 0.40928 0.83901 0.0
C793 C 0.50389 0.4629 0.74934 0.0
C794 C 0.52238 0.46961 0.72003 0.0
C795 C 0.50232 0.44262 0.77355 0.0
C796 C 0.53565 0.39982 0.83233 0.0
H797 H 0.48607 0.3146 0.97163 0.0
H798 H 0.48464 0.34696 0.91088 0.0
H799 H 0.5487 0.37493 0.88622 0.0
H800 H 0.55352 0.45988 0.69195 0.0
H801 H 0.55075 0.42484 0.73392 0.0
H802 H 0.48686 0.40026 0.76633 0.0
C803 C 0.49911 0.33818 0.91178 0.0
C804 C 0.53518 0.37999 0.85926 0.0
C805 C 0.49986 0.3196 0.94649 0.0
C806 C 0.53906 0.45541 0.71453 0.0
C807 C 0.53753 0.43527 0.73892 0.0
C808 C 0.50042 0.39486 0.79253 0.0
C809 C 0.51721 0.34598 0.8825 0.0
C810 C 0.51743 0.36711 0.85278 0.0
C811 C 0.51925 0.42866 0.76939 0.0
C812 C 0.51834 0.40752 0.7984 0.0
H813 H 0.55121 0.30741 0.92513 0.0
H814 H 0.54978 0.33912 0.86236 0.0
H815 H 0.48608 0.36542 0.81286 0.0
H816 H 0.4907 0.47336 0.75431 0.0
H817 H 0.48806 0.43807 0.79703 0.0
C818 C 0.23997 0.48192 0.96124 0.0
C819 C 0.25603 0.49636 0.9498 0.0
C820 C 0.22141 0.48228 0.92594 0.0
C821 C 0.19464 0.50269 0.78342 0.0
H822 H 0.14599 0.50206 0.89134 0.0
C823 C 0.11079 0.52337 0.6922 0.0
C824 C 0.09363 0.51311 0.71937 0.0
C825 C 0.13116 0.52046 0.7159 0.0
C826 C 0.15928 0.50189 0.86005 0.0
H827 H 0.26579 0.52162 0.88957 0.0
H828 H 0.23326 0.52212 0.82683 0.0
H829 H 0.18064 0.49761 0.93699 0.0
H830 H 0.08466 0.49115 0.79158 0.0
H831 H 0.12 0.48558 0.83152 0.0
H832 H 0.17316 0.50682 0.70626 0.0
C833 C 0.2351 0.5105 0.8633 0.0
C834 C 0.17925 0.49939 0.88642 0.0
C835 C 0.25377 0.51015 0.89892 0.0
C836 C 0.09743 0.4995 0.76986 0.0
C837 C 0.11778 0.49641 0.7931 0.0
C838 C 0.17455 0.50501 0.75677 0.0
C839 C 0.21837 0.49712 0.8782 0.0
C840 C 0.19721 0.49966 0.84858 0.0
C841 C 0.13496 0.50706 0.76715 0.0
C842 C 0.15653 0.50458 0.79474 0.0
H843 H 0.24131 0.47109 1.00009 0.0
H844 H 0.20906 0.47145 0.93778 0.0
H845 H 0.20814 0.50293 0.75291 0.0
H846 H 0.10848 0.53406 0.65344 0.0
H847 H 0.14383 0.52915 0.69497 0.0
C848 C 0.98301 0.81208 0.37089 0.0
C849 C 0.99965 0.79767 0.36944 0.0
C850 C 0.98484 0.83091 0.40386 0.0
C851 C 1.01174 0.86038 0.528 0.0
H852 H 1.00212 0.90791 0.41949 0.0
C853 C 0.02685 0.94554 0.61516 0.0
C854 C 1.01521 0.96193 0.58831 0.0
C855 C 0.02509 0.92509 0.59178 0.0
C856 C 1.00446 0.89498 0.45128 0.0
H857 H 0.0307 0.79125 0.40627 0.0
H858 H 0.03359 0.82407 0.46634 0.0
H859 H 0.99827 0.87287 0.37749 0.0
H860 H 0.99201 0.96936 0.51697 0.0
H861 H 0.98806 0.93384 0.47846 0.0
H862 H 1.01712 0.88234 0.6026 0.0
C863 C 0.01925 0.82075 0.44065 0.0
C864 C 1.00242 0.87477 0.42675 0.0
C865 C 0.01753 0.80188 0.40665 0.0
C866 C 1.0014 0.95721 0.53842 0.0
C867 C 0.9993 0.93671 0.51587 0.0
C868 C 1.01336 0.88067 0.55308 0.0
C869 C 1.00322 0.83581 0.43752 0.0
C870 C 1.00597 0.8572 0.4647 0.0
C871 C 1.01133 0.92026 0.54146 0.0
C872 C 1.0097 0.89839 0.51517 0.0
H873 H 0.96888 0.80926 0.34354 0.0
H874 H 0.97207 0.84199 0.40138 0.0
H875 H 1.01447 0.84716 0.55853 0.0
H876 H 0.03777 0.94859 0.65342 0.0
H877 H 0.03495 0.91321 0.61254 0.0
C878 C 0.74246 1.01389 0.37469 0.0
C879 C 0.7456 0.99564 0.33916 0.0
C880 C 0.72439 0.0163 0.41137 0.0
C881 C 0.67836 0.98723 0.47688 0.0
H882 H 0.65101 0.04101 0.46613 0.0
C883 C 0.59071 0.99937 0.53975 0.0
C884 C 0.58515 0.01787 0.57123 0.0
C885 C 0.61113 0.99647 0.51725 0.0
C886 C 0.65851 0.02595 0.47039 0.0
H887 H 0.73287 0.9651 0.31779 0.0
H888 H 0.70152 0.96929 0.38062 0.0
H889 H 0.68548 0.03629 0.42012 0.0
H890 H 0.59709 0.04766 0.60462 0.0
H891 H 0.63245 0.04257 0.5656 0.0
H892 H 0.6511 0.97681 0.52596 0.0
C893 C 0.7129 0.9818 0.38078 0.0
C894 C 0.6784 0.02324 0.4441 0.0
C895 C 0.73089 0.97942 0.34428 0.0
C896 C 0.60065 0.03326 0.58019 0.0
C897 C 0.62099 0.03039 0.55752 0.0
C898 C 0.65842 0.98991 0.50291 0.0
C899 C 0.70906 1.00048 0.41359 0.0
C900 C 0.68857 1.00378 0.44635 0.0
C901 C 0.62652 1.01201 0.52541 0.0
C902 C 0.64812 1.00926 0.49957 0.0
H903 H 0.7534 0.02673 0.37154 0.0
H904 H 0.72221 0.03077 0.43682 0.0
H905 H 0.68575 0.9721 0.48065 0.0
H906 H 0.57926 0.98717 0.53196 0.0
H907 H 0.61472 0.98219 0.49224 0.0
C908 C 0.50715 0.73594 0.32784 0.0
C909 C 0.52444 0.74916 0.31894 0.0
C910 C 0.50873 0.71843 0.3664 0.0
C911 C 0.5393 0.6922 0.49135 0.0
H912 H 0.51831 0.64201 0.41029 0.0
C913 C 0.53035 0.61144 0.61634 0.0
C914 C 0.53655 0.59382 0.58141 0.0
C915 C 0.52999 0.63128 0.58865 0.0
C916 C 0.52433 0.65584 0.43358 0.0
H917 H 0.55658 0.75504 0.3472 0.0
H918 H 0.55929 0.72435 0.41566 0.0
H919 H 0.51525 0.67532 0.35661 0.0
H920 H 0.54773 0.58353 0.49019 0.0
H921 H 0.54696 0.61789 0.4423 0.0
H922 H 0.54835 0.67246 0.56855 0.0
C923 C 0.54453 0.7276 0.39223 0.0
C924 C 0.5224 0.67499 0.40303 0.0
C925 C 0.54297 0.7452 0.35318 0.0
C926 C 0.5428 0.59665 0.51866 0.0
C927 C 0.54227 0.61637 0.49096 0.0
C928 C 0.54101 0.67297 0.52243 0.0
C929 C 0.5276 0.71366 0.39757 0.0
C930 C 0.52983 0.69343 0.4314 0.0
C931 C 0.5356 0.6339 0.52526 0.0
C932 C 0.53364 0.65454 0.49363 0.0
H933 H 0.49251 0.73878 0.30323 0.0
H934 H 0.49525 0.70829 0.37062 0.0
H935 H 0.54513 0.70613 0.5145 0.0
H936 H 0.52547 0.6099 0.66481 0.0
H937 H 0.52468 0.64445 0.61625 0.0
C938 C 0.80922 0.54442 0.40665 0.0
C939 C 0.80767 0.55898 0.35765 0.0
C940 C 0.8274 0.5434 0.44425 0.0
C941 C 0.87681 0.57148 0.48742 0.0
H942 H 0.89957 0.51582 0.50482 0.0
C943 C 0.96397 0.5567 0.5547 0.0
C944 C 0.96894 0.53907 0.59106 0.0
C945 C 0.94346 0.55996 0.53253 0.0
C946 C 0.89339 0.53148 0.50154 0.0
H947 H 0.82333 0.58463 0.3119 0.0
H948 H 0.85476 0.58318 0.37784 0.0
H949 H 0.86481 0.52054 0.45948 0.0
H950 H 0.95587 0.5114 0.63406 0.0
H951 H 0.92028 0.51732 0.597 0.0
H952 H 0.90545 0.58245 0.52911 0.0
C953 C 0.84206 0.57251 0.38757 0.0
C954 C 0.87334 0.53418 0.47545 0.0
C955 C 0.82404 0.57337 0.34973 0.0
C956 C 0.95275 0.52506 0.6057 0.0
C957 C 0.93226 0.5284 0.58401 0.0
C958 C 0.89683 0.56878 0.5139 0.0
C959 C 0.84432 0.55706 0.43396 0.0
C960 C 0.86485 0.55423 0.46734 0.0
C961 C 0.9273 0.54578 0.54647 0.0
C962 C 0.90554 0.54874 0.52075 0.0
H963 H 0.79698 0.53297 0.41325 0.0
H964 H 0.82848 0.53148 0.48007 0.0
H965 H 0.8707 0.58714 0.4825 0.0
H966 H 0.97601 0.5678 0.54231 0.0
H967 H 0.94041 0.57339 0.50314 0.0
loop_
_geom_bond_atom_site_label_1
_geom_bond_atom_site_label_2
_geom_bond_distance
_geom_bond_site_symmetry_2
_ccdc_geom_bond_type
H0 C3 0.929 . S
H1 C6 0.929 . S
H2 C8 0.930 . S
C3 H0 0.929 . S
C3 C4 1.398 . S
C3 C5 1.396 . S
C4 C3 1.398 . S
C4 C8 1.407 . S
C5 C3 1.396 . S
C5 C6 1.394 . S
C6 H1 0.929 . S
C6 C5 1.394 . S
C6 C7 1.382 . S
C7 C6 1.382 . S
C7 C8 1.392 . S
C7 N9 1.420 . S
C8 H2 0.930 . S
C8 C4 1.407 . S
C8 C7 1.392 . S
N9 C7 1.420 . S
N9 C10 1.244 . S
C10 N9 1.244 . S
H11 C14 0.929 . S
H12 C17 0.929 . S
H13 C19 0.930 . S
C14 H11 0.929 . S
C14 C15 1.398 . S
C14 C16 1.396 . S
C15 C14 1.398 . S
C15 C19 1.407 . S
C16 C14 1.396 . S
C16 C17 1.394 . S
C17 H12 0.929 . S
C17 C16 1.394 . S
C17 C18 1.382 . S
C18 C17 1.382 . S
C18 C19 1.392 . S
C18 N20 1.420 . S
C19 H13 0.930 . S
C19 C15 1.407 . S
C19 C18 1.392 . S
N20 C18 1.420 . S
N20 C21 1.244 . S
C21 N20 1.244 . S
H22 C25 0.929 . S
H23 C28 0.929 . S
H24 C30 0.930 . S
C25 H22 0.929 . S
C25 C26 1.398 . S
C25 C27 1.396 . S
C26 C25 1.398 . S
C26 C30 1.407 . S
C27 C25 1.396 . S
C27 C28 1.394 . S
C28 H23 0.929 . S
C28 C27 1.394 . S
C28 C29 1.382 . S
C29 C28 1.382 . S
C29 C30 1.392 . S
C29 N31 1.420 . S
C30 H24 0.930 . S
C30 C26 1.407 . S
C30 C29 1.392 . S
N31 C29 1.420 . S
N31 C32 1.244 . S
C32 N31 1.244 . S
H33 C36 0.929 . S
H34 C39 0.929 . S
H35 C41 0.930 . S
C36 H33 0.929 . S
C36 C37 1.398 . S
C36 C38 1.396 . S
C37 C36 1.398 . S
C37 C41 1.407 . S
C38 C36 1.396 . S
C38 C39 1.394 . S
C39 H34 0.929 . S
C39 C38 1.394 . S
C39 C40 1.382 . S
C40 C39 1.382 . S
C40 C41 1.392 . S
C40 N42 1.420 . S
C41 H35 0.930 . S
C41 C37 1.407 . S
C41 C40 1.392 . S
N42 C40 1.420 . S
N42 C43 1.244 . S
C43 N42 1.244 . S
H44 C47 0.929 . S
H45 C50 0.929 . S
H46 C52 0.930 1_556 S
C47 H44 0.929 . S
C47 C48 1.398 . S
C47 C49 1.396 . S
C48 C47 1.398 . S
C48 C52 1.407 . S
C49 C47 1.396 . S
C49 C50 1.394 . S
C50 H45 0.929 . S
C50 C49 1.394 . S
C50 C51 1.382 . S
C51 C50 1.382 . S
C51 C52 1.392 . S
C51 N53 1.420 . S
C52 H46 0.930 1_554 S
C52 C48 1.407 . S
C52 C51 1.392 . S
N53 C51 1.420 . S
N53 C54 1.244 . S
C54 N53 1.244 . S
H55 C58 0.929 . S
H56 C61 0.929 . S
H57 C63 0.930 . S
C58 H55 0.929 . S
C58 C59 1.398 1_554 S
C58 C60 1.396 . S
C59 C58 1.398 1_556 S
C59 C63 1.407 . S
C60 C58 1.396 . S
C60 C61 1.394 . S
C61 H56 0.929 . S
C61 C60 1.394 . S
C61 C62 1.382 . S
C62 C61 1.382 . S
C62 C63 1.392 1_554 S
C62 N64 1.420 . S
C63 H57 0.930 . S
C63 C59 1.407 . S
C63 C62 1.392 1_556 S
N64 C62 1.420 . S
N64 C65 1.244 . S
C65 N64 1.244 . S
H66 C69 0.929 . S
H67 C72 0.929 . S
H68 C74 0.930 . S
C69 H66 0.929 . S
C69 C70 1.398 . S
C69 C71 1.396 1_556 S
C70 C69 1.398 . S
C70 C74 1.407 . S
C71 C69 1.396 1_554 S
C71 C72 1.394 . S
C72 H67 0.929 . S
C72 C71 1.394 . S
C72 C73 1.382 . S
C73 C72 1.382 . S
C73 C74 1.392 1_554 S
C73 N75 1.420 . S
C74 H68 0.930 . S
C74 C70 1.407 . S
C74 C73 1.392 1_556 S
N75 C73 1.420 . S
N75 C76 1.244 . S
C76 N75 1.244 . S
H77 C80 0.929 . S
H78 C83 0.929 . S
H79 C85 0.930 1_556 S
C80 H77 0.929 . S
C80 C81 1.398 1_554 S
C80 C82 1.396 . S
C81 C80 1.398 1_556 S
C81 C85 1.407 1_556 S
C82 C80 1.396 . S
C82 C83 1.394 . S
C83 H78 0.929 . S
C83 C82 1.394 . S
C83 C84 1.382 . S
C84 C83 1.382 . S
C84 C85 1.392 . S
C84 N86 1.420 . S
C85 H79 0.930 1_554 S
C85 C81 1.407 1_554 S
C85 C84 1.392 . S
N86 C84 1.420 . S
N86 C87 1.244 . S
C87 N86 1.244 . S
Eu88 C97 2.828 . S
Eu88 O99 2.392 . S
Eu88 O101 2.418 1_545 S
Eu88 O106 2.373 1_655 S
Eu88 O109 2.488 . S
Eu88 O110 2.471 1_655 S
Eu88 O111 2.349 1_655 S
Eu89 O98 2.371 1_465 S
Eu89 O102 2.488 . S
Eu89 O103 2.471 . S
Eu89 O104 2.349 . S
Eu89 O107 2.392 1_565 S
Eu89 O108 2.418 1_565 S
Eu89 C118 2.828 . S
C90 O108 1.244 . S
C90 O111 1.265 . S
C91 C92 1.379 . S
C91 C95 1.373 1_455 S
C91 C97 1.505 1_455 S
C92 C91 1.379 . S
C92 C94 1.369 . S
C92 H120 0.930 . S
C93 C95 1.383 . S
C93 C96 1.382 1_655 S
C93 H121 0.930 . S
C94 C92 1.369 . S
C94 C96 1.392 . S
C94 H122 0.930 . S
C95 C91 1.373 1_655 S
C95 C93 1.383 . S
C95 H123 0.931 . S
C96 C93 1.382 1_455 S
C96 C94 1.392 . S
C97 Eu88 2.828 . S
C97 C91 1.505 1_655 S
C97 O109 1.249 . S
C97 O110 1.244 1_655 S
O98 Eu89 2.371 1_645 S
O98 C100 1.260 . S
O99 Eu88 2.392 . S
O99 C100 1.242 . S
C100 O98 1.260 . S
C100 O99 1.242 . S
O101 Eu88 2.418 1_565 S
O101 C105 1.244 . S
O102 Eu89 2.488 . S
O102 C118 1.249 . S
O103 Eu89 2.471 . S
O103 C118 1.244 . S
O104 Eu89 2.349 . S
O104 C105 1.265 1_455 S
C105 O101 1.244 . S
C105 O104 1.265 1_655 S
O106 Eu88 2.373 1_455 S
O106 C119 1.258 . S
O107 Eu89 2.392 1_545 S
O107 C119 1.242 . S
O108 Eu89 2.418 1_545 S
O108 C90 1.244 . S
O109 Eu88 2.488 . S
O109 C97 1.249 . S
O110 Eu88 2.471 1_455 S
O110 C97 1.244 1_455 S
O111 Eu88 2.349 1_455 S
O111 C90 1.265 . S
C112 C113 1.379 . S
C112 C116 1.373 . S
C112 C118 1.505 . S
C113 C112 1.379 . S
C113 C115 1.369 1_455 S
C113 H124 0.930 1_455 S
C114 C116 1.383 . S
C114 C117 1.382 . S
C114 H125 0.930 1_556 S
C115 C113 1.369 1_655 S
C115 C117 1.392 1_655 S
C115 H126 0.930 . S
C116 C112 1.373 . S
C116 C114 1.383 . S
C116 H127 0.931 . S
C117 C114 1.382 . S
C117 C115 1.392 1_455 S
C118 Eu89 2.828 . S
C118 O102 1.249 . S
C118 O103 1.244 . S
C118 C112 1.505 . S
C119 O106 1.258 . S
C119 O107 1.242 . S
H120 C92 0.930 . S
H121 C93 0.930 . S
H122 C94 0.930 . S
H123 C95 0.931 . S
H124 C113 0.930 1_655 S
H125 C114 0.930 1_554 S
H126 C115 0.930 . S
H127 C116 0.931 . S
Eu128 C137 2.828 . S
Eu128 O139 2.392 . S
Eu128 O141 2.418 . S
Eu128 O146 2.373 . S
Eu128 O149 2.488 . S
Eu128 O150 2.471 . S
Eu128 O151 2.349 1_545 S
Eu129 O138 2.373 1_565 S
Eu129 O142 2.488 . S
Eu129 O143 2.471 1_565 S
Eu129 O144 2.349 1_565 S
Eu129 O147 2.392 . S
Eu129 O148 2.418 . S
Eu129 C158 2.828 . S
C130 O148 1.244 . S
C130 O151 1.265 . S
C131 C132 1.379 . S
C131 C135 1.373 . S
C131 C137 1.505 . S
C132 C131 1.379 . S
C132 C134 1.369 . S
C132 H160 0.930 1_545 S
C133 C135 1.383 . S
C133 C136 1.382 . S
C133 H161 0.930 . S
C134 C132 1.369 . S
C134 C136 1.392 . S
C134 H162 0.930 1_545 S
C135 C131 1.373 . S
C135 C133 1.383 . S
C135 H163 0.931 . S
C136 C133 1.382 . S
C136 C134 1.392 . S
C137 Eu128 2.828 . S
C137 C131 1.505 . S
C137 O149 1.249 . S
C137 O150 1.244 . S
O138 Eu129 2.373 1_545 S
O138 C140 1.258 . S
O139 Eu128 2.392 . S
O139 C140 1.242 . S
C140 O138 1.258 . S
C140 O139 1.242 . S
O141 Eu128 2.418 . S
O141 C145 1.244 . S
O142 Eu129 2.488 . S
O142 C158 1.249 . S
O143 Eu129 2.471 1_545 S
O143 C158 1.244 1_545 S
O144 Eu129 2.349 1_545 S
O144 C145 1.265 . S
C145 O141 1.244 . S
C145 O144 1.265 . S
O146 Eu128 2.373 . S
O146 C159 1.227 1_545 S
O147 Eu129 2.392 . S
O147 C159 1.262 . S
O148 Eu129 2.418 . S
O148 C130 1.244 . S
O149 Eu128 2.488 . S
O149 C137 1.249 . S
O150 Eu128 2.471 . S
O150 C137 1.244 . S
O151 Eu128 2.349 1_565 S
O151 C130 1.265 . S
C152 C153 1.373 1_565 S
C152 C156 1.378 . S
C152 C158 1.506 . S
C153 C152 1.373 1_545 S
C153 C155 1.369 . S
C153 H164 0.930 . S
C154 C156 1.383 . S
C154 C157 1.382 1_565 S
C154 H165 0.930 . S
C155 C153 1.369 . S
C155 C157 1.392 . S
C155 H166 0.930 . S
C156 C152 1.378 . S
C156 C154 1.383 . S
C156 H167 0.931 . S
C157 C154 1.382 1_545 S
C157 C155 1.392 . S
C158 Eu129 2.828 . S
C158 O142 1.249 . S
C158 O143 1.244 1_565 S
C158 C152 1.506 . S
C159 O146 1.227 1_565 S
C159 O147 1.262 . S
H160 C132 0.930 1_565 S
H161 C133 0.930 . S
H162 C134 0.930 1_565 S
H163 C135 0.931 . S
H164 C153 0.930 . S
H165 C154 0.930 . S
H166 C155 0.930 . S
H167 C156 0.931 . S
Eu168 C177 2.828 . S
Eu168 O179 2.392 . S
Eu168 O181 2.418 . S
Eu168 O186 2.373 . S
Eu168 O189 2.488 . S
Eu168 O190 2.471 . S
Eu168 O191 2.349 . S
Eu169 O178 2.373 . S
Eu169 O182 2.488 . S
Eu169 O183 2.471 . S
Eu169 O184 2.349 . S
Eu169 O187 2.392 . S
Eu169 O188 2.418 . S
Eu169 C198 2.828 . S
C170 O188 1.244 . S
C170 O191 1.265 . S
C171 C172 1.379 . S
C171 C175 1.373 . S
C171 C177 1.505 . S
C172 C171 1.379 . S
C172 C174 1.369 . S
C172 H200 0.930 . S
C173 C175 1.383 . S
C173 C176 1.382 . S
C173 H201 0.930 . S
C174 C172 1.369 . S
C174 C176 1.392 . S
C174 H202 0.930 . S
C175 C171 1.373 . S
C175 C173 1.383 . S
C175 H203 0.931 . S
C176 C173 1.382 . S
C176 C174 1.392 . S
C177 Eu168 2.828 . S
C177 C171 1.505 . S
C177 O189 1.249 . S
C177 O190 1.244 . S
O178 Eu169 2.373 . S
O178 C180 1.258 . S
O179 Eu168 2.392 . S
O179 C180 1.242 . S
C180 O178 1.258 . S
C180 O179 1.242 . S
O181 Eu168 2.418 . S
O181 C185 1.244 . S
O182 Eu169 2.488 . S
O182 C198 1.249 . S
O183 Eu169 2.471 . S
O183 C198 1.244 . S
O184 Eu169 2.349 . S
O184 C185 1.265 . S
C185 O181 1.244 . S
C185 O184 1.265 . S
O186 Eu168 2.373 . S
O186 C199 1.258 . S
O187 Eu169 2.392 . S
O187 C199 1.242 . S
O188 Eu169 2.418 . S
O188 C170 1.244 . S
O189 Eu168 2.488 . S
O189 C177 1.249 . S
O190 Eu168 2.471 . S
O190 C177 1.244 . S
O191 Eu168 2.349 . S
O191 C170 1.265 . S
C192 C193 1.379 . S
C192 C196 1.373 . S
C192 C198 1.505 . S
C193 C192 1.379 . S
C193 C195 1.369 . S
C193 H204 0.930 . S
C194 C196 1.383 . S
C194 C197 1.382 . S
C194 H205 0.930 . S
C195 C193 1.369 . S
C195 C197 1.392 . S
C195 H206 0.930 . S
C196 C192 1.373 . S
C196 C194 1.383 . S
C196 H207 0.931 . S
C197 C194 1.382 . S
C197 C195 1.392 . S
C198 Eu169 2.828 . S
C198 O182 1.249 . S
C198 O183 1.244 . S
C198 C192 1.505 . S
C199 O186 1.258 . S
C199 O187 1.242 . S
H200 C172 0.930 . S
H201 C173 0.930 . S
H202 C174 0.930 . S
H203 C175 0.931 . S
H204 C193 0.930 . S
H205 C194 0.930 . S
H206 C195 0.930 . S
H207 C196 0.931 . S
Eu208 C217 2.828 . S
Eu208 O219 2.392 . S
Eu208 O221 2.418 1_455 S
Eu208 O226 2.373 . S
Eu208 O229 2.488 . S
Eu208 O230 2.471 . S
Eu208 O231 2.349 . S
Eu209 O218 2.373 . S
Eu209 O222 2.488 . S
Eu209 O223 2.471 . S
Eu209 O224 2.349 . S
Eu209 O227 2.392 1_655 S
Eu209 O228 2.418 1_655 S
Eu209 C238 2.828 . S
C210 O228 1.244 . S
C210 O231 1.265 . S
C211 C212 1.379 . S
C211 C215 1.373 . S
C211 C217 1.505 . S
C212 C211 1.379 . S
C212 C214 1.369 . S
C212 H240 0.930 . S
C213 C215 1.383 . S
C213 C216 1.382 . S
C213 H241 0.930 . S
C214 C212 1.369 . S
C214 C216 1.392 . S
C214 H242 0.930 . S
C215 C211 1.373 . S
C215 C213 1.383 . S
C215 H243 0.931 . S
C216 C213 1.382 . S
C216 C214 1.392 . S
C217 Eu208 2.828 . S
C217 C211 1.505 . S
C217 O229 1.249 . S
C217 O230 1.244 . S
O218 Eu209 2.373 . S
O218 C220 1.258 1_655 S
O219 Eu208 2.392 . S
O219 C220 1.242 . S
C220 O218 1.258 1_455 S
C220 O219 1.242 . S
O221 Eu208 2.418 1_655 S
O221 C225 1.244 . S
O222 Eu209 2.488 . S
O222 C238 1.249 . S
O223 Eu209 2.471 . S
O223 C238 1.244 . S
O224 Eu209 2.349 . S
O224 C225 1.265 . S
C225 O221 1.244 . S
C225 O224 1.265 . S
O226 Eu208 2.373 . S
O226 C239 1.258 . S
O227 Eu209 2.392 1_455 S
O227 C239 1.242 . S
O228 Eu209 2.418 1_455 S
O228 C210 1.244 . S
O229 Eu208 2.488 . S
O229 C217 1.249 . S
O230 Eu208 2.471 . S
O230 C217 1.244 . S
O231 Eu208 2.349 . S
O231 C210 1.265 . S
C232 C233 1.379 . S
C232 C236 1.373 . S
C232 C238 1.505 . S
C233 C232 1.379 . S
C233 C235 1.369 . S
C233 H244 0.930 . S
C234 C236 1.383 . S
C234 C237 1.382 . S
C234 H245 0.930 . S
C235 C233 1.369 . S
C235 C237 1.392 . S
C235 H246 0.930 . S
C236 C232 1.373 . S
C236 C234 1.383 . S
C236 H247 0.931 . S
C237 C234 1.382 . S
C237 C235 1.392 . S
C238 Eu209 2.828 . S
C238 O222 1.249 . S
C238 O223 1.244 . S
C238 C232 1.505 . S
C239 O226 1.258 . S
C239 O227 1.242 . S
H240 C212 0.930 . S
H241 C213 0.930 . S
H242 C214 0.930 . S
H243 C215 0.931 . S
H244 C233 0.930 . S
H245 C234 0.930 . S
H246 C235 0.930 . S
H247 C236 0.931 . S
C248 C249 1.349 . S
C248 C250 1.327 . S
C248 H273 0.950 . S
C249 C248 1.349 . S
C249 C265 1.349 . S
C250 C248 1.327 . S
C250 C269 1.429 . S
C250 H274 0.950 . S
C251 C268 1.574 . S
C251 C270 1.368 . S
C251 H275 0.949 . S
H252 C256 0.949 . S
C253 C254 1.349 . S
C253 C255 1.327 . S
C253 H276 0.950 1_545 S
C254 C253 1.349 . S
C254 C266 1.349 . S
C255 C253 1.327 . S
C255 C271 1.429 . S
C255 H277 0.950 1_545 S
C256 H252 0.949 . S
C256 C264 1.574 . S
C256 C272 1.368 . S
H257 C265 0.950 . S
H258 C263 0.950 . S
H259 C264 0.949 . S
H260 C266 0.950 . S
H261 C267 0.950 . S
H262 C268 0.969 . S
C263 H258 0.950 . S
C263 C265 1.327 . S
C263 C269 1.429 . S
C264 C256 1.574 . S
C264 H259 0.949 . S
C264 C270 1.368 . S
C265 C249 1.349 . S
C265 H257 0.950 . S
C265 C263 1.327 . S
C266 C254 1.349 . S
C266 H260 0.950 . S
C266 C267 1.327 . S
C267 H261 0.950 . S
C267 C266 1.327 . S
C267 C271 1.429 . S
C268 C251 1.574 . S
C268 H262 0.969 . S
C268 C272 1.368 . S
C269 C250 1.429 . S
C269 C263 1.429 . S
C269 C270 1.523 . S
C270 C251 1.368 . S
C270 C264 1.368 . S
C270 C269 1.523 . S
C271 C255 1.429 . S
C271 C267 1.429 . S
C271 C272 1.523 . S
C272 C256 1.368 . S
C272 C268 1.368 . S
C272 C271 1.523 . S
H273 C248 0.950 . S
H274 C250 0.950 . S
H275 C251 0.949 . S
H276 C253 0.950 1_565 S
H277 C255 0.950 1_565 S
C278 C279 1.349 . S
C278 C280 1.327 . S
C278 H303 0.950 . S
C279 C278 1.349 . S
C279 C295 1.349 . S
C280 C278 1.327 . S
C280 C299 1.429 . S
C280 H304 0.950 . S
C281 C298 1.574 . S
C281 C300 1.368 . S
C281 H305 0.949 . S
H282 C286 0.949 . S
C283 C284 1.349 . S
C283 C285 1.327 . S
C283 H306 0.950 . S
C284 C283 1.349 . S
C284 C296 1.349 . S
C285 C283 1.327 . S
C285 C301 1.429 . S
C285 H307 0.950 . S
C286 H282 0.949 . S
C286 C294 1.574 . S
C286 C302 1.368 . S
H287 C295 0.950 . S
H288 C293 0.950 . S
H289 C294 0.949 . S
H290 C296 0.950 . S
H291 C297 0.950 . S
H292 C298 0.949 . S
C293 H288 0.950 . S
C293 C295 1.327 . S
C293 C299 1.429 . S
C294 C286 1.574 . S
C294 H289 0.949 . S
C294 C300 1.368 . S
C295 C279 1.349 . S
C295 H287 0.950 . S
C295 C293 1.327 . S
C296 C284 1.349 . S
C296 H290 0.950 . S
C296 C297 1.327 . S
C297 H291 0.950 . S
C297 C296 1.327 . S
C297 C301 1.429 . S
C298 C281 1.574 . S
C298 H292 0.949 . S
C298 C302 1.368 . S
C299 C280 1.429 . S
C299 C293 1.429 . S
C299 C300 1.523 . S
C300 C281 1.368 . S
C300 C294 1.368 . S
C300 C299 1.523 . S
C301 C285 1.429 . S
C301 C297 1.429 . S
C301 C302 1.523 . S
C302 C286 1.368 . S
C302 C298 1.368 . S
C302 C301 1.523 . S
H303 C278 0.950 . S
H304 C280 0.950 . S
H305 C281 0.949 . S
H306 C283 0.950 . S
H307 C285 0.950 . S
C308 C309 1.349 . S
C308 C310 1.327 . S
C308 H333 0.950 . S
C309 C308 1.349 . S
C309 C325 1.349 . S
C310 C308 1.327 . S
C310 C329 1.429 . S
C310 H334 0.950 . S
C311 C328 1.574 . S
C311 C330 1.368 . S
C311 H335 0.949 . S
H312 C316 0.949 . S
C313 C314 1.349 . S
C313 C315 1.327 . S
C313 H336 0.950 . S
C314 C313 1.349 . S
C314 C326 1.349 . S
C315 C313 1.327 . S
C315 C331 1.429 . S
C315 H337 0.950 . S
C316 H312 0.949 . S
C316 C324 1.574 . S
C316 C332 1.368 . S
H317 C325 0.950 . S
H318 C323 0.950 . S
H319 C324 0.949 . S
H320 C326 0.950 . S
H321 C327 0.950 . S
H322 C328 0.949 . S
C323 H318 0.950 . S
C323 C325 1.327 . S
C323 C329 1.429 . S
C324 C316 1.574 . S
C324 H319 0.949 . S
C324 C330 1.368 . S
C325 C309 1.349 . S
C325 H317 0.950 . S
C325 C323 1.327 . S
C326 C314 1.349 . S
C326 H320 0.950 . S
C326 C327 1.327 . S
C327 H321 0.950 . S
C327 C326 1.327 . S
C327 C331 1.429 . S
C328 C311 1.574 . S
C328 H322 0.949 . S
C328 C332 1.368 . S
C329 C310 1.429 . S
C329 C323 1.429 . S
C329 C330 1.523 . S
C330 C311 1.368 . S
C330 C324 1.368 . S
C330 C329 1.523 . S
C331 C315 1.429 . S
C331 C327 1.429 . S
C331 C332 1.523 . S
C332 C316 1.368 . S
C332 C328 1.368 . S
C332 C331 1.523 . S
H333 C308 0.950 . S
H334 C310 0.950 . S
H335 C311 0.949 . S
H336 C313 0.950 . S
H337 C315 0.950 . S
C338 C339 1.349 . S
C338 C340 1.327 . S
C338 H363 0.950 . S
C339 C338 1.349 . S
C339 C355 1.349 . S
C340 C338 1.327 . S
C340 C359 1.429 . S
C340 H364 0.950 . S
C341 C358 1.574 . S
C341 C360 1.368 . S
C341 H365 0.949 . S
H342 C346 0.949 . S
C343 C344 1.349 . S
C343 C345 1.327 . S
C343 H366 0.950 . S
C344 C343 1.349 . S
C344 C356 1.349 . S
C345 C343 1.327 . S
C345 C361 1.429 . S
C345 H367 0.950 . S
C346 H342 0.949 . S
C346 C354 1.574 . S
C346 C362 1.368 . S
H347 C355 0.950 . S
H348 C353 0.950 . S
H349 C354 0.949 . S
H350 C356 0.950 . S
H351 C357 0.950 . S
H352 C358 0.949 . S
C353 H348 0.950 . S
C353 C355 1.327 . S
C353 C359 1.429 . S
C354 C346 1.574 . S
C354 H349 0.949 . S
C354 C360 1.368 . S
C355 C339 1.349 . S
C355 H347 0.950 . S
C355 C353 1.327 . S
C356 C344 1.349 . S
C356 H350 0.950 . S
C356 C357 1.327 . S
C357 H351 0.950 . S
C357 C356 1.327 . S
C357 C361 1.429 . S
C358 C341 1.574 . S
C358 H352 0.949 . S
C358 C362 1.368 . S
C359 C340 1.429 . S
C359 C353 1.429 . S
C359 C360 1.523 . S
C360 C341 1.368 . S
C360 C354 1.368 . S
C360 C359 1.523 . S
C361 C345 1.429 . S
C361 C357 1.429 . S
C361 C362 1.523 . S
C362 C346 1.368 . S
C362 C358 1.368 . S
C362 C361 1.523 . S
H363 C338 0.950 . S
H364 C340 0.950 . S
H365 C341 0.949 . S
H366 C343 0.950 . S
H367 C345 0.950 . S
C368 C369 1.349 . S
C368 C370 1.327 . S
C368 H393 0.950 . S
C369 C368 1.349 . S
C369 C385 1.349 . S
C370 C368 1.327 . S
C370 C389 1.429 . S
C370 H394 0.950 1_565 S
C371 C388 1.574 . S
C371 C390 1.368 1_556 S
C371 H395 0.949 . S
H372 C376 0.949 . S
C373 C374 1.383 . S
C373 C375 1.327 . S
C373 H396 0.950 . S
C374 C373 1.383 . S
C374 C386 1.322 1_565 S
C375 C373 1.327 . S
C375 C391 1.429 . S
C375 H397 0.950 . S
C376 H372 0.949 . S
C376 C384 1.573 1_546 S
C376 C392 1.368 1_545 S
H377 C385 0.950 . S
H378 C383 0.950 . S
H379 C384 0.945 1_545 S
H380 C386 0.950 . S
H381 C387 0.950 . S
H382 C388 0.949 . S
C383 H378 0.950 . S
C383 C385 1.327 . S
C383 C389 1.429 . S
C384 C376 1.573 1_564 S
C384 H379 0.945 1_565 S
C384 C390 1.373 . S
C385 C369 1.349 . S
C385 H377 0.950 . S
C385 C383 1.327 . S
C386 C374 1.322 1_545 S
C386 H380 0.950 . S
C386 C387 1.327 . S
C387 H381 0.950 . S
C387 C386 1.327 . S
C387 C391 1.429 1_545 S
C388 C371 1.574 . S
C388 H382 0.949 . S
C388 C392 1.368 . S
C389 C370 1.429 . S
C389 C383 1.429 . S
C389 C390 1.523 . S
C390 C371 1.368 1_554 S
C390 C384 1.373 . S
C390 C389 1.523 . S
C391 C375 1.429 . S
C391 C387 1.429 1_565 S
C391 C392 1.523 . S
C392 C376 1.368 1_565 S
C392 C388 1.368 . S
C392 C391 1.523 . S
H393 C368 0.950 . S
H394 C370 0.950 1_545 S
H395 C371 0.949 . S
H396 C373 0.950 . S
H397 C375 0.950 . S
C398 C399 1.349 . S
C398 C400 1.327 . S
C398 H423 0.950 . S
C399 C398 1.349 . S
C399 C415 1.349 . S
C400 C398 1.327 . S
C400 C419 1.429 . S
C400 H424 0.950 . S
C401 C418 1.574 . S
C401 C420 1.368 1_556 S
C401 H425 0.949 . S
H402 C406 0.949 . S
C403 C404 1.349 . S
C403 C405 1.327 . S
C403 H426 0.950 . S
C404 C403 1.349 . S
C404 C416 1.349 . S
C405 C403 1.327 . S
C405 C421 1.429 . S
C405 H427 0.950 . S
C406 H402 0.949 . S
C406 C414 1.574 1_556 S
C406 C422 1.368 . S
H407 C415 0.950 . S
H408 C413 0.950 . S
H409 C414 0.949 . S
H410 C416 0.950 . S
H411 C417 0.950 . S
H412 C418 0.949 . S
C413 H408 0.950 . S
C413 C415 1.327 . S
C413 C419 1.429 . S
C414 C406 1.574 1_554 S
C414 H409 0.949 . S
C414 C420 1.368 . S
C415 C399 1.349 . S
C415 H407 0.950 . S
C415 C413 1.327 . S
C416 C404 1.349 . S
C416 H410 0.950 . S
C416 C417 1.327 . S
C417 H411 0.950 . S
C417 C416 1.327 . S
C417 C421 1.429 . S
C418 C401 1.574 . S
C418 H412 0.949 . S
C418 C422 1.368 . S
C419 C400 1.429 . S
C419 C413 1.429 . S
C419 C420 1.523 . S
C420 C401 1.368 1_554 S
C420 C414 1.368 . S
C420 C419 1.523 . S
C421 C405 1.429 . S
C421 C417 1.429 . S
C421 C422 1.523 . S
C422 C406 1.368 . S
C422 C418 1.368 . S
C422 C421 1.523 . S
H423 C398 0.950 . S
H424 C400 0.950 . S
H425 C401 0.949 . S
H426 C403 0.950 . S
H427 C405 0.950 . S
C428 C429 1.349 . S
C428 C430 1.327 . S
C428 H453 0.950 . S
C429 C428 1.349 . S
C429 C445 1.349 . S
C430 C428 1.327 . S
C430 C449 1.429 . S
C430 H454 0.950 . S
C431 C448 1.574 . S
C431 C450 1.368 . S
C431 H455 0.949 . S
H432 C436 0.949 . S
C433 C434 1.349 . S
C433 C435 1.327 . S
C433 H456 0.950 . S
C434 C433 1.349 . S
C434 C446 1.349 . S
C435 C433 1.327 . S
C435 C451 1.429 . S
C435 H457 0.950 . S
C436 H432 0.949 . S
C436 C444 1.574 1_556 S
C436 C452 1.368 . S
H437 C445 0.950 . S
H438 C443 0.950 1_556 S
H439 C444 0.949 . S
H440 C446 0.950 . S
H441 C447 0.950 . S
H442 C448 0.949 . S
C443 H438 0.950 1_554 S
C443 C445 1.327 . S
C443 C449 1.429 . S
C444 C436 1.574 1_554 S
C444 H439 0.949 . S
C444 C450 1.368 1_554 S
C445 C429 1.349 . S
C445 H437 0.950 . S
C445 C443 1.327 . S
C446 C434 1.349 . S
C446 H440 0.950 . S
C446 C447 1.327 . S
C447 H441 0.950 . S
C447 C446 1.327 . S
C447 C451 1.429 . S
C448 C431 1.574 . S
C448 H442 0.949 . S
C448 C452 1.368 . S
C449 C430 1.429 . S
C449 C443 1.429 . S
C449 C450 1.523 1_554 S
C450 C431 1.368 . S
C450 C444 1.368 1_556 S
C450 C449 1.523 1_556 S
C451 C435 1.429 . S
C451 C447 1.429 . S
C451 C452 1.523 . S
C452 C436 1.368 . S
C452 C448 1.368 . S
C452 C451 1.523 . S
H453 C428 0.950 . S
H454 C430 0.950 . S
H455 C431 0.949 . S
H456 C433 0.950 . S
H457 C435 0.950 . S
C458 C459 1.349 . S
C458 C460 1.327 . S
C458 H483 0.950 . S
C459 C458 1.349 . S
C459 C475 1.349 . S
C460 C458 1.327 . S
C460 C479 1.429 . S
C460 H484 0.950 . S
C461 C478 1.574 . S
C461 C480 1.368 1_556 S
C461 H485 0.949 . S
H462 C466 0.949 1_554 S
C463 C464 1.349 . S
C463 C465 1.327 . S
C463 H486 0.950 . S
C464 C463 1.349 . S
C464 C476 1.349 . S
C465 C463 1.327 . S
C465 C481 1.429 . S
C465 H487 0.950 . S
C466 H462 0.949 1_556 S
C466 C474 1.574 1_556 S
C466 C482 1.368 . S
H467 C475 0.950 . S
H468 C473 0.950 . S
H469 C474 0.949 . S
H470 C476 0.950 . S
H471 C477 0.950 . S
H472 C478 0.949 . S
C473 H468 0.950 . S
C473 C475 1.327 . S
C473 C479 1.429 . S
C474 C466 1.574 1_554 S
C474 H469 0.949 . S
C474 C480 1.368 . S
C475 C459 1.349 . S
C475 H467 0.950 . S
C475 C473 1.327 . S
C476 C464 1.349 . S
C476 H470 0.950 . S
C476 C477 1.327 . S
C477 H471 0.950 . S
C477 C476 1.327 . S
C477 C481 1.429 . S
C478 C461 1.574 . S
C478 H472 0.949 . S
C478 C482 1.368 . S
C479 C460 1.429 . S
C479 C473 1.429 . S
C479 C480 1.523 . S
C480 C461 1.368 1_554 S
C480 C474 1.368 . S
C480 C479 1.523 . S
C481 C465 1.429 . S
C481 C477 1.429 . S
C481 C482 1.523 . S
C482 C466 1.368 . S
C482 C478 1.368 . S
C482 C481 1.523 . S
H483 C458 0.950 . S
H484 C460 0.950 . S
H485 C461 0.949 . S
H486 C463 0.950 . S
H487 C465 0.950 . S
C488 C489 1.349 . S
C488 C490 1.327 . S
C488 H513 0.950 . S
C489 C488 1.349 . S
C489 C505 1.349 . S
C490 C488 1.327 . S
C490 C509 1.429 . S
C490 H514 0.950 . S
C491 C508 1.574 . S
C491 C510 1.368 . S
C491 H515 0.949 . S
H492 C496 0.949 . S
C493 C494 1.349 . S
C493 C495 1.327 . S
C493 H516 0.950 1_455 S
C494 C493 1.349 . S
C494 C506 1.349 . S
C495 C493 1.327 . S
C495 C511 1.429 . S
C495 H517 0.950 . S
C496 H492 0.949 . S
C496 C504 1.574 . S
C496 C512 1.368 . S
H497 C505 0.950 . S
H498 C503 0.950 . S
H499 C504 0.949 . S
H500 C506 0.950 . S
H501 C507 0.950 . S
H502 C508 0.949 . S
C503 H498 0.950 . S
C503 C505 1.327 . S
C503 C509 1.429 . S
C504 C496 1.574 . S
C504 H499 0.949 . S
C504 C510 1.368 . S
C505 C489 1.349 . S
C505 H497 0.950 . S
C505 C503 1.327 . S
C506 C494 1.349 . S
C506 H500 0.950 . S
C506 C507 1.327 . S
C507 H501 0.950 . S
C507 C506 1.327 . S
C507 C511 1.429 . S
C508 C491 1.574 . S
C508 H502 0.949 . S
C508 C512 1.368 . S
C509 C490 1.429 . S
C509 C503 1.429 . S
C509 C510 1.523 . S
C510 C491 1.368 . S
C510 C504 1.368 . S
C510 C509 1.523 . S
C511 C495 1.429 . S
C511 C507 1.429 . S
C511 C512 1.523 . S
C512 C496 1.368 . S
C512 C508 1.368 . S
C512 C511 1.523 . S
H513 C488 0.950 . S
H514 C490 0.950 . S
H515 C491 0.949 . S
H516 C493 0.950 1_655 S
H517 C495 0.950 . S
C518 C519 1.349 . S
C518 C520 1.327 . S
C518 H543 0.950 . S
C519 C518 1.349 . S
C519 C535 1.349 . S
C520 C518 1.327 . S
C520 C539 1.429 . S
C520 H544 0.950 . S
C521 C538 1.574 . S
C521 C540 1.368 . S
C521 H545 0.949 . S
H522 C526 0.949 . S
C523 C524 1.349 1_565 S
C523 C525 1.327 1_565 S
C523 H546 0.950 . S
C524 C523 1.349 1_545 S
C524 C536 1.349 . S
C525 C523 1.327 1_545 S
C525 C541 1.429 . S
C525 H547 0.950 1_545 S
C526 H522 0.949 . S
C526 C534 1.574 . S
C526 C542 1.368 . S
H527 C535 0.950 . S
H528 C533 0.950 . S
H529 C534 0.949 . S
H530 C536 0.950 . S
H531 C537 0.950 . S
H532 C538 0.949 . S
C533 H528 0.950 . S
C533 C535 1.327 . S
C533 C539 1.429 . S
C534 C526 1.574 . S
C534 H529 0.949 . S
C534 C540 1.368 . S
C535 C519 1.349 . S
C535 H527 0.950 . S
C535 C533 1.327 . S
C536 C524 1.349 . S
C536 H530 0.950 . S
C536 C537 1.327 . S
C537 H531 0.950 . S
C537 C536 1.327 . S
C537 C541 1.429 . S
C538 C521 1.574 . S
C538 H532 0.949 . S
C538 C542 1.368 . S
C539 C520 1.429 . S
C539 C533 1.429 . S
C539 C540 1.523 . S
C540 C521 1.368 . S
C540 C534 1.368 . S
C540 C539 1.523 . S
C541 C525 1.429 . S
C541 C537 1.429 . S
C541 C542 1.523 . S
C542 C526 1.368 . S
C542 C538 1.368 . S
C542 C541 1.523 . S
H543 C518 0.950 . S
H544 C520 0.950 . S
H545 C521 0.949 . S
H546 C523 0.950 . S
H547 C525 0.950 1_565 S
C548 C549 1.349 . S
C548 C550 1.327 . S
C548 H573 0.950 . S
C549 C548 1.349 . S
C549 C565 1.349 . S
C550 C548 1.327 . S
C550 C569 1.429 . S
C550 H574 0.950 . S
C551 C568 1.574 . S
C551 C570 1.368 . S
C551 H575 0.949 . S
H552 C556 0.949 . S
C553 C554 1.349 . S
C553 C555 1.327 . S
C553 H576 0.950 . S
C554 C553 1.349 . S
C554 C566 1.349 . S
C555 C553 1.327 . S
C555 C571 1.429 . S
C555 H577 0.950 . S
C556 H552 0.949 . S
C556 C564 1.574 . S
C556 C572 1.368 . S
H557 C565 0.950 . S
H558 C563 0.950 . S
H559 C564 0.949 . S
H560 C566 0.950 . S
H561 C567 0.950 . S
H562 C568 0.949 . S
C563 H558 0.950 . S
C563 C565 1.327 . S
C563 C569 1.429 . S
C564 C556 1.574 . S
C564 H559 0.949 . S
C564 C570 1.368 . S
C565 C549 1.349 . S
C565 H557 0.950 . S
C565 C563 1.327 . S
C566 C554 1.349 . S
C566 H560 0.950 . S
C566 C567 1.327 . S
C567 H561 0.950 . S
C567 C566 1.327 . S
C567 C571 1.429 . S
C568 C551 1.574 . S
C568 H562 0.949 . S
C568 C572 1.368 . S
C569 C550 1.429 . S
C569 C563 1.429 . S
C569 C570 1.523 . S
C570 C551 1.368 . S
C570 C564 1.368 . S
C570 C569 1.523 . S
C571 C555 1.429 . S
C571 C567 1.429 . S
C571 C572 1.523 . S
C572 C556 1.368 . S
C572 C568 1.368 . S
C572 C571 1.523 . S
H573 C548 0.950 . S
H574 C550 0.950 . S
H575 C551 0.949 . S
H576 C553 0.950 . S
H577 C555 0.950 . S
C578 C579 1.349 . S
C578 C580 1.327 . S
C578 H603 0.950 . S
C579 C578 1.349 . S
C579 C595 1.349 . S
C580 C578 1.327 . S
C580 C599 1.429 . S
C580 H604 0.950 . S
C581 C598 1.574 . S
C581 C600 1.368 . S
C581 H605 0.949 . S
H582 C586 0.949 . S
C583 C584 1.349 . S
C583 C585 1.327 . S
C583 H606 0.950 . S
C584 C583 1.349 . S
C584 C596 1.349 . S
C585 C583 1.327 . S
C585 C601 1.429 . S
C585 H607 0.950 . S
C586 H582 0.949 . S
C586 C594 1.574 . S
C586 C602 1.368 . S
H587 C595 0.950 . S
H588 C593 0.950 . S
H589 C594 0.949 . S
H590 C596 0.950 . S
H591 C597 0.950 . S
H592 C598 0.949 . S
C593 H588 0.950 . S
C593 C595 1.327 . S
C593 C599 1.429 . S
C594 C586 1.574 . S
C594 H589 0.949 . S
C594 C600 1.368 . S
C595 C579 1.349 . S
C595 H587 0.950 . S
C595 C593 1.327 . S
C596 C584 1.349 . S
C596 H590 0.950 . S
C596 C597 1.327 . S
C597 H591 0.950 . S
C597 C596 1.327 . S
C597 C601 1.429 . S
C598 C581 1.574 . S
C598 H592 0.949 . S
C598 C602 1.368 . S
C599 C580 1.429 . S
C599 C593 1.429 . S
C599 C600 1.523 . S
C600 C581 1.368 . S
C600 C594 1.368 . S
C600 C599 1.523 . S
C601 C585 1.429 . S
C601 C597 1.429 . S
C601 C602 1.523 . S
C602 C586 1.368 . S
C602 C598 1.368 . S
C602 C601 1.523 . S
H603 C578 0.950 . S
H604 C580 0.950 . S
H605 C581 0.949 . S
H606 C583 0.950 . S
H607 C585 0.950 . S
C608 C609 1.349 . S
C608 C610 1.327 . S
C608 H633 0.950 . S
C609 C608 1.349 . S
C609 C625 1.349 . S
C610 C608 1.327 . S
C610 C629 1.429 . S
C610 H634 0.950 . S
C611 C628 1.574 . S
C611 C630 1.368 . S
C611 H635 0.949 . S
H612 C616 0.949 1_556 S
C613 C614 1.349 1_554 S
C613 C615 1.327 1_455 S
C613 H636 0.950 . S
C614 C613 1.349 1_556 S
C614 C626 1.349 . S
C615 C613 1.327 1_655 S
C615 C631 1.429 . S
C615 H637 0.950 . S
C616 H612 0.949 1_554 S
C616 C624 1.574 . S
C616 C632 1.368 . S
H617 C625 0.950 . S
H618 C623 0.950 . S
H619 C624 0.949 . S
H620 C626 0.950 . S
H621 C627 0.950 . S
H622 C628 0.949 . S
C623 H618 0.950 . S
C623 C625 1.327 . S
C623 C629 1.429 . S
C624 C616 1.574 . S
C624 H619 0.949 . S
C624 C630 1.368 . S
C625 C609 1.349 . S
C625 H617 0.950 . S
C625 C623 1.327 . S
C626 C614 1.349 . S
C626 H620 0.950 . S
C626 C627 1.327 . S
C627 H621 0.950 . S
C627 C626 1.327 . S
C627 C631 1.429 1_456 S
C628 C611 1.574 . S
C628 H622 0.949 . S
C628 C632 1.368 . S
C629 C610 1.429 . S
C629 C623 1.429 . S
C629 C630 1.523 . S
C630 C611 1.368 . S
C630 C624 1.368 . S
C630 C629 1.523 . S
C631 C615 1.429 . S
C631 C627 1.429 1_654 S
C631 C632 1.523 . S
C632 C616 1.368 . S
C632 C628 1.368 . S
C632 C631 1.523 . S
H633 C608 0.950 . S
H634 C610 0.950 . S
H635 C611 0.949 . S
H636 C613 0.950 . S
H637 C615 0.950 . S
C638 C639 1.349 . S
C638 C640 1.327 . S
C638 H663 0.950 . S
C639 C638 1.349 . S
C639 C655 1.349 . S
C640 C638 1.327 . S
C640 C659 1.429 . S
C640 H664 0.950 . S
C641 C658 1.574 . S
C641 C660 1.368 1_545 S
C641 H665 0.949 . S
H642 C646 0.949 . S
C643 C644 1.349 . S
C643 C645 1.327 . S
C643 H666 0.950 . S
C644 C643 1.349 . S
C644 C656 1.349 1_545 S
C645 C643 1.327 . S
C645 C661 1.429 . S
C645 H667 0.950 . S
C646 H642 0.949 . S
C646 C654 1.574 . S
C646 C662 1.313 1_565 S
H647 C655 0.950 1_545 S
H648 C653 0.950 1_545 S
H649 C654 0.949 . S
H650 C656 0.950 . S
H651 C657 0.950 . S
H652 C658 0.949 . S
C653 H648 0.950 1_565 S
C653 C655 1.327 . S
C653 C659 1.429 . S
C654 C646 1.574 . S
C654 H649 0.949 . S
C654 C660 1.368 . S
C655 C639 1.349 . S
C655 H647 0.950 1_565 S
C655 C653 1.327 . S
C656 C644 1.349 1_565 S
C656 H650 0.950 . S
C656 C657 1.327 . S
C657 H651 0.950 . S
C657 C656 1.327 . S
C657 C661 1.429 1_565 S
C658 C641 1.574 . S
C658 H652 0.949 . S
C658 C662 1.413 . S
C659 C640 1.429 . S
C659 C653 1.429 . S
C659 C660 1.523 . S
C660 C641 1.368 1_565 S
C660 C654 1.368 . S
C660 C659 1.523 . S
C661 C645 1.429 . S
C661 C657 1.429 1_545 S
C661 C662 1.539 1_556 S
C662 C646 1.313 1_545 S
C662 C658 1.413 . S
C662 C661 1.539 1_554 S
H663 C638 0.950 . S
H664 C640 0.950 . S
H665 C641 0.949 . S
H666 C643 0.950 . S
H667 C645 0.950 . S
C668 C669 1.349 . S
C668 C670 1.327 . S
C668 H693 0.950 . S
C669 C668 1.349 . S
C669 C685 1.349 . S
C670 C668 1.327 . S
C670 C689 1.429 . S
C670 H694 0.950 . S
C671 C688 1.574 . S
C671 C690 1.368 . S
C671 H695 0.949 . S
H672 C676 0.949 . S
C673 C674 1.349 . S
C673 C675 1.327 . S
C673 H696 0.950 . S
C674 C673 1.349 . S
C674 C686 1.349 . S
C675 C673 1.327 . S
C675 C691 1.429 . S
C675 H697 0.950 . S
C676 H672 0.949 . S
C676 C684 1.574 1_556 S
C676 C692 1.368 . S
H677 C685 0.950 . S
H678 C683 0.950 . S
H679 C684 0.949 1_556 S
H680 C686 0.950 . S
H681 C687 0.950 . S
H682 C688 0.949 . S
C683 H678 0.950 . S
C683 C685 1.327 . S
C683 C689 1.429 . S
C684 C676 1.574 1_554 S
C684 H679 0.949 1_554 S
C684 C690 1.368 . S
C685 C669 1.349 . S
C685 H677 0.950 . S
C685 C683 1.327 . S
C686 C674 1.349 . S
C686 H680 0.950 . S
C686 C687 1.327 . S
C687 H681 0.950 . S
C687 C686 1.327 . S
C687 C691 1.429 . S
C688 C671 1.574 . S
C688 H682 0.949 . S
C688 C692 1.368 1_554 S
C689 C670 1.429 . S
C689 C683 1.429 . S
C689 C690 1.523 . S
C690 C671 1.368 . S
C690 C684 1.368 . S
C690 C689 1.523 . S
C691 C675 1.429 . S
C691 C687 1.429 . S
C691 C692 1.523 . S
C692 C676 1.368 . S
C692 C688 1.368 1_556 S
C692 C691 1.523 . S
H693 C668 0.950 . S
H694 C670 0.950 . S
H695 C671 0.949 . S
H696 C673 0.950 . S
H697 C675 0.950 . S
C698 C699 1.349 . S
C698 C700 1.327 . S
C698 H723 0.950 . S
C699 C698 1.349 . S
C699 C715 1.349 . S
C700 C698 1.327 . S
C700 C719 1.429 . S
C700 H724 0.950 . S
C701 C718 1.574 . S
C701 C720 1.368 . S
C701 H725 0.949 . S
H702 C706 0.949 . S
C703 C704 1.349 1_554 S
C703 C705 1.327 . S
C703 H726 0.950 . S
C704 C703 1.349 1_556 S
C704 C716 1.349 . S
C705 C703 1.327 . S
C705 C721 1.429 1_554 S
C705 H727 0.950 . S
C706 H702 0.949 . S
C706 C714 1.574 1_556 S
C706 C722 1.368 1_556 S
H707 C715 0.950 . S
H708 C713 0.950 . S
H709 C714 0.949 1_556 S
H710 C716 0.950 . S
H711 C717 0.950 . S
H712 C718 0.949 . S
C713 H708 0.950 . S
C713 C715 1.327 . S
C713 C719 1.429 . S
C714 C706 1.574 1_554 S
C714 H709 0.949 1_554 S
C714 C720 1.368 . S
C715 C699 1.349 . S
C715 H707 0.950 . S
C715 C713 1.327 . S
C716 C704 1.349 . S
C716 H710 0.950 . S
C716 C717 1.327 . S
C717 H711 0.950 . S
C717 C716 1.327 . S
C717 C721 1.429 . S
C718 C701 1.574 . S
C718 H712 0.949 . S
C718 C722 1.368 . S
C719 C700 1.429 . S
C719 C713 1.429 . S
C719 C720 1.523 . S
C720 C701 1.368 . S
C720 C714 1.368 . S
C720 C719 1.523 . S
C721 C705 1.429 1_556 S
C721 C717 1.429 . S
C721 C722 1.523 1_556 S
C722 C706 1.368 1_554 S
C722 C718 1.368 . S
C722 C721 1.523 1_554 S
H723 C698 0.950 . S
H724 C700 0.950 . S
H725 C701 0.949 . S
H726 C703 0.950 . S
H727 C705 0.950 . S
C728 C729 1.349 . S
C728 C730 1.327 . S
C728 H753 0.950 . S
C729 C728 1.349 . S
C729 C745 1.349 . S
C730 C728 1.327 . S
C730 C749 1.429 . S
C730 H754 0.950 . S
C731 C748 1.574 . S
C731 C750 1.368 . S
C731 H755 0.949 . S
H732 C736 0.949 . S
C733 C734 1.349 . S
C733 C735 1.327 . S
C733 H756 0.950 . S
C734 C733 1.349 . S
C734 C746 1.349 . S
C735 C733 1.327 . S
C735 C751 1.429 . S
C735 H757 0.950 . S
C736 H732 0.949 . S
C736 C744 1.574 . S
C736 C752 1.368 . S
H737 C745 0.950 . S
H738 C743 0.950 . S
H739 C744 0.949 . S
H740 C746 0.950 . S
H741 C747 0.950 . S
H742 C748 0.949 . S
C743 H738 0.950 . S
C743 C745 1.327 . S
C743 C749 1.429 . S
C744 C736 1.574 . S
C744 H739 0.949 . S
C744 C750 1.368 . S
C745 C729 1.349 . S
C745 H737 0.950 . S
C745 C743 1.327 . S
C746 C734 1.349 . S
C746 H740 0.950 . S
C746 C747 1.327 . S
C747 H741 0.950 . S
C747 C746 1.327 . S
C747 C751 1.429 . S
C748 C731 1.574 . S
C748 H742 0.949 . S
C748 C752 1.368 . S
C749 C730 1.429 . S
C749 C743 1.429 . S
C749 C750 1.523 . S
C750 C731 1.368 . S
C750 C744 1.368 . S
C750 C749 1.523 . S
C751 C735 1.429 . S
C751 C747 1.429 . S
C751 C752 1.523 . S
C752 C736 1.368 . S
C752 C748 1.368 . S
C752 C751 1.523 . S
H753 C728 0.950 . S
H754 C730 0.950 . S
H755 C731 0.949 . S
H756 C733 0.950 . S
H757 C735 0.950 . S
C758 C759 1.349 . S
C758 C760 1.327 . S
C758 H783 0.950 . S
C759 C758 1.349 . S
C759 C775 1.349 . S
C760 C758 1.327 . S
C760 C779 1.429 . S
C760 H784 0.950 . S
C761 C778 1.574 . S
C761 C780 1.368 . S
C761 H785 0.949 . S
H762 C766 0.949 . S
C763 C764 1.349 . S
C763 C765 1.327 . S
C763 H786 0.950 . S
C764 C763 1.349 . S
C764 C776 1.349 . S
C765 C763 1.327 . S
C765 C781 1.429 . S
C765 H787 0.950 . S
C766 H762 0.949 . S
C766 C774 1.574 . S
C766 C782 1.368 . S
H767 C775 0.950 . S
H768 C773 0.950 . S
H769 C774 0.949 . S
H770 C776 0.950 1_565 S
H771 C777 0.950 . S
H772 C778 0.949 . S
C773 H768 0.950 . S
C773 C775 1.327 . S
C773 C779 1.429 . S
C774 C766 1.574 . S
C774 H769 0.949 . S
C774 C780 1.368 . S
C775 C759 1.349 . S
C775 H767 0.950 . S
C775 C773 1.327 . S
C776 C764 1.349 . S
C776 H770 0.950 1_545 S
C776 C777 1.327 . S
C777 H771 0.950 . S
C777 C776 1.327 . S
C777 C781 1.429 . S
C778 C761 1.574 . S
C778 H772 0.949 . S
C778 C782 1.368 . S
C779 C760 1.429 . S
C779 C773 1.429 . S
C779 C780 1.523 . S
C780 C761 1.368 . S
C780 C774 1.368 . S
C780 C779 1.523 . S
C781 C765 1.429 . S
C781 C777 1.429 . S
C781 C782 1.523 . S
C782 C766 1.368 . S
C782 C778 1.368 . S
C782 C781 1.523 . S
H783 C758 0.950 . S
H784 C760 0.950 . S
H785 C761 0.949 . S
H786 C763 0.950 . S
H787 C765 0.950 . S
C788 C789 1.349 . S
C788 C790 1.327 . S
C788 H813 0.950 . S
C789 C788 1.349 . S
C789 C805 1.349 . S
C790 C788 1.327 . S
C790 C809 1.429 . S
C790 H814 0.950 . S
C791 C808 1.574 . S
C791 C810 1.368 . S
C791 H815 0.949 . S
H792 C796 0.949 . S
C793 C794 1.349 . S
C793 C795 1.327 . S
C793 H816 0.950 . S
C794 C793 1.349 . S
C794 C806 1.349 . S
C795 C793 1.327 . S
C795 C811 1.429 . S
C795 H817 0.950 . S
C796 H792 0.949 . S
C796 C804 1.574 . S
C796 C812 1.368 . S
H797 C805 0.950 . S
H798 C803 0.950 . S
H799 C804 0.949 . S
H800 C806 0.950 . S
H801 C807 0.950 . S
H802 C808 0.949 . S
C803 H798 0.950 . S
C803 C805 1.327 . S
C803 C809 1.429 . S
C804 C796 1.574 . S
C804 H799 0.949 . S
C804 C810 1.368 . S
C805 C789 1.349 . S
C805 H797 0.950 . S
C805 C803 1.327 . S
C806 C794 1.349 . S
C806 H800 0.950 . S
C806 C807 1.327 . S
C807 H801 0.950 . S
C807 C806 1.327 . S
C807 C811 1.429 . S
C808 C791 1.574 . S
C808 H802 0.949 . S
C808 C812 1.368 . S
C809 C790 1.429 . S
C809 C803 1.429 . S
C809 C810 1.523 . S
C810 C791 1.368 . S
C810 C804 1.368 . S
C810 C809 1.523 . S
C811 C795 1.429 . S
C811 C807 1.429 . S
C811 C812 1.523 . S
C812 C796 1.368 . S
C812 C808 1.368 . S
C812 C811 1.523 . S
H813 C788 0.950 . S
H814 C790 0.950 . S
H815 C791 0.949 . S
H816 C793 0.950 . S
H817 C795 0.950 . S
C818 C819 1.349 . S
C818 C820 1.327 . S
C818 H843 0.950 . S
C819 C818 1.349 . S
C819 C835 1.349 . S
C820 C818 1.327 . S
C820 C839 1.429 . S
C820 H844 0.950 . S
C821 C838 1.574 . S
C821 C840 1.368 . S
C821 H845 0.949 . S
H822 C826 0.949 . S
C823 C824 1.349 . S
C823 C825 1.327 . S
C823 H846 0.950 . S
C824 C823 1.349 . S
C824 C836 1.349 . S
C825 C823 1.327 . S
C825 C841 1.429 . S
C825 H847 0.950 . S
C826 H822 0.949 . S
C826 C834 1.574 . S
C826 C842 1.368 . S
H827 C835 0.950 . S
H828 C833 0.950 . S
H829 C834 0.949 . S
H830 C836 0.950 . S
H831 C837 0.950 . S
H832 C838 0.949 . S
C833 H828 0.950 . S
C833 C835 1.327 . S
C833 C839 1.429 . S
C834 C826 1.574 . S
C834 H829 0.949 . S
C834 C840 1.368 . S
C835 C819 1.349 . S
C835 H827 0.950 . S
C835 C833 1.327 . S
C836 C824 1.349 . S
C836 H830 0.950 . S
C836 C837 1.327 . S
C837 H831 0.950 . S
C837 C836 1.327 . S
C837 C841 1.429 . S
C838 C821 1.574 . S
C838 H832 0.949 . S
C838 C842 1.368 . S
C839 C820 1.429 . S
C839 C833 1.429 . S
C839 C840 1.523 . S
C840 C821 1.368 . S
C840 C834 1.368 . S
C840 C839 1.523 . S
C841 C825 1.429 . S
C841 C837 1.429 . S
C841 C842 1.523 . S
C842 C826 1.368 . S
C842 C838 1.368 . S
C842 C841 1.523 . S
H843 C818 0.950 . S
H844 C820 0.950 . S
H845 C821 0.949 . S
H846 C823 0.950 . S
H847 C825 0.950 . S
C848 C849 1.349 . S
C848 C850 1.327 . S
C848 H873 0.950 . S
C849 C848 1.349 . S
C849 C865 1.349 . S
C850 C848 1.327 . S
C850 C869 1.429 . S
C850 H874 0.950 . S
C851 C868 1.574 . S
C851 C870 1.368 . S
C851 H875 0.949 . S
H852 C856 0.949 . S
C853 C854 1.349 1_455 S
C853 C855 1.329 . S
C853 H876 0.950 . S
C854 C853 1.349 1_655 S
C854 C866 1.349 . S
C855 C853 1.329 . S
C855 C871 1.420 1_455 S
C855 H877 0.957 . S
C856 H852 0.949 . S
C856 C864 1.574 . S
C856 C872 1.368 . S
H857 C865 0.950 . S
H858 C863 0.950 . S
H859 C864 0.949 . S
H860 C866 0.950 . S
H861 C867 0.950 . S
H862 C868 0.949 1_455 S
C863 H858 0.950 . S
C863 C865 1.327 . S
C863 C869 1.429 . S
C864 C856 1.574 . S
C864 H859 0.949 . S
C864 C870 1.368 . S
C865 C849 1.349 . S
C865 H857 0.950 . S
C865 C863 1.327 . S
C866 C854 1.349 . S
C866 H860 0.950 . S
C866 C867 1.327 . S
C867 H861 0.950 . S
C867 C866 1.327 . S
C867 C871 1.429 . S
C868 C851 1.574 . S
C868 H862 0.949 1_655 S
C868 C872 1.368 . S
C869 C850 1.429 . S
C869 C863 1.429 . S
C869 C870 1.523 . S
C870 C851 1.368 . S
C870 C864 1.368 . S
C870 C869 1.523 . S
C871 C855 1.420 1_655 S
C871 C867 1.429 . S
C871 C872 1.523 . S
C872 C856 1.368 . S
C872 C868 1.368 . S
C872 C871 1.523 . S
H873 C848 0.950 . S
H874 C850 0.950 . S
H875 C851 0.949 . S
H876 C853 0.950 . S
H877 C855 0.957 . S
C878 C879 1.349 . S
C878 C880 1.327 . S
C878 H903 0.950 1_565 S
C879 C878 1.349 . S
C879 C895 1.349 . S
C880 C878 1.327 . S
C880 C899 1.429 . S
C880 H904 0.950 1_565 S
C881 C898 1.574 . S
C881 C900 1.368 . S
C881 H905 0.949 . S
H882 C886 0.949 . S
C883 C884 1.349 . S
C883 C885 1.327 . S
C883 H906 0.950 . S
C884 C883 1.349 . S
C884 C896 1.349 1_565 S
C885 C883 1.327 . S
C885 C901 1.429 . S
C885 H907 0.950 . S
C886 H882 0.949 . S
C886 C894 1.576 . S
C886 C902 1.368 1_545 S
H887 C895 0.950 . S
H888 C893 0.950 . S
H889 C894 0.962 . S
H890 C896 0.950 . S
H891 C897 0.950 . S
H892 C898 0.949 . S
C893 H888 0.950 . S
C893 C895 1.327 . S
C893 C899 1.429 . S
C894 C886 1.576 . S
C894 H889 0.962 . S
C894 C900 1.352 1_545 S
C895 C879 1.349 . S
C895 H887 0.950 . S
C895 C893 1.327 . S
C896 C884 1.349 1_545 S
C896 H890 0.950 . S
C896 C897 1.327 . S
C897 H891 0.950 . S
C897 C896 1.327 . S
C897 C901 1.429 1_545 S
C898 C881 1.574 . S
C898 H892 0.949 . S
C898 C902 1.368 . S
C899 C880 1.429 . S
C899 C893 1.429 . S
C899 C900 1.523 . S
C900 C881 1.368 . S
C900 C894 1.352 1_565 S
C900 C899 1.523 . S
C901 C885 1.429 . S
C901 C897 1.429 1_565 S
C901 C902 1.523 . S
C902 C886 1.368 1_565 S
C902 C898 1.368 . S
C902 C901 1.523 . S
H903 C878 0.950 1_545 S
H904 C880 0.950 1_545 S
H905 C881 0.949 . S
H906 C883 0.950 . S
H907 C885 0.950 . S
C908 C909 1.349 . S
C908 C910 1.327 . S
C908 H933 0.950 . S
C909 C908 1.349 . S
C909 C925 1.349 . S
C910 C908 1.327 . S
C910 C929 1.429 . S
C910 H934 0.950 . S
C911 C928 1.574 . S
C911 C930 1.368 . S
C911 H935 0.949 . S
H912 C916 0.949 . S
C913 C914 1.349 . S
C913 C915 1.327 . S
C913 H936 0.950 . S
C914 C913 1.349 . S
C914 C926 1.349 . S
C915 C913 1.327 . S
C915 C931 1.429 . S
C915 H937 0.950 . S
C916 H912 0.949 . S
C916 C924 1.574 . S
C916 C932 1.368 . S
H917 C925 0.950 . S
H918 C923 0.950 . S
H919 C924 0.949 . S
H920 C926 0.950 . S
H921 C927 0.950 . S
H922 C928 0.949 . S
C923 H918 0.950 . S
C923 C925 1.327 . S
C923 C929 1.429 . S
C924 C916 1.574 . S
C924 H919 0.949 . S
C924 C930 1.368 . S
C925 C909 1.349 . S
C925 H917 0.950 . S
C925 C923 1.327 . S
C926 C914 1.349 . S
C926 H920 0.950 . S
C926 C927 1.327 . S
C927 H921 0.950 . S
C927 C926 1.327 . S
C927 C931 1.429 . S
C928 C911 1.574 . S
C928 H922 0.949 . S
C928 C932 1.368 . S
C929 C910 1.429 . S
C929 C923 1.429 . S
C929 C930 1.523 . S
C930 C911 1.368 . S
C930 C924 1.368 . S
C930 C929 1.523 . S
C931 C915 1.429 . S
C931 C927 1.429 . S
C931 C932 1.523 . S
C932 C916 1.368 . S
C932 C928 1.368 . S
C932 C931 1.523 . S
H933 C908 0.950 . S
H934 C910 0.950 . S
H935 C911 0.949 . S
H936 C913 0.950 . S
H937 C915 0.950 . S
C938 C939 1.349 . S
C938 C940 1.327 . S
C938 H963 0.950 . S
C939 C938 1.349 . S
C939 C955 1.349 . S
C940 C938 1.327 . S
C940 C959 1.429 . S
C940 H964 0.950 . S
C941 C958 1.574 . S
C941 C960 1.368 . S
C941 H965 0.949 . S
H942 C946 0.949 . S
C943 C944 1.349 . S
C943 C945 1.327 . S
C943 H966 0.950 . S
C944 C943 1.349 . S
C944 C956 1.349 . S
C945 C943 1.327 . S
C945 C961 1.429 . S
C945 H967 0.950 . S
C946 H942 0.949 . S
C946 C954 1.574 . S
C946 C962 1.368 . S
H947 C955 0.950 . S
H948 C953 0.950 . S
H949 C954 0.949 . S
H950 C956 0.950 . S
H951 C957 0.950 . S
H952 C958 0.949 . S
C953 H948 0.950 . S
C953 C955 1.327 . S
C953 C959 1.429 . S
C954 C946 1.574 . S
C954 H949 0.949 . S
C954 C960 1.368 . S
C955 C939 1.349 . S
C955 H947 0.950 . S
C955 C953 1.327 . S
C956 C944 1.349 . S
C956 H950 0.950 . S
C956 C957 1.327 . S
C957 H951 0.950 . S
C957 C956 1.327 . S
C957 C961 1.429 . S
C958 C941 1.574 . S
C958 H952 0.949 . S
C958 C962 1.368 . S
C959 C940 1.429 . S
C959 C953 1.429 . S
C959 C960 1.523 . S
C960 C941 1.368 . S
C960 C954 1.368 . S
C960 C959 1.523 . S
C961 C945 1.429 . S
C961 C957 1.429 . S
C961 C962 1.523 . S
C962 C946 1.368 . S
C962 C958 1.368 . S
C962 C961 1.523 . S
H963 C938 0.950 . S
H964 C940 0.950 . S
H965 C941 0.949 . S
H966 C943 0.950 . S
H967 C945 0.950 . S
C249 C76 2.134 . S
C254 C119 2.274 . S
C284 C145 1.680 . S
C279 C87 1.578 . S
C314 C185 1.826 . S
C309 C54 1.736 . S
C344 C239 2.363 . S
C339 C65 2.240 . S
C374 C100 2.268 1_565 S
C369 C32 2.140 . S
C399 C43 1.575 . S
C404 C130 1.680 . S
C429 C10 1.741 . S
C434 C170 1.826 . S
C459 C21 2.247 . S
C464 C220 2.363 1_655 S
C494 C96 0.295 . S
C489 C60 0.374 . S
C524 C157 0.544 . S
C519 C71 0.544 . S
C554 C197 0.430 . S
C549 C82 0.431 . S
C579 C49 0.359 . S
C584 C216 0.226 . S
C609 C16 0.392 . S
C614 C117 0.294 . S
C644 C136 0.544 . S
C639 C27 0.550 . S
C674 C176 0.430 . S
C669 C38 0.432 . S
C699 C5 0.377 . S
C704 C237 0.226 . S
C729 C59 1.765 . S
C734 C90 1.931 . S
C759 C70 2.372 . S
C764 C140 2.557 . S
C794 C180 2.302 . S
C789 C81 2.135 . S
C824 C210 1.675 . S
C819 C48 1.545 1_556 S
C849 C15 1.755 . S
C854 C105 1.930 . S
C884 C159 2.564 . S
C879 C26 2.366 . S
C914 C199 2.302 . S
C909 C37 2.143 . S
C939 C4 1.539 . S
C944 C225 1.675 . S
