# Generated by pormake.
# Topology zzz, (3,6)-cn, num edge types: 1
# Building blocks:
#     Node 0, Type 0, BuildingBlock: QEWDON_clean_linker_0, # of connection points: 3
#     Node 1, Type 0, BuildingBlock: QEWDON_clean_linker_0, # of connection points: 3
#     Node 2, Type 0, BuildingBlock: QEWDON_clean_linker_0, # of connection points: 3
#     Node 3, Type 0, BuildingBlock: QEWDON_clean_linker_0, # of connection points: 3
#     Node 4, Type 0, BuildingBlock: QEWDON_clean_linker_0, # of connection points: 3
#     Node 5, Type 0, BuildingBlock: QEWDON_clean_linker_0, # of connection points: 3
#     Node 6, Type 0, BuildingBlock: QEWDON_clean_linker_0, # of connection points: 3
#     Node 7, Type 0, BuildingBlock: QEWDON_clean_linker_0, # of connection points: 3
#     Node 8, Type 1, BuildingBlock: CIFDUS_clean_sbu_1, # of connection points: 6
#     Node 9, Type 1, BuildingBlock: CIFDUS_clean_sbu_1, # of connection points: 6
#     Node 10, Type 1, BuildingBlock: CIFDUS_clean_sbu_1, # of connection points: 6
#     Node 11, Type 1, BuildingBlock: CIFDUS_clean_sbu_1, # of connection points: 6
#     Edge 12, Type (0, 1), BuildingBlock: TEMPAE_clean_linker_10, # of connection points: 2
#     Edge 13, Type (0, 1), BuildingBlock: TEMPAE_clean_linker_10, # of connection points: 2
#     Edge 14, Type (0, 1), BuildingBlock: TEMPAE_clean_linker_10, # of connection points: 2
#     Edge 15, Type (0, 1), BuildingBlock: TEMPAE_clean_linker_10, # of connection points: 2
#     Edge 16, Type (0, 1), BuildingBlock: TEMPAE_clean_linker_10, # of connection points: 2
#     Edge 17, Type (0, 1), BuildingBlock: TEMPAE_clean_linker_10, # of connection points: 2
#     Edge 18, Type (0, 1), BuildingBlock: TEMPAE_clean_linker_10, # of connection points: 2
#     Edge 19, Type (0, 1), BuildingBlock: TEMPAE_clean_linker_10, # of connection points: 2
#     Edge 20, Type (0, 1), BuildingBlock: TEMPAE_clean_linker_10, # of connection points: 2
#     Edge 21, Type (0, 1), BuildingBlock: TEMPAE_clean_linker_10, # of connection points: 2
#     Edge 22, Type (0, 1), BuildingBlock: TEMPAE_clean_linker_10, # of connection points: 2
#     Edge 23, Type (0, 1), BuildingBlock: TEMPAE_clean_linker_10, # of connection points: 2
#     Edge 24, Type (0, 1), BuildingBlock: TEMPAE_clean_linker_10, # of connection points: 2
#     Edge 25, Type (0, 1), BuildingBlock: TEMPAE_clean_linker_10, # of connection points: 2
#     Edge 26, Type (0, 1), BuildingBlock: TEMPAE_clean_linker_10, # of connection points: 2
#     Edge 27, Type (0, 1), BuildingBlock: TEMPAE_clean_linker_10, # of connection points: 2
#     Edge 28, Type (0, 1), BuildingBlock: TEMPAE_clean_linker_10, # of connection points: 2
#     Edge 29, Type (0, 1), BuildingBlock: TEMPAE_clean_linker_10, # of connection points: 2
#     Edge 30, Type (0, 1), BuildingBlock: TEMPAE_clean_linker_10, # of connection points: 2
#     Edge 31, Type (0, 1), BuildingBlock: TEMPAE_clean_linker_10, # of connection points: 2
#     Edge 32, Type (0, 1), BuildingBlock: TEMPAE_clean_linker_10, # of connection points: 2
#     Edge 33, Type (0, 1), BuildingBlock: TEMPAE_clean_linker_10, # of connection points: 2
#     Edge 34, Type (0, 1), BuildingBlock: TEMPAE_clean_linker_10, # of connection points: 2
#     Edge 35, Type (0, 1), BuildingBlock: TEMPAE_clean_linker_10, # of connection points: 2
# Relax obj value: 0.089
# Max RMSD: 0.181
# Mean RMSD: 0.067
data_MOF--net-zzz--node1-CIFDUS_clean_sbu_1--node2-QEWDON_clean_linker_0--edge1-TEMPAE_clean_linker_10
_symmetry_space_group_name_H-M    P1
_symmetry_Int_Tables_number       1
_symmetry_cell_setting            triclinic
loop_
_symmetry_equiv_pos_as_xyz
'x, y, z'
_cell_length_a     53.9069
_cell_length_b     53.969429
_cell_length_c     15.822694
_cell_angle_alpha  90.120213
_cell_angle_beta   89.848163
_cell_angle_gamma 89.989011
loop_
_atom_site_label
_atom_site_type_symbol
_atom_site_fract_x
_atom_site_fract_y
_atom_site_fract_z
_atom_type_partial_charge
H0 H 0.78203 0.56219 -0.00207 0.0
C1 C 0.79328 0.55917 0.05359 0.0
C2 C 0.81771 0.55123 0.04321 0.0
C3 C 0.7839 0.5643 0.13509 0.0
H4 H 0.85201 0.54224 0.10302 0.0
C5 C 0.83308 0.54849 0.11313 0.0
C6 C 0.82546 0.55569 0.19383 0.0
C7 C 0.8004 0.56274 0.20555 0.0
C8 C 0.75771 0.57345 0.14401 0.0
H9 H 0.79408 0.56755 0.26845 0.0
C10 C 0.73848 0.56513 0.0894 0.0
C11 C 0.71419 0.57502 0.09525 0.0
C12 C 0.75203 0.59174 0.20441 0.0
H13 H 0.76619 0.59917 0.24568 0.0
C14 C 0.72815 0.60147 0.21056 0.0
H15 H 0.74223 0.55073 0.04334 0.0
C16 C 0.70945 0.59332 0.15655 0.0
H17 H 0.69125 0.60168 0.16214 0.0
H18 H 0.72417 0.61572 0.25689 0.0
H19 H 0.97439 0.78441 0.99346 0.0
C20 C 0.97891 0.79482 0.04996 0.0
C21 C 0.98447 0.81997 0.04239 0.0
C22 C 0.97752 0.7837 0.13054 0.0
H23 H 0.9936 0.85367 0.10636 0.0
C24 C 0.98926 0.83413 0.11409 0.0
C25 C 0.9852 0.82481 0.19489 0.0
C26 C 0.98027 0.79917 0.20367 0.0
C27 C 0.97014 0.75686 0.1366 0.0
H28 H 0.97781 0.79166 0.26649 0.0
C29 C 0.97717 0.73915 0.07389 0.0
C30 C 0.96769 0.71465 0.07559 0.0
C31 C 0.95422 0.74913 0.20198 0.0
H32 H 0.94782 0.76199 0.24986 0.0
C33 C 0.94537 0.72487 0.20488 0.0
H34 H 0.98949 0.74447 0.0229 0.0
C35 C 0.95185 0.70786 0.1422 0.0
H36 H 0.94452 0.68921 0.14607 0.0
H37 H 0.93303 0.71931 0.25546 0.0
H38 H 0.74615 0.96936 0.00349 0.0
C39 C 0.73655 0.97464 0.061 0.0
C40 C 0.71088 0.97846 0.05854 0.0
C41 C 0.7493 0.97568 0.13891 0.0
H42 H 0.67814 0.98776 0.12956 0.0
C43 C 0.69804 0.98462 0.13236 0.0
C44 C 0.70946 0.98393 0.21079 0.0
C45 C 0.73532 0.98007 0.21443 0.0
C46 C 0.77634 0.96892 0.14194 0.0
H47 H 0.74422 0.97977 0.27565 0.0
C48 C 0.79324 0.97529 0.07607 0.0
C49 C 0.81814 0.96676 0.07759 0.0
C50 C 0.78507 0.95434 0.20921 0.0
H51 H 0.77278 0.94839 0.2594 0.0
C52 C 0.80963 0.94638 0.21157 0.0
H53 H 0.78703 0.98646 0.02339 0.0
C54 C 0.82597 0.95242 0.14655 0.0
H55 H 0.84495 0.94593 0.1505 0.0
H56 H 0.81599 0.93515 0.26383 0.0
H57 H 0.56478 0.7485 0.00506 0.0
C58 C 0.55925 0.73844 0.06127 0.0
C59 C 0.55226 0.71366 0.05403 0.0
C60 C 0.56119 0.7495 0.14163 0.0
H61 H 0.54104 0.68066 0.11865 0.0
C62 C 0.546 0.70006 0.12584 0.0
C63 C 0.54831 0.71006 0.20667 0.0
C64 C 0.55623 0.73493 0.21485 0.0
C65 C 0.57222 0.77481 0.14751 0.0
H66 H 0.55868 0.74279 0.27732 0.0
C67 C 0.56463 0.79436 0.09336 0.0
C68 C 0.57785 0.81717 0.09055 0.0
C69 C 0.59261 0.77849 0.20072 0.0
H70 H 0.59906 0.76383 0.24185 0.0
C71 C 0.60597 0.8005 0.19756 0.0
H72 H 0.54846 0.79159 0.05415 0.0
C73 C 0.59911 0.81932 0.14218 0.0
H74 H 0.61098 0.83543 0.1397 0.0
H75 H 0.62221 0.80276 0.23693 0.0
H76 H 0.24507 0.47705 0.367 0.0
C77 C 0.23573 0.47653 0.30655 0.0
C78 C 0.21067 0.46942 0.30426 0.0
C79 C 0.24811 0.48407 0.23195 0.0
H80 H 0.17796 0.46659 0.227 0.0
C81 C 0.19775 0.47035 0.2278 0.0
C82 C 0.20895 0.47846 0.15374 0.0
C83 C 0.23424 0.48494 0.15527 0.0
C84 C 0.27478 0.49258 0.23501 0.0
H85 H 0.24277 0.49067 0.09658 0.0
C86 C 0.29188 0.48395 0.29703 0.0
C87 C 0.31671 0.49249 0.29763 0.0
C88 C 0.28328 0.51024 0.17602 0.0
H89 H 0.27095 0.51845 0.13017 0.0
C90 C 0.30783 0.51826 0.17603 0.0
H91 H 0.2862 0.47055 0.34403 0.0
C92 C 0.32443 0.50941 0.23593 0.0
H93 H 0.34332 0.51631 0.23546 0.0
H94 H 0.31395 0.53174 0.12992 0.0
H95 H 0.05013 0.25244 0.36143 0.0
C96 C 0.05395 0.24161 0.30521 0.0
C97 C 0.05942 0.2165 0.31477 0.0
C98 C 0.05175 0.2521 0.22391 0.0
H99 H 0.06389 0.18158 0.25366 0.0
C100 C 0.06201 0.20139 0.24385 0.0
C101 C 0.0595 0.21054 0.16196 0.0
C102 C 0.05466 0.23617 0.15202 0.0
C103 C 0.04387 0.27881 0.2156 0.0
H104 H 0.05295 0.24345 0.08868 0.0
C105 C 0.049 0.29684 0.27939 0.0
C106 C 0.03876 0.32095 0.27493 0.0
C107 C 0.0292 0.28608 0.14639 0.0
H108 H 0.02403 0.27306 0.09749 0.0
C109 C 0.01991 0.31012 0.14058 0.0
H110 H 0.06028 0.29213 0.33352 0.0
C111 C 0.02442 0.32731 0.20443 0.0
H112 H 0.01642 0.34567 0.19922 0.0
H113 H 0.00855 0.31527 0.0871 0.0
H114 H 0.28719 0.05248 0.34331 0.0
C115 C 0.29541 0.0611 0.28809 0.0
C116 C 0.32038 0.06824 0.2905 0.0
C117 C 0.28243 0.06115 0.21105 0.0
H118 H 0.35111 0.08293 0.22216 0.0
C119 C 0.33152 0.07832 0.21863 0.0
C120 C 0.32056 0.07534 0.13934 0.0
C121 C 0.2956 0.06731 0.13585 0.0
C122 C 0.25776 0.04855 0.20741 0.0
H123 H 0.287 0.06446 0.0748 0.0
C124 C 0.23797 0.05443 0.26384 0.0
C125 C 0.21584 0.03995 0.26534 0.0
C126 C 0.25514 0.02834 0.15237 0.0
H127 H 0.27004 0.02305 0.10991 0.0
C128 C 0.234 0.01369 0.15488 0.0
H129 H 0.23997 0.07018 0.30566 0.0
C130 C 0.21491 0.01903 0.21139 0.0
H131 H 0.19962 0.0061 0.21322 0.0
H132 H 0.23265 0.99763 0.11405 0.0
H133 H 0.48128 0.28814 0.35497 0.0
C134 C 0.47494 0.29678 0.29718 0.0
C135 C 0.46817 0.32186 0.29923 0.0
C136 C 0.47629 0.28387 0.21966 0.0
H137 H 0.45792 0.3538 0.22712 0.0
C138 C 0.46162 0.334 0.22479 0.0
C139 C 0.46579 0.32289 0.14668 0.0
C140 C 0.47229 0.29758 0.14387 0.0
C141 C 0.48539 0.25744 0.21784 0.0
H142 H 0.47494 0.28911 0.08252 0.0
C143 C 0.48117 0.24064 0.28599 0.0
C144 C 0.4915 0.21646 0.28464 0.0
C145 C 0.49976 0.24915 0.14881 0.0
H146 H 0.5045 0.2613 0.09703 0.0
C147 C 0.50911 0.22513 0.14617 0.0
H148 H 0.4704 0.24639 0.34047 0.0
C149 C 0.50508 0.20898 0.21313 0.0
H150 H 0.51287 0.1905 0.20929 0.0
H151 H 0.52001 0.21913 0.09232 0.0
O152 O 0.02431 0.04563 0.77342 0.0
Mn153 Mn 0.01595 0.01883 0.68056 0.0
O154 O 0.99361 0.07396 0.76304 0.0
Mn155 Mn 0.97596 0.05879 0.67587 0.0
O156 O 0.00753 0.99194 0.5873 0.0
O157 O 0.05408 0.01143 0.66734 0.0
Mn158 Mn 0.05242 0.9795 0.69738 0.0
O159 O 0.00783 0.99245 0.7711 0.0
O160 O 0.03534 0.96198 0.61496 0.0
O161 O 0.0226 0.04607 0.59079 0.0
O162 O 0.98687 0.06535 0.56765 0.0
O163 O 0.08474 0.9839 0.68074 0.0
O164 O 0.04248 0.97428 0.80713 0.0
C165 C 0.95485 0.02709 0.70711 0.0
C166 C 0.0137 0.06604 0.79616 0.0
C167 C 0.0169 0.97026 0.57356 0.0
C168 C 0.07798 0.00613 0.66 0.0
C169 C 0.0196 0.97756 0.81843 0.0
C170 C 0.00966 0.06213 0.55123 0.0
O171 O 0.97877 0.02662 0.69313 0.0
O172 O 0.94431 0.04835 0.69533 0.0
O173 O 0.54123 0.01766 0.78257 0.0
Mn174 Mn 0.51473 0.01866 0.68952 0.0
O175 O 0.56854 0.04797 0.76068 0.0
Mn176 Mn 0.55447 0.05892 0.66117 0.0
O177 O 0.48728 0.01913 0.59523 0.0
O178 O 0.50907 0.98198 0.72987 0.0
Mn179 Mn 0.47703 0.97919 0.7075 0.0
O180 O 0.48752 0.03153 0.7749 0.0
O181 O 0.47215 0.98116 0.59381 0.0
O182 O 0.54276 0.00672 0.60216 0.0
O183 O 0.56494 0.04105 0.56823 0.0
O184 O 0.48419 0.94925 0.74826 0.0
O185 O 0.45911 1.00103 0.77517 0.0
C186 C 0.51975 0.0787 0.66192 0.0
C187 C 0.5613 0.02893 0.80026 0.0
C188 C 0.47293 1.00268 0.56336 0.0
C189 C 0.50609 0.95889 0.75607 0.0
C190 C 0.46653 0.02239 0.79839 0.0
C191 C 0.55988 0.01808 0.55888 0.0
O192 O 0.52194 0.05469 0.6542 0.0
O193 O 0.54094 0.08991 0.6644 0.0
O194 O 0.52335 0.5416 0.79021 0.0
Mn195 Mn 0.51692 0.51675 0.69375 0.0
O196 O 0.48752 0.55748 0.83081 0.0
Mn197 Mn 0.47625 0.55495 0.72109 0.0
O198 O 0.51008 0.49151 0.59557 0.0
O199 O 0.5548 0.50935 0.71101 0.0
Mn200 Mn 0.55485 0.47902 0.66744 0.0
O201 O 0.50846 0.48828 0.77902 0.0
O202 O 0.54701 0.48021 0.55495 0.0
O203 O 0.52442 0.54636 0.60906 0.0
O204 O 0.49432 0.57382 0.64465 0.0
O205 O 0.58675 0.48362 0.69286 0.0
O206 O 0.5355 0.45896 0.73796 0.0
C207 C 0.4561 0.52498 0.66789 0.0
C208 C 0.51086 0.5559 0.83828 0.0
C209 C 0.52397 0.47982 0.54373 0.0
C210 C 0.57863 0.50462 0.7217 0.0
C211 C 0.51698 0.46604 0.78227 0.0
C212 C 0.51382 0.56789 0.60287 0.0
O213 O 0.47981 0.52427 0.68411 0.0
O214 O 0.44495 0.54496 0.69294 0.0
O215 O 0.04537 0.51308 0.76587 0.0
Mn216 Mn 0.01691 0.51878 0.67664 0.0
O217 O 0.07435 0.54128 0.72734 0.0
Mn218 Mn 0.0565 0.55764 0.64387 0.0
O219 O 0.9888 0.52463 0.58695 0.0
O220 O 0.00924 0.48171 0.67575 0.0
Mn221 Mn 0.9775 0.47824 0.69944 0.0
O222 O 0.99065 0.52738 0.76837 0.0
O223 O 0.96114 0.49386 0.61028 0.0
O224 O 0.04232 0.5096 0.5845 0.0
O225 O 0.06069 0.5436 0.5382 0.0
O226 O 0.98929 0.44665 0.68463 0.0
O227 O 0.97254 0.49198 0.80515 0.0
C228 C 0.02617 0.57995 0.68419 0.0
C229 C 0.06713 0.52299 0.77242 0.0
C230 C 0.9683 0.51324 0.5706 0.0
C231 C 0.00982 0.45775 0.66557 0.0
C232 C 0.97513 0.51523 0.81333 0.0
C233 C 0.05739 0.52037 0.53455 0.0
O234 O 0.02506 0.55587 0.67641 0.0
O235 O 0.04685 0.5898 0.65942 0.0
C236 C 0.19639 0.05795 0.40097 0.0
C237 C 0.19396 0.04521 0.32356 0.0
C238 C 0.17638 0.05968 0.45899 0.0
C239 C 0.1537 0.04711 0.44234 0.0
C240 C 0.15078 0.03541 0.36271 0.0
C241 C 0.17024 0.03588 0.30345 0.0
C242 C 0.18028 0.07422 0.53937 0.0
C243 C 0.12783 0.02048 0.34186 0.0
C244 C 0.12215 0.01384 0.62431 0.0
C245 C 0.09741 0.02202 0.61891 0.0
C246 C 0.14073 0.02264 0.57011 0.0
C247 C 0.13522 0.04166 0.51168 0.0
C248 C 0.11108 0.05249 0.51347 0.0
C249 C 0.09222 0.04213 0.56557 0.0
C250 C 0.16588 0.0102 0.5724 0.0
C251 C 0.10531 0.07507 0.46106 0.0
H252 H 0.21407 0.06596 0.41831 0.0
H253 H 0.16691 0.02775 0.24201 0.0
H254 H 0.16291 0.07699 0.576 0.0
H255 H 0.19408 0.06459 0.57953 0.0
H256 H 0.1882 0.09268 0.524 0.0
H257 H 0.12964 0.01031 0.28104 0.0
H258 H 0.12407 0.00677 0.39251 0.0
H259 H 0.11146 0.03281 0.33746 0.0
H260 H 0.12684 0.99901 0.66753 0.0
H261 H 0.07344 0.04919 0.56227 0.0
H262 H 0.17974 0.0232 0.59895 0.0
H263 H 0.17204 1.00496 0.50779 0.0
H264 H 0.16589 0.99325 0.61213 0.0
H265 H 0.11709 0.09069 0.48289 0.0
H266 H 0.08552 0.08067 0.46624 0.0
H267 H 0.1099 0.07193 0.39361 0.0
C268 C 0.51105 0.18668 0.38552 0.0
C269 C 0.48954 0.19871 0.35714 0.0
C270 C 0.50993 0.16685 0.44279 0.0
C271 C 0.48664 0.15859 0.47368 0.0
C272 C 0.46487 0.17153 0.44905 0.0
C273 C 0.46656 0.19145 0.3911 0.0
C274 C 0.53377 0.1541 0.4676 0.0
C275 C 0.43973 0.16368 0.48112 0.0
C276 C 0.49269 0.09122 0.54258 0.0
C277 C 0.49925 0.09406 0.62778 0.0
C278 C 0.48589 0.11191 0.49302 0.0
C279 C 0.48562 0.13599 0.52948 0.0
C280 C 0.48915 0.13834 0.61782 0.0
C281 C 0.49561 0.11735 0.66581 0.0
C282 C 0.48171 0.1084 0.39956 0.0
C283 C 0.48942 0.16344 0.66009 0.0
H284 H 0.52891 0.19238 0.36054 0.0
H285 H 0.44984 0.20057 0.36945 0.0
H286 H 0.53554 0.15363 0.53741 0.0
H287 H 0.53355 0.13463 0.44489 0.0
H288 H 0.55041 0.16341 0.44091 0.0
H289 H 0.4251 0.17741 0.46547 0.0
H290 H 0.43467 0.14562 0.45228 0.0
H291 H 0.4401 0.16103 0.55062 0.0
H292 H 0.49595 0.07352 0.51204 0.0
H293 H 0.50106 0.11985 0.73124 0.0
H294 H 0.49627 0.11831 0.36321 0.0
H295 H 0.46356 0.11648 0.38144 0.0
H296 H 0.48212 0.08857 0.38091 0.0
H297 H 0.50733 0.17275 0.64624 0.0
H298 H 0.48745 0.1619 0.72979 0.0
H299 H 0.47438 0.17543 0.63554 0.0
C300 C 0.33478 0.49811 0.44145 0.0
C301 C 0.335 0.48557 0.36388 0.0
C302 C 0.35589 0.49838 0.49389 0.0
C303 C 0.37772 0.48558 0.46853 0.0
C304 C 0.37706 0.47084 0.39429 0.0
C305 C 0.35587 0.47133 0.34222 0.0
C306 C 0.35556 0.51429 0.57242 0.0
C307 C 0.39942 0.45611 0.3663 0.0
C308 C 0.43683 0.51973 0.52864 0.0
C309 C 0.44292 0.50901 0.60648 0.0
C310 C 0.41649 0.51136 0.48112 0.0
C311 C 0.40201 0.49125 0.51102 0.0
C312 C 0.40961 0.47873 0.5855 0.0
C313 C 0.4297 0.48808 0.63336 0.0
C314 C 0.40915 0.52562 0.40298 0.0
C315 C 0.39552 0.45663 0.61838 0.0
H316 H 0.31883 0.50941 0.45776 0.0
H317 H 0.35619 0.46179 0.28185 0.0
H318 H 0.36266 0.50372 0.62728 0.0
H319 H 0.36796 0.53048 0.56317 0.0
H320 H 0.33664 0.52118 0.58769 0.0
H321 H 0.39449 0.44195 0.31812 0.0
H322 H 0.41341 0.46876 0.33833 0.0
H323 H 0.4082 0.44674 0.42099 0.0
H324 H 0.44662 0.53629 0.50871 0.0
H325 H 0.43389 0.48008 0.69446 0.0
H326 H 0.39097 0.53478 0.41375 0.0
H327 H 0.40697 0.51289 0.34844 0.0
H328 H 0.42297 0.54005 0.38595 0.0
H329 H 0.37962 0.46312 0.65715 0.0
H330 H 0.40746 0.44486 0.659 0.0
H331 H 0.38812 0.44516 0.5659 0.0
C332 C 0.01963 0.34866 0.38354 0.0
C333 C 0.04117 0.33949 0.34471 0.0
C334 C 0.02044 0.36889 0.43965 0.0
C335 C 0.04341 0.38061 0.45752 0.0
C336 C 0.06543 0.37074 0.42116 0.0
C337 C 0.06405 0.35029 0.36519 0.0
C338 C 0.99645 0.37822 0.47768 0.0
C339 C 0.09029 0.38254 0.43711 0.0
C340 C 0.03144 0.44682 0.53138 0.0
C341 C 0.02886 0.44334 0.61879 0.0
C342 C 0.03881 0.42709 0.47804 0.0
C343 C 0.04367 0.40335 0.51296 0.0
C344 C 0.04417 0.40082 0.60202 0.0
C345 C 0.03659 0.42074 0.65363 0.0
C346 C 0.03878 0.43095 0.3837 0.0
C347 C 0.05004 0.37627 0.64273 0.0
H348 H 1.00191 0.34034 0.36797 0.0
H349 H 0.08074 0.34349 0.33456 0.0
H350 H 0.99778 0.37848 0.54764 0.0
H351 H 0.99299 0.39752 0.4567 0.0
H352 H 0.98029 0.36664 0.45944 0.0
H353 H 0.10574 0.36937 0.42498 0.0
H354 H 0.09249 0.39843 0.39346 0.0
H355 H 0.0918 0.38966 0.50275 0.0
H356 H 0.02506 0.46403 0.50364 0.0
H357 H 0.03434 0.41781 0.72101 0.0
H358 H 0.02226 0.42176 0.35601 0.0
H359 H 0.05548 0.4224 0.35463 0.0
H360 H 0.03828 0.45092 0.36689 0.0
H361 H 0.03392 0.36366 0.63559 0.0
H362 H 0.05406 0.37836 0.71121 0.0
H363 H 0.06619 0.36739 0.61136 0.0
C364 C 0.84114 0.99681 0.98321 0.0
C365 C 0.83657 0.97239 0.00913 0.0
C366 C 0.86131 1.00248 0.92936 0.0
C367 C 0.87718 0.98327 0.89971 0.0
C368 C 0.87183 0.95848 0.92238 0.0
C369 C 0.85173 0.95338 0.97671 0.0
C370 C 0.86621 0.0292 0.90686 0.0
C371 C 0.88781 0.93735 0.89133 0.0
C372 C 0.9175 1.00061 0.70995 0.0
C373 C 0.9399 0.00749 0.74836 0.0
C374 C 0.89747 0.99129 0.75754 0.0
C375 C 0.8996 0.98922 0.84648 0.0
C376 C 0.92285 0.99437 0.88483 0.0
C377 C 0.94275 1.00334 0.83525 0.0
C378 C 0.8734 0.98551 0.71316 0.0
C379 C 0.92609 0.99243 0.97928 0.0
H380 H 0.82967 0.01161 0.00824 0.0
H381 H 0.84818 0.93441 0.99562 0.0
H382 H 0.88458 0.03488 0.93172 0.0
H383 H 0.86683 0.03141 0.8372 0.0
H384 H 0.85186 0.04189 0.9329 0.0
H385 H 0.88034 0.91899 0.9102 0.0
H386 H 0.88944 0.93792 0.82144 0.0
H387 H 0.9068 0.93928 0.91733 0.0
H388 H 0.91496 1.0044 0.64324 0.0
H389 H 0.95968 0.00938 0.86586 0.0
H390 H 0.85955 1.00009 0.72823 0.0
H391 H 0.86573 0.96759 0.73534 0.0
H392 H 0.87575 0.98468 0.64343 0.0
H393 H 0.91473 0.0069 0.01095 0.0
H394 H 0.94574 0.99484 -0.00143 0.0
H395 H 0.91943 0.9742 0.0023 0.0
C396 C 0.55551 0.83555 0.96207 0.0
C397 C 0.57003 0.83876 0.0353 0.0
C398 C 0.54767 0.85601 0.913 0.0
C399 C 0.55553 0.88034 0.93446 0.0
C400 C 0.57096 0.88357 0.00571 0.0
C401 C 0.57718 0.86315 0.05631 0.0
C402 C 0.53017 0.85163 0.84016 0.0
C403 C 0.58023 0.90886 0.03143 0.0
C404 C 0.54469 0.93293 0.77416 0.0
C405 C 0.52373 0.94457 0.80887 0.0
C406 C 0.55574 0.91232 0.81496 0.0
C407 C 0.54507 0.90273 0.89049 0.0
C408 C 0.5244 0.91502 0.92651 0.0
C409 C 0.51446 0.93595 0.88646 0.0
C410 C 0.57818 0.9002 0.77559 0.0
C411 C 0.51162 0.90512 0.00461 0.0
H412 H 0.54993 0.81713 0.94297 0.0
H413 H 0.58733 0.86679 0.11383 0.0
H414 H 0.51326 0.86316 0.8481 0.0
H415 H 0.53908 0.85724 0.78 0.0
H416 H 0.52451 0.8319 0.83475 0.0
H417 H 0.59767 0.90748 0.06838 0.0
H418 H 0.58354 0.92076 0.97549 0.0
H419 H 0.56619 0.91808 0.07198 0.0
H420 H 0.55153 0.93895 0.71308 0.0
H421 H 0.49788 0.94447 0.91253 0.0
H422 H 0.57324 0.88152 0.75186 0.0
H423 H 0.59293 0.89774 0.82369 0.0
H424 H 0.58567 0.91108 0.72181 0.0
H425 H 0.50644 0.88541 0.99486 0.0
H426 H 0.4946 0.91572 0.02097 0.0
H427 H 0.52436 0.90585 0.05938 0.0
C428 C 0.69709 0.56316 0.95147 0.0
C429 C 0.6935 0.56658 0.03871 0.0
C430 C 0.67727 0.55617 0.89822 0.0
C431 C 0.65325 0.55227 0.93281 0.0
C432 C 0.64954 0.55594 0.0206 0.0
C433 C 0.66959 0.56293 0.07213 0.0
C434 C 0.68215 0.5524 0.80512 0.0
C435 C 0.62449 0.55162 0.0609 0.0
C436 C 0.59653 0.54408 0.78718 0.0
C437 C 0.59548 0.5182 0.78042 0.0
C438 C 0.61524 0.55562 0.83648 0.0
C439 C 0.633 0.54096 0.88022 0.0
C440 C 0.63134 0.51488 0.87523 0.0
C441 C 0.61274 0.50399 0.82606 0.0
C442 C 0.61636 0.58346 0.8405 0.0
C443 C 0.64951 0.49831 0.92091 0.0
H444 H 0.71536 0.5662 0.92461 0.0
H445 H 0.66659 0.56514 0.13947 0.0
H446 H 0.68005 0.5325 0.78895 0.0
H447 H 0.66837 0.56281 0.76718 0.0
H448 H 0.70109 0.55844 0.78644 0.0
H449 H 0.62407 0.55738 0.12834 0.0
H450 H 0.60992 0.56195 0.02635 0.0
H451 H 0.61973 0.53165 0.05717 0.0
H452 H 0.58344 0.5552 0.75189 0.0
H453 H 0.61195 0.48393 0.8226 0.0
H454 H 0.63424 0.59001 0.81379 0.0
H455 H 0.61563 0.58966 0.90732 0.0
H456 H 0.60094 0.59225 0.80515 0.0
H457 H 0.66864 0.50201 0.89823 0.0
H458 H 0.64545 0.47832 0.91141 0.0
H459 H 0.64911 0.50231 0.9897 0.0
C460 C 0.95462 0.68182 0.97152 0.0
C461 C 0.97371 0.69579 0.00886 0.0
C462 C 0.95976 0.6621 0.91555 0.0
C463 C 0.98469 0.65577 0.89687 0.0
C464 C 1.00407 0.67015 0.93303 0.0
C465 C 0.99835 0.69008 0.98783 0.0
C466 C 0.93848 0.64782 0.87726 0.0
C467 C 0.03092 0.6641 0.91544 0.0
C468 C 1.00278 0.59105 0.81629 0.0
C469 C 0.00838 0.5959 0.73129 0.0
C470 C 0.99398 0.61007 0.87032 0.0
C471 C 0.99059 0.63446 0.83849 0.0
C472 C 0.99437 0.63878 0.75113 0.0
C473 C 1.00338 0.61958 0.69912 0.0
C474 C 0.99012 0.6045 0.96281 0.0
C475 C 0.9905 0.66415 0.71337 0.0
H476 H 0.9355 0.68622 0.98683 0.0
H477 H 0.0132 0.70061 0.01682 0.0
H478 H 0.94025 0.64744 0.80739 0.0
H479 H 0.93896 0.62833 0.89934 0.0
H480 H 0.92017 0.65591 0.89416 0.0
H481 H 0.04382 0.67685 0.9487 0.0
H482 H 0.03495 0.64483 0.93562 0.0
H483 H 0.03468 0.66515 0.84658 0.0
H484 H 0.00727 0.57304 0.84231 0.0
H485 H 0.00808 0.62356 0.63384 0.0
H486 H 0.97192 0.61169 0.98461 0.0
H487 H 1.00466 0.614 0.0004 0.0
H488 H 0.99101 0.58431 0.97616 0.0
H489 H 0.97231 0.67185 0.73319 0.0
H490 H 0.99133 0.66379 0.64321 0.0
H491 H 1.00508 0.67695 0.73671 0.0
C492 C 0.07663 0.18756 0.4187 0.0
C493 C 0.0573 0.20362 0.39607 0.0
C494 C 0.07136 0.16467 0.45603 0.0
C495 C 0.04638 0.15844 0.47267 0.0
C496 C 0.0275 0.17647 0.46384 0.0
C497 C 0.03328 0.19913 0.42587 0.0
C498 C 0.09202 0.14608 0.46723 0.0
C499 C 1.00079 0.17076 0.48509 0.0
C500 C 0.02409 0.09242 0.44249 0.0
C501 C 0.02278 0.08456 0.52623 0.0
C502 C 0.03299 0.11625 0.4237 0.0
C503 C 0.03957 0.13251 0.49082 0.0
C504 C 0.03832 0.12439 0.57522 0.0
C505 C 0.03047 0.10029 0.59157 0.0
C506 C 0.0344 0.12441 0.33259 0.0
C507 C 0.04442 0.1413 0.64845 0.0
H508 H 0.09522 0.19121 0.39554 0.0
H509 H 0.01841 0.21166 0.40855 0.0
H510 H 0.09023 0.13637 0.52865 0.0
H511 H 0.09082 0.13187 0.41656 0.0
H512 H 0.11059 0.15494 0.46379 0.0
H513 H 0.9891 0.18772 0.48564 0.0
H514 H 0.99318 0.15773 0.43738 0.0
H515 H 0.99938 0.16165 0.54772 0.0
H516 H 0.01768 0.08026 0.39251 0.0
H517 H 0.02885 0.09417 0.65633 0.0
H518 H 0.05327 0.13145 0.31801 0.0
H519 H 0.02119 0.13985 0.32176 0.0
H520 H 0.02996 0.10913 0.28797 0.0
H521 H 0.06485 0.14278 0.65447 0.0
H522 H 0.03669 0.13424 0.70881 0.0
H523 H 0.03706 0.16026 0.63843 0.0
C524 C 0.34659 0.06666 0.42083 0.0
C525 C 0.33773 0.05548 0.34712 0.0
C526 C 0.36829 0.0577 0.45943 0.0
C527 C 0.38174 0.03822 0.42018 0.0
C528 C 0.37246 0.02672 0.34654 0.0
C529 C 0.35006 0.03488 0.31296 0.0
C530 C 0.37744 0.06969 0.5397 0.0
C531 C 0.38707 0.00709 0.29961 0.0
C532 C 0.45054 0.03193 0.46705 0.0
C533 C 0.45056 0.01076 0.51778 0.0
C534 C 0.42823 0.04112 0.4338 0.0
C535 C 0.4055 0.02947 0.4556 0.0
C536 C 0.40546 0.00828 0.50753 0.0
C537 C 0.42797 0.9989 0.53642 0.0
C538 C 0.42924 0.06352 0.37698 0.0
C539 C 0.38157 0.99579 0.53419 0.0
H540 H 0.33725 0.08288 0.44591 0.0
H541 H 0.34333 0.02672 0.25459 0.0
H542 H 0.38189 0.05533 0.58747 0.0
H543 H 0.39477 0.08008 0.52641 0.0
H544 H 0.36358 0.08269 0.56703 0.0
H545 H 0.37757 1.00077 0.24117 0.0
H546 H 0.40556 0.01456 0.28187 0.0
H547 H 0.39022 0.99079 0.34073 0.0
H548 H 0.46788 0.0413 0.45353 0.0
H549 H 0.42763 0.98286 0.57752 0.0
H550 H 0.429 0.0805 0.41666 0.0
H551 H 0.41338 0.06437 0.33257 0.0
H552 H 0.44667 0.06363 0.33943 0.0
H553 H 0.36898 0.00954 0.56414 0.0
H554 H 0.38473 0.98041 0.57944 0.0
H555 H 0.37186 0.98822 0.4781 0.0
C556 C 0.50102 0.34777 0.35464 0.0
C557 C 0.4771 0.33828 0.36636 0.0
C558 C 0.50733 0.37114 0.38547 0.0
C559 C 0.48989 0.38436 0.43493 0.0
C560 C 0.46676 0.37349 0.45576 0.0
C561 C 0.46024 0.35078 0.41856 0.0
C562 C 0.53171 0.38256 0.35832 0.0
C563 C 0.44854 0.38638 0.51358 0.0
C564 C 0.5216 0.43468 0.55673 0.0
C565 C 0.51431 0.45608 0.51328 0.0
C566 C 0.51207 0.41153 0.5361 0.0
C567 C 0.49637 0.40938 0.46546 0.0
C568 C 0.48926 0.43084 0.41949 0.0
C569 C 0.49774 0.45426 0.44595 0.0
C570 C 0.51957 0.38929 0.58829 0.0
C571 C 0.4736 0.42894 0.34084 0.0
H572 H 0.51369 0.33827 0.3121 0.0
H573 H 0.44159 0.34358 0.42595 0.0
H574 H 0.52806 0.39965 0.32144 0.0
H575 H 0.54287 0.38801 0.41401 0.0
H576 H 0.543 0.36977 0.31877 0.0
H577 H 0.43352 0.3737 0.53468 0.0
H578 H 0.45814 0.39388 0.57009 0.0
H579 H 0.43993 0.40222 0.4801 0.0
H580 H 0.5349 0.43594 0.60745 0.0
H581 H 0.4922 0.47088 0.41261 0.0
H582 H 0.53392 0.37846 0.55416 0.0
H583 H 0.5035 0.37685 0.59914 0.0
H584 H 0.52741 0.39478 0.65042 0.0
H585 H 0.48232 0.41591 0.29519 0.0
H586 H 0.47113 0.44717 0.30944 0.0
H587 H 0.45504 0.42145 0.35696 0.0
C588 C 0.17719 0.44706 0.37856 0.0
C589 C 0.19563 0.46541 0.38126 0.0
C590 C 0.15391 0.45148 0.41484 0.0
C591 C 0.15012 0.4736 0.46099 0.0
C592 C 0.17063 0.48892 0.48092 0.0
C593 C 0.19325 0.48492 0.43913 0.0
C594 C 0.13277 0.43415 0.39483 0.0
C595 C 0.16804 0.51132 0.53747 0.0
C596 C 0.09243 0.51281 0.43448 0.0
C597 C 0.07807 0.50513 0.50307 0.0
C598 C 0.11532 0.50149 0.4174 0.0
C599 C 0.1246 0.48314 0.47344 0.0
C600 C 0.10969 0.4747 0.54102 0.0
C601 C 0.08635 0.48536 0.55351 0.0
C602 C 0.12986 0.50978 0.34071 0.0
C603 C 0.11817 0.45518 0.60286 0.0
H604 H 0.17953 0.43146 0.33596 0.0
H605 H 0.20773 0.49881 0.44359 0.0
H606 H 0.12556 0.42606 0.45427 0.0
H607 H 0.11734 0.44442 0.36446 0.0
H608 H 0.13848 0.41875 0.35232 0.0
H609 H 0.18529 0.51424 0.57443 0.0
H610 H 0.16512 0.52805 0.49807 0.0
H611 H 0.15217 0.50954 0.58186 0.0
H612 H 0.08608 0.52809 0.39572 0.0
H613 H 0.07549 0.47942 0.6076 0.0
H614 H 0.13793 0.4936 0.30698 0.0
H615 H 0.14538 0.5219 0.36083 0.0
H616 H 0.11815 0.52036 0.29574 0.0
H617 H 0.10811 0.43765 0.58962 0.0
H618 H 0.11322 0.46068 0.66844 0.0
H619 H 0.1384 0.45155 0.60017 0.0
C620 C 0.95997 0.84958 0.96309 0.0
C621 C 0.98078 0.83398 0.96422 0.0
C622 C 0.9618 0.87355 0.93026 0.0
C623 C 0.98435 0.88102 0.89264 0.0
C624 C 1.00342 0.86345 0.87807 0.0
C625 C 1.00165 0.84008 0.91606 0.0
C626 C 0.94098 0.89172 0.94596 0.0
C627 C 0.0268 0.87026 0.83099 0.0
C628 C 0.98966 0.94428 0.79308 0.0
C629 C 1.00567 0.95621 0.84987 0.0
C630 C 0.98202 0.9199 0.80655 0.0
C631 C 0.98958 0.90768 0.88086 0.0
C632 C 1.00359 0.9206 0.94282 0.0
C633 C 0.01222 0.94456 0.9252 0.0
C634 C 0.96792 0.907 0.73694 0.0
C635 C 0.01041 0.90873 0.02595 0.0
H636 H 0.94384 0.84467 0.00066 0.0
H637 H 0.01767 0.82792 0.91671 0.0
H638 H 0.94698 0.90562 0.99355 0.0
H639 H 0.93641 0.90188 0.88718 0.0
H640 H 0.92392 0.88247 0.9696 0.0
H641 H 0.03722 0.85354 0.81027 0.0
H642 H 0.02236 0.88169 0.77474 0.0
H643 H 0.03901 0.88138 0.87277 0.0
H644 H 0.98495 0.95314 0.73381 0.0
H645 H 0.02473 0.9538 0.96857 0.0
H646 H 0.95839 0.88988 0.75778 0.0
H647 H 0.98118 0.90198 0.68593 0.0
H648 H 0.95391 0.91975 0.70959 0.0
H649 H 0.9938 0.90011 0.05534 0.0
H650 H 0.01838 0.92233 0.07118 0.0
H651 H 0.02426 0.89386 0.01507 0.0
C652 C 0.69405 0.99033 0.91841 0.0
C653 C 0.6955 0.97311 0.984 0.0
C654 C 0.67163 0.99347 0.87477 0.0
C655 C 0.65016 0.98088 0.90389 0.0
C656 C 0.65275 0.96094 0.96106 0.0
C657 C 0.67603 0.95625 0.99593 0.0
C658 C 0.67039 0.01188 0.80331 0.0
C659 C 0.63108 0.94595 0.99316 0.0
C660 C 0.59629 0.02593 0.90173 0.0
C661 C 0.58048 0.01469 0.84354 0.0
C662 C 0.61822 0.01408 0.92652 0.0
C663 C 0.62534 0.99155 0.88648 0.0
C664 C 0.60891 0.97983 0.82959 0.0
C665 C 0.5863 0.99122 0.8109 0.0
C666 C 0.63391 0.02608 0.99418 0.0
C667 C 0.61519 0.95562 0.78689 0.0
H668 H 0.70941 1.00284 0.90683 0.0
H669 H 0.6777 0.94227 0.04485 0.0
H670 H 0.65593 0.00657 0.75677 0.0
H671 H 0.6658 0.0305 0.8285 0.0
H672 H 0.68856 0.01321 0.7703 0.0
H673 H 0.63353 0.94118 0.06092 0.0
H674 H 0.61306 0.95561 0.98641 0.0
H675 H 0.63037 0.92824 0.95753 0.0
H676 H 0.59175 0.04415 0.92634 0.0
H677 H 0.57408 0.98267 0.76493 0.0
H678 H 0.64913 0.03678 0.96435 0.0
H679 H 0.64234 0.01193 0.03613 0.0
H680 H 0.62285 0.0391 0.03359 0.0
H681 H 0.63531 0.95406 0.77299 0.0
H682 H 0.60465 0.95319 0.72724 0.0
H683 H 0.60997 0.94024 0.8295 0.0
C684 C 0.57472 0.68251 0.97387 0.0
C685 C 0.5551 0.69951 0.97561 0.0
C686 C 0.57127 0.65893 0.93929 0.0
C687 C 0.54841 0.65331 0.90019 0.0
C688 C 0.53073 0.67229 0.88652 0.0
C689 C 0.53405 0.69525 0.92639 0.0
C690 C 0.59061 0.63924 0.95498 0.0
C691 C 0.50685 0.66738 0.83986 0.0
C692 C 0.5392 0.59014 0.80305 0.0
C693 C 0.52384 0.57864 0.86339 0.0
C694 C 0.54738 0.61447 0.81373 0.0
C695 C 0.54107 0.62716 0.88862 0.0
C696 C 0.52696 0.6151 0.9525 0.0
C697 C 0.51787 0.59112 0.93794 0.0
C698 C 0.56112 0.62707 0.74233 0.0
C699 C 0.52091 0.6278 0.03518 0.0
H700 H 0.59101 0.68611 0.01211 0.0
H701 H 0.51895 0.70853 0.92769 0.0
H702 H 0.58261 0.62415 0.9941 0.0
H703 H 0.59658 0.63101 0.89422 0.0
H704 H 0.60725 0.64667 0.9876 0.0
H705 H 0.49848 0.68485 0.81628 0.0
H706 H 0.50993 0.65465 0.78566 0.0
H707 H 0.49337 0.65847 0.88333 0.0
H708 H 0.54345 0.58073 0.74424 0.0
H709 H 0.50579 0.58232 0.98382 0.0
H710 H 0.57808 0.63639 0.76556 0.0
H711 H 0.54913 0.64166 0.71475 0.0
H712 H 0.56642 0.61389 0.69135 0.0
H713 H 0.53813 0.63501 0.06463 0.0
H714 H 0.51163 0.61515 0.08067 0.0
H715 H 0.5085 0.64384 0.02368 0.0
C716 C 0.8377 0.52629 0.93331 0.0
C717 C 0.82993 0.54969 0.96063 0.0
C718 C 0.86068 0.52343 0.89311 0.0
C719 C 0.8759 0.54452 0.88118 0.0
C720 C 0.86631 0.56849 0.89645 0.0
C721 C 0.84302 0.5708 0.93491 0.0
C722 C 0.86993 0.49761 0.874 0.0
C723 C 0.88194 0.59143 0.88422 0.0
C724 C 0.94347 0.52909 0.91836 0.0
C725 C 0.95234 0.52835 0.83557 0.0
C726 C 0.91887 0.53623 0.93456 0.0
C727 C 0.90273 0.54114 0.86567 0.0
C728 C 0.91191 0.54097 0.78224 0.0
C729 C 0.93686 0.53531 0.76859 0.0
C730 C 0.90979 0.53724 0.02489 0.0
C731 C 0.89504 0.54492 0.7073 0.0
H732 H 0.82753 0.51002 0.95376 0.0
H733 H 0.83695 0.58888 0.9569 0.0
H734 H 0.88009 0.49711 0.81295 0.0
H735 H 0.883 0.49174 0.92421 0.0
H736 H 0.85448 0.484 0.87156 0.0
H737 H 0.87035 0.60843 0.8817 0.0
H738 H 0.89497 0.59325 0.93812 0.0
H739 H 0.89321 0.59027 0.82565 0.0
H740 H 0.95545 0.52335 0.96966 0.0
H741 H 0.94379 0.53438 0.70451 0.0
H742 H 0.89666 0.52178 0.03652 0.0
H743 H 0.89965 0.55481 0.03675 0.0
H744 H 0.92525 0.53579 0.07091 0.0
H745 H 0.8801 0.53077 0.70732 0.0
H746 H 0.90512 0.54362 0.64632 0.0
H747 H 0.88597 0.56331 0.71137 0.0
C748 C 0.07424 0.17049 0.09761 0.0
C749 C 0.0592 0.19178 0.09142 0.0
C750 C 0.06894 0.14878 0.05212 0.0
C751 C 0.04972 0.14891 0.99146 0.0
C752 C 0.03646 0.17128 0.97695 0.0
C753 C 0.04089 0.19224 0.02851 0.0
C754 C 0.08294 0.12535 0.07353 0.0
C755 C 0.01677 0.17272 0.90956 0.0
C756 C 0.04756 0.09582 0.83086 0.0
C757 C 0.0261 0.08313 0.85605 0.0
C758 C 0.05559 0.1172 0.87431 0.0
C759 C 0.0425 0.12538 0.94706 0.0
C760 C 0.02218 0.11115 0.97707 0.0
C761 C 0.01377 0.09069 0.92976 0.0
C762 C 0.07699 0.13195 0.83892 0.0
C763 C 0.00895 0.11784 0.05819 0.0
H764 H 0.0891 0.17011 0.14365 0.0
H765 H 0.02915 0.20843 0.02241 0.0
H766 H 0.07017 0.10927 0.07776 0.0
H767 H 0.09676 0.12128 0.02346 0.0
H768 H 0.09301 0.12702 0.13447 0.0
H769 H 0.011 0.19213 0.89706 0.0
H770 H 0.02362 0.16433 0.84975 0.0
H771 H 1.00019 0.16208 0.92978 0.0
H772 H 0.057 0.09015 0.77343 0.0
H773 H 0.99713 0.08094 0.94926 0.0
H774 H 0.09171 0.13421 0.88695 0.0
H775 H 0.0705 0.15081 0.82192 0.0
H776 H 0.08527 0.12308 0.78206 0.0
H777 H 0.02259 0.12127 0.10938 0.0
H778 H 0.99599 0.10303 0.07892 0.0
H779 H 0.99819 0.13514 0.0493 0.0
C780 C 0.33973 0.05199 0.01851 0.0
C781 C 0.33796 0.07403 0.06545 0.0
C782 C 0.361 0.04659 0.96972 0.0
C783 C 0.38119 0.06347 0.96835 0.0
C784 C 0.37874 0.0865 0.01058 0.0
C785 C 0.35709 0.09161 0.05752 0.0
C786 C 0.36257 0.02199 0.92445 0.0
C787 C 0.39976 0.10495 0.01203 0.0
C788 C 0.44432 0.03288 0.93259 0.0
C789 C 0.4485 0.03752 0.84664 0.0
C790 C 0.42316 0.04237 0.97412 0.0
C791 C 0.40537 0.0562 0.92785 0.0
C792 C 0.41013 0.06171 0.84172 0.0
C793 C 0.43167 0.05237 0.80235 0.0
C794 C 0.41923 0.03651 0.06651 0.0
C795 C 0.39171 0.07605 0.78942 0.0
H796 H 0.32539 0.03805 0.02521 0.0
H797 H 0.35599 0.10862 0.09392 0.0
H798 H 0.36913 0.02462 0.85855 0.0
H799 H 0.37621 0.00992 0.95682 0.0
H800 H 0.34441 0.01227 0.9231 0.0
H801 H 0.39395 0.12311 0.03871 0.0
H802 H 0.41509 0.09754 0.05126 0.0
H803 H 0.40724 0.10793 0.94747 0.0
H804 H 0.45706 0.02095 0.9664 0.0
H805 H 0.43457 0.05539 0.73529 0.0
H806 H 0.40332 0.02363 0.07358 0.0
H807 H 0.41462 0.05362 0.10226 0.0
H808 H 0.43583 0.02782 0.09547 0.0
H809 H 0.37502 0.06445 0.77859 0.0
H810 H 0.3995 0.08145 0.72704 0.0
H811 H 0.38561 0.09301 0.82327 0.0
C812 C 0.45067 0.35596 0.04834 0.0
C813 C 0.46977 0.34005 0.07438 0.0
C814 C 0.45572 0.37706 -0.00119 0.0
C815 C 0.48055 0.38282 0.97663 0.0
C816 C 0.49981 0.36643 0.00095 0.0
C817 C 0.49417 0.34521 0.04888 0.0
C818 C 0.43457 0.39359 0.97227 0.0
C819 C 0.52655 0.37191 0.97943 0.0
C820 C 0.4971 0.42475 0.79193 0.0
C821 C 0.50406 0.44676 0.83246 0.0
C822 C 0.48819 0.40432 0.83755 0.0
C823 C 0.48654 0.40567 0.92675 0.0
C824 C 0.49235 0.42838 0.96798 0.0
C825 C 0.50093 0.44878 0.92015 0.0
C826 C 0.48187 0.38093 0.78982 0.0
C827 C 0.49066 0.43074 0.0629 0.0
H828 H 0.43191 0.35244 0.07001 0.0
H829 H 0.5091 0.33351 0.0715 0.0
H830 H 0.43672 0.41216 0.00151 0.0
H831 H 0.43488 0.39617 0.90269 0.0
H832 H 0.41623 0.38593 0.99087 0.0
H833 H 0.53939 0.35742 0.00322 0.0
H834 H 0.52882 0.37337 0.9099 0.0
H835 H 0.53203 0.39001 0.00713 0.0
H836 H 0.49909 0.42335 0.72398 0.0
H837 H 0.50633 0.46579 0.95166 0.0
H838 H 0.46636 0.37071 0.81992 0.0
H839 H 0.49835 0.36861 0.78887 0.0
H840 H 0.4767 0.38503 0.72343 0.0
H841 H 0.47222 0.42445 0.0856 0.0
H842 H 0.49373 0.45008 0.08471 0.0
H843 H 0.50478 0.41863 0.09268 0.0
C844 C 0.18751 0.5067 0.05217 0.0
C845 C 0.19241 0.48254 0.07979 0.0
C846 C 0.16686 0.51184 0.00059 0.0
C847 C 0.15076 0.49234 0.9758 0.0
C848 C 0.15642 0.46774 -3e-05 0.0
C849 C 0.17708 0.46317 0.05178 0.0
C850 C 0.1616 0.53832 0.97596 0.0
C851 C 0.14008 0.44634 0.974 0.0
C852 C 0.08435 0.50989 0.91373 0.0
C853 C 0.08652 0.51151 0.82569 0.0
C854 C 0.105 0.50318 0.96364 0.0
C855 C 0.1281 0.49768 0.9242 0.0
C856 C 0.1298 0.49808 0.83499 0.0
C857 C 0.10915 0.50527 0.7872 0.0
C858 C 0.10241 0.50297 0.05864 0.0
C859 C 0.15374 0.49197 0.78975 0.0
H860 H 0.1989 0.52179 0.07542 0.0
H861 H 0.18056 0.44452 0.07425 0.0
H862 H 0.15994 0.53983 0.90629 0.0
H863 H 0.14361 0.54427 0.00362 0.0
H864 H 0.1763 0.55124 -0.00222 0.0
H865 H 0.14786 0.42817 0.99348 0.0
H866 H 0.12145 0.44849 0.00309 0.0
H867 H 0.13752 0.44625 0.90443 0.0
H868 H 0.06698 0.51504 0.94364 0.0
H869 H 0.11089 0.50668 0.71906 0.0
H870 H 0.11455 0.51743 0.08651 0.0
H871 H 0.10859 0.48488 0.08428 0.0
H872 H 0.08302 0.50643 0.0795 0.0
H873 H 0.16714 0.50733 0.79898 0.0
H874 H 0.15094 0.48929 0.72086 0.0
H875 H 0.16221 0.47491 0.81592 0.0
C876 C 0.9987 0.84294 0.33581 0.0
C877 C 0.98337 0.84363 0.26449 0.0
C878 C 1.00109 0.86397 0.38891 0.0
C879 C 0.98843 0.88633 0.3688 0.0
C880 C 0.9719 0.88652 0.29958 0.0
C881 C 0.96913 0.8651 0.25003 0.0
C882 C 0.01814 0.86267 0.46417 0.0
C883 C 0.95852 0.90988 0.27355 0.0
C884 C 0.98498 0.93915 0.53085 0.0
C885 C 0.00614 0.95303 0.51045 0.0
C886 C 0.9787 0.91764 0.4847 0.0
C887 C 0.99378 0.90997 0.41582 0.0
C888 C 0.01421 0.92496 0.39167 0.0
C889 C 0.0204 0.94597 0.44019 0.0
C890 C 0.95676 0.90236 0.5129 0.0
C891 C 0.0301 0.91834 0.31618 0.0
H892 H 0.00978 0.82655 0.3475 0.0
H893 H 0.95701 0.86573 0.19545 0.0
H894 H 0.03482 0.87419 0.45232 0.0
H895 H 0.00873 0.87025 0.52112 0.0
H896 H 0.02422 0.8434 0.47747 0.0
H897 H 0.94468 0.90642 0.22297 0.0
H898 H 0.94893 0.91844 0.32839 0.0
H899 H 0.97223 0.92356 0.2498 0.0
H900 H 0.9742 0.94425 0.58607 0.0
H901 H 0.03702 0.95641 0.42515 0.0
H902 H 0.96356 0.88541 0.54498 0.0
H903 H 0.94547 0.89628 0.45819 0.0
H904 H 0.94459 0.91272 0.55731 0.0
H905 H 0.04025 0.90086 0.32874 0.0
H906 H 0.04384 0.93304 0.30115 0.0
H907 H 0.01829 0.91519 0.2598 0.0
C908 C 0.67536 0.96412 0.29154 0.0
C909 C 0.69245 0.98371 0.28516 0.0
C910 C 0.65336 0.96645 0.33883 0.0
C911 C 0.64841 0.98879 0.38272 0.0
C912 C 0.66653 0.00794 0.38191 0.0
C913 C 0.6882 0.0053 0.33225 0.0
C914 C 0.63453 0.94577 0.33592 0.0
C915 C 0.66231 0.03188 0.4292 0.0
C916 C 0.58182 0.01033 0.42263 0.0
C917 C 0.5783 1.00418 0.5079 0.0
C918 C 0.60405 1.00435 0.38004 0.0
C919 C 0.62367 0.99274 0.42462 0.0
C920 C 0.61984 0.98573 0.50992 0.0
C921 C 0.59711 0.99124 0.55014 0.0
C922 C 0.60703 0.01173 0.28857 0.0
C923 C 0.64038 0.97387 0.56018 0.0
H924 H 0.67826 0.94763 0.2534 0.0
H925 H 0.70096 0.0207 0.32585 0.0
H926 H 0.62791 0.9412 0.40044 0.0
H927 H 0.61817 0.95186 0.29891 0.0
H928 H 0.64214 0.92871 0.30618 0.0
H929 H 0.67928 0.04353 0.43118 0.0
H930 H 0.64735 0.04257 0.39794 0.0
H931 H 0.65617 0.02809 0.49491 0.0
H932 H 0.56768 0.02102 0.39052 0.0
H933 H 0.59486 0.98731 0.61686 0.0
H934 H 0.61381 0.99579 0.25057 0.0
H935 H 0.62109 0.02666 0.28332 0.0
H936 H 0.58938 0.01848 0.26079 0.0
H937 H 0.64598 0.95611 0.53033 0.0
H938 H 0.63485 0.97026 0.62646 0.0
H939 H 0.65692 0.9861 0.56056 0.0
C940 C 0.56359 0.68655 0.33393 0.0
C941 C 0.5442 0.69272 0.27886 0.0
C942 C 0.56178 0.6658 0.38804 0.0
C943 C 0.54015 0.65077 0.38662 0.0
C944 C 0.52032 0.65741 0.33261 0.0
C945 C 0.52254 0.67826 0.28013 0.0
C946 C 0.5833 0.65946 0.44478 0.0
C947 C 0.49683 0.6422 0.32896 0.0
C948 C 0.53672 0.58434 0.47316 0.0
C949 C 0.52448 0.5883 0.55039 0.0
C950 C 0.5431 0.60458 0.42037 0.0
C951 C 0.53718 0.62922 0.44571 0.0
C952 C 0.52606 0.63318 0.52554 0.0
C953 C 0.52002 0.61285 0.57648 0.0
C954 C 0.55516 0.59957 0.33593 0.0
C955 C 0.51932 0.65891 0.55572 0.0
H956 H 0.58063 0.6972 0.33167 0.0
H957 H 0.50764 0.68271 0.23682 0.0
H958 H 0.57699 0.65815 0.51142 0.0
H959 H 0.59088 0.64106 0.4269 0.0
H960 H 0.59843 0.67338 0.44086 0.0
H961 H 0.48326 0.64966 0.28283 0.0
H962 H 0.5013 0.62282 0.31097 0.0
H963 H 0.48793 0.64167 0.39224 0.0
H964 H 0.54027 0.56552 0.45235 0.0
H965 H 0.51105 0.61627 0.63682 0.0
H966 H 0.57159 0.6117 0.32727 0.0
H967 H 0.54192 0.60397 0.2845 0.0
H968 H 0.56103 0.57994 0.32919 0.0
H969 H 0.53592 0.67104 0.55484 0.0
H970 H 0.51147 0.65891 0.62069 0.0
H971 H 0.50544 0.66719 0.51249 0.0
C972 C 0.86881 0.56578 0.23891 0.0
C973 C 0.84507 0.55689 0.26088 0.0
C974 C 0.88956 0.56148 0.29006 0.0
C975 C 0.88651 0.54927 0.36834 0.0
C976 C 0.8622 0.54277 0.39555 0.0
C977 C 0.84177 0.54632 0.34097 0.0
C978 C 0.91499 0.56815 0.25666 0.0
C979 C 0.85801 0.53091 0.48062 0.0
C980 C 0.93869 0.50834 0.45102 0.0
C981 C 0.95046 0.52389 0.50948 0.0
C982 C 0.91844 0.5167 0.40305 0.0
C983 C 0.90891 0.54089 0.41649 0.0
C984 C 0.9211 0.55688 0.47435 0.0
C985 C 0.94206 0.54833 0.5189 0.0
C986 C 0.90692 0.4994 0.33908 0.0
C987 C 0.91117 0.58246 0.49292 0.0
H988 H 0.87149 0.57475 0.1783 0.0
H989 H 0.82356 0.53965 0.35913 0.0
H990 H 0.9256 0.57877 0.30443 0.0
H991 H 0.92554 0.55091 0.24321 0.0
H992 H 0.91405 0.5792 0.19759 0.0
H993 H 0.83798 0.52935 0.49636 0.0
H994 H 0.86629 0.51209 0.48118 0.0
H995 H 0.86735 0.54188 0.53067 0.0
H996 H 0.94512 0.48941 0.44389 0.0
H997 H 0.9508 0.56021 0.56545 0.0
H998 H 0.90585 0.50859 0.27648 0.0
H999 H 0.8877 0.49475 0.35857 0.0
H1000 H 0.91757 0.48189 0.33198 0.0
H1001 H 0.90888 0.59313 0.43365 0.0
H1002 H 0.92344 0.59305 0.53622 0.0
H1003 H 0.89256 0.58088 0.52259 0.0
loop_
_geom_bond_atom_site_label_1
_geom_bond_atom_site_label_2
_geom_bond_distance
_geom_bond_site_symmetry_2
_ccdc_geom_bond_type
H0 C1 0.949 1_556 S
C1 H0 0.949 1_554 S
C1 C2 1.395 . S
C1 C3 1.391 . S
C2 C1 1.395 . S
C2 C5 1.390 . S
C3 C1 1.391 . S
C3 C7 1.387 . S
C3 C8 1.491 . S
H4 C5 0.950 . S
C5 C2 1.390 . S
C5 H4 0.950 . S
C5 C6 1.378 . S
C6 C5 1.378 . S
C6 C7 1.409 . S
C7 C3 1.387 . S
C7 C6 1.409 . S
C7 H9 0.951 . S
C8 C3 1.491 . S
C8 C10 1.382 . S
C8 C12 1.404 . S
H9 C7 0.951 . S
C10 C8 1.382 . S
C10 C11 1.390 . S
C10 H15 0.949 1_554 S
C11 C10 1.390 . S
C11 C16 1.399 . S
C12 C8 1.404 . S
C12 H13 0.950 . S
C12 C14 1.375 . S
H13 C12 0.950 . S
C14 C12 1.375 . S
C14 C16 1.382 . S
C14 H18 0.950 . S
H15 C10 0.949 1_556 S
C16 C11 1.399 . S
C16 C14 1.382 . S
C16 H17 0.952 . S
H17 C16 0.952 . S
H18 C14 0.950 . S
H19 C20 0.949 1_556 S
C20 H19 0.949 1_554 S
C20 C21 1.395 . S
C20 C22 1.391 . S
C21 C20 1.395 . S
C21 C24 1.390 . S
C22 C20 1.391 . S
C22 C26 1.387 . S
C22 C27 1.491 . S
H23 C24 0.950 . S
C24 C21 1.390 . S
C24 H23 0.950 . S
C24 C25 1.378 . S
C25 C24 1.378 . S
C25 C26 1.409 . S
C26 C22 1.387 . S
C26 C25 1.409 . S
C26 H28 0.951 . S
C27 C22 1.491 . S
C27 C29 1.382 . S
C27 C31 1.404 . S
H28 C26 0.951 . S
C29 C27 1.382 . S
C29 C30 1.390 . S
C29 H34 0.949 1_554 S
C30 C29 1.390 . S
C30 C35 1.399 . S
C31 C27 1.404 . S
C31 H32 0.950 . S
C31 C33 1.375 . S
H32 C31 0.950 . S
C33 C31 1.375 . S
C33 C35 1.382 . S
C33 H37 0.950 . S
H34 C29 0.949 1_556 S
C35 C30 1.399 . S
C35 C33 1.382 . S
C35 H36 0.952 . S
H36 C35 0.952 . S
H37 C33 0.950 . S
H38 C39 0.949 1_556 S
C39 H38 0.949 1_554 S
C39 C40 1.395 . S
C39 C41 1.391 . S
C40 C39 1.395 . S
C40 C43 1.390 . S
C41 C39 1.391 . S
C41 C45 1.387 . S
C41 C46 1.491 . S
H42 C43 0.950 . S
C43 C40 1.390 . S
C43 H42 0.950 . S
C43 C44 1.378 . S
C44 C43 1.378 . S
C44 C45 1.409 . S
C45 C41 1.387 . S
C45 C44 1.409 . S
C45 H47 0.951 . S
C46 C41 1.491 . S
C46 C48 1.382 . S
C46 C50 1.404 . S
H47 C45 0.951 . S
C48 C46 1.382 . S
C48 C49 1.390 . S
C48 H53 0.949 1_554 S
C49 C48 1.390 . S
C49 C54 1.399 . S
C50 C46 1.404 . S
C50 H51 0.950 . S
C50 C52 1.375 . S
H51 C50 0.950 . S
C52 C50 1.375 . S
C52 C54 1.382 . S
C52 H56 0.950 . S
H53 C48 0.949 1_556 S
C54 C49 1.399 . S
C54 C52 1.382 . S
C54 H55 0.952 . S
H55 C54 0.952 . S
H56 C52 0.950 . S
H57 C58 0.949 1_556 S
C58 H57 0.949 1_554 S
C58 C59 1.395 . S
C58 C60 1.391 . S
C59 C58 1.395 . S
C59 C62 1.390 . S
C60 C58 1.391 . S
C60 C64 1.387 . S
C60 C65 1.491 . S
H61 C62 0.950 . S
C62 C59 1.390 . S
C62 H61 0.950 . S
C62 C63 1.378 . S
C63 C62 1.378 . S
C63 C64 1.409 . S
C64 C60 1.387 . S
C64 C63 1.409 . S
C64 H66 0.951 . S
C65 C60 1.491 . S
C65 C67 1.382 . S
C65 C69 1.404 . S
H66 C64 0.951 . S
C67 C65 1.382 . S
C67 C68 1.390 . S
C67 H72 0.949 1_554 S
C68 C67 1.390 . S
C68 C73 1.399 . S
C69 C65 1.404 . S
C69 H70 0.950 . S
C69 C71 1.375 . S
H70 C69 0.950 . S
C71 C69 1.375 . S
C71 C73 1.382 . S
C71 H75 0.950 . S
H72 C67 0.949 1_556 S
C73 C68 1.399 . S
C73 C71 1.382 . S
C73 H74 0.952 . S
H74 C73 0.952 . S
H75 C71 0.950 . S
H76 C77 0.949 . S
C77 H76 0.949 . S
C77 C78 1.395 . S
C77 C79 1.391 . S
C78 C77 1.395 . S
C78 C81 1.390 . S
C79 C77 1.391 . S
C79 C83 1.387 . S
C79 C84 1.491 . S
H80 C81 0.950 . S
C81 C78 1.390 . S
C81 H80 0.950 . S
C81 C82 1.378 . S
C82 C81 1.378 . S
C82 C83 1.409 . S
C83 C79 1.387 . S
C83 C82 1.409 . S
C83 H85 0.951 . S
C84 C79 1.491 . S
C84 C86 1.382 . S
C84 C88 1.404 . S
H85 C83 0.951 . S
C86 C84 1.382 . S
C86 C87 1.390 . S
C86 H91 0.949 . S
C87 C86 1.390 . S
C87 C92 1.399 . S
C88 C84 1.404 . S
C88 H89 0.950 . S
C88 C90 1.375 . S
H89 C88 0.950 . S
C90 C88 1.375 . S
C90 C92 1.382 . S
C90 H94 0.950 . S
H91 C86 0.949 . S
C92 C87 1.399 . S
C92 C90 1.382 . S
C92 H93 0.952 . S
H93 C92 0.952 . S
H94 C90 0.950 . S
H95 C96 0.949 . S
C96 H95 0.949 . S
C96 C97 1.395 . S
C96 C98 1.391 . S
C97 C96 1.395 . S
C97 C100 1.390 . S
C98 C96 1.391 . S
C98 C102 1.387 . S
C98 C103 1.491 . S
H99 C100 0.950 . S
C100 C97 1.390 . S
C100 H99 0.950 . S
C100 C101 1.378 . S
C101 C100 1.378 . S
C101 C102 1.409 . S
C102 C98 1.387 . S
C102 C101 1.409 . S
C102 H104 0.951 . S
C103 C98 1.491 . S
C103 C105 1.382 . S
C103 C107 1.404 . S
H104 C102 0.951 . S
C105 C103 1.382 . S
C105 C106 1.390 . S
C105 H110 0.949 . S
C106 C105 1.390 . S
C106 C111 1.399 . S
C107 C103 1.404 . S
C107 H108 0.950 . S
C107 C109 1.375 . S
H108 C107 0.950 . S
C109 C107 1.375 . S
C109 C111 1.382 . S
C109 H113 0.974 . S
H110 C105 0.949 . S
C111 C106 1.399 . S
C111 C109 1.382 . S
C111 H112 0.952 . S
H112 C111 0.952 . S
H113 C109 0.974 . S
H114 C115 0.949 . S
C115 H114 0.949 . S
C115 C116 1.395 . S
C115 C117 1.391 . S
C116 C115 1.395 . S
C116 C119 1.390 . S
C117 C115 1.391 . S
C117 C121 1.387 . S
C117 C122 1.491 . S
H118 C119 0.950 . S
C119 C116 1.390 . S
C119 H118 0.950 . S
C119 C120 1.378 . S
C120 C119 1.378 . S
C120 C121 1.409 . S
C121 C117 1.387 . S
C121 C120 1.409 . S
C121 H123 0.951 . S
C122 C117 1.491 . S
C122 C124 1.382 . S
C122 C126 1.404 . S
H123 C121 0.951 . S
C124 C122 1.382 . S
C124 C125 1.390 . S
C124 H129 0.949 . S
C125 C124 1.390 . S
C125 C130 1.399 . S
C126 C122 1.404 . S
C126 H127 0.950 . S
C126 C128 1.375 . S
H127 C126 0.950 . S
C128 C126 1.375 . S
C128 C130 1.382 . S
C128 H132 0.950 . S
H129 C124 0.949 . S
C130 C125 1.399 . S
C130 C128 1.382 . S
C130 H131 0.952 . S
H131 C130 0.952 . S
H132 C128 0.950 . S
H133 C134 0.949 . S
C134 H133 0.949 . S
C134 C135 1.395 . S
C134 C136 1.391 . S
C135 C134 1.395 . S
C135 C138 1.390 . S
C136 C134 1.391 . S
C136 C140 1.387 . S
C136 C141 1.491 . S
H137 C138 0.950 . S
C138 C135 1.390 . S
C138 H137 0.950 . S
C138 C139 1.378 . S
C139 C138 1.378 . S
C139 C140 1.409 . S
C140 C136 1.387 . S
C140 C139 1.409 . S
C140 H142 0.951 . S
C141 C136 1.491 . S
C141 C143 1.382 . S
C141 C145 1.404 . S
H142 C140 0.951 . S
C143 C141 1.382 . S
C143 C144 1.390 . S
C143 H148 0.949 . S
C144 C143 1.390 . S
C144 C149 1.399 . S
C145 C141 1.404 . S
C145 H146 0.950 . S
C145 C147 1.375 . S
H146 C145 0.950 . S
C147 C145 1.375 . S
C147 C149 1.382 . S
C147 H151 0.950 . S
H148 C143 0.949 . S
C149 C144 1.399 . S
C149 C147 1.382 . S
C149 H150 0.952 . S
H150 C149 0.952 . S
H151 C147 0.950 . S
O152 Mn153 2.163 . S
O152 C166 1.244 . S
Mn153 O152 2.163 . S
Mn153 O156 2.160 1_445 S
Mn153 O157 2.221 . S
Mn153 O159 2.163 1_545 S
Mn153 O161 2.160 . S
Mn153 O171 2.221 1_455 S
O154 Mn155 2.087 . S
O154 C166 1.256 1_655 S
Mn155 O154 2.087 . S
Mn155 O162 2.089 . S
Mn155 O171 2.290 . S
Mn155 O172 2.251 . S
O156 Mn153 2.160 1_665 S
O156 C167 1.239 1_655 S
O157 Mn153 2.221 . S
O157 Mn158 2.290 1_545 S
O157 C168 1.278 . S
Mn158 O157 2.290 1_565 S
Mn158 O160 2.089 . S
Mn158 O163 2.251 . S
Mn158 O164 2.087 . S
O159 Mn153 2.163 1_565 S
O159 C169 1.244 . S
O160 Mn158 2.089 . S
O160 C167 1.256 . S
O161 Mn153 2.160 . S
O161 C170 1.239 . S
O162 Mn155 2.089 . S
O162 C170 1.256 1_655 S
O163 Mn158 2.251 . S
O163 C168 1.241 1_565 S
O164 Mn158 2.087 . S
O164 C169 1.256 . S
C165 O171 1.278 . S
C165 O172 1.241 . S
C166 O152 1.244 . S
C166 O154 1.256 1_455 S
C167 O156 1.239 1_455 S
C167 O160 1.256 . S
C168 O157 1.278 . S
C168 O163 1.241 1_545 S
C169 O159 1.244 . S
C169 O164 1.256 . S
C170 O161 1.239 . S
C170 O162 1.256 1_455 S
O171 Mn153 2.221 1_655 S
O171 Mn155 2.290 . S
O171 C165 1.278 . S
O172 Mn155 2.251 . S
O172 C165 1.241 . S
O173 Mn174 2.163 . S
O173 C187 1.244 . S
Mn174 O173 2.163 . S
Mn174 O177 2.160 . S
Mn174 O178 2.221 1_545 S
Mn174 O180 2.163 . S
Mn174 O182 2.158 1_545 S
Mn174 O192 2.221 . S
O175 Mn176 2.087 . S
O175 C187 1.256 . S
Mn176 O175 2.087 . S
Mn176 O183 2.089 . S
Mn176 O192 2.290 . S
Mn176 O193 2.251 . S
O177 Mn174 2.160 . S
O177 C188 1.239 . S
O178 Mn174 2.221 1_565 S
O178 Mn179 2.290 . S
O178 C189 1.278 . S
Mn179 O178 2.290 . S
Mn179 O181 2.089 . S
Mn179 O184 2.251 . S
Mn179 O185 2.087 . S
O180 Mn174 2.163 . S
O180 C190 1.244 . S
O181 Mn179 2.089 . S
O181 C188 1.256 1_565 S
O182 Mn174 2.158 1_565 S
O182 C191 1.238 1_565 S
O183 Mn176 2.089 . S
O183 C191 1.256 . S
O184 Mn179 2.251 . S
O184 C189 1.241 . S
O185 Mn179 2.087 . S
O185 C190 1.256 1_565 S
C186 O192 1.278 . S
C186 O193 1.241 . S
C187 O173 1.244 . S
C187 O175 1.256 . S
C188 O177 1.239 . S
C188 O181 1.256 1_545 S
C189 O178 1.278 . S
C189 O184 1.241 . S
C190 O180 1.244 . S
C190 O185 1.256 1_545 S
C191 O182 1.238 1_545 S
C191 O183 1.256 . S
O192 Mn174 2.221 . S
O192 Mn176 2.290 . S
O192 C186 1.278 . S
O193 Mn176 2.251 . S
O193 C186 1.241 . S
O194 Mn195 2.163 . S
O194 C208 1.244 . S
Mn195 O194 2.163 . S
Mn195 O198 2.160 . S
Mn195 O199 2.221 . S
Mn195 O201 2.163 . S
Mn195 O203 2.160 . S
Mn195 O213 2.221 . S
O196 Mn197 2.087 . S
O196 C208 1.256 . S
Mn197 O196 2.087 . S
Mn197 O204 2.089 . S
Mn197 O213 2.290 . S
Mn197 O214 2.251 . S
O198 Mn195 2.160 . S
O198 C209 1.239 . S
O199 Mn195 2.221 . S
O199 Mn200 2.290 . S
O199 C210 1.278 . S
Mn200 O199 2.290 . S
Mn200 O202 2.089 . S
Mn200 O205 2.251 . S
Mn200 O206 2.087 . S
O201 Mn195 2.163 . S
O201 C211 1.244 . S
O202 Mn200 2.089 . S
O202 C209 1.256 . S
O203 Mn195 2.160 . S
O203 C212 1.239 . S
O204 Mn197 2.089 . S
O204 C212 1.256 . S
O205 Mn200 2.251 . S
O205 C210 1.241 . S
O206 Mn200 2.087 . S
O206 C211 1.256 . S
C207 O213 1.278 . S
C207 O214 1.241 . S
C208 O194 1.244 . S
C208 O196 1.256 . S
C209 O198 1.239 . S
C209 O202 1.256 . S
C210 O199 1.278 . S
C210 O205 1.241 . S
C211 O201 1.244 . S
C211 O206 1.256 . S
C212 O203 1.239 . S
C212 O204 1.256 . S
O213 Mn195 2.221 . S
O213 Mn197 2.290 . S
O213 C207 1.278 . S
O214 Mn197 2.251 . S
O214 C207 1.241 . S
O215 Mn216 2.163 . S
O215 C229 1.244 . S
Mn216 O215 2.163 . S
Mn216 O219 2.160 1_455 S
Mn216 O220 2.221 . S
Mn216 O222 2.163 1_455 S
Mn216 O224 2.160 . S
Mn216 O234 2.221 . S
O217 Mn218 2.087 . S
O217 C229 1.256 . S
Mn218 O217 2.087 . S
Mn218 O225 2.089 . S
Mn218 O234 2.290 . S
Mn218 O235 2.251 . S
O219 Mn216 2.160 1_655 S
O219 C230 1.239 . S
O220 Mn216 2.221 . S
O220 Mn221 2.290 1_455 S
O220 C231 1.278 . S
Mn221 O220 2.290 1_655 S
Mn221 O223 2.089 . S
Mn221 O226 2.251 . S
Mn221 O227 2.087 . S
O222 Mn216 2.163 1_655 S
O222 C232 1.244 . S
O223 Mn221 2.089 . S
O223 C230 1.256 . S
O224 Mn216 2.160 . S
O224 C233 1.239 . S
O225 Mn218 2.089 . S
O225 C233 1.256 . S
O226 Mn221 2.251 . S
O226 C231 1.241 1_655 S
O227 Mn221 2.087 . S
O227 C232 1.256 . S
C228 O234 1.278 . S
C228 O235 1.241 . S
C229 O215 1.244 . S
C229 O217 1.256 . S
C230 O219 1.239 . S
C230 O223 1.256 . S
C231 O220 1.278 . S
C231 O226 1.241 1_455 S
C232 O222 1.244 . S
C232 O227 1.256 . S
C233 O224 1.239 . S
C233 O225 1.256 . S
O234 Mn216 2.221 . S
O234 Mn218 2.290 . S
O234 C228 1.278 . S
O235 Mn218 2.251 . S
O235 C228 1.241 . S
C236 C237 1.391 . S
C236 C238 1.394 . S
C236 H252 0.931 . S
C237 C236 1.391 . S
C237 C241 1.376 . S
C238 C236 1.394 . S
C238 C239 1.369 . S
C238 C242 1.531 . S
C239 C238 1.369 . S
C239 C240 1.410 . S
C239 C247 1.503 . S
C240 C239 1.410 . S
C240 C241 1.392 . S
C240 C243 1.511 . S
C241 C237 1.376 . S
C241 C240 1.392 . S
C241 H253 0.929 . S
C242 C238 1.531 . S
C242 H254 0.960 . S
C242 H255 0.962 . S
C242 H256 0.960 . S
C243 C240 1.511 . S
C243 H257 0.961 . S
C243 H258 0.961 . S
C243 H259 0.961 . S
C244 C245 1.370 . S
C244 C246 1.363 . S
C244 H260 0.931 1_545 S
C245 C244 1.370 . S
C245 C249 1.408 . S
C246 C244 1.363 . S
C246 C247 1.370 . S
C246 C250 1.524 1_545 S
C247 C239 1.503 . S
C247 C246 1.370 . S
C247 C248 1.403 . S
C248 C247 1.403 . S
C248 C249 1.404 . S
C248 C251 1.539 . S
C249 C245 1.408 . S
C249 C248 1.404 . S
C249 H261 0.930 . S
C250 C246 1.524 1_565 S
C250 H262 0.956 1_565 S
C250 H263 0.961 . S
C250 H264 0.961 . S
C251 C248 1.539 . S
C251 H265 0.958 . S
C251 H266 0.961 . S
C251 H267 0.960 . S
H252 C236 0.931 . S
H253 C241 0.929 . S
H254 C242 0.960 . S
H255 C242 0.962 . S
H256 C242 0.960 . S
H257 C243 0.961 . S
H258 C243 0.961 . S
H259 C243 0.961 . S
H260 C244 0.931 1_565 S
H261 C249 0.930 . S
H262 C250 0.956 1_545 S
H263 C250 0.961 . S
H264 C250 0.961 . S
H265 C251 0.958 . S
H266 C251 0.961 . S
H267 C251 0.960 . S
C268 C269 1.391 . S
C268 C270 1.394 . S
C268 H284 0.931 . S
C269 C268 1.391 . S
C269 C273 1.376 . S
C270 C268 1.394 . S
C270 C271 1.369 . S
C270 C274 1.531 . S
C271 C270 1.369 . S
C271 C272 1.410 . S
C271 C279 1.503 . S
C272 C271 1.410 . S
C272 C273 1.392 . S
C272 C275 1.511 . S
C273 C269 1.376 . S
C273 C272 1.392 . S
C273 H285 0.929 . S
C274 C270 1.531 . S
C274 H286 0.960 . S
C274 H287 0.962 . S
C274 H288 0.960 . S
C275 C272 1.511 . S
C275 H289 0.961 . S
C275 H290 0.961 . S
C275 H291 0.961 . S
C276 C277 1.370 . S
C276 C278 1.363 . S
C276 H292 0.931 . S
C277 C276 1.370 . S
C277 C281 1.408 . S
C278 C276 1.363 . S
C278 C279 1.370 . S
C278 C282 1.524 . S
C279 C271 1.503 . S
C279 C278 1.370 . S
C279 C280 1.403 . S
C280 C279 1.403 . S
C280 C281 1.404 . S
C280 C283 1.539 . S
C281 C277 1.408 . S
C281 C280 1.404 . S
C281 H293 0.930 . S
C282 C278 1.524 . S
C282 H294 0.956 . S
C282 H295 0.961 . S
C282 H296 0.961 . S
C283 C280 1.539 . S
C283 H297 0.958 . S
C283 H298 0.961 . S
C283 H299 0.960 . S
H284 C268 0.931 . S
H285 C273 0.929 . S
H286 C274 0.960 . S
H287 C274 0.962 . S
H288 C274 0.960 . S
H289 C275 0.961 . S
H290 C275 0.961 . S
H291 C275 0.961 . S
H292 C276 0.931 . S
H293 C281 0.930 . S
H294 C282 0.956 . S
H295 C282 0.961 . S
H296 C282 0.961 . S
H297 C283 0.958 . S
H298 C283 0.961 . S
H299 C283 0.960 . S
C300 C301 1.391 . S
C300 C302 1.394 . S
C300 H316 0.931 . S
C301 C300 1.391 . S
C301 C305 1.376 . S
C302 C300 1.394 . S
C302 C303 1.369 . S
C302 C306 1.531 . S
C303 C302 1.369 . S
C303 C304 1.410 . S
C303 C311 1.503 . S
C304 C303 1.410 . S
C304 C305 1.392 . S
C304 C307 1.511 . S
C305 C301 1.376 . S
C305 C304 1.392 . S
C305 H317 0.929 . S
C306 C302 1.531 . S
C306 H318 0.960 . S
C306 H319 0.962 . S
C306 H320 0.960 . S
C307 C304 1.511 . S
C307 H321 0.961 . S
C307 H322 0.961 . S
C307 H323 0.961 . S
C308 C309 1.370 . S
C308 C310 1.363 . S
C308 H324 0.931 . S
C309 C308 1.370 . S
C309 C313 1.408 . S
C310 C308 1.363 . S
C310 C311 1.370 . S
C310 C314 1.524 . S
C311 C303 1.503 . S
C311 C310 1.370 . S
C311 C312 1.403 . S
C312 C311 1.403 . S
C312 C313 1.404 . S
C312 C315 1.539 . S
C313 C309 1.408 . S
C313 C312 1.404 . S
C313 H325 0.930 . S
C314 C310 1.524 . S
C314 H326 0.956 . S
C314 H327 0.961 . S
C314 H328 0.961 . S
C315 C312 1.539 . S
C315 H329 0.958 . S
C315 H330 0.961 . S
C315 H331 0.960 . S
H316 C300 0.931 . S
H317 C305 0.929 . S
H318 C306 0.960 . S
H319 C306 0.962 . S
H320 C306 0.960 . S
H321 C307 0.961 . S
H322 C307 0.961 . S
H323 C307 0.961 . S
H324 C308 0.931 . S
H325 C313 0.930 . S
H326 C314 0.956 . S
H327 C314 0.961 . S
H328 C314 0.961 . S
H329 C315 0.958 . S
H330 C315 0.961 . S
H331 C315 0.960 . S
C332 C333 1.391 . S
C332 C334 1.394 . S
C332 H348 0.931 . S
C333 C332 1.391 . S
C333 C337 1.376 . S
C334 C332 1.394 . S
C334 C335 1.369 . S
C334 C338 1.531 1_455 S
C335 C334 1.369 . S
C335 C336 1.410 . S
C335 C343 1.503 . S
C336 C335 1.410 . S
C336 C337 1.392 . S
C336 C339 1.511 . S
C337 C333 1.376 . S
C337 C336 1.392 . S
C337 H349 0.929 . S
C338 C334 1.531 1_655 S
C338 H350 0.960 . S
C338 H351 0.962 . S
C338 H352 0.960 . S
C339 C336 1.511 . S
C339 H353 0.961 . S
C339 H354 0.961 . S
C339 H355 0.961 . S
C340 C341 1.370 . S
C340 C342 1.363 . S
C340 H356 0.931 . S
C341 C340 1.370 . S
C341 C345 1.408 . S
C342 C340 1.363 . S
C342 C343 1.370 . S
C342 C346 1.524 . S
C343 C335 1.503 . S
C343 C342 1.370 . S
C343 C344 1.403 . S
C344 C343 1.403 . S
C344 C345 1.404 . S
C344 C347 1.539 . S
C345 C341 1.408 . S
C345 C344 1.404 . S
C345 H357 0.930 . S
C346 C342 1.524 . S
C346 H358 0.956 . S
C346 H359 0.961 . S
C346 H360 0.961 . S
C347 C344 1.539 . S
C347 H361 0.958 . S
C347 H362 0.961 . S
C347 H363 0.960 . S
H348 C332 0.931 . S
H349 C337 0.929 . S
H350 C338 0.960 . S
H351 C338 0.962 . S
H352 C338 0.960 . S
H353 C339 0.961 . S
H354 C339 0.961 . S
H355 C339 0.961 . S
H356 C340 0.931 . S
H357 C345 0.930 . S
H358 C346 0.956 . S
H359 C346 0.961 . S
H360 C346 0.961 . S
H361 C347 0.958 . S
H362 C347 0.961 . S
H363 C347 0.960 . S
C364 C365 1.391 1_545 S
C364 C366 1.394 . S
C364 H380 0.931 . S
C365 C364 1.391 1_565 S
C365 C369 1.376 . S
C366 C364 1.394 . S
C366 C367 1.369 1_545 S
C366 C370 1.531 . S
C367 C366 1.369 1_565 S
C367 C368 1.410 . S
C367 C375 1.503 . S
C368 C367 1.410 . S
C368 C369 1.392 . S
C368 C371 1.511 . S
C369 C365 1.376 . S
C369 C368 1.392 . S
C369 H381 0.929 . S
C370 C366 1.531 . S
C370 H382 0.960 . S
C370 H383 0.962 . S
C370 H384 0.960 . S
C371 C368 1.511 . S
C371 H385 0.961 . S
C371 H386 0.961 . S
C371 H387 0.961 . S
C372 C373 1.370 1_565 S
C372 C374 1.363 . S
C372 H388 0.931 . S
C373 C372 1.370 1_545 S
C373 C377 1.408 . S
C374 C372 1.363 . S
C374 C375 1.370 . S
C374 C378 1.524 . S
C375 C367 1.503 . S
C375 C374 1.370 . S
C375 C376 1.403 1_565 S
C376 C375 1.403 1_545 S
C376 C377 1.404 . S
C376 C379 1.539 . S
C377 C373 1.408 . S
C377 C376 1.404 . S
C377 H389 0.930 . S
C378 C374 1.524 . S
C378 H390 0.990 . S
C378 H391 0.961 . S
C378 H392 0.961 . S
C379 C376 1.539 . S
C379 H393 0.958 1_556 S
C379 H394 0.961 1_546 S
C379 H395 0.960 1_546 S
H380 C364 0.931 . S
H381 C369 0.929 . S
H382 C370 0.960 . S
H383 C370 0.962 . S
H384 C370 0.960 . S
H385 C371 0.961 . S
H386 C371 0.961 . S
H387 C371 0.961 . S
H388 C372 0.931 . S
H389 C377 0.930 . S
H390 C378 0.990 . S
H391 C378 0.961 . S
H392 C378 0.961 . S
H393 C379 0.958 1_554 S
H394 C379 0.961 1_564 S
H395 C379 0.960 1_564 S
C396 C397 1.391 . S
C396 C398 1.394 . S
C396 H412 0.931 . S
C397 C396 1.391 . S
C397 C401 1.376 . S
C398 C396 1.394 . S
C398 C399 1.369 . S
C398 C402 1.531 . S
C399 C398 1.369 . S
C399 C400 1.410 . S
C399 C407 1.503 . S
C400 C399 1.410 . S
C400 C401 1.392 . S
C400 C403 1.511 1_556 S
C401 C397 1.376 . S
C401 C400 1.392 . S
C401 H413 0.929 1_556 S
C402 C398 1.531 . S
C402 H414 0.960 . S
C402 H415 0.962 . S
C402 H416 0.960 . S
C403 C400 1.511 1_554 S
C403 H417 0.961 . S
C403 H418 0.961 1_554 S
C403 H419 0.961 . S
C404 C405 1.370 . S
C404 C406 1.363 . S
C404 H420 0.931 . S
C405 C404 1.370 . S
C405 C409 1.408 . S
C406 C404 1.363 . S
C406 C407 1.370 . S
C406 C410 1.524 . S
C407 C399 1.503 . S
C407 C406 1.370 . S
C407 C408 1.403 . S
C408 C407 1.403 . S
C408 C409 1.404 . S
C408 C411 1.539 . S
C409 C405 1.408 . S
C409 C408 1.404 . S
C409 H421 0.930 . S
C410 C406 1.524 . S
C410 H422 0.956 . S
C410 H423 0.961 . S
C410 H424 0.961 . S
C411 C408 1.539 . S
C411 H425 0.958 . S
C411 H426 0.961 . S
C411 H427 0.960 . S
H412 C396 0.931 . S
H413 C401 0.929 1_554 S
H414 C402 0.960 . S
H415 C402 0.962 . S
H416 C402 0.960 . S
H417 C403 0.961 . S
H418 C403 0.961 1_556 S
H419 C403 0.961 . S
H420 C404 0.931 . S
H421 C409 0.930 . S
H422 C410 0.956 . S
H423 C410 0.961 . S
H424 C410 0.961 . S
H425 C411 0.958 . S
H426 C411 0.961 . S
H427 C411 0.960 . S
C428 C429 1.391 . S
C428 C430 1.394 . S
C428 H444 0.931 . S
C429 C428 1.391 . S
C429 C433 1.376 1_556 S
C430 C428 1.394 . S
C430 C431 1.369 . S
C430 C434 1.531 . S
C431 C430 1.369 . S
C431 C432 1.410 . S
C431 C439 1.503 . S
C432 C431 1.410 . S
C432 C433 1.392 1_556 S
C432 C435 1.511 1_556 S
C433 C429 1.376 1_554 S
C433 C432 1.392 1_554 S
C433 H445 0.929 . S
C434 C430 1.531 . S
C434 H446 0.960 . S
C434 H447 0.962 . S
C434 H448 0.960 . S
C435 C432 1.511 1_554 S
C435 H449 0.961 . S
C435 H450 0.961 1_554 S
C435 H451 0.961 . S
C436 C437 1.370 . S
C436 C438 1.363 . S
C436 H452 0.931 . S
C437 C436 1.370 . S
C437 C441 1.408 . S
C438 C436 1.363 . S
C438 C439 1.370 . S
C438 C442 1.524 . S
C439 C431 1.503 . S
C439 C438 1.370 . S
C439 C440 1.403 . S
C440 C439 1.403 . S
C440 C441 1.404 . S
C440 C443 1.539 . S
C441 C437 1.408 . S
C441 C440 1.404 . S
C441 H453 0.930 . S
C442 C438 1.524 . S
C442 H454 0.956 . S
C442 H455 0.961 . S
C442 H456 0.961 . S
C443 C440 1.539 . S
C443 H457 0.958 . S
C443 H458 0.961 . S
C443 H459 0.960 . S
H444 C428 0.931 . S
H445 C433 0.929 . S
H446 C434 0.960 . S
H447 C434 0.962 . S
H448 C434 0.960 . S
H449 C435 0.961 . S
H450 C435 0.961 1_556 S
H451 C435 0.961 . S
H452 C436 0.931 . S
H453 C441 0.930 . S
H454 C442 0.956 . S
H455 C442 0.961 . S
H456 C442 0.961 . S
H457 C443 0.958 . S
H458 C443 0.961 . S
H459 C443 0.960 . S
C460 C461 1.391 . S
C460 C462 1.394 . S
C460 H476 0.931 . S
C461 C460 1.391 . S
C461 C465 1.376 1_655 S
C462 C460 1.394 . S
C462 C463 1.369 . S
C462 C466 1.531 . S
C463 C462 1.369 . S
C463 C464 1.410 1_655 S
C463 C471 1.503 . S
C464 C463 1.410 1_455 S
C464 C465 1.392 . S
C464 C467 1.511 . S
C465 C461 1.376 1_455 S
C465 C464 1.392 . S
C465 H477 0.929 . S
C466 C462 1.531 . S
C466 H478 0.960 . S
C466 H479 0.962 . S
C466 H480 0.960 . S
C467 C464 1.511 . S
C467 H481 0.961 . S
C467 H482 0.961 . S
C467 H483 0.961 . S
C468 C469 1.370 1_655 S
C468 C470 1.363 . S
C468 H484 0.931 . S
C469 C468 1.370 1_455 S
C469 C473 1.408 . S
C470 C468 1.363 . S
C470 C471 1.370 . S
C470 C474 1.524 . S
C471 C463 1.503 . S
C471 C470 1.370 . S
C471 C472 1.403 . S
C472 C471 1.403 . S
C472 C473 1.404 1_655 S
C472 C475 1.539 . S
C473 C469 1.408 . S
C473 C472 1.404 1_455 S
C473 H485 0.930 . S
C474 C470 1.524 . S
C474 H486 0.956 . S
C474 H487 0.961 1_655 S
C474 H488 0.961 1_556 S
C475 C472 1.539 . S
C475 H489 0.958 . S
C475 H490 0.961 1_655 S
C475 H491 0.956 1_655 S
H476 C460 0.931 . S
H477 C465 0.929 . S
H478 C466 0.960 . S
H479 C466 0.962 . S
H480 C466 0.960 . S
H481 C467 0.961 . S
H482 C467 0.961 . S
H483 C467 0.961 . S
H484 C468 0.931 . S
H485 C473 0.930 . S
H486 C474 0.956 . S
H487 C474 0.961 1_455 S
H488 C474 0.961 1_554 S
H489 C475 0.958 . S
H490 C475 0.961 1_455 S
H491 C475 0.956 1_455 S
C492 C493 1.391 . S
C492 C494 1.394 . S
C492 H508 0.931 . S
C493 C492 1.391 . S
C493 C497 1.376 . S
C494 C492 1.394 . S
C494 C495 1.369 . S
C494 C498 1.531 . S
C495 C494 1.369 . S
C495 C496 1.410 . S
C495 C503 1.503 . S
C496 C495 1.410 . S
C496 C497 1.392 . S
C496 C499 1.511 1_455 S
C497 C493 1.376 . S
C497 C496 1.392 . S
C497 H509 0.929 . S
C498 C494 1.531 . S
C498 H510 0.960 . S
C498 H511 0.962 . S
C498 H512 0.960 . S
C499 C496 1.511 1_655 S
C499 H513 0.961 . S
C499 H514 0.961 . S
C499 H515 0.961 . S
C500 C501 1.370 . S
C500 C502 1.363 . S
C500 H516 0.931 . S
C501 C500 1.370 . S
C501 C505 1.408 . S
C502 C500 1.363 . S
C502 C503 1.370 . S
C502 C506 1.524 . S
C503 C495 1.503 . S
C503 C502 1.370 . S
C503 C504 1.403 . S
C504 C503 1.403 . S
C504 C505 1.404 . S
C504 C507 1.539 . S
C505 C501 1.408 . S
C505 C504 1.404 . S
C505 H517 0.930 . S
C506 C502 1.524 . S
C506 H518 0.956 . S
C506 H519 0.961 . S
C506 H520 0.961 . S
C507 C504 1.539 . S
C507 H521 0.958 . S
C507 H522 0.961 . S
C507 H523 0.960 . S
H508 C492 0.931 . S
H509 C497 0.929 . S
H510 C498 0.960 . S
H511 C498 0.962 . S
H512 C498 0.960 . S
H513 C499 0.961 . S
H514 C499 0.961 . S
H515 C499 0.961 . S
H516 C500 0.931 . S
H517 C505 0.930 . S
H518 C506 0.956 . S
H519 C506 0.961 . S
H520 C506 0.961 . S
H521 C507 0.958 . S
H522 C507 0.961 . S
H523 C507 0.960 . S
C524 C525 1.391 . S
C524 C526 1.394 . S
C524 H540 0.931 . S
C525 C524 1.391 . S
C525 C529 1.376 . S
C526 C524 1.394 . S
C526 C527 1.369 . S
C526 C530 1.531 . S
C527 C526 1.369 . S
C527 C528 1.410 . S
C527 C535 1.503 . S
C528 C527 1.410 . S
C528 C529 1.392 . S
C528 C531 1.511 . S
C529 C525 1.376 . S
C529 C528 1.392 . S
C529 H541 0.929 . S
C530 C526 1.531 . S
C530 H542 0.960 . S
C530 H543 0.962 . S
C530 H544 0.960 . S
C531 C528 1.511 . S
C531 H545 0.961 . S
C531 H546 0.961 . S
C531 H547 0.961 1_545 S
C532 C533 1.370 . S
C532 C534 1.363 . S
C532 H548 0.931 . S
C533 C532 1.370 . S
C533 C537 1.408 1_545 S
C534 C532 1.363 . S
C534 C535 1.370 . S
C534 C538 1.524 . S
C535 C527 1.503 . S
C535 C534 1.370 . S
C535 C536 1.403 . S
C536 C535 1.403 . S
C536 C537 1.404 1_545 S
C536 C539 1.539 1_545 S
C537 C533 1.408 1_565 S
C537 C536 1.404 1_565 S
C537 H549 0.930 . S
C538 C534 1.524 . S
C538 H550 0.956 . S
C538 H551 0.961 . S
C538 H552 0.961 . S
C539 C536 1.539 1_565 S
C539 H553 0.958 . S
C539 H554 0.961 . S
C539 H555 0.960 . S
H540 C524 0.931 . S
H541 C529 0.929 . S
H542 C530 0.960 . S
H543 C530 0.962 . S
H544 C530 0.960 . S
H545 C531 0.961 . S
H546 C531 0.961 . S
H547 C531 0.961 1_565 S
H548 C532 0.931 . S
H549 C537 0.930 . S
H550 C538 0.956 . S
H551 C538 0.961 . S
H552 C538 0.961 . S
H553 C539 0.958 . S
H554 C539 0.961 . S
H555 C539 0.960 . S
C556 C557 1.391 . S
C556 C558 1.394 . S
C556 H572 0.931 . S
C557 C556 1.391 . S
C557 C561 1.376 . S
C558 C556 1.394 . S
C558 C559 1.369 . S
C558 C562 1.531 . S
C559 C558 1.369 . S
C559 C560 1.410 . S
C559 C567 1.503 . S
C560 C559 1.410 . S
C560 C561 1.392 . S
C560 C563 1.511 . S
C561 C557 1.376 . S
C561 C560 1.392 . S
C561 H573 0.929 . S
C562 C558 1.531 . S
C562 H574 0.960 . S
C562 H575 0.962 . S
C562 H576 0.960 . S
C563 C560 1.511 . S
C563 H577 0.961 . S
C563 H578 0.961 . S
C563 H579 0.961 . S
C564 C565 1.370 . S
C564 C566 1.363 . S
C564 H580 0.931 . S
C565 C564 1.370 . S
C565 C569 1.408 . S
C566 C564 1.363 . S
C566 C567 1.370 . S
C566 C570 1.524 . S
C567 C559 1.503 . S
C567 C566 1.370 . S
C567 C568 1.403 . S
C568 C567 1.403 . S
C568 C569 1.404 . S
C568 C571 1.539 . S
C569 C565 1.408 . S
C569 C568 1.404 . S
C569 H581 0.930 . S
C570 C566 1.524 . S
C570 H582 0.956 . S
C570 H583 0.961 . S
C570 H584 0.961 . S
C571 C568 1.539 . S
C571 H585 0.958 . S
C571 H586 0.961 . S
C571 H587 0.960 . S
H572 C556 0.931 . S
H573 C561 0.929 . S
H574 C562 0.960 . S
H575 C562 0.962 . S
H576 C562 0.960 . S
H577 C563 0.961 . S
H578 C563 0.961 . S
H579 C563 0.961 . S
H580 C564 0.931 . S
H581 C569 0.930 . S
H582 C570 0.956 . S
H583 C570 0.961 . S
H584 C570 0.961 . S
H585 C571 0.958 . S
H586 C571 0.961 . S
H587 C571 0.960 . S
C588 C589 1.391 . S
C588 C590 1.394 . S
C588 H604 0.931 . S
C589 C588 1.391 . S
C589 C593 1.376 . S
C590 C588 1.394 . S
C590 C591 1.369 . S
C590 C594 1.531 . S
C591 C590 1.369 . S
C591 C592 1.410 . S
C591 C599 1.503 . S
C592 C591 1.410 . S
C592 C593 1.392 . S
C592 C595 1.511 . S
C593 C589 1.376 . S
C593 C592 1.392 . S
C593 H605 0.929 . S
C594 C590 1.531 . S
C594 H606 0.960 . S
C594 H607 0.962 . S
C594 H608 0.960 . S
C595 C592 1.511 . S
C595 H609 0.961 . S
C595 H610 0.961 . S
C595 H611 0.961 . S
C596 C597 1.370 . S
C596 C598 1.363 . S
C596 H612 0.931 . S
C597 C596 1.370 . S
C597 C601 1.408 . S
C598 C596 1.363 . S
C598 C599 1.370 . S
C598 C602 1.524 . S
C599 C591 1.503 . S
C599 C598 1.370 . S
C599 C600 1.403 . S
C600 C599 1.403 . S
C600 C601 1.404 . S
C600 C603 1.539 . S
C601 C597 1.408 . S
C601 C600 1.404 . S
C601 H613 0.930 . S
C602 C598 1.524 . S
C602 H614 0.956 . S
C602 H615 0.961 . S
C602 H616 0.961 . S
C603 C600 1.539 . S
C603 H617 0.958 . S
C603 H618 0.961 . S
C603 H619 0.960 . S
H604 C588 0.931 . S
H605 C593 0.929 . S
H606 C594 0.960 . S
H607 C594 0.962 . S
H608 C594 0.960 . S
H609 C595 0.961 . S
H610 C595 0.961 . S
H611 C595 0.961 . S
H612 C596 0.931 . S
H613 C601 0.930 . S
H614 C602 0.956 . S
H615 C602 0.961 . S
H616 C602 0.961 . S
H617 C603 0.958 . S
H618 C603 0.961 . S
H619 C603 0.960 . S
C620 C621 1.391 . S
C620 C622 1.394 . S
C620 H636 0.931 1_556 S
C621 C620 1.391 . S
C621 C625 1.411 . S
C622 C620 1.394 . S
C622 C623 1.369 . S
C622 C626 1.531 . S
C623 C622 1.369 . S
C623 C624 1.410 1_655 S
C623 C631 1.503 . S
C624 C623 1.410 1_455 S
C624 C625 1.380 1_455 S
C624 C627 1.511 . S
C625 C621 1.411 . S
C625 C624 1.380 1_655 S
C625 H637 0.906 1_655 S
C626 C622 1.531 . S
C626 H638 0.960 . S
C626 H639 0.962 . S
C626 H640 0.960 1_556 S
C627 C624 1.511 . S
C627 H641 0.961 . S
C627 H642 0.961 . S
C627 H643 0.961 . S
C628 C629 1.370 1_655 S
C628 C630 1.363 . S
C628 H644 0.931 . S
C629 C628 1.370 1_455 S
C629 C633 1.408 . S
C630 C628 1.363 . S
C630 C631 1.370 . S
C630 C634 1.524 . S
C631 C623 1.503 . S
C631 C630 1.370 . S
C631 C632 1.403 1_655 S
C632 C631 1.403 1_455 S
C632 C633 1.404 . S
C632 C635 1.539 1_556 S
C633 C629 1.408 . S
C633 C632 1.404 . S
C633 H645 0.930 . S
C634 C630 1.524 . S
C634 H646 0.956 . S
C634 H647 0.961 . S
C634 H648 0.961 . S
C635 C632 1.539 1_554 S
C635 H649 0.958 . S
C635 H650 0.961 . S
C635 H651 0.960 . S
H636 C620 0.931 1_554 S
H637 C625 0.906 1_455 S
H638 C626 0.960 . S
H639 C626 0.962 . S
H640 C626 0.960 1_554 S
H641 C627 0.961 . S
H642 C627 0.961 . S
H643 C627 0.961 . S
H644 C628 0.931 . S
H645 C633 0.930 . S
H646 C634 0.956 . S
H647 C634 0.961 . S
H648 C634 0.961 . S
H649 C635 0.958 . S
H650 C635 0.961 . S
H651 C635 0.960 . S
C652 C653 1.391 . S
C652 C654 1.394 . S
C652 H668 0.931 . S
C653 C652 1.391 . S
C653 C657 1.376 1_556 S
C654 C652 1.394 . S
C654 C655 1.369 . S
C654 C658 1.531 . S
C655 C654 1.369 . S
C655 C656 1.410 . S
C655 C663 1.503 . S
C656 C655 1.410 . S
C656 C657 1.392 1_556 S
C656 C659 1.511 1_556 S
C657 C653 1.376 1_554 S
C657 C656 1.392 1_554 S
C657 H669 0.929 . S
C658 C654 1.531 . S
C658 H670 0.960 . S
C658 H671 0.962 1_565 S
C658 H672 0.960 . S
C659 C656 1.511 1_554 S
C659 H673 0.961 . S
C659 H674 0.961 . S
C659 H675 0.961 . S
C660 C661 1.370 . S
C660 C662 1.363 . S
C660 H676 0.931 . S
C661 C660 1.370 . S
C661 C665 1.408 1_545 S
C662 C660 1.363 . S
C662 C663 1.370 1_545 S
C662 C666 1.524 . S
C663 C655 1.503 . S
C663 C662 1.370 1_565 S
C663 C664 1.403 . S
C664 C663 1.403 . S
C664 C665 1.404 . S
C664 C667 1.539 . S
C665 C661 1.408 1_565 S
C665 C664 1.404 . S
C665 H677 0.930 . S
C666 C662 1.524 . S
C666 H678 0.956 . S
C666 H679 0.961 . S
C666 H680 0.961 . S
C667 C664 1.539 . S
C667 H681 0.958 . S
C667 H682 0.961 . S
C667 H683 0.960 . S
H668 C652 0.931 . S
H669 C657 0.929 . S
H670 C658 0.960 . S
H671 C658 0.962 1_545 S
H672 C658 0.960 . S
H673 C659 0.961 . S
H674 C659 0.961 . S
H675 C659 0.961 . S
H676 C660 0.931 . S
H677 C665 0.930 . S
H678 C666 0.956 . S
H679 C666 0.961 . S
H680 C666 0.961 . S
H681 C667 0.958 . S
H682 C667 0.961 . S
H683 C667 0.960 . S
C684 C685 1.391 . S
C684 C686 1.394 . S
C684 H700 0.931 1_556 S
C685 C684 1.391 . S
C685 C689 1.376 . S
C686 C684 1.394 . S
C686 C687 1.369 . S
C686 C690 1.531 . S
C687 C686 1.369 . S
C687 C688 1.410 . S
C687 C695 1.503 . S
C688 C687 1.410 . S
C688 C689 1.392 . S
C688 C691 1.511 . S
C689 C685 1.376 . S
C689 C688 1.392 . S
C689 H701 0.929 . S
C690 C686 1.531 . S
C690 H702 0.960 . S
C690 H703 0.962 . S
C690 H704 0.960 1_556 S
C691 C688 1.511 . S
C691 H705 0.961 . S
C691 H706 0.961 . S
C691 H707 0.961 . S
C692 C693 1.370 . S
C692 C694 1.363 . S
C692 H708 0.931 . S
C693 C692 1.370 . S
C693 C697 1.408 . S
C694 C692 1.363 . S
C694 C695 1.370 . S
C694 C698 1.524 . S
C695 C687 1.503 . S
C695 C694 1.370 . S
C695 C696 1.403 . S
C696 C695 1.403 . S
C696 C697 1.404 . S
C696 C699 1.539 1_556 S
C697 C693 1.408 . S
C697 C696 1.404 . S
C697 H709 0.930 . S
C698 C694 1.524 . S
C698 H710 0.956 . S
C698 H711 0.961 . S
C698 H712 0.961 . S
C699 C696 1.539 1_554 S
C699 H713 0.958 . S
C699 H714 0.961 . S
C699 H715 0.960 . S
H700 C684 0.931 1_554 S
H701 C689 0.929 . S
H702 C690 0.960 . S
H703 C690 0.962 . S
H704 C690 0.960 1_554 S
H705 C691 0.961 . S
H706 C691 0.961 . S
H707 C691 0.961 . S
H708 C692 0.931 . S
H709 C697 0.930 . S
H710 C698 0.956 . S
H711 C698 0.961 . S
H712 C698 0.961 . S
H713 C699 0.958 . S
H714 C699 0.961 . S
H715 C699 0.960 . S
C716 C717 1.391 . S
C716 C718 1.394 . S
C716 H732 0.931 . S
C717 C716 1.391 . S
C717 C721 1.376 . S
C718 C716 1.394 . S
C718 C719 1.369 . S
C718 C722 1.531 . S
C719 C718 1.369 . S
C719 C720 1.410 . S
C719 C727 1.503 . S
C720 C719 1.410 . S
C720 C721 1.392 . S
C720 C723 1.511 . S
C721 C717 1.376 . S
C721 C720 1.392 . S
C721 H733 0.929 . S
C722 C718 1.531 . S
C722 H734 0.960 . S
C722 H735 0.962 . S
C722 H736 0.960 . S
C723 C720 1.511 . S
C723 H737 0.961 . S
C723 H738 0.961 . S
C723 H739 0.961 . S
C724 C725 1.370 . S
C724 C726 1.363 . S
C724 H740 0.931 . S
C725 C724 1.370 . S
C725 C729 1.408 . S
C726 C724 1.363 . S
C726 C727 1.370 . S
C726 C730 1.526 . S
C727 C719 1.503 . S
C727 C726 1.370 . S
C727 C728 1.403 . S
C728 C727 1.403 . S
C728 C729 1.404 . S
C728 C731 1.539 . S
C729 C725 1.408 . S
C729 C728 1.404 . S
C729 H741 0.930 . S
C730 C726 1.526 . S
C730 H742 0.955 1_556 S
C730 H743 0.961 . S
C730 H744 0.960 1_556 S
C731 C728 1.539 . S
C731 H745 0.958 . S
C731 H746 0.961 . S
C731 H747 0.960 . S
H732 C716 0.931 . S
H733 C721 0.929 . S
H734 C722 0.960 . S
H735 C722 0.962 . S
H736 C722 0.960 . S
H737 C723 0.961 . S
H738 C723 0.961 . S
H739 C723 0.961 . S
H740 C724 0.931 . S
H741 C729 0.930 . S
H742 C730 0.955 1_554 S
H743 C730 0.961 . S
H744 C730 0.960 1_554 S
H745 C731 0.958 . S
H746 C731 0.961 . S
H747 C731 0.960 . S
C748 C749 1.391 . S
C748 C750 1.394 . S
C748 H764 0.931 . S
C749 C748 1.391 . S
C749 C753 1.376 . S
C750 C748 1.394 . S
C750 C751 1.369 . S
C750 C754 1.531 . S
C751 C750 1.369 . S
C751 C752 1.410 . S
C751 C759 1.503 1_554 S
C752 C751 1.410 . S
C752 C753 1.392 . S
C752 C755 1.511 1_454 S
C753 C749 1.376 . S
C753 C752 1.392 . S
C753 H765 0.929 . S
C754 C750 1.531 . S
C754 H766 0.960 . S
C754 H767 0.962 . S
C754 H768 0.960 . S
C755 C752 1.511 1_656 S
C755 H769 0.961 . S
C755 H770 0.972 . S
C755 H771 0.961 1_556 S
C756 C757 1.370 . S
C756 C758 1.363 . S
C756 H772 0.931 . S
C757 C756 1.370 . S
C757 C761 1.408 . S
C758 C756 1.363 . S
C758 C759 1.370 . S
C758 C762 1.524 . S
C759 C751 1.503 1_556 S
C759 C758 1.370 . S
C759 C760 1.403 1_556 S
C760 C759 1.403 1_554 S
C760 C761 1.404 1_554 S
C760 C763 1.539 . S
C761 C757 1.408 . S
C761 C760 1.404 1_556 S
C761 H773 0.930 . S
C762 C758 1.524 . S
C762 H774 0.956 . S
C762 H775 0.961 . S
C762 H776 0.961 . S
C763 C760 1.539 . S
C763 H777 0.958 . S
C763 H778 0.961 1_455 S
C763 H779 0.960 . S
H764 C748 0.931 . S
H765 C753 0.929 . S
H766 C754 0.960 . S
H767 C754 0.962 . S
H768 C754 0.960 . S
H769 C755 0.961 . S
H770 C755 0.972 . S
H771 C755 0.961 1_554 S
H772 C756 0.931 . S
H773 C761 0.930 . S
H774 C762 0.956 . S
H775 C762 0.961 . S
H776 C762 0.961 . S
H777 C763 0.958 . S
H778 C763 0.961 1_655 S
H779 C763 0.960 . S
C780 C781 1.391 . S
C780 C782 1.394 . S
C780 H796 0.931 . S
C781 C780 1.391 . S
C781 C785 1.376 . S
C782 C780 1.394 . S
C782 C783 1.369 . S
C782 C786 1.531 1_554 S
C783 C782 1.369 . S
C783 C784 1.410 . S
C783 C791 1.503 1_554 S
C784 C783 1.410 . S
C784 C785 1.392 . S
C784 C787 1.511 . S
C785 C781 1.376 . S
C785 C784 1.392 . S
C785 H797 0.929 . S
C786 C782 1.531 1_556 S
C786 H798 0.960 . S
C786 H799 0.962 1_545 S
C786 H800 0.960 1_545 S
C787 C784 1.511 . S
C787 H801 0.961 . S
C787 H802 0.961 . S
C787 H803 0.961 . S
C788 C789 1.370 . S
C788 C790 1.363 . S
C788 H804 0.931 . S
C789 C788 1.370 . S
C789 C793 1.408 . S
C790 C788 1.363 . S
C790 C791 1.370 . S
C790 C794 1.524 1_556 S
C791 C783 1.503 1_556 S
C791 C790 1.370 . S
C791 C792 1.403 . S
C792 C791 1.403 . S
C792 C793 1.404 . S
C792 C795 1.539 . S
C793 C789 1.408 . S
C793 C792 1.404 . S
C793 H805 0.930 . S
C794 C790 1.524 1_554 S
C794 H806 0.956 . S
C794 H807 0.961 . S
C794 H808 0.961 . S
C795 C792 1.539 . S
C795 H809 0.958 . S
C795 H810 0.961 . S
C795 H811 0.960 . S
H796 C780 0.931 . S
H797 C785 0.929 . S
H798 C786 0.960 . S
H799 C786 0.962 1_565 S
H800 C786 0.960 1_565 S
H801 C787 0.961 . S
H802 C787 0.961 . S
H803 C787 0.961 . S
H804 C788 0.931 . S
H805 C793 0.930 . S
H806 C794 0.956 . S
H807 C794 0.961 . S
H808 C794 0.961 . S
H809 C795 0.958 . S
H810 C795 0.961 . S
H811 C795 0.960 . S
C812 C813 1.391 . S
C812 C814 1.394 . S
C812 H828 0.931 . S
C813 C812 1.391 . S
C813 C817 1.376 . S
C814 C812 1.394 . S
C814 C815 1.369 . S
C814 C818 1.531 . S
C815 C814 1.369 . S
C815 C816 1.410 . S
C815 C823 1.503 1_554 S
C816 C815 1.410 . S
C816 C817 1.392 . S
C816 C819 1.511 . S
C817 C813 1.376 . S
C817 C816 1.392 . S
C817 H829 0.929 . S
C818 C814 1.531 . S
C818 H830 0.960 . S
C818 H831 0.962 1_554 S
C818 H832 0.960 . S
C819 C816 1.511 . S
C819 H833 0.961 . S
C819 H834 0.961 . S
C819 H835 0.961 . S
C820 C821 1.370 . S
C820 C822 1.363 . S
C820 H836 0.931 . S
C821 C820 1.370 . S
C821 C825 1.408 . S
C822 C820 1.363 . S
C822 C823 1.370 . S
C822 C826 1.524 . S
C823 C815 1.503 1_556 S
C823 C822 1.370 . S
C823 C824 1.403 1_556 S
C824 C823 1.403 1_554 S
C824 C825 1.404 1_554 S
C824 C827 1.539 . S
C825 C821 1.408 . S
C825 C824 1.404 1_556 S
C825 H837 0.930 . S
C826 C822 1.524 . S
C826 H838 0.956 . S
C826 H839 0.961 . S
C826 H840 0.961 . S
C827 C824 1.539 . S
C827 H841 0.958 . S
C827 H842 0.961 . S
C827 H843 0.960 . S
H828 C812 0.931 . S
H829 C817 0.929 . S
H830 C818 0.960 . S
H831 C818 0.962 1_556 S
H832 C818 0.960 . S
H833 C819 0.961 . S
H834 C819 0.961 . S
H835 C819 0.961 . S
H836 C820 0.931 . S
H837 C825 0.930 . S
H838 C826 0.956 . S
H839 C826 0.961 . S
H840 C826 0.961 . S
H841 C827 0.958 . S
H842 C827 0.961 . S
H843 C827 0.960 . S
C844 C845 1.391 . S
C844 C846 1.394 . S
C844 H860 0.931 . S
C845 C844 1.391 . S
C845 C849 1.376 . S
C846 C844 1.394 . S
C846 C847 1.369 . S
C846 C850 1.531 . S
C847 C846 1.369 . S
C847 C848 1.410 . S
C847 C855 1.503 1_554 S
C848 C847 1.410 . S
C848 C849 1.392 . S
C848 C851 1.511 . S
C849 C845 1.376 . S
C849 C848 1.392 . S
C849 H861 0.929 . S
C850 C846 1.531 . S
C850 H862 0.960 1_554 S
C850 H863 0.962 . S
C850 H864 0.960 . S
C851 C848 1.511 . S
C851 H865 0.961 . S
C851 H866 0.961 . S
C851 H867 0.961 1_554 S
C852 C853 1.370 . S
C852 C854 1.363 1_556 S
C852 H868 0.931 . S
C853 C852 1.370 . S
C853 C857 1.408 . S
C854 C852 1.363 1_554 S
C854 C855 1.370 1_554 S
C854 C858 1.524 . S
C855 C847 1.503 1_556 S
C855 C854 1.370 1_556 S
C855 C856 1.403 . S
C856 C855 1.403 . S
C856 C857 1.404 . S
C856 C859 1.539 . S
C857 C853 1.408 . S
C857 C856 1.404 . S
C857 H869 0.930 . S
C858 C854 1.524 . S
C858 H870 0.956 . S
C858 H871 0.961 . S
C858 H872 0.961 . S
C859 C856 1.539 . S
C859 H873 0.958 . S
C859 H874 0.961 . S
C859 H875 0.960 . S
H860 C844 0.931 . S
H861 C849 0.929 . S
H862 C850 0.960 1_556 S
H863 C850 0.962 . S
H864 C850 0.960 . S
H865 C851 0.961 . S
H866 C851 0.961 . S
H867 C851 0.961 1_556 S
H868 C852 0.931 . S
H869 C857 0.930 . S
H870 C858 0.956 . S
H871 C858 0.961 . S
H872 C858 0.961 . S
H873 C859 0.958 . S
H874 C859 0.961 . S
H875 C859 0.960 . S
C876 C877 1.391 . S
C876 C878 1.401 . S
C876 H892 0.931 1_655 S
C877 C876 1.391 . S
C877 C881 1.376 . S
C878 C876 1.401 . S
C878 C879 1.388 . S
C878 C882 1.505 1_655 S
C879 C878 1.388 . S
C879 C880 1.410 . S
C879 C887 1.503 . S
C880 C879 1.410 . S
C880 C881 1.392 . S
C880 C883 1.511 . S
C881 C877 1.376 . S
C881 C880 1.392 . S
C881 H893 0.929 . S
C882 C878 1.505 1_455 S
C882 H894 0.960 . S
C882 H895 0.962 . S
C882 H896 0.960 . S
C883 C880 1.511 . S
C883 H897 0.961 . S
C883 H898 0.961 . S
C883 H899 0.961 . S
C884 C885 1.370 . S
C884 C886 1.363 . S
C884 H900 0.931 . S
C885 C884 1.370 . S
C885 C889 1.408 1_655 S
C886 C884 1.363 . S
C886 C887 1.370 . S
C886 C890 1.524 . S
C887 C879 1.503 . S
C887 C886 1.370 . S
C887 C888 1.403 1_655 S
C888 C887 1.403 1_455 S
C888 C889 1.404 . S
C888 C891 1.539 . S
C889 C885 1.408 1_455 S
C889 C888 1.404 . S
C889 H901 0.930 . S
C890 C886 1.524 . S
C890 H902 0.956 . S
C890 H903 0.961 . S
C890 H904 0.961 . S
C891 C888 1.539 . S
C891 H905 0.958 . S
C891 H906 0.961 . S
C891 H907 0.960 . S
H892 C876 0.931 1_455 S
H893 C881 0.929 . S
H894 C882 0.960 . S
H895 C882 0.962 . S
H896 C882 0.960 . S
H897 C883 0.961 . S
H898 C883 0.961 . S
H899 C883 0.961 . S
H900 C884 0.931 . S
H901 C889 0.930 . S
H902 C890 0.956 . S
H903 C890 0.961 . S
H904 C890 0.961 . S
H905 C891 0.958 . S
H906 C891 0.961 . S
H907 C891 0.960 . S
C908 C909 1.391 . S
C908 C910 1.394 . S
C908 H924 0.931 . S
C909 C908 1.391 . S
C909 C913 1.376 . S
C910 C908 1.394 . S
C910 C911 1.369 . S
C910 C914 1.531 . S
C911 C910 1.369 . S
C911 C912 1.410 . S
C911 C919 1.503 . S
C912 C911 1.410 . S
C912 C913 1.392 . S
C912 C915 1.511 1_565 S
C913 C909 1.376 . S
C913 C912 1.392 . S
C913 H925 0.929 1_565 S
C914 C910 1.531 . S
C914 H926 0.960 . S
C914 H927 0.962 . S
C914 H928 0.960 . S
C915 C912 1.511 1_545 S
C915 H929 0.961 . S
C915 H930 0.961 . S
C915 H931 0.961 . S
C916 C917 1.370 1_545 S
C916 C918 1.358 1_545 S
C916 H932 0.931 . S
C917 C916 1.370 1_565 S
C917 C921 1.408 . S
C918 C916 1.358 1_565 S
C918 C919 1.393 . S
C918 C922 1.508 1_565 S
C919 C911 1.503 . S
C919 C918 1.393 . S
C919 C920 1.403 . S
C920 C919 1.403 . S
C920 C921 1.404 . S
C920 C923 1.539 . S
C921 C917 1.408 . S
C921 C920 1.404 . S
C921 H933 0.930 . S
C922 C918 1.508 1_545 S
C922 H934 0.956 1_545 S
C922 H935 0.961 . S
C922 H936 0.961 . S
C923 C920 1.539 . S
C923 H937 0.958 . S
C923 H938 0.961 . S
C923 H939 0.960 . S
H924 C908 0.931 . S
H925 C913 0.929 1_545 S
H926 C914 0.960 . S
H927 C914 0.962 . S
H928 C914 0.960 . S
H929 C915 0.961 . S
H930 C915 0.961 . S
H931 C915 0.961 . S
H932 C916 0.931 . S
H933 C921 0.930 . S
H934 C922 0.956 1_565 S
H935 C922 0.961 . S
H936 C922 0.961 . S
H937 C923 0.958 . S
H938 C923 0.961 . S
H939 C923 0.960 . S
C940 C941 1.391 . S
C940 C942 1.394 . S
C940 H956 0.931 . S
C941 C940 1.391 . S
C941 C945 1.376 . S
C942 C940 1.394 . S
C942 C943 1.369 . S
C942 C946 1.531 . S
C943 C942 1.369 . S
C943 C944 1.410 . S
C943 C951 1.503 . S
C944 C943 1.410 . S
C944 C945 1.392 . S
C944 C947 1.511 . S
C945 C941 1.376 . S
C945 C944 1.392 . S
C945 H957 0.929 . S
C946 C942 1.531 . S
C946 H958 0.960 . S
C946 H959 0.962 . S
C946 H960 0.960 . S
C947 C944 1.511 . S
C947 H961 0.961 . S
C947 H962 0.961 . S
C947 H963 0.961 . S
C948 C949 1.370 . S
C948 C950 1.363 . S
C948 H964 0.931 . S
C949 C948 1.370 . S
C949 C953 1.408 . S
C950 C948 1.363 . S
C950 C951 1.370 . S
C950 C954 1.524 . S
C951 C943 1.503 . S
C951 C950 1.370 . S
C951 C952 1.403 . S
C952 C951 1.403 . S
C952 C953 1.404 . S
C952 C955 1.539 . S
C953 C949 1.408 . S
C953 C952 1.404 . S
C953 H965 0.930 . S
C954 C950 1.524 . S
C954 H966 0.956 . S
C954 H967 0.961 . S
C954 H968 0.961 . S
C955 C952 1.539 . S
C955 H969 0.958 . S
C955 H970 0.961 . S
C955 H971 0.960 . S
H956 C940 0.931 . S
H957 C945 0.929 . S
H958 C946 0.960 . S
H959 C946 0.962 . S
H960 C946 0.960 . S
H961 C947 0.961 . S
H962 C947 0.961 . S
H963 C947 0.961 . S
H964 C948 0.931 . S
H965 C953 0.930 . S
H966 C954 0.956 . S
H967 C954 0.961 . S
H968 C954 0.961 . S
H969 C955 0.958 . S
H970 C955 0.961 . S
H971 C955 0.960 . S
C972 C973 1.391 . S
C972 C974 1.394 . S
C972 H988 0.931 . S
C973 C972 1.391 . S
C973 C977 1.376 . S
C974 C972 1.394 . S
C974 C975 1.369 . S
C974 C978 1.531 . S
C975 C974 1.369 . S
C975 C976 1.410 . S
C975 C983 1.503 . S
C976 C975 1.410 . S
C976 C977 1.392 . S
C976 C979 1.511 . S
C977 C973 1.376 . S
C977 C976 1.392 . S
C977 H989 0.929 . S
C978 C974 1.531 . S
C978 H990 0.960 . S
C978 H991 0.962 . S
C978 H992 0.960 . S
C979 C976 1.511 . S
C979 H993 0.961 . S
C979 H994 0.961 . S
C979 H995 0.961 . S
C980 C981 1.370 . S
C980 C982 1.363 . S
C980 H996 0.931 . S
C981 C980 1.370 . S
C981 C985 1.408 . S
C982 C980 1.363 . S
C982 C983 1.370 . S
C982 C986 1.524 . S
C983 C975 1.503 . S
C983 C982 1.370 . S
C983 C984 1.403 . S
C984 C983 1.403 . S
C984 C985 1.404 . S
C984 C987 1.539 . S
C985 C981 1.408 . S
C985 C984 1.404 . S
C985 H997 0.930 . S
C986 C982 1.524 . S
C986 H998 0.956 . S
C986 H999 0.961 . S
C986 H1000 0.961 . S
C987 C984 1.539 . S
C987 H1001 0.958 . S
C987 H1002 0.961 . S
C987 H1003 0.960 . S
H988 C972 0.931 . S
H989 C977 0.929 . S
H990 C978 0.960 . S
H991 C978 0.962 . S
H992 C978 0.960 . S
H993 C979 0.961 . S
H994 C979 0.961 . S
H995 C979 0.961 . S
H996 C980 0.931 . S
H997 C985 0.930 . S
H998 C986 0.956 . S
H999 C986 0.961 . S
H1000 C986 0.961 . S
H1001 C987 0.958 . S
H1002 C987 0.961 . S
H1003 C987 0.960 . S
C237 C125 1.536 . S
C245 C168 1.456 . S
C277 C186 1.448 . S
C269 C144 1.522 . S
C309 C207 1.469 . S
C301 C87 1.560 . S
C341 C231 1.461 . S
C333 C106 1.547 . S
C373 C165 1.369 . S
C365 C49 1.481 1_556 S
C397 C68 1.504 1_556 S
C405 C189 1.354 . S
C429 C11 1.514 1_556 S
C437 C210 1.352 . S
C461 C30 1.523 1_556 S
C469 C228 1.375 . S
C501 C170 0.684 . S
C493 C97 0.794 . S
C533 C188 0.698 . S
C525 C116 0.736 . S
C565 C209 0.739 . S
C557 C135 0.650 . S
C589 C78 0.783 . S
C597 C233 0.697 . S
C621 C21 0.737 1_556 S
C629 C169 0.821 . S
C661 C187 0.823 . S
C653 C40 0.840 1_556 S
C693 C208 0.823 . S
C685 C59 0.737 1_556 S
C717 C2 0.863 1_556 S
C725 C232 0.797 . S
C749 C101 1.577 . S
C757 C166 1.558 . S
C781 C120 1.628 . S
C789 C190 1.569 . S
C821 C211 1.568 . S
C813 C139 1.578 . S
C853 C229 1.563 . S
C845 C82 1.629 . S
C877 C25 1.449 . S
C885 C167 1.424 1_655 S
C917 C191 1.422 1_565 S
C909 C44 1.499 . S
C949 C212 1.407 . S
C941 C63 1.492 . S
C973 C6 1.477 . S
C981 C230 1.436 . S
