# Generated by pormake.
# Topology wbl, (4,4)-cn, num edge types: 1
# Building blocks:
#     Node 0, Type 0, BuildingBlock: MUDLON_clean_linker_0, # of connection points: 4
#     Node 1, Type 0, BuildingBlock: MUDLON_clean_linker_0, # of connection points: 4
#     Node 2, Type 0, BuildingBlock: MUDLON_clean_linker_0, # of connection points: 4
#     Node 3, Type 0, BuildingBlock: MUDLON_clean_linker_0, # of connection points: 4
#     Node 4, Type 0, BuildingBlock: MUDLON_clean_linker_0, # of connection points: 4
#     Node 5, Type 0, BuildingBlock: MUDLON_clean_linker_0, # of connection points: 4
#     Node 6, Type 0, BuildingBlock: MUDLON_clean_linker_0, # of connection points: 4
#     Node 7, Type 0, BuildingBlock: MUDLON_clean_linker_0, # of connection points: 4
#     Node 8, Type 1, BuildingBlock: GALJAG_clean_sbu_0, # of connection points: 4
#     Node 9, Type 1, BuildingBlock: GALJAG_clean_sbu_0, # of connection points: 4
#     Node 10, Type 1, BuildingBlock: GALJAG_clean_sbu_0, # of connection points: 4
#     Node 11, Type 1, BuildingBlock: GALJAG_clean_sbu_0, # of connection points: 4
#     Node 12, Type 1, BuildingBlock: GALJAG_clean_sbu_0, # of connection points: 4
#     Node 13, Type 1, BuildingBlock: GALJAG_clean_sbu_0, # of connection points: 4
#     Node 14, Type 1, BuildingBlock: GALJAG_clean_sbu_0, # of connection points: 4
#     Node 15, Type 1, BuildingBlock: GALJAG_clean_sbu_0, # of connection points: 4
#     Edge 16, Type (0, 1), BuildingBlock: MIFKUJ_clean_linker_0, # of connection points: 2
#     Edge 17, Type (0, 1), BuildingBlock: MIFKUJ_clean_linker_0, # of connection points: 2
#     Edge 18, Type (0, 1), BuildingBlock: MIFKUJ_clean_linker_0, # of connection points: 2
#     Edge 19, Type (0, 1), BuildingBlock: MIFKUJ_clean_linker_0, # of connection points: 2
#     Edge 20, Type (0, 1), BuildingBlock: MIFKUJ_clean_linker_0, # of connection points: 2
#     Edge 21, Type (0, 1), BuildingBlock: MIFKUJ_clean_linker_0, # of connection points: 2
#     Edge 22, Type (0, 1), BuildingBlock: MIFKUJ_clean_linker_0, # of connection points: 2
#     Edge 23, Type (0, 1), BuildingBlock: MIFKUJ_clean_linker_0, # of connection points: 2
#     Edge 24, Type (0, 1), BuildingBlock: MIFKUJ_clean_linker_0, # of connection points: 2
#     Edge 25, Type (0, 1), BuildingBlock: MIFKUJ_clean_linker_0, # of connection points: 2
#     Edge 26, Type (0, 1), BuildingBlock: MIFKUJ_clean_linker_0, # of connection points: 2
#     Edge 27, Type (0, 1), BuildingBlock: MIFKUJ_clean_linker_0, # of connection points: 2
#     Edge 28, Type (0, 1), BuildingBlock: MIFKUJ_clean_linker_0, # of connection points: 2
#     Edge 29, Type (0, 1), BuildingBlock: MIFKUJ_clean_linker_0, # of connection points: 2
#     Edge 30, Type (0, 1), BuildingBlock: MIFKUJ_clean_linker_0, # of connection points: 2
#     Edge 31, Type (0, 1), BuildingBlock: MIFKUJ_clean_linker_0, # of connection points: 2
#     Edge 32, Type (0, 1), BuildingBlock: MIFKUJ_clean_linker_0, # of connection points: 2
#     Edge 33, Type (0, 1), BuildingBlock: MIFKUJ_clean_linker_0, # of connection points: 2
#     Edge 34, Type (0, 1), BuildingBlock: MIFKUJ_clean_linker_0, # of connection points: 2
#     Edge 35, Type (0, 1), BuildingBlock: MIFKUJ_clean_linker_0, # of connection points: 2
#     Edge 36, Type (0, 1), BuildingBlock: MIFKUJ_clean_linker_0, # of connection points: 2
#     Edge 37, Type (0, 1), BuildingBlock: MIFKUJ_clean_linker_0, # of connection points: 2
#     Edge 38, Type (0, 1), BuildingBlock: MIFKUJ_clean_linker_0, # of connection points: 2
#     Edge 39, Type (0, 1), BuildingBlock: MIFKUJ_clean_linker_0, # of connection points: 2
#     Edge 40, Type (0, 1), BuildingBlock: MIFKUJ_clean_linker_0, # of connection points: 2
#     Edge 41, Type (0, 1), BuildingBlock: MIFKUJ_clean_linker_0, # of connection points: 2
#     Edge 42, Type (0, 1), BuildingBlock: MIFKUJ_clean_linker_0, # of connection points: 2
#     Edge 43, Type (0, 1), BuildingBlock: MIFKUJ_clean_linker_0, # of connection points: 2
#     Edge 44, Type (0, 1), BuildingBlock: MIFKUJ_clean_linker_0, # of connection points: 2
#     Edge 45, Type (0, 1), BuildingBlock: MIFKUJ_clean_linker_0, # of connection points: 2
#     Edge 46, Type (0, 1), BuildingBlock: MIFKUJ_clean_linker_0, # of connection points: 2
#     Edge 47, Type (0, 1), BuildingBlock: MIFKUJ_clean_linker_0, # of connection points: 2
# Relax obj value: 0.118
# Max RMSD: 0.150
# Mean RMSD: 0.137
data_MOF--net-wbl--node1-GALJAG_clean_sbu_0--node2-MUDLON_clean_linker_0--edge1-MIFKUJ_clean_linker_0
_symmetry_space_group_name_H-M    P1
_symmetry_Int_Tables_number       1
_symmetry_cell_setting            triclinic
loop_
_symmetry_equiv_pos_as_xyz
'x, y, z'
_cell_length_a     63.999146
_cell_length_b     64.15174
_cell_length_c     104.38293
_cell_angle_alpha  90.007668
_cell_angle_beta   90.017822
_cell_angle_gamma 90.008976
loop_
_atom_site_label
_atom_site_type_symbol
_atom_site_fract_x
_atom_site_fract_y
_atom_site_fract_z
_atom_type_partial_charge
H0 H 0.10789 0.9742 0.34133 0.0
N1 N 0.07216 0.97025 0.32848 0.0
H2 H 0.11709 0.95804 0.36179 0.0
H3 H 0.04598 0.94828 0.34391 0.0
H4 H 0.05454 0.9329 0.36463 0.0
H5 H 0.07033 0.92813 0.32536 0.0
H6 H 0.09005 0.90797 0.30983 0.0
H7 H 0.09054 0.9851 0.30735 0.0
H8 H 0.10862 0.96511 0.29092 0.0
H9 H 0.07848 0.01097 0.32637 0.0
H10 H 0.03031 0.96422 0.32612 0.0
H11 H 0.05229 0.03824 0.32388 0.0
H12 H 0.00357 0.9914 0.32484 0.0
H13 H 0.96166 0.12106 0.33456 0.0
H14 H 0.94681 0.1306 0.35538 0.0
H15 H 0.93359 0.06569 0.36292 0.0
H16 H 0.94869 0.05632 0.34215 0.0
H17 H 0.92769 0.06137 0.32234 0.0
H18 H 0.89863 0.06949 0.30811 0.0
H19 H 0.93619 0.11665 0.28955 0.0
H20 H 0.96505 0.10881 0.30421 0.0
H21 H 0.00211 0.084 0.33443 0.0
H22 H 0.02781 0.0562 0.33525 0.0
H23 H 0.98653 0.01676 0.31308 0.0
N24 N 0.96427 0.0833 0.32425 0.0
H25 H 0.96031 0.04409 0.3132 0.0
C26 C 0.07627 0.96263 0.34119 0.0
C27 C 0.09616 0.96542 0.3465 0.0
C28 C 0.10131 0.95622 0.35821 0.0
C29 C 0.08656 0.9441 0.3649 0.0
C30 C 0.06639 0.94185 0.35968 0.0
C31 C 0.06134 0.95091 0.34791 0.0
C32 C 0.07937 0.95819 0.31771 0.0
C33 C 0.0785 0.93631 0.31781 0.0
C34 C 0.0897 0.92474 0.30877 0.0
C35 C 0.1015 0.93481 0.29919 0.0
C36 C 0.10048 0.95672 0.2984 0.0
C37 C 0.08983 0.96825 0.30768 0.0
C38 C 0.05626 0.98575 0.32665 0.0
C39 C 0.06212 0.0067 0.32592 0.0
C40 C 0.04704 0.02225 0.32465 0.0
C41 C 0.0256 0.01723 0.32443 0.0
C42 C 0.01983 0.996 0.32489 0.0
C43 C 0.03507 0.98039 0.32582 0.0
C44 C 0.95636 0.08808 0.33685 0.0
C45 C 0.95568 0.10893 0.34077 0.0
C46 C 0.94707 0.11433 0.3526 0.0
C47 C 0.93896 0.09889 0.36076 0.0
C48 C 0.93989 0.0779 0.3569 0.0
C49 C 0.94845 0.07253 0.34502 0.0
C50 C 0.94854 0.08465 0.31438 0.0
C51 C 0.92983 0.07319 0.31506 0.0
C52 C 0.91322 0.07779 0.30684 0.0
C53 C 0.91497 0.09391 0.29776 0.0
C54 C 0.93419 0.1044 0.29658 0.0
C55 C 0.95076 0.09982 0.30483 0.0
C56 C 0.97925 0.06641 0.32377 0.0
C57 C 0.99862 0.06933 0.32976 0.0
C58 C 0.01342 0.05339 0.33009 0.0
C59 C 0.0095 0.03412 0.3241 0.0
C60 C 0.9901 0.03121 0.31796 0.0
C61 C 0.97504 0.04707 0.31791 0.0
H62 H 0.95401 0.41957 0.58547 0.0
N63 N 0.94075 0.45466 0.57291 0.0
H64 H 0.94298 0.40795 0.6067 0.0
H65 H 0.91461 0.4738 0.58883 0.0
H66 H 0.90301 0.46189 0.61005 0.0
H67 H 0.90338 0.44767 0.56297 0.0
H68 H 0.89262 0.41861 0.54946 0.0
H69 H 0.96731 0.42669 0.56094 0.0
H70 H 0.95695 0.39839 0.54692 0.0
H71 H 0.98042 0.44226 0.5797 0.0
H72 H 0.94467 0.49354 0.56448 0.0
H73 H 0.01173 0.4635 0.57945 0.0
H74 H 0.97602 0.51545 0.56474 0.0
H75 H 0.10649 0.5361 0.58896 0.0
H76 H 0.11624 0.54921 0.61023 0.0
H77 H 0.05563 0.57821 0.61382 0.0
H78 H 0.04587 0.56473 0.59272 0.0
H79 H 0.0491 0.57852 0.57219 0.0
H80 H 0.06047 0.60763 0.55892 0.0
H81 H 0.11325 0.57125 0.54594 0.0
H82 H 0.10218 0.54251 0.55979 0.0
H83 H 0.05745 0.51241 0.59252 0.0
H84 H 0.02614 0.49136 0.59107 0.0
H85 H 0.00983 0.52175 0.55553 0.0
N86 N 0.0708 0.54228 0.57644 0.0
H87 H 0.0407 0.54346 0.55717 0.0
C88 C 0.93533 0.44781 0.58565 0.0
C89 C 0.94327 0.42918 0.59086 0.0
C90 C 0.93689 0.42249 0.60298 0.0
C91 C 0.92219 0.43405 0.61 0.0
C92 C 0.91431 0.45266 0.60479 0.0
C93 C 0.92095 0.45951 0.59275 0.0
C94 C 0.93607 0.43956 0.56305 0.0
C95 C 0.91519 0.43716 0.55929 0.0
C96 C 0.9091 0.42054 0.5515 0.0
C97 C 0.92388 0.40595 0.54712 0.0
C98 C 0.94504 0.40902 0.55032 0.0
C99 C 0.95106 0.42549 0.55829 0.0
C100 C 0.96004 0.46626 0.572 0.0
C101 C 0.97924 0.45806 0.57622 0.0
C102 C 0.99722 0.47039 0.57621 0.0
C103 C 0.99644 0.49133 0.57222 0.0
C104 C 0.97731 0.49936 0.56776 0.0
C105 C 0.95935 0.4869 0.56764 0.0
C106 C 0.07561 0.54956 0.58921 0.0
C107 C 0.0953 0.54516 0.59441 0.0
C108 C 0.10079 0.55259 0.60653 0.0
C109 C 0.0867 0.56477 0.61364 0.0
C110 C 0.06687 0.56906 0.60848 0.0
C111 C 0.06131 0.56142 0.59641 0.0
C112 C 0.07497 0.55835 0.56707 0.0
C113 C 0.06305 0.57675 0.56645 0.0
C114 C 0.06949 0.59335 0.55872 0.0
C115 C 0.08793 0.59191 0.55143 0.0
C116 C 0.0992 0.57308 0.55161 0.0
C117 C 0.09281 0.55654 0.55939 0.0
C118 C 0.05135 0.53057 0.57539 0.0
C119 C 0.04697 0.51502 0.58453 0.0
C120 C 0.02913 0.50264 0.58358 0.0
C121 C 0.01533 0.50485 0.5732 0.0
C122 C 0.01984 0.51994 0.56382 0.0
C123 C 0.03767 0.53252 0.56482 0.0
H124 H 0.58868 0.45339 0.83532 0.0
N125 N 0.55151 0.44427 0.82356 0.0
H126 H 0.59969 0.44206 0.85657 0.0
H127 H 0.52876 0.42411 0.84088 0.0
H128 H 0.5393 0.41335 0.86244 0.0
H129 H 0.5589 0.40594 0.8153 0.0
H130 H 0.58774 0.39399 0.80196 0.0
H131 H 0.57915 0.46955 0.81025 0.0
H132 H 0.60711 0.45793 0.79635 0.0
H133 H 0.56562 0.48316 0.83022 0.0
H134 H 0.51324 0.44979 0.81435 0.0
H135 H 0.54604 0.51562 0.82905 0.0
H136 H 0.49295 0.48209 0.81376 0.0
H137 H 0.4685 0.61421 0.83499 0.0
H138 H 0.45274 0.6242 0.85537 0.0
H139 H 0.43426 0.56012 0.86167 0.0
H140 H 0.44898 0.55065 0.84093 0.0
H141 H 0.43205 0.55488 0.81984 0.0
H142 H 0.40253 0.56592 0.80661 0.0
H143 H 0.43834 0.61882 0.79341 0.0
H144 H 0.46768 0.60783 0.80691 0.0
H145 H 0.49822 0.56445 0.84003 0.0
H146 H 0.51872 0.5327 0.83939 0.0
H147 H 0.48835 0.51507 0.80404 0.0
N148 N 0.4681 0.57694 0.82384 0.0
H149 H 0.46716 0.54625 0.80495 0.0
C150 C 0.5579 0.43935 0.83647 0.0
C151 C 0.57777 0.44475 0.8412 0.0
C152 C 0.584 0.43835 0.85341 0.0
C153 C 0.57045 0.42663 0.86121 0.0
C154 C 0.55031 0.42197 0.85661 0.0
C155 C 0.54417 0.42823 0.84435 0.0
C156 C 0.56665 0.43857 0.81387 0.0
C157 C 0.5692 0.41737 0.81101 0.0
C158 C 0.58569 0.41059 0.80331 0.0
C159 C 0.59997 0.42495 0.79809 0.0
C160 C 0.59676 0.44634 0.80042 0.0
C161 C 0.58046 0.45308 0.80832 0.0
C162 C 0.54091 0.46401 0.82224 0.0
C163 C 0.5499 0.48282 0.82642 0.0
C164 C 0.53853 0.5014 0.82587 0.0
C165 C 0.51777 0.50156 0.8214 0.0
C166 C 0.50896 0.48271 0.81708 0.0
C167 C 0.52047 0.46419 0.81746 0.0
C168 C 0.46015 0.58175 0.83648 0.0
C169 C 0.46116 0.60235 0.84084 0.0
C170 C 0.45223 0.60797 0.85255 0.0
C171 C 0.44225 0.59297 0.86027 0.0
C172 C 0.4415 0.57219 0.85594 0.0
C173 C 0.45013 0.56667 0.84411 0.0
C174 C 0.45209 0.58061 0.81435 0.0
C175 C 0.43367 0.56862 0.81392 0.0
C176 C 0.41685 0.57491 0.80629 0.0
C177 C 0.41805 0.59336 0.79904 0.0
C178 C 0.43685 0.60469 0.79901 0.0
C179 C 0.45368 0.59835 0.8066 0.0
C180 C 0.48005 0.55763 0.82301 0.0
C181 C 0.49557 0.5536 0.83224 0.0
C182 C 0.50762 0.53549 0.83175 0.0
C183 C 0.50512 0.5211 0.82172 0.0
C184 C 0.49031 0.52547 0.81212 0.0
C185 C 0.47803 0.5435 0.81269 0.0
H186 H 0.47631 0.8927 0.09587 0.0
N187 N 0.47268 0.9249 0.08015 0.0
H188 H 0.45894 0.88751 0.11646 0.0
H189 H 0.44837 0.95355 0.09262 0.0
H190 H 0.43142 0.94888 0.11342 0.0
H191 H 0.43355 0.937 0.07269 0.0
H192 H 0.41049 0.91769 0.0582 0.0
H193 H 0.48327 0.89353 0.06499 0.0
H194 H 0.46041 0.8741 0.05051 0.0
H195 H 0.5136 0.92574 0.08326 0.0
H196 H 0.4616 0.96354 0.07119 0.0
H197 H 0.53733 0.95503 0.07987 0.0
H198 H 0.4853 0.99306 0.06757 0.0
H199 H 0.60296 0.02528 0.08879 0.0
H200 H 0.61326 0.03792 0.11007 0.0
H201 H 0.56603 0.08585 0.10777 0.0
H202 H 0.55583 0.07316 0.08666 0.0
H203 H 0.54731 0.07142 0.06459 0.0
H204 H 0.55678 0.10141 0.05136 0.0
H205 H 0.61847 0.07538 0.04595 0.0
H206 H 0.60912 0.04611 0.05978 0.0
H207 H 0.57841 0.0038 0.06323 0.0
H208 H 0.55248 0.97579 0.06298 0.0
H209 H 0.5072 0.01739 0.08001 0.0
N210 N 0.5744 0.04146 0.07322 0.0
H211 H 0.5331 0.04543 0.07984 0.0
C212 C 0.46377 0.92347 0.09278 0.0
C213 C 0.46672 0.90509 0.09976 0.0
C214 C 0.45684 0.90222 0.11154 0.0
C215 C 0.44378 0.9178 0.11663 0.0
C216 C 0.44116 0.93646 0.10971 0.0
C217 C 0.45101 0.93925 0.09787 0.0
C218 C 0.46012 0.91655 0.06994 0.0
C219 C 0.43966 0.92359 0.06765 0.0
C220 C 0.42646 0.91246 0.05943 0.0
C221 C 0.43356 0.89426 0.05329 0.0
C222 C 0.45449 0.88814 0.05498 0.0
C223 C 0.46758 0.89918 0.06325 0.0
C224 C 0.48597 0.94244 0.07747 0.0
C225 C 0.5074 0.94037 0.07975 0.0
C226 C 0.52091 0.9571 0.07772 0.0
C227 C 0.51325 0.97638 0.07334 0.0
C228 C 0.49167 0.97845 0.07101 0.0
C229 C 0.47812 0.96159 0.07303 0.0
C230 C 0.5788 0.04829 0.08609 0.0
C231 C 0.59472 0.03835 0.09298 0.0
C232 C 0.60052 0.04555 0.10511 0.0
C233 C 0.59053 0.06296 0.11053 0.0
C234 C 0.57418 0.07258 0.10375 0.0
C235 C 0.56828 0.06525 0.09168 0.0
C236 C 0.57771 0.05674 0.06334 0.0
C237 C 0.56277 0.07207 0.06043 0.0
C238 C 0.56819 0.08916 0.05277 0.0
C239 C 0.58856 0.09106 0.04778 0.0
C240 C 0.60284 0.07475 0.04991 0.0
C241 C 0.59748 0.05788 0.05767 0.0
C242 C 0.5578 0.02656 0.07164 0.0
C243 C 0.56275 0.00693 0.06667 0.0
C244 C 0.54797 0.99094 0.06664 0.0
C245 C 0.52786 0.99424 0.07169 0.0
C246 C 0.52251 0.01433 0.07602 0.0
C247 C 0.53736 0.03039 0.07598 0.0
H248 H 0.08232 0.55312 0.91843 0.0
N249 N 0.04314 0.56129 0.9278 0.0
H250 H 0.09518 0.56132 0.89712 0.0
H251 H 0.021 0.57501 0.90794 0.0
H252 H 0.03327 0.58184 0.88617 0.0
H253 H 0.05107 0.60084 0.93333 0.0
H254 H 0.07906 0.61465 0.94668 0.0
H255 H 0.06834 0.53827 0.9442 0.0
H256 H 0.09534 0.55192 0.95809 0.0
H257 H 0.05803 0.52179 0.92384 0.0
H258 H 0.00425 0.55674 0.93623 0.0
H259 H 0.03866 0.48936 0.9264 0.0
H260 H 0.98421 0.52443 0.93818 0.0
H261 H 0.96283 0.3904 0.92268 0.0
H262 H 0.94918 0.37865 0.90195 0.0
H263 H 0.92717 0.44105 0.89417 0.0
H264 H 0.94104 0.45268 0.91478 0.0
H265 H 0.92386 0.45029 0.93517 0.0
H266 H 0.89417 0.44076 0.94859 0.0
H267 H 0.93047 0.39084 0.96526 0.0
H268 H 0.95992 0.4001 0.95139 0.0
H269 H 0.99196 0.43845 0.91706 0.0
H270 H 0.01233 0.47029 0.91645 0.0
H271 H 0.97902 0.49314 0.9496 0.0
N272 N 0.96046 0.42842 0.93282 0.0
H273 H 0.95796 0.46184 0.94986 0.0
C274 C 0.05073 0.56394 0.91487 0.0
C275 C 0.07152 0.55946 0.91146 0.0
C276 C 0.07881 0.56395 0.89915 0.0
C277 C 0.06537 0.57249 0.88984 0.0
C278 C 0.04429 0.57586 0.89313 0.0
C279 C 0.03714 0.57177 0.90553 0.0
C280 C 0.05743 0.56856 0.9376 0.0
C281 C 0.06049 0.59011 0.93888 0.0
C282 C 0.0765 0.59798 0.94659 0.0
C283 C 0.08973 0.58443 0.95343 0.0
C284 C 0.08587 0.56285 0.95273 0.0
C285 C 0.0701 0.55497 0.94482 0.0
C286 C 0.03257 0.54172 0.92997 0.0
C287 C 0.04203 0.52246 0.92716 0.0
C288 C 0.0308 0.5039 0.92851 0.0
C289 C 0.00973 0.50416 0.93241 0.0
C290 C 0.00045 0.52349 0.93535 0.0
C291 C 0.01182 0.54201 0.93418 0.0
C292 C 0.95308 0.42234 0.92026 0.0
C293 C 0.95518 0.40152 0.91643 0.0
C294 C 0.94725 0.39483 0.90465 0.0
C295 C 0.93709 0.40893 0.89644 0.0
C296 C 0.93513 0.42987 0.90023 0.0
C297 C 0.94295 0.43651 0.91204 0.0
C298 C 0.94412 0.42576 0.94224 0.0
C299 C 0.92553 0.43746 0.94182 0.0
C300 C 0.90859 0.43208 0.94959 0.0
C301 C 0.90985 0.41489 0.95793 0.0
C302 C 0.92885 0.40394 0.9588 0.0
C303 C 0.94576 0.40932 0.951 0.0
C304 C 0.97244 0.44775 0.93302 0.0
C305 C 0.98869 0.45043 0.92409 0.0
C306 C 0.00064 0.46862 0.92388 0.0
C307 C 0.99726 0.48451 0.93291 0.0
C308 C 0.98169 0.48154 0.94225 0.0
C309 C 0.9695 0.46341 0.94236 0.0
H310 H 0.514 0.39343 0.1622 0.0
N311 N 0.52329 0.4267 0.17627 0.0
H312 H 0.52884 0.38342 0.14141 0.0
H313 H 0.55089 0.44973 0.16169 0.0
H314 H 0.56541 0.43998 0.14109 0.0
H315 H 0.56563 0.42681 0.18036 0.0
H316 H 0.58443 0.40422 0.19513 0.0
H317 H 0.50696 0.40454 0.19525 0.0
H318 H 0.52558 0.38289 0.21076 0.0
H319 H 0.48357 0.43833 0.17585 0.0
H320 H 0.54568 0.46166 0.18251 0.0
H321 H 0.46949 0.47345 0.17798 0.0
H322 H 0.53233 0.49712 0.18323 0.0
H323 H 0.43212 0.57522 0.16717 0.0
H324 H 0.41753 0.58448 0.14654 0.0
H325 H 0.47991 0.59032 0.131 0.0
H326 H 0.49445 0.58229 0.15213 0.0
H327 H 0.48475 0.6118 0.18129 0.0
H328 H 0.46657 0.63427 0.19656 0.0
H329 H 0.42315 0.58441 0.20471 0.0
H330 H 0.44143 0.56207 0.1893 0.0
H331 H 0.45394 0.53865 0.16453 0.0
H332 H 0.46575 0.50321 0.16687 0.0
H333 H 0.51495 0.52399 0.19235 0.0
N334 N 0.47373 0.57394 0.17368 0.0
H335 H 0.50415 0.55998 0.1888 0.0
C336 C 0.53098 0.42241 0.16352 0.0
C337 C 0.52501 0.40377 0.15754 0.0
C338 C 0.53359 0.39803 0.14573 0.0
C339 C 0.54824 0.41096 0.13963 0.0
C340 C 0.55391 0.42985 0.14548 0.0
C341 C 0.54552 0.43546 0.15733 0.0
C342 C 0.53481 0.41692 0.1865 0.0
C343 C 0.55677 0.41741 0.18703 0.0
C344 C 0.56754 0.40455 0.19561 0.0
C345 C 0.55657 0.3913 0.20401 0.0
C346 C 0.53459 0.39232 0.20417 0.0
C347 C 0.52388 0.40487 0.19543 0.0
C348 C 0.51564 0.44746 0.17866 0.0
C349 C 0.49417 0.45116 0.17767 0.0
C350 C 0.48622 0.47136 0.17873 0.0
C351 C 0.49971 0.48852 0.18042 0.0
C352 C 0.52126 0.48454 0.182 0.0
C353 C 0.52907 0.46419 0.18137 0.0
C354 C 0.46453 0.57848 0.16132 0.0
C355 C 0.44274 0.57875 0.15943 0.0
C356 C 0.43436 0.58375 0.14748 0.0
C357 C 0.44748 0.58818 0.13702 0.0
C358 C 0.46928 0.5874 0.13886 0.0
C359 C 0.47766 0.58267 0.1509 0.0
C360 C 0.46447 0.58537 0.18414 0.0
C361 C 0.47159 0.60561 0.18659 0.0
C362 C 0.46121 0.61838 0.19535 0.0
C363 C 0.44335 0.61114 0.20182 0.0
C364 C 0.43674 0.59048 0.19978 0.0
C365 C 0.44725 0.57766 0.19105 0.0
C366 C 0.47853 0.55228 0.17623 0.0
C367 C 0.46736 0.53577 0.17057 0.0
C368 C 0.47402 0.51519 0.17211 0.0
C369 C 0.49157 0.51039 0.17973 0.0
C370 C 0.50183 0.52688 0.18606 0.0
C371 C 0.49552 0.54754 0.18419 0.0
H372 H 0.43798 0.96303 0.41136 0.0
N373 N 0.45427 0.93833 0.43031 0.0
H374 H 0.42529 0.95125 0.39044 0.0
H375 H 0.45723 0.90035 0.42039 0.0
H376 H 0.44469 0.88844 0.39946 0.0
H377 H 0.45457 0.912 0.44996 0.0
H378 H 0.42487 0.90139 0.46318 0.0
H379 H 0.41557 0.9566 0.43046 0.0
H380 H 0.38624 0.94714 0.44406 0.0
H381 H 0.4427 0.97764 0.43905 0.0
H382 H 0.49416 0.94187 0.42385 0.0
H383 H 0.46458 0.0083 0.43992 0.0
H384 H 0.51601 0.97304 0.42406 0.0
H385 H 0.54072 0.10609 0.42088 0.0
H386 H 0.55296 0.11821 0.39991 0.0
H387 H 0.57008 0.05511 0.39 0.0
H388 H 0.55788 0.04315 0.41093 0.0
H389 H 0.58269 0.0526 0.42922 0.0
H390 H 0.61153 0.06232 0.44316 0.0
H391 H 0.56939 0.09932 0.46618 0.0
H392 H 0.54052 0.08985 0.45185 0.0
H393 H 0.50182 0.06483 0.4266 0.0
H394 H 0.4801 0.03355 0.42685 0.0
H395 H 0.53424 0.99671 0.43698 0.0
N396 N 0.54267 0.06772 0.43033 0.0
H397 H 0.55589 0.02774 0.43598 0.0
C398 C 0.44864 0.93249 0.41741 0.0
C399 C 0.43976 0.94679 0.40876 0.0
C400 C 0.43255 0.94005 0.3968 0.0
C401 C 0.43388 0.9189 0.39335 0.0
C402 C 0.44321 0.90478 0.40191 0.0
C403 C 0.45052 0.91155 0.41381 0.0
C404 C 0.43745 0.93518 0.43933 0.0
C405 C 0.43976 0.91995 0.44883 0.0
C406 C 0.42274 0.91397 0.45639 0.0
C407 C 0.40301 0.92326 0.45465 0.0
C408 C 0.40102 0.93927 0.44551 0.0
C409 C 0.41792 0.94496 0.43782 0.0
C410 C 0.46674 0.95709 0.43139 0.0
C411 C 0.45864 0.9762 0.43583 0.0
C412 C 0.47125 0.99399 0.43623 0.0
C413 C 0.49213 0.99331 0.43202 0.0
C414 C 0.50016 0.97419 0.42761 0.0
C415 C 0.48765 0.95634 0.42739 0.0
C416 C 0.5482 0.07378 0.41746 0.0
C417 C 0.54687 0.09488 0.4141 0.0
C418 C 0.554 0.10177 0.40218 0.0
C419 C 0.56253 0.08761 0.39335 0.0
C420 C 0.56338 0.06634 0.39657 0.0
C421 C 0.55641 0.05949 0.40855 0.0
C422 C 0.55936 0.07059 0.43948 0.0
C423 C 0.57952 0.06253 0.43736 0.0
C424 C 0.59604 0.06803 0.44542 0.0
C425 C 0.59282 0.0817 0.45577 0.0
C426 C 0.57247 0.08899 0.45819 0.0
C427 C 0.55593 0.08347 0.4501 0.0
C428 C 0.53041 0.04886 0.43138 0.0
C429 C 0.50892 0.04999 0.42893 0.0
C430 C 0.49653 0.03206 0.42916 0.0
C431 C 0.50533 0.01249 0.432 0.0
C432 C 0.52691 0.01141 0.43458 0.0
C433 C 0.53935 0.02932 0.43416 0.0
H434 H 0.02714 0.88632 0.66343 0.0
N435 N 0.02691 0.91977 0.6783 0.0
H436 H 0.04636 0.88125 0.64338 0.0
H437 H 0.05072 0.94908 0.66608 0.0
H438 H 0.06998 0.94419 0.64597 0.0
H439 H 0.0656 0.93185 0.6866 0.0
H440 H 0.087 0.91357 0.7025 0.0
H441 H 0.01441 0.89004 0.69418 0.0
H442 H 0.03559 0.87169 0.71009 0.0
H443 H 0.98775 0.92214 0.67045 0.0
H444 H 0.03568 0.95731 0.68973 0.0
H445 H 0.96376 0.95146 0.67239 0.0
H446 H 0.01146 0.98659 0.69232 0.0
H447 H 0.88715 0.03615 0.6731 0.0
H448 H 0.87508 0.04858 0.65216 0.0
H449 H 0.93835 0.06609 0.64255 0.0
H450 H 0.95022 0.05356 0.66335 0.0
H451 H 0.94877 0.07383 0.6832 0.0
H452 H 0.9413 0.10449 0.69625 0.0
H453 H 0.89275 0.07034 0.71594 0.0
H454 H 0.90005 0.03986 0.70255 0.0
H455 H 0.91823 0.9981 0.68689 0.0
H456 H 0.9434 0.96953 0.68733 0.0
H457 H 0.99355 0.01356 0.68108 0.0
N458 N 0.92557 0.03801 0.6826 0.0
H459 H 0.96828 0.04209 0.68147 0.0
C460 C 0.03739 0.91803 0.66616 0.0
C461 C 0.03636 0.89903 0.65959 0.0
C462 C 0.04744 0.89614 0.64823 0.0
C463 C 0.05974 0.9123 0.64316 0.0
C464 C 0.0605 0.93153 0.64962 0.0
C465 C 0.04952 0.93434 0.66109 0.0
C466 C 0.03843 0.91213 0.68918 0.0
C467 C 0.05881 0.91904 0.6919 0.0
C468 C 0.07105 0.90852 0.70094 0.0
C469 C 0.06304 0.8911 0.70749 0.0
C470 C 0.04217 0.88517 0.70533 0.0
C471 C 0.03005 0.89558 0.69623 0.0
C472 C 0.01331 0.93742 0.68006 0.0
C473 C 0.99295 0.93617 0.67527 0.0
C474 C 0.97923 0.95293 0.67649 0.0
C475 C 0.9855 0.97138 0.6827 0.0
C476 C 0.00609 0.97269 0.68744 0.0
C477 C 0.01993 0.95589 0.68607 0.0
C478 C 0.91952 0.04375 0.66979 0.0
C479 C 0.89839 0.04243 0.66638 0.0
C480 C 0.89154 0.04967 0.65448 0.0
C481 C 0.90576 0.05837 0.64572 0.0
C482 C 0.92705 0.05925 0.64903 0.0
C483 C 0.93386 0.0521 0.66097 0.0
C484 C 0.92484 0.05456 0.69188 0.0
C485 C 0.93691 0.07274 0.69053 0.0
C486 C 0.93261 0.0903 0.69804 0.0
C487 C 0.9162 0.08997 0.70701 0.0
C488 C 0.90521 0.07124 0.70894 0.0
C489 C 0.90949 0.05376 0.70142 0.0
C490 C 0.94127 0.02211 0.68395 0.0
C491 C 0.9347 0.00154 0.6858 0.0
C492 C 0.94913 0.98524 0.6859 0.0
C493 C 0.97054 0.98911 0.68395 0.0
C494 C 0.97723 0.00993 0.68263 0.0
C495 C 0.96273 0.02631 0.68272 0.0
In496 In 0.32773 0.67266 7e-05 0.0
O497 O 0.321 0.7031 0.01075 0.0
O498 O 0.34323 0.70378 0.99566 0.0
C499 C 0.2875 0.66065 0.99694 0.0
C500 C 0.34729 0.65717 0.02101 0.0
C501 C 0.34416 0.65937 0.97768 0.0
O502 O 0.29279 0.67957 0.99758 0.0
O503 O 0.3024 0.64793 0.99804 0.0
O504 O 0.34704 0.64996 0.98814 0.0
O505 O 0.33299 0.67553 0.9785 0.0
C506 C 0.33394 0.71374 0.00438 0.0
O507 O 0.35681 0.66637 0.0121 0.0
O508 O 0.32784 0.65556 0.01936 0.0
In509 In 0.32774 0.83123 0.25305 0.0
O510 O 0.32319 0.79709 0.24744 0.0
O511 O 0.35297 0.80626 0.2545 0.0
C512 C 0.28665 0.84107 0.25502 0.0
C513 C 0.34087 0.84872 0.23089 0.0
C514 C 0.34463 0.84409 0.27545 0.0
O515 O 0.29351 0.82313 0.25758 0.0
O516 O 0.30039 0.85379 0.25138 0.0
O517 O 0.35097 0.85034 0.26469 0.0
O518 O 0.3298 0.83114 0.27497 0.0
C519 C 0.34166 0.79175 0.25018 0.0
O520 O 0.34131 0.85818 0.24147 0.0
O521 O 0.33356 0.83049 0.23141 0.0
In522 In 0.16879 0.83115 0.50355 0.0
O523 O 0.15194 0.85648 0.515 0.0
O524 O 0.16696 0.83245 0.52543 0.0
C525 C 0.15252 0.84098 0.48045 0.0
C526 C 0.15806 0.79049 0.50572 0.0
C527 C 0.20834 0.84553 0.50137 0.0
O528 O 0.14301 0.84433 0.49084 0.0
O529 O 0.17001 0.83213 0.48168 0.0
O530 O 0.20434 0.8266 0.50359 0.0
O531 O 0.19249 0.8571 0.50047 0.0
C532 C 0.1562 0.84888 0.52581 0.0
O533 O 0.1768 0.79659 0.50598 0.0
O534 O 0.14483 0.80482 0.50414 0.0
In535 In 0.17604 0.67029 0.75369 0.0
O536 O 0.14731 0.66121 0.76549 0.0
O537 O 0.17718 0.65368 0.77302 0.0
C538 C 0.16075 0.653 0.7319 0.0
C539 C 0.21766 0.66363 0.75579 0.0
C540 C 0.16679 0.71144 0.75318 0.0
O541 O 0.16432 0.64251 0.74186 0.0
O542 O 0.16495 0.6721 0.73289 0.0
O543 O 0.18075 0.70348 0.74618 0.0
O544 O 0.158 0.69877 0.7607 0.0
C545 C 0.15765 0.65304 0.77448 0.0
O546 O 0.2086 0.67871 0.76121 0.0
O547 O 0.20585 0.6523 0.74908 0.0
In548 In 0.83017 0.16846 0.50407 0.0
O549 O 0.82549 0.2039 0.50475 0.0
O550 O 0.85574 0.19199 0.50871 0.0
C551 C 0.7901 0.15613 0.50077 0.0
C552 C 0.84029 0.15061 0.52666 0.0
C553 C 0.8474 0.15794 0.48132 0.0
O554 O 0.795 0.1749 0.5028 0.0
O555 O 0.80533 0.14369 0.50051 0.0
O556 O 0.85112 0.14819 0.49155 0.0
O557 O 0.835 0.17308 0.48254 0.0
C558 C 0.84423 0.20783 0.50764 0.0
O559 O 0.84985 0.14677 0.51636 0.0
O560 O 0.82547 0.16349 0.5256 0.0
In561 In 0.83687 0.33265 0.75205 0.0
O562 O 0.86108 0.34896 0.73951 0.0
O563 O 0.8318 0.34184 0.73109 0.0
C564 C 0.85261 0.3436 0.7751 0.0
C565 C 0.84813 0.29244 0.74829 0.0
C566 C 0.7973 0.34608 0.75569 0.0
O567 O 0.85575 0.35406 0.76505 0.0
O568 O 0.84156 0.3275 0.77354 0.0
O569 O 0.80165 0.32707 0.75399 0.0
O570 O 0.81284 0.35818 0.75547 0.0
C571 C 0.84972 0.34964 0.72967 0.0
O572 O 0.82934 0.29837 0.74784 0.0
O573 O 0.86107 0.3067 0.75075 0.0
In574 In 0.66854 0.33224 0.00216 0.0
O575 O 0.67533 0.29838 0.00753 0.0
O576 O 0.64603 0.30504 0.99895 0.0
C577 C 0.70915 0.34365 0.00026 0.0
C578 C 0.65421 0.34792 0.02457 0.0
C579 C 0.6516 0.34579 0.97994 0.0
O580 O 0.70273 0.32566 0.99735 0.0
O581 O 0.69515 0.35581 0.00432 0.0
O582 O 0.64203 0.34664 0.99049 0.0
O583 O 0.6696 0.33787 0.98056 0.0
C584 C 0.6579 0.29148 0.0038 0.0
O585 O 0.65283 0.3577 0.01413 0.0
O586 O 0.66325 0.33052 0.02376 0.0
In587 In 0.67157 0.16822 0.25234 0.0
O588 O 0.64805 0.14956 0.26407 0.0
O589 O 0.66836 0.16988 0.27417 0.0
C590 C 0.66216 0.15047 0.22958 0.0
C591 C 0.71242 0.15826 0.25533 0.0
C592 C 0.6561 0.20708 0.24921 0.0
O593 O 0.65879 0.14163 0.24016 0.0
O594 O 0.67052 0.16822 0.23042 0.0
O595 O 0.67547 0.20348 0.24989 0.0
O596 O 0.64465 0.19114 0.25019 0.0
C597 C 0.6537 0.15677 0.27475 0.0
O598 O 0.70602 0.17686 0.25532 0.0
O599 O 0.69829 0.14484 0.25375 0.0
H600 H 0.09801 0.89435 0.29012 0.0
H601 H 0.12512 0.87367 0.27954 0.0
H602 H 0.16556 0.92732 0.27864 0.0
H603 H 0.13952 0.9477 0.28992 0.0
H604 H 0.16368 0.90133 0.25485 0.0
H605 H 0.17312 0.89779 0.30156 0.0
H606 H 0.16064 0.88949 0.32333 0.0
H607 H 0.14936 0.82613 0.31197 0.0
H608 H 0.16149 0.83418 0.29007 0.0
H609 H 0.27002 0.87981 0.2525 0.0
H610 H 0.23423 0.89068 0.25664 0.0
H611 H 0.21722 0.8271 0.26527 0.0
H612 H 0.25345 0.81619 0.26151 0.0
H613 H 0.20177 0.85136 0.28264 0.0
H614 H 0.1994 0.8521 0.23753 0.0
H615 H 0.21083 0.85922 0.21541 0.0
H616 H 0.20682 0.92506 0.22239 0.0
H617 H 0.19567 0.91836 0.24462 0.0
C618 C 0.11266 0.90181 0.28772 0.0
C619 C 0.11644 0.92281 0.29102 0.0
C620 C 0.12804 0.88998 0.28154 0.0
C621 C 0.14727 0.89903 0.27832 0.0
C622 C 0.1507 0.92014 0.28094 0.0
C623 C 0.13561 0.93184 0.28734 0.0
C624 C 0.16469 0.88633 0.27326 0.0
C625 C 0.17205 0.89035 0.26086 0.0
C626 C 0.17504 0.87149 0.28098 0.0
C627 C 0.16793 0.86665 0.29415 0.0
C628 C 0.16779 0.88215 0.30368 0.0
C629 C 0.16082 0.87748 0.31604 0.0
C630 C 0.15414 0.85731 0.31902 0.0
C631 C 0.15448 0.84176 0.30965 0.0
C632 C 0.1614 0.84636 0.29726 0.0
C633 C 0.25864 0.86808 0.25515 0.0
C634 C 0.26454 0.84714 0.25668 0.0
C635 C 0.23809 0.8743 0.25742 0.0
C636 C 0.22286 0.85967 0.26105 0.0
C637 C 0.22865 0.83866 0.26242 0.0
C638 C 0.24933 0.83244 0.26025 0.0
C639 C 0.20139 0.86682 0.26428 0.0
C640 C 0.19322 0.86183 0.27638 0.0
C641 C 0.19011 0.88053 0.25617 0.0
C642 C 0.19678 0.88471 0.24278 0.0
C643 C 0.20109 0.86811 0.23438 0.0
C644 C 0.2075 0.87207 0.22182 0.0
C645 C 0.20957 0.89258 0.2175 0.0
C646 C 0.2052 0.90917 0.22574 0.0
C647 C 0.1988 0.9053 0.23833 0.0
H648 H 0.21454 0.89561 0.20777 0.0
H649 H 0.14876 0.85373 0.3286 0.0
H650 H 0.06576 0.62133 0.53791 0.0
H651 H 0.07904 0.65334 0.5282 0.0
H652 H 0.14182 0.63619 0.53894 0.0
H653 H 0.12858 0.60473 0.54922 0.0
H654 H 0.13484 0.67489 0.54525 0.0
H655 H 0.12457 0.63455 0.50729 0.0
H656 H 0.10529 0.61245 0.492 0.0
H657 H 0.06052 0.66138 0.48615 0.0
H658 H 0.07937 0.68369 0.50155 0.0
H659 H 0.18342 0.75756 0.51157 0.0
H660 H 0.17278 0.72203 0.51716 0.0
H661 H 0.10827 0.73845 0.5107 0.0
H662 H 0.1188 0.77394 0.50503 0.0
H663 H 0.11772 0.69928 0.50138 0.0
H664 H 0.12721 0.73845 0.54044 0.0
H665 H 0.14683 0.76044 0.55564 0.0
H666 H 0.19375 0.71294 0.55917 0.0
H667 H 0.17454 0.69077 0.54383 0.0
C668 C 0.08239 0.62436 0.53822 0.0
C669 C 0.09607 0.6104 0.54438 0.0
C670 C 0.09001 0.64257 0.53252 0.0
C671 C 0.11148 0.64711 0.53272 0.0
C672 C 0.1252 0.63301 0.53862 0.0
C673 C 0.1176 0.61488 0.54439 0.0
C674 C 0.11951 0.66713 0.52748 0.0
C675 C 0.1314 0.68 0.53557 0.0
C676 C 0.11466 0.67409 0.51495 0.0
C677 C 0.10329 0.66073 0.50567 0.0
C678 C 0.11052 0.64055 0.50282 0.0
C679 C 0.09968 0.62799 0.49412 0.0
C680 C 0.08166 0.63549 0.48813 0.0
C681 C 0.07447 0.65558 0.49081 0.0
C682 C 0.08524 0.6682 0.49951 0.0
C683 C 0.167 0.75353 0.5112 0.0
C684 C 0.15193 0.76856 0.50795 0.0
C685 C 0.16094 0.73325 0.51443 0.0
C686 C 0.13971 0.72768 0.51449 0.0
C687 C 0.12473 0.74242 0.51073 0.0
C688 C 0.13077 0.76271 0.50753 0.0
C689 C 0.13299 0.70688 0.51915 0.0
C690 C 0.12129 0.69397 0.511 0.0
C691 C 0.13807 0.6998 0.53161 0.0
C692 C 0.14956 0.71306 0.54089 0.0
C693 C 0.1418 0.73276 0.54438 0.0
C694 C 0.15283 0.74525 0.55303 0.0
C695 C 0.17155 0.73811 0.55834 0.0
C696 C 0.17926 0.71845 0.55503 0.0
C697 C 0.1683 0.70592 0.54637 0.0
H698 H 0.18007 0.7478 0.56503 0.0
H699 H 0.07329 0.62574 0.48139 0.0
H700 H 0.404 0.6335 0.79885 0.0
H701 H 0.37158 0.64684 0.78962 0.0
H702 H 0.35661 0.58543 0.77554 0.0
H703 H 0.38931 0.57197 0.78459 0.0
H704 H 0.34765 0.61745 0.75786 0.0
H705 H 0.33486 0.60104 0.80226 0.0
H706 H 0.34179 0.60269 0.82548 0.0
H707 H 0.33292 0.66902 0.82491 0.0
H708 H 0.32624 0.6678 0.80164 0.0
H709 H 0.23833 0.62832 0.74873 0.0
H710 H 0.27391 0.61817 0.75434 0.0
H711 H 0.28296 0.6772 0.7734 0.0
H712 H 0.24702 0.68714 0.76817 0.0
H713 H 0.296 0.6475 0.78812 0.0
H714 H 0.3073 0.6644 0.74408 0.0
H715 H 0.30094 0.6634 0.72079 0.0
H716 H 0.31314 0.59759 0.72037 0.0
H717 H 0.3193 0.59813 0.7437 0.0
C718 C 0.39403 0.62289 0.79357 0.0
C719 C 0.39922 0.60165 0.79246 0.0
C720 C 0.37543 0.63052 0.78839 0.0
C721 C 0.36161 0.61708 0.78202 0.0
C722 C 0.36706 0.59604 0.78045 0.0
C723 C 0.38565 0.58835 0.7857 0.0
C724 C 0.34102 0.6248 0.77756 0.0
C725 C 0.33622 0.62384 0.76446 0.0
C726 C 0.32641 0.63361 0.78616 0.0
C727 C 0.33026 0.63435 0.80018 0.0
C728 C 0.33455 0.616 0.80706 0.0
C729 C 0.33841 0.61685 0.82024 0.0
C730 C 0.33785 0.63595 0.82666 0.0
C731 C 0.33338 0.65424 0.81992 0.0
C732 C 0.32954 0.65347 0.80674 0.0
C733 C 0.24799 0.63926 0.75397 0.0
C734 C 0.23989 0.65853 0.75801 0.0
C735 C 0.2684 0.63347 0.75713 0.0
C736 C 0.28127 0.64699 0.76418 0.0
C737 C 0.27335 0.66649 0.76795 0.0
C738 C 0.25284 0.67219 0.76492 0.0
C739 C 0.30246 0.64025 0.76834 0.0
C740 C 0.3074 0.64131 0.78144 0.0
C741 C 0.31723 0.63166 0.7597 0.0
C742 C 0.31358 0.63128 0.74566 0.0
C743 C 0.30847 0.64968 0.73904 0.0
C744 C 0.30493 0.6492 0.72583 0.0
C745 C 0.30659 0.63044 0.71911 0.0
C746 C 0.31184 0.61212 0.72559 0.0
C747 C 0.31539 0.6125 0.7388 0.0
H748 H 0.30384 0.6301 0.70888 0.0
H749 H 0.34084 0.63658 0.83686 0.0
H750 H 0.43996 0.8739 0.03053 0.0
H751 H 0.41782 0.84706 0.02088 0.0
H752 H 0.37195 0.85626 0.05061 0.0
H753 H 0.39418 0.8828 0.06045 0.0
H754 H 0.38281 0.81579 0.04821 0.0
H755 H 0.36116 0.87041 0.02008 0.0
H756 H 0.36586 0.89964 0.00502 0.0
H757 H 0.3977 0.85915 0.97873 0.0
H758 H 0.39346 0.82973 0.99371 0.0
H759 H 0.31617 0.73862 0.02266 0.0
H760 H 0.32796 0.77317 0.02955 0.0
H761 H 0.37602 0.77223 0.00058 0.0
H762 H 0.364 0.738 0.99345 0.0
H763 H 0.36031 0.81057 0.00284 0.0
H764 H 0.38623 0.75769 0.03155 0.0
H765 H 0.38319 0.72808 0.0465 0.0
H766 H 0.3452 0.76513 0.07163 0.0
H767 H 0.34778 0.79488 0.05672 0.0
C768 C 0.42503 0.87039 0.03491 0.0
C769 C 0.41885 0.88044 0.04627 0.0
C770 C 0.41232 0.85516 0.02934 0.0
C771 C 0.39318 0.84971 0.035 0.0
C772 C 0.38662 0.86027 0.04606 0.0
C773 C 0.39928 0.87556 0.05161 0.0
C774 C 0.38102 0.8317 0.03007 0.0
C775 C 0.37748 0.81484 0.03836 0.0
C776 C 0.3746 0.83024 0.01713 0.0
C777 C 0.37713 0.84789 0.00807 0.0
C778 C 0.36931 0.86777 0.01113 0.0
C779 C 0.37186 0.88437 0.0026 0.0
C780 C 0.38211 0.88127 0.99094 0.0
C781 C 0.38978 0.86154 0.98777 0.0
C782 C 0.38728 0.84489 0.99627 0.0
C783 C 0.32904 0.74594 0.01763 0.0
C784 C 0.33929 0.73553 0.0076 0.0
C785 C 0.33581 0.76564 0.02161 0.0
C786 C 0.35311 0.77514 0.01573 0.0
C787 C 0.36267 0.76521 0.00527 0.0
C788 C 0.35582 0.7456 0.00124 0.0
C789 C 0.36224 0.79465 0.02097 0.0
C790 C 0.36533 0.8117 0.01274 0.0
C791 C 0.36847 0.79626 0.03395 0.0
C792 C 0.36699 0.77842 0.04295 0.0
C793 C 0.37709 0.75947 0.04022 0.0
C794 C 0.37548 0.74267 0.04869 0.0
C795 C 0.36396 0.7447 0.05999 0.0
C796 C 0.35408 0.76356 0.06286 0.0
C797 C 0.35562 0.7804 0.0544 0.0
H798 H 0.36272 0.73168 0.06654 0.0
H799 H 0.38407 0.89414 0.98434 0.0
H800 H 0.12842 0.56639 0.95594 0.0
H801 H 0.15937 0.58073 0.96626 0.0
H802 H 0.12502 0.63606 0.97645 0.0
H803 H 0.09347 0.62142 0.96674 0.0
H804 H 0.16435 0.64288 0.96324 0.0
H805 H 0.13675 0.6065 0.99953 0.0
H806 H 0.1221 0.57633 0.01108 0.0
H807 H 0.17806 0.5414 0.00373 0.0
H808 H 0.19292 0.57127 0.99197 0.0
H809 H 0.25213 0.68462 0.99624 0.0
H810 H 0.21647 0.67318 0.99139 0.0
H811 H 0.2384 0.60995 0.98708 0.0
H812 H 0.27383 0.62118 0.9923 0.0
H813 H 0.20273 0.6096 0.99913 0.0
H814 H 0.22882 0.64263 0.96099 0.0
H815 H 0.24405 0.67113 0.94818 0.0
H816 H 0.19191 0.71042 0.9575 0.0
H817 H 0.17651 0.68222 0.97052 0.0
C818 C 0.12713 0.58136 0.96067 0.0
C819 C 0.10827 0.59267 0.96049 0.0
C820 C 0.14497 0.5896 0.96648 0.0
C821 C 0.14444 0.60942 0.97212 0.0
C822 C 0.12571 0.62074 0.97211 0.0
C823 C 0.10773 0.61237 0.96647 0.0
C824 C 0.16383 0.61858 0.97745 0.0
C825 C 0.17257 0.63592 0.97127 0.0
C826 C 0.17474 0.60907 0.98767 0.0
C827 C 0.16588 0.59108 0.99477 0.0
C828 C 0.14586 0.59233 0.00028 0.0
C829 C 0.13753 0.57529 0.00688 0.0
C830 C 0.14912 0.55694 0.00811 0.0
C831 C 0.16909 0.55562 0.00276 0.0
C832 C 0.17749 0.57261 0.99614 0.0
C833 C 0.24929 0.66827 0.99434 0.0
C834 C 0.26577 0.65381 0.99458 0.0
C835 C 0.22893 0.66176 0.99152 0.0
C836 C 0.22477 0.64073 0.98868 0.0
C837 C 0.24118 0.62624 0.98924 0.0
C838 C 0.26146 0.6327 0.99218 0.0
C839 C 0.20351 0.63379 0.9848 0.0
C840 C 0.19442 0.61681 0.99123 0.0
C841 C 0.19242 0.64343 0.97466 0.0
C842 C 0.20165 0.66041 0.96685 0.0
C843 C 0.2207 0.65741 0.96039 0.0
C844 C 0.22934 0.67349 0.95308 0.0
C845 C 0.21899 0.6926 0.95206 0.0
C846 C 0.19994 0.69563 0.95833 0.0
C847 C 0.19124 0.6796 0.96567 0.0
H848 H 0.22571 0.70503 0.94639 0.0
H849 H 0.14265 0.54377 0.01323 0.0
H850 H 0.45752 0.64006 0.21908 0.0
H851 H 0.43722 0.66726 0.22975 0.0
H852 H 0.38062 0.64257 0.2132 0.0
H853 H 0.4009 0.61564 0.20223 0.0
H854 H 0.38407 0.68353 0.20896 0.0
H855 H 0.38962 0.63883 0.2453 0.0
H856 H 0.4074 0.61663 0.2612 0.0
H857 H 0.44361 0.66902 0.27396 0.0
H858 H 0.42626 0.69149 0.25801 0.0
H859 H 0.32077 0.75839 0.24011 0.0
H860 H 0.33528 0.72433 0.23438 0.0
H861 H 0.39553 0.74338 0.24878 0.0
H862 H 0.38106 0.77732 0.25469 0.0
H863 H 0.38722 0.70304 0.25492 0.0
H864 H 0.38472 0.74641 0.21721 0.0
H865 H 0.36764 0.7689 0.20116 0.0
H866 H 0.3264 0.71883 0.19083 0.0
H867 H 0.34304 0.69613 0.20697 0.0
C868 C 0.44072 0.6403 0.21782 0.0
C869 C 0.43084 0.62574 0.20977 0.0
C870 C 0.42911 0.65575 0.22401 0.0
C871 C 0.40737 0.6569 0.22233 0.0
C872 C 0.39737 0.64194 0.21466 0.0
C873 C 0.40897 0.62645 0.20849 0.0
C874 C 0.39542 0.67475 0.22763 0.0
C875 C 0.38439 0.68752 0.21906 0.0
C876 C 0.39628 0.68027 0.24075 0.0
C877 C 0.40675 0.66681 0.25038 0.0
C878 C 0.4015 0.64559 0.25143 0.0
C879 C 0.41148 0.63296 0.26046 0.0
C880 C 0.42666 0.6414 0.26857 0.0
C881 C 0.43186 0.6625 0.26767 0.0
C882 C 0.42194 0.6752 0.25864 0.0
C883 C 0.33704 0.75522 0.24219 0.0
C884 C 0.34983 0.77057 0.24775 0.0
C885 C 0.34532 0.73579 0.23888 0.0
C886 C 0.36655 0.73142 0.241 0.0
C887 C 0.37911 0.74641 0.24705 0.0
C888 C 0.37084 0.76583 0.25038 0.0
C889 C 0.37603 0.71179 0.23622 0.0
C890 C 0.38666 0.6988 0.24486 0.0
C891 C 0.3749 0.70606 0.22314 0.0
C892 C 0.36496 0.71965 0.21339 0.0
C893 C 0.37189 0.74025 0.21158 0.0
C894 C 0.36231 0.75303 0.20246 0.0
C895 C 0.3459 0.74532 0.19501 0.0
C896 C 0.33908 0.72479 0.19663 0.0
C897 C 0.34859 0.71196 0.20576 0.0
H898 H 0.3385 0.75523 0.18795 0.0
H899 H 0.43436 0.63159 0.27556 0.0
H900 H 0.36299 0.91931 0.44563 0.0
H901 H 0.33244 0.90591 0.45686 0.0
H902 H 0.3699 0.89432 0.4904 0.0
H903 H 0.40054 0.90887 0.47952 0.0
H904 H 0.33467 0.86053 0.47216 0.0
H905 H 0.34774 0.9185 0.50348 0.0
H906 H 0.35632 0.95543 0.50755 0.0
H907 H 0.30563 0.97452 0.48326 0.0
H908 H 0.29697 0.93766 0.47893 0.0
H909 H 0.24542 0.82623 0.50688 0.0
H910 H 0.28071 0.83893 0.50216 0.0
H911 H 0.25453 0.89481 0.48562 0.0
H912 H 0.21947 0.88264 0.49085 0.0
H913 H 0.28731 0.90522 0.49789 0.0
H914 H 0.27161 0.85107 0.46733 0.0
H915 H 0.26175 0.8157 0.46029 0.0
H916 H 0.31541 0.79036 0.47946 0.0
H917 H 0.32545 0.82558 0.48674 0.0
C918 C 0.36476 0.91443 0.4555 0.0
C919 C 0.3843 0.91543 0.46168 0.0
C920 C 0.34728 0.90656 0.46184 0.0
C921 C 0.34895 0.89931 0.47445 0.0
C922 C 0.36833 0.90004 0.48069 0.0
C923 C 0.38584 0.9082 0.4744 0.0
C924 C 0.33029 0.89062 0.48083 0.0
C925 C 0.3245 0.87005 0.47807 0.0
C926 C 0.31682 0.90334 0.48811 0.0
C927 C 0.32189 0.92541 0.49078 0.0
C928 C 0.33858 0.93059 0.49892 0.0
C929 C 0.34342 0.9515 0.50129 0.0
C930 C 0.33157 0.96731 0.49563 0.0
C931 C 0.31482 0.96225 0.48762 0.0
C932 C 0.30994 0.94137 0.48521 0.0
C933 C 0.24727 0.8413 0.50234 0.0
C934 C 0.22973 0.85341 0.49918 0.0
C935 C 0.26742 0.84851 0.49959 0.0
C936 C 0.27033 0.8677 0.49333 0.0
C937 C 0.25277 0.87999 0.49046 0.0
C938 C 0.2327 0.87297 0.49342 0.0
C939 C 0.29147 0.87485 0.48933 0.0
C940 C 0.29765 0.89531 0.49234 0.0
C941 C 0.30514 0.86206 0.48208 0.0
C942 C 0.29913 0.8409 0.47771 0.0
C943 C 0.28121 0.83793 0.47012 0.0
C944 C 0.27561 0.81792 0.46608 0.0
C945 C 0.2879 0.80079 0.46946 0.0
C946 C 0.30587 0.80364 0.47687 0.0
C947 C 0.31153 0.82361 0.48096 0.0
H948 H 0.28354 0.78531 0.46632 0.0
H949 H 0.33533 0.98348 0.49749 0.0
H950 H 0.1026 0.87798 0.702 0.0
H951 H 0.12279 0.85122 0.71315 0.0
H952 H 0.0748 0.84691 0.74204 0.0
H953 H 0.05441 0.87359 0.73085 0.0
H954 H 0.13982 0.84422 0.73652 0.0
H955 H 0.06658 0.79583 0.74883 0.0
H956 H 0.03023 0.79144 0.74139 0.0
H957 H 0.04811 0.81084 0.70358 0.0
H958 H 0.08459 0.81504 0.71075 0.0
H959 H 0.13586 0.73114 0.76647 0.0
H960 H 0.12106 0.76559 0.76222 0.0
H961 H 0.16634 0.77523 0.73218 0.0
H962 H 0.18136 0.74087 0.73649 0.0
H963 H 0.10262 0.77664 0.74035 0.0
H964 H 0.17483 0.82753 0.72811 0.0
H965 H 0.21156 0.83147 0.73486 0.0
H966 H 0.19667 0.80594 0.77177 0.0
H967 H 0.15981 0.80212 0.76532 0.0
C968 C 0.09659 0.87174 0.71091 0.0
C969 C 0.0768 0.87773 0.71548 0.0
C970 C 0.10814 0.85641 0.71726 0.0
C971 C 0.10014 0.84679 0.72829 0.0
C972 C 0.0811 0.85385 0.7334 0.0
C973 C 0.06946 0.86907 0.727 0.0
C974 C 0.11067 0.8281 0.73367 0.0
C975 C 0.13175 0.8294 0.73731 0.0
C976 C 0.10005 0.80884 0.73487 0.0
C977 C 0.07824 0.80599 0.73038 0.0
C978 C 0.06275 0.79908 0.73892 0.0
C979 C 0.04213 0.79663 0.73475 0.0
C980 C 0.03685 0.80093 0.72203 0.0
C981 C 0.0522 0.80759 0.71344 0.0
C982 C 0.07284 0.81002 0.71755 0.0
C983 C 0.14292 0.74076 0.75912 0.0
C984 C 0.15972 0.73327 0.75178 0.0
C985 C 0.13441 0.76042 0.75669 0.0
C986 C 0.14261 0.77304 0.74692 0.0
C987 C 0.15993 0.76592 0.7399 0.0
C988 C 0.16845 0.74624 0.74233 0.0
C989 C 0.13183 0.79267 0.74325 0.0
C990 C 0.11067 0.7915 0.7398 0.0
C991 C 0.14247 0.81194 0.74215 0.0
C992 C 0.16458 0.81436 0.74617 0.0
C993 C 0.17937 0.82284 0.73769 0.0
C994 C 0.20022 0.82504 0.74146 0.0
C995 C 0.20645 0.8189 0.75372 0.0
C996 C 0.19184 0.81061 0.76225 0.0
C997 C 0.17097 0.80839 0.75853 0.0
H998 H 0.2226 0.82061 0.75662 0.0
H999 H 0.02088 0.79906 0.71882 0.0
H1000 H 0.60359 0.39111 0.78195 0.0
H1001 H 0.63552 0.37699 0.77246 0.0
H1002 H 0.67093 0.42801 0.78827 0.0
H1003 H 0.63947 0.4417 0.79836 0.0
H1004 H 0.68053 0.4172 0.76166 0.0
H1005 H 0.67254 0.38602 0.80383 0.0
H1006 H 0.65321 0.36638 0.82032 0.0
H1007 H 0.64888 0.31374 0.79504 0.0
H1008 H 0.66793 0.33322 0.77832 0.0
H1009 H 0.78545 0.38524 0.76258 0.0
H1010 H 0.75027 0.39774 0.76721 0.0
H1011 H 0.72531 0.33686 0.75851 0.0
H1012 H 0.76072 0.32406 0.75425 0.0
H1013 H 0.70795 0.35076 0.77928 0.0
H1014 H 0.71874 0.37928 0.73788 0.0
H1015 H 0.73706 0.3982 0.72067 0.0
H1016 H 0.73478 0.45454 0.74283 0.0
H1017 H 0.71671 0.43589 0.76027 0.0
C1018 C 0.61815 0.39933 0.78348 0.0
C1019 C 0.61885 0.41752 0.79104 0.0
C1020 C 0.63635 0.3913 0.77795 0.0
C1021 C 0.65554 0.40145 0.77971 0.0
C1022 C 0.65621 0.42004 0.78674 0.0
C1023 C 0.63811 0.42791 0.79244 0.0
C1024 C 0.67518 0.3921 0.77491 0.0
C1025 C 0.68665 0.40275 0.76553 0.0
C1026 C 0.68272 0.37291 0.7797 0.0
C1027 C 0.67142 0.36116 0.78978 0.0
C1028 C 0.66729 0.37033 0.80175 0.0
C1029 C 0.65642 0.35922 0.81114 0.0
C1030 C 0.64976 0.33885 0.80871 0.0
C1031 C 0.65401 0.32954 0.7969 0.0
C1032 C 0.66485 0.3406 0.78746 0.0
C1033 C 0.77246 0.37453 0.76158 0.0
C1034 C 0.77583 0.35368 0.75803 0.0
C1035 C 0.75231 0.38174 0.76415 0.0
C1036 C 0.73503 0.36836 0.763 0.0
C1037 C 0.73836 0.3475 0.75942 0.0
C1038 C 0.75859 0.34021 0.75697 0.0
C1039 C 0.71368 0.37601 0.7661 0.0
C1040 C 0.70183 0.36507 0.77521 0.0
C1041 C 0.70567 0.3948 0.76091 0.0
C1042 C 0.7165 0.40613 0.75044 0.0
C1043 C 0.72228 0.39567 0.73913 0.0
C1044 C 0.7326 0.40635 0.72933 0.0
C1045 C 0.73712 0.42755 0.73067 0.0
C1046 C 0.73129 0.43812 0.74181 0.0
C1047 C 0.72098 0.4275 0.75166 0.0
H1048 H 0.74512 0.43579 0.72306 0.0
H1049 H 0.64136 0.33027 0.816 0.0
H1050 H 0.56666 0.11617 0.03104 0.0
H1051 H 0.57776 0.14965 0.02203 0.0
H1052 H 0.63737 0.14353 0.04097 0.0
H1053 H 0.62613 0.11077 0.05043 0.0
H1054 H 0.62213 0.18099 0.04473 0.0
H1055 H 0.63127 0.13605 0.00817 0.0
H1056 H 0.62019 0.11059 0.99182 0.0
H1057 H 0.57365 0.15338 0.97817 0.0
H1058 H 0.58427 0.17901 0.99456 0.0
H1059 H 0.68011 0.26027 0.01517 0.0
H1060 H 0.66774 0.22541 0.02082 0.0
H1061 H 0.6082 0.23866 0.00326 0.0
H1062 H 0.62055 0.27356 0.99745 0.0
H1063 H 0.62147 0.19835 0.99841 0.0
H1064 H 0.61285 0.24343 0.03468 0.0
H1065 H 0.62417 0.26906 0.05087 0.0
H1066 H 0.66977 0.22575 0.06509 0.0
H1067 H 0.65893 0.19997 0.04884 0.0
C1068 C 0.58212 0.12197 0.03329 0.0
C1069 C 0.59552 0.11065 0.04142 0.0
C1070 C 0.58852 0.14102 0.02803 0.0
C1071 C 0.60849 0.14904 0.03073 0.0
C1072 C 0.62192 0.13766 0.03872 0.0
C1073 C 0.61553 0.11875 0.04401 0.0
C1074 C 0.61525 0.16967 0.02575 0.0
C1075 C 0.62222 0.18465 0.03458 0.0
C1076 C 0.61479 0.17473 0.01254 0.0
C1077 C 0.60842 0.15935 0.00268 0.0
C1078 C 0.61856 0.13996 0.00175 0.0
C1079 C 0.61238 0.12552 0.99246 0.0
C1080 C 0.59618 0.13034 0.98399 0.0
C1081 C 0.58617 0.14965 0.98476 0.0
C1082 C 0.59227 0.16415 0.99404 0.0
C1083 C 0.66448 0.25568 0.01236 0.0
C1084 C 0.65124 0.2697 0.00596 0.0
C1085 C 0.65741 0.23578 0.01563 0.0
C1086 C 0.63694 0.22957 0.01263 0.0
C1087 C 0.62402 0.24317 0.0057 0.0
C1088 C 0.63109 0.26311 0.00242 0.0
C1089 C 0.62872 0.20938 0.01738 0.0
C1090 C 0.62136 0.1946 0.00854 0.0
C1091 C 0.6288 0.20445 0.03059 0.0
C1092 C 0.6352 0.21984 0.04047 0.0
C1093 C 0.62539 0.23943 0.0412 0.0
C1094 C 0.63171 0.25397 0.05039 0.0
C1095 C 0.64771 0.24905 0.05898 0.0
C1096 C 0.65739 0.22955 0.05842 0.0
C1097 C 0.65116 0.21496 0.04923 0.0
H1098 H 0.65258 0.26034 0.06609 0.0
H1099 H 0.59143 0.11913 0.9768 0.0
H1100 H 0.88408 0.07001 0.28682 0.0
H1101 H 0.85133 0.08213 0.27733 0.0
H1102 H 0.87085 0.14592 0.28263 0.0
H1103 H 0.90318 0.13398 0.29257 0.0
H1104 H 0.83268 0.14031 0.29161 0.0
H1105 H 0.8682 0.12364 0.25261 0.0
H1106 H 0.88816 0.10166 0.2376 0.0
H1107 H 0.83803 0.05719 0.23677 0.0
H1108 H 0.81787 0.07877 0.25193 0.0
H1109 H 0.74556 0.18427 0.2596 0.0
H1110 H 0.78167 0.17438 0.26446 0.0
H1111 H 0.7651 0.10942 0.26107 0.0
H1112 H 0.72911 0.1192 0.25602 0.0
H1113 H 0.8027 0.11711 0.25016 0.0
H1114 H 0.76853 0.1323 0.2902 0.0
H1115 H 0.74848 0.15387 0.30541 0.0
H1116 H 0.79636 0.20073 0.30438 0.0
H1117 H 0.81657 0.17956 0.28902 0.0
C1118 C 0.88145 0.08662 0.2859 0.0
C1119 C 0.89628 0.101 0.29048 0.0
C1120 C 0.8628 0.09353 0.28036 0.0
C1121 C 0.85867 0.11496 0.27919 0.0
C1122 C 0.87371 0.12932 0.2834 0.0
C1123 C 0.89231 0.12244 0.28897 0.0
C1124 C 0.8381 0.1224 0.27446 0.0
C1125 C 0.82632 0.13554 0.28243 0.0
C1126 C 0.82953 0.11576 0.26264 0.0
C1127 C 0.8416 0.10275 0.2535 0.0
C1128 C 0.8615 0.1091 0.24931 0.0
C1129 C 0.87284 0.09672 0.24076 0.0
C1130 C 0.86439 0.07802 0.23626 0.0
C1131 C 0.84456 0.07167 0.24028 0.0
C1132 C 0.83316 0.08399 0.24884 0.0
C1133 C 0.74967 0.16789 0.25979 0.0
C1134 C 0.73449 0.1525 0.25752 0.0
C1135 C 0.77028 0.16226 0.2626 0.0
C1136 C 0.77602 0.14115 0.26328 0.0
C1137 C 0.76102 0.12579 0.2606 0.0
C1138 C 0.74044 0.13141 0.25777 0.0
C1139 C 0.79738 0.13498 0.26732 0.0
C1140 C 0.80922 0.12203 0.25926 0.0
C1141 C 0.80603 0.14174 0.27908 0.0
C1142 C 0.79394 0.15445 0.28836 0.0
C1143 C 0.7747 0.14728 0.29314 0.0
C1144 C 0.76332 0.15942 0.3018 0.0
C1145 C 0.77111 0.17869 0.30583 0.0
C1146 C 0.79033 0.18583 0.30123 0.0
C1147 C 0.80176 0.17376 0.29256 0.0
H1148 H 0.76228 0.18806 0.31254 0.0
H1149 H 0.87319 0.06846 0.22964 0.0
H1150 H 0.89195 0.40192 0.52956 0.0
H1151 H 0.87815 0.36969 0.52033 0.0
H1152 H 0.92652 0.33452 0.53924 0.0
H1153 H 0.93987 0.36636 0.549 0.0
H1154 H 0.91838 0.32252 0.51289 0.0
H1155 H 0.88229 0.33582 0.55304 0.0
H1156 H 0.86129 0.35733 0.56779 0.0
H1157 H 0.81197 0.36052 0.53996 0.0
H1158 H 0.83284 0.33928 0.52496 0.0
H1159 H 0.88267 0.21917 0.51637 0.0
H1160 H 0.89574 0.2543 0.52033 0.0
H1161 H 0.8371 0.28003 0.5074 0.0
H1162 H 0.8237 0.24472 0.50375 0.0
H1163 H 0.84887 0.29906 0.52826 0.0
H1164 H 0.88214 0.28301 0.48888 0.0
H1165 H 0.90252 0.26228 0.47341 0.0
H1166 H 0.95611 0.2653 0.4981 0.0
H1167 H 0.93596 0.28579 0.51382 0.0
C1168 C 0.89967 0.38736 0.5318 0.0
C1169 C 0.91697 0.38684 0.54014 0.0
C1170 C 0.89183 0.36898 0.52642 0.0
C1171 C 0.90128 0.34976 0.52916 0.0
C1172 C 0.9191 0.34924 0.53696 0.0
C1173 C 0.92678 0.36754 0.54248 0.0
C1174 C 0.89184 0.33 0.52465 0.0
C1175 C 0.90325 0.31727 0.51627 0.0
C1176 C 0.87181 0.32356 0.52878 0.0
C1177 C 0.85922 0.33619 0.53783 0.0
C1178 C 0.86704 0.34127 0.55002 0.0
C1179 C 0.85515 0.35338 0.55844 0.0
C1180 C 0.83534 0.36035 0.5548 0.0
C1181 C 0.82734 0.35516 0.54276 0.0
C1182 C 0.83919 0.34308 0.5343 0.0
C1183 C 0.87257 0.2323 0.51431 0.0
C1184 C 0.85217 0.2292 0.50973 0.0
C1185 C 0.88012 0.25241 0.5165 0.0
C1186 C 0.86755 0.26987 0.51396 0.0
C1187 C 0.84712 0.26681 0.50938 0.0
C1188 C 0.83949 0.24665 0.50729 0.0
C1189 C 0.87554 0.29122 0.51659 0.0
C1190 C 0.86388 0.30431 0.52466 0.0
C1191 C 0.89523 0.29809 0.51202 0.0
C1192 C 0.90747 0.28582 0.50258 0.0
C1193 C 0.89823 0.27913 0.49106 0.0
C1194 C 0.90975 0.26744 0.48224 0.0
C1195 C 0.93058 0.26244 0.48478 0.0
C1196 C 0.93996 0.26917 0.49615 0.0
C1197 C 0.92851 0.28085 0.50501 0.0
H1198 H 0.93947 0.25338 0.47794 0.0
H1199 H 0.82615 0.36972 0.56133 0.0
H1200 H 0.59988 0.12142 0.46435 0.0
H1201 H 0.63124 0.13496 0.47474 0.0
H1202 H 0.6586 0.07353 0.47416 0.0
H1203 H 0.62691 0.05967 0.4642 0.0
H1204 H 0.66792 0.09364 0.49619 0.0
H1205 H 0.67013 0.10891 0.451 0.0
H1206 H 0.65677 0.12334 0.43069 0.0
H1207 H 0.65593 0.1847 0.44713 0.0
H1208 H 0.66902 0.17057 0.46761 0.0
H1209 H 0.77624 0.11644 0.49703 0.0
H1210 H 0.74073 0.10509 0.49204 0.0
H1211 H 0.71932 0.16876 0.49419 0.0
H1212 H 0.75497 0.18027 0.4991 0.0
H1213 H 0.70545 0.1496 0.47279 0.0
H1214 H 0.70662 0.1343 0.51755 0.0
H1215 H 0.72055 0.11943 0.53759 0.0
H1216 H 0.71572 0.0578 0.52183 0.0
H1217 H 0.70204 0.07232 0.50161 0.0
C1218 C 0.61234 0.11066 0.4667 0.0
C1219 C 0.61093 0.08946 0.46334 0.0
C1220 C 0.63036 0.11849 0.47253 0.0
C1221 C 0.64741 0.10533 0.47502 0.0
C1222 C 0.64567 0.08399 0.47226 0.0
C1223 C 0.62762 0.07612 0.46646 0.0
C1224 C 0.66748 0.11397 0.47978 0.0
C1225 C 0.67622 0.10576 0.49104 0.0
C1226 C 0.67808 0.13011 0.4732 0.0
C1227 C 0.67033 0.13865 0.46087 0.0
C1228 C 0.66694 0.12545 0.45031 0.0
C1229 C 0.65944 0.13358 0.43877 0.0
C1230 C 0.65544 0.15491 0.43763 0.0
C1231 C 0.659 0.16817 0.44803 0.0
C1232 C 0.66647 0.16012 0.45961 0.0
C1233 C 0.76395 0.12802 0.49655 0.0
C1234 C 0.76838 0.14925 0.49845 0.0
C1235 C 0.74363 0.12149 0.49376 0.0
C1236 C 0.72732 0.13605 0.49287 0.0
C1237 C 0.73167 0.15726 0.49487 0.0
C1238 C 0.75201 0.16381 0.4977 0.0
C1239 C 0.70601 0.12918 0.48916 0.0
C1240 C 0.69706 0.13766 0.47806 0.0
C1241 C 0.6953 0.11324 0.49586 0.0
C1242 C 0.70346 0.10443 0.50802 0.0
C1243 C 0.70868 0.11759 0.51832 0.0
C1244 C 0.7165 0.10922 0.52972 0.0
C1245 C 0.71906 0.08769 0.53097 0.0
C1246 C 0.71374 0.07448 0.52084 0.0
C1247 C 0.70593 0.08277 0.50941 0.0
H1248 H 0.72511 0.08124 0.5398 0.0
H1249 H 0.64964 0.16118 0.42869 0.0
H1250 H 0.94035 0.12129 0.71726 0.0
H1251 H 0.92841 0.15478 0.72586 0.0
H1252 H 0.86438 0.13633 0.71967 0.0
H1253 H 0.87615 0.10321 0.71077 0.0
H1254 H 0.8717 0.17449 0.7103 0.0
H1255 H 0.88479 0.13842 0.74974 0.0
H1256 H 0.90556 0.11818 0.76528 0.0
H1257 H 0.95051 0.16776 0.76742 0.0
H1258 H 0.93015 0.18818 0.75176 0.0
H1259 H 0.82339 0.25914 0.74214 0.0
H1260 H 0.83467 0.22374 0.73674 0.0
H1261 H 0.8989 0.24149 0.74294 0.0
H1262 H 0.88772 0.27678 0.74853 0.0
H1263 H 0.8912 0.20337 0.75275 0.0
H1264 H 0.87911 0.23881 0.7129 0.0
H1265 H 0.85881 0.25919 0.6972 0.0
H1266 H 0.81256 0.21076 0.6956 0.0
H1267 H 0.83245 0.19021 0.71143 0.0
C1268 C 0.92374 0.12435 0.71779 0.0
C1269 C 0.90922 0.10953 0.71337 0.0
C1270 C 0.91692 0.14342 0.72279 0.0
C1271 C 0.89548 0.148 0.72348 0.0
C1272 C 0.88099 0.13311 0.71927 0.0
C1273 C 0.88776 0.11408 0.71429 0.0
C1274 C 0.88811 0.1687 0.72797 0.0
C1275 C 0.8757 0.18066 0.71967 0.0
C1276 C 0.89379 0.17698 0.74005 0.0
C1277 C 0.90605 0.16474 0.74948 0.0
C1278 C 0.8992 0.14493 0.75344 0.0
C1279 C 0.91088 0.13344 0.76229 0.0
C1280 C 0.92937 0.14166 0.76731 0.0
C1281 C 0.93619 0.16141 0.76351 0.0
C1282 C 0.92458 0.17295 0.75466 0.0
C1283 C 0.8399 0.25545 0.74243 0.0
C1284 C 0.85468 0.27076 0.74568 0.0
C1285 C 0.84633 0.23524 0.73931 0.0
C1286 C 0.86766 0.23004 0.73928 0.0
C1287 C 0.88238 0.24515 0.74289 0.0
C1288 C 0.87596 0.26533 0.74603 0.0
C1289 C 0.87472 0.20907 0.73509 0.0
C1290 C 0.88712 0.19712 0.74341 0.0
C1291 C 0.86911 0.20078 0.723 0.0
C1292 C 0.85716 0.21308 0.71345 0.0
C1293 C 0.86453 0.23258 0.70927 0.0
C1294 C 0.85311 0.24415 0.70034 0.0
C1295 C 0.83438 0.23631 0.69543 0.0
C1296 C 0.82706 0.21684 0.69943 0.0
C1297 C 0.8384 0.20522 0.70837 0.0
H1298 H 0.82556 0.24529 0.68852 0.0
H1299 H 0.93839 0.13274 0.77416 0.0
H1300 H 0.89714 0.37459 0.96137 0.0
H1301 H 0.86458 0.36226 0.97083 0.0
H1302 H 0.84653 0.42563 0.97903 0.0
H1303 H 0.87952 0.43814 0.96994 0.0
H1304 H 0.83574 0.39879 0.99858 0.0
H1305 H 0.82813 0.40215 0.95279 0.0
H1306 H 0.83797 0.39479 0.9304 0.0
H1307 H 0.83176 0.3291 0.9373 0.0
H1308 H 0.82218 0.33606 0.9598 0.0
H1309 H 0.72564 0.38259 0.00344 0.0
H1310 H 0.7611 0.39413 0.99835 0.0
H1311 H 0.77757 0.33133 0.98753 0.0
H1312 H 0.742 0.3198 0.99234 0.0
H1313 H 0.7897 0.35778 0.9698 0.0
H1314 H 0.79607 0.35428 0.01547 0.0
H1315 H 0.78644 0.36158 0.0379 0.0
H1316 H 0.79487 0.42715 0.03143 0.0
H1317 H 0.80429 0.42026 0.0089 0.0
C1318 C 0.88652 0.38593 0.96545 0.0
C1319 C 0.89094 0.40739 0.96484 0.0
C1320 C 0.86779 0.37884 0.97075 0.0
C1321 C 0.85299 0.39304 0.97545 0.0
C1322 C 0.8577 0.41441 0.97539 0.0
C1323 C 0.87648 0.42154 0.9701 0.0
C1324 C 0.83216 0.38564 0.97974 0.0
C1325 C 0.82555 0.39001 0.99227 0.0
C1326 C 0.81906 0.37384 0.97156 0.0
C1327 C 0.82464 0.36963 0.958 0.0
C1328 C 0.82901 0.38613 0.94955 0.0
C1329 C 0.83452 0.38203 0.93684 0.0
C1330 C 0.83554 0.36149 0.93244 0.0
C1331 C 0.83099 0.345 0.94073 0.0
C1332 C 0.82551 0.34902 0.95346 0.0
C1333 C 0.73689 0.3712 0.00011 0.0
C1334 C 0.73104 0.3503 0.99827 0.0
C1335 C 0.7572 0.3778 0.99726 0.0
C1336 C 0.77209 0.36357 0.99265 0.0
C1337 C 0.76636 0.34259 0.99107 0.0
C1338 C 0.74604 0.33601 0.99385 0.0
C1339 C 0.79323 0.37075 0.98872 0.0
C1340 C 0.79989 0.36643 0.97619 0.0
C1341 C 0.80632 0.38257 0.99692 0.0
C1342 C 0.80069 0.38676 0.01046 0.0
C1343 C 0.79571 0.37027 0.0188 0.0
C1344 C 0.79032 0.37433 0.03153 0.0
C1345 C 0.78999 0.39482 0.03607 0.0
C1346 C 0.79511 0.41128 0.02789 0.0
C1347 C 0.80049 0.40731 0.01514 0.0
H1348 H 0.78582 0.39793 0.04594 0.0
H1349 H 0.83981 0.35835 0.92259 0.0
H1350 H 0.54374 0.35155 0.20947 0.0
H1351 H 0.56287 0.32427 0.22055 0.0
H1352 H 0.61472 0.36611 0.22632 0.0
H1353 H 0.59527 0.39407 0.21566 0.0
H1354 H 0.62574 0.32723 0.21538 0.0
H1355 H 0.58842 0.35284 0.25157 0.0
H1356 H 0.5576 0.36485 0.26365 0.0
H1357 H 0.52882 0.30486 0.25901 0.0
H1358 H 0.55934 0.29257 0.24673 0.0
H1359 H 0.67712 0.24423 0.2483 0.0
H1360 H 0.66259 0.27877 0.24369 0.0
H1361 H 0.60111 0.25175 0.24011 0.0
H1362 H 0.61541 0.21742 0.24505 0.0
H1363 H 0.59861 0.2873 0.25253 0.0
H1364 H 0.63231 0.26366 0.21368 0.0
H1365 H 0.66191 0.25118 0.20064 0.0
H1366 H 0.69623 0.30691 0.2094 0.0
H1367 H 0.66691 0.3196 0.22263 0.0
C1368 C 0.55893 0.3553 0.21339 0.0
C1369 C 0.56783 0.37519 0.21169 0.0
C1370 C 0.56993 0.33955 0.21967 0.0
C1371 C 0.59015 0.3432 0.22432 0.0
C1372 C 0.59911 0.36301 0.22279 0.0
C1373 C 0.58799 0.37892 0.21663 0.0
C1374 C 0.60216 0.32579 0.23005 0.0
C1375 C 0.62013 0.31876 0.22369 0.0
C1376 C 0.59453 0.31454 0.24072 0.0
C1377 C 0.57614 0.32183 0.24815 0.0
C1378 C 0.57546 0.34225 0.25303 0.0
C1379 C 0.55804 0.3491 0.25993 0.0
C1380 C 0.54125 0.33564 0.26208 0.0
C1381 C 0.54184 0.31527 0.25734 0.0
C1382 C 0.55921 0.30835 0.25042 0.0
C1383 C 0.66049 0.24572 0.24661 0.0
C1384 C 0.64741 0.22812 0.24697 0.0
C1385 C 0.65222 0.26544 0.24393 0.0
C1386 C 0.63078 0.26784 0.24139 0.0
C1387 C 0.61768 0.25032 0.24205 0.0
C1388 C 0.62589 0.23067 0.24483 0.0
C1389 C 0.62191 0.28837 0.23764 0.0
C1390 C 0.6045 0.29598 0.24437 0.0
C1391 C 0.62993 0.30005 0.22722 0.0
C1392 C 0.64754 0.29245 0.21927 0.0
C1393 C 0.64624 0.27317 0.2129 0.0
C1394 C 0.66295 0.26607 0.20546 0.0
C1395 C 0.68097 0.27821 0.20423 0.0
C1396 C 0.68228 0.2975 0.21039 0.0
C1397 C 0.66562 0.30466 0.21786 0.0
H1398 H 0.69388 0.2727 0.19846 0.0
H1399 H 0.52778 0.34097 0.26742 0.0
H1400 H 0.11184 0.9583 0.38429 0.0
H1401 H 0.12314 0.93949 0.4034 0.0
H1402 H 0.08514 0.8869 0.39237 0.0
H1403 H 0.07476 0.90508 0.37287 0.0
H1404 H 0.10411 0.92544 0.42342 0.0
H1405 H 0.1073 0.84183 0.40216 0.0
H1406 H 0.11398 0.82472 0.38138 0.0
H1407 H 0.15065 0.87719 0.36926 0.0
H1408 H 0.14443 0.89448 0.39001 0.0
H1409 H 0.11356 0.85576 0.47499 0.0
H1410 H 0.10165 0.87156 0.45496 0.0
H1411 H 0.16203 0.86 0.43799 0.0
H1412 H 0.17375 0.84352 0.45785 0.0
H1413 H 0.13332 0.85392 0.42078 0.0
H1414 H 0.14877 0.9083 0.45063 0.0
H1415 H 0.14664 0.92728 0.47114 0.0
H1416 H 0.08086 0.93676 0.46547 0.0
H1417 H 0.08256 0.91758 0.445 0.0
C1418 C 0.10607 0.94264 0.38584 0.0
C1419 C 0.09248 0.9332 0.37696 0.0
C1420 C 0.11239 0.93197 0.39685 0.0
C1421 C 0.10522 0.91166 0.39926 0.0
C1422 C 0.09119 0.90241 0.39062 0.0
C1423 C 0.08503 0.91297 0.37954 0.0
C1424 C 0.11244 0.90019 0.41081 0.0
C1425 C 0.11046 0.90979 0.42283 0.0
C1426 C 0.12115 0.87992 0.41005 0.0
C1427 C 0.1252 0.86953 0.39759 0.0
C1428 C 0.11685 0.84968 0.39507 0.0
C1429 C 0.12055 0.83996 0.3833 0.0
C1430 C 0.13267 0.84989 0.37399 0.0
C1431 C 0.14119 0.86954 0.37646 0.0
C1432 C 0.13757 0.87932 0.38822 0.0
C1433 C 0.1242 0.85635 0.46693 0.0
C1434 C 0.14463 0.84855 0.468 0.0
C1435 C 0.11742 0.86549 0.45551 0.0
C1436 C 0.13109 0.86739 0.44505 0.0
C1437 C 0.15122 0.85879 0.44593 0.0
C1438 C 0.15791 0.8494 0.4573 0.0
C1439 C 0.12474 0.87908 0.43339 0.0
C1440 C 0.12687 0.86953 0.42136 0.0
C1441 C 0.11682 0.89968 0.43409 0.0
C1442 C 0.11576 0.91133 0.44635 0.0
C1443 C 0.13383 0.91431 0.4538 0.0
C1444 C 0.1327 0.92512 0.46541 0.0
C1445 C 0.11361 0.93317 0.46962 0.0
C1446 C 0.09563 0.93049 0.46221 0.0
C1447 C 0.09666 0.91966 0.4506 0.0
H1448 H 0.11277 0.94153 0.47861 0.0
H1449 H 0.1355 0.84235 0.36488 0.0
H1450 H 0.08204 0.6047 0.62216 0.0
H1451 H 0.09364 0.61933 0.64265 0.0
H1452 H 0.11696 0.55904 0.65403 0.0
H1453 H 0.10541 0.54431 0.63353 0.0
H1454 H 0.09374 0.58069 0.67348 0.0
H1455 H 0.15064 0.59223 0.64393 0.0
H1456 H 0.16634 0.60488 0.62381 0.0
H1457 H 0.14714 0.66734 0.63276 0.0
H1458 H 0.13104 0.655 0.65285 0.0
H1459 H 0.1566 0.61171 0.72609 0.0
H1460 H 0.14312 0.5965 0.70625 0.0
H1461 H 0.13181 0.65819 0.69125 0.0
H1462 H 0.146 0.67343 0.71087 0.0
H1463 H 0.14833 0.63564 0.6735 0.0
H1464 H 0.09163 0.62572 0.70265 0.0
H1465 H 0.07431 0.61428 0.72254 0.0
H1466 H 0.09069 0.55075 0.71436 0.0
H1467 H 0.10836 0.56185 0.69449 0.0
C1468 C 0.08945 0.59453 0.62909 0.0
C1469 C 0.09289 0.57339 0.62626 0.0
C1470 C 0.09615 0.60292 0.64074 0.0
C1471 C 0.10625 0.59027 0.6498 0.0
C1472 C 0.10921 0.56903 0.64715 0.0
C1473 C 0.10273 0.56069 0.63543 0.0
C1474 C 0.11428 0.59936 0.66187 0.0
C1475 C 0.10585 0.59253 0.67354 0.0
C1476 C 0.12964 0.61519 0.66186 0.0
C1477 C 0.13945 0.62266 0.64983 0.0
C1478 C 0.14961 0.60863 0.64156 0.0
C1479 C 0.15861 0.61575 0.63017 0.0
C1480 C 0.15769 0.63689 0.62699 0.0
C1481 C 0.14782 0.65097 0.63522 0.0
C1482 C 0.13877 0.64392 0.64661 0.0
C1483 C 0.1512 0.622 0.71856 0.0
C1484 C 0.15231 0.64374 0.72002 0.0
C1485 C 0.14338 0.6133 0.70725 0.0
C1486 C 0.13613 0.62618 0.6973 0.0
C1487 C 0.13729 0.64792 0.69877 0.0
C1488 C 0.14536 0.65661 0.71 0.0
C1489 C 0.12779 0.61705 0.68524 0.0
C1490 C 0.13617 0.62384 0.67353 0.0
C1491 C 0.11217 0.60139 0.68522 0.0
C1492 C 0.1015 0.59464 0.69714 0.0
C1493 C 0.09168 0.60933 0.70514 0.0
C1494 C 0.08177 0.6029 0.7164 0.0
C1495 C 0.08145 0.58181 0.71973 0.0
C1496 C 0.09098 0.56709 0.71178 0.0
C1497 C 0.10092 0.57343 0.70051 0.0
H1498 H 0.07378 0.57687 0.72846 0.0
H1499 H 0.16467 0.64237 0.61817 0.0
H1500 H 0.40621 0.57757 0.87109 0.0
H1501 H 0.38981 0.58809 0.89113 0.0
H1502 H 0.43825 0.63388 0.89706 0.0
H1503 H 0.45568 0.62232 0.87759 0.0
H1504 H 0.4301 0.61711 0.91855 0.0
H1505 H 0.38765 0.64627 0.88523 0.0
H1506 H 0.36623 0.64569 0.86558 0.0
H1507 H 0.32266 0.60413 0.88363 0.0
H1508 H 0.34397 0.60423 0.90333 0.0
H1509 H 0.34305 0.67891 0.95445 0.0
H1510 H 0.35954 0.66758 0.93447 0.0
H1511 H 0.38205 0.61208 0.95332 0.0
H1512 H 0.36605 0.62358 0.97337 0.0
H1513 H 0.35475 0.63527 0.91925 0.0
H1514 H 0.42933 0.59879 0.94157 0.0
H1515 H 0.45183 0.60348 0.96056 0.0
H1516 H 0.43297 0.66756 0.96326 0.0
H1517 H 0.41059 0.66333 0.9442 0.0
C1518 C 0.41365 0.5896 0.87675 0.0
C1519 C 0.43229 0.59913 0.87262 0.0
C1520 C 0.40403 0.59585 0.88814 0.0
C1521 C 0.41252 0.6121 0.8955 0.0
C1522 C 0.43129 0.62139 0.89153 0.0
C1523 C 0.44112 0.61492 0.88027 0.0
C1524 C 0.40191 0.61948 0.90734 0.0
C1525 C 0.41362 0.62105 0.91867 0.0
C1526 C 0.38047 0.62503 0.90751 0.0
C1527 C 0.36751 0.62512 0.89572 0.0
C1528 C 0.37356 0.63691 0.88498 0.0
C1529 C 0.36144 0.63668 0.87384 0.0
C1530 C 0.34313 0.62484 0.87334 0.0
C1531 C 0.33686 0.61327 0.88402 0.0
C1532 C 0.34894 0.61343 0.89518 0.0
C1533 C 0.35151 0.66429 0.95432 0.0
C1534 C 0.35341 0.6522 0.96548 0.0
C1535 C 0.36086 0.65779 0.94289 0.0
C1536 C 0.37225 0.63911 0.94243 0.0
C1537 C 0.37367 0.62675 0.9535 0.0
C1538 C 0.36446 0.6333 0.96494 0.0
C1539 C 0.38293 0.63271 0.93043 0.0
C1540 C 0.37122 0.63128 0.91909 0.0
C1541 C 0.40452 0.62791 0.93015 0.0
C1542 C 0.41812 0.63066 0.94154 0.0
C1543 C 0.43004 0.6139 0.9462 0.0
C1544 C 0.44277 0.61647 0.95697 0.0
C1545 C 0.44377 0.63579 0.96314 0.0
C1546 C 0.43211 0.65259 0.95851 0.0
C1547 C 0.41939 0.6501 0.94773 0.0
H1548 H 0.45362 0.63774 0.97148 0.0
H1549 H 0.33377 0.62467 0.8647 0.0
H1550 H 0.40353 0.92876 0.12265 0.0
H1551 H 0.38439 0.92118 0.14237 0.0
H1552 H 0.43858 0.88979 0.15762 0.0
H1553 H 0.45813 0.89826 0.13827 0.0
H1554 H 0.37295 0.88588 0.15225 0.0
H1555 H 0.44024 0.89288 0.18959 0.0
H1556 H 0.47194 0.91399 0.19314 0.0
H1557 H 0.44606 0.96343 0.1704 0.0
H1558 H 0.41411 0.94274 0.16685 0.0
H1559 H 0.34903 0.82903 0.20827 0.0
H1560 H 0.36449 0.84406 0.18896 0.0
H1561 H 0.3661 0.90448 0.20715 0.0
H1562 H 0.35137 0.88932 0.22665 0.0
H1563 H 0.40106 0.89851 0.19586 0.0
H1564 H 0.3301 0.89193 0.18288 0.0
H1565 H 0.29627 0.87437 0.17948 0.0
H1566 H 0.32538 0.83093 0.15378 0.0
H1567 H 0.35946 0.84806 0.15716 0.0
C1568 C 0.41154 0.92065 0.13032 0.0
C1569 C 0.43241 0.91415 0.12886 0.0
C1570 C 0.40049 0.91613 0.14153 0.0
C1571 C 0.41006 0.90504 0.15153 0.0
C1572 C 0.43092 0.89865 0.15014 0.0
C1573 C 0.44202 0.9033 0.13899 0.0
C1574 C 0.39807 0.8994 0.16321 0.0
C1575 C 0.37905 0.88873 0.16179 0.0
C1576 C 0.40575 0.90352 0.17568 0.0
C1577 C 0.42485 0.91617 0.17787 0.0
C1578 C 0.44128 0.90829 0.18539 0.0
C1579 C 0.4593 0.92018 0.1874 0.0
C1580 C 0.46104 0.94001 0.18197 0.0
C1581 C 0.44473 0.94803 0.17456 0.0
C1582 C 0.42667 0.93622 0.17253 0.0
C1583 C 0.35254 0.84555 0.20811 0.0
C1584 C 0.34899 0.85802 0.21895 0.0
C1585 C 0.36128 0.85416 0.19704 0.0
C1586 C 0.36624 0.87549 0.19651 0.0
C1587 C 0.36244 0.888 0.20731 0.0
C1588 C 0.35397 0.87933 0.21844 0.0
C1589 C 0.37617 0.88456 0.18491 0.0
C1590 C 0.39484 0.89581 0.18633 0.0
C1591 C 0.36785 0.8815 0.17247 0.0
C1592 C 0.34737 0.87119 0.17036 0.0
C1593 C 0.32932 0.87855 0.17657 0.0
C1594 C 0.31009 0.86869 0.17464 0.0
C1595 C 0.30869 0.85152 0.16644 0.0
C1596 C 0.3265 0.84422 0.16013 0.0
C1597 C 0.34577 0.85402 0.16204 0.0
H1598 H 0.29379 0.84391 0.16495 0.0
H1599 H 0.475 0.94918 0.18353 0.0
H1600 H 0.09632 0.55369 0.87553 0.0
H1601 H 0.11159 0.56598 0.85545 0.0
H1602 H 0.06773 0.61687 0.85447 0.0
H1603 H 0.05317 0.60566 0.87491 0.0
H1604 H 0.07487 0.59146 0.8299 0.0
H1605 H 0.10976 0.63062 0.86378 0.0
H1606 H 0.12963 0.63328 0.88396 0.0
H1607 H 0.17889 0.59621 0.86781 0.0
H1608 H 0.15913 0.59306 0.84759 0.0
H1609 H 0.11769 0.6583 0.78296 0.0
H1610 H 0.1016 0.64296 0.80199 0.0
H1611 H 0.15892 0.61009 0.81022 0.0
H1612 H 0.17534 0.62627 0.79156 0.0
H1613 H 0.14505 0.6243 0.83113 0.0
H1614 H 0.11347 0.58571 0.79734 0.0
H1615 H 0.09463 0.58001 0.77703 0.0
H1616 H 0.04076 0.61129 0.79224 0.0
H1617 H 0.05939 0.61744 0.81259 0.0
C1618 C 0.08998 0.56762 0.87116 0.0
C1619 C 0.07352 0.57871 0.87699 0.0
C1620 C 0.09862 0.57447 0.8596 0.0
C1621 C 0.09075 0.59229 0.85354 0.0
C1622 C 0.07389 0.60298 0.859 0.0
C1623 C 0.0655 0.59641 0.87068 0.0
C1624 C 0.10077 0.60043 0.8418 0.0
C1625 C 0.09012 0.59884 0.83012 0.0
C1626 C 0.12093 0.60937 0.84213 0.0
C1627 C 0.13286 0.6114 0.85424 0.0
C1628 C 0.12473 0.62286 0.86458 0.0
C1629 C 0.13599 0.6245 0.87601 0.0
C1630 C 0.15548 0.61486 0.87718 0.0
C1631 C 0.16378 0.60363 0.8669 0.0
C1632 C 0.15256 0.60192 0.85545 0.0
C1633 C 0.12681 0.64777 0.78883 0.0
C1634 C 0.14773 0.64344 0.78579 0.0
C1635 C 0.11757 0.63888 0.79966 0.0
C1636 C 0.12889 0.62502 0.80746 0.0
C1637 C 0.14982 0.6207 0.80438 0.0
C1638 C 0.15919 0.62991 0.7937 0.0
C1639 C 0.11915 0.61554 0.81902 0.0
C1640 C 0.12984 0.61685 0.83075 0.0
C1641 C 0.0992 0.60592 0.81866 0.0
C1642 C 0.0879 0.6022 0.80645 0.0
C1643 C 0.09766 0.59151 0.79632 0.0
C1644 C 0.08701 0.58817 0.78481 0.0
C1645 C 0.06653 0.59533 0.78334 0.0
C1646 C 0.05664 0.60578 0.79339 0.0
C1647 C 0.06723 0.60918 0.80492 0.0
H1648 H 0.05832 0.59273 0.77441 0.0
H1649 H 0.16418 0.61615 0.88604 0.0
H1650 H 0.46242 0.61656 0.11951 0.0
H1651 H 0.44668 0.62692 0.09923 0.0
H1652 H 0.39543 0.58458 0.10588 0.0
H1653 H 0.41186 0.57294 0.12568 0.0
H1654 H 0.40483 0.58321 0.08204 0.0
H1655 H 0.39233 0.63899 0.11159 0.0
H1656 H 0.40156 0.66612 0.12736 0.0
H1657 H 0.43968 0.6969 0.09929 0.0
H1658 H 0.43089 0.66979 0.0834 0.0
H1659 H 0.33152 0.63188 0.03973 0.0
H1660 H 0.34956 0.61921 0.05894 0.0
H1661 H 0.40525 0.65229 0.04761 0.0
H1662 H 0.38741 0.66484 0.02836 0.0
H1663 H 0.39382 0.65847 0.07343 0.0
H1664 H 0.40424 0.60185 0.04371 0.0
H1665 H 0.39282 0.57494 0.02836 0.0
H1666 H 0.35556 0.54603 0.05759 0.0
H1667 H 0.36653 0.57297 0.07308 0.0
C1668 C 0.44802 0.60911 0.11658 0.0
C1669 C 0.43836 0.594 0.12436 0.0
C1670 C 0.43885 0.61531 0.10503 0.0
C1671 C 0.41958 0.60692 0.10115 0.0
C1672 C 0.41021 0.59144 0.1087 0.0
C1673 C 0.41952 0.58497 0.12013 0.0
C1674 C 0.40905 0.6144 0.0893 0.0
C1675 C 0.40222 0.59966 0.08026 0.0
C1676 C 0.40585 0.6359 0.08682 0.0
C1677 C 0.41112 0.65224 0.09635 0.0
C1678 C 0.4028 0.65146 0.10881 0.0
C1679 C 0.40794 0.66685 0.11776 0.0
C1680 C 0.42124 0.68319 0.11434 0.0
C1681 C 0.4294 0.68421 0.10194 0.0
C1682 C 0.42434 0.66885 0.09295 0.0
C1683 C 0.34763 0.63639 0.04132 0.0
C1684 C 0.35809 0.64929 0.03254 0.0
C1685 C 0.35791 0.62911 0.05227 0.0
C1686 C 0.37876 0.63474 0.05464 0.0
C1687 C 0.38916 0.64776 0.04594 0.0
C1688 C 0.37898 0.65485 0.03493 0.0
C1689 C 0.38965 0.62728 0.06629 0.0
C1690 C 0.39651 0.64203 0.07526 0.0
C1691 C 0.39256 0.60582 0.0688 0.0
C1692 C 0.38605 0.58955 0.05952 0.0
C1693 C 0.39348 0.58986 0.04684 0.0
C1694 C 0.38711 0.57458 0.03812 0.0
C1695 C 0.37343 0.55881 0.04199 0.0
C1696 C 0.36614 0.55827 0.0546 0.0
C1697 C 0.37244 0.57353 0.06336 0.0
H1698 H 0.36852 0.547 0.03523 0.0
H1699 H 0.4252 0.69508 0.12128 0.0
H1700 H 0.40951 0.88458 0.38956 0.0
H1701 H 0.39458 0.87201 0.36947 0.0
H1702 H 0.42287 0.92353 0.34933 0.0
H1703 H 0.43764 0.93636 0.36951 0.0
H1704 H 0.38412 0.91802 0.34136 0.0
H1705 H 0.44323 0.87361 0.34768 0.0
H1706 H 0.46623 0.8494 0.35942 0.0
H1707 H 0.4161 0.80516 0.3623 0.0
H1708 H 0.3927 0.82924 0.35073 0.0
H1709 H 0.37254 0.87571 0.2787 0.0
H1710 H 0.38744 0.88847 0.29881 0.0
H1711 H 0.35246 0.84219 0.31974 0.0
H1712 H 0.33735 0.82939 0.29962 0.0
H1713 H 0.39475 0.84499 0.32707 0.0
H1714 H 0.33584 0.89024 0.32045 0.0
H1715 H 0.31373 0.91463 0.30822 0.0
H1716 H 0.36501 0.95754 0.30529 0.0
H1717 H 0.38753 0.93325 0.31734 0.0
C1718 C 0.41271 0.89313 0.38083 0.0
C1719 C 0.4249 0.91136 0.38109 0.0
C1720 C 0.40417 0.88593 0.36935 0.0
C1721 C 0.40788 0.89662 0.35784 0.0
C1722 C 0.41983 0.91499 0.35808 0.0
C1723 C 0.42825 0.92232 0.36961 0.0
C1724 C 0.39909 0.88872 0.34559 0.0
C1725 C 0.38671 0.90214 0.33815 0.0
C1726 C 0.40211 0.86787 0.34151 0.0
C1727 C 0.41616 0.85332 0.34844 0.0
C1728 C 0.43706 0.85879 0.3509 0.0
C1729 C 0.45018 0.84508 0.35751 0.0
C1730 C 0.44262 0.82578 0.36163 0.0
C1731 C 0.42193 0.82013 0.35912 0.0
C1732 C 0.40874 0.83379 0.35252 0.0
C1733 C 0.36802 0.86824 0.28758 0.0
C1734 C 0.35375 0.85158 0.28761 0.0
C1735 C 0.37649 0.87559 0.29905 0.0
C1736 C 0.37093 0.86636 0.31075 0.0
C1737 C 0.35692 0.84953 0.3108 0.0
C1738 C 0.34827 0.84228 0.29932 0.0
C1739 C 0.37982 0.87428 0.32291 0.0
C1740 C 0.39221 0.86087 0.33031 0.0
C1741 C 0.37697 0.89516 0.32689 0.0
C1742 C 0.36343 0.90983 0.31969 0.0
C1743 C 0.34246 0.9048 0.3171 0.0
C1744 C 0.32984 0.91862 0.31022 0.0
C1745 C 0.33798 0.9376 0.30595 0.0
C1746 C 0.35874 0.94282 0.30858 0.0
C1747 C 0.37143 0.92904 0.31545 0.0
H1748 H 0.32818 0.94828 0.30062 0.0
H1749 H 0.4528 0.81518 0.36674 0.0
H1750 H 0.08419 0.87886 0.63733 0.0
H1751 H 0.10282 0.87198 0.61734 0.0
H1752 H 0.08162 0.93082 0.60215 0.0
H1753 H 0.06274 0.93774 0.62218 0.0
H1754 H 0.07533 0.8977 0.58549 0.0
H1755 H 0.13136 0.92599 0.61029 0.0
H1756 H 0.15425 0.92955 0.62916 0.0
H1757 H 0.17479 0.86627 0.62457 0.0
H1758 H 0.15179 0.86223 0.60577 0.0
H1759 H 0.13587 0.8859 0.52907 0.0
H1760 H 0.12177 0.90025 0.54899 0.0
H1761 H 0.14465 0.84667 0.56969 0.0
H1762 H 0.15927 0.83255 0.54986 0.0
H1763 H 0.15093 0.8809 0.58327 0.0
H1764 H 0.09292 0.85106 0.56031 0.0
H1765 H 0.06946 0.84614 0.54181 0.0
H1766 H 0.05203 0.91072 0.54336 0.0
H1767 H 0.07562 0.91609 0.56178 0.0
C1768 C 0.08353 0.89035 0.62974 0.0
C1769 C 0.07195 0.9088 0.63128 0.0
C1770 C 0.09431 0.88648 0.61837 0.0
C1771 C 0.09372 0.90096 0.6083 0.0
C1772 C 0.08232 0.91949 0.60983 0.0
C1773 C 0.07165 0.92347 0.62128 0.0
C1774 C 0.10423 0.89615 0.59601 0.0
C1775 C 0.09194 0.89444 0.58493 0.0
C1776 C 0.12579 0.89138 0.59539 0.0
C1777 C 0.13971 0.89377 0.60667 0.0
C1778 C 0.14063 0.91278 0.61336 0.0
C1779 C 0.15365 0.91489 0.62404 0.0
C1780 C 0.16594 0.89813 0.62808 0.0
C1781 C 0.16526 0.87924 0.62143 0.0
C1782 C 0.15225 0.87704 0.61076 0.0
C1783 C 0.138 0.87726 0.53789 0.0
C1784 C 0.14855 0.85805 0.53791 0.0
C1785 C 0.12987 0.88543 0.54925 0.0
C1786 C 0.13186 0.87438 0.56081 0.0
C1787 C 0.1429 0.85546 0.56089 0.0
C1788 C 0.15119 0.84738 0.54955 0.0
C1789 C 0.12198 0.88218 0.57276 0.0
C1790 C 0.13437 0.88441 0.58377 0.0
C1791 C 0.10045 0.88724 0.57336 0.0
C1792 C 0.08621 0.88402 0.56232 0.0
C1793 C 0.0842 0.86424 0.55664 0.0
C1794 C 0.07087 0.86137 0.54618 0.0
C1795 C 0.05931 0.87812 0.54139 0.0
C1796 C 0.06102 0.89777 0.54707 0.0
C1797 C 0.07436 0.90074 0.55752 0.0
H1798 H 0.04899 0.87586 0.53329 0.0
H1799 H 0.17601 0.8998 0.63635 0.0
H1800 H 0.5622 0.3886 0.872 0.0
H1801 H 0.57424 0.37518 0.89257 0.0
H1802 H 0.608 0.43235 0.89933 0.0
H1803 H 0.59509 0.44635 0.87906 0.0
H1804 H 0.61139 0.36634 0.90083 0.0
H1805 H 0.61115 0.44205 0.93119 0.0
H1806 H 0.59155 0.47508 0.93268 0.0
H1807 H 0.53787 0.44577 0.9158 0.0
H1808 H 0.55705 0.41251 0.91437 0.0
H1809 H 0.67126 0.35085 0.95698 0.0
H1810 H 0.65649 0.36466 0.93711 0.0
H1811 H 0.59672 0.37207 0.95571 0.0
H1812 H 0.61163 0.35888 0.97572 0.0
H1813 H 0.60438 0.40486 0.94181 0.0
H1814 H 0.60681 0.33123 0.93459 0.0
H1815 H 0.62306 0.29642 0.93355 0.0
H1816 H 0.66595 0.31822 0.9049 0.0
H1817 H 0.65012 0.35325 0.90589 0.0
C1818 C 0.57184 0.39852 0.87796 0.0
C1819 C 0.57754 0.41864 0.87388 0.0
C1820 C 0.57891 0.39071 0.88967 0.0
C1821 C 0.5919 0.40279 0.89756 0.0
C1822 C 0.59774 0.42284 0.89351 0.0
C1823 C 0.59053 0.43074 0.88183 0.0
C1824 C 0.59968 0.39417 0.90989 0.0
C1825 C 0.60984 0.37478 0.90979 0.0
C1826 C 0.59738 0.40498 0.92163 0.0
C1827 C 0.58563 0.42486 0.92256 0.0
C1828 C 0.59514 0.44264 0.92784 0.0
C1829 C 0.58411 0.4614 0.92867 0.0
C1830 C 0.5635 0.46254 0.9243 0.0
C1831 C 0.55386 0.44489 0.91913 0.0
C1832 C 0.56481 0.42609 0.9183 0.0
C1833 C 0.65496 0.35539 0.95681 0.0
C1834 C 0.64256 0.35371 0.96787 0.0
C1835 C 0.64651 0.36321 0.94545 0.0
C1836 C 0.6254 0.36915 0.94485 0.0
C1837 C 0.61304 0.36759 0.95593 0.0
C1838 C 0.62154 0.35997 0.96734 0.0
C1839 C 0.61625 0.37712 0.93272 0.0
C1840 C 0.6059 0.39643 0.93285 0.0
C1841 C 0.6179 0.36599 0.92106 0.0
C1842 C 0.62739 0.34491 0.92039 0.0
C1843 C 0.6198 0.32864 0.92813 0.0
C1844 C 0.62892 0.30886 0.92754 0.0
C1845 C 0.64556 0.30512 0.91919 0.0
C1846 C 0.65307 0.32114 0.91138 0.0
C1847 C 0.64402 0.34096 0.91194 0.0
H1848 H 0.6526 0.2898 0.91875 0.0
H1849 H 0.55499 0.47708 0.92494 0.0
H1850 H 0.59792 0.1037 0.11648 0.0
H1851 H 0.61058 0.11795 0.1368 0.0
H1852 H 0.61223 0.05606 0.1529 0.0
H1853 H 0.59941 0.04168 0.13259 0.0
H1854 H 0.5939 0.08614 0.16912 0.0
H1855 H 0.65635 0.07717 0.14393 0.0
H1856 H 0.67846 0.08161 0.12478 0.0
H1857 H 0.67624 0.14809 0.12937 0.0
H1858 H 0.65386 0.14406 0.14845 0.0
H1859 H 0.65078 0.1102 0.2251 0.0
H1860 H 0.6394 0.09483 0.20485 0.0
H1861 H 0.6476 0.15421 0.18606 0.0
H1862 H 0.65979 0.16943 0.20622 0.0
H1863 H 0.66095 0.12489 0.17106 0.0
H1864 H 0.59839 0.13521 0.19537 0.0
H1865 H 0.5751 0.1323 0.2141 0.0
H1866 H 0.57576 0.06559 0.21076 0.0
H1867 H 0.5993 0.06809 0.1921 0.0
C1868 C 0.6008 0.09315 0.12439 0.0
C1869 C 0.59768 0.07157 0.12296 0.0
C1870 C 0.60817 0.10129 0.13595 0.0
C1871 C 0.61249 0.08802 0.1463 0.0
C1872 C 0.60904 0.06652 0.145 0.0
C1873 C 0.60184 0.05834 0.13339 0.0
C1874 C 0.62069 0.09663 0.15846 0.0
C1875 C 0.6087 0.09436 0.16961 0.0
C1876 C 0.63969 0.10787 0.15897 0.0
C1877 C 0.65327 0.11031 0.14755 0.0
C1878 C 0.66044 0.09274 0.1408 0.0
C1879 C 0.67304 0.09518 0.12997 0.0
C1880 C 0.67871 0.11512 0.12584 0.0
C1881 C 0.67182 0.13266 0.13257 0.0
C1882 C 0.6592 0.1303 0.1434 0.0
C1883 C 0.65024 0.11994 0.21663 0.0
C1884 C 0.65606 0.14103 0.21723 0.0
C1885 C 0.64361 0.11118 0.20508 0.0
C1886 C 0.64222 0.12345 0.19396 0.0
C1887 C 0.64847 0.14443 0.1945 0.0
C1888 C 0.6554 0.15313 0.20603 0.0
C1889 C 0.63415 0.11446 0.18181 0.0
C1890 C 0.64615 0.11666 0.17063 0.0
C1891 C 0.615 0.1034 0.18123 0.0
C1892 C 0.60077 0.10184 0.19242 0.0
C1893 C 0.59369 0.11992 0.19869 0.0
C1894 C 0.58043 0.11834 0.20928 0.0
C1895 C 0.574 0.09877 0.21364 0.0
C1896 C 0.58078 0.08073 0.20738 0.0
C1897 C 0.59406 0.08222 0.19679 0.0
H1898 H 0.56373 0.09758 0.22184 0.0
H1899 H 0.68847 0.11697 0.11745 0.0
H1900 H 0.944 0.08003 0.38408 0.0
H1901 H 0.92813 0.08997 0.40451 0.0
H1902 H 0.89618 0.14086 0.38589 0.0
H1903 H 0.91207 0.13106 0.36547 0.0
H1904 H 0.91291 0.15345 0.40787 0.0
H1905 H 0.87038 0.09595 0.39429 0.0
H1906 H 0.86332 0.06015 0.38686 0.0
H1907 H 0.89063 0.03552 0.42125 0.0
H1908 H 0.89812 0.07119 0.42881 0.0
H1909 H 0.84126 0.17621 0.45799 0.0
H1910 H 0.85669 0.16608 0.43746 0.0
H1911 H 0.89012 0.1162 0.45614 0.0
H1912 H 0.87452 0.12607 0.47665 0.0
H1913 H 0.87247 0.10316 0.43412 0.0
H1914 H 0.91497 0.16096 0.44761 0.0
H1915 H 0.92153 0.19688 0.45501 0.0
H1916 H 0.89371 0.22105 0.42065 0.0
H1917 H 0.8867 0.18526 0.41312 0.0
C1918 C 0.93346 0.09323 0.38433 0.0
C1919 C 0.92928 0.10476 0.37317 0.0
C1920 C 0.92441 0.0989 0.39601 0.0
C1921 C 0.91079 0.11604 0.3967 0.0
C1922 C 0.90667 0.12761 0.38558 0.0
C1923 C 0.9158 0.12202 0.37393 0.0
C1924 C 0.90102 0.12207 0.40905 0.0
C1925 C 0.90383 0.14253 0.41352 0.0
C1926 C 0.88954 0.10771 0.41656 0.0
C1927 C 0.885 0.08624 0.41206 0.0
C1928 C 0.87503 0.0829 0.40022 0.0
C1929 C 0.87092 0.06263 0.39599 0.0
C1930 C 0.87657 0.04557 0.40356 0.0
C1931 C 0.88629 0.04875 0.41539 0.0
C1932 C 0.89046 0.06899 0.41966 0.0
C1933 C 0.85192 0.1631 0.45771 0.0
C1934 C 0.85675 0.15197 0.46892 0.0
C1935 C 0.86077 0.15737 0.44599 0.0
C1936 C 0.87473 0.14051 0.4453 0.0
C1937 C 0.87941 0.12927 0.45647 0.0
C1938 C 0.87054 0.13497 0.46818 0.0
C1939 C 0.88438 0.13451 0.43293 0.0
C1940 C 0.88155 0.11407 0.42845 0.0
C1941 C 0.89579 0.1489 0.4254 0.0
C1942 C 0.90013 0.17043 0.42986 0.0
C1943 C 0.91011 0.17394 0.44168 0.0
C1944 C 0.91393 0.19427 0.44589 0.0
C1945 C 0.90799 0.21123 0.43832 0.0
C1946 C 0.89828 0.20789 0.42651 0.0
C1947 C 0.89439 0.18759 0.42226 0.0
H1948 H 0.91096 0.22697 0.44161 0.0
H1949 H 0.87338 0.02989 0.40027 0.0
H1950 H 0.94554 0.42078 0.63028 0.0
H1951 H 0.93299 0.40706 0.65075 0.0
H1952 H 0.86926 0.41546 0.6382 0.0
H1953 H 0.88182 0.4299 0.61791 0.0
H1954 H 0.87187 0.42647 0.66186 0.0
H1955 H 0.89443 0.36656 0.63843 0.0
H1956 H 0.91869 0.34477 0.62589 0.0
H1957 H 0.96163 0.34357 0.6575 0.0
H1958 H 0.93774 0.36561 0.67017 0.0
H1959 H 0.82649 0.35798 0.70832 0.0
H1960 H 0.83866 0.37295 0.68805 0.0
H1961 H 0.90134 0.3764 0.70308 0.0
H1962 H 0.88928 0.36162 0.7234 0.0
H1963 H 0.8987 0.35898 0.67824 0.0
H1964 H 0.87422 0.41933 0.7015 0.0
H1965 H 0.84821 0.43973 0.7136 0.0
H1966 H 0.80647 0.43797 0.6814 0.0
H1967 H 0.83213 0.4173 0.66917 0.0
C1968 C 0.92886 0.4197 0.63193 0.0
C1969 C 0.91463 0.42632 0.62253 0.0
C1970 C 0.92169 0.41177 0.6436 0.0
C1971 C 0.90015 0.40982 0.64595 0.0
C1972 C 0.88594 0.41677 0.63663 0.0
C1973 C 0.89311 0.42502 0.62504 0.0
C1974 C 0.89244 0.40055 0.65812 0.0
C1975 C 0.87755 0.41157 0.66533 0.0
C1976 C 0.9 0.38122 0.66278 0.0
C1977 C 0.91439 0.36791 0.6552 0.0
C1978 C 0.90912 0.36178 0.64267 0.0
C1979 C 0.92279 0.34936 0.63555 0.0
C1980 C 0.94172 0.34283 0.64088 0.0
C1981 C 0.94698 0.34867 0.65337 0.0
C1982 C 0.93337 0.36111 0.66053 0.0
C1983 C 0.84286 0.36196 0.7073 0.0
C1984 C 0.85694 0.35869 0.71744 0.0
C1985 C 0.84976 0.37054 0.69575 0.0
C1986 C 0.87087 0.37586 0.69412 0.0
C1987 C 0.88499 0.3724 0.70417 0.0
C1988 C 0.87806 0.36403 0.71577 0.0
C1989 C 0.87828 0.38495 0.6819 0.0
C1990 C 0.89307 0.37386 0.67471 0.0
C1991 C 0.87038 0.40402 0.67715 0.0
C1992 C 0.85502 0.41659 0.68446 0.0
C1993 C 0.85943 0.42315 0.69703 0.0
C1994 C 0.84476 0.43479 0.70391 0.0
C1995 C 0.82567 0.44009 0.69828 0.0
C1996 C 0.82125 0.43382 0.68575 0.0
C1997 C 0.83586 0.42217 0.67884 0.0
H1998 H 0.81433 0.4491 0.70362 0.0
H1999 H 0.95228 0.33322 0.63535 0.0
H2000 H 0.58803 0.12107 0.38943 0.0
H2001 H 0.603 0.13313 0.36922 0.0
H2002 H 0.57169 0.08324 0.34919 0.0
H2003 H 0.55694 0.07089 0.36947 0.0
H2004 H 0.61041 0.08646 0.3411 0.0
H2005 H 0.55427 0.13464 0.34779 0.0
H2006 H 0.53326 0.16037 0.35971 0.0
H2007 H 0.58633 0.20116 0.36205 0.0
H2008 H 0.60774 0.17554 0.35029 0.0
H2009 H 0.62438 0.1265 0.27827 0.0
H2010 H 0.60873 0.11513 0.29847 0.0
H2011 H 0.64543 0.16065 0.31895 0.0
H2012 H 0.66118 0.17214 0.29874 0.0
H2013 H 0.60393 0.15986 0.32665 0.0
H2014 H 0.65986 0.11114 0.31983 0.0
H2015 H 0.6803 0.08537 0.30758 0.0
H2016 H 0.62655 0.04551 0.30511 0.0
H2017 H 0.60569 0.07119 0.31719 0.0
C2018 C 0.58417 0.11281 0.38069 0.0
C2019 C 0.57121 0.09512 0.38101 0.0
C2020 C 0.59272 0.11972 0.36915 0.0
C2021 C 0.58823 0.10929 0.35764 0.0
C2022 C 0.57536 0.09155 0.35794 0.0
C2023 C 0.56696 0.0845 0.36952 0.0
C2024 C 0.59731 0.11663 0.34534 0.0
C2025 C 0.6087 0.10244 0.33786 0.0
C2026 C 0.59552 0.1376 0.34123 0.0
C2027 C 0.58266 0.15308 0.34827 0.0
C2028 C 0.5615 0.14903 0.35093 0.0
C2029 C 0.54951 0.16361 0.35764 0.0
C2030 C 0.55847 0.18237 0.36166 0.0
C2031 C 0.57942 0.18661 0.35895 0.0
C2032 C 0.59148 0.17208 0.35225 0.0
C2033 C 0.62911 0.1341 0.28707 0.0
C2034 C 0.64405 0.15016 0.28694 0.0
C2035 C 0.6202 0.12755 0.2986 0.0
C2036 C 0.62607 0.13693 0.3102 0.0
C2037 C 0.64073 0.1532 0.31009 0.0
C2038 C 0.64974 0.1597 0.29856 0.0
C2039 C 0.61692 0.12968 0.32246 0.0
C2040 C 0.60555 0.14389 0.32992 0.0
C2041 C 0.61862 0.10871 0.32651 0.0
C2042 C 0.63116 0.09319 0.3193 0.0
C2043 C 0.65235 0.09696 0.31658 0.0
C2044 C 0.66402 0.08235 0.30969 0.0
C2045 C 0.65471 0.06384 0.30554 0.0
C2046 C 0.63373 0.05987 0.30831 0.0
C2047 C 0.62198 0.07444 0.31519 0.0
H2048 H 0.66378 0.05255 0.3002 0.0
H2049 H 0.54916 0.19363 0.36686 0.0
H2050 H 0.87159 0.083 0.64164 0.0
H2051 H 0.85985 0.09832 0.62146 0.0
H2052 H 0.91143 0.0692 0.60176 0.0
H2053 H 0.92335 0.05394 0.62198 0.0
H2054 H 0.90749 0.10868 0.59456 0.0
H2055 H 0.86101 0.05042 0.59918 0.0
H2056 H 0.83533 0.02811 0.61023 0.0
H2057 H 0.79249 0.07948 0.61244 0.0
H2058 H 0.81804 0.10219 0.60155 0.0
H2059 H 0.8722 0.12345 0.53101 0.0
H2060 H 0.88259 0.10782 0.55138 0.0
H2061 H 0.8325 0.14031 0.57051 0.0
H2062 H 0.82187 0.1559 0.55008 0.0
H2063 H 0.83529 0.09965 0.57812 0.0
H2064 H 0.88176 0.15775 0.57327 0.0
H2065 H 0.90741 0.17989 0.56208 0.0
H2066 H 0.95031 0.12852 0.5602 0.0
H2067 H 0.92478 0.10597 0.57122 0.0
C2068 C 0.88029 0.07965 0.63298 0.0
C2069 C 0.89834 0.06717 0.63338 0.0
C2070 C 0.87357 0.08843 0.62145 0.0
C2071 C 0.88462 0.08471 0.61006 0.0
C2072 C 0.90267 0.07229 0.61044 0.0
C2073 C 0.90948 0.0636 0.62198 0.0
C2074 C 0.87761 0.09414 0.5978 0.0
C2075 C 0.89179 0.10645 0.59088 0.0
C2076 C 0.85695 0.0917 0.59316 0.0
C2077 C 0.84152 0.07805 0.59966 0.0
C2078 C 0.84618 0.057 0.60211 0.0
C2079 C 0.83163 0.04427 0.60833 0.0
C2080 C 0.81231 0.05238 0.61207 0.0
C2081 C 0.80747 0.07323 0.60956 0.0
C2082 C 0.82197 0.08603 0.60335 0.0
C2083 C 0.86338 0.12726 0.53955 0.0
C2084 C 0.84627 0.14096 0.53897 0.0
C2085 C 0.86938 0.11838 0.55119 0.0
C2086 C 0.85847 0.12311 0.56248 0.0
C2087 C 0.84116 0.1365 0.5619 0.0
C2088 C 0.83514 0.14543 0.55025 0.0
C2089 C 0.86521 0.11404 0.57488 0.0
C2090 C 0.85098 0.10185 0.58182 0.0
C2091 C 0.88583 0.11656 0.57953 0.0
C2092 C 0.90127 0.13012 0.57297 0.0
C2093 C 0.8966 0.15112 0.57038 0.0
C2094 C 0.91113 0.16376 0.56409 0.0
C2095 C 0.93046 0.15561 0.5604 0.0
C2096 C 0.93532 0.13481 0.56304 0.0
C2097 C 0.92083 0.1221 0.56933 0.0
H2098 H 0.94168 0.16541 0.55553 0.0
H2099 H 0.80107 0.04251 0.61688 0.0
H2100 H 0.93972 0.42823 0.87314 0.0
H2101 H 0.92483 0.41666 0.85277 0.0
H2102 H 0.8997 0.36201 0.8713 0.0
H2103 H 0.91469 0.37345 0.89169 0.0
H2104 H 0.9168 0.35189 0.84897 0.0
H2105 H 0.86841 0.40362 0.86353 0.0
H2106 H 0.85735 0.43806 0.87152 0.0
H2107 H 0.88076 0.46696 0.83731 0.0
H2108 H 0.89224 0.4327 0.82918 0.0
H2109 H 0.84812 0.32359 0.79805 0.0
H2110 H 0.8621 0.33428 0.81888 0.0
H2111 H 0.89028 0.38832 0.80137 0.0
H2112 H 0.87617 0.37787 0.78057 0.0
H2113 H 0.87071 0.39824 0.82349 0.0
H2114 H 0.91962 0.3461 0.80924 0.0
H2115 H 0.93016 0.31142 0.80137 0.0
H2116 H 0.90489 0.28303 0.83524 0.0
H2117 H 0.89394 0.31753 0.84324 0.0
C2118 C 0.9309 0.41382 0.87288 0.0
C2119 C 0.92831 0.40178 0.88403 0.0
C2120 C 0.9224 0.40722 0.86124 0.0
C2121 C 0.9109 0.3886 0.86054 0.0
C2122 C 0.90852 0.37642 0.87162 0.0
C2123 C 0.91713 0.38295 0.88325 0.0
C2124 C 0.90149 0.38178 0.84824 0.0
C2125 C 0.90648 0.36191 0.84349 0.0
C2126 C 0.88831 0.39499 0.84097 0.0
C2127 C 0.88136 0.41561 0.8458 0.0
C2128 C 0.87134 0.41733 0.85775 0.0
C2129 C 0.86498 0.43682 0.8623 0.0
C2130 C 0.8684 0.45469 0.85494 0.0
C2131 C 0.87815 0.4531 0.843 0.0
C2132 C 0.88457 0.43365 0.83842 0.0
C2133 C 0.85732 0.33773 0.79865 0.0
C2134 C 0.86111 0.34987 0.78768 0.0
C2135 C 0.86535 0.34378 0.81054 0.0
C2136 C 0.8774 0.362 0.81165 0.0
C2137 C 0.88103 0.37421 0.80073 0.0
C2138 C 0.87302 0.36818 0.78884 0.0
C2139 C 0.88614 0.36844 0.8242 0.0
C2140 C 0.881 0.38822 0.82899 0.0
C2141 C 0.89909 0.35512 0.83154 0.0
C2142 C 0.90577 0.33438 0.82678 0.0
C2143 C 0.91617 0.33244 0.81496 0.0
C2144 C 0.92224 0.31282 0.81049 0.0
C2145 C 0.91815 0.29502 0.81778 0.0
C2146 C 0.90803 0.29682 0.82959 0.0
C2147 C 0.9019 0.31641 0.83411 0.0
H2148 H 0.92286 0.27984 0.8143 0.0
H2149 H 0.86345 0.46977 0.85847 0.0
H2150 H 0.55471 0.43445 0.11814 0.0
H2151 H 0.57299 0.42416 0.09851 0.0
H2152 H 0.58297 0.3627 0.1141 0.0
H2153 H 0.56483 0.37293 0.13379 0.0
H2154 H 0.61894 0.38023 0.10353 0.0
H2155 H 0.54715 0.36886 0.09183 0.0
H2156 H 0.51015 0.37858 0.08908 0.0
H2157 H 0.52781 0.42742 0.06312 0.0
H2158 H 0.56497 0.41817 0.06587 0.0
H2159 H 0.6515 0.32741 0.04737 0.0
H2160 H 0.63403 0.33906 0.0669 0.0
H2161 H 0.61852 0.39739 0.04863 0.0
H2162 H 0.63557 0.38557 0.02892 0.0
H2163 H 0.5856 0.38239 0.06063 0.0
H2164 H 0.65706 0.39403 0.07183 0.0
H2165 H 0.69428 0.38516 0.0746 0.0
H2166 H 0.67785 0.33724 0.10149 0.0
H2167 H 0.64049 0.34563 0.09874 0.0
C2168 C 0.56078 0.41874 0.11736 0.0
C2169 C 0.55831 0.40447 0.12747 0.0
C2170 C 0.57112 0.41286 0.10614 0.0
C2171 C 0.57924 0.39265 0.10485 0.0
C2172 C 0.57678 0.37836 0.11491 0.0
C2173 C 0.56628 0.38417 0.12609 0.0
C2174 C 0.59063 0.38651 0.09308 0.0
C2175 C 0.61161 0.38043 0.09416 0.0
C2176 C 0.58119 0.3874 0.08084 0.0
C2177 C 0.55886 0.39296 0.07916 0.0
C2178 C 0.54316 0.38179 0.08563 0.0
C2179 C 0.52215 0.38719 0.08405 0.0
C2180 C 0.51663 0.40365 0.07596 0.0
C2181 C 0.53211 0.4147 0.0694 0.0
C2182 C 0.55314 0.40937 0.07096 0.0
C2183 C 0.64453 0.34279 0.04755 0.0
C2184 C 0.64494 0.35561 0.03664 0.0
C2185 C 0.63461 0.34947 0.05874 0.0
C2186 C 0.62515 0.36921 0.05929 0.0
C2187 C 0.62573 0.38211 0.04843 0.0
C2188 C 0.63554 0.37538 0.0372 0.0
C2189 C 0.61399 0.37603 0.07104 0.0
C2190 C 0.59302 0.38224 0.06998 0.0
C2191 C 0.6235 0.37541 0.08329 0.0
C2192 C 0.64596 0.37034 0.08498 0.0
C2193 C 0.66137 0.38149 0.07825 0.0
C2194 C 0.68249 0.37657 0.07984 0.0
C2195 C 0.68842 0.36061 0.08819 0.0
C2196 C 0.67323 0.34958 0.09501 0.0
C2197 C 0.65208 0.35442 0.09345 0.0
H2198 H 0.70478 0.35683 0.0894 0.0
H2199 H 0.50036 0.4078 0.07475 0.0
loop_
_geom_bond_atom_site_label_1
_geom_bond_atom_site_label_2
_geom_bond_distance
_geom_bond_site_symmetry_2
_ccdc_geom_bond_type
H0 C27 0.929 . S
N1 C26 1.433 . S
N1 C32 1.435 . S
N1 C38 1.423 . S
H2 C28 0.930 . S
H3 C31 0.931 . S
H4 C30 0.929 . S
H5 C33 0.930 . S
H6 C34 0.932 . S
H7 C37 0.929 . S
H8 C36 0.931 . S
H9 C39 0.929 . S
H10 C43 0.932 . S
H11 C40 0.931 . S
H12 C42 0.929 . S
H13 C45 0.929 . S
H14 C46 0.930 . S
H15 C48 0.929 . S
H16 C49 0.931 . S
H17 C51 0.930 . S
H18 C52 0.932 . S
H19 C54 0.931 . S
H20 C55 0.929 . S
H21 C57 0.929 . S
H22 C58 0.911 1_455 S
H23 C60 0.929 . S
N24 C44 1.433 . S
N24 C50 1.435 . S
N24 C56 1.423 . S
H25 C61 0.932 . S
C26 N1 1.433 . S
C26 C27 1.363 . S
C26 C31 1.370 . S
C27 H0 0.929 . S
C27 C26 1.363 . S
C27 C28 1.385 . S
C28 H2 0.930 . S
C28 C27 1.385 . S
C28 C29 1.357 . S
C29 C28 1.357 . S
C29 C30 1.406 . S
C30 H4 0.929 . S
C30 C29 1.406 . S
C30 C31 1.391 . S
C31 H3 0.931 . S
C31 C26 1.370 . S
C31 C30 1.391 . S
C32 N1 1.435 . S
C32 C33 1.358 . S
C32 C37 1.371 . S
C33 H5 0.930 . S
C33 C32 1.358 . S
C33 C34 1.405 . S
C34 H6 0.932 . S
C34 C33 1.405 . S
C34 C35 1.383 . S
C35 C34 1.383 . S
C35 C36 1.393 . S
C36 H8 0.931 . S
C36 C35 1.393 . S
C36 C37 1.382 . S
C37 H7 0.929 . S
C37 C32 1.371 . S
C37 C36 1.382 . S
C38 N1 1.423 . S
C38 C39 1.362 . S
C38 C43 1.388 . S
C39 H9 0.929 . S
C39 C38 1.362 . S
C39 C40 1.376 1_565 S
C40 H11 0.931 . S
C40 C39 1.376 1_545 S
C40 C41 1.396 . S
C41 C40 1.396 . S
C41 C42 1.348 1_545 S
C41 C59 1.472 . S
C42 H12 0.929 . S
C42 C41 1.348 1_565 S
C42 C43 1.443 . S
C43 H10 0.932 . S
C43 C38 1.388 . S
C43 C42 1.443 . S
C44 N24 1.433 . S
C44 C45 1.363 . S
C44 C49 1.370 . S
C45 H13 0.929 . S
C45 C44 1.363 . S
C45 C46 1.385 . S
C46 H14 0.930 . S
C46 C45 1.385 . S
C46 C47 1.357 . S
C47 C46 1.357 . S
C47 C48 1.406 . S
C48 H15 0.929 . S
C48 C47 1.406 . S
C48 C49 1.391 . S
C49 H16 0.931 . S
C49 C44 1.370 . S
C49 C48 1.391 . S
C50 N24 1.435 . S
C50 C51 1.358 . S
C50 C55 1.371 . S
C51 H17 0.930 . S
C51 C50 1.358 . S
C51 C52 1.405 . S
C52 H18 0.932 . S
C52 C51 1.405 . S
C52 C53 1.383 . S
C53 C52 1.383 . S
C53 C54 1.393 . S
C54 H19 0.931 . S
C54 C53 1.393 . S
C54 C55 1.382 . S
C55 H20 0.929 . S
C55 C50 1.371 . S
C55 C54 1.382 . S
C56 N24 1.423 . S
C56 C57 1.362 . S
C56 C61 1.388 . S
C57 H21 0.929 . S
C57 C56 1.362 . S
C57 C58 1.398 . S
C58 H22 0.911 1_655 S
C58 C57 1.398 . S
C58 C59 1.394 1_655 S
C59 C41 1.472 . S
C59 C58 1.394 1_455 S
C59 C60 1.348 1_455 S
C60 H23 0.929 . S
C60 C59 1.348 1_655 S
C60 C61 1.443 . S
C61 H25 0.932 . S
C61 C56 1.388 . S
C61 C60 1.443 . S
H62 C89 0.929 . S
N63 C88 1.433 . S
N63 C94 1.435 . S
N63 C100 1.423 . S
H64 C90 0.930 . S
H65 C93 0.931 . S
H66 C92 0.929 . S
H67 C95 0.930 . S
H68 C96 0.932 . S
H69 C99 0.929 . S
H70 C98 0.931 . S
H71 C101 0.929 . S
H72 C105 0.932 . S
H73 C102 0.931 . S
H74 C104 0.929 . S
H75 C107 0.929 . S
H76 C108 0.930 . S
H77 C110 0.929 . S
H78 C111 0.931 . S
H79 C113 0.930 . S
H80 C114 0.932 . S
H81 C116 0.931 . S
H82 C117 0.929 . S
H83 C119 0.929 . S
H84 C120 0.931 . S
H85 C122 0.929 . S
N86 C106 1.433 . S
N86 C112 1.435 . S
N86 C118 1.423 . S
H87 C123 0.932 . S
C88 N63 1.433 . S
C88 C89 1.363 . S
C88 C93 1.370 . S
C89 H62 0.929 . S
C89 C88 1.363 . S
C89 C90 1.385 . S
C90 H64 0.930 . S
C90 C89 1.385 . S
C90 C91 1.357 . S
C91 C90 1.357 . S
C91 C92 1.406 . S
C92 H66 0.929 . S
C92 C91 1.406 . S
C92 C93 1.391 . S
C93 H65 0.931 . S
C93 C88 1.370 . S
C93 C92 1.391 . S
C94 N63 1.435 . S
C94 C95 1.358 . S
C94 C99 1.371 . S
C95 H67 0.930 . S
C95 C94 1.358 . S
C95 C96 1.405 . S
C96 H68 0.932 . S
C96 C95 1.405 . S
C96 C97 1.383 . S
C97 C96 1.383 . S
C97 C98 1.393 . S
C98 H70 0.931 . S
C98 C97 1.393 . S
C98 C99 1.382 . S
C99 H69 0.929 . S
C99 C94 1.371 . S
C99 C98 1.382 . S
C100 N63 1.423 . S
C100 C101 1.362 . S
C100 C105 1.388 . S
C101 H71 0.929 . S
C101 C100 1.362 . S
C101 C102 1.376 1_655 S
C102 H73 0.931 . S
C102 C101 1.376 1_455 S
C102 C103 1.396 . S
C103 C102 1.396 . S
C103 C104 1.348 1_455 S
C103 C121 1.472 . S
C104 H74 0.929 . S
C104 C103 1.348 1_655 S
C104 C105 1.443 . S
C105 H72 0.932 . S
C105 C100 1.388 . S
C105 C104 1.443 . S
C106 N86 1.433 . S
C106 C107 1.363 . S
C106 C111 1.370 . S
C107 H75 0.929 . S
C107 C106 1.363 . S
C107 C108 1.385 . S
C108 H76 0.930 . S
C108 C107 1.385 . S
C108 C109 1.357 . S
C109 C108 1.357 . S
C109 C110 1.406 . S
C110 H77 0.929 . S
C110 C109 1.406 . S
C110 C111 1.391 . S
C111 H78 0.931 . S
C111 C106 1.370 . S
C111 C110 1.391 . S
C112 N86 1.435 . S
C112 C113 1.358 . S
C112 C117 1.371 . S
C113 H79 0.930 . S
C113 C112 1.358 . S
C113 C114 1.405 . S
C114 H80 0.932 . S
C114 C113 1.405 . S
C114 C115 1.383 . S
C115 C114 1.383 . S
C115 C116 1.393 . S
C116 H81 0.931 . S
C116 C115 1.393 . S
C116 C117 1.382 . S
C117 H82 0.929 . S
C117 C112 1.371 . S
C117 C116 1.382 . S
C118 N86 1.423 . S
C118 C119 1.362 . S
C118 C123 1.388 . S
C119 H83 0.929 . S
C119 C118 1.362 . S
C119 C120 1.376 . S
C120 H84 0.931 . S
C120 C119 1.376 . S
C120 C121 1.396 . S
C121 C103 1.472 . S
C121 C120 1.396 . S
C121 C122 1.348 . S
C122 H85 0.929 . S
C122 C121 1.348 . S
C122 C123 1.443 . S
C123 H87 0.932 . S
C123 C118 1.388 . S
C123 C122 1.443 . S
H124 C151 0.929 . S
N125 C150 1.433 . S
N125 C156 1.435 . S
N125 C162 1.423 . S
H126 C152 0.930 . S
H127 C155 0.931 . S
H128 C154 0.929 . S
H129 C157 0.930 . S
H130 C158 0.932 . S
H131 C161 0.929 . S
H132 C160 0.931 . S
H133 C163 0.929 . S
H134 C167 0.932 . S
H135 C164 0.931 . S
H136 C166 0.929 . S
H137 C169 0.929 . S
H138 C170 0.930 . S
H139 C172 0.929 . S
H140 C173 0.931 . S
H141 C175 0.930 . S
H142 C176 0.932 . S
H143 C178 0.931 . S
H144 C179 0.929 . S
H145 C181 0.929 . S
H146 C182 0.931 . S
H147 C184 0.929 . S
N148 C168 1.433 . S
N148 C174 1.435 . S
N148 C180 1.423 . S
H149 C185 0.932 . S
C150 N125 1.433 . S
C150 C151 1.363 . S
C150 C155 1.370 . S
C151 H124 0.929 . S
C151 C150 1.363 . S
C151 C152 1.385 . S
C152 H126 0.930 . S
C152 C151 1.385 . S
C152 C153 1.357 . S
C153 C152 1.357 . S
C153 C154 1.406 . S
C154 H128 0.929 . S
C154 C153 1.406 . S
C154 C155 1.391 . S
C155 H127 0.931 . S
C155 C150 1.370 . S
C155 C154 1.391 . S
C156 N125 1.435 . S
C156 C157 1.358 . S
C156 C161 1.371 . S
C157 H129 0.930 . S
C157 C156 1.358 . S
C157 C158 1.405 . S
C158 H130 0.932 . S
C158 C157 1.405 . S
C158 C159 1.383 . S
C159 C158 1.383 . S
C159 C160 1.393 . S
C160 H132 0.931 . S
C160 C159 1.393 . S
C160 C161 1.382 . S
C161 H131 0.929 . S
C161 C156 1.371 . S
C161 C160 1.382 . S
C162 N125 1.423 . S
C162 C163 1.362 . S
C162 C167 1.388 . S
C163 H133 0.929 . S
C163 C162 1.362 . S
C163 C164 1.376 . S
C164 H135 0.931 . S
C164 C163 1.376 . S
C164 C165 1.396 . S
C165 C164 1.396 . S
C165 C166 1.348 . S
C165 C183 1.472 . S
C166 H136 0.929 . S
C166 C165 1.348 . S
C166 C167 1.443 . S
C167 H134 0.932 . S
C167 C162 1.388 . S
C167 C166 1.443 . S
C168 N148 1.433 . S
C168 C169 1.363 . S
C168 C173 1.370 . S
C169 H137 0.929 . S
C169 C168 1.363 . S
C169 C170 1.385 . S
C170 H138 0.930 . S
C170 C169 1.385 . S
C170 C171 1.357 . S
C171 C170 1.357 . S
C171 C172 1.406 . S
C172 H139 0.929 . S
C172 C171 1.406 . S
C172 C173 1.391 . S
C173 H140 0.931 . S
C173 C168 1.370 . S
C173 C172 1.391 . S
C174 N148 1.435 . S
C174 C175 1.358 . S
C174 C179 1.371 . S
C175 H141 0.930 . S
C175 C174 1.358 . S
C175 C176 1.405 . S
C176 H142 0.932 . S
C176 C175 1.405 . S
C176 C177 1.383 . S
C177 C176 1.383 . S
C177 C178 1.393 . S
C178 H143 0.931 . S
C178 C177 1.393 . S
C178 C179 1.382 . S
C179 H144 0.929 . S
C179 C174 1.371 . S
C179 C178 1.382 . S
C180 N148 1.423 . S
C180 C181 1.362 . S
C180 C185 1.388 . S
C181 H145 0.929 . S
C181 C180 1.362 . S
C181 C182 1.376 . S
C182 H146 0.931 . S
C182 C181 1.376 . S
C182 C183 1.396 . S
C183 C165 1.472 . S
C183 C182 1.396 . S
C183 C184 1.348 . S
C184 H147 0.929 . S
C184 C183 1.348 . S
C184 C185 1.443 . S
C185 H149 0.932 . S
C185 C180 1.388 . S
C185 C184 1.443 . S
H186 C213 0.929 . S
N187 C212 1.433 . S
N187 C218 1.435 . S
N187 C224 1.423 . S
H188 C214 0.930 . S
H189 C217 0.931 . S
H190 C216 0.929 . S
H191 C219 0.930 . S
H192 C220 0.932 . S
H193 C223 0.929 . S
H194 C222 0.931 . S
H195 C225 0.929 . S
H196 C229 0.932 . S
H197 C226 0.931 . S
H198 C228 0.929 . S
H199 C231 0.929 . S
H200 C232 0.930 . S
H201 C234 0.929 . S
H202 C235 0.931 . S
H203 C237 0.930 . S
H204 C238 0.932 . S
H205 C240 0.931 . S
H206 C241 0.929 . S
H207 C243 0.929 . S
H208 C244 0.931 1_565 S
H209 C246 0.929 . S
N210 C230 1.433 . S
N210 C236 1.435 . S
N210 C242 1.423 . S
H211 C247 0.932 . S
C212 N187 1.433 . S
C212 C213 1.363 . S
C212 C217 1.370 . S
C213 H186 0.929 . S
C213 C212 1.363 . S
C213 C214 1.385 . S
C214 H188 0.930 . S
C214 C213 1.385 . S
C214 C215 1.357 . S
C215 C214 1.357 . S
C215 C216 1.406 . S
C216 H190 0.929 . S
C216 C215 1.406 . S
C216 C217 1.391 . S
C217 H189 0.931 . S
C217 C212 1.370 . S
C217 C216 1.391 . S
C218 N187 1.435 . S
C218 C219 1.358 . S
C218 C223 1.371 . S
C219 H191 0.930 . S
C219 C218 1.358 . S
C219 C220 1.405 . S
C220 H192 0.932 . S
C220 C219 1.405 . S
C220 C221 1.383 . S
C221 C220 1.383 . S
C221 C222 1.393 . S
C222 H194 0.931 . S
C222 C221 1.393 . S
C222 C223 1.382 . S
C223 H193 0.929 . S
C223 C218 1.371 . S
C223 C222 1.382 . S
C224 N187 1.423 . S
C224 C225 1.362 . S
C224 C229 1.388 . S
C225 H195 0.929 . S
C225 C224 1.362 . S
C225 C226 1.376 . S
C226 H197 0.931 . S
C226 C225 1.376 . S
C226 C227 1.396 . S
C227 C226 1.396 . S
C227 C228 1.348 . S
C227 C245 1.436 1_565 S
C228 H198 0.929 . S
C228 C227 1.348 . S
C228 C229 1.443 . S
C229 H196 0.932 . S
C229 C224 1.388 . S
C229 C228 1.443 . S
C230 N210 1.433 . S
C230 C231 1.363 . S
C230 C235 1.370 . S
C231 H199 0.929 . S
C231 C230 1.363 . S
C231 C232 1.385 . S
C232 H200 0.930 . S
C232 C231 1.385 . S
C232 C233 1.357 . S
C233 C232 1.357 . S
C233 C234 1.406 . S
C234 H201 0.929 . S
C234 C233 1.406 . S
C234 C235 1.391 . S
C235 H202 0.931 . S
C235 C230 1.370 . S
C235 C234 1.391 . S
C236 N210 1.435 . S
C236 C237 1.358 . S
C236 C241 1.371 . S
C237 H203 0.930 . S
C237 C236 1.358 . S
C237 C238 1.405 . S
C238 H204 0.932 . S
C238 C237 1.405 . S
C238 C239 1.383 . S
C239 C238 1.383 . S
C239 C240 1.393 . S
C240 H205 0.931 . S
C240 C239 1.393 . S
C240 C241 1.382 . S
C241 H206 0.929 . S
C241 C236 1.371 . S
C241 C240 1.382 . S
C242 N210 1.423 . S
C242 C243 1.362 . S
C242 C247 1.388 . S
C243 H207 0.929 . S
C243 C242 1.362 . S
C243 C244 1.376 . S
C244 H208 0.931 1_545 S
C244 C243 1.376 . S
C244 C245 1.401 . S
C245 C227 1.436 1_545 S
C245 C244 1.401 . S
C245 C246 1.383 . S
C246 H209 0.929 . S
C246 C245 1.383 . S
C246 C247 1.443 . S
C247 H211 0.932 . S
C247 C242 1.388 . S
C247 C246 1.443 . S
H248 C275 0.929 . S
N249 C274 1.433 . S
N249 C280 1.435 . S
N249 C286 1.423 . S
H250 C276 0.930 . S
H251 C279 0.931 . S
H252 C278 0.929 . S
H253 C281 0.930 . S
H254 C282 0.932 . S
H255 C285 0.929 . S
H256 C284 0.931 . S
H257 C287 0.929 . S
H258 C291 0.932 . S
H259 C288 0.931 . S
H260 C290 0.929 . S
H261 C293 0.929 . S
H262 C294 0.930 . S
H263 C296 0.929 . S
H264 C297 0.931 . S
H265 C299 0.930 . S
H266 C300 0.932 . S
H267 C302 0.931 . S
H268 C303 0.929 . S
H269 C305 0.929 . S
H270 C306 0.931 1_455 S
H271 C308 0.929 . S
N272 C292 1.433 . S
N272 C298 1.435 . S
N272 C304 1.423 . S
H273 C309 0.932 . S
C274 N249 1.433 . S
C274 C275 1.363 . S
C274 C279 1.370 . S
C275 H248 0.929 . S
C275 C274 1.363 . S
C275 C276 1.385 . S
C276 H250 0.930 . S
C276 C275 1.385 . S
C276 C277 1.357 . S
C277 C276 1.357 . S
C277 C278 1.406 . S
C278 H252 0.929 . S
C278 C277 1.406 . S
C278 C279 1.391 . S
C279 H251 0.931 . S
C279 C274 1.370 . S
C279 C278 1.391 . S
C280 N249 1.435 . S
C280 C281 1.358 . S
C280 C285 1.371 . S
C281 H253 0.930 . S
C281 C280 1.358 . S
C281 C282 1.405 . S
C282 H254 0.932 . S
C282 C281 1.405 . S
C282 C283 1.383 . S
C283 C282 1.383 . S
C283 C284 1.393 . S
C284 H256 0.931 . S
C284 C283 1.393 . S
C284 C285 1.382 . S
C285 H255 0.929 . S
C285 C280 1.371 . S
C285 C284 1.382 . S
C286 N249 1.423 . S
C286 C287 1.362 . S
C286 C291 1.388 . S
C287 H257 0.929 . S
C287 C286 1.362 . S
C287 C288 1.376 . S
C288 H259 0.931 . S
C288 C287 1.376 . S
C288 C289 1.396 . S
C289 C288 1.396 . S
C289 C290 1.348 . S
C289 C307 1.518 . S
C290 H260 0.929 . S
C290 C289 1.348 . S
C290 C291 1.443 . S
C291 H258 0.932 . S
C291 C286 1.388 . S
C291 C290 1.443 . S
C292 N272 1.433 . S
C292 C293 1.363 . S
C292 C297 1.370 . S
C293 H261 0.929 . S
C293 C292 1.363 . S
C293 C294 1.385 . S
C294 H262 0.930 . S
C294 C293 1.385 . S
C294 C295 1.357 . S
C295 C294 1.357 . S
C295 C296 1.406 . S
C296 H263 0.929 . S
C296 C295 1.406 . S
C296 C297 1.391 . S
C297 H264 0.931 . S
C297 C292 1.370 . S
C297 C296 1.391 . S
C298 N272 1.435 . S
C298 C299 1.358 . S
C298 C303 1.371 . S
C299 H265 0.930 . S
C299 C298 1.358 . S
C299 C300 1.405 . S
C300 H266 0.932 . S
C300 C299 1.405 . S
C300 C301 1.383 . S
C301 C300 1.383 . S
C301 C302 1.393 . S
C302 H267 0.931 . S
C302 C301 1.393 . S
C302 C303 1.382 . S
C303 H268 0.929 . S
C303 C298 1.371 . S
C303 C302 1.382 . S
C304 N272 1.423 . S
C304 C305 1.362 . S
C304 C309 1.388 . S
C305 H269 0.929 . S
C305 C304 1.362 . S
C305 C306 1.376 . S
C306 H270 0.931 1_655 S
C306 C305 1.376 . S
C306 C307 1.391 1_655 S
C307 C289 1.518 . S
C307 C306 1.391 1_455 S
C307 C308 1.305 1_455 S
C308 H271 0.929 . S
C308 C307 1.305 1_655 S
C308 C309 1.443 . S
C309 H273 0.932 . S
C309 C304 1.388 . S
C309 C308 1.443 . S
H310 C337 0.929 . S
N311 C336 1.433 . S
N311 C342 1.435 . S
N311 C348 1.423 . S
H312 C338 0.930 . S
H313 C341 0.931 . S
H314 C340 0.929 . S
H315 C343 0.930 . S
H316 C344 0.932 . S
H317 C347 0.929 . S
H318 C346 0.931 . S
H319 C349 0.929 . S
H320 C353 0.932 . S
H321 C350 0.931 . S
H322 C352 0.929 . S
H323 C355 0.929 . S
H324 C356 0.930 . S
H325 C358 0.929 . S
H326 C359 0.931 . S
H327 C361 0.930 . S
H328 C362 0.932 . S
H329 C364 0.931 . S
H330 C365 0.929 . S
H331 C367 0.929 . S
H332 C368 0.931 . S
H333 C370 0.929 . S
N334 C354 1.433 . S
N334 C360 1.435 . S
N334 C366 1.423 . S
H335 C371 0.932 . S
C336 N311 1.433 . S
C336 C337 1.363 . S
C336 C341 1.370 . S
C337 H310 0.929 . S
C337 C336 1.363 . S
C337 C338 1.385 . S
C338 H312 0.930 . S
C338 C337 1.385 . S
C338 C339 1.357 . S
C339 C338 1.357 . S
C339 C340 1.406 . S
C340 H314 0.929 . S
C340 C339 1.406 . S
C340 C341 1.391 . S
C341 H313 0.931 . S
C341 C336 1.370 . S
C341 C340 1.391 . S
C342 N311 1.435 . S
C342 C343 1.358 . S
C342 C347 1.371 . S
C343 H315 0.930 . S
C343 C342 1.358 . S
C343 C344 1.405 . S
C344 H316 0.932 . S
C344 C343 1.405 . S
C344 C345 1.383 . S
C345 C344 1.383 . S
C345 C346 1.393 . S
C346 H318 0.931 . S
C346 C345 1.393 . S
C346 C347 1.382 . S
C347 H317 0.929 . S
C347 C342 1.371 . S
C347 C346 1.382 . S
C348 N311 1.423 . S
C348 C349 1.362 . S
C348 C353 1.388 . S
C349 H319 0.929 . S
C349 C348 1.362 . S
C349 C350 1.376 . S
C350 H321 0.931 . S
C350 C349 1.376 . S
C350 C351 1.396 . S
C351 C350 1.396 . S
C351 C352 1.348 . S
C351 C369 1.472 . S
C352 H322 0.929 . S
C352 C351 1.348 . S
C352 C353 1.443 . S
C353 H320 0.932 . S
C353 C348 1.388 . S
C353 C352 1.443 . S
C354 N334 1.433 . S
C354 C355 1.363 . S
C354 C359 1.370 . S
C355 H323 0.929 . S
C355 C354 1.363 . S
C355 C356 1.385 . S
C356 H324 0.930 . S
C356 C355 1.385 . S
C356 C357 1.357 . S
C357 C356 1.357 . S
C357 C358 1.406 . S
C358 H325 0.929 . S
C358 C357 1.406 . S
C358 C359 1.391 . S
C359 H326 0.931 . S
C359 C354 1.370 . S
C359 C358 1.391 . S
C360 N334 1.435 . S
C360 C361 1.358 . S
C360 C365 1.371 . S
C361 H327 0.930 . S
C361 C360 1.358 . S
C361 C362 1.405 . S
C362 H328 0.932 . S
C362 C361 1.405 . S
C362 C363 1.383 . S
C363 C362 1.383 . S
C363 C364 1.393 . S
C364 H329 0.931 . S
C364 C363 1.393 . S
C364 C365 1.382 . S
C365 H330 0.929 . S
C365 C360 1.371 . S
C365 C364 1.382 . S
C366 N334 1.423 . S
C366 C367 1.362 . S
C366 C371 1.388 . S
C367 H331 0.929 . S
C367 C366 1.362 . S
C367 C368 1.376 . S
C368 H332 0.931 . S
C368 C367 1.376 . S
C368 C369 1.396 . S
C369 C351 1.472 . S
C369 C368 1.396 . S
C369 C370 1.348 . S
C370 H333 0.929 . S
C370 C369 1.348 . S
C370 C371 1.443 . S
C371 H335 0.932 . S
C371 C366 1.388 . S
C371 C370 1.443 . S
H372 C399 0.929 . S
N373 C398 1.433 . S
N373 C404 1.435 . S
N373 C410 1.423 . S
H374 C400 0.930 . S
H375 C403 0.931 . S
H376 C402 0.929 . S
H377 C405 0.930 . S
H378 C406 0.932 . S
H379 C409 0.929 . S
H380 C408 0.931 . S
H381 C411 0.929 . S
H382 C415 0.932 . S
H383 C412 0.931 . S
H384 C414 0.929 . S
H385 C417 0.929 . S
H386 C418 0.930 . S
H387 C420 0.929 . S
H388 C421 0.931 . S
H389 C423 0.930 . S
H390 C424 0.932 . S
H391 C426 0.931 . S
H392 C427 0.929 . S
H393 C429 0.929 . S
H394 C430 0.931 . S
H395 C432 0.929 . S
N396 C416 1.433 . S
N396 C422 1.435 . S
N396 C428 1.423 . S
H397 C433 0.932 . S
C398 N373 1.433 . S
C398 C399 1.363 . S
C398 C403 1.370 . S
C399 H372 0.929 . S
C399 C398 1.363 . S
C399 C400 1.385 . S
C400 H374 0.930 . S
C400 C399 1.385 . S
C400 C401 1.357 . S
C401 C400 1.357 . S
C401 C402 1.406 . S
C402 H376 0.929 . S
C402 C401 1.406 . S
C402 C403 1.391 . S
C403 H375 0.931 . S
C403 C398 1.370 . S
C403 C402 1.391 . S
C404 N373 1.435 . S
C404 C405 1.358 . S
C404 C409 1.371 . S
C405 H377 0.930 . S
C405 C404 1.358 . S
C405 C406 1.405 . S
C406 H378 0.932 . S
C406 C405 1.405 . S
C406 C407 1.383 . S
C407 C406 1.383 . S
C407 C408 1.393 . S
C408 H380 0.931 . S
C408 C407 1.393 . S
C408 C409 1.382 . S
C409 H379 0.929 . S
C409 C404 1.371 . S
C409 C408 1.382 . S
C410 N373 1.423 . S
C410 C411 1.362 . S
C410 C415 1.388 . S
C411 H381 0.929 . S
C411 C410 1.362 . S
C411 C412 1.376 1_565 S
C412 H383 0.931 . S
C412 C411 1.376 1_545 S
C412 C413 1.396 . S
C413 C412 1.396 . S
C413 C414 1.348 1_545 S
C413 C431 1.472 . S
C414 H384 0.929 . S
C414 C413 1.348 1_565 S
C414 C415 1.443 . S
C415 H382 0.932 . S
C415 C410 1.388 . S
C415 C414 1.443 . S
C416 N396 1.433 . S
C416 C417 1.363 . S
C416 C421 1.370 . S
C417 H385 0.929 . S
C417 C416 1.363 . S
C417 C418 1.385 . S
C418 H386 0.930 . S
C418 C417 1.385 . S
C418 C419 1.357 . S
C419 C418 1.357 . S
C419 C420 1.406 . S
C420 H387 0.929 . S
C420 C419 1.406 . S
C420 C421 1.391 . S
C421 H388 0.931 . S
C421 C416 1.370 . S
C421 C420 1.391 . S
C422 N396 1.435 . S
C422 C423 1.358 . S
C422 C427 1.371 . S
C423 H389 0.930 . S
C423 C422 1.358 . S
C423 C424 1.405 . S
C424 H390 0.932 . S
C424 C423 1.405 . S
C424 C425 1.383 . S
C425 C424 1.383 . S
C425 C426 1.393 . S
C426 H391 0.931 . S
C426 C425 1.393 . S
C426 C427 1.382 . S
C427 H392 0.929 . S
C427 C422 1.371 . S
C427 C426 1.382 . S
C428 N396 1.423 . S
C428 C429 1.362 . S
C428 C433 1.388 . S
C429 H393 0.929 . S
C429 C428 1.362 . S
C429 C430 1.376 . S
C430 H394 0.931 . S
C430 C429 1.376 . S
C430 C431 1.396 . S
C431 C413 1.472 . S
C431 C430 1.396 . S
C431 C432 1.348 . S
C432 H395 0.929 . S
C432 C431 1.348 . S
C432 C433 1.443 . S
C433 H397 0.932 . S
C433 C428 1.388 . S
C433 C432 1.443 . S
H434 C461 0.929 . S
N435 C460 1.433 . S
N435 C466 1.435 . S
N435 C472 1.423 . S
H436 C462 0.930 . S
H437 C465 0.931 . S
H438 C464 0.929 . S
H439 C467 0.930 . S
H440 C468 0.932 . S
H441 C471 0.929 . S
H442 C470 0.931 . S
H443 C473 0.929 . S
H444 C477 0.932 . S
H445 C474 0.931 . S
H446 C476 0.929 . S
H447 C479 0.929 . S
H448 C480 0.930 . S
H449 C482 0.929 . S
H450 C483 0.931 . S
H451 C485 0.930 . S
H452 C486 0.932 . S
H453 C488 0.931 . S
H454 C489 0.929 . S
H455 C491 0.929 . S
H456 C492 0.931 1_565 S
H457 C494 0.929 . S
N458 C478 1.433 . S
N458 C484 1.435 . S
N458 C490 1.423 . S
H459 C495 0.932 . S
C460 N435 1.433 . S
C460 C461 1.363 . S
C460 C465 1.370 . S
C461 H434 0.929 . S
C461 C460 1.363 . S
C461 C462 1.385 . S
C462 H436 0.930 . S
C462 C461 1.385 . S
C462 C463 1.357 . S
C463 C462 1.357 . S
C463 C464 1.406 . S
C464 H438 0.929 . S
C464 C463 1.406 . S
C464 C465 1.391 . S
C465 H437 0.931 . S
C465 C460 1.370 . S
C465 C464 1.391 . S
C466 N435 1.435 . S
C466 C467 1.358 . S
C466 C471 1.371 . S
C467 H439 0.930 . S
C467 C466 1.358 . S
C467 C468 1.405 . S
C468 H440 0.932 . S
C468 C467 1.405 . S
C468 C469 1.383 . S
C469 C468 1.383 . S
C469 C470 1.393 . S
C470 H442 0.931 . S
C470 C469 1.393 . S
C470 C471 1.382 . S
C471 H441 0.929 . S
C471 C466 1.371 . S
C471 C470 1.382 . S
C472 N435 1.423 . S
C472 C473 1.362 . S
C472 C477 1.388 . S
C473 H443 0.929 . S
C473 C472 1.362 . S
C473 C474 1.376 1_455 S
C474 H445 0.931 . S
C474 C473 1.376 1_655 S
C474 C475 1.396 . S
C475 C474 1.396 . S
C475 C476 1.348 1_655 S
C475 C493 1.469 1_565 S
C476 H446 0.929 . S
C476 C475 1.348 1_455 S
C476 C477 1.443 . S
C477 H444 0.932 . S
C477 C472 1.388 . S
C477 C476 1.443 . S
C478 N458 1.433 . S
C478 C479 1.363 . S
C478 C483 1.370 . S
C479 H447 0.929 . S
C479 C478 1.363 . S
C479 C480 1.385 . S
C480 H448 0.930 . S
C480 C479 1.385 . S
C480 C481 1.357 . S
C481 C480 1.357 . S
C481 C482 1.406 . S
C482 H449 0.929 . S
C482 C481 1.406 . S
C482 C483 1.391 . S
C483 H450 0.931 . S
C483 C478 1.370 . S
C483 C482 1.391 . S
C484 N458 1.435 . S
C484 C485 1.358 . S
C484 C489 1.371 . S
C485 H451 0.930 . S
C485 C484 1.358 . S
C485 C486 1.405 . S
C486 H452 0.932 . S
C486 C485 1.405 . S
C486 C487 1.383 . S
C487 C486 1.383 . S
C487 C488 1.393 . S
C488 H453 0.931 . S
C488 C487 1.393 . S
C488 C489 1.382 . S
C489 H454 0.929 . S
C489 C484 1.371 . S
C489 C488 1.382 . S
C490 N458 1.423 . S
C490 C491 1.362 . S
C490 C495 1.388 . S
C491 H455 0.929 . S
C491 C490 1.362 . S
C491 C492 1.376 . S
C492 H456 0.931 1_545 S
C492 C491 1.376 . S
C492 C493 1.396 . S
C493 C475 1.469 1_545 S
C493 C492 1.396 . S
C493 C494 1.351 . S
C494 H457 0.929 . S
C494 C493 1.351 . S
C494 C495 1.443 . S
C495 H459 0.932 . S
C495 C490 1.388 . S
C495 C494 1.443 . S
In496 O497 2.294 . S
In496 O498 2.326 . S
In496 O502 2.266 1_554 S
In496 O503 2.326 1_554 S
In496 O504 2.266 1_554 S
In496 O505 2.326 1_554 S
In496 O507 2.294 . S
In496 O508 2.326 . S
O497 In496 2.294 . S
O497 C506 1.240 . S
O498 In496 2.326 . S
O498 C506 1.252 . S
C499 O502 1.252 . S
C499 O503 1.260 . S
C500 O507 1.240 . S
C500 O508 1.252 . S
C501 O504 1.252 . S
C501 O505 1.260 . S
O502 In496 2.266 1_556 S
O502 C499 1.252 . S
O503 In496 2.326 1_556 S
O503 C499 1.260 . S
O504 In496 2.266 1_556 S
O504 C501 1.252 . S
O505 In496 2.326 1_556 S
O505 C501 1.260 . S
C506 O497 1.240 . S
C506 O498 1.252 . S
O507 In496 2.294 . S
O507 C500 1.240 . S
O508 In496 2.326 . S
O508 C500 1.252 . S
In509 O510 2.294 . S
In509 O511 2.326 . S
In509 O515 2.266 . S
In509 O516 2.326 . S
In509 O517 2.266 . S
In509 O518 2.326 . S
In509 O520 2.294 . S
In509 O521 2.326 . S
O510 In509 2.294 . S
O510 C519 1.240 . S
O511 In509 2.326 . S
O511 C519 1.252 . S
C512 O515 1.252 . S
C512 O516 1.260 . S
C513 O520 1.240 . S
C513 O521 1.252 . S
C514 O517 1.252 . S
C514 O518 1.260 . S
O515 In509 2.266 . S
O515 C512 1.252 . S
O516 In509 2.326 . S
O516 C512 1.260 . S
O517 In509 2.266 . S
O517 C514 1.252 . S
O518 In509 2.326 . S
O518 C514 1.260 . S
C519 O510 1.240 . S
C519 O511 1.252 . S
O520 In509 2.294 . S
O520 C513 1.240 . S
O521 In509 2.326 . S
O521 C513 1.252 . S
In522 O523 2.294 . S
In522 O524 2.326 . S
In522 O528 2.266 . S
In522 O529 2.326 . S
In522 O530 2.266 . S
In522 O531 2.326 . S
In522 O533 2.294 . S
In522 O534 2.326 . S
O523 In522 2.294 . S
O523 C532 1.240 . S
O524 In522 2.326 . S
O524 C532 1.252 . S
C525 O528 1.252 . S
C525 O529 1.260 . S
C526 O533 1.240 . S
C526 O534 1.252 . S
C527 O530 1.252 . S
C527 O531 1.260 . S
O528 In522 2.266 . S
O528 C525 1.252 . S
O529 In522 2.326 . S
O529 C525 1.260 . S
O530 In522 2.266 . S
O530 C527 1.252 . S
O531 In522 2.326 . S
O531 C527 1.260 . S
C532 O523 1.240 . S
C532 O524 1.252 . S
O533 In522 2.294 . S
O533 C526 1.240 . S
O534 In522 2.326 . S
O534 C526 1.252 . S
In535 O536 2.294 . S
In535 O537 2.326 . S
In535 O541 2.266 . S
In535 O542 2.326 . S
In535 O543 2.266 . S
In535 O544 2.326 . S
In535 O546 2.294 . S
In535 O547 2.326 . S
O536 In535 2.294 . S
O536 C545 1.240 . S
O537 In535 2.326 . S
O537 C545 1.252 . S
C538 O541 1.252 . S
C538 O542 1.260 . S
C539 O546 1.240 . S
C539 O547 1.252 . S
C540 O543 1.252 . S
C540 O544 1.260 . S
O541 In535 2.266 . S
O541 C538 1.252 . S
O542 In535 2.326 . S
O542 C538 1.260 . S
O543 In535 2.266 . S
O543 C540 1.252 . S
O544 In535 2.326 . S
O544 C540 1.260 . S
C545 O536 1.240 . S
C545 O537 1.252 . S
O546 In535 2.294 . S
O546 C539 1.240 . S
O547 In535 2.326 . S
O547 C539 1.252 . S
In548 O549 2.294 . S
In548 O550 2.326 . S
In548 O554 2.266 . S
In548 O555 2.326 . S
In548 O556 2.266 . S
In548 O557 2.326 . S
In548 O559 2.294 . S
In548 O560 2.326 . S
O549 In548 2.294 . S
O549 C558 1.240 . S
O550 In548 2.326 . S
O550 C558 1.252 . S
C551 O554 1.252 . S
C551 O555 1.260 . S
C552 O559 1.240 . S
C552 O560 1.252 . S
C553 O556 1.252 . S
C553 O557 1.260 . S
O554 In548 2.266 . S
O554 C551 1.252 . S
O555 In548 2.326 . S
O555 C551 1.260 . S
O556 In548 2.266 . S
O556 C553 1.252 . S
O557 In548 2.326 . S
O557 C553 1.260 . S
C558 O549 1.240 . S
C558 O550 1.252 . S
O559 In548 2.294 . S
O559 C552 1.240 . S
O560 In548 2.326 . S
O560 C552 1.252 . S
In561 O562 2.294 . S
In561 O563 2.326 . S
In561 O567 2.266 . S
In561 O568 2.326 . S
In561 O569 2.266 . S
In561 O570 2.326 . S
In561 O572 2.294 . S
In561 O573 2.326 . S
O562 In561 2.294 . S
O562 C571 1.240 . S
O563 In561 2.326 . S
O563 C571 1.252 . S
C564 O567 1.252 . S
C564 O568 1.260 . S
C565 O572 1.240 . S
C565 O573 1.252 . S
C566 O569 1.252 . S
C566 O570 1.260 . S
O567 In561 2.266 . S
O567 C564 1.252 . S
O568 In561 2.326 . S
O568 C564 1.260 . S
O569 In561 2.266 . S
O569 C566 1.252 . S
O570 In561 2.326 . S
O570 C566 1.260 . S
C571 O562 1.240 . S
C571 O563 1.252 . S
O572 In561 2.294 . S
O572 C565 1.240 . S
O573 In561 2.326 . S
O573 C565 1.252 . S
In574 O575 2.294 . S
In574 O576 2.326 . S
In574 O580 2.266 1_554 S
In574 O581 2.326 1_554 S
In574 O582 2.266 1_554 S
In574 O583 2.326 1_554 S
In574 O585 2.294 . S
In574 O586 2.326 . S
O575 In574 2.294 . S
O575 C584 1.240 . S
O576 In574 2.326 . S
O576 C584 1.252 . S
C577 O580 1.252 . S
C577 O581 1.260 . S
C578 O585 1.240 . S
C578 O586 1.252 . S
C579 O582 1.252 . S
C579 O583 1.260 . S
O580 In574 2.266 1_556 S
O580 C577 1.252 . S
O581 In574 2.326 1_556 S
O581 C577 1.260 . S
O582 In574 2.266 1_556 S
O582 C579 1.252 . S
O583 In574 2.326 1_556 S
O583 C579 1.260 . S
C584 O575 1.240 . S
C584 O576 1.252 . S
O585 In574 2.294 . S
O585 C578 1.240 . S
O586 In574 2.326 . S
O586 C578 1.252 . S
In587 O588 2.294 . S
In587 O589 2.326 . S
In587 O593 2.266 . S
In587 O594 2.326 . S
In587 O595 2.266 . S
In587 O596 2.326 . S
In587 O598 2.294 . S
In587 O599 2.326 . S
O588 In587 2.294 . S
O588 C597 1.240 . S
O589 In587 2.326 . S
O589 C597 1.252 . S
C590 O593 1.252 . S
C590 O594 1.260 . S
C591 O598 1.240 . S
C591 O599 1.252 . S
C592 O595 1.252 . S
C592 O596 1.260 . S
O593 In587 2.266 . S
O593 C590 1.252 . S
O594 In587 2.326 . S
O594 C590 1.260 . S
O595 In587 2.266 . S
O595 C592 1.252 . S
O596 In587 2.326 . S
O596 C592 1.260 . S
C597 O588 1.240 . S
C597 O589 1.252 . S
O598 In587 2.294 . S
O598 C591 1.240 . S
O599 In587 2.326 . S
O599 C591 1.252 . S
H600 C618 0.951 . S
H601 C620 0.951 . S
H602 C622 0.950 . S
H603 C623 0.950 . S
H604 C625 0.950 . S
H605 C628 0.950 . S
H606 C629 0.950 . S
H607 C631 0.950 . S
H608 C632 0.950 . S
H609 C633 0.951 . S
H610 C635 0.951 . S
H611 C637 0.950 . S
H612 C638 0.950 . S
H613 C640 0.950 . S
H614 C643 0.950 . S
H615 C644 0.950 . S
H616 C646 0.950 . S
H617 C647 0.950 . S
C618 H600 0.951 . S
C618 C619 1.366 . S
C618 C620 1.388 . S
C619 C618 1.366 . S
C619 C623 1.385 . S
C620 H601 0.951 . S
C620 C618 1.388 . S
C620 C621 1.366 . S
C621 C620 1.366 . S
C621 C622 1.414 . S
C621 C624 1.499 . S
C622 H602 0.950 . S
C622 C621 1.414 . S
C622 C623 1.374 . S
C623 H603 0.950 . S
C623 C619 1.385 . S
C623 C622 1.374 . S
C624 C621 1.499 . S
C624 C625 1.373 . S
C624 C626 1.389 . S
C625 H604 0.950 . S
C625 C624 1.373 . S
C625 C641 1.377 . S
C626 C624 1.389 . S
C626 C627 1.524 . S
C626 C640 1.377 . S
C627 C626 1.524 . S
C627 C628 1.397 . S
C627 C632 1.363 . S
C628 H605 0.950 . S
C628 C627 1.397 . S
C628 C629 1.334 . S
C629 H606 0.950 . S
C629 C628 1.334 . S
C629 C630 1.287 . S
C630 C629 1.287 . S
C630 C631 1.524 . S
C630 H649 0.913 . S
C631 H607 0.950 . S
C631 C630 1.524 . S
C631 C632 1.415 . S
C632 H608 0.950 . S
C632 C627 1.363 . S
C632 C631 1.415 . S
C633 H609 0.951 . S
C633 C634 1.366 . S
C633 C635 1.388 . S
C634 C633 1.366 . S
C634 C638 1.385 . S
C635 H610 0.951 . S
C635 C633 1.388 . S
C635 C636 1.366 . S
C636 C635 1.366 . S
C636 C637 1.414 . S
C636 C639 1.499 . S
C637 H611 0.950 . S
C637 C636 1.414 . S
C637 C638 1.374 . S
C638 H612 0.950 . S
C638 C634 1.385 . S
C638 C637 1.374 . S
C639 C636 1.499 . S
C639 C640 1.373 . S
C639 C641 1.389 . S
C640 H613 0.950 . S
C640 C626 1.377 . S
C640 C639 1.373 . S
C641 C625 1.377 . S
C641 C639 1.389 . S
C641 C642 1.524 . S
C642 C641 1.524 . S
C642 C643 1.397 . S
C642 C647 1.363 . S
C643 H614 0.950 . S
C643 C642 1.397 . S
C643 C644 1.334 . S
C644 H615 0.950 . S
C644 C643 1.334 . S
C644 C645 1.287 . S
C645 C644 1.287 . S
C645 C646 1.524 . S
C645 H648 0.999 . S
C646 H616 0.950 . S
C646 C645 1.524 . S
C646 C647 1.415 . S
C647 H617 0.950 . S
C647 C642 1.363 . S
C647 C646 1.415 . S
H648 C645 0.999 . S
H649 C630 0.913 . S
H650 C668 0.951 . S
H651 C670 0.951 . S
H652 C672 0.950 . S
H653 C673 0.950 . S
H654 C675 0.950 . S
H655 C678 0.950 . S
H656 C679 0.950 . S
H657 C681 0.950 . S
H658 C682 0.950 . S
H659 C683 0.951 . S
H660 C685 0.951 . S
H661 C687 0.950 . S
H662 C688 0.950 . S
H663 C690 0.950 . S
H664 C693 0.950 . S
H665 C694 0.950 . S
H666 C696 0.950 . S
H667 C697 0.950 . S
C668 H650 0.951 . S
C668 C669 1.366 . S
C668 C670 1.388 . S
C669 C668 1.366 . S
C669 C673 1.385 . S
C670 H651 0.951 . S
C670 C668 1.388 . S
C670 C671 1.366 . S
C671 C670 1.366 . S
C671 C672 1.414 . S
C671 C674 1.499 . S
C672 H652 0.950 . S
C672 C671 1.414 . S
C672 C673 1.374 . S
C673 H653 0.950 . S
C673 C669 1.385 . S
C673 C672 1.374 . S
C674 C671 1.499 . S
C674 C675 1.373 . S
C674 C676 1.389 . S
C675 H654 0.950 . S
C675 C674 1.373 . S
C675 C691 1.377 . S
C676 C674 1.389 . S
C676 C677 1.524 . S
C676 C690 1.377 . S
C677 C676 1.524 . S
C677 C678 1.397 . S
C677 C682 1.363 . S
C678 H655 0.950 . S
C678 C677 1.397 . S
C678 C679 1.334 . S
C679 H656 0.950 . S
C679 C678 1.334 . S
C679 C680 1.287 . S
C680 C679 1.287 . S
C680 C681 1.524 . S
C680 H699 0.913 . S
C681 H657 0.950 . S
C681 C680 1.524 . S
C681 C682 1.415 . S
C682 H658 0.950 . S
C682 C677 1.363 . S
C682 C681 1.415 . S
C683 H659 0.951 . S
C683 C684 1.366 . S
C683 C685 1.388 . S
C684 C683 1.366 . S
C684 C688 1.385 . S
C685 H660 0.951 . S
C685 C683 1.388 . S
C685 C686 1.366 . S
C686 C685 1.366 . S
C686 C687 1.414 . S
C686 C689 1.499 . S
C687 H661 0.950 . S
C687 C686 1.414 . S
C687 C688 1.374 . S
C688 H662 0.950 . S
C688 C684 1.385 . S
C688 C687 1.374 . S
C689 C686 1.499 . S
C689 C690 1.373 . S
C689 C691 1.389 . S
C690 H663 0.950 . S
C690 C676 1.377 . S
C690 C689 1.373 . S
C691 C675 1.377 . S
C691 C689 1.389 . S
C691 C692 1.524 . S
C692 C691 1.524 . S
C692 C693 1.397 . S
C692 C697 1.363 . S
C693 H664 0.950 . S
C693 C692 1.397 . S
C693 C694 1.334 . S
C694 H665 0.950 . S
C694 C693 1.334 . S
C694 C695 1.287 . S
C695 C694 1.287 . S
C695 C696 1.524 . S
C695 H698 0.999 . S
C696 H666 0.950 . S
C696 C695 1.524 . S
C696 C697 1.415 . S
C697 H667 0.950 . S
C697 C692 1.363 . S
C697 C696 1.415 . S
H698 C695 0.999 . S
H699 C680 0.913 . S
H700 C718 0.951 . S
H701 C720 0.951 . S
H702 C722 0.950 . S
H703 C723 0.950 . S
H704 C725 0.950 . S
H705 C728 0.950 . S
H706 C729 0.950 . S
H707 C731 0.950 . S
H708 C732 0.950 . S
H709 C733 0.951 . S
H710 C735 0.951 . S
H711 C737 0.950 . S
H712 C738 0.950 . S
H713 C740 0.950 . S
H714 C743 0.950 . S
H715 C744 0.950 . S
H716 C746 0.950 . S
H717 C747 0.950 . S
C718 H700 0.951 . S
C718 C719 1.366 . S
C718 C720 1.388 . S
C719 C718 1.366 . S
C719 C723 1.385 . S
C720 H701 0.951 . S
C720 C718 1.388 . S
C720 C721 1.366 . S
C721 C720 1.366 . S
C721 C722 1.414 . S
C721 C724 1.499 . S
C722 H702 0.950 . S
C722 C721 1.414 . S
C722 C723 1.374 . S
C723 H703 0.950 . S
C723 C719 1.385 . S
C723 C722 1.374 . S
C724 C721 1.499 . S
C724 C725 1.373 . S
C724 C726 1.389 . S
C725 H704 0.950 . S
C725 C724 1.373 . S
C725 C741 1.377 . S
C726 C724 1.389 . S
C726 C727 1.524 . S
C726 C740 1.377 . S
C727 C726 1.524 . S
C727 C728 1.397 . S
C727 C732 1.363 . S
C728 H705 0.950 . S
C728 C727 1.397 . S
C728 C729 1.334 . S
C729 H706 0.950 . S
C729 C728 1.334 . S
C729 C730 1.287 . S
C730 C729 1.287 . S
C730 C731 1.524 . S
C730 H749 0.913 . S
C731 H707 0.950 . S
C731 C730 1.524 . S
C731 C732 1.415 . S
C732 H708 0.950 . S
C732 C727 1.363 . S
C732 C731 1.415 . S
C733 H709 0.951 . S
C733 C734 1.366 . S
C733 C735 1.388 . S
C734 C733 1.366 . S
C734 C738 1.385 . S
C735 H710 0.951 . S
C735 C733 1.388 . S
C735 C736 1.366 . S
C736 C735 1.366 . S
C736 C737 1.414 . S
C736 C739 1.499 . S
C737 H711 0.950 . S
C737 C736 1.414 . S
C737 C738 1.374 . S
C738 H712 0.950 . S
C738 C734 1.385 . S
C738 C737 1.374 . S
C739 C736 1.499 . S
C739 C740 1.373 . S
C739 C741 1.389 . S
C740 H713 0.950 . S
C740 C726 1.377 . S
C740 C739 1.373 . S
C741 C725 1.377 . S
C741 C739 1.389 . S
C741 C742 1.524 . S
C742 C741 1.524 . S
C742 C743 1.397 . S
C742 C747 1.363 . S
C743 H714 0.950 . S
C743 C742 1.397 . S
C743 C744 1.334 . S
C744 H715 0.950 . S
C744 C743 1.334 . S
C744 C745 1.287 . S
C745 C744 1.287 . S
C745 C746 1.524 . S
C745 H748 0.999 . S
C746 H716 0.950 . S
C746 C745 1.524 . S
C746 C747 1.415 . S
C747 H717 0.950 . S
C747 C742 1.363 . S
C747 C746 1.415 . S
H748 C745 0.999 . S
H749 C730 0.913 . S
H750 C768 0.951 . S
H751 C770 0.951 . S
H752 C772 0.950 . S
H753 C773 0.950 . S
H754 C775 0.950 . S
H755 C778 0.950 . S
H756 C779 0.963 . S
H757 C781 0.950 . S
H758 C782 0.950 . S
H759 C783 0.951 . S
H760 C785 0.951 . S
H761 C787 0.950 . S
H762 C788 0.950 1_556 S
H763 C790 0.950 . S
H764 C793 0.950 . S
H765 C794 0.950 . S
H766 C796 0.950 . S
H767 C797 0.950 . S
C768 H750 0.951 . S
C768 C769 1.366 . S
C768 C770 1.388 . S
C769 C768 1.366 . S
C769 C773 1.385 . S
C770 H751 0.951 . S
C770 C768 1.388 . S
C770 C771 1.366 . S
C771 C770 1.366 . S
C771 C772 1.414 . S
C771 C774 1.499 . S
C772 H752 0.950 . S
C772 C771 1.414 . S
C772 C773 1.374 . S
C773 H753 0.950 . S
C773 C769 1.385 . S
C773 C772 1.374 . S
C774 C771 1.499 . S
C774 C775 1.373 . S
C774 C776 1.389 . S
C775 H754 0.950 . S
C775 C774 1.373 . S
C775 C791 1.377 . S
C776 C774 1.389 . S
C776 C777 1.524 . S
C776 C790 1.377 . S
C777 C776 1.524 . S
C777 C778 1.397 . S
C777 C782 1.363 1_554 S
C778 H755 0.950 . S
C778 C777 1.397 . S
C778 C779 1.368 . S
C779 H756 0.963 . S
C779 C778 1.368 . S
C779 C780 1.242 1_554 S
C780 C779 1.242 1_556 S
C780 C781 1.524 . S
C780 H799 0.913 . S
C781 H757 0.950 . S
C781 C780 1.524 . S
C781 C782 1.415 . S
C782 H758 0.950 . S
C782 C777 1.363 1_556 S
C782 C781 1.415 . S
C783 H759 0.951 . S
C783 C784 1.366 . S
C783 C785 1.388 . S
C784 C783 1.366 . S
C784 C788 1.385 . S
C785 H760 0.951 . S
C785 C783 1.388 . S
C785 C786 1.366 . S
C786 C785 1.366 . S
C786 C787 1.414 . S
C786 C789 1.499 . S
C787 H761 0.950 . S
C787 C786 1.414 . S
C787 C788 1.374 . S
C788 H762 0.950 1_554 S
C788 C784 1.385 . S
C788 C787 1.374 . S
C789 C786 1.499 . S
C789 C790 1.373 . S
C789 C791 1.389 . S
C790 H763 0.950 . S
C790 C776 1.377 . S
C790 C789 1.373 . S
C791 C775 1.377 . S
C791 C789 1.389 . S
C791 C792 1.524 . S
C792 C791 1.524 . S
C792 C793 1.397 . S
C792 C797 1.363 . S
C793 H764 0.950 . S
C793 C792 1.397 . S
C793 C794 1.334 . S
C794 H765 0.950 . S
C794 C793 1.334 . S
C794 C795 1.287 . S
C795 C794 1.287 . S
C795 C796 1.524 . S
C795 H798 0.999 . S
C796 H766 0.950 . S
C796 C795 1.524 . S
C796 C797 1.415 . S
C797 H767 0.950 . S
C797 C792 1.363 . S
C797 C796 1.415 . S
H798 C795 0.999 . S
H799 C780 0.913 . S
H800 C818 0.951 . S
H801 C820 0.951 . S
H802 C822 0.950 . S
H803 C823 0.950 . S
H804 C825 0.950 . S
H805 C828 0.949 . S
H806 C829 0.950 . S
H807 C831 0.950 . S
H808 C832 0.950 . S
H809 C833 0.951 . S
H810 C835 0.951 . S
H811 C837 0.950 . S
H812 C838 0.950 . S
H813 C840 0.950 . S
H814 C843 0.950 . S
H815 C844 0.950 . S
H816 C846 0.950 . S
H817 C847 0.950 . S
C818 H800 0.951 . S
C818 C819 1.366 . S
C818 C820 1.388 . S
C819 C818 1.366 . S
C819 C823 1.385 . S
C820 H801 0.951 . S
C820 C818 1.388 . S
C820 C821 1.366 . S
C821 C820 1.366 . S
C821 C822 1.414 . S
C821 C824 1.499 . S
C822 H802 0.950 . S
C822 C821 1.414 . S
C822 C823 1.374 . S
C823 H803 0.950 . S
C823 C819 1.385 . S
C823 C822 1.374 . S
C824 C821 1.499 . S
C824 C825 1.373 . S
C824 C826 1.389 . S
C825 H804 0.950 . S
C825 C824 1.373 . S
C825 C841 1.377 . S
C826 C824 1.389 . S
C826 C827 1.524 . S
C826 C840 1.377 . S
C827 C826 1.524 . S
C827 C828 1.397 1_556 S
C827 C832 1.363 . S
C828 H805 0.949 . S
C828 C827 1.397 1_554 S
C828 C829 1.334 . S
C829 H806 0.950 . S
C829 C828 1.334 . S
C829 C830 1.287 . S
C830 C829 1.287 . S
C830 C831 1.524 . S
C830 H849 0.913 . S
C831 H807 0.950 . S
C831 C830 1.524 . S
C831 C832 1.415 1_554 S
C832 H808 0.950 . S
C832 C827 1.363 . S
C832 C831 1.415 1_556 S
C833 H809 0.951 . S
C833 C834 1.366 . S
C833 C835 1.388 . S
C834 C833 1.366 . S
C834 C838 1.385 . S
C835 H810 0.951 . S
C835 C833 1.388 . S
C835 C836 1.366 . S
C836 C835 1.366 . S
C836 C837 1.414 . S
C836 C839 1.499 . S
C837 H811 0.950 . S
C837 C836 1.414 . S
C837 C838 1.374 . S
C838 H812 0.950 . S
C838 C834 1.385 . S
C838 C837 1.374 . S
C839 C836 1.499 . S
C839 C840 1.373 . S
C839 C841 1.389 . S
C840 H813 0.950 . S
C840 C826 1.377 . S
C840 C839 1.373 . S
C841 C825 1.377 . S
C841 C839 1.389 . S
C841 C842 1.524 . S
C842 C841 1.524 . S
C842 C843 1.397 . S
C842 C847 1.363 . S
C843 H814 0.950 . S
C843 C842 1.397 . S
C843 C844 1.334 . S
C844 H815 0.950 . S
C844 C843 1.334 . S
C844 C845 1.287 . S
C845 C844 1.287 . S
C845 C846 1.524 . S
C845 H848 0.999 . S
C846 H816 0.950 . S
C846 C845 1.524 . S
C846 C847 1.415 . S
C847 H817 0.950 . S
C847 C842 1.363 . S
C847 C846 1.415 . S
H848 C845 0.999 . S
H849 C830 0.913 . S
H850 C868 0.951 . S
H851 C870 0.951 . S
H852 C872 0.950 . S
H853 C873 0.950 . S
H854 C875 0.950 . S
H855 C878 0.950 . S
H856 C879 0.950 . S
H857 C881 0.950 . S
H858 C882 0.950 . S
H859 C883 0.951 . S
H860 C885 0.951 . S
H861 C887 0.950 . S
H862 C888 0.950 . S
H863 C890 0.950 . S
H864 C893 0.950 . S
H865 C894 0.950 . S
H866 C896 0.950 . S
H867 C897 0.950 . S
C868 H850 0.951 . S
C868 C869 1.366 . S
C868 C870 1.388 . S
C869 C868 1.366 . S
C869 C873 1.385 . S
C870 H851 0.951 . S
C870 C868 1.388 . S
C870 C871 1.366 . S
C871 C870 1.366 . S
C871 C872 1.414 . S
C871 C874 1.499 . S
C872 H852 0.950 . S
C872 C871 1.414 . S
C872 C873 1.374 . S
C873 H853 0.950 . S
C873 C869 1.385 . S
C873 C872 1.374 . S
C874 C871 1.499 . S
C874 C875 1.373 . S
C874 C876 1.389 . S
C875 H854 0.950 . S
C875 C874 1.373 . S
C875 C891 1.377 . S
C876 C874 1.389 . S
C876 C877 1.524 . S
C876 C890 1.377 . S
C877 C876 1.524 . S
C877 C878 1.397 . S
C877 C882 1.363 . S
C878 H855 0.950 . S
C878 C877 1.397 . S
C878 C879 1.334 . S
C879 H856 0.950 . S
C879 C878 1.334 . S
C879 C880 1.287 . S
C880 C879 1.287 . S
C880 C881 1.524 . S
C880 H899 0.913 . S
C881 H857 0.950 . S
C881 C880 1.524 . S
C881 C882 1.415 . S
C882 H858 0.950 . S
C882 C877 1.363 . S
C882 C881 1.415 . S
C883 H859 0.951 . S
C883 C884 1.366 . S
C883 C885 1.388 . S
C884 C883 1.366 . S
C884 C888 1.385 . S
C885 H860 0.951 . S
C885 C883 1.388 . S
C885 C886 1.366 . S
C886 C885 1.366 . S
C886 C887 1.414 . S
C886 C889 1.499 . S
C887 H861 0.950 . S
C887 C886 1.414 . S
C887 C888 1.374 . S
C888 H862 0.950 . S
C888 C884 1.385 . S
C888 C887 1.374 . S
C889 C886 1.499 . S
C889 C890 1.373 . S
C889 C891 1.389 . S
C890 H863 0.950 . S
C890 C876 1.377 . S
C890 C889 1.373 . S
C891 C875 1.377 . S
C891 C889 1.389 . S
C891 C892 1.524 . S
C892 C891 1.524 . S
C892 C893 1.397 . S
C892 C897 1.363 . S
C893 H864 0.950 . S
C893 C892 1.397 . S
C893 C894 1.334 . S
C894 H865 0.950 . S
C894 C893 1.334 . S
C894 C895 1.287 . S
C895 C894 1.287 . S
C895 C896 1.524 . S
C895 H898 0.999 . S
C896 H866 0.950 . S
C896 C895 1.524 . S
C896 C897 1.415 . S
C897 H867 0.950 . S
C897 C892 1.363 . S
C897 C896 1.415 . S
H898 C895 0.999 . S
H899 C880 0.913 . S
H900 C918 0.951 . S
H901 C920 0.951 . S
H902 C922 0.950 . S
H903 C923 0.950 . S
H904 C925 0.950 . S
H905 C928 0.950 . S
H906 C929 0.950 . S
H907 C931 0.950 . S
H908 C932 0.950 . S
H909 C933 0.951 . S
H910 C935 0.951 . S
H911 C937 0.950 . S
H912 C938 0.950 . S
H913 C940 0.950 . S
H914 C943 0.950 . S
H915 C944 0.950 . S
H916 C946 0.950 . S
H917 C947 0.950 . S
C918 H900 0.951 . S
C918 C919 1.366 . S
C918 C920 1.388 . S
C919 C918 1.366 . S
C919 C923 1.385 . S
C920 H901 0.951 . S
C920 C918 1.388 . S
C920 C921 1.366 . S
C921 C920 1.366 . S
C921 C922 1.414 . S
C921 C924 1.499 . S
C922 H902 0.950 . S
C922 C921 1.414 . S
C922 C923 1.374 . S
C923 H903 0.950 . S
C923 C919 1.385 . S
C923 C922 1.374 . S
C924 C921 1.499 . S
C924 C925 1.373 . S
C924 C926 1.389 . S
C925 H904 0.950 . S
C925 C924 1.373 . S
C925 C941 1.377 . S
C926 C924 1.389 . S
C926 C927 1.524 . S
C926 C940 1.377 . S
C927 C926 1.524 . S
C927 C928 1.397 . S
C927 C932 1.363 . S
C928 H905 0.950 . S
C928 C927 1.397 . S
C928 C929 1.334 . S
C929 H906 0.950 . S
C929 C928 1.334 . S
C929 C930 1.287 . S
C930 C929 1.287 . S
C930 C931 1.524 . S
C930 H949 0.913 . S
C931 H907 0.950 . S
C931 C930 1.524 . S
C931 C932 1.415 . S
C932 H908 0.950 . S
C932 C927 1.363 . S
C932 C931 1.415 . S
C933 H909 0.951 . S
C933 C934 1.366 . S
C933 C935 1.388 . S
C934 C933 1.366 . S
C934 C938 1.385 . S
C935 H910 0.951 . S
C935 C933 1.388 . S
C935 C936 1.366 . S
C936 C935 1.366 . S
C936 C937 1.414 . S
C936 C939 1.499 . S
C937 H911 0.950 . S
C937 C936 1.414 . S
C937 C938 1.374 . S
C938 H912 0.950 . S
C938 C934 1.385 . S
C938 C937 1.374 . S
C939 C936 1.499 . S
C939 C940 1.373 . S
C939 C941 1.389 . S
C940 H913 0.950 . S
C940 C926 1.377 . S
C940 C939 1.373 . S
C941 C925 1.377 . S
C941 C939 1.389 . S
C941 C942 1.524 . S
C942 C941 1.524 . S
C942 C943 1.397 . S
C942 C947 1.363 . S
C943 H914 0.950 . S
C943 C942 1.397 . S
C943 C944 1.334 . S
C944 H915 0.950 . S
C944 C943 1.334 . S
C944 C945 1.287 . S
C945 C944 1.287 . S
C945 C946 1.524 . S
C945 H948 0.999 . S
C946 H916 0.950 . S
C946 C945 1.524 . S
C946 C947 1.415 . S
C947 H917 0.950 . S
C947 C942 1.363 . S
C947 C946 1.415 . S
H948 C945 0.999 . S
H949 C930 0.913 . S
H950 C968 0.951 . S
H951 C970 0.951 . S
H952 C972 0.950 . S
H953 C973 0.950 . S
H954 C975 0.950 . S
H955 C978 0.950 . S
H956 C979 0.950 . S
H957 C981 0.950 . S
H958 C982 0.950 . S
H959 C983 0.951 . S
H960 C985 0.951 . S
H961 C987 0.950 . S
H962 C988 0.950 . S
H963 C990 0.950 . S
H964 C993 0.950 . S
H965 C994 0.950 . S
H966 C996 0.950 . S
H967 C997 0.950 . S
C968 H950 0.951 . S
C968 C969 1.366 . S
C968 C970 1.388 . S
C969 C968 1.366 . S
C969 C973 1.385 . S
C970 H951 0.951 . S
C970 C968 1.388 . S
C970 C971 1.366 . S
C971 C970 1.366 . S
C971 C972 1.414 . S
C971 C974 1.499 . S
C972 H952 0.950 . S
C972 C971 1.414 . S
C972 C973 1.374 . S
C973 H953 0.950 . S
C973 C969 1.385 . S
C973 C972 1.374 . S
C974 C971 1.499 . S
C974 C975 1.373 . S
C974 C976 1.389 . S
C975 H954 0.950 . S
C975 C974 1.373 . S
C975 C991 1.377 . S
C976 C974 1.389 . S
C976 C977 1.524 . S
C976 C990 1.377 . S
C977 C976 1.524 . S
C977 C978 1.397 . S
C977 C982 1.363 . S
C978 H955 0.950 . S
C978 C977 1.397 . S
C978 C979 1.334 . S
C979 H956 0.950 . S
C979 C978 1.334 . S
C979 C980 1.287 . S
C980 C979 1.287 . S
C980 C981 1.524 . S
C980 H999 0.913 . S
C981 H957 0.950 . S
C981 C980 1.524 . S
C981 C982 1.415 . S
C982 H958 0.950 . S
C982 C977 1.363 . S
C982 C981 1.415 . S
C983 H959 0.951 . S
C983 C984 1.366 . S
C983 C985 1.388 . S
C984 C983 1.366 . S
C984 C988 1.385 . S
C985 H960 0.951 . S
C985 C983 1.388 . S
C985 C986 1.366 . S
C986 C985 1.366 . S
C986 C987 1.414 . S
C986 C989 1.499 . S
C987 H961 0.950 . S
C987 C986 1.414 . S
C987 C988 1.374 . S
C988 H962 0.950 . S
C988 C984 1.385 . S
C988 C987 1.374 . S
C989 C986 1.499 . S
C989 C990 1.373 . S
C989 C991 1.389 . S
C990 H963 0.950 . S
C990 C976 1.377 . S
C990 C989 1.373 . S
C991 C975 1.377 . S
C991 C989 1.389 . S
C991 C992 1.524 . S
C992 C991 1.524 . S
C992 C993 1.397 . S
C992 C997 1.363 . S
C993 H964 0.950 . S
C993 C992 1.397 . S
C993 C994 1.334 . S
C994 H965 0.950 . S
C994 C993 1.334 . S
C994 C995 1.287 . S
C995 C994 1.287 . S
C995 C996 1.524 . S
C995 H998 0.999 . S
C996 H966 0.950 . S
C996 C995 1.524 . S
C996 C997 1.415 . S
C997 H967 0.950 . S
C997 C992 1.363 . S
C997 C996 1.415 . S
H998 C995 0.999 . S
H999 C980 0.913 . S
H1000 C1018 0.951 . S
H1001 C1020 0.951 . S
H1002 C1022 0.950 . S
H1003 C1023 0.950 . S
H1004 C1025 0.950 . S
H1005 C1028 0.950 . S
H1006 C1029 0.950 . S
H1007 C1031 0.950 . S
H1008 C1032 0.950 . S
H1009 C1033 0.951 . S
H1010 C1035 0.951 . S
H1011 C1037 0.950 . S
H1012 C1038 0.950 . S
H1013 C1040 0.950 . S
H1014 C1043 0.950 . S
H1015 C1044 0.950 . S
H1016 C1046 0.950 . S
H1017 C1047 0.950 . S
C1018 H1000 0.951 . S
C1018 C1019 1.366 . S
C1018 C1020 1.388 . S
C1019 C1018 1.366 . S
C1019 C1023 1.385 . S
C1020 H1001 0.951 . S
C1020 C1018 1.388 . S
C1020 C1021 1.366 . S
C1021 C1020 1.366 . S
C1021 C1022 1.414 . S
C1021 C1024 1.499 . S
C1022 H1002 0.950 . S
C1022 C1021 1.414 . S
C1022 C1023 1.374 . S
C1023 H1003 0.950 . S
C1023 C1019 1.385 . S
C1023 C1022 1.374 . S
C1024 C1021 1.499 . S
C1024 C1025 1.373 . S
C1024 C1026 1.389 . S
C1025 H1004 0.950 . S
C1025 C1024 1.373 . S
C1025 C1041 1.377 . S
C1026 C1024 1.389 . S
C1026 C1027 1.524 . S
C1026 C1040 1.377 . S
C1027 C1026 1.524 . S
C1027 C1028 1.397 . S
C1027 C1032 1.363 . S
C1028 H1005 0.950 . S
C1028 C1027 1.397 . S
C1028 C1029 1.334 . S
C1029 H1006 0.950 . S
C1029 C1028 1.334 . S
C1029 C1030 1.287 . S
C1030 C1029 1.287 . S
C1030 C1031 1.524 . S
C1030 H1049 0.913 . S
C1031 H1007 0.950 . S
C1031 C1030 1.524 . S
C1031 C1032 1.415 . S
C1032 H1008 0.950 . S
C1032 C1027 1.363 . S
C1032 C1031 1.415 . S
C1033 H1009 0.951 . S
C1033 C1034 1.366 . S
C1033 C1035 1.388 . S
C1034 C1033 1.366 . S
C1034 C1038 1.385 . S
C1035 H1010 0.951 . S
C1035 C1033 1.388 . S
C1035 C1036 1.366 . S
C1036 C1035 1.366 . S
C1036 C1037 1.414 . S
C1036 C1039 1.499 . S
C1037 H1011 0.950 . S
C1037 C1036 1.414 . S
C1037 C1038 1.374 . S
C1038 H1012 0.950 . S
C1038 C1034 1.385 . S
C1038 C1037 1.374 . S
C1039 C1036 1.499 . S
C1039 C1040 1.373 . S
C1039 C1041 1.389 . S
C1040 H1013 0.950 . S
C1040 C1026 1.377 . S
C1040 C1039 1.373 . S
C1041 C1025 1.377 . S
C1041 C1039 1.389 . S
C1041 C1042 1.524 . S
C1042 C1041 1.524 . S
C1042 C1043 1.397 . S
C1042 C1047 1.363 . S
C1043 H1014 0.950 . S
C1043 C1042 1.397 . S
C1043 C1044 1.334 . S
C1044 H1015 0.950 . S
C1044 C1043 1.334 . S
C1044 C1045 1.287 . S
C1045 C1044 1.287 . S
C1045 C1046 1.524 . S
C1045 H1048 0.999 . S
C1046 H1016 0.950 . S
C1046 C1045 1.524 . S
C1046 C1047 1.415 . S
C1047 H1017 0.950 . S
C1047 C1042 1.363 . S
C1047 C1046 1.415 . S
H1048 C1045 0.999 . S
H1049 C1030 0.913 . S
H1050 C1068 0.951 . S
H1051 C1070 0.951 . S
H1052 C1072 0.950 . S
H1053 C1073 0.950 . S
H1054 C1075 0.950 . S
H1055 C1078 0.950 . S
H1056 C1079 0.950 . S
H1057 C1081 0.950 . S
H1058 C1082 0.950 . S
H1059 C1083 0.951 . S
H1060 C1085 0.951 . S
H1061 C1087 0.950 . S
H1062 C1088 0.950 . S
H1063 C1090 0.950 . S
H1064 C1093 0.950 . S
H1065 C1094 0.950 . S
H1066 C1096 0.950 . S
H1067 C1097 0.950 . S
C1068 H1050 0.951 . S
C1068 C1069 1.366 . S
C1068 C1070 1.388 . S
C1069 C1068 1.366 . S
C1069 C1073 1.385 . S
C1070 H1051 0.951 . S
C1070 C1068 1.388 . S
C1070 C1071 1.366 . S
C1071 C1070 1.366 . S
C1071 C1072 1.414 . S
C1071 C1074 1.499 . S
C1072 H1052 0.950 . S
C1072 C1071 1.414 . S
C1072 C1073 1.374 . S
C1073 H1053 0.950 . S
C1073 C1069 1.385 . S
C1073 C1072 1.374 . S
C1074 C1071 1.499 . S
C1074 C1075 1.373 . S
C1074 C1076 1.389 . S
C1075 H1054 0.950 . S
C1075 C1074 1.373 . S
C1075 C1091 1.377 . S
C1076 C1074 1.389 . S
C1076 C1077 1.524 . S
C1076 C1090 1.377 . S
C1077 C1076 1.524 . S
C1077 C1078 1.397 . S
C1077 C1082 1.363 . S
C1078 H1055 0.950 . S
C1078 C1077 1.397 . S
C1078 C1079 1.334 1_554 S
C1079 H1056 0.950 . S
C1079 C1078 1.334 1_556 S
C1079 C1080 1.287 . S
C1080 C1079 1.287 . S
C1080 C1081 1.524 . S
C1080 H1099 0.913 . S
C1081 H1057 0.950 . S
C1081 C1080 1.524 . S
C1081 C1082 1.415 1_556 S
C1082 H1058 0.950 . S
C1082 C1077 1.363 . S
C1082 C1081 1.415 1_554 S
C1083 H1059 0.951 . S
C1083 C1084 1.366 . S
C1083 C1085 1.388 . S
C1084 C1083 1.366 . S
C1084 C1088 1.385 . S
C1085 H1060 0.951 . S
C1085 C1083 1.388 . S
C1085 C1086 1.366 . S
C1086 C1085 1.366 . S
C1086 C1087 1.414 . S
C1086 C1089 1.499 . S
C1087 H1061 0.950 . S
C1087 C1086 1.414 . S
C1087 C1088 1.374 . S
C1088 H1062 0.950 . S
C1088 C1084 1.385 . S
C1088 C1087 1.374 . S
C1089 C1086 1.499 . S
C1089 C1090 1.373 . S
C1089 C1091 1.389 . S
C1090 H1063 0.950 . S
C1090 C1076 1.377 . S
C1090 C1089 1.373 . S
C1091 C1075 1.377 . S
C1091 C1089 1.389 . S
C1091 C1092 1.524 . S
C1092 C1091 1.524 . S
C1092 C1093 1.397 . S
C1092 C1097 1.363 . S
C1093 H1064 0.950 . S
C1093 C1092 1.397 . S
C1093 C1094 1.334 . S
C1094 H1065 0.950 . S
C1094 C1093 1.334 . S
C1094 C1095 1.287 . S
C1095 C1094 1.287 . S
C1095 C1096 1.524 . S
C1095 H1098 0.999 . S
C1096 H1066 0.950 . S
C1096 C1095 1.524 . S
C1096 C1097 1.415 . S
C1097 H1067 0.950 . S
C1097 C1092 1.363 . S
C1097 C1096 1.415 . S
H1098 C1095 0.999 . S
H1099 C1080 0.913 . S
H1100 C1118 0.951 . S
H1101 C1120 0.951 . S
H1102 C1122 0.950 . S
H1103 C1123 0.950 . S
H1104 C1125 0.950 . S
H1105 C1128 0.950 . S
H1106 C1129 0.950 . S
H1107 C1131 0.950 . S
H1108 C1132 0.950 . S
H1109 C1133 0.951 . S
H1110 C1135 0.951 . S
H1111 C1137 0.950 . S
H1112 C1138 0.950 . S
H1113 C1140 0.950 . S
H1114 C1143 0.950 . S
H1115 C1144 0.950 . S
H1116 C1146 0.950 . S
H1117 C1147 0.950 . S
C1118 H1100 0.951 . S
C1118 C1119 1.366 . S
C1118 C1120 1.388 . S
C1119 C1118 1.366 . S
C1119 C1123 1.385 . S
C1120 H1101 0.951 . S
C1120 C1118 1.388 . S
C1120 C1121 1.366 . S
C1121 C1120 1.366 . S
C1121 C1122 1.414 . S
C1121 C1124 1.499 . S
C1122 H1102 0.950 . S
C1122 C1121 1.414 . S
C1122 C1123 1.374 . S
C1123 H1103 0.950 . S
C1123 C1119 1.385 . S
C1123 C1122 1.374 . S
C1124 C1121 1.499 . S
C1124 C1125 1.373 . S
C1124 C1126 1.389 . S
C1125 H1104 0.950 . S
C1125 C1124 1.373 . S
C1125 C1141 1.377 . S
C1126 C1124 1.389 . S
C1126 C1127 1.524 . S
C1126 C1140 1.377 . S
C1127 C1126 1.524 . S
C1127 C1128 1.397 . S
C1127 C1132 1.363 . S
C1128 H1105 0.950 . S
C1128 C1127 1.397 . S
C1128 C1129 1.334 . S
C1129 H1106 0.950 . S
C1129 C1128 1.334 . S
C1129 C1130 1.287 . S
C1130 C1129 1.287 . S
C1130 C1131 1.524 . S
C1130 H1149 0.913 . S
C1131 H1107 0.950 . S
C1131 C1130 1.524 . S
C1131 C1132 1.415 . S
C1132 H1108 0.950 . S
C1132 C1127 1.363 . S
C1132 C1131 1.415 . S
C1133 H1109 0.951 . S
C1133 C1134 1.366 . S
C1133 C1135 1.388 . S
C1134 C1133 1.366 . S
C1134 C1138 1.385 . S
C1135 H1110 0.951 . S
C1135 C1133 1.388 . S
C1135 C1136 1.366 . S
C1136 C1135 1.366 . S
C1136 C1137 1.414 . S
C1136 C1139 1.499 . S
C1137 H1111 0.950 . S
C1137 C1136 1.414 . S
C1137 C1138 1.374 . S
C1138 H1112 0.950 . S
C1138 C1134 1.385 . S
C1138 C1137 1.374 . S
C1139 C1136 1.499 . S
C1139 C1140 1.373 . S
C1139 C1141 1.389 . S
C1140 H1113 0.950 . S
C1140 C1126 1.377 . S
C1140 C1139 1.373 . S
C1141 C1125 1.377 . S
C1141 C1139 1.389 . S
C1141 C1142 1.524 . S
C1142 C1141 1.524 . S
C1142 C1143 1.397 . S
C1142 C1147 1.363 . S
C1143 H1114 0.950 . S
C1143 C1142 1.397 . S
C1143 C1144 1.334 . S
C1144 H1115 0.950 . S
C1144 C1143 1.334 . S
C1144 C1145 1.287 . S
C1145 C1144 1.287 . S
C1145 C1146 1.524 . S
C1145 H1148 0.999 . S
C1146 H1116 0.950 . S
C1146 C1145 1.524 . S
C1146 C1147 1.415 . S
C1147 H1117 0.950 . S
C1147 C1142 1.363 . S
C1147 C1146 1.415 . S
H1148 C1145 0.999 . S
H1149 C1130 0.913 . S
H1150 C1168 0.951 . S
H1151 C1170 0.951 . S
H1152 C1172 0.950 . S
H1153 C1173 0.950 . S
H1154 C1175 0.950 . S
H1155 C1178 0.950 . S
H1156 C1179 0.950 . S
H1157 C1181 0.950 . S
H1158 C1182 0.950 . S
H1159 C1183 0.951 . S
H1160 C1185 0.951 . S
H1161 C1187 0.950 . S
H1162 C1188 0.950 . S
H1163 C1190 0.950 . S
H1164 C1193 0.950 . S
H1165 C1194 0.950 . S
H1166 C1196 0.950 . S
H1167 C1197 0.950 . S
C1168 H1150 0.951 . S
C1168 C1169 1.366 . S
C1168 C1170 1.388 . S
C1169 C1168 1.366 . S
C1169 C1173 1.385 . S
C1170 H1151 0.951 . S
C1170 C1168 1.388 . S
C1170 C1171 1.366 . S
C1171 C1170 1.366 . S
C1171 C1172 1.414 . S
C1171 C1174 1.499 . S
C1172 H1152 0.950 . S
C1172 C1171 1.414 . S
C1172 C1173 1.374 . S
C1173 H1153 0.950 . S
C1173 C1169 1.385 . S
C1173 C1172 1.374 . S
C1174 C1171 1.499 . S
C1174 C1175 1.373 . S
C1174 C1176 1.389 . S
C1175 H1154 0.950 . S
C1175 C1174 1.373 . S
C1175 C1191 1.377 . S
C1176 C1174 1.389 . S
C1176 C1177 1.524 . S
C1176 C1190 1.377 . S
C1177 C1176 1.524 . S
C1177 C1178 1.397 . S
C1177 C1182 1.363 . S
C1178 H1155 0.950 . S
C1178 C1177 1.397 . S
C1178 C1179 1.334 . S
C1179 H1156 0.950 . S
C1179 C1178 1.334 . S
C1179 C1180 1.287 . S
C1180 C1179 1.287 . S
C1180 C1181 1.524 . S
C1180 H1199 0.913 . S
C1181 H1157 0.950 . S
C1181 C1180 1.524 . S
C1181 C1182 1.415 . S
C1182 H1158 0.950 . S
C1182 C1177 1.363 . S
C1182 C1181 1.415 . S
C1183 H1159 0.951 . S
C1183 C1184 1.366 . S
C1183 C1185 1.388 . S
C1184 C1183 1.366 . S
C1184 C1188 1.385 . S
C1185 H1160 0.951 . S
C1185 C1183 1.388 . S
C1185 C1186 1.366 . S
C1186 C1185 1.366 . S
C1186 C1187 1.414 . S
C1186 C1189 1.499 . S
C1187 H1161 0.950 . S
C1187 C1186 1.414 . S
C1187 C1188 1.374 . S
C1188 H1162 0.950 . S
C1188 C1184 1.385 . S
C1188 C1187 1.374 . S
C1189 C1186 1.499 . S
C1189 C1190 1.373 . S
C1189 C1191 1.389 . S
C1190 H1163 0.950 . S
C1190 C1176 1.377 . S
C1190 C1189 1.373 . S
C1191 C1175 1.377 . S
C1191 C1189 1.389 . S
C1191 C1192 1.524 . S
C1192 C1191 1.524 . S
C1192 C1193 1.397 . S
C1192 C1197 1.363 . S
C1193 H1164 0.950 . S
C1193 C1192 1.397 . S
C1193 C1194 1.334 . S
C1194 H1165 0.950 . S
C1194 C1193 1.334 . S
C1194 C1195 1.287 . S
C1195 C1194 1.287 . S
C1195 C1196 1.524 . S
C1195 H1198 0.999 . S
C1196 H1166 0.950 . S
C1196 C1195 1.524 . S
C1196 C1197 1.415 . S
C1197 H1167 0.950 . S
C1197 C1192 1.363 . S
C1197 C1196 1.415 . S
H1198 C1195 0.999 . S
H1199 C1180 0.913 . S
H1200 C1218 0.951 . S
H1201 C1220 0.951 . S
H1202 C1222 0.950 . S
H1203 C1223 0.950 . S
H1204 C1225 0.950 . S
H1205 C1228 0.950 . S
H1206 C1229 0.950 . S
H1207 C1231 0.950 . S
H1208 C1232 0.950 . S
H1209 C1233 0.951 . S
H1210 C1235 0.951 . S
H1211 C1237 0.950 . S
H1212 C1238 0.950 . S
H1213 C1240 0.950 . S
H1214 C1243 0.950 . S
H1215 C1244 0.950 . S
H1216 C1246 0.950 . S
H1217 C1247 0.950 . S
C1218 H1200 0.951 . S
C1218 C1219 1.366 . S
C1218 C1220 1.388 . S
C1219 C1218 1.366 . S
C1219 C1223 1.385 . S
C1220 H1201 0.951 . S
C1220 C1218 1.388 . S
C1220 C1221 1.366 . S
C1221 C1220 1.366 . S
C1221 C1222 1.414 . S
C1221 C1224 1.499 . S
C1222 H1202 0.950 . S
C1222 C1221 1.414 . S
C1222 C1223 1.374 . S
C1223 H1203 0.950 . S
C1223 C1219 1.385 . S
C1223 C1222 1.374 . S
C1224 C1221 1.499 . S
C1224 C1225 1.373 . S
C1224 C1226 1.389 . S
C1225 H1204 0.950 . S
C1225 C1224 1.373 . S
C1225 C1241 1.377 . S
C1226 C1224 1.389 . S
C1226 C1227 1.524 . S
C1226 C1240 1.377 . S
C1227 C1226 1.524 . S
C1227 C1228 1.397 . S
C1227 C1232 1.363 . S
C1228 H1205 0.950 . S
C1228 C1227 1.397 . S
C1228 C1229 1.334 . S
C1229 H1206 0.950 . S
C1229 C1228 1.334 . S
C1229 C1230 1.287 . S
C1230 C1229 1.287 . S
C1230 C1231 1.524 . S
C1230 H1249 0.913 . S
C1231 H1207 0.950 . S
C1231 C1230 1.524 . S
C1231 C1232 1.415 . S
C1232 H1208 0.950 . S
C1232 C1227 1.363 . S
C1232 C1231 1.415 . S
C1233 H1209 0.951 . S
C1233 C1234 1.366 . S
C1233 C1235 1.388 . S
C1234 C1233 1.366 . S
C1234 C1238 1.385 . S
C1235 H1210 0.951 . S
C1235 C1233 1.388 . S
C1235 C1236 1.366 . S
C1236 C1235 1.366 . S
C1236 C1237 1.414 . S
C1236 C1239 1.499 . S
C1237 H1211 0.950 . S
C1237 C1236 1.414 . S
C1237 C1238 1.374 . S
C1238 H1212 0.950 . S
C1238 C1234 1.385 . S
C1238 C1237 1.374 . S
C1239 C1236 1.499 . S
C1239 C1240 1.373 . S
C1239 C1241 1.389 . S
C1240 H1213 0.950 . S
C1240 C1226 1.377 . S
C1240 C1239 1.373 . S
C1241 C1225 1.377 . S
C1241 C1239 1.389 . S
C1241 C1242 1.524 . S
C1242 C1241 1.524 . S
C1242 C1243 1.397 . S
C1242 C1247 1.363 . S
C1243 H1214 0.950 . S
C1243 C1242 1.397 . S
C1243 C1244 1.334 . S
C1244 H1215 0.950 . S
C1244 C1243 1.334 . S
C1244 C1245 1.287 . S
C1245 C1244 1.287 . S
C1245 C1246 1.524 . S
C1245 H1248 0.999 . S
C1246 H1216 0.950 . S
C1246 C1245 1.524 . S
C1246 C1247 1.415 . S
C1247 H1217 0.950 . S
C1247 C1242 1.363 . S
C1247 C1246 1.415 . S
H1248 C1245 0.999 . S
H1249 C1230 0.913 . S
H1250 C1268 0.951 . S
H1251 C1270 0.951 . S
H1252 C1272 0.950 . S
H1253 C1273 0.950 . S
H1254 C1275 0.950 . S
H1255 C1278 0.950 . S
H1256 C1279 0.950 . S
H1257 C1281 0.950 . S
H1258 C1282 0.950 . S
H1259 C1283 0.951 . S
H1260 C1285 0.951 . S
H1261 C1287 0.950 . S
H1262 C1288 0.950 . S
H1263 C1290 0.950 . S
H1264 C1293 0.950 . S
H1265 C1294 0.950 . S
H1266 C1296 0.950 . S
H1267 C1297 0.950 . S
C1268 H1250 0.951 . S
C1268 C1269 1.366 . S
C1268 C1270 1.388 . S
C1269 C1268 1.366 . S
C1269 C1273 1.385 . S
C1270 H1251 0.951 . S
C1270 C1268 1.388 . S
C1270 C1271 1.366 . S
C1271 C1270 1.366 . S
C1271 C1272 1.414 . S
C1271 C1274 1.499 . S
C1272 H1252 0.950 . S
C1272 C1271 1.414 . S
C1272 C1273 1.374 . S
C1273 H1253 0.950 . S
C1273 C1269 1.385 . S
C1273 C1272 1.374 . S
C1274 C1271 1.499 . S
C1274 C1275 1.373 . S
C1274 C1276 1.389 . S
C1275 H1254 0.950 . S
C1275 C1274 1.373 . S
C1275 C1291 1.377 . S
C1276 C1274 1.389 . S
C1276 C1277 1.524 . S
C1276 C1290 1.377 . S
C1277 C1276 1.524 . S
C1277 C1278 1.397 . S
C1277 C1282 1.363 . S
C1278 H1255 0.950 . S
C1278 C1277 1.397 . S
C1278 C1279 1.334 . S
C1279 H1256 0.950 . S
C1279 C1278 1.334 . S
C1279 C1280 1.287 . S
C1280 C1279 1.287 . S
C1280 C1281 1.524 . S
C1280 H1299 0.913 . S
C1281 H1257 0.950 . S
C1281 C1280 1.524 . S
C1281 C1282 1.415 . S
C1282 H1258 0.950 . S
C1282 C1277 1.363 . S
C1282 C1281 1.415 . S
C1283 H1259 0.951 . S
C1283 C1284 1.366 . S
C1283 C1285 1.388 . S
C1284 C1283 1.366 . S
C1284 C1288 1.385 . S
C1285 H1260 0.951 . S
C1285 C1283 1.388 . S
C1285 C1286 1.366 . S
C1286 C1285 1.366 . S
C1286 C1287 1.414 . S
C1286 C1289 1.499 . S
C1287 H1261 0.950 . S
C1287 C1286 1.414 . S
C1287 C1288 1.374 . S
C1288 H1262 0.950 . S
C1288 C1284 1.385 . S
C1288 C1287 1.374 . S
C1289 C1286 1.499 . S
C1289 C1290 1.373 . S
C1289 C1291 1.389 . S
C1290 H1263 0.950 . S
C1290 C1276 1.377 . S
C1290 C1289 1.373 . S
C1291 C1275 1.377 . S
C1291 C1289 1.389 . S
C1291 C1292 1.524 . S
C1292 C1291 1.524 . S
C1292 C1293 1.397 . S
C1292 C1297 1.363 . S
C1293 H1264 0.950 . S
C1293 C1292 1.397 . S
C1293 C1294 1.334 . S
C1294 H1265 0.950 . S
C1294 C1293 1.334 . S
C1294 C1295 1.287 . S
C1295 C1294 1.287 . S
C1295 C1296 1.524 . S
C1295 H1298 0.999 . S
C1296 H1266 0.950 . S
C1296 C1295 1.524 . S
C1296 C1297 1.415 . S
C1297 H1267 0.950 . S
C1297 C1292 1.363 . S
C1297 C1296 1.415 . S
H1298 C1295 0.999 . S
H1299 C1280 0.913 . S
H1300 C1318 0.951 . S
H1301 C1320 0.951 . S
H1302 C1322 0.950 . S
H1303 C1323 0.950 . S
H1304 C1325 0.950 . S
H1305 C1328 0.950 . S
H1306 C1329 0.950 . S
H1307 C1331 0.950 . S
H1308 C1332 0.950 . S
H1309 C1333 0.951 . S
H1310 C1335 0.951 . S
H1311 C1337 0.950 . S
H1312 C1338 0.950 . S
H1313 C1340 0.950 . S
H1314 C1343 0.950 . S
H1315 C1344 0.950 . S
H1316 C1346 0.950 . S
H1317 C1347 0.950 . S
C1318 H1300 0.951 . S
C1318 C1319 1.366 . S
C1318 C1320 1.388 . S
C1319 C1318 1.366 . S
C1319 C1323 1.385 . S
C1320 H1301 0.951 . S
C1320 C1318 1.388 . S
C1320 C1321 1.366 . S
C1321 C1320 1.366 . S
C1321 C1322 1.414 . S
C1321 C1324 1.499 . S
C1322 H1302 0.950 . S
C1322 C1321 1.414 . S
C1322 C1323 1.374 . S
C1323 H1303 0.950 . S
C1323 C1319 1.385 . S
C1323 C1322 1.374 . S
C1324 C1321 1.499 . S
C1324 C1325 1.373 . S
C1324 C1326 1.389 . S
C1325 H1304 0.950 . S
C1325 C1324 1.373 . S
C1325 C1341 1.377 . S
C1326 C1324 1.389 . S
C1326 C1327 1.524 . S
C1326 C1340 1.377 . S
C1327 C1326 1.524 . S
C1327 C1328 1.397 . S
C1327 C1332 1.363 . S
C1328 H1305 0.950 . S
C1328 C1327 1.397 . S
C1328 C1329 1.334 . S
C1329 H1306 0.950 . S
C1329 C1328 1.334 . S
C1329 C1330 1.287 . S
C1330 C1329 1.287 . S
C1330 C1331 1.524 . S
C1330 H1349 0.913 . S
C1331 H1307 0.950 . S
C1331 C1330 1.524 . S
C1331 C1332 1.415 . S
C1332 H1308 0.950 . S
C1332 C1327 1.363 . S
C1332 C1331 1.415 . S
C1333 H1309 0.951 . S
C1333 C1334 1.366 . S
C1333 C1335 1.388 . S
C1334 C1333 1.366 . S
C1334 C1338 1.385 . S
C1335 H1310 0.951 . S
C1335 C1333 1.388 . S
C1335 C1336 1.366 . S
C1336 C1335 1.366 . S
C1336 C1337 1.414 . S
C1336 C1339 1.499 . S
C1337 H1311 0.950 . S
C1337 C1336 1.414 . S
C1337 C1338 1.374 . S
C1338 H1312 0.950 . S
C1338 C1334 1.385 . S
C1338 C1337 1.374 . S
C1339 C1336 1.499 . S
C1339 C1340 1.373 . S
C1339 C1341 1.389 . S
C1340 H1313 0.950 . S
C1340 C1326 1.377 . S
C1340 C1339 1.373 . S
C1341 C1325 1.377 . S
C1341 C1339 1.389 . S
C1341 C1342 1.524 . S
C1342 C1341 1.524 . S
C1342 C1343 1.397 1_556 S
C1342 C1347 1.363 . S
C1343 H1314 0.950 . S
C1343 C1342 1.397 1_554 S
C1343 C1344 1.334 . S
C1344 H1315 0.950 . S
C1344 C1343 1.334 . S
C1344 C1345 1.287 . S
C1345 C1344 1.287 . S
C1345 C1346 1.524 . S
C1345 H1348 0.999 . S
C1346 H1316 0.950 . S
C1346 C1345 1.524 . S
C1346 C1347 1.415 1_554 S
C1347 H1317 0.950 . S
C1347 C1342 1.363 . S
C1347 C1346 1.415 1_556 S
H1348 C1345 0.999 . S
H1349 C1330 0.913 . S
H1350 C1368 0.951 . S
H1351 C1370 0.951 . S
H1352 C1372 0.950 . S
H1353 C1373 0.950 . S
H1354 C1375 0.950 . S
H1355 C1378 0.950 . S
H1356 C1379 0.950 . S
H1357 C1381 0.950 . S
H1358 C1382 0.950 . S
H1359 C1383 0.951 . S
H1360 C1385 0.951 . S
H1361 C1387 0.950 . S
H1362 C1388 0.950 . S
H1363 C1390 0.950 . S
H1364 C1393 0.950 . S
H1365 C1394 0.950 . S
H1366 C1396 0.950 . S
H1367 C1397 0.950 . S
C1368 H1350 0.951 . S
C1368 C1369 1.366 . S
C1368 C1370 1.388 . S
C1369 C1368 1.366 . S
C1369 C1373 1.385 . S
C1370 H1351 0.951 . S
C1370 C1368 1.388 . S
C1370 C1371 1.366 . S
C1371 C1370 1.366 . S
C1371 C1372 1.414 . S
C1371 C1374 1.499 . S
C1372 H1352 0.950 . S
C1372 C1371 1.414 . S
C1372 C1373 1.374 . S
C1373 H1353 0.950 . S
C1373 C1369 1.385 . S
C1373 C1372 1.374 . S
C1374 C1371 1.499 . S
C1374 C1375 1.373 . S
C1374 C1376 1.389 . S
C1375 H1354 0.950 . S
C1375 C1374 1.373 . S
C1375 C1391 1.377 . S
C1376 C1374 1.389 . S
C1376 C1377 1.524 . S
C1376 C1390 1.377 . S
C1377 C1376 1.524 . S
C1377 C1378 1.397 . S
C1377 C1382 1.363 . S
C1378 H1355 0.950 . S
C1378 C1377 1.397 . S
C1378 C1379 1.334 . S
C1379 H1356 0.950 . S
C1379 C1378 1.334 . S
C1379 C1380 1.287 . S
C1380 C1379 1.287 . S
C1380 C1381 1.524 . S
C1380 H1399 0.913 . S
C1381 H1357 0.950 . S
C1381 C1380 1.524 . S
C1381 C1382 1.415 . S
C1382 H1358 0.950 . S
C1382 C1377 1.363 . S
C1382 C1381 1.415 . S
C1383 H1359 0.951 . S
C1383 C1384 1.366 . S
C1383 C1385 1.388 . S
C1384 C1383 1.366 . S
C1384 C1388 1.385 . S
C1385 H1360 0.951 . S
C1385 C1383 1.388 . S
C1385 C1386 1.366 . S
C1386 C1385 1.366 . S
C1386 C1387 1.414 . S
C1386 C1389 1.499 . S
C1387 H1361 0.950 . S
C1387 C1386 1.414 . S
C1387 C1388 1.374 . S
C1388 H1362 0.950 . S
C1388 C1384 1.385 . S
C1388 C1387 1.374 . S
C1389 C1386 1.499 . S
C1389 C1390 1.373 . S
C1389 C1391 1.389 . S
C1390 H1363 0.950 . S
C1390 C1376 1.377 . S
C1390 C1389 1.373 . S
C1391 C1375 1.377 . S
C1391 C1389 1.389 . S
C1391 C1392 1.524 . S
C1392 C1391 1.524 . S
C1392 C1393 1.397 . S
C1392 C1397 1.363 . S
C1393 H1364 0.950 . S
C1393 C1392 1.397 . S
C1393 C1394 1.334 . S
C1394 H1365 0.950 . S
C1394 C1393 1.334 . S
C1394 C1395 1.287 . S
C1395 C1394 1.287 . S
C1395 C1396 1.524 . S
C1395 H1398 0.999 . S
C1396 H1366 0.950 . S
C1396 C1395 1.524 . S
C1396 C1397 1.415 . S
C1397 H1367 0.950 . S
C1397 C1392 1.363 . S
C1397 C1396 1.415 . S
H1398 C1395 0.999 . S
H1399 C1380 0.913 . S
H1400 C1418 0.951 . S
H1401 C1420 0.951 . S
H1402 C1422 0.950 . S
H1403 C1423 0.950 . S
H1404 C1425 0.950 . S
H1405 C1428 0.950 . S
H1406 C1429 0.950 . S
H1407 C1431 0.950 . S
H1408 C1432 0.950 . S
H1409 C1433 0.951 . S
H1410 C1435 0.951 . S
H1411 C1437 0.950 . S
H1412 C1438 0.950 . S
H1413 C1440 0.950 . S
H1414 C1443 0.950 . S
H1415 C1444 0.950 . S
H1416 C1446 0.950 . S
H1417 C1447 0.950 . S
C1418 H1400 0.951 . S
C1418 C1419 1.366 . S
C1418 C1420 1.388 . S
C1419 C1418 1.366 . S
C1419 C1423 1.385 . S
C1420 H1401 0.951 . S
C1420 C1418 1.388 . S
C1420 C1421 1.366 . S
C1421 C1420 1.366 . S
C1421 C1422 1.414 . S
C1421 C1424 1.499 . S
C1422 H1402 0.950 . S
C1422 C1421 1.414 . S
C1422 C1423 1.374 . S
C1423 H1403 0.950 . S
C1423 C1419 1.385 . S
C1423 C1422 1.374 . S
C1424 C1421 1.499 . S
C1424 C1425 1.373 . S
C1424 C1426 1.389 . S
C1425 H1404 0.950 . S
C1425 C1424 1.373 . S
C1425 C1441 1.377 . S
C1426 C1424 1.389 . S
C1426 C1427 1.524 . S
C1426 C1440 1.377 . S
C1427 C1426 1.524 . S
C1427 C1428 1.397 . S
C1427 C1432 1.363 . S
C1428 H1405 0.950 . S
C1428 C1427 1.397 . S
C1428 C1429 1.334 . S
C1429 H1406 0.950 . S
C1429 C1428 1.334 . S
C1429 C1430 1.287 . S
C1430 C1429 1.287 . S
C1430 C1431 1.524 . S
C1430 H1449 0.913 . S
C1431 H1407 0.950 . S
C1431 C1430 1.524 . S
C1431 C1432 1.415 . S
C1432 H1408 0.950 . S
C1432 C1427 1.363 . S
C1432 C1431 1.415 . S
C1433 H1409 0.951 . S
C1433 C1434 1.366 . S
C1433 C1435 1.388 . S
C1434 C1433 1.366 . S
C1434 C1438 1.385 . S
C1435 H1410 0.951 . S
C1435 C1433 1.388 . S
C1435 C1436 1.366 . S
C1436 C1435 1.366 . S
C1436 C1437 1.414 . S
C1436 C1439 1.499 . S
C1437 H1411 0.950 . S
C1437 C1436 1.414 . S
C1437 C1438 1.374 . S
C1438 H1412 0.950 . S
C1438 C1434 1.385 . S
C1438 C1437 1.374 . S
C1439 C1436 1.499 . S
C1439 C1440 1.373 . S
C1439 C1441 1.389 . S
C1440 H1413 0.950 . S
C1440 C1426 1.377 . S
C1440 C1439 1.373 . S
C1441 C1425 1.377 . S
C1441 C1439 1.389 . S
C1441 C1442 1.524 . S
C1442 C1441 1.524 . S
C1442 C1443 1.397 . S
C1442 C1447 1.363 . S
C1443 H1414 0.950 . S
C1443 C1442 1.397 . S
C1443 C1444 1.334 . S
C1444 H1415 0.950 . S
C1444 C1443 1.334 . S
C1444 C1445 1.287 . S
C1445 C1444 1.287 . S
C1445 C1446 1.524 . S
C1445 H1448 0.999 . S
C1446 H1416 0.950 . S
C1446 C1445 1.524 . S
C1446 C1447 1.415 . S
C1447 H1417 0.950 . S
C1447 C1442 1.363 . S
C1447 C1446 1.415 . S
H1448 C1445 0.999 . S
H1449 C1430 0.913 . S
H1450 C1468 0.951 . S
H1451 C1470 0.951 . S
H1452 C1472 0.950 . S
H1453 C1473 0.950 . S
H1454 C1475 0.950 . S
H1455 C1478 0.950 . S
H1456 C1479 0.950 . S
H1457 C1481 0.950 . S
H1458 C1482 0.950 . S
H1459 C1483 0.951 . S
H1460 C1485 0.951 . S
H1461 C1487 0.950 . S
H1462 C1488 0.950 . S
H1463 C1490 0.950 . S
H1464 C1493 0.950 . S
H1465 C1494 0.950 . S
H1466 C1496 0.950 . S
H1467 C1497 0.950 . S
C1468 H1450 0.951 . S
C1468 C1469 1.366 . S
C1468 C1470 1.388 . S
C1469 C1468 1.366 . S
C1469 C1473 1.385 . S
C1470 H1451 0.951 . S
C1470 C1468 1.388 . S
C1470 C1471 1.366 . S
C1471 C1470 1.366 . S
C1471 C1472 1.414 . S
C1471 C1474 1.499 . S
C1472 H1452 0.950 . S
C1472 C1471 1.414 . S
C1472 C1473 1.374 . S
C1473 H1453 0.950 . S
C1473 C1469 1.385 . S
C1473 C1472 1.374 . S
C1474 C1471 1.499 . S
C1474 C1475 1.373 . S
C1474 C1476 1.389 . S
C1475 H1454 0.950 . S
C1475 C1474 1.373 . S
C1475 C1491 1.377 . S
C1476 C1474 1.389 . S
C1476 C1477 1.524 . S
C1476 C1490 1.377 . S
C1477 C1476 1.524 . S
C1477 C1478 1.397 . S
C1477 C1482 1.363 . S
C1478 H1455 0.950 . S
C1478 C1477 1.397 . S
C1478 C1479 1.334 . S
C1479 H1456 0.950 . S
C1479 C1478 1.334 . S
C1479 C1480 1.287 . S
C1480 C1479 1.287 . S
C1480 C1481 1.524 . S
C1480 H1499 0.913 . S
C1481 H1457 0.950 . S
C1481 C1480 1.524 . S
C1481 C1482 1.415 . S
C1482 H1458 0.950 . S
C1482 C1477 1.363 . S
C1482 C1481 1.415 . S
C1483 H1459 0.951 . S
C1483 C1484 1.366 . S
C1483 C1485 1.388 . S
C1484 C1483 1.366 . S
C1484 C1488 1.385 . S
C1485 H1460 0.951 . S
C1485 C1483 1.388 . S
C1485 C1486 1.366 . S
C1486 C1485 1.366 . S
C1486 C1487 1.414 . S
C1486 C1489 1.499 . S
C1487 H1461 0.950 . S
C1487 C1486 1.414 . S
C1487 C1488 1.374 . S
C1488 H1462 0.950 . S
C1488 C1484 1.385 . S
C1488 C1487 1.374 . S
C1489 C1486 1.499 . S
C1489 C1490 1.373 . S
C1489 C1491 1.389 . S
C1490 H1463 0.950 . S
C1490 C1476 1.377 . S
C1490 C1489 1.373 . S
C1491 C1475 1.377 . S
C1491 C1489 1.389 . S
C1491 C1492 1.524 . S
C1492 C1491 1.524 . S
C1492 C1493 1.397 . S
C1492 C1497 1.363 . S
C1493 H1464 0.950 . S
C1493 C1492 1.397 . S
C1493 C1494 1.334 . S
C1494 H1465 0.950 . S
C1494 C1493 1.334 . S
C1494 C1495 1.287 . S
C1495 C1494 1.287 . S
C1495 C1496 1.524 . S
C1495 H1498 0.999 . S
C1496 H1466 0.950 . S
C1496 C1495 1.524 . S
C1496 C1497 1.415 . S
C1497 H1467 0.950 . S
C1497 C1492 1.363 . S
C1497 C1496 1.415 . S
H1498 C1495 0.999 . S
H1499 C1480 0.913 . S
H1500 C1518 0.951 . S
H1501 C1520 0.951 . S
H1502 C1522 0.950 . S
H1503 C1523 0.950 . S
H1504 C1525 0.950 . S
H1505 C1528 0.950 . S
H1506 C1529 0.950 . S
H1507 C1531 0.950 . S
H1508 C1532 0.950 . S
H1509 C1533 0.951 . S
H1510 C1535 0.951 . S
H1511 C1537 0.950 . S
H1512 C1538 0.950 . S
H1513 C1540 0.950 . S
H1514 C1543 0.950 . S
H1515 C1544 0.950 . S
H1516 C1546 0.950 . S
H1517 C1547 0.950 . S
C1518 H1500 0.951 . S
C1518 C1519 1.366 . S
C1518 C1520 1.388 . S
C1519 C1518 1.366 . S
C1519 C1523 1.385 . S
C1520 H1501 0.951 . S
C1520 C1518 1.388 . S
C1520 C1521 1.366 . S
C1521 C1520 1.366 . S
C1521 C1522 1.414 . S
C1521 C1524 1.499 . S
C1522 H1502 0.950 . S
C1522 C1521 1.414 . S
C1522 C1523 1.374 . S
C1523 H1503 0.950 . S
C1523 C1519 1.385 . S
C1523 C1522 1.374 . S
C1524 C1521 1.499 . S
C1524 C1525 1.373 . S
C1524 C1526 1.389 . S
C1525 H1504 0.950 . S
C1525 C1524 1.373 . S
C1525 C1541 1.377 . S
C1526 C1524 1.389 . S
C1526 C1527 1.524 . S
C1526 C1540 1.377 . S
C1527 C1526 1.524 . S
C1527 C1528 1.397 . S
C1527 C1532 1.363 . S
C1528 H1505 0.950 . S
C1528 C1527 1.397 . S
C1528 C1529 1.334 . S
C1529 H1506 0.950 . S
C1529 C1528 1.334 . S
C1529 C1530 1.287 . S
C1530 C1529 1.287 . S
C1530 C1531 1.524 . S
C1530 H1549 0.913 . S
C1531 H1507 0.950 . S
C1531 C1530 1.524 . S
C1531 C1532 1.415 . S
C1532 H1508 0.950 . S
C1532 C1527 1.363 . S
C1532 C1531 1.415 . S
C1533 H1509 0.951 . S
C1533 C1534 1.366 . S
C1533 C1535 1.388 . S
C1534 C1533 1.366 . S
C1534 C1538 1.385 . S
C1535 H1510 0.951 . S
C1535 C1533 1.388 . S
C1535 C1536 1.366 . S
C1536 C1535 1.366 . S
C1536 C1537 1.414 . S
C1536 C1539 1.499 . S
C1537 H1511 0.950 . S
C1537 C1536 1.414 . S
C1537 C1538 1.374 . S
C1538 H1512 0.950 . S
C1538 C1534 1.385 . S
C1538 C1537 1.374 . S
C1539 C1536 1.499 . S
C1539 C1540 1.373 . S
C1539 C1541 1.389 . S
C1540 H1513 0.950 . S
C1540 C1526 1.377 . S
C1540 C1539 1.373 . S
C1541 C1525 1.377 . S
C1541 C1539 1.389 . S
C1541 C1542 1.524 . S
C1542 C1541 1.524 . S
C1542 C1543 1.397 . S
C1542 C1547 1.363 . S
C1543 H1514 0.950 . S
C1543 C1542 1.397 . S
C1543 C1544 1.334 . S
C1544 H1515 0.950 . S
C1544 C1543 1.334 . S
C1544 C1545 1.287 . S
C1545 C1544 1.287 . S
C1545 C1546 1.524 . S
C1545 H1548 0.999 . S
C1546 H1516 0.950 . S
C1546 C1545 1.524 . S
C1546 C1547 1.415 . S
C1547 H1517 0.950 . S
C1547 C1542 1.363 . S
C1547 C1546 1.415 . S
H1548 C1545 0.999 . S
H1549 C1530 0.913 . S
H1550 C1568 0.951 . S
H1551 C1570 0.951 . S
H1552 C1572 0.950 . S
H1553 C1573 0.950 . S
H1554 C1575 0.950 . S
H1555 C1578 0.950 . S
H1556 C1579 0.950 . S
H1557 C1581 0.950 . S
H1558 C1582 0.950 . S
H1559 C1583 0.951 . S
H1560 C1585 0.951 . S
H1561 C1587 0.950 . S
H1562 C1588 0.950 . S
H1563 C1590 0.950 . S
H1564 C1593 0.950 . S
H1565 C1594 0.950 . S
H1566 C1596 0.950 . S
H1567 C1597 0.950 . S
C1568 H1550 0.951 . S
C1568 C1569 1.366 . S
C1568 C1570 1.388 . S
C1569 C1568 1.366 . S
C1569 C1573 1.385 . S
C1570 H1551 0.951 . S
C1570 C1568 1.388 . S
C1570 C1571 1.366 . S
C1571 C1570 1.366 . S
C1571 C1572 1.414 . S
C1571 C1574 1.499 . S
C1572 H1552 0.950 . S
C1572 C1571 1.414 . S
C1572 C1573 1.374 . S
C1573 H1553 0.950 . S
C1573 C1569 1.385 . S
C1573 C1572 1.374 . S
C1574 C1571 1.499 . S
C1574 C1575 1.373 . S
C1574 C1576 1.389 . S
C1575 H1554 0.950 . S
C1575 C1574 1.373 . S
C1575 C1591 1.377 . S
C1576 C1574 1.389 . S
C1576 C1577 1.524 . S
C1576 C1590 1.377 . S
C1577 C1576 1.524 . S
C1577 C1578 1.397 . S
C1577 C1582 1.363 . S
C1578 H1555 0.950 . S
C1578 C1577 1.397 . S
C1578 C1579 1.334 . S
C1579 H1556 0.950 . S
C1579 C1578 1.334 . S
C1579 C1580 1.287 . S
C1580 C1579 1.287 . S
C1580 C1581 1.524 . S
C1580 H1599 0.913 . S
C1581 H1557 0.950 . S
C1581 C1580 1.524 . S
C1581 C1582 1.415 . S
C1582 H1558 0.950 . S
C1582 C1577 1.363 . S
C1582 C1581 1.415 . S
C1583 H1559 0.951 . S
C1583 C1584 1.366 . S
C1583 C1585 1.388 . S
C1584 C1583 1.366 . S
C1584 C1588 1.385 . S
C1585 H1560 0.951 . S
C1585 C1583 1.388 . S
C1585 C1586 1.366 . S
C1586 C1585 1.366 . S
C1586 C1587 1.414 . S
C1586 C1589 1.499 . S
C1587 H1561 0.950 . S
C1587 C1586 1.414 . S
C1587 C1588 1.374 . S
C1588 H1562 0.950 . S
C1588 C1584 1.385 . S
C1588 C1587 1.374 . S
C1589 C1586 1.499 . S
C1589 C1590 1.373 . S
C1589 C1591 1.389 . S
C1590 H1563 0.950 . S
C1590 C1576 1.377 . S
C1590 C1589 1.373 . S
C1591 C1575 1.377 . S
C1591 C1589 1.389 . S
C1591 C1592 1.524 . S
C1592 C1591 1.524 . S
C1592 C1593 1.397 . S
C1592 C1597 1.363 . S
C1593 H1564 0.950 . S
C1593 C1592 1.397 . S
C1593 C1594 1.334 . S
C1594 H1565 0.950 . S
C1594 C1593 1.334 . S
C1594 C1595 1.287 . S
C1595 C1594 1.287 . S
C1595 C1596 1.524 . S
C1595 H1598 0.999 . S
C1596 H1566 0.950 . S
C1596 C1595 1.524 . S
C1596 C1597 1.415 . S
C1597 H1567 0.950 . S
C1597 C1592 1.363 . S
C1597 C1596 1.415 . S
H1598 C1595 0.999 . S
H1599 C1580 0.913 . S
H1600 C1618 0.951 . S
H1601 C1620 0.951 . S
H1602 C1622 0.950 . S
H1603 C1623 0.950 . S
H1604 C1625 0.950 . S
H1605 C1628 0.950 . S
H1606 C1629 0.950 . S
H1607 C1631 0.950 . S
H1608 C1632 0.950 . S
H1609 C1633 0.951 . S
H1610 C1635 0.951 . S
H1611 C1637 0.950 . S
H1612 C1638 0.950 . S
H1613 C1640 0.950 . S
H1614 C1643 0.950 . S
H1615 C1644 0.950 . S
H1616 C1646 0.950 . S
H1617 C1647 0.950 . S
C1618 H1600 0.951 . S
C1618 C1619 1.366 . S
C1618 C1620 1.388 . S
C1619 C1618 1.366 . S
C1619 C1623 1.385 . S
C1620 H1601 0.951 . S
C1620 C1618 1.388 . S
C1620 C1621 1.366 . S
C1621 C1620 1.366 . S
C1621 C1622 1.414 . S
C1621 C1624 1.499 . S
C1622 H1602 0.950 . S
C1622 C1621 1.414 . S
C1622 C1623 1.374 . S
C1623 H1603 0.950 . S
C1623 C1619 1.385 . S
C1623 C1622 1.374 . S
C1624 C1621 1.499 . S
C1624 C1625 1.373 . S
C1624 C1626 1.389 . S
C1625 H1604 0.950 . S
C1625 C1624 1.373 . S
C1625 C1641 1.377 . S
C1626 C1624 1.389 . S
C1626 C1627 1.524 . S
C1626 C1640 1.377 . S
C1627 C1626 1.524 . S
C1627 C1628 1.397 . S
C1627 C1632 1.363 . S
C1628 H1605 0.950 . S
C1628 C1627 1.397 . S
C1628 C1629 1.334 . S
C1629 H1606 0.950 . S
C1629 C1628 1.334 . S
C1629 C1630 1.287 . S
C1630 C1629 1.287 . S
C1630 C1631 1.524 . S
C1630 H1649 0.913 . S
C1631 H1607 0.950 . S
C1631 C1630 1.524 . S
C1631 C1632 1.415 . S
C1632 H1608 0.950 . S
C1632 C1627 1.363 . S
C1632 C1631 1.415 . S
C1633 H1609 0.951 . S
C1633 C1634 1.366 . S
C1633 C1635 1.388 . S
C1634 C1633 1.366 . S
C1634 C1638 1.385 . S
C1635 H1610 0.951 . S
C1635 C1633 1.388 . S
C1635 C1636 1.366 . S
C1636 C1635 1.366 . S
C1636 C1637 1.414 . S
C1636 C1639 1.499 . S
C1637 H1611 0.950 . S
C1637 C1636 1.414 . S
C1637 C1638 1.374 . S
C1638 H1612 0.950 . S
C1638 C1634 1.385 . S
C1638 C1637 1.374 . S
C1639 C1636 1.499 . S
C1639 C1640 1.373 . S
C1639 C1641 1.389 . S
C1640 H1613 0.950 . S
C1640 C1626 1.377 . S
C1640 C1639 1.373 . S
C1641 C1625 1.377 . S
C1641 C1639 1.389 . S
C1641 C1642 1.524 . S
C1642 C1641 1.524 . S
C1642 C1643 1.397 . S
C1642 C1647 1.363 . S
C1643 H1614 0.950 . S
C1643 C1642 1.397 . S
C1643 C1644 1.334 . S
C1644 H1615 0.950 . S
C1644 C1643 1.334 . S
C1644 C1645 1.287 . S
C1645 C1644 1.287 . S
C1645 C1646 1.524 . S
C1645 H1648 0.999 . S
C1646 H1616 0.950 . S
C1646 C1645 1.524 . S
C1646 C1647 1.415 . S
C1647 H1617 0.950 . S
C1647 C1642 1.363 . S
C1647 C1646 1.415 . S
H1648 C1645 0.999 . S
H1649 C1630 0.913 . S
H1650 C1668 0.951 . S
H1651 C1670 0.951 . S
H1652 C1672 0.950 . S
H1653 C1673 0.950 . S
H1654 C1675 0.950 . S
H1655 C1678 0.950 . S
H1656 C1679 0.950 . S
H1657 C1681 0.950 . S
H1658 C1682 0.950 . S
H1659 C1683 0.951 . S
H1660 C1685 0.951 . S
H1661 C1687 0.950 . S
H1662 C1688 0.950 . S
H1663 C1690 0.950 . S
H1664 C1693 0.950 . S
H1665 C1694 0.950 . S
H1666 C1696 0.950 . S
H1667 C1697 0.950 . S
C1668 H1650 0.951 . S
C1668 C1669 1.366 . S
C1668 C1670 1.388 . S
C1669 C1668 1.366 . S
C1669 C1673 1.385 . S
C1670 H1651 0.951 . S
C1670 C1668 1.388 . S
C1670 C1671 1.366 . S
C1671 C1670 1.366 . S
C1671 C1672 1.414 . S
C1671 C1674 1.499 . S
C1672 H1652 0.950 . S
C1672 C1671 1.414 . S
C1672 C1673 1.374 . S
C1673 H1653 0.950 . S
C1673 C1669 1.385 . S
C1673 C1672 1.374 . S
C1674 C1671 1.499 . S
C1674 C1675 1.373 . S
C1674 C1676 1.389 . S
C1675 H1654 0.950 . S
C1675 C1674 1.373 . S
C1675 C1691 1.377 . S
C1676 C1674 1.389 . S
C1676 C1677 1.524 . S
C1676 C1690 1.377 . S
C1677 C1676 1.524 . S
C1677 C1678 1.397 . S
C1677 C1682 1.363 . S
C1678 H1655 0.950 . S
C1678 C1677 1.397 . S
C1678 C1679 1.334 . S
C1679 H1656 0.950 . S
C1679 C1678 1.334 . S
C1679 C1680 1.287 . S
C1680 C1679 1.287 . S
C1680 C1681 1.524 . S
C1680 H1699 0.913 . S
C1681 H1657 0.950 . S
C1681 C1680 1.524 . S
C1681 C1682 1.415 . S
C1682 H1658 0.950 . S
C1682 C1677 1.363 . S
C1682 C1681 1.415 . S
C1683 H1659 0.951 . S
C1683 C1684 1.366 . S
C1683 C1685 1.388 . S
C1684 C1683 1.366 . S
C1684 C1688 1.385 . S
C1685 H1660 0.951 . S
C1685 C1683 1.388 . S
C1685 C1686 1.366 . S
C1686 C1685 1.366 . S
C1686 C1687 1.414 . S
C1686 C1689 1.499 . S
C1687 H1661 0.950 . S
C1687 C1686 1.414 . S
C1687 C1688 1.374 . S
C1688 H1662 0.950 . S
C1688 C1684 1.385 . S
C1688 C1687 1.374 . S
C1689 C1686 1.499 . S
C1689 C1690 1.373 . S
C1689 C1691 1.389 . S
C1690 H1663 0.950 . S
C1690 C1676 1.377 . S
C1690 C1689 1.373 . S
C1691 C1675 1.377 . S
C1691 C1689 1.389 . S
C1691 C1692 1.524 . S
C1692 C1691 1.524 . S
C1692 C1693 1.397 . S
C1692 C1697 1.363 . S
C1693 H1664 0.950 . S
C1693 C1692 1.397 . S
C1693 C1694 1.334 . S
C1694 H1665 0.950 . S
C1694 C1693 1.334 . S
C1694 C1695 1.287 . S
C1695 C1694 1.287 . S
C1695 C1696 1.524 . S
C1695 H1698 0.999 . S
C1696 H1666 0.950 . S
C1696 C1695 1.524 . S
C1696 C1697 1.415 . S
C1697 H1667 0.950 . S
C1697 C1692 1.363 . S
C1697 C1696 1.415 . S
H1698 C1695 0.999 . S
H1699 C1680 0.913 . S
H1700 C1718 0.951 . S
H1701 C1720 0.951 . S
H1702 C1722 0.950 . S
H1703 C1723 0.950 . S
H1704 C1725 0.950 . S
H1705 C1728 0.950 . S
H1706 C1729 0.950 . S
H1707 C1731 0.950 . S
H1708 C1732 0.950 . S
H1709 C1733 0.951 . S
H1710 C1735 0.951 . S
H1711 C1737 0.950 . S
H1712 C1738 0.950 . S
H1713 C1740 0.950 . S
H1714 C1743 0.950 . S
H1715 C1744 0.950 . S
H1716 C1746 0.950 . S
H1717 C1747 0.950 . S
C1718 H1700 0.951 . S
C1718 C1719 1.366 . S
C1718 C1720 1.388 . S
C1719 C1718 1.366 . S
C1719 C1723 1.385 . S
C1720 H1701 0.951 . S
C1720 C1718 1.388 . S
C1720 C1721 1.366 . S
C1721 C1720 1.366 . S
C1721 C1722 1.414 . S
C1721 C1724 1.499 . S
C1722 H1702 0.950 . S
C1722 C1721 1.414 . S
C1722 C1723 1.374 . S
C1723 H1703 0.950 . S
C1723 C1719 1.385 . S
C1723 C1722 1.374 . S
C1724 C1721 1.499 . S
C1724 C1725 1.373 . S
C1724 C1726 1.389 . S
C1725 H1704 0.950 . S
C1725 C1724 1.373 . S
C1725 C1741 1.377 . S
C1726 C1724 1.389 . S
C1726 C1727 1.524 . S
C1726 C1740 1.377 . S
C1727 C1726 1.524 . S
C1727 C1728 1.397 . S
C1727 C1732 1.363 . S
C1728 H1705 0.950 . S
C1728 C1727 1.397 . S
C1728 C1729 1.334 . S
C1729 H1706 0.950 . S
C1729 C1728 1.334 . S
C1729 C1730 1.287 . S
C1730 C1729 1.287 . S
C1730 C1731 1.524 . S
C1730 H1749 0.913 . S
C1731 H1707 0.950 . S
C1731 C1730 1.524 . S
C1731 C1732 1.415 . S
C1732 H1708 0.950 . S
C1732 C1727 1.363 . S
C1732 C1731 1.415 . S
C1733 H1709 0.951 . S
C1733 C1734 1.366 . S
C1733 C1735 1.388 . S
C1734 C1733 1.366 . S
C1734 C1738 1.385 . S
C1735 H1710 0.951 . S
C1735 C1733 1.388 . S
C1735 C1736 1.366 . S
C1736 C1735 1.366 . S
C1736 C1737 1.414 . S
C1736 C1739 1.499 . S
C1737 H1711 0.950 . S
C1737 C1736 1.414 . S
C1737 C1738 1.374 . S
C1738 H1712 0.950 . S
C1738 C1734 1.385 . S
C1738 C1737 1.374 . S
C1739 C1736 1.499 . S
C1739 C1740 1.373 . S
C1739 C1741 1.389 . S
C1740 H1713 0.950 . S
C1740 C1726 1.377 . S
C1740 C1739 1.373 . S
C1741 C1725 1.377 . S
C1741 C1739 1.389 . S
C1741 C1742 1.524 . S
C1742 C1741 1.524 . S
C1742 C1743 1.397 . S
C1742 C1747 1.363 . S
C1743 H1714 0.950 . S
C1743 C1742 1.397 . S
C1743 C1744 1.334 . S
C1744 H1715 0.950 . S
C1744 C1743 1.334 . S
C1744 C1745 1.287 . S
C1745 C1744 1.287 . S
C1745 C1746 1.524 . S
C1745 H1748 0.999 . S
C1746 H1716 0.950 . S
C1746 C1745 1.524 . S
C1746 C1747 1.415 . S
C1747 H1717 0.950 . S
C1747 C1742 1.363 . S
C1747 C1746 1.415 . S
H1748 C1745 0.999 . S
H1749 C1730 0.913 . S
H1750 C1768 0.951 . S
H1751 C1770 0.951 . S
H1752 C1772 0.950 . S
H1753 C1773 0.950 . S
H1754 C1775 0.950 . S
H1755 C1778 0.950 . S
H1756 C1779 0.950 . S
H1757 C1781 0.950 . S
H1758 C1782 0.950 . S
H1759 C1783 0.951 . S
H1760 C1785 0.951 . S
H1761 C1787 0.950 . S
H1762 C1788 0.950 . S
H1763 C1790 0.950 . S
H1764 C1793 0.950 . S
H1765 C1794 0.950 . S
H1766 C1796 0.950 . S
H1767 C1797 0.950 . S
C1768 H1750 0.951 . S
C1768 C1769 1.366 . S
C1768 C1770 1.388 . S
C1769 C1768 1.366 . S
C1769 C1773 1.385 . S
C1770 H1751 0.951 . S
C1770 C1768 1.388 . S
C1770 C1771 1.366 . S
C1771 C1770 1.366 . S
C1771 C1772 1.414 . S
C1771 C1774 1.499 . S
C1772 H1752 0.950 . S
C1772 C1771 1.414 . S
C1772 C1773 1.374 . S
C1773 H1753 0.950 . S
C1773 C1769 1.385 . S
C1773 C1772 1.374 . S
C1774 C1771 1.499 . S
C1774 C1775 1.373 . S
C1774 C1776 1.389 . S
C1775 H1754 0.950 . S
C1775 C1774 1.373 . S
C1775 C1791 1.377 . S
C1776 C1774 1.389 . S
C1776 C1777 1.524 . S
C1776 C1790 1.377 . S
C1777 C1776 1.524 . S
C1777 C1778 1.397 . S
C1777 C1782 1.363 . S
C1778 H1755 0.950 . S
C1778 C1777 1.397 . S
C1778 C1779 1.334 . S
C1779 H1756 0.950 . S
C1779 C1778 1.334 . S
C1779 C1780 1.287 . S
C1780 C1779 1.287 . S
C1780 C1781 1.524 . S
C1780 H1799 0.913 . S
C1781 H1757 0.950 . S
C1781 C1780 1.524 . S
C1781 C1782 1.415 . S
C1782 H1758 0.950 . S
C1782 C1777 1.363 . S
C1782 C1781 1.415 . S
C1783 H1759 0.951 . S
C1783 C1784 1.366 . S
C1783 C1785 1.388 . S
C1784 C1783 1.366 . S
C1784 C1788 1.385 . S
C1785 H1760 0.951 . S
C1785 C1783 1.388 . S
C1785 C1786 1.366 . S
C1786 C1785 1.366 . S
C1786 C1787 1.414 . S
C1786 C1789 1.499 . S
C1787 H1761 0.950 . S
C1787 C1786 1.414 . S
C1787 C1788 1.374 . S
C1788 H1762 0.950 . S
C1788 C1784 1.385 . S
C1788 C1787 1.374 . S
C1789 C1786 1.499 . S
C1789 C1790 1.373 . S
C1789 C1791 1.389 . S
C1790 H1763 0.950 . S
C1790 C1776 1.377 . S
C1790 C1789 1.373 . S
C1791 C1775 1.377 . S
C1791 C1789 1.389 . S
C1791 C1792 1.524 . S
C1792 C1791 1.524 . S
C1792 C1793 1.397 . S
C1792 C1797 1.363 . S
C1793 H1764 0.950 . S
C1793 C1792 1.397 . S
C1793 C1794 1.334 . S
C1794 H1765 0.950 . S
C1794 C1793 1.334 . S
C1794 C1795 1.287 . S
C1795 C1794 1.287 . S
C1795 C1796 1.524 . S
C1795 H1798 0.999 . S
C1796 H1766 0.950 . S
C1796 C1795 1.524 . S
C1796 C1797 1.415 . S
C1797 H1767 0.950 . S
C1797 C1792 1.363 . S
C1797 C1796 1.415 . S
H1798 C1795 0.999 . S
H1799 C1780 0.913 . S
H1800 C1818 0.951 . S
H1801 C1820 0.951 . S
H1802 C1822 0.950 . S
H1803 C1823 0.950 . S
H1804 C1825 0.950 . S
H1805 C1828 0.950 . S
H1806 C1829 0.950 . S
H1807 C1831 0.950 . S
H1808 C1832 0.950 . S
H1809 C1833 0.951 . S
H1810 C1835 0.951 . S
H1811 C1837 0.950 . S
H1812 C1838 0.950 . S
H1813 C1840 0.950 . S
H1814 C1843 0.950 . S
H1815 C1844 0.950 . S
H1816 C1846 0.950 . S
H1817 C1847 0.950 . S
C1818 H1800 0.951 . S
C1818 C1819 1.366 . S
C1818 C1820 1.388 . S
C1819 C1818 1.366 . S
C1819 C1823 1.385 . S
C1820 H1801 0.951 . S
C1820 C1818 1.388 . S
C1820 C1821 1.366 . S
C1821 C1820 1.366 . S
C1821 C1822 1.414 . S
C1821 C1824 1.499 . S
C1822 H1802 0.950 . S
C1822 C1821 1.414 . S
C1822 C1823 1.374 . S
C1823 H1803 0.950 . S
C1823 C1819 1.385 . S
C1823 C1822 1.374 . S
C1824 C1821 1.499 . S
C1824 C1825 1.373 . S
C1824 C1826 1.389 . S
C1825 H1804 0.950 . S
C1825 C1824 1.373 . S
C1825 C1841 1.377 . S
C1826 C1824 1.389 . S
C1826 C1827 1.524 . S
C1826 C1840 1.377 . S
C1827 C1826 1.524 . S
C1827 C1828 1.397 . S
C1827 C1832 1.363 . S
C1828 H1805 0.950 . S
C1828 C1827 1.397 . S
C1828 C1829 1.334 . S
C1829 H1806 0.950 . S
C1829 C1828 1.334 . S
C1829 C1830 1.287 . S
C1830 C1829 1.287 . S
C1830 C1831 1.524 . S
C1830 H1849 0.913 . S
C1831 H1807 0.950 . S
C1831 C1830 1.524 . S
C1831 C1832 1.415 . S
C1832 H1808 0.950 . S
C1832 C1827 1.363 . S
C1832 C1831 1.415 . S
C1833 H1809 0.951 . S
C1833 C1834 1.366 . S
C1833 C1835 1.388 . S
C1834 C1833 1.366 . S
C1834 C1838 1.385 . S
C1835 H1810 0.951 . S
C1835 C1833 1.388 . S
C1835 C1836 1.366 . S
C1836 C1835 1.366 . S
C1836 C1837 1.414 . S
C1836 C1839 1.499 . S
C1837 H1811 0.950 . S
C1837 C1836 1.414 . S
C1837 C1838 1.374 . S
C1838 H1812 0.950 . S
C1838 C1834 1.385 . S
C1838 C1837 1.374 . S
C1839 C1836 1.499 . S
C1839 C1840 1.373 . S
C1839 C1841 1.389 . S
C1840 H1813 0.950 . S
C1840 C1826 1.377 . S
C1840 C1839 1.373 . S
C1841 C1825 1.377 . S
C1841 C1839 1.389 . S
C1841 C1842 1.524 . S
C1842 C1841 1.524 . S
C1842 C1843 1.397 . S
C1842 C1847 1.363 . S
C1843 H1814 0.950 . S
C1843 C1842 1.397 . S
C1843 C1844 1.334 . S
C1844 H1815 0.950 . S
C1844 C1843 1.334 . S
C1844 C1845 1.287 . S
C1845 C1844 1.287 . S
C1845 C1846 1.524 . S
C1845 H1848 0.999 . S
C1846 H1816 0.950 . S
C1846 C1845 1.524 . S
C1846 C1847 1.415 . S
C1847 H1817 0.950 . S
C1847 C1842 1.363 . S
C1847 C1846 1.415 . S
H1848 C1845 0.999 . S
H1849 C1830 0.913 . S
H1850 C1868 0.951 . S
H1851 C1870 0.951 . S
H1852 C1872 0.950 . S
H1853 C1873 0.950 . S
H1854 C1875 0.950 . S
H1855 C1878 0.950 . S
H1856 C1879 0.950 . S
H1857 C1881 0.950 . S
H1858 C1882 0.950 . S
H1859 C1883 0.951 . S
H1860 C1885 0.951 . S
H1861 C1887 0.950 . S
H1862 C1888 0.950 . S
H1863 C1890 0.950 . S
H1864 C1893 0.950 . S
H1865 C1894 0.950 . S
H1866 C1896 0.950 . S
H1867 C1897 0.950 . S
C1868 H1850 0.951 . S
C1868 C1869 1.366 . S
C1868 C1870 1.388 . S
C1869 C1868 1.366 . S
C1869 C1873 1.385 . S
C1870 H1851 0.951 . S
C1870 C1868 1.388 . S
C1870 C1871 1.366 . S
C1871 C1870 1.366 . S
C1871 C1872 1.414 . S
C1871 C1874 1.499 . S
C1872 H1852 0.950 . S
C1872 C1871 1.414 . S
C1872 C1873 1.374 . S
C1873 H1853 0.950 . S
C1873 C1869 1.385 . S
C1873 C1872 1.374 . S
C1874 C1871 1.499 . S
C1874 C1875 1.373 . S
C1874 C1876 1.389 . S
C1875 H1854 0.950 . S
C1875 C1874 1.373 . S
C1875 C1891 1.377 . S
C1876 C1874 1.389 . S
C1876 C1877 1.524 . S
C1876 C1890 1.377 . S
C1877 C1876 1.524 . S
C1877 C1878 1.397 . S
C1877 C1882 1.363 . S
C1878 H1855 0.950 . S
C1878 C1877 1.397 . S
C1878 C1879 1.334 . S
C1879 H1856 0.950 . S
C1879 C1878 1.334 . S
C1879 C1880 1.287 . S
C1880 C1879 1.287 . S
C1880 C1881 1.524 . S
C1880 H1899 0.913 . S
C1881 H1857 0.950 . S
C1881 C1880 1.524 . S
C1881 C1882 1.415 . S
C1882 H1858 0.950 . S
C1882 C1877 1.363 . S
C1882 C1881 1.415 . S
C1883 H1859 0.951 . S
C1883 C1884 1.366 . S
C1883 C1885 1.388 . S
C1884 C1883 1.366 . S
C1884 C1888 1.385 . S
C1885 H1860 0.951 . S
C1885 C1883 1.388 . S
C1885 C1886 1.366 . S
C1886 C1885 1.366 . S
C1886 C1887 1.414 . S
C1886 C1889 1.499 . S
C1887 H1861 0.950 . S
C1887 C1886 1.414 . S
C1887 C1888 1.374 . S
C1888 H1862 0.950 . S
C1888 C1884 1.385 . S
C1888 C1887 1.374 . S
C1889 C1886 1.499 . S
C1889 C1890 1.373 . S
C1889 C1891 1.389 . S
C1890 H1863 0.950 . S
C1890 C1876 1.377 . S
C1890 C1889 1.373 . S
C1891 C1875 1.377 . S
C1891 C1889 1.389 . S
C1891 C1892 1.524 . S
C1892 C1891 1.524 . S
C1892 C1893 1.397 . S
C1892 C1897 1.363 . S
C1893 H1864 0.950 . S
C1893 C1892 1.397 . S
C1893 C1894 1.334 . S
C1894 H1865 0.950 . S
C1894 C1893 1.334 . S
C1894 C1895 1.287 . S
C1895 C1894 1.287 . S
C1895 C1896 1.524 . S
C1895 H1898 0.999 . S
C1896 H1866 0.950 . S
C1896 C1895 1.524 . S
C1896 C1897 1.415 . S
C1897 H1867 0.950 . S
C1897 C1892 1.363 . S
C1897 C1896 1.415 . S
H1898 C1895 0.999 . S
H1899 C1880 0.913 . S
H1900 C1918 0.951 . S
H1901 C1920 0.951 . S
H1902 C1922 0.950 . S
H1903 C1923 0.950 . S
H1904 C1925 0.950 . S
H1905 C1928 0.950 . S
H1906 C1929 0.950 . S
H1907 C1931 0.950 . S
H1908 C1932 0.950 . S
H1909 C1933 0.951 . S
H1910 C1935 0.951 . S
H1911 C1937 0.950 . S
H1912 C1938 0.950 . S
H1913 C1940 0.950 . S
H1914 C1943 0.950 . S
H1915 C1944 0.950 . S
H1916 C1946 0.950 . S
H1917 C1947 0.950 . S
C1918 H1900 0.951 . S
C1918 C1919 1.366 . S
C1918 C1920 1.388 . S
C1919 C1918 1.366 . S
C1919 C1923 1.385 . S
C1920 H1901 0.951 . S
C1920 C1918 1.388 . S
C1920 C1921 1.366 . S
C1921 C1920 1.366 . S
C1921 C1922 1.414 . S
C1921 C1924 1.499 . S
C1922 H1902 0.950 . S
C1922 C1921 1.414 . S
C1922 C1923 1.374 . S
C1923 H1903 0.950 . S
C1923 C1919 1.385 . S
C1923 C1922 1.374 . S
C1924 C1921 1.499 . S
C1924 C1925 1.373 . S
C1924 C1926 1.389 . S
C1925 H1904 0.950 . S
C1925 C1924 1.373 . S
C1925 C1941 1.377 . S
C1926 C1924 1.389 . S
C1926 C1927 1.524 . S
C1926 C1940 1.377 . S
C1927 C1926 1.524 . S
C1927 C1928 1.397 . S
C1927 C1932 1.363 . S
C1928 H1905 0.950 . S
C1928 C1927 1.397 . S
C1928 C1929 1.334 . S
C1929 H1906 0.950 . S
C1929 C1928 1.334 . S
C1929 C1930 1.287 . S
C1930 C1929 1.287 . S
C1930 C1931 1.524 . S
C1930 H1949 0.913 . S
C1931 H1907 0.950 . S
C1931 C1930 1.524 . S
C1931 C1932 1.415 . S
C1932 H1908 0.950 . S
C1932 C1927 1.363 . S
C1932 C1931 1.415 . S
C1933 H1909 0.951 . S
C1933 C1934 1.366 . S
C1933 C1935 1.388 . S
C1934 C1933 1.366 . S
C1934 C1938 1.385 . S
C1935 H1910 0.951 . S
C1935 C1933 1.388 . S
C1935 C1936 1.366 . S
C1936 C1935 1.366 . S
C1936 C1937 1.414 . S
C1936 C1939 1.499 . S
C1937 H1911 0.950 . S
C1937 C1936 1.414 . S
C1937 C1938 1.374 . S
C1938 H1912 0.950 . S
C1938 C1934 1.385 . S
C1938 C1937 1.374 . S
C1939 C1936 1.499 . S
C1939 C1940 1.373 . S
C1939 C1941 1.389 . S
C1940 H1913 0.950 . S
C1940 C1926 1.377 . S
C1940 C1939 1.373 . S
C1941 C1925 1.377 . S
C1941 C1939 1.389 . S
C1941 C1942 1.524 . S
C1942 C1941 1.524 . S
C1942 C1943 1.397 . S
C1942 C1947 1.363 . S
C1943 H1914 0.950 . S
C1943 C1942 1.397 . S
C1943 C1944 1.334 . S
C1944 H1915 0.950 . S
C1944 C1943 1.334 . S
C1944 C1945 1.287 . S
C1945 C1944 1.287 . S
C1945 C1946 1.524 . S
C1945 H1948 0.999 . S
C1946 H1916 0.950 . S
C1946 C1945 1.524 . S
C1946 C1947 1.415 . S
C1947 H1917 0.950 . S
C1947 C1942 1.363 . S
C1947 C1946 1.415 . S
H1948 C1945 0.999 . S
H1949 C1930 0.913 . S
H1950 C1968 0.951 . S
H1951 C1970 0.951 . S
H1952 C1972 0.950 . S
H1953 C1973 0.950 . S
H1954 C1975 0.950 . S
H1955 C1978 0.950 . S
H1956 C1979 0.950 . S
H1957 C1981 0.950 . S
H1958 C1982 0.950 . S
H1959 C1983 0.951 . S
H1960 C1985 0.951 . S
H1961 C1987 0.950 . S
H1962 C1988 0.950 . S
H1963 C1990 0.950 . S
H1964 C1993 0.950 . S
H1965 C1994 0.950 . S
H1966 C1996 0.950 . S
H1967 C1997 0.950 . S
C1968 H1950 0.951 . S
C1968 C1969 1.366 . S
C1968 C1970 1.388 . S
C1969 C1968 1.366 . S
C1969 C1973 1.385 . S
C1970 H1951 0.951 . S
C1970 C1968 1.388 . S
C1970 C1971 1.366 . S
C1971 C1970 1.366 . S
C1971 C1972 1.414 . S
C1971 C1974 1.499 . S
C1972 H1952 0.950 . S
C1972 C1971 1.414 . S
C1972 C1973 1.374 . S
C1973 H1953 0.950 . S
C1973 C1969 1.385 . S
C1973 C1972 1.374 . S
C1974 C1971 1.499 . S
C1974 C1975 1.373 . S
C1974 C1976 1.389 . S
C1975 H1954 0.950 . S
C1975 C1974 1.373 . S
C1975 C1991 1.377 . S
C1976 C1974 1.389 . S
C1976 C1977 1.524 . S
C1976 C1990 1.377 . S
C1977 C1976 1.524 . S
C1977 C1978 1.397 . S
C1977 C1982 1.363 . S
C1978 H1955 0.950 . S
C1978 C1977 1.397 . S
C1978 C1979 1.334 . S
C1979 H1956 0.950 . S
C1979 C1978 1.334 . S
C1979 C1980 1.287 . S
C1980 C1979 1.287 . S
C1980 C1981 1.524 . S
C1980 H1999 0.913 . S
C1981 H1957 0.950 . S
C1981 C1980 1.524 . S
C1981 C1982 1.415 . S
C1982 H1958 0.950 . S
C1982 C1977 1.363 . S
C1982 C1981 1.415 . S
C1983 H1959 0.951 . S
C1983 C1984 1.366 . S
C1983 C1985 1.388 . S
C1984 C1983 1.366 . S
C1984 C1988 1.385 . S
C1985 H1960 0.951 . S
C1985 C1983 1.388 . S
C1985 C1986 1.366 . S
C1986 C1985 1.366 . S
C1986 C1987 1.414 . S
C1986 C1989 1.499 . S
C1987 H1961 0.950 . S
C1987 C1986 1.414 . S
C1987 C1988 1.374 . S
C1988 H1962 0.950 . S
C1988 C1984 1.385 . S
C1988 C1987 1.374 . S
C1989 C1986 1.499 . S
C1989 C1990 1.373 . S
C1989 C1991 1.389 . S
C1990 H1963 0.950 . S
C1990 C1976 1.377 . S
C1990 C1989 1.373 . S
C1991 C1975 1.377 . S
C1991 C1989 1.389 . S
C1991 C1992 1.524 . S
C1992 C1991 1.524 . S
C1992 C1993 1.397 . S
C1992 C1997 1.363 . S
C1993 H1964 0.950 . S
C1993 C1992 1.397 . S
C1993 C1994 1.334 . S
C1994 H1965 0.950 . S
C1994 C1993 1.334 . S
C1994 C1995 1.287 . S
C1995 C1994 1.287 . S
C1995 C1996 1.524 . S
C1995 H1998 0.999 . S
C1996 H1966 0.950 . S
C1996 C1995 1.524 . S
C1996 C1997 1.415 . S
C1997 H1967 0.950 . S
C1997 C1992 1.363 . S
C1997 C1996 1.415 . S
H1998 C1995 0.999 . S
H1999 C1980 0.913 . S
H2000 C2018 0.951 . S
H2001 C2020 0.951 . S
H2002 C2022 0.950 . S
H2003 C2023 0.950 . S
H2004 C2025 0.950 . S
H2005 C2028 0.950 . S
H2006 C2029 0.950 . S
H2007 C2031 0.950 . S
H2008 C2032 0.950 . S
H2009 C2033 0.951 . S
H2010 C2035 0.951 . S
H2011 C2037 0.950 . S
H2012 C2038 0.950 . S
H2013 C2040 0.950 . S
H2014 C2043 0.950 . S
H2015 C2044 0.950 . S
H2016 C2046 0.950 . S
H2017 C2047 0.950 . S
C2018 H2000 0.951 . S
C2018 C2019 1.366 . S
C2018 C2020 1.388 . S
C2019 C2018 1.366 . S
C2019 C2023 1.385 . S
C2020 H2001 0.951 . S
C2020 C2018 1.388 . S
C2020 C2021 1.366 . S
C2021 C2020 1.366 . S
C2021 C2022 1.414 . S
C2021 C2024 1.499 . S
C2022 H2002 0.950 . S
C2022 C2021 1.414 . S
C2022 C2023 1.374 . S
C2023 H2003 0.950 . S
C2023 C2019 1.385 . S
C2023 C2022 1.374 . S
C2024 C2021 1.499 . S
C2024 C2025 1.373 . S
C2024 C2026 1.389 . S
C2025 H2004 0.950 . S
C2025 C2024 1.373 . S
C2025 C2041 1.377 . S
C2026 C2024 1.389 . S
C2026 C2027 1.524 . S
C2026 C2040 1.377 . S
C2027 C2026 1.524 . S
C2027 C2028 1.397 . S
C2027 C2032 1.363 . S
C2028 H2005 0.950 . S
C2028 C2027 1.397 . S
C2028 C2029 1.334 . S
C2029 H2006 0.950 . S
C2029 C2028 1.334 . S
C2029 C2030 1.287 . S
C2030 C2029 1.287 . S
C2030 C2031 1.524 . S
C2030 H2049 0.913 . S
C2031 H2007 0.950 . S
C2031 C2030 1.524 . S
C2031 C2032 1.415 . S
C2032 H2008 0.950 . S
C2032 C2027 1.363 . S
C2032 C2031 1.415 . S
C2033 H2009 0.951 . S
C2033 C2034 1.366 . S
C2033 C2035 1.388 . S
C2034 C2033 1.366 . S
C2034 C2038 1.385 . S
C2035 H2010 0.951 . S
C2035 C2033 1.388 . S
C2035 C2036 1.366 . S
C2036 C2035 1.366 . S
C2036 C2037 1.414 . S
C2036 C2039 1.499 . S
C2037 H2011 0.950 . S
C2037 C2036 1.414 . S
C2037 C2038 1.374 . S
C2038 H2012 0.950 . S
C2038 C2034 1.385 . S
C2038 C2037 1.374 . S
C2039 C2036 1.499 . S
C2039 C2040 1.373 . S
C2039 C2041 1.389 . S
C2040 H2013 0.950 . S
C2040 C2026 1.377 . S
C2040 C2039 1.373 . S
C2041 C2025 1.377 . S
C2041 C2039 1.389 . S
C2041 C2042 1.524 . S
C2042 C2041 1.524 . S
C2042 C2043 1.397 . S
C2042 C2047 1.363 . S
C2043 H2014 0.950 . S
C2043 C2042 1.397 . S
C2043 C2044 1.334 . S
C2044 H2015 0.950 . S
C2044 C2043 1.334 . S
C2044 C2045 1.287 . S
C2045 C2044 1.287 . S
C2045 C2046 1.524 . S
C2045 H2048 0.999 . S
C2046 H2016 0.950 . S
C2046 C2045 1.524 . S
C2046 C2047 1.415 . S
C2047 H2017 0.950 . S
C2047 C2042 1.363 . S
C2047 C2046 1.415 . S
H2048 C2045 0.999 . S
H2049 C2030 0.913 . S
H2050 C2068 0.951 . S
H2051 C2070 0.951 . S
H2052 C2072 0.950 . S
H2053 C2073 0.950 . S
H2054 C2075 0.950 . S
H2055 C2078 0.950 . S
H2056 C2079 0.950 . S
H2057 C2081 0.950 . S
H2058 C2082 0.950 . S
H2059 C2083 0.951 . S
H2060 C2085 0.951 . S
H2061 C2087 0.950 . S
H2062 C2088 0.950 . S
H2063 C2090 0.950 . S
H2064 C2093 0.950 . S
H2065 C2094 0.950 . S
H2066 C2096 0.950 . S
H2067 C2097 0.950 . S
C2068 H2050 0.951 . S
C2068 C2069 1.366 . S
C2068 C2070 1.388 . S
C2069 C2068 1.366 . S
C2069 C2073 1.385 . S
C2070 H2051 0.951 . S
C2070 C2068 1.388 . S
C2070 C2071 1.366 . S
C2071 C2070 1.366 . S
C2071 C2072 1.414 . S
C2071 C2074 1.499 . S
C2072 H2052 0.950 . S
C2072 C2071 1.414 . S
C2072 C2073 1.374 . S
C2073 H2053 0.950 . S
C2073 C2069 1.385 . S
C2073 C2072 1.374 . S
C2074 C2071 1.499 . S
C2074 C2075 1.373 . S
C2074 C2076 1.389 . S
C2075 H2054 0.950 . S
C2075 C2074 1.373 . S
C2075 C2091 1.377 . S
C2076 C2074 1.389 . S
C2076 C2077 1.524 . S
C2076 C2090 1.377 . S
C2077 C2076 1.524 . S
C2077 C2078 1.397 . S
C2077 C2082 1.363 . S
C2078 H2055 0.950 . S
C2078 C2077 1.397 . S
C2078 C2079 1.334 . S
C2079 H2056 0.950 . S
C2079 C2078 1.334 . S
C2079 C2080 1.287 . S
C2080 C2079 1.287 . S
C2080 C2081 1.524 . S
C2080 H2099 0.913 . S
C2081 H2057 0.950 . S
C2081 C2080 1.524 . S
C2081 C2082 1.415 . S
C2082 H2058 0.950 . S
C2082 C2077 1.363 . S
C2082 C2081 1.415 . S
C2083 H2059 0.951 . S
C2083 C2084 1.366 . S
C2083 C2085 1.388 . S
C2084 C2083 1.366 . S
C2084 C2088 1.385 . S
C2085 H2060 0.951 . S
C2085 C2083 1.388 . S
C2085 C2086 1.366 . S
C2086 C2085 1.366 . S
C2086 C2087 1.414 . S
C2086 C2089 1.499 . S
C2087 H2061 0.950 . S
C2087 C2086 1.414 . S
C2087 C2088 1.374 . S
C2088 H2062 0.950 . S
C2088 C2084 1.385 . S
C2088 C2087 1.374 . S
C2089 C2086 1.499 . S
C2089 C2090 1.373 . S
C2089 C2091 1.389 . S
C2090 H2063 0.950 . S
C2090 C2076 1.377 . S
C2090 C2089 1.373 . S
C2091 C2075 1.377 . S
C2091 C2089 1.389 . S
C2091 C2092 1.524 . S
C2092 C2091 1.524 . S
C2092 C2093 1.397 . S
C2092 C2097 1.363 . S
C2093 H2064 0.950 . S
C2093 C2092 1.397 . S
C2093 C2094 1.334 . S
C2094 H2065 0.950 . S
C2094 C2093 1.334 . S
C2094 C2095 1.287 . S
C2095 C2094 1.287 . S
C2095 C2096 1.524 . S
C2095 H2098 0.999 . S
C2096 H2066 0.950 . S
C2096 C2095 1.524 . S
C2096 C2097 1.415 . S
C2097 H2067 0.950 . S
C2097 C2092 1.363 . S
C2097 C2096 1.415 . S
H2098 C2095 0.999 . S
H2099 C2080 0.913 . S
H2100 C2118 0.951 . S
H2101 C2120 0.951 . S
H2102 C2122 0.950 . S
H2103 C2123 0.950 . S
H2104 C2125 0.950 . S
H2105 C2128 0.950 . S
H2106 C2129 0.950 . S
H2107 C2131 0.950 . S
H2108 C2132 0.950 . S
H2109 C2133 0.951 . S
H2110 C2135 0.951 . S
H2111 C2137 0.950 . S
H2112 C2138 0.950 . S
H2113 C2140 0.950 . S
H2114 C2143 0.950 . S
H2115 C2144 0.950 . S
H2116 C2146 0.950 . S
H2117 C2147 0.950 . S
C2118 H2100 0.951 . S
C2118 C2119 1.366 . S
C2118 C2120 1.388 . S
C2119 C2118 1.366 . S
C2119 C2123 1.385 . S
C2120 H2101 0.951 . S
C2120 C2118 1.388 . S
C2120 C2121 1.366 . S
C2121 C2120 1.366 . S
C2121 C2122 1.414 . S
C2121 C2124 1.499 . S
C2122 H2102 0.950 . S
C2122 C2121 1.414 . S
C2122 C2123 1.374 . S
C2123 H2103 0.950 . S
C2123 C2119 1.385 . S
C2123 C2122 1.374 . S
C2124 C2121 1.499 . S
C2124 C2125 1.373 . S
C2124 C2126 1.389 . S
C2125 H2104 0.950 . S
C2125 C2124 1.373 . S
C2125 C2141 1.377 . S
C2126 C2124 1.389 . S
C2126 C2127 1.524 . S
C2126 C2140 1.377 . S
C2127 C2126 1.524 . S
C2127 C2128 1.397 . S
C2127 C2132 1.363 . S
C2128 H2105 0.950 . S
C2128 C2127 1.397 . S
C2128 C2129 1.334 . S
C2129 H2106 0.950 . S
C2129 C2128 1.334 . S
C2129 C2130 1.287 . S
C2130 C2129 1.287 . S
C2130 C2131 1.524 . S
C2130 H2149 0.913 . S
C2131 H2107 0.950 . S
C2131 C2130 1.524 . S
C2131 C2132 1.415 . S
C2132 H2108 0.950 . S
C2132 C2127 1.363 . S
C2132 C2131 1.415 . S
C2133 H2109 0.951 . S
C2133 C2134 1.366 . S
C2133 C2135 1.388 . S
C2134 C2133 1.366 . S
C2134 C2138 1.385 . S
C2135 H2110 0.951 . S
C2135 C2133 1.388 . S
C2135 C2136 1.366 . S
C2136 C2135 1.366 . S
C2136 C2137 1.414 . S
C2136 C2139 1.499 . S
C2137 H2111 0.950 . S
C2137 C2136 1.414 . S
C2137 C2138 1.374 . S
C2138 H2112 0.950 . S
C2138 C2134 1.385 . S
C2138 C2137 1.374 . S
C2139 C2136 1.499 . S
C2139 C2140 1.373 . S
C2139 C2141 1.389 . S
C2140 H2113 0.950 . S
C2140 C2126 1.377 . S
C2140 C2139 1.373 . S
C2141 C2125 1.377 . S
C2141 C2139 1.389 . S
C2141 C2142 1.524 . S
C2142 C2141 1.524 . S
C2142 C2143 1.397 . S
C2142 C2147 1.363 . S
C2143 H2114 0.950 . S
C2143 C2142 1.397 . S
C2143 C2144 1.334 . S
C2144 H2115 0.950 . S
C2144 C2143 1.334 . S
C2144 C2145 1.287 . S
C2145 C2144 1.287 . S
C2145 C2146 1.524 . S
C2145 H2148 0.999 . S
C2146 H2116 0.950 . S
C2146 C2145 1.524 . S
C2146 C2147 1.415 . S
C2147 H2117 0.950 . S
C2147 C2142 1.363 . S
C2147 C2146 1.415 . S
H2148 C2145 0.999 . S
H2149 C2130 0.913 . S
H2150 C2168 0.951 . S
H2151 C2170 0.951 . S
H2152 C2172 0.950 . S
H2153 C2173 0.950 . S
H2154 C2175 0.950 . S
H2155 C2178 0.950 . S
H2156 C2179 0.950 . S
H2157 C2181 0.950 . S
H2158 C2182 0.950 . S
H2159 C2183 0.951 . S
H2160 C2185 0.951 . S
H2161 C2187 0.950 . S
H2162 C2188 0.950 . S
H2163 C2190 0.950 . S
H2164 C2193 0.950 . S
H2165 C2194 0.950 . S
H2166 C2196 0.950 . S
H2167 C2197 0.950 . S
C2168 H2150 0.951 . S
C2168 C2169 1.366 . S
C2168 C2170 1.388 . S
C2169 C2168 1.366 . S
C2169 C2173 1.385 . S
C2170 H2151 0.951 . S
C2170 C2168 1.388 . S
C2170 C2171 1.366 . S
C2171 C2170 1.366 . S
C2171 C2172 1.414 . S
C2171 C2174 1.499 . S
C2172 H2152 0.950 . S
C2172 C2171 1.414 . S
C2172 C2173 1.374 . S
C2173 H2153 0.950 . S
C2173 C2169 1.385 . S
C2173 C2172 1.374 . S
C2174 C2171 1.499 . S
C2174 C2175 1.373 . S
C2174 C2176 1.389 . S
C2175 H2154 0.950 . S
C2175 C2174 1.373 . S
C2175 C2191 1.377 . S
C2176 C2174 1.389 . S
C2176 C2177 1.524 . S
C2176 C2190 1.377 . S
C2177 C2176 1.524 . S
C2177 C2178 1.397 . S
C2177 C2182 1.363 . S
C2178 H2155 0.950 . S
C2178 C2177 1.397 . S
C2178 C2179 1.334 . S
C2179 H2156 0.950 . S
C2179 C2178 1.334 . S
C2179 C2180 1.287 . S
C2180 C2179 1.287 . S
C2180 C2181 1.524 . S
C2180 H2199 0.913 . S
C2181 H2157 0.950 . S
C2181 C2180 1.524 . S
C2181 C2182 1.415 . S
C2182 H2158 0.950 . S
C2182 C2177 1.363 . S
C2182 C2181 1.415 . S
C2183 H2159 0.951 . S
C2183 C2184 1.366 . S
C2183 C2185 1.388 . S
C2184 C2183 1.366 . S
C2184 C2188 1.385 . S
C2185 H2160 0.951 . S
C2185 C2183 1.388 . S
C2185 C2186 1.366 . S
C2186 C2185 1.366 . S
C2186 C2187 1.414 . S
C2186 C2189 1.499 . S
C2187 H2161 0.950 . S
C2187 C2186 1.414 . S
C2187 C2188 1.374 . S
C2188 H2162 0.950 . S
C2188 C2184 1.385 . S
C2188 C2187 1.374 . S
C2189 C2186 1.499 . S
C2189 C2190 1.373 . S
C2189 C2191 1.389 . S
C2190 H2163 0.950 . S
C2190 C2176 1.377 . S
C2190 C2189 1.373 . S
C2191 C2175 1.377 . S
C2191 C2189 1.389 . S
C2191 C2192 1.524 . S
C2192 C2191 1.524 . S
C2192 C2193 1.397 . S
C2192 C2197 1.363 . S
C2193 H2164 0.950 . S
C2193 C2192 1.397 . S
C2193 C2194 1.334 . S
C2194 H2165 0.950 . S
C2194 C2193 1.334 . S
C2194 C2195 1.287 . S
C2195 C2194 1.287 . S
C2195 C2196 1.524 . S
C2195 H2198 0.999 . S
C2196 H2166 0.950 . S
C2196 C2195 1.524 . S
C2196 C2197 1.415 . S
C2197 H2167 0.950 . S
C2197 C2192 1.363 . S
C2197 C2196 1.415 . S
H2198 C2195 0.999 . S
H2199 C2180 0.913 . S
C634 C512 1.367 . S
C619 C35 1.283 . S
C684 C526 1.360 . S
C669 C115 1.283 . S
C734 C539 1.366 . S
C719 C177 1.291 . S
C769 C221 1.283 . S
C784 C506 1.371 . S
C819 C283 1.291 . S
C834 C499 1.379 . S
C869 C363 1.294 . S
C884 C519 1.372 . S
C934 C527 1.367 . S
C919 C407 1.282 . S
C984 C540 1.373 . S
C969 C469 1.287 . S
C1019 C159 1.282 . S
C1034 C566 1.367 . S
C1084 C584 1.360 . S
C1069 C239 1.283 . S
C1119 C53 1.289 . S
C1134 C591 1.366 . S
C1184 C558 1.371 . S
C1169 C97 1.285 . S
C1219 C425 1.302 . S
C1234 C551 1.379 . S
C1269 C487 1.294 . S
C1284 C565 1.372 . S
C1334 C577 1.368 . S
C1319 C301 1.293 . S
C1369 C345 1.286 . S
C1384 C592 1.373 . S
C1434 C525 1.974 . S
C1419 C29 1.965 . S
C1484 C538 1.978 . S
C1469 C109 1.941 . S
C1519 C171 1.932 . S
C1534 C501 1.970 . S
C1569 C215 1.955 . S
C1584 C513 1.959 . S
C1619 C277 1.947 . S
C1634 C545 1.952 . S
C1684 C500 1.955 . S
C1669 C357 1.923 . S
C1734 C514 1.970 . S
C1719 C401 1.960 . S
C1784 C532 1.959 . S
C1769 C463 1.956 . S
C1834 C579 1.974 . S
C1819 C153 1.964 . S
C1884 C590 1.978 . S
C1869 C233 1.940 . S
C1919 C47 1.932 . S
C1934 C553 1.970 . S
C1984 C571 1.959 . S
C1969 C91 1.955 . S
C2034 C597 1.951 . S
C2019 C419 1.920 . S
C2069 C481 1.924 . S
C2084 C552 1.955 . S
C2134 C564 1.970 . S
C2119 C295 1.932 . S
C2184 C578 1.959 . S
C2169 C339 1.955 . S
