# Generated by pormake.
# Topology tsx, (6,3)-cn, num edge types: 1
# Building blocks:
#     Node 0, Type 0, BuildingBlock: LEVNOQ01_clean_sbu_1, # of connection points: 6
#     Node 1, Type 0, BuildingBlock: LEVNOQ01_clean_sbu_1, # of connection points: 6
#     Node 2, Type 1, BuildingBlock: BETDAH_clean_linker_0, # of connection points: 3
#     Node 3, Type 1, BuildingBlock: BETDAH_clean_linker_0, # of connection points: 3
#     Node 4, Type 1, BuildingBlock: BETDAH_clean_linker_0, # of connection points: 3
#     Node 5, Type 1, BuildingBlock: BETDAH_clean_linker_0, # of connection points: 3
#     Edge 6, Type (0, 1), BuildingBlock: ZUJKAS_clean_linker_0, # of connection points: 2
#     Edge 7, Type (0, 1), BuildingBlock: ZUJKAS_clean_linker_0, # of connection points: 2
#     Edge 8, Type (0, 1), BuildingBlock: ZUJKAS_clean_linker_0, # of connection points: 2
#     Edge 9, Type (0, 1), BuildingBlock: ZUJKAS_clean_linker_0, # of connection points: 2
#     Edge 10, Type (0, 1), BuildingBlock: ZUJKAS_clean_linker_0, # of connection points: 2
#     Edge 11, Type (0, 1), BuildingBlock: ZUJKAS_clean_linker_0, # of connection points: 2
#     Edge 12, Type (0, 1), BuildingBlock: ZUJKAS_clean_linker_0, # of connection points: 2
#     Edge 13, Type (0, 1), BuildingBlock: ZUJKAS_clean_linker_0, # of connection points: 2
#     Edge 14, Type (0, 1), BuildingBlock: ZUJKAS_clean_linker_0, # of connection points: 2
#     Edge 15, Type (0, 1), BuildingBlock: ZUJKAS_clean_linker_0, # of connection points: 2
#     Edge 16, Type (0, 1), BuildingBlock: ZUJKAS_clean_linker_0, # of connection points: 2
#     Edge 17, Type (0, 1), BuildingBlock: ZUJKAS_clean_linker_0, # of connection points: 2
# Relax obj value: 0.094
# Max RMSD: 0.148
# Mean RMSD: 0.110
data_MOF--net-tsx--node1-LEVNOQ01_clean_sbu_1--node2-BETDAH_clean_linker_0--edge1-ZUJKAS_clean_linker_0
_symmetry_space_group_name_H-M    P1
_symmetry_Int_Tables_number       1
_symmetry_cell_setting            triclinic
loop_
_symmetry_equiv_pos_as_xyz
'x, y, z'
_cell_length_a     24.803143
_cell_length_b     29.902692
_cell_length_c     43.901374
_cell_angle_alpha  97.587977
_cell_angle_beta   99.62748
_cell_angle_gamma 90.878464
loop_
_atom_site_label
_atom_site_type_symbol
_atom_site_fract_x
_atom_site_fract_y
_atom_site_fract_z
_atom_type_partial_charge
O0 O 0.13379 0.01686 0.08138 0.0
Mg1 Mg 0.15953 0.02001 0.03867 0.0
O2 O 0.04877 0.00472 0.05693 0.0
Mg3 Mg 0.0528 0.00451 0.00357 0.0
O4 O 0.1205 0.06459 0.01111 0.0
O5 O 0.20557 0.07562 0.03901 0.0
O6 O 0.06006 0.00611 0.95072 0.0
O7 O 0.99181 0.06441 0.0045 0.0
Mg8 Mg 0.95155 0.9767 0.95938 0.0
O9 O 0.98428 0.94615 0.99705 0.0
O10 O 0.98989 0.96884 0.92026 0.0
O11 O 0.91695 0.03872 0.97165 0.0
O12 O 0.90752 0.92148 0.9636 0.0
C13 C 0.16098 0.93325 0.00443 0.0
C14 C 0.08366 0.00999 0.08219 0.0
C15 C 0.16557 0.08948 0.02026 0.0
C16 C 0.03575 -0.01066 0.92357 0.0
C17 C 0.94299 0.07 0.99104 0.0
C18 C 0.9425 0.91754 0.9883 0.0
O19 O 0.19514 0.96401 0.01812 0.0
O20 O 0.11004 0.94132 -2e-05 0.0
O21 O 0.62669 0.51182 0.58288 0.0
Mg22 Mg 0.65273 0.52378 0.54151 0.0
O23 O 0.54077 0.50532 0.55924 0.0
Mg24 Mg 0.54424 0.51043 0.50653 0.0
O25 O 0.61095 0.57079 0.51746 0.0
O26 O 0.69514 0.58273 0.54638 0.0
O27 O 0.5483 0.516 0.45396 0.0
O28 O 0.48352 0.57017 0.50996 0.0
Mg29 Mg 0.43236 0.48578 0.46317 0.0
O30 O 0.47618 0.45326 0.4967 0.0
O31 O 0.47103 0.48807 0.42435 0.0
O32 O 0.40189 0.54597 0.48339 0.0
O33 O 0.39671 0.42584 0.46783 0.0
C34 C 0.65319 0.44073 0.50284 0.0
C35 C 0.57646 0.506 0.58393 0.0
C36 C 0.65455 0.59683 0.52817 0.0
C37 C 0.51915 0.50462 0.42707 0.0
C38 C 0.43276 0.57638 0.50098 0.0
C39 C 0.43696 0.42233 0.49007 0.0
O40 O 0.68762 0.4716 0.51612 0.0
O41 O 0.60206 0.44785 0.50052 0.0
H42 H 0.10462 0.93245 0.3928 0.0
H43 H 0.96313 0.0093 0.40554 0.0
H44 H 0.03906 0.93607 0.47798 0.0
C45 C 0.07499 0.94433 0.40724 0.0
C46 C 0.07793 0.93101 0.43705 0.0
C47 C 0.03323 0.97192 0.39548 0.0
C48 C 0.99515 0.98777 0.41435 0.0
C49 C -0.00218 0.97523 0.44429 0.0
C50 C 0.03865 0.94659 0.45525 0.0
N51 N 0.95912 -0.01039 0.46362 0.0
C52 C 0.92591 0.02618 0.45965 0.0
H53 H 0.95537 0.98508 0.61654 0.0
H54 H 0.07492 0.08301 0.60304 0.0
H55 H 0.96737 0.01168 0.52409 0.0
C56 C 0.97415 0.00341 0.60107 0.0
C57 C 0.95605 -0.00576 0.56873 0.0
C58 C 0.01688 0.03543 0.61367 0.0
C59 C 0.04194 0.05838 0.59346 0.0
C60 C 0.02363 0.05004 0.56104 0.0
C61 C 0.98053 0.01843 0.54902 0.0
N62 N 0.04771 0.07231 0.5397 0.0
C63 C 0.09467 0.10027 0.54763 0.0
H64 H 0.61443 0.42667 0.89458 0.0
H65 H 0.47492 0.50453 0.91033 0.0
H66 H 0.56136 0.43784 0.98367 0.0
C67 C 0.58671 0.43978 0.90993 0.0
C68 C 0.5938 0.42921 0.94059 0.0
C69 C 0.54369 0.46661 0.89872 0.0
C70 C 0.50794 0.48363 0.91876 0.0
C71 C 0.5147 0.47352 0.94953 0.0
C72 C 0.55725 0.44619 0.96013 0.0
N73 N 0.47896 0.48955 0.9703 0.0
C74 C 0.44326 0.52434 0.96562 0.0
H75 H 0.43393 0.49981 0.12155 0.0
H76 H 0.5544 0.59396 0.10435 0.0
H77 H 0.44471 0.51956 0.02758 0.0
C78 C 0.45261 0.51659 0.10528 0.0
C79 C 0.43393 0.50544 0.07309 0.0
C80 C 0.49598 0.54842 0.11674 0.0
C81 C 0.52089 0.56953 0.0956 0.0
C82 C 0.50185 0.5595 0.06331 0.0
C83 C 0.45831 0.52784 0.0524 0.0
N84 N 0.52571 0.57999 0.04106 0.0
C85 C 0.57265 0.60809 0.04797 0.0
H86 H 0.25915 0.126 0.00945 0.0
H87 H 0.27955 0.20487 0.00651 0.0
H88 H 0.11 0.23469 0.00694 0.0
H89 H 0.08937 0.15468 0.01033 0.0
H90 H 0.24453 0.26938 0.96864 0.0
H91 H 0.18952 0.31019 0.08702 0.0
H92 H 0.19511 0.25271 0.06966 0.0
H93 H 0.13727 0.28443 0.05596 0.0
C94 C 0.22583 0.14908 0.00821 0.0
C95 C 0.17281 0.13439 0.01057 0.0
C96 C 0.23755 0.19424 0.00642 0.0
C97 C 0.19663 0.22598 0.00714 0.0
C98 C 0.14245 0.21089 0.0069 0.0
H99 H 0.34743 0.50229 0.02417 0.0
H100 H 0.27914 0.44035 0.00466 0.0
C101 C 0.13055 0.16519 0.00852 0.0
C102 C 0.2136 0.2747 0.01188 0.0
H103 H 0.24123 0.36438 0.06974 0.0
C104 C 0.24258 0.29077 0.99036 0.0
C105 C 0.21142 0.30239 0.0404 0.0
C106 C 0.18197 0.28675 0.06476 0.0
C107 C 0.27266 0.33219 0.99752 0.0
C108 C 0.27308 0.35852 0.02681 0.0
C109 C 0.24085 0.34405 0.04733 0.0
C110 C 0.31264 0.39731 0.03854 0.0
C111 C 0.30706 0.34579 0.97472 0.0
C112 C 0.35362 0.394 0.06428 0.0
C113 C 0.3925 0.42911 0.07542 0.0
C114 C 0.39128 0.46868 0.06123 0.0
C115 C 0.3499 0.47214 0.03549 0.0
C116 C 0.3108 0.4368 0.02431 0.0
H117 H 0.30784 0.31867 0.95491 0.0
H118 H 0.29017 0.37618 0.96517 0.0
H119 H 0.34975 0.3545 0.98665 0.0
H120 H 0.35611 0.36374 0.07549 0.0
H121 H 0.42429 0.42477 0.09484 0.0
H122 H 0.1027 0.85173 0.98817 0.0
H123 H 0.14051 0.77648 0.97839 0.0
H124 H 0.30224 0.83784 0.98938 0.0
H125 H 0.26547 0.91227 -0.00061 0.0
H126 H 0.2088 0.73845 0.93338 0.0
H127 H 0.31485 0.7508 0.05591 0.0
H128 H 0.26022 0.78713 0.04364 0.0
H129 H 0.32864 0.79884 0.03746 0.0
C130 C 0.1462 0.84909 0.98817 0.0
C131 C 0.18117 0.88793 0.99502 0.0
C132 C 0.16771 0.80616 0.98262 0.0
C133 C 0.22432 0.80164 0.98384 0.0
C134 C 0.25862 0.84052 0.98902 0.0
H135 H 0.47466 0.61164 0.971 0.0
H136 H 0.41569 0.67678 0.97367 0.0
C137 C 0.23741 0.88309 0.99469 0.0
C138 C 0.24888 0.75669 0.98092 0.0
H139 H 0.34519 0.69434 0.01943 0.0
C140 C 0.23796 0.72833 0.95228 0.0
C141 C 0.28673 0.74355 0.00571 0.0
C142 C 0.29798 0.77144 0.03752 0.0
C143 C 0.26623 0.68825 0.94732 0.0
C144 C 0.30593 0.67633 0.97171 0.0
C145 C 0.31513 0.70382 0.00067 0.0
C146 C 0.34031 0.6366 0.96752 0.0
C147 C 0.25526 0.65992 0.91571 0.0
C148 C 0.31742 0.59248 0.96313 0.0
C149 C 0.35112 0.55535 0.9616 0.0
C150 C 0.4079 0.56205 0.96438 0.0
C151 C 0.43076 0.60596 0.96841 0.0
C152 C 0.3972 0.64301 0.97002 0.0
H153 H 0.23004 0.67754 0.89792 0.0
H154 H 0.29434 0.65086 0.9077 0.0
H155 H 0.23306 0.62808 0.91739 0.0
H156 H 0.2738 0.58682 0.96177 0.0
H157 H 0.33301 0.52156 0.95898 0.0
H158 H 0.94145 0.92257 0.05104 0.0
H159 H 0.89708 0.86655 0.07621 0.0
H160 H 0.87178 0.77555 0.98981 0.0
H161 H 0.91534 0.831 0.96493 0.0
H162 H 0.78823 0.83972 0.05437 0.0
H163 H 0.9136 0.68898 0.05285 0.0
H164 H 0.94101 0.74418 0.0496 0.0
H165 H 0.90383 0.70933 0.01576 0.0
C166 C 0.92849 0.88979 0.03797 0.0
C167 C 0.93202 0.88083 0.00616 0.0
C168 C 0.9028 0.85798 0.05224 0.0
C169 C 0.8815 0.81659 0.03499 0.0
C170 C 0.88884 0.80666 0.00385 0.0
H171 H 0.6353 0.61405 0.00452 0.0
H172 H 0.71498 0.66522 0.00809 0.0
C173 C 0.91365 0.83846 0.98959 0.0
C174 C 0.84421 0.78661 0.04719 0.0
H175 H 0.8156 0.67517 0.04965 0.0
C176 C 0.79477 0.80392 0.05427 0.0
C177 C 0.85267 0.73989 0.04693 0.0
C178 C 0.90595 0.71962 0.04118 0.0
C179 C 0.75192 0.77531 0.05855 0.0
C180 C 0.75912 0.72817 0.05622 0.0
C181 C 0.8099 0.71125 0.05121 0.0
C182 C 0.7128 0.69562 0.05543 0.0
C183 C 0.69801 0.79541 0.06332 0.0
C184 C 0.68549 0.69519 0.08102 0.0
C185 C 0.63978 0.66599 0.0789 0.0
C186 C 0.6212 0.6368 0.05127 0.0
C187 C 0.64915 0.6364 0.02604 0.0
C188 C 0.69464 0.66549 0.02812 0.0
H189 H 0.69624 0.83127 0.0592 0.0
H190 H 0.66353 0.77594 0.04746 0.0
H191 H 0.69207 0.79387 0.08766 0.0
H192 H 0.69924 0.71763 0.10248 0.0
H193 H 0.61868 0.66659 0.09865 0.0
H194 H 0.83435 0.08426 0.97825 0.0
H195 H 0.78915 0.15584 0.98068 0.0
H196 H 0.94362 0.22641 0.01863 0.0
H197 H 0.98985 0.15405 0.01612 0.0
H198 H 0.7842 0.22611 0.03066 0.0
H199 H 0.88651 0.28125 0.9373 0.0
H200 H 0.88691 0.22347 0.94509 0.0
H201 H 0.92896 0.26601 0.97152 0.0
C202 C 0.85892 0.11485 0.9874 0.0
C203 C 0.91592 0.11347 0.9966 0.0
C204 C 0.83286 0.1558 0.9889 0.0
C205 C 0.86304 0.19646 -0.00054 0.0
C206 C 0.91968 0.19536 0.01005 0.0
H207 H 0.66102 0.43834 0.99775 0.0
H208 H 0.73273 0.38795 0.01627 0.0
C209 C 0.94597 0.15405 0.00874 0.0
C210 C 0.83448 0.23942 0.99718 0.0
H211 H 0.81316 0.32316 0.95108 0.0
C212 C 0.79123 0.24806 0.01381 0.0
C213 C 0.84353 0.26761 0.97492 0.0
C214 C 0.88875 0.25928 0.95597 0.0
C215 C 0.75499 0.28267 0.00762 0.0
C216 C 0.76261 0.30957 0.98438 0.0
C217 C 0.80755 0.30246 0.96891 0.0
C218 C 0.72106 0.34158 0.9733 0.0
C219 C 0.70682 0.28833 0.02454 0.0
C220 C 0.69143 0.33263 0.94287 0.0
C221 C 0.65044 0.36115 0.93227 0.0
C222 C 0.63835 0.39947 0.95184 0.0
C223 C 0.66873 0.40875 0.98224 0.0
C224 C 0.7098 0.38009 0.99284 0.0
H225 H 0.70231 0.26042 0.03842 0.0
H226 H 0.71241 0.32054 0.04067 0.0
H227 H 0.66833 0.28986 0.00772 0.0
H228 H 0.69932 0.30296 0.92745 0.0
H229 H 0.62743 0.35258 0.90892 0.0
H230 H 0.64112 0.6298 0.47188 0.0
H231 H 0.67142 0.70577 0.46383 0.0
H232 H 0.70848 0.74445 0.56349 0.0
H233 H 0.67883 0.66942 0.57142 0.0
H234 H 0.66486 0.81532 0.52949 0.0
H235 H 0.84014 0.73087 0.48418 0.0
H236 H 0.77172 0.71373 0.46486 0.0
H237 H 0.79503 0.70134 0.50368 0.0
C238 C 0.65398 0.6552 0.4919 0.0
C239 C 0.65795 0.64403 0.52226 0.0
C240 C 0.67164 0.69835 0.48733 0.0
C241 C 0.6929 0.73055 0.51311 0.0
C242 C 0.69226 0.72025 0.54328 0.0
H243 H 0.94822 0.91072 0.58643 0.0
H244 H 0.87863 0.85092 0.56591 0.0
C245 C 0.67537 0.67736 0.5478 0.0
C246 C 0.72281 0.77254 0.5098 0.0
H247 H 0.84953 0.80858 0.50025 0.0
C248 C 0.70453 0.81421 0.52217 0.0
C249 C 0.77486 0.77083 0.50057 0.0
C250 C 0.79707 0.72691 0.48767 0.0
C251 C 0.7384 0.85361 0.52748 0.0
C252 C 0.79173 0.85114 0.52015 0.0
C253 C 0.80853 0.81024 0.50578 0.0
C254 C 0.83348 0.88825 0.53167 0.0
C255 C 0.71868 0.89681 0.54307 0.0
C256 C 0.83133 0.92909 0.51907 0.0
C257 C 0.87118 0.96365 0.53091 0.0
C258 C 0.91355 0.9579 0.55565 0.0
C259 C 0.91562 0.91666 0.56784 0.0
C260 C 0.87613 0.88227 0.55595 0.0
H261 H 0.67722 0.89242 0.54894 0.0
H262 H 0.74762 0.90929 0.5648 0.0
H263 H 0.7174 0.9231 0.52736 0.0
H264 H 0.79895 0.93421 0.50014 0.0
H265 H 0.86841 -0.00498 0.52101 0.0
H266 H 0.59803 0.35786 0.49121 0.0
H267 H 0.63745 0.28361 0.48021 0.0
H268 H 0.79293 0.34889 0.47855 0.0
H269 H 0.75458 0.42248 0.49004 0.0
H270 H 0.69295 0.24299 0.43212 0.0
H271 H 0.8296 0.26839 0.54702 0.0
H272 H 0.77241 0.3036 0.53756 0.0
H273 H 0.83602 0.31345 0.52448 0.0
C274 C 0.64041 0.35629 0.48812 0.0
C275 C 0.67341 0.39601 0.49198 0.0
C276 C 0.66288 0.3139 0.48189 0.0
C277 C 0.7185 0.31075 0.47934 0.0
C278 C 0.75035 0.35047 0.48125 0.0
H279 H 0.96013 0.11101 0.45675 0.0
H280 H 0.90557 0.1789 0.45953 0.0
C281 C 0.72823 0.39256 0.48771 0.0
C282 C 0.74453 0.26634 0.47603 0.0
H283 H 0.84983 0.20774 0.51023 0.0
C284 C 0.72686 0.23498 0.44931 0.0
C285 C 0.78861 0.25587 0.4986 0.0
C286 C 0.80747 0.28689 0.52868 0.0
C287 C 0.75365 0.19422 0.444 0.0
C288 C 0.79885 0.18457 0.46612 0.0
C289 C 0.81554 0.21544 0.49315 0.0
C290 C 0.83015 0.14298 0.46173 0.0
C291 C 0.73464 0.16241 0.41436 0.0
C292 C 0.80582 0.10033 0.462 0.0
C293 C 0.83699 0.06168 0.46046 0.0
C294 C 0.89272 0.06528 0.45859 0.0
C295 C 0.91697 0.10765 0.45788 0.0
C296 C 0.88591 0.14629 0.45952 0.0
H297 H 0.70663 0.17872 0.39697 0.0
H298 H 0.77012 0.14987 0.40375 0.0
H299 H 0.71242 0.13281 0.41986 0.0
H300 H 0.7632 0.09711 0.46434 0.0
H301 H 0.81789 0.02918 0.46146 0.0
H302 H 0.4473 0.42427 0.55325 0.0
H303 H 0.41264 0.36467 0.57946 0.0
H304 H 0.38307 0.27607 0.49198 0.0
H305 H 0.41698 0.33514 0.46609 0.0
H306 H 0.30494 0.33542 0.5609 0.0
H307 H 0.43455 0.18787 0.55212 0.0
H308 H 0.45908 0.24403 0.54895 0.0
H309 H 0.42033 0.20937 0.5155 0.0
C310 C 0.43585 0.39128 0.5401 0.0
C311 C 0.43497 0.384 0.50776 0.0
C312 C 0.4157 0.35739 0.55499 0.0
C313 C 0.39562 0.31568 0.53775 0.0
C314 C 0.39939 0.30742 0.50598 0.0
H315 H 0.15586 0.11132 0.50434 0.0
H316 H 0.23513 0.16343 0.50958 0.0
C317 C 0.41866 0.34128 0.49113 0.0
C318 C 0.36157 0.284 0.55065 0.0
H319 H 0.33699 0.17125 0.5502 0.0
C320 C 0.31265 0.29967 0.55958 0.0
C321 C 0.37156 0.23737 0.54882 0.0
C322 C 0.42457 0.2188 0.54112 0.0
C323 C 0.27138 0.26956 0.56389 0.0
C324 C 0.27977 0.22259 0.55971 0.0
C325 C 0.33038 0.20723 0.55315 0.0
C326 C 0.23435 0.18891 0.55802 0.0
C327 C 0.21757 0.28804 0.57045 0.0
C328 C 0.20804 0.1854 0.58366 0.0
C329 C 0.1625 0.15573 0.58058 0.0
C330 C 0.14321 0.12914 0.55192 0.0
C331 C 0.1703 0.13166 0.52664 0.0
C332 C 0.21557 0.16125 0.52967 0.0
H333 H 0.21476 0.32451 0.56809 0.0
H334 H 0.18285 0.2693 0.55433 0.0
H335 H 0.21301 0.2838 0.59463 0.0
H336 H 0.22228 0.20595 0.60586 0.0
H337 H 0.14203 0.15401 0.60037 0.0
H338 H 0.46632 0.65771 0.48814 0.0
H339 H 0.41177 0.72517 0.48635 0.0
H340 H 0.29084 0.66143 0.52842 0.0
H341 H 0.34367 0.59305 0.52814 0.0
H342 H 0.24334 0.68721 0.47888 0.0
H343 H 0.37562 0.83217 0.54105 0.0
H344 H 0.408 0.80145 0.51167 0.0
H345 H 0.39404 0.77459 0.54411 0.0
C346 C 0.42905 0.65892 0.49801 0.0
C347 C 0.40916 0.62052 0.50844 0.0
C348 C 0.39787 0.69757 0.4971 0.0
C349 C 0.34709 0.69881 0.50745 0.0
C350 C 0.32966 0.66146 0.5202 0.0
H351 H 0.1336 0.9305 0.49689 0.0
H352 H 0.19845 0.87531 0.51577 0.0
C353 C 0.35999 0.62249 0.52027 0.0
C354 C 0.3085 0.73544 0.50071 0.0
H355 H 0.29799 0.84981 0.50381 0.0
C356 C 0.25531 0.72274 0.48485 0.0
C357 C 0.32342 0.78199 0.50858 0.0
C358 C 0.37821 0.79831 0.52759 0.0
C359 C 0.21734 0.75486 0.47602 0.0
C360 C 0.23344 0.80122 0.48195 0.0
C361 C 0.28593 0.81423 0.49871 0.0
C362 C 0.19638 0.83627 0.47042 0.0
C363 C 0.16008 0.73857 0.46065 0.0
C364 C 0.17452 0.83335 0.43856 0.0
C365 C 0.13653 0.86411 0.42779 0.0
C366 C 0.12032 0.89936 0.44852 0.0
C367 C 0.1441 0.90332 0.4803 0.0
C368 C 0.18169 0.87206 0.49112 0.0
H369 H 0.1494 0.70528 0.46716 0.0
H370 H 0.12925 0.76295 0.46716 0.0
H371 H 0.15746 0.73439 0.43495 0.0
H372 H 0.1862 0.8067 0.42198 0.0
H373 H 0.11892 0.85944 0.40326 0.0
H374 H 0.98085 -0.00796 0.09514 0.0
H375 H 0.95553 -0.00902 0.14694 0.0
H376 H 0.12324 0.02365 0.19 0.0
H377 H 0.14871 0.02505 0.13913 0.0
H378 H -0.00063 0.93658 0.19383 0.0
H379 H 0.03763 0.11861 0.23662 0.0
H380 H 0.02856 0.09627 0.19572 0.0
H381 H 0.0938 0.09378 0.22045 0.0
C382 C 0.01217 -0.0008 0.11569 0.0
C383 C 0.06674 0.00886 0.11294 0.0
C384 C -0.00234 -0.0014 0.14521 0.0
C385 C 0.03736 0.00818 0.17229 0.0
C386 C 0.09173 0.01725 0.16947 0.0
H387 H 0.11454 -0.00242 0.36553 0.0
H388 H 0.10687 0.00804 0.31063 0.0
C389 C 0.10624 0.01771 0.14023 0.0
C390 C 0.02364 0.00709 0.20377 0.0
H391 H 0.0396 0.06925 0.27597 0.0
C392 C 0.00686 0.96576 0.21169 0.0
C393 C 0.03352 0.04528 0.22697 0.0
C394 C 0.04885 0.0911 0.21946 0.0
C395 C 0.00323 0.96091 0.24271 0.0
C396 C 0.01609 -0.00145 0.26617 0.0
C397 C 0.03014 0.0404 0.25794 0.0
C398 C 0.01937 -0.00567 0.29967 0.0
C399 C 0.9887 0.91503 0.25045 0.0
C400 C 0.97251 0.98409 0.31178 0.0
C401 C 0.97679 0.97802 0.34315 0.0
C402 C 0.02804 0.9821 0.3629 0.0
C403 C 0.07462 -0.00635 0.35082 0.0
C404 C 0.07026 -0.00015 0.31953 0.0
H405 H 0.98842 0.888 0.23045 0.0
H406 H 0.01812 0.90652 0.27067 0.0
H407 H 0.94735 0.91548 0.25697 0.0
H408 H 0.93276 0.98025 0.2969 0.0
H409 H 0.94021 0.96882 0.35169 0.0
H410 H 0.00996 0.94072 0.86604 0.0
H411 H 0.03539 0.958 0.81761 0.0
H412 H 0.13669 0.07144 0.86792 0.0
H413 H 0.11108 0.05427 0.917 0.0
H414 H 0.06103 0.09344 0.81807 0.0
H415 H 0.1737 0.94496 0.77898 0.0
H416 H 0.11143 0.92815 0.79073 0.0
H417 H 0.16443 0.95923 0.81903 0.0
C418 C 0.03852 0.96885 0.86699 0.0
C419 C 0.05836 -0.00376 0.89534 0.0
C420 C 0.0534 0.97846 0.83926 0.0
C421 C 0.0885 0.01564 0.83917 0.0
C422 C 0.10996 0.04231 0.86755 0.0
H423 H 0.12216 0.04049 0.64563 0.0
H424 H 0.15167 0.04571 0.70228 0.0
C425 C 0.09543 0.0324 0.89553 0.0
C426 C 0.09684 0.02888 0.80888 0.0
H427 H 0.12384 0.98328 0.73786 0.0
C428 C 0.07617 0.06992 0.80074 0.0
C429 C 0.11741 -0.00137 0.7864 0.0
C430 C 0.14354 0.9555 0.79435 0.0
C431 C 0.07095 0.07957 0.76996 0.0
C432 C 0.08608 0.04705 0.74676 0.0
C433 C 0.11143 0.00795 0.75553 0.0
C434 C 0.06973 0.05 0.71303 0.0
C435 C 0.04731 0.12374 0.76236 0.0
C436 C 0.014 0.05097 0.70034 0.0
C437 C -0.00286 0.04797 0.66816 0.0
C438 C 0.03564 0.04365 0.64793 0.0
C439 C 0.09163 0.04418 0.66068 0.0
C440 C 0.10851 0.04699 0.69299 0.0
H441 H 0.05643 0.15042 0.78287 0.0
H442 H 0.06353 0.13535 0.74253 0.0
H443 H 0.00215 0.1193 0.75595 0.0
H444 H 0.98323 0.05224 0.71524 0.0
H445 H 0.95377 0.048 0.65903 0.0
H446 H 0.64406 0.50653 0.63951 0.0
H447 H 0.61961 0.50275 0.69042 0.0
H448 H 0.44854 0.49187 0.64959 0.0
H449 H 0.47269 0.49561 0.5978 0.0
H450 H 0.54778 0.56569 0.71981 0.0
H451 H 0.47614 0.38508 0.70411 0.0
H452 H 0.52007 0.40542 0.67957 0.0
H453 H 0.44962 0.41993 0.67496 0.0
C454 C 0.60111 0.50311 0.64108 0.0
C455 C 0.5603 0.50148 0.61445 0.0
C456 C 0.58728 0.50102 0.67032 0.0
C457 C 0.53239 0.49699 0.67375 0.0
C458 C 0.49123 0.49467 0.64732 0.0
H459 H 0.44805 0.46195 0.85671 0.0
H460 H 0.43626 0.47353 0.8017 0.0
C461 C 0.50508 0.49689 0.61781 0.0
C462 C 0.5196 0.49645 0.70544 0.0
H463 H 0.48669 0.42505 0.75469 0.0
C464 C 0.53348 0.53518 0.72737 0.0
C465 C 0.50072 0.45669 0.71512 0.0
C466 C 0.48584 0.41419 0.69238 0.0
C467 C 0.53136 0.53463 0.75904 0.0
C468 C 0.51587 0.49405 0.76908 0.0
C469 C 0.49884 0.45605 0.7469 0.0
C470 C 0.52197 0.48927 0.80264 0.0
C471 C 0.547 0.57723 0.78158 0.0
C472 C 0.57406 0.49413 0.8213 0.0
C473 C 0.5809 0.48761 0.8526 0.0
C474 C 0.53577 0.47592 0.86588 0.0
C475 C 0.48349 0.47148 0.84723 0.0
C476 C 0.47671 0.47781 0.81579 0.0
H477 H 0.54116 0.60776 0.76964 0.0
H478 H 0.52259 0.57997 0.80073 0.0
H479 H 0.5909 0.5767 0.79202 0.0
H480 H 0.60969 0.5022 0.81148 0.0
H481 H 0.62161 0.49156 0.86641 0.0
H482 H 0.48442 0.46092 0.36879 0.0
H483 H 0.50919 0.47787 0.32013 0.0
H484 H 0.62427 0.5822 0.3708 0.0
H485 H 0.59954 0.56518 0.42021 0.0
H486 H 0.54752 0.61005 0.32133 0.0
H487 H 0.64675 0.4546 0.28043 0.0
H488 H 0.58414 0.44225 0.29357 0.0
H489 H 0.64058 0.47049 0.32085 0.0
C490 C 0.51567 0.48702 0.36974 0.0
C491 C 0.53993 0.51181 0.39834 0.0
C492 C 0.5301 0.49643 0.34188 0.0
C493 C 0.56906 0.53087 0.34187 0.0
C494 C 0.59449 0.55516 0.37039 0.0
H495 H 0.6017 0.55103 0.14771 0.0
H496 H 0.63254 0.55683 0.2043 0.0
C497 C 0.58045 0.54534 0.39853 0.0
C498 C 0.57825 0.54361 0.3116 0.0
H499 H 0.60076 0.4959 0.2401 0.0
C500 C 0.56064 0.58563 0.30375 0.0
C501 C 0.59609 0.51205 0.28882 0.0
C502 C 0.61851 0.4675 0.29644 0.0
C503 C 0.55572 0.59524 0.27297 0.0
C504 C 0.56813 0.56173 0.24951 0.0
C505 C 0.59054 0.52141 0.25798 0.0
C506 C 0.55148 0.56505 0.21585 0.0
C507 C 0.53517 0.64045 0.26561 0.0
C508 C 0.49585 0.56815 0.20363 0.0
C509 C 0.47824 0.56475 0.17149 0.0
C510 C 0.51587 0.55797 0.15085 0.0
C511 C 0.57188 0.55664 0.16311 0.0
C512 C 0.5895 0.5598 0.19537 0.0
H513 H 0.54623 0.66688 0.28615 0.0
H514 H 0.55198 0.65108 0.24566 0.0
H515 H 0.48987 0.63811 0.25946 0.0
H516 H 0.4656 0.57118 0.21888 0.0
H517 H 0.43488 0.56615 0.1627 0.0
loop_
_geom_bond_atom_site_label_1
_geom_bond_atom_site_label_2
_geom_bond_distance
_geom_bond_site_symmetry_2
_ccdc_geom_bond_type
O0 Mg1 1.990 . S
O0 C14 1.253 . S
Mg1 O0 1.990 . S
Mg1 O4 2.180 . S
Mg1 O5 2.117 . S
Mg1 O19 2.030 1_545 S
O2 Mg3 2.072 . S
O2 C14 1.260 . S
Mg3 O2 2.072 . S
Mg3 O4 2.099 . S
Mg3 O6 2.079 1_554 S
Mg3 O7 2.072 . S
Mg3 O9 2.099 1_444 S
Mg3 O20 2.079 1_545 S
O4 Mg1 2.180 . S
O4 Mg3 2.099 . S
O4 C15 1.279 . S
O5 Mg1 2.117 . S
O5 C15 1.250 . S
O6 Mg3 2.079 1_556 S
O6 C16 1.264 . S
O7 Mg3 2.072 . S
O7 C17 1.260 1_454 S
Mg8 O9 2.180 . S
Mg8 O10 2.030 1_565 S
Mg8 O11 1.990 1_565 S
Mg8 O12 2.117 . S
O9 Mg3 2.099 1_666 S
O9 Mg8 2.180 . S
O9 C18 1.286 . S
O10 Mg8 2.030 1_545 S
O10 C16 1.248 1_655 S
O11 Mg8 1.990 1_545 S
O11 C17 1.253 . S
O12 Mg8 2.117 . S
O12 C18 1.253 . S
C13 O19 1.248 . S
C13 O20 1.264 . S
C14 O0 1.253 . S
C14 O2 1.260 . S
C15 O4 1.279 . S
C15 O5 1.250 . S
C16 O6 1.264 . S
C16 O10 1.248 1_455 S
C17 O7 1.260 1_656 S
C17 O11 1.253 . S
C18 O9 1.286 . S
C18 O12 1.253 . S
O19 Mg1 2.030 1_565 S
O19 C13 1.248 . S
O20 Mg3 2.079 1_565 S
O20 C13 1.264 . S
O21 Mg22 1.990 . S
O21 C35 1.253 . S
Mg22 O21 1.990 . S
Mg22 O25 2.180 . S
Mg22 O26 2.117 . S
Mg22 O40 2.030 . S
O23 Mg24 2.072 . S
O23 C35 1.260 . S
Mg24 O23 2.072 . S
Mg24 O25 2.099 . S
Mg24 O27 2.079 . S
Mg24 O28 2.072 . S
Mg24 O30 2.099 . S
Mg24 O41 2.079 . S
O25 Mg22 2.180 . S
O25 Mg24 2.099 . S
O25 C36 1.279 . S
O26 Mg22 2.117 . S
O26 C36 1.250 . S
O27 Mg24 2.079 . S
O27 C37 1.264 . S
O28 Mg24 2.072 . S
O28 C38 1.260 . S
Mg29 O30 2.180 . S
Mg29 O31 2.030 . S
Mg29 O32 1.990 . S
Mg29 O33 2.117 . S
O30 Mg24 2.099 . S
O30 Mg29 2.180 . S
O30 C39 1.279 . S
O31 Mg29 2.030 . S
O31 C37 1.248 . S
O32 Mg29 1.990 . S
O32 C38 1.253 . S
O33 Mg29 2.117 . S
O33 C39 1.250 . S
C34 O40 1.248 . S
C34 O41 1.264 . S
C35 O21 1.253 . S
C35 O23 1.260 . S
C36 O25 1.279 . S
C36 O26 1.250 . S
C37 O27 1.264 . S
C37 O31 1.248 . S
C38 O28 1.260 . S
C38 O32 1.253 . S
C39 O30 1.279 . S
C39 O33 1.250 . S
O40 Mg22 2.030 . S
O40 C34 1.248 . S
O41 Mg24 2.079 . S
O41 C34 1.264 . S
H42 C45 0.929 . S
H43 C48 0.929 . S
H44 C50 0.930 . S
C45 H42 0.929 . S
C45 C46 1.398 . S
C45 C47 1.396 . S
C46 C45 1.398 . S
C46 C50 1.407 . S
C47 C45 1.396 . S
C47 C48 1.394 1_565 S
C48 H43 0.929 . S
C48 C47 1.394 1_545 S
C48 C49 1.382 . S
C49 C48 1.382 . S
C49 C50 1.392 1_545 S
C49 N51 1.420 . S
C50 H44 0.930 . S
C50 C46 1.407 . S
C50 C49 1.392 1_565 S
N51 C49 1.420 . S
N51 C52 1.244 1_455 S
C52 N51 1.244 1_655 S
H53 C56 0.929 . S
H54 C59 0.929 . S
H55 C61 0.930 . S
C56 H53 0.929 . S
C56 C57 1.398 . S
C56 C58 1.396 . S
C57 C56 1.398 . S
C57 C61 1.407 . S
C58 C56 1.396 . S
C58 C59 1.394 1_655 S
C59 H54 0.929 . S
C59 C58 1.394 1_455 S
C59 C60 1.382 . S
C60 C59 1.382 . S
C60 C61 1.392 1_455 S
C60 N62 1.420 . S
C61 H55 0.930 . S
C61 C57 1.407 . S
C61 C60 1.392 1_655 S
N62 C60 1.420 . S
N62 C63 1.244 . S
C63 N62 1.244 . S
H64 C67 0.929 . S
H65 C70 0.929 . S
H66 C72 0.930 . S
C67 H64 0.929 . S
C67 C68 1.398 . S
C67 C69 1.396 . S
C68 C67 1.398 . S
C68 C72 1.407 . S
C69 C67 1.396 . S
C69 C70 1.394 . S
C70 H65 0.929 . S
C70 C69 1.394 . S
C70 C71 1.382 . S
C71 C70 1.382 . S
C71 C72 1.392 . S
C71 N73 1.420 . S
C72 H66 0.930 . S
C72 C68 1.407 . S
C72 C71 1.392 . S
N73 C71 1.420 . S
N73 C74 1.244 . S
C74 N73 1.244 . S
H75 C78 0.929 . S
H76 C81 0.929 . S
H77 C83 0.930 . S
C78 H75 0.929 . S
C78 C79 1.398 . S
C78 C80 1.396 . S
C79 C78 1.398 . S
C79 C83 1.407 . S
C80 C78 1.396 . S
C80 C81 1.394 . S
C81 H76 0.929 . S
C81 C80 1.394 . S
C81 C82 1.382 . S
C82 C81 1.382 . S
C82 C83 1.392 . S
C82 N84 1.420 . S
C83 H77 0.930 . S
C83 C79 1.407 . S
C83 C82 1.392 . S
N84 C82 1.420 . S
N84 C85 1.244 . S
C85 N84 1.244 . S
H86 C94 0.929 . S
H87 C96 0.930 . S
H88 C98 0.936 . S
H89 C101 0.929 1_556 S
H90 C104 0.930 . S
H91 C106 0.960 . S
H92 C106 0.960 . S
H93 C106 0.960 . S
C94 H86 0.929 . S
C94 C95 1.377 . S
C94 C96 1.384 . S
C95 C94 1.377 . S
C95 C101 1.390 . S
C96 H87 0.930 . S
C96 C94 1.384 . S
C96 C97 1.372 . S
C97 C96 1.372 . S
C97 C98 1.400 . S
C97 C102 1.490 . S
C98 H88 0.936 . S
C98 C97 1.400 . S
C98 C101 1.386 . S
H99 C115 0.930 . S
H100 C116 0.931 . S
C101 H89 0.929 1_554 S
C101 C95 1.390 . S
C101 C98 1.386 . S
C102 C97 1.490 . S
C102 C104 1.395 . S
C102 C105 1.403 . S
H103 C109 0.930 . S
C104 H90 0.930 . S
C104 C102 1.395 . S
C104 C107 1.403 . S
C105 C102 1.403 . S
C105 C106 1.524 . S
C105 C109 1.400 . S
C106 H91 0.960 . S
C106 H92 0.960 . S
C106 H93 0.960 . S
C106 C105 1.524 . S
C107 C104 1.403 . S
C107 C108 1.392 . S
C107 C111 1.495 . S
C108 C107 1.392 . S
C108 C109 1.385 . S
C108 C110 1.478 . S
C109 H103 0.930 . S
C109 C105 1.400 . S
C109 C108 1.385 . S
C110 C108 1.478 . S
C110 C112 1.381 . S
C110 C116 1.383 . S
C111 C107 1.495 . S
C111 H117 0.959 . S
C111 H118 0.961 1_554 S
C111 H119 0.960 . S
C112 C110 1.381 . S
C112 C113 1.394 . S
C112 H120 0.930 . S
C113 C112 1.394 . S
C113 C114 1.383 . S
C113 H121 0.929 . S
C114 C113 1.383 . S
C114 C115 1.377 . S
C115 H99 0.930 . S
C115 C114 1.377 . S
C115 C116 1.379 . S
C116 H100 0.931 . S
C116 C110 1.383 . S
C116 C115 1.379 . S
H117 C111 0.959 . S
H118 C111 0.961 1_556 S
H119 C111 0.960 . S
H120 C112 0.930 . S
H121 C113 0.929 . S
H122 C130 0.929 . S
H123 C132 0.930 . S
H124 C134 0.930 . S
H125 C137 0.922 1_556 S
H126 C140 0.930 . S
H127 C142 0.960 . S
H128 C142 0.960 . S
H129 C142 0.960 . S
C130 H122 0.929 . S
C130 C131 1.377 . S
C130 C132 1.384 . S
C131 C130 1.377 . S
C131 C137 1.399 . S
C132 H123 0.930 . S
C132 C130 1.384 . S
C132 C133 1.372 . S
C133 C132 1.372 . S
C133 C134 1.400 1_554 S
C133 C138 1.492 . S
C134 H124 0.930 . S
C134 C133 1.400 1_556 S
C134 C137 1.384 1_556 S
H135 C151 0.930 . S
H136 C152 0.931 . S
C137 H125 0.922 1_554 S
C137 C131 1.399 . S
C137 C134 1.384 1_554 S
C138 C133 1.492 . S
C138 C140 1.389 1_554 S
C138 C141 1.407 . S
H139 C145 0.930 . S
C140 H126 0.930 . S
C140 C138 1.389 1_556 S
C140 C143 1.403 . S
C141 C138 1.407 . S
C141 C142 1.524 . S
C141 C145 1.400 . S
C142 H127 0.960 . S
C142 H128 0.960 . S
C142 H129 0.960 . S
C142 C141 1.524 . S
C143 C140 1.403 . S
C143 C144 1.392 . S
C143 C147 1.495 . S
C144 C143 1.392 . S
C144 C145 1.385 1_556 S
C144 C146 1.478 . S
C145 H139 0.930 . S
C145 C141 1.400 . S
C145 C144 1.385 1_554 S
C146 C144 1.478 . S
C146 C148 1.381 . S
C146 C152 1.383 . S
C147 C143 1.495 . S
C147 H153 0.959 . S
C147 H154 0.961 . S
C147 H155 0.960 . S
C148 C146 1.381 . S
C148 C149 1.394 . S
C148 H156 0.930 1_556 S
C149 C148 1.394 . S
C149 C150 1.383 . S
C149 H157 0.929 1_556 S
C150 C149 1.383 . S
C150 C151 1.377 . S
C151 H135 0.930 . S
C151 C150 1.377 . S
C151 C152 1.379 . S
C152 H136 0.931 . S
C152 C146 1.383 . S
C152 C151 1.379 . S
H153 C147 0.959 . S
H154 C147 0.961 . S
H155 C147 0.960 . S
H156 C148 0.930 1_554 S
H157 C149 0.929 1_554 S
H158 C166 0.929 . S
H159 C168 0.930 . S
H160 C170 0.930 . S
H161 C173 0.929 . S
H162 C176 0.930 . S
H163 C178 0.960 1_556 S
H164 C178 0.960 . S
H165 C178 0.959 1_556 S
C166 H158 0.929 . S
C166 C167 1.377 . S
C166 C168 1.384 . S
C167 C166 1.377 . S
C167 C173 1.390 1_554 S
C168 H159 0.930 . S
C168 C166 1.384 . S
C168 C169 1.372 . S
C169 C168 1.372 . S
C169 C170 1.400 1_554 S
C169 C174 1.490 . S
C170 H160 0.930 . S
C170 C169 1.400 1_556 S
C170 C173 1.386 . S
H171 C187 0.930 1_556 S
H172 C188 0.931 1_556 S
C173 H161 0.929 . S
C173 C167 1.390 1_556 S
C173 C170 1.386 . S
C174 C169 1.490 . S
C174 C176 1.395 . S
C174 C177 1.403 . S
H175 C181 0.930 . S
C176 H162 0.930 . S
C176 C174 1.395 . S
C176 C179 1.403 . S
C177 C174 1.403 . S
C177 C178 1.524 . S
C177 C181 1.400 . S
C178 H163 0.960 1_554 S
C178 H164 0.960 . S
C178 H165 0.959 1_554 S
C178 C177 1.524 . S
C179 C176 1.403 . S
C179 C180 1.392 . S
C179 C183 1.495 . S
C180 C179 1.392 . S
C180 C181 1.385 . S
C180 C182 1.478 . S
C181 H175 0.930 . S
C181 C177 1.400 . S
C181 C180 1.385 . S
C182 C180 1.478 . S
C182 C184 1.381 . S
C182 C188 1.383 . S
C183 C179 1.495 . S
C183 H189 0.959 . S
C183 H190 0.961 . S
C183 H191 0.960 . S
C184 C182 1.381 . S
C184 C185 1.394 . S
C184 H192 0.930 . S
C185 C184 1.394 . S
C185 C186 1.383 . S
C185 H193 0.929 . S
C186 C185 1.383 . S
C186 C187 1.377 . S
C187 H171 0.930 1_554 S
C187 C186 1.377 . S
C187 C188 1.379 . S
C188 H172 0.931 1_554 S
C188 C182 1.383 . S
C188 C187 1.379 . S
H189 C183 0.959 . S
H190 C183 0.961 . S
H191 C183 0.960 . S
H192 C184 0.930 . S
H193 C185 0.929 . S
H194 C202 0.929 . S
H195 C204 0.930 . S
H196 C206 0.930 . S
H197 C209 0.929 . S
H198 C212 0.930 . S
H199 C214 0.960 . S
H200 C214 0.960 . S
H201 C214 0.960 . S
C202 H194 0.929 . S
C202 C203 1.377 . S
C202 C204 1.384 . S
C203 C202 1.377 . S
C203 C209 1.390 1_556 S
C204 H195 0.930 . S
C204 C202 1.384 . S
C204 C205 1.372 . S
C205 C204 1.372 . S
C205 C206 1.400 1_556 S
C205 C210 1.490 . S
C206 H196 0.930 . S
C206 C205 1.400 1_554 S
C206 C209 1.386 . S
H207 C223 0.930 1_554 S
H208 C224 0.931 1_554 S
C209 H197 0.929 . S
C209 C203 1.390 1_554 S
C209 C206 1.386 . S
C210 C205 1.490 . S
C210 C212 1.395 . S
C210 C213 1.403 . S
H211 C217 0.930 . S
C212 H198 0.930 . S
C212 C210 1.395 . S
C212 C215 1.403 . S
C213 C210 1.403 . S
C213 C214 1.524 . S
C213 C217 1.400 . S
C214 H199 0.960 . S
C214 H200 0.960 . S
C214 H201 0.960 . S
C214 C213 1.524 . S
C215 C212 1.403 . S
C215 C216 1.392 . S
C215 C219 1.495 . S
C216 C215 1.392 . S
C216 C217 1.385 . S
C216 C218 1.478 . S
C217 H211 0.930 . S
C217 C213 1.400 . S
C217 C216 1.385 . S
C218 C216 1.478 . S
C218 C220 1.381 . S
C218 C224 1.383 . S
C219 C215 1.495 . S
C219 H225 0.959 . S
C219 H226 0.961 . S
C219 H227 0.960 . S
C220 C218 1.381 . S
C220 C221 1.394 . S
C220 H228 0.930 . S
C221 C220 1.394 . S
C221 C222 1.383 . S
C221 H229 0.929 . S
C222 C221 1.383 . S
C222 C223 1.377 . S
C223 H207 0.930 1_556 S
C223 C222 1.377 . S
C223 C224 1.379 . S
C224 H208 0.931 1_556 S
C224 C218 1.383 . S
C224 C223 1.379 . S
H225 C219 0.959 . S
H226 C219 0.961 . S
H227 C219 0.960 . S
H228 C220 0.930 . S
H229 C221 0.929 . S
H230 C238 0.929 . S
H231 C240 0.930 . S
H232 C242 0.930 . S
H233 C245 0.929 . S
H234 C248 0.930 . S
H235 C250 0.960 . S
H236 C250 0.960 . S
H237 C250 0.960 . S
C238 H230 0.929 . S
C238 C239 1.377 . S
C238 C240 1.384 . S
C239 C238 1.377 . S
C239 C245 1.390 . S
C240 H231 0.930 . S
C240 C238 1.384 . S
C240 C241 1.372 . S
C241 C240 1.372 . S
C241 C242 1.400 . S
C241 C246 1.490 . S
C242 H232 0.930 . S
C242 C241 1.400 . S
C242 C245 1.386 . S
H243 C259 0.930 . S
H244 C260 0.931 . S
C245 H233 0.929 . S
C245 C239 1.390 . S
C245 C242 1.386 . S
C246 C241 1.490 . S
C246 C248 1.395 . S
C246 C249 1.403 . S
H247 C253 0.930 . S
C248 H234 0.930 . S
C248 C246 1.395 . S
C248 C251 1.403 . S
C249 C246 1.403 . S
C249 C250 1.524 . S
C249 C253 1.400 . S
C250 H235 0.960 . S
C250 H236 0.960 . S
C250 H237 0.960 . S
C250 C249 1.524 . S
C251 C248 1.403 . S
C251 C252 1.392 . S
C251 C255 1.495 . S
C252 C251 1.392 . S
C252 C253 1.385 . S
C252 C254 1.478 . S
C253 H247 0.930 . S
C253 C249 1.400 . S
C253 C252 1.385 . S
C254 C252 1.478 . S
C254 C256 1.381 . S
C254 C260 1.383 . S
C255 C251 1.495 . S
C255 H261 0.959 . S
C255 H262 0.961 . S
C255 H263 0.960 . S
C256 C254 1.381 . S
C256 C257 1.394 . S
C256 H264 0.930 . S
C257 C256 1.394 . S
C257 C258 1.383 . S
C257 H265 0.929 . S
C258 C257 1.383 . S
C258 C259 1.377 . S
C259 H243 0.930 . S
C259 C258 1.377 . S
C259 C260 1.379 . S
C260 H244 0.931 . S
C260 C254 1.383 . S
C260 C259 1.379 . S
H261 C255 0.959 . S
H262 C255 0.961 . S
H263 C255 0.960 . S
H264 C256 0.930 . S
H265 C257 0.929 . S
H266 C274 0.929 . S
H267 C276 0.930 . S
H268 C278 0.930 . S
H269 C281 0.929 . S
H270 C284 0.930 . S
H271 C286 0.960 . S
H272 C286 0.960 . S
H273 C286 0.960 . S
C274 H266 0.929 . S
C274 C275 1.377 . S
C274 C276 1.384 . S
C275 C274 1.377 . S
C275 C281 1.390 . S
C276 H267 0.930 . S
C276 C274 1.384 . S
C276 C277 1.372 . S
C277 C276 1.372 . S
C277 C278 1.400 . S
C277 C282 1.490 . S
C278 H268 0.930 . S
C278 C277 1.400 . S
C278 C281 1.386 . S
H279 C295 0.930 . S
H280 C296 0.931 . S
C281 H269 0.929 . S
C281 C275 1.390 . S
C281 C278 1.386 . S
C282 C277 1.490 . S
C282 C284 1.395 . S
C282 C285 1.403 . S
H283 C289 0.930 . S
C284 H270 0.930 . S
C284 C282 1.395 . S
C284 C287 1.403 . S
C285 C282 1.403 . S
C285 C286 1.524 . S
C285 C289 1.400 . S
C286 H271 0.960 . S
C286 H272 0.960 . S
C286 H273 0.960 . S
C286 C285 1.524 . S
C287 C284 1.403 . S
C287 C288 1.392 . S
C287 C291 1.495 . S
C288 C287 1.392 . S
C288 C289 1.385 . S
C288 C290 1.478 . S
C289 H283 0.930 . S
C289 C285 1.400 . S
C289 C288 1.385 . S
C290 C288 1.478 . S
C290 C292 1.381 . S
C290 C296 1.383 . S
C291 C287 1.495 . S
C291 H297 0.959 . S
C291 H298 0.961 . S
C291 H299 0.960 . S
C292 C290 1.381 . S
C292 C293 1.394 . S
C292 H300 0.930 . S
C293 C292 1.394 . S
C293 C294 1.383 . S
C293 H301 0.929 . S
C294 C293 1.383 . S
C294 C295 1.377 . S
C295 H279 0.930 . S
C295 C294 1.377 . S
C295 C296 1.379 . S
C296 H280 0.931 . S
C296 C290 1.383 . S
C296 C295 1.379 . S
H297 C291 0.959 . S
H298 C291 0.961 . S
H299 C291 0.960 . S
H300 C292 0.930 . S
H301 C293 0.929 . S
H302 C310 0.929 . S
H303 C312 0.930 . S
H304 C314 0.930 . S
H305 C317 0.929 . S
H306 C320 0.930 . S
H307 C322 0.960 . S
H308 C322 0.960 . S
H309 C322 0.960 . S
C310 H302 0.929 . S
C310 C311 1.377 . S
C310 C312 1.384 . S
C311 C310 1.377 . S
C311 C317 1.390 . S
C312 H303 0.930 . S
C312 C310 1.384 . S
C312 C313 1.372 . S
C313 C312 1.372 . S
C313 C314 1.400 . S
C313 C318 1.490 . S
C314 H304 0.930 . S
C314 C313 1.400 . S
C314 C317 1.386 . S
H315 C331 0.930 . S
H316 C332 0.931 . S
C317 H305 0.929 . S
C317 C311 1.390 . S
C317 C314 1.386 . S
C318 C313 1.490 . S
C318 C320 1.395 . S
C318 C321 1.403 . S
H319 C325 0.930 . S
C320 H306 0.930 . S
C320 C318 1.395 . S
C320 C323 1.403 . S
C321 C318 1.403 . S
C321 C322 1.524 . S
C321 C325 1.400 . S
C322 H307 0.960 . S
C322 H308 0.960 . S
C322 H309 0.960 . S
C322 C321 1.524 . S
C323 C320 1.403 . S
C323 C324 1.392 . S
C323 C327 1.495 . S
C324 C323 1.392 . S
C324 C325 1.385 . S
C324 C326 1.478 . S
C325 H319 0.930 . S
C325 C321 1.400 . S
C325 C324 1.385 . S
C326 C324 1.478 . S
C326 C328 1.381 . S
C326 C332 1.383 . S
C327 C323 1.495 . S
C327 H333 0.959 . S
C327 H334 0.961 . S
C327 H335 0.960 . S
C328 C326 1.381 . S
C328 C329 1.394 . S
C328 H336 0.930 . S
C329 C328 1.394 . S
C329 C330 1.383 . S
C329 H337 0.929 . S
C330 C329 1.383 . S
C330 C331 1.377 . S
C331 H315 0.930 . S
C331 C330 1.377 . S
C331 C332 1.379 . S
C332 H316 0.931 . S
C332 C326 1.383 . S
C332 C331 1.379 . S
H333 C327 0.959 . S
H334 C327 0.961 . S
H335 C327 0.960 . S
H336 C328 0.930 . S
H337 C329 0.929 . S
H338 C346 0.929 . S
H339 C348 0.930 . S
H340 C350 0.930 . S
H341 C353 0.929 . S
H342 C356 0.930 . S
H343 C358 0.960 . S
H344 C358 0.960 . S
H345 C358 0.960 . S
C346 H338 0.929 . S
C346 C347 1.377 . S
C346 C348 1.384 . S
C347 C346 1.377 . S
C347 C353 1.390 . S
C348 H339 0.930 . S
C348 C346 1.384 . S
C348 C349 1.372 . S
C349 C348 1.372 . S
C349 C350 1.400 . S
C349 C354 1.490 . S
C350 H340 0.930 . S
C350 C349 1.400 . S
C350 C353 1.386 . S
H351 C367 0.930 . S
H352 C368 0.931 . S
C353 H341 0.929 . S
C353 C347 1.390 . S
C353 C350 1.386 . S
C354 C349 1.490 . S
C354 C356 1.395 . S
C354 C357 1.403 . S
H355 C361 0.930 . S
C356 H342 0.930 . S
C356 C354 1.395 . S
C356 C359 1.403 . S
C357 C354 1.403 . S
C357 C358 1.524 . S
C357 C361 1.400 . S
C358 H343 0.960 . S
C358 H344 0.960 . S
C358 H345 0.960 . S
C358 C357 1.524 . S
C359 C356 1.403 . S
C359 C360 1.392 . S
C359 C363 1.495 . S
C360 C359 1.392 . S
C360 C361 1.385 . S
C360 C362 1.478 . S
C361 H355 0.930 . S
C361 C357 1.400 . S
C361 C360 1.385 . S
C362 C360 1.478 . S
C362 C364 1.381 . S
C362 C368 1.383 . S
C363 C359 1.495 . S
C363 H369 0.959 . S
C363 H370 0.961 . S
C363 H371 0.960 . S
C364 C362 1.381 . S
C364 C365 1.394 . S
C364 H372 0.930 . S
C365 C364 1.394 . S
C365 C366 1.383 . S
C365 H373 0.929 . S
C366 C365 1.383 . S
C366 C367 1.377 . S
C367 H351 0.930 . S
C367 C366 1.377 . S
C367 C368 1.379 . S
C368 H352 0.931 . S
C368 C362 1.383 . S
C368 C367 1.379 . S
H369 C363 0.959 . S
H370 C363 0.961 . S
H371 C363 0.960 . S
H372 C364 0.930 . S
H373 C365 0.929 . S
H374 C382 0.929 1_655 S
H375 C384 0.930 1_655 S
H376 C386 0.930 . S
H377 C389 0.929 . S
H378 C392 0.930 . S
H379 C394 0.960 . S
H380 C394 0.960 . S
H381 C394 0.960 . S
C382 H374 0.929 1_455 S
C382 C383 1.377 . S
C382 C384 1.384 . S
C383 C382 1.377 . S
C383 C389 1.390 . S
C384 H375 0.930 1_455 S
C384 C382 1.384 . S
C384 C385 1.375 . S
C385 C384 1.375 . S
C385 C386 1.401 . S
C385 C390 1.486 1_545 S
C386 H376 0.930 . S
C386 C385 1.401 . S
C386 C389 1.386 . S
H387 C403 0.930 . S
H388 C404 0.931 . S
C389 H377 0.929 . S
C389 C383 1.390 . S
C389 C386 1.386 . S
C390 C385 1.486 1_565 S
C390 C392 1.395 . S
C390 C393 1.403 1_565 S
H391 C397 0.930 . S
C392 H378 0.930 . S
C392 C390 1.395 . S
C392 C395 1.403 . S
C393 C390 1.403 1_545 S
C393 C394 1.524 . S
C393 C397 1.400 . S
C394 H379 0.960 . S
C394 H380 0.960 . S
C394 H381 0.960 . S
C394 C393 1.524 . S
C395 C392 1.403 . S
C395 C396 1.392 . S
C395 C399 1.495 . S
C396 C395 1.392 . S
C396 C397 1.385 1_565 S
C396 C398 1.478 . S
C397 H391 0.930 . S
C397 C393 1.400 . S
C397 C396 1.385 1_545 S
C398 C396 1.478 . S
C398 C400 1.381 . S
C398 C404 1.383 . S
C399 C395 1.495 . S
C399 H405 0.959 1_455 S
C399 H406 0.961 . S
C399 H407 0.960 1_455 S
C400 C398 1.381 . S
C400 C401 1.394 . S
C400 H408 0.930 1_455 S
C401 C400 1.394 . S
C401 C402 1.383 . S
C401 H409 0.930 1_455 S
C402 C401 1.383 . S
C402 C403 1.377 . S
C403 H387 0.930 . S
C403 C402 1.377 . S
C403 C404 1.379 . S
C404 H388 0.931 . S
C404 C398 1.383 . S
C404 C403 1.379 . S
H405 C399 0.959 1_655 S
H406 C399 0.961 . S
H407 C399 0.960 1_655 S
H408 C400 0.930 1_655 S
H409 C401 0.930 1_655 S
H410 C418 0.929 . S
H411 C420 0.930 . S
H412 C422 0.930 . S
H413 C425 0.929 . S
H414 C428 0.930 . S
H415 C430 0.960 . S
H416 C430 0.960 . S
H417 C430 0.960 . S
C418 H410 0.929 . S
C418 C419 1.377 1_655 S
C418 C420 1.384 . S
C419 C418 1.377 1_455 S
C419 C425 1.390 . S
C420 H411 0.930 . S
C420 C418 1.384 . S
C420 C421 1.372 1_655 S
C421 C420 1.372 1_455 S
C421 C422 1.400 . S
C421 C426 1.490 . S
C422 H412 0.930 . S
C422 C421 1.400 . S
C422 C425 1.386 . S
H423 C439 0.930 . S
H424 C440 0.931 . S
C425 H413 0.929 . S
C425 C419 1.390 . S
C425 C422 1.386 . S
C426 C421 1.490 . S
C426 C428 1.395 1_455 S
C426 C429 1.403 . S
H427 C433 0.930 . S
C428 H414 0.930 . S
C428 C426 1.395 1_655 S
C428 C431 1.403 . S
C429 C426 1.403 . S
C429 C430 1.524 1_545 S
C429 C433 1.400 . S
C430 H415 0.960 . S
C430 H416 0.960 . S
C430 H417 0.960 . S
C430 C429 1.524 1_565 S
C431 C428 1.403 . S
C431 C432 1.392 1_655 S
C431 C435 1.495 . S
C432 C431 1.392 1_455 S
C432 C433 1.385 . S
C432 C434 1.478 1_455 S
C433 H427 0.930 . S
C433 C429 1.400 . S
C433 C432 1.385 . S
C434 C432 1.478 1_655 S
C434 C436 1.381 . S
C434 C440 1.383 1_655 S
C435 C431 1.495 . S
C435 H441 0.959 . S
C435 H442 0.961 . S
C435 H443 0.960 . S
C436 C434 1.381 . S
C436 C437 1.394 . S
C436 H444 0.930 . S
C437 C436 1.394 . S
C437 C438 1.383 . S
C437 H445 0.929 . S
C438 C437 1.383 . S
C438 C439 1.377 1_655 S
C439 H423 0.930 . S
C439 C438 1.377 1_455 S
C439 C440 1.379 . S
C440 H424 0.931 . S
C440 C434 1.383 1_455 S
C440 C439 1.379 . S
H441 C435 0.959 . S
H442 C435 0.961 . S
H443 C435 0.960 . S
H444 C436 0.930 . S
H445 C437 0.929 . S
H446 C454 0.929 . S
H447 C456 0.930 . S
H448 C458 0.930 . S
H449 C461 0.929 . S
H450 C464 0.930 . S
H451 C466 0.960 . S
H452 C466 0.960 . S
H453 C466 0.960 . S
C454 H446 0.929 . S
C454 C455 1.377 . S
C454 C456 1.384 . S
C455 C454 1.377 . S
C455 C461 1.390 . S
C456 H447 0.930 . S
C456 C454 1.384 . S
C456 C457 1.372 . S
C457 C456 1.372 . S
C457 C458 1.400 . S
C457 C462 1.490 . S
C458 H448 0.930 . S
C458 C457 1.400 . S
C458 C461 1.386 . S
H459 C475 0.930 . S
H460 C476 0.931 . S
C461 H449 0.929 . S
C461 C455 1.390 . S
C461 C458 1.386 . S
C462 C457 1.490 . S
C462 C464 1.395 . S
C462 C465 1.403 . S
H463 C469 0.930 . S
C464 H450 0.930 . S
C464 C462 1.395 . S
C464 C467 1.403 . S
C465 C462 1.403 . S
C465 C466 1.524 . S
C465 C469 1.400 . S
C466 H451 0.960 . S
C466 H452 0.960 . S
C466 H453 0.960 . S
C466 C465 1.524 . S
C467 C464 1.403 . S
C467 C468 1.392 . S
C467 C471 1.495 . S
C468 C467 1.392 . S
C468 C469 1.385 . S
C468 C470 1.478 . S
C469 H463 0.930 . S
C469 C465 1.400 . S
C469 C468 1.385 . S
C470 C468 1.478 . S
C470 C472 1.381 . S
C470 C476 1.383 . S
C471 C467 1.495 . S
C471 H477 0.959 . S
C471 H478 0.961 . S
C471 H479 0.960 . S
C472 C470 1.381 . S
C472 C473 1.394 . S
C472 H480 0.930 . S
C473 C472 1.394 . S
C473 C474 1.383 . S
C473 H481 0.929 . S
C474 C473 1.383 . S
C474 C475 1.377 . S
C475 H459 0.930 . S
C475 C474 1.377 . S
C475 C476 1.379 . S
C476 H460 0.931 . S
C476 C470 1.383 . S
C476 C475 1.379 . S
H477 C471 0.959 . S
H478 C471 0.961 . S
H479 C471 0.960 . S
H480 C472 0.930 . S
H481 C473 0.929 . S
H482 C490 0.929 . S
H483 C492 0.930 . S
H484 C494 0.930 . S
H485 C497 0.929 . S
H486 C500 0.930 . S
H487 C502 0.960 . S
H488 C502 0.960 . S
H489 C502 0.960 . S
C490 H482 0.929 . S
C490 C491 1.377 . S
C490 C492 1.384 . S
C491 C490 1.377 . S
C491 C497 1.390 . S
C492 H483 0.930 . S
C492 C490 1.384 . S
C492 C493 1.372 . S
C493 C492 1.372 . S
C493 C494 1.400 . S
C493 C498 1.490 . S
C494 H484 0.930 . S
C494 C493 1.400 . S
C494 C497 1.386 . S
H495 C511 0.930 . S
H496 C512 0.931 . S
C497 H485 0.929 . S
C497 C491 1.390 . S
C497 C494 1.386 . S
C498 C493 1.490 . S
C498 C500 1.395 . S
C498 C501 1.403 . S
H499 C505 0.930 . S
C500 H486 0.930 . S
C500 C498 1.395 . S
C500 C503 1.403 . S
C501 C498 1.403 . S
C501 C502 1.524 . S
C501 C505 1.400 . S
C502 H487 0.960 . S
C502 H488 0.960 . S
C502 H489 0.960 . S
C502 C501 1.524 . S
C503 C500 1.403 . S
C503 C504 1.392 . S
C503 C507 1.495 . S
C504 C503 1.392 . S
C504 C505 1.385 . S
C504 C506 1.478 . S
C505 H499 0.930 . S
C505 C501 1.400 . S
C505 C504 1.385 . S
C506 C504 1.478 . S
C506 C508 1.381 . S
C506 C512 1.383 . S
C507 C503 1.495 . S
C507 H513 0.959 . S
C507 H514 0.961 . S
C507 H515 0.960 . S
C508 C506 1.381 . S
C508 C509 1.394 . S
C508 H516 0.930 . S
C509 C508 1.394 . S
C509 C510 1.383 . S
C509 H517 0.929 . S
C510 C509 1.383 . S
C510 C511 1.377 . S
C511 H495 0.930 . S
C511 C510 1.377 . S
C511 C512 1.379 . S
C512 H496 0.931 . S
C512 C506 1.383 . S
C512 C511 1.379 . S
H513 C507 0.959 . S
H514 C507 0.961 . S
H515 C507 0.960 . S
H516 C508 0.930 . S
H517 C509 0.929 . S
C114 C79 1.430 . S
C95 C15 1.277 . S
C131 C13 1.371 . S
C150 C74 1.341 . S
C167 C18 1.255 1_554 S
C186 C85 1.395 . S
C203 C17 1.409 . S
C222 C68 1.446 . S
C239 C36 1.290 . S
C258 C57 1.434 1_565 S
C275 C34 1.369 . S
C294 C52 1.354 . S
C330 C63 1.409 . S
C311 C39 1.261 . S
C366 C46 1.436 . S
C347 C38 1.413 . S
C383 C14 1.579 . S
C402 C47 1.619 . S
C419 C16 1.379 . S
C438 C58 1.413 . S
C474 C69 1.626 . S
C455 C35 1.576 . S
C491 C37 1.377 . S
C510 C80 1.418 . S
