# Generated by pormake.
# Topology zzz, (3,6)-cn, num edge types: 1
# Building blocks:
#     Node 0, Type 0, BuildingBlock: BELTOD_clean_linker_0, # of connection points: 3
#     Node 1, Type 0, BuildingBlock: BELTOD_clean_linker_0, # of connection points: 3
#     Node 2, Type 0, BuildingBlock: BELTOD_clean_linker_0, # of connection points: 3
#     Node 3, Type 0, BuildingBlock: BELTOD_clean_linker_0, # of connection points: 3
#     Node 4, Type 0, BuildingBlock: BELTOD_clean_linker_0, # of connection points: 3
#     Node 5, Type 0, BuildingBlock: BELTOD_clean_linker_0, # of connection points: 3
#     Node 6, Type 0, BuildingBlock: BELTOD_clean_linker_0, # of connection points: 3
#     Node 7, Type 0, BuildingBlock: BELTOD_clean_linker_0, # of connection points: 3
#     Node 8, Type 1, BuildingBlock: KUMBOL_clean_sbu_1, # of connection points: 6
#     Node 9, Type 1, BuildingBlock: KUMBOL_clean_sbu_1, # of connection points: 6
#     Node 10, Type 1, BuildingBlock: KUMBOL_clean_sbu_1, # of connection points: 6
#     Node 11, Type 1, BuildingBlock: KUMBOL_clean_sbu_1, # of connection points: 6
#     Edge 12, Type (0, 1), BuildingBlock: XUDNAN_clean_linker_2, # of connection points: 2
#     Edge 13, Type (0, 1), BuildingBlock: XUDNAN_clean_linker_2, # of connection points: 2
#     Edge 14, Type (0, 1), BuildingBlock: XUDNAN_clean_linker_2, # of connection points: 2
#     Edge 15, Type (0, 1), BuildingBlock: XUDNAN_clean_linker_2, # of connection points: 2
#     Edge 16, Type (0, 1), BuildingBlock: XUDNAN_clean_linker_2, # of connection points: 2
#     Edge 17, Type (0, 1), BuildingBlock: XUDNAN_clean_linker_2, # of connection points: 2
#     Edge 18, Type (0, 1), BuildingBlock: XUDNAN_clean_linker_2, # of connection points: 2
#     Edge 19, Type (0, 1), BuildingBlock: XUDNAN_clean_linker_2, # of connection points: 2
#     Edge 20, Type (0, 1), BuildingBlock: XUDNAN_clean_linker_2, # of connection points: 2
#     Edge 21, Type (0, 1), BuildingBlock: XUDNAN_clean_linker_2, # of connection points: 2
#     Edge 22, Type (0, 1), BuildingBlock: XUDNAN_clean_linker_2, # of connection points: 2
#     Edge 23, Type (0, 1), BuildingBlock: XUDNAN_clean_linker_2, # of connection points: 2
#     Edge 24, Type (0, 1), BuildingBlock: XUDNAN_clean_linker_2, # of connection points: 2
#     Edge 25, Type (0, 1), BuildingBlock: XUDNAN_clean_linker_2, # of connection points: 2
#     Edge 26, Type (0, 1), BuildingBlock: XUDNAN_clean_linker_2, # of connection points: 2
#     Edge 27, Type (0, 1), BuildingBlock: XUDNAN_clean_linker_2, # of connection points: 2
#     Edge 28, Type (0, 1), BuildingBlock: XUDNAN_clean_linker_2, # of connection points: 2
#     Edge 29, Type (0, 1), BuildingBlock: XUDNAN_clean_linker_2, # of connection points: 2
#     Edge 30, Type (0, 1), BuildingBlock: XUDNAN_clean_linker_2, # of connection points: 2
#     Edge 31, Type (0, 1), BuildingBlock: XUDNAN_clean_linker_2, # of connection points: 2
#     Edge 32, Type (0, 1), BuildingBlock: XUDNAN_clean_linker_2, # of connection points: 2
#     Edge 33, Type (0, 1), BuildingBlock: XUDNAN_clean_linker_2, # of connection points: 2
#     Edge 34, Type (0, 1), BuildingBlock: XUDNAN_clean_linker_2, # of connection points: 2
#     Edge 35, Type (0, 1), BuildingBlock: XUDNAN_clean_linker_2, # of connection points: 2
# Relax obj value: 0.301
# Max RMSD: 0.193
# Mean RMSD: 0.172
data_MOF--net-zzz--node1-KUMBOL_clean_sbu_1--node2-BELTOD_clean_linker_0--edge1-XUDNAN_clean_linker_2
_symmetry_space_group_name_H-M    P1
_symmetry_Int_Tables_number       1
_symmetry_cell_setting            triclinic
loop_
_symmetry_equiv_pos_as_xyz
'x, y, z'
_cell_length_a     53.143698
_cell_length_b     53.357437
_cell_length_c     19.602651
_cell_angle_alpha  90.081697
_cell_angle_beta   89.845274
_cell_angle_gamma 90.451373
loop_
_atom_site_label
_atom_site_type_symbol
_atom_site_fract_x
_atom_site_fract_y
_atom_site_fract_z
_atom_type_partial_charge
P0 P 0.72531 0.5184 0.29783 0.0
H1 H 0.74611 0.49161 0.41629 0.0
H2 H 0.78514 0.49809 0.47817 0.0
H3 H 0.79043 0.57314 0.39722 0.0
H4 H 0.75072 0.56689 0.33781 0.0
H5 H 0.68363 0.4866 0.25089 0.0
H6 H 0.65019 0.4938 0.17086 0.0
H7 H 0.66392 0.57356 0.18472 0.0
H8 H 0.69599 0.56617 0.27126 0.0
H9 H 0.76181 0.49032 0.21815 0.0
H10 H 0.73383 0.56614 0.2253 0.0
O11 O 0.72553 0.48713 0.30238 0.0
H12 H 0.79282 0.5033 0.13351 0.0
H13 H 0.76452 0.57888 0.14002 0.0
C14 C 0.74509 0.5285 0.37017 0.0
C15 C 0.75504 0.50987 0.4132 0.0
C16 C 0.77798 0.5134 0.44794 0.0
C17 C 0.79195 0.53583 0.44149 0.0
C18 C 0.78072 0.5554 0.4038 0.0
C19 C 0.75761 0.55187 0.36938 0.0
C20 C 0.69352 0.52574 0.26659 0.0
C21 C 0.67917 0.50584 0.23901 0.0
C22 C 0.66011 0.50996 0.19103 0.0
C23 C 0.65472 0.53422 0.1674 0.0
C24 C 0.66743 0.55442 0.19986 0.0
C25 C 0.68621 0.55022 0.24954 0.0
C26 C 0.74499 0.52702 0.22726 0.0
C27 C 0.76184 0.50956 0.20071 0.0
C28 C 0.7797 0.51705 0.15297 0.0
C29 C 0.78104 0.54216 0.13162 0.0
C30 C 0.76367 0.55946 0.15604 0.0
C31 C 0.74588 0.55197 0.20417 0.0
P32 P 1.00542 0.73173 0.28862 0.0
H33 H 0.02464 0.74134 0.4275 0.0
H34 H 0.02081 0.77914 0.49737 0.0
H35 H 0.95725 0.80233 0.37789 0.0
H36 H 0.95994 0.76372 0.31095 0.0
H37 H 0.04015 0.69489 0.23259 0.0
H38 H 0.03437 0.66151 0.15058 0.0
H39 H 0.95412 0.66438 0.18188 0.0
H40 H 0.96012 0.69774 0.26753 0.0
H41 H 0.02488 0.77981 0.24642 0.0
H42 H 0.96476 0.72977 0.18421 0.0
O43 O 0.03659 0.73474 0.29662 0.0
H44 H 0.00826 0.81186 0.17062 0.0
H45 H 0.94902 0.7614 0.10705 0.0
C46 C 0.99301 0.74938 0.36207 0.0
C47 C 0.00903 0.75378 0.41802 0.0
C48 C 0.00715 0.77583 0.45739 0.0
C49 C 0.98935 0.7944 0.44159 0.0
C50 C 0.9717 0.78889 0.39025 0.0
C51 C 0.97306 0.76639 0.35246 0.0
C52 C 1.00057 0.69958 0.25658 0.0
C53 C 0.02123 0.68786 0.22483 0.0
C54 C 0.01793 0.66858 0.17684 0.0
C55 C 0.99376 0.66045 0.15776 0.0
C56 C 0.97307 0.67043 0.19414 0.0
C57 C 0.9765 0.68939 0.24401 0.0
C58 C 0.99677 0.75192 0.21966 0.0
C59 C 0.00863 0.77536 0.21529 0.0
C60 C 0.99879 0.79382 0.1735 0.0
C61 C 0.97707 0.78899 0.1351 0.0
C62 C 0.96554 0.76543 0.13753 0.0
C63 C 0.97508 0.74711 0.18055 0.0
P64 P 0.7962 0.01043 0.29402 0.0
H65 H 0.78179 0.03198 0.42699 0.0
H66 H 0.74416 0.02467 0.49552 0.0
H67 H 0.73105 0.95527 0.38708 0.0
H68 H 0.76932 0.96201 0.32211 0.0
H69 H 0.82852 0.04457 0.22013 0.0
H70 H 0.86108 0.03833 0.13775 0.0
H71 H 0.86766 0.96114 0.2018 0.0
H72 H 0.83319 0.96751 0.28356 0.0
H73 H 0.75495 0.03378 0.22137 0.0
H74 H 0.79551 0.964 0.21292 0.0
O75 O 0.79268 0.04142 0.30101 0.0
H76 H 0.72949 0.02021 0.12503 0.0
H77 H 0.77013 0.95051 0.11544 0.0
C78 C 0.77859 0.99791 0.3674 0.0
C79 C 0.77146 0.01462 0.41963 0.0
C80 C 0.74933 0.01069 0.4581 0.0
C81 C 0.73351 0.98981 0.44591 0.0
C82 C 0.74223 0.97175 0.39869 0.0
C83 C 0.76453 0.97558 0.36091 0.0
C84 C 0.82811 0.00666 0.25977 0.0
C85 C 0.8374 0.0264 0.21908 0.0
C86 C 0.85641 0.02273 0.17066 0.0
C87 C 0.8674 0.99908 0.16096 0.0
C88 C 0.85949 0.97959 0.20561 0.0
C89 C 0.84001 0.9833 0.25401 0.0
C90 C 0.77776 1.00038 0.22262 0.0
C91 C 0.75874 0.01579 0.1981 0.0
C92 C 0.74427 0.00802 0.14306 0.0
C93 C 0.74857 0.98466 0.11196 0.0
C94 C 0.76699 0.96879 0.13791 0.0
C95 C 0.78158 0.97666 0.19302 0.0
P96 P 0.51878 0.80001 0.2894 0.0
H97 H 0.50073 0.79046 0.42961 0.0
H98 H 0.50432 0.75248 0.49826 0.0
H99 H 0.56616 0.728 0.37297 0.0
H100 H 0.56362 0.76677 0.30683 0.0
H101 H 0.48475 0.84008 0.24762 0.0
H102 H 0.49004 0.87409 0.16677 0.0
H103 H 0.57037 0.86495 0.17371 0.0
H104 H 0.56522 0.83144 0.25933 0.0
H105 H 0.49656 0.75285 0.24987 0.0
H106 H 0.55794 0.7999 0.17971 0.0
O107 O 0.48765 0.79824 0.3008 0.0
H108 H 0.51156 0.71918 0.17649 0.0
H109 H 0.57226 0.76653 0.10533 0.0
C110 C 0.53146 0.78179 0.36118 0.0
C111 C 0.51591 0.77766 0.41842 0.0
C112 C 0.51765 0.75548 0.45713 0.0
C113 C 0.53486 0.7365 0.43957 0.0
C114 C 0.55211 0.74171 0.38674 0.0
C115 C 0.55087 0.7643 0.34943 0.0
C116 C 0.52456 0.8323 0.25938 0.0
C117 C 0.50374 0.84593 0.23517 0.0
C118 C 0.50669 0.86561 0.18827 0.0
C119 C 0.53055 0.87221 0.16319 0.0
C120 C 0.55166 0.8604 0.19221 0.0
C121 C 0.54871 0.84112 0.24125 0.0
C122 C 0.52554 0.77934 0.21942 0.0
C123 C 0.51271 0.75633 0.21731 0.0
C124 C 0.52163 0.73692 0.17683 0.0
C125 C 0.54338 0.74031 0.13724 0.0
C126 C 0.55566 0.76357 0.1366 0.0
C127 C 0.54701 0.78288 0.17824 0.0
P128 P 0.29475 0.46095 0.03845 0.0
H129 H 0.28509 0.45543 0.89079 0.0
H130 H 0.24812 0.46539 0.82178 0.0
H131 H 0.21811 0.50918 0.98739 0.0
H132 H 0.25563 0.50007 0.05562 0.0
H133 H 0.33724 0.43522 0.09742 0.0
H134 H 0.37112 0.44801 0.17314 0.0
H135 H 0.34998 0.52537 0.14671 0.0
H136 H 0.31603 0.51219 0.06926 0.0
H137 H 0.25111 0.4282 0.0548 0.0
H138 H 0.29208 0.48214 0.17707 0.0
O139 O 0.30148 0.43331 1.0031 0.0
H140 H 0.21705 0.42813 0.13995 0.0
H141 H 0.25871 0.48148 0.26139 0.0
C142 C 0.27362 0.47701 0.97898 0.0
C143 C 0.27114 0.46798 0.91176 0.0
C144 C 0.24966 0.47334 0.87249 0.0
C145 C 0.22972 0.48751 0.89964 0.0
C146 C 0.23278 0.49772 0.96539 0.0
C147 C 0.25458 0.49286 1.00406 0.0
C148 C 0.32419 0.47269 0.07572 0.0
C149 C 0.34031 0.45507 0.1058 0.0
C150 C 0.35955 0.46241 0.15071 0.0
C151 C 0.36338 0.48778 0.16777 0.0
C152 C 0.34794 0.50564 0.13499 0.0
C153 C 0.32852 0.49818 0.08986 0.0
C154 C 0.27441 0.45479 0.10986 0.0
C155 C 0.25334 0.4391 0.10107 0.0
C156 C 0.23393 0.4391 0.14931 0.0
C157 C 0.23571 0.45453 0.20698 0.0
C158 C 0.25737 0.46907 0.21769 0.0
C159 C 0.27651 0.46935 0.16927 0.0
P160 P 0.06713 0.30019 0.02305 0.0
H161 H 0.07132 0.28989 0.87581 0.0
H162 H 0.06128 0.25225 0.80953 0.0
H163 H 0.01809 0.22308 0.97841 0.0
H164 H 0.02724 0.26121 0.04378 0.0
H165 H 0.095 0.34466 0.06123 0.0
H166 H 0.0862 0.37916 0.13769 0.0
H167 H 0.00836 0.3562 0.149 0.0
H168 H 0.0172 0.32138 0.06901 0.0
H169 H 0.10491 0.26227 0.05488 0.0
H170 H 0.03969 0.29461 0.15144 0.0
O171 O 0.09508 0.30553 0.98649 0.0
H172 H 0.1053 0.22946 0.14215 0.0
H173 H 0.03925 0.26243 0.23451 0.0
C174 C 0.05027 0.27875 0.96561 0.0
C175 C 0.05886 0.27596 0.89806 0.0
C176 C 0.0534 0.25413 0.86029 0.0
C177 C 0.03945 0.23423 0.88925 0.0
C178 C 0.02941 0.23772 0.95507 0.0
C179 C 0.03439 0.25984 0.99225 0.0
C180 C 0.05677 0.33031 0.05772 0.0
C181 C 0.07572 0.34735 0.0774 0.0
C182 C 0.07075 0.36706 0.12239 0.0
C183 C 0.04667 0.37033 0.15052 0.0
C184 C 0.02722 0.35402 0.12894 0.0
C185 C 0.03215 0.3344 0.0821 0.0
C186 C 0.07259 0.2813 0.09703 0.0
C187 C 0.0913 0.26295 0.09606 0.0
C188 C 0.09135 0.24409 0.14555 0.0
C189 C 0.07237 0.24321 0.19571 0.0
C190 C 0.05475 0.26268 0.19856 0.0
C191 C 0.05492 0.28145 0.15001 0.0
P192 P 0.22215 0.07778 0.02762 0.0
H193 H 0.24853 0.09352 0.90231 0.0
H194 H 0.28708 0.07946 0.84689 0.0
H195 H 0.28892 0.01567 0.98186 0.0
H196 H 0.25035 0.02999 0.03727 0.0
H197 H 0.17473 0.09961 0.06999 0.0
H198 H 0.14211 0.08522 0.14807 0.0
H199 H 0.17352 0.01082 0.14199 0.0
H200 H 0.20587 0.02541 0.0622 0.0
H201 H 0.26906 0.10518 0.04882 0.0
H202 H 0.21471 0.06588 0.17501 0.0
O203 O 0.21466 0.10491 0.99087 0.0
H204 H 0.29947 0.10308 0.14233 0.0
H205 H 0.24493 0.06369 0.26587 0.0
C206 C 0.24554 0.0624 0.97286 0.0
C207 C 0.25662 0.076 0.91876 0.0
C208 C 0.27918 0.06818 0.88764 0.0
C209 C 0.29154 0.04637 0.90941 0.0
C210 C 0.27999 0.03235 0.96237 0.0
C211 C 0.25752 0.04034 0.99388 0.0
C212 C 0.19277 0.0636 0.05843 0.0
C213 C 0.17404 0.07989 0.08282 0.0
C214 C 0.15559 0.07173 0.12934 0.0
C215 C 0.15517 0.04689 0.15338 0.0
C216 C 0.17289 0.03009 0.12502 0.0
C217 C 0.19145 0.03834 0.07831 0.0
C218 C 0.23981 0.08501 0.10337 0.0
C219 C 0.26325 0.09705 0.09699 0.0
C220 C 0.2805 0.09607 0.15043 0.0
C221 C 0.27423 0.08324 0.21051 0.0
C222 C 0.24988 0.07387 0.21987 0.0
C223 C 0.2327 0.07484 0.16677 0.0
P224 P 0.45263 0.23151 0.03413 0.0
H225 H 0.43867 0.25309 0.90185 0.0
H226 H 0.45139 0.29171 0.84473 0.0
H227 H 0.51414 0.2991 0.98229 0.0
H228 H 0.50073 0.26065 0.04141 0.0
H229 H 0.42863 0.18465 0.07159 0.0
H230 H 0.43884 0.15127 0.14911 0.0
H231 H 0.51327 0.18251 0.17649 0.0
H232 H 0.50253 0.21697 0.09751 0.0
H233 H 0.42267 0.2767 0.03099 0.0
H234 H 0.46283 0.23435 0.18297 0.0
O235 O 0.42631 0.22247 0.99446 0.0
H236 H 0.42669 0.31419 0.10179 0.0
H237 H 0.46633 0.27136 0.25343 0.0
C238 C 0.46908 0.25302 0.97546 0.0
C239 C 0.45572 0.26235 0.91882 0.0
C240 C 0.4627 0.28496 0.88664 0.0
C241 C 0.48365 0.29893 0.909 0.0
C242 C 0.49791 0.28892 0.96323 0.0
C243 C 0.49055 0.26651 0.9965 0.0
C244 C 0.46492 0.20331 0.07609 0.0
C245 C 0.44753 0.18419 0.09191 0.0
C246 C 0.4534 0.16491 0.13733 0.0
C247 C 0.47701 0.16378 0.16957 0.0
C248 C 0.49484 0.18268 0.15311 0.0
C249 C 0.48889 0.20218 0.10671 0.0
C250 C 0.44341 0.25296 0.10007 0.0
C251 C 0.43126 0.27508 0.08081 0.0
C252 C 0.4335 0.29649 0.12119 0.0
C253 C 0.44725 0.29562 0.18205 0.0
C254 C 0.4557 0.27248 0.20644 0.0
C255 C 0.45392 0.25124 0.16542 0.0
C256 C 0.08519 0.03621 0.77553 0.0
C257 C 0.07216 0.05125 0.88735 0.0
C258 C 0.06663 0.03871 0.8257 0.0
C259 C 0.09629 0.06139 0.89777 0.0
C260 C 0.10938 0.04654 0.78593 0.0
C261 C 0.1148 0.0591 0.84721 0.0
N262 N 0.0797 0.02346 0.71712 0.0
C263 C 0.09746 0.02021 0.66753 0.0
C264 C 0.12758 0.04359 0.73483 0.0
C265 C 0.12158 0.03042 0.67538 0.0
Gd266 Gd 0.98592 0.0291 0.60363 0.0
Gd267 Gd 0.04058 1.00336 0.71746 0.0
N268 N 0.04332 0.02873 0.81449 0.0
C269 C 0.0533 0.05303 0.93714 0.0
C270 C 0.02519 0.02972 0.86376 0.0
C271 C 0.02974 0.04217 0.92528 0.0
H272 H 0.00765 0.02002 0.85746 0.0
H273 H 0.01526 0.04287 0.96415 0.0
H274 H 0.01454 0.02392 0.45096 0.0
H275 H 0.09351 0.00896 0.62303 0.0
H276 H 0.0095 1.00014 0.34444 0.0
H277 H 0.05684 0.06247 0.98518 0.0
H278 H 0.10086 0.07101 0.9449 0.0
H279 H 0.93197 0.02194 0.69184 0.0
H280 H 0.14642 0.05115 0.74111 0.0
H281 H 0.13568 0.02767 0.63619 0.0
H282 H 0.92955 0.959 0.37073 0.0
H283 H 0.13335 0.06699 0.85622 0.0
H284 H 0.88261 0.97506 0.575 0.0
H285 H 0.89134 0.99988 0.67907 0.0
N286 N 0.94664 0.00886 0.59727 0.0
C287 C 0.94203 0.99572 0.53901 0.0
C288 C 0.92871 0.01064 0.647 0.0
C289 C 0.90064 0.98444 0.58067 0.0
C290 C 0.90552 0.99839 0.63958 0.0
C291 C 0.91894 0.98304 0.52933 0.0
H292 H 0.8971 0.95973 0.4604 0.0
N293 N 0.98233 0.00799 0.49877 0.0
C294 C 0.96041 0.99522 0.48841 0.0
C295 C 0.97435 0.98329 0.37552 0.0
C296 C 0.956 0.98221 0.42681 0.0
C297 C 0.99914 0.01091 0.44666 0.0
C298 C 0.99581 0.99809 0.38508 0.0
O299 O 0.03892 0.04607 0.70389 0.0
O300 O 0.99661 0.05213 0.69581 0.0
O301 O 0.99084 0.06102 0.53845 0.0
O302 O 0.95405 0.05432 0.58682 0.0
O303 O 1.00027 0.9929 0.74754 0.0
O304 O 0.97703 0.02711 0.71678 0.0
O305 O 0.98797 0.98618 0.60702 0.0
O306 O 0.0286 0.97528 0.63696 0.0
O307 O 0.04162 0.97988 0.80629 0.0
O308 O 0.07194 0.97775 0.7323 0.0
O309 O 0.02676 0.03578 0.56824 0.0
O310 O 0.04877 1.00146 0.60464 0.0
C311 C 0.01928 0.0609 0.70746 0.0
C312 C 0.98036 0.00719 0.75499 0.0
C313 C 0.95857 0.09111 0.51323 0.0
C314 C 0.96767 0.12651 0.43916 0.0
C315 C 0.92742 0.12362 0.49741 0.0
C316 C 0.93467 0.10096 0.52715 0.0
C317 C 0.94395 0.13654 0.454 0.0
C318 C 0.97474 0.10386 0.46872 0.0
C319 C 0.96775 0.06847 0.54718 0.0
C320 C 0.93322 0.96916 0.41762 0.0
C321 C 0.91472 0.96961 0.46866 0.0
H322 H 0.97167 0.97357 0.32748 0.0
C323 C 1.00639 0.96981 0.61107 0.0
C324 C 0.04511 0.01949 0.56034 0.0
C325 C 0.06483 0.94231 0.80371 0.0
C326 C 0.04756 0.90474 0.85657 0.0
C327 C 0.0917 0.90656 0.82457 0.0
C328 C 0.08852 0.93093 0.80034 0.0
C329 C 0.07137 0.89353 0.85312 0.0
C330 C 0.04433 0.92889 0.83065 0.0
C331 C 0.06266 0.96917 0.78922 0.0
H332 H 0.90909 0.13132 0.50865 0.0
H333 H 0.92186 0.09144 0.56169 0.0
H334 H 0.93824 0.15421 0.43197 0.0
H335 H 0.9934 0.09661 0.45852 0.0
H336 H 0.11011 0.89804 0.82297 0.0
H337 H 0.1047 0.94118 0.78101 0.0
H338 H 0.0744 0.87502 0.87409 0.0
H339 H 0.02593 0.93749 0.83373 0.0
C340 C 0.51423 0.92915 0.59609 0.0
C341 C 0.48129 0.90703 0.65788 0.0
C342 C 0.49199 0.92954 0.63308 0.0
C343 C 0.49449 0.88451 0.65061 0.0
C344 C 0.52669 0.90627 0.58462 0.0
C345 C 0.5172 0.88415 0.61419 0.0
N346 N 0.52232 0.9507 0.566 0.0
C347 C 0.54154 0.95024 0.51957 0.0
C348 C 0.54753 0.90608 0.54091 0.0
C349 C 0.55468 0.92806 0.50723 0.0
Gd350 Gd 0.52061 0.04191 0.7193 0.0
Gd351 Gd 0.49937 0.98705 0.59274 0.0
N352 N 0.47948 0.9515 0.63837 0.0
C353 C 0.45688 0.90757 0.68483 0.0
C354 C 0.45463 0.95137 0.65567 0.0
C355 C 0.44317 0.92972 0.68153 0.0
H356 H 0.44321 0.96759 0.64659 0.0
H357 H 0.42359 0.92996 0.69685 0.0
H358 H 0.56036 0.05311 0.58764 0.0
H359 H 0.5468 0.96693 0.49173 0.0
H360 H 0.58237 0.08906 0.53604 0.0
H361 H 0.44786 0.89066 0.70374 0.0
H362 H 0.48672 0.8671 0.67013 0.0
H363 H 0.47527 0.06622 0.82191 0.0
H364 H 0.55757 0.88888 0.53064 0.0
H365 H 0.57021 0.92791 0.47142 0.0
H366 H 0.54656 0.1603 0.64812 0.0
H367 H 0.52666 0.86645 0.6065 0.0
H368 H 0.4811 0.14601 0.81193 0.0
H369 H 0.46072 0.1078 0.85794 0.0
N370 N 0.50287 0.08048 0.75249 0.0
C371 C 0.51399 0.10129 0.72571 0.0
C372 C 0.48367 0.08264 0.79885 0.0
C373 C 0.48724 0.12776 0.79456 0.0
C374 C 0.47562 0.10624 0.82046 0.0
C375 C 0.50659 0.1255 0.74648 0.0
H376 H 0.51337 0.16537 0.73452 0.0
N377 N 0.53904 0.07493 0.65664 0.0
C378 C 0.53275 0.09844 0.67695 0.0
C379 C 0.56285 0.11621 0.59743 0.0
C380 C 0.54454 0.11972 0.64788 0.0
C381 C 0.55644 0.07151 0.60629 0.0
C382 C 0.56864 0.09199 0.57609 0.0
O383 O 0.51672 0.97457 0.692 0.0
O384 O 0.50686 1.00549 0.7692 0.0
O385 O 0.55624 0.03587 0.76712 0.0
O386 O 0.5272 0.05717 0.82192 0.0
O387 O 0.46774 1.00478 0.65711 0.0
O388 O 0.4804 0.03184 0.74354 0.0
O389 O 0.50339 0.05491 0.61795 0.0
O390 O 0.51452 0.02278 0.54653 0.0
O391 O 0.46527 0.9955 0.53842 0.0
O392 O 0.49176 0.96841 0.49628 0.0
O393 O 0.55249 0.01819 0.67445 0.0
O394 O 0.53934 1.00072 0.57231 0.0
C395 C 0.51406 0.98243 0.75522 0.0
C396 C 0.46288 0.01953 0.71 0.0
C397 C 0.56672 0.04915 0.88056 0.0
C398 C 0.60249 0.03242 0.94059 0.0
C399 C 0.57969 0.06753 0.98822 0.0
C400 C 0.56332 0.06695 0.93252 0.0
C401 C 0.5994 0.0504 0.99213 0.0
C402 C 0.58618 0.03178 0.88531 0.0
C403 C 0.54952 0.04744 0.82286 0.0
C404 C 0.53758 0.14378 0.66954 0.0
C405 C 0.51866 0.14667 0.71868 0.0
H406 H 0.57229 0.13207 0.57383 0.0
C407 C 0.50566 0.04542 0.55601 0.0
C408 C 0.55717 1.00626 0.61681 0.0
C409 C 0.45859 0.98233 0.4231 0.0
C410 C 0.42241 0.99608 0.35801 0.0
C411 C 0.45524 0.97178 0.30303 0.0
C412 C 0.46846 0.9708 0.36452 0.0
C413 C 0.43231 0.98438 0.29957 0.0
C414 C 0.43549 0.99451 0.41952 0.0
C415 C 0.46996 0.9791 0.49045 0.0
H416 H 0.57718 0.08132 0.02816 0.0
H417 H 0.54811 0.08031 0.93003 0.0
H418 H 0.61222 0.05118 0.03496 0.0
H419 H 0.58885 0.01777 0.8458 0.0
H420 H 0.46276 0.96275 0.25799 0.0
H421 H 0.486 0.96065 0.3665 0.0
H422 H 0.42261 0.98531 0.25114 0.0
H423 H 0.4273 1.00239 0.46545 0.0
C424 C 0.43601 0.49334 0.77751 0.0
C425 C 0.44909 0.47555 0.88602 0.0
C426 C 0.45459 0.48967 0.82702 0.0
C427 C 0.42463 0.46615 0.89632 0.0
C428 C 0.41157 0.48349 0.78747 0.0
C429 C 0.40594 0.47016 0.84739 0.0
N430 N 0.44173 0.5066 0.72007 0.0
C431 C 0.42409 0.5107 0.67098 0.0
C432 C 0.39337 0.48759 0.73725 0.0
C433 C 0.3997 0.50112 0.67865 0.0
Gd434 Gd 0.53637 0.50236 0.60764 0.0
Gd435 Gd 0.48068 0.52677 0.72397 0.0
N436 N 0.47803 0.49964 0.81713 0.0
C437 C 0.46834 0.47137 0.93321 0.0
C438 C 0.49676 0.49592 0.86336 0.0
C439 C 0.4923 0.48143 0.92152 0.0
H440 H 0.51504 0.50423 0.85621 0.0
H441 H 0.50723 0.47839 0.95795 0.0
H442 H 0.50989 0.50414 0.45391 0.0
H443 H 0.42836 0.52224 0.62724 0.0
H444 H 0.51708 0.52433 0.34248 0.0
H445 H 0.46487 0.46047 0.97892 0.0
H446 H 0.42 0.4556 0.94192 0.0
H447 H 0.59099 0.50844 0.69617 0.0
H448 H 0.37433 0.48051 0.74342 0.0
H449 H 0.38564 0.50464 0.64005 0.0
H450 H 0.59787 0.56409 0.36651 0.0
H451 H 0.38718 0.46275 0.85624 0.0
H452 H 0.64216 0.55199 0.57613 0.0
H453 H 0.63206 0.5291 0.68241 0.0
N454 N 0.57653 0.52138 0.60115 0.0
C455 C 0.58213 0.53301 0.54117 0.0
C456 C 0.59441 0.51938 0.65085 0.0
C457 C 0.62371 0.5435 0.58255 0.0
C458 C 0.61806 0.53067 0.64269 0.0
C459 C 0.60581 0.54452 0.53046 0.0
H460 H 0.62921 0.56503 0.45859 0.0
N461 N 0.54248 0.52001 0.49955 0.0
C462 C 0.56462 0.53226 0.48883 0.0
C463 C 0.55242 0.541 0.37257 0.0
C464 C 0.57013 0.54325 0.42505 0.0
C465 C 0.52608 0.51611 0.44718 0.0
C466 C 0.53044 0.52705 0.38345 0.0
O467 O 0.4841 0.4841 0.70743 0.0
O468 O 0.52639 0.48331 0.70632 0.0
O469 O 0.52854 0.46689 0.55706 0.0
O470 O 0.5671 0.47657 0.588 0.0
O471 O 0.51916 0.53808 0.76302 0.0
O472 O 0.54737 0.50946 0.71894 0.0
O473 O 0.52628 0.54318 0.58244 0.0
O474 O 0.50491 0.55766 0.67781 0.0
O475 O 0.47211 0.5463 0.81765 0.0
O476 O 0.45064 0.5542 0.72633 0.0
O477 O 0.49549 0.49583 0.57406 0.0
O478 O 0.47362 0.53024 0.61081 0.0
C479 C 0.50502 0.4713 0.71372 0.0
C480 C 0.54139 0.5274 0.76253 0.0
C481 C 0.56096 0.43615 0.53342 0.0
C482 C 0.55471 0.40049 0.45846 0.0
C483 C 0.59219 0.40317 0.52809 0.0
C484 C 0.58397 0.42603 0.55476 0.0
C485 C 0.57767 0.39044 0.47962 0.0
C486 C 0.54632 0.42314 0.48573 0.0
C487 C 0.55205 0.46018 0.56037 0.0
C488 C 0.59332 0.55549 0.4151 0.0
C489 C 0.61115 0.55604 0.46758 0.0
H490 H 0.55592 0.54923 0.32291 0.0
C491 C 0.51759 0.56161 0.62072 0.0
C492 C 0.47795 0.51285 0.56488 0.0
C493 C 0.45717 0.5875 0.80379 0.0
C494 C 0.48008 0.62392 0.84749 0.0
C495 C 0.43693 0.628 0.80785 0.0
C496 C 0.43611 0.60252 0.79235 0.0
C497 C 0.45867 0.63866 0.83556 0.0
C498 C 0.47925 0.59831 0.83083 0.0
C499 C 0.45532 0.56052 0.78929 0.0
H500 H 0.6099 0.3954 0.54469 0.0
H501 H 0.5955 0.4357 0.59209 0.0
H502 H 0.5843 0.37289 0.45864 0.0
H503 H 0.52859 0.43082 0.46856 0.0
H504 H 0.42052 0.63946 0.79944 0.0
H505 H 0.41893 0.59445 0.77195 0.0
H506 H 0.45842 0.65831 0.84941 0.0
H507 H 0.49567 0.58683 0.83948 0.0
C508 C 0.03071 0.44156 0.7581 0.0
C509 C 0.04574 0.45151 0.8719 0.0
C510 C 0.03325 0.45849 0.81143 0.0
C511 C 0.05638 0.42759 0.87695 0.0
C512 C 0.04031 0.41707 0.76444 0.0
C513 C 0.05365 0.4104 0.82338 0.0
N514 N 0.01698 0.44826 0.70274 0.0
C515 C 0.01033 0.43073 0.65509 0.0
C516 C 0.03517 0.39963 0.71284 0.0
C517 C 0.01976 0.40639 0.65848 0.0
Gd518 Gd 0.02621 0.54678 0.59379 0.0
Gd519 Gd 1.00162 0.48955 0.70226 0.0
N520 N 0.02217 0.48125 0.80586 0.0
C521 C 0.04637 0.46845 0.92646 0.0
C522 C 0.02111 0.49701 0.8608 0.0
C523 C 0.0337 0.49117 0.92116 0.0
H524 H 0.01053 0.51407 0.85843 0.0
H525 H 0.03329 0.50402 0.96392 0.0
H526 H 1.00111 0.51009 0.46357 0.0
H527 H 0.99683 0.43525 0.61605 0.0
H528 H 0.9738 0.51551 0.36605 0.0
H529 H 0.05584 0.46382 0.97363 0.0
H530 H 0.06612 0.42195 0.92287 0.0
H531 H 0.02116 0.59958 0.68353 0.0
H532 H 0.04207 0.38062 0.71604 0.0
H533 H 0.01461 0.3927 0.62008 0.0
H534 H 0.94859 0.60121 0.37827 0.0
H535 H 0.06123 0.39173 0.82896 0.0
H536 H 0.97513 0.65 0.5703 0.0
H537 H 1.00151 0.64104 0.67096 0.0
N538 N 1.00488 0.58477 0.59298 0.0
C539 C 0.9907 0.58931 0.53676 0.0
C540 C 0.00897 0.60298 0.64062 0.0
C541 C 0.98335 0.63161 0.57615 0.0
C542 C 0.99814 0.6266 0.63319 0.0
C543 C 0.97939 0.61288 0.52718 0.0
H544 H 0.95595 0.63516 0.46075 0.0
N545 N 0.99841 0.54767 0.49923 0.0
C546 C 0.98716 0.57024 0.48903 0.0
C547 C 0.96676 0.55436 0.38735 0.0
C548 C 0.97138 0.57423 0.43219 0.0
C549 C 0.99347 0.52818 0.45579 0.0
C550 C 0.9776 0.53116 0.39978 0.0
O551 O 0.04141 0.50288 0.72993 0.0
O552 O 0.05527 0.51834 0.62752 0.0
O553 O 0.04579 0.56248 0.50669 0.0
O554 O 0.05583 0.5745 0.60885 0.0
O555 O 0.99542 0.52867 0.74699 0.0
O556 O 0.02787 0.55388 0.70804 0.0
O557 O 0.98484 0.5442 0.62288 0.0
O558 O 0.97931 0.50244 0.60978 0.0
O559 O 0.96632 0.49862 0.75048 0.0
O560 O 0.97561 0.45933 0.73013 0.0
O561 O 0.03606 0.50956 0.54572 0.0
O562 O 0.01101 0.47801 0.59232 0.0
C563 C 0.05992 0.50977 0.68913 0.0
C564 C 0.0104 0.54838 0.75348 0.0
C565 C 0.08816 0.57367 0.5268 0.0
C566 C 0.12375 0.551 0.47995 0.0
C567 C 0.12979 0.59264 0.52716 0.0
C568 C 0.10417 0.59387 0.54243 0.0
C569 C 0.13958 0.57131 0.49592 0.0
C570 C 0.09804 0.55212 0.49551 0.0
C571 C 0.06135 0.57549 0.54411 0.0
C572 C 0.96044 0.59778 0.42214 0.0
C573 C 0.96456 0.61709 0.46923 0.0
H574 H 0.9546 0.55663 0.34354 0.0
C575 C 0.9699 0.52517 0.60862 0.0
C576 C 0.02696 0.48643 0.54556 0.0
C577 C 0.93511 0.46767 0.78255 0.0
C578 C 0.89616 0.47963 0.83681 0.0
C579 C 0.90395 0.43592 0.81187 0.0
C580 C 0.92733 0.44244 0.78388 0.0
C581 C 0.88838 0.45449 0.83878 0.0
C582 C 0.91932 0.48615 0.80868 0.0
C583 C 0.9593 0.4752 0.75323 0.0
H584 H 0.14207 0.60828 0.53942 0.0
H585 H 0.09682 0.61058 0.56656 0.0
H586 H 0.15949 0.57064 0.4841 0.0
H587 H 0.08589 0.53632 0.48335 0.0
H588 H 0.898 0.41648 0.81323 0.0
H589 H 0.93925 0.42785 0.76346 0.0
H590 H 0.87051 0.44929 0.86167 0.0
H591 H 0.92514 0.50569 0.80849 0.0
H592 H 0.13672 0.07453 0.26426 0.0
H593 H 0.13198 1.00086 0.17018 0.0
H594 H 0.10415 0.98666 0.2632 0.0
H595 H 0.13635 0.05369 0.43867 0.0
H596 H 0.11701 0.07886 0.46979 0.0
H597 H 0.13684 0.08362 0.39615 0.0
H598 H 0.0982 0.09728 0.32581 0.0
H599 H 0.07828 0.09266 0.39931 0.0
H600 H 0.07115 0.07678 0.32039 0.0
H601 H 0.07877 0.97922 0.36971 0.0
H602 H 0.05438 0.9802 0.47712 0.0
H603 H 0.07133 0.05937 0.49967 0.0
C604 C 0.12959 0.05548 0.26236 0.0
C605 C 0.13704 0.03882 0.20909 0.0
C606 C 0.12731 0.01398 0.21033 0.0
C607 C 0.11125 1.00572 0.26303 0.0
C608 C 0.10463 0.02246 0.31469 0.0
C609 C 0.11323 0.04693 0.31454 0.0
C610 C 0.10298 0.06105 0.37644 0.0
C611 C 0.12458 0.06982 0.423 0.0
C612 C 0.08668 0.08325 0.35413 0.0
C613 C 0.08716 0.04069 0.41099 0.0
C614 C 0.08881 0.01849 0.3748 0.0
C615 C 0.07717 0.99657 0.398 0.0
C616 C 0.06345 0.99725 0.45938 0.0
C617 C 0.06077 0.01981 0.49671 0.0
C618 C 0.07275 0.0419 0.47182 0.0
H619 H 0.50216 0.1647 0.29632 0.0
H620 H 0.46333 0.11456 0.15637 0.0
H621 H 0.46648 0.08043 0.23959 0.0
H622 H 0.54516 0.11489 0.3627 0.0
H623 H 0.54527 0.12728 0.44824 0.0
H624 H 0.54138 0.14804 0.37661 0.0
H625 H 0.49996 0.16434 0.42952 0.0
H626 H 0.50378 0.14351 0.50093 0.0
H627 H 0.47527 0.14235 0.45126 0.0
H628 H 0.47332 0.0512 0.33588 0.0
H629 H 0.48313 0.02871 0.44167 0.0
H630 H 0.51553 0.09649 0.5274 0.0
C631 C 0.49467 0.14644 0.2828 0.0
C632 C 0.48215 0.14269 0.21923 0.0
C633 C 0.47257 0.11836 0.20449 0.0
C634 C 0.47439 0.09866 0.25153 0.0
C635 C 0.48615 0.10309 0.31383 0.0
C636 C 0.49636 0.12625 0.32977 0.0
C637 C 0.50794 0.1255 0.40124 0.0
C638 C 0.53664 0.12915 0.39695 0.0
C639 C 0.496 0.1451 0.44853 0.0
C640 C 0.50134 0.09879 0.42381 0.0
C641 C 0.4894 0.08615 0.37138 0.0
C642 C 0.48251 0.061 0.37739 0.0
C643 C 0.48807 0.04832 0.43808 0.0
C644 C 0.49973 0.06066 0.49376 0.0
C645 C 0.5063 0.08646 0.48647 0.0
H646 H 0.37792 0.46241 0.28594 0.0
H647 H 0.39344 0.53028 0.17072 0.0
H648 H 0.42407 0.54347 0.25832 0.0
H649 H 0.38263 0.48998 0.45254 0.0
H650 H 0.39771 0.4634 0.491 0.0
H651 H 0.377 0.45892 0.41931 0.0
H652 H 0.41245 0.43634 0.35315 0.0
H653 H 0.43319 0.44058 0.42486 0.0
H654 H 0.44245 0.45182 0.34175 0.0
H655 H 0.45143 0.55082 0.36284 0.0
H656 H 0.4756 0.54996 0.47068 0.0
H657 H 0.44564 0.476 0.51483 0.0
C658 C 0.38795 0.47992 0.27829 0.0
C659 C 0.38281 0.49533 0.22064 0.0
C660 C 0.39635 0.51825 0.21436 0.0
C661 C 0.41403 0.52587 0.26391 0.0
C662 C 0.41833 0.51042 0.32007 0.0
C663 C 0.40585 0.48778 0.32725 0.0
C664 C 0.41394 0.47473 0.39281 0.0
C665 C 0.39148 0.47157 0.4418 0.0
C666 C 0.42624 0.44937 0.37718 0.0
C667 C 0.43305 0.49347 0.42107 0.0
C668 C 0.43498 0.51411 0.37869 0.0
C669 C 0.45022 0.53461 0.39581 0.0
C670 C 0.46383 0.53402 0.45735 0.0
C671 C 0.46278 0.51285 0.50073 0.0
C672 C 0.44718 0.49226 0.48205 0.0
H673 H 0.02591 0.36816 0.28191 0.0
H674 H 0.05947 0.4193 0.13513 0.0
H675 H 0.05866 0.45316 0.22062 0.0
H676 H 0.98439 0.41377 0.36518 0.0
H677 H 0.98919 0.40157 0.44984 0.0
H678 H 0.99156 0.38108 0.37699 0.0
H679 H 0.03628 0.36843 0.41502 0.0
H680 H 0.03404 0.3891 0.48755 0.0
H681 H 0.05984 0.39242 0.42832 0.0
H682 H 0.0572 0.48079 0.32187 0.0
H683 H 0.05081 0.50263 0.43001 0.0
H684 H 0.01604 0.43551 0.5148 0.0
C685 C 0.03258 0.38664 0.26755 0.0
C686 C 0.04269 0.39105 0.20128 0.0
C687 C 0.05171 0.4154 0.18519 0.0
C688 C 0.05138 0.43477 0.23358 0.0
C689 C 0.04196 0.42974 0.29856 0.0
C690 C 0.03245 0.40642 0.31585 0.0
C691 C 0.0238 0.4064 0.39032 0.0
C692 C 0.99555 0.40035 0.39588 0.0
C693 C 0.03942 0.38799 0.43279 0.0
C694 C 0.02946 0.43344 0.41113 0.0
C695 C 0.04039 0.44626 0.35745 0.0
C696 C 0.04838 0.47101 0.36406 0.0
C697 C 0.0447 0.48326 0.42651 0.0
C698 C 0.03257 0.47118 0.48242 0.0
C699 C 0.0251 0.44567 0.47414 0.0
H700 H 0.89933 0.03338 0.09403 0.0
H701 H 0.87617 0.95503 0.08894 0.0
H702 H 0.90257 0.9487 0.98722 0.0
H703 H 0.89588 0.04277 0.91362 0.0
H704 H 0.92262 0.06374 0.91025 0.0
H705 H 0.90384 0.06177 0.98671 0.0
H706 H 0.94363 0.05128 0.05695 0.0
H707 H 0.96248 0.0534 0.9806 0.0
H708 H 0.96299 0.02529 0.0314 0.0
H709 H 0.93217 0.9507 0.88424 0.0
H710 H 0.96056 0.96152 0.78798 0.0
H711 H 0.96 0.0394 0.85063 0.0
C712 C 0.89942 0.01483 0.07185 0.0
C713 C 0.88527 0.99474 0.10141 0.0
C714 C 0.88696 0.97079 0.06979 0.0
C715 C 0.90182 0.967 0.01098 0.0
C716 C 0.91488 0.98732 0.98286 0.0
C717 C 0.91372 0.01081 0.01216 0.0
C718 C 0.92878 0.02979 0.9704 0.0
C719 C 0.91176 0.05075 0.94365 0.0
C720 C 0.95077 0.04058 0.01235 0.0
C721 C 0.93833 0.01338 0.91248 0.0
C722 C 0.9305 0.98882 0.92137 0.0
C723 C 0.93814 0.96993 0.87662 0.0
C724 C 0.95428 0.97623 0.82201 0.0
C725 C 0.96221 1.0013 0.81115 0.0
C726 C 0.95381 0.02014 0.85674 0.0
H727 H 0.52407 0.92368 0.13855 0.0
H728 H 0.53988 0.85295 0.03883 0.0
H729 H 0.53773 0.87367 0.9265 0.0
H730 H 0.4811 0.94845 0.01941 0.0
H731 H 0.49296 0.98021 0.02025 0.0
H732 H 0.49691 0.96053 0.09398 0.0
H733 H 0.5449 0.96847 0.08995 0.0
H734 H 0.54131 0.98807 0.01575 0.0
H735 H 0.5621 0.96158 0.01297 0.0
H736 H 0.53211 0.90077 0.8253 0.0
H737 H 0.5256 0.93304 0.73939 0.0
H738 H 0.51333 0.98832 0.89873 0.0
C739 C 0.52754 0.91276 0.09296 0.0
C740 C 0.53248 0.88661 0.09759 0.0
C741 C 0.53655 0.87295 0.03671 0.0
C742 C 0.53522 0.88457 0.97258 0.0
C743 C 0.53016 0.91016 0.96947 0.0
C744 C 0.52682 0.92432 0.02781 0.0
C745 C 0.52204 0.95169 1.00871 0.0
C746 C 0.49674 0.96074 0.03729 0.0
C747 C 0.54387 0.96846 0.03334 0.0
C748 C 0.52169 0.95028 0.93079 0.0
C749 C 0.52686 0.9261 0.9099 0.0
C750 C 0.52803 0.91974 0.84117 0.0
C751 C 0.52399 0.93841 0.79231 0.0
C752 C 0.51826 0.96346 0.81108 0.0
C753 C 0.51726 0.96941 0.88197 0.0
H754 H 0.64315 0.50189 0.05871 0.0
H755 H 0.62448 0.57531 0.14013 0.0
H756 H 0.59584 0.58192 0.04352 0.0
H757 H 0.64074 0.51688 0.88081 0.0
H758 H 0.62579 0.48784 0.856 0.0
H759 H 0.64566 0.48888 0.93028 0.0
H760 H 0.60922 0.4711 1.0042 0.0
H761 H 0.58939 0.46984 0.92986 0.0
H762 H 0.57929 0.48676 1.00455 0.0
H763 H 0.56812 0.58055 0.93856 0.0
H764 H 0.54306 0.57077 0.83609 0.0
H765 H 0.57801 0.4977 0.82329 0.0
C766 C 0.63291 0.51931 0.05738 0.0
C767 C 0.63659 0.53808 0.1085 0.0
C768 C 0.6228 0.56068 0.10216 0.0
C769 C 0.60619 0.56459 0.04729 0.0
C770 C 0.60313 0.54573 0.9985 0.0
C771 C 0.61597 0.52343 1.00323 0.0
C772 C 0.60865 0.50588 0.94488 0.0
C773 C 0.63158 0.4995 0.90037 0.0
C774 C 0.59588 0.48198 0.97253 0.0
C775 C 0.58998 0.52196 0.90604 0.0
C776 C 0.58704 0.54485 0.93813 0.0
C777 C 0.57038 0.56269 0.91313 0.0
C778 C 0.55617 0.55693 0.85467 0.0
C779 C 0.55856 0.53353 0.82089 0.0
C780 C 0.57598 0.51592 0.84693 0.0
H781 H 0.02102 0.61831 0.11837 0.0
H782 H 0.95972 0.66581 0.05366 0.0
H783 H 0.95722 0.64246 0.94485 0.0
H784 H 0.05216 0.61258 0.96011 0.0
H785 H 0.05991 0.57992 0.96923 0.0
H786 H 0.05592 0.5992 0.04387 0.0
H787 H 0.02205 0.56843 0.09024 0.0
H788 H 0.02621 0.54894 0.01593 0.0
H789 H 0.9954 0.5604 0.03765 0.0
H790 H 0.96246 0.61459 0.8395 0.0
H791 H 0.97401 0.58383 0.75003 0.0
H792 H 0.03272 0.55497 0.88025 0.0
C793 C 0.00689 0.62367 0.08163 0.0
C794 C 0.99044 0.64399 0.09548 0.0
C795 C 0.97223 0.65016 0.04552 0.0
C796 C 0.9708 0.63707 0.98302 0.0
C797 C 0.98752 0.61748 0.9707 0.0
C798 C 1.00501 0.61057 0.01907 0.0
C799 C 0.0207 0.5887 0.99317 0.0
C800 C 0.04884 0.59553 0.99149 0.0
C801 C 0.0158 0.56523 0.03686 0.0
C802 C 0.0102 0.58518 0.92152 0.0
C803 C 0.99074 0.60171 0.91003 0.0
C804 C 0.97767 0.60163 0.84825 0.0
C805 C 0.98441 0.58415 0.79749 0.0
C806 C 1.00439 0.56718 0.80769 0.0
C807 C 0.01749 0.56784 0.87065 0.0
H808 H 0.05366 0.24068 0.32575 0.0
H809 H 0.07847 0.19421 0.15671 0.0
H810 H 0.05792 0.15766 0.20948 0.0
H811 H 0.04986 0.1927 0.46357 0.0
H812 H 0.02055 0.20531 0.49426 0.0
H813 H 0.04364 0.22574 0.45549 0.0
H814 H 0.01001 0.24083 0.36969 0.0
H815 H 0.98696 0.22007 0.40678 0.0
H816 H 0.99394 0.21815 0.31692 0.0
H817 H 0.02835 0.12832 0.26765 0.0
H818 H 0.99382 0.10762 0.33144 0.0
H819 H 0.98369 0.17488 0.45259 0.0
C820 C 0.05546 0.22267 0.30075 0.0
C821 C 0.06766 0.22042 0.23697 0.0
C822 C 0.06971 0.19646 0.20624 0.0
C823 C 0.05781 0.17557 0.23549 0.0
C824 C 0.04383 0.17907 0.29488 0.0
C825 C 0.04272 0.20202 0.32743 0.0
C826 C 0.02296 0.20214 0.38311 0.0
C827 C 0.03498 0.20673 0.45328 0.0
C828 C 1.00227 0.22143 0.36819 0.0
C829 C 0.01296 0.17572 0.3764 0.0
C830 C 0.02543 0.16263 0.3258 0.0
C831 C 0.01867 0.13825 0.30796 0.0
C832 C 0.99896 0.12677 0.34389 0.0
C833 C 0.98614 0.13984 0.39626 0.0
C834 C 0.99307 0.16466 0.4122 0.0
H835 H 0.2926 0.0371 0.20109 0.0
H836 H 0.3011 0.10709 0.311 0.0
H837 H 0.33721 0.08934 0.37467 0.0
H838 H 0.31212 0.99395 0.33917 0.0
H839 H 0.32887 0.97405 0.28047 0.0
H840 H 0.30143 0.99073 0.25237 0.0
H841 H 0.32729 0.01092 0.15423 0.0
H842 H 0.35469 0.99422 0.1816 0.0
H843 H 0.35584 0.02787 0.17403 0.0
H844 H 0.37497 0.06635 0.41277 0.0
H845 H 0.41292 0.0406 0.42162 0.0
H846 H 0.37916 0.98482 0.28783 0.0
C847 C 0.30175 0.04834 0.24005 0.0
C848 C 0.29426 0.07314 0.25271 0.0
C849 C 0.30674 0.08792 0.3019 0.0
C850 C 0.32702 0.07794 0.3382 0.0
C851 C 0.33424 0.05336 0.32396 0.0
C852 C 0.32198 0.03877 0.27596 0.0
C853 C 0.33515 0.01417 0.26386 0.0
C854 C 0.3184 0.99191 0.2853 0.0
C855 C 0.34375 0.01168 0.18902 0.0
C856 C 0.35729 0.01747 0.31111 0.0
C857 C 0.35621 0.04002 0.34596 0.0
C858 C 0.37578 0.0484 0.38712 0.0
C859 C 0.39724 0.03359 0.39181 0.0
C860 C 0.39892 0.01062 0.35559 0.0
C861 C 0.37843 1.00229 0.31591 0.0
H862 H 0.44744 0.31117 0.31503 0.0
H863 H 0.47456 0.32994 0.11253 0.0
H864 H 0.50328 0.36156 0.16161 0.0
H865 H 0.45356 0.37731 0.38691 0.0
H866 H 0.46304 0.36538 0.46881 0.0
H867 H 0.44142 0.34763 0.41662 0.0
H868 H 0.47107 0.30938 0.42338 0.0
H869 H 0.49303 0.32709 0.47415 0.0
H870 H 0.50332 0.3127 0.39574 0.0
H871 H 0.53414 0.38477 0.23249 0.0
H872 H 0.56154 0.40316 0.32198 0.0
H873 H 0.5137 0.37075 0.47842 0.0
C874 C 0.45864 0.3228 0.28116 0.0
C875 C 0.45852 0.31862 0.21021 0.0
C876 C 0.4739 0.33349 0.16696 0.0
C877 C 0.49042 0.35131 0.19438 0.0
C878 C 0.49093 0.35426 0.26487 0.0
C879 C 0.47499 0.34094 0.30768 0.0
C880 C 0.48057 0.34646 0.38184 0.0
C881 C 0.45833 0.36001 0.41553 0.0
C882 C 0.48741 0.32248 0.42102 0.0
C883 C 0.50307 0.36374 0.37397 0.0
C884 C 0.50862 0.36813 0.30606 0.0
C885 C 0.5297 0.38198 0.28586 0.0
C886 C 0.54525 0.39205 0.33661 0.0
C887 C 0.53954 0.38808 0.40611 0.0
C888 C 0.51824 0.37388 0.42518 0.0
H889 H 0.1988 0.48717 0.18207 0.0
H890 H 0.22562 0.43417 0.33137 0.0
H891 H 0.19349 0.44897 0.41379 0.0
H892 H 0.19368 0.53571 0.29167 0.0
H893 H 0.16607 0.54958 0.25471 0.0
H894 H 0.18653 0.5309 0.20271 0.0
H895 H 0.14908 0.5021 0.16936 0.0
H896 H 0.12831 0.5208 0.22111 0.0
H897 H 0.13031 0.4875 0.23519 0.0
H898 H 0.16339 0.47375 0.48426 0.0
H899 H 0.13897 0.50765 0.539 0.0
H900 H 0.13344 0.54584 0.34519 0.0
C901 C 0.19695 0.47796 0.23109 0.0
C902 C 0.21378 0.45904 0.25037 0.0
C903 C 0.21214 0.44815 0.31573 0.0
C904 C 0.19403 0.45647 0.36255 0.0
C905 C 0.17798 0.47571 0.34279 0.0
C906 C 0.17926 0.4863 0.27844 0.0
C907 C 0.16268 0.50912 0.27301 0.0
C908 C 0.17818 0.5327 0.25448 0.0
C909 C 0.14133 0.5046 0.22163 0.0
C910 C 0.15271 0.51042 0.34519 0.0
C911 C 0.16124 0.49065 0.38423 0.0
C912 C 0.15616 0.489 0.45392 0.0
C913 C 0.14239 0.50828 0.48465 0.0
C914 C 0.13432 0.52896 0.4458 0.0
C915 C 0.13911 0.52984 0.37523 0.0
H916 H 0.98274 0.78619 1.0009 0.0
H917 H 0.95672 0.83437 0.16299 0.0
H918 H 0.96153 0.87116 0.08816 0.0
H919 H 0.03095 0.81699 0.97097 0.0
H920 H 0.03389 0.81431 0.87961 0.0
H921 H 0.01664 0.79102 0.92608 0.0
H922 H 0.97668 0.79846 0.85441 0.0
H923 H 0.99401 0.82114 0.80438 0.0
H924 H 0.96476 0.82978 0.84445 0.0
H925 H 0.98319 0.90189 0.01781 0.0
H926 H 0.01629 0.92422 0.95329 0.0
H927 H 0.03199 0.85655 0.83895 0.0
C928 C 0.97628 0.80435 0.01809 0.0
C929 C 0.96899 0.8078 0.08621 0.0
C930 C 0.96181 0.83165 0.10994 0.0
C931 C 0.96457 0.85257 0.06772 0.0
C932 C 0.97471 0.84909 1.00267 0.0
C933 C 0.97997 0.8254 0.97722 0.0
C934 C 0.99666 0.82678 0.91466 0.0
C935 C 0.02095 0.8114 0.92349 0.0
C936 C 0.98215 0.81856 0.85068 0.0
C937 C 1.00213 0.85453 0.91324 0.0
C938 C 0.98853 0.86722 0.96249 0.0
C939 C 0.99312 0.8924 0.97716 0.0
C940 C 0.01205 0.90487 0.94062 0.0
C941 C 0.02636 0.89202 0.89082 0.0
C942 C 0.02103 0.86673 0.87632 0.0
H943 H 0.74222 0.01053 0.99724 0.0
H944 H 0.71806 0.94349 0.10239 0.0
H945 H 0.67964 0.94187 0.03242 0.0
H946 H 0.69256 0.0387 0.02617 0.0
H947 H 0.68952 0.05716 0.94972 0.0
H948 H 0.71981 0.04648 0.97508 0.0
H949 H 0.72615 0.02424 0.85893 0.0
H950 H 0.69588 0.03552 0.83172 0.0
H951 H 0.70267 1.00249 0.828 0.0
H952 H 0.63915 0.95589 0.9894 0.0
H953 H 0.60195 0.98305 0.97511 0.0
H954 H 0.65012 0.04384 0.9082 0.0
C955 C 0.72946 0.99468 1.00175 0.0
C956 C 0.73271 0.9772 0.05429 0.0
C957 C 0.71583 0.95685 0.06131 0.0
C958 C 0.69393 0.95589 0.02179 0.0
C959 C 0.68942 0.9755 0.97632 0.0
C960 C 0.70706 0.9944 0.96526 0.0
C961 C 0.69553 0.01692 0.93105 0.0
C962 C 0.69958 0.04118 0.97307 0.0
C963 C 0.70565 0.01995 0.85805 0.0
C964 C 0.66829 0.00889 0.93099 0.0
C965 C 0.66519 0.98454 0.95422 0.0
C966 C 0.6414 0.97462 0.96909 0.0
C967 C 0.62046 0.99016 0.96184 0.0
C968 C 0.62374 0.0153 0.9415 0.0
C969 C 0.64761 0.02449 0.92359 0.0
H970 H 0.54236 0.74106 1.00116 0.0
H971 H 0.55918 0.6939 0.17367 0.0
H972 H 0.55697 0.65646 0.09993 0.0
H973 H 0.49527 0.70969 0.95383 0.0
H974 H 0.49774 0.71244 0.86239 0.0
H975 H 0.51211 0.73564 0.91576 0.0
H976 H 0.5556 0.72803 0.86065 0.0
H977 H 0.54138 0.7052 0.80448 0.0
H978 H 0.56799 0.69672 0.85617 0.0
H979 H 0.53905 0.62525 0.02263 0.0
H980 H 0.50829 0.60336 0.94983 0.0
H981 H 0.50116 0.67003 0.82548 0.0
C982 C 0.54726 0.72292 0.0217 0.0
C983 C 0.55132 0.72004 0.09192 0.0
C984 C 0.55649 0.69619 0.11926 0.0
C985 C 0.55529 0.67491 0.07764 0.0
C986 C 0.54879 0.67796 0.0092 0.0
C987 C 0.54528 0.70152 0.98102 0.0
C988 C 0.53242 0.69982 0.91243 0.0
C989 C 0.50796 0.71528 0.91116 0.0
C990 C 0.55043 0.70791 0.85502 0.0
C991 C 0.52704 0.67199 0.90937 0.0
C992 C 0.53747 0.65955 0.96422 0.0
C993 C 0.5316 0.63455 0.9781 0.0
C994 C 0.51404 0.62223 0.9364 0.0
C995 C 0.50234 0.63504 0.88193 0.0
C996 C 0.50987 0.65981 0.86671 0.0
H997 H 0.83031 0.53544 0.14971 0.0
H998 H 0.77577 0.56405 1.00717 0.0
H999 H 0.80728 0.56205 0.9148 0.0
H1000 H 0.89189 0.55738 0.0526 0.0
H1001 H 0.90614 0.52799 0.07512 0.0
H1002 H 0.88489 0.54309 0.1338 0.0
H1003 H 0.8583 0.50235 0.13893 0.0
H1004 H 0.87864 0.48735 0.07904 0.0
H1005 H 0.84547 0.4895 0.06116 0.0
H1006 H 0.83668 0.54283 0.8353 0.0
H1007 H 0.86287 0.51107 0.77687 0.0
H1008 H 0.89729 0.49178 0.96915 0.0
C1009 C 0.82573 0.54263 0.09963 0.0
C1010 C 0.80101 0.54977 0.08451 0.0
C1011 C 0.7949 0.55876 0.01912 0.0
C1012 C 0.81271 0.55768 0.96657 0.0
C1013 C 0.83632 0.5477 0.98108 0.0
C1014 C 0.84308 0.54084 0.04675 0.0
C1015 C 0.86642 0.52487 0.04716 0.0
C1016 C 0.88866 0.5392 0.07901 0.0
C1017 C 0.86189 0.49955 0.08362 0.0
C1018 C 0.87006 0.52143 0.97149 0.0
C1019 C 0.85325 0.53556 0.93407 0.0
C1020 C 0.85048 0.53236 0.86377 0.0
C1021 C 0.86499 0.51411 0.83122 0.0
C1022 C 0.88148 0.49917 0.86959 0.0
C1023 C 0.88462 0.50328 0.93968 0.0
H1024 H 0.04825 0.18529 0.9317 0.0
H1025 H 0.02223 0.22844 0.75883 0.0
H1026 H 0.01547 0.18925 0.69369 0.0
H1027 H 0.082 0.13857 0.82854 0.0
H1028 H 0.07437 0.1129 0.88471 0.0
H1029 H 0.0772 0.14424 0.91831 0.0
H1030 H 0.03233 0.14058 0.96907 0.0
H1031 H 0.02948 0.10925 0.93545 0.0
H1032 H 1.00637 0.13249 0.91402 0.0
H1033 H 0.00875 0.14513 0.64934 0.0
H1034 H 1.00576 0.09963 0.62616 0.0
H1035 H 0.03883 0.0843 0.82304 0.0
C1036 C 0.04102 0.18643 0.88022 0.0
C1037 C 0.0355 0.2101 0.85067 0.0
C1038 C 0.02654 0.2107 0.78269 0.0
C1039 C 0.02262 0.18847 0.74527 0.0
C1040 C 0.02814 0.16553 0.77573 0.0
C1041 C 0.0375 0.1643 0.84138 0.0
C1042 C 0.0425 0.13712 0.8611 0.0
C1043 C 0.07069 0.13298 0.87391 0.0
C1044 C 0.02672 0.12941 0.92361 0.0
C1045 C 0.03382 0.12329 0.79708 0.0
C1046 C 0.02555 0.1401 0.74862 0.0
C1047 C 0.01551 0.13188 0.68665 0.0
C1048 C 0.01383 0.10594 0.67388 0.0
C1049 C 0.02249 0.08828 0.72205 0.0
C1050 C 0.03272 0.09721 0.78439 0.0
H1051 H 0.33239 0.07567 0.86288 0.0
H1052 H 0.30712 0.99838 0.88229 0.0
H1053 H 0.34749 0.98409 0.83516 0.0
H1054 H 0.3661 0.06749 0.70159 0.0
H1055 H 0.39156 0.08844 0.72395 0.0
H1056 H 0.36068 0.09312 0.75974 0.0
H1057 H 0.37952 0.09153 0.88112 0.0
H1058 H 0.41042 0.08666 0.84564 0.0
H1059 H 0.39761 0.06469 0.9065 0.0
H1060 H 0.39175 0.97749 0.79506 0.0
H1061 H 0.43534 0.97926 0.75345 0.0
H1062 H 0.43217 0.06012 0.74427 0.0
C1063 C 0.33519 0.05572 0.85668 0.0
C1064 C 0.31624 0.0382 0.87764 0.0
C1065 C 0.32117 0.0123 0.86866 0.0
C1066 C 0.34414 1.00394 0.84136 0.0
C1067 C 0.36238 0.02155 0.82243 0.0
C1068 C 0.3582 0.04695 0.82902 0.0
C1069 C 0.38127 0.06175 0.80419 0.0
C1070 C 0.37449 0.0787 0.74376 0.0
C1071 C 0.39289 0.07707 0.86285 0.0
C1072 C 0.39882 0.04067 0.78199 0.0
C1073 C 0.38751 0.01769 0.79406 0.0
C1074 C 0.40032 0.99539 0.78265 0.0
C1075 C 0.425 0.99647 0.75682 0.0
C1076 C 0.43667 0.01952 0.73944 0.0
C1077 C 0.42351 0.04205 0.75423 0.0
H1078 H 0.45294 0.33942 0.87326 0.0
H1079 H 0.5305 0.3147 0.86884 0.0
H1080 H 0.54322 0.35475 0.81565 0.0
H1081 H 0.45448 0.37408 0.71143 0.0
H1082 H 0.43504 0.3993 0.74188 0.0
H1083 H 0.43138 0.36831 0.77721 0.0
H1084 H 0.43888 0.386 0.89873 0.0
H1085 H 0.44208 0.4169 0.86286 0.0
H1086 H 0.4668 0.40445 0.91531 0.0
H1087 H 0.54817 0.39743 0.76399 0.0
H1088 H 0.54558 0.44063 0.72167 0.0
H1089 H 0.46502 0.44025 0.75962 0.0
C1090 C 0.47259 0.34238 0.86061 0.0
C1091 C 0.49075 0.3236 0.87569 0.0
C1092 C 0.51624 0.3286 0.85881 0.0
C1093 C 0.52364 0.35134 0.8281 0.0
C1094 C 0.50545 0.36942 0.81458 0.0
C1095 C 0.48042 0.36535 0.83048 0.0
C1096 C 0.46498 0.38852 0.81225 0.0
C1097 C 0.4453 0.38216 0.75743 0.0
C1098 C 0.45246 0.39961 0.87615 0.0
C1099 C 0.48529 0.40621 0.78413 0.0
C1100 C 0.50842 0.39454 0.78565 0.0
C1101 C 0.53015 0.40673 0.7629 0.0
C1102 C 0.52845 0.43147 0.73889 0.0
C1103 C 0.50518 0.44435 0.73744 0.0
C1104 C 0.48319 0.43123 0.75998 0.0
H1105 H 0.17955 0.47647 0.93207 0.0
H1106 H 0.22671 0.50843 0.77323 0.0
H1107 H 0.18892 0.51686 0.70392 0.0
H1108 H 0.13512 0.44609 0.81108 0.0
H1109 H 0.108 0.45099 0.86464 0.0
H1110 H 0.13861 0.44724 0.90247 0.0
H1111 H 0.13351 0.48949 0.9655 0.0
H1112 H 0.10293 0.49332 0.92768 0.0
H1113 H 0.12666 0.51737 0.91731 0.0
H1114 H 0.14622 0.52397 0.65392 0.0
H1115 H 0.10173 0.52626 0.62094 0.0
H1116 H 0.08034 0.48849 0.80845 0.0
C1117 C 0.18183 0.48534 0.88277 0.0
C1118 C 0.20626 0.4921 0.85849 0.0
C1119 C 0.20838 0.50318 0.79312 0.0
C1120 C 0.18694 0.50805 0.75337 0.0
C1121 C 0.16323 0.50135 0.77867 0.0
C1122 C 0.16048 0.48986 0.8414 0.0
C1123 C 0.13268 0.48386 0.85485 0.0
C1124 C 0.12836 0.45535 0.85849 0.0
C1125 C 0.1234 0.49679 0.92022 0.0
C1126 C 0.12024 0.49482 0.79139 0.0
C1127 C 0.13839 0.50458 0.74814 0.0
C1128 C 0.13189 0.516 0.68688 0.0
C1129 C 0.10636 0.51728 0.66861 0.0
C1130 C 0.08706 0.50745 0.71131 0.0
C1131 C 0.09434 0.49608 0.77399 0.0
H1132 H 0.99038 0.84271 0.38686 0.0
H1133 H 0.98974 0.80272 0.57925 0.0
H1134 H 0.99207 0.84302 0.64131 0.0
H1135 H 0.0356 0.89 0.44127 0.0
H1136 H 0.02147 0.91521 0.39421 0.0
H1137 H 0.01842 0.88341 0.36404 0.0
H1138 H 0.96995 0.88777 0.36354 0.0
H1139 H 0.97299 0.91956 0.39379 0.0
H1140 H 0.95395 0.89731 0.44043 0.0
H1141 H 0.99588 0.88732 0.68367 0.0
H1142 H 1.00167 0.93278 0.70332 0.0
H1143 H 1.00033 0.94579 0.48523 0.0
C1144 C 0.99036 0.84251 0.44209 0.0
C1145 C 0.98961 0.81933 0.47816 0.0
C1146 C 0.99025 0.82001 0.55039 0.0
C1147 C 0.99153 0.84289 0.58613 0.0
C1148 C 0.99245 0.86528 0.54933 0.0
C1149 C 0.99203 0.86537 0.47884 0.0
C1150 C 0.99459 0.89223 0.45217 0.0
C1151 C 0.01896 0.89539 0.41045 0.0
C1152 C 0.97148 0.89964 0.40998 0.0
C1153 C 0.99597 0.90713 0.51865 0.0
C1154 C 0.99482 0.89107 0.57394 0.0
C1155 C 0.99662 0.90003 0.64071 0.0
C1156 C 0.99988 0.9259 0.65148 0.0
C1157 C 1.00111 0.94284 0.59613 0.0
C1158 C 0.99898 0.93332 0.52864 0.0
H1159 H 0.70054 0.02763 0.48836 0.0
H1160 H 0.70699 0.94653 0.47998 0.0
H1161 H 0.664 0.9424 0.52545 0.0
H1162 H 0.66433 0.02802 0.65053 0.0
H1163 H 0.64566 0.0545 0.62544 0.0
H1164 H 0.67736 0.05132 0.59377 0.0
H1165 H 0.66099 0.05412 0.46986 0.0
H1166 H 0.62928 0.05723 0.50111 0.0
H1167 H 0.63683 0.03261 0.44156 0.0
H1168 H 0.6194 0.94674 0.57164 0.0
H1169 H 0.57719 0.95955 0.61115 0.0
H1170 H 0.59907 0.0375 0.59064 0.0
C1171 C 0.69328 0.00892 0.49713 0.0
C1172 C 0.70772 0.98742 0.47933 0.0
C1173 C 0.69668 0.96345 0.49119 0.0
C1174 C 0.67214 0.96084 0.51787 0.0
C1175 C 0.65852 0.98233 0.53391 0.0
C1176 C 0.66877 1.00594 0.52456 0.0
C1177 C 0.64997 0.02599 0.54583 0.0
C1178 C 0.65992 0.04084 0.60755 0.0
C1179 C 0.64392 0.04352 0.486 0.0
C1180 C 0.62719 0.01 0.56566 0.0
C1181 C 0.63272 0.98484 0.5594 0.0
C1182 C 0.61484 0.96642 0.57542 0.0
C1183 C 0.59066 0.97385 0.59661 0.0
C1184 C 0.58394 0.99944 0.60005 0.0
C1185 C 0.60293 0.01774 0.58649 0.0
H1186 H 0.53385 0.68763 0.38628 0.0
H1187 H 0.5345 0.72881 0.5772 0.0
H1188 H 0.53178 0.68899 0.64068 0.0
H1189 H 0.48846 0.64058 0.44315 0.0
H1190 H 0.50263 0.61499 0.39729 0.0
H1191 H 0.50577 0.64656 0.3656 0.0
H1192 H 0.55413 0.64221 0.36507 0.0
H1193 H 0.55116 0.61064 0.39689 0.0
H1194 H 0.57009 0.63331 0.44228 0.0
H1195 H 0.52736 0.64551 0.68479 0.0
H1196 H 0.52186 0.60067 0.7083 0.0
H1197 H 0.52398 0.5847 0.49102 0.0
C1198 C 0.53378 0.68818 0.4415 0.0
C1199 C 0.53457 0.71165 0.47667 0.0
C1200 C 0.53388 0.71137 0.5489 0.0
C1201 C 0.53238 0.68873 0.58549 0.0
C1202 C 0.53135 0.66611 0.54966 0.0
C1203 C 0.53196 0.6655 0.47924 0.0
C1204 C 0.52943 0.63835 0.45411 0.0
C1205 C 0.50513 0.63492 0.41257 0.0
C1206 C 0.55259 0.63068 0.4121 0.0
C1207 C 0.52793 0.62385 0.52151 0.0
C1208 C 0.52885 0.64051 0.57559 0.0
C1209 C 0.5268 0.63232 0.64282 0.0
C1210 C 0.5236 0.6066 0.65566 0.0
C1211 C 0.52259 0.58872 0.60202 0.0
C1212 C 0.52504 0.59762 0.53357 0.0
H1213 H 0.82911 0.49929 0.46042 0.0
H1214 H 0.8151 0.57854 0.49293 0.0
H1215 H 0.85801 0.5837 0.53795 0.0
H1216 H 0.86638 0.49061 0.61586 0.0
H1217 H 0.88767 0.46872 0.57667 0.0
H1218 H 0.85572 0.47094 0.54672 0.0
H1219 H 0.87205 0.47944 0.42424 0.0
H1220 H 0.90401 0.47727 0.45392 0.0
H1221 H 0.89382 0.50497 0.40968 0.0
H1222 H 0.903 0.58084 0.57848 0.0
H1223 H 0.94598 0.57022 0.61301 0.0
H1224 H 0.93225 0.49244 0.55832 0.0
C1225 C 0.8348 0.51773 0.47778 0.0
C1226 C 0.81815 0.53854 0.47212 0.0
C1227 C 0.82711 0.56228 0.49487 0.0
C1228 C 0.8516 0.5654 0.52125 0.0
C1229 C 0.86737 0.54465 0.52549 0.0
C1230 C 0.85931 0.52121 0.50477 0.0
C1231 C 0.88022 0.50203 0.51503 0.0
C1232 C 0.872 0.48188 0.56663 0.0
C1233 C 0.88798 0.49023 0.44664 0.0
C1234 C 0.90137 0.5184 0.54398 0.0
C1235 C 0.89338 0.54292 0.54959 0.0
C1236 C 0.90934 0.56167 0.57431 0.0
C1237 C 0.93396 0.55537 0.59371 0.0
C1238 C 0.943 0.53044 0.58842 0.0
C1239 C 0.92619 0.51167 0.56329 0.0
loop_
_geom_bond_atom_site_label_1
_geom_bond_atom_site_label_2
_geom_bond_distance
_geom_bond_site_symmetry_2
_ccdc_geom_bond_type
P0 O11 1.490 . S
P0 C14 1.812 . S
P0 C20 1.803 . S
P0 C26 1.819 . S
H1 C15 0.941 . S
H2 C16 0.939 . S
H3 C18 0.940 . S
H4 C19 0.940 . S
H5 C21 0.939 . S
H6 C22 0.942 . S
H7 C24 0.940 . S
H8 C25 0.939 . S
H9 C27 0.941 . S
H10 C31 0.939 . S
O11 P0 1.490 . S
H12 C28 0.939 . S
H13 C30 0.940 . S
C14 P0 1.812 . S
C14 C15 1.389 . S
C14 C19 1.391 . S
C15 H1 0.941 . S
C15 C14 1.389 . S
C15 C16 1.397 . S
C16 H2 0.939 . S
C16 C15 1.397 . S
C16 C17 1.378 . S
C17 C16 1.378 . S
C17 C18 1.378 . S
C18 H3 0.940 . S
C18 C17 1.378 . S
C18 C19 1.396 . S
C19 H4 0.940 . S
C19 C14 1.391 . S
C19 C18 1.396 . S
C20 P0 1.803 . S
C20 C21 1.378 . S
C20 C25 1.400 . S
C21 H5 0.939 . S
C21 C20 1.378 . S
C21 C22 1.361 . S
C22 H6 0.942 . S
C22 C21 1.361 . S
C22 C23 1.369 . S
C23 C22 1.369 . S
C23 C24 1.404 . S
C24 H7 0.940 . S
C24 C23 1.404 . S
C24 C25 1.389 . S
C25 H8 0.939 . S
C25 C20 1.400 . S
C25 C24 1.389 . S
C26 P0 1.819 . S
C26 C27 1.391 . S
C26 C31 1.391 . S
C27 H9 0.941 . S
C27 C26 1.391 . S
C27 C28 1.396 . S
C28 H12 0.939 . S
C28 C27 1.396 . S
C28 C29 1.397 . S
C29 C28 1.397 . S
C29 C30 1.385 . S
C30 H13 0.940 . S
C30 C29 1.385 . S
C30 C31 1.388 . S
C31 H10 0.939 . S
C31 C26 1.391 . S
C31 C30 1.388 . S
P32 O43 1.490 . S
P32 C46 1.812 1_455 S
P32 C52 1.803 1_455 S
P32 C58 1.819 1_455 S
H33 C47 0.941 . S
H34 C48 0.939 1_455 S
H35 C50 0.940 . S
H36 C51 0.940 . S
H37 C53 0.939 . S
H38 C54 0.942 1_455 S
H39 C56 0.940 . S
H40 C57 0.939 . S
H41 C59 0.941 . S
H42 C63 0.939 . S
O43 P32 1.490 . S
H44 C60 0.938 . S
H45 C62 0.940 . S
C46 P32 1.812 1_655 S
C46 C47 1.389 1_655 S
C46 C51 1.391 . S
C47 H33 0.941 . S
C47 C46 1.389 1_455 S
C47 C48 1.397 1_455 S
C48 H34 0.939 1_655 S
C48 C47 1.397 1_655 S
C48 C49 1.378 . S
C49 C48 1.378 . S
C49 C50 1.378 . S
C50 H35 0.940 . S
C50 C49 1.378 . S
C50 C51 1.396 . S
C51 H36 0.940 . S
C51 C46 1.391 . S
C51 C50 1.396 . S
C52 P32 1.803 1_655 S
C52 C53 1.378 1_655 S
C52 C57 1.400 . S
C53 H37 0.939 . S
C53 C52 1.378 1_455 S
C53 C54 1.361 1_455 S
C54 H38 0.942 1_655 S
C54 C53 1.361 1_655 S
C54 C55 1.369 . S
C55 C54 1.369 . S
C55 C56 1.404 . S
C56 H39 0.940 . S
C56 C55 1.404 . S
C56 C57 1.389 . S
C57 H40 0.939 . S
C57 C52 1.400 . S
C57 C56 1.389 . S
C58 P32 1.819 1_655 S
C58 C59 1.391 1_655 S
C58 C63 1.391 . S
C59 H41 0.941 . S
C59 C58 1.391 1_455 S
C59 C60 1.396 1_455 S
C60 H44 0.938 . S
C60 C59 1.396 1_655 S
C60 C61 1.397 . S
C61 C60 1.397 . S
C61 C62 1.385 . S
C62 H45 0.940 . S
C62 C61 1.385 . S
C62 C63 1.388 . S
C63 H42 0.939 . S
C63 C58 1.391 . S
C63 C62 1.388 . S
P64 O75 1.490 . S
P64 C78 1.812 1_545 S
P64 C84 1.803 1_545 S
P64 C90 1.819 1_545 S
H65 C79 0.941 . S
H66 C80 0.939 1_545 S
H67 C82 0.940 . S
H68 C83 0.940 . S
H69 C85 0.939 . S
H70 C86 0.937 1_545 S
H71 C88 0.940 . S
H72 C89 0.939 . S
H73 C91 0.941 . S
H74 C95 0.939 . S
O75 P64 1.490 . S
H76 C92 0.939 1_545 S
H77 C94 0.940 . S
C78 P64 1.812 1_565 S
C78 C79 1.389 1_565 S
C78 C83 1.391 . S
C79 H65 0.941 . S
C79 C78 1.389 1_545 S
C79 C80 1.397 1_545 S
C80 H66 0.939 1_565 S
C80 C79 1.397 1_565 S
C80 C81 1.378 . S
C81 C80 1.378 . S
C81 C82 1.378 . S
C82 H67 0.940 . S
C82 C81 1.378 . S
C82 C83 1.396 . S
C83 H68 0.940 . S
C83 C78 1.391 . S
C83 C82 1.396 . S
C84 P64 1.803 1_565 S
C84 C85 1.378 1_565 S
C84 C89 1.400 . S
C85 H69 0.939 . S
C85 C84 1.378 1_545 S
C85 C86 1.358 1_545 S
C86 H70 0.937 1_565 S
C86 C85 1.358 1_565 S
C86 C87 1.377 . S
C87 C86 1.377 . S
C87 C88 1.404 . S
C88 H71 0.940 . S
C88 C87 1.404 . S
C88 C89 1.389 . S
C89 H72 0.939 . S
C89 C84 1.400 . S
C89 C88 1.389 . S
C90 P64 1.819 1_565 S
C90 C91 1.391 1_565 S
C90 C95 1.391 . S
C91 H73 0.941 . S
C91 C90 1.391 1_545 S
C91 C92 1.396 1_545 S
C92 H76 0.939 1_565 S
C92 C91 1.396 1_565 S
C92 C93 1.397 . S
C93 C92 1.397 . S
C93 C94 1.385 . S
C94 H77 0.940 . S
C94 C93 1.385 . S
C94 C95 1.388 . S
C95 H74 0.939 . S
C95 C90 1.391 . S
C95 C94 1.388 . S
P96 O107 1.490 . S
P96 C110 1.812 . S
P96 C116 1.803 . S
P96 C122 1.819 . S
H97 C111 0.941 . S
H98 C112 0.939 . S
H99 C114 0.940 . S
H100 C115 0.940 . S
H101 C117 0.939 . S
H102 C118 0.942 . S
H103 C120 0.940 . S
H104 C121 0.939 . S
H105 C123 0.941 . S
H106 C127 0.939 . S
O107 P96 1.490 . S
H108 C124 0.939 . S
H109 C126 0.940 . S
C110 P96 1.812 . S
C110 C111 1.389 . S
C110 C115 1.391 . S
C111 H97 0.941 . S
C111 C110 1.389 . S
C111 C112 1.397 . S
C112 H98 0.939 . S
C112 C111 1.397 . S
C112 C113 1.378 . S
C113 C112 1.378 . S
C113 C114 1.378 . S
C114 H99 0.940 . S
C114 C113 1.378 . S
C114 C115 1.396 . S
C115 H100 0.940 . S
C115 C110 1.391 . S
C115 C114 1.396 . S
C116 P96 1.803 . S
C116 C117 1.378 . S
C116 C121 1.400 . S
C117 H101 0.939 . S
C117 C116 1.378 . S
C117 C118 1.361 . S
C118 H102 0.942 . S
C118 C117 1.361 . S
C118 C119 1.369 . S
C119 C118 1.369 . S
C119 C120 1.404 . S
C120 H103 0.940 . S
C120 C119 1.404 . S
C120 C121 1.389 . S
C121 H104 0.939 . S
C121 C116 1.400 . S
C121 C120 1.389 . S
C122 P96 1.819 . S
C122 C123 1.391 . S
C122 C127 1.391 . S
C123 H105 0.941 . S
C123 C122 1.391 . S
C123 C124 1.396 . S
C124 H108 0.939 . S
C124 C123 1.396 . S
C124 C125 1.397 . S
C125 C124 1.397 . S
C125 C126 1.385 . S
C126 H109 0.940 . S
C126 C125 1.385 . S
C126 C127 1.388 . S
C127 H106 0.939 . S
C127 C122 1.391 . S
C127 C126 1.388 . S
P128 O139 1.490 . S
P128 C142 1.812 1_554 S
P128 C148 1.803 . S
P128 C154 1.819 . S
H129 C143 0.941 . S
H130 C144 0.939 . S
H131 C146 0.940 . S
H132 C147 0.940 . S
H133 C149 0.939 . S
H134 C150 0.942 . S
H135 C152 0.940 . S
H136 C153 0.939 . S
H137 C155 0.941 . S
H138 C159 0.939 . S
O139 P128 1.490 . S
H140 C156 0.939 . S
H141 C158 0.940 . S
C142 P128 1.812 1_556 S
C142 C143 1.389 . S
C142 C147 1.391 . S
C143 H129 0.941 . S
C143 C142 1.389 . S
C143 C144 1.397 . S
C144 H130 0.939 . S
C144 C143 1.397 . S
C144 C145 1.378 . S
C145 C144 1.378 . S
C145 C146 1.378 . S
C146 H131 0.940 . S
C146 C145 1.378 . S
C146 C147 1.396 . S
C147 H132 0.940 . S
C147 C142 1.391 . S
C147 C146 1.396 . S
C148 P128 1.803 . S
C148 C149 1.378 . S
C148 C153 1.400 . S
C149 H133 0.939 . S
C149 C148 1.378 . S
C149 C150 1.361 . S
C150 H134 0.942 . S
C150 C149 1.361 . S
C150 C151 1.369 . S
C151 C150 1.369 . S
C151 C152 1.404 . S
C152 H135 0.940 . S
C152 C151 1.404 . S
C152 C153 1.389 . S
C153 H136 0.939 . S
C153 C148 1.400 . S
C153 C152 1.389 . S
C154 P128 1.819 . S
C154 C155 1.391 . S
C154 C159 1.391 . S
C155 H137 0.941 . S
C155 C154 1.391 . S
C155 C156 1.396 . S
C156 H140 0.939 . S
C156 C155 1.396 . S
C156 C157 1.397 . S
C157 C156 1.397 . S
C157 C158 1.385 . S
C158 H141 0.940 . S
C158 C157 1.385 . S
C158 C159 1.388 . S
C159 H138 0.939 . S
C159 C154 1.391 . S
C159 C158 1.388 . S
P160 O171 1.490 . S
P160 C174 1.812 1_554 S
P160 C180 1.803 . S
P160 C186 1.819 . S
H161 C175 0.941 . S
H162 C176 0.939 . S
H163 C178 0.940 . S
H164 C179 0.940 . S
H165 C181 0.939 . S
H166 C182 0.942 . S
H167 C184 0.940 . S
H168 C185 0.939 . S
H169 C187 0.941 . S
H170 C191 0.939 . S
O171 P160 1.490 . S
H172 C188 0.939 . S
H173 C190 0.940 . S
C174 P160 1.812 1_556 S
C174 C175 1.389 . S
C174 C179 1.391 . S
C175 H161 0.941 . S
C175 C174 1.389 . S
C175 C176 1.397 . S
C176 H162 0.939 . S
C176 C175 1.397 . S
C176 C177 1.378 . S
C177 C176 1.378 . S
C177 C178 1.378 . S
C178 H163 0.940 . S
C178 C177 1.378 . S
C178 C179 1.396 . S
C179 H164 0.940 . S
C179 C174 1.391 . S
C179 C178 1.396 . S
C180 P160 1.803 . S
C180 C181 1.378 . S
C180 C185 1.400 . S
C181 H165 0.939 . S
C181 C180 1.378 . S
C181 C182 1.361 . S
C182 H166 0.942 . S
C182 C181 1.361 . S
C182 C183 1.369 . S
C183 C182 1.369 . S
C183 C184 1.404 . S
C184 H167 0.940 . S
C184 C183 1.404 . S
C184 C185 1.389 . S
C185 H168 0.939 . S
C185 C180 1.400 . S
C185 C184 1.389 . S
C186 P160 1.819 . S
C186 C187 1.391 . S
C186 C191 1.391 . S
C187 H169 0.941 . S
C187 C186 1.391 . S
C187 C188 1.396 . S
C188 H172 0.939 . S
C188 C187 1.396 . S
C188 C189 1.397 . S
C189 C188 1.397 . S
C189 C190 1.385 . S
C190 H173 0.940 . S
C190 C189 1.385 . S
C190 C191 1.388 . S
C191 H170 0.939 . S
C191 C186 1.391 . S
C191 C190 1.388 . S
P192 O203 1.490 . S
P192 C206 1.812 1_554 S
P192 C212 1.803 . S
P192 C218 1.819 . S
H193 C207 0.941 . S
H194 C208 0.939 . S
H195 C210 0.940 . S
H196 C211 0.940 . S
H197 C213 0.939 . S
H198 C214 0.942 . S
H199 C216 0.940 . S
H200 C217 0.939 . S
H201 C219 0.941 . S
H202 C223 0.939 . S
O203 P192 1.490 . S
H204 C220 0.939 . S
H205 C222 0.940 . S
C206 P192 1.812 1_556 S
C206 C207 1.389 . S
C206 C211 1.391 . S
C207 H193 0.941 . S
C207 C206 1.389 . S
C207 C208 1.397 . S
C208 H194 0.939 . S
C208 C207 1.397 . S
C208 C209 1.378 . S
C209 C208 1.378 . S
C209 C210 1.378 . S
C210 H195 0.940 . S
C210 C209 1.378 . S
C210 C211 1.396 . S
C211 H196 0.940 . S
C211 C206 1.391 . S
C211 C210 1.396 . S
C212 P192 1.803 . S
C212 C213 1.378 . S
C212 C217 1.400 . S
C213 H197 0.939 . S
C213 C212 1.378 . S
C213 C214 1.361 . S
C214 H198 0.942 . S
C214 C213 1.361 . S
C214 C215 1.369 . S
C215 C214 1.369 . S
C215 C216 1.404 . S
C216 H199 0.940 . S
C216 C215 1.404 . S
C216 C217 1.389 . S
C217 H200 0.939 . S
C217 C212 1.400 . S
C217 C216 1.389 . S
C218 P192 1.819 . S
C218 C219 1.391 . S
C218 C223 1.391 . S
C219 H201 0.941 . S
C219 C218 1.391 . S
C219 C220 1.396 . S
C220 H204 0.939 . S
C220 C219 1.396 . S
C220 C221 1.397 . S
C221 C220 1.397 . S
C221 C222 1.385 . S
C222 H205 0.940 . S
C222 C221 1.385 . S
C222 C223 1.388 . S
C223 H202 0.939 . S
C223 C218 1.391 . S
C223 C222 1.388 . S
P224 O235 1.490 . S
P224 C238 1.812 1_554 S
P224 C244 1.803 . S
P224 C250 1.819 . S
H225 C239 0.941 . S
H226 C240 0.939 . S
H227 C242 0.940 . S
H228 C243 0.940 . S
H229 C245 0.939 . S
H230 C246 0.942 . S
H231 C248 0.940 . S
H232 C249 0.939 . S
H233 C251 0.941 . S
H234 C255 0.939 . S
O235 P224 1.490 . S
H236 C252 0.939 . S
H237 C254 0.940 . S
C238 P224 1.812 1_556 S
C238 C239 1.389 . S
C238 C243 1.391 . S
C239 H225 0.941 . S
C239 C238 1.389 . S
C239 C240 1.397 . S
C240 H226 0.939 . S
C240 C239 1.397 . S
C240 C241 1.378 . S
C241 C240 1.378 . S
C241 C242 1.378 . S
C242 H227 0.940 . S
C242 C241 1.378 . S
C242 C243 1.396 . S
C243 H228 0.940 . S
C243 C238 1.391 . S
C243 C242 1.396 . S
C244 P224 1.803 . S
C244 C245 1.378 . S
C244 C249 1.400 . S
C245 H229 0.939 . S
C245 C244 1.378 . S
C245 C246 1.361 . S
C246 H230 0.942 . S
C246 C245 1.361 . S
C246 C247 1.369 . S
C247 C246 1.369 . S
C247 C248 1.404 . S
C248 H231 0.940 . S
C248 C247 1.404 . S
C248 C249 1.389 . S
C249 H232 0.939 . S
C249 C244 1.400 . S
C249 C248 1.389 . S
C250 P224 1.819 . S
C250 C251 1.391 . S
C250 C255 1.391 . S
C251 H233 0.941 . S
C251 C250 1.391 . S
C251 C252 1.396 . S
C252 H236 0.939 . S
C252 C251 1.396 . S
C252 C253 1.397 . S
C253 C252 1.397 . S
C253 C254 1.385 . S
C254 H237 0.940 . S
C254 C253 1.385 . S
C254 C255 1.388 . S
C255 H234 0.939 . S
C255 C250 1.391 . S
C255 C254 1.388 . S
C256 C258 1.422 . S
C256 C260 1.415 . S
C256 N262 1.369 . S
C257 C258 1.421 . S
C257 C259 1.417 . S
C257 C269 1.422 . S
C258 C256 1.422 . S
C258 C257 1.421 . S
C258 N268 1.359 . S
C259 C257 1.417 . S
C259 C261 1.329 . S
C259 H278 0.930 . S
C260 C256 1.415 . S
C260 C261 1.437 . S
C260 C264 1.413 . S
C261 C259 1.329 . S
C261 C260 1.437 . S
C261 H283 0.929 . S
N262 C256 1.369 . S
N262 C263 1.338 . S
N262 Gd267 2.622 1_545 S
C263 N262 1.338 . S
C263 C265 1.380 . S
C263 H275 0.927 1_545 S
C264 C260 1.413 . S
C264 C265 1.348 . S
C264 H280 0.931 . S
C265 C263 1.380 . S
C265 C264 1.348 . S
C265 H281 0.930 . S
Gd266 N286 2.622 . S
Gd266 N293 2.570 . S
Gd266 O300 2.353 1_655 S
Gd266 O301 2.468 . S
Gd266 O302 2.427 . S
Gd266 O304 2.388 . S
Gd266 O305 2.386 1_545 S
Gd266 O309 2.307 1_655 S
Gd266 C319 2.805 . S
Gd267 N262 2.622 1_565 S
Gd267 N268 2.570 1_565 S
Gd267 O299 2.386 1_565 S
Gd267 O303 2.307 1_465 S
Gd267 O306 2.353 . S
Gd267 O307 2.468 . S
Gd267 O308 2.427 . S
Gd267 O310 2.388 . S
Gd267 C331 2.805 . S
N268 C258 1.359 . S
N268 Gd267 2.570 1_545 S
N268 C270 1.343 . S
C269 C257 1.422 . S
C269 C271 1.321 . S
C269 H277 0.931 1_556 S
C270 N268 1.343 . S
C270 C271 1.390 . S
C270 H272 0.896 1_455 S
C271 C269 1.321 . S
C271 C270 1.390 . S
C271 H273 0.930 . S
H272 C270 0.896 1_655 S
H273 C271 0.930 . S
H274 C297 0.931 1_455 S
H275 C263 0.927 1_565 S
H276 C298 0.930 1_455 S
H277 C269 0.931 1_554 S
H278 C259 0.930 . S
H279 C288 0.929 . S
H280 C264 0.931 . S
H281 C265 0.930 . S
H282 C320 0.930 . S
H283 C261 0.929 . S
H284 C289 0.931 . S
H285 C290 0.930 . S
N286 Gd266 2.622 . S
N286 C287 1.369 . S
N286 C288 1.338 . S
C287 N286 1.369 . S
C287 C291 1.415 1_545 S
C287 C294 1.422 . S
C288 H279 0.929 . S
C288 N286 1.338 . S
C288 C290 1.378 . S
C289 H284 0.931 . S
C289 C290 1.348 1_565 S
C289 C291 1.413 . S
C290 H285 0.930 . S
C290 C288 1.378 . S
C290 C289 1.348 1_545 S
C291 C287 1.415 1_565 S
C291 C289 1.413 . S
C291 C321 1.437 . S
H292 C321 0.929 . S
N293 Gd266 2.570 . S
N293 C294 1.359 . S
N293 C297 1.343 . S
C294 C287 1.422 . S
C294 N293 1.359 . S
C294 C296 1.421 1_545 S
C295 C296 1.422 . S
C295 C298 1.321 . S
C295 H322 0.931 . S
C296 C294 1.421 1_565 S
C296 C295 1.422 . S
C296 C320 1.417 . S
C297 H274 0.931 1_655 S
C297 N293 1.343 . S
C297 C298 1.390 1_545 S
C298 H276 0.930 1_655 S
C298 C295 1.321 . S
C298 C297 1.390 1_565 S
O299 Gd267 2.386 1_545 S
O299 C311 1.265 . S
O300 Gd266 2.353 1_455 S
O300 C311 1.242 . S
O301 Gd266 2.468 . S
O301 C319 1.263 . S
O302 Gd266 2.427 . S
O302 C319 1.252 . S
O303 Gd267 2.307 1_645 S
O303 C312 1.261 . S
O304 Gd266 2.388 . S
O304 C312 1.252 . S
O305 Gd266 2.386 1_565 S
O305 C323 1.265 . S
O306 Gd267 2.353 . S
O306 C323 1.242 1_455 S
O307 Gd267 2.468 . S
O307 C331 1.263 . S
O308 Gd267 2.427 . S
O308 C331 1.252 . S
O309 Gd266 2.307 1_455 S
O309 C324 1.261 . S
O310 Gd267 2.388 . S
O310 C324 1.252 1_565 S
C311 O299 1.265 . S
C311 O300 1.242 . S
C312 O303 1.261 . S
C312 O304 1.252 . S
C313 C316 1.394 . S
C313 C318 1.370 . S
C313 C319 1.500 . S
C314 C317 1.383 . S
C314 C318 1.395 . S
C315 C316 1.396 . S
C315 C317 1.365 . S
C315 H332 0.929 . S
C316 C313 1.394 . S
C316 C315 1.396 . S
C316 H333 0.930 . S
C317 C314 1.383 . S
C317 C315 1.365 . S
C317 H334 0.931 . S
C318 C313 1.370 . S
C318 C314 1.395 . S
C318 H335 0.930 1_655 S
C319 Gd266 2.805 . S
C319 O301 1.263 . S
C319 O302 1.252 . S
C319 C313 1.500 . S
C320 H282 0.930 . S
C320 C296 1.417 . S
C320 C321 1.329 . S
C321 C291 1.437 . S
C321 H292 0.929 . S
C321 C320 1.329 . S
H322 C295 0.931 . S
C323 O305 1.265 . S
C323 O306 1.242 1_655 S
C324 O309 1.261 . S
C324 O310 1.252 1_545 S
C325 C328 1.394 . S
C325 C330 1.370 . S
C325 C331 1.500 . S
C326 C329 1.383 . S
C326 C330 1.395 . S
C327 C328 1.396 . S
C327 C329 1.365 . S
C327 H336 0.929 . S
C328 C325 1.394 . S
C328 C327 1.396 . S
C328 H337 0.930 . S
C329 C326 1.383 . S
C329 C327 1.365 . S
C329 H338 0.931 . S
C330 C325 1.370 . S
C330 C326 1.395 . S
C330 H339 0.930 . S
C331 Gd267 2.805 . S
C331 O307 1.263 . S
C331 O308 1.252 . S
C331 C325 1.500 . S
H332 C315 0.929 . S
H333 C316 0.930 . S
H334 C317 0.931 . S
H335 C318 0.930 1_455 S
H336 C327 0.929 . S
H337 C328 0.930 . S
H338 C329 0.931 . S
H339 C330 0.930 . S
C340 C342 1.422 . S
C340 C344 1.415 . S
C340 N346 1.369 . S
C341 C342 1.421 . S
C341 C343 1.417 . S
C341 C353 1.422 . S
C342 C340 1.422 . S
C342 C341 1.421 . S
C342 N352 1.359 . S
C343 C341 1.417 . S
C343 C345 1.329 . S
C343 H362 0.930 . S
C344 C340 1.415 . S
C344 C345 1.437 . S
C344 C348 1.413 . S
C345 C343 1.329 . S
C345 C344 1.437 . S
C345 H367 0.929 . S
N346 C340 1.369 . S
N346 C347 1.338 . S
N346 Gd351 2.622 . S
C347 N346 1.338 . S
C347 C349 1.378 . S
C347 H359 0.929 . S
C348 C344 1.413 . S
C348 C349 1.348 . S
C348 H364 0.931 . S
C349 C347 1.378 . S
C349 C348 1.348 . S
C349 H365 0.930 . S
Gd350 N370 2.622 . S
Gd350 N377 2.570 . S
Gd350 O384 2.353 1_545 S
Gd350 O385 2.468 . S
Gd350 O386 2.427 . S
Gd350 O388 2.388 . S
Gd350 O389 2.386 . S
Gd350 O393 2.307 . S
Gd350 C403 2.805 . S
Gd351 N346 2.622 . S
Gd351 N352 2.570 . S
Gd351 O383 2.386 . S
Gd351 O387 2.307 1_565 S
Gd351 O390 2.353 1_565 S
Gd351 O391 2.468 . S
Gd351 O392 2.427 . S
Gd351 O394 2.388 . S
Gd351 C415 2.805 . S
N352 C342 1.359 . S
N352 Gd351 2.570 . S
N352 C354 1.343 . S
C353 C341 1.422 . S
C353 C355 1.321 . S
C353 H361 0.931 . S
C354 N352 1.343 . S
C354 C355 1.390 . S
C354 H356 0.931 . S
C355 C353 1.321 . S
C355 C354 1.390 . S
C355 H357 0.930 . S
H356 C354 0.931 . S
H357 C355 0.930 . S
H358 C381 0.931 . S
H359 C347 0.929 . S
H360 C382 0.930 . S
H361 C353 0.931 . S
H362 C343 0.930 . S
H363 C372 0.929 . S
H364 C348 0.931 . S
H365 C349 0.930 . S
H366 C404 0.930 . S
H367 C345 0.929 . S
H368 C373 0.931 . S
H369 C374 0.930 . S
N370 Gd350 2.622 . S
N370 C371 1.369 . S
N370 C372 1.338 . S
C371 N370 1.369 . S
C371 C375 1.415 . S
C371 C378 1.422 . S
C372 H363 0.929 . S
C372 N370 1.338 . S
C372 C374 1.378 . S
C373 H368 0.931 . S
C373 C374 1.348 . S
C373 C375 1.413 . S
C374 H369 0.930 . S
C374 C372 1.378 . S
C374 C373 1.348 . S
C375 C371 1.415 . S
C375 C373 1.413 . S
C375 C405 1.437 . S
H376 C405 0.929 . S
N377 Gd350 2.570 . S
N377 C378 1.359 . S
N377 C381 1.343 . S
C378 C371 1.422 . S
C378 N377 1.359 . S
C378 C380 1.421 . S
C379 C380 1.422 . S
C379 C382 1.321 . S
C379 H406 0.931 . S
C380 C378 1.421 . S
C380 C379 1.422 . S
C380 C404 1.417 . S
C381 H358 0.931 . S
C381 N377 1.343 . S
C381 C382 1.390 . S
C382 H360 0.930 . S
C382 C379 1.321 . S
C382 C381 1.390 . S
O383 Gd351 2.386 . S
O383 C395 1.265 . S
O384 Gd350 2.353 1_565 S
O384 C395 1.242 . S
O385 Gd350 2.468 . S
O385 C403 1.263 . S
O386 Gd350 2.427 . S
O386 C403 1.252 . S
O387 Gd351 2.307 1_545 S
O387 C396 1.261 . S
O388 Gd350 2.388 . S
O388 C396 1.252 . S
O389 Gd350 2.386 . S
O389 C407 1.265 . S
O390 Gd351 2.353 1_545 S
O390 C407 1.242 . S
O391 Gd351 2.468 . S
O391 C415 1.263 . S
O392 Gd351 2.427 . S
O392 C415 1.252 . S
O393 Gd350 2.307 . S
O393 C408 1.236 1_545 S
O394 Gd351 2.388 . S
O394 C408 1.269 . S
C395 O383 1.265 . S
C395 O384 1.242 . S
C396 O387 1.261 . S
C396 O388 1.252 . S
C397 C400 1.394 . S
C397 C402 1.370 . S
C397 C403 1.500 . S
C398 C401 1.383 . S
C398 C402 1.395 . S
C399 C400 1.396 . S
C399 C401 1.365 . S
C399 H416 0.929 1_556 S
C400 C397 1.394 . S
C400 C399 1.396 . S
C400 H417 0.930 . S
C401 C398 1.383 . S
C401 C399 1.365 . S
C401 H418 0.931 1_556 S
C402 C397 1.370 . S
C402 C398 1.395 . S
C402 H419 0.930 . S
C403 Gd350 2.805 . S
C403 O385 1.263 . S
C403 O386 1.252 . S
C403 C397 1.500 . S
C404 H366 0.930 . S
C404 C380 1.417 . S
C404 C405 1.329 . S
C405 C375 1.437 . S
C405 H376 0.929 . S
C405 C404 1.329 . S
H406 C379 0.931 . S
C407 O389 1.265 . S
C407 O390 1.242 . S
C408 O393 1.236 1_565 S
C408 O394 1.269 . S
C409 C412 1.394 . S
C409 C414 1.369 . S
C409 C415 1.500 . S
C410 C413 1.379 1_545 S
C410 C414 1.395 1_545 S
C411 C412 1.396 . S
C411 C413 1.365 . S
C411 H420 0.929 . S
C412 C409 1.394 . S
C412 C411 1.396 . S
C412 H421 0.930 . S
C413 C410 1.379 1_565 S
C413 C411 1.365 . S
C413 H422 0.931 . S
C414 C409 1.369 . S
C414 C410 1.395 1_565 S
C414 H423 0.931 1_565 S
C415 Gd351 2.805 . S
C415 O391 1.263 . S
C415 O392 1.252 . S
C415 C409 1.500 . S
H416 C399 0.929 1_554 S
H417 C400 0.930 . S
H418 C401 0.931 1_554 S
H419 C402 0.930 . S
H420 C411 0.929 . S
H421 C412 0.930 . S
H422 C413 0.931 . S
H423 C414 0.931 1_545 S
C424 C426 1.422 . S
C424 C428 1.415 . S
C424 N430 1.369 . S
C425 C426 1.421 . S
C425 C427 1.417 . S
C425 C437 1.422 . S
C426 C424 1.422 . S
C426 C425 1.421 . S
C426 N436 1.359 . S
C427 C425 1.417 . S
C427 C429 1.329 . S
C427 H446 0.930 . S
C428 C424 1.415 . S
C428 C429 1.437 . S
C428 C432 1.413 . S
C429 C427 1.329 . S
C429 C428 1.437 . S
C429 H451 0.929 . S
N430 C424 1.369 . S
N430 C431 1.338 . S
N430 Gd435 2.622 . S
C431 N430 1.338 . S
C431 C433 1.378 . S
C431 H443 0.929 . S
C432 C428 1.413 . S
C432 C433 1.348 . S
C432 H448 0.931 . S
C433 C431 1.378 . S
C433 C432 1.348 . S
C433 H449 0.930 . S
Gd434 N454 2.622 . S
Gd434 N461 2.570 . S
Gd434 O468 2.353 . S
Gd434 O469 2.468 . S
Gd434 O470 2.427 . S
Gd434 O472 2.388 . S
Gd434 O473 2.386 . S
Gd434 O477 2.307 . S
Gd434 C487 2.805 . S
Gd435 N430 2.622 . S
Gd435 N436 2.570 . S
Gd435 O467 2.386 . S
Gd435 O471 2.307 . S
Gd435 O474 2.353 . S
Gd435 O475 2.468 . S
Gd435 O476 2.427 . S
Gd435 O478 2.388 . S
Gd435 C499 2.805 . S
N436 C426 1.359 . S
N436 Gd435 2.570 . S
N436 C438 1.343 . S
C437 C425 1.422 . S
C437 C439 1.321 . S
C437 H445 0.931 1_556 S
C438 N436 1.343 . S
C438 C439 1.390 . S
C438 H440 0.931 . S
C439 C437 1.321 . S
C439 C438 1.390 . S
C439 H441 0.930 . S
H440 C438 0.931 . S
H441 C439 0.930 . S
H442 C465 0.931 . S
H443 C431 0.929 . S
H444 C466 0.930 . S
H445 C437 0.931 1_554 S
H446 C427 0.930 . S
H447 C456 0.929 . S
H448 C432 0.931 . S
H449 C433 0.930 . S
H450 C488 0.930 . S
H451 C429 0.929 . S
H452 C457 0.931 . S
H453 C458 0.930 . S
N454 Gd434 2.622 . S
N454 C455 1.369 . S
N454 C456 1.338 . S
C455 N454 1.369 . S
C455 C459 1.415 . S
C455 C462 1.422 . S
C456 H447 0.929 . S
C456 N454 1.338 . S
C456 C458 1.378 . S
C457 H452 0.931 . S
C457 C458 1.348 . S
C457 C459 1.413 . S
C458 H453 0.930 . S
C458 C456 1.378 . S
C458 C457 1.348 . S
C459 C455 1.415 . S
C459 C457 1.413 . S
C459 C489 1.437 . S
H460 C489 0.929 . S
N461 Gd434 2.570 . S
N461 C462 1.359 . S
N461 C465 1.343 . S
C462 C455 1.422 . S
C462 N461 1.359 . S
C462 C464 1.421 . S
C463 C464 1.422 . S
C463 C466 1.321 . S
C463 H490 0.931 . S
C464 C462 1.421 . S
C464 C463 1.422 . S
C464 C488 1.417 . S
C465 H442 0.931 . S
C465 N461 1.343 . S
C465 C466 1.390 . S
C466 H444 0.930 . S
C466 C463 1.321 . S
C466 C465 1.390 . S
O467 Gd435 2.386 . S
O467 C479 1.265 . S
O468 Gd434 2.353 . S
O468 C479 1.242 . S
O469 Gd434 2.468 . S
O469 C487 1.263 . S
O470 Gd434 2.427 . S
O470 C487 1.252 . S
O471 Gd435 2.307 . S
O471 C480 1.261 . S
O472 Gd434 2.388 . S
O472 C480 1.252 . S
O473 Gd434 2.386 . S
O473 C491 1.265 . S
O474 Gd435 2.353 . S
O474 C491 1.242 . S
O475 Gd435 2.468 . S
O475 C499 1.263 . S
O476 Gd435 2.427 . S
O476 C499 1.252 . S
O477 Gd434 2.307 . S
O477 C492 1.261 . S
O478 Gd435 2.388 . S
O478 C492 1.252 . S
C479 O467 1.265 . S
C479 O468 1.242 . S
C480 O471 1.261 . S
C480 O472 1.252 . S
C481 C484 1.394 . S
C481 C486 1.370 . S
C481 C487 1.500 . S
C482 C485 1.383 . S
C482 C486 1.395 . S
C483 C484 1.396 . S
C483 C485 1.365 . S
C483 H500 0.929 . S
C484 C481 1.394 . S
C484 C483 1.396 . S
C484 H501 0.930 . S
C485 C482 1.383 . S
C485 C483 1.365 . S
C485 H502 0.931 . S
C486 C481 1.370 . S
C486 C482 1.395 . S
C486 H503 0.930 . S
C487 Gd434 2.805 . S
C487 O469 1.263 . S
C487 O470 1.252 . S
C487 C481 1.500 . S
C488 H450 0.930 . S
C488 C464 1.417 . S
C488 C489 1.329 . S
C489 C459 1.437 . S
C489 H460 0.929 . S
C489 C488 1.329 . S
H490 C463 0.931 . S
C491 O473 1.265 . S
C491 O474 1.242 . S
C492 O477 1.261 . S
C492 O478 1.252 . S
C493 C496 1.394 . S
C493 C498 1.370 . S
C493 C499 1.500 . S
C494 C497 1.383 . S
C494 C498 1.395 . S
C495 C496 1.396 . S
C495 C497 1.365 . S
C495 H504 0.929 . S
C496 C493 1.394 . S
C496 C495 1.396 . S
C496 H505 0.930 . S
C497 C494 1.383 . S
C497 C495 1.365 . S
C497 H506 0.931 . S
C498 C493 1.370 . S
C498 C494 1.395 . S
C498 H507 0.930 . S
C499 Gd435 2.805 . S
C499 O475 1.263 . S
C499 O476 1.252 . S
C499 C493 1.500 . S
H500 C483 0.929 . S
H501 C484 0.930 . S
H502 C485 0.931 . S
H503 C486 0.930 . S
H504 C495 0.929 . S
H505 C496 0.930 . S
H506 C497 0.931 . S
H507 C498 0.930 . S
C508 C510 1.422 . S
C508 C512 1.415 . S
C508 N514 1.369 1_455 S
C509 C510 1.421 . S
C509 C511 1.417 . S
C509 C521 1.422 . S
C510 C508 1.422 . S
C510 C509 1.421 . S
C510 N520 1.359 . S
C511 C509 1.417 . S
C511 C513 1.329 . S
C511 H530 0.930 . S
C512 C508 1.415 . S
C512 C513 1.437 . S
C512 C516 1.413 . S
C513 C511 1.329 . S
C513 C512 1.437 . S
C513 H535 0.929 . S
N514 C508 1.369 1_655 S
N514 C515 1.338 . S
N514 Gd519 2.622 . S
C515 N514 1.338 . S
C515 C517 1.378 1_655 S
C515 H527 0.929 . S
C516 C512 1.413 . S
C516 C517 1.348 . S
C516 H532 0.931 . S
C517 C515 1.378 1_455 S
C517 C516 1.348 . S
C517 H533 0.930 . S
Gd518 N538 2.622 . S
Gd518 N545 2.570 . S
Gd518 O552 2.353 . S
Gd518 O553 2.468 . S
Gd518 O554 2.427 . S
Gd518 O556 2.388 . S
Gd518 O557 2.386 1_455 S
Gd518 O561 2.307 . S
Gd518 C571 2.805 . S
Gd519 N514 2.622 . S
Gd519 N520 2.570 1_655 S
Gd519 O551 2.386 1_655 S
Gd519 O555 2.307 . S
Gd519 O558 2.353 . S
Gd519 O559 2.468 . S
Gd519 O560 2.427 . S
Gd519 O562 2.388 . S
Gd519 C583 2.805 . S
N520 C510 1.359 . S
N520 Gd519 2.570 1_455 S
N520 C522 1.343 . S
C521 C509 1.422 . S
C521 C523 1.321 . S
C521 H529 0.931 1_556 S
C522 N520 1.343 . S
C522 C523 1.390 . S
C522 H524 0.931 1_455 S
C523 C521 1.321 . S
C523 C522 1.390 . S
C523 H525 0.930 . S
H524 C522 0.931 1_655 S
H525 C523 0.930 . S
H526 C549 0.931 . S
H527 C515 0.929 . S
H528 C550 0.930 . S
H529 C521 0.931 1_554 S
H530 C511 0.930 . S
H531 C540 0.929 . S
H532 C516 0.931 . S
H533 C517 0.930 . S
H534 C572 0.930 . S
H535 C513 0.929 . S
H536 C541 0.931 . S
H537 C542 0.930 . S
N538 Gd518 2.622 . S
N538 C539 1.369 . S
N538 C540 1.338 . S
C539 N538 1.369 . S
C539 C543 1.415 1_455 S
C539 C546 1.420 1_455 S
C540 H531 0.929 . S
C540 N538 1.338 . S
C540 C542 1.378 . S
C541 H536 0.931 . S
C541 C542 1.348 1_655 S
C541 C543 1.413 . S
C542 H537 0.930 . S
C542 C540 1.378 . S
C542 C541 1.348 1_455 S
C543 C539 1.415 1_655 S
C543 C541 1.413 . S
C543 C573 1.437 . S
H544 C573 0.929 . S
N545 Gd518 2.570 . S
N545 C546 1.351 1_455 S
N545 C549 1.343 . S
C546 C539 1.420 1_655 S
C546 N545 1.351 1_655 S
C546 C548 1.432 . S
C547 C548 1.422 . S
C547 C550 1.321 . S
C547 H574 0.931 . S
C548 C546 1.432 . S
C548 C547 1.422 . S
C548 C572 1.417 . S
C549 H526 0.931 . S
C549 N545 1.343 . S
C549 C550 1.390 1_455 S
C550 H528 0.930 . S
C550 C547 1.321 . S
C550 C549 1.390 1_655 S
O551 Gd519 2.386 1_455 S
O551 C563 1.265 . S
O552 Gd518 2.353 . S
O552 C563 1.242 . S
O553 Gd518 2.468 . S
O553 C571 1.263 . S
O554 Gd518 2.427 . S
O554 C571 1.252 . S
O555 Gd519 2.307 . S
O555 C564 1.261 1_655 S
O556 Gd518 2.388 . S
O556 C564 1.252 . S
O557 Gd518 2.386 1_655 S
O557 C575 1.265 . S
O558 Gd519 2.353 . S
O558 C575 1.242 . S
O559 Gd519 2.468 . S
O559 C583 1.263 . S
O560 Gd519 2.427 . S
O560 C583 1.252 . S
O561 Gd518 2.307 . S
O561 C576 1.261 . S
O562 Gd519 2.388 . S
O562 C576 1.252 1_655 S
C563 O551 1.265 . S
C563 O552 1.242 . S
C564 O555 1.261 1_455 S
C564 O556 1.252 . S
C565 C568 1.394 . S
C565 C570 1.370 . S
C565 C571 1.500 . S
C566 C569 1.383 . S
C566 C570 1.395 . S
C567 C568 1.396 . S
C567 C569 1.365 . S
C567 H584 0.929 . S
C568 C565 1.394 . S
C568 C567 1.396 . S
C568 H585 0.930 . S
C569 C566 1.383 . S
C569 C567 1.365 . S
C569 H586 0.931 . S
C570 C565 1.370 . S
C570 C566 1.395 . S
C570 H587 0.930 . S
C571 Gd518 2.805 . S
C571 O553 1.263 . S
C571 O554 1.252 . S
C571 C565 1.500 . S
C572 H534 0.930 . S
C572 C548 1.417 . S
C572 C573 1.329 . S
C573 C543 1.437 . S
C573 H544 0.929 . S
C573 C572 1.329 . S
H574 C547 0.931 . S
C575 O557 1.265 . S
C575 O558 1.242 . S
C576 O561 1.261 . S
C576 O562 1.252 1_455 S
C577 C580 1.394 . S
C577 C582 1.370 . S
C577 C583 1.500 . S
C578 C581 1.383 . S
C578 C582 1.395 . S
C579 C580 1.396 . S
C579 C581 1.365 . S
C579 H588 0.929 . S
C580 C577 1.394 . S
C580 C579 1.396 . S
C580 H589 0.930 . S
C581 C578 1.383 . S
C581 C579 1.365 . S
C581 H590 0.931 . S
C582 C577 1.370 . S
C582 C578 1.395 . S
C582 H591 0.930 . S
C583 Gd519 2.805 . S
C583 O559 1.263 . S
C583 O560 1.252 . S
C583 C577 1.500 . S
H584 C567 0.929 . S
H585 C568 0.930 . S
H586 C569 0.931 . S
H587 C570 0.930 . S
H588 C579 0.929 . S
H589 C580 0.930 . S
H590 C581 0.931 . S
H591 C582 0.930 . S
H592 C604 0.930 . S
H593 C606 0.930 . S
H594 C607 0.930 1_565 S
H595 C611 0.959 . S
H596 C611 0.959 . S
H597 C611 0.961 . S
H598 C612 0.960 . S
H599 C612 0.961 . S
H600 C612 0.959 . S
H601 C615 0.916 1_565 S
H602 C616 0.924 1_565 S
H603 C618 0.930 . S
C604 H592 0.930 . S
C604 C605 1.399 . S
C604 C609 1.399 . S
C605 C604 1.399 . S
C605 C606 1.376 . S
C606 H593 0.930 . S
C606 C605 1.376 . S
C606 C607 1.388 . S
C607 H594 0.930 1_545 S
C607 C606 1.388 . S
C607 C608 1.390 . S
C608 C607 1.390 . S
C608 C609 1.394 . S
C608 C614 1.465 . S
C609 C604 1.399 . S
C609 C608 1.394 . S
C609 C610 1.516 . S
C610 C609 1.516 . S
C610 C611 1.502 . S
C610 C612 1.561 . S
C610 C613 1.526 . S
C611 H595 0.959 . S
C611 H596 0.959 . S
C611 H597 0.961 . S
C611 C610 1.502 . S
C612 H598 0.960 . S
C612 H599 0.961 . S
C612 H600 0.959 . S
C612 C610 1.561 . S
C613 C610 1.526 . S
C613 C614 1.396 . S
C613 C618 1.390 . S
C614 C608 1.465 . S
C614 C613 1.396 . S
C614 C615 1.412 . S
C615 H601 0.916 1_545 S
C615 C614 1.412 . S
C615 C616 1.385 . S
C616 H602 0.924 1_545 S
C616 C615 1.385 . S
C616 C617 1.395 . S
C617 C616 1.395 . S
C617 C618 1.387 . S
C618 H603 0.930 . S
C618 C613 1.390 . S
C618 C617 1.387 . S
H619 C631 0.930 . S
H620 C633 0.930 . S
H621 C634 0.930 . S
H622 C638 0.959 . S
H623 C638 0.959 . S
H624 C638 0.961 . S
H625 C639 0.960 . S
H626 C639 0.961 . S
H627 C639 0.959 . S
H628 C642 0.929 . S
H629 C643 0.931 . S
H630 C645 0.930 . S
C631 H619 0.930 . S
C631 C632 1.399 . S
C631 C636 1.399 . S
C632 C631 1.399 . S
C632 C633 1.376 . S
C633 H620 0.930 . S
C633 C632 1.376 . S
C633 C634 1.388 . S
C634 H621 0.930 . S
C634 C633 1.388 . S
C634 C635 1.390 . S
C635 C634 1.390 . S
C635 C636 1.394 . S
C635 C641 1.465 . S
C636 C631 1.399 . S
C636 C635 1.394 . S
C636 C637 1.516 . S
C637 C636 1.516 . S
C637 C638 1.502 . S
C637 C639 1.561 . S
C637 C640 1.526 . S
C638 H622 0.959 . S
C638 H623 0.959 . S
C638 H624 0.961 . S
C638 C637 1.502 . S
C639 H625 0.960 . S
C639 H626 0.961 . S
C639 H627 0.959 . S
C639 C637 1.561 . S
C640 C637 1.526 . S
C640 C641 1.396 . S
C640 C645 1.390 . S
C641 C635 1.465 . S
C641 C640 1.396 . S
C641 C642 1.399 . S
C642 H628 0.929 . S
C642 C641 1.399 . S
C642 C643 1.385 . S
C643 H629 0.931 . S
C643 C642 1.385 . S
C643 C644 1.389 . S
C644 C643 1.389 . S
C644 C645 1.387 . S
C645 H630 0.930 . S
C645 C640 1.390 . S
C645 C644 1.387 . S
H646 C658 0.930 . S
H647 C660 0.930 . S
H648 C661 0.930 . S
H649 C665 0.959 . S
H650 C665 0.959 . S
H651 C665 0.961 . S
H652 C666 0.960 . S
H653 C666 0.961 . S
H654 C666 0.959 . S
H655 C669 0.929 . S
H656 C670 0.931 . S
H657 C672 0.930 . S
C658 H646 0.930 . S
C658 C659 1.399 . S
C658 C663 1.399 . S
C659 C658 1.399 . S
C659 C660 1.376 . S
C660 H647 0.930 . S
C660 C659 1.376 . S
C660 C661 1.388 . S
C661 H648 0.930 . S
C661 C660 1.388 . S
C661 C662 1.390 . S
C662 C661 1.390 . S
C662 C663 1.394 . S
C662 C668 1.465 . S
C663 C658 1.399 . S
C663 C662 1.394 . S
C663 C664 1.516 . S
C664 C663 1.516 . S
C664 C665 1.502 . S
C664 C666 1.561 . S
C664 C667 1.526 . S
C665 H649 0.959 . S
C665 H650 0.959 . S
C665 H651 0.961 . S
C665 C664 1.502 . S
C666 H652 0.960 . S
C666 H653 0.961 . S
C666 H654 0.959 . S
C666 C664 1.561 . S
C667 C664 1.526 . S
C667 C668 1.396 . S
C667 C672 1.390 . S
C668 C662 1.465 . S
C668 C667 1.396 . S
C668 C669 1.399 . S
C669 H655 0.929 . S
C669 C668 1.399 . S
C669 C670 1.385 . S
C670 H656 0.931 . S
C670 C669 1.385 . S
C670 C671 1.389 . S
C671 C670 1.389 . S
C671 C672 1.387 . S
C672 H657 0.930 . S
C672 C667 1.390 . S
C672 C671 1.387 . S
H673 C685 0.930 . S
H674 C687 0.930 . S
H675 C688 0.930 . S
H676 C692 0.959 1_655 S
H677 C692 0.959 1_655 S
H678 C692 0.961 . S
H679 C693 0.960 . S
H680 C693 0.961 . S
H681 C693 0.959 . S
H682 C696 0.929 . S
H683 C697 0.931 . S
H684 C699 0.930 . S
C685 H673 0.930 . S
C685 C686 1.399 . S
C685 C690 1.399 . S
C686 C685 1.399 . S
C686 C687 1.376 . S
C687 H674 0.930 . S
C687 C686 1.376 . S
C687 C688 1.388 . S
C688 H675 0.930 . S
C688 C687 1.388 . S
C688 C689 1.390 . S
C689 C688 1.390 . S
C689 C690 1.394 . S
C689 C695 1.465 . S
C690 C685 1.399 . S
C690 C689 1.394 . S
C690 C691 1.516 . S
C691 C690 1.516 . S
C691 C692 1.502 . S
C691 C693 1.561 . S
C691 C694 1.526 . S
C692 H676 0.959 1_455 S
C692 H677 0.959 1_455 S
C692 H678 0.961 . S
C692 C691 1.502 . S
C693 H679 0.960 . S
C693 H680 0.961 . S
C693 H681 0.959 . S
C693 C691 1.561 . S
C694 C691 1.526 . S
C694 C695 1.396 . S
C694 C699 1.390 . S
C695 C689 1.465 . S
C695 C694 1.396 . S
C695 C696 1.399 . S
C696 H682 0.929 . S
C696 C695 1.399 . S
C696 C697 1.385 . S
C697 H683 0.931 . S
C697 C696 1.385 . S
C697 C698 1.389 . S
C698 C697 1.389 . S
C698 C699 1.387 . S
C699 H684 0.930 . S
C699 C694 1.390 . S
C699 C698 1.387 . S
H700 C712 0.930 1_545 S
H701 C714 0.930 . S
H702 C715 0.930 . S
H703 C719 0.959 . S
H704 C719 0.959 . S
H705 C719 0.961 1_554 S
H706 C720 0.960 . S
H707 C720 0.961 . S
H708 C720 0.959 . S
H709 C723 0.929 . S
H710 C724 0.931 . S
H711 C726 0.930 . S
C712 H700 0.930 1_565 S
C712 C713 1.399 . S
C712 C717 1.399 . S
C713 C712 1.399 . S
C713 C714 1.376 . S
C714 H701 0.930 . S
C714 C713 1.376 . S
C714 C715 1.388 . S
C715 H702 0.930 . S
C715 C714 1.388 . S
C715 C716 1.390 1_554 S
C716 C715 1.390 1_556 S
C716 C717 1.394 1_556 S
C716 C722 1.465 . S
C717 C712 1.399 . S
C717 C716 1.394 1_554 S
C717 C718 1.516 1_564 S
C718 C717 1.516 1_546 S
C718 C719 1.502 . S
C718 C720 1.561 1_556 S
C718 C721 1.526 . S
C719 H703 0.959 . S
C719 H704 0.959 . S
C719 H705 0.961 1_556 S
C719 C718 1.502 . S
C720 H706 0.960 . S
C720 H707 0.961 . S
C720 H708 0.959 . S
C720 C718 1.561 1_554 S
C721 C718 1.526 . S
C721 C722 1.396 1_545 S
C721 C726 1.390 . S
C722 C716 1.465 . S
C722 C721 1.396 1_565 S
C722 C723 1.399 . S
C723 H709 0.929 . S
C723 C722 1.399 . S
C723 C724 1.385 . S
C724 H710 0.931 . S
C724 C723 1.385 . S
C724 C725 1.389 . S
C725 C724 1.389 . S
C725 C726 1.387 1_565 S
C726 H711 0.930 . S
C726 C721 1.390 . S
C726 C725 1.387 1_545 S
H727 C739 0.930 . S
H728 C741 0.930 . S
H729 C742 0.930 1_556 S
H730 C746 0.959 . S
H731 C746 0.959 . S
H732 C746 0.961 . S
H733 C747 0.960 . S
H734 C747 0.961 1_556 S
H735 C747 0.959 1_556 S
H736 C750 0.929 . S
H737 C751 0.931 . S
H738 C753 0.930 . S
C739 H727 0.930 . S
C739 C740 1.399 . S
C739 C744 1.399 . S
C740 C739 1.399 . S
C740 C741 1.376 . S
C741 H728 0.930 . S
C741 C740 1.376 . S
C741 C742 1.388 . S
C742 H729 0.930 1_554 S
C742 C741 1.388 . S
C742 C743 1.390 1_554 S
C743 C742 1.390 1_556 S
C743 C744 1.394 1_556 S
C743 C749 1.465 . S
C744 C739 1.399 . S
C744 C743 1.394 1_554 S
C744 C745 1.516 . S
C745 C744 1.516 . S
C745 C746 1.502 . S
C745 C747 1.561 . S
C745 C748 1.526 1_554 S
C746 H730 0.959 . S
C746 H731 0.959 . S
C746 H732 0.961 . S
C746 C745 1.502 . S
C747 H733 0.960 . S
C747 H734 0.961 1_554 S
C747 H735 0.959 1_554 S
C747 C745 1.561 . S
C748 C745 1.526 1_556 S
C748 C749 1.396 . S
C748 C753 1.390 . S
C749 C743 1.465 . S
C749 C748 1.396 . S
C749 C750 1.399 . S
C750 H736 0.929 . S
C750 C749 1.399 . S
C750 C751 1.385 . S
C751 H737 0.931 . S
C751 C750 1.385 . S
C751 C752 1.389 . S
C752 C751 1.389 . S
C752 C753 1.387 . S
C753 H738 0.930 . S
C753 C748 1.390 . S
C753 C752 1.387 . S
H754 C766 0.930 . S
H755 C768 0.930 . S
H756 C769 0.930 . S
H757 C773 0.959 . S
H758 C773 0.959 . S
H759 C773 0.961 . S
H760 C774 0.960 . S
H761 C774 0.961 1_556 S
H762 C774 0.959 . S
H763 C777 0.929 . S
H764 C778 0.931 . S
H765 C780 0.930 . S
C766 H754 0.930 . S
C766 C767 1.399 . S
C766 C771 1.399 . S
C767 C766 1.399 . S
C767 C768 1.376 . S
C768 H755 0.930 . S
C768 C767 1.376 . S
C768 C769 1.388 . S
C769 H756 0.930 . S
C769 C768 1.388 . S
C769 C770 1.390 . S
C770 C769 1.390 . S
C770 C771 1.394 . S
C770 C776 1.465 1_554 S
C771 C766 1.399 . S
C771 C770 1.394 . S
C771 C772 1.516 1_554 S
C772 C771 1.516 1_556 S
C772 C773 1.502 . S
C772 C774 1.561 1_556 S
C772 C775 1.526 . S
C773 H757 0.959 . S
C773 H758 0.959 . S
C773 H759 0.961 . S
C773 C772 1.502 . S
C774 H760 0.960 . S
C774 H761 0.961 1_554 S
C774 H762 0.959 . S
C774 C772 1.561 1_554 S
C775 C772 1.526 . S
C775 C776 1.396 . S
C775 C780 1.390 . S
C776 C770 1.465 1_556 S
C776 C775 1.396 . S
C776 C777 1.399 . S
C777 H763 0.929 . S
C777 C776 1.399 . S
C777 C778 1.385 . S
C778 H764 0.931 . S
C778 C777 1.385 . S
C778 C779 1.389 . S
C779 C778 1.389 . S
C779 C780 1.387 . S
C780 H765 0.930 . S
C780 C775 1.390 . S
C780 C779 1.387 . S
H781 C793 0.930 . S
H782 C795 0.930 . S
H783 C796 0.930 1_556 S
H784 C800 0.959 1_556 S
H785 C800 0.960 1_556 S
H786 C800 0.961 . S
H787 C801 0.960 . S
H788 C801 0.961 . S
H789 C801 0.959 . S
H790 C804 0.929 . S
H791 C805 0.931 . S
H792 C807 0.950 . S
C793 H781 0.930 . S
C793 C794 1.399 . S
C793 C798 1.399 . S
C794 C793 1.399 . S
C794 C795 1.376 . S
C795 H782 0.930 . S
C795 C794 1.376 . S
C795 C796 1.388 . S
C796 H783 0.930 1_554 S
C796 C795 1.388 . S
C796 C797 1.390 1_554 S
C797 C796 1.390 1_556 S
C797 C798 1.394 1_556 S
C797 C803 1.465 . S
C798 C793 1.399 . S
C798 C797 1.394 1_554 S
C798 C799 1.532 . S
C799 C798 1.532 . S
C799 C800 1.470 1_655 S
C799 C801 1.575 . S
C799 C802 1.534 1_554 S
C800 H784 0.959 1_554 S
C800 H785 0.960 1_554 S
C800 H786 0.961 . S
C800 C799 1.470 1_455 S
C801 H787 0.960 . S
C801 H788 0.961 . S
C801 H789 0.959 . S
C801 C799 1.575 . S
C802 C799 1.534 1_556 S
C802 C803 1.396 . S
C802 C807 1.381 1_655 S
C803 C797 1.465 . S
C803 C802 1.396 . S
C803 C804 1.399 . S
C804 H790 0.929 . S
C804 C803 1.399 . S
C804 C805 1.385 . S
C805 H791 0.931 . S
C805 C804 1.385 . S
C805 C806 1.389 . S
C806 C805 1.389 . S
C806 C807 1.377 1_655 S
C807 H792 0.950 . S
C807 C802 1.381 1_455 S
C807 C806 1.377 1_455 S
H808 C820 0.930 . S
H809 C822 0.930 . S
H810 C823 0.930 . S
H811 C827 0.959 . S
H812 C827 0.959 . S
H813 C827 0.961 . S
H814 C828 0.960 . S
H815 C828 0.961 . S
H816 C828 0.959 . S
H817 C831 0.929 . S
H818 C832 0.931 . S
H819 C834 0.930 . S
C820 H808 0.930 . S
C820 C821 1.399 . S
C820 C825 1.399 . S
C821 C820 1.399 . S
C821 C822 1.376 . S
C822 H809 0.930 . S
C822 C821 1.376 . S
C822 C823 1.388 . S
C823 H810 0.930 . S
C823 C822 1.388 . S
C823 C824 1.390 . S
C824 C823 1.390 . S
C824 C825 1.394 . S
C824 C830 1.465 . S
C825 C820 1.399 . S
C825 C824 1.394 . S
C825 C826 1.516 . S
C826 C825 1.516 . S
C826 C827 1.502 . S
C826 C828 1.561 1_455 S
C826 C829 1.526 . S
C827 H811 0.959 . S
C827 H812 0.959 . S
C827 H813 0.961 . S
C827 C826 1.502 . S
C828 H814 0.960 . S
C828 H815 0.961 . S
C828 H816 0.959 . S
C828 C826 1.561 1_655 S
C829 C826 1.526 . S
C829 C830 1.396 . S
C829 C834 1.390 1_455 S
C830 C824 1.465 . S
C830 C829 1.396 . S
C830 C831 1.399 . S
C831 H817 0.929 . S
C831 C830 1.399 . S
C831 C832 1.385 . S
C832 H818 0.931 . S
C832 C831 1.385 . S
C832 C833 1.389 1_455 S
C833 C832 1.389 1_655 S
C833 C834 1.387 . S
C834 H819 0.930 . S
C834 C829 1.390 1_655 S
C834 C833 1.387 . S
H835 C847 0.930 . S
H836 C849 0.930 . S
H837 C850 0.930 . S
H838 C854 0.959 . S
H839 C854 0.959 . S
H840 C854 0.961 . S
H841 C855 0.960 . S
H842 C855 0.961 1_565 S
H843 C855 0.959 . S
H844 C858 0.929 . S
H845 C859 0.931 . S
H846 C861 0.930 . S
C847 H835 0.930 . S
C847 C848 1.399 . S
C847 C852 1.399 . S
C848 C847 1.399 . S
C848 C849 1.376 . S
C849 H836 0.930 . S
C849 C848 1.376 . S
C849 C850 1.388 . S
C850 H837 0.930 . S
C850 C849 1.388 . S
C850 C851 1.390 . S
C851 C850 1.390 . S
C851 C852 1.394 . S
C851 C857 1.465 . S
C852 C847 1.399 . S
C852 C851 1.394 . S
C852 C853 1.516 . S
C853 C852 1.516 . S
C853 C854 1.502 1_545 S
C853 C855 1.561 . S
C853 C856 1.526 . S
C854 H838 0.959 . S
C854 H839 0.959 . S
C854 H840 0.961 . S
C854 C853 1.502 1_565 S
C855 H841 0.960 . S
C855 H842 0.961 1_545 S
C855 H843 0.959 . S
C855 C853 1.561 . S
C856 C853 1.526 . S
C856 C857 1.396 . S
C856 C861 1.390 1_545 S
C857 C851 1.465 . S
C857 C856 1.396 . S
C857 C858 1.399 . S
C858 H844 0.929 . S
C858 C857 1.399 . S
C858 C859 1.385 . S
C859 H845 0.931 . S
C859 C858 1.385 . S
C859 C860 1.389 . S
C860 C859 1.389 . S
C860 C861 1.387 1_545 S
C861 H846 0.930 . S
C861 C856 1.390 1_565 S
C861 C860 1.387 1_565 S
H862 C874 0.930 . S
H863 C876 0.930 . S
H864 C877 0.930 . S
H865 C881 0.959 . S
H866 C881 0.959 . S
H867 C881 0.961 . S
H868 C882 0.960 . S
H869 C882 0.961 . S
H870 C882 0.959 . S
H871 C885 0.929 . S
H872 C886 0.931 . S
H873 C888 0.930 . S
C874 H862 0.930 . S
C874 C875 1.399 . S
C874 C879 1.399 . S
C875 C874 1.399 . S
C875 C876 1.376 . S
C876 H863 0.930 . S
C876 C875 1.376 . S
C876 C877 1.388 . S
C877 H864 0.930 . S
C877 C876 1.388 . S
C877 C878 1.390 . S
C878 C877 1.390 . S
C878 C879 1.394 . S
C878 C884 1.465 . S
C879 C874 1.399 . S
C879 C878 1.394 . S
C879 C880 1.516 . S
C880 C879 1.516 . S
C880 C881 1.502 . S
C880 C882 1.561 . S
C880 C883 1.526 . S
C881 H865 0.959 . S
C881 H866 0.959 . S
C881 H867 0.961 . S
C881 C880 1.502 . S
C882 H868 0.960 . S
C882 H869 0.961 . S
C882 H870 0.959 . S
C882 C880 1.561 . S
C883 C880 1.526 . S
C883 C884 1.396 . S
C883 C888 1.390 . S
C884 C878 1.465 . S
C884 C883 1.396 . S
C884 C885 1.399 . S
C885 H871 0.929 . S
C885 C884 1.399 . S
C885 C886 1.385 . S
C886 H872 0.931 . S
C886 C885 1.385 . S
C886 C887 1.389 . S
C887 C886 1.389 . S
C887 C888 1.387 . S
C888 H873 0.930 . S
C888 C883 1.390 . S
C888 C887 1.387 . S
H889 C901 0.930 . S
H890 C903 0.930 . S
H891 C904 0.930 . S
H892 C908 0.959 . S
H893 C908 0.959 . S
H894 C908 0.961 . S
H895 C909 0.960 . S
H896 C909 0.961 . S
H897 C909 0.959 . S
H898 C912 0.929 . S
H899 C913 0.931 . S
H900 C915 0.930 . S
C901 H889 0.930 . S
C901 C902 1.399 . S
C901 C906 1.399 . S
C902 C901 1.399 . S
C902 C903 1.376 . S
C903 H890 0.930 . S
C903 C902 1.376 . S
C903 C904 1.388 . S
C904 H891 0.930 . S
C904 C903 1.388 . S
C904 C905 1.390 . S
C905 C904 1.390 . S
C905 C906 1.394 . S
C905 C911 1.465 . S
C906 C901 1.399 . S
C906 C905 1.394 . S
C906 C907 1.516 . S
C907 C906 1.516 . S
C907 C908 1.502 . S
C907 C909 1.561 . S
C907 C910 1.526 . S
C908 H892 0.959 . S
C908 H893 0.959 . S
C908 H894 0.961 . S
C908 C907 1.502 . S
C909 H895 0.960 . S
C909 H896 0.961 . S
C909 H897 0.959 . S
C909 C907 1.561 . S
C910 C907 1.526 . S
C910 C911 1.396 . S
C910 C915 1.390 . S
C911 C905 1.465 . S
C911 C910 1.396 . S
C911 C912 1.399 . S
C912 H898 0.929 . S
C912 C911 1.399 . S
C912 C913 1.385 . S
C913 H899 0.931 . S
C913 C912 1.385 . S
C913 C914 1.389 . S
C914 C913 1.389 . S
C914 C915 1.387 . S
C915 H900 0.930 . S
C915 C910 1.390 . S
C915 C914 1.387 . S
H916 C928 0.930 . S
H917 C930 0.930 . S
H918 C931 0.930 . S
H919 C935 0.959 . S
H920 C935 0.959 . S
H921 C935 0.961 . S
H922 C936 0.960 . S
H923 C936 0.961 . S
H924 C936 0.959 . S
H925 C939 0.929 . S
H926 C940 0.933 . S
H927 C942 0.930 . S
C928 H916 0.930 . S
C928 C929 1.399 . S
C928 C933 1.399 . S
C929 C928 1.399 . S
C929 C930 1.376 . S
C930 H917 0.930 . S
C930 C929 1.376 . S
C930 C931 1.388 . S
C931 H918 0.930 . S
C931 C930 1.388 . S
C931 C932 1.390 . S
C932 C931 1.390 . S
C932 C933 1.394 . S
C932 C938 1.465 1_554 S
C933 C928 1.399 . S
C933 C932 1.394 . S
C933 C934 1.516 1_554 S
C934 C933 1.516 1_556 S
C934 C935 1.502 1_655 S
C934 C936 1.561 . S
C934 C937 1.525 1_655 S
C935 H919 0.959 . S
C935 H920 0.959 . S
C935 H921 0.961 . S
C935 C934 1.502 1_455 S
C936 H922 0.960 . S
C936 H923 0.961 . S
C936 H924 0.959 . S
C936 C934 1.561 . S
C937 C934 1.525 1_455 S
C937 C938 1.388 1_455 S
C937 C942 1.397 . S
C938 C932 1.465 1_556 S
C938 C937 1.388 1_655 S
C938 C939 1.399 1_556 S
C939 H925 0.929 . S
C939 C938 1.399 1_554 S
C939 C940 1.405 1_554 S
C940 H926 0.933 . S
C940 C939 1.405 1_556 S
C940 C941 1.369 1_655 S
C941 C940 1.369 1_455 S
C941 C942 1.387 . S
C942 H927 0.930 . S
C942 C937 1.397 . S
C942 C941 1.387 . S
H943 C955 0.944 . S
H944 C957 0.930 . S
H945 C958 0.930 . S
H946 C962 0.959 1_554 S
H947 C962 0.959 . S
H948 C962 0.961 1_554 S
H949 C963 0.960 . S
H950 C963 0.961 . S
H951 C963 0.959 1_565 S
H952 C966 0.929 . S
H953 C967 0.931 . S
H954 C969 0.930 . S
C955 H943 0.944 . S
C955 C956 1.399 . S
C955 C960 1.399 . S
C956 C955 1.399 . S
C956 C957 1.376 . S
C957 H944 0.930 . S
C957 C956 1.376 . S
C957 C958 1.388 . S
C958 H945 0.930 . S
C958 C957 1.388 . S
C958 C959 1.390 . S
C959 C958 1.390 . S
C959 C960 1.394 . S
C959 C965 1.465 1_554 S
C960 C955 1.399 . S
C960 C959 1.394 . S
C960 C961 1.516 1_564 S
C961 C960 1.516 1_546 S
C961 C962 1.502 . S
C961 C963 1.561 . S
C961 C964 1.526 . S
C962 H946 0.959 1_556 S
C962 H947 0.959 . S
C962 H948 0.961 1_556 S
C962 C961 1.502 . S
C963 H949 0.960 . S
C963 H950 0.961 . S
C963 H951 0.959 1_545 S
C963 C961 1.561 . S
C964 C961 1.526 . S
C964 C965 1.396 1_545 S
C964 C969 1.390 . S
C965 C959 1.465 1_556 S
C965 C964 1.396 1_565 S
C965 C966 1.399 . S
C966 H952 0.929 . S
C966 C965 1.399 . S
C966 C967 1.385 . S
C967 H953 0.931 . S
C967 C966 1.385 . S
C967 C968 1.389 1_565 S
C968 C967 1.389 1_545 S
C968 C969 1.387 . S
C969 H954 0.930 . S
C969 C964 1.390 . S
C969 C968 1.387 . S
H970 C982 0.930 . S
H971 C984 0.930 . S
H972 C985 0.930 . S
H973 C989 0.959 . S
H974 C989 0.959 . S
H975 C989 0.961 . S
H976 C990 0.960 . S
H977 C990 0.961 . S
H978 C990 0.959 . S
H979 C993 0.929 . S
H980 C994 0.931 . S
H981 C996 0.930 . S
C982 H970 0.930 . S
C982 C983 1.399 . S
C982 C987 1.399 . S
C983 C982 1.399 . S
C983 C984 1.376 . S
C984 H971 0.930 . S
C984 C983 1.376 . S
C984 C985 1.388 . S
C985 H972 0.930 . S
C985 C984 1.388 . S
C985 C986 1.390 . S
C986 C985 1.390 . S
C986 C987 1.394 . S
C986 C992 1.473 . S
C987 C982 1.399 . S
C987 C986 1.394 . S
C987 C988 1.516 1_554 S
C988 C987 1.516 1_556 S
C988 C989 1.502 . S
C988 C990 1.561 . S
C988 C991 1.526 . S
C989 H973 0.959 . S
C989 H974 0.959 . S
C989 H975 0.961 . S
C989 C988 1.502 . S
C990 H976 0.960 . S
C990 H977 0.961 . S
C990 H978 0.959 . S
C990 C988 1.561 . S
C991 C988 1.526 . S
C991 C992 1.384 1_556 S
C991 C996 1.390 . S
C992 C986 1.473 . S
C992 C991 1.384 1_554 S
C992 C993 1.402 . S
C993 H979 0.929 . S
C993 C992 1.402 . S
C993 C994 1.385 1_554 S
C994 H980 0.931 . S
C994 C993 1.385 1_556 S
C994 C995 1.389 . S
C995 C994 1.389 . S
C995 C996 1.387 . S
C996 H981 0.930 . S
C996 C991 1.390 . S
C996 C995 1.387 . S
H997 C1009 0.930 . S
H998 C1011 0.930 . S
H999 C1012 0.930 . S
H1000 C1016 0.959 . S
H1001 C1016 0.959 . S
H1002 C1016 0.961 . S
H1003 C1017 0.960 . S
H1004 C1017 0.961 . S
H1005 C1017 0.959 . S
H1006 C1020 0.929 . S
H1007 C1021 0.931 . S
H1008 C1023 0.930 . S
C1009 H997 0.930 . S
C1009 C1010 1.399 . S
C1009 C1014 1.399 . S
C1010 C1009 1.399 . S
C1010 C1011 1.376 . S
C1011 H998 0.930 . S
C1011 C1010 1.376 . S
C1011 C1012 1.388 1_554 S
C1012 H999 0.930 . S
C1012 C1011 1.388 1_556 S
C1012 C1013 1.390 . S
C1013 C1012 1.390 . S
C1013 C1014 1.394 1_556 S
C1013 C1019 1.465 . S
C1014 C1009 1.399 . S
C1014 C1013 1.394 1_554 S
C1014 C1015 1.516 . S
C1015 C1014 1.516 . S
C1015 C1016 1.502 . S
C1015 C1017 1.561 . S
C1015 C1018 1.526 1_554 S
C1016 H1000 0.959 . S
C1016 H1001 0.959 . S
C1016 H1002 0.961 . S
C1016 C1015 1.502 . S
C1017 H1003 0.960 . S
C1017 H1004 0.961 . S
C1017 H1005 0.959 . S
C1017 C1015 1.561 . S
C1018 C1015 1.526 1_556 S
C1018 C1019 1.396 . S
C1018 C1023 1.390 . S
C1019 C1013 1.465 . S
C1019 C1018 1.396 . S
C1019 C1020 1.399 . S
C1020 H1006 0.929 . S
C1020 C1019 1.399 . S
C1020 C1021 1.385 . S
C1021 H1007 0.931 . S
C1021 C1020 1.385 . S
C1021 C1022 1.389 . S
C1022 C1021 1.389 . S
C1022 C1023 1.387 . S
C1023 H1008 0.930 . S
C1023 C1018 1.390 . S
C1023 C1022 1.387 . S
H1024 C1036 0.930 . S
H1025 C1038 0.930 . S
H1026 C1039 0.930 . S
H1027 C1043 0.959 . S
H1028 C1043 0.959 . S
H1029 C1043 0.961 . S
H1030 C1044 0.960 . S
H1031 C1044 0.961 . S
H1032 C1044 0.959 . S
H1033 C1047 0.929 . S
H1034 C1048 0.931 . S
H1035 C1050 0.930 . S
C1036 H1024 0.930 . S
C1036 C1037 1.399 . S
C1036 C1041 1.399 . S
C1037 C1036 1.399 . S
C1037 C1038 1.376 . S
C1038 H1025 0.930 . S
C1038 C1037 1.376 . S
C1038 C1039 1.388 . S
C1039 H1026 0.930 . S
C1039 C1038 1.388 . S
C1039 C1040 1.390 . S
C1040 C1039 1.390 . S
C1040 C1041 1.394 . S
C1040 C1046 1.465 . S
C1041 C1036 1.399 . S
C1041 C1040 1.394 . S
C1041 C1042 1.516 . S
C1042 C1041 1.516 . S
C1042 C1043 1.502 . S
C1042 C1044 1.561 . S
C1042 C1045 1.526 . S
C1043 H1027 0.959 . S
C1043 H1028 0.959 . S
C1043 H1029 0.961 . S
C1043 C1042 1.502 . S
C1044 H1030 0.960 . S
C1044 H1031 0.961 . S
C1044 H1032 0.959 . S
C1044 C1042 1.561 . S
C1045 C1042 1.526 . S
C1045 C1046 1.396 . S
C1045 C1050 1.390 . S
C1046 C1040 1.465 . S
C1046 C1045 1.396 . S
C1046 C1047 1.399 . S
C1047 H1033 0.929 . S
C1047 C1046 1.399 . S
C1047 C1048 1.385 . S
C1048 H1034 0.931 . S
C1048 C1047 1.385 . S
C1048 C1049 1.389 . S
C1049 C1048 1.389 . S
C1049 C1050 1.387 . S
C1050 H1035 0.930 . S
C1050 C1045 1.390 . S
C1050 C1049 1.387 . S
H1051 C1063 0.930 . S
H1052 C1065 0.930 . S
H1053 C1066 0.930 1_565 S
H1054 C1070 0.959 . S
H1055 C1070 0.959 . S
H1056 C1070 0.961 . S
H1057 C1071 0.960 . S
H1058 C1071 0.961 . S
H1059 C1071 0.959 . S
H1060 C1074 0.941 . S
H1061 C1075 0.931 1_565 S
H1062 C1077 0.930 . S
C1063 H1051 0.930 . S
C1063 C1064 1.399 . S
C1063 C1068 1.399 . S
C1064 C1063 1.399 . S
C1064 C1065 1.376 . S
C1065 H1052 0.930 . S
C1065 C1064 1.376 . S
C1065 C1066 1.388 . S
C1066 H1053 0.930 1_545 S
C1066 C1065 1.388 . S
C1066 C1067 1.390 . S
C1067 C1066 1.390 . S
C1067 C1068 1.394 . S
C1067 C1073 1.465 . S
C1068 C1063 1.399 . S
C1068 C1067 1.394 . S
C1068 C1069 1.516 . S
C1069 C1068 1.516 . S
C1069 C1070 1.502 . S
C1069 C1071 1.561 . S
C1069 C1072 1.526 . S
C1070 H1054 0.959 . S
C1070 H1055 0.959 . S
C1070 H1056 0.961 . S
C1070 C1069 1.502 . S
C1071 H1057 0.960 . S
C1071 H1058 0.961 . S
C1071 H1059 0.959 . S
C1071 C1069 1.561 . S
C1072 C1069 1.526 . S
C1072 C1073 1.396 . S
C1072 C1077 1.390 . S
C1073 C1067 1.465 . S
C1073 C1072 1.396 . S
C1073 C1074 1.388 1_545 S
C1074 H1060 0.941 . S
C1074 C1073 1.388 1_565 S
C1074 C1075 1.384 1_565 S
C1075 H1061 0.931 1_545 S
C1075 C1074 1.384 1_545 S
C1075 C1076 1.389 . S
C1076 C1075 1.389 . S
C1076 C1077 1.387 . S
C1077 H1062 0.930 . S
C1077 C1072 1.390 . S
C1077 C1076 1.387 . S
H1078 C1090 0.930 . S
H1079 C1092 0.930 . S
H1080 C1093 0.930 . S
H1081 C1097 0.959 . S
H1082 C1097 0.959 . S
H1083 C1097 0.961 . S
H1084 C1098 0.960 . S
H1085 C1098 0.961 . S
H1086 C1098 0.959 . S
H1087 C1101 0.929 . S
H1088 C1102 0.931 . S
H1089 C1104 0.930 . S
C1090 H1078 0.930 . S
C1090 C1091 1.399 . S
C1090 C1095 1.399 . S
C1091 C1090 1.399 . S
C1091 C1092 1.376 . S
C1092 H1079 0.930 . S
C1092 C1091 1.376 . S
C1092 C1093 1.388 . S
C1093 H1080 0.930 . S
C1093 C1092 1.388 . S
C1093 C1094 1.390 . S
C1094 C1093 1.390 . S
C1094 C1095 1.394 . S
C1094 C1100 1.465 . S
C1095 C1090 1.399 . S
C1095 C1094 1.394 . S
C1095 C1096 1.516 . S
C1096 C1095 1.516 . S
C1096 C1097 1.502 . S
C1096 C1098 1.561 . S
C1096 C1099 1.526 . S
C1097 H1081 0.959 . S
C1097 H1082 0.959 . S
C1097 H1083 0.961 . S
C1097 C1096 1.502 . S
C1098 H1084 0.960 . S
C1098 H1085 0.961 . S
C1098 H1086 0.959 . S
C1098 C1096 1.561 . S
C1099 C1096 1.526 . S
C1099 C1100 1.396 . S
C1099 C1104 1.390 . S
C1100 C1094 1.465 . S
C1100 C1099 1.396 . S
C1100 C1101 1.399 . S
C1101 H1087 0.929 . S
C1101 C1100 1.399 . S
C1101 C1102 1.385 . S
C1102 H1088 0.931 . S
C1102 C1101 1.385 . S
C1102 C1103 1.389 . S
C1103 C1102 1.389 . S
C1103 C1104 1.387 . S
C1104 H1089 0.930 . S
C1104 C1099 1.390 . S
C1104 C1103 1.387 . S
H1105 C1117 0.930 . S
H1106 C1119 0.930 . S
H1107 C1120 0.930 . S
H1108 C1124 0.959 . S
H1109 C1124 0.959 . S
H1110 C1124 0.961 . S
H1111 C1125 0.960 . S
H1112 C1125 0.961 . S
H1113 C1125 0.959 . S
H1114 C1128 0.929 . S
H1115 C1129 0.931 . S
H1116 C1131 0.930 . S
C1117 H1105 0.930 . S
C1117 C1118 1.399 . S
C1117 C1122 1.399 . S
C1118 C1117 1.399 . S
C1118 C1119 1.376 . S
C1119 H1106 0.930 . S
C1119 C1118 1.376 . S
C1119 C1120 1.388 . S
C1120 H1107 0.930 . S
C1120 C1119 1.388 . S
C1120 C1121 1.390 . S
C1121 C1120 1.390 . S
C1121 C1122 1.394 . S
C1121 C1127 1.465 . S
C1122 C1117 1.399 . S
C1122 C1121 1.394 . S
C1122 C1123 1.516 . S
C1123 C1122 1.516 . S
C1123 C1124 1.502 . S
C1123 C1125 1.561 . S
C1123 C1126 1.526 . S
C1124 H1108 0.959 . S
C1124 H1109 0.959 . S
C1124 H1110 0.961 . S
C1124 C1123 1.502 . S
C1125 H1111 0.960 . S
C1125 H1112 0.961 . S
C1125 H1113 0.959 . S
C1125 C1123 1.561 . S
C1126 C1123 1.526 . S
C1126 C1127 1.396 . S
C1126 C1131 1.390 . S
C1127 C1121 1.465 . S
C1127 C1126 1.396 . S
C1127 C1128 1.399 . S
C1128 H1114 0.929 . S
C1128 C1127 1.399 . S
C1128 C1129 1.385 . S
C1129 H1115 0.931 . S
C1129 C1128 1.385 . S
C1129 C1130 1.389 . S
C1130 C1129 1.389 . S
C1130 C1131 1.387 . S
C1131 H1116 0.930 . S
C1131 C1126 1.390 . S
C1131 C1130 1.387 . S
H1132 C1144 0.930 . S
H1133 C1146 0.930 . S
H1134 C1147 0.930 . S
H1135 C1151 0.959 . S
H1136 C1151 0.959 . S
H1137 C1151 0.961 . S
H1138 C1152 0.960 . S
H1139 C1152 0.961 . S
H1140 C1152 0.959 . S
H1141 C1155 0.929 . S
H1142 C1156 0.931 . S
H1143 C1158 0.930 . S
C1144 H1132 0.930 . S
C1144 C1145 1.399 . S
C1144 C1149 1.399 . S
C1145 C1144 1.399 . S
C1145 C1146 1.376 . S
C1146 H1133 0.930 . S
C1146 C1145 1.376 . S
C1146 C1147 1.388 . S
C1147 H1134 0.930 . S
C1147 C1146 1.388 . S
C1147 C1148 1.390 . S
C1148 C1147 1.390 . S
C1148 C1149 1.394 . S
C1148 C1154 1.465 . S
C1149 C1144 1.399 . S
C1149 C1148 1.394 . S
C1149 C1150 1.516 . S
C1150 C1149 1.516 . S
C1150 C1151 1.502 1_655 S
C1150 C1152 1.561 . S
C1150 C1153 1.526 . S
C1151 H1135 0.959 . S
C1151 H1136 0.959 . S
C1151 H1137 0.961 . S
C1151 C1150 1.502 1_455 S
C1152 H1138 0.960 . S
C1152 H1139 0.961 . S
C1152 H1140 0.959 . S
C1152 C1150 1.561 . S
C1153 C1150 1.526 . S
C1153 C1154 1.396 . S
C1153 C1158 1.390 . S
C1154 C1148 1.465 . S
C1154 C1153 1.396 . S
C1154 C1155 1.399 . S
C1155 H1141 0.929 . S
C1155 C1154 1.399 . S
C1155 C1156 1.385 . S
C1156 H1142 0.931 . S
C1156 C1155 1.385 . S
C1156 C1157 1.389 . S
C1157 C1156 1.389 . S
C1157 C1158 1.387 . S
C1158 H1143 0.930 . S
C1158 C1153 1.390 . S
C1158 C1157 1.387 . S
H1159 C1171 0.930 1_545 S
H1160 C1173 0.930 . S
H1161 C1174 0.930 . S
H1162 C1178 0.959 . S
H1163 C1178 0.959 . S
H1164 C1178 0.961 . S
H1165 C1179 0.960 . S
H1166 C1179 0.961 . S
H1167 C1179 0.959 . S
H1168 C1182 0.929 . S
H1169 C1183 0.931 . S
H1170 C1185 0.930 . S
C1171 H1159 0.930 1_565 S
C1171 C1172 1.399 . S
C1171 C1176 1.399 . S
C1172 C1171 1.399 . S
C1172 C1173 1.376 . S
C1173 H1160 0.930 . S
C1173 C1172 1.376 . S
C1173 C1174 1.388 . S
C1174 H1161 0.930 . S
C1174 C1173 1.388 . S
C1174 C1175 1.390 . S
C1175 C1174 1.390 . S
C1175 C1176 1.394 . S
C1175 C1181 1.465 . S
C1176 C1171 1.399 . S
C1176 C1175 1.394 . S
C1176 C1177 1.516 1_565 S
C1177 C1176 1.516 1_545 S
C1177 C1178 1.502 . S
C1177 C1179 1.561 . S
C1177 C1180 1.526 1_545 S
C1178 H1162 0.959 . S
C1178 H1163 0.959 . S
C1178 H1164 0.961 . S
C1178 C1177 1.502 . S
C1179 H1165 0.960 . S
C1179 H1166 0.961 . S
C1179 H1167 0.959 . S
C1179 C1177 1.561 . S
C1180 C1177 1.526 1_565 S
C1180 C1181 1.396 . S
C1180 C1185 1.390 1_565 S
C1181 C1175 1.465 . S
C1181 C1180 1.396 . S
C1181 C1182 1.399 . S
C1182 H1168 0.929 . S
C1182 C1181 1.399 . S
C1182 C1183 1.385 . S
C1183 H1169 0.931 . S
C1183 C1182 1.385 . S
C1183 C1184 1.389 . S
C1184 C1183 1.389 . S
C1184 C1185 1.387 1_565 S
C1185 H1170 0.930 . S
C1185 C1180 1.390 1_545 S
C1185 C1184 1.387 1_545 S
H1186 C1198 0.930 . S
H1187 C1200 0.930 . S
H1188 C1201 0.930 . S
H1189 C1205 0.959 . S
H1190 C1205 0.959 . S
H1191 C1205 0.961 . S
H1192 C1206 0.960 . S
H1193 C1206 0.961 . S
H1194 C1206 0.959 . S
H1195 C1209 0.929 . S
H1196 C1210 0.931 . S
H1197 C1212 0.930 . S
C1198 H1186 0.930 . S
C1198 C1199 1.399 . S
C1198 C1203 1.399 . S
C1199 C1198 1.399 . S
C1199 C1200 1.376 . S
C1200 H1187 0.930 . S
C1200 C1199 1.376 . S
C1200 C1201 1.388 . S
C1201 H1188 0.930 . S
C1201 C1200 1.388 . S
C1201 C1202 1.390 . S
C1202 C1201 1.390 . S
C1202 C1203 1.394 . S
C1202 C1208 1.465 . S
C1203 C1198 1.399 . S
C1203 C1202 1.394 . S
C1203 C1204 1.516 . S
C1204 C1203 1.516 . S
C1204 C1205 1.502 . S
C1204 C1206 1.561 . S
C1204 C1207 1.526 . S
C1205 H1189 0.959 . S
C1205 H1190 0.959 . S
C1205 H1191 0.961 . S
C1205 C1204 1.502 . S
C1206 H1192 0.960 . S
C1206 H1193 0.961 . S
C1206 H1194 0.959 . S
C1206 C1204 1.561 . S
C1207 C1204 1.526 . S
C1207 C1208 1.396 . S
C1207 C1212 1.390 . S
C1208 C1202 1.465 . S
C1208 C1207 1.396 . S
C1208 C1209 1.399 . S
C1209 H1195 0.929 . S
C1209 C1208 1.399 . S
C1209 C1210 1.385 . S
C1210 H1196 0.931 . S
C1210 C1209 1.385 . S
C1210 C1211 1.389 . S
C1211 C1210 1.389 . S
C1211 C1212 1.387 . S
C1212 H1197 0.930 . S
C1212 C1207 1.390 . S
C1212 C1211 1.387 . S
H1213 C1225 0.930 . S
H1214 C1227 0.930 . S
H1215 C1228 0.930 . S
H1216 C1232 0.959 . S
H1217 C1232 0.959 . S
H1218 C1232 0.961 . S
H1219 C1233 0.960 . S
H1220 C1233 0.961 . S
H1221 C1233 0.959 . S
H1222 C1236 0.929 . S
H1223 C1237 0.931 . S
H1224 C1239 0.930 . S
C1225 H1213 0.930 . S
C1225 C1226 1.399 . S
C1225 C1230 1.399 . S
C1226 C1225 1.399 . S
C1226 C1227 1.376 . S
C1227 H1214 0.930 . S
C1227 C1226 1.376 . S
C1227 C1228 1.388 . S
C1228 H1215 0.930 . S
C1228 C1227 1.388 . S
C1228 C1229 1.390 . S
C1229 C1228 1.390 . S
C1229 C1230 1.394 . S
C1229 C1235 1.465 . S
C1230 C1225 1.399 . S
C1230 C1229 1.394 . S
C1230 C1231 1.516 . S
C1231 C1230 1.516 . S
C1231 C1232 1.502 . S
C1231 C1233 1.561 . S
C1231 C1234 1.526 . S
C1232 H1216 0.959 . S
C1232 H1217 0.959 . S
C1232 H1218 0.961 . S
C1232 C1231 1.502 . S
C1233 H1219 0.960 . S
C1233 H1220 0.961 . S
C1233 H1221 0.959 . S
C1233 C1231 1.561 . S
C1234 C1231 1.526 . S
C1234 C1235 1.396 . S
C1234 C1239 1.390 . S
C1235 C1229 1.465 . S
C1235 C1234 1.396 . S
C1235 C1236 1.399 . S
C1236 H1222 0.929 . S
C1236 C1235 1.399 . S
C1236 C1237 1.385 . S
C1237 H1223 0.931 . S
C1237 C1236 1.385 . S
C1237 C1238 1.389 . S
C1238 C1237 1.389 . S
C1238 C1239 1.387 . S
C1239 H1224 0.930 . S
C1239 C1234 1.390 . S
C1239 C1238 1.387 . S
C605 C215 2.166 . S
C617 C324 2.219 . S
C644 C407 2.234 . S
C632 C247 2.144 . S
C671 C492 2.214 . S
C659 C151 2.162 . S
C698 C576 2.205 . S
C686 C183 2.130 . S
C725 C312 2.253 1_565 S
C713 C87 2.097 . S
C740 C119 2.053 . S
C752 C395 2.270 . S
C767 C23 2.105 . S
C779 C480 2.239 . S
C794 C55 2.052 . S
C806 C564 2.238 1_655 S
C833 C314 0.601 . S
C821 C189 0.458 . S
C860 C410 0.633 . S
C848 C221 0.440 . S
C887 C482 0.494 . S
C875 C253 0.489 . S
C902 C157 0.462 . S
C914 C566 0.546 . S
C929 C61 0.674 . S
C941 C326 0.615 . S
C968 C398 0.516 . S
C956 C93 0.702 . S
C995 C494 0.606 . S
C983 C125 0.661 . S
C1010 C29 0.604 . S
C1022 C578 0.500 . S
C1037 C177 2.383 . S
C1049 C311 2.553 . S
C1064 C209 2.353 . S
C1076 C396 2.586 . S
C1103 C479 2.589 . S
C1091 C241 2.370 . S
C1130 C563 2.581 . S
C1118 C145 2.403 . S
C1145 C49 2.344 . S
C1157 C323 2.551 . S
C1184 C408 2.607 . S
C1172 C81 2.287 . S
C1211 C491 2.575 . S
C1199 C113 2.362 . S
C1226 C17 2.343 . S
C1238 C575 2.589 . S
