# Generated by pormake.
# Topology bpr, (3,3)-cn, num edge types: 1
# Building blocks:
#     Node 0, Type 0, BuildingBlock: WUSLED_clean_sbu_0, # of connection points: 3
#     Node 1, Type 0, BuildingBlock: WUSLED_clean_sbu_0, # of connection points: 3
#     Node 2, Type 0, BuildingBlock: WUSLED_clean_sbu_0, # of connection points: 3
#     Node 3, Type 0, BuildingBlock: WUSLED_clean_sbu_0, # of connection points: 3
#     Node 4, Type 0, BuildingBlock: WUSLED_clean_sbu_0, # of connection points: 3
#     Node 5, Type 0, BuildingBlock: WUSLED_clean_sbu_0, # of connection points: 3
#     Node 6, Type 0, BuildingBlock: WUSLED_clean_sbu_0, # of connection points: 3
#     Node 7, Type 0, BuildingBlock: WUSLED_clean_sbu_0, # of connection points: 3
#     Node 8, Type 0, BuildingBlock: WUSLED_clean_sbu_0, # of connection points: 3
#     Node 9, Type 0, BuildingBlock: WUSLED_clean_sbu_0, # of connection points: 3
#     Node 10, Type 0, BuildingBlock: WUSLED_clean_sbu_0, # of connection points: 3
#     Node 11, Type 0, BuildingBlock: WUSLED_clean_sbu_0, # of connection points: 3
#     Node 12, Type 0, BuildingBlock: WUSLED_clean_sbu_0, # of connection points: 3
#     Node 13, Type 0, BuildingBlock: WUSLED_clean_sbu_0, # of connection points: 3
#     Node 14, Type 0, BuildingBlock: WUSLED_clean_sbu_0, # of connection points: 3
#     Node 15, Type 0, BuildingBlock: WUSLED_clean_sbu_0, # of connection points: 3
#     Node 16, Type 0, BuildingBlock: WUSLED_clean_sbu_0, # of connection points: 3
#     Node 17, Type 0, BuildingBlock: WUSLED_clean_sbu_0, # of connection points: 3
#     Node 18, Type 0, BuildingBlock: WUSLED_clean_sbu_0, # of connection points: 3
#     Node 19, Type 0, BuildingBlock: WUSLED_clean_sbu_0, # of connection points: 3
#     Node 20, Type 0, BuildingBlock: WUSLED_clean_sbu_0, # of connection points: 3
#     Node 21, Type 0, BuildingBlock: WUSLED_clean_sbu_0, # of connection points: 3
#     Node 22, Type 0, BuildingBlock: WUSLED_clean_sbu_0, # of connection points: 3
#     Node 23, Type 0, BuildingBlock: WUSLED_clean_sbu_0, # of connection points: 3
#     Node 24, Type 0, BuildingBlock: WUSLED_clean_sbu_0, # of connection points: 3
#     Node 25, Type 0, BuildingBlock: WUSLED_clean_sbu_0, # of connection points: 3
#     Node 26, Type 0, BuildingBlock: WUSLED_clean_sbu_0, # of connection points: 3
#     Node 27, Type 0, BuildingBlock: WUSLED_clean_sbu_0, # of connection points: 3
#     Node 28, Type 0, BuildingBlock: WUSLED_clean_sbu_0, # of connection points: 3
#     Node 29, Type 0, BuildingBlock: WUSLED_clean_sbu_0, # of connection points: 3
#     Node 30, Type 0, BuildingBlock: WUSLED_clean_sbu_0, # of connection points: 3
#     Node 31, Type 0, BuildingBlock: WUSLED_clean_sbu_0, # of connection points: 3
#     Node 32, Type 0, BuildingBlock: WUSLED_clean_sbu_0, # of connection points: 3
#     Node 33, Type 0, BuildingBlock: WUSLED_clean_sbu_0, # of connection points: 3
#     Node 34, Type 0, BuildingBlock: WUSLED_clean_sbu_0, # of connection points: 3
#     Node 35, Type 0, BuildingBlock: WUSLED_clean_sbu_0, # of connection points: 3
#     Node 36, Type 0, BuildingBlock: WUSLED_clean_sbu_0, # of connection points: 3
#     Node 37, Type 0, BuildingBlock: WUSLED_clean_sbu_0, # of connection points: 3
#     Node 38, Type 0, BuildingBlock: WUSLED_clean_sbu_0, # of connection points: 3
#     Node 39, Type 0, BuildingBlock: WUSLED_clean_sbu_0, # of connection points: 3
#     Node 40, Type 0, BuildingBlock: WUSLED_clean_sbu_0, # of connection points: 3
#     Node 41, Type 0, BuildingBlock: WUSLED_clean_sbu_0, # of connection points: 3
#     Node 42, Type 0, BuildingBlock: WUSLED_clean_sbu_0, # of connection points: 3
#     Node 43, Type 0, BuildingBlock: WUSLED_clean_sbu_0, # of connection points: 3
#     Node 44, Type 0, BuildingBlock: WUSLED_clean_sbu_0, # of connection points: 3
#     Node 45, Type 0, BuildingBlock: WUSLED_clean_sbu_0, # of connection points: 3
#     Node 46, Type 0, BuildingBlock: WUSLED_clean_sbu_0, # of connection points: 3
#     Node 47, Type 0, BuildingBlock: WUSLED_clean_sbu_0, # of connection points: 3
#     Node 48, Type 1, BuildingBlock: KAKCAD_clean_linker_0, # of connection points: 3
#     Node 49, Type 1, BuildingBlock: KAKCAD_clean_linker_0, # of connection points: 3
#     Node 50, Type 1, BuildingBlock: KAKCAD_clean_linker_0, # of connection points: 3
#     Node 51, Type 1, BuildingBlock: KAKCAD_clean_linker_0, # of connection points: 3
#     Node 52, Type 1, BuildingBlock: KAKCAD_clean_linker_0, # of connection points: 3
#     Node 53, Type 1, BuildingBlock: KAKCAD_clean_linker_0, # of connection points: 3
#     Node 54, Type 1, BuildingBlock: KAKCAD_clean_linker_0, # of connection points: 3
#     Node 55, Type 1, BuildingBlock: KAKCAD_clean_linker_0, # of connection points: 3
#     Node 56, Type 1, BuildingBlock: KAKCAD_clean_linker_0, # of connection points: 3
#     Node 57, Type 1, BuildingBlock: KAKCAD_clean_linker_0, # of connection points: 3
#     Node 58, Type 1, BuildingBlock: KAKCAD_clean_linker_0, # of connection points: 3
#     Node 59, Type 1, BuildingBlock: KAKCAD_clean_linker_0, # of connection points: 3
#     Node 60, Type 1, BuildingBlock: KAKCAD_clean_linker_0, # of connection points: 3
#     Node 61, Type 1, BuildingBlock: KAKCAD_clean_linker_0, # of connection points: 3
#     Node 62, Type 1, BuildingBlock: KAKCAD_clean_linker_0, # of connection points: 3
#     Node 63, Type 1, BuildingBlock: KAKCAD_clean_linker_0, # of connection points: 3
#     Node 64, Type 1, BuildingBlock: KAKCAD_clean_linker_0, # of connection points: 3
#     Node 65, Type 1, BuildingBlock: KAKCAD_clean_linker_0, # of connection points: 3
#     Node 66, Type 1, BuildingBlock: KAKCAD_clean_linker_0, # of connection points: 3
#     Node 67, Type 1, BuildingBlock: KAKCAD_clean_linker_0, # of connection points: 3
#     Node 68, Type 1, BuildingBlock: KAKCAD_clean_linker_0, # of connection points: 3
#     Node 69, Type 1, BuildingBlock: KAKCAD_clean_linker_0, # of connection points: 3
#     Node 70, Type 1, BuildingBlock: KAKCAD_clean_linker_0, # of connection points: 3
#     Node 71, Type 1, BuildingBlock: KAKCAD_clean_linker_0, # of connection points: 3
#     Node 72, Type 1, BuildingBlock: KAKCAD_clean_linker_0, # of connection points: 3
#     Node 73, Type 1, BuildingBlock: KAKCAD_clean_linker_0, # of connection points: 3
#     Node 74, Type 1, BuildingBlock: KAKCAD_clean_linker_0, # of connection points: 3
#     Node 75, Type 1, BuildingBlock: KAKCAD_clean_linker_0, # of connection points: 3
#     Node 76, Type 1, BuildingBlock: KAKCAD_clean_linker_0, # of connection points: 3
#     Node 77, Type 1, BuildingBlock: KAKCAD_clean_linker_0, # of connection points: 3
#     Node 78, Type 1, BuildingBlock: KAKCAD_clean_linker_0, # of connection points: 3
#     Node 79, Type 1, BuildingBlock: KAKCAD_clean_linker_0, # of connection points: 3
#     Node 80, Type 1, BuildingBlock: KAKCAD_clean_linker_0, # of connection points: 3
#     Node 81, Type 1, BuildingBlock: KAKCAD_clean_linker_0, # of connection points: 3
#     Node 82, Type 1, BuildingBlock: KAKCAD_clean_linker_0, # of connection points: 3
#     Node 83, Type 1, BuildingBlock: KAKCAD_clean_linker_0, # of connection points: 3
#     Node 84, Type 1, BuildingBlock: KAKCAD_clean_linker_0, # of connection points: 3
#     Node 85, Type 1, BuildingBlock: KAKCAD_clean_linker_0, # of connection points: 3
#     Node 86, Type 1, BuildingBlock: KAKCAD_clean_linker_0, # of connection points: 3
#     Node 87, Type 1, BuildingBlock: KAKCAD_clean_linker_0, # of connection points: 3
#     Node 88, Type 1, BuildingBlock: KAKCAD_clean_linker_0, # of connection points: 3
#     Node 89, Type 1, BuildingBlock: KAKCAD_clean_linker_0, # of connection points: 3
#     Node 90, Type 1, BuildingBlock: KAKCAD_clean_linker_0, # of connection points: 3
#     Node 91, Type 1, BuildingBlock: KAKCAD_clean_linker_0, # of connection points: 3
#     Node 92, Type 1, BuildingBlock: KAKCAD_clean_linker_0, # of connection points: 3
#     Node 93, Type 1, BuildingBlock: KAKCAD_clean_linker_0, # of connection points: 3
#     Node 94, Type 1, BuildingBlock: KAKCAD_clean_linker_0, # of connection points: 3
#     Node 95, Type 1, BuildingBlock: KAKCAD_clean_linker_0, # of connection points: 3
#     Edge 96, Type (0, 1), BuildingBlock: KIFKEQ_clean_linker_1, # of connection points: 2
#     Edge 97, Type (0, 1), BuildingBlock: KIFKEQ_clean_linker_1, # of connection points: 2
#     Edge 98, Type (0, 1), BuildingBlock: KIFKEQ_clean_linker_1, # of connection points: 2
#     Edge 99, Type (0, 1), BuildingBlock: KIFKEQ_clean_linker_1, # of connection points: 2
#     Edge 100, Type (0, 1), BuildingBlock: KIFKEQ_clean_linker_1, # of connection points: 2
#     Edge 101, Type (0, 1), BuildingBlock: KIFKEQ_clean_linker_1, # of connection points: 2
#     Edge 102, Type (0, 1), BuildingBlock: KIFKEQ_clean_linker_1, # of connection points: 2
#     Edge 103, Type (0, 1), BuildingBlock: KIFKEQ_clean_linker_1, # of connection points: 2
#     Edge 104, Type (0, 1), BuildingBlock: KIFKEQ_clean_linker_1, # of connection points: 2
#     Edge 105, Type (0, 1), BuildingBlock: KIFKEQ_clean_linker_1, # of connection points: 2
#     Edge 106, Type (0, 1), BuildingBlock: KIFKEQ_clean_linker_1, # of connection points: 2
#     Edge 107, Type (0, 1), BuildingBlock: KIFKEQ_clean_linker_1, # of connection points: 2
#     Edge 108, Type (0, 1), BuildingBlock: KIFKEQ_clean_linker_1, # of connection points: 2
#     Edge 109, Type (0, 1), BuildingBlock: KIFKEQ_clean_linker_1, # of connection points: 2
#     Edge 110, Type (0, 1), BuildingBlock: KIFKEQ_clean_linker_1, # of connection points: 2
#     Edge 111, Type (0, 1), BuildingBlock: KIFKEQ_clean_linker_1, # of connection points: 2
#     Edge 112, Type (0, 1), BuildingBlock: KIFKEQ_clean_linker_1, # of connection points: 2
#     Edge 113, Type (0, 1), BuildingBlock: KIFKEQ_clean_linker_1, # of connection points: 2
#     Edge 114, Type (0, 1), BuildingBlock: KIFKEQ_clean_linker_1, # of connection points: 2
#     Edge 115, Type (0, 1), BuildingBlock: KIFKEQ_clean_linker_1, # of connection points: 2
#     Edge 116, Type (0, 1), BuildingBlock: KIFKEQ_clean_linker_1, # of connection points: 2
#     Edge 117, Type (0, 1), BuildingBlock: KIFKEQ_clean_linker_1, # of connection points: 2
#     Edge 118, Type (0, 1), BuildingBlock: KIFKEQ_clean_linker_1, # of connection points: 2
#     Edge 119, Type (0, 1), BuildingBlock: KIFKEQ_clean_linker_1, # of connection points: 2
#     Edge 120, Type (0, 1), BuildingBlock: KIFKEQ_clean_linker_1, # of connection points: 2
#     Edge 121, Type (0, 1), BuildingBlock: KIFKEQ_clean_linker_1, # of connection points: 2
#     Edge 122, Type (0, 1), BuildingBlock: KIFKEQ_clean_linker_1, # of connection points: 2
#     Edge 123, Type (0, 1), BuildingBlock: KIFKEQ_clean_linker_1, # of connection points: 2
#     Edge 124, Type (0, 1), BuildingBlock: KIFKEQ_clean_linker_1, # of connection points: 2
#     Edge 125, Type (0, 1), BuildingBlock: KIFKEQ_clean_linker_1, # of connection points: 2
#     Edge 126, Type (0, 1), BuildingBlock: KIFKEQ_clean_linker_1, # of connection points: 2
#     Edge 127, Type (0, 1), BuildingBlock: KIFKEQ_clean_linker_1, # of connection points: 2
#     Edge 128, Type (0, 1), BuildingBlock: KIFKEQ_clean_linker_1, # of connection points: 2
#     Edge 129, Type (0, 1), BuildingBlock: KIFKEQ_clean_linker_1, # of connection points: 2
#     Edge 130, Type (0, 1), BuildingBlock: KIFKEQ_clean_linker_1, # of connection points: 2
#     Edge 131, Type (0, 1), BuildingBlock: KIFKEQ_clean_linker_1, # of connection points: 2
#     Edge 132, Type (0, 1), BuildingBlock: KIFKEQ_clean_linker_1, # of connection points: 2
#     Edge 133, Type (0, 1), BuildingBlock: KIFKEQ_clean_linker_1, # of connection points: 2
#     Edge 134, Type (0, 1), BuildingBlock: KIFKEQ_clean_linker_1, # of connection points: 2
#     Edge 135, Type (0, 1), BuildingBlock: KIFKEQ_clean_linker_1, # of connection points: 2
#     Edge 136, Type (0, 1), BuildingBlock: KIFKEQ_clean_linker_1, # of connection points: 2
#     Edge 137, Type (0, 1), BuildingBlock: KIFKEQ_clean_linker_1, # of connection points: 2
#     Edge 138, Type (0, 1), BuildingBlock: KIFKEQ_clean_linker_1, # of connection points: 2
#     Edge 139, Type (0, 1), BuildingBlock: KIFKEQ_clean_linker_1, # of connection points: 2
#     Edge 140, Type (0, 1), BuildingBlock: KIFKEQ_clean_linker_1, # of connection points: 2
#     Edge 141, Type (0, 1), BuildingBlock: KIFKEQ_clean_linker_1, # of connection points: 2
#     Edge 142, Type (0, 1), BuildingBlock: KIFKEQ_clean_linker_1, # of connection points: 2
#     Edge 143, Type (0, 1), BuildingBlock: KIFKEQ_clean_linker_1, # of connection points: 2
#     Edge 144, Type (0, 1), BuildingBlock: KIFKEQ_clean_linker_1, # of connection points: 2
#     Edge 145, Type (0, 1), BuildingBlock: KIFKEQ_clean_linker_1, # of connection points: 2
#     Edge 146, Type (0, 1), BuildingBlock: KIFKEQ_clean_linker_1, # of connection points: 2
#     Edge 147, Type (0, 1), BuildingBlock: KIFKEQ_clean_linker_1, # of connection points: 2
#     Edge 148, Type (0, 1), BuildingBlock: KIFKEQ_clean_linker_1, # of connection points: 2
#     Edge 149, Type (0, 1), BuildingBlock: KIFKEQ_clean_linker_1, # of connection points: 2
#     Edge 150, Type (0, 1), BuildingBlock: KIFKEQ_clean_linker_1, # of connection points: 2
#     Edge 151, Type (0, 1), BuildingBlock: KIFKEQ_clean_linker_1, # of connection points: 2
#     Edge 152, Type (0, 1), BuildingBlock: KIFKEQ_clean_linker_1, # of connection points: 2
#     Edge 153, Type (0, 1), BuildingBlock: KIFKEQ_clean_linker_1, # of connection points: 2
#     Edge 154, Type (0, 1), BuildingBlock: KIFKEQ_clean_linker_1, # of connection points: 2
#     Edge 155, Type (0, 1), BuildingBlock: KIFKEQ_clean_linker_1, # of connection points: 2
#     Edge 156, Type (0, 1), BuildingBlock: KIFKEQ_clean_linker_1, # of connection points: 2
#     Edge 157, Type (0, 1), BuildingBlock: KIFKEQ_clean_linker_1, # of connection points: 2
#     Edge 158, Type (0, 1), BuildingBlock: KIFKEQ_clean_linker_1, # of connection points: 2
#     Edge 159, Type (0, 1), BuildingBlock: KIFKEQ_clean_linker_1, # of connection points: 2
#     Edge 160, Type (0, 1), BuildingBlock: KIFKEQ_clean_linker_1, # of connection points: 2
#     Edge 161, Type (0, 1), BuildingBlock: KIFKEQ_clean_linker_1, # of connection points: 2
#     Edge 162, Type (0, 1), BuildingBlock: KIFKEQ_clean_linker_1, # of connection points: 2
#     Edge 163, Type (0, 1), BuildingBlock: KIFKEQ_clean_linker_1, # of connection points: 2
#     Edge 164, Type (0, 1), BuildingBlock: KIFKEQ_clean_linker_1, # of connection points: 2
#     Edge 165, Type (0, 1), BuildingBlock: KIFKEQ_clean_linker_1, # of connection points: 2
#     Edge 166, Type (0, 1), BuildingBlock: KIFKEQ_clean_linker_1, # of connection points: 2
#     Edge 167, Type (0, 1), BuildingBlock: KIFKEQ_clean_linker_1, # of connection points: 2
#     Edge 168, Type (0, 1), BuildingBlock: KIFKEQ_clean_linker_1, # of connection points: 2
#     Edge 169, Type (0, 1), BuildingBlock: KIFKEQ_clean_linker_1, # of connection points: 2
#     Edge 170, Type (0, 1), BuildingBlock: KIFKEQ_clean_linker_1, # of connection points: 2
#     Edge 171, Type (0, 1), BuildingBlock: KIFKEQ_clean_linker_1, # of connection points: 2
#     Edge 172, Type (0, 1), BuildingBlock: KIFKEQ_clean_linker_1, # of connection points: 2
#     Edge 173, Type (0, 1), BuildingBlock: KIFKEQ_clean_linker_1, # of connection points: 2
#     Edge 174, Type (0, 1), BuildingBlock: KIFKEQ_clean_linker_1, # of connection points: 2
#     Edge 175, Type (0, 1), BuildingBlock: KIFKEQ_clean_linker_1, # of connection points: 2
#     Edge 176, Type (0, 1), BuildingBlock: KIFKEQ_clean_linker_1, # of connection points: 2
#     Edge 177, Type (0, 1), BuildingBlock: KIFKEQ_clean_linker_1, # of connection points: 2
#     Edge 178, Type (0, 1), BuildingBlock: KIFKEQ_clean_linker_1, # of connection points: 2
#     Edge 179, Type (0, 1), BuildingBlock: KIFKEQ_clean_linker_1, # of connection points: 2
#     Edge 180, Type (0, 1), BuildingBlock: KIFKEQ_clean_linker_1, # of connection points: 2
#     Edge 181, Type (0, 1), BuildingBlock: KIFKEQ_clean_linker_1, # of connection points: 2
#     Edge 182, Type (0, 1), BuildingBlock: KIFKEQ_clean_linker_1, # of connection points: 2
#     Edge 183, Type (0, 1), BuildingBlock: KIFKEQ_clean_linker_1, # of connection points: 2
#     Edge 184, Type (0, 1), BuildingBlock: KIFKEQ_clean_linker_1, # of connection points: 2
#     Edge 185, Type (0, 1), BuildingBlock: KIFKEQ_clean_linker_1, # of connection points: 2
#     Edge 186, Type (0, 1), BuildingBlock: KIFKEQ_clean_linker_1, # of connection points: 2
#     Edge 187, Type (0, 1), BuildingBlock: KIFKEQ_clean_linker_1, # of connection points: 2
#     Edge 188, Type (0, 1), BuildingBlock: KIFKEQ_clean_linker_1, # of connection points: 2
#     Edge 189, Type (0, 1), BuildingBlock: KIFKEQ_clean_linker_1, # of connection points: 2
#     Edge 190, Type (0, 1), BuildingBlock: KIFKEQ_clean_linker_1, # of connection points: 2
#     Edge 191, Type (0, 1), BuildingBlock: KIFKEQ_clean_linker_1, # of connection points: 2
#     Edge 192, Type (0, 1), BuildingBlock: KIFKEQ_clean_linker_1, # of connection points: 2
#     Edge 193, Type (0, 1), BuildingBlock: KIFKEQ_clean_linker_1, # of connection points: 2
#     Edge 194, Type (0, 1), BuildingBlock: KIFKEQ_clean_linker_1, # of connection points: 2
#     Edge 195, Type (0, 1), BuildingBlock: KIFKEQ_clean_linker_1, # of connection points: 2
#     Edge 196, Type (0, 1), BuildingBlock: KIFKEQ_clean_linker_1, # of connection points: 2
#     Edge 197, Type (0, 1), BuildingBlock: KIFKEQ_clean_linker_1, # of connection points: 2
#     Edge 198, Type (0, 1), BuildingBlock: KIFKEQ_clean_linker_1, # of connection points: 2
#     Edge 199, Type (0, 1), BuildingBlock: KIFKEQ_clean_linker_1, # of connection points: 2
#     Edge 200, Type (0, 1), BuildingBlock: KIFKEQ_clean_linker_1, # of connection points: 2
#     Edge 201, Type (0, 1), BuildingBlock: KIFKEQ_clean_linker_1, # of connection points: 2
#     Edge 202, Type (0, 1), BuildingBlock: KIFKEQ_clean_linker_1, # of connection points: 2
#     Edge 203, Type (0, 1), BuildingBlock: KIFKEQ_clean_linker_1, # of connection points: 2
#     Edge 204, Type (0, 1), BuildingBlock: KIFKEQ_clean_linker_1, # of connection points: 2
#     Edge 205, Type (0, 1), BuildingBlock: KIFKEQ_clean_linker_1, # of connection points: 2
#     Edge 206, Type (0, 1), BuildingBlock: KIFKEQ_clean_linker_1, # of connection points: 2
#     Edge 207, Type (0, 1), BuildingBlock: KIFKEQ_clean_linker_1, # of connection points: 2
#     Edge 208, Type (0, 1), BuildingBlock: KIFKEQ_clean_linker_1, # of connection points: 2
#     Edge 209, Type (0, 1), BuildingBlock: KIFKEQ_clean_linker_1, # of connection points: 2
#     Edge 210, Type (0, 1), BuildingBlock: KIFKEQ_clean_linker_1, # of connection points: 2
#     Edge 211, Type (0, 1), BuildingBlock: KIFKEQ_clean_linker_1, # of connection points: 2
#     Edge 212, Type (0, 1), BuildingBlock: KIFKEQ_clean_linker_1, # of connection points: 2
#     Edge 213, Type (0, 1), BuildingBlock: KIFKEQ_clean_linker_1, # of connection points: 2
#     Edge 214, Type (0, 1), BuildingBlock: KIFKEQ_clean_linker_1, # of connection points: 2
#     Edge 215, Type (0, 1), BuildingBlock: KIFKEQ_clean_linker_1, # of connection points: 2
#     Edge 216, Type (0, 1), BuildingBlock: KIFKEQ_clean_linker_1, # of connection points: 2
#     Edge 217, Type (0, 1), BuildingBlock: KIFKEQ_clean_linker_1, # of connection points: 2
#     Edge 218, Type (0, 1), BuildingBlock: KIFKEQ_clean_linker_1, # of connection points: 2
#     Edge 219, Type (0, 1), BuildingBlock: KIFKEQ_clean_linker_1, # of connection points: 2
#     Edge 220, Type (0, 1), BuildingBlock: KIFKEQ_clean_linker_1, # of connection points: 2
#     Edge 221, Type (0, 1), BuildingBlock: KIFKEQ_clean_linker_1, # of connection points: 2
#     Edge 222, Type (0, 1), BuildingBlock: KIFKEQ_clean_linker_1, # of connection points: 2
#     Edge 223, Type (0, 1), BuildingBlock: KIFKEQ_clean_linker_1, # of connection points: 2
#     Edge 224, Type (0, 1), BuildingBlock: KIFKEQ_clean_linker_1, # of connection points: 2
#     Edge 225, Type (0, 1), BuildingBlock: KIFKEQ_clean_linker_1, # of connection points: 2
#     Edge 226, Type (0, 1), BuildingBlock: KIFKEQ_clean_linker_1, # of connection points: 2
#     Edge 227, Type (0, 1), BuildingBlock: KIFKEQ_clean_linker_1, # of connection points: 2
#     Edge 228, Type (0, 1), BuildingBlock: KIFKEQ_clean_linker_1, # of connection points: 2
#     Edge 229, Type (0, 1), BuildingBlock: KIFKEQ_clean_linker_1, # of connection points: 2
#     Edge 230, Type (0, 1), BuildingBlock: KIFKEQ_clean_linker_1, # of connection points: 2
#     Edge 231, Type (0, 1), BuildingBlock: KIFKEQ_clean_linker_1, # of connection points: 2
#     Edge 232, Type (0, 1), BuildingBlock: KIFKEQ_clean_linker_1, # of connection points: 2
#     Edge 233, Type (0, 1), BuildingBlock: KIFKEQ_clean_linker_1, # of connection points: 2
#     Edge 234, Type (0, 1), BuildingBlock: KIFKEQ_clean_linker_1, # of connection points: 2
#     Edge 235, Type (0, 1), BuildingBlock: KIFKEQ_clean_linker_1, # of connection points: 2
#     Edge 236, Type (0, 1), BuildingBlock: KIFKEQ_clean_linker_1, # of connection points: 2
#     Edge 237, Type (0, 1), BuildingBlock: KIFKEQ_clean_linker_1, # of connection points: 2
#     Edge 238, Type (0, 1), BuildingBlock: KIFKEQ_clean_linker_1, # of connection points: 2
#     Edge 239, Type (0, 1), BuildingBlock: KIFKEQ_clean_linker_1, # of connection points: 2
# Relax obj value: 0.091
# Max RMSD: 0.079
# Mean RMSD: 0.074
data_MOF--net-bpr--node1-WUSLED_clean_sbu_0--node2-KAKCAD_clean_linker_0--edge1-KIFKEQ_clean_linker_1
_symmetry_space_group_name_H-M    P1
_symmetry_Int_Tables_number       1
_symmetry_cell_setting            triclinic
loop_
_symmetry_equiv_pos_as_xyz
'x, y, z'
_cell_length_a     125.40664
_cell_length_b     125.62182
_cell_length_c     126.29565
_cell_angle_alpha  90.520899
_cell_angle_beta   90.148933
_cell_angle_gamma 90.079349
loop_
_atom_site_label
_atom_site_type_symbol
_atom_site_fract_x
_atom_site_fract_y
_atom_site_fract_z
_atom_type_partial_charge
C0 C 0.00764 0.38091 0.27065 0.0
C1 C 0.00713 0.37695 0.28099 0.0
C2 C 0.99163 0.38799 0.28466 0.0
C3 C 0.99917 0.38041 0.28791 0.0
C4 C 0.99224 0.39205 0.27432 0.0
C5 C 1.00018 0.3885 0.26736 0.0
U6 U 0.03516 0.36962 0.26729 0.0
O7 O 0.04159 0.35741 0.25647 0.0
O8 O 0.0483 0.37358 0.25655 0.0
C9 C 0.0482 0.36412 0.25199 0.0
C10 C 0.01619 0.37741 0.26347 0.0
C11 C 0.04814 0.36409 0.24037 0.0
C12 C 0.04057 0.36959 0.22356 0.0
C13 C 0.04017 0.36937 0.23464 0.0
C14 C 0.05674 0.35906 0.2239 0.0
C15 C 0.04892 0.3645 0.21807 0.0
C16 C 0.05635 0.35886 0.23494 0.0
C17 C 0.05073 0.36385 0.29261 0.0
C18 C 0.06871 0.35667 0.29242 0.0
C19 C 0.06042 0.36162 0.30907 0.0
C20 C 0.05124 0.36472 0.30365 0.0
C21 C 0.06928 0.35757 0.30353 0.0
C22 C 0.05949 0.3598 0.287 0.0
C23 C 0.04113 0.36749 0.28709 0.0
O24 O 0.02484 0.38332 0.26375 0.0
O25 O 0.01821 0.36714 0.26354 0.0
O26 O 0.0358 0.36013 0.28183 0.0
O27 O 0.04225 0.37638 0.2818 0.0
H28 H 0.01293 0.37121 0.28374 0.0
H29 H 0.999 0.37727 0.29587 0.0
H30 H 0.98651 0.39786 0.2716 0.0
H31 H 1.00051 0.3917 0.25943 0.0
H32 H 0.03438 0.37377 0.2193 0.0
H33 H 0.03374 0.37341 0.23873 0.0
H34 H 0.06337 0.35521 0.21996 0.0
H35 H 0.06256 0.35477 0.23927 0.0
H36 H 0.07535 0.3535 0.28793 0.0
H37 H 0.06065 0.3626 0.3176 0.0
H38 H 0.04456 0.36791 0.30808 0.0
H39 H 0.05922 0.3591 0.27845 0.0
C40 C 0.87364 0.74098 0.53088 0.0
C41 C 0.8685 0.73861 0.54043 0.0
C42 C 0.87226 0.71976 0.53783 0.0
C43 C 0.86779 0.72809 0.54386 0.0
C44 C 0.87733 0.72218 0.52822 0.0
C45 C 0.878 0.73272 0.52477 0.0
U46 U 0.87178 0.7703 0.53734 0.0
O47 O 0.88232 0.78369 0.53359 0.0
O48 O 0.86568 0.78379 0.52809 0.0
C49 C 0.87505 0.78848 0.52782 0.0
C50 C 0.87475 0.75208 0.5275 0.0
C51 C 0.87854 0.79231 0.5174 0.0
C52 C 0.89025 0.79142 0.5021 0.0
C53 C 0.88659 0.78713 0.51162 0.0
C54 C 0.87761 0.8059 0.50389 0.0
C55 C 0.88586 0.80091 0.49818 0.0
C56 C 0.87402 0.80165 0.51341 0.0
C57 C 0.86346 0.77894 0.56505 0.0
C58 C 0.85601 0.79618 0.56984 0.0
C59 C 0.866 0.78615 0.5828 0.0
C60 C 0.86755 0.77802 0.57534 0.0
C61 C 0.86025 0.79537 0.58013 0.0
C62 C 0.85765 0.78808 0.56236 0.0
C63 C 0.86566 0.7705 0.55717 0.0
O64 O 0.86578 0.75747 0.52696 0.0
O65 O 0.88249 0.75741 0.53217 0.0
O66 O 0.87569 0.76963 0.55432 0.0
O67 O 0.85896 0.76974 0.54916 0.0
H68 H 0.86517 0.74492 0.5453 0.0
H69 H 0.86398 0.72652 0.55138 0.0
H70 H 0.88078 0.71593 0.52337 0.0
H71 H 0.88201 0.73442 0.51739 0.0
H72 H 0.89653 0.78734 0.49783 0.0
H73 H 0.89015 0.77986 0.51452 0.0
H74 H 0.87416 0.81328 0.50116 0.0
H75 H 0.86782 0.80578 0.51778 0.0
H76 H 0.85141 0.80307 0.56754 0.0
H77 H 0.86954 0.78531 0.59058 0.0
H78 H 0.87211 0.77106 0.57755 0.0
H79 H 0.85445 0.78903 0.55445 0.0
C80 C 0.48261 0.63792 0.73565 0.0
C81 C 0.47261 0.64262 0.73409 0.0
C82 C 0.47404 0.63963 0.71508 0.0
C83 C 0.46838 0.6435 0.72391 0.0
C84 C 0.48416 0.63507 0.71667 0.0
C85 C 0.48841 0.6342 0.7269 0.0
U86 U 0.47722 0.63935 0.76474 0.0
O87 O 0.48664 0.64549 0.77824 0.0
O88 O 0.48129 0.62881 0.7779 0.0
C89 C 0.48702 0.63613 0.7828 0.0
C90 C 0.4867 0.6366 0.74646 0.0
C91 C 0.49753 0.63276 0.78675 0.0
C92 C 0.51292 0.62101 0.78629 0.0
C93 C 0.50337 0.62458 0.78181 0.0
C94 C 0.51108 0.634 0.80047 0.0
C95 C 0.51682 0.62562 0.79573 0.0
C96 C 0.50152 0.63751 0.79602 0.0
C97 C 0.44932 0.64749 0.77342 0.0
C98 C 0.44447 0.65517 0.79048 0.0
C99 C 0.43157 0.64469 0.78057 0.0
C100 C 0.43905 0.64315 0.77252 0.0
C101 C 0.4342 0.65069 0.78968 0.0
C102 C 0.45197 0.65354 0.78246 0.0
C103 C 0.4572 0.64534 0.76504 0.0
O104 O 0.48743 0.64547 0.75204 0.0
O105 O 0.48229 0.62877 0.75172 0.0
O106 O 0.46014 0.63534 0.76407 0.0
O107 O 0.46521 0.65207 0.76438 0.0
H108 H 0.46801 0.64552 0.74077 0.0
H109 H 0.46065 0.64722 0.72297 0.0
H110 H 0.48868 0.63194 0.71004 0.0
H111 H 0.49613 0.63051 0.72799 0.0
H112 H 0.51723 0.61462 0.78241 0.0
H113 H 0.50046 0.62083 0.7746 0.0
H114 H 0.51379 0.63763 0.80781 0.0
H115 H 0.49712 0.6438 0.79997 0.0
H116 H 0.44673 0.65997 0.79729 0.0
H117 H 0.42382 0.64098 0.77975 0.0
H118 H 0.43686 0.63841 0.76563 0.0
H119 H 0.45986 0.65695 0.78339 0.0
C120 C 0.63965 0.27417 0.03442 0.0
C121 C 0.64495 0.27657 0.04394 0.0
C122 C 0.64244 0.29551 0.04095 0.0
C123 C 0.64636 0.28714 0.04716 0.0
C124 C 0.6372 0.29307 0.03136 0.0
C125 C 0.63582 0.28246 0.02812 0.0
U126 U 0.63903 0.2456 0.04263 0.0
O127 O 0.62756 0.23269 0.03965 0.0
O128 O 0.64428 0.23079 0.03481 0.0
C129 C 0.63464 0.22667 0.03482 0.0
C130 C 0.63765 0.26301 0.03145 0.0
C131 C 0.63118 0.22145 0.02494 0.0
C132 C 0.62128 0.22119 0.00836 0.0
C133 C 0.62495 0.2267 0.01735 0.0
C134 C 0.63025 0.20526 0.01437 0.0
C135 C 0.62377 0.21035 0.00686 0.0
C136 C 0.63389 0.21076 0.02331 0.0
C137 C 0.64634 0.23894 0.0708 0.0
C138 C 0.64351 0.22101 0.07723 0.0
C139 C 0.6531 0.23388 0.08806 0.0
C140 C 0.65179 0.24152 0.08017 0.0
C141 C 0.64893 0.22356 0.08669 0.0
C142 C 0.64226 0.22862 0.06934 0.0
C143 C 0.64496 0.24694 0.06252 0.0
O144 O 0.64613 0.25686 0.03142 0.0
O145 O 0.62941 0.25868 0.03617 0.0
O146 O 0.63508 0.24837 0.05936 0.0
O147 O 0.65177 0.24627 0.05465 0.0
H148 H 0.64783 0.27026 0.04898 0.0
H149 H 0.65025 0.28872 0.05468 0.0
H150 H 0.63414 0.29935 0.02638 0.0
H151 H 0.63166 0.28073 0.02077 0.0
H152 H 0.61628 0.22532 1.00273 0.0
H153 H 0.6228 0.23499 0.01847 0.0
H154 H 0.63251 0.197 0.01335 0.0
H155 H 0.63874 0.2066 0.02906 0.0
H156 H 0.64035 0.21308 0.07588 0.0
H157 H 0.65725 0.23609 0.09529 0.0
H158 H 0.655 0.24945 0.0814 0.0
H159 H 0.63811 0.22647 0.0621 0.0
C160 C 0.00697 0.63156 0.24434 0.0
C161 C 0.00752 0.63468 0.23372 0.0
C162 C 0.99103 0.62522 0.22982 0.0
C163 C 0.99961 0.63159 0.22655 0.0
C164 C 0.99055 0.622 0.24046 0.0
C165 C 0.99846 0.62518 0.24768 0.0
U166 U 0.03509 0.64069 0.24759 0.0
O167 O 0.0426 0.65304 0.25758 0.0
O168 O 0.04798 0.63642 0.25856 0.0
C169 C 0.04871 0.64614 0.26246 0.0
C170 C 0.01557 0.63463 0.2517 0.0
C171 C 0.04897 0.64706 0.27406 0.0
C172 C 0.04246 0.64226 0.29149 0.0
C173 C 0.04172 0.64152 0.28044 0.0
C174 C 0.05749 0.65427 0.28982 0.0
C175 C 0.0504 0.64861 0.2963 0.0
C176 C 0.05677 0.6535 0.27881 0.0
C177 C 0.05042 0.6439 0.22161 0.0
C178 C 0.06889 0.64968 0.22072 0.0
C179 C 0.05925 0.64516 0.20463 0.0
C180 C 0.0502 0.64283 0.21058 0.0
C181 C 0.0687 0.64863 0.20961 0.0
C182 C 0.0598 0.64734 0.22668 0.0
C183 C 0.04082 0.64126 0.22764 0.0
O184 O 0.02372 0.62806 0.25186 0.0
O185 O 0.01844 0.64469 0.25126 0.0
O186 O 0.03617 0.64927 0.23252 0.0
O187 O 0.0415 0.63266 0.23345 0.0
H188 H 0.01413 0.63946 0.23094 0.0
H189 H 1.00031 0.63403 0.21837 0.0
H190 H 0.98401 0.61711 0.2432 0.0
H191 H 0.99797 0.62263 0.25584 0.0
H192 H 0.03683 0.63787 0.29626 0.0
H193 H 0.03559 0.63656 0.27688 0.0
H194 H 0.06381 0.65909 0.29325 0.0
H195 H 0.06243 0.65781 0.274 0.0
H196 H 0.07602 0.6524 0.22478 0.0
H197 H 0.05888 0.64407 0.19612 0.0
H198 H 0.04303 0.64013 0.20657 0.0
H199 H 0.06008 0.64819 0.23522 0.0
C200 C 0.6393 0.74035 0.47849 0.0
C201 C 0.64422 0.73831 0.46873 0.0
C202 C 0.64222 0.71924 0.47132 0.0
C203 C 0.64569 0.72786 0.46518 0.0
C204 C 0.63731 0.72132 0.48113 0.0
C205 C 0.63588 0.73181 0.4847 0.0
U206 U 0.63945 0.76952 0.47212 0.0
O207 O 0.6282 0.7824 0.47584 0.0
O208 O 0.64484 0.78356 0.48124 0.0
C209 C 0.63524 0.78773 0.48153 0.0
C210 C 0.63747 0.75137 0.482 0.0
C211 C 0.63167 0.79166 0.49196 0.0
C212 C 0.61999 0.79085 0.50728 0.0
C213 C 0.62358 0.78654 0.49767 0.0
C214 C 0.63275 0.80525 0.50571 0.0
C215 C 0.62451 0.80029 0.51137 0.0
C216 C 0.63626 0.80099 0.49609 0.0
C217 C 0.64767 0.77787 0.44454 0.0
C218 C 0.64652 0.79636 0.43927 0.0
C219 C 0.65398 0.78322 0.42723 0.0
C220 C 0.65227 0.7753 0.43475 0.0
C221 C 0.65109 0.79385 0.42939 0.0
C222 C 0.64484 0.78844 0.44678 0.0
C223 C 0.64581 0.76949 0.45235 0.0
O224 O 0.64609 0.75732 0.48261 0.0
O225 O 0.62946 0.75615 0.4773 0.0
O226 O 0.6358 0.7682 0.45513 0.0
O227 O 0.65243 0.7695 0.46043 0.0
H228 H 0.64683 0.74483 0.46379 0.0
H229 H 0.64932 0.72655 0.45751 0.0
H230 H 0.63461 0.71485 0.48607 0.0
H231 H 0.63204 0.73326 0.49225 0.0
H232 H 0.6137 0.7868 0.51152 0.0
H233 H 0.61995 0.77928 0.49466 0.0
H234 H 0.63629 0.81261 0.50856 0.0
H235 H 0.64249 0.80507 0.49179 0.0
H236 H 0.64406 0.80442 0.44113 0.0
H237 H 0.65764 0.78104 0.41977 0.0
H238 H 0.65454 0.76717 0.43293 0.0
H239 H 0.64126 0.79054 0.45431 0.0
C240 C 0.50761 0.38401 0.7428 0.0
C241 C 0.5067 0.3817 0.73195 0.0
C242 C 0.52308 0.39146 0.72846 0.0
C243 C 0.51437 0.38534 0.72487 0.0
C244 C 0.52399 0.39372 0.73938 0.0
C245 C 0.51629 0.39003 0.74649 0.0
U246 U 0.48007 0.37328 0.74572 0.0
O247 O 0.47321 0.36065 0.75558 0.0
O248 O 0.46692 0.37695 0.7566 0.0
C249 C 0.46668 0.36726 0.76043 0.0
C250 C 0.49923 0.38042 0.75006 0.0
C251 C 0.46632 0.36647 0.77201 0.0
C252 C 0.47247 0.37168 0.78958 0.0
C253 C 0.47337 0.37224 0.77854 0.0
C254 C 0.45766 0.35941 0.78759 0.0
C255 C 0.46454 0.36531 0.79422 0.0
C256 C 0.45855 0.35999 0.7766 0.0
C257 C 0.46497 0.36921 0.71955 0.0
C258 C 0.44675 0.3627 0.71837 0.0
C259 C 0.45629 0.36758 0.70245 0.0
C260 C 0.46521 0.37026 0.70854 0.0
C261 C 0.44694 0.36376 0.70728 0.0
C262 C 0.45572 0.3654 0.72446 0.0
C263 C 0.47441 0.37232 0.72572 0.0
O264 O 0.49071 0.3865 0.75031 0.0
O265 O 0.49694 0.37022 0.74938 0.0
O266 O 0.47942 0.36456 0.73055 0.0
O267 O 0.47331 0.3809 0.73163 0.0
H268 H 0.50002 0.3771 0.72895 0.0
H269 H 0.5135 0.38326 0.71657 0.0
H270 H 0.53054 0.3985 0.74239 0.0
H271 H 0.51706 0.39195 0.75484 0.0
H272 H 0.47794 0.37625 0.79447 0.0
H273 H 0.47947 0.37725 0.77511 0.0
H274 H 0.45135 0.35456 0.79088 0.0
H275 H 0.45303 0.3555 0.77167 0.0
H276 H 0.43971 0.35972 0.72231 0.0
H277 H 0.45665 0.36869 0.69397 0.0
H278 H 0.47228 0.37325 0.70464 0.0
H279 H 0.45543 0.36456 0.73299 0.0
C280 C 0.88474 0.23977 1.00646 0.0
C281 C 0.89033 0.23035 1.00414 0.0
C282 C 0.8911 0.22608 0.02288 0.0
C283 C 0.89354 0.22361 0.01228 0.0
C284 C 0.88552 0.23553 0.02517 0.0
C285 C 0.8824 0.24234 0.01702 0.0
U286 U 0.87521 0.24202 0.97833 0.0
O287 O 0.86213 0.2512 0.97116 0.0
O288 O 0.87861 0.25348 0.96577 0.0
C289 C 0.86865 0.25666 0.96515 0.0
C290 C 0.88081 0.24655 0.99785 0.0
C291 C 0.86706 0.26824 0.96506 0.0
C292 C 0.87132 0.28606 0.97142 0.0
C293 C 0.87231 0.275 0.97229 0.0
C294 C 0.85953 0.28364 0.95635 0.0
C295 C 0.86502 0.29051 0.96335 0.0
C296 C 0.86056 0.27262 0.95721 0.0
C297 C 0.87412 0.21648 0.96185 0.0
C298 C 0.86571 0.21548 0.94452 0.0
C299 C 0.87657 0.20085 0.95073 0.0
C300 C 0.87853 0.20638 0.96018 0.0
C301 C 0.87013 0.20532 0.9428 0.0
C302 C 0.86774 0.22104 0.95396 0.0
C303 C 0.87634 0.22217 0.97182 0.0
O304 O 0.88729 0.24759 0.98974 0.0
O305 O 0.87087 0.24477 0.99502 0.0
O306 O 0.86797 0.22615 0.9767 0.0
O307 O 0.88448 0.22876 0.97157 0.0
H308 H 0.89207 0.22812 0.99602 0.0
H309 H 0.89767 0.21631 0.01025 0.0
H310 H 0.88358 0.23766 0.03327 0.0
H311 H 0.87802 0.24952 0.01894 0.0
H312 H 0.87556 0.29113 0.977 0.0
H313 H 0.87734 0.27173 0.97844 0.0
H314 H 0.85475 0.28678 0.94995 0.0
H315 H 0.85647 0.26751 0.95154 0.0
H316 H 0.8608 0.21917 0.93851 0.0
H317 H 0.87997 0.19298 0.9497 0.0
H318 H 0.88348 0.20276 0.96619 0.0
H319 H 0.86433 0.22889 0.9551 0.0
C320 C 0.23948 0.02836 0.37292 0.0
C321 C 0.23718 0.03794 0.36778 0.0
C322 C 0.21817 0.03492 0.37014 0.0
C323 C 0.22663 0.04118 0.36637 0.0
C324 C 0.22051 0.0253 0.37527 0.0
C325 C 0.23109 0.02204 0.37663 0.0
U326 U 0.26849 0.03593 0.37339 0.0
O327 O 0.28145 0.03219 0.38449 0.0
O328 O 0.28286 0.02765 0.3677 0.0
C329 C 0.28706 0.02715 0.37723 0.0
C330 C 0.25061 0.02521 0.37471 0.0
C331 C 0.29154 0.01678 0.3802 0.0
C332 C 0.29092 1.00015 0.38989 0.0
C333 C 0.28615 0.00976 0.38694 0.0
C334 C 0.30635 1.00442 0.37922 0.0
C335 C 0.30109 0.99739 0.38607 0.0
C336 C 0.30162 0.01401 0.37633 0.0
C337 C 0.27613 0.06422 0.36646 0.0
C338 C 0.29422 0.07066 0.36911 0.0
C339 C 0.28148 0.08133 0.35941 0.0
C340 C 0.27369 0.0735 0.36088 0.0
C341 C 0.29181 0.08002 0.36356 0.0
C342 C 0.28645 0.06281 0.37052 0.0
C343 C 0.26793 0.05602 0.36793 0.0
O344 O 0.25665 0.02512 0.36622 0.0
O345 O 0.2552 0.02981 0.38293 0.0
O346 O 0.26665 0.05281 0.37772 0.0
O347 O 0.26814 0.04815 0.36101 0.0
H348 H 0.24357 0.04299 0.36496 0.0
H349 H 0.22512 0.04872 0.36256 0.0
H350 H 0.21415 0.02028 0.37821 0.0
H351 H 0.23274 0.01463 0.38065 0.0
H352 H 0.28664 0.99486 0.39511 0.0
H353 H 0.27832 0.01174 0.38997 0.0
H354 H 0.31426 1.00263 0.37628 0.0
H355 H 0.30592 0.01934 0.37116 0.0
H356 H 0.30214 0.06935 0.37227 0.0
H357 H 0.27936 0.08849 0.35518 0.0
H358 H 0.26577 0.07469 0.35767 0.0
H359 H 0.2885 0.05564 0.37476 0.0
C360 C 0.24036 1.00619 0.63479 0.0
C361 C 0.22964 1.00658 0.63791 0.0
C362 C 0.22636 0.98936 0.62957 0.0
C363 C 0.22272 0.99823 0.63538 0.0
C364 C 0.23709 0.98902 0.62637 0.0
C365 C 0.24406 0.99738 0.629 0.0
U366 U 0.24313 0.0352 0.64124 0.0
O367 O 0.25284 0.04396 0.65298 0.0
O368 O 0.25429 0.04756 0.63603 0.0
C369 C 0.25783 0.04943 0.64568 0.0
C370 C 0.24749 0.0152 0.63723 0.0
C371 C 0.26944 0.05043 0.64692 0.0
C372 C 0.28759 0.0459 0.6419 0.0
C373 C 0.2766 0.04397 0.64124 0.0
C374 C 0.28433 0.06044 0.6542 0.0
C375 C 0.29154 0.05432 0.64821 0.0
C376 C 0.2734 0.05852 0.65355 0.0
C377 C 0.21775 0.05158 0.64236 0.0
C378 C 0.2178 0.06991 0.64865 0.0
C379 C 0.20212 0.06264 0.63994 0.0
C380 C 0.2073 0.05288 0.63867 0.0
C381 C 0.20731 0.07127 0.64493 0.0
C382 C 0.223 0.06015 0.64733 0.0
C383 C 0.22316 0.04135 0.64074 0.0
O384 O 0.24782 0.0226 0.62995 0.0
O385 O 0.24664 0.01909 0.6469 0.0
O386 O 0.22768 0.03728 0.64918 0.0
O387 O 0.2292 0.04081 0.63227 0.0
H388 H 0.22658 0.0134 0.64224 0.0
H389 H 0.21446 0.99881 0.6378 0.0
H390 H 0.24011 0.98227 0.62191 0.0
H391 H 0.25229 0.99699 0.62645 0.0
H392 H 0.29295 0.04107 0.63717 0.0
H393 H 0.27367 0.03765 0.63611 0.0
H394 H 0.28714 0.06686 0.65928 0.0
H395 H 0.26799 0.06354 0.65803 0.0
H396 H 0.22203 0.07643 0.65244 0.0
H397 H 0.19399 0.0634 0.63711 0.0
H398 H 0.20315 0.04634 0.6348 0.0
H399 H 0.23112 0.05929 0.65014 0.0
C400 C 0.24051 1.00652 0.87904 0.0
C401 C 0.23014 1.0068 0.87483 0.0
C402 C 0.22645 0.02314 0.88462 0.0
C403 C 0.22321 0.01507 0.87754 0.0
C404 C 0.23682 0.02281 0.88888 0.0
C405 C 0.24381 0.01458 0.88608 0.0
U406 U 0.24391 0.97746 0.87246 0.0
O407 O 0.25392 0.96911 0.86077 0.0
O408 O 0.25552 0.96553 0.87769 0.0
C409 C 0.25923 0.96394 0.86808 0.0
C410 C 0.2477 0.9976 0.8765 0.0
C411 C 0.27088 0.96407 0.86707 0.0
C412 C 0.28815 0.97226 0.87035 0.0
C413 C 0.27701 0.97262 0.87094 0.0
C414 C 0.28707 0.95495 0.86178 0.0
C415 C 0.29331 0.96337 0.86584 0.0
C416 C 0.27596 0.95531 0.86239 0.0
C417 C 0.21872 0.96043 0.87153 0.0
C418 C 0.21843 0.9422 0.86496 0.0
C419 C 0.20326 0.94927 0.87456 0.0
C420 C 0.2085 0.95902 0.87572 0.0
C421 C 0.20816 0.94075 0.86917 0.0
C422 C 0.2237 0.95196 0.86618 0.0
C423 C 0.22412 0.97071 0.87303 0.0
O424 O 0.24827 0.9902 0.88377 0.0
O425 O 0.24684 0.9937 0.86683 0.0
O426 O 0.22849 0.9748 0.86453 0.0
O427 O 0.23024 0.9714 0.88147 0.0
H428 H 0.22735 1.00056 0.86952 0.0
H429 H 0.21522 0.01502 0.87426 0.0
H430 H 0.23954 0.02896 0.89432 0.0
H431 H 0.25175 0.01445 0.88947 0.0
H432 H 0.29273 0.97891 0.87347 0.0
H433 H 0.27319 0.97948 0.87454 0.0
H434 H 0.29076 0.94791 0.85841 0.0
H435 H 0.27134 0.94864 0.85939 0.0
H436 H 0.22243 0.93575 0.86084 0.0
H437 H 0.1953 0.94844 0.87776 0.0
H438 H 0.20456 0.96548 0.87989 0.0
H439 H 0.23165 0.9529 0.86298 0.0
C440 C 0.23788 0.98439 0.13939 0.0
C441 C 0.23607 0.97396 0.14283 0.0
C442 C 0.21696 0.97622 0.14034 0.0
C443 C 0.22572 0.96992 0.14332 0.0
C444 C 0.21879 0.98677 0.13712 0.0
C445 C 0.22919 0.99081 0.13663 0.0
U446 U 0.2671 0.97836 0.14025 0.0
O447 O 0.28035 0.9827 0.12979 0.0
O448 O 0.2809 0.98721 0.14665 0.0
C449 C 0.28547 0.98791 0.13732 0.0
C450 C 0.24885 0.98829 0.13829 0.0
C451 C 0.28975 0.99842 0.13454 0.0
C452 C 0.28927 0.01475 0.12436 0.0
C453 C 0.28454 1.00513 0.12735 0.0
C454 C 0.30427 0.01114 0.13592 0.0
C455 C 0.29923 0.01782 0.12856 0.0
C456 C 0.29957 1.00155 0.13886 0.0
C457 C 0.2756 0.95029 0.14681 0.0
C458 C 0.29426 0.9453 0.14575 0.0
C459 C 0.28126 0.93275 0.15242 0.0
C460 C 0.27318 0.94026 0.15091 0.0
C461 C 0.2919 0.93518 0.14984 0.0
C462 C 0.28618 0.95279 0.14427 0.0
C463 C 0.2671 0.95814 0.14523 0.0
O464 O 0.25448 0.98842 0.14709 0.0
O465 O 0.25406 0.98421 0.1302 0.0
O466 O 0.26605 0.96153 0.13547 0.0
O467 O 0.26677 0.96584 0.15232 0.0
H468 H 0.2427 0.9689 0.145 0.0
H469 H 0.22457 0.96183 0.14599 0.0
H470 H 0.21222 0.99178 0.1347 0.0
H471 H 0.23047 0.99887 0.13392 0.0
H472 H 0.28516 0.01977 0.11875 0.0
H473 H 0.27692 1.00288 0.12395 0.0
H474 H 0.31201 0.01317 0.13918 0.0
H475 H 0.30372 0.99645 0.14438 0.0
H476 H 0.30232 0.94739 0.14353 0.0
H477 H 0.27919 0.9251 0.15572 0.0
H478 H 0.26504 0.93823 0.15296 0.0
H479 H 0.28818 0.96052 0.14109 0.0
C480 C 0.37282 0.24064 0.03105 0.0
C481 C 0.36777 0.23846 0.04069 0.0
C482 C 0.37017 0.21945 0.03772 0.0
C483 C 0.36643 0.22797 0.04398 0.0
C484 C 0.3752 0.22167 0.02804 0.0
C485 C 0.3765 0.2322 0.02472 0.0
U486 U 0.37291 0.26968 0.0384 0.0
O487 O 0.38394 0.28271 0.03466 0.0
O488 O 0.36705 0.28387 0.03011 0.0
C489 C 0.37659 0.28819 0.02965 0.0
C490 C 0.37454 0.25171 0.02783 0.0
C491 C 0.3796 0.29272 0.01938 0.0
C492 C 0.3899 0.29253 1.00309 0.0
C493 C 0.38682 0.28763 0.01253 0.0
C494 C 0.3784 0.30748 0.00719 0.0
C495 C 0.38575 0.30254 1.00035 0.0
C496 C 0.37537 0.30262 0.0166 0.0
C497 C 0.3657 0.27781 0.06633 0.0
C498 C 0.36688 0.29641 0.07154 0.0
C499 C 0.35963 0.28348 0.08372 0.0
C500 C 0.36126 0.27541 0.07619 0.0
C501 C 0.36241 0.29409 0.08147 0.0
C502 C 0.36848 0.28835 0.06403 0.0
C503 C 0.36731 0.26936 0.05839 0.0
O504 O 0.36591 0.25766 0.0277 0.0
O505 O 0.38273 0.25645 0.03238 0.0
O506 O 0.37721 0.26814 0.05521 0.0
O507 O 0.36039 0.2693 0.05056 0.0
H508 H 0.36498 0.2449 0.04573 0.0
H509 H 0.36269 0.22655 0.05156 0.0
H510 H 0.37811 0.21527 0.02303 0.0
H511 H 0.38045 0.23375 0.01728 0.0
H512 H 0.39551 0.28849 0.99794 0.0
H513 H 0.39015 0.27995 0.01452 0.0
H514 H 0.37518 0.31526 1.00541 0.0
H515 H 0.36983 0.30669 0.02182 0.0
H516 H 0.36927 0.30445 0.06961 0.0
H517 H 0.35607 0.28144 0.09123 0.0
H518 H 0.35903 0.26731 0.07805 0.0
H519 H 0.37192 0.29033 0.05644 0.0
C520 C 0.00803 0.88285 0.2432 0.0
C521 C 0.00788 0.8798 0.23249 0.0
C522 C 0.02408 0.88998 0.22934 0.0
C523 C 0.01585 0.88328 0.22565 0.0
C524 C 0.02426 0.89292 0.24013 0.0
C525 C 0.01627 0.88939 0.247 0.0
U526 U 0.98029 0.87213 0.24555 0.0
O527 O 0.97291 0.86063 0.25633 0.0
O528 O 0.96663 0.87691 0.25534 0.0
C529 C 0.96614 0.86768 0.26012 0.0
C530 C 0.99925 0.87965 0.25017 0.0
C531 C 0.96515 0.86821 0.27168 0.0
C532 C 0.97252 0.87163 0.28921 0.0
C533 C 0.97389 0.87069 0.27823 0.0
C534 C 0.95374 0.86749 0.28711 0.0
C535 C 0.96238 0.87019 0.29374 0.0
C536 C 0.95512 0.86651 0.2762 0.0
C537 C 0.96574 0.86615 0.21959 0.0
C538 C 0.94763 0.85927 0.21905 0.0
C539 C 0.9563 0.86477 0.20286 0.0
C540 C 0.96545 0.86747 0.20861 0.0
C541 C 0.94726 0.86066 0.20801 0.0
C542 C 0.9568 0.86201 0.22481 0.0
C543 C 0.97525 0.86955 0.22551 0.0
O544 O 0.99073 0.88568 0.24955 0.0
O545 O 0.99702 0.86941 0.25005 0.0
O546 O 0.97998 0.86216 0.23113 0.0
O547 O 0.97429 0.87866 0.2306 0.0
H548 H 1.00153 0.8748 0.2294 0.0
H549 H 0.01555 0.88071 0.21745 0.0
H550 H 0.03043 0.89815 0.24321 0.0
H551 H 0.01645 0.8919 0.25523 0.0
H552 H 0.9793 0.87378 0.29411 0.0
H553 H 0.98169 0.87206 0.27483 0.0
H554 H 0.94588 0.86616 0.29038 0.0
H555 H 0.94831 0.86456 0.27125 0.0
H556 H 0.94085 0.85603 0.22325 0.0
H557 H 0.95623 0.86613 0.19441 0.0
H558 H 0.97225 0.87075 0.20449 0.0
H559 H 0.9569 0.86098 0.23332 0.0
C560 C 0.13944 0.77469 0.53564 0.0
C561 C 0.14304 0.77684 0.54596 0.0
C562 C 0.13965 0.79573 0.54356 0.0
C563 C 0.14316 0.78725 0.54988 0.0
C564 C 0.1363 0.79357 0.53312 0.0
C565 C 0.13616 0.7831 0.52919 0.0
U566 U 0.14191 0.7458 0.54207 0.0
O567 O 0.1318 0.73197 0.53849 0.0
O568 O 0.14852 0.73207 0.53331 0.0
C569 C 0.13933 0.72703 0.53316 0.0
C570 C 0.13871 0.76361 0.53191 0.0
C571 C 0.13608 0.72223 0.52299 0.0
C572 C 0.12524 0.72207 0.50701 0.0
C573 C 0.12898 0.72735 0.51611 0.0
C574 C 0.13596 0.7067 0.51145 0.0
C575 C 0.12854 0.7116 0.5047 0.0
C576 C 0.13967 0.71196 0.52051 0.0
C577 C 0.14958 0.73845 0.57017 0.0
C578 C 0.15715 0.7215 0.57543 0.0
C579 C 0.14616 0.73149 0.58773 0.0
C580 C 0.14488 0.73947 0.58018 0.0
C581 C 0.15224 0.72235 0.58541 0.0
C582 C 0.15577 0.72942 0.56786 0.0
C583 C 0.14747 0.74659 0.56209 0.0
O584 O 0.14782 0.75844 0.53166 0.0
O585 O 0.13096 0.7581 0.53623 0.0
O586 O 0.13751 0.74715 0.55889 0.0
O587 O 0.15437 0.74717 0.55429 0.0
H588 H 0.14561 0.77043 0.55105 0.0
H589 H 0.14595 0.78867 0.5579 0.0
H590 H 0.13348 0.79992 0.52809 0.0
H591 H 0.13333 0.78155 0.52122 0.0
H592 H 0.11951 0.72605 0.50199 0.0
H593 H 0.12613 0.7353 0.5179 0.0
H594 H 0.13882 0.69873 0.50978 0.0
H595 H 0.14517 0.7079 0.52572 0.0
H596 H 0.16203 0.71467 0.57342 0.0
H597 H 0.14214 0.73236 0.59526 0.0
H598 H 0.14001 0.74634 0.5821 0.0
H599 H 0.15945 0.72841 0.56017 0.0
C600 C 0.99251 0.63532 0.75625 0.0
C601 C 0.98179 0.63212 0.75594 0.0
C602 C 0.97857 0.64092 0.77286 0.0
C603 C 0.9749 0.63485 0.76418 0.0
C604 C 0.98928 0.64429 0.77306 0.0
C605 C 0.99621 0.64147 0.76482 0.0
U606 U 0.99538 0.62586 0.72822 0.0
O607 O 1.00623 0.63035 0.71536 0.0
O608 O 1.00569 0.61378 0.72079 0.0
C609 C 0.01038 0.62076 0.71466 0.0
C610 C 0.99967 0.63238 0.74752 0.0
C611 C 0.02207 0.6202 0.71435 0.0
C612 C 0.03959 0.62529 0.72094 0.0
C613 C 0.02846 0.62586 0.72161 0.0
C614 C 0.03798 0.61327 0.70591 0.0
C615 C 0.04447 0.61898 0.71307 0.0
C616 C 0.0269 0.61388 0.70655 0.0
C617 C 0.96957 0.6212 0.71282 0.0
C618 C 0.96942 0.61447 0.69472 0.0
C619 C 0.9529 0.61983 0.70313 0.0
C620 C 0.9585 0.62249 0.71236 0.0
C621 C 0.95829 0.61582 0.69419 0.0
C622 C 0.97502 0.61715 0.70397 0.0
C623 C 0.97531 0.62432 0.72248 0.0
O624 O 0.99938 0.62227 0.74475 0.0
O625 O 0.99942 0.63883 0.73938 0.0
O626 O 0.98085 0.63318 0.72182 0.0
O627 O 0.98048 0.61665 0.72727 0.0
H628 H 0.97874 0.62749 0.74931 0.0
H629 H 0.96666 0.63229 0.76371 0.0
H630 H 0.99232 0.64894 0.77967 0.0
H631 H 1.00445 0.64407 0.76514 0.0
H632 H 0.04438 0.62972 0.72662 0.0
H633 H 0.02484 0.63074 0.72773 0.0
H634 H 0.04147 0.60848 0.69964 0.0
H635 H 0.02208 0.60947 0.70088 0.0
H636 H 0.9738 0.61132 0.68802 0.0
H637 H 0.94437 0.62115 0.70294 0.0
H638 H 0.95419 0.62566 0.71911 0.0
H639 H 0.9836 0.61612 0.70422 0.0
C640 C 0.13244 0.25368 0.49151 0.0
C641 C 0.13085 0.25266 0.48055 0.0
C642 C 0.13984 0.26957 0.4777 0.0
C643 C 0.13448 0.26054 0.47372 0.0
C644 C 0.14138 0.27058 0.48871 0.0
C645 C 0.13771 0.26268 0.49557 0.0
U646 U 0.12177 0.226 0.49416 0.0
O647 O 0.12585 0.21291 0.50485 0.0
O648 O 0.10945 0.21905 0.50439 0.0
C649 C 0.11624 0.2126 0.50899 0.0
C650 C 0.12887 0.24517 0.49856 0.0
C651 C 0.11576 0.21232 0.5206 0.0
C652 C 0.12117 0.21883 0.53798 0.0
C653 C 0.12155 0.21954 0.52692 0.0
C654 C 0.10908 0.20382 0.53642 0.0
C655 C 0.11495 0.21092 0.54284 0.0
C656 C 0.10949 0.20452 0.52541 0.0
C657 C 0.11714 0.21047 0.46824 0.0
C658 C 0.11894 0.19158 0.46427 0.0
C659 C 0.10761 0.20259 0.45333 0.0
C660 C 0.11012 0.21144 0.45964 0.0
C661 C 0.11216 0.19258 0.45544 0.0
C662 C 0.12138 0.20043 0.47063 0.0
C663 C 0.12029 0.22011 0.47424 0.0
O664 O 0.11866 0.24285 0.49791 0.0
O665 O 0.135 0.23669 0.49855 0.0
O666 O 0.12915 0.21947 0.47979 0.0
O667 O 0.1126 0.22513 0.47926 0.0
H668 H 0.12681 0.24574 0.47728 0.0
H669 H 0.13298 0.25958 0.46532 0.0
H670 H 0.14556 0.27739 0.49202 0.0
H671 H 0.13907 0.26354 0.50401 0.0
H672 H 0.12572 0.22446 0.54272 0.0
H673 H 0.1264 0.22565 0.52332 0.0
H674 H 0.10435 0.19754 0.53989 0.0
H675 H 0.10499 0.19888 0.52063 0.0
H676 H 0.12269 0.18405 0.46607 0.0
H677 H 0.1022 0.20362 0.44673 0.0
H678 H 0.10672 0.2191 0.4577 0.0
H679 H 0.12677 0.19943 0.47725 0.0
C680 C 0.48596 0.39192 0.23253 0.0
C681 C 0.48422 0.39504 0.22204 0.0
C682 C 0.46506 0.39303 0.22436 0.0
C683 C 0.47387 0.3956 0.21799 0.0
C684 C 0.46684 0.39012 0.23495 0.0
C685 C 0.47723 0.38954 0.239 0.0
U686 U 0.5155 0.39296 0.22744 0.0
O687 O 0.52894 0.39887 0.23712 0.0
O688 O 0.52846 0.38214 0.2319 0.0
C689 C 0.53334 0.38941 0.23771 0.0
C690 C 0.49688 0.39076 0.23655 0.0
C691 C 0.53685 0.38611 0.24831 0.0
C692 C 0.53536 0.37486 0.26381 0.0
C693 C 0.53138 0.37829 0.25405 0.0
C694 C 0.55009 0.38726 0.26232 0.0
C695 C 0.5448 0.37927 0.26802 0.0
C696 C 0.54616 0.39061 0.25256 0.0
C697 C 0.5254 0.40018 0.2002 0.0
C698 C 0.54418 0.39828 0.196 0.0
C699 C 0.53206 0.40582 0.18311 0.0
C700 C 0.52361 0.4046 0.19022 0.0
C701 C 0.54242 0.40257 0.1859 0.0
C702 C 0.53575 0.39712 0.2031 0.0
C703 C 0.51649 0.3986 0.20752 0.0
O704 O 0.5022 0.38275 0.23238 0.0
O705 O 0.50247 0.39961 0.23706 0.0
O706 O 0.51594 0.4055 0.21539 0.0
O707 O 0.51505 0.38871 0.21053 0.0
H708 H 0.49089 0.39691 0.21694 0.0
H709 H 0.47276 0.39802 0.20985 0.0
H710 H 0.46024 0.388 0.24003 0.0
H711 H 0.47845 0.38708 0.24711 0.0
H712 H 0.53105 0.36878 0.26807 0.0
H713 H 0.52413 0.37474 0.25094 0.0
H714 H 0.55745 0.39071 0.26527 0.0
H715 H 0.55051 0.39663 0.24823 0.0
H716 H 0.55209 0.39584 0.19843 0.0
H717 H 0.53044 0.40907 0.17536 0.0
H718 H 0.51566 0.40701 0.18787 0.0
H719 H 0.53728 0.39375 0.21082 0.0
C720 C 0.38263 0.75964 0.98838 0.0
C721 C 0.38742 0.75897 0.97837 0.0
C722 C 0.37774 0.74258 0.97453 0.0
C723 C 0.38504 0.75049 0.97153 0.0
C724 C 0.37293 0.74328 0.98457 0.0
C725 C 0.37538 0.75175 0.99145 0.0
U726 U 0.39142 0.78815 0.99123 0.0
O727 O 0.3849 0.80151 1.00053 0.0
O728 O 0.40148 0.79645 1.00294 0.0
C729 C 0.39371 0.80274 1.00607 0.0
C730 C 0.38472 0.76886 0.99533 0.0
C731 C 0.39235 0.80384 0.01756 0.0
C732 C 0.38931 0.79636 0.03497 0.0
C733 C 0.39042 0.79501 0.024 0.0
C734 C 0.392 0.81536 0.03305 0.0
C735 C 0.39005 0.80657 0.0396 0.0
C736 C 0.39313 0.81399 0.02214 0.0
C737 C 0.39899 0.80315 0.96637 0.0
C738 C 0.39877 0.82243 0.9652 0.0
C739 C 0.40744 0.81193 0.95154 0.0
C740 C 0.40475 0.80261 0.95689 0.0
C741 C 0.40431 0.82192 0.95555 0.0
C742 C 0.39619 0.81313 0.9706 0.0
C743 C 0.39567 0.79328 0.97161 0.0
O744 O 0.39479 0.77174 0.99615 0.0
O745 O 0.37823 0.77693 0.99393 0.0
O746 O 0.386 0.79341 0.9756 0.0
O747 O 0.40276 0.78899 0.97794 0.0
H748 H 0.39291 0.76508 0.97578 0.0
H749 H 0.38874 0.75027 0.96379 0.0
H750 H 0.36732 0.73727 0.98711 0.0
H751 H 0.37154 0.75219 0.99911 0.0
H752 H 0.38774 0.78946 0.03979 0.0
H753 H 0.38979 0.7871 0.02055 0.0
H754 H 0.3928 0.8233 0.03638 0.0
H755 H 0.39467 0.82089 0.01727 0.0
H756 H 0.39637 0.83004 0.96853 0.0
H757 H 0.41165 0.8113 0.94408 0.0
H758 H 0.40701 0.79497 0.95354 0.0
H759 H 0.39184 0.81372 0.97799 0.0
C760 C 0.02628 0.38877 0.78014 0.0
C761 C 0.02847 0.39359 0.78997 0.0
C762 C 0.04749 0.39082 0.78733 0.0
C763 C 0.03897 0.39464 0.79352 0.0
C764 C 0.04524 0.38594 0.77749 0.0
C765 C 0.0347 0.38495 0.77392 0.0
U766 U 0.997 0.38997 0.78642 0.0
O767 O 0.98354 0.3797 0.7818 0.0
O768 O 0.98338 0.39668 0.77771 0.0
C769 C 0.97865 0.38738 0.77671 0.0
C770 C 0.0152 0.38759 0.77652 0.0
C771 C 0.97445 0.38476 0.7661 0.0
C772 C 0.97424 0.374 0.74999 0.0
C773 C 0.97889 0.37666 0.75976 0.0
C774 C 0.96089 0.38767 0.7527 0.0
C775 C 0.96516 0.37946 0.74638 0.0
C776 C 0.96549 0.39028 0.76246 0.0
C777 C 0.98855 0.39713 0.81448 0.0
C778 C 0.97154 0.40486 0.81958 0.0
C779 C 0.98117 0.39376 0.83191 0.0
C780 C 0.98929 0.39239 0.82446 0.0
C781 C 0.97216 0.39998 0.82955 0.0
C782 C 0.9796 0.4034 0.8121 0.0
C783 C 0.99696 0.39515 0.80657 0.0
O784 O 0.00996 0.37961 0.78071 0.0
O785 O 0.00967 0.39648 0.77638 0.0
O786 O 0.9978 0.40218 0.79897 0.0
O787 O 0.9977 0.38526 0.80317 0.0
H788 H 0.02204 0.3965 0.79492 0.0
H789 H 0.04042 0.39827 0.8012 0.0
H790 H 0.05163 0.38299 0.77253 0.0
H791 H 0.03313 0.38118 0.76632 0.0
H792 H 0.97775 0.36769 0.74525 0.0
H793 H 0.98584 0.37231 0.7624 0.0
H794 H 0.95381 0.39193 0.75024 0.0
H795 H 0.96192 0.39651 0.76726 0.0
H796 H 0.96481 0.40984 0.81753 0.0
H797 H 0.98186 0.38974 0.83943 0.0
H798 H 0.99609 0.38746 0.82643 0.0
H799 H 0.97879 0.40712 0.80444 0.0
C800 C 0.37926 0.2518 0.52326 0.0
C801 C 0.38186 0.25188 0.53407 0.0
C802 C 0.37192 0.26833 0.53661 0.0
C803 C 0.37826 0.26008 0.54067 0.0
C804 C 0.36938 0.26824 0.52575 0.0
C805 C 0.37301 0.26001 0.51912 0.0
U806 U 0.3916 0.22469 0.52122 0.0
O807 O 0.38728 0.21049 0.51185 0.0
O808 O 0.40316 0.21765 0.51014 0.0
C809 C 0.39638 0.2104 0.50672 0.0
C810 C 0.38279 0.24294 0.51647 0.0
C811 C 0.39554 0.20913 0.49518 0.0
C812 C 0.39223 0.21621 0.47764 0.0
C813 C 0.39312 0.21775 0.48861 0.0
C814 C 0.39615 0.19747 0.4798 0.0
C815 C 0.39366 0.20603 0.47314 0.0
C816 C 0.39708 0.19901 0.49072 0.0
C817 C 0.39952 0.21122 0.54691 0.0
C818 C 0.4072 0.19349 0.54694 0.0
C819 C 0.40196 0.2019 0.56346 0.0
C820 C 0.39867 0.21091 0.55794 0.0
C821 C 0.40618 0.19303 0.55802 0.0
C822 C 0.40388 0.2025 0.54142 0.0
C823 C 0.39529 0.22041 0.54119 0.0
O824 O 0.39316 0.24136 0.51629 0.0
O825 O 0.3773 0.2341 0.51759 0.0
O826 O 0.38603 0.2188 0.53657 0.0
O827 O 0.40214 0.22547 0.53517 0.0
H828 H 0.38666 0.24557 0.5374 0.0
H829 H 0.38054 0.25999 0.54895 0.0
H830 H 0.36443 0.27442 0.52239 0.0
H831 H 0.37087 0.26002 0.51081 0.0
H832 H 0.39022 0.22294 0.47272 0.0
H833 H 0.39187 0.22561 0.49197 0.0
H834 H 0.39746 0.18956 0.47656 0.0
H835 H 0.39898 0.19229 0.49569 0.0
H836 H 0.41051 0.18685 0.54252 0.0
H837 H 0.40088 0.20177 0.57197 0.0
H838 H 0.39524 0.21755 0.56228 0.0
H839 H 0.40455 0.20262 0.53287 0.0
C840 C 0.48461 0.62319 0.28155 0.0
C841 C 0.48185 0.6267 0.29177 0.0
C842 C 0.46354 0.62079 0.28903 0.0
C843 C 0.47142 0.62559 0.29543 0.0
C844 C 0.46634 0.61728 0.27878 0.0
C845 C 0.47678 0.61849 0.27508 0.0
U846 U 0.51418 0.62195 0.28718 0.0
O847 O 0.52742 0.63235 0.28253 0.0
O848 O 0.52758 0.61543 0.27793 0.0
C849 C 0.5322 0.62478 0.27708 0.0
C850 C 0.49568 0.62405 0.27776 0.0
C851 C 0.53603 0.6276 0.26645 0.0
C852 C 0.53594 0.63893 0.25093 0.0
C853 C 0.53152 0.63596 0.26064 0.0
C854 C 0.54917 0.62501 0.2526 0.0
C855 C 0.54487 0.63353 0.24685 0.0
C856 C 0.54481 0.6221 0.2623 0.0
C857 C 0.52371 0.61536 0.31476 0.0
C858 C 0.54239 0.61744 0.3194 0.0
C859 C 0.53022 0.60919 0.33175 0.0
C860 C 0.52184 0.61053 0.32454 0.0
C861 C 0.54056 0.61273 0.32929 0.0
C862 C 0.53404 0.6187 0.31218 0.0
C863 C 0.51488 0.61692 0.30728 0.0
O864 O 0.50118 0.63215 0.28157 0.0
O865 O 0.50109 0.61509 0.27763 0.0
O866 O 0.51423 0.60979 0.29962 0.0
O867 O 0.51369 0.62673 0.30395 0.0
H868 H 0.48777 0.63029 0.29695 0.0
H869 H 0.46954 0.62857 0.30327 0.0
H870 H 0.46053 0.61342 0.27369 0.0
H871 H 0.47878 0.61565 0.26721 0.0
H872 H 0.53239 0.64546 0.24663 0.0
H873 H 0.5247 0.6403 0.26366 0.0
H874 H 0.55614 0.62078 0.24976 0.0
H875 H 0.54844 0.61567 0.26669 0.0
H876 H 0.5503 0.6201 0.31722 0.0
H877 H 0.52855 0.60562 0.33934 0.0
H878 H 0.51391 0.60787 0.32663 0.0
H879 H 0.53564 0.62236 0.30461 0.0
C880 C 0.12226 0.78492 0.98987 0.0
C881 C 0.11665 0.7943 0.98765 0.0
C882 C 0.12038 0.79208 0.96885 0.0
C883 C 0.11569 0.79782 0.97724 0.0
C884 C 0.12586 0.78259 0.97111 0.0
C885 C 0.1268 0.77905 0.98155 0.0
U886 U 0.11936 0.79148 0.01873 0.0
O887 O 0.13005 0.78925 0.03232 0.0
O888 O 0.11404 0.78208 0.03239 0.0
C889 C 0.12323 0.78314 0.03732 0.0
C890 C 0.12366 0.78159 1.0009 0.0
C891 C 0.12761 0.77352 0.0422 0.0
C892 C 0.13958 0.75831 0.04228 0.0
C893 C 0.13503 0.76696 0.03699 0.0
C894 C 0.12914 0.76261 0.05786 0.0
C895 C 0.13679 0.75615 0.05284 0.0
C896 C 0.12461 0.7712 0.05259 0.0
C897 C 0.10803 0.81832 0.02669 0.0
C898 C 0.09975 0.82238 0.04364 0.0
C899 C 0.10972 0.836 0.0345 0.0
C900 C 0.11179 0.82882 0.02623 0.0
C901 C 0.10379 0.83283 0.04338 0.0
C902 C 0.1019 0.81518 0.03543 0.0
C903 C 0.11112 0.81063 0.01835 0.0
O904 O 0.1308 0.7871 1.00626 0.0
O905 O 0.11475 0.78013 1.00617 0.0
O906 O 0.10534 0.80191 0.01761 0.0
O907 O 0.12141 0.80884 0.01762 0.0
H908 H 0.1131 0.79894 0.99399 0.0
H909 H 0.11127 0.80507 0.97578 0.0
H910 H 0.12964 0.77804 0.96484 0.0
H911 H 0.13121 0.77182 0.98315 0.0
H912 H 0.14546 0.75348 0.03821 0.0
H913 H 0.13742 0.76865 0.02895 0.0
H914 H 0.12664 0.76103 0.0659 0.0
H915 H 0.11887 0.77616 0.05672 0.0
H916 H 0.095 0.8197 0.05026 0.0
H917 H 0.1131 0.84392 0.03408 0.0
H918 H 0.11657 0.8314 0.0196 0.0
H919 H 0.09892 0.80711 0.03603 0.0
C920 C 0.75573 0.99532 0.63193 0.0
C921 C 0.75655 0.98508 0.62745 0.0
C922 C 0.77267 0.9818 0.63767 0.0
C923 C 0.76497 0.97841 0.63026 0.0
C924 C 0.77178 0.99204 0.6422 0.0
C925 C 0.76337 0.99875 0.63932 0.0
U926 U 0.72757 0.99764 0.62195 0.0
O927 O 0.71407 0.00748 0.62724 0.0
O928 O 0.71991 0.00872 0.61091 0.0
C929 C 0.71339 0.01248 0.61816 0.0
C930 C 0.74664 1.00217 0.62924 0.0
C931 C 0.7127 0.02412 0.61883 0.0
C932 C 0.71987 0.04133 0.62417 0.0
C933 C 0.72075 0.03022 0.62369 0.0
C934 C 0.70296 0.04027 0.61488 0.0
C935 C 0.71097 0.04648 0.61974 0.0
C936 C 0.70383 0.0292 0.61443 0.0
C937 C 0.71307 0.97172 0.61473 0.0
C938 C 0.69413 0.9677 0.61571 0.0
C939 C 0.70557 0.9572 0.60428 0.0
C940 C 0.71432 0.9634 0.60738 0.0
C941 C 0.6954 0.95914 0.60856 0.0
C942 C 0.70286 0.97396 0.61873 0.0
C943 C 0.72254 0.97766 0.61842 0.0
O944 O 0.74416 1.00248 0.61911 0.0
O945 O 0.73828 1.00109 0.63539 0.0
O946 O 0.72179 0.98228 0.62777 0.0
O947 O 0.72727 0.98362 0.61132 0.0
H948 H 0.75062 0.98221 0.62186 0.0
H949 H 0.76535 0.97051 0.62677 0.0
H950 H 0.77762 0.99487 0.64789 0.0
H951 H 0.7628 1.0066 0.64291 0.0
H952 H 0.72621 0.0459 0.6279 0.0
H953 H 0.72768 0.0264 0.62708 0.0
H954 H 0.69592 0.04395 0.61155 0.0
H955 H 0.69755 0.02459 0.61067 0.0
H956 H 0.68646 0.96937 0.61927 0.0
H957 H 0.70682 0.95081 0.5986 0.0
H958 H 0.72211 0.9616 0.60414 0.0
H959 H 0.70166 0.98039 0.62437 0.0
C960 C 0.757 0.99427 0.37883 0.0
C961 C 0.75642 0.98401 0.3831 0.0
C962 C 0.7399 0.98061 0.3735 0.0
C963 C 0.74793 0.97727 0.3805 0.0
C964 C 0.74053 0.99089 0.36918 0.0
C965 C 0.74902 0.99767 0.37185 0.0
U966 U 0.78517 0.99627 0.38849 0.0
O967 O 0.79904 1.00535 0.38293 0.0
O968 O 0.79338 0.00743 0.39928 0.0
C969 C 0.80012 0.01053 0.39197 0.0
C970 C 0.76621 1.00112 0.38128 0.0
C971 C 0.80187 0.02205 0.39126 0.0
C972 C 0.7968 0.0397 0.38536 0.0
C973 C 0.79468 0.02876 0.38603 0.0
C974 C 0.81319 0.03722 0.39524 0.0
C975 C 0.80615 0.04402 0.38987 0.0
C976 C 0.81107 0.02635 0.39591 0.0
C977 C 0.79888 0.9703 0.39597 0.0
C978 C 0.81794 0.96684 0.39563 0.0
C979 C 0.80624 0.95549 0.4058 0.0
C980 C 0.79749 0.96161 0.40269 0.0
C981 C 0.81656 0.95791 0.40215 0.0
C982 C 0.80919 0.973 0.39261 0.0
C983 C 0.78948 0.97625 0.39231 0.0
O984 O 0.76878 1.00177 0.39137 0.0
O985 O 0.77448 0.99964 0.37507 0.0
O986 O 0.79026 0.98051 0.38287 0.0
O987 O 0.78506 0.98262 0.39934 0.0
H988 H 0.7626 0.98117 0.38837 0.0
H989 H 0.74778 0.96935 0.38381 0.0
H990 H 0.73443 0.9937 0.36381 0.0
H991 H 0.74939 1.00554 0.36841 0.0
H992 H 0.79125 0.04472 0.38113 0.0
H993 H 0.78751 0.02554 0.38242 0.0
H994 H 0.82035 0.04031 0.39899 0.0
H995 H 0.81666 0.02128 0.40004 0.0
H996 H 0.82572 0.96888 0.39255 0.0
H997 H 0.8049 0.94882 0.41099 0.0
H998 H 0.7896 0.95946 0.40544 0.0
H999 H 0.81048 0.97974 0.38747 0.0
C1000 C 0.78411 0.98573 0.12776 0.0
C1001 C 0.79457 0.98347 0.12454 0.0
C1002 C 0.79174 0.96463 0.12789 0.0
C1003 C 0.79835 0.97303 0.1246 0.0
C1004 C 0.7812 0.96692 0.13097 0.0
C1005 C 0.77743 0.97741 0.13092 0.0
U1006 U 0.78995 0.01461 0.12305 0.0
O1007 O 0.78651 0.02902 0.13238 0.0
O1008 O 0.78044 0.02753 0.11608 0.0
C1009 C 0.7807 0.03326 0.12484 0.0
C1010 C 0.78034 0.99679 0.12796 0.0
C1011 C 0.77062 0.0382 0.12816 0.0
C1012 C 0.75484 0.03894 0.13929 0.0
C1013 C 0.76387 0.03348 0.13563 0.0
C1014 C 0.75913 0.05369 0.12782 0.0
C1015 C 0.7525 0.04921 0.13555 0.0
C1016 C 0.7681 0.04825 0.12418 0.0
C1017 C 0.81732 0.02252 0.11326 0.0
C1018 C 0.82114 0.03954 0.10508 0.0
C1019 C 0.835 0.03034 0.11474 0.0
C1020 C 0.82789 0.02205 0.11686 0.0
C1021 C 0.83168 0.03925 0.10892 0.0
C1022 C 0.81401 0.0313 0.10729 0.0
C1023 C 0.80971 0.01417 0.11637 0.0
O1024 O 0.7851 1.00295 0.135 0.0
O1025 O 0.77944 1.00125 0.11862 0.0
O1026 O 0.80146 0.01272 0.11007 0.0
O1027 O 0.80717 0.01421 0.12646 0.0
H1028 H 0.79983 0.98982 0.12203 0.0
H1029 H 0.80644 0.97152 0.12202 0.0
H1030 H 0.77595 0.96064 0.13363 0.0
H1031 H 0.76933 0.97903 0.13345 0.0
H1032 H 0.74989 0.03529 0.14526 0.0
H1033 H 0.76571 0.02571 0.1388 0.0
H1034 H 0.75742 0.06148 0.12461 0.0
H1035 H 0.7732 0.052 0.11838 0.0
H1036 H 0.81834 0.04618 0.10043 0.0
H1037 H 0.84299 0.02991 0.11797 0.0
H1038 H 0.83057 0.01539 0.12156 0.0
H1039 H 0.80587 0.0319 0.10447 0.0
C1040 C 0.72901 0.98391 0.89061 0.0
C1041 C 0.71937 0.98185 0.89582 0.0
C1042 C 0.72166 0.96283 0.89275 0.0
C1043 C 0.71574 0.9714 0.89691 0.0
C1044 C 0.73139 0.96495 0.88766 0.0
C1045 C 0.73504 0.97542 0.8866 0.0
U1046 U 0.7229 0.01333 0.89113 0.0
O1047 O 0.73249 0.02729 0.8957 0.0
O1048 O 0.72628 0.0258 0.87946 0.0
C1049 C 0.7324 0.03118 0.88606 0.0
C1050 C 0.73247 0.99492 0.88884 0.0
C1051 C 0.7427 0.0348 0.8818 0.0
C1052 C 0.76209 0.0351 0.88192 0.0
C1053 C 0.75246 0.03091 0.88562 0.0
C1054 C 0.75231 0.04684 0.87029 0.0
C1055 C 0.76211 0.0432 0.87429 0.0
C1056 C 0.74271 0.0427 0.87404 0.0
C1057 C 0.69587 0.02298 0.90003 0.0
C1058 C 0.69175 0.04179 0.89879 0.0
C1059 C 0.67854 0.02952 0.90557 0.0
C1060 C 0.6857 0.02109 0.90417 0.0
C1061 C 0.68146 0.03995 0.9028 0.0
C1062 C 0.69889 0.03338 0.89742 0.0
C1063 C 0.70327 0.01411 0.89822 0.0
O1064 O 0.72749 0.99974 0.88107 0.0
O1065 O 0.73343 1.00088 0.8974 0.0
O1066 O 0.71166 0.014 0.90448 0.0
O1067 O 0.70564 0.01231 0.88823 0.0
H1068 H 0.71456 0.98834 0.89887 0.0
H1069 H 0.70814 0.97006 0.90073 0.0
H1070 H 0.73618 0.95852 0.88446 0.0
H1071 H 0.74248 0.97689 0.88253 0.0
H1072 H 0.76951 0.03207 0.88507 0.0
H1073 H 0.75266 0.02475 0.89157 0.0
H1074 H 0.75205 0.05316 0.86451 0.0
H1075 H 0.73527 0.04584 0.87101 0.0
H1076 H 0.69429 0.04975 0.89673 0.0
H1077 H 0.67065 0.02784 0.9086 0.0
H1078 H 0.68326 0.01309 0.90621 0.0
H1079 H 0.70675 0.03497 0.89424 0.0
C1080 C 0.63135 0.75262 0.99118 0.0
C1081 C 0.62798 0.75227 0.98058 0.0
C1082 C 0.63713 0.76895 0.97715 0.0
C1083 C 0.63081 0.76037 0.97365 0.0
C1084 C 0.64064 0.76922 0.98775 0.0
C1085 C 0.63773 0.76112 0.99473 0.0
U1086 U 0.62147 0.7247 0.99407 0.0
O1087 O 0.62618 0.71161 1.00451 0.0
O1088 O 0.60967 0.71744 1.00464 0.0
C1089 C 0.61674 0.71111 0.00899 0.0
C1090 C 0.62843 0.74394 0.99834 0.0
C1091 C 0.61673 0.71091 0.0206 0.0
C1092 C 0.62118 0.71878 0.03769 0.0
C1093 C 0.62118 0.71925 0.02661 0.0
C1094 C 0.61217 0.70171 0.03676 0.0
C1095 C 0.61668 0.70999 0.04288 0.0
C1096 C 0.61219 0.70219 0.02573 0.0
C1097 C 0.61604 0.70944 0.96833 0.0
C1098 C 0.60958 0.6912 0.96804 0.0
C1099 C 0.61439 0.69986 0.95166 0.0
C1100 C 0.61704 0.7091 0.9573 0.0
C1101 C 0.61068 0.69077 0.95696 0.0
C1102 C 0.61225 0.70047 0.97369 0.0
C1103 C 0.61932 0.71907 0.97412 0.0
O1104 O 0.61825 0.74141 0.99827 0.0
O1105 O 0.63473 0.7356 0.99788 0.0
O1106 O 0.62834 0.71827 0.97936 0.0
O1107 O 0.61179 0.72392 0.97953 0.0
H1108 H 0.62318 0.74568 0.97766 0.0
H1109 H 0.62815 0.75983 0.9655 0.0
H1110 H 0.64549 0.77576 0.99066 0.0
H1111 H 0.64046 0.76146 1.00287 0.0
H1112 H 0.62464 0.72531 0.04218 0.0
H1113 H 0.62468 0.72608 0.02275 0.0
H1114 H 0.6088 0.69475 0.04049 0.0
H1115 H 0.60874 0.69568 0.02118 0.0
H1116 H 0.60666 0.68438 0.97235 0.0
H1117 H 0.61552 0.69975 0.94316 0.0
H1118 H 0.62002 0.71595 0.95306 0.0
H1119 H 0.61145 0.70062 0.98223 0.0
C1120 C 0.98543 0.12098 0.78155 0.0
C1121 C 0.98344 0.11752 0.79188 0.0
C1122 C 0.96437 0.12 0.78921 0.0
C1123 C 0.973 0.11702 0.79568 0.0
C1124 C 0.96641 0.12324 0.77877 0.0
C1125 C 0.97688 0.12375 0.77498 0.0
U1126 U 0.01481 0.11987 0.78756 0.0
O1127 O 0.02793 0.13069 0.78355 0.0
O1128 O 0.0285 0.11394 0.77837 0.0
C1129 C 0.03297 0.1234 0.77795 0.0
C1130 C 0.99646 0.12215 0.77786 0.0
C1131 C 0.03699 0.12664 0.76752 0.0
C1132 C 0.03701 0.1384 0.75231 0.0
C1133 C 0.03246 0.1351 0.76186 0.0
C1134 C 0.05044 0.12464 0.75387 0.0
C1135 C 0.04609 0.13323 0.74825 0.0
C1136 C 0.04594 0.12141 0.7634 0.0
C1137 C 0.02397 0.11244 0.81501 0.0
C1138 C 0.04256 0.11472 0.81994 0.0
C1139 C 0.03031 0.10619 0.83203 0.0
C1140 C 0.02203 0.10748 0.82471 0.0
C1141 C 0.04063 0.10991 0.82977 0.0
C1142 C 0.0343 0.11594 0.81261 0.0
C1143 C 0.01522 0.11409 0.80746 0.0
O1144 O 1.0017 0.13013 0.78223 0.0
O1145 O 1.00202 0.11329 0.77748 0.0
O1146 O 0.01483 0.10724 0.79954 0.0
O1147 O 0.0139 0.12399 0.80447 0.0
H1148 H 0.98997 0.11535 0.79706 0.0
H1149 H 0.9717 0.11433 0.8037 0.0
H1150 H 0.95995 0.12568 0.77364 0.0
H1151 H 0.97831 0.12649 0.767 0.0
H1152 H 0.03344 0.14498 0.74812 0.0
H1153 H 0.02552 0.13925 0.76487 0.0
H1154 H 0.05752 0.1206 0.75105 0.0
H1155 H 0.04959 0.11491 0.76768 0.0
H1156 H 0.05046 0.11752 0.81791 0.0
H1157 H 0.02858 0.10253 0.83957 0.0
H1158 H 0.01409 0.10472 0.82666 0.0
H1159 H 0.03596 0.11971 0.8051 0.0
C1160 C 0.8805 0.26187 0.48669 0.0
C1161 C 0.8845 0.2619 0.47632 0.0
C1162 C 0.87497 0.24547 0.47229 0.0
C1163 C 0.88179 0.25377 0.46921 0.0
C1164 C 0.87091 0.2455 0.48267 0.0
C1165 C 0.87368 0.25364 0.48983 0.0
U1166 U 0.89116 0.28951 0.49013 0.0
O1167 O 0.88582 0.30318 0.49973 0.0
O1168 O 0.90201 0.29687 0.50177 0.0
C1169 C 0.89477 0.30365 0.50514 0.0
C1170 C 0.88316 0.27067 0.49398 0.0
C1171 C 0.89364 0.30463 0.51667 0.0
C1172 C 0.89073 0.29698 0.53403 0.0
C1173 C 0.89174 0.29574 0.52304 0.0
C1174 C 0.89345 0.31599 0.53229 0.0
C1175 C 0.89153 0.30715 0.53876 0.0
C1176 C 0.8945 0.31473 0.52135 0.0
C1177 C 0.8993 0.30385 0.46492 0.0
C1178 C 0.9065 0.32181 0.46524 0.0
C1179 C 0.90176 0.31341 0.44852 0.0
C1180 C 0.89862 0.30426 0.45388 0.0
C1181 C 0.90566 0.32234 0.45414 0.0
C1182 C 0.90332 0.31264 0.4706 0.0
C1183 C 0.89532 0.29441 0.47041 0.0
O1184 O 0.8934 0.27284 0.4948 0.0
O1185 O 0.87724 0.27921 0.49285 0.0
O1186 O 0.88585 0.29552 0.47471 0.0
O1187 O 0.90219 0.28959 0.47661 0.0
H1188 H 0.88965 0.26828 0.47371 0.0
H1189 H 0.8849 0.25409 0.46123 0.0
H1190 H 0.86568 0.23918 0.48528 0.0
H1191 H 0.87047 0.25354 0.49778 0.0
H1192 H 0.88916 0.29003 0.5388 0.0
H1193 H 0.89102 0.28787 0.51952 0.0
H1194 H 0.89428 0.3239 0.53569 0.0
H1195 H 0.896 0.32167 0.51654 0.0
H1196 H 0.90957 0.32849 0.4698 0.0
H1197 H 0.90082 0.3136 0.44 0.0
H1198 H 0.89545 0.29756 0.4494 0.0
H1199 H 0.90387 0.31244 0.47916 0.0
C1200 C 0.50699 0.88116 0.76946 0.0
C1201 C 0.50715 0.8783 0.78017 0.0
C1202 C 0.4908 0.88827 0.78328 0.0
C1203 C 0.49911 0.88177 0.787 0.0
C1204 C 0.49061 0.89102 0.77249 0.0
C1205 C 0.49867 0.8875 0.76564 0.0
U1206 U 0.53483 0.87069 0.76707 0.0
O1207 O 0.54227 0.85914 0.75619 0.0
O1208 O 0.54844 0.87549 0.75728 0.0
C1209 C 0.54899 0.8662 0.75245 0.0
C1210 C 0.51581 0.87796 0.7625 0.0
C1211 C 0.54995 0.86661 0.74089 0.0
C1212 C 0.54278 0.8706 0.72347 0.0
C1213 C 0.54139 0.8697 0.73444 0.0
C1214 C 0.56122 0.86514 0.72539 0.0
C1215 C 0.55278 0.86849 0.71887 0.0
C1216 C 0.55981 0.86422 0.73629 0.0
C1217 C 0.54956 0.86507 0.79283 0.0
C1218 C 0.56797 0.85911 0.79304 0.0
C1219 C 0.55887 0.86302 0.80953 0.0
C1220 C 0.54966 0.86565 0.8039 0.0
C1221 C 0.56816 0.85976 0.80417 0.0
C1222 C 0.55874 0.86175 0.78741 0.0
C1223 C 0.53996 0.86835 0.78706 0.0
O1224 O 0.52429 0.8841 0.76317 0.0
O1225 O 0.51812 0.86775 0.76257 0.0
O1226 O 0.53523 0.86087 0.78141 0.0
O1227 O 0.54082 0.87743 0.78205 0.0
H1228 H 0.51355 0.87345 0.78327 0.0
H1229 H 0.49942 0.87934 0.7952 0.0
H1230 H 0.48439 0.8961 0.7694 0.0
H1231 H 0.49848 0.88986 0.75741 0.0
H1232 H 0.53616 0.87324 0.71865 0.0
H1233 H 0.53372 0.8716 0.7379 0.0
H1234 H 0.56896 0.8633 0.72206 0.0
H1235 H 0.56648 0.86179 0.74117 0.0
H1236 H 0.57495 0.85653 0.78868 0.0
H1237 H 0.55879 0.86379 0.81807 0.0
H1238 H 0.54266 0.86828 0.80819 0.0
H1239 H 0.55877 0.8613 0.77884 0.0
C1240 C 0.98399 0.13782 0.23531 0.0
C1241 C 0.97427 0.14288 0.23318 0.0
C1242 C 0.97702 0.14037 0.21425 0.0
C1243 C 0.97083 0.14417 0.22275 0.0
C1244 C 0.98679 0.13533 0.21643 0.0
C1245 C 0.99025 0.13408 0.2269 0.0
U1246 U 0.9772 0.13868 0.26427 0.0
O1247 O 0.98062 0.12769 0.27727 0.0
O1248 O 0.98625 0.14425 0.27823 0.0
C1249 C 0.98635 0.13476 0.28253 0.0
C1250 C 0.98737 0.13619 0.24631 0.0
C1251 C 0.99672 0.13114 0.28663 0.0
C1252 C 0.01186 0.11906 0.28642 0.0
C1253 C 1.00235 0.1227 0.28189 0.0
C1254 C 0.01036 0.13245 0.30027 0.0
C1255 C 0.01593 0.12386 0.2957 0.0
C1256 C 1.00084 0.13603 0.29579 0.0
C1257 C 0.94946 0.14738 0.27232 0.0
C1258 C 0.94432 0.14726 0.29083 0.0
C1259 C 0.93181 0.15332 0.27753 0.0
C1260 C 0.9394 0.15139 0.26965 0.0
C1261 C 0.93418 0.15126 0.28822 0.0
C1262 C 0.95189 0.14535 0.28295 0.0
C1263 C 0.95735 0.14526 0.26402 0.0
O1264 O 0.98802 0.1449 0.25213 0.0
O1265 O 0.98249 0.12835 0.25115 0.0
O1266 O 0.96006 0.13522 0.26288 0.0
O1267 O 0.96557 0.15177 0.26397 0.0
H1268 H 0.96929 0.14574 0.2396 0.0
H1269 H 0.96318 0.14791 0.22136 0.0
H1270 H 0.99176 0.13238 0.21005 0.0
H1271 H 0.99777 0.13013 0.22842 0.0
H1272 H 0.01603 0.1125 0.28267 0.0
H1273 H 0.99935 0.11884 0.27478 0.0
H1274 H 0.0132 0.13623 0.30749 0.0
H1275 H 0.9966 0.14252 0.29958 0.0
H1276 H 0.94635 0.14544 0.29896 0.0
H1277 H 0.92413 0.15652 0.27526 0.0
H1278 H 0.93742 0.15303 0.26147 0.0
H1279 H 0.95963 0.14222 0.28514 0.0
C1280 C 0.5085 0.13097 0.74312 0.0
C1281 C 0.50931 0.13319 0.73228 0.0
C1282 C 0.49289 0.12341 0.72877 0.0
C1283 C 0.50156 0.1295 0.7252 0.0
C1284 C 0.4921 0.12122 0.73967 0.0
C1285 C 0.49986 0.12498 0.74678 0.0
U1286 U 0.53647 0.14078 0.74661 0.0
O1287 O 0.54352 0.15351 0.75648 0.0
O1288 O 0.5491 0.13701 0.75803 0.0
C1289 C 0.54964 0.14684 0.76167 0.0
C1290 C 0.51692 0.13459 0.75043 0.0
C1291 C 0.54975 0.14807 0.77324 0.0
C1292 C 0.5434 0.14333 0.79074 0.0
C1293 C 0.5426 0.1425 0.7797 0.0
C1294 C 0.55827 0.1555 0.7889 0.0
C1295 C 0.55132 0.14976 0.79546 0.0
C1296 C 0.55748 0.15465 0.7779 0.0
C1297 C 0.55306 0.14318 0.72149 0.0
C1298 C 0.57059 0.15142 0.72125 0.0
C1299 C 0.56433 0.14128 0.70603 0.0
C1300 C 0.55476 0.13921 0.71125 0.0
C1301 C 0.57236 0.14739 0.71098 0.0
C1302 C 0.56102 0.14928 0.7265 0.0
C1303 C 0.54305 0.14066 0.72691 0.0
O1304 O 0.52516 0.12818 0.75108 0.0
O1305 O 0.51964 0.14466 0.74952 0.0
O1306 O 0.53805 0.14877 0.73127 0.0
O1307 O 0.5434 0.13225 0.733 0.0
H1308 H 0.51597 0.13776 0.72929 0.0
H1309 H 0.50234 0.13151 0.71691 0.0
H1310 H 0.4856 0.11645 0.74267 0.0
H1311 H 0.49917 0.12311 0.75511 0.0
H1312 H 0.53787 0.13888 0.79558 0.0
H1313 H 0.53653 0.13741 0.77621 0.0
H1314 H 0.56457 0.16039 0.79225 0.0
H1315 H 0.56308 0.15898 0.77303 0.0
H1316 H 0.57667 0.15607 0.72529 0.0
H1317 H 0.5654 0.1382 0.69807 0.0
H1318 H 0.54869 0.13448 0.70729 0.0
H1319 H 0.55986 0.15234 0.73446 0.0
C1320 C 0.13931 0.23887 0.97928 0.0
C1321 C 0.144 0.23682 0.9694 0.0
C1322 C 0.14232 0.21775 0.97218 0.0
C1323 C 0.14552 0.22637 0.9659 0.0
C1324 C 0.13765 0.21984 0.98211 0.0
C1325 C 0.13617 0.23034 0.98563 0.0
U1326 U 0.13832 0.26783 0.9723 0.0
O1327 O 0.12698 0.28055 0.97635 0.0
O1328 O 0.1439 0.28225 0.98067 0.0
C1329 C 0.13424 0.28625 0.98136 0.0
C1330 C 0.13736 0.2499 0.9827 0.0
C1331 C 0.13126 0.29064 0.99178 0.0
C1332 C 0.12101 0.2902 0.0081 0.0
C1333 C 0.12403 0.28545 0.99848 0.0
C1334 C 0.13259 0.30518 1.00449 0.0
C1335 C 0.12524 0.30014 0.01118 0.0
C1336 C 0.13555 0.30048 0.9949 0.0
C1337 C 0.14489 0.27573 0.94419 0.0
C1338 C 0.14169 0.29372 0.93807 0.0
C1339 C 0.15201 0.28144 0.92731 0.0
C1340 C 0.15069 0.27357 0.93496 0.0
C1341 C 0.14748 0.29159 0.92877 0.0
C1342 C 0.14044 0.28587 0.94574 0.0
C1343 C 0.14363 0.26746 0.95223 0.0
O1344 O 0.14583 0.25609 0.98275 0.0
O1345 O 0.12897 0.25437 0.97836 0.0
O1346 O 0.13382 0.26596 0.95556 0.0
O1347 O 0.15067 0.26777 0.95995 0.0
H1348 H 0.14637 0.24333 0.96434 0.0
H1349 H 0.14896 0.22505 0.95814 0.0
H1350 H 0.13517 0.21337 0.98715 0.0
H1351 H 0.1325 0.2318 0.99327 0.0
H1352 H 0.11539 0.28609 0.01312 0.0
H1353 H 0.12066 0.27781 0.99624 0.0
H1354 H 0.13587 0.31291 1.00654 0.0
H1355 H 0.1411 0.30462 0.98981 0.0
H1356 H 0.13824 0.3015 0.93949 0.0
H1357 H 0.15644 0.27955 0.92019 0.0
H1358 H 0.1542 0.26579 0.93367 0.0
H1359 H 0.13602 0.28771 0.95289 0.0
C1360 C 0.37947 0.73908 0.50617 0.0
C1361 C 0.37632 0.72836 0.50589 0.0
C1362 C 0.38616 0.72501 0.52215 0.0
C1363 C 0.37957 0.72142 0.51383 0.0
C1364 C 0.38919 0.73581 0.52249 0.0
C1365 C 0.38587 0.74279 0.51454 0.0
U1366 U 0.37149 0.74111 0.4778 0.0
O1367 O 0.35999 0.75117 0.46932 0.0
O1368 O 0.3769 0.75125 0.46481 0.0
C1369 C 0.36741 0.7554 0.46333 0.0
C1370 C 0.3767 0.74608 0.49731 0.0
C1371 C 0.36714 0.76701 0.46226 0.0
C1372 C 0.3707 0.78487 0.46895 0.0
C1373 C 0.37029 0.77385 0.47055 0.0
C1374 C 0.36456 0.78224 0.4509 0.0
C1375 C 0.36803 0.78915 0.45903 0.0
C1376 C 0.36413 0.77128 0.45251 0.0
C1377 C 0.36907 0.7146 0.4629 0.0
C1378 C 0.36342 0.71323 0.44452 0.0
C1379 C 0.37096 0.6979 0.45333 0.0
C1380 C 0.37215 0.7039 0.46261 0.0
C1381 C 0.36665 0.70251 0.44416 0.0
C1382 C 0.36467 0.71926 0.45382 0.0
C1383 C 0.37096 0.72085 0.47259 0.0
O1384 O 0.38362 0.74597 0.48951 0.0
O1385 O 0.36675 0.74542 0.49404 0.0
O1386 O 0.36269 0.72599 0.47644 0.0
O1387 O 0.37973 0.72657 0.47258 0.0
H1388 H 0.37145 0.72531 0.49944 0.0
H1389 H 0.37693 0.71321 0.51341 0.0
H1390 H 0.39434 0.73881 0.52873 0.0
H1391 H 0.38848 0.75101 0.5148 0.0
H1392 H 0.37345 0.79 0.47534 0.0
H1393 H 0.37265 0.77064 0.47813 0.0
H1394 H 0.3623 0.78531 0.44323 0.0
H1395 H 0.36164 0.76611 0.44604 0.0
H1396 H 0.36014 0.71701 0.43756 0.0
H1397 H 0.37338 0.68963 0.45334 0.0
H1398 H 0.37558 0.70021 0.46955 0.0
H1399 H 0.36233 0.72756 0.4539 0.0
C1400 C 0.74068 0.53101 0.8743 0.0
C1401 C 0.73892 0.54038 0.86861 0.0
C1402 C 0.71979 0.5387 0.8713 0.0
C1403 C 0.72858 0.54416 0.86709 0.0
C1404 C 0.72157 0.52915 0.87678 0.0
C1405 C 0.73195 0.52535 0.87829 0.0
U1406 U 0.76976 0.53788 0.87518 0.0
O1407 O 0.78215 0.53494 0.8872 0.0
O1408 O 0.78424 0.52905 0.87089 0.0
C1409 C 0.78795 0.5292 0.88064 0.0
C1410 C 0.75163 0.52761 0.87663 0.0
C1411 C 0.79195 0.51904 0.88478 0.0
C1412 C 0.79242 0.49969 0.88479 0.0
C1413 C 0.78791 0.5092 0.88123 0.0
C1414 C 0.80479 0.50974 0.89575 0.0
C1415 C 0.80099 0.49987 0.89201 0.0
C1416 C 0.80032 0.51923 0.89215 0.0
C1417 C 0.7779 0.5656 0.8666 0.0
C1418 C 0.79641 0.5712 0.86754 0.0
C1419 C 0.78295 0.58329 0.86091 0.0
C1420 C 0.77512 0.57553 0.86249 0.0
C1421 C 0.79368 0.58122 0.86343 0.0
C1422 C 0.78857 0.56346 0.86911 0.0
C1423 C 0.76962 0.55753 0.86831 0.0
O1424 O 0.75795 0.5268 0.86837 0.0
O1425 O 0.75608 0.53264 0.88468 0.0
O1426 O 0.76798 0.55504 0.87826 0.0
O1427 O 0.77009 0.54918 0.86199 0.0
H1428 H 0.74558 0.54489 0.86551 0.0
H1429 H 0.72748 0.55144 0.86269 0.0
H1430 H 0.71498 0.52481 0.88021 0.0
H1431 H 0.73319 0.51814 0.88277 0.0
H1432 H 0.78925 0.4922 0.88185 0.0
H1433 H 0.78139 0.50886 0.87559 0.0
H1434 H 0.81145 0.51016 0.90121 0.0
H1435 H 0.80356 0.52674 0.89497 0.0
H1436 H 0.80456 0.5694 0.8697 0.0
H1437 H 0.78061 0.59087 0.85762 0.0
H1438 H 0.76691 0.57728 0.86049 0.0
H1439 H 0.79083 0.55581 0.87232 0.0
C1440 C 0.74005 0.50711 0.13383 0.0
C1441 C 0.72923 0.50788 0.13654 0.0
C1442 C 0.72566 0.49084 0.12794 0.0
C1443 C 0.72212 0.4998 0.13368 0.0
C1444 C 0.73648 0.49015 0.12512 0.0
C1445 C 0.74364 0.49822 0.12808 0.0
U1446 U 0.74387 0.53584 0.14114 0.0
O1447 O 0.75362 0.54376 0.15341 0.0
O1448 O 0.75583 0.54775 0.13664 0.0
C1449 C 0.75924 0.54905 0.14643 0.0
C1450 C 0.74744 0.51576 0.13672 0.0
C1451 C 0.77085 0.54882 0.14793 0.0
C1452 C 0.78837 0.54155 0.14406 0.0
C1453 C 0.77727 0.54116 0.14291 0.0
C1454 C 0.78666 0.55705 0.1555 0.0
C1455 C 0.79319 0.54957 0.1503 0.0
C1456 C 0.7756 0.55667 0.15432 0.0
C1457 C 0.71901 0.5532 0.14189 0.0
C1458 C 0.71902 0.5712 0.14909 0.0
C1459 C 0.70378 0.56471 0.13909 0.0
C1460 C 0.70885 0.55491 0.13764 0.0
C1461 C 0.7088 0.57296 0.14484 0.0
C1462 C 0.72411 0.5614 0.14758 0.0
C1463 C 0.72422 0.54288 0.14018 0.0
O1464 O 0.74831 0.52332 0.12965 0.0
O1465 O 0.74643 0.51944 0.14645 0.0
O1466 O 0.72829 0.53843 0.14865 0.0
O1467 O 0.73054 0.54238 0.13191 0.0
H1468 H 0.72627 0.51476 0.14084 0.0
H1469 H 0.7138 0.50064 0.13581 0.0
H1470 H 0.73943 0.48332 0.12074 0.0
H1471 H 0.75195 0.49755 0.12586 0.0
H1472 H 0.79318 0.53563 0.14002 0.0
H1473 H 0.77371 0.53499 0.138 0.0
H1474 H 0.79011 0.56342 0.16022 0.0
H1475 H 0.77076 0.56265 0.15824 0.0
H1476 H 0.72311 0.57744 0.15347 0.0
H1477 H 0.69585 0.56577 0.13584 0.0
H1478 H 0.70482 0.54866 0.13322 0.0
H1479 H 0.73202 0.56023 0.15084 0.0
C1480 C 0.73991 0.50647 0.38032 0.0
C1481 C 0.72903 0.50577 0.37781 0.0
C1482 C 0.72571 0.52269 0.38674 0.0
C1483 C 0.72202 0.51381 0.38092 0.0
C1484 C 0.73665 0.52336 0.38925 0.0
C1485 C 0.74369 0.51531 0.38606 0.0
U1486 U 0.74322 0.47778 0.37271 0.0
O1487 O 0.75287 0.46977 0.36049 0.0
O1488 O 0.75489 0.46562 0.37724 0.0
C1489 C 0.7583 0.46429 0.36748 0.0
C1490 C 0.74716 0.49777 0.37733 0.0
C1491 C 0.76992 0.46419 0.36609 0.0
C1492 C 0.78762 0.47115 0.36991 0.0
C1493 C 0.77652 0.47186 0.37092 0.0
C1494 C 0.78554 0.4553 0.35902 0.0
C1495 C 0.79225 0.4628 0.36401 0.0
C1496 C 0.77449 0.456 0.36006 0.0
C1497 C 0.71791 0.46093 0.37176 0.0
C1498 C 0.71728 0.44303 0.36434 0.0
C1499 C 0.70248 0.44972 0.37476 0.0
C1500 C 0.70782 0.45938 0.3762 0.0
C1501 C 0.70714 0.44143 0.36881 0.0
C1502 C 0.72265 0.4527 0.36585 0.0
C1503 C 0.72341 0.47112 0.37352 0.0
O1504 O 0.74793 0.49012 0.38432 0.0
O1505 O 0.74605 0.49421 0.36756 0.0
O1506 O 0.7276 0.4755 0.36508 0.0
O1507 O 0.72973 0.47146 0.38182 0.0
H1508 H 0.72594 0.49896 0.37344 0.0
H1509 H 0.7137 0.5131 0.37868 0.0
H1510 H 0.73974 0.53001 0.39383 0.0
H1511 H 0.75205 0.51592 0.38816 0.0
H1512 H 0.79258 0.4771 0.37378 0.0
H1513 H 0.77311 0.47828 0.37558 0.0
H1514 H 0.78882 0.44867 0.35457 0.0
H1515 H 0.7695 0.45 0.3563 0.0
H1516 H 0.7211 0.43676 0.3598 0.0
H1517 H 0.69463 0.44878 0.37818 0.0
H1518 H 0.70406 0.46566 0.38079 0.0
H1519 H 0.73049 0.45374 0.36244 0.0
C1520 C 0.73804 0.48575 0.6405 0.0
C1521 C 0.73616 0.47589 0.64528 0.0
C1522 C 0.71701 0.47852 0.64366 0.0
C1523 C 0.72575 0.47233 0.64687 0.0
C1524 C 0.71894 0.48843 0.6389 0.0
C1525 C 0.72939 0.49202 0.63735 0.0
U1526 U 0.76709 0.47877 0.63927 0.0
O1527 O 0.77968 0.48264 0.62786 0.0
O1528 O 0.78153 0.4873 0.64459 0.0
C1529 C 0.78538 0.48789 0.63494 0.0
C1530 C 0.74903 0.4892 0.63845 0.0
C1531 C 0.78948 0.49839 0.6318 0.0
C1532 C 0.78901 0.51413 0.62072 0.0
C1533 C 0.7845 0.50448 0.62394 0.0
C1534 C 0.80334 0.51184 0.6334 0.0
C1535 C 0.79852 0.51787 0.62538 0.0
C1536 C 0.79888 0.50219 0.63655 0.0
C1537 C 0.77501 0.45039 0.64576 0.0
C1538 C 0.79284 0.44374 0.64232 0.0
C1539 C 0.78043 0.4332 0.65254 0.0
C1540 C 0.7727 0.44114 0.65143 0.0
C1541 C 0.79056 0.4344 0.64795 0.0
C1542 C 0.78514 0.45169 0.64127 0.0
C1543 C 0.76682 0.45864 0.6446 0.0
O1544 O 0.75533 0.48935 0.6468 0.0
O1545 O 0.75346 0.48477 0.63009 0.0
O1546 O 0.76522 0.46192 0.63487 0.0
O1547 O 0.76729 0.46646 0.65156 0.0
H1548 H 0.74277 0.47089 0.64766 0.0
H1549 H 0.72456 0.46458 0.65038 0.0
H1550 H 0.71237 0.49341 0.6364 0.0
H1551 H 0.73072 0.49963 0.6336 0.0
H1552 H 0.78507 0.51866 0.6146 0.0
H1553 H 0.7772 0.50175 0.62019 0.0
H1554 H 0.81074 0.51443 0.63704 0.0
H1555 H 0.80287 0.49759 0.6426 0.0
H1556 H 0.80062 0.44495 0.63883 0.0
H1557 H 0.77842 0.42607 0.65686 0.0
H1558 H 0.76492 0.44003 0.65496 0.0
H1559 H 0.78708 0.45884 0.63694 0.0
C1560 C 0.4914 0.1357 0.25634 0.0
C1561 C 0.4805 0.13342 0.25534 0.0
C1562 C 0.47691 0.14248 0.27206 0.0
C1563 C 0.47334 0.13672 0.26313 0.0
C1564 C 0.48787 0.14476 0.27305 0.0
C1565 C 0.49507 0.14139 0.26523 0.0
U1566 U 0.4947 0.12596 0.22853 0.0
O1567 O 0.50588 0.13005 0.21583 0.0
O1568 O 0.50473 0.11353 0.2213 0.0
C1569 C 0.50968 0.12031 0.21516 0.0
C1570 C 0.49877 0.13239 0.24791 0.0
C1571 C 0.52134 0.11934 0.21476 0.0
C1572 C 0.53909 0.12391 0.22111 0.0
C1573 C 0.52798 0.12471 0.22201 0.0
C1574 C 0.53693 0.11224 0.20587 0.0
C1575 C 0.54368 0.11769 0.21299 0.0
C1576 C 0.52588 0.11306 0.20676 0.0
C1577 C 0.46903 0.12236 0.21262 0.0
C1578 C 0.46906 0.1163 0.1943 0.0
C1579 C 0.45243 0.12111 0.20282 0.0
C1580 C 0.45795 0.12351 0.21216 0.0
C1581 C 0.45791 0.11751 0.19377 0.0
C1582 C 0.47458 0.11871 0.20367 0.0
C1583 C 0.4747 0.12522 0.22241 0.0
O1584 O 0.49814 0.12228 0.24517 0.0
O1585 O 0.49907 0.13879 0.23973 0.0
O1586 O 0.48059 0.13386 0.2219 0.0
O1587 O 0.47947 0.11733 0.22726 0.0
H1588 H 0.47751 0.12906 0.2485 0.0
H1589 H 0.465 0.13464 0.26219 0.0
H1590 H 0.49087 0.14927 0.27977 0.0
H1591 H 0.50345 0.1433 0.26608 0.0
H1592 H 0.54407 0.12814 0.22677 0.0
H1593 H 0.52459 0.12956 0.22828 0.0
H1594 H 0.54018 0.10754 0.19942 0.0
H1595 H 0.52085 0.1089 0.20108 0.0
H1596 H 0.47351 0.11345 0.18751 0.0
H1597 H 0.44388 0.1223 0.20263 0.0
H1598 H 0.45357 0.12637 0.21899 0.0
H1599 H 0.48317 0.11779 0.20391 0.0
C1600 C 0.98457 0.88896 0.73264 0.0
C1601 C 0.98243 0.89192 0.72217 0.0
C1602 C 0.96342 0.88939 0.72506 0.0
C1603 C 0.97196 0.89213 0.71841 0.0
C1604 C 0.9656 0.88659 0.73561 0.0
C1605 C 0.97611 0.88635 0.73937 0.0
U1606 U 0.01368 0.89286 0.72694 0.0
O1607 O 0.02771 0.88303 0.73029 0.0
O1608 O 0.0269 0.89941 0.73653 0.0
C1609 C 0.03224 0.89042 0.73623 0.0
C1610 C 0.99565 0.88843 0.73639 0.0
C1611 C 0.03688 0.88683 0.74628 0.0
C1612 C 0.03703 0.87528 0.76163 0.0
C1613 C 0.03187 0.87918 0.7526 0.0
C1614 C 0.05205 0.8869 0.75821 0.0
C1615 C 0.04728 0.87897 0.7644 0.0
C1616 C 0.04691 0.89076 0.74923 0.0
C1617 C 0.02193 0.90261 0.69985 0.0
C1618 C 0.03905 0.91079 0.69599 0.0
C1619 C 0.02975 0.90074 0.68235 0.0
C1620 C 0.02143 0.89875 0.68941 0.0
C1621 C 0.03873 0.90669 0.68558 0.0
C1622 C 0.03078 0.9087 0.70307 0.0
C1623 C 0.01349 0.89969 0.70739 0.0
O1624 O 1.00152 0.8812 0.7316 0.0
O1625 O 1.00048 0.89769 0.73737 0.0
O1626 O 0.01232 0.90602 0.71566 0.0
O1627 O 0.01313 0.88954 0.7098 0.0
H1628 H 0.98888 0.89401 0.71688 0.0
H1629 H 0.97054 0.89449 0.7103 0.0
H1630 H 0.9592 0.88436 0.7409 0.0
H1631 H 0.97765 0.88404 0.74747 0.0
H1632 H 0.03316 0.86917 0.76623 0.0
H1633 H 0.0241 0.87606 0.75044 0.0
H1634 H 0.05983 0.89007 0.76025 0.0
H1635 H 0.05087 0.8967 0.74446 0.0
H1636 H 0.04574 0.91554 0.69871 0.0
H1637 H 0.02929 0.89731 0.67446 0.0
H1638 H 0.01471 0.89396 0.68679 0.0
H1639 H 0.0314 0.91173 0.71111 0.0
C1640 C 0.52589 0.8886 0.28013 0.0
C1641 C 0.52824 0.89388 0.28968 0.0
C1642 C 0.54718 0.89057 0.2871 0.0
C1643 C 0.53878 0.89488 0.29313 0.0
C1644 C 0.54477 0.88527 0.27752 0.0
C1645 C 0.5342 0.88431 0.27405 0.0
U1646 U 0.49685 0.89091 0.28683 0.0
O1647 O 0.48304 0.89685 0.27787 0.0
O1648 O 0.48317 0.88042 0.28369 0.0
C1649 C 0.47813 0.8876 0.27808 0.0
C1650 C 0.51474 0.88734 0.27674 0.0
C1651 C 0.47356 0.88387 0.26799 0.0
C1652 C 0.47488 0.87439 0.25118 0.0
C1653 C 0.47965 0.87822 0.26052 0.0
C1654 C 0.45801 0.882 0.25668 0.0
C1655 C 0.46397 0.87616 0.24922 0.0
C1656 C 0.46276 0.88579 0.26597 0.0
C1657 C 0.48939 0.90048 0.3145 0.0
C1658 C 0.4727 0.90884 0.31966 0.0
C1659 C 0.48234 0.898 0.33222 0.0
C1660 C 0.49026 0.89614 0.32466 0.0
C1661 C 0.47341 0.90431 0.32979 0.0
C1662 C 0.48056 0.9069 0.31208 0.0
C1663 C 0.49751 0.89784 0.30647 0.0
O1664 O 0.50944 0.87985 0.28168 0.0
O1665 O 0.50936 0.89628 0.27594 0.0
O1666 O 0.49807 0.90418 0.29825 0.0
O1667 O 0.49814 0.8877 0.30389 0.0
H1668 H 0.5219 0.89715 0.29453 0.0
H1669 H 0.54033 0.89884 0.30063 0.0
H1670 H 0.55107 0.88193 0.27268 0.0
H1671 H 0.5325 0.88018 0.26667 0.0
H1672 H 0.47967 0.86988 0.24562 0.0
H1673 H 0.48802 0.87667 0.26197 0.0
H1674 H 0.44965 0.88369 0.25533 0.0
H1675 H 0.45797 0.89019 0.27164 0.0
H1676 H 0.46603 0.91388 0.31756 0.0
H1677 H 0.48309 0.89423 0.33986 0.0
H1678 H 0.49697 0.89113 0.32667 0.0
H1679 H 0.47966 0.91032 0.30429 0.0
C1680 C 0.87947 0.75365 0.02319 0.0
C1681 C 0.87338 0.75176 0.0323 0.0
C1682 C 0.87273 0.77076 0.03612 0.0
C1683 C 0.86998 0.76025 0.03867 0.0
C1684 C 0.8788 0.77263 0.02697 0.0
C1685 C 0.88211 0.76414 0.02054 0.0
U1686 U 0.89017 0.72563 0.02179 0.0
O1687 O 0.88678 0.71225 0.011 0.0
O1688 O 0.90311 0.71846 0.01238 0.0
C1689 C 0.8966 0.71189 0.00741 0.0
C1690 C 0.88357 0.74471 0.01676 0.0
C1691 C 0.89765 0.71142 0.99584 0.0
C1692 C 0.89309 0.71775 0.97828 0.0
C1693 C 0.89247 0.71878 0.98931 0.0
C1694 C 0.90429 0.70218 0.98026 0.0
C1695 C 0.89895 0.70938 0.97364 0.0
C1696 C 0.90364 0.7032 0.99126 0.0
C1697 C 0.89279 0.71053 0.0477 0.0
C1698 C 0.90116 0.69314 0.0488 0.0
C1699 C 0.891 0.70006 0.06363 0.0
C1700 C 0.88887 0.70932 0.05798 0.0
C1701 C 0.89711 0.69184 0.05908 0.0
C1702 C 0.89897 0.7024 0.04312 0.0
C1703 C 0.89008 0.72016 0.04178 0.0
O1704 O 0.89368 0.74243 0.01831 0.0
O1705 O 0.87742 0.73623 0.01627 0.0
O1706 O 0.88169 0.71929 0.03558 0.0
O1707 O 0.89812 0.72509 0.0373 0.0
H1708 H 0.87138 0.74372 0.03461 0.0
H1709 H 0.86546 0.75855 0.04575 0.0
H1710 H 0.88099 0.78066 0.02479 0.0
H1711 H 0.88685 0.76574 0.01357 0.0
H1712 H 0.88898 0.72348 0.9734 0.0
H1713 H 0.88784 0.72521 0.99275 0.0
H1714 H 0.90872 0.69555 0.97696 0.0
H1715 H 0.90765 0.69743 0.99619 0.0
H1716 H 0.90581 0.6869 0.04506 0.0
H1717 H 0.88788 0.69935 0.07158 0.0
H1718 H 0.88408 0.71552 0.06162 0.0
H1719 H 0.902 0.70319 0.03514 0.0
C1720 C 0.62021 0.28399 0.48994 0.0
C1721 C 0.61706 0.29447 0.48784 0.0
C1722 C 0.61944 0.29136 0.46894 0.0
C1723 C 0.61667 0.29812 0.47744 0.0
C1724 C 0.62238 0.28078 0.47109 0.0
C1725 C 0.62278 0.27714 0.48152 0.0
U1726 U 0.61872 0.29029 0.51912 0.0
O1727 O 0.61276 0.28106 0.53263 0.0
O1728 O 0.62947 0.28636 0.53225 0.0
C1729 C 0.62221 0.28069 0.53716 0.0
C1730 C 0.62123 0.28041 0.50092 0.0
C1731 C 0.62561 0.2702 0.54099 0.0
C1732 C 0.63694 0.25454 0.53998 0.0
C1733 C 0.63342 0.26417 0.53572 0.0
C1734 C 0.62467 0.25674 0.55462 0.0
C1735 C 0.63264 0.25076 0.54952 0.0
C1736 C 0.62121 0.26637 0.5504 0.0
C1737 C 0.61121 0.31803 0.52812 0.0
C1738 C 0.61348 0.32321 0.54654 0.0
C1739 C 0.60516 0.33537 0.53424 0.0
C1740 C 0.60637 0.32786 0.52609 0.0
C1741 C 0.60883 0.33317 0.54453 0.0
C1742 C 0.61463 0.3157 0.53841 0.0
C1743 C 0.61287 0.31033 0.51948 0.0
O1744 O 0.62914 0.28481 0.50623 0.0
O1745 O 0.61229 0.28012 0.50632 0.0
O1746 O 0.60603 0.3024 0.51909 0.0
O1747 O 0.62281 0.30726 0.51821 0.0
H1748 H 0.61503 0.29987 0.49427 0.0
H1749 H 0.61422 0.30625 0.47604 0.0
H1750 H 0.62466 0.27541 0.46473 0.0
H1751 H 0.62527 0.26904 0.48303 0.0
H1752 H 0.64302 0.25005 0.53582 0.0
H1753 H 0.63689 0.26696 0.5284 0.0
H1754 H 0.6213 0.25413 0.56204 0.0
H1755 H 0.6152 0.27094 0.5546 0.0
H1756 H 0.61625 0.32123 0.55442 0.0
H1757 H 0.60161 0.343 0.53244 0.0
H1758 H 0.60367 0.32977 0.51817 0.0
H1759 H 0.61831 0.3081 0.54013 0.0
C1760 C 0.25552 0.49482 0.13315 0.0
C1761 C 0.25556 0.48434 0.1292 0.0
C1762 C 0.27202 0.48069 0.13871 0.0
C1763 C 0.26374 0.47737 0.13191 0.0
C1764 C 0.2719 0.49116 0.14277 0.0
C1765 C 0.26372 0.49818 0.13997 0.0
U1766 U 0.22739 0.49776 0.12367 0.0
O1767 O 0.21425 0.50823 0.1286 0.0
O1768 O 0.21987 0.50842 0.11213 0.0
C1769 C 0.21355 0.51273 0.11925 0.0
C1770 C 0.2467 0.502 0.13044 0.0
C1771 C 0.21302 0.52441 0.1192 0.0
C1772 C 0.21905 0.54183 0.12523 0.0
C1773 C 0.21993 0.53072 0.12537 0.0
C1774 C 0.2045 0.54036 0.11263 0.0
C1775 C 0.21131 0.54677 0.11885 0.0
C1776 C 0.20535 0.5293 0.11281 0.0
C1777 C 0.21222 0.47184 0.11776 0.0
C1778 C 0.19334 0.46776 0.11942 0.0
C1779 C 0.20436 0.45738 0.10748 0.0
C1780 C 0.2132 0.46358 0.1103 0.0
C1781 C 0.19435 0.45927 0.11215 0.0
C1782 C 0.20216 0.47401 0.12217 0.0
C1783 C 0.22183 0.47777 0.12112 0.0
O1784 O 0.24404 0.50205 0.12036 0.0
O1785 O 0.23843 0.50146 0.13679 0.0
O1786 O 0.22125 0.48286 0.13025 0.0
O1787 O 0.22664 0.48326 0.11372 0.0
H1788 H 0.2492 0.48153 0.12405 0.0
H1789 H 0.26351 0.4693 0.1288 0.0
H1790 H 0.27819 0.49393 0.148 0.0
H1791 H 0.26376 0.50622 0.14317 0.0
H1792 H 0.22445 0.54656 0.13005 0.0
H1793 H 0.22595 0.52706 0.13031 0.0
H1794 H 0.19834 0.54389 0.10777 0.0
H1795 H 0.19995 0.52453 0.10801 0.0
H1796 H 0.1858 0.46938 0.12327 0.0
H1797 H 0.2054 0.45104 0.10171 0.0
H1798 H 0.22087 0.46181 0.10676 0.0
H1799 H 0.20115 0.48039 0.12791 0.0
C1800 C 0.28272 0.52793 0.88685 0.0
C1801 C 0.29343 0.53006 0.88929 0.0
C1802 C 0.29045 0.54901 0.88673 0.0
C1803 C 0.29726 0.5405 0.88923 0.0
C1804 C 0.27967 0.54684 0.88442 0.0
C1805 C 0.27584 0.53636 0.88446 0.0
U1806 U 0.28846 0.49884 0.89057 0.0
O1807 O 0.27917 0.48598 0.89791 0.0
O1808 O 0.28401 0.48469 0.88124 0.0
C1809 C 0.27848 0.48052 0.88901 0.0
C1810 C 0.27883 0.51691 0.88668 0.0
C1811 C 0.26784 0.47643 0.8862 0.0
C1812 C 0.25158 0.47701 0.8757 0.0
C1813 C 0.26135 0.48153 0.87872 0.0
C1814 C 0.25458 0.46246 0.88781 0.0
C1815 C 0.24813 0.46737 0.88015 0.0
C1816 C 0.26434 0.46694 0.89078 0.0
C1817 C 0.31655 0.49062 0.8984 0.0
C1818 C 0.3214 0.47396 0.90677 0.0
C1819 C 0.33416 0.48305 0.89567 0.0
C1820 C 0.32673 0.49113 0.89387 0.0
C1821 C 0.33157 0.47433 0.90209 0.0
C1822 C 0.31395 0.48199 0.90489 0.0
C1823 C 0.30867 0.49893 0.89591 0.0
O1824 O 0.28299 0.51085 0.87922 0.0
O1825 O 0.27856 0.51227 0.89597 0.0
O1826 O 0.30091 0.50028 0.90278 0.0
O1827 O 0.30539 0.49903 0.88602 0.0
H1828 H 0.29883 0.52363 0.8912 0.0
H1829 H 0.30556 0.54191 0.89121 0.0
H1830 H 0.27426 0.55321 0.88237 0.0
H1831 H 0.26755 0.53484 0.88254 0.0
H1832 H 0.24673 0.48103 0.86986 0.0
H1833 H 0.26389 0.4889 0.87513 0.0
H1834 H 0.25224 0.45496 0.89129 0.0
H1835 H 0.26927 0.46288 0.89653 0.0
H1836 H 0.31918 0.46746 0.91189 0.0
H1837 H 0.34183 0.48353 0.89178 0.0
H1838 H 0.32887 0.49769 0.88879 0.0
H1839 H 0.30612 0.48137 0.90844 0.0
C1840 C 0.28329 0.48527 0.62464 0.0
C1841 C 0.29295 0.48267 0.61969 0.0
C1842 C 0.29029 0.46397 0.62383 0.0
C1843 C 0.2964 0.47211 0.61926 0.0
C1844 C 0.28057 0.46662 0.62874 0.0
C1845 C 0.2771 0.4772 0.62912 0.0
U1846 U 0.28985 0.51447 0.62226 0.0
O1847 O 0.28069 0.52795 0.61594 0.0
O1848 O 0.28603 0.52813 0.63254 0.0
C1849 C 0.28041 0.53288 0.62516 0.0
C1850 C 0.27989 0.49643 0.62549 0.0
C1851 C 0.26997 0.53721 0.62832 0.0
C1852 C 0.25451 0.53776 0.63991 0.0
C1853 C 0.2641 0.53299 0.63677 0.0
C1854 C 0.25646 0.55081 0.62603 0.0
C1855 C 0.25062 0.54676 0.63459 0.0
C1856 C 0.26604 0.54609 0.62296 0.0
C1857 C 0.31737 0.52301 0.61388 0.0
C1858 C 0.32237 0.54163 0.61533 0.0
C1859 C 0.3344 0.529 0.60702 0.0
C1860 C 0.32704 0.52082 0.60879 0.0
C1861 C 0.33219 0.53947 0.61041 0.0
C1862 C 0.31502 0.53348 0.61702 0.0
C1863 C 0.30978 0.51439 0.61604 0.0
O1864 O 0.28458 0.50191 0.6331 0.0
O1865 O 0.27939 0.50159 0.61649 0.0
O1866 O 0.30169 0.51371 0.60943 0.0
O1867 O 0.30693 0.51358 0.62601 0.0
H1868 H 0.29789 0.48884 0.61628 0.0
H1869 H 0.304 0.47036 0.61557 0.0
H1870 H 0.27564 0.46052 0.63225 0.0
H1871 H 0.26963 0.47909 0.633 0.0
H1872 H 0.25014 0.53441 0.64647 0.0
H1873 H 0.26697 0.5261 0.64101 0.0
H1874 H 0.25378 0.55782 0.62188 0.0
H1875 H 0.27048 0.5495 0.61646 0.0
H1876 H 0.32038 0.54964 0.61789 0.0
H1877 H 0.34192 0.5271 0.60327 0.0
H1878 H 0.32896 0.51278 0.60629 0.0
H1879 H 0.30752 0.53532 0.62088 0.0
C1880 C 0.25304 0.51658 0.37876 0.0
C1881 C 0.25402 0.52668 0.3835 0.0
C1882 C 0.26987 0.53028 0.37308 0.0
C1883 C 0.26238 0.53343 0.38073 0.0
C1884 C 0.26887 0.52016 0.36829 0.0
C1885 C 0.26051 0.51335 0.37114 0.0
U1886 U 0.22485 0.515 0.38818 0.0
O1887 O 0.21099 0.50581 0.38256 0.0
O1888 O 0.2165 0.50423 0.399 0.0
C1889 C 0.20992 0.50081 0.39159 0.0
C1890 C 0.24383 0.50981 0.38126 0.0
C1891 C 0.20865 0.48922 0.39077 0.0
C1892 C 0.21581 0.47154 0.3875 0.0
C1893 C 0.2173 0.48256 0.38835 0.0
C1894 C 0.19705 0.47381 0.39148 0.0
C1895 C 0.20564 0.46705 0.389 0.0
C1896 C 0.19855 0.48478 0.39235 0.0
C1897 C 0.21137 0.54152 0.39447 0.0
C1898 C 0.19345 0.54273 0.40165 0.0
C1899 C 0.20195 0.55835 0.3943 0.0
C1900 C 0.21105 0.55236 0.39207 0.0
C1901 C 0.193 0.55357 0.399 0.0
C1902 C 0.20255 0.53672 0.39934 0.0
C1903 C 0.2207 0.53525 0.39128 0.0
O1904 O 0.2412 0.50954 0.39134 0.0
O1905 O 0.23559 0.51105 0.37495 0.0
O1906 O 0.21983 0.5305 0.38201 0.0
O1907 O 0.2249 0.52914 0.39859 0.0
H1908 H 0.24821 0.52943 0.38925 0.0
H1909 H 0.26282 0.54124 0.38442 0.0
H1910 H 0.27455 0.51751 0.36239 0.0
H1911 H 0.25981 0.50563 0.36732 0.0
H1912 H 0.22256 0.46655 0.3855 0.0
H1913 H 0.22516 0.4859 0.38708 0.0
H1914 H 0.18915 0.47059 0.39285 0.0
H1915 H 0.1918 0.48983 0.39426 0.0
H1916 H 0.18664 0.53883 0.40519 0.0
H1917 H 0.20188 0.56671 0.39229 0.0
H1918 H 0.21778 0.55617 0.38829 0.0
H1919 H 0.20265 0.52831 0.40117 0.0
C1920 C 0.12858 0.40385 0.11542 0.0
C1921 C 0.13158 0.40907 0.10609 0.0
C1922 C 0.12033 0.39639 0.11532 0.0
C1923 C 0.11477 0.39402 0.1059 0.0
C1924 C 0.11756 0.39945 0.09662 0.0
C1925 C 0.12588 0.4069 0.09671 0.0
C1926 C 0.10645 0.38555 0.10577 0.0
C1927 C 0.09962 0.38429 0.11444 0.0
C1928 C 0.09262 0.37556 0.11503 0.0
C1929 C 0.09214 0.36827 0.10652 0.0
C1930 C 0.09871 0.36959 0.09761 0.0
C1931 C 0.10585 0.37822 0.09734 0.0
C1932 C 0.09878 0.36166 0.08882 0.0
C1933 C 0.09931 0.3507 0.0909 0.0
C1934 C 0.09928 0.36508 0.07827 0.0
C1935 C 0.10086 0.35778 0.07004 0.0
C1936 C 0.102 0.34687 0.07216 0.0
C1937 C 0.08631 0.37391 0.12484 0.0
C1938 C 0.09107 0.3758 0.13477 0.0
C1939 C 0.07557 0.37066 0.12444 0.0
C1940 C 0.06966 0.36963 0.13378 0.0
C1941 C 0.07438 0.37189 0.14367 0.0
C1942 C 0.08518 0.37485 0.14404 0.0
C1943 C 0.10091 0.34337 0.08264 0.0
H1944 H 0.13267 0.40546 0.12283 0.0
H1945 H 0.11852 0.39227 0.12259 0.0
H1946 H 0.11337 0.3979 0.08925 0.0
H1947 H 0.12802 0.41073 0.08937 0.0
H1948 H 0.09983 0.39008 0.12084 0.0
H1949 H 0.11134 0.37892 0.09077 0.0
H1950 H 0.08684 0.36147 0.10691 0.0
H1951 H 0.09903 0.34783 0.09896 0.0
H1952 H 0.09871 0.37346 0.07642 0.0
H1953 H 0.10142 0.3607 0.06202 0.0
H1954 H 0.0994 0.37802 0.13539 0.0
H1955 H 0.07168 0.36917 0.1169 0.0
H1956 H 0.10181 0.33502 0.08453 0.0
H1957 H 0.08911 0.37637 0.15156 0.0
H1958 H 0.06135 0.36733 0.13327 0.0
C1959 C 0.88577 0.90687 0.41781 0.0
C1960 C 0.8804 0.90949 0.4084 0.0
C1961 C 0.89436 0.89976 0.41763 0.0
C1962 C 0.89776 0.89513 0.40804 0.0
C1963 C 0.89252 0.89796 0.39862 0.0
C1964 C 0.88401 0.90509 0.39879 0.0
C1965 C 0.90634 0.88695 0.40778 0.0
C1966 C 0.90685 0.87904 0.41552 0.0
C1967 C 0.91412 0.87056 0.41462 0.0
C1968 C 0.92087 0.86997 0.40575 0.0
C1969 C 0.92052 0.87789 0.39794 0.0
C1970 C 0.91347 0.88649 0.39924 0.0
C1971 C 0.92694 0.87699 0.38806 0.0
C1972 C 0.93751 0.8732 0.38815 0.0
C1973 C 0.92242 0.88005 0.37834 0.0
C1974 C 0.92838 0.87975 0.36907 0.0
C1975 C 0.93898 0.8762 0.36918 0.0
C1976 C 0.91403 0.86204 0.42268 0.0
C1977 C 0.91356 0.86469 0.4335 0.0
C1978 C 0.91358 0.85126 0.41963 0.0
C1979 C 0.91221 0.84333 0.42723 0.0
C1980 C 0.91136 0.84603 0.43803 0.0
C1981 C 0.91226 0.85678 0.44109 0.0
C1982 C 0.94346 0.87275 0.37876 0.0
H1983 H 0.88316 0.91009 0.42536 0.0
H1984 H 0.89828 0.89784 0.42502 0.0
H1985 H 0.89478 0.89445 0.39109 0.0
H1986 H 0.88019 0.90707 0.39137 0.0
H1987 H 0.9012 0.87914 0.422 0.0
H1988 H 0.91337 0.8928 0.39345 0.0
H1989 H 0.9262 0.86325 0.40483 0.0
H1990 H 0.94124 0.87079 0.39548 0.0
H1991 H 0.91421 0.88267 0.37787 0.0
H1992 H 0.92465 0.88221 0.36174 0.0
H1993 H 0.91395 0.87293 0.43608 0.0
H1994 H 0.91384 0.84899 0.41134 0.0
H1995 H 0.95162 0.86994 0.37902 0.0
H1996 H 0.91154 0.85914 0.44932 0.0
H1997 H 0.91164 0.83511 0.42464 0.0
C1998 C 0.38963 0.60369 0.59586 0.0
C1999 C 0.38434 0.60038 0.60508 0.0
C2000 C 0.39623 0.6127 0.59608 0.0
C2001 C 0.39766 0.61854 0.60553 0.0
C2002 C 0.39218 0.61534 0.61465 0.0
C2003 C 0.3856 0.6064 0.61443 0.0
C2004 C 0.40491 0.62789 0.60604 0.0
C2005 C 0.40463 0.63575 0.59821 0.0
C2006 C 0.41092 0.64501 0.59921 0.0
C2007 C 0.41769 0.64622 0.60805 0.0
C2008 C 0.41806 0.6384 0.61591 0.0
C2009 C 0.41174 0.62923 0.61477 0.0
C2010 C 0.42455 0.63996 0.62564 0.0
C2011 C 0.4352 0.6434 0.62513 0.0
C2012 C 0.42005 0.63784 0.63557 0.0
C2013 C 0.42609 0.63899 0.64479 0.0
C2014 C 0.43679 0.64229 0.64432 0.0
C2015 C 0.40985 0.6537 0.59138 0.0
C2016 C 0.4094 0.65142 0.58048 0.0
C2017 C 0.40885 0.66433 0.59481 0.0
C2018 C 0.40722 0.67247 0.58752 0.0
C2019 C 0.40662 0.67017 0.57662 0.0
C2020 C 0.40784 0.65957 0.57317 0.0
C2021 C 0.4413 0.64449 0.63439 0.0
H2022 H 0.38886 0.59919 0.58854 0.0
H2023 H 0.40039 0.61496 0.58894 0.0
H2024 H 0.39292 0.61982 0.62199 0.0
H2025 H 0.38143 0.60425 0.6216 0.0
H2026 H 0.39913 0.63492 0.59163 0.0
H2027 H 0.41212 0.62311 0.62075 0.0
H2028 H 0.42246 0.65337 0.60895 0.0
H2029 H 0.43887 0.64505 0.61756 0.0
H2030 H 0.41183 0.6353 0.63623 0.0
H2031 H 0.42242 0.63711 0.6523 0.0
H2032 H 0.41021 0.64331 0.5776 0.0
H2033 H 0.40904 0.66634 0.60317 0.0
H2034 H 0.44951 0.6471 0.63379 0.0
H2035 H 0.40733 0.65753 0.56483 0.0
H2036 H 0.40641 0.68057 0.59041 0.0
C2037 C 0.62893 0.10812 0.8992 0.0
C2038 C 0.62966 0.10134 0.90795 0.0
C2039 C 0.6218 0.11664 0.89923 0.0
C2040 C 0.61523 0.11859 0.90804 0.0
C2041 C 0.61592 0.11179 0.91679 0.0
C2042 C 0.62303 0.10322 0.91673 0.0
C2043 C 0.60783 0.12782 0.90809 0.0
C2044 C 0.60189 0.13028 0.89901 0.0
C2045 C 0.59534 0.13933 0.89875 0.0
C2046 C 0.59469 0.14595 0.90774 0.0
C2047 C 0.6006 0.14361 0.91691 0.0
C2048 C 0.60707 0.13448 0.91704 0.0
C2049 C 0.60061 0.15098 0.92616 0.0
C2050 C 0.60204 0.16198 0.92476 0.0
C2051 C 0.59996 0.14699 0.93648 0.0
C2052 C 0.60109 0.15377 0.94523 0.0
C2053 C 0.603 0.16471 0.94386 0.0
C2054 C 0.58953 0.14198 0.88889 0.0
C2055 C 0.59488 0.14171 0.87914 0.0
C2056 C 0.57862 0.14455 0.88908 0.0
C2057 C 0.57313 0.14657 0.87964 0.0
C2058 C 0.5785 0.14623 0.86988 0.0
C2059 C 0.58944 0.14385 0.86975 0.0
C2060 C 0.60324 0.16877 0.93352 0.0
H2061 H 0.63384 0.10681 0.89226 0.0
H2062 H 0.62154 0.1218 0.89241 0.0
H2063 H 0.61091 0.11306 0.92366 0.0
H2064 H 0.62346 0.09817 0.92362 0.0
H2065 H 0.60232 0.12509 0.89212 0.0
H2066 H 0.61192 0.13283 0.92395 0.0
H2067 H 0.58976 0.15303 0.90754 0.0
H2068 H 0.60269 0.16527 0.91689 0.0
H2069 H 0.59871 0.13856 0.93779 0.0
H2070 H 0.60061 0.15041 0.95308 0.0
H2071 H 0.60331 0.13985 0.87877 0.0
H2072 H 0.57431 0.14476 0.8965 0.0
H2073 H 0.6048 0.17713 0.93217 0.0
H2074 H 0.59377 0.14341 0.86235 0.0
H2075 H 0.56471 0.14844 0.87997 0.0
C2076 C 0.12415 0.60429 0.41707 0.0
C2077 C 0.12989 0.60213 0.40774 0.0
C2078 C 0.11669 0.61257 0.41741 0.0
C2079 C 0.11485 0.61886 0.40843 0.0
C2080 C 0.12062 0.61669 0.39914 0.0
C2081 C 0.12803 0.60844 0.3988 0.0
C2082 C 0.10712 0.62782 0.40871 0.0
C2083 C 0.10678 0.63484 0.41742 0.0
C2084 C 0.10013 0.64386 0.41731 0.0
C2085 C 0.09366 0.64573 0.4084 0.0
C2086 C 0.09395 0.63879 0.39963 0.0
C2087 C 0.10058 0.62981 0.39992 0.0
C2088 C 0.08795 0.64122 0.38983 0.0
C2089 C 0.07706 0.6438 0.39011 0.0
C2090 C 0.0932 0.64084 0.38002 0.0
C2091 C 0.08768 0.64292 0.37068 0.0
C2092 C 0.07676 0.64536 0.3709 0.0
C2093 C 0.10064 0.6517 0.42618 0.0
C2094 C 0.10107 0.64824 0.43673 0.0
C2095 C 0.10139 0.66266 0.42414 0.0
C2096 C 0.10289 0.66996 0.43243 0.0
C2097 C 0.10364 0.66647 0.44295 0.0
C2098 C 0.10254 0.65554 0.44501 0.0
C2099 C 0.07148 0.64577 0.3807 0.0
H2100 H 0.12536 0.59952 0.42407 0.0
H2101 H 0.11231 0.614 0.42466 0.0
H2102 H 0.11959 0.62153 0.39215 0.0
H2103 H 0.13249 0.60715 0.39156 0.0
H2104 H 0.11211 0.6336 0.42406 0.0
H2105 H 0.1007 0.62439 0.39319 0.0
H2106 H 0.08864 0.65274 0.40816 0.0
H2107 H 0.07283 0.64411 0.39758 0.0
H2108 H 0.10162 0.63897 0.37958 0.0
H2109 H 0.09194 0.64243 0.36324 0.0
H2110 H 0.10044 0.63985 0.43855 0.0
H2111 H 0.10119 0.66557 0.41609 0.0
H2112 H 0.06306 0.64767 0.38109 0.0
H2113 H 0.10317 0.65257 0.45302 0.0
H2114 H 0.1036 0.67833 0.43059 0.0
C2115 C 0.62951 0.90445 0.61244 0.0
C2116 C 0.63257 0.90911 0.60284 0.0
C2117 C 0.62109 0.8972 0.61275 0.0
C2118 C 0.61543 0.89447 0.60349 0.0
C2119 C 0.61832 0.89931 0.59391 0.0
C2120 C 0.6268 0.90656 0.59359 0.0
C2121 C 0.60689 0.88624 0.60388 0.0
C2122 C 0.6001 0.8857 0.61267 0.0
C2123 C 0.59304 0.87711 0.61398 0.0
C2124 C 0.59238 0.86926 0.60598 0.0
C2125 C 0.59883 0.8699 0.5969 0.0
C2126 C 0.60608 0.87839 0.59595 0.0
C2127 C 0.59863 0.86139 0.58867 0.0
C2128 C 0.59901 0.8506 0.5915 0.0
C2129 C 0.59886 0.86405 0.57789 0.0
C2130 C 0.59985 0.85614 0.57012 0.0
C2131 C 0.60068 0.84537 0.57295 0.0
C2132 C 0.58696 0.87614 0.62404 0.0
C2133 C 0.59186 0.87897 0.63369 0.0
C2134 C 0.57632 0.87252 0.62416 0.0
C2135 C 0.57068 0.87201 0.63372 0.0
C2136 C 0.57554 0.87522 0.64327 0.0
C2137 C 0.58621 0.87858 0.64315 0.0
C2138 C 0.60006 0.84267 0.58372 0.0
H2139 H 0.63366 0.90636 0.61974 0.0
H2140 H 0.61922 0.89353 0.62025 0.0
H2141 H 0.61406 0.89745 0.58666 0.0
H2142 H 0.62899 0.90997 0.58606 0.0
H2143 H 0.60045 0.89194 0.61864 0.0
H2144 H 0.61149 0.87856 0.58928 0.0
H2145 H 0.58704 0.86255 0.60691 0.0
H2146 H 0.59893 0.84831 0.59974 0.0
H2147 H 0.5985 0.8723 0.57547 0.0
H2148 H 0.6004 0.8585 0.56191 0.0
H2149 H 0.60013 0.88145 0.63397 0.0
H2150 H 0.5723 0.8703 0.61687 0.0
H2151 H 0.60058 0.83444 0.58614 0.0
H2152 H 0.59025 0.88084 0.65043 0.0
H2153 H 0.56246 0.86936 0.63363 0.0
C2154 C 0.38675 0.40809 0.89692 0.0
C2155 C 0.38467 0.41388 0.90627 0.0
C2156 C 0.39391 0.3996 0.89692 0.0
C2157 C 0.3993 0.39673 0.90624 0.0
C2158 C 0.39736 0.40261 0.91556 0.0
C2159 C 0.39011 0.41107 0.91559 0.0
C2160 C 0.40671 0.38748 0.90623 0.0
C2161 C 0.41325 0.38538 0.89745 0.0
C2162 C 0.41971 0.37628 0.89704 0.0
C2163 C 0.41987 0.36931 0.90568 0.0
C2164 C 0.41342 0.37129 0.91458 0.0
C2165 C 0.40689 0.38039 0.91477 0.0
C2166 C 0.41286 0.36357 0.92341 0.0
C2167 C 0.41203 0.35258 0.92134 0.0
C2168 C 0.41237 0.36721 0.93395 0.0
C2169 C 0.4106 0.36009 0.94219 0.0
C2170 C 0.40927 0.34916 0.94009 0.0
C2171 C 0.42577 0.37381 0.88726 0.0
C2172 C 0.42061 0.37425 0.87739 0.0
C2173 C 0.43664 0.37113 0.88764 0.0
C2174 C 0.44229 0.36915 0.87827 0.0
C2175 C 0.43709 0.36961 0.8684 0.0
C2176 C 0.42619 0.37214 0.86808 0.0
C2177 C 0.41025 0.34545 0.9296 0.0
H2178 H 0.38285 0.41013 0.88955 0.0
H2179 H 0.39507 0.39517 0.88961 0.0
H2180 H 0.40145 0.4007 0.92286 0.0
H2181 H 0.38865 0.41528 0.92296 0.0
H2182 H 0.41331 0.39085 0.89086 0.0
H2183 H 0.40155 0.38168 0.92139 0.0
H2184 H 0.4248 0.36224 0.90535 0.0
H2185 H 0.41226 0.34953 0.9133 0.0
H2186 H 0.41317 0.37561 0.93581 0.0
H2187 H 0.4101 0.36318 0.95021 0.0
H2188 H 0.41221 0.3762 0.87688 0.0
H2189 H 0.4408 0.37077 0.89516 0.0
H2190 H 0.40918 0.33709 0.92771 0.0
H2191 H 0.42201 0.37267 0.86059 0.0
H2192 H 0.45068 0.36717 0.87873 0.0
C2193 C 0.88744 0.10538 0.09635 0.0
C2194 C 0.88272 0.10153 0.10566 0.0
C2195 C 0.89466 0.11388 0.09677 0.0
C2196 C 0.89731 0.11873 0.10651 0.0
C2197 C 0.89258 0.11487 0.1158 0.0
C2198 C 0.88543 0.10636 0.11538 0.0
C2199 C 0.9049 0.12785 0.10703 0.0
C2200 C 0.90457 0.13593 0.09942 0.0
C2201 C 0.91141 0.1448 0.10015 0.0
C2202 C 0.91865 0.14551 0.10867 0.0
C2203 C 0.91897 0.13758 0.11643 0.0
C2204 C 0.91221 0.12871 0.11544 0.0
C2205 C 0.92593 0.13875 0.1259 0.0
C2206 C 0.9366 0.14206 0.125 0.0
C2207 C 0.92182 0.1366 0.136 0.0
C2208 C 0.92821 0.1377 0.14499 0.0
C2209 C 0.93889 0.14097 0.14412 0.0
C2210 C 0.9106 0.15352 0.09228 0.0
C2211 C 0.90879 0.15121 0.08151 0.0
C2212 C 0.91125 0.16425 0.09553 0.0
C2213 C 0.90997 0.17244 0.08822 0.0
C2214 C 0.90794 0.17013 0.07749 0.0
C2215 C 0.90745 0.1594 0.07421 0.0
C2216 C 0.94304 0.1431 0.13403 0.0
H2217 H 0.88546 0.10191 0.08871 0.0
H2218 H 0.89822 0.11659 0.08947 0.0
H2219 H 0.89431 0.11851 0.12342 0.0
H2220 H 0.88209 0.10352 0.12273 0.0
H2221 H 0.89866 0.13553 0.09316 0.0
H2222 H 0.91266 0.12245 0.12126 0.0
H2223 H 0.92388 0.15235 0.1094 0.0
H2224 H 0.93999 0.14373 0.11731 0.0
H2225 H 0.91359 0.13416 0.13697 0.0
H2226 H 0.92481 0.13586 0.15264 0.0
H2227 H 0.90837 0.14305 0.07871 0.0
H2228 H 0.9125 0.16634 0.10378 0.0
H2229 H 0.95123 0.14569 0.13313 0.0
H2230 H 0.90578 0.1573 0.06604 0.0
H2231 H 0.91055 0.1806 0.09101 0.0
C2232 C 0.11827 0.12674 0.40003 0.0
C2233 C 0.10867 0.12984 0.40487 0.0
C2234 C 0.11842 0.11852 0.39252 0.0
C2235 C 0.10899 0.11311 0.38972 0.0
C2236 C 0.09943 0.11602 0.39476 0.0
C2237 C 0.09927 0.1243 0.40225 0.0
C2238 C 0.10913 0.1048 0.38124 0.0
C2239 C 0.1178 0.09779 0.3803 0.0
C2240 C 0.11852 0.09059 0.37176 0.0
C2241 C 0.11025 0.0902 0.36423 0.0
C2242 C 0.10142 0.09705 0.36512 0.0
C2243 C 0.10095 0.1043 0.37365 0.0
C2244 C 0.09299 0.0972 0.35685 0.0
C2245 C 0.09569 0.09729 0.34605 0.0
C2246 C 0.0822 0.098 0.35971 0.0
C2247 C 0.07432 0.09922 0.35199 0.0
C2248 C 0.07704 0.09972 0.34122 0.0
C2249 C 0.12821 0.08391 0.37048 0.0
C2250 C 0.13835 0.08842 0.37214 0.0
C2251 C 0.12746 0.07308 0.36767 0.0
C2252 C 0.13668 0.06687 0.36667 0.0
C2253 C 0.14681 0.0714 0.36837 0.0
C2254 C 0.14752 0.08224 0.3711 0.0
C2255 C 0.0878 0.09856 0.33832 0.0
H2256 H 0.1257 0.13071 0.40198 0.0
H2257 H 0.12592 0.11661 0.38872 0.0
H2258 H 0.09204 0.11194 0.39287 0.0
H2259 H 0.09172 0.12652 0.40577 0.0
H2260 H 0.12405 0.09796 0.38624 0.0
H2261 H 0.09442 0.10994 0.37407 0.0
H2262 H 0.11078 0.08474 0.35756 0.0
H2263 H 0.10395 0.09677 0.3436 0.0
H2264 H 0.07987 0.09787 0.36797 0.0
H2265 H 0.06612 0.10018 0.3545 0.0
H2266 H 0.1392 0.09677 0.37419 0.0
H2267 H 0.11975 0.06938 0.36638 0.0
H2268 H 0.09014 0.09881 0.33007 0.0
H2269 H 0.15519 0.08595 0.3726 0.0
H2270 H 0.13588 0.05855 0.36448 0.0
C2271 C 0.10482 0.91766 0.62978 0.0
C2272 C 0.10083 0.90851 0.63475 0.0
C2273 C 0.11327 0.91691 0.62259 0.0
C2274 C 0.11791 0.90699 0.62021 0.0
C2275 C 0.11388 0.89785 0.62517 0.0
C2276 C 0.10543 0.8986 0.63229 0.0
C2277 C 0.12703 0.90609 0.61273 0.0
C2278 C 0.13531 0.91362 0.61288 0.0
C2279 C 0.14429 0.91237 0.60635 0.0
C2280 C 0.14496 0.90343 0.59959 0.0
C2281 C 0.13672 0.89583 0.59931 0.0
C2282 C 0.12774 0.89735 0.60577 0.0
C2283 C 0.13754 0.88607 0.59262 0.0
C2284 C 0.14127 0.88649 0.58214 0.0
C2285 C 0.13434 0.87621 0.59672 0.0
C2286 C 0.13452 0.86705 0.59041 0.0
C2287 C 0.13795 0.86749 0.57985 0.0
C2288 C 0.15316 0.92018 0.60704 0.0
C2289 C 0.15101 0.93115 0.60731 0.0
C2290 C 0.16377 0.91674 0.60803 0.0
C2291 C 0.17201 0.9241 0.60963 0.0
C2292 C 0.16982 0.93507 0.61022 0.0
C2293 C 0.15924 0.93851 0.60883 0.0
C2294 C 0.14148 0.87727 0.57581 0.0
H2295 H 0.10153 0.92544 0.63155 0.0
H2296 H 0.11612 0.92409 0.61885 0.0
H2297 H 0.11736 0.8901 0.62366 0.0
H2298 H 0.10247 0.89136 0.63583 0.0
H2299 H 0.135 0.92025 0.61843 0.0
H2300 H 0.12124 0.89166 0.60537 0.0
H2301 H 0.15196 0.90231 0.59469 0.0
H2302 H 0.14375 0.89398 0.57875 0.0
H2303 H 0.13169 0.87555 0.60484 0.0
H2304 H 0.13201 0.85959 0.59384 0.0
H2305 H 0.14292 0.93404 0.60642 0.0
H2306 H 0.16566 0.90832 0.60797 0.0
H2307 H 0.14415 0.87785 0.56768 0.0
H2308 H 0.15729 0.9469 0.60901 0.0
H2309 H 0.18004 0.92116 0.61078 0.0
C2310 C 0.42017 0.8885 0.90205 0.0
C2311 C 0.41097 0.8843 0.90676 0.0
C2312 C 0.41931 0.89597 0.89393 0.0
C2313 C 0.40923 0.89922 0.89023 0.0
C2314 C 0.40006 0.89493 0.895 0.0
C2315 C 0.40093 0.88765 0.90322 0.0
C2316 C 0.40817 0.90673 0.88119 0.0
C2317 C 0.41532 0.90636 0.87265 0.0
C2318 C 0.41382 0.91282 0.86374 0.0
C2319 C 0.40492 0.9196 0.86331 0.0
C2320 C 0.39767 0.92009 0.87177 0.0
C2321 C 0.39956 0.91387 0.88077 0.0
C2322 C 0.38778 0.92657 0.87108 0.0
C2323 C 0.38782 0.93682 0.86667 0.0
C2324 C 0.3781 0.92241 0.87483 0.0
C2325 C 0.36875 0.92837 0.87437 0.0
C2326 C 0.36879 0.93865 0.8701 0.0
C2327 C 0.42134 0.91205 0.85471 0.0
C2328 C 0.4324 0.91187 0.85654 0.0
C2329 C 0.41755 0.91107 0.84426 0.0
C2330 C 0.42466 0.90966 0.83585 0.0
C2331 C 0.43571 0.90931 0.83771 0.0
C2332 C 0.4395 0.91055 0.84814 0.0
C2333 C 0.37841 0.9428 0.86616 0.0
H2334 H 0.42801 0.88605 0.90469 0.0
H2335 H 0.42655 0.8992 0.89057 0.0
H2336 H 0.39215 0.89697 0.89221 0.0
H2337 H 0.39371 0.88438 0.9066 0.0
H2338 H 0.42183 0.9007 0.87269 0.0
H2339 H 0.3942 0.91452 0.88746 0.0
H2340 H 0.40355 0.92435 0.85632 0.0
H2341 H 0.39516 0.94028 0.86376 0.0
H2342 H 0.37769 0.91444 0.87801 0.0
H2343 H 0.36143 0.92484 0.87723 0.0
H2344 H 0.43555 0.91269 0.8645 0.0
H2345 H 0.40907 0.91109 0.84262 0.0
H2346 H 0.37868 0.95071 0.86284 0.0
H2347 H 0.44796 0.91021 0.84984 0.0
H2348 H 0.42151 0.90881 0.8279 0.0
C2349 C 0.40497 0.12084 0.12744 0.0
C2350 C 0.41082 0.11151 0.12935 0.0
C2351 C 0.39683 0.12092 0.11988 0.0
C2352 C 0.39431 0.11166 0.11406 0.0
C2353 C 0.40028 0.10237 0.11582 0.0
C2354 C 0.40845 0.1023 0.12337 0.0
C2355 C 0.3852 0.11163 0.10652 0.0
C2356 C 0.38342 0.12034 0.09988 0.0
C2357 C 0.37438 0.12074 0.09328 0.0
C2358 C 0.36714 0.11217 0.09325 0.0
C2359 C 0.36884 0.10335 0.09982 0.0
C2360 C 0.37791 0.10315 0.10639 0.0
C2361 C 0.3609 0.09459 0.10044 0.0
C2362 C 0.34994 0.09682 0.10126 0.0
C2363 C 0.3643 0.08396 0.10108 0.0
C2364 C 0.357 0.07582 0.10301 0.0
C2365 C 0.34612 0.0781 0.10436 0.0
C2366 C 0.3724 0.13032 0.08677 0.0
C2367 C 0.37391 0.14052 0.09118 0.0
C2368 C 0.36921 0.12939 0.07612 0.0
C2369 C 0.36777 0.1385 0.06997 0.0
C2370 C 0.36939 0.1487 0.07437 0.0
C2371 C 0.37243 0.14959 0.08507 0.0
C2372 C 0.34262 0.08865 0.10319 0.0
H2373 H 0.40644 0.12802 0.13203 0.0
H2374 H 0.39227 0.12815 0.11885 0.0
H2375 H 0.39862 0.09515 0.11136 0.0
H2376 H 0.4129 0.09502 0.12455 0.0
H2377 H 0.38911 0.12684 0.09982 0.0
H2378 H 0.37903 0.09659 0.1118 0.0
H2379 H 0.3601 0.11247 0.08828 0.0
H2380 H 0.34708 0.10494 0.1009 0.0
H2381 H 0.37267 0.08197 0.1003 0.0
H2382 H 0.35991 0.06773 0.10365 0.0
H2383 H 0.37625 0.1415 0.0994 0.0
H2384 H 0.36803 0.12163 0.0725 0.0
H2385 H 0.3343 0.09068 0.10426 0.0
H2386 H 0.37387 0.15731 0.08868 0.0
H2387 H 0.36535 0.13756 0.06177 0.0
C2388 C 0.11319 0.88669 0.10966 0.0
C2389 C 0.10313 0.88427 0.10533 0.0
C2390 C 0.1142 0.89392 0.11804 0.0
C2391 C 0.10518 0.89904 0.12227 0.0
C2392 C 0.09511 0.8967 0.11792 0.0
C2393 C 0.09409 0.8894 0.10953 0.0
C2394 C 0.10638 0.90667 0.13129 0.0
C2395 C 0.11514 0.91362 0.13171 0.0
C2396 C 0.11696 0.92024 0.14056 0.0
C2397 C 0.10963 0.92011 0.14897 0.0
C2398 C 0.10067 0.91336 0.1486 0.0
C2399 C 0.09912 0.90667 0.13973 0.0
C2400 C 0.09315 0.91287 0.15764 0.0
C2401 C 0.09696 0.91219 0.16808 0.0
C2402 C 0.08209 0.9126 0.15583 0.0
C2403 C 0.075 0.91146 0.16425 0.0
C2404 C 0.07881 0.9105 0.17468 0.0
C2405 C 0.12674 0.92692 0.14106 0.0
C2406 C 0.13651 0.92272 0.13756 0.0
C2407 C 0.12643 0.9375 0.1448 0.0
C2408 C 0.13565 0.94381 0.14475 0.0
C2409 C 0.14533 0.93966 0.14093 0.0
C2410 C 0.14567 0.92901 0.13747 0.0
C2411 C 0.08986 0.91097 0.17651 0.0
H2412 H 0.12035 0.88303 0.10652 0.0
H2413 H 0.12207 0.8954 0.12129 0.0
H2414 H 0.08801 0.90056 0.12094 0.0
H2415 H 0.08621 0.88766 0.10645 0.0
H2416 H 0.12061 0.9139 0.12508 0.0
H2417 H 0.09249 0.90113 0.13963 0.0
H2418 H 0.11098 0.92514 0.15586 0.0
H2419 H 0.10544 0.91228 0.16971 0.0
H2420 H 0.07892 0.91319 0.14787 0.0
H2421 H 0.06654 0.91103 0.16257 0.0
H2422 H 0.1371 0.91452 0.13489 0.0
H2423 H 0.11901 0.94097 0.1475 0.0
H2424 H 0.09303 0.91033 0.18447 0.0
H2425 H 0.15307 0.9255 0.13474 0.0
H2426 H 0.13515 0.952 0.14744 0.0
C2427 C 0.4089 0.89676 0.38585 0.0
C2428 C 0.41401 0.90648 0.38378 0.0
C2429 C 0.40058 0.89624 0.39314 0.0
C2430 C 0.39721 0.9054 0.39866 0.0
C2431 C 0.40244 0.9151 0.39673 0.0
C2432 C 0.41073 0.91564 0.38936 0.0
C2433 C 0.38806 0.90479 0.40613 0.0
C2434 C 0.38667 0.8958 0.41247 0.0
C2435 C 0.37747 0.89451 0.41868 0.0
C2436 C 0.36981 0.90269 0.41893 0.0
C2437 C 0.37124 0.91193 0.41287 0.0
C2438 C 0.38035 0.91286 0.40646 0.0
C2439 C 0.36303 0.92044 0.41262 0.0
C2440 C 0.35218 0.91794 0.41131 0.0
C2441 C 0.36615 0.93119 0.41278 0.0
C2442 C 0.35869 0.93923 0.4111 0.0
C2443 C 0.34792 0.93672 0.40919 0.0
C2444 C 0.37582 0.88436 0.42442 0.0
C2445 C 0.37857 0.87467 0.41948 0.0
C2446 C 0.37185 0.88418 0.43483 0.0
C2447 C 0.37101 0.87453 0.44028 0.0
C2448 C 0.37421 0.86494 0.43543 0.0
C2449 C 0.37783 0.86512 0.42492 0.0
C2450 C 0.34468 0.926 0.40962 0.0
H2451 H 0.41132 0.88951 0.38184 0.0
H2452 H 0.39665 0.88865 0.39428 0.0
H2453 H 0.40012 0.9223 0.40092 0.0
H2454 H 0.41443 0.92328 0.38791 0.0
H2455 H 0.39275 0.88969 0.41252 0.0
H2456 H 0.38118 0.91969 0.40135 0.0
H2457 H 0.36267 0.90178 0.42365 0.0
H2458 H 0.34955 0.90972 0.41107 0.0
H2459 H 0.37443 0.93337 0.41397 0.0
H2460 H 0.36139 0.94742 0.41105 0.0
H2461 H 0.38135 0.87447 0.41137 0.0
H2462 H 0.36967 0.89151 0.43885 0.0
H2463 H 0.33646 0.92382 0.40812 0.0
H2464 H 0.38009 0.85782 0.42088 0.0
H2465 H 0.36817 0.87459 0.44837 0.0
C2466 C 0.42048 0.12383 0.60875 0.0
C2467 C 0.41156 0.12988 0.60574 0.0
C2468 C 0.41968 0.11635 0.61687 0.0
C2469 C 0.40994 0.11478 0.62213 0.0
C2470 C 0.40105 0.12086 0.61911 0.0
C2471 C 0.40185 0.1283 0.61103 0.0
C2472 C 0.409 0.10708 0.63095 0.0
C2473 C 0.41691 0.1065 0.63882 0.0
C2474 C 0.4155 0.10004 0.64775 0.0
C2475 C 0.40614 0.09393 0.64864 0.0
C2476 C 0.39817 0.09443 0.64085 0.0
C2477 C 0.39973 0.10089 0.63198 0.0
C2478 C 0.38777 0.08906 0.64239 0.0
C2479 C 0.38718 0.07828 0.64522 0.0
C2480 C 0.3783 0.09487 0.64116 0.0
C2481 C 0.36844 0.09005 0.64277 0.0
C2482 C 0.3678 0.07928 0.64557 0.0
C2483 C 0.42335 0.10048 0.65657 0.0
C2484 C 0.43436 0.10034 0.65453 0.0
C2485 C 0.41985 0.10169 0.66708 0.0
C2486 C 0.42718 0.10301 0.67533 0.0
C2487 C 0.43819 0.1031 0.67327 0.0
C2488 C 0.4417 0.10158 0.6628 0.0
C2489 C 0.37725 0.07339 0.6467 0.0
H2490 H 0.42806 0.12482 0.60478 0.0
H2491 H 0.42665 0.11174 0.61897 0.0
H2492 H 0.3935 0.12006 0.62317 0.0
H2493 H 0.39489 0.133 0.60909 0.0
H2494 H 0.42388 0.11158 0.63832 0.0
H2495 H 0.39359 0.10122 0.62593 0.0
H2496 H 0.40488 0.08909 0.65559 0.0
H2497 H 0.39438 0.07363 0.64619 0.0
H2498 H 0.37853 0.10322 0.63909 0.0
H2499 H 0.36127 0.09475 0.64174 0.0
H2500 H 0.43728 0.09937 0.64652 0.0
H2501 H 0.41141 0.10196 0.6689 0.0
H2502 H 0.37695 0.06507 0.64887 0.0
H2503 H 0.45013 0.1017 0.66096 0.0
H2504 H 0.42424 0.10406 0.68333 0.0
C2505 C 0.1051 0.09801 0.88729 0.0
C2506 C 0.10163 0.10717 0.88196 0.0
C2507 C 0.1141 0.09842 0.89388 0.0
C2508 C 0.11977 0.10799 0.89528 0.0
C2509 C 0.11637 0.11708 0.88984 0.0
C2510 C 0.10743 0.11668 0.88326 0.0
C2511 C 0.12923 0.1086 0.90236 0.0
C2512 C 0.13715 0.10071 0.90202 0.0
C2513 C 0.14648 0.10172 0.90815 0.0
C2514 C 0.14774 0.11066 0.91483 0.0
C2515 C 0.13986 0.11858 0.91532 0.0
C2516 C 0.13062 0.11743 0.90912 0.0
C2517 C 0.14139 0.1283 0.92192 0.0
C2518 C 0.14518 0.12766 0.93238 0.0
C2519 C 0.13895 0.13835 0.91776 0.0
C2520 C 0.14016 0.14753 0.92393 0.0
C2521 C 0.14383 0.14691 0.93443 0.0
C2522 C 0.15517 0.09378 0.90704 0.0
C2523 C 0.1529 0.08283 0.90686 0.0
C2524 C 0.16577 0.09715 0.90572 0.0
C2525 C 0.17389 0.08974 0.904 0.0
C2526 C 0.1716 0.07878 0.90366 0.0
C2527 C 0.16104 0.0754 0.90524 0.0
C2528 C 0.14634 0.13687 0.9386 0.0
H2529 H 0.10076 0.09059 0.88653 0.0
H2530 H 0.1165 0.09129 0.89802 0.0
H2531 H 0.12071 0.12452 0.89057 0.0
H2532 H 0.10515 0.12381 0.87907 0.0
H2533 H 0.13628 0.09403 0.89658 0.0
H2534 H 0.12444 0.12345 0.90957 0.0
H2535 H 0.15496 0.11155 0.9195 0.0
H2536 H 0.14707 0.12001 0.93581 0.0
H2537 H 0.13614 0.13912 0.90968 0.0
H2538 H 0.13805 0.15513 0.92052 0.0
H2539 H 0.14481 0.08 0.90792 0.0
H2540 H 0.16775 0.10555 0.90572 0.0
H2541 H 0.14925 0.13616 0.94664 0.0
H2542 H 0.15902 0.06701 0.90493 0.0
H2543 H 0.18197 0.09257 0.9029 0.0
C2544 C 0.90615 0.39346 0.88461 0.0
C2545 C 0.91178 0.40291 0.88258 0.0
C2546 C 0.8977 0.39338 0.89178 0.0
C2547 C 0.89472 0.40272 0.89722 0.0
C2548 C 0.90041 0.41216 0.89529 0.0
C2549 C 0.90882 0.41226 0.88804 0.0
C2550 C 0.88559 0.40261 0.90474 0.0
C2551 C 0.88383 0.39378 0.91125 0.0
C2552 C 0.87492 0.3933 0.91793 0.0
C2553 C 0.86783 0.40194 0.91833 0.0
C2554 C 0.86945 0.41088 0.9119 0.0
C2555 C 0.87834 0.41113 0.90513 0.0
C2556 C 0.8616 0.41975 0.91176 0.0
C2557 C 0.85058 0.41765 0.91181 0.0
C2558 C 0.86507 0.43037 0.91108 0.0
C2559 C 0.85772 0.43866 0.91016 0.0
C2560 C 0.8467 0.43654 0.90994 0.0
C2561 C 0.87277 0.38349 0.92401 0.0
C2562 C 0.87344 0.37351 0.91895 0.0
C2563 C 0.87005 0.38396 0.9348 0.0
C2564 C 0.86818 0.37459 0.94044 0.0
C2565 C 0.86883 0.36461 0.93533 0.0
C2566 C 0.87147 0.36419 0.92453 0.0
C2567 C 0.84322 0.42595 0.91092 0.0
H2568 H 0.90829 0.38607 0.88068 0.0
H2569 H 0.89341 0.386 0.89294 0.0
H2570 H 0.89841 0.41948 0.89942 0.0
H2571 H 0.9129 0.41971 0.88661 0.0
H2572 H 0.88943 0.38721 0.91115 0.0
H2573 H 0.87938 0.41777 0.89983 0.0
H2574 H 0.86094 0.40159 0.92347 0.0
H2575 H 0.84763 0.40956 0.91223 0.0
H2576 H 0.8735 0.43227 0.91114 0.0
H2577 H 0.8607 0.4467 0.90932 0.0
H2578 H 0.87541 0.37292 0.91062 0.0
H2579 H 0.86952 0.39155 0.93889 0.0
H2580 H 0.83479 0.42405 0.91091 0.0
H2581 H 0.87215 0.35662 0.92041 0.0
H2582 H 0.86613 0.37513 0.94875 0.0
C2583 C 0.91622 0.62356 0.10929 0.0
C2584 C 0.90669 0.62871 0.10647 0.0
C2585 C 0.91634 0.61611 0.11748 0.0
C2586 C 0.90694 0.61369 0.12302 0.0
C2587 C 0.89745 0.61893 0.12021 0.0
C2588 C 0.89733 0.6263 0.11204 0.0
C2589 C 0.90692 0.60595 0.13186 0.0
C2590 C 0.91515 0.60595 0.13944 0.0
C2591 C 0.91456 0.59939 0.1484 0.0
C2592 C 0.90569 0.59265 0.14964 0.0
C2593 C 0.89741 0.59258 0.14214 0.0
C2594 C 0.89819 0.59909 0.13322 0.0
C2595 C 0.88748 0.58649 0.14405 0.0
C2596 C 0.88776 0.57574 0.14702 0.0
C2597 C 0.87757 0.59157 0.14299 0.0
C2598 C 0.86813 0.58605 0.14487 0.0
C2599 C 0.86837 0.57529 0.14779 0.0
C2600 C 0.92273 0.6003 0.15689 0.0
C2601 C 0.93362 0.60086 0.15438 0.0
C2602 C 0.91963 0.60118 0.16754 0.0
C2603 C 0.92723 0.60284 0.1755 0.0
C2604 C 0.93812 0.60364 0.17299 0.0
C2605 C 0.94124 0.60247 0.16235 0.0
C2606 C 0.87826 0.57015 0.14879 0.0
H2607 H 0.92356 0.62523 0.10511 0.0
H2608 H 0.92377 0.61217 0.1194 0.0
H2609 H 0.89012 0.61749 0.12449 0.0
H2610 H 0.88991 0.63031 0.11024 0.0
H2611 H 0.92172 0.6115 0.13869 0.0
H2612 H 0.89184 0.59893 0.12738 0.0
H2613 H 0.90504 0.58774 0.15662 0.0
H2614 H 0.89531 0.57165 0.14787 0.0
H2615 H 0.87712 0.59988 0.14082 0.0
H2616 H 0.86062 0.59018 0.14393 0.0
H2617 H 0.93625 0.6001 0.14625 0.0
H2618 H 0.91128 0.60096 0.16971 0.0
H2619 H 0.87865 0.56186 0.15106 0.0
H2620 H 0.94957 0.60286 0.16015 0.0
H2621 H 0.92451 0.60388 0.18357 0.0
C2622 C 0.6053 0.5999 0.3863 0.0
C2623 C 0.60207 0.60908 0.38086 0.0
C2624 C 0.61427 0.60016 0.39293 0.0
C2625 C 0.62015 0.60962 0.39427 0.0
C2626 C 0.61701 0.61872 0.38869 0.0
C2627 C 0.6081 0.61845 0.38207 0.0
C2628 C 0.62952 0.61012 0.40148 0.0
C2629 C 0.63728 0.60207 0.40135 0.0
C2630 C 0.6465 0.60296 0.40766 0.0
C2631 C 0.64781 0.61193 0.4143 0.0
C2632 C 0.64008 0.62 0.41457 0.0
C2633 C 0.63094 0.61898 0.40819 0.0
C2634 C 0.64164 0.62973 0.42116 0.0
C2635 C 0.64516 0.62906 0.43171 0.0
C2636 C 0.63947 0.63979 0.41691 0.0
C2637 C 0.64066 0.64898 0.42308 0.0
C2638 C 0.64405 0.64834 0.43367 0.0
C2639 C 0.65504 0.59482 0.40685 0.0
C2640 C 0.65253 0.58392 0.40676 0.0
C2641 C 0.66575 0.59794 0.40577 0.0
C2642 C 0.67375 0.59032 0.40443 0.0
C2643 C 0.67123 0.57941 0.40422 0.0
C2644 C 0.66055 0.57629 0.40551 0.0
C2645 C 0.6463 0.63828 0.43793 0.0
H2646 H 0.60079 0.59257 0.3856 0.0
H2647 H 0.61648 0.59304 0.39717 0.0
H2648 H 0.62152 0.62606 0.38938 0.0
H2649 H 0.60601 0.62559 0.3778 0.0
H2650 H 0.63638 0.59536 0.39597 0.0
H2651 H 0.62487 0.62511 0.40848 0.0
H2652 H 0.65494 0.61272 0.41911 0.0
H2653 H 0.64684 0.6214 0.43521 0.0
H2654 H 0.63687 0.64057 0.40876 0.0
H2655 H 0.63874 0.65659 0.4196 0.0
H2656 H 0.64435 0.58129 0.40762 0.0
H2657 H 0.66792 0.60628 0.4057 0.0
H2658 H 0.64899 0.63754 0.44604 0.0
H2659 H 0.65835 0.56795 0.4053 0.0
H2660 H 0.68193 0.59296 0.40354 0.0
C2661 C 0.91963 0.39187 0.40382 0.0
C2662 C 0.91069 0.38587 0.40686 0.0
C2663 C 0.91885 0.39928 0.39564 0.0
C2664 C 0.90911 0.40085 0.39035 0.0
C2665 C 0.90018 0.39488 0.39343 0.0
C2666 C 0.90095 0.38749 0.40157 0.0
C2667 C 0.90823 0.4084 0.38139 0.0
C2668 C 0.91609 0.40868 0.37349 0.0
C2669 C 0.91476 0.41501 0.36446 0.0
C2670 C 0.90554 0.42129 0.36349 0.0
C2671 C 0.89762 0.4211 0.37133 0.0
C2672 C 0.8991 0.41475 0.38029 0.0
C2673 C 0.8874 0.42682 0.3698 0.0
C2674 C 0.8872 0.4375 0.36657 0.0
C2675 C 0.87771 0.42148 0.37146 0.0
C2676 C 0.86802 0.42666 0.36989 0.0
C2677 C 0.86778 0.43733 0.3667 0.0
C2678 C 0.92254 0.41426 0.35564 0.0
C2679 C 0.93357 0.41414 0.35768 0.0
C2680 C 0.91896 0.41296 0.34515 0.0
C2681 C 0.92621 0.41122 0.33694 0.0
C2682 C 0.93721 0.4108 0.33902 0.0
C2683 C 0.94083 0.41247 0.34945 0.0
C2684 C 0.87746 0.44275 0.36512 0.0
H2685 H 0.92722 0.39088 0.4078 0.0
H2686 H 0.92586 0.40382 0.39349 0.0
H2687 H 0.89261 0.3957 0.38937 0.0
H2688 H 0.89397 0.38284 0.40353 0.0
H2689 H 0.92295 0.40347 0.37407 0.0
H2690 H 0.89302 0.41465 0.38638 0.0
H2691 H 0.90435 0.42605 0.35647 0.0
H2692 H 0.89456 0.44181 0.36527 0.0
H2693 H 0.87763 0.41321 0.37383 0.0
H2694 H 0.86069 0.42232 0.37128 0.0
H2695 H 0.93656 0.41518 0.36567 0.0
H2696 H 0.91051 0.41289 0.34333 0.0
H2697 H 0.87748 0.45097 0.36261 0.0
H2698 H 0.94926 0.41211 0.35131 0.0
H2699 H 0.92319 0.41007 0.32897 0.0
C2700 C 0.6159 0.62532 0.90304 0.0
C2701 C 0.60629 0.62701 0.9085 0.0
C2702 C 0.61649 0.61782 0.89485 0.0
C2703 C 0.60749 0.61181 0.8919 0.0
C2704 C 0.59788 0.61342 0.8974 0.0
C2705 C 0.59729 0.62094 0.90562 0.0
C2706 C 0.60811 0.60415 0.88289 0.0
C2707 C 0.61713 0.59768 0.88159 0.0
C2708 C 0.61822 0.59102 0.87266 0.0
C2709 C 0.61004 0.59071 0.86505 0.0
C2710 C 0.60091 0.59712 0.86623 0.0
C2711 C 0.6 0.60375 0.87521 0.0
C2712 C 0.59267 0.59753 0.85777 0.0
C2713 C 0.59563 0.59827 0.84708 0.0
C2714 C 0.58179 0.59794 0.86039 0.0
C2715 C 0.57408 0.59942 0.85254 0.0
C2716 C 0.57707 0.60056 0.84189 0.0
C2717 C 0.6282 0.58489 0.8711 0.0
C2718 C 0.63811 0.58986 0.87276 0.0
C2719 C 0.62795 0.5741 0.86807 0.0
C2720 C 0.63746 0.56835 0.86691 0.0
C2721 C 0.64736 0.57335 0.86863 0.0
C2722 C 0.64757 0.58417 0.87153 0.0
C2723 C 0.58792 0.59978 0.83922 0.0
H2724 H 0.62293 0.63001 0.90489 0.0
H2725 H 0.62396 0.61692 0.89064 0.0
H2726 H 0.59083 0.60884 0.89537 0.0
H2727 H 0.5898 0.62197 0.90975 0.0
H2728 H 0.62337 0.59784 0.88755 0.0
H2729 H 0.59321 0.60903 0.87595 0.0
H2730 H 0.61089 0.58568 0.85809 0.0
H2731 H 0.60396 0.59808 0.84481 0.0
H2732 H 0.57925 0.5973 0.86856 0.0
H2733 H 0.5658 0.60007 0.85489 0.0
H2734 H 0.63855 0.5982 0.87499 0.0
H2735 H 0.62042 0.57006 0.86677 0.0
H2736 H 0.59047 0.60051 0.83108 0.0
H2737 H 0.65506 0.58822 0.87304 0.0
H2738 H 0.63706 0.56003 0.86462 0.0
C2739 C 0.86288 0.63169 0.85364 0.0
C2740 C 0.85281 0.63544 0.85681 0.0
C2741 C 0.87174 0.63843 0.8538 0.0
C2742 C 0.87076 0.6491 0.85711 0.0
C2743 C 0.86066 0.65291 0.86011 0.0
C2744 C 0.85179 0.64615 0.85997 0.0
C2745 C 0.88034 0.65607 0.85783 0.0
C2746 C 0.88828 0.65555 0.85003 0.0
C2747 C 0.89777 0.66144 0.85108 0.0
C2748 C 0.89912 0.66817 0.85994 0.0
C2749 C 0.89123 0.66886 0.86781 0.0
C2750 C 0.88187 0.66278 0.86666 0.0
C2751 C 0.89302 0.6753 0.87761 0.0
C2752 C 0.90302 0.67532 0.88266 0.0
C2753 C 0.88459 0.68098 0.88232 0.0
C2754 C 0.88602 0.68621 0.89204 0.0
C2755 C 0.89593 0.68592 0.89726 0.0
C2756 C 0.90651 0.66004 0.84324 0.0
C2757 C 0.90897 0.64983 0.83931 0.0
C2758 C 0.9126 0.66876 0.83981 0.0
C2759 C 0.92098 0.66728 0.83265 0.0
C2760 C 0.92347 0.65705 0.82878 0.0
C2761 C 0.91731 0.64836 0.83216 0.0
C2762 C 0.90446 0.68059 0.89235 0.0
H2763 H 0.86398 0.62344 0.85133 0.0
H2764 H 0.87943 0.63518 0.85163 0.0
H2765 H 0.85961 0.66112 0.86257 0.0
H2766 H 0.84411 0.64932 0.86232 0.0
H2767 H 0.88708 0.65051 0.84312 0.0
H2768 H 0.87598 0.66286 0.87292 0.0
H2769 H 0.90644 0.67268 0.86084 0.0
H2770 H 0.90967 0.67095 0.87933 0.0
H2771 H 0.87681 0.68124 0.87857 0.0
H2772 H 0.87924 0.69016 0.89562 0.0
H2773 H 0.90456 0.64291 0.84189 0.0
H2774 H 0.91086 0.67673 0.84263 0.0
H2775 H 0.91225 0.68035 0.89607 0.0
H2776 H 0.91889 0.64039 0.82922 0.0
H2777 H 0.92561 0.67413 0.83027 0.0
C2778 C 0.16084 0.14506 0.65185 0.0
C2779 C 0.15925 0.13435 0.65459 0.0
C2780 C 0.1524 0.15232 0.65235 0.0
C2781 C 0.14218 0.149 0.65552 0.0
C2782 C 0.14064 0.13827 0.65822 0.0
C2783 C 0.14907 0.13106 0.65781 0.0
C2784 C 0.13304 0.15654 0.65578 0.0
C2785 C 0.13157 0.164 0.64769 0.0
C2786 C 0.12246 0.17054 0.64745 0.0
C2787 C 0.11477 0.16955 0.65549 0.0
C2788 C 0.11607 0.16202 0.66354 0.0
C2789 C 0.12532 0.15577 0.66375 0.0
C2790 C 0.1075 0.15998 0.67134 0.0
C2791 C 0.10267 0.16831 0.67706 0.0
C2792 C 0.10433 0.14945 0.67327 0.0
C2793 C 0.09681 0.14723 0.68104 0.0
C2794 C 0.0923 0.15547 0.68714 0.0
C2795 C 0.12062 0.17763 0.63824 0.0
C2796 C 0.12916 0.18311 0.63356 0.0
C2797 C 0.11047 0.17829 0.63353 0.0
C2798 C 0.10901 0.18387 0.62412 0.0
C2799 C 0.11767 0.18887 0.61914 0.0
C2800 C 0.12771 0.18864 0.62411 0.0
C2801 C 0.09514 0.16607 0.68493 0.0
H2802 H 0.16863 0.14782 0.64939 0.0
H2803 H 0.15388 0.16054 0.6503 0.0
H2804 H 0.13283 0.13535 0.66044 0.0
H2805 H 0.14754 0.12282 0.65975 0.0
H2806 H 0.13725 0.16429 0.64125 0.0
H2807 H 0.12641 0.15013 0.67011 0.0
H2808 H 0.10761 0.17437 0.65531 0.0
H2809 H 0.10498 0.17649 0.6757 0.0
H2810 H 0.10773 0.14289 0.6688 0.0
H2811 H 0.09459 0.13901 0.68233 0.0
H2812 H 0.13705 0.1829 0.63706 0.0
H2813 H 0.10373 0.17411 0.63685 0.0
H2814 H 0.09183 0.17259 0.68951 0.0
H2815 H 0.13458 0.19234 0.62048 0.0
H2816 H 0.10113 0.18405 0.62062 0.0
C2817 C 0.65942 0.36845 0.36114 0.0
C2818 C 0.6576 0.37926 0.35903 0.0
C2819 C 0.65096 0.36117 0.36102 0.0
C2820 C 0.6405 0.36458 0.35887 0.0
C2821 C 0.63873 0.37539 0.35667 0.0
C2822 C 0.64718 0.38263 0.35672 0.0
C2823 C 0.63136 0.35702 0.35924 0.0
C2824 C 0.63076 0.34932 0.36721 0.0
C2825 C 0.6218 0.34264 0.36807 0.0
C2826 C 0.61336 0.3437 0.3608 0.0
C2827 C 0.61382 0.35139 0.3528 0.0
C2828 C 0.6229 0.35788 0.352 0.0
C2829 C 0.60471 0.35302 0.34547 0.0
C2830 C 0.59962 0.34436 0.34045 0.0
C2831 C 0.60123 0.36339 0.34324 0.0
C2832 C 0.59305 0.3651 0.33596 0.0
C2833 C 0.58813 0.35649 0.33071 0.0
C2834 C 0.62107 0.3351 0.37703 0.0
C2835 C 0.63 0.3291 0.38008 0.0
C2836 C 0.61169 0.33441 0.38306 0.0
C2837 C 0.61141 0.32823 0.39222 0.0
C2838 C 0.6205 0.3226 0.39552 0.0
C2839 C 0.62971 0.32292 0.38921 0.0
C2840 C 0.59144 0.34608 0.33309 0.0
H2841 H 0.66738 0.36561 0.36285 0.0
H2842 H 0.65261 0.35288 0.36262 0.0
H2843 H 0.63076 0.37835 0.3552 0.0
H2844 H 0.64549 0.39094 0.35527 0.0
H2845 H 0.63705 0.34886 0.37308 0.0
H2846 H 0.62338 0.36365 0.34569 0.0
H2847 H 0.60634 0.33871 0.3615 0.0
H2848 H 0.60216 0.33628 0.342 0.0
H2849 H 0.6049 0.37021 0.34709 0.0
H2850 H 0.59079 0.37322 0.33422 0.0
H2851 H 0.63728 0.32934 0.3755 0.0
H2852 H 0.60472 0.33903 0.38099 0.0
H2853 H 0.58775 0.33928 0.32923 0.0
H2854 H 0.63678 0.31851 0.39143 0.0
H2855 H 0.60422 0.32826 0.39695 0.0
C2856 C 0.3501 0.871 0.15337 0.0
C2857 C 0.35182 0.8818 0.15585 0.0
C2858 C 0.35859 0.8638 0.15331 0.0
C2859 C 0.369 0.86723 0.15571 0.0
C2860 C 0.37068 0.87799 0.15839 0.0
C2861 C 0.36219 0.88518 0.15848 0.0
C2862 C 0.37817 0.85976 0.155 0.0
C2863 C 0.37882 0.85236 0.14664 0.0
C2864 C 0.38778 0.84575 0.14547 0.0
C2865 C 0.39619 0.84657 0.15281 0.0
C2866 C 0.39565 0.85388 0.1613 0.0
C2867 C 0.38657 0.86035 0.16237 0.0
C2868 C 0.40459 0.85497 0.16899 0.0
C2869 C 0.40972 0.84596 0.17311 0.0
C2870 C 0.40785 0.86512 0.17251 0.0
C2871 C 0.41579 0.86623 0.1802 0.0
C2872 C 0.42073 0.85723 0.18455 0.0
C2873 C 0.38849 0.83853 0.13615 0.0
C2874 C 0.37972 0.83221 0.13316 0.0
C2875 C 0.39758 0.83859 0.12968 0.0
C2876 C 0.39766 0.8329 0.1201 0.0
C2877 C 0.38868 0.82697 0.11684 0.0
C2878 C 0.37983 0.82645 0.12364 0.0
C2879 C 0.41769 0.84708 0.18082 0.0
H2880 H 0.34223 0.86814 0.15122 0.0
H2881 H 0.357 0.85554 0.15133 0.0
H2882 H 0.37861 0.88095 0.16016 0.0
H2883 H 0.36378 0.89341 0.16058 0.0
H2884 H 0.37256 0.85206 0.14071 0.0
H2885 H 0.38599 0.86584 0.16901 0.0
H2886 H 0.4032 0.84162 0.15183 0.0
H2887 H 0.40737 0.83803 0.17058 0.0
H2888 H 0.40418 0.87223 0.16938 0.0
H2889 H 0.41782 0.87417 0.18296 0.0
H2890 H 0.37266 0.83191 0.13808 0.0
H2891 H 0.40441 0.84347 0.13175 0.0
H2892 H 0.42142 0.83998 0.18392 0.0
H2893 H 0.37288 0.82178 0.1215 0.0
H2894 H 0.40457 0.8336 0.11503 0.0
C2895 C 0.84809 0.36906 0.65178 0.0
C2896 C 0.84927 0.37996 0.65413 0.0
C2897 C 0.85694 0.3623 0.65182 0.0
C2898 C 0.86717 0.3663 0.65416 0.0
C2899 C 0.8683 0.37719 0.6566 0.0
C2900 C 0.85946 0.38392 0.65662 0.0
C2901 C 0.8767 0.35926 0.65371 0.0
C2902 C 0.87775 0.35161 0.64561 0.0
C2903 C 0.88704 0.34542 0.6447 0.0
C2904 C 0.89536 0.34689 0.65206 0.0
C2905 C 0.89442 0.35451 0.66023 0.0
C2906 C 0.88503 0.36055 0.66105 0.0
C2907 C 0.90329 0.35652 0.66778 0.0
C2908 C 0.90839 0.3481 0.67301 0.0
C2909 C 0.90637 0.36702 0.67016 0.0
C2910 C 0.91408 0.36912 0.67787 0.0
C2911 C 0.91886 0.36076 0.68348 0.0
C2912 C 0.88823 0.33807 0.63552 0.0
C2913 C 0.87977 0.33137 0.63246 0.0
C2914 C 0.89738 0.33848 0.62915 0.0
C2915 C 0.89779 0.33279 0.61959 0.0
C2916 C 0.88909 0.32651 0.61623 0.0
C2917 C 0.88021 0.32562 0.62295 0.0
C2918 C 0.9161 0.35021 0.68081 0.0
H2919 H 0.84031 0.36576 0.64994 0.0
H2920 H 0.85575 0.35393 0.65005 0.0
H2921 H 0.87608 0.38059 0.65823 0.0
H2922 H 0.86065 0.39231 0.6583 0.0
H2923 H 0.87154 0.35082 0.63967 0.0
H2924 H 0.88422 0.36628 0.66746 0.0
H2925 H 0.90262 0.34229 0.6513 0.0
H2926 H 0.90614 0.33993 0.67134 0.0
H2927 H 0.90273 0.37366 0.6661 0.0
H2928 H 0.91621 0.37732 0.67953 0.0
H2929 H 0.87267 0.3308 0.6373 0.0
H2930 H 0.90398 0.34366 0.63126 0.0
H2931 H 0.91959 0.34359 0.68501 0.0
H2932 H 0.87346 0.32068 0.62074 0.0
H2933 H 0.90471 0.33377 0.61458 0.0
C2934 C 0.36041 0.13084 0.35219 0.0
C2935 C 0.35031 0.1346 0.35521 0.0
C2936 C 0.36924 0.13764 0.35226 0.0
C2937 C 0.36816 0.14838 0.35532 0.0
C2938 C 0.35798 0.15221 0.35801 0.0
C2939 C 0.34916 0.1454 0.35799 0.0
C2940 C 0.37772 0.15536 0.35629 0.0
C2941 C 0.38602 0.1547 0.34887 0.0
C2942 C 0.39547 0.16063 0.35023 0.0
C2943 C 0.39644 0.16746 0.35908 0.0
C2944 C 0.38811 0.16837 0.36646 0.0
C2945 C 0.37882 0.16228 0.365 0.0
C2946 C 0.38924 0.17516 0.37609 0.0
C2947 C 0.39849 0.17466 0.38236 0.0
C2948 C 0.38071 0.18156 0.3795 0.0
C2949 C 0.38122 0.18695 0.38921 0.0
C2950 C 0.39025 0.18603 0.39575 0.0
C2951 C 0.40439 0.15943 0.34254 0.0
C2952 C 0.4068 0.14938 0.33818 0.0
C2953 C 0.41051 0.16827 0.33944 0.0
C2954 C 0.41873 0.16708 0.33204 0.0
C2955 C 0.42094 0.15706 0.32754 0.0
C2956 C 0.41493 0.14822 0.33073 0.0
C2957 C 0.39899 0.18002 0.3921 0.0
H2958 H 0.36158 0.12253 0.35014 0.0
H2959 H 0.37698 0.13437 0.35029 0.0
H2960 H 0.35684 0.16048 0.36023 0.0
H2961 H 0.34145 0.14857 0.3602 0.0
H2962 H 0.38509 0.14959 0.34198 0.0
H2963 H 0.37262 0.16259 0.37096 0.0
H2964 H 0.40371 0.17197 0.36033 0.0
H2965 H 0.40515 0.16971 0.37997 0.0
H2966 H 0.37354 0.18221 0.37475 0.0
H2967 H 0.37445 0.19169 0.39168 0.0
H2968 H 0.40245 0.14235 0.34056 0.0
H2969 H 0.4088 0.17614 0.34255 0.0
H2970 H 0.40602 0.17903 0.39698 0.0
H2971 H 0.41658 0.14037 0.32753 0.0
H2972 H 0.42318 0.17405 0.32966 0.0
C2973 C 0.66143 0.64596 0.15341 0.0
C2974 C 0.65986 0.6351 0.15552 0.0
C2975 C 0.65286 0.65307 0.15373 0.0
C2976 C 0.64252 0.64945 0.1561 0.0
C2977 C 0.64099 0.63858 0.15824 0.0
C2978 C 0.64956 0.63152 0.15799 0.0
C2979 C 0.63324 0.65682 0.15603 0.0
C2980 C 0.63223 0.66458 0.14816 0.0
C2981 C 0.62305 0.67098 0.14752 0.0
C2982 C 0.61482 0.66958 0.15494 0.0
C2983 C 0.6157 0.66181 0.16282 0.0
C2984 C 0.62499 0.65563 0.16341 0.0
C2985 C 0.60678 0.65961 0.17016 0.0
C2986 C 0.60179 0.66784 0.17589 0.0
C2987 C 0.60352 0.64906 0.17179 0.0
C2988 C 0.59575 0.64671 0.17928 0.0
C2989 C 0.59108 0.65485 0.18541 0.0
C2990 C 0.62179 0.6784 0.13851 0.0
C2991 C 0.63044 0.68462 0.13512 0.0
C2992 C 0.61225 0.6786 0.13266 0.0
C2993 C 0.61155 0.68446 0.12333 0.0
C2994 C 0.62038 0.69025 0.11965 0.0
C2995 C 0.62974 0.69049 0.1258 0.0
C2996 C 0.59402 0.66547 0.18348 0.0
H2997 H 0.66931 0.64895 0.15155 0.0
H2998 H 0.65433 0.6614 0.15215 0.0
H2999 H 0.63312 0.63545 0.15984 0.0
H3000 H 0.64804 0.62316 0.15944 0.0
H3001 H 0.63835 0.66526 0.14216 0.0
H3002 H 0.62575 0.64978 0.16962 0.0
H3003 H 0.60762 0.67431 0.15441 0.0
H3004 H 0.60417 0.67605 0.17478 0.0
H3005 H 0.60707 0.64258 0.16731 0.0
H3006 H 0.59348 0.63847 0.18035 0.0
H3007 H 0.63784 0.68475 0.13955 0.0
H3008 H 0.60549 0.67379 0.13499 0.0
H3009 H 0.59061 0.67192 0.1881 0.0
H3010 H 0.63661 0.69503 0.12329 0.0
H3011 H 0.60426 0.684 0.11872 0.0
C3012 C 0.15972 0.86807 0.86282 0.0
C3013 C 0.15826 0.87885 0.86032 0.0
C3014 C 0.15109 0.86099 0.86252 0.0
C3015 C 0.14083 0.86456 0.85977 0.0
C3016 C 0.13942 0.87536 0.8573 0.0
C3017 C 0.14803 0.8824 0.85753 0.0
C3018 C 0.13153 0.85719 0.85968 0.0
C3019 C 0.13026 0.84958 0.86765 0.0
C3020 C 0.12111 0.84308 0.86799 0.0
C3021 C 0.11314 0.8443 0.86022 0.0
C3022 C 0.11427 0.85193 0.85223 0.0
C3023 C 0.12357 0.85817 0.85193 0.0
C3024 C 0.10569 0.8538 0.84434 0.0
C3025 C 0.10066 0.8453 0.83899 0.0
C3026 C 0.10285 0.86428 0.84176 0.0
C3027 C 0.09558 0.86625 0.83365 0.0
C3028 C 0.09094 0.8578 0.82792 0.0
C3029 C 0.11968 0.83559 0.87692 0.0
C3030 C 0.12834 0.8296 0.88068 0.0
C3031 C 0.10988 0.83496 0.88226 0.0
C3032 C 0.1089 0.82888 0.89142 0.0
C3033 C 0.11771 0.82327 0.89545 0.0
C3034 C 0.12737 0.82352 0.88984 0.0
C3035 C 0.09334 0.84729 0.83084 0.0
H3036 H 0.16753 0.8651 0.86494 0.0
H3037 H 0.15247 0.8527 0.86436 0.0
H3038 H 0.1316 0.87847 0.85539 0.0
H3039 H 0.14661 0.89071 0.85578 0.0
H3040 H 0.13617 0.84905 0.87389 0.0
H3041 H 0.12459 0.86385 0.84561 0.0
H3042 H 0.10598 0.83947 0.8605 0.0
H3043 H 0.10271 0.83715 0.84082 0.0
H3044 H 0.10639 0.871 0.84591 0.0
H3045 H 0.09371 0.87443 0.83174 0.0
H3046 H 0.13596 0.82981 0.87667 0.0
H3047 H 0.10307 0.83953 0.87962 0.0
H3048 H 0.0899 0.84061 0.82654 0.0
H3049 H 0.13433 0.81937 0.89275 0.0
H3050 H 0.10131 0.82874 0.89547 0.0
C3051 C 0.85465 0.85402 0.64415 0.0
C3052 C 0.85442 0.85593 0.6332 0.0
C3053 C 0.85459 0.86252 0.65139 0.0
C3054 C 0.85418 0.87307 0.64782 0.0
C3055 C 0.85371 0.87496 0.63688 0.0
C3056 C 0.85387 0.86649 0.62965 0.0
C3057 C 0.85468 0.88214 0.65543 0.0
C3058 C 0.86231 0.88224 0.66357 0.0
C3059 C 0.86339 0.8911 0.67036 0.0
C3060 C 0.85661 0.8999 0.66901 0.0
C3061 C 0.84886 0.8999 0.66094 0.0
C3062 C 0.84794 0.89095 0.65422 0.0
C3063 C 0.84189 0.90932 0.65927 0.0
C3064 C 0.83736 0.91481 0.6679 0.0
C3065 C 0.83963 0.91281 0.64897 0.0
C3066 C 0.83287 0.92145 0.64731 0.0
C3067 C 0.82823 0.92689 0.65591 0.0
C3068 C 0.8721 0.89134 0.67836 0.0
C3069 C 0.87442 0.88226 0.68436 0.0
C3070 C 0.87865 0.90037 0.6795 0.0
C3071 C 0.88759 0.90016 0.68613 0.0
C3072 C 0.89018 0.89092 0.69178 0.0
C3073 C 0.88335 0.88206 0.691 0.0
C3074 C 0.8306 0.9235 0.66624 0.0
H3075 H 0.85513 0.84597 0.64711 0.0
H3076 H 0.8549 0.86083 0.65978 0.0
H3077 H 0.85349 0.88302 0.6339 0.0
H3078 H 0.85359 0.86819 0.62126 0.0
H3079 H 0.86777 0.8756 0.66429 0.0
H3080 H 0.84192 0.8908 0.64806 0.0
H3081 H 0.8575 0.90681 0.67414 0.0
H3082 H 0.83889 0.91229 0.67594 0.0
H3083 H 0.8431 0.90886 0.64214 0.0
H3084 H 0.83113 0.92375 0.63924 0.0
H3085 H 0.86943 0.87524 0.68378 0.0
H3086 H 0.87714 0.90745 0.67489 0.0
H3087 H 0.82724 0.92757 0.67305 0.0
H3088 H 0.88499 0.87488 0.69541 0.0
H3089 H 0.89274 0.90708 0.68644 0.0
C3090 C 0.86966 0.15702 0.34571 0.0
C3091 C 0.88041 0.15991 0.34718 0.0
C3092 C 0.86252 0.15736 0.3542 0.0
C3093 C 0.86595 0.16061 0.36433 0.0
C3094 C 0.87665 0.1637 0.36573 0.0
C3095 C 0.88377 0.16339 0.35726 0.0
C3096 C 0.8586 0.16032 0.37355 0.0
C3097 C 0.85163 0.15168 0.3749 0.0
C3098 C 0.8453 0.15084 0.38404 0.0
C3099 C 0.84601 0.15883 0.3919 0.0
C3100 C 0.85297 0.16752 0.39071 0.0
C3101 C 0.85906 0.16828 0.38142 0.0
C3102 C 0.85443 0.1755 0.39938 0.0
C3103 C 0.8457 0.1794 0.40521 0.0
C3104 C 0.86471 0.17923 0.40192 0.0
C3105 C 0.86621 0.1868 0.40993 0.0
C3106 C 0.8575 0.19082 0.41566 0.0
C3107 C 0.83869 0.14115 0.38565 0.0
C3108 C 0.83302 0.13654 0.37715 0.0
C3109 C 0.83869 0.13598 0.39547 0.0
C3110 C 0.83357 0.12617 0.39662 0.0
C3111 C 0.82836 0.12129 0.38797 0.0
C3112 C 0.82791 0.12672 0.37829 0.0
C3113 C 0.84722 0.18698 0.41328 0.0
H3114 H 0.86682 0.15423 0.33807 0.0
H3115 H 0.85431 0.15502 0.35283 0.0
H3116 H 0.87961 0.16612 0.37345 0.0
H3117 H 0.89195 0.16582 0.35863 0.0
H3118 H 0.85156 0.14529 0.36909 0.0
H3119 H 0.86427 0.17507 0.38033 0.0
H3120 H 0.84136 0.15812 0.39908 0.0
H3121 H 0.83767 0.17674 0.4034 0.0
H3122 H 0.87165 0.1762 0.39779 0.0
H3123 H 0.87426 0.18943 0.41172 0.0
H3124 H 0.83275 0.14039 0.36952 0.0
H3125 H 0.84304 0.13926 0.40216 0.0
H3126 H 0.84034 0.18998 0.41753 0.0
H3127 H 0.82402 0.12317 0.37145 0.0
H3128 H 0.83393 0.12227 0.40422 0.0
C3129 C 0.66001 0.1538 0.1343 0.0
C3130 C 0.65688 0.16363 0.13867 0.0
C3131 C 0.66024 0.14467 0.1405 0.0
C3132 C 0.65739 0.14514 0.15126 0.0
C3133 C 0.6544 0.15501 0.15568 0.0
C3134 C 0.65412 0.16415 0.14944 0.0
C3135 C 0.65727 0.13531 0.15774 0.0
C3136 C 0.66522 0.12756 0.15646 0.0
C3137 C 0.66484 0.11795 0.16204 0.0
C3138 C 0.65651 0.11624 0.16926 0.0
C3139 C 0.64848 0.12393 0.17071 0.0
C3140 C 0.64894 0.13341 0.16488 0.0
C3141 C 0.63921 0.12192 0.17776 0.0
C3142 C 0.63422 0.11189 0.17788 0.0
C3143 C 0.6348 0.13023 0.18386 0.0
C3144 C 0.62536 0.12872 0.18949 0.0
C3145 C 0.62011 0.11882 0.18923 0.0
C3146 C 0.67303 0.10964 0.15999 0.0
C3147 C 0.67625 0.10743 0.14955 0.0
C3148 C 0.67788 0.1041 0.16834 0.0
C3149 C 0.68608 0.0968 0.16629 0.0
C3150 C 0.68956 0.09492 0.15586 0.0
C3151 C 0.68441 0.10017 0.14751 0.0
C3152 C 0.62481 0.11035 0.18357 0.0
H3153 H 0.66202 0.15311 0.12598 0.0
H3154 H 0.66239 0.13717 0.13679 0.0
H3155 H 0.6523 0.15568 0.16397 0.0
H3156 H 0.65179 0.17164 0.15307 0.0
H3157 H 0.67179 0.12905 0.15111 0.0
H3158 H 0.64253 0.13916 0.16556 0.0
H3159 H 0.65617 0.10884 0.17359 0.0
H3160 H 0.63735 0.10532 0.17323 0.0
H3161 H 0.63853 0.13801 0.18409 0.0
H3162 H 0.62196 0.13545 0.19369 0.0
H3163 H 0.67249 0.11137 0.14292 0.0
H3164 H 0.67559 0.10567 0.17646 0.0
H3165 H 0.62108 0.10257 0.18334 0.0
H3166 H 0.68673 0.09872 0.13937 0.0
H3167 H 0.68993 0.09292 0.17289 0.0
C3168 C 0.62776 0.84827 0.86328 0.0
C3169 C 0.63084 0.85151 0.85312 0.0
C3170 C 0.63498 0.84864 0.87169 0.0
C3171 C 0.64552 0.85216 0.87015 0.0
C3172 C 0.64864 0.8553 0.85994 0.0
C3173 C 0.64135 0.85503 0.85153 0.0
C3174 C 0.65304 0.85282 0.87929 0.0
C3175 C 0.6527 0.84512 0.88728 0.0
C3176 C 0.65888 0.8462 0.89652 0.0
C3177 C 0.6659 0.85488 0.89751 0.0
C3178 C 0.66658 0.86254 0.88947 0.0
C3179 C 0.66009 0.86146 0.88042 0.0
C3180 C 0.67363 0.87199 0.89072 0.0
C3181 C 0.67408 0.87762 0.90038 0.0
C3182 C 0.67963 0.8757 0.88212 0.0
C3183 C 0.68577 0.88495 0.88309 0.0
C3184 C 0.68603 0.89072 0.89267 0.0
C3185 C 0.65752 0.83849 0.9053 0.0
C3186 C 0.64727 0.8348 0.90788 0.0
C3187 C 0.66631 0.83475 0.91113 0.0
C3188 C 0.66487 0.82732 0.91921 0.0
C3189 C 0.65462 0.82346 0.92156 0.0
C3190 C 0.64585 0.82735 0.91587 0.0
C3191 C 0.6802 0.88689 0.90134 0.0
H3192 H 0.61966 0.84573 0.8648 0.0
H3193 H 0.63219 0.84641 0.87947 0.0
H3194 H 0.65671 0.85793 0.85844 0.0
H3195 H 0.64394 0.85752 0.84376 0.0
H3196 H 0.64753 0.83826 0.88633 0.0
H3197 H 0.66019 0.86763 0.87448 0.0
H3198 H 0.67069 0.8558 0.90461 0.0
H3199 H 0.66948 0.87503 0.90713 0.0
H3200 H 0.67952 0.87148 0.8746 0.0
H3201 H 0.69009 0.88774 0.87623 0.0
H3202 H 0.64029 0.83772 0.90376 0.0
H3203 H 0.67431 0.8374 0.9093 0.0
H3204 H 0.68032 0.89109 0.90886 0.0
H3205 H 0.63784 0.8247 0.91766 0.0
H3206 H 0.67178 0.82442 0.92345 0.0
C3207 C 0.85841 0.15813 0.87018 0.0
C3208 C 0.85672 0.15604 0.88096 0.0
C3209 C 0.85785 0.14991 0.86266 0.0
C3210 C 0.85564 0.13941 0.86576 0.0
C3211 C 0.85379 0.13737 0.87653 0.0
C3212 C 0.8543 0.14559 0.88403 0.0
C3213 C 0.85564 0.13052 0.85789 0.0
C3214 C 0.86343 0.13006 0.84994 0.0
C3215 C 0.86391 0.1214 0.84283 0.0
C3216 C 0.85642 0.11312 0.84372 0.0
C3217 C 0.84858 0.11344 0.85164 0.0
C3218 C 0.8482 0.12221 0.85862 0.0
C3219 C 0.84089 0.10455 0.85287 0.0
C3220 C 0.83546 0.10025 0.84407 0.0
C3221 C 0.83873 0.10051 0.86298 0.0
C3222 C 0.83114 0.0925 0.86431 0.0
C3223 C 0.82549 0.08837 0.85556 0.0
C3224 C 0.87268 0.12081 0.83498 0.0
C3225 C 0.87569 0.12989 0.82929 0.0
C3226 C 0.87862 0.11141 0.83369 0.0
C3227 C 0.88767 0.11124 0.82725 0.0
C3228 C 0.89096 0.12047 0.82193 0.0
C3229 C 0.88471 0.12972 0.82283 0.0
C3230 C 0.82779 0.09227 0.84541 0.0
H3231 H 0.86017 0.16613 0.86756 0.0
H3232 H 0.85915 0.15178 0.85441 0.0
H3233 H 0.85226 0.12936 0.87923 0.0
H3234 H 0.85314 0.14368 0.8923 0.0
H3235 H 0.86946 0.13624 0.84957 0.0
H3236 H 0.84203 0.12257 0.8646 0.0
H3237 H 0.85681 0.10634 0.83836 0.0
H3238 H 0.83694 0.10325 0.8362 0.0
H3239 H 0.84288 0.10358 0.86989 0.0
H3240 H 0.82948 0.08974 0.87224 0.0
H3241 H 0.87116 0.1372 0.83 0.0
H3242 H 0.87656 0.10431 0.83805 0.0
H3243 H 0.82361 0.08919 0.83852 0.0
H3244 H 0.88689 0.1369 0.81868 0.0
H3245 H 0.89236 0.10402 0.82682 0.0
C3246 C 0.63111 0.16322 0.65272 0.0
C3247 C 0.63454 0.16062 0.66297 0.0
C3248 C 0.63833 0.16351 0.64434 0.0
C3249 C 0.64918 0.16125 0.646 0.0
C3250 C 0.65267 0.15887 0.65631 0.0
C3251 C 0.64542 0.15853 0.6647 0.0
C3252 C 0.65668 0.16093 0.6369 0.0
C3253 C 0.65574 0.1683 0.62867 0.0
C3254 C 0.66206 0.16746 0.61953 0.0
C3255 C 0.66967 0.15929 0.61881 0.0
C3256 C 0.67081 0.15187 0.62702 0.0
C3257 C 0.6643 0.15279 0.63603 0.0
C3258 C 0.6781 0.14261 0.62591 0.0
C3259 C 0.67847 0.13675 0.61639 0.0
C3260 C 0.6841 0.13907 0.63461 0.0
C3261 C 0.68994 0.12963 0.63396 0.0
C3262 C 0.68993 0.1235 0.62459 0.0
C3263 C 0.66021 0.1748 0.61057 0.0
C3264 C 0.64974 0.17709 0.60734 0.0
C3265 C 0.66876 0.17968 0.60532 0.0
C3266 C 0.66684 0.18693 0.59717 0.0
C3267 C 0.65633 0.18933 0.59406 0.0
C3268 C 0.64783 0.18425 0.59918 0.0
C3269 C 0.68432 0.1273 0.61574 0.0
H3270 H 0.62276 0.16468 0.65108 0.0
H3271 H 0.63532 0.16515 0.63648 0.0
H3272 H 0.66099 0.15723 0.65789 0.0
H3273 H 0.64831 0.15661 0.67254 0.0
H3274 H 0.65 0.17472 0.62933 0.0
H3275 H 0.66476 0.14679 0.64213 0.0
H3276 H 0.6745 0.15853 0.61174 0.0
H3277 H 0.67384 0.13917 0.60958 0.0
H3278 H 0.6841 0.14351 0.64201 0.0
H3279 H 0.69433 0.12702 0.64087 0.0
H3280 H 0.64299 0.17334 0.61114 0.0
H3281 H 0.67691 0.17808 0.60766 0.0
H3282 H 0.68402 0.12271 0.60844 0.0
H3283 H 0.63964 0.18602 0.59708 0.0
H3284 H 0.67356 0.19066 0.59331 0.0
C3285 C 0.66019 0.86361 0.38044 0.0
C3286 C 0.65786 0.85336 0.3765 0.0
C3287 C 0.66 0.8724 0.37374 0.0
C3288 C 0.65752 0.87115 0.36294 0.0
C3289 C 0.65539 0.86087 0.35896 0.0
C3290 C 0.65554 0.85208 0.36567 0.0
C3291 C 0.65678 0.88061 0.35595 0.0
C3292 C 0.66408 0.88904 0.35701 0.0
C3293 C 0.66302 0.89831 0.35093 0.0
C3294 C 0.65465 0.89896 0.34353 0.0
C3295 C 0.64731 0.89056 0.3423 0.0
C3296 C 0.64845 0.88143 0.34855 0.0
C3297 C 0.63809 0.89149 0.33494 0.0
C3298 C 0.63221 0.90099 0.33441 0.0
C3299 C 0.63476 0.8827 0.32879 0.0
C3300 C 0.62559 0.8833 0.32251 0.0
C3301 C 0.61953 0.8927 0.32224 0.0
C3302 C 0.67043 0.90743 0.35263 0.0
C3303 C 0.6735 0.91043 0.36295 0.0
C3304 C 0.67443 0.91324 0.34404 0.0
C3305 C 0.68137 0.92183 0.34574 0.0
C3306 C 0.68444 0.92481 0.35607 0.0
C3307 C 0.68042 0.919 0.36464 0.0
C3308 C 0.62304 0.90159 0.32813 0.0
H3309 H 0.66185 0.86489 0.38877 0.0
H3310 H 0.6615 0.88022 0.37712 0.0
H3311 H 0.65361 0.85961 0.35064 0.0
H3312 H 0.65386 0.84427 0.36237 0.0
H3313 H 0.67064 0.88838 0.36255 0.0
H3314 H 0.64255 0.87514 0.34798 0.0
H3315 H 0.65373 0.90609 0.33886 0.0
H3316 H 0.6345 0.90788 0.33911 0.0
H3317 H 0.63917 0.8753 0.32894 0.0
H3318 H 0.62306 0.87628 0.31814 0.0
H3319 H 0.67046 0.90623 0.36975 0.0
H3320 H 0.67229 0.91108 0.33599 0.0
H3321 H 0.61864 0.909 0.32799 0.0
H3322 H 0.68272 0.92097 0.37269 0.0
H3323 H 0.68425 0.92619 0.33896 0.0
C3324 C 0.87319 0.85529 0.1621 0.0
C3325 C 0.8838 0.85269 0.15964 0.0
C3326 C 0.86545 0.85569 0.15411 0.0
C3327 C 0.86817 0.85359 0.14349 0.0
C3328 C 0.8788 0.85095 0.14109 0.0
C3329 C 0.8865 0.85046 0.14907 0.0
C3330 C 0.86008 0.85439 0.13489 0.0
C3331 C 0.8524 0.86254 0.13505 0.0
C3332 C 0.84509 0.86369 0.12667 0.0
C3333 C 0.84548 0.85653 0.11805 0.0
C3334 C 0.85315 0.84841 0.11773 0.0
C3335 C 0.86031 0.84732 0.12621 0.0
C3336 C 0.85407 0.84128 0.10836 0.0
C3337 C 0.84508 0.83608 0.10411 0.0
C3338 C 0.86409 0.83951 0.1037 0.0
C3339 C 0.86513 0.83261 0.09505 0.0
C3340 C 0.8562 0.82723 0.09091 0.0
C3341 C 0.83753 0.87279 0.12671 0.0
C3342 C 0.83221 0.87579 0.13605 0.0
C3343 C 0.83607 0.87894 0.11757 0.0
C3344 C 0.82975 0.8881 0.11788 0.0
C3345 C 0.82472 0.8913 0.12732 0.0
C3346 C 0.82587 0.88493 0.13635 0.0
C3347 C 0.84615 0.82904 0.09551 0.0
H3348 H 0.87087 0.85697 0.1702 0.0
H3349 H 0.85732 0.8576 0.15628 0.0
H3350 H 0.88126 0.84952 0.13299 0.0
H3351 H 0.89465 0.84861 0.14692 0.0
H3352 H 0.85243 0.8683 0.14148 0.0
H3353 H 0.86607 0.8409 0.12604 0.0
H3354 H 0.83997 0.85742 0.11149 0.0
H3355 H 0.83728 0.83728 0.10757 0.0
H3356 H 0.87113 0.8435 0.10677 0.0
H3357 H 0.87298 0.8313 0.09174 0.0
H3358 H 0.83304 0.87113 0.14318 0.0
H3359 H 0.84017 0.87692 0.11029 0.0
H3360 H 0.83913 0.82504 0.09244 0.0
H3361 H 0.82195 0.88707 0.1437 0.0
H3362 H 0.82915 0.89289 0.11082 0.0
C3363 C 0.12845 0.66171 0.14983 0.0
C3364 C 0.13081 0.65776 0.15994 0.0
C3365 C 0.13638 0.66257 0.14218 0.0
C3366 C 0.14695 0.65962 0.14445 0.0
C3367 C 0.14939 0.65586 0.15463 0.0
C3368 C 0.1414 0.65495 0.1623 0.0
C3369 C 0.15521 0.66016 0.13603 0.0
C3370 C 0.15513 0.66854 0.12877 0.0
C3371 C 0.16195 0.66853 0.11997 0.0
C3372 C 0.1694 0.66025 0.11879 0.0
C3373 C 0.16979 0.65188 0.12613 0.0
C3374 C 0.16263 0.65191 0.1347 0.0
C3375 C 0.17699 0.64261 0.12447 0.0
C3376 C 0.17828 0.63809 0.11433 0.0
C3377 C 0.18197 0.6377 0.13314 0.0
C3378 C 0.18764 0.62822 0.13178 0.0
C3379 C 0.18852 0.62344 0.12172 0.0
C3380 C 0.16072 0.67688 0.11179 0.0
C3381 C 0.15044 0.68012 0.10874 0.0
C3382 C 0.1696 0.68186 0.10719 0.0
C3383 C 0.1682 0.69021 0.10003 0.0
C3384 C 0.1579 0.69374 0.09741 0.0
C3385 C 0.14905 0.68847 0.10169 0.0
C3386 C 0.184 0.62864 0.11297 0.0
H3387 H 0.12042 0.66413 0.14778 0.0
H3388 H 0.13415 0.66534 0.13439 0.0
H3389 H 0.15746 0.6536 0.15666 0.0
H3390 H 0.14348 0.65182 0.17 0.0
H3391 H 0.14959 0.67507 0.12989 0.0
H3392 H 0.16245 0.6452 0.14002 0.0
H3393 H 0.17468 0.66018 0.11201 0.0
H3394 H 0.1745 0.6416 0.10748 0.0
H3395 H 0.18126 0.64106 0.14103 0.0
H3396 H 0.19095 0.62442 0.13871 0.0
H3397 H 0.14342 0.67626 0.11189 0.0
H3398 H 0.17762 0.67954 0.10938 0.0
H3399 H 0.18467 0.62527 0.10507 0.0
H3400 H 0.14102 0.69087 0.09963 0.0
H3401 H 0.17516 0.69416 0.09684 0.0
C3402 C 0.15804 0.36164 0.88099 0.0
C3403 C 0.15545 0.35158 0.87677 0.0
C3404 C 0.15825 0.37059 0.87451 0.0
C3405 C 0.15592 0.36969 0.86364 0.0
C3406 C 0.15351 0.35957 0.85939 0.0
C3407 C 0.15325 0.35063 0.86588 0.0
C3408 C 0.15567 0.37931 0.85686 0.0
C3409 C 0.1632 0.38749 0.8583 0.0
C3410 C 0.16266 0.39687 0.85234 0.0
C3411 C 0.15457 0.39794 0.84469 0.0
C3412 C 0.147 0.38982 0.84309 0.0
C3413 C 0.14762 0.38055 0.84922 0.0
C3414 C 0.13806 0.39114 0.83547 0.0
C3415 C 0.13237 0.40076 0.83505 0.0
C3416 C 0.13474 0.38257 0.82902 0.0
C3417 C 0.12572 0.38347 0.82258 0.0
C3418 C 0.11979 0.39296 0.82245 0.0
C3419 C 0.1704 0.40562 0.85438 0.0
C3420 C 0.17308 0.40851 0.86484 0.0
C3421 C 0.17526 0.41105 0.84599 0.0
C3422 C 0.18281 0.41903 0.84801 0.0
C3423 C 0.18559 0.42181 0.85848 0.0
C3424 C 0.18057 0.41649 0.86686 0.0
C3425 C 0.12333 0.40165 0.82862 0.0
H3426 H 0.15962 0.36266 0.88937 0.0
H3427 H 0.15995 0.37828 0.8781 0.0
H3428 H 0.15185 0.35856 0.85102 0.0
H3429 H 0.15136 0.34295 0.86238 0.0
H3430 H 0.16956 0.38652 0.86402 0.0
H3431 H 0.14154 0.37447 0.84834 0.0
H3432 H 0.15407 0.40518 0.84011 0.0
H3433 H 0.13467 0.40748 0.83998 0.0
H3434 H 0.13903 0.37509 0.82908 0.0
H3435 H 0.12317 0.3766 0.81799 0.0
H3436 H 0.16937 0.40457 0.87148 0.0
H3437 H 0.17339 0.40897 0.83785 0.0
H3438 H 0.11901 0.40911 0.8286 0.0
H3439 H 0.18262 0.41834 0.87501 0.0
H3440 H 0.18647 0.42304 0.84139 0.0
C3441 C 0.37432 0.35745 0.65978 0.0
C3442 C 0.38486 0.3548 0.65703 0.0
C3443 C 0.36621 0.35717 0.65214 0.0
C3444 C 0.36846 0.35428 0.64159 0.0
C3445 C 0.37896 0.35143 0.63894 0.0
C3446 C 0.38703 0.35162 0.64656 0.0
C3447 C 0.36005 0.35462 0.63325 0.0
C3448 C 0.35255 0.36292 0.63309 0.0
C3449 C 0.34519 0.36382 0.62474 0.0
C3450 C 0.34539 0.35629 0.61642 0.0
C3451 C 0.35282 0.34794 0.61644 0.0
C3452 C 0.35996 0.34706 0.62498 0.0
C3453 C 0.35358 0.34041 0.60731 0.0
C3454 C 0.34438 0.33618 0.60245 0.0
C3455 C 0.36363 0.3374 0.60339 0.0
C3456 C 0.36448 0.33025 0.59493 0.0
C3457 C 0.35532 0.32593 0.59011 0.0
C3458 C 0.33776 0.37302 0.62444 0.0
C3459 C 0.3324 0.37635 0.63365 0.0
C3460 C 0.33639 0.37884 0.61509 0.0
C3461 C 0.33004 0.38797 0.61502 0.0
C3462 C 0.32489 0.39148 0.62429 0.0
C3463 C 0.32602 0.38546 0.63357 0.0
C3464 C 0.34524 0.329 0.59395 0.0
H3465 H 0.37238 0.35999 0.66775 0.0
H3466 H 0.35819 0.35929 0.6545 0.0
H3467 H 0.38105 0.3493 0.63088 0.0
H3468 H 0.395 0.34934 0.64419 0.0
H3469 H 0.35277 0.36901 0.63922 0.0
H3470 H 0.36552 0.34048 0.62515 0.0
H3471 H 0.33989 0.35708 0.60984 0.0
H3472 H 0.33653 0.3383 0.60532 0.0
H3473 H 0.37087 0.34063 0.60684 0.0
H3474 H 0.37237 0.32796 0.59229 0.0
H3475 H 0.3332 0.37194 0.64094 0.0
H3476 H 0.34053 0.37655 0.60791 0.0
H3477 H 0.33802 0.32589 0.59036 0.0
H3478 H 0.32201 0.38782 0.6408 0.0
H3479 H 0.32948 0.39249 0.60778 0.0
C3480 C 0.1576 0.65127 0.6332 0.0
C3481 C 0.15624 0.66162 0.6373 0.0
C3482 C 0.15816 0.64257 0.63997 0.0
C3483 C 0.1573 0.64402 0.65098 0.0
C3484 C 0.15596 0.65436 0.65509 0.0
C3485 C 0.15551 0.66309 0.64831 0.0
C3486 C 0.1576 0.63468 0.65808 0.0
C3487 C 0.1653 0.62674 0.6566 0.0
C3488 C 0.16526 0.61751 0.66278 0.0
C3489 C 0.15747 0.61634 0.67067 0.0
C3490 C 0.14959 0.62419 0.6722 0.0
C3491 C 0.14982 0.63339 0.66591 0.0
C3492 C 0.14053 0.62245 0.67959 0.0
C3493 C 0.13563 0.6124 0.68022 0.0
C3494 C 0.1361 0.63101 0.68533 0.0
C3495 C 0.12665 0.62971 0.69102 0.0
C3496 C 0.12144 0.6198 0.69118 0.0
C3497 C 0.17309 0.60894 0.66055 0.0
C3498 C 0.17502 0.60576 0.65004 0.0
C3499 C 0.17888 0.60411 0.66874 0.0
C3500 C 0.18674 0.59654 0.66641 0.0
C3501 C 0.18891 0.59363 0.65584 0.0
C3502 C 0.1828 0.59819 0.64772 0.0
C3503 C 0.12623 0.61109 0.68599 0.0
H3504 H 0.15828 0.64992 0.62475 0.0
H3505 H 0.1591 0.63468 0.63657 0.0
H3506 H 0.15531 0.65568 0.66355 0.0
H3507 H 0.1544 0.67098 0.65167 0.0
H3508 H 0.17136 0.62775 0.65058 0.0
H3509 H 0.14358 0.6393 0.66669 0.0
H3510 H 0.15737 0.60918 0.67539 0.0
H3511 H 0.13874 0.60564 0.67586 0.0
H3512 H 0.13977 0.63882 0.68516 0.0
H3513 H 0.12319 0.63662 0.69488 0.0
H3514 H 0.17051 0.60918 0.64357 0.0
H3515 H 0.17756 0.60644 0.67691 0.0
H3516 H 0.12255 0.60329 0.68611 0.0
H3517 H 0.18407 0.59594 0.63952 0.0
H3518 H 0.19134 0.59322 0.67285 0.0
C3519 C 0.35731 0.35299 0.14524 0.0
C3520 C 0.35526 0.3545 0.1344 0.0
C3521 C 0.35713 0.3616 0.15232 0.0
C3522 C 0.35491 0.37194 0.14874 0.0
C3523 C 0.35266 0.3734 0.13793 0.0
C3524 C 0.3528 0.36479 0.13087 0.0
C3525 C 0.35533 0.38124 0.15611 0.0
C3526 C 0.36343 0.38205 0.16377 0.0
C3527 C 0.36435 0.39112 0.1703 0.0
C3528 C 0.35706 0.39952 0.16907 0.0
C3529 C 0.34888 0.39886 0.16145 0.0
C3530 C 0.34801 0.38962 0.15513 0.0
C3531 C 0.34142 0.40789 0.15976 0.0
C3532 C 0.33715 0.41366 0.16835 0.0
C3533 C 0.33843 0.41072 0.14943 0.0
C3534 C 0.33113 0.4189 0.14772 0.0
C3535 C 0.32668 0.42451 0.1563 0.0
C3536 C 0.37334 0.39195 0.17794 0.0
C3537 C 0.37625 0.38314 0.18408 0.0
C3538 C 0.37952 0.40128 0.17863 0.0
C3539 C 0.38868 0.40161 0.18497 0.0
C3540 C 0.39185 0.39263 0.19075 0.0
C3541 C 0.38539 0.38347 0.19041 0.0
C3542 C 0.32986 0.42191 0.16663 0.0
H3543 H 0.35932 0.34518 0.14822 0.0
H3544 H 0.35878 0.36018 0.16061 0.0
H3545 H 0.35104 0.38126 0.13486 0.0
H3546 H 0.35102 0.36622 0.12261 0.0
H3547 H 0.36934 0.3758 0.16433 0.0
H3548 H 0.34157 0.38893 0.14943 0.0
H3549 H 0.35786 0.40663 0.17394 0.0
H3550 H 0.33923 0.41163 0.17641 0.0
H3551 H 0.34177 0.40664 0.14261 0.0
H3552 H 0.32901 0.42087 0.13965 0.0
H3553 H 0.37155 0.3759 0.18384 0.0
H3554 H 0.37754 0.40816 0.17392 0.0
H3555 H 0.32651 0.42606 0.1734 0.0
H3556 H 0.38749 0.37649 0.19493 0.0
H3557 H 0.39354 0.40875 0.18496 0.0
C3558 C 0.60572 0.41458 0.12756 0.0
C3559 C 0.60319 0.4056 0.13362 0.0
C3560 C 0.61411 0.41422 0.12028 0.0
C3561 C 0.62003 0.40482 0.11884 0.0
C3562 C 0.61742 0.39583 0.12484 0.0
C3563 C 0.60912 0.39622 0.13216 0.0
C3564 C 0.62905 0.40438 0.11126 0.0
C3565 C 0.63668 0.41257 0.11106 0.0
C3566 C 0.64565 0.41181 0.10446 0.0
C3567 C 0.64684 0.40284 0.09783 0.0
C3568 C 0.63922 0.39462 0.09786 0.0
C3569 C 0.63035 0.39549 0.10457 0.0
C3570 C 0.64067 0.38494 0.09119 0.0
C3571 C 0.6438 0.38571 0.08055 0.0
C3572 C 0.63882 0.37482 0.09547 0.0
C3573 C 0.63999 0.36567 0.08924 0.0
C3574 C 0.64302 0.36641 0.07856 0.0
C3575 C 0.65409 0.42009 0.10504 0.0
C3576 C 0.65139 0.43094 0.1052 0.0
C3577 C 0.66485 0.41718 0.10603 0.0
C3578 C 0.67272 0.42495 0.10751 0.0
C3579 C 0.67001 0.43581 0.10796 0.0
C3580 C 0.65926 0.43871 0.1066 0.0
C3581 C 0.64491 0.37653 0.07428 0.0
H3582 H 0.60132 0.42193 0.12857 0.0
H3583 H 0.61592 0.42125 0.11572 0.0
H3584 H 0.62192 0.38851 0.12399 0.0
H3585 H 0.60728 0.38913 0.13663 0.0
H3586 H 0.63589 0.41929 0.11644 0.0
H3587 H 0.62438 0.38924 0.10457 0.0
H3588 H 0.6538 0.40215 0.09281 0.0
H3589 H 0.64522 0.39341 0.07702 0.0
H3590 H 0.63651 0.37396 0.10368 0.0
H3591 H 0.63835 0.35801 0.09275 0.0
H3592 H 0.64316 0.43341 0.10432 0.0
H3593 H 0.66715 0.40888 0.10608 0.0
H3594 H 0.64733 0.37735 0.0661 0.0
H3595 H 0.65691 0.447 0.10668 0.0
H3596 H 0.68088 0.4224 0.10869 0.0
C3597 C 0.90496 0.6195 0.62855 0.0
C3598 C 0.91037 0.60992 0.63049 0.0
C3599 C 0.89681 0.61992 0.62103 0.0
C3600 C 0.89384 0.61076 0.61526 0.0
C3601 C 0.89929 0.60118 0.61712 0.0
C3602 C 0.90748 0.60077 0.62466 0.0
C3603 C 0.88488 0.61123 0.60756 0.0
C3604 C 0.88376 0.62004 0.6009 0.0
C3605 C 0.87486 0.62106 0.59419 0.0
C3606 C 0.86711 0.61296 0.59403 0.0
C3607 C 0.86819 0.60398 0.60053 0.0
C3608 C 0.87711 0.60319 0.60725 0.0
C3609 C 0.85981 0.59562 0.60078 0.0
C3610 C 0.84898 0.59839 0.60148 0.0
C3611 C 0.86265 0.58481 0.60097 0.0
C3612 C 0.85487 0.57695 0.60215 0.0
C3613 C 0.84407 0.57972 0.60323 0.0
C3614 C 0.87366 0.63076 0.58763 0.0
C3615 C 0.87638 0.64079 0.59187 0.0
C3616 C 0.8701 0.63009 0.57707 0.0
C3617 C 0.86956 0.63924 0.57082 0.0
C3618 C 0.87262 0.6492 0.575 0.0
C3619 C 0.8759 0.64988 0.58563 0.0
C3620 C 0.84119 0.59052 0.60273 0.0
H3621 H 0.90683 0.62664 0.63305 0.0
H3622 H 0.89264 0.62737 0.61994 0.0
H3623 H 0.89725 0.59402 0.61272 0.0
H3624 H 0.91156 0.59329 0.62588 0.0
H3625 H 0.8899 0.62612 0.60091 0.0
H3626 H 0.87775 0.59652 0.61259 0.0
H3627 H 0.86017 0.61369 0.58896 0.0
H3628 H 0.84655 0.60666 0.60144 0.0
H3629 H 0.87093 0.58243 0.60035 0.0
H3630 H 0.85737 0.56872 0.6026 0.0
H3631 H 0.87889 0.64164 0.60004 0.0
H3632 H 0.86801 0.62248 0.57355 0.0
H3633 H 0.83292 0.59289 0.60344 0.0
H3634 H 0.87807 0.65748 0.58914 0.0
H3635 H 0.86704 0.63847 0.56264 0.0
C3636 C 0.61637 0.38813 0.61023 0.0
C3637 C 0.60685 0.38687 0.60444 0.0
C3638 C 0.61681 0.3949 0.61903 0.0
C3639 C 0.60774 0.40057 0.62231 0.0
C3640 C 0.59817 0.39925 0.61663 0.0
C3641 C 0.59773 0.39248 0.60777 0.0
C3642 C 0.60836 0.40781 0.63166 0.0
C3643 C 0.61724 0.41448 0.63307 0.0
C3644 C 0.61832 0.42089 0.64217 0.0
C3645 C 0.6103 0.42066 0.64991 0.0
C3646 C 0.60131 0.41407 0.64862 0.0
C3647 C 0.60036 0.40773 0.63942 0.0
C3648 C 0.59317 0.41334 0.65709 0.0
C3649 C 0.59627 0.41212 0.66771 0.0
C3650 C 0.58226 0.41341 0.65457 0.0
C3651 C 0.5746 0.41211 0.66248 0.0
C3652 C 0.57768 0.4106 0.67308 0.0
C3653 C 0.62802 0.42754 0.64367 0.0
C3654 C 0.63812 0.4233 0.64134 0.0
C3655 C 0.62729 0.43814 0.64725 0.0
C3656 C 0.63647 0.44442 0.64831 0.0
C3657 C 0.64656 0.44018 0.6459 0.0
C3658 C 0.64727 0.42954 0.64245 0.0
C3659 C 0.58862 0.41073 0.67561 0.0
H3660 H 0.62348 0.38375 0.60805 0.0
H3661 H 0.62425 0.39557 0.62337 0.0
H3662 H 0.59107 0.40358 0.61893 0.0
H3663 H 0.5903 0.39176 0.60343 0.0
H3664 H 0.62333 0.41475 0.627 0.0
H3665 H 0.59363 0.40238 0.63854 0.0
H3666 H 0.61113 0.42549 0.65703 0.0
H3667 H 0.60463 0.41189 0.66986 0.0
H3668 H 0.57964 0.41447 0.64646 0.0
H3669 H 0.56626 0.41228 0.66026 0.0
H3670 H 0.63896 0.41512 0.63869 0.0
H3671 H 0.6196 0.44163 0.64905 0.0
H3672 H 0.5913 0.40943 0.68365 0.0
H3673 H 0.65491 0.42607 0.64041 0.0
H3674 H 0.63568 0.45257 0.65106 0.0
C3675 C 0.37035 0.65661 0.84809 0.0
C3676 C 0.38141 0.657 0.84986 0.0
C3677 C 0.36325 0.6569 0.85661 0.0
C3678 C 0.36709 0.65773 0.86706 0.0
C3679 C 0.37815 0.65834 0.8688 0.0
C3680 C 0.38523 0.65794 0.86029 0.0
C3681 C 0.35966 0.65759 0.87617 0.0
C3682 C 0.35151 0.64995 0.87664 0.0
C3683 C 0.34493 0.64921 0.8856 0.0
C3684 C 0.3465 0.65634 0.89412 0.0
C3685 C 0.35458 0.66411 0.89374 0.0
C3686 C 0.36107 0.66468 0.8847 0.0
C3687 C 0.3565 0.67149 0.90282 0.0
C3688 C 0.34797 0.67628 0.90826 0.0
C3689 C 0.36699 0.67399 0.90595 0.0
C3690 C 0.36891 0.68133 0.91409 0.0
C3691 C 0.3604 0.68633 0.91936 0.0
C3692 C 0.33695 0.64049 0.88622 0.0
C3693 C 0.33063 0.63783 0.87737 0.0
C3694 C 0.33618 0.63424 0.89536 0.0
C3695 C 0.32962 0.62523 0.89547 0.0
C3696 C 0.32365 0.6223 0.88645 0.0
C3697 C 0.32405 0.62886 0.87749 0.0
C3698 C 0.3499 0.68362 0.91646 0.0
H3699 H 0.36719 0.65582 0.84013 0.0
H3700 H 0.35477 0.65648 0.85505 0.0
H3701 H 0.38134 0.65888 0.87676 0.0
H3702 H 0.39371 0.65836 0.86188 0.0
H3703 H 0.35063 0.64423 0.87022 0.0
H3704 H 0.36722 0.67073 0.88424 0.0
H3705 H 0.34155 0.65572 0.9011 0.0
H3706 H 0.3398 0.67459 0.90599 0.0
H3707 H 0.37374 0.67025 0.90211 0.0
H3708 H 0.37708 0.68308 0.91629 0.0
H3709 H 0.33093 0.6426 0.87027 0.0
H3710 H 0.34104 0.63601 0.90226 0.0
H3711 H 0.34318 0.6874 0.92033 0.0
H3712 H 0.3194 0.62694 0.87049 0.0
H3713 H 0.32959 0.62031 0.90246 0.0
C3714 C 0.12946 0.34393 0.36157 0.0
C3715 C 0.13244 0.34668 0.35124 0.0
C3716 C 0.13683 0.34449 0.36986 0.0
C3717 C 0.1474 0.34774 0.36801 0.0
C3718 C 0.15046 0.3502 0.35759 0.0
C3719 C 0.14304 0.34972 0.34931 0.0
C3720 C 0.15497 0.34909 0.37703 0.0
C3721 C 0.15472 0.34208 0.38563 0.0
C3722 C 0.16097 0.34396 0.39472 0.0
C3723 C 0.16786 0.35279 0.39498 0.0
C3724 C 0.1684 0.35977 0.38636 0.0
C3725 C 0.16193 0.35786 0.37744 0.0
C3726 C 0.17507 0.36954 0.3869 0.0
C3727 C 0.1749 0.37612 0.39595 0.0
C3728 C 0.18105 0.37274 0.37808 0.0
C3729 C 0.1864 0.3825 0.37816 0.0
C3730 C 0.18585 0.38932 0.38704 0.0
C3731 C 0.15981 0.33699 0.4041 0.0
C3732 C 0.14964 0.33354 0.40726 0.0
C3733 C 0.16875 0.33379 0.41001 0.0
C3734 C 0.16754 0.32719 0.4188 0.0
C3735 C 0.15736 0.32369 0.4219 0.0
C3736 C 0.14843 0.32696 0.41601 0.0
C3737 C 0.18022 0.38591 0.39601 0.0
H3738 H 0.12131 0.34173 0.36334 0.0
H3739 H 0.13411 0.34275 0.37778 0.0
H3740 H 0.15856 0.35257 0.35585 0.0
H3741 H 0.14558 0.35179 0.3414 0.0
H3742 H 0.14956 0.33516 0.38529 0.0
H3743 H 0.16192 0.36355 0.37104 0.0
H3744 H 0.17263 0.35438 0.40199 0.0
H3745 H 0.17026 0.37393 0.40282 0.0
H3746 H 0.18144 0.36775 0.37105 0.0
H3747 H 0.19083 0.38478 0.37119 0.0
H3748 H 0.14257 0.33599 0.40299 0.0
H3749 H 0.17669 0.33626 0.40776 0.0
H3750 H 0.1795 0.39101 0.40293 0.0
H3751 H 0.14049 0.32431 0.41807 0.0
H3752 H 0.17457 0.32489 0.42322 0.0
C3753 C 0.35917 0.65505 0.3713 0.0
C3754 C 0.35744 0.65236 0.38194 0.0
C3755 C 0.35817 0.64736 0.36327 0.0
C3756 C 0.35537 0.63682 0.36572 0.0
C3757 C 0.35344 0.6342 0.37635 0.0
C3758 C 0.35443 0.64187 0.38434 0.0
C3759 C 0.35482 0.62843 0.35735 0.0
C3760 C 0.36269 0.62777 0.34949 0.0
C3761 C 0.36274 0.61935 0.34206 0.0
C3762 C 0.35476 0.61148 0.34263 0.0
C3763 C 0.34691 0.61193 0.35055 0.0
C3764 C 0.34688 0.62057 0.35768 0.0
C3765 C 0.33914 0.6031 0.35191 0.0
C3766 C 0.33413 0.59817 0.34317 0.0
C3767 C 0.33669 0.59952 0.36214 0.0
C3768 C 0.32924 0.59144 0.36363 0.0
C3769 C 0.32407 0.58666 0.35494 0.0
C3770 C 0.37162 0.61846 0.33427 0.0
C3771 C 0.37602 0.62763 0.3297 0.0
C3772 C 0.37622 0.60852 0.33188 0.0
C3773 C 0.38523 0.60783 0.32541 0.0
C3774 C 0.38995 0.61706 0.32127 0.0
C3775 C 0.3851 0.62696 0.32334 0.0
C3776 C 0.32667 0.59 0.34467 0.0
H3777 H 0.36156 0.66305 0.36919 0.0
H3778 H 0.35962 0.64964 0.35515 0.0
H3779 H 0.35141 0.62614 0.37855 0.0
H3780 H 0.35289 0.63956 0.39243 0.0
H3781 H 0.36911 0.63355 0.34952 0.0
H3782 H 0.34068 0.62113 0.36362 0.0
H3783 H 0.35483 0.60483 0.3371 0.0
H3784 H 0.33581 0.60076 0.33519 0.0
H3785 H 0.34061 0.60292 0.36904 0.0
H3786 H 0.32758 0.58888 0.37163 0.0
H3787 H 0.37258 0.6354 0.3312 0.0
H3788 H 0.37313 0.60129 0.33531 0.0
H3789 H 0.32277 0.58647 0.33783 0.0
H3790 H 0.38853 0.63426 0.3204 0.0
H3791 H 0.3886 0.60005 0.32383 0.0
H3792 H 0.19469 0.43764 0.10939 0.0
H3793 H 0.17319 0.4645 0.10992 0.0
H3794 H 0.17968 0.42568 0.10673 0.0
H3795 H 0.15807 0.45243 0.10789 0.0
H3796 H 0.13363 0.42815 0.09579 0.0
H3797 H 0.14891 0.44024 0.09607 0.0
H3798 H 0.16547 0.41901 0.11723 0.0
H3799 H 0.15052 0.40675 0.1165 0.0
C3800 C 0.18677 0.44102 0.10884 0.0
C3801 C 0.18517 0.45206 0.1099 0.0
C3802 C 0.17813 0.43413 0.10747 0.0
C3803 C 0.16764 0.43806 0.10722 0.0
C3804 C 0.16604 0.44912 0.10798 0.0
C3805 C 0.17471 0.45604 0.10929 0.0
C3806 C 0.1406 0.42601 0.10038 0.0
C3807 C 0.14082 0.4165 0.10616 0.0
C3808 C 0.14931 0.433 0.10064 0.0
C3809 C 0.15843 0.4306 0.10666 0.0
C3810 C 0.15865 0.42105 0.11238 0.0
C3811 C 0.14999 0.41408 0.11209 0.0
H3812 H 0.81664 0.93617 0.40343 0.0
H3813 H 0.83733 0.96359 0.40642 0.0
H3814 H 0.83175 0.92451 0.40634 0.0
H3815 H 0.8526 0.95185 0.40868 0.0
H3816 H 0.87708 0.92771 0.42018 0.0
H3817 H 0.86141 0.93926 0.42002 0.0
H3818 H 0.84676 0.91887 0.39636 0.0
H3819 H 0.86206 0.90711 0.39695 0.0
C3820 C 0.82439 0.93974 0.40481 0.0
C3821 C 0.82574 0.95085 0.40464 0.0
C3822 C 0.8331 0.93302 0.40633 0.0
C3823 C 0.84343 0.93722 0.40761 0.0
C3824 C 0.84476 0.94834 0.40778 0.0
C3825 C 0.83601 0.95507 0.40634 0.0
C3826 C 0.87044 0.92563 0.41506 0.0
C3827 C 0.87086 0.91651 0.40853 0.0
C3828 C 0.86151 0.93231 0.41489 0.0
C3829 C 0.85281 0.93 0.40818 0.0
C3830 C 0.85322 0.92083 0.40174 0.0
C3831 C 0.86209 0.91415 0.40195 0.0
H3832 H 0.33823 0.55428 0.6251 0.0
H3833 H 0.34424 0.54405 0.59293 0.0
H3834 H 0.35125 0.56854 0.62321 0.0
H3835 H 0.35748 0.55829 0.59108 0.0
H3836 H 0.37015 0.59362 0.58981 0.0
H3837 H 0.35797 0.57841 0.59061 0.0
H3838 H 0.37087 0.57014 0.62118 0.0
H3839 H 0.38309 0.58518 0.62034 0.0
C3840 C 0.34232 0.55511 0.61761 0.0
C3841 C 0.3402 0.54807 0.60915 0.0
C3842 C 0.34986 0.5632 0.61656 0.0
C3843 C 0.35542 0.5645 0.60701 0.0
C3844 C 0.35327 0.5575 0.59851 0.0
C3845 C 0.34577 0.54932 0.5996 0.0
C3846 C 0.3705 0.58845 0.59661 0.0
C3847 C 0.37749 0.5907 0.60507 0.0
C3848 C 0.36352 0.57976 0.59708 0.0
C3849 C 0.36339 0.57317 0.60602 0.0
C3850 C 0.37064 0.5752 0.61428 0.0
C3851 C 0.37762 0.58384 0.6138 0.0
H3852 H 0.67763 0.05582 0.8887 0.0
H3853 H 0.66784 0.0442 0.91926 0.0
H3854 H 0.66518 0.07057 0.89037 0.0
H3855 H 0.65538 0.05905 0.92099 0.0
H3856 H 0.62639 0.08084 0.91444 0.0
H3857 H 0.63887 0.06595 0.91352 0.0
H3858 H 0.66283 0.08678 0.90048 0.0
H3859 H 0.65035 0.10159 0.90132 0.0
C3860 C 0.67289 0.05648 0.89583 0.0
C3861 C 0.67377 0.04887 0.90387 0.0
C3862 C 0.66575 0.06495 0.8968 0.0
C3863 C 0.65933 0.06604 0.90585 0.0
C3864 C 0.66013 0.05838 0.91386 0.0
C3865 C 0.66727 0.04988 0.91288 0.0
C3866 C 0.63436 0.08224 0.91148 0.0
C3867 C 0.63736 0.09237 0.90788 0.0
C3868 C 0.64152 0.07372 0.91096 0.0
C3869 C 0.65183 0.07515 0.90685 0.0
C3870 C 0.65488 0.08534 0.90348 0.0
C3871 C 0.64773 0.09384 0.90397 0.0
H3872 H 0.18029 0.55428 0.41663 0.0
H3873 H 0.1834 0.56695 0.38512 0.0
H3874 H 0.16413 0.56493 0.41931 0.0
H3875 H 0.16747 0.57766 0.38784 0.0
H3876 H 0.1334 0.58783 0.39172 0.0
H3877 H 0.14803 0.57519 0.39003 0.0
H3878 H 0.15947 0.58435 0.42108 0.0
H3879 H 0.14484 0.59709 0.42276 0.0
C3880 C 0.17749 0.5593 0.41028 0.0
C3881 C 0.18312 0.55983 0.40069 0.0
C3882 C 0.1683 0.56543 0.41184 0.0
C3883 C 0.16452 0.5721 0.40377 0.0
C3884 C 0.1701 0.57251 0.39415 0.0
C3885 C 0.1793 0.56647 0.39264 0.0
C3886 C 0.13902 0.58714 0.3982 0.0
C3887 C 0.13805 0.59357 0.40731 0.0
C3888 C 0.14739 0.57989 0.39723 0.0
C3889 C 0.15497 0.57888 0.40537 0.0
C3890 C 0.15371 0.58491 0.41471 0.0
C3891 C 0.14533 0.5922 0.41567 0.0
H3892 H 0.6743 0.96432 0.60561 0.0
H3893 H 0.69583 0.93748 0.606 0.0
H3894 H 0.65925 0.95219 0.60339 0.0
H3895 H 0.68091 0.92546 0.60316 0.0
H3896 H 0.65153 0.90688 0.61322 0.0
H3897 H 0.66656 0.91904 0.61362 0.0
H3898 H 0.65025 0.93971 0.59173 0.0
H3899 H 0.63488 0.92771 0.59175 0.0
C3900 C 0.67585 0.95585 0.60513 0.0
C3901 C 0.68629 0.9519 0.60608 0.0
C3902 C 0.66722 0.9489 0.60371 0.0
C3903 C 0.66885 0.93784 0.60318 0.0
C3904 C 0.67933 0.93393 0.60372 0.0
C3905 C 0.68793 0.94085 0.6052 0.0
C3906 C 0.65109 0.91406 0.60855 0.0
C3907 C 0.64195 0.91636 0.60254 0.0
C3908 C 0.65979 0.92097 0.60866 0.0
C3909 C 0.65965 0.93035 0.60268 0.0
C3910 C 0.65058 0.9326 0.59651 0.0
C3911 C 0.64182 0.92567 0.59643 0.0
H3912 H 0.35333 0.47562 0.90441 0.0
H3913 H 0.3274 0.45294 0.90315 0.0
H3914 H 0.36603 0.46106 0.90568 0.0
H3915 H 0.34002 0.43845 0.90514 0.0
H3916 H 0.36564 0.41476 0.89565 0.0
H3917 H 0.35304 0.42939 0.89503 0.0
H3918 H 0.37276 0.44743 0.91685 0.0
H3919 H 0.38574 0.43302 0.91693 0.0
C3920 C 0.35032 0.46754 0.90446 0.0
C3921 C 0.33932 0.46548 0.9036 0.0
C3922 C 0.35761 0.45918 0.90534 0.0
C3923 C 0.35407 0.44855 0.90548 0.0
C3924 C 0.34306 0.44652 0.90489 0.0
C3925 C 0.33578 0.45486 0.90391 0.0
C3926 C 0.36738 0.4219 0.90021 0.0
C3927 C 0.37677 0.42272 0.90628 0.0
C3928 C 0.36005 0.43024 0.89999 0.0
C3929 C 0.36184 0.43961 0.90592 0.0
C3930 C 0.37117 0.4404 0.91209 0.0
C3931 C 0.37856 0.43206 0.91225 0.0
H3932 H 0.8268 0.0605 0.10934 0.0
H3933 H 0.85321 0.03885 0.10492 0.0
H3934 H 0.8388 0.07553 0.1074 0.0
H3935 H 0.86535 0.05394 0.10366 0.0
H3936 H 0.8834 0.08345 0.09327 0.0
H3937 H 0.87081 0.06863 0.09301 0.0
H3938 H 0.85228 0.08424 0.11741 0.0
H3939 H 0.86446 0.09926 0.11722 0.0
C3940 C 0.83515 0.05892 0.10787 0.0
C3941 C 0.83902 0.04843 0.1073 0.0
C3942 C 0.84208 0.06757 0.10692 0.0
C3943 C 0.85307 0.06597 0.10547 0.0
C3944 C 0.85692 0.05548 0.10468 0.0
C3945 C 0.84997 0.04682 0.10556 0.0
C3946 C 0.87654 0.08379 0.09845 0.0
C3947 C 0.87497 0.09255 0.10529 0.0
C3948 C 0.86939 0.07523 0.0984 0.0
C3949 C 0.86052 0.07521 0.1052 0.0
C3950 C 0.85892 0.08402 0.11196 0.0
C3951 C 0.86602 0.09259 0.11197 0.0
H3952 H 0.11076 0.19284 0.43382 0.0
H3953 H 0.10954 0.17148 0.46043 0.0
H3954 H 0.10881 0.17782 0.42174 0.0
H3955 H 0.10823 0.15635 0.44827 0.0
H3956 H 0.09732 0.13198 0.42336 0.0
H3957 H 0.09705 0.14723 0.43549 0.0
H3958 H 0.1197 0.16354 0.41562 0.0
H3959 H 0.11954 0.14861 0.40329 0.0
C3960 C 0.10998 0.18495 0.43712 0.0
C3961 C 0.11034 0.18339 0.44812 0.0
C3962 C 0.10902 0.1763 0.43016 0.0
C3963 C 0.10849 0.16585 0.43401 0.0
C3964 C 0.10855 0.16429 0.44502 0.0
C3965 C 0.10945 0.17296 0.452 0.0
C3966 C 0.10214 0.13888 0.42153 0.0
C3967 C 0.10848 0.13905 0.41236 0.0
C3968 C 0.10207 0.14758 0.42854 0.0
C3969 C 0.10834 0.15663 0.42653 0.0
C3970 C 0.11465 0.15678 0.41735 0.0
C3971 C 0.11468 0.14813 0.41035 0.0
H3972 H 0.06003 0.9065 0.69047 0.0
H3973 H 0.0383 0.91022 0.66413 0.0
H3974 H 0.07506 0.90821 0.67853 0.0
H3975 H 0.05338 0.91124 0.65208 0.0
H3976 H 0.08293 0.92107 0.63388 0.0
H3977 H 0.06819 0.92178 0.64643 0.0
H3978 H 0.08363 0.89779 0.66538 0.0
H3979 H 0.09858 0.89755 0.65322 0.0
C3980 C 0.05843 0.90777 0.68214 0.0
C3981 C 0.04791 0.9082 0.67829 0.0
C3982 C 0.06708 0.90859 0.67526 0.0
C3983 C 0.06546 0.90976 0.66431 0.0
C3984 C 0.05495 0.91043 0.66047 0.0
C3985 C 0.04628 0.90969 0.66737 0.0
C3986 C 0.08326 0.91608 0.64082 0.0
C3987 C 0.09193 0.90922 0.6425 0.0
C3988 C 0.07474 0.91639 0.64795 0.0
C3989 C 0.07469 0.90982 0.65691 0.0
C3990 C 0.08344 0.90307 0.65865 0.0
C3991 C 0.09196 0.90281 0.65157 0.0
H3992 H 0.39012 0.83759 0.95106 0.0
H3993 H 0.42284 0.82826 0.94606 0.0
H3994 H 0.3928 0.85315 0.9401 0.0
H3995 H 0.42572 0.8441 0.93533 0.0
H3996 H 0.42212 0.86571 0.90603 0.0
H3997 H 0.42133 0.85108 0.91858 0.0
H3998 H 0.40084 0.86993 0.93885 0.0
H3999 H 0.4013 0.88431 0.92602 0.0
C4000 C 0.39796 0.839 0.94777 0.0
C4001 C 0.40627 0.83172 0.94941 0.0
C4002 C 0.39953 0.84796 0.94151 0.0
C4003 C 0.40951 0.84996 0.93683 0.0
C4004 C 0.4179 0.84276 0.93867 0.0
C4005 C 0.41627 0.8337 0.94483 0.0
C4006 C 0.41759 0.86674 0.91325 0.0
C4007 C 0.4117 0.87607 0.91504 0.0
C4008 C 0.41715 0.85838 0.92048 0.0
C4009 C 0.41091 0.85924 0.9297 0.0
C4010 C 0.40549 0.86885 0.93171 0.0
C4011 C 0.40581 0.87713 0.92441 0.0
H4012 H 0.46376 0.12254 0.17353 0.0
H4013 H 0.43865 0.10751 0.19139 0.0
H4014 H 0.4535 0.11991 0.15728 0.0
H4015 H 0.42821 0.10531 0.17525 0.0
H4016 H 0.41462 0.09572 0.14367 0.0
H4017 H 0.42707 0.096 0.15852 0.0
H4018 H 0.4376 0.12741 0.14951 0.0
H4019 H 0.42551 0.12691 0.1344 0.0
C4020 C 0.4561 0.11859 0.17398 0.0
C4021 C 0.452 0.1153 0.18377 0.0
C4022 C 0.45017 0.11719 0.16468 0.0
C4023 C 0.44 0.11246 0.16496 0.0
C4024 C 0.43605 0.10889 0.17471 0.0
C4025 C 0.44198 0.11028 0.184 0.0
C4026 C 0.41975 0.10259 0.14472 0.0
C4027 C 0.41901 0.11132 0.13788 0.0
C4028 C 0.4268 0.1028 0.15331 0.0
C4029 C 0.43327 0.11176 0.15527 0.0
C4030 C 0.4328 0.12034 0.1482 0.0
C4031 C 0.42577 0.12011 0.13961 0.0
H4032 H 0.10019 0.85441 0.04313 0.0
H4033 H 0.10414 0.828 0.06448 0.0
H4034 H 0.09935 0.8666 0.05821 0.0
H4035 H 0.10262 0.84007 0.07951 0.0
H4036 H 0.11394 0.86554 0.10283 0.0
H4037 H 0.11331 0.85323 0.08793 0.0
H4038 H 0.08903 0.87247 0.07312 0.0
H4039 H 0.09012 0.88517 0.08782 0.0
C4040 C 0.10079 0.85118 0.05103 0.0
C4041 C 0.10231 0.84021 0.05256 0.0
C4042 C 0.10016 0.85817 0.05969 0.0
C4043 C 0.10097 0.85434 0.0701 0.0
C4044 C 0.10214 0.84333 0.07162 0.0
C4045 C 0.10286 0.83637 0.06297 0.0
C4046 C 0.10853 0.86722 0.09636 0.0
C4047 C 0.10216 0.87641 0.09649 0.0
C4048 C 0.10805 0.86005 0.08787 0.0
C4049 C 0.10111 0.86182 0.07931 0.0
C4050 C 0.09456 0.87091 0.07952 0.0
C4051 C 0.09509 0.87813 0.08802 0.0
H4052 H 0.47509 0.90694 0.35136 0.0
H4053 H 0.45189 0.90495 0.32605 0.0
H4054 H 0.46072 0.90794 0.36425 0.0
H4055 H 0.43758 0.90667 0.33885 0.0
H4056 H 0.41492 0.89605 0.3647 0.0
H4057 H 0.42927 0.89612 0.35186 0.0
H4058 H 0.4467 0.91872 0.37128 0.0
H4059 H 0.43257 0.91814 0.3845 0.0
C4060 C 0.46694 0.90678 0.34853 0.0
C4061 C 0.46468 0.90578 0.33764 0.0
C4062 C 0.45869 0.90752 0.35592 0.0
C4063 C 0.44797 0.90734 0.35261 0.0
C4064 C 0.44572 0.90665 0.34171 0.0
C4065 C 0.45396 0.90583 0.33433 0.0
C4066 C 0.42186 0.90095 0.36631 0.0
C4067 C 0.42261 0.90701 0.3757 0.0
C4068 C 0.43004 0.90112 0.35885 0.0
C4069 C 0.43916 0.90745 0.3605 0.0
C4070 C 0.43985 0.91366 0.3698 0.0
C4071 C 0.43168 0.91343 0.37733 0.0
H4072 H 0.40245 0.17235 0.55203 0.0
H4073 H 0.41605 0.19141 0.57732 0.0
H4074 H 0.40545 0.15633 0.56232 0.0
H4075 H 0.41856 0.17545 0.58783 0.0
H4076 H 0.42764 0.1443 0.60253 0.0
H4077 H 0.42799 0.15884 0.58983 0.0
H4078 H 0.39729 0.14879 0.57772 0.0
H4079 H 0.39717 0.13405 0.59006 0.0
C4080 C 0.40621 0.17312 0.55973 0.0
C4081 C 0.40893 0.18319 0.56388 0.0
C4082 C 0.40781 0.16393 0.56568 0.0
C4083 C 0.41215 0.1646 0.57595 0.0
C4084 C 0.41528 0.17462 0.57992 0.0
C4085 C 0.41371 0.1838 0.57395 0.0
C4086 C 0.42109 0.14507 0.59699 0.0
C4087 C 0.41233 0.13808 0.59737 0.0
C4088 C 0.42123 0.15347 0.58979 0.0
C4089 C 0.41263 0.15504 0.58281 0.0
C4090 C 0.4041 0.14778 0.5829 0.0
C4091 C 0.40396 0.1394 0.59008 0.0
H4092 H 0.05496 0.12525 0.83548 0.0
H4093 H 0.04589 0.09279 0.84203 0.0
H4094 H 0.06932 0.12406 0.84844 0.0
H4095 H 0.06021 0.09166 0.8552 0.0
H4096 H 0.09543 0.09146 0.86797 0.0
H4097 H 0.08029 0.09171 0.85574 0.0
H4098 H 0.07111 0.12257 0.86793 0.0
H4099 H 0.08609 0.12229 0.88022 0.0
C4100 C 0.05606 0.11784 0.83967 0.0
C4101 C 0.04932 0.1091 0.83772 0.0
C4102 C 0.06422 0.1172 0.84718 0.0
C4103 C 0.06586 0.10779 0.85287 0.0
C4104 C 0.05916 0.099 0.85089 0.0
C4105 C 0.05093 0.09968 0.84343 0.0
C4106 C 0.09008 0.09822 0.86815 0.0
C4107 C 0.09205 0.10691 0.875 0.0
C4108 C 0.08142 0.09836 0.86114 0.0
C4109 C 0.07459 0.10721 0.86081 0.0
C4110 C 0.07637 0.11574 0.86786 0.0
C4111 C 0.08497 0.11557 0.87489 0.0
H4112 H 0.97354 0.402 0.85119 0.0
H4113 H 0.95067 0.40048 0.82555 0.0
H4114 H 0.95901 0.40287 0.8639 0.0
H4115 H 0.9362 0.40206 0.8382 0.0
H4116 H 0.91281 0.3922 0.86363 0.0
H4117 H 0.92743 0.39173 0.85108 0.0
H4118 H 0.94515 0.41388 0.87075 0.0
H4119 H 0.93076 0.41381 0.88367 0.0
C4120 C 0.96543 0.40189 0.84825 0.0
C4121 C 0.96331 0.40111 0.83733 0.0
C4122 C 0.95708 0.40255 0.85555 0.0
C4123 C 0.9464 0.40251 0.8521 0.0
C4124 C 0.9443 0.40194 0.84117 0.0
C4125 C 0.95264 0.4012 0.83388 0.0
C4126 C 0.91987 0.39687 0.86537 0.0
C4127 C 0.92061 0.40299 0.87472 0.0
C4128 C 0.92821 0.39673 0.85807 0.0
C4129 C 0.93749 0.4028 0.85986 0.0
C4130 C 0.93819 0.40901 0.86916 0.0
C4131 C 0.92987 0.40909 0.87651 0.0
H4132 H 0.91581 0.68074 0.06115 0.0
H4133 H 0.88267 0.68042 0.07038 0.0
H4134 H 0.91888 0.66456 0.07141 0.0
H4135 H 0.88577 0.66449 0.08076 0.0
H4136 H 0.89174 0.63099 0.09092 0.0
H4137 H 0.88999 0.64557 0.07844 0.0
H4138 H 0.91922 0.65943 0.09041 0.0
H4139 H 0.92098 0.64481 0.10292 0.0
C4140 C 0.90918 0.67717 0.06532 0.0
C4141 C 0.89901 0.68187 0.06501 0.0
C4142 C 0.91096 0.66797 0.07124 0.0
C4143 C 0.90256 0.66324 0.07688 0.0
C4144 C 0.89237 0.66786 0.07641 0.0
C4145 C 0.89063 0.67706 0.07056 0.0
C4146 C 0.89782 0.63713 0.09085 0.0
C4147 C 0.90642 0.63683 0.09801 0.0
C4148 C 0.89682 0.64548 0.08371 0.0
C4149 C 0.90438 0.65373 0.08354 0.0
C4150 C 0.91329 0.65316 0.0903 0.0
C4151 C 0.9143 0.64478 0.09747 0.0
H4152 H 0.55531 0.62781 0.33464 0.0
H4153 H 0.54567 0.5956 0.3416 0.0
H4154 H 0.56984 0.62642 0.34739 0.0
H4155 H 0.56016 0.59428 0.35456 0.0
H4156 H 0.59543 0.5934 0.36703 0.0
H4157 H 0.58021 0.59389 0.3549 0.0
H4158 H 0.57186 0.62509 0.36685 0.0
H4159 H 0.58692 0.62457 0.37903 0.0
C4160 C 0.55632 0.62042 0.33888 0.0
C4161 C 0.54936 0.61181 0.3371 0.0
C4162 C 0.56458 0.61966 0.34626 0.0
C4163 C 0.56611 0.61026 0.35201 0.0
C4164 C 0.5592 0.60161 0.3502 0.0
C4165 C 0.55087 0.60239 0.34286 0.0
C4166 C 0.59025 0.60029 0.36718 0.0
C4167 C 0.59247 0.60899 0.37392 0.0
C4168 C 0.58155 0.60057 0.36022 0.0
C4169 C 0.57492 0.60958 0.35985 0.0
C4170 C 0.57696 0.61813 0.3668 0.0
C4171 C 0.5856 0.61783 0.37377 0.0
H4172 H 0.90149 0.34292 0.46021 0.0
H4173 H 0.91581 0.32431 0.43507 0.0
H4174 H 0.90437 0.35907 0.45008 0.0
H4175 H 0.91817 0.34037 0.42471 0.0
H4176 H 0.92686 0.37161 0.4102 0.0
H4177 H 0.92728 0.35707 0.42287 0.0
H4178 H 0.89642 0.3667 0.43468 0.0
H4179 H 0.89625 0.38149 0.42242 0.0
C4180 C 0.90538 0.34228 0.45258 0.0
C4181 C 0.90833 0.33229 0.44841 0.0
C4182 C 0.90691 0.35153 0.44671 0.0
C4183 C 0.9114 0.35103 0.43653 0.0
C4184 C 0.91477 0.34109 0.43256 0.0
C4185 C 0.91327 0.33185 0.43844 0.0
C4186 C 0.92028 0.37076 0.41567 0.0
C4187 C 0.91147 0.37766 0.41523 0.0
C4188 C 0.92047 0.36235 0.42285 0.0
C4189 C 0.91184 0.36064 0.42974 0.0
C4190 C 0.90325 0.36781 0.42958 0.0
C4191 C 0.90308 0.37622 0.42244 0.0
H4192 H 0.60076 0.68871 0.93771 0.0
H4193 H 0.61547 0.67028 0.96249 0.0
H4194 H 0.59875 0.67266 0.92696 0.0
H4195 H 0.61299 0.65412 0.95194 0.0
H4196 H 0.62107 0.63177 0.92381 0.0
H4197 H 0.62095 0.64666 0.93626 0.0
H4198 H 0.58976 0.65584 0.92496 0.0
H4199 H 0.59011 0.64121 0.91214 0.0
C4200 C 0.60347 0.68121 0.94091 0.0
C4201 C 0.60839 0.68081 0.95092 0.0
C4202 C 0.60219 0.67198 0.9348 0.0
C4203 C 0.60575 0.66209 0.93856 0.0
C4204 C 0.61029 0.66162 0.94874 0.0
C4205 C 0.6116 0.67088 0.95485 0.0
C4206 C 0.61419 0.63697 0.92397 0.0
C4207 C 0.60566 0.63537 0.91689 0.0
C4208 C 0.61405 0.64543 0.93122 0.0
C4209 C 0.60536 0.65249 0.93159 0.0
C4210 C 0.59664 0.65064 0.92479 0.0
C4211 C 0.59679 0.64218 0.91752 0.0
H4212 H 0.81385 0.57858 0.85561 0.0
H4213 H 0.79236 0.60259 0.86774 0.0
H4214 H 0.82773 0.592 0.8537 0.0
H4215 H 0.80612 0.6161 0.86543 0.0
H4216 H 0.83766 0.63393 0.87226 0.0
H4217 H 0.82307 0.62116 0.87338 0.0
H4218 H 0.83242 0.60747 0.84331 0.0
H4219 H 0.84705 0.62024 0.84221 0.0
C4220 C 0.81208 0.58673 0.85785 0.0
C4221 C 0.80201 0.5895 0.86188 0.0
C4222 C 0.82 0.59445 0.85663 0.0
C4223 C 0.81803 0.60514 0.85941 0.0
C4224 C 0.80792 0.60793 0.86332 0.0
C4225 C 0.8 0.6002 0.86453 0.0
C4226 C 0.83651 0.6283 0.86581 0.0
C4227 C 0.84354 0.62808 0.85716 0.0
C4228 C 0.82814 0.62097 0.86645 0.0
C4229 C 0.8266 0.61326 0.85845 0.0
C4230 C 0.8335 0.61319 0.84969 0.0
C4231 C 0.84187 0.6205 0.84906 0.0
H4232 H 0.19518 0.08179 0.63042 0.0
H4233 H 0.2068 0.08403 0.66259 0.0
H4234 H 0.18491 0.09806 0.63308 0.0
H4235 H 0.19671 0.10048 0.66518 0.0
H4236 H 0.16469 0.1191 0.66886 0.0
H4237 H 0.17756 0.10474 0.66657 0.0
H4238 H 0.18653 0.11744 0.63619 0.0
H4239 H 0.17345 0.1317 0.63839 0.0
C4240 C 0.19559 0.08581 0.63804 0.0
C4241 C 0.20172 0.08159 0.64633 0.0
C4242 C 0.18981 0.09519 0.63952 0.0
C4243 C 0.18999 0.10055 0.64934 0.0
C4244 C 0.19635 0.09648 0.65755 0.0
C4245 C 0.20218 0.08712 0.65605 0.0
C4246 C 0.16947 0.11886 0.66172 0.0
C4247 C 0.168 0.12645 0.65376 0.0
C4248 C 0.17691 0.11069 0.66046 0.0
C4249 C 0.18302 0.10992 0.65117 0.0
C4250 C 0.18185 0.11777 0.64338 0.0
C4251 C 0.17444 0.12598 0.64468 0.0
H4252 H 0.70486 0.4299 0.35045 0.0
H4253 H 0.69627 0.42998 0.38355 0.0
H4254 H 0.69428 0.41376 0.34763 0.0
H4255 H 0.6855 0.41404 0.38068 0.0
H4256 H 0.67315 0.38092 0.37418 0.0
H4257 H 0.68652 0.39495 0.37618 0.0
H4258 H 0.67501 0.40968 0.34758 0.0
H4259 H 0.66184 0.39552 0.34543 0.0
C4260 C 0.70081 0.42641 0.35714 0.0
C4261 C 0.70133 0.43124 0.36721 0.0
C4262 C 0.69468 0.41722 0.35551 0.0
C4263 C 0.68903 0.41265 0.36392 0.0
C4264 C 0.68984 0.4173 0.37406 0.0
C4265 C 0.69591 0.42651 0.37567 0.0
C4266 C 0.67362 0.38704 0.36821 0.0
C4267 C 0.6664 0.38716 0.35968 0.0
C4268 C 0.68121 0.39512 0.36941 0.0
C4269 C 0.68177 0.40346 0.36208 0.0
C4270 C 0.67484 0.40333 0.35332 0.0
C4271 C 0.66722 0.39528 0.35215 0.0
H4272 H 0.31215 0.93857 0.1573 0.0
H4273 H 0.29115 0.91372 0.14577 0.0
H4274 H 0.32649 0.92564 0.1591 0.0
H4275 H 0.30549 0.90076 0.14768 0.0
H4276 H 0.33114 0.87916 0.16242 0.0
H4277 H 0.31652 0.89194 0.16136 0.0
H4278 H 0.33775 0.91483 0.14721 0.0
H4279 H 0.3523 0.90207 0.14813 0.0
C4280 C 0.3106 0.93036 0.1551 0.0
C4281 C 0.30051 0.9272 0.15133 0.0
C4282 C 0.31882 0.92295 0.15615 0.0
C4283 C 0.31713 0.91219 0.1535 0.0
C4284 C 0.307 0.90898 0.14991 0.0
C4285 C 0.29878 0.9164 0.14882 0.0
C4286 C 0.33267 0.88689 0.15901 0.0
C4287 C 0.34291 0.88959 0.1554 0.0
C4288 C 0.3243 0.89421 0.15842 0.0
C4289 C 0.326 0.9044 0.15424 0.0
C4290 C 0.33623 0.90711 0.15064 0.0
C4291 C 0.34458 0.89979 0.15119 0.0
H4292 H 0.80362 0.42641 0.63256 0.0
H4293 H 0.79594 0.42328 0.66571 0.0
H4294 H 0.81737 0.41281 0.63434 0.0
H4295 H 0.80956 0.4095 0.66744 0.0
H4296 H 0.84392 0.3957 0.66822 0.0
H4297 H 0.82935 0.4085 0.66683 0.0
H4298 H 0.81904 0.39344 0.63767 0.0
H4299 H 0.83375 0.38079 0.63894 0.0
C4300 C 0.80488 0.42281 0.64023 0.0
C4301 C 0.79873 0.42594 0.649 0.0
C4302 C 0.81267 0.41494 0.64122 0.0
C4303 C 0.81453 0.41008 0.65103 0.0
C4304 C 0.80836 0.41317 0.6598 0.0
C4305 C 0.8005 0.42098 0.65879 0.0
C4306 C 0.83854 0.39513 0.66152 0.0
C4307 C 0.84 0.38727 0.65367 0.0
C4308 C 0.83014 0.40239 0.66077 0.0
C4309 C 0.82307 0.40199 0.65212 0.0
C4310 C 0.82443 0.39401 0.64437 0.0
C4311 C 0.83278 0.3867 0.64515 0.0
H4312 H 0.29647 0.09112 0.3456 0.0
H4313 H 0.30577 0.0878 0.37835 0.0
H4314 H 0.31014 0.1048 0.34332 0.0
H4315 H 0.31955 0.10129 0.37602 0.0
H4316 H 0.3356 0.13338 0.37106 0.0
H4317 H 0.32105 0.12061 0.37281 0.0
H4318 H 0.32994 0.10599 0.34305 0.0
H4319 H 0.34436 0.11893 0.34116 0.0
C4320 C 0.3014 0.09334 0.35231 0.0
C4321 C 0.30005 0.08838 0.36215 0.0
C4322 C 0.30928 0.1011 0.35098 0.0
C4323 C 0.31591 0.10412 0.35949 0.0
C4324 C 0.3145 0.09921 0.36934 0.0
C4325 C 0.30668 0.09141 0.37065 0.0
C4326 C 0.33435 0.12754 0.36481 0.0
C4327 C 0.34113 0.12716 0.35597 0.0
C4328 C 0.32609 0.12016 0.36587 0.0
C4329 C 0.32438 0.11226 0.3581 0.0
C4330 C 0.33101 0.11202 0.34914 0.0
C4331 C 0.33932 0.11937 0.3481 0.0
H4332 H 0.69767 0.58448 0.1303 0.0
H4333 H 0.70736 0.58467 0.16315 0.0
H4334 H 0.68722 0.60056 0.13336 0.0
H4335 H 0.6971 0.60094 0.16616 0.0
H4336 H 0.66471 0.61906 0.16914 0.0
H4337 H 0.67789 0.605 0.16673 0.0
H4338 H 0.68841 0.61968 0.13776 0.0
H4339 H 0.67501 0.63361 0.14005 0.0
C4340 C 0.69763 0.58802 0.13816 0.0
C4341 C 0.70325 0.58326 0.1465 0.0
C4342 C 0.69175 0.5973 0.13988 0.0
C4343 C 0.69132 0.60201 0.15001 0.0
C4344 C 0.6972 0.59744 0.15829 0.0
C4345 C 0.70314 0.58818 0.15655 0.0
C4346 C 0.66989 0.61931 0.16229 0.0
C4347 C 0.66876 0.62737 0.15473 0.0
C4348 C 0.67751 0.61133 0.16097 0.0
C4349 C 0.68415 0.6112 0.15202 0.0
C4350 C 0.68332 0.6195 0.14468 0.0
C4351 C 0.67572 0.62753 0.14603 0.0
H4352 H 0.1968 0.92994 0.88403 0.0
H4353 H 0.20658 0.92835 0.8513 0.0
H4354 H 0.18607 0.91392 0.8815 0.0
H4355 H 0.19604 0.91213 0.84882 0.0
H4356 H 0.1634 0.89435 0.8462 0.0
H4357 H 0.17678 0.90832 0.84822 0.0
H4358 H 0.18691 0.89465 0.87785 0.0
H4359 H 0.17331 0.8808 0.87594 0.0
C4360 C 0.19672 0.92611 0.87632 0.0
C4361 C 0.20245 0.93046 0.86784 0.0
C4362 C 0.19067 0.91686 0.87489 0.0
C4363 C 0.19019 0.91177 0.86495 0.0
C4364 C 0.19619 0.91593 0.85655 0.0
C4365 C 0.20228 0.92517 0.85799 0.0
C4366 C 0.16853 0.8943 0.85311 0.0
C4367 C 0.16724 0.88654 0.86096 0.0
C4368 C 0.17627 0.90223 0.85422 0.0
C4369 C 0.18287 0.90262 0.86322 0.0
C4370 C 0.18186 0.89462 0.87088 0.0
C4371 C 0.17415 0.88664 0.86974 0.0
H4372 H 0.85683 0.794 0.60156 0.0
H4373 H 0.86075 0.81683 0.57646 0.0
H4374 H 0.85551 0.8085 0.6144 0.0
H4375 H 0.85873 0.8313 0.58918 0.0
H4376 H 0.86704 0.85448 0.61573 0.0
H4377 H 0.86827 0.83982 0.60306 0.0
H4378 H 0.84428 0.82256 0.62048 0.0
H4379 H 0.84329 0.83718 0.63332 0.0
C4380 C 0.85738 0.8021 0.59876 0.0
C4381 C 0.85894 0.80422 0.58795 0.0
C4382 C 0.85647 0.81044 0.60612 0.0
C4383 C 0.85703 0.8211 0.60285 0.0
C4384 C 0.85843 0.8232 0.59202 0.0
C4385 C 0.85942 0.81488 0.58469 0.0
C4386 C 0.86198 0.84757 0.6168 0.0
C4387 C 0.85504 0.84699 0.62548 0.0
C4388 C 0.86266 0.83917 0.60952 0.0
C4389 C 0.85633 0.83 0.61069 0.0
C4390 C 0.84938 0.82942 0.6194 0.0
C4391 C 0.84878 0.8378 0.62675 0.0
H4392 H 0.91276 0.14693 0.2875 0.0
H4393 H 0.9373 0.1599 0.30795 0.0
H4394 H 0.89965 0.14945 0.30155 0.0
H4395 H 0.92422 0.16234 0.322 0.0
H4396 H 0.90089 0.15256 0.34806 0.0
H4397 H 0.91369 0.15099 0.3337 0.0
H4398 H 0.89036 0.1634 0.31185 0.0
H4399 H 0.87752 0.16507 0.32628 0.0
C4400 C 0.91533 0.15043 0.29494 0.0
C4401 C 0.92609 0.15316 0.29662 0.0
C4402 C 0.90782 0.15187 0.303 0.0
C4403 C 0.91091 0.15604 0.31291 0.0
C4404 C 0.92163 0.15893 0.31451 0.0
C4405 C 0.92913 0.15752 0.30647 0.0
C4406 C 0.89852 0.1551 0.34023 0.0
C4407 C 0.88819 0.159 0.33834 0.0
C4408 C 0.90586 0.15418 0.33199 0.0
C4409 C 0.90306 0.15712 0.32164 0.0
C4410 C 0.89272 0.16097 0.31972 0.0
C4411 C 0.88537 0.16192 0.32798 0.0
H4412 H 0.63388 0.20978 0.09404 0.0
H4413 H 0.66684 0.21896 0.0982 0.0
H4414 H 0.6361 0.19585 0.10718 0.0
H4415 H 0.66901 0.20516 0.11156 0.0
H4416 H 0.67115 0.1704 0.12382 0.0
H4417 H 0.66933 0.18542 0.11182 0.0
H4418 H 0.63925 0.1936 0.12633 0.0
H4419 H 0.64094 0.17843 0.13816 0.0
C4420 C 0.64159 0.20883 0.09779 0.0
C4421 C 0.6502 0.21543 0.09505 0.0
C4422 C 0.64284 0.20093 0.10539 0.0
C4423 C 0.65273 0.19941 0.11041 0.0
C4424 C 0.66131 0.20609 0.10777 0.0
C4425 C 0.66004 0.21405 0.10019 0.0
C4426 C 0.66415 0.17541 0.12445 0.0
C4427 C 0.65616 0.1732 0.1319 0.0
C4428 C 0.66316 0.18407 0.11765 0.0
C4429 C 0.65413 0.19067 0.11811 0.0
C4430 C 0.64625 0.18859 0.12572 0.0
C4431 C 0.64727 0.17997 0.13256 0.0
H4432 H 0.56986 0.84891 0.82277 0.0
H4433 H 0.58879 0.86509 0.79932 0.0
H4434 H 0.58572 0.84624 0.83351 0.0
H4435 H 0.6048 0.86196 0.80985 0.0
H4436 H 0.62699 0.86742 0.83902 0.0
H4437 H 0.61246 0.86849 0.82619 0.0
H4438 H 0.60224 0.83683 0.83472 0.0
H4439 H 0.61665 0.8359 0.84768 0.0
C4440 C 0.57743 0.85183 0.81986 0.0
C4441 C 0.57803 0.8573 0.81023 0.0
C4442 C 0.58657 0.85017 0.82596 0.0
C4443 C 0.59656 0.85388 0.82256 0.0
C4444 C 0.59721 0.85909 0.81277 0.0
C4445 C 0.58805 0.86078 0.80667 0.0
C4446 C 0.62174 0.86063 0.838 0.0
C4447 C 0.62288 0.85162 0.84442 0.0
C4448 C 0.61342 0.86122 0.83064 0.0
C4449 C 0.6061 0.85278 0.82949 0.0
C4450 C 0.60758 0.84357 0.83556 0.0
C4451 C 0.61585 0.84301 0.84296 0.0
H4452 H 0.8843 0.19413 0.93069 0.0
H4453 H 0.85105 0.2029 0.93247 0.0
H4454 H 0.88057 0.18323 0.91506 0.0
H4455 H 0.84736 0.19217 0.91663 0.0
H4456 H 0.84398 0.16006 0.89808 0.0
H4457 H 0.847 0.17296 0.91234 0.0
H4458 H 0.87516 0.18434 0.89636 0.0
H4459 H 0.8723 0.17124 0.88224 0.0
C4460 C 0.8762 0.19377 0.9277 0.0
C4461 C 0.86795 0.19931 0.93285 0.0
C4462 C 0.87409 0.18762 0.91867 0.0
C4463 C 0.86367 0.18683 0.91461 0.0
C4464 C 0.85545 0.19256 0.91963 0.0
C4465 C 0.85758 0.19877 0.92864 0.0
C4466 C 0.8508 0.16534 0.89761 0.0
C4467 C 0.85795 0.16458 0.88908 0.0
C4468 C 0.85247 0.1728 0.90572 0.0
C4469 C 0.86135 0.17963 0.9055 0.0
C4470 C 0.86831 0.1791 0.8968 0.0
C4471 C 0.86661 0.17167 0.88867 0.0
H4472 H 0.58317 0.16628 0.70968 0.0
H4473 H 0.58443 0.13337 0.69956 0.0
H4474 H 0.5993 0.16999 0.6995 0.0
H4475 H 0.60034 0.13712 0.68921 0.0
H4476 H 0.6333 0.1449 0.67773 0.0
H4477 H 0.61924 0.1421 0.69075 0.0
H4478 H 0.60365 0.17088 0.68049 0.0
H4479 H 0.61786 0.17383 0.66769 0.0
C4480 C 0.58696 0.15983 0.70537 0.0
C4481 C 0.5825 0.14955 0.70535 0.0
C4482 C 0.59613 0.16197 0.69948 0.0
C4483 C 0.60108 0.15385 0.69354 0.0
C4484 C 0.59679 0.14352 0.69379 0.0
C4485 C 0.5876 0.1414 0.69962 0.0
C4486 C 0.627 0.15075 0.67842 0.0
C4487 C 0.62665 0.15955 0.67164 0.0
C4488 C 0.61889 0.14909 0.68579 0.0
C4489 C 0.61029 0.15622 0.68658 0.0
C4490 C 0.6102 0.16527 0.68012 0.0
C4491 C 0.61828 0.16691 0.67272 0.0
H4492 H 0.64782 0.79249 0.40796 0.0
H4493 H 0.65808 0.81429 0.43261 0.0
H4494 H 0.65023 0.80638 0.39484 0.0
H4495 H 0.66002 0.82832 0.41957 0.0
H4496 H 0.67189 0.84847 0.39236 0.0
H4497 H 0.67083 0.83378 0.40482 0.0
H4498 H 0.64188 0.82282 0.38959 0.0
H4499 H 0.64301 0.83744 0.37709 0.0
C4500 C 0.65064 0.80023 0.41058 0.0
C4501 C 0.65274 0.80227 0.42135 0.0
C4502 C 0.6519 0.80824 0.40307 0.0
C4503 C 0.65528 0.81848 0.40615 0.0
C4504 C 0.65751 0.82049 0.4169 0.0
C4505 C 0.65626 0.81248 0.4244 0.0
C4506 C 0.6653 0.84292 0.39169 0.0
C4507 C 0.65753 0.84413 0.38376 0.0
C4508 C 0.66468 0.83451 0.39883 0.0
C4509 C 0.65625 0.82713 0.39824 0.0
C4510 C 0.64857 0.82825 0.39019 0.0
C4511 C 0.64921 0.83664 0.38302 0.0
H4512 H 0.94581 0.85123 0.18844 0.0
H4513 H 0.92646 0.8644 0.21359 0.0
H4514 H 0.92995 0.84859 0.17765 0.0
H4515 H 0.91047 0.86122 0.20298 0.0
H4516 H 0.8873 0.86764 0.1751 0.0
H4517 H 0.90214 0.86856 0.18758 0.0
H4518 H 0.91397 0.83851 0.17553 0.0
H4519 H 0.89924 0.83776 0.16289 0.0
C4520 C 0.93815 0.85349 0.1917 0.0
C4521 C 0.93743 0.85813 0.20185 0.0
C4522 C 0.92902 0.85184 0.18556 0.0
C4523 C 0.91891 0.85471 0.18942 0.0
C4524 C 0.91814 0.85904 0.1997 0.0
C4525 C 0.9273 0.86074 0.20584 0.0
C4526 C 0.89299 0.86116 0.17524 0.0
C4527 C 0.89217 0.85267 0.16796 0.0
C4528 C 0.90149 0.86167 0.18241 0.0
C4529 C 0.90932 0.85365 0.18252 0.0
C4530 C 0.90822 0.84494 0.17552 0.0
C4531 C 0.89977 0.84448 0.1683 0.0
H4532 H 0.08955 0.64349 0.21381 0.0
H4533 H 0.06955 0.65911 0.1908 0.0
H4534 H 0.10501 0.64604 0.20232 0.0
H4535 H 0.08492 0.66152 0.17933 0.0
H4536 H 0.11066 0.65036 0.15635 0.0
H4537 H 0.09609 0.64887 0.1689 0.0
H4538 H 0.11669 0.66021 0.19403 0.0
H4539 H 0.13135 0.66191 0.18137 0.0
C4540 C 0.08848 0.64759 0.20639 0.0
C4541 C 0.0783 0.65097 0.20315 0.0
C4542 C 0.09733 0.64904 0.19981 0.0
C4543 C 0.09613 0.65384 0.18987 0.0
C4544 C 0.08603 0.65758 0.18684 0.0
C4545 C 0.07723 0.65618 0.19341 0.0
C4546 C 0.11208 0.65266 0.16452 0.0
C4547 C 0.12214 0.65639 0.16782 0.0
C4548 C 0.10373 0.65179 0.17171 0.0
C4549 C 0.10521 0.65455 0.18241 0.0
C4550 C 0.11533 0.658 0.18582 0.0
C4551 C 0.12372 0.65895 0.17858 0.0
H4552 H 0.16563 0.29703 0.91812 0.0
H4553 H 0.13228 0.30503 0.9211 0.0
H4554 H 0.1678 0.31104 0.90497 0.0
H4555 H 0.13449 0.31915 0.90814 0.0
H4556 H 0.13992 0.33631 0.87695 0.0
H4557 H 0.13823 0.32133 0.88901 0.0
H4558 H 0.16742 0.33084 0.90469 0.0
H4559 H 0.16923 0.34571 0.89248 0.0
C4560 C 0.15876 0.30174 0.91592 0.0
C4561 C 0.14879 0.29995 0.92065 0.0
C4562 C 0.16002 0.30981 0.90847 0.0
C4563 C 0.15132 0.31619 0.90553 0.0
C4564 C 0.14132 0.3143 0.91017 0.0
C4565 C 0.14008 0.30629 0.91767 0.0
C4566 C 0.14605 0.33512 0.88288 0.0
C4567 C 0.1547 0.34219 0.88378 0.0
C4568 C 0.14503 0.3266 0.88985 0.0
C4569 C 0.15267 0.32494 0.89783 0.0
C4570 C 0.16144 0.33188 0.89858 0.0
C4571 C 0.16243 0.34044 0.89166 0.0
H4572 H 0.42593 0.36815 0.71149 0.0
H4573 H 0.44644 0.35345 0.68815 0.0
H4574 H 0.41059 0.3653 0.6998 0.0
H4575 H 0.43117 0.35076 0.67647 0.0
H4576 H 0.40508 0.36217 0.65378 0.0
H4577 H 0.4197 0.36333 0.66639 0.0
H4578 H 0.39931 0.35098 0.6909 0.0
H4579 H 0.38462 0.34958 0.67817 0.0
C4580 C 0.42714 0.36417 0.70395 0.0
C4581 C 0.43744 0.36115 0.70069 0.0
C4582 C 0.41836 0.36255 0.69726 0.0
C4583 C 0.41972 0.35793 0.68718 0.0
C4584 C 0.42993 0.35453 0.68411 0.0
C4585 C 0.43867 0.3561 0.6908 0.0
C4586 C 0.40371 0.35953 0.66181 0.0
C4587 C 0.39368 0.35566 0.66491 0.0
C4588 C 0.4121 0.36023 0.66904 0.0
C4589 C 0.41068 0.35715 0.67961 0.0
C4590 C 0.40062 0.35345 0.68281 0.0
C4591 C 0.39221 0.35268 0.67552 0.0
H4592 H 0.15421 0.72389 0.60705 0.0
H4593 H 0.15221 0.70089 0.58146 0.0
H4594 H 0.15482 0.70945 0.61978 0.0
H4595 H 0.15352 0.68651 0.59409 0.0
H4596 H 0.14418 0.66314 0.61942 0.0
H4597 H 0.14319 0.67796 0.60717 0.0
H4598 H 0.16587 0.69553 0.62638 0.0
H4599 H 0.16659 0.68075 0.6388 0.0
C4600 C 0.15393 0.71576 0.60413 0.0
C4601 C 0.15313 0.71358 0.59321 0.0
C4602 C 0.15442 0.70747 0.61143 0.0
C4603 C 0.15419 0.6968 0.60799 0.0
C4604 C 0.15354 0.69463 0.59706 0.0
C4605 C 0.15297 0.7029 0.58978 0.0
C4606 C 0.14896 0.67017 0.621 0.0
C4607 C 0.1555 0.67078 0.63003 0.0
C4608 C 0.14844 0.67865 0.61396 0.0
C4609 C 0.15452 0.68792 0.61572 0.0
C4610 C 0.16097 0.68857 0.62484 0.0
C4611 C 0.16142 0.68011 0.63194 0.0
H4612 H 0.36582 0.29342 0.10292 0.0
H4613 H 0.35515 0.31429 0.07804 0.0
H4614 H 0.36365 0.30784 0.11582 0.0
H4615 H 0.3531 0.3287 0.09091 0.0
H4616 H 0.3638 0.3546 0.11451 0.0
H4617 H 0.365 0.3399 0.1019 0.0
H4618 H 0.34977 0.31911 0.12434 0.0
H4619 H 0.34843 0.3339 0.13697 0.0
C4620 C 0.3629 0.30104 0.10022 0.0
C4621 C 0.36072 0.30272 0.08943 0.0
C4622 C 0.36167 0.3093 0.10761 0.0
C4623 C 0.35827 0.31942 0.10437 0.0
C4624 C 0.35592 0.32104 0.09362 0.0
C4625 C 0.35711 0.31279 0.08625 0.0
C4626 C 0.36057 0.34694 0.11672 0.0
C4627 C 0.35596 0.34546 0.12674 0.0
C4628 C 0.36127 0.33851 0.10949 0.0
C4629 C 0.35744 0.32836 0.1121 0.0
C4630 C 0.35289 0.32682 0.12214 0.0
C4631 C 0.35214 0.33529 0.12937 0.0
H4632 H 0.55759 0.38768 0.18145 0.0
H4633 H 0.54732 0.41928 0.17298 0.0
H4634 H 0.57224 0.38889 0.16893 0.0
H4635 H 0.56212 0.42059 0.16051 0.0
H4636 H 0.58315 0.41386 0.13118 0.0
H4637 H 0.56845 0.41347 0.14384 0.0
H4638 H 0.58888 0.39788 0.16652 0.0
H4639 H 0.60345 0.39811 0.15381 0.0
C4640 C 0.55854 0.39494 0.17699 0.0
C4641 C 0.55133 0.4034 0.17824 0.0
C4642 C 0.56696 0.39565 0.16982 0.0
C4643 C 0.56842 0.40487 0.16375 0.0
C4644 C 0.56117 0.41333 0.16496 0.0
C4645 C 0.5527 0.41259 0.17211 0.0
C4646 C 0.5845 0.41044 0.13892 0.0
C4647 C 0.59441 0.40593 0.14148 0.0
C4648 C 0.57609 0.41023 0.14618 0.0
C4649 C 0.57745 0.40556 0.15617 0.0
C4650 C 0.58747 0.40132 0.15881 0.0
C4651 C 0.59584 0.40147 0.15154 0.0
H4652 H 0.9388 0.60619 0.6922 0.0
H4653 H 0.96421 0.61996 0.67376 0.0
H4654 H 0.92819 0.60381 0.67619 0.0
H4655 H 0.95379 0.6171 0.65765 0.0
H4656 H 0.92586 0.62467 0.63494 0.0
H4657 H 0.93818 0.62495 0.64985 0.0
H4658 H 0.92642 0.59424 0.65969 0.0
H4659 H 0.91373 0.59421 0.64503 0.0
C4660 C 0.94216 0.60862 0.68471 0.0
C4661 C 0.9523 0.61337 0.68428 0.0
C4662 C 0.93613 0.60712 0.6755 0.0
C4663 C 0.94012 0.6103 0.66562 0.0
C4664 C 0.95043 0.61469 0.66514 0.0
C4665 C 0.95645 0.61622 0.67437 0.0
C4666 C 0.9259 0.61798 0.64029 0.0
C4667 C 0.91872 0.60948 0.63886 0.0
C4668 C 0.93306 0.61807 0.64877 0.0
C4669 C 0.93326 0.60964 0.65601 0.0
C4670 C 0.92638 0.60093 0.65434 0.0
C4671 C 0.91918 0.60085 0.64586 0.0
H4672 H 0.62427 0.33879 0.55872 0.0
H4673 H 0.59189 0.34601 0.54958 0.0
H4674 H 0.62331 0.35211 0.57283 0.0
H4675 H 0.59098 0.35954 0.56364 0.0
H4676 H 0.59093 0.37303 0.59842 0.0
H4677 H 0.59102 0.36044 0.58355 0.0
H4678 H 0.62215 0.37177 0.5744 0.0
H4679 H 0.62203 0.38443 0.58911 0.0
C4680 C 0.61693 0.3432 0.55976 0.0
C4681 C 0.60814 0.34133 0.55307 0.0
C4682 C 0.61642 0.35091 0.56776 0.0
C4683 C 0.60708 0.3569 0.56931 0.0
C4684 C 0.59826 0.35501 0.56266 0.0
C4685 C 0.59881 0.34733 0.55458 0.0
C4686 C 0.59772 0.37295 0.59314 0.0
C4687 C 0.60652 0.37967 0.59503 0.0
C4688 C 0.59777 0.36573 0.58463 0.0
C4689 C 0.60664 0.36505 0.57788 0.0
C4690 C 0.61529 0.37197 0.57959 0.0
C4691 C 0.61522 0.37921 0.58804 0.0
H4692 H 0.41254 0.65363 0.78821 0.0
H4693 H 0.43809 0.6507 0.81104 0.0
H4694 H 0.39971 0.65499 0.80259 0.0
H4695 H 0.42537 0.65275 0.82537 0.0
H4696 H 0.3991 0.64452 0.84848 0.0
H4697 H 0.41166 0.64311 0.83387 0.0
H4698 H 0.39351 0.66641 0.81645 0.0
H4699 H 0.38078 0.66757 0.83102 0.0
C4700 C 0.41544 0.65331 0.79629 0.0
C4701 C 0.42637 0.65202 0.79844 0.0
C4702 C 0.40808 0.65423 0.80455 0.0
C4703 C 0.41148 0.65396 0.81516 0.0
C4704 C 0.42243 0.65283 0.8173 0.0
C4705 C 0.42977 0.65182 0.80906 0.0
C4706 C 0.39783 0.64937 0.84154 0.0
C4707 C 0.38899 0.65618 0.8409 0.0
C4708 C 0.40505 0.6486 0.83317 0.0
C4709 C 0.40366 0.6547 0.82399 0.0
C4710 C 0.39477 0.66149 0.82334 0.0
C4711 C 0.38748 0.66219 0.83169 0.0
H4712 H 0.09008 0.36126 0.29798 0.0
H4713 H 0.07073 0.34704 0.32233 0.0
H4714 H 0.10611 0.35729 0.3082 0.0
H4715 H 0.08664 0.34355 0.33274 0.0
H4716 H 0.11719 0.33176 0.34663 0.0
H4717 H 0.10257 0.33317 0.33393 0.0
H4718 H 0.11451 0.36382 0.32414 0.0
H4719 H 0.12921 0.36229 0.33669 0.0
C4720 C 0.08925 0.3572 0.30546 0.0
C4721 C 0.07911 0.35454 0.30937 0.0
C4722 C 0.09843 0.35503 0.31137 0.0
C4723 C 0.09768 0.35015 0.32132 0.0
C4724 C 0.08755 0.34721 0.32507 0.0
C4725 C 0.0784 0.34935 0.31916 0.0
C4726 C 0.11672 0.33875 0.34168 0.0
C4727 C 0.1243 0.34695 0.3427 0.0
C4728 C 0.10834 0.33958 0.33444 0.0
C4729 C 0.10729 0.34866 0.32809 0.0
C4730 C 0.11513 0.35666 0.3288 0.0
C4731 C 0.12356 0.35579 0.33601 0.0
H4732 H 0.3497 0.70145 0.43045 0.0
H4733 H 0.38142 0.68915 0.43552 0.0
H4734 H 0.34772 0.68989 0.41488 0.0
H4735 H 0.37952 0.67771 0.41996 0.0
H4736 H 0.36718 0.64928 0.40099 0.0
H4737 H 0.36943 0.66195 0.41546 0.0
H4738 H 0.35409 0.68627 0.39686 0.0
H4739 H 0.35144 0.67338 0.38245 0.0
C4740 C 0.3563 0.69639 0.42815 0.0
C4741 C 0.36566 0.6961 0.43427 0.0
C4742 C 0.35518 0.68978 0.41923 0.0
C4743 C 0.36342 0.68279 0.41625 0.0
C4744 C 0.37292 0.68282 0.42217 0.0
C4745 C 0.37402 0.68938 0.43109 0.0
C4746 C 0.36419 0.6573 0.4 0.0
C4747 C 0.35906 0.6603 0.39059 0.0
C4748 C 0.36561 0.66461 0.40825 0.0
C4749 C 0.36199 0.67514 0.40731 0.0
C4750 C 0.3569 0.67819 0.39787 0.0
C4751 C 0.35548 0.67085 0.38958 0.0
H4752 H 0.10501 0.30187 0.0192 0.0
H4753 H 0.13773 0.31059 0.02565 0.0
H4754 H 0.09924 0.31244 0.03449 0.0
H4755 H 0.13199 0.32113 0.04088 0.0
H4756 H 0.1168 0.35004 0.05678 0.0
H4757 H 0.12222 0.33788 0.04273 0.0
H4758 H 0.10006 0.3143 0.05416 0.0
H4759 H 0.09438 0.32668 0.06816 0.0
C4760 C 0.11098 0.30588 0.02399 0.0
C4761 C 0.12181 0.3055 0.02114 0.0
C4762 C 0.10768 0.31194 0.03274 0.0
C4763 C 0.11515 0.31774 0.0388 0.0
C4764 C 0.12601 0.31694 0.03623 0.0
C4765 C 0.1293 0.3109 0.02751 0.0
C4766 C 0.11298 0.34231 0.05625 0.0
C4767 C 0.1051 0.33935 0.06355 0.0
C4768 C 0.1162 0.33528 0.04828 0.0
C4769 C 0.11163 0.32509 0.04738 0.0
C4770 C 0.10369 0.32212 0.05463 0.0
C4771 C 0.1005 0.32917 0.06268 0.0
H4772 H 0.94621 0.8811 0.3031 0.0
H4773 H 0.97452 0.86303 0.31037 0.0
H4774 H 0.94242 0.88302 0.32185 0.0
H4775 H 0.97087 0.86521 0.32934 0.0
H4776 H 0.9502 0.85971 0.36031 0.0
H4777 H 0.95753 0.85887 0.34234 0.0
H4778 H 0.94892 0.8918 0.33771 0.0
H4779 H 0.94144 0.89252 0.35548 0.0
C4780 C 0.95166 0.87757 0.30873 0.0
C4781 C 0.96061 0.87183 0.30526 0.0
C4782 C 0.94956 0.87878 0.3195 0.0
C4783 C 0.95638 0.87431 0.32711 0.0
C4784 C 0.96545 0.8687 0.32367 0.0
C4785 C 0.96758 0.86752 0.31283 0.0
C4786 C 0.9501 0.86681 0.35549 0.0
C4787 C 0.94512 0.87613 0.35918 0.0
C4788 C 0.9543 0.86634 0.34523 0.0
C4789 C 0.95362 0.87522 0.33853 0.0
C4790 C 0.94933 0.88475 0.34256 0.0
C4791 C 0.94508 0.88518 0.35275 0.0
H4792 H 0.39282 0.70448 0.51914 0.0
H4793 H 0.38821 0.7283 0.54359 0.0
H4794 H 0.39812 0.69167 0.53245 0.0
H4795 H 0.39406 0.7156 0.5569 0.0
H4796 H 0.39195 0.68615 0.57831 0.0
H4797 H 0.38768 0.69975 0.56535 0.0
H4798 H 0.41206 0.68726 0.54457 0.0
H4799 H 0.4162 0.67354 0.5575 0.0
C4800 C 0.39296 0.707 0.52737 0.0
C4801 C 0.38997 0.71741 0.5303 0.0
C4802 C 0.39616 0.69969 0.53499 0.0
C4803 C 0.39653 0.70259 0.54576 0.0
C4804 C 0.39374 0.71305 0.54869 0.0
C4805 C 0.3905 0.72038 0.54105 0.0
C4806 C 0.39648 0.68639 0.57102 0.0
C4807 C 0.40439 0.67875 0.56891 0.0
C4808 C 0.39405 0.69421 0.5636 0.0
C4809 C 0.39951 0.6946 0.55389 0.0
C4810 C 0.40757 0.68708 0.55188 0.0
C4811 C 0.40996 0.67922 0.55928 0.0
H4812 H 0.55578 0.16707 0.80805 0.0
H4813 H 0.55044 0.13313 0.80928 0.0
H4814 H 0.56075 0.16716 0.82674 0.0
H4815 H 0.55534 0.13324 0.82798 0.0
H4816 H 0.55935 0.13786 0.86348 0.0
H4817 H 0.55085 0.13957 0.8461 0.0
H4818 H 0.57644 0.16019 0.83609 0.0
H4819 H 0.58478 0.15864 0.85345 0.0
C4820 C 0.55559 0.15965 0.81233 0.0
C4821 C 0.55284 0.15007 0.80714 0.0
C4822 C 0.55842 0.1597 0.82303 0.0
C4823 C 0.55854 0.15019 0.82881 0.0
C4824 C 0.55523 0.14071 0.82378 0.0
C4825 C 0.55242 0.14065 0.81306 0.0
C4826 C 0.56303 0.14291 0.85761 0.0
C4827 C 0.57276 0.14807 0.85978 0.0
C4828 C 0.55822 0.14382 0.84765 0.0
C4829 C 0.56298 0.14999 0.83972 0.0
C4830 C 0.5725 0.15546 0.84206 0.0
C4831 C 0.57734 0.15449 0.85196 0.0
H4832 H 0.12471 0.71878 0.48456 0.0
H4833 H 0.12207 0.69086 0.50411 0.0
H4834 H 0.11758 0.70866 0.4695 0.0
H4835 H 0.11535 0.6807 0.48904 0.0
H4836 H 0.09486 0.66732 0.46277 0.0
H4837 H 0.09999 0.67889 0.47754 0.0
H4838 H 0.12328 0.69429 0.45769 0.0
H4839 H 0.11811 0.68276 0.44293 0.0
C4840 C 0.12258 0.7105 0.48565 0.0
C4841 C 0.12403 0.70561 0.49552 0.0
C4842 C 0.11858 0.70469 0.477 0.0
C4843 C 0.1159 0.69387 0.47806 0.0
C4844 C 0.11721 0.68904 0.48797 0.0
C4845 C 0.12121 0.69484 0.49658 0.0
C4846 C 0.10106 0.67319 0.46156 0.0
C4847 C 0.10611 0.67408 0.45169 0.0
C4848 C 0.10401 0.67982 0.47002 0.0
C4849 C 0.1121 0.68747 0.46882 0.0
C4850 C 0.11693 0.68858 0.45886 0.0
C4851 C 0.11396 0.68196 0.45039 0.0
H4852 H 0.56967 0.8784 0.70981 0.0
H4853 H 0.54012 0.8624 0.70206 0.0
H4854 H 0.57345 0.88049 0.6911 0.0
H4855 H 0.5438 0.86475 0.68315 0.0
H4856 H 0.56374 0.85898 0.65166 0.0
H4857 H 0.55671 0.85794 0.66971 0.0
H4858 H 0.56719 0.89021 0.67578 0.0
H4859 H 0.57433 0.89114 0.65788 0.0
C4860 C 0.56396 0.87535 0.70408 0.0
C4861 C 0.55464 0.87016 0.7074 0.0
C4862 C 0.56606 0.87667 0.69335 0.0
C4863 C 0.5589 0.87285 0.68562 0.0
C4864 C 0.54949 0.86774 0.68891 0.0
C4865 C 0.54735 0.86647 0.69972 0.0
C4866 C 0.56433 0.8659 0.65681 0.0
C4867 C 0.56972 0.87508 0.65346 0.0
C4868 C 0.5603 0.86532 0.66713 0.0
C4869 C 0.56157 0.87393 0.67423 0.0
C4870 C 0.56632 0.88335 0.67059 0.0
C4871 C 0.57038 0.8839 0.66034 0.0
H4872 H 0.40599 0.30424 0.99238 0.0
H4873 H 0.37338 0.3134 0.98628 0.0
H4874 H 0.41186 0.31493 0.97739 0.0
H4875 H 0.37923 0.32406 0.97136 0.0
H4876 H 0.39472 0.35269 0.95571 0.0
H4877 H 0.38925 0.3407 0.9697 0.0
H4878 H 0.41096 0.31678 0.9578 0.0
H4879 H 0.41669 0.32897 0.94389 0.0
C4880 C 0.40006 0.30838 0.98773 0.0
C4881 C 0.38923 0.30807 0.99059 0.0
C4882 C 0.40343 0.31451 0.97916 0.0
C4883 C 0.39603 0.32046 0.97329 0.0
C4884 C 0.38516 0.31977 0.97588 0.0
C4885 C 0.3818 0.31365 0.98442 0.0
C4886 C 0.39843 0.34493 0.95614 0.0
C4887 C 0.40618 0.34181 0.94872 0.0
C4888 C 0.39519 0.338 0.96407 0.0
C4889 C 0.39961 0.32775 0.96481 0.0
C4890 C 0.40744 0.32464 0.95746 0.0
C4891 C 0.41066 0.33158 0.94946 0.0
H4892 H 0.96742 0.15759 0.2052 0.0
H4893 H 0.97755 0.12541 0.19836 0.0
H4894 H 0.9593 0.15865 0.18767 0.0
H4895 H 0.96941 0.12646 0.18084 0.0
H4896 H 0.95947 0.13426 0.14708 0.0
H4897 H 0.96997 0.13504 0.16343 0.0
H4898 H 0.94373 0.15058 0.17936 0.0
H4899 H 0.93342 0.15008 0.16301 0.0
C4900 C 0.96793 0.15075 0.19994 0.0
C4901 C 0.97304 0.14138 0.20321 0.0
C4902 C 0.96329 0.15136 0.1899 0.0
C4903 C 0.96362 0.14261 0.18289 0.0
C4904 C 0.9691 0.13338 0.186 0.0
C4905 C 0.97377 0.13278 0.19605 0.0
C4906 C 0.95603 0.138 0.15404 0.0
C4907 C 0.94559 0.14205 0.15378 0.0
C4908 C 0.962 0.13835 0.16342 0.0
C4909 C 0.95768 0.14284 0.1727 0.0
C4910 C 0.94735 0.14717 0.17233 0.0
C4911 C 0.94139 0.14677 0.16299 0.0
H4912 H 0.0325 0.13535 0.30405 0.0
H4913 H 0.02142 0.1031 0.29915 0.0
H4914 H 0.04774 0.12873 0.31401 0.0
H4915 H 0.03686 0.09644 0.30891 0.0
H4916 H 0.05686 0.09146 0.33966 0.0
H4917 H 0.04269 0.0968 0.32756 0.0
H4918 H 0.06434 0.11857 0.31233 0.0
H4919 H 0.07842 0.11347 0.32463 0.0
C4920 C 0.03338 0.12684 0.30503 0.0
C4921 C 0.02572 0.11975 0.30087 0.0
C4922 C 0.04217 0.12303 0.31065 0.0
C4923 C 0.0435 0.11206 0.31227 0.0
C4924 C 0.036 0.10495 0.30787 0.0
C4925 C 0.02722 0.10876 0.3022 0.0
C4926 C 0.0586 0.09736 0.3337 0.0
C4927 C 0.06875 0.10208 0.33315 0.0
C4928 C 0.05051 0.10034 0.3267 0.0
C4929 C 0.05238 0.10815 0.31901 0.0
C4930 C 0.06262 0.11262 0.31824 0.0
C4931 C 0.07072 0.10961 0.32521 0.0
H4932 H 0.14561 0.81454 0.53434 0.0
H4933 H 0.13239 0.80162 0.56304 0.0
H4934 H 0.14477 0.83247 0.54211 0.0
H4935 H 0.13184 0.81935 0.57085 0.0
H4936 H 0.122 0.85282 0.57838 0.0
H4937 H 0.12207 0.83595 0.56876 0.0
H4938 H 0.15339 0.84308 0.55654 0.0
H4939 H 0.1533 0.86008 0.56619 0.0
C4940 C 0.14251 0.81554 0.54228 0.0
C4941 C 0.13911 0.80666 0.54809 0.0
C4942 C 0.14211 0.82578 0.54675 0.0
C4943 C 0.1382 0.82733 0.55708 0.0
C4944 C 0.13475 0.81845 0.56283 0.0
C4945 C 0.13519 0.80826 0.5584 0.0
C4946 C 0.12891 0.8508 0.57364 0.0
C4947 C 0.13771 0.8577 0.57316 0.0
C4948 C 0.12895 0.84113 0.56813 0.0
C4949 C 0.1378 0.83811 0.56201 0.0
C4950 C 0.14643 0.84521 0.56115 0.0
C4951 C 0.14638 0.85493 0.56667 0.0
H4952 H 0.46925 0.8901 0.7798 0.0
H4953 H 0.49354 0.89547 0.8036 0.0
H4954 H 0.45566 0.89622 0.79224 0.0
H4955 H 0.47995 0.90106 0.81614 0.0
H4956 H 0.45467 0.91932 0.83385 0.0
H4957 H 0.46767 0.9151 0.82012 0.0
H4958 H 0.44695 0.89023 0.80811 0.0
H4959 H 0.4339 0.89458 0.82175 0.0
C4960 C 0.4717 0.89262 0.78766 0.0
C4961 C 0.48249 0.89223 0.79071 0.0
C4962 C 0.46389 0.89602 0.79483 0.0
C4963 C 0.4667 0.89911 0.80521 0.0
C4964 C 0.4775 0.89887 0.80819 0.0
C4965 C 0.48529 0.8955 0.80103 0.0
C4966 C 0.45289 0.91297 0.82825 0.0
C4967 C 0.44329 0.90725 0.82891 0.0
C4968 C 0.46035 0.91053 0.82039 0.0
C4969 C 0.4584 0.90226 0.81304 0.0
C4970 C 0.44866 0.89673 0.81355 0.0
C4971 C 0.44118 0.89921 0.82137 0.0
H4972 H 0.35286 0.21021 0.04707 0.0
H4973 H 0.38512 0.20361 0.03709 0.0
H4974 H 0.35169 0.19254 0.05483 0.0
H4975 H 0.38398 0.18596 0.04491 0.0
H4976 H 0.37632 0.15199 0.0541 0.0
H4977 H 0.37554 0.16847 0.044 0.0
H4978 H 0.35941 0.18396 0.0701 0.0
H4979 H 0.35986 0.16744 0.08 0.0
C4980 C 0.3597 0.20497 0.04652 0.0
C4981 C 0.36912 0.20834 0.04155 0.0
C4982 C 0.35903 0.19485 0.05097 0.0
C4983 C 0.36777 0.18787 0.05057 0.0
C4984 C 0.37705 0.19109 0.04525 0.0
C4985 C 0.37771 0.20121 0.04078 0.0
C4986 C 0.37244 0.15887 0.05759 0.0
C4987 C 0.36821 0.15843 0.06787 0.0
C4988 C 0.37209 0.16834 0.05185 0.0
C4989 C 0.36746 0.17755 0.05625 0.0
C4990 C 0.36294 0.17699 0.06641 0.0
C4991 C 0.36331 0.16755 0.07214 0.0
H4992 H 0.04561 0.8922 0.23276 0.0
H4993 H 0.0212 0.89677 0.20903 0.0
H4994 H 0.0591 0.89824 0.22027 0.0
H4995 H 0.03469 0.90228 0.19644 0.0
H4996 H 0.05977 0.92038 0.17854 0.0
H4997 H 0.04684 0.91635 0.19233 0.0
H4998 H 0.0678 0.89199 0.2044 0.0
H4999 H 0.08077 0.89616 0.19071 0.0
C5000 C 0.04311 0.89454 0.2249 0.0
C5001 C 0.03233 0.89393 0.22189 0.0
C5002 C 0.05086 0.89789 0.2177 0.0
C5003 C 0.048 0.90073 0.20733 0.0
C5004 C 0.03718 0.90029 0.20439 0.0
C5005 C 0.02945 0.89697 0.21158 0.0
C5006 C 0.06162 0.91419 0.18416 0.0
C5007 C 0.07127 0.90856 0.18351 0.0
C5008 C 0.0542 0.91185 0.19206 0.0
C5009 C 0.05624 0.90379 0.19945 0.0
C5010 C 0.06602 0.89835 0.19894 0.0
C5011 C 0.07346 0.90072 0.19108 0.0
H5012 H 0.36201 0.80624 0.4714 0.0
H5013 H 0.37718 0.79804 0.44177 0.0
H5014 H 0.36405 0.82522 0.46733 0.0
H5015 H 0.37898 0.81679 0.43764 0.0
H5016 H 0.39003 0.85027 0.43658 0.0
H5017 H 0.38903 0.83236 0.44373 0.0
H5018 H 0.35684 0.83841 0.45424 0.0
H5019 H 0.3579 0.85649 0.44713 0.0
C5020 C 0.36581 0.8085 0.46406 0.0
C5021 C 0.36938 0.80067 0.45687 0.0
C5022 C 0.3669 0.81933 0.4617 0.0
C5023 C 0.37172 0.8225 0.45219 0.0
C5024 C 0.37538 0.81464 0.4451 0.0
C5025 C 0.37423 0.80388 0.44741 0.0
C5026 C 0.38277 0.8478 0.4405 0.0
C5027 C 0.37397 0.85469 0.44114 0.0
C5028 C 0.38219 0.83755 0.44458 0.0
C5029 C 0.37279 0.83391 0.44937 0.0
C5030 C 0.3642 0.84101 0.45061 0.0
C5031 C 0.3648 0.85134 0.44654 0.0
H5032 H 0.4712 0.12225 0.73143 0.0
H5033 H 0.4961 0.11552 0.70875 0.0
H5034 H 0.45786 0.11633 0.7186 0.0
H5035 H 0.48275 0.11019 0.69576 0.0
H5036 H 0.457 0.09283 0.67726 0.0
H5037 H 0.46999 0.09682 0.69117 0.0
H5038 H 0.44994 0.12243 0.70254 0.0
H5039 H 0.43692 0.11828 0.68879 0.0
C5040 C 0.47384 0.11946 0.72373 0.0
C5041 C 0.48473 0.11943 0.72112 0.0
C5042 C 0.46617 0.11619 0.71632 0.0
C5043 C 0.46921 0.11284 0.7061 0.0
C5044 C 0.48011 0.11261 0.70357 0.0
C5045 C 0.48777 0.11582 0.71099 0.0
C5046 C 0.45539 0.0993 0.68275 0.0
C5047 C 0.44594 0.10523 0.68194 0.0
C5048 C 0.46283 0.10161 0.69071 0.0
C5049 C 0.46104 0.10997 0.69798 0.0
C5050 C 0.45152 0.11582 0.69721 0.0
C5051 C 0.44405 0.11346 0.68931 0.0
H5052 H 0.15943 0.20909 0.96186 0.0
H5053 H 0.12794 0.20139 0.97329 0.0
H5054 H 0.16076 0.19146 0.95373 0.0
H5055 H 0.12925 0.18377 0.96513 0.0
H5056 H 0.13782 0.15 0.95507 0.0
H5057 H 0.13845 0.16657 0.96537 0.0
H5058 H 0.1524 0.18265 0.93866 0.0
H5059 H 0.15209 0.16607 0.92854 0.0
C5060 C 0.1528 0.20362 0.96266 0.0
C5061 C 0.14354 0.20667 0.96814 0.0
C5062 C 0.15356 0.19352 0.958 0.0
C5063 C 0.14508 0.18624 0.95871 0.0
C5064 C 0.13598 0.18914 0.96454 0.0
C5065 C 0.13522 0.19925 0.96921 0.0
C5066 C 0.14119 0.15704 0.95148 0.0
C5067 C 0.14486 0.15675 0.94097 0.0
C5068 C 0.14145 0.16655 0.95734 0.0
C5069 C 0.14544 0.17594 0.95283 0.0
C5070 C 0.14938 0.17554 0.94242 0.0
C5071 C 0.14909 0.16607 0.93657 0.0
H5072 H 0.30084 0.02555 0.1084 0.0
H5073 H 0.30997 0.03239 0.14076 0.0
H5074 H 0.31148 0.04066 0.10245 0.0
H5075 H 0.3206 0.04744 0.13482 0.0
H5076 H 0.34946 0.06286 0.11919 0.0
H5077 H 0.33729 0.04898 0.1249 0.0
H5078 H 0.3134 0.06041 0.1031 0.0
H5079 H 0.32576 0.07422 0.09714 0.0
C5080 C 0.30495 0.03039 0.11426 0.0
C5081 C 0.30466 0.0277 0.12504 0.0
C5082 C 0.31106 0.03904 0.11085 0.0
C5083 C 0.31699 0.04516 0.11815 0.0
C5084 C 0.3163 0.04274 0.12897 0.0
C5085 C 0.31021 0.03412 0.13238 0.0
C5086 C 0.34166 0.06236 0.11552 0.0
C5087 C 0.33861 0.0696 0.10766 0.0
C5088 C 0.33462 0.05449 0.1189 0.0
C5089 C 0.32434 0.05364 0.11451 0.0
C5090 C 0.32128 0.06084 0.1066 0.0
C5091 C 0.32833 0.06878 0.10325 0.0
H5092 H 0.8066 0.48298 0.87946 0.0
H5093 H 0.80758 0.49423 0.91186 0.0
H5094 H 0.81678 0.46729 0.88443 0.0
H5095 H 0.81765 0.47845 0.91689 0.0
H5096 H 0.84718 0.45673 0.91836 0.0
H5097 H 0.83533 0.47151 0.91442 0.0
H5098 H 0.81651 0.45092 0.8941 0.0
H5099 H 0.82868 0.43628 0.89763 0.0
C5100 C 0.80881 0.48199 0.88769 0.0
C5101 C 0.80632 0.48986 0.89526 0.0
C5102 C 0.81464 0.47299 0.89055 0.0
C5103 C 0.81809 0.47162 0.90106 0.0
C5104 C 0.8153 0.47934 0.90869 0.0
C5105 C 0.80951 0.48837 0.90582 0.0
C5106 C 0.84054 0.45536 0.91302 0.0
C5107 C 0.83894 0.44532 0.90826 0.0
C5108 C 0.83365 0.46381 0.91086 0.0
C5109 C 0.82496 0.46242 0.90392 0.0
C5110 C 0.8232 0.45231 0.89938 0.0
C5111 C 0.8301 0.44387 0.90152 0.0
H5112 H 0.80767 0.54751 0.13424 0.0
H5113 H 0.80535 0.55414 0.16778 0.0
H5114 H 0.82663 0.55184 0.13479 0.0
H5115 H 0.82431 0.55851 0.16831 0.0
H5116 H 0.85159 0.58201 0.15967 0.0
H5117 H 0.83408 0.57378 0.16116 0.0
H5118 H 0.84464 0.54739 0.1417 0.0
H5119 H 0.86222 0.55578 0.14007 0.0
C5120 C 0.81126 0.54963 0.14178 0.0
C5121 C 0.80498 0.55061 0.15094 0.0
C5122 C 0.82213 0.55211 0.14209 0.0
C5123 C 0.82693 0.55564 0.15157 0.0
C5124 C 0.82078 0.55601 0.16085 0.0
C5125 C 0.80993 0.55352 0.16054 0.0
C5126 C 0.85019 0.5744 0.15579 0.0
C5127 C 0.85822 0.56958 0.14968 0.0
C5128 C 0.8402 0.56963 0.15672 0.0
C5129 C 0.83797 0.55994 0.15153 0.0
C5130 C 0.84611 0.5549 0.14572 0.0
C5131 C 0.85618 0.55965 0.14486 0.0
H5132 H 0.70528 0.52026 0.39396 0.0
H5133 H 0.72894 0.54431 0.38728 0.0
H5134 H 0.69248 0.53407 0.39845 0.0
H5135 H 0.7163 0.55814 0.3924 0.0
H5136 H 0.68707 0.57987 0.38946 0.0
H5137 H 0.70051 0.56635 0.38585 0.0
H5138 H 0.688 0.54726 0.41128 0.0
H5139 H 0.67439 0.56072 0.4147 0.0
C5140 C 0.70777 0.5285 0.39348 0.0
C5141 C 0.71813 0.53116 0.39015 0.0
C5142 C 0.70046 0.53643 0.39622 0.0
C5143 C 0.70333 0.54724 0.39578 0.0
C5144 C 0.71376 0.5499 0.39268 0.0
C5145 C 0.72106 0.54196 0.38988 0.0
C5146 C 0.68727 0.57283 0.39434 0.0
C5147 C 0.67967 0.57134 0.40235 0.0
C5148 C 0.695 0.56508 0.3923 0.0
C5149 C 0.69536 0.55569 0.39827 0.0
C5150 C 0.68785 0.5543 0.4064 0.0
C5151 C 0.68007 0.56202 0.40839 0.0
H5152 H 0.211 0.95657 0.13319 0.0
H5153 H 0.19827 0.98539 0.14712 0.0
H5154 H 0.19332 0.94864 0.13325 0.0
H5155 H 0.18039 0.97751 0.14688 0.0
H5156 H 0.15326 0.95345 0.156 0.0
H5157 H 0.17023 0.96309 0.15561 0.0
H5158 H 0.17631 0.95057 0.12424 0.0
H5159 H 0.15946 0.94094 0.12466 0.0
C5160 C 0.20441 0.96121 0.13628 0.0
C5161 C 0.20605 0.97159 0.14021 0.0
C5162 C 0.19425 0.95671 0.13619 0.0
C5163 C 0.18543 0.96246 0.14001 0.0
C5164 C 0.18704 0.97286 0.14394 0.0
C5165 C 0.19725 0.9774 0.14399 0.0
C5166 C 0.15817 0.95289 0.14898 0.0
C5167 C 0.15511 0.94632 0.14042 0.0
C5168 C 0.16787 0.95842 0.14875 0.0
C5169 C 0.17468 0.95748 0.13995 0.0
C5170 C 0.17137 0.95127 0.13123 0.0
C5171 C 0.16172 0.94575 0.13147 0.0
H5172 H 0.2119 0.97977 0.64245 0.0
H5173 H 0.22382 0.97927 0.61042 0.0
H5174 H 0.19867 0.96633 0.6377 0.0
H5175 H 0.21044 0.96592 0.60557 0.0
H5176 H 0.19055 0.93521 0.60314 0.0
H5177 H 0.20473 0.94768 0.60799 0.0
H5178 H 0.18258 0.96528 0.62756 0.0
H5179 H 0.16862 0.95257 0.62318 0.0
C5180 C 0.21166 0.97679 0.63438 0.0
C5181 C 0.21884 0.98063 0.62679 0.0
C5182 C 0.20406 0.96912 0.63164 0.0
C5183 C 0.20339 0.96513 0.62122 0.0
C5184 C 0.21078 0.96874 0.61369 0.0
C5185 C 0.21845 0.9764 0.61645 0.0
C5186 C 0.18874 0.94169 0.60856 0.0
C5187 C 0.17843 0.94287 0.61276 0.0
C5188 C 0.19684 0.9489 0.61124 0.0
C5189 C 0.19482 0.95746 0.6182 0.0
C5190 C 0.18448 0.95869 0.62231 0.0
C5191 C 0.17641 0.95148 0.61966 0.0
H5192 H 0.80684 0.4653 0.38002 0.0
H5193 H 0.80427 0.45718 0.34679 0.0
H5194 H 0.82574 0.46074 0.37968 0.0
H5195 H 0.82315 0.45256 0.34649 0.0
H5196 H 0.85062 0.4297 0.3558 0.0
H5197 H 0.83295 0.43759 0.35438 0.0
H5198 H 0.84373 0.46498 0.37237 0.0
H5199 H 0.86147 0.45696 0.37392 0.0
C5200 C 0.81036 0.46278 0.37258 0.0
C5201 C 0.80402 0.46148 0.36346 0.0
C5202 C 0.8212 0.46016 0.37239 0.0
C5203 C 0.8259 0.45617 0.36308 0.0
C5204 C 0.8197 0.45542 0.35383 0.0
C5205 C 0.80889 0.45806 0.35401 0.0
C5206 C 0.84923 0.43744 0.3594 0.0
C5207 C 0.85738 0.44268 0.36504 0.0
C5208 C 0.83914 0.442 0.3585 0.0
C5209 C 0.83694 0.45191 0.36326 0.0
C5210 C 0.84518 0.45731 0.36868 0.0
C5211 C 0.85533 0.45276 0.3695 0.0
H5212 H 0.71393 0.55945 0.87376 0.0
H5213 H 0.70098 0.52825 0.86691 0.0
H5214 H 0.69624 0.56713 0.87221 0.0
H5215 H 0.68315 0.53599 0.86536 0.0
H5216 H 0.65201 0.55353 0.87625 0.0
H5217 H 0.66933 0.54461 0.87628 0.0
H5218 H 0.68288 0.57075 0.85883 0.0
H5219 H 0.66565 0.57967 0.85888 0.0
C5220 C 0.70732 0.55424 0.87178 0.0
C5221 C 0.70889 0.54325 0.87036 0.0
C5222 C 0.69716 0.55865 0.87089 0.0
C5223 C 0.68829 0.55219 0.86855 0.0
C5224 C 0.68981 0.54117 0.86723 0.0
C5225 C 0.70002 0.53674 0.86813 0.0
C5226 C 0.65866 0.55727 0.87227 0.0
C5227 C 0.65751 0.56736 0.86767 0.0
C5228 C 0.66858 0.55216 0.87229 0.0
C5229 C 0.67752 0.55704 0.86768 0.0
C5230 C 0.67622 0.56689 0.86266 0.0
C5231 C 0.66634 0.572 0.86267 0.0
H5232 H 0.88234 0.71119 0.95965 0.0
H5233 H 0.91595 0.70387 0.96121 0.0
H5234 H 0.88223 0.70672 0.94082 0.0
H5235 H 0.91583 0.69936 0.94239 0.0
H5236 H 0.90688 0.67767 0.914 0.0
H5237 H 0.90821 0.68469 0.93194 0.0
H5238 H 0.88891 0.71167 0.92315 0.0
H5239 H 0.88766 0.70468 0.90506 0.0
C5240 C 0.88975 0.70883 0.95594 0.0
C5241 C 0.89913 0.70779 0.96196 0.0
C5242 C 0.88969 0.70626 0.94514 0.0
C5243 C 0.899 0.70259 0.94013 0.0
C5244 C 0.90848 0.70198 0.94606 0.0
C5245 C 0.90854 0.70455 0.95684 0.0
C5246 C 0.9031 0.68521 0.9158 0.0
C5247 C 0.89718 0.69061 0.90806 0.0
C5248 C 0.90385 0.68923 0.92612 0.0
C5249 C 0.89868 0.69875 0.92897 0.0
C5250 C 0.89288 0.70425 0.92121 0.0
C5251 C 0.89216 0.70024 0.91086 0.0
H5252 H 0.05385 0.12106 0.73202 0.0
H5253 H 0.05025 0.15375 0.74228 0.0
H5254 H 0.06432 0.12689 0.71692 0.0
H5255 H 0.06077 0.1596 0.72711 0.0
H5256 H 0.07373 0.16558 0.69304 0.0
H5257 H 0.06154 0.16057 0.7073 0.0
H5258 H 0.08232 0.13449 0.71545 0.0
H5259 H 0.09445 0.13949 0.7014 0.0
C5260 C 0.05527 0.1295 0.73102 0.0
C5261 C 0.05134 0.13693 0.73841 0.0
C5262 C 0.06127 0.13284 0.72238 0.0
C5263 C 0.0635 0.1437 0.72092 0.0
C5264 C 0.05914 0.15119 0.728 0.0
C5265 C 0.05311 0.14784 0.73668 0.0
C5266 C 0.07571 0.15883 0.69794 0.0
C5267 C 0.08498 0.15285 0.69599 0.0
C5268 C 0.06873 0.15595 0.70609 0.0
C5269 C 0.07089 0.14703 0.71239 0.0
C5270 C 0.08028 0.14123 0.71056 0.0
C5271 C 0.08724 0.14411 0.70249 0.0
H5272 H 0.61229 0.28151 0.45077 0.0
H5273 H 0.62706 0.3105 0.46225 0.0
H5274 H 0.61282 0.28835 0.4327 0.0
H5275 H 0.62728 0.31743 0.44433 0.0
H5276 H 0.63647 0.32239 0.41024 0.0
H5277 H 0.63639 0.31417 0.42761 0.0
H5278 H 0.6045 0.3024 0.42187 0.0
H5279 H 0.60471 0.31033 0.40427 0.0
C5280 C 0.61566 0.28932 0.44944 0.0
C5281 C 0.61961 0.29547 0.45795 0.0
C5282 C 0.61587 0.29328 0.43911 0.0
C5283 C 0.62012 0.30342 0.43708 0.0
C5284 C 0.62408 0.30954 0.4456 0.0
C5285 C 0.62383 0.30561 0.4559 0.0
C5286 C 0.62951 0.31788 0.41259 0.0
C5287 C 0.62059 0.31702 0.40585 0.0
C5288 C 0.62941 0.31329 0.4226 0.0
C5289 C 0.6204 0.30771 0.42616 0.0
C5290 C 0.61158 0.3066 0.41934 0.0
C5291 C 0.61167 0.31123 0.4093 0.0
H5292 H 0.47168 0.87583 0.22888 0.0
H5293 H 0.44433 0.86688 0.24754 0.0
H5294 H 0.46248 0.86979 0.21284 0.0
H5295 H 0.43499 0.86131 0.23154 0.0
H5296 H 0.42271 0.84514 0.20238 0.0
H5297 H 0.43435 0.84829 0.21756 0.0
H5298 H 0.44775 0.87573 0.20204 0.0
H5299 H 0.43649 0.87227 0.18666 0.0
C5300 C 0.46375 0.8725 0.22957 0.0
C5301 C 0.4587 0.87193 0.23948 0.0
C5302 C 0.45843 0.86914 0.22037 0.0
C5303 C 0.44797 0.8651 0.22088 0.0
C5304 C 0.44307 0.86425 0.23084 0.0
C5305 C 0.44838 0.8676 0.24001 0.0
C5306 C 0.42831 0.85169 0.20209 0.0
C5307 C 0.42859 0.8585 0.19332 0.0
C5308 C 0.4349 0.85358 0.21086 0.0
C5309 C 0.4419 0.86234 0.21109 0.0
C5310 C 0.44251 0.86887 0.20213 0.0
C5311 C 0.43595 0.86696 0.19335 0.0
H5312 H 0.88043 0.32269 0.54912 0.0
H5313 H 0.9 0.29502 0.55467 0.0
H5314 H 0.87952 0.32607 0.56808 0.0
H5315 H 0.8988 0.29821 0.57378 0.0
H5316 H 0.9055 0.31698 0.60528 0.0
H5317 H 0.90552 0.31123 0.58676 0.0
H5318 H 0.87212 0.31923 0.58425 0.0
H5319 H 0.87221 0.32542 0.60253 0.0
C5320 C 0.88449 0.31729 0.55441 0.0
C5321 C 0.89036 0.30864 0.55039 0.0
C5322 C 0.88387 0.31915 0.56529 0.0
C5323 C 0.88908 0.3124 0.57246 0.0
C5324 C 0.89477 0.30361 0.56846 0.0
C5325 C 0.89538 0.30173 0.55753 0.0
C5326 C 0.89816 0.31749 0.60078 0.0
C5327 C 0.88888 0.32174 0.6054 0.0
C5328 C 0.89814 0.31409 0.5902 0.0
C5329 C 0.88884 0.31486 0.584 0.0
C5330 C 0.87946 0.31868 0.58875 0.0
C5331 C 0.87948 0.3221 0.5993 0.0
H5332 H 0.47944 0.14263 0.29369 0.0
H5333 H 0.45677 0.1503 0.26908 0.0
H5334 H 0.46614 0.14712 0.3071 0.0
H5335 H 0.44347 0.15455 0.28248 0.0
H5336 H 0.4195 0.14624 0.30881 0.0
H5337 H 0.43334 0.14364 0.29552 0.0
H5338 H 0.45519 0.16249 0.3144 0.0
H5339 H 0.4413 0.16501 0.32782 0.0
C5340 C 0.47169 0.14541 0.29113 0.0
C5341 C 0.46915 0.14598 0.28029 0.0
C5342 C 0.46407 0.14796 0.29882 0.0
C5343 C 0.45374 0.15108 0.29583 0.0
C5344 C 0.45131 0.15198 0.28502 0.0
C5345 C 0.45893 0.14951 0.27735 0.0
C5346 C 0.42726 0.14981 0.31014 0.0
C5347 C 0.42934 0.15579 0.31937 0.0
C5348 C 0.43516 0.1484 0.30249 0.0
C5349 C 0.44534 0.15288 0.30391 0.0
C5350 C 0.44743 0.1589 0.31313 0.0
C5351 C 0.43947 0.16041 0.32075 0.0
H5352 H 0.60079 0.70312 0.05596 0.0
H5353 H 0.63312 0.71503 0.05635 0.0
H5354 H 0.60182 0.69995 0.07492 0.0
H5355 H 0.63401 0.71225 0.07543 0.0
H5356 H 0.63603 0.69018 0.10466 0.0
H5357 H 0.63504 0.69671 0.08663 0.0
H5358 H 0.60306 0.70806 0.0924 0.0
H5359 H 0.60404 0.70149 0.11052 0.0
C5360 C 0.60809 0.70516 0.06012 0.0
C5361 C 0.61692 0.70921 0.05462 0.0
C5362 C 0.60863 0.70347 0.07102 0.0
C5363 C 0.61802 0.7058 0.0767 0.0
C5364 C 0.62671 0.71025 0.07127 0.0
C5365 C 0.62616 0.71194 0.06035 0.0
C5366 C 0.62887 0.69428 0.10218 0.0
C5367 C 0.6201 0.69528 0.10904 0.0
C5368 C 0.6283 0.69803 0.09182 0.0
C5369 C 0.61896 0.70288 0.08805 0.0
C5370 C 0.61032 0.70422 0.09501 0.0
C5371 C 0.61088 0.70046 0.10539 0.0
H5372 H 0.03967 0.87421 0.78421 0.0
H5373 H 0.06825 0.87341 0.7652 0.0
H5374 H 0.04994 0.86809 0.79952 0.0
H5375 H 0.07844 0.86739 0.78042 0.0
H5376 H 0.09493 0.87201 0.81236 0.0
H5377 H 0.08396 0.87619 0.79706 0.0
H5378 H 0.06079 0.85274 0.8067 0.0
H5379 H 0.07178 0.84867 0.82226 0.0
C5380 C 0.0481 0.8726 0.78327 0.0
C5381 C 0.05318 0.87447 0.77354 0.0
C5382 C 0.05397 0.86909 0.79202 0.0
C5383 C 0.06502 0.8674 0.7912 0.0
C5384 C 0.06998 0.86885 0.78136 0.0
C5385 C 0.06414 0.87232 0.77265 0.0
C5386 C 0.08746 0.86779 0.81127 0.0
C5387 C 0.08418 0.86006 0.81855 0.0
C5388 C 0.08123 0.8701 0.80244 0.0
C5389 C 0.07154 0.86476 0.80064 0.0
C5390 C 0.06821 0.85702 0.80791 0.0
C5391 C 0.07452 0.85464 0.81676 0.0
H5392 H 0.94524 0.89686 0.73461 0.0
H5393 H 0.95657 0.88157 0.70601 0.0
H5394 H 0.92709 0.8968 0.72743 0.0
H5395 H 0.93858 0.88179 0.69875 0.0
H5396 H 0.90406 0.87422 0.69256 0.0
H5397 H 0.92127 0.87344 0.70144 0.0
H5398 H 0.91684 0.90553 0.71319 0.0
H5399 H 0.89938 0.90618 0.70458 0.0
C5400 C 0.94385 0.89345 0.72682 0.0
C5401 C 0.95234 0.88925 0.72086 0.0
C5402 C 0.93348 0.8935 0.72267 0.0
C5403 C 0.93139 0.88928 0.71253 0.0
C5404 C 0.93989 0.88499 0.70664 0.0
C5405 C 0.95022 0.88498 0.71075 0.0
C5406 C 0.90664 0.88104 0.6972 0.0
C5407 C 0.90033 0.89027 0.69785 0.0
C5408 C 0.91658 0.88064 0.70219 0.0
C5409 C 0.92047 0.88946 0.70794 0.0
C5410 C 0.91404 0.89858 0.70886 0.0
C5411 C 0.90409 0.89899 0.70385 0.0
H5412 H 0.88822 0.23495 0.45871 0.0
H5413 H 0.85529 0.23666 0.46848 0.0
H5414 H 0.88352 0.22175 0.44526 0.0
H5415 H 0.85053 0.22346 0.45491 0.0
H5416 H 0.84872 0.19183 0.43552 0.0
H5417 H 0.85264 0.20478 0.4496 0.0
H5418 H 0.87405 0.22132 0.42862 0.0
H5419 H 0.87021 0.20838 0.41467 0.0
C5420 C 0.87996 0.23253 0.45795 0.0
C5421 C 0.87211 0.23691 0.46459 0.0
C5422 C 0.87725 0.22498 0.45022 0.0
C5423 C 0.86662 0.22164 0.44891 0.0
C5424 C 0.8588 0.2258 0.45575 0.0
C5425 C 0.86152 0.23336 0.46353 0.0
C5426 C 0.85417 0.19831 0.43391 0.0
C5427 C 0.85925 0.19902 0.42403 0.0
C5428 C 0.85642 0.20572 0.44197 0.0
C5429 C 0.86376 0.21401 0.44028 0.0
C5430 C 0.86856 0.21489 0.43028 0.0
C5431 C 0.86635 0.20748 0.42227 0.0
H5432 H 0.55579 0.10025 0.20805 0.0
H5433 H 0.55817 0.13398 0.21463 0.0
H5434 H 0.5747 0.09978 0.20362 0.0
H5435 H 0.57712 0.13348 0.21026 0.0
H5436 H 0.61295 0.12722 0.20812 0.0
H5437 H 0.5949 0.1264 0.21532 0.0
H5438 H 0.58505 0.10686 0.18873 0.0
H5439 H 0.60293 0.1078 0.18146 0.0
C5440 C 0.56036 0.10755 0.2086 0.0
C5441 C 0.55544 0.11717 0.21157 0.0
C5442 C 0.57119 0.10728 0.20607 0.0
C5443 C 0.57738 0.11661 0.20649 0.0
C5444 C 0.57259 0.12613 0.20995 0.0
C5445 C 0.56173 0.12642 0.21246 0.0
C5446 C 0.60693 0.12274 0.20382 0.0
C5447 C 0.60942 0.11758 0.1942 0.0
C5448 C 0.5966 0.12226 0.20795 0.0
C5449 C 0.58855 0.11656 0.2026 0.0
C5450 C 0.59111 0.11117 0.19315 0.0
C5451 C 0.6014 0.1117 0.18898 0.0
H5452 H 0.65668 0.77828 0.97419 0.0
H5453 H 0.62404 0.779 0.96324 0.0
H5454 H 0.66152 0.79146 0.96087 0.0
H5455 H 0.62879 0.79221 0.9501 0.0
H5456 H 0.64241 0.8056 0.9201 0.0
H5457 H 0.63863 0.79269 0.93383 0.0
H5458 H 0.6592 0.80995 0.95549 0.0
H5459 H 0.66312 0.82283 0.94159 0.0
C5460 C 0.65052 0.78136 0.96903 0.0
C5461 C 0.64001 0.77753 0.96967 0.0
C5462 C 0.65328 0.78891 0.96141 0.0
C5463 C 0.64557 0.79279 0.95432 0.0
C5464 C 0.63499 0.7892 0.95524 0.0
C5465 C 0.63226 0.78165 0.9628 0.0
C5466 C 0.64611 0.80665 0.9278 0.0
C5467 C 0.65296 0.81529 0.92981 0.0
C5468 C 0.64392 0.79927 0.93568 0.0
C5469 C 0.64848 0.80037 0.94582 0.0
C5470 C 0.6556 0.80884 0.94775 0.0
C5471 C 0.65784 0.81622 0.93981 0.0
H5472 H 0.95793 0.12704 0.80865 0.0
H5473 H 0.94592 0.11323 0.77952 0.0
H5474 H 0.93999 0.12712 0.81592 0.0
H5475 H 0.92782 0.11363 0.78671 0.0
H5476 H 0.89945 0.10505 0.8089 0.0
H5477 H 0.91704 0.10498 0.80059 0.0
H5478 H 0.92318 0.13641 0.81336 0.0
H5479 H 0.90586 0.13633 0.82196 0.0
C5480 C 0.95145 0.12399 0.80381 0.0
C5481 C 0.95336 0.12008 0.79352 0.0
C5482 C 0.94114 0.12416 0.80793 0.0
C5483 C 0.93247 0.12044 0.80188 0.0
C5484 C 0.93435 0.11649 0.7916 0.0
C5485 C 0.94469 0.11635 0.78745 0.0
C5486 C 0.90457 0.11193 0.80993 0.0
C5487 C 0.90125 0.12068 0.81612 0.0
C5488 C 0.9146 0.11193 0.80509 0.0
C5489 C 0.92153 0.12066 0.80638 0.0
C5490 C 0.91809 0.1295 0.81234 0.0
C5491 C 0.90809 0.12951 0.81715 0.0
H5492 H 0.65335 0.24422 0.55162 0.0
H5493 H 0.62097 0.23488 0.55852 0.0
H5494 H 0.65994 0.22856 0.56093 0.0
H5495 H 0.62753 0.21945 0.56806 0.0
H5496 H 0.64166 0.18829 0.57802 0.0
H5497 H 0.63655 0.2024 0.56588 0.0
H5498 H 0.66081 0.22285 0.57945 0.0
H5499 H 0.66592 0.20873 0.59158 0.0
C5500 C 0.64764 0.23875 0.55501 0.0
C5501 C 0.63664 0.24081 0.55438 0.0
C5502 C 0.65142 0.22985 0.56043 0.0
C5503 C 0.64427 0.22277 0.56527 0.0
C5504 C 0.63326 0.22466 0.56433 0.0
C5505 C 0.6295 0.23357 0.55896 0.0
C5506 C 0.64593 0.19578 0.57837 0.0
C5507 C 0.65412 0.19743 0.58584 0.0
C5508 C 0.64301 0.20386 0.57142 0.0
C5509 C 0.6482 0.21378 0.57177 0.0
C5510 C 0.65672 0.21527 0.5789 0.0
C5511 C 0.65965 0.20717 0.58586 0.0
H5512 H 0.56259 0.87515 0.28702 0.0
H5513 H 0.55697 0.9079 0.29609 0.0
H5514 H 0.58042 0.87615 0.29475 0.0
H5515 H 0.5748 0.90892 0.30377 0.0
H5516 H 0.60074 0.90173 0.32846 0.0
H5517 H 0.58375 0.90166 0.31913 0.0
H5518 H 0.59806 0.88427 0.29317 0.0
H5519 H 0.61513 0.88434 0.30253 0.0
C5520 C 0.56523 0.88261 0.29051 0.0
C5521 C 0.55834 0.89142 0.29102 0.0
C5522 C 0.57545 0.88319 0.29494 0.0
C5523 C 0.57901 0.89259 0.29995 0.0
C5524 C 0.57223 0.90149 0.30015 0.0
C5525 C 0.56202 0.90091 0.29574 0.0
C5526 C 0.60032 0.89804 0.32069 0.0
C5527 C 0.60931 0.89306 0.31624 0.0
C5528 C 0.59057 0.898 0.31533 0.0
C5529 C 0.58954 0.89297 0.30539 0.0
C5530 C 0.59855 0.88809 0.30087 0.0
C5531 C 0.60833 0.88814 0.30624 0.0
H5532 H 0.88522 0.78712 0.04327 0.0
H5533 H 0.85329 0.77444 0.04519 0.0
H5534 H 0.88055 0.80109 0.05591 0.0
H5535 H 0.84847 0.78859 0.05764 0.0
H5536 H 0.84813 0.80709 0.0893 0.0
H5537 H 0.8516 0.79386 0.07549 0.0
H5538 H 0.87058 0.81688 0.05859 0.0
H5539 H 0.86733 0.82996 0.07259 0.0
C5540 C 0.87714 0.78745 0.04626 0.0
C5541 C 0.86963 0.77968 0.04326 0.0
C5542 C 0.87444 0.79548 0.05349 0.0
C5543 C 0.86412 0.79599 0.05783 0.0
C5544 C 0.85654 0.78834 0.05462 0.0
C5545 C 0.85928 0.78025 0.04746 0.0
C5546 C 0.85293 0.80934 0.08256 0.0
C5547 C 0.85751 0.81953 0.08205 0.0
C5548 C 0.85491 0.80177 0.07462 0.0
C5549 C 0.86143 0.80426 0.06593 0.0
C5550 C 0.86571 0.81459 0.06527 0.0
C5551 C 0.86381 0.82212 0.07326 0.0
H5552 H 0.72164 0.94752 0.87722 0.0
H5553 H 0.71205 0.95321 0.9096 0.0
H5554 H 0.71371 0.92983 0.87779 0.0
H5555 H 0.70416 0.93546 0.9102 0.0
H5556 H 0.67961 0.90927 0.90213 0.0
H5557 H 0.68892 0.92628 0.90268 0.0
H5558 H 0.71528 0.91233 0.88554 0.0
H5559 H 0.7059 0.89529 0.88495 0.0
C5560 C 0.718 0.94492 0.88452 0.0
C5561 C 0.71745 0.95179 0.89336 0.0
C5562 C 0.71345 0.93477 0.88485 0.0
C5563 C 0.70826 0.93123 0.89403 0.0
C5564 C 0.70793 0.93801 0.90295 0.0
C5565 C 0.71246 0.94817 0.90261 0.0
C5566 C 0.68746 0.90979 0.89862 0.0
C5567 C 0.69201 0.90092 0.89348 0.0
C5568 C 0.69281 0.91955 0.89894 0.0
C5569 C 0.70285 0.92068 0.89414 0.0
C5570 C 0.70748 0.91177 0.88917 0.0
C5571 C 0.70212 0.902 0.88883 0.0
H5572 H 0.21165 0.56045 0.13586 0.0
H5573 H 0.20799 0.55966 0.10185 0.0
H5574 H 0.20753 0.57944 0.13601 0.0
H5575 H 0.20388 0.57862 0.102 0.0
H5576 H 0.18157 0.60697 0.10922 0.0
H5577 H 0.1886 0.589 0.1081 0.0
H5578 H 0.21335 0.59736 0.13054 0.0
H5579 H 0.20635 0.61549 0.1316 0.0
C5580 C 0.21018 0.56438 0.1284 0.0
C5581 C 0.21002 0.55853 0.11886 0.0
C5582 C 0.20782 0.57526 0.12848 0.0
C5583 C 0.20527 0.58052 0.11903 0.0
C5584 C 0.2056 0.57476 0.10944 0.0
C5585 C 0.20795 0.5639 0.10936 0.0
C5586 C 0.18866 0.60508 0.11374 0.0
C5587 C 0.1934 0.61271 0.12048 0.0
C5588 C 0.19269 0.59475 0.11311 0.0
C5589 C 0.20155 0.59174 0.11922 0.0
C5590 C 0.20644 0.5994 0.12582 0.0
C5591 C 0.20242 0.60978 0.12643 0.0
H5592 H 0.24056 0.46506 0.85991 0.0
H5593 H 0.23299 0.45788 0.89242 0.0
H5594 H 0.22469 0.45534 0.85404 0.0
H5595 H 0.21735 0.4479 0.88656 0.0
H5596 H 0.18542 0.43746 0.8737 0.0
H5597 H 0.19981 0.44968 0.87848 0.0
H5598 H 0.21911 0.43666 0.85322 0.0
H5599 H 0.20471 0.42445 0.84844 0.0
C5600 C 0.23544 0.46151 0.86581 0.0
C5601 C 0.23805 0.4622 0.87662 0.0
C5602 C 0.22641 0.45585 0.86244 0.0
C5603 C 0.21978 0.4508 0.86982 0.0
C5604 C 0.22223 0.45178 0.88066 0.0
C5605 C 0.23125 0.4574 0.88402 0.0
C5606 C 0.19273 0.43723 0.86915 0.0
C5607 C 0.19395 0.42992 0.86074 0.0
C5608 C 0.20097 0.44423 0.87189 0.0
C5609 C 0.21064 0.4441 0.86628 0.0
C5610 C 0.21172 0.43706 0.85763 0.0
C5611 C 0.20347 0.43006 0.85488 0.0
H5612 H 0.29958 0.45308 0.60743 0.0
H5613 H 0.28997 0.44967 0.64004 0.0
H5614 H 0.30717 0.43521 0.60765 0.0
H5615 H 0.29729 0.43168 0.64017 0.0
H5616 H 0.32448 0.40679 0.63984 0.0
H5617 H 0.31519 0.42378 0.6397 0.0
H5618 H 0.30226 0.41629 0.60879 0.0
H5619 H 0.31149 0.39919 0.60895 0.0
C5620 C 0.29904 0.44849 0.61463 0.0
C5621 C 0.29423 0.45282 0.62373 0.0
C5622 C 0.30329 0.43821 0.61472 0.0
C5623 C 0.30286 0.43204 0.62393 0.0
C5624 C 0.29785 0.43628 0.63298 0.0
C5625 C 0.29356 0.44654 0.63287 0.0
C5626 C 0.31951 0.40866 0.63308 0.0
C5627 C 0.31874 0.40161 0.6244 0.0
C5628 C 0.31419 0.41842 0.633 0.0
C5629 C 0.308 0.42139 0.62422 0.0
C5630 C 0.30709 0.41429 0.61561 0.0
C5631 C 0.31238 0.4045 0.6157 0.0
H5632 H 0.77885 0.04947 0.88672 0.0
H5633 H 0.76815 0.0485 0.8542 0.0
H5634 H 0.79469 0.05931 0.88145 0.0
H5635 H 0.78409 0.05822 0.84886 0.0
H5636 H 0.80561 0.08806 0.84669 0.0
H5637 H 0.79092 0.07603 0.85061 0.0
H5638 H 0.81127 0.05862 0.87201 0.0
H5639 H 0.82592 0.07078 0.86817 0.0
C5640 C 0.78 0.05117 0.87841 0.0
C5641 C 0.77223 0.04825 0.87089 0.0
C5642 C 0.78909 0.0568 0.87537 0.0
C5643 C 0.79066 0.05961 0.86473 0.0
C5644 C 0.78305 0.05637 0.85715 0.0
C5645 C 0.77393 0.05077 0.8602 0.0
C5646 C 0.807 0.08155 0.85209 0.0
C5647 C 0.8169 0.0804 0.85717 0.0
C5648 C 0.79858 0.07464 0.85434 0.0
C5649 C 0.79988 0.06637 0.86168 0.0
C5650 C 0.80992 0.06501 0.86647 0.0
C5651 C 0.81832 0.07196 0.86426 0.0
H5652 H 0.82546 0.05292 0.3855 0.0
H5653 H 0.7927 0.06115 0.39214 0.0
H5654 H 0.83016 0.0717 0.38522 0.0
H5655 H 0.79744 0.08007 0.39181 0.0
H5656 H 0.80974 0.11301 0.37974 0.0
H5657 H 0.80387 0.09442 0.37986 0.0
H5658 H 0.83163 0.0861 0.39831 0.0
H5659 H 0.83766 0.10448 0.39789 0.0
C5660 C 0.81926 0.05875 0.38695 0.0
C5661 C 0.80873 0.05553 0.38898 0.0
C5662 C 0.82196 0.06952 0.3868 0.0
C5663 C 0.81421 0.07737 0.38865 0.0
C5664 C 0.80359 0.0742 0.39032 0.0
C5665 C 0.80087 0.06338 0.3905 0.0
C5666 C 0.81458 0.1072 0.38381 0.0
C5667 C 0.82418 0.11024 0.38878 0.0
C5668 C 0.81117 0.09658 0.38396 0.0
C5669 C 0.81734 0.08878 0.38901 0.0
C5670 C 0.82678 0.09189 0.3942 0.0
C5671 C 0.83016 0.10247 0.39409 0.0
H5672 H 0.24426 0.55145 0.65485 0.0
H5673 H 0.23458 0.55442 0.62217 0.0
H5674 H 0.22892 0.56214 0.66034 0.0
H5675 H 0.2193 0.56507 0.62763 0.0
H5676 H 0.20322 0.59533 0.63974 0.0
H5677 H 0.21742 0.5831 0.6349 0.0
H5678 H 0.20908 0.56292 0.66112 0.0
H5679 H 0.1947 0.57519 0.66596 0.0
C5680 C 0.23875 0.55422 0.64886 0.0
C5681 C 0.24069 0.5522 0.63807 0.0
C5682 C 0.22997 0.56034 0.652 0.0
C5683 C 0.22298 0.56457 0.64441 0.0
C5684 C 0.22468 0.56213 0.63366 0.0
C5685 C 0.23342 0.55602 0.63053 0.0
C5686 C 0.2043 0.58822 0.64441 0.0
C5687 C 0.19773 0.58618 0.65316 0.0
C5688 C 0.21245 0.58121 0.64163 0.0
C5689 C 0.21429 0.57197 0.64755 0.0
C5690 C 0.20788 0.56999 0.65643 0.0
C5691 C 0.19966 0.57703 0.65921 0.0
H5692 H 0.28293 0.46742 0.12546 0.0
H5693 H 0.28057 0.47692 0.15831 0.0
H5694 H 0.29626 0.45418 0.13008 0.0
H5695 H 0.29385 0.4635 0.16301 0.0
H5696 H 0.32535 0.44438 0.1654 0.0
H5697 H 0.31249 0.45843 0.16138 0.0
H5698 H 0.29681 0.43742 0.13895 0.0
H5699 H 0.3097 0.42354 0.14285 0.0
C5700 C 0.28525 0.46664 0.13369 0.0
C5701 C 0.28065 0.47314 0.14153 0.0
C5702 C 0.29286 0.45903 0.13635 0.0
C5703 C 0.29603 0.45767 0.14694 0.0
C5704 C 0.29165 0.46438 0.15477 0.0
C5705 C 0.28404 0.47206 0.15209 0.0
C5706 C 0.3191 0.44278 0.15967 0.0
C5707 C 0.3186 0.43291 0.15435 0.0
C5708 C 0.31173 0.4508 0.15738 0.0
C5709 C 0.30369 0.4491 0.14975 0.0
C5710 C 0.30306 0.43911 0.14466 0.0
C5711 C 0.31043 0.43114 0.14692 0.0
H5712 H 0.60375 0.80297 0.51746 0.0
H5713 H 0.63613 0.80887 0.52767 0.0
H5714 H 0.59712 0.81243 0.53311 0.0
H5715 H 0.62954 0.81854 0.54313 0.0
H5716 H 0.6149 0.82895 0.57397 0.0
H5717 H 0.61993 0.81657 0.55985 0.0
H5718 H 0.5969 0.83114 0.53904 0.0
H5719 H 0.59164 0.8433 0.55327 0.0
C5720 C 0.60944 0.80616 0.52312 0.0
C5721 C 0.62046 0.80522 0.52131 0.0
C5722 C 0.60565 0.81167 0.53202 0.0
C5723 C 0.6128 0.81628 0.53934 0.0
C5724 C 0.62382 0.81501 0.5377 0.0
C5725 C 0.6276 0.80956 0.52879 0.0
C5726 C 0.61074 0.82935 0.56646 0.0
C5727 C 0.60291 0.83714 0.56472 0.0
C5728 C 0.61371 0.82234 0.55834 0.0
C5729 C 0.60888 0.82293 0.5483 0.0
C5730 C 0.60073 0.83042 0.5467 0.0
C5731 C 0.59779 0.83746 0.55482 0.0
H5732 H 0.46018 0.34814 0.8067 0.0
H5733 H 0.46531 0.38214 0.80814 0.0
H5734 H 0.45522 0.34826 0.82536 0.0
H5735 H 0.46041 0.38223 0.82682 0.0
H5736 H 0.4563 0.37792 0.86233 0.0
H5737 H 0.46491 0.37608 0.845 0.0
H5738 H 0.43941 0.35532 0.83455 0.0
H5739 H 0.43096 0.35703 0.85182 0.0
C5740 C 0.46033 0.35563 0.81102 0.0
C5741 C 0.46301 0.36515 0.80589 0.0
C5742 C 0.4575 0.35569 0.82171 0.0
C5743 C 0.45732 0.36527 0.82753 0.0
C5744 C 0.46057 0.37471 0.82258 0.0
C5745 C 0.46338 0.37465 0.81186 0.0
C5746 C 0.45267 0.37281 0.85637 0.0
C5747 C 0.44294 0.36766 0.85838 0.0
C5748 C 0.45754 0.37183 0.84644 0.0
C5749 C 0.45283 0.36558 0.8384 0.0
C5750 C 0.44331 0.3601 0.8406 0.0
C5751 C 0.43842 0.36116 0.85046 0.0
H5752 H 0.87871 0.21929 0.03924 0.0
H5753 H 0.91012 0.21588 0.02573 0.0
H5754 H 0.88314 0.20614 0.05262 0.0
H5755 H 0.91468 0.20289 0.03924 0.0
H5756 H 0.91457 0.17123 0.05683 0.0
H5757 H 0.91066 0.18502 0.044 0.0
H5758 H 0.89364 0.20285 0.06798 0.0
H5759 H 0.897 0.18877 0.08064 0.0
C5760 C 0.88663 0.21585 0.03925 0.0
C5761 C 0.89405 0.21859 0.03142 0.0
C5762 C 0.88918 0.20832 0.04692 0.0
C5763 C 0.89926 0.20341 0.04701 0.0
C5764 C 0.90677 0.20635 0.0393 0.0
C5765 C 0.90418 0.21382 0.03158 0.0
C5766 C 0.90991 0.17805 0.05935 0.0
C5767 C 0.90607 0.17884 0.06978 0.0
C5768 C 0.90779 0.18604 0.05202 0.0
C5769 C 0.90183 0.19508 0.05493 0.0
C5770 C 0.89814 0.19595 0.06541 0.0
C5771 C 0.9002 0.18793 0.07273 0.0
H5772 H 0.0493 0.63204 0.31019 0.0
H5773 H 0.0546 0.66599 0.30884 0.0
H5774 H 0.05388 0.63228 0.32897 0.0
H5775 H 0.0592 0.66621 0.32762 0.0
H5776 H 0.08298 0.6579 0.35458 0.0
H5777 H 0.07475 0.6594 0.33718 0.0
H5778 H 0.04921 0.63863 0.34702 0.0
H5779 H 0.05763 0.63697 0.36446 0.0
C5780 C 0.0512 0.63959 0.31395 0.0
C5781 C 0.05172 0.64898 0.30799 0.0
C5782 C 0.05382 0.63973 0.32472 0.0
C5783 C 0.05701 0.64925 0.32975 0.0
C5784 C 0.05696 0.65872 0.32392 0.0
C5785 C 0.05434 0.65859 0.31317 0.0
C5786 C 0.07557 0.65372 0.35305 0.0
C5787 C 0.07099 0.64725 0.36083 0.0
C5788 C 0.07079 0.65466 0.34312 0.0
C5789 C 0.06133 0.64912 0.34071 0.0
C5790 C 0.05654 0.64293 0.34862 0.0
C5791 C 0.0613 0.64205 0.35862 0.0
H5792 H 0.61562 0.19021 0.00675 0.0
H5793 H 0.62231 0.21662 0.98611 0.0
H5794 H 0.60994 0.17955 0.99158 0.0
H5795 H 0.61654 0.2059 0.97086 0.0
H5796 H 0.59648 0.18535 0.94743 0.0
H5797 H 0.60078 0.19683 0.96261 0.0
H5798 H 0.6191 0.17136 0.97641 0.0
H5799 H 0.61496 0.15999 0.96128 0.0
C5800 C 0.61591 0.19374 0.99896 0.0
C5801 C 0.61956 0.20422 0.99762 0.0
C5802 C 0.61263 0.18762 0.99027 0.0
C5803 C 0.6129 0.19184 0.98001 0.0
C5804 C 0.61618 0.20245 0.97868 0.0
C5805 C 0.61949 0.20859 0.98741 0.0
C5806 C 0.60147 0.18223 0.95368 0.0
C5807 C 0.6053 0.17171 0.95317 0.0
C5808 C 0.60392 0.1888 0.96237 0.0
C5809 C 0.61021 0.18497 0.97074 0.0
C5810 C 0.61405 0.17448 0.9702 0.0
C5811 C 0.61165 0.16795 0.96152 0.0
H5812 H 0.05461 0.34887 0.20393 0.0
H5813 H 0.04552 0.38199 0.20576 0.0
H5814 H 0.05875 0.35088 0.18522 0.0
H5815 H 0.04926 0.3839 0.18693 0.0
H5816 H 0.07414 0.38625 0.15991 0.0
H5817 H 0.06588 0.38437 0.17719 0.0
H5818 H 0.05219 0.35429 0.16728 0.0
H5819 H 0.06077 0.35607 0.14998 0.0
C5820 C 0.05335 0.35654 0.2003 0.0
C5821 C 0.04988 0.3653 0.20638 0.0
C5822 C 0.05559 0.35766 0.18953 0.0
C5823 C 0.05442 0.36758 0.1846 0.0
C5824 C 0.05039 0.37619 0.19054 0.0
C5825 C 0.04814 0.37507 0.20131 0.0
C5826 C 0.06931 0.37926 0.1614 0.0
C5827 C 0.06821 0.37124 0.15365 0.0
C5828 C 0.06447 0.37824 0.17127 0.0
C5829 C 0.05839 0.36916 0.17364 0.0
C5830 C 0.05691 0.36133 0.16573 0.0
C5831 C 0.06175 0.36238 0.15581 0.0
H5832 H 0.87457 0.80976 0.48195 0.0
H5833 H 0.90673 0.80342 0.49244 0.0
H5834 H 0.88151 0.81948 0.46683 0.0
H5835 H 0.91369 0.81292 0.47714 0.0
H5836 H 0.91996 0.8438 0.45783 0.0
H5837 H 0.91425 0.83168 0.4717 0.0
H5838 H 0.89137 0.81748 0.45017 0.0
H5839 H 0.89688 0.82982 0.4364 0.0
C5840 C 0.88312 0.81036 0.48097 0.0
C5841 C 0.89009 0.80588 0.48843 0.0
C5842 C 0.88711 0.81583 0.47224 0.0
C5843 C 0.89816 0.81699 0.47079 0.0
C5844 C 0.90514 0.81225 0.47809 0.0
C5845 C 0.90115 0.80672 0.48679 0.0
C5846 C 0.91376 0.83805 0.45605 0.0
C5847 C 0.90883 0.83782 0.44604 0.0
C5848 C 0.91055 0.83103 0.46396 0.0
C5849 C 0.90232 0.82365 0.46205 0.0
C5850 C 0.89766 0.82316 0.45192 0.0
C5851 C 0.90089 0.83015 0.444 0.0
H5852 H 0.48366 0.64489 0.6963 0.0
H5853 H 0.45343 0.63539 0.70958 0.0
H5854 H 0.47529 0.64627 0.67882 0.0
H5855 H 0.44513 0.63682 0.69225 0.0
H5856 H 0.43074 0.65118 0.66313 0.0
H5857 H 0.4403 0.65093 0.67993 0.0
H5858 H 0.4668 0.63508 0.66477 0.0
H5859 H 0.4572 0.63535 0.64788 0.0
C5860 C 0.47526 0.64303 0.69548 0.0
C5861 C 0.46918 0.64015 0.70435 0.0
C5862 C 0.47048 0.64383 0.68548 0.0
C5863 C 0.45952 0.64179 0.68419 0.0
C5864 C 0.45352 0.6387 0.69303 0.0
C5865 C 0.45829 0.63788 0.70297 0.0
C5866 C 0.43861 0.64766 0.66337 0.0
C5867 C 0.44316 0.64316 0.65421 0.0
C5868 C 0.44409 0.6475 0.67299 0.0
C5869 C 0.45424 0.64284 0.67371 0.0
C5870 C 0.45901 0.63877 0.66446 0.0
C5871 C 0.45352 0.63893 0.65479 0.0
H5872 H 0.53309 0.63703 0.80478 0.0
H5873 H 0.52253 0.60482 0.79858 0.0
H5874 H 0.54815 0.63026 0.81492 0.0
H5875 H 0.5378 0.59803 0.80848 0.0
H5876 H 0.55705 0.5921 0.83944 0.0
H5877 H 0.54314 0.59773 0.82718 0.0
H5878 H 0.56488 0.62045 0.81348 0.0
H5879 H 0.57866 0.61507 0.82597 0.0
C5880 C 0.53405 0.6285 0.8055 0.0
C5881 C 0.52658 0.62147 0.80094 0.0
C5882 C 0.54274 0.62461 0.81122 0.0
C5883 C 0.54415 0.6136 0.81253 0.0
C5884 C 0.53686 0.60656 0.8077 0.0
C5885 C 0.52818 0.61044 0.80194 0.0
C5886 C 0.55886 0.59828 0.8338 0.0
C5887 C 0.56894 0.60318 0.83373 0.0
C5888 C 0.55093 0.60142 0.82669 0.0
C5889 C 0.55289 0.60957 0.81938 0.0
C5890 C 0.56308 0.61423 0.81909 0.0
C5891 C 0.57102 0.61107 0.82618 0.0
H5892 H 0.62733 0.31121 0.04049 0.0
H5893 H 0.65977 0.30505 0.05022 0.0
H5894 H 0.62833 0.3289 0.04855 0.0
H5895 H 0.66078 0.32275 0.05827 0.0
H5896 H 0.65236 0.34762 0.08401 0.0
H5897 H 0.65284 0.33109 0.07382 0.0
H5898 H 0.63674 0.34654 0.04788 0.0
H5899 H 0.63597 0.36305 0.05825 0.0
C5900 C 0.63475 0.31371 0.04416 0.0
C5901 C 0.64344 0.30669 0.0448 0.0
C5902 C 0.63532 0.32386 0.04878 0.0
C5903 C 0.64461 0.3272 0.05414 0.0
C5904 C 0.65345 0.32034 0.05438 0.0
C5905 C 0.65287 0.3102 0.04977 0.0
C5906 C 0.64891 0.34749 0.07613 0.0
C5907 C 0.64405 0.35662 0.07197 0.0
C5908 C 0.6493 0.33805 0.07024 0.0
C5909 C 0.64483 0.33749 0.06003 0.0
C5910 C 0.64017 0.34669 0.05576 0.0
C5911 C 0.63982 0.35617 0.06165 0.0
H5912 H 0.97922 0.37579 0.29745 0.0
H5913 H 0.98511 0.40842 0.28869 0.0
H5914 H 0.96588 0.38173 0.31021 0.0
H5915 H 0.9716 0.41437 0.30139 0.0
H5916 H 0.95651 0.42009 0.33477 0.0
H5917 H 0.9694 0.41485 0.32119 0.0
H5918 H 0.94795 0.39013 0.31031 0.0
H5919 H 0.93518 0.39523 0.32397 0.0
C5920 C 0.97765 0.38423 0.29825 0.0
C5921 C 0.98322 0.39164 0.29209 0.0
C5922 C 0.96995 0.38763 0.30549 0.0
C5923 C 0.96769 0.39852 0.30679 0.0
C5924 C 0.97323 0.40594 0.3006 0.0
C5925 C 0.98088 0.40253 0.29327 0.0
C5926 C 0.95456 0.41354 0.32947 0.0
C5927 C 0.94483 0.40807 0.33044 0.0
C5928 C 0.96189 0.4106 0.32164 0.0
C5929 C 0.95969 0.40206 0.3147 0.0
C5930 C 0.94991 0.39668 0.3156 0.0
C5931 C 0.94255 0.39967 0.32335 0.0
H5932 H 0.88839 0.70515 0.53773 0.0
H5933 H 0.85553 0.70934 0.54703 0.0
H5934 H 0.88837 0.68742 0.54545 0.0
H5935 H 0.8556 0.69171 0.55501 0.0
H5936 H 0.85711 0.65591 0.56126 0.0
H5937 H 0.85689 0.67236 0.55099 0.0
H5938 H 0.88782 0.68078 0.56369 0.0
H5939 H 0.88813 0.66432 0.57373 0.0
C5940 C 0.88112 0.70224 0.5413 0.0
C5941 C 0.87198 0.70867 0.54181 0.0
C5942 C 0.88114 0.69212 0.54582 0.0
C5943 C 0.87201 0.68819 0.5509 0.0
C5944 C 0.86274 0.69447 0.55109 0.0
C5945 C 0.86274 0.70462 0.54662 0.0
C5946 C 0.86391 0.66123 0.56173 0.0
C5947 C 0.8726 0.65887 0.56835 0.0
C5948 C 0.86375 0.67067 0.55593 0.0
C5949 C 0.87233 0.67787 0.55654 0.0
C5950 C 0.88113 0.67536 0.56296 0.0
C5951 C 0.88125 0.66599 0.5688 0.0
H5952 H 0.5195 0.3994 0.70867 0.0
H5953 H 0.54484 0.39249 0.73082 0.0
H5954 H 0.53264 0.40458 0.69552 0.0
H5955 H 0.55799 0.39788 0.71765 0.0
H5956 H 0.5775 0.41771 0.69375 0.0
H5957 H 0.56439 0.41376 0.70744 0.0
H5958 H 0.54632 0.39495 0.68491 0.0
H5959 H 0.55948 0.39866 0.67131 0.0
C5960 C 0.52787 0.39896 0.71074 0.0
C5961 C 0.53111 0.3954 0.72077 0.0
C5962 C 0.5354 0.40196 0.7032 0.0
C5963 C 0.54634 0.40155 0.70552 0.0
C5964 C 0.5496 0.39835 0.71566 0.0
C5965 C 0.54206 0.39528 0.72321 0.0
C5966 C 0.57078 0.41266 0.69173 0.0
C5967 C 0.56955 0.40853 0.68139 0.0
C5968 C 0.56326 0.41042 0.69957 0.0
C5969 C 0.55431 0.40408 0.69724 0.0
C5970 C 0.55304 0.40001 0.68691 0.0
C5971 C 0.56058 0.40217 0.6791 0.0
H5972 H 0.84771 0.30275 0.95829 0.0
H5973 H 0.88154 0.30473 0.96455 0.0
H5974 H 0.84764 0.32142 0.95312 0.0
H5975 H 0.88145 0.32339 0.95945 0.0
H5976 H 0.87676 0.35888 0.95468 0.0
H5977 H 0.87491 0.34163 0.96339 0.0
H5978 H 0.85499 0.3305 0.93762 0.0
H5979 H 0.85668 0.34771 0.92907 0.0
C5980 C 0.85511 0.30719 0.95865 0.0
C5981 C 0.86466 0.30221 0.96172 0.0
C5982 C 0.85507 0.31788 0.9557 0.0
C5983 C 0.86455 0.32385 0.95577 0.0
C5984 C 0.87398 0.31904 0.9594 0.0
C5985 C 0.87404 0.30834 0.96233 0.0
C5986 C 0.87184 0.35279 0.951 0.0
C5987 C 0.86692 0.3546 0.94116 0.0
C5988 C 0.87085 0.34291 0.95594 0.0
C5989 C 0.86483 0.33469 0.95118 0.0
C5990 C 0.85959 0.33668 0.94155 0.0
C5991 C 0.86064 0.3465 0.93659 0.0
H5992 H 0.98229 0.60541 0.22692 0.0
H5993 H 0.98113 0.63754 0.21513 0.0
H5994 H 0.96961 0.59978 0.21324 0.0
H5995 H 0.96837 0.632 0.2016 0.0
H5996 H 0.95534 0.61695 0.1717 0.0
H5997 H 0.96801 0.62169 0.18556 0.0
H5998 H 0.95131 0.60136 0.20741 0.0
H5999 H 0.93893 0.59617 0.19336 0.0
C6000 C 0.9792 0.61129 0.22149 0.0
C6001 C 0.98275 0.62189 0.22204 0.0
C6002 C 0.97194 0.60807 0.21365 0.0
C6003 C 0.96805 0.61541 0.20624 0.0
C6004 C 0.9714 0.62608 0.20701 0.0
C6005 C 0.97868 0.62927 0.21479 0.0
C6006 C 0.95447 0.61333 0.1794 0.0
C6007 C 0.9461 0.60617 0.18139 0.0
C6008 C 0.96164 0.61618 0.1874 0.0
C6009 C 0.96062 0.612 0.19765 0.0
C6010 C 0.95237 0.60469 0.19961 0.0
C6011 C 0.9452 0.6018 0.19157 0.0
H6012 H 0.65949 0.71044 0.4614 0.0
H6013 H 0.62763 0.70303 0.47199 0.0
H6014 H 0.66088 0.6928 0.4533 0.0
H6015 H 0.62901 0.68539 0.46387 0.0
H6016 H 0.63752 0.65154 0.45414 0.0
H6017 H 0.63803 0.66813 0.46441 0.0
H6018 H 0.65288 0.68399 0.43804 0.0
H6019 H 0.65268 0.66739 0.42796 0.0
C6020 C 0.65279 0.70503 0.46201 0.0
C6021 C 0.64342 0.70817 0.46726 0.0
C6022 C 0.65359 0.69493 0.45738 0.0
C6023 C 0.64502 0.68772 0.45787 0.0
C6024 C 0.6358 0.69071 0.46345 0.0
C6025 C 0.635 0.70082 0.4681 0.0
C6026 C 0.64106 0.65854 0.45062 0.0
C6027 C 0.64501 0.65818 0.44022 0.0
C6028 C 0.64125 0.66806 0.45646 0.0
C6029 C 0.64546 0.67739 0.45204 0.0
C6030 C 0.64968 0.67693 0.44174 0.0
C6031 C 0.64946 0.66744 0.43591 0.0
H6032 H 0.80139 0.52443 0.60498 0.0
H6033 H 0.8074 0.53374 0.63746 0.0
H6034 H 0.81113 0.54009 0.59893 0.0
H6035 H 0.81735 0.54922 0.63142 0.0
H6036 H 0.82785 0.58053 0.61763 0.0
H6037 H 0.81551 0.56632 0.62238 0.0
H6038 H 0.82995 0.54571 0.59892 0.0
H6039 H 0.84208 0.56002 0.59397 0.0
C6040 C 0.80468 0.52989 0.61082 0.0
C6041 C 0.80367 0.52783 0.6217 0.0
C6042 C 0.81034 0.5388 0.60735 0.0
C6043 C 0.81505 0.54587 0.61469 0.0
C6044 C 0.81374 0.54398 0.62556 0.0
C6045 C 0.80813 0.53506 0.62902 0.0
C6046 C 0.82825 0.57304 0.61334 0.0
C6047 C 0.83597 0.57139 0.60545 0.0
C6048 C 0.82125 0.56486 0.61614 0.0
C6049 C 0.8218 0.55487 0.61108 0.0
C6050 C 0.82927 0.55334 0.60292 0.0
C6051 C 0.83629 0.5615 0.60016 0.0
H6052 H 0.30205 0.98875 0.40592 0.0
H6053 H 0.31227 0.98345 0.37366 0.0
H6054 H 0.3126 0.97344 0.41157 0.0
H6055 H 0.32279 0.96823 0.3793 0.0
H6056 H 0.35142 0.95272 0.39526 0.0
H6057 H 0.3392 0.96663 0.38978 0.0
H6058 H 0.31483 0.95366 0.41006 0.0
H6059 H 0.32725 0.93978 0.41578 0.0
C6060 C 0.30639 0.9842 0.40001 0.0
C6061 C 0.30644 0.98739 0.38936 0.0
C6062 C 0.31243 0.97545 0.40325 0.0
C6063 C 0.31865 0.96973 0.39591 0.0
C6064 C 0.31828 0.97262 0.38519 0.0
C6065 C 0.31225 0.98134 0.38196 0.0
C6066 C 0.3435 0.95288 0.39865 0.0
C6067 C 0.34033 0.94519 0.40602 0.0
C6068 C 0.33644 0.96077 0.3954 0.0
C6069 C 0.32601 0.9612 0.39943 0.0
C6070 C 0.32282 0.95355 0.40685 0.0
C6071 C 0.3299 0.94558 0.41007 0.0
H6072 H 0.30895 0.04106 0.64931 0.0
H6073 H 0.30005 0.07414 0.64671 0.0
H6074 H 0.32782 0.0462 0.64955 0.0
H6075 H 0.31872 0.07924 0.64683 0.0
H6076 H 0.3516 0.08696 0.65762 0.0
H6077 H 0.33348 0.08011 0.65892 0.0
H6078 H 0.34184 0.05374 0.63835 0.0
H6079 H 0.36013 0.06055 0.63728 0.0
C6080 C 0.31103 0.04941 0.64874 0.0
C6081 C 0.30302 0.05721 0.64814 0.0
C6082 C 0.32181 0.05235 0.64887 0.0
C6083 C 0.32478 0.06314 0.64836 0.0
C6084 C 0.31674 0.07088 0.64754 0.0
C6085 C 0.30602 0.06795 0.64745 0.0
C6086 C 0.34957 0.07966 0.65345 0.0
C6087 C 0.3572 0.07435 0.64725 0.0
C6088 C 0.3392 0.07575 0.65415 0.0
C6089 C 0.33615 0.06648 0.64857 0.0
C6090 C 0.34393 0.06088 0.64277 0.0
C6091 C 0.35439 0.06477 0.64214 0.0
H6092 H 0.21372 0.03473 0.87153 0.0
H6093 H 0.2222 0.03097 0.90444 0.0
H6094 H 0.20077 0.0484 0.87644 0.0
H6095 H 0.2093 0.04475 0.90936 0.0
H6096 H 0.1756 0.05991 0.91357 0.0
H6097 H 0.18928 0.04675 0.90916 0.0
H6098 H 0.20056 0.06687 0.884 0.0
H6099 H 0.18682 0.07995 0.88832 0.0
C6100 C 0.21282 0.03685 0.87981 0.0
C6101 C 0.21895 0.03178 0.8876 0.0
C6102 C 0.20548 0.04473 0.88261 0.0
C6103 C 0.20403 0.04764 0.89328 0.0
C6104 C 0.2102 0.04261 0.90108 0.0
C6105 C 0.21764 0.0348 0.89826 0.0
C6106 C 0.181 0.0615 0.9071 0.0
C6107 C 0.18014 0.07095 0.90129 0.0
C6108 C 0.18889 0.05402 0.90464 0.0
C6109 C 0.19598 0.05578 0.89623 0.0
C6110 C 0.19516 0.06526 0.89047 0.0
C6111 C 0.18735 0.07279 0.893 0.0
H6112 H 0.70055 0.47925 0.62941 0.0
H6113 H 0.70856 0.4684 0.66079 0.0
H6114 H 0.68303 0.47094 0.63085 0.0
H6115 H 0.69103 0.46012 0.66226 0.0
H6116 H 0.66588 0.43451 0.6541 0.0
H6117 H 0.68235 0.44477 0.6542 0.0
H6118 H 0.66585 0.47125 0.64001 0.0
H6119 H 0.64939 0.46081 0.63959 0.0
C6120 C 0.6985 0.47526 0.63669 0.0
C6121 C 0.70598 0.4744 0.64494 0.0
C6122 C 0.68845 0.4705 0.63753 0.0
C6123 C 0.68567 0.46479 0.64664 0.0
C6124 C 0.69301 0.46429 0.65505 0.0
C6125 C 0.70304 0.46903 0.65421 0.0
C6126 C 0.66576 0.44252 0.651 0.0
C6127 C 0.65635 0.44682 0.64677 0.0
C6128 C 0.67518 0.44845 0.65117 0.0
C6129 C 0.67543 0.45883 0.64711 0.0
C6130 C 0.66595 0.46324 0.6431 0.0
C6131 C 0.6565 0.4573 0.64296 0.0
H6132 H 0.72341 0.48091 0.10868 0.0
H6133 H 0.71059 0.4816 0.14037 0.0
H6134 H 0.71004 0.46768 0.10349 0.0
H6135 H 0.69739 0.46826 0.1353 0.0
H6136 H 0.66806 0.45356 0.12052 0.0
H6137 H 0.6816 0.46673 0.12489 0.0
H6138 H 0.70448 0.44952 0.10581 0.0
H6139 H 0.69073 0.43663 0.10093 0.0
C6140 C 0.71781 0.47812 0.11457 0.0
C6141 C 0.71799 0.48234 0.12491 0.0
C6142 C 0.71016 0.47053 0.1116 0.0
C6143 C 0.70256 0.46696 0.11895 0.0
C6144 C 0.70294 0.47101 0.12936 0.0
C6145 C 0.71053 0.47863 0.13229 0.0
C6146 C 0.67592 0.45267 0.11708 0.0
C6147 C 0.67828 0.44402 0.11035 0.0
C6148 C 0.68375 0.46015 0.11973 0.0
C6149 C 0.69418 0.45915 0.11579 0.0
C6150 C 0.69652 0.45058 0.10894 0.0
C6151 C 0.68866 0.44312 0.10623 0.0
H6152 H 0.3062 0.95581 0.85001 0.0
H6153 H 0.30716 0.96883 0.88177 0.0
H6154 H 0.32518 0.95188 0.85105 0.0
H6155 H 0.32626 0.96529 0.88266 0.0
H6156 H 0.3539 0.94093 0.88562 0.0
H6157 H 0.33634 0.94898 0.88425 0.0
H6158 H 0.34335 0.95864 0.85226 0.0
H6159 H 0.36089 0.95022 0.85354 0.0
C6160 C 0.3105 0.95798 0.85716 0.0
C6161 C 0.30513 0.96249 0.86586 0.0
C6162 C 0.32142 0.95584 0.85771 0.0
C6163 C 0.32723 0.95819 0.86697 0.0
C6164 C 0.32198 0.96325 0.87546 0.0
C6165 C 0.31105 0.96538 0.87491 0.0
C6166 C 0.35172 0.94482 0.87831 0.0
C6167 C 0.35871 0.94482 0.86964 0.0
C6168 C 0.34169 0.94956 0.87756 0.0
C6169 C 0.33841 0.95443 0.86812 0.0
C6170 C 0.3456 0.95485 0.8596 0.0
C6171 C 0.35567 0.95012 0.86036 0.0
H6172 H 0.20229 0.03454 0.38496 0.0
H6173 H 0.20882 0.04389 0.3528 0.0
H6174 H 0.18451 0.04228 0.38366 0.0
H6175 H 0.19103 0.05157 0.35146 0.0
H6176 H 0.16559 0.07691 0.35899 0.0
H6177 H 0.18226 0.06704 0.35885 0.0
H6178 H 0.167 0.04114 0.37526 0.0
H6179 H 0.15035 0.05123 0.37573 0.0
C6180 C 0.19985 0.03807 0.37755 0.0
C6181 C 0.207 0.03869 0.36901 0.0
C6182 C 0.18966 0.0425 0.37679 0.0
C6183 C 0.18637 0.04763 0.36748 0.0
C6184 C 0.19338 0.04786 0.35882 0.0
C6185 C 0.20357 0.04346 0.35958 0.0
C6186 C 0.16578 0.06911 0.36258 0.0
C6187 C 0.15667 0.0649 0.36746 0.0
C6188 C 0.17532 0.06339 0.36239 0.0
C6189 C 0.17598 0.0533 0.36705 0.0
C6190 C 0.16678 0.04894 0.37169 0.0
C6191 C 0.15722 0.05467 0.37186 0.0
H6192 H 0.40133 0.21825 0.45694 0.0
H6193 H 0.38333 0.18966 0.46317 0.0
H6194 H 0.39995 0.21467 0.43789 0.0
H6195 H 0.38224 0.18593 0.44428 0.0
H6196 H 0.37379 0.18631 0.40987 0.0
H6197 H 0.37401 0.19243 0.42818 0.0
H6198 H 0.40703 0.20166 0.42496 0.0
H6199 H 0.40669 0.19591 0.40643 0.0
C6200 C 0.39702 0.21125 0.45424 0.0
C6201 C 0.39248 0.2042 0.46156 0.0
C6202 C 0.39632 0.20915 0.44335 0.0
C6203 C 0.39099 0.20001 0.43957 0.0
C6204 C 0.38629 0.1931 0.4469 0.0
C6205 C 0.38702 0.19517 0.45775 0.0
C6206 C 0.38104 0.18986 0.41297 0.0
C6207 C 0.39024 0.19059 0.40667 0.0
C6208 C 0.3812 0.19325 0.42352 0.0
C6209 C 0.39057 0.19743 0.42807 0.0
C6210 C 0.39967 0.19852 0.42168 0.0
C6211 C 0.39951 0.19513 0.4111 0.0
H6212 H 0.54924 0.65386 0.24047 0.0
H6213 H 0.55229 0.62095 0.23073 0.0
H6214 H 0.55963 0.65931 0.22509 0.0
H6215 H 0.56263 0.62639 0.21539 0.0
H6216 H 0.59281 0.63853 0.19936 0.0
H6217 H 0.58061 0.63363 0.21339 0.0
H6218 H 0.56026 0.6601 0.20543 0.0
H6219 H 0.57252 0.66501 0.19121 0.0
C6220 C 0.55194 0.64781 0.23494 0.0
C6221 C 0.55005 0.63696 0.23688 0.0
C6222 C 0.5579 0.65093 0.22614 0.0
C6223 C 0.56208 0.64327 0.21911 0.0
C6224 C 0.55973 0.63247 0.22079 0.0
C6225 C 0.55379 0.62936 0.22957 0.0
C6226 C 0.58567 0.64324 0.20048 0.0
C6227 C 0.58359 0.65209 0.19407 0.0
C6228 C 0.57867 0.64042 0.20853 0.0
C6229 C 0.5694 0.64639 0.21044 0.0
C6230 C 0.56736 0.65536 0.20417 0.0
C6231 C 0.57438 0.65818 0.19605 0.0
H6232 H 0.12265 0.81264 0.96242 0.0
H6233 H 0.1168 0.78084 0.95041 0.0
H6234 H 0.12135 0.81958 0.94455 0.0
H6235 H 0.11553 0.78783 0.93244 0.0
H6236 H 0.12626 0.80401 0.9011 0.0
H6237 H 0.12667 0.79612 0.9187 0.0
H6238 H 0.10797 0.82233 0.93087 0.0
H6239 H 0.10789 0.8304 0.91344 0.0
C6240 C 0.12098 0.80714 0.95597 0.0
C6241 C 0.11975 0.79619 0.95786 0.0
C6242 C 0.12023 0.81112 0.94572 0.0
C6243 C 0.11824 0.80427 0.93708 0.0
C6244 C 0.11714 0.7933 0.93892 0.0
C6245 C 0.11788 0.7893 0.94921 0.0
C6246 C 0.12223 0.80808 0.90754 0.0
C6247 C 0.11708 0.81786 0.90586 0.0
C6248 C 0.12238 0.8035 0.9176 0.0
C6249 C 0.11742 0.80864 0.92621 0.0
C6250 C 0.112 0.81825 0.92444 0.0
C6251 C 0.11184 0.82281 0.91441 0.0
H6252 H 0.96088 0.35942 0.73869 0.0
H6253 H 0.95738 0.39272 0.7312 0.0
H6254 H 0.95039 0.35463 0.723 0.0
H6255 H 0.94695 0.38795 0.71556 0.0
H6256 H 0.91695 0.37634 0.6985 0.0
H6257 H 0.92907 0.38064 0.71294 0.0
H6258 H 0.94972 0.35483 0.70333 0.0
H6259 H 0.93754 0.35054 0.68871 0.0
C6260 C 0.95804 0.3657 0.73359 0.0
C6261 C 0.95985 0.37645 0.73625 0.0
C6262 C 0.95203 0.36296 0.72461 0.0
C6263 C 0.94772 0.37092 0.71812 0.0
C6264 C 0.94995 0.38164 0.72053 0.0
C6265 C 0.95594 0.38437 0.72949 0.0
C6266 C 0.92414 0.37166 0.69935 0.0
C6267 C 0.92633 0.36317 0.69236 0.0
C6268 C 0.9311 0.37413 0.70764 0.0
C6269 C 0.94042 0.36816 0.70922 0.0
C6270 C 0.94257 0.35955 0.70235 0.0
C6271 C 0.93559 0.35709 0.69399 0.0
H6272 H 0.3791 0.82231 0.04985 0.0
H6273 H 0.39842 0.79451 0.05562 0.0
H6274 H 0.37839 0.82596 0.06876 0.0
H6275 H 0.39736 0.79793 0.07468 0.0
H6276 H 0.40469 0.81684 0.10584 0.0
H6277 H 0.40437 0.81085 0.08742 0.0
H6278 H 0.37118 0.81973 0.08513 0.0
H6279 H 0.37164 0.82621 0.1033 0.0
C6280 C 0.38314 0.81693 0.05518 0.0
C6281 C 0.3889 0.80818 0.05122 0.0
C6282 C 0.38262 0.81895 0.06604 0.0
C6283 C 0.38781 0.81224 0.07326 0.0
C6284 C 0.39336 0.80331 0.06933 0.0
C6285 C 0.39387 0.80129 0.05842 0.0
C6286 C 0.39733 0.81751 0.10141 0.0
C6287 C 0.38823 0.8221 0.10606 0.0
C6288 C 0.3971 0.81395 0.09088 0.0
C6289 C 0.38777 0.81489 0.08476 0.0
C6290 C 0.37855 0.81904 0.08956 0.0
C6291 C 0.37878 0.82263 0.10005 0.0
H6292 H 0.97582 0.6602 0.78281 0.0
H6293 H 0.96465 0.62766 0.78273 0.0
H6294 H 0.96314 0.66459 0.79692 0.0
H6295 H 0.95193 0.63206 0.79663 0.0
H6296 H 0.938 0.64083 0.8286 0.0
H6297 H 0.95187 0.63729 0.81558 0.0
H6298 H 0.94326 0.66592 0.79894 0.0
H6299 H 0.92923 0.66941 0.81191 0.0
C6300 C 0.97071 0.65398 0.78586 0.0
C6301 C 0.9712 0.64359 0.78166 0.0
C6302 C 0.9634 0.65651 0.79386 0.0
C6303 C 0.95655 0.64867 0.79788 0.0
C6304 C 0.95717 0.63825 0.79378 0.0
C6305 C 0.96439 0.63576 0.78574 0.0
C6306 C 0.93901 0.64636 0.82214 0.0
C6307 C 0.93241 0.65535 0.82124 0.0
C6308 C 0.94698 0.64434 0.8147 0.0
C6309 C 0.9486 0.65128 0.8062 0.0
C6310 C 0.94226 0.66047 0.80547 0.0
C6311 C 0.93423 0.66247 0.8129 0.0
H6312 H 0.13182 0.21219 0.55662 0.0
H6313 H 0.09779 0.20692 0.55552 0.0
H6314 H 0.13187 0.20824 0.57551 0.0
H6315 H 0.09785 0.20295 0.57438 0.0
H6316 H 0.10587 0.18114 0.60256 0.0
H6317 H 0.10469 0.188 0.58469 0.0
H6318 H 0.12571 0.21394 0.59331 0.0
H6319 H 0.12681 0.20714 0.61136 0.0
C6320 C 0.12432 0.2104 0.56045 0.0
C6321 C 0.11482 0.20975 0.55454 0.0
C6322 C 0.12435 0.20814 0.57128 0.0
C6323 C 0.11488 0.20517 0.57642 0.0
C6324 C 0.10531 0.20501 0.5706 0.0
C6325 C 0.10528 0.20727 0.5598 0.0
C6326 C 0.11006 0.18845 0.60075 0.0
C6327 C 0.11641 0.1936 0.60844 0.0
C6328 C 0.10939 0.19237 0.59047 0.0
C6329 C 0.11509 0.20153 0.58758 0.0
C6330 C 0.12132 0.2068 0.59528 0.0
C6331 C 0.12195 0.2029 0.6056 0.0
H6332 H 0.55322 0.39109 0.28426 0.0
H6333 H 0.54684 0.35865 0.27453 0.0
H6334 H 0.56238 0.3847 0.29999 0.0
H6335 H 0.55576 0.35223 0.29048 0.0
H6336 H 0.5862 0.34681 0.3113 0.0
H6337 H 0.57428 0.35167 0.29686 0.0
H6338 H 0.55979 0.37569 0.31682 0.0
H6339 H 0.57173 0.37082 0.33127 0.0
C6340 C 0.55369 0.38259 0.28554 0.0
C6341 C 0.54938 0.37538 0.27812 0.0
C6342 C 0.55884 0.37893 0.29462 0.0
C6343 C 0.55982 0.36795 0.29648 0.0
C6344 C 0.55523 0.36073 0.28922 0.0
C6345 C 0.55003 0.36441 0.28014 0.0
C6346 C 0.58032 0.35296 0.31268 0.0
C6347 C 0.57998 0.3585 0.3224 0.0
C6348 C 0.57348 0.35575 0.3044 0.0
C6349 C 0.56615 0.36414 0.30566 0.0
C6350 C 0.56548 0.36933 0.31554 0.0
C6351 C 0.57232 0.36654 0.32381 0.0
H6352 H 0.44666 0.40058 0.23343 0.0
H6353 H 0.45871 0.38545 0.20504 0.0
H6354 H 0.42866 0.40032 0.22591 0.0
H6355 H 0.44087 0.38549 0.19743 0.0
H6356 H 0.40648 0.37659 0.19142 0.0
H6357 H 0.4238 0.3766 0.20012 0.0
H6358 H 0.41827 0.40866 0.21148 0.0
H6359 H 0.4007 0.40852 0.20303 0.0
C6360 C 0.44547 0.3972 0.22559 0.0
C6361 C 0.45412 0.39305 0.21982 0.0
C6362 C 0.43518 0.39714 0.22125 0.0
C6363 C 0.43334 0.39285 0.21109 0.0
C6364 C 0.442 0.38872 0.20533 0.0
C6365 C 0.45225 0.38882 0.20965 0.0
C6366 C 0.40886 0.38358 0.19592 0.0
C6367 C 0.40219 0.39255 0.19654 0.0
C6368 C 0.41885 0.38364 0.2008 0.0
C6369 C 0.42245 0.39266 0.20642 0.0
C6370 C 0.4157 0.40156 0.20725 0.0
C6371 C 0.40568 0.40152 0.20233 0.0
H6372 H 0.3914 0.73078 0.96244 0.0
H6373 H 0.35799 0.7345 0.96975 0.0
H6374 H 0.38701 0.71699 0.94947 0.0
H6375 H 0.35354 0.72078 0.95662 0.0
H6376 H 0.35073 0.68875 0.93869 0.0
H6377 H 0.35479 0.70197 0.95246 0.0
H6378 H 0.37888 0.71571 0.93232 0.0
H6379 H 0.37491 0.70247 0.9187 0.0
C6380 C 0.38311 0.72867 0.96124 0.0
C6381 C 0.37504 0.73376 0.96707 0.0
C6382 C 0.38058 0.72079 0.95378 0.0
C6383 C 0.3699 0.71784 0.95191 0.0
C6384 C 0.36184 0.72277 0.95793 0.0
C6385 C 0.36439 0.73064 0.96544 0.0
C6386 C 0.35684 0.69465 0.93721 0.0
C6387 C 0.36256 0.69451 0.92765 0.0
C6388 C 0.35917 0.70222 0.94508 0.0
C6389 C 0.36723 0.70985 0.94354 0.0
C6390 C 0.3728 0.70981 0.93389 0.0
C6391 C 0.37051 0.70223 0.92606 0.0
H6392 H 0.05873 0.63548 0.71451 0.0
H6393 H 0.05688 0.60152 0.70915 0.0
H6394 H 0.07781 0.63504 0.71069 0.0
H6395 H 0.07591 0.60108 0.70531 0.0
H6396 H 0.1045 0.60839 0.68353 0.0
H6397 H 0.08648 0.60764 0.69042 0.0
H6398 H 0.09558 0.62843 0.71634 0.0
H6399 H 0.1138 0.62907 0.7095 0.0
C6400 C 0.06243 0.62789 0.71273 0.0
C6401 C 0.05627 0.61856 0.712 0.0
C6402 C 0.07336 0.62764 0.71054 0.0
C6403 C 0.07834 0.61804 0.70758 0.0
C6404 C 0.07227 0.60863 0.70737 0.0
C6405 C 0.06136 0.60889 0.70956 0.0
C6406 C 0.10278 0.6126 0.69084 0.0
C6407 C 0.11065 0.61876 0.69597 0.0
C6408 C 0.09241 0.61219 0.69479 0.0
C6409 C 0.0896 0.61796 0.70394 0.0
C6410 C 0.09748 0.62398 0.7092 0.0
C6411 C 0.10791 0.62435 0.70528 0.0
H6412 H 0.13916 0.29127 0.48028 0.0
H6413 H 0.1493 0.26669 0.45839 0.0
H6414 H 0.14466 0.30484 0.46772 0.0
H6415 H 0.15431 0.2802 0.44566 0.0
H6416 H 0.16976 0.30668 0.42751 0.0
H6417 H 0.16676 0.29418 0.44186 0.0
H6418 H 0.1385 0.31157 0.45103 0.0
H6419 H 0.14179 0.32434 0.43704 0.0
C6420 C 0.14263 0.28876 0.47283 0.0
C6421 C 0.14371 0.27789 0.47032 0.0
C6422 C 0.14568 0.29654 0.46558 0.0
C6423 C 0.14988 0.29362 0.45564 0.0
C6424 C 0.15122 0.28275 0.45327 0.0
C6425 C 0.1482 0.27499 0.46052 0.0
C6426 C 0.16303 0.30796 0.43272 0.0
C6427 C 0.15597 0.31647 0.43107 0.0
C6428 C 0.16124 0.30072 0.44087 0.0
C6429 C 0.15234 0.30181 0.44756 0.0
C6430 C 0.14548 0.31052 0.44611 0.0
C6431 C 0.14729 0.31777 0.43798 0.0
H6432 H 0.45746 0.61555 0.30912 0.0
H6433 H 0.44457 0.62275 0.27823 0.0
H6434 H 0.43955 0.6142 0.31615 0.0
H6435 H 0.42656 0.62067 0.28513 0.0
H6436 H 0.39651 0.62909 0.30437 0.0
H6437 H 0.41407 0.62945 0.29624 0.0
H6438 H 0.42411 0.60362 0.31632 0.0
H6439 H 0.40688 0.6038 0.32497 0.0
C6440 C 0.4508 0.61682 0.3038 0.0
C6441 C 0.4525 0.61937 0.29312 0.0
C6442 C 0.44049 0.61586 0.3078 0.0
C6443 C 0.43156 0.61729 0.30121 0.0
C6444 C 0.43324 0.61964 0.29047 0.0
C6445 C 0.44358 0.62069 0.28648 0.0
C6446 C 0.40248 0.62353 0.30711 0.0
C6447 C 0.40025 0.61649 0.31542 0.0
C6448 C 0.41253 0.62363 0.30233 0.0
C6449 C 0.42058 0.61662 0.30567 0.0
C6450 C 0.4182 0.60928 0.31367 0.0
C6451 C 0.40821 0.60927 0.31853 0.0
H6452 H 0.14103 0.73579 0.04592 0.0
H6453 H 0.14406 0.75659 0.07319 0.0
H6454 H 0.14761 0.72089 0.05646 0.0
H6455 H 0.15053 0.74175 0.08367 0.0
H6456 H 0.1449 0.7105 0.10145 0.0
H6457 H 0.14121 0.72571 0.09025 0.0
H6458 H 0.16342 0.71372 0.06695 0.0
H6459 H 0.16706 0.6983 0.07824 0.0
C6460 C 0.14326 0.73721 0.0541 0.0
C6461 C 0.14184 0.74732 0.05877 0.0
C6462 C 0.14704 0.72869 0.06012 0.0
C6463 C 0.14944 0.73014 0.07093 0.0
C6464 C 0.14853 0.74036 0.07542 0.0
C6465 C 0.1448 0.74884 0.06942 0.0
C6466 C 0.14901 0.7111 0.09394 0.0
C6467 C 0.15622 0.7032 0.09068 0.0
C6468 C 0.14697 0.71986 0.08756 0.0
C6469 C 0.15206 0.72093 0.07774 0.0
C6470 C 0.15935 0.71307 0.07447 0.0
C6471 C 0.16149 0.70431 0.08094 0.0
H6472 H 0.05687 0.40803 0.79694 0.0
H6473 H 0.06323 0.37577 0.78671 0.0
H6474 H 0.07472 0.40922 0.80456 0.0
H6475 H 0.08106 0.37691 0.79441 0.0
H6476 H 0.11553 0.38526 0.80247 0.0
H6477 H 0.09847 0.38531 0.7931 0.0
H6478 H 0.084 0.40184 0.81954 0.0
H6479 H 0.10099 0.40182 0.82885 0.0
C6480 C 0.06208 0.40119 0.79633 0.0
C6481 C 0.05861 0.39178 0.79129 0.0
C6482 C 0.07231 0.40186 0.8007 0.0
C6483 C 0.0793 0.39314 0.80017 0.0
C6484 C 0.07593 0.38383 0.79486 0.0
C6485 C 0.06571 0.38316 0.79045 0.0
C6486 C 0.1087 0.38892 0.80626 0.0
C6487 C 0.10963 0.39355 0.8164 0.0
C6488 C 0.09892 0.38893 0.8009 0.0
C6489 C 0.08986 0.39358 0.80556 0.0
C6490 C 0.09085 0.39836 0.81563 0.0
C6491 C 0.10061 0.39835 0.82097 0.0
H6492 H 0.3644 0.26657 0.55684 0.0
H6493 H 0.37074 0.28972 0.53255 0.0
H6494 H 0.35946 0.28081 0.56903 0.0
H6495 H 0.36529 0.30396 0.54461 0.0
H6496 H 0.36934 0.32634 0.57355 0.0
H6497 H 0.37233 0.31263 0.56017 0.0
H6498 H 0.34636 0.29418 0.573 0.0
H6499 H 0.34371 0.3077 0.58673 0.0
C6500 C 0.36468 0.2747 0.55408 0.0
C6501 C 0.36808 0.277 0.54374 0.0
C6502 C 0.36169 0.28287 0.56103 0.0
C6503 C 0.36199 0.29355 0.55782 0.0
C6504 C 0.36509 0.29583 0.54739 0.0
C6505 C 0.36811 0.28766 0.54043 0.0
C6506 C 0.36428 0.31935 0.57354 0.0
C6507 C 0.35637 0.31807 0.5813 0.0
C6508 C 0.3659 0.31154 0.56577 0.0
C6509 C 0.35961 0.30226 0.56552 0.0
C6510 C 0.35144 0.30116 0.57305 0.0
C6511 C 0.34984 0.30897 0.58085 0.0
H6512 H 0.18912 0.4569 0.37908 0.0
H6513 H 0.21814 0.45086 0.39649 0.0
H6514 H 0.18549 0.43789 0.37823 0.0
H6515 H 0.21469 0.43171 0.39533 0.0
H6516 H 0.19637 0.4003 0.40283 0.0
H6517 H 0.20206 0.41888 0.40273 0.0
H6518 H 0.1917 0.42151 0.37021 0.0
H6519 H 0.18559 0.40314 0.37045 0.0
C6520 C 0.19476 0.45149 0.38269 0.0
C6521 C 0.20388 0.45539 0.38793 0.0
C6522 C 0.19274 0.44058 0.38209 0.0
C6523 C 0.19981 0.43327 0.3867 0.0
C6524 C 0.20904 0.43714 0.39178 0.0
C6525 C 0.21108 0.44809 0.39236 0.0
C6526 C 0.19531 0.40485 0.39566 0.0
C6527 C 0.19045 0.40023 0.38668 0.0
C6528 C 0.19869 0.41546 0.39556 0.0
C6529 C 0.19726 0.42171 0.38649 0.0
C6530 C 0.19277 0.41697 0.37738 0.0
C6531 C 0.18939 0.40638 0.37748 0.0
H6532 H 0.71526 0.05974 0.63657 0.0
H6533 H 0.70409 0.05982 0.60419 0.0
H6534 H 0.71205 0.07888 0.63786 0.0
H6535 H 0.70052 0.07882 0.60559 0.0
H6536 H 0.70167 0.11454 0.60852 0.0
H6537 H 0.70846 0.09636 0.60739 0.0
H6538 H 0.69632 0.09013 0.63871 0.0
H6539 H 0.68958 0.10824 0.63985 0.0
C6540 C 0.71223 0.06386 0.62969 0.0
C6541 C 0.70984 0.05825 0.6203 0.0
C6542 C 0.71029 0.07481 0.63047 0.0
C6543 C 0.70596 0.08038 0.62185 0.0
C6544 C 0.70395 0.07481 0.61235 0.0
C6545 C 0.70587 0.06389 0.61158 0.0
C6546 C 0.70051 0.10929 0.61518 0.0
C6547 C 0.69505 0.11284 0.62426 0.0
C6548 C 0.70439 0.09888 0.61453 0.0
C6549 C 0.70289 0.09177 0.62294 0.0
C6550 C 0.69776 0.09543 0.63216 0.0
C6551 C 0.69389 0.10584 0.63281 0.0
H6552 H 0.72839 0.96799 0.38674 0.0
H6553 H 0.73138 0.97662 0.35385 0.0
H6554 H 0.71459 0.95511 0.38205 0.0
H6555 H 0.71734 0.96386 0.34917 0.0
H6556 H 0.70237 0.93003 0.34484 0.0
H6557 H 0.71514 0.94425 0.34867 0.0
H6558 H 0.69618 0.95423 0.37547 0.0
H6559 H 0.68337 0.9401 0.37161 0.0
C6560 C 0.72606 0.96716 0.37851 0.0
C6561 C 0.73101 0.97329 0.37066 0.0
C6562 C 0.71808 0.95986 0.37583 0.0
C6563 C 0.71487 0.95846 0.36524 0.0
C6564 C 0.7197 0.96469 0.35739 0.0
C6565 C 0.72766 0.97207 0.36009 0.0
C6566 C 0.70083 0.93536 0.35145 0.0
C6567 C 0.69189 0.93387 0.35797 0.0
C6568 C 0.70815 0.94351 0.35365 0.0
C6569 C 0.7067 0.95032 0.36242 0.0
C6570 C 0.69762 0.949 0.36876 0.0
C6571 C 0.69029 0.94089 0.36656 0.0
H6572 H 0.81123 0.95815 0.135 0.0
H6573 H 0.7818 0.94614 0.12163 0.0
H6574 H 0.8185 0.94021 0.13506 0.0
H6575 H 0.78898 0.92805 0.12201 0.0
H6576 H 0.81116 0.89987 0.11257 0.0
H6577 H 0.80272 0.91737 0.11303 0.0
H6578 H 0.81633 0.92333 0.14398 0.0
H6579 H 0.82507 0.90606 0.14336 0.0
C6580 C 0.8063 0.95167 0.13208 0.0
C6581 C 0.79595 0.95358 0.12825 0.0
C6582 C 0.81043 0.94136 0.13223 0.0
C6583 C 0.80431 0.93268 0.12857 0.0
C6584 C 0.79392 0.93457 0.12481 0.0
C6585 C 0.78977 0.94491 0.12469 0.0
C6586 C 0.81236 0.90493 0.11947 0.0
C6587 C 0.81883 0.90157 0.12791 0.0
C6588 C 0.80743 0.91491 0.11978 0.0
C6589 C 0.80889 0.92177 0.12852 0.0
C6590 C 0.81515 0.9183 0.13707 0.0
C6591 C 0.82006 0.90833 0.13677 0.0
H6592 H 0.27679 0.53508 0.35311 0.0
H6593 H 0.28247 0.54226 0.38614 0.0
H6594 H 0.28992 0.54855 0.34814 0.0
H6595 H 0.29563 0.55558 0.38123 0.0
H6596 H 0.30804 0.58699 0.36941 0.0
H6597 H 0.2953 0.57298 0.37335 0.0
H6598 H 0.30888 0.55333 0.34858 0.0
H6599 H 0.32162 0.56752 0.34455 0.0
C6600 C 0.28097 0.53942 0.3593 0.0
C6601 C 0.27853 0.5377 0.37001 0.0
C6602 C 0.28848 0.54714 0.35646 0.0
C6603 C 0.29372 0.55325 0.36429 0.0
C6604 C 0.29155 0.55121 0.375 0.0
C6605 C 0.28404 0.54355 0.37782 0.0
C6606 C 0.30833 0.57967 0.36482 0.0
C6607 C 0.3159 0.57831 0.35675 0.0
C6608 C 0.30105 0.57162 0.36709 0.0
C6609 C 0.30118 0.56196 0.36139 0.0
C6610 C 0.30855 0.56069 0.35309 0.0
C6611 C 0.31583 0.56881 0.35078 0.0
H6612 H 0.28118 0.56731 0.89432 0.0
H6613 H 0.3093 0.55569 0.87831 0.0
H6614 H 0.28837 0.58541 0.89386 0.0
H6615 H 0.31661 0.57363 0.87816 0.0
H6616 H 0.32244 0.60797 0.87011 0.0
H6617 H 0.31361 0.59071 0.86982 0.0
H6618 H 0.30293 0.59589 0.90194 0.0
H6619 H 0.31145 0.6134 0.9021 0.0
C6620 C 0.28887 0.56863 0.89067 0.0
C6621 C 0.29468 0.56006 0.88637 0.0
C6622 C 0.29303 0.57897 0.8905 0.0
C6623 C 0.30306 0.58097 0.88596 0.0
C6624 C 0.30881 0.5724 0.8816 0.0
C6625 C 0.30468 0.56208 0.8818 0.0
C6626 C 0.31803 0.60554 0.87705 0.0
C6627 C 0.31766 0.61208 0.88613 0.0
C6628 C 0.31309 0.59558 0.87692 0.0
C6629 C 0.30764 0.59188 0.88589 0.0
C6630 C 0.30701 0.59853 0.89488 0.0
C6631 C 0.31198 0.60851 0.89501 0.0
H6632 H 0.75232 0.07017 0.14123 0.0
H6633 H 0.73211 0.04233 0.13965 0.0
H6634 H 0.73721 0.08088 0.14695 0.0
H6635 H 0.7169 0.05311 0.1454 0.0
H6636 H 0.69411 0.07534 0.16432 0.0
H6637 H 0.70947 0.06393 0.16039 0.0
H6638 H 0.72106 0.08725 0.13827 0.0
H6639 H 0.70599 0.09869 0.14237 0.0
C6640 C 0.74463 0.06634 0.14207 0.0
C6641 C 0.74337 0.05543 0.13982 0.0
C6642 C 0.73597 0.07248 0.14536 0.0
C6643 C 0.72583 0.06788 0.14649 0.0
C6644 C 0.72463 0.05688 0.14465 0.0
C6645 C 0.73333 0.05071 0.14135 0.0
C6646 C 0.7 0.07804 0.15868 0.0
C6647 C 0.69882 0.08789 0.15362 0.0
C6648 C 0.70873 0.07147 0.15637 0.0
C6649 C 0.7165 0.0747 0.14904 0.0
C6650 C 0.7153 0.08458 0.14405 0.0
C6651 C 0.70659 0.09108 0.14631 0.0
H6652 H 0.785 0.96956 0.62462 0.0
H6653 H 0.78024 0.97767 0.65757 0.0
H6654 H 0.79886 0.95695 0.62958 0.0
H6655 H 0.79429 0.96515 0.66254 0.0
H6656 H 0.80959 0.93144 0.66631 0.0
H6657 H 0.79676 0.94545 0.66236 0.0
H6658 H 0.81704 0.9566 0.63719 0.0
H6659 H 0.82994 0.9427 0.64121 0.0
C6660 C 0.78695 0.96867 0.63292 0.0
C6661 C 0.78151 0.97458 0.64071 0.0
C6662 C 0.79496 0.96152 0.63576 0.0
C6663 C 0.79767 0.96006 0.64645 0.0
C6664 C 0.79232 0.96605 0.65424 0.0
C6665 C 0.78435 0.97328 0.65139 0.0
C6666 C 0.81141 0.93699 0.66006 0.0
C6667 C 0.82077 0.93588 0.65403 0.0
C6668 C 0.80405 0.94502 0.65779 0.0
C6669 C 0.80586 0.95208 0.64941 0.0
C6670 C 0.81534 0.95116 0.64358 0.0
C6671 C 0.82272 0.94318 0.64588 0.0
loop_
_geom_bond_atom_site_label_1
_geom_bond_atom_site_label_2
_geom_bond_distance
_geom_bond_site_symmetry_2
_ccdc_geom_bond_type
C0 C1 1.264 . S
C0 C5 1.479 . S
C0 C10 1.465 1_655 S
C1 C0 1.264 . S
C1 C3 1.339 . S
C1 H28 0.931 1_655 S
C2 C3 1.395 . S
C2 C4 1.320 . S
C3 C1 1.339 . S
C3 C2 1.395 . S
C3 H29 0.929 . S
C4 C2 1.320 . S
C4 C5 1.405 . S
C4 H30 0.930 . S
C5 C0 1.479 . S
C5 C4 1.405 . S
C5 H31 0.931 . S
U6 O7 2.454 . S
U6 O8 2.458 . S
U6 C9 2.984 . S
U6 C10 2.847 . S
U6 C23 2.882 . S
U6 O24 2.441 . S
U6 O25 2.420 . S
U6 O26 2.455 . S
U6 O27 2.449 . S
O7 U6 2.454 . S
O7 C9 1.353 . S
O8 U6 2.458 . S
O8 C9 1.286 . S
C9 U6 2.984 . S
C9 O7 1.353 . S
C9 O8 1.286 . S
C9 C11 1.363 . S
C10 C0 1.465 1_455 S
C10 U6 2.847 . S
C10 O24 1.249 . S
C10 O25 1.202 . S
C11 C9 1.363 . S
C11 C13 1.408 . S
C11 C16 1.342 . S
C12 C13 1.310 . S
C12 C15 1.461 . S
C12 H32 0.932 . S
C13 C11 1.408 . S
C13 C12 1.310 . S
C13 H33 0.930 . S
C14 C15 1.474 . S
C14 C16 1.285 . S
C14 H34 0.929 . S
C15 C12 1.461 . S
C15 C14 1.474 . S
C16 C11 1.342 . S
C16 C14 1.285 . S
C16 H35 0.930 . S
C17 C20 1.424 . S
C17 C22 1.245 . S
C17 C23 1.428 . S
C18 C21 1.260 . S
C18 C22 1.477 . S
C18 H36 0.932 . S
C19 C20 1.384 . S
C19 C21 1.479 . S
C19 H37 0.929 . S
C20 C17 1.424 . S
C20 C19 1.384 . S
C20 H38 0.928 . S
C21 C18 1.260 . S
C21 C19 1.479 . S
C22 C17 1.245 . S
C22 C18 1.477 . S
C22 H39 0.932 . S
C23 U6 2.882 . S
C23 C17 1.428 . S
C23 O26 1.301 . S
C23 O27 1.282 . S
O24 U6 2.441 . S
O24 C10 1.249 . S
O25 U6 2.420 . S
O25 C10 1.202 . S
O26 U6 2.455 . S
O26 C23 1.301 . S
O27 U6 2.449 . S
O27 C23 1.282 . S
H28 C1 0.931 1_455 S
H29 C3 0.929 . S
H30 C4 0.930 . S
H31 C5 0.931 . S
H32 C12 0.932 . S
H33 C13 0.930 . S
H34 C14 0.929 . S
H35 C16 0.930 . S
H36 C18 0.932 . S
H37 C19 0.929 . S
H38 C20 0.928 . S
H39 C22 0.932 . S
C40 C41 1.264 . S
C40 C45 1.479 . S
C40 C50 1.465 . S
C41 C40 1.264 . S
C41 C43 1.339 . S
C41 H68 0.931 . S
C42 C43 1.395 . S
C42 C44 1.320 . S
C43 C41 1.339 . S
C43 C42 1.395 . S
C43 H69 0.929 . S
C44 C42 1.320 . S
C44 C45 1.405 . S
C44 H70 0.930 . S
C45 C40 1.479 . S
C45 C44 1.405 . S
C45 H71 0.931 . S
U46 O47 2.454 . S
U46 O48 2.458 . S
U46 C49 2.984 . S
U46 C50 2.847 . S
U46 C63 2.882 . S
U46 O64 2.441 . S
U46 O65 2.420 . S
U46 O66 2.455 . S
U46 O67 2.449 . S
O47 U46 2.454 . S
O47 C49 1.353 . S
O48 U46 2.458 . S
O48 C49 1.286 . S
C49 U46 2.984 . S
C49 O47 1.353 . S
C49 O48 1.286 . S
C49 C51 1.363 . S
C50 C40 1.465 . S
C50 U46 2.847 . S
C50 O64 1.249 . S
C50 O65 1.202 . S
C51 C49 1.363 . S
C51 C53 1.408 . S
C51 C56 1.342 . S
C52 C53 1.310 . S
C52 C55 1.461 . S
C52 H72 0.932 . S
C53 C51 1.408 . S
C53 C52 1.310 . S
C53 H73 0.930 . S
C54 C55 1.474 . S
C54 C56 1.285 . S
C54 H74 0.929 . S
C55 C52 1.461 . S
C55 C54 1.474 . S
C56 C51 1.342 . S
C56 C54 1.285 . S
C56 H75 0.930 . S
C57 C60 1.424 . S
C57 C62 1.245 . S
C57 C63 1.428 . S
C58 C61 1.260 . S
C58 C62 1.477 . S
C58 H76 0.932 . S
C59 C60 1.384 . S
C59 C61 1.479 . S
C59 H77 0.929 . S
C60 C57 1.424 . S
C60 C59 1.384 . S
C60 H78 0.928 . S
C61 C58 1.260 . S
C61 C59 1.479 . S
C62 C57 1.245 . S
C62 C58 1.477 . S
C62 H79 0.932 . S
C63 U46 2.882 . S
C63 C57 1.428 . S
C63 O66 1.301 . S
C63 O67 1.282 . S
O64 U46 2.441 . S
O64 C50 1.249 . S
O65 U46 2.420 . S
O65 C50 1.202 . S
O66 U46 2.455 . S
O66 C63 1.301 . S
O67 U46 2.449 . S
O67 C63 1.282 . S
H68 C41 0.931 . S
H69 C43 0.929 . S
H70 C44 0.930 . S
H71 C45 0.931 . S
H72 C52 0.932 . S
H73 C53 0.930 . S
H74 C54 0.929 . S
H75 C56 0.930 . S
H76 C58 0.932 . S
H77 C59 0.929 . S
H78 C60 0.928 . S
H79 C62 0.932 . S
C80 C81 1.264 . S
C80 C85 1.479 . S
C80 C90 1.465 . S
C81 C80 1.264 . S
C81 C83 1.339 . S
C81 H108 0.931 . S
C82 C83 1.395 . S
C82 C84 1.320 . S
C83 C81 1.339 . S
C83 C82 1.395 . S
C83 H109 0.929 . S
C84 C82 1.320 . S
C84 C85 1.405 . S
C84 H110 0.930 . S
C85 C80 1.479 . S
C85 C84 1.405 . S
C85 H111 0.931 . S
U86 O87 2.454 . S
U86 O88 2.458 . S
U86 C89 2.984 . S
U86 C90 2.847 . S
U86 C103 2.882 . S
U86 O104 2.441 . S
U86 O105 2.420 . S
U86 O106 2.455 . S
U86 O107 2.449 . S
O87 U86 2.454 . S
O87 C89 1.353 . S
O88 U86 2.458 . S
O88 C89 1.286 . S
C89 U86 2.984 . S
C89 O87 1.353 . S
C89 O88 1.286 . S
C89 C91 1.363 . S
C90 C80 1.465 . S
C90 U86 2.847 . S
C90 O104 1.249 . S
C90 O105 1.202 . S
C91 C89 1.363 . S
C91 C93 1.408 . S
C91 C96 1.342 . S
C92 C93 1.310 . S
C92 C95 1.461 . S
C92 H112 0.932 . S
C93 C91 1.408 . S
C93 C92 1.310 . S
C93 H113 0.930 . S
C94 C95 1.474 . S
C94 C96 1.285 . S
C94 H114 0.929 . S
C95 C92 1.461 . S
C95 C94 1.474 . S
C96 C91 1.342 . S
C96 C94 1.285 . S
C96 H115 0.930 . S
C97 C100 1.424 . S
C97 C102 1.245 . S
C97 C103 1.428 . S
C98 C101 1.260 . S
C98 C102 1.477 . S
C98 H116 0.932 . S
C99 C100 1.384 . S
C99 C101 1.479 . S
C99 H117 0.929 . S
C100 C97 1.424 . S
C100 C99 1.384 . S
C100 H118 0.928 . S
C101 C98 1.260 . S
C101 C99 1.479 . S
C102 C97 1.245 . S
C102 C98 1.477 . S
C102 H119 0.932 . S
C103 U86 2.882 . S
C103 C97 1.428 . S
C103 O106 1.301 . S
C103 O107 1.282 . S
O104 U86 2.441 . S
O104 C90 1.249 . S
O105 U86 2.420 . S
O105 C90 1.202 . S
O106 U86 2.455 . S
O106 C103 1.301 . S
O107 U86 2.449 . S
O107 C103 1.282 . S
H108 C81 0.931 . S
H109 C83 0.929 . S
H110 C84 0.930 . S
H111 C85 0.931 . S
H112 C92 0.932 . S
H113 C93 0.930 . S
H114 C94 0.929 . S
H115 C96 0.930 . S
H116 C98 0.932 . S
H117 C99 0.929 . S
H118 C100 0.928 . S
H119 C102 0.932 . S
C120 C121 1.264 . S
C120 C125 1.479 . S
C120 C130 1.465 . S
C121 C120 1.264 . S
C121 C123 1.339 . S
C121 H148 0.931 . S
C122 C123 1.395 . S
C122 C124 1.320 . S
C123 C121 1.339 . S
C123 C122 1.395 . S
C123 H149 0.929 . S
C124 C122 1.320 . S
C124 C125 1.405 . S
C124 H150 0.930 . S
C125 C120 1.479 . S
C125 C124 1.405 . S
C125 H151 0.931 . S
U126 O127 2.454 . S
U126 O128 2.458 . S
U126 C129 2.984 . S
U126 C130 2.847 . S
U126 C143 2.882 . S
U126 O144 2.441 . S
U126 O145 2.420 . S
U126 O146 2.455 . S
U126 O147 2.449 . S
O127 U126 2.454 . S
O127 C129 1.353 . S
O128 U126 2.458 . S
O128 C129 1.286 . S
C129 U126 2.984 . S
C129 O127 1.353 . S
C129 O128 1.286 . S
C129 C131 1.363 . S
C130 C120 1.465 . S
C130 U126 2.847 . S
C130 O144 1.249 . S
C130 O145 1.202 . S
C131 C129 1.363 . S
C131 C133 1.408 1_554 S
C131 C136 1.342 . S
C132 C133 1.310 . S
C132 C135 1.461 . S
C132 H152 0.932 . S
C133 C131 1.408 1_556 S
C133 C132 1.310 . S
C133 H153 0.930 . S
C134 C135 1.474 . S
C134 C136 1.285 1_556 S
C134 H154 0.929 . S
C135 C132 1.461 . S
C135 C134 1.474 . S
C136 C131 1.342 . S
C136 C134 1.285 1_554 S
C136 H155 0.930 . S
C137 C140 1.424 . S
C137 C142 1.245 . S
C137 C143 1.428 . S
C138 C141 1.260 . S
C138 C142 1.477 . S
C138 H156 0.932 . S
C139 C140 1.384 . S
C139 C141 1.479 . S
C139 H157 0.929 . S
C140 C137 1.424 . S
C140 C139 1.384 . S
C140 H158 0.928 . S
C141 C138 1.260 . S
C141 C139 1.479 . S
C142 C137 1.245 . S
C142 C138 1.477 . S
C142 H159 0.932 . S
C143 U126 2.882 . S
C143 C137 1.428 . S
C143 O146 1.301 . S
C143 O147 1.282 . S
O144 U126 2.441 . S
O144 C130 1.249 . S
O145 U126 2.420 . S
O145 C130 1.202 . S
O146 U126 2.455 . S
O146 C143 1.301 . S
O147 U126 2.449 . S
O147 C143 1.282 . S
H148 C121 0.931 . S
H149 C123 0.929 . S
H150 C124 0.930 . S
H151 C125 0.931 . S
H152 C132 0.932 . S
H153 C133 0.930 . S
H154 C134 0.929 . S
H155 C136 0.930 . S
H156 C138 0.932 . S
H157 C139 0.929 . S
H158 C140 0.928 . S
H159 C142 0.932 . S
C160 C161 1.264 . S
C160 C165 1.479 . S
C160 C170 1.465 1_655 S
C161 C160 1.264 . S
C161 C163 1.339 . S
C161 H188 0.931 1_655 S
C162 C163 1.395 . S
C162 C164 1.320 . S
C163 C161 1.339 . S
C163 C162 1.395 . S
C163 H189 0.929 . S
C164 C162 1.320 . S
C164 C165 1.405 . S
C164 H190 0.930 . S
C165 C160 1.479 . S
C165 C164 1.405 . S
C165 H191 0.931 . S
U166 O167 2.454 . S
U166 O168 2.458 . S
U166 C169 2.984 . S
U166 C170 2.847 . S
U166 C183 2.882 . S
U166 O184 2.441 . S
U166 O185 2.420 . S
U166 O186 2.455 . S
U166 O187 2.449 . S
O167 U166 2.454 . S
O167 C169 1.353 . S
O168 U166 2.458 . S
O168 C169 1.286 . S
C169 U166 2.984 . S
C169 O167 1.353 . S
C169 O168 1.286 . S
C169 C171 1.363 . S
C170 C160 1.465 1_455 S
C170 U166 2.847 . S
C170 O184 1.249 . S
C170 O185 1.202 . S
C171 C169 1.363 . S
C171 C173 1.408 . S
C171 C176 1.342 . S
C172 C173 1.310 . S
C172 C175 1.461 . S
C172 H192 0.932 . S
C173 C171 1.408 . S
C173 C172 1.310 . S
C173 H193 0.930 . S
C174 C175 1.474 . S
C174 C176 1.285 . S
C174 H194 0.929 . S
C175 C172 1.461 . S
C175 C174 1.474 . S
C176 C171 1.342 . S
C176 C174 1.285 . S
C176 H195 0.930 . S
C177 C180 1.424 . S
C177 C182 1.245 . S
C177 C183 1.428 . S
C178 C181 1.260 . S
C178 C182 1.477 . S
C178 H196 0.932 . S
C179 C180 1.384 . S
C179 C181 1.479 . S
C179 H197 0.929 . S
C180 C177 1.424 . S
C180 C179 1.384 . S
C180 H198 0.928 . S
C181 C178 1.260 . S
C181 C179 1.479 . S
C182 C177 1.245 . S
C182 C178 1.477 . S
C182 H199 0.932 . S
C183 U166 2.882 . S
C183 C177 1.428 . S
C183 O186 1.301 . S
C183 O187 1.282 . S
O184 U166 2.441 . S
O184 C170 1.249 . S
O185 U166 2.420 . S
O185 C170 1.202 . S
O186 U166 2.455 . S
O186 C183 1.301 . S
O187 U166 2.449 . S
O187 C183 1.282 . S
H188 C161 0.931 1_455 S
H189 C163 0.929 . S
H190 C164 0.930 . S
H191 C165 0.931 . S
H192 C172 0.932 . S
H193 C173 0.930 . S
H194 C174 0.929 . S
H195 C176 0.930 . S
H196 C178 0.932 . S
H197 C179 0.929 . S
H198 C180 0.928 . S
H199 C182 0.932 . S
C200 C201 1.264 . S
C200 C205 1.479 . S
C200 C210 1.465 . S
C201 C200 1.264 . S
C201 C203 1.339 . S
C201 H228 0.931 . S
C202 C203 1.395 . S
C202 C204 1.320 . S
C203 C201 1.339 . S
C203 C202 1.395 . S
C203 H229 0.929 . S
C204 C202 1.320 . S
C204 C205 1.405 . S
C204 H230 0.930 . S
C205 C200 1.479 . S
C205 C204 1.405 . S
C205 H231 0.931 . S
U206 O207 2.454 . S
U206 O208 2.458 . S
U206 C209 2.984 . S
U206 C210 2.847 . S
U206 C223 2.882 . S
U206 O224 2.441 . S
U206 O225 2.420 . S
U206 O226 2.455 . S
U206 O227 2.449 . S
O207 U206 2.454 . S
O207 C209 1.353 . S
O208 U206 2.458 . S
O208 C209 1.286 . S
C209 U206 2.984 . S
C209 O207 1.353 . S
C209 O208 1.286 . S
C209 C211 1.363 . S
C210 C200 1.465 . S
C210 U206 2.847 . S
C210 O224 1.249 . S
C210 O225 1.202 . S
C211 C209 1.363 . S
C211 C213 1.408 . S
C211 C216 1.342 . S
C212 C213 1.310 . S
C212 C215 1.461 . S
C212 H232 0.932 . S
C213 C211 1.408 . S
C213 C212 1.310 . S
C213 H233 0.930 . S
C214 C215 1.474 . S
C214 C216 1.285 . S
C214 H234 0.929 . S
C215 C212 1.461 . S
C215 C214 1.474 . S
C216 C211 1.342 . S
C216 C214 1.285 . S
C216 H235 0.930 . S
C217 C220 1.424 . S
C217 C222 1.245 . S
C217 C223 1.428 . S
C218 C221 1.260 . S
C218 C222 1.477 . S
C218 H236 0.932 . S
C219 C220 1.384 . S
C219 C221 1.479 . S
C219 H237 0.929 . S
C220 C217 1.424 . S
C220 C219 1.384 . S
C220 H238 0.928 . S
C221 C218 1.260 . S
C221 C219 1.479 . S
C222 C217 1.245 . S
C222 C218 1.477 . S
C222 H239 0.932 . S
C223 U206 2.882 . S
C223 C217 1.428 . S
C223 O226 1.301 . S
C223 O227 1.282 . S
O224 U206 2.441 . S
O224 C210 1.249 . S
O225 U206 2.420 . S
O225 C210 1.202 . S
O226 U206 2.455 . S
O226 C223 1.301 . S
O227 U206 2.449 . S
O227 C223 1.282 . S
H228 C201 0.931 . S
H229 C203 0.929 . S
H230 C204 0.930 . S
H231 C205 0.931 . S
H232 C212 0.932 . S
H233 C213 0.930 . S
H234 C214 0.929 . S
H235 C216 0.930 . S
H236 C218 0.932 . S
H237 C219 0.929 . S
H238 C220 0.928 . S
H239 C222 0.932 . S
C240 C241 1.264 . S
C240 C245 1.479 . S
C240 C250 1.465 . S
C241 C240 1.264 . S
C241 C243 1.339 . S
C241 H268 0.931 . S
C242 C243 1.395 . S
C242 C244 1.320 . S
C243 C241 1.339 . S
C243 C242 1.395 . S
C243 H269 0.929 . S
C244 C242 1.320 . S
C244 C245 1.405 . S
C244 H270 0.930 . S
C245 C240 1.479 . S
C245 C244 1.405 . S
C245 H271 0.931 . S
U246 O247 2.454 . S
U246 O248 2.458 . S
U246 C249 2.984 . S
U246 C250 2.847 . S
U246 C263 2.882 . S
U246 O264 2.441 . S
U246 O265 2.420 . S
U246 O266 2.455 . S
U246 O267 2.449 . S
O247 U246 2.454 . S
O247 C249 1.353 . S
O248 U246 2.458 . S
O248 C249 1.286 . S
C249 U246 2.984 . S
C249 O247 1.353 . S
C249 O248 1.286 . S
C249 C251 1.363 . S
C250 C240 1.465 . S
C250 U246 2.847 . S
C250 O264 1.249 . S
C250 O265 1.202 . S
C251 C249 1.363 . S
C251 C253 1.408 . S
C251 C256 1.342 . S
C252 C253 1.310 . S
C252 C255 1.461 . S
C252 H272 0.932 . S
C253 C251 1.408 . S
C253 C252 1.310 . S
C253 H273 0.930 . S
C254 C255 1.474 . S
C254 C256 1.285 . S
C254 H274 0.929 . S
C255 C252 1.461 . S
C255 C254 1.474 . S
C256 C251 1.342 . S
C256 C254 1.285 . S
C256 H275 0.930 . S
C257 C260 1.424 . S
C257 C262 1.245 . S
C257 C263 1.428 . S
C258 C261 1.260 . S
C258 C262 1.477 . S
C258 H276 0.932 . S
C259 C260 1.384 . S
C259 C261 1.479 . S
C259 H277 0.929 . S
C260 C257 1.424 . S
C260 C259 1.384 . S
C260 H278 0.928 . S
C261 C258 1.260 . S
C261 C259 1.479 . S
C262 C257 1.245 . S
C262 C258 1.477 . S
C262 H279 0.932 . S
C263 U246 2.882 . S
C263 C257 1.428 . S
C263 O266 1.301 . S
C263 O267 1.282 . S
O264 U246 2.441 . S
O264 C250 1.249 . S
O265 U246 2.420 . S
O265 C250 1.202 . S
O266 U246 2.455 . S
O266 C263 1.301 . S
O267 U246 2.449 . S
O267 C263 1.282 . S
H268 C241 0.931 . S
H269 C243 0.929 . S
H270 C244 0.930 . S
H271 C245 0.931 . S
H272 C252 0.932 . S
H273 C253 0.930 . S
H274 C254 0.929 . S
H275 C256 0.930 . S
H276 C258 0.932 . S
H277 C259 0.929 . S
H278 C260 0.928 . S
H279 C262 0.932 . S
C280 C281 1.264 . S
C280 C285 1.479 . S
C280 C290 1.465 1_554 S
C281 C280 1.264 . S
C281 C283 1.339 . S
C281 H308 0.931 1_554 S
C282 C283 1.395 . S
C282 C284 1.320 . S
C283 C281 1.339 . S
C283 C282 1.395 . S
C283 H309 0.929 . S
C284 C282 1.320 . S
C284 C285 1.405 . S
C284 H310 0.930 . S
C285 C280 1.479 . S
C285 C284 1.405 . S
C285 H311 0.931 . S
U286 O287 2.454 . S
U286 O288 2.458 . S
U286 C289 2.984 . S
U286 C290 2.847 . S
U286 C303 2.882 . S
U286 O304 2.441 . S
U286 O305 2.420 . S
U286 O306 2.455 . S
U286 O307 2.449 . S
O287 U286 2.454 . S
O287 C289 1.353 . S
O288 U286 2.458 . S
O288 C289 1.286 . S
C289 U286 2.984 . S
C289 O287 1.353 . S
C289 O288 1.286 . S
C289 C291 1.363 . S
C290 C280 1.465 1_556 S
C290 U286 2.847 . S
C290 O304 1.249 . S
C290 O305 1.202 . S
C291 C289 1.363 . S
C291 C293 1.408 . S
C291 C296 1.342 . S
C292 C293 1.310 . S
C292 C295 1.461 . S
C292 H312 0.932 . S
C293 C291 1.408 . S
C293 C292 1.310 . S
C293 H313 0.930 . S
C294 C295 1.474 . S
C294 C296 1.285 . S
C294 H314 0.929 . S
C295 C292 1.461 . S
C295 C294 1.474 . S
C296 C291 1.342 . S
C296 C294 1.285 . S
C296 H315 0.930 . S
C297 C300 1.424 . S
C297 C302 1.245 . S
C297 C303 1.428 . S
C298 C301 1.260 . S
C298 C302 1.477 . S
C298 H316 0.932 . S
C299 C300 1.384 . S
C299 C301 1.479 . S
C299 H317 0.929 . S
C300 C297 1.424 . S
C300 C299 1.384 . S
C300 H318 0.928 . S
C301 C298 1.260 . S
C301 C299 1.479 . S
C302 C297 1.245 . S
C302 C298 1.477 . S
C302 H319 0.932 . S
C303 U286 2.882 . S
C303 C297 1.428 . S
C303 O306 1.301 . S
C303 O307 1.282 . S
O304 U286 2.441 . S
O304 C290 1.249 . S
O305 U286 2.420 . S
O305 C290 1.202 . S
O306 U286 2.455 . S
O306 C303 1.301 . S
O307 U286 2.449 . S
O307 C303 1.282 . S
H308 C281 0.931 1_556 S
H309 C283 0.929 . S
H310 C284 0.930 . S
H311 C285 0.931 . S
H312 C292 0.932 . S
H313 C293 0.930 . S
H314 C294 0.929 . S
H315 C296 0.930 . S
H316 C298 0.932 . S
H317 C299 0.929 . S
H318 C300 0.928 . S
H319 C302 0.932 . S
C320 C321 1.264 . S
C320 C325 1.479 . S
C320 C330 1.465 . S
C321 C320 1.264 . S
C321 C323 1.339 . S
C321 H348 0.931 . S
C322 C323 1.395 . S
C322 C324 1.320 . S
C323 C321 1.339 . S
C323 C322 1.395 . S
C323 H349 0.929 . S
C324 C322 1.320 . S
C324 C325 1.405 . S
C324 H350 0.930 . S
C325 C320 1.479 . S
C325 C324 1.405 . S
C325 H351 0.931 . S
U326 O327 2.454 . S
U326 O328 2.458 . S
U326 C329 2.984 . S
U326 C330 2.847 . S
U326 C343 2.882 . S
U326 O344 2.441 . S
U326 O345 2.420 . S
U326 O346 2.455 . S
U326 O347 2.449 . S
O327 U326 2.454 . S
O327 C329 1.353 . S
O328 U326 2.458 . S
O328 C329 1.286 . S
C329 U326 2.984 . S
C329 O327 1.353 . S
C329 O328 1.286 . S
C329 C331 1.363 1_545 S
C330 C320 1.465 . S
C330 U326 2.847 . S
C330 O344 1.249 . S
C330 O345 1.202 . S
C331 C329 1.363 1_565 S
C331 C333 1.408 . S
C331 C336 1.342 . S
C332 C333 1.310 . S
C332 C335 1.461 . S
C332 H352 0.932 . S
C333 C331 1.408 . S
C333 C332 1.310 . S
C333 H353 0.930 . S
C334 C335 1.474 . S
C334 C336 1.285 . S
C334 H354 0.929 . S
C335 C332 1.461 . S
C335 C334 1.474 . S
C336 C331 1.342 . S
C336 C334 1.285 . S
C336 H355 0.930 1_565 S
C337 C340 1.424 . S
C337 C342 1.245 . S
C337 C343 1.428 . S
C338 C341 1.260 . S
C338 C342 1.477 . S
C338 H356 0.932 . S
C339 C340 1.384 . S
C339 C341 1.479 . S
C339 H357 0.929 . S
C340 C337 1.424 . S
C340 C339 1.384 . S
C340 H358 0.928 . S
C341 C338 1.260 . S
C341 C339 1.479 . S
C342 C337 1.245 . S
C342 C338 1.477 . S
C342 H359 0.932 . S
C343 U326 2.882 . S
C343 C337 1.428 . S
C343 O346 1.301 . S
C343 O347 1.282 . S
O344 U326 2.441 . S
O344 C330 1.249 . S
O345 U326 2.420 . S
O345 C330 1.202 . S
O346 U326 2.455 . S
O346 C343 1.301 . S
O347 U326 2.449 . S
O347 C343 1.282 . S
H348 C321 0.931 . S
H349 C323 0.929 . S
H350 C324 0.930 . S
H351 C325 0.931 . S
H352 C332 0.932 . S
H353 C333 0.930 . S
H354 C334 0.929 . S
H355 C336 0.930 1_545 S
H356 C338 0.932 . S
H357 C339 0.929 . S
H358 C340 0.928 . S
H359 C342 0.932 . S
C360 C361 1.264 . S
C360 C365 1.479 . S
C360 C370 1.465 1_565 S
C361 C360 1.264 . S
C361 C363 1.339 . S
C361 H388 0.931 1_565 S
C362 C363 1.395 . S
C362 C364 1.320 . S
C363 C361 1.339 . S
C363 C362 1.395 . S
C363 H389 0.929 . S
C364 C362 1.320 . S
C364 C365 1.405 . S
C364 H390 0.930 . S
C365 C360 1.479 . S
C365 C364 1.405 . S
C365 H391 0.931 . S
U366 O367 2.454 . S
U366 O368 2.458 . S
U366 C369 2.984 . S
U366 C370 2.847 . S
U366 C383 2.882 . S
U366 O384 2.441 . S
U366 O385 2.420 . S
U366 O386 2.455 . S
U366 O387 2.449 . S
O367 U366 2.454 . S
O367 C369 1.353 . S
O368 U366 2.458 . S
O368 C369 1.286 . S
C369 U366 2.984 . S
C369 O367 1.353 . S
C369 O368 1.286 . S
C369 C371 1.363 . S
C370 C360 1.465 1_545 S
C370 U366 2.847 . S
C370 O384 1.249 . S
C370 O385 1.202 . S
C371 C369 1.363 . S
C371 C373 1.408 . S
C371 C376 1.342 . S
C372 C373 1.310 . S
C372 C375 1.461 . S
C372 H392 0.932 . S
C373 C371 1.408 . S
C373 C372 1.310 . S
C373 H393 0.930 . S
C374 C375 1.474 . S
C374 C376 1.285 . S
C374 H394 0.929 . S
C375 C372 1.461 . S
C375 C374 1.474 . S
C376 C371 1.342 . S
C376 C374 1.285 . S
C376 H395 0.930 . S
C377 C380 1.424 . S
C377 C382 1.245 . S
C377 C383 1.428 . S
C378 C381 1.260 . S
C378 C382 1.477 . S
C378 H396 0.932 . S
C379 C380 1.384 . S
C379 C381 1.479 . S
C379 H397 0.929 . S
C380 C377 1.424 . S
C380 C379 1.384 . S
C380 H398 0.928 . S
C381 C378 1.260 . S
C381 C379 1.479 . S
C382 C377 1.245 . S
C382 C378 1.477 . S
C382 H399 0.932 . S
C383 U366 2.882 . S
C383 C377 1.428 . S
C383 O386 1.301 . S
C383 O387 1.282 . S
O384 U366 2.441 . S
O384 C370 1.249 . S
O385 U366 2.420 . S
O385 C370 1.202 . S
O386 U366 2.455 . S
O386 C383 1.301 . S
O387 U366 2.449 . S
O387 C383 1.282 . S
H388 C361 0.931 1_545 S
H389 C363 0.929 . S
H390 C364 0.930 . S
H391 C365 0.931 . S
H392 C372 0.932 . S
H393 C373 0.930 . S
H394 C374 0.929 . S
H395 C376 0.930 . S
H396 C378 0.932 . S
H397 C379 0.929 . S
H398 C380 0.928 . S
H399 C382 0.932 . S
C400 C401 1.264 . S
C400 C405 1.479 . S
C400 C410 1.465 1_545 S
C401 C400 1.264 . S
C401 C403 1.339 . S
C401 H428 0.931 1_545 S
C402 C403 1.395 . S
C402 C404 1.320 . S
C403 C401 1.339 . S
C403 C402 1.395 . S
C403 H429 0.929 . S
C404 C402 1.320 . S
C404 C405 1.405 . S
C404 H430 0.930 . S
C405 C400 1.479 . S
C405 C404 1.405 . S
C405 H431 0.931 . S
U406 O407 2.454 . S
U406 O408 2.458 . S
U406 C409 2.984 . S
U406 C410 2.847 . S
U406 C423 2.882 . S
U406 O424 2.441 . S
U406 O425 2.420 . S
U406 O426 2.455 . S
U406 O427 2.449 . S
O407 U406 2.454 . S
O407 C409 1.353 . S
O408 U406 2.458 . S
O408 C409 1.286 . S
C409 U406 2.984 . S
C409 O407 1.353 . S
C409 O408 1.286 . S
C409 C411 1.363 . S
C410 C400 1.465 1_565 S
C410 U406 2.847 . S
C410 O424 1.249 . S
C410 O425 1.202 . S
C411 C409 1.363 . S
C411 C413 1.408 . S
C411 C416 1.342 . S
C412 C413 1.310 . S
C412 C415 1.461 . S
C412 H432 0.932 . S
C413 C411 1.408 . S
C413 C412 1.310 . S
C413 H433 0.930 . S
C414 C415 1.474 . S
C414 C416 1.285 . S
C414 H434 0.929 . S
C415 C412 1.461 . S
C415 C414 1.474 . S
C416 C411 1.342 . S
C416 C414 1.285 . S
C416 H435 0.930 . S
C417 C420 1.424 . S
C417 C422 1.245 . S
C417 C423 1.428 . S
C418 C421 1.260 . S
C418 C422 1.477 . S
C418 H436 0.932 . S
C419 C420 1.384 . S
C419 C421 1.479 . S
C419 H437 0.929 . S
C420 C417 1.424 . S
C420 C419 1.384 . S
C420 H438 0.928 . S
C421 C418 1.260 . S
C421 C419 1.479 . S
C422 C417 1.245 . S
C422 C418 1.477 . S
C422 H439 0.932 . S
C423 U406 2.882 . S
C423 C417 1.428 . S
C423 O426 1.301 . S
C423 O427 1.282 . S
O424 U406 2.441 . S
O424 C410 1.249 . S
O425 U406 2.420 . S
O425 C410 1.202 . S
O426 U406 2.455 . S
O426 C423 1.301 . S
O427 U406 2.449 . S
O427 C423 1.282 . S
H428 C401 0.931 1_565 S
H429 C403 0.929 . S
H430 C404 0.930 . S
H431 C405 0.931 . S
H432 C412 0.932 . S
H433 C413 0.930 . S
H434 C414 0.929 . S
H435 C416 0.930 . S
H436 C418 0.932 . S
H437 C419 0.929 . S
H438 C420 0.928 . S
H439 C422 0.932 . S
C440 C441 1.264 . S
C440 C445 1.479 . S
C440 C450 1.465 . S
C441 C440 1.264 . S
C441 C443 1.339 . S
C441 H468 0.931 . S
C442 C443 1.395 . S
C442 C444 1.320 . S
C443 C441 1.339 . S
C443 C442 1.395 . S
C443 H469 0.929 . S
C444 C442 1.320 . S
C444 C445 1.405 . S
C444 H470 0.930 . S
C445 C440 1.479 . S
C445 C444 1.405 . S
C445 H471 0.931 . S
U446 O447 2.454 . S
U446 O448 2.458 . S
U446 C449 2.984 . S
U446 C450 2.847 . S
U446 C463 2.882 . S
U446 O464 2.441 . S
U446 O465 2.420 . S
U446 O466 2.455 . S
U446 O467 2.449 . S
O447 U446 2.454 . S
O447 C449 1.353 . S
O448 U446 2.458 . S
O448 C449 1.286 . S
C449 U446 2.984 . S
C449 O447 1.353 . S
C449 O448 1.286 . S
C449 C451 1.363 1_565 S
C450 C440 1.465 . S
C450 U446 2.847 . S
C450 O464 1.249 . S
C450 O465 1.202 . S
C451 C449 1.363 1_545 S
C451 C453 1.408 . S
C451 C456 1.342 . S
C452 C453 1.310 . S
C452 C455 1.461 . S
C452 H472 0.932 . S
C453 C451 1.408 . S
C453 C452 1.310 . S
C453 H473 0.930 . S
C454 C455 1.474 . S
C454 C456 1.285 . S
C454 H474 0.929 . S
C455 C452 1.461 . S
C455 C454 1.474 . S
C456 C451 1.342 . S
C456 C454 1.285 . S
C456 H475 0.930 1_545 S
C457 C460 1.424 . S
C457 C462 1.245 . S
C457 C463 1.428 . S
C458 C461 1.260 . S
C458 C462 1.477 . S
C458 H476 0.932 . S
C459 C460 1.384 . S
C459 C461 1.479 . S
C459 H477 0.929 . S
C460 C457 1.424 . S
C460 C459 1.384 . S
C460 H478 0.928 . S
C461 C458 1.260 . S
C461 C459 1.479 . S
C462 C457 1.245 . S
C462 C458 1.477 . S
C462 H479 0.932 . S
C463 U446 2.882 . S
C463 C457 1.428 . S
C463 O466 1.301 . S
C463 O467 1.282 . S
O464 U446 2.441 . S
O464 C450 1.249 . S
O465 U446 2.420 . S
O465 C450 1.202 . S
O466 U446 2.455 . S
O466 C463 1.301 . S
O467 U446 2.449 . S
O467 C463 1.282 . S
H468 C441 0.931 . S
H469 C443 0.929 . S
H470 C444 0.930 . S
H471 C445 0.931 . S
H472 C452 0.932 . S
H473 C453 0.930 . S
H474 C454 0.929 . S
H475 C456 0.930 1_565 S
H476 C458 0.932 . S
H477 C459 0.929 . S
H478 C460 0.928 . S
H479 C462 0.932 . S
C480 C481 1.264 . S
C480 C485 1.479 . S
C480 C490 1.465 . S
C481 C480 1.264 . S
C481 C483 1.339 . S
C481 H508 0.931 . S
C482 C483 1.395 . S
C482 C484 1.320 . S
C483 C481 1.339 . S
C483 C482 1.395 . S
C483 H509 0.929 . S
C484 C482 1.320 . S
C484 C485 1.405 . S
C484 H510 0.930 . S
C485 C480 1.479 . S
C485 C484 1.405 . S
C485 H511 0.931 . S
U486 O487 2.454 . S
U486 O488 2.458 . S
U486 C489 2.984 . S
U486 C490 2.847 . S
U486 C503 2.882 . S
U486 O504 2.441 . S
U486 O505 2.420 . S
U486 O506 2.455 . S
U486 O507 2.449 . S
O487 U486 2.454 . S
O487 C489 1.353 . S
O488 U486 2.458 . S
O488 C489 1.286 . S
C489 U486 2.984 . S
C489 O487 1.353 . S
C489 O488 1.286 . S
C489 C491 1.363 1_554 S
C490 C480 1.465 . S
C490 U486 2.847 . S
C490 O504 1.249 . S
C490 O505 1.202 . S
C491 C489 1.363 1_556 S
C491 C493 1.408 . S
C491 C496 1.342 . S
C492 C493 1.310 . S
C492 C495 1.461 . S
C492 H512 0.932 . S
C493 C491 1.408 . S
C493 C492 1.310 . S
C493 H513 0.930 . S
C494 C495 1.474 . S
C494 C496 1.285 . S
C494 H514 0.929 . S
C495 C492 1.461 . S
C495 C494 1.474 . S
C496 C491 1.342 . S
C496 C494 1.285 . S
C496 H515 0.930 1_556 S
C497 C500 1.424 . S
C497 C502 1.245 . S
C497 C503 1.428 . S
C498 C501 1.260 . S
C498 C502 1.477 . S
C498 H516 0.932 . S
C499 C500 1.384 . S
C499 C501 1.479 . S
C499 H517 0.929 . S
C500 C497 1.424 . S
C500 C499 1.384 . S
C500 H518 0.928 . S
C501 C498 1.260 . S
C501 C499 1.479 . S
C502 C497 1.245 . S
C502 C498 1.477 . S
C502 H519 0.932 . S
C503 U486 2.882 . S
C503 C497 1.428 . S
C503 O506 1.301 . S
C503 O507 1.282 . S
O504 U486 2.441 . S
O504 C490 1.249 . S
O505 U486 2.420 . S
O505 C490 1.202 . S
O506 U486 2.455 . S
O506 C503 1.301 . S
O507 U486 2.449 . S
O507 C503 1.282 . S
H508 C481 0.931 . S
H509 C483 0.929 . S
H510 C484 0.930 . S
H511 C485 0.931 . S
H512 C492 0.932 . S
H513 C493 0.930 . S
H514 C494 0.929 . S
H515 C496 0.930 1_554 S
H516 C498 0.932 . S
H517 C499 0.929 . S
H518 C500 0.928 . S
H519 C502 0.932 . S
C520 C521 1.264 . S
C520 C525 1.479 . S
C520 C530 1.465 1_455 S
C521 C520 1.264 . S
C521 C523 1.339 . S
C521 H548 0.918 1_455 S
C522 C523 1.395 . S
C522 C524 1.320 . S
C523 C521 1.339 . S
C523 C522 1.395 . S
C523 H549 0.929 . S
C524 C522 1.320 . S
C524 C525 1.405 . S
C524 H550 0.930 . S
C525 C520 1.479 . S
C525 C524 1.405 . S
C525 H551 0.931 . S
U526 O527 2.454 . S
U526 O528 2.458 . S
U526 C529 2.984 . S
U526 C530 2.847 . S
U526 C543 2.882 . S
U526 O544 2.441 . S
U526 O545 2.420 . S
U526 O546 2.455 . S
U526 O547 2.449 . S
O527 U526 2.454 . S
O527 C529 1.353 . S
O528 U526 2.458 . S
O528 C529 1.286 . S
C529 U526 2.984 . S
C529 O527 1.353 . S
C529 O528 1.286 . S
C529 C531 1.363 . S
C530 C520 1.465 1_655 S
C530 U526 2.847 . S
C530 O544 1.249 . S
C530 O545 1.202 . S
C531 C529 1.363 . S
C531 C533 1.408 . S
C531 C536 1.342 . S
C532 C533 1.310 . S
C532 C535 1.461 . S
C532 H552 0.932 . S
C533 C531 1.408 . S
C533 C532 1.310 . S
C533 H553 0.930 . S
C534 C535 1.474 . S
C534 C536 1.285 . S
C534 H554 0.929 . S
C535 C532 1.461 . S
C535 C534 1.474 . S
C536 C531 1.342 . S
C536 C534 1.285 . S
C536 H555 0.930 . S
C537 C540 1.424 . S
C537 C542 1.245 . S
C537 C543 1.428 . S
C538 C541 1.260 . S
C538 C542 1.477 . S
C538 H556 0.932 . S
C539 C540 1.384 . S
C539 C541 1.479 . S
C539 H557 0.929 . S
C540 C537 1.424 . S
C540 C539 1.384 . S
C540 H558 0.928 . S
C541 C538 1.260 . S
C541 C539 1.479 . S
C542 C537 1.245 . S
C542 C538 1.477 . S
C542 H559 0.932 . S
C543 U526 2.882 . S
C543 C537 1.428 . S
C543 O546 1.301 . S
C543 O547 1.282 . S
O544 U526 2.441 . S
O544 C530 1.249 . S
O545 U526 2.420 . S
O545 C530 1.202 . S
O546 U526 2.455 . S
O546 C543 1.301 . S
O547 U526 2.449 . S
O547 C543 1.282 . S
H548 C521 0.918 1_655 S
H549 C523 0.929 . S
H550 C524 0.930 . S
H551 C525 0.931 . S
H552 C532 0.932 . S
H553 C533 0.930 . S
H554 C534 0.929 . S
H555 C536 0.930 . S
H556 C538 0.932 . S
H557 C539 0.929 . S
H558 C540 0.928 . S
H559 C542 0.932 . S
C560 C561 1.264 . S
C560 C565 1.479 . S
C560 C570 1.465 . S
C561 C560 1.264 . S
C561 C563 1.339 . S
C561 H588 0.931 . S
C562 C563 1.395 . S
C562 C564 1.320 . S
C563 C561 1.339 . S
C563 C562 1.395 . S
C563 H589 0.929 . S
C564 C562 1.320 . S
C564 C565 1.405 . S
C564 H590 0.930 . S
C565 C560 1.479 . S
C565 C564 1.405 . S
C565 H591 0.931 . S
U566 O567 2.454 . S
U566 O568 2.458 . S
U566 C569 2.984 . S
U566 C570 2.847 . S
U566 C583 2.882 . S
U566 O584 2.441 . S
U566 O585 2.420 . S
U566 O586 2.455 . S
U566 O587 2.449 . S
O567 U566 2.454 . S
O567 C569 1.353 . S
O568 U566 2.458 . S
O568 C569 1.286 . S
C569 U566 2.984 . S
C569 O567 1.353 . S
C569 O568 1.286 . S
C569 C571 1.363 . S
C570 C560 1.465 . S
C570 U566 2.847 . S
C570 O584 1.249 . S
C570 O585 1.202 . S
C571 C569 1.363 . S
C571 C573 1.408 . S
C571 C576 1.342 . S
C572 C573 1.310 . S
C572 C575 1.461 . S
C572 H592 0.932 . S
C573 C571 1.408 . S
C573 C572 1.310 . S
C573 H593 0.930 . S
C574 C575 1.474 . S
C574 C576 1.285 . S
C574 H594 0.929 . S
C575 C572 1.461 . S
C575 C574 1.474 . S
C576 C571 1.342 . S
C576 C574 1.285 . S
C576 H595 0.930 . S
C577 C580 1.424 . S
C577 C582 1.245 . S
C577 C583 1.428 . S
C578 C581 1.260 . S
C578 C582 1.477 . S
C578 H596 0.932 . S
C579 C580 1.384 . S
C579 C581 1.479 . S
C579 H597 0.929 . S
C580 C577 1.424 . S
C580 C579 1.384 . S
C580 H598 0.928 . S
C581 C578 1.260 . S
C581 C579 1.479 . S
C582 C577 1.245 . S
C582 C578 1.477 . S
C582 H599 0.932 . S
C583 U566 2.882 . S
C583 C577 1.428 . S
C583 O586 1.301 . S
C583 O587 1.282 . S
O584 U566 2.441 . S
O584 C570 1.249 . S
O585 U566 2.420 . S
O585 C570 1.202 . S
O586 U566 2.455 . S
O586 C583 1.301 . S
O587 U566 2.449 . S
O587 C583 1.282 . S
H588 C561 0.931 . S
H589 C563 0.929 . S
H590 C564 0.930 . S
H591 C565 0.931 . S
H592 C572 0.932 . S
H593 C573 0.930 . S
H594 C574 0.929 . S
H595 C576 0.930 . S
H596 C578 0.932 . S
H597 C579 0.929 . S
H598 C580 0.928 . S
H599 C582 0.932 . S
C600 C601 1.264 . S
C600 C605 1.479 . S
C600 C610 1.465 . S
C601 C600 1.264 . S
C601 C603 1.339 . S
C601 H628 0.931 . S
C602 C603 1.395 . S
C602 C604 1.320 . S
C603 C601 1.339 . S
C603 C602 1.395 . S
C603 H629 0.929 . S
C604 C602 1.320 . S
C604 C605 1.405 . S
C604 H630 0.930 . S
C605 C600 1.479 . S
C605 C604 1.405 . S
C605 H631 0.931 . S
U606 O607 2.454 1_655 S
U606 O608 2.458 1_655 S
U606 C609 2.984 1_655 S
U606 C610 2.847 . S
U606 C623 2.882 . S
U606 O624 2.441 . S
U606 O625 2.420 . S
U606 O626 2.455 . S
U606 O627 2.449 . S
O607 U606 2.454 1_455 S
O607 C609 1.353 . S
O608 U606 2.458 1_455 S
O608 C609 1.286 . S
C609 U606 2.984 1_455 S
C609 O607 1.353 . S
C609 O608 1.286 . S
C609 C611 1.363 . S
C610 C600 1.465 . S
C610 U606 2.847 . S
C610 O624 1.249 . S
C610 O625 1.202 . S
C611 C609 1.363 . S
C611 C613 1.408 . S
C611 C616 1.342 . S
C612 C613 1.310 . S
C612 C615 1.461 . S
C612 H632 0.932 . S
C613 C611 1.408 . S
C613 C612 1.310 . S
C613 H633 0.930 . S
C614 C615 1.474 . S
C614 C616 1.285 . S
C614 H634 0.929 . S
C615 C612 1.461 . S
C615 C614 1.474 . S
C616 C611 1.342 . S
C616 C614 1.285 . S
C616 H635 0.930 . S
C617 C620 1.424 . S
C617 C622 1.245 . S
C617 C623 1.428 . S
C618 C621 1.260 . S
C618 C622 1.477 . S
C618 H636 0.932 . S
C619 C620 1.384 . S
C619 C621 1.479 . S
C619 H637 0.929 . S
C620 C617 1.424 . S
C620 C619 1.384 . S
C620 H638 0.928 . S
C621 C618 1.260 . S
C621 C619 1.479 . S
C622 C617 1.245 . S
C622 C618 1.477 . S
C622 H639 0.932 . S
C623 U606 2.882 . S
C623 C617 1.428 . S
C623 O626 1.301 . S
C623 O627 1.282 . S
O624 U606 2.441 . S
O624 C610 1.249 . S
O625 U606 2.420 . S
O625 C610 1.202 . S
O626 U606 2.455 . S
O626 C623 1.301 . S
O627 U606 2.449 . S
O627 C623 1.282 . S
H628 C601 0.931 . S
H629 C603 0.929 . S
H630 C604 0.930 . S
H631 C605 0.931 . S
H632 C612 0.932 . S
H633 C613 0.930 . S
H634 C614 0.929 . S
H635 C616 0.930 . S
H636 C618 0.932 . S
H637 C619 0.929 . S
H638 C620 0.928 . S
H639 C622 0.932 . S
C640 C641 1.264 . S
C640 C645 1.479 . S
C640 C650 1.465 . S
C641 C640 1.264 . S
C641 C643 1.339 . S
C641 H668 0.931 . S
C642 C643 1.395 . S
C642 C644 1.320 . S
C643 C641 1.339 . S
C643 C642 1.395 . S
C643 H669 0.929 . S
C644 C642 1.320 . S
C644 C645 1.405 . S
C644 H670 0.930 . S
C645 C640 1.479 . S
C645 C644 1.405 . S
C645 H671 0.931 . S
U646 O647 2.454 . S
U646 O648 2.458 . S
U646 C649 2.984 . S
U646 C650 2.847 . S
U646 C663 2.882 . S
U646 O664 2.441 . S
U646 O665 2.420 . S
U646 O666 2.455 . S
U646 O667 2.449 . S
O647 U646 2.454 . S
O647 C649 1.353 . S
O648 U646 2.458 . S
O648 C649 1.286 . S
C649 U646 2.984 . S
C649 O647 1.353 . S
C649 O648 1.286 . S
C649 C651 1.363 . S
C650 C640 1.465 . S
C650 U646 2.847 . S
C650 O664 1.249 . S
C650 O665 1.202 . S
C651 C649 1.363 . S
C651 C653 1.408 . S
C651 C656 1.342 . S
C652 C653 1.310 . S
C652 C655 1.461 . S
C652 H672 0.932 . S
C653 C651 1.408 . S
C653 C652 1.310 . S
C653 H673 0.930 . S
C654 C655 1.474 . S
C654 C656 1.285 . S
C654 H674 0.929 . S
C655 C652 1.461 . S
C655 C654 1.474 . S
C656 C651 1.342 . S
C656 C654 1.285 . S
C656 H675 0.930 . S
C657 C660 1.424 . S
C657 C662 1.245 . S
C657 C663 1.428 . S
C658 C661 1.260 . S
C658 C662 1.477 . S
C658 H676 0.932 . S
C659 C660 1.384 . S
C659 C661 1.479 . S
C659 H677 0.929 . S
C660 C657 1.424 . S
C660 C659 1.384 . S
C660 H678 0.928 . S
C661 C658 1.260 . S
C661 C659 1.479 . S
C662 C657 1.245 . S
C662 C658 1.477 . S
C662 H679 0.932 . S
C663 U646 2.882 . S
C663 C657 1.428 . S
C663 O666 1.301 . S
C663 O667 1.282 . S
O664 U646 2.441 . S
O664 C650 1.249 . S
O665 U646 2.420 . S
O665 C650 1.202 . S
O666 U646 2.455 . S
O666 C663 1.301 . S
O667 U646 2.449 . S
O667 C663 1.282 . S
H668 C641 0.931 . S
H669 C643 0.929 . S
H670 C644 0.930 . S
H671 C645 0.931 . S
H672 C652 0.932 . S
H673 C653 0.930 . S
H674 C654 0.929 . S
H675 C656 0.930 . S
H676 C658 0.932 . S
H677 C659 0.929 . S
H678 C660 0.928 . S
H679 C662 0.932 . S
C680 C681 1.264 . S
C680 C685 1.479 . S
C680 C690 1.465 . S
C681 C680 1.264 . S
C681 C683 1.339 . S
C681 H708 0.931 . S
C682 C683 1.395 . S
C682 C684 1.320 . S
C683 C681 1.339 . S
C683 C682 1.395 . S
C683 H709 0.929 . S
C684 C682 1.320 . S
C684 C685 1.405 . S
C684 H710 0.930 . S
C685 C680 1.479 . S
C685 C684 1.405 . S
C685 H711 0.931 . S
U686 O687 2.454 . S
U686 O688 2.458 . S
U686 C689 2.984 . S
U686 C690 2.847 . S
U686 C703 2.882 . S
U686 O704 2.441 . S
U686 O705 2.420 . S
U686 O706 2.455 . S
U686 O707 2.449 . S
O687 U686 2.454 . S
O687 C689 1.353 . S
O688 U686 2.458 . S
O688 C689 1.286 . S
C689 U686 2.984 . S
C689 O687 1.353 . S
C689 O688 1.286 . S
C689 C691 1.363 . S
C690 C680 1.465 . S
C690 U686 2.847 . S
C690 O704 1.249 . S
C690 O705 1.202 . S
C691 C689 1.363 . S
C691 C693 1.408 . S
C691 C696 1.342 . S
C692 C693 1.310 . S
C692 C695 1.461 . S
C692 H712 0.932 . S
C693 C691 1.408 . S
C693 C692 1.310 . S
C693 H713 0.930 . S
C694 C695 1.474 . S
C694 C696 1.285 . S
C694 H714 0.929 . S
C695 C692 1.461 . S
C695 C694 1.474 . S
C696 C691 1.342 . S
C696 C694 1.285 . S
C696 H715 0.930 . S
C697 C700 1.424 . S
C697 C702 1.245 . S
C697 C703 1.428 . S
C698 C701 1.260 . S
C698 C702 1.477 . S
C698 H716 0.932 . S
C699 C700 1.384 . S
C699 C701 1.479 . S
C699 H717 0.929 . S
C700 C697 1.424 . S
C700 C699 1.384 . S
C700 H718 0.928 . S
C701 C698 1.260 . S
C701 C699 1.479 . S
C702 C697 1.245 . S
C702 C698 1.477 . S
C702 H719 0.932 . S
C703 U686 2.882 . S
C703 C697 1.428 . S
C703 O706 1.301 . S
C703 O707 1.282 . S
O704 U686 2.441 . S
O704 C690 1.249 . S
O705 U686 2.420 . S
O705 C690 1.202 . S
O706 U686 2.455 . S
O706 C703 1.301 . S
O707 U686 2.449 . S
O707 C703 1.282 . S
H708 C681 0.931 . S
H709 C683 0.929 . S
H710 C684 0.930 . S
H711 C685 0.931 . S
H712 C692 0.932 . S
H713 C693 0.930 . S
H714 C694 0.929 . S
H715 C696 0.930 . S
H716 C698 0.932 . S
H717 C699 0.929 . S
H718 C700 0.928 . S
H719 C702 0.932 . S
C720 C721 1.264 . S
C720 C725 1.479 . S
C720 C730 1.465 . S
C721 C720 1.264 . S
C721 C723 1.339 . S
C721 H748 0.931 . S
C722 C723 1.395 . S
C722 C724 1.320 . S
C723 C721 1.339 . S
C723 C722 1.395 . S
C723 H749 0.929 . S
C724 C722 1.320 . S
C724 C725 1.405 . S
C724 H750 0.930 . S
C725 C720 1.479 . S
C725 C724 1.405 . S
C725 H751 0.931 . S
U726 O727 2.454 1_556 S
U726 O728 2.458 1_556 S
U726 C729 2.984 1_556 S
U726 C730 2.847 . S
U726 C743 2.882 . S
U726 O744 2.441 . S
U726 O745 2.420 . S
U726 O746 2.455 . S
U726 O747 2.449 . S
O727 U726 2.454 1_554 S
O727 C729 1.353 . S
O728 U726 2.458 1_554 S
O728 C729 1.286 . S
C729 U726 2.984 1_554 S
C729 O727 1.353 . S
C729 O728 1.286 . S
C729 C731 1.363 . S
C730 C720 1.465 . S
C730 U726 2.847 . S
C730 O744 1.249 . S
C730 O745 1.202 . S
C731 C729 1.363 . S
C731 C733 1.408 . S
C731 C736 1.342 . S
C732 C733 1.310 . S
C732 C735 1.461 . S
C732 H752 0.932 . S
C733 C731 1.408 . S
C733 C732 1.310 . S
C733 H753 0.930 . S
C734 C735 1.474 . S
C734 C736 1.285 . S
C734 H754 0.929 . S
C735 C732 1.461 . S
C735 C734 1.474 . S
C736 C731 1.342 . S
C736 C734 1.285 . S
C736 H755 0.930 . S
C737 C740 1.424 . S
C737 C742 1.245 . S
C737 C743 1.428 . S
C738 C741 1.260 . S
C738 C742 1.477 . S
C738 H756 0.932 . S
C739 C740 1.384 . S
C739 C741 1.479 . S
C739 H757 0.929 . S
C740 C737 1.424 . S
C740 C739 1.384 . S
C740 H758 0.928 . S
C741 C738 1.260 . S
C741 C739 1.479 . S
C742 C737 1.245 . S
C742 C738 1.477 . S
C742 H759 0.932 . S
C743 U726 2.882 . S
C743 C737 1.428 . S
C743 O746 1.301 . S
C743 O747 1.282 . S
O744 U726 2.441 . S
O744 C730 1.249 . S
O745 U726 2.420 . S
O745 C730 1.202 . S
O746 U726 2.455 . S
O746 C743 1.301 . S
O747 U726 2.449 . S
O747 C743 1.282 . S
H748 C721 0.931 . S
H749 C723 0.929 . S
H750 C724 0.930 . S
H751 C725 0.931 . S
H752 C732 0.932 . S
H753 C733 0.930 . S
H754 C734 0.929 . S
H755 C736 0.930 . S
H756 C738 0.932 . S
H757 C739 0.929 . S
H758 C740 0.928 . S
H759 C742 0.932 . S
C760 C761 1.264 . S
C760 C765 1.479 . S
C760 C770 1.465 . S
C761 C760 1.264 . S
C761 C763 1.339 . S
C761 H788 0.931 . S
C762 C763 1.395 . S
C762 C764 1.320 . S
C763 C761 1.339 . S
C763 C762 1.395 . S
C763 H789 0.929 . S
C764 C762 1.320 . S
C764 C765 1.405 . S
C764 H790 0.930 . S
C765 C760 1.479 . S
C765 C764 1.405 . S
C765 H791 0.931 . S
U766 O767 2.454 . S
U766 O768 2.458 . S
U766 C769 2.984 . S
U766 C770 2.847 1_655 S
U766 C783 2.882 . S
U766 O784 2.441 1_655 S
U766 O785 2.420 1_655 S
U766 O786 2.455 . S
U766 O787 2.449 . S
O767 U766 2.454 . S
O767 C769 1.353 . S
O768 U766 2.458 . S
O768 C769 1.286 . S
C769 U766 2.984 . S
C769 O767 1.353 . S
C769 O768 1.286 . S
C769 C771 1.363 . S
C770 C760 1.465 . S
C770 U766 2.847 1_455 S
C770 O784 1.249 . S
C770 O785 1.202 . S
C771 C769 1.363 . S
C771 C773 1.408 . S
C771 C776 1.342 . S
C772 C773 1.310 . S
C772 C775 1.461 . S
C772 H792 0.932 . S
C773 C771 1.408 . S
C773 C772 1.310 . S
C773 H793 0.930 . S
C774 C775 1.474 . S
C774 C776 1.285 . S
C774 H794 0.929 . S
C775 C772 1.461 . S
C775 C774 1.474 . S
C776 C771 1.342 . S
C776 C774 1.285 . S
C776 H795 0.930 . S
C777 C780 1.424 . S
C777 C782 1.245 . S
C777 C783 1.428 . S
C778 C781 1.260 . S
C778 C782 1.477 . S
C778 H796 0.932 . S
C779 C780 1.384 . S
C779 C781 1.479 . S
C779 H797 0.929 . S
C780 C777 1.424 . S
C780 C779 1.384 . S
C780 H798 0.928 . S
C781 C778 1.260 . S
C781 C779 1.479 . S
C782 C777 1.245 . S
C782 C778 1.477 . S
C782 H799 0.932 . S
C783 U766 2.882 . S
C783 C777 1.428 . S
C783 O786 1.301 . S
C783 O787 1.282 . S
O784 U766 2.441 1_455 S
O784 C770 1.249 . S
O785 U766 2.420 1_455 S
O785 C770 1.202 . S
O786 U766 2.455 . S
O786 C783 1.301 . S
O787 U766 2.449 . S
O787 C783 1.282 . S
H788 C761 0.931 . S
H789 C763 0.929 . S
H790 C764 0.930 . S
H791 C765 0.931 . S
H792 C772 0.932 . S
H793 C773 0.930 . S
H794 C774 0.929 . S
H795 C776 0.930 . S
H796 C778 0.932 . S
H797 C779 0.929 . S
H798 C780 0.928 . S
H799 C782 0.932 . S
C800 C801 1.264 . S
C800 C805 1.479 . S
C800 C810 1.465 . S
C801 C800 1.264 . S
C801 C803 1.339 . S
C801 H828 0.931 . S
C802 C803 1.395 . S
C802 C804 1.320 . S
C803 C801 1.339 . S
C803 C802 1.395 . S
C803 H829 0.929 . S
C804 C802 1.320 . S
C804 C805 1.405 . S
C804 H830 0.930 . S
C805 C800 1.479 . S
C805 C804 1.405 . S
C805 H831 0.931 . S
U806 O807 2.454 . S
U806 O808 2.458 . S
U806 C809 2.984 . S
U806 C810 2.847 . S
U806 C823 2.882 . S
U806 O824 2.441 . S
U806 O825 2.420 . S
U806 O826 2.455 . S
U806 O827 2.449 . S
O807 U806 2.454 . S
O807 C809 1.353 . S
O808 U806 2.458 . S
O808 C809 1.286 . S
C809 U806 2.984 . S
C809 O807 1.353 . S
C809 O808 1.286 . S
C809 C811 1.363 . S
C810 C800 1.465 . S
C810 U806 2.847 . S
C810 O824 1.249 . S
C810 O825 1.202 . S
C811 C809 1.363 . S
C811 C813 1.408 . S
C811 C816 1.342 . S
C812 C813 1.310 . S
C812 C815 1.461 . S
C812 H832 0.932 . S
C813 C811 1.408 . S
C813 C812 1.310 . S
C813 H833 0.930 . S
C814 C815 1.474 . S
C814 C816 1.285 . S
C814 H834 0.929 . S
C815 C812 1.461 . S
C815 C814 1.474 . S
C816 C811 1.342 . S
C816 C814 1.285 . S
C816 H835 0.930 . S
C817 C820 1.424 . S
C817 C822 1.245 . S
C817 C823 1.428 . S
C818 C821 1.260 . S
C818 C822 1.477 . S
C818 H836 0.932 . S
C819 C820 1.384 . S
C819 C821 1.479 . S
C819 H837 0.929 . S
C820 C817 1.424 . S
C820 C819 1.384 . S
C820 H838 0.928 . S
C821 C818 1.260 . S
C821 C819 1.479 . S
C822 C817 1.245 . S
C822 C818 1.477 . S
C822 H839 0.932 . S
C823 U806 2.882 . S
C823 C817 1.428 . S
C823 O826 1.301 . S
C823 O827 1.282 . S
O824 U806 2.441 . S
O824 C810 1.249 . S
O825 U806 2.420 . S
O825 C810 1.202 . S
O826 U806 2.455 . S
O826 C823 1.301 . S
O827 U806 2.449 . S
O827 C823 1.282 . S
H828 C801 0.931 . S
H829 C803 0.929 . S
H830 C804 0.930 . S
H831 C805 0.931 . S
H832 C812 0.932 . S
H833 C813 0.930 . S
H834 C814 0.929 . S
H835 C816 0.930 . S
H836 C818 0.932 . S
H837 C819 0.929 . S
H838 C820 0.928 . S
H839 C822 0.932 . S
C840 C841 1.264 . S
C840 C845 1.479 . S
C840 C850 1.465 . S
C841 C840 1.264 . S
C841 C843 1.339 . S
C841 H868 0.931 . S
C842 C843 1.395 . S
C842 C844 1.320 . S
C843 C841 1.339 . S
C843 C842 1.395 . S
C843 H869 0.929 . S
C844 C842 1.320 . S
C844 C845 1.405 . S
C844 H870 0.930 . S
C845 C840 1.479 . S
C845 C844 1.405 . S
C845 H871 0.931 . S
U846 O847 2.454 . S
U846 O848 2.458 . S
U846 C849 2.984 . S
U846 C850 2.847 . S
U846 C863 2.882 . S
U846 O864 2.441 . S
U846 O865 2.420 . S
U846 O866 2.455 . S
U846 O867 2.449 . S
O847 U846 2.454 . S
O847 C849 1.353 . S
O848 U846 2.458 . S
O848 C849 1.286 . S
C849 U846 2.984 . S
C849 O847 1.353 . S
C849 O848 1.286 . S
C849 C851 1.363 . S
C850 C840 1.465 . S
C850 U846 2.847 . S
C850 O864 1.249 . S
C850 O865 1.202 . S
C851 C849 1.363 . S
C851 C853 1.408 . S
C851 C856 1.342 . S
C852 C853 1.310 . S
C852 C855 1.461 . S
C852 H872 0.932 . S
C853 C851 1.408 . S
C853 C852 1.310 . S
C853 H873 0.930 . S
C854 C855 1.474 . S
C854 C856 1.285 . S
C854 H874 0.929 . S
C855 C852 1.461 . S
C855 C854 1.474 . S
C856 C851 1.342 . S
C856 C854 1.285 . S
C856 H875 0.930 . S
C857 C860 1.424 . S
C857 C862 1.245 . S
C857 C863 1.428 . S
C858 C861 1.260 . S
C858 C862 1.477 . S
C858 H876 0.932 . S
C859 C860 1.384 . S
C859 C861 1.479 . S
C859 H877 0.929 . S
C860 C857 1.424 . S
C860 C859 1.384 . S
C860 H878 0.928 . S
C861 C858 1.260 . S
C861 C859 1.479 . S
C862 C857 1.245 . S
C862 C858 1.477 . S
C862 H879 0.932 . S
C863 U846 2.882 . S
C863 C857 1.428 . S
C863 O866 1.301 . S
C863 O867 1.282 . S
O864 U846 2.441 . S
O864 C850 1.249 . S
O865 U846 2.420 . S
O865 C850 1.202 . S
O866 U846 2.455 . S
O866 C863 1.301 . S
O867 U846 2.449 . S
O867 C863 1.282 . S
H868 C841 0.931 . S
H869 C843 0.929 . S
H870 C844 0.930 . S
H871 C845 0.931 . S
H872 C852 0.932 . S
H873 C853 0.930 . S
H874 C854 0.929 . S
H875 C856 0.930 . S
H876 C858 0.932 . S
H877 C859 0.929 . S
H878 C860 0.928 . S
H879 C862 0.932 . S
C880 C881 1.264 . S
C880 C885 1.479 . S
C880 C890 1.465 . S
C881 C880 1.264 . S
C881 C883 1.339 . S
C881 H908 0.931 . S
C882 C883 1.395 . S
C882 C884 1.320 . S
C883 C881 1.339 . S
C883 C882 1.395 . S
C883 H909 0.929 . S
C884 C882 1.320 . S
C884 C885 1.405 . S
C884 H910 0.930 . S
C885 C880 1.479 . S
C885 C884 1.405 . S
C885 H911 0.931 . S
U886 O887 2.454 . S
U886 O888 2.458 . S
U886 C889 2.984 . S
U886 C890 2.847 1_554 S
U886 C903 2.882 . S
U886 O904 2.441 1_554 S
U886 O905 2.420 1_554 S
U886 O906 2.455 . S
U886 O907 2.449 . S
O887 U886 2.454 . S
O887 C889 1.353 . S
O888 U886 2.458 . S
O888 C889 1.286 . S
C889 U886 2.984 . S
C889 O887 1.353 . S
C889 O888 1.286 . S
C889 C891 1.363 . S
C890 C880 1.465 . S
C890 U886 2.847 1_556 S
C890 O904 1.249 . S
C890 O905 1.202 . S
C891 C889 1.363 . S
C891 C893 1.408 . S
C891 C896 1.342 . S
C892 C893 1.310 . S
C892 C895 1.461 . S
C892 H912 0.932 . S
C893 C891 1.408 . S
C893 C892 1.310 . S
C893 H913 0.930 . S
C894 C895 1.474 . S
C894 C896 1.285 . S
C894 H914 0.929 . S
C895 C892 1.461 . S
C895 C894 1.474 . S
C896 C891 1.342 . S
C896 C894 1.285 . S
C896 H915 0.930 . S
C897 C900 1.424 . S
C897 C902 1.245 . S
C897 C903 1.428 . S
C898 C901 1.260 . S
C898 C902 1.477 . S
C898 H916 0.932 . S
C899 C900 1.384 . S
C899 C901 1.479 . S
C899 H917 0.929 . S
C900 C897 1.424 . S
C900 C899 1.384 . S
C900 H918 0.928 . S
C901 C898 1.260 . S
C901 C899 1.479 . S
C902 C897 1.245 . S
C902 C898 1.477 . S
C902 H919 0.932 . S
C903 U886 2.882 . S
C903 C897 1.428 . S
C903 O906 1.301 . S
C903 O907 1.282 . S
O904 U886 2.441 1_556 S
O904 C890 1.249 . S
O905 U886 2.420 1_556 S
O905 C890 1.202 . S
O906 U886 2.455 . S
O906 C903 1.301 . S
O907 U886 2.449 . S
O907 C903 1.282 . S
H908 C881 0.931 . S
H909 C883 0.929 . S
H910 C884 0.930 . S
H911 C885 0.931 . S
H912 C892 0.932 . S
H913 C893 0.930 . S
H914 C894 0.929 . S
H915 C896 0.930 . S
H916 C898 0.932 . S
H917 C899 0.929 . S
H918 C900 0.928 . S
H919 C902 0.932 . S
C920 C921 1.264 . S
C920 C925 1.479 . S
C920 C930 1.465 . S
C921 C920 1.264 . S
C921 C923 1.339 . S
C921 H948 0.931 . S
C922 C923 1.395 . S
C922 C924 1.320 . S
C923 C921 1.339 . S
C923 C922 1.395 . S
C923 H949 0.929 . S
C924 C922 1.320 . S
C924 C925 1.405 . S
C924 H950 0.930 . S
C925 C920 1.479 . S
C925 C924 1.405 . S
C925 H951 0.931 . S
U926 O927 2.454 1_565 S
U926 O928 2.458 1_565 S
U926 C929 2.984 1_565 S
U926 C930 2.847 . S
U926 C943 2.882 . S
U926 O944 2.441 . S
U926 O945 2.420 . S
U926 O946 2.455 . S
U926 O947 2.449 . S
O927 U926 2.454 1_545 S
O927 C929 1.353 . S
O928 U926 2.458 1_545 S
O928 C929 1.286 . S
C929 U926 2.984 1_545 S
C929 O927 1.353 . S
C929 O928 1.286 . S
C929 C931 1.363 . S
C930 C920 1.465 . S
C930 U926 2.847 . S
C930 O944 1.249 . S
C930 O945 1.202 . S
C931 C929 1.363 . S
C931 C933 1.408 . S
C931 C936 1.342 . S
C932 C933 1.310 . S
C932 C935 1.461 . S
C932 H952 0.932 . S
C933 C931 1.408 . S
C933 C932 1.310 . S
C933 H953 0.930 . S
C934 C935 1.474 . S
C934 C936 1.285 . S
C934 H954 0.929 . S
C935 C932 1.461 . S
C935 C934 1.474 . S
C936 C931 1.342 . S
C936 C934 1.285 . S
C936 H955 0.930 . S
C937 C940 1.424 . S
C937 C942 1.245 . S
C937 C943 1.428 . S
C938 C941 1.260 . S
C938 C942 1.477 . S
C938 H956 0.932 . S
C939 C940 1.384 . S
C939 C941 1.479 . S
C939 H957 0.929 . S
C940 C937 1.424 . S
C940 C939 1.384 . S
C940 H958 0.928 . S
C941 C938 1.260 . S
C941 C939 1.479 . S
C942 C937 1.245 . S
C942 C938 1.477 . S
C942 H959 0.932 . S
C943 U926 2.882 . S
C943 C937 1.428 . S
C943 O946 1.301 . S
C943 O947 1.282 . S
O944 U926 2.441 . S
O944 C930 1.249 . S
O945 U926 2.420 . S
O945 C930 1.202 . S
O946 U926 2.455 . S
O946 C943 1.301 . S
O947 U926 2.449 . S
O947 C943 1.282 . S
H948 C921 0.931 . S
H949 C923 0.929 . S
H950 C924 0.930 . S
H951 C925 0.931 . S
H952 C932 0.932 . S
H953 C933 0.930 . S
H954 C934 0.929 . S
H955 C936 0.930 . S
H956 C938 0.932 . S
H957 C939 0.929 . S
H958 C940 0.928 . S
H959 C942 0.932 . S
C960 C961 1.264 . S
C960 C965 1.479 . S
C960 C970 1.465 . S
C961 C960 1.264 . S
C961 C963 1.339 . S
C961 H988 0.931 . S
C962 C963 1.395 . S
C962 C964 1.320 . S
C963 C961 1.339 . S
C963 C962 1.395 . S
C963 H989 0.929 . S
C964 C962 1.320 . S
C964 C965 1.405 . S
C964 H990 0.930 . S
C965 C960 1.479 . S
C965 C964 1.405 . S
C965 H991 0.931 . S
U966 O967 2.454 1_565 S
U966 O968 2.458 1_565 S
U966 C969 2.984 1_565 S
U966 C970 2.847 . S
U966 C983 2.882 . S
U966 O984 2.441 . S
U966 O985 2.420 . S
U966 O986 2.455 . S
U966 O987 2.449 . S
O967 U966 2.454 1_545 S
O967 C969 1.353 . S
O968 U966 2.458 1_545 S
O968 C969 1.286 . S
C969 U966 2.984 1_545 S
C969 O967 1.353 . S
C969 O968 1.286 . S
C969 C971 1.363 . S
C970 C960 1.465 . S
C970 U966 2.847 . S
C970 O984 1.249 . S
C970 O985 1.202 . S
C971 C969 1.363 . S
C971 C973 1.408 . S
C971 C976 1.342 . S
C972 C973 1.310 . S
C972 C975 1.461 . S
C972 H992 0.932 . S
C973 C971 1.408 . S
C973 C972 1.310 . S
C973 H993 0.930 . S
C974 C975 1.474 . S
C974 C976 1.285 . S
C974 H994 0.929 . S
C975 C972 1.461 . S
C975 C974 1.474 . S
C976 C971 1.342 . S
C976 C974 1.285 . S
C976 H995 0.930 . S
C977 C980 1.424 . S
C977 C982 1.245 . S
C977 C983 1.428 . S
C978 C981 1.260 . S
C978 C982 1.477 . S
C978 H996 0.932 . S
C979 C980 1.384 . S
C979 C981 1.479 . S
C979 H997 0.929 . S
C980 C977 1.424 . S
C980 C979 1.384 . S
C980 H998 0.928 . S
C981 C978 1.260 . S
C981 C979 1.479 . S
C982 C977 1.245 . S
C982 C978 1.477 . S
C982 H999 0.932 . S
C983 U966 2.882 . S
C983 C977 1.428 . S
C983 O986 1.301 . S
C983 O987 1.282 . S
O984 U966 2.441 . S
O984 C970 1.249 . S
O985 U966 2.420 . S
O985 C970 1.202 . S
O986 U966 2.455 . S
O986 C983 1.301 . S
O987 U966 2.449 . S
O987 C983 1.282 . S
H988 C961 0.931 . S
H989 C963 0.929 . S
H990 C964 0.930 . S
H991 C965 0.931 . S
H992 C972 0.932 . S
H993 C973 0.930 . S
H994 C974 0.929 . S
H995 C976 0.930 . S
H996 C978 0.932 . S
H997 C979 0.929 . S
H998 C980 0.928 . S
H999 C982 0.932 . S
C1000 C1001 1.264 . S
C1000 C1005 1.479 . S
C1000 C1010 1.465 . S
C1001 C1000 1.264 . S
C1001 C1003 1.339 . S
C1001 H1028 0.931 . S
C1002 C1003 1.395 . S
C1002 C1004 1.320 . S
C1003 C1001 1.339 . S
C1003 C1002 1.395 . S
C1003 H1029 0.929 . S
C1004 C1002 1.320 . S
C1004 C1005 1.405 . S
C1004 H1030 0.930 . S
C1005 C1000 1.479 . S
C1005 C1004 1.405 . S
C1005 H1031 0.931 . S
U1006 O1007 2.454 . S
U1006 O1008 2.458 . S
U1006 C1009 2.984 . S
U1006 C1010 2.847 1_545 S
U1006 C1023 2.882 . S
U1006 O1024 2.441 1_545 S
U1006 O1025 2.420 1_545 S
U1006 O1026 2.455 . S
U1006 O1027 2.449 . S
O1007 U1006 2.454 . S
O1007 C1009 1.353 . S
O1008 U1006 2.458 . S
O1008 C1009 1.286 . S
C1009 U1006 2.984 . S
C1009 O1007 1.353 . S
C1009 O1008 1.286 . S
C1009 C1011 1.363 . S
C1010 C1000 1.465 . S
C1010 U1006 2.847 1_565 S
C1010 O1024 1.249 . S
C1010 O1025 1.202 . S
C1011 C1009 1.363 . S
C1011 C1013 1.408 . S
C1011 C1016 1.342 . S
C1012 C1013 1.310 . S
C1012 C1015 1.461 . S
C1012 H1032 0.932 . S
C1013 C1011 1.408 . S
C1013 C1012 1.310 . S
C1013 H1033 0.930 . S
C1014 C1015 1.474 . S
C1014 C1016 1.285 . S
C1014 H1034 0.929 . S
C1015 C1012 1.461 . S
C1015 C1014 1.474 . S
C1016 C1011 1.342 . S
C1016 C1014 1.285 . S
C1016 H1035 0.930 . S
C1017 C1020 1.424 . S
C1017 C1022 1.245 . S
C1017 C1023 1.428 . S
C1018 C1021 1.260 . S
C1018 C1022 1.477 . S
C1018 H1036 0.932 . S
C1019 C1020 1.384 . S
C1019 C1021 1.479 . S
C1019 H1037 0.929 . S
C1020 C1017 1.424 . S
C1020 C1019 1.384 . S
C1020 H1038 0.928 . S
C1021 C1018 1.260 . S
C1021 C1019 1.479 . S
C1022 C1017 1.245 . S
C1022 C1018 1.477 . S
C1022 H1039 0.932 . S
C1023 U1006 2.882 . S
C1023 C1017 1.428 . S
C1023 O1026 1.301 . S
C1023 O1027 1.282 . S
O1024 U1006 2.441 1_565 S
O1024 C1010 1.249 . S
O1025 U1006 2.420 1_565 S
O1025 C1010 1.202 . S
O1026 U1006 2.455 . S
O1026 C1023 1.301 . S
O1027 U1006 2.449 . S
O1027 C1023 1.282 . S
H1028 C1001 0.931 . S
H1029 C1003 0.929 . S
H1030 C1004 0.930 . S
H1031 C1005 0.931 . S
H1032 C1012 0.932 . S
H1033 C1013 0.930 . S
H1034 C1014 0.929 . S
H1035 C1016 0.930 . S
H1036 C1018 0.932 . S
H1037 C1019 0.929 . S
H1038 C1020 0.928 . S
H1039 C1022 0.932 . S
C1040 C1041 1.264 . S
C1040 C1045 1.479 . S
C1040 C1050 1.465 . S
C1041 C1040 1.264 . S
C1041 C1043 1.339 . S
C1041 H1068 0.931 . S
C1042 C1043 1.395 . S
C1042 C1044 1.320 . S
C1043 C1041 1.339 . S
C1043 C1042 1.395 . S
C1043 H1069 0.929 . S
C1044 C1042 1.320 . S
C1044 C1045 1.405 . S
C1044 H1070 0.930 . S
C1045 C1040 1.479 . S
C1045 C1044 1.405 . S
C1045 H1071 0.931 . S
U1046 O1047 2.454 . S
U1046 O1048 2.458 . S
U1046 C1049 2.984 . S
U1046 C1050 2.847 1_545 S
U1046 C1063 2.882 . S
U1046 O1064 2.441 1_545 S
U1046 O1065 2.420 1_545 S
U1046 O1066 2.455 . S
U1046 O1067 2.449 . S
O1047 U1046 2.454 . S
O1047 C1049 1.353 . S
O1048 U1046 2.458 . S
O1048 C1049 1.286 . S
C1049 U1046 2.984 . S
C1049 O1047 1.353 . S
C1049 O1048 1.286 . S
C1049 C1051 1.363 . S
C1050 C1040 1.465 . S
C1050 U1046 2.847 1_565 S
C1050 O1064 1.249 . S
C1050 O1065 1.202 . S
C1051 C1049 1.363 . S
C1051 C1053 1.408 . S
C1051 C1056 1.342 . S
C1052 C1053 1.310 . S
C1052 C1055 1.461 . S
C1052 H1072 0.932 . S
C1053 C1051 1.408 . S
C1053 C1052 1.310 . S
C1053 H1073 0.930 . S
C1054 C1055 1.474 . S
C1054 C1056 1.285 . S
C1054 H1074 0.929 . S
C1055 C1052 1.461 . S
C1055 C1054 1.474 . S
C1056 C1051 1.342 . S
C1056 C1054 1.285 . S
C1056 H1075 0.930 . S
C1057 C1060 1.424 . S
C1057 C1062 1.245 . S
C1057 C1063 1.428 . S
C1058 C1061 1.260 . S
C1058 C1062 1.477 . S
C1058 H1076 0.932 . S
C1059 C1060 1.384 . S
C1059 C1061 1.479 . S
C1059 H1077 0.929 . S
C1060 C1057 1.424 . S
C1060 C1059 1.384 . S
C1060 H1078 0.928 . S
C1061 C1058 1.260 . S
C1061 C1059 1.479 . S
C1062 C1057 1.245 . S
C1062 C1058 1.477 . S
C1062 H1079 0.932 . S
C1063 U1046 2.882 . S
C1063 C1057 1.428 . S
C1063 O1066 1.301 . S
C1063 O1067 1.282 . S
O1064 U1046 2.441 1_565 S
O1064 C1050 1.249 . S
O1065 U1046 2.420 1_565 S
O1065 C1050 1.202 . S
O1066 U1046 2.455 . S
O1066 C1063 1.301 . S
O1067 U1046 2.449 . S
O1067 C1063 1.282 . S
H1068 C1041 0.931 . S
H1069 C1043 0.929 . S
H1070 C1044 0.930 . S
H1071 C1045 0.931 . S
H1072 C1052 0.932 . S
H1073 C1053 0.930 . S
H1074 C1054 0.929 . S
H1075 C1056 0.930 . S
H1076 C1058 0.932 . S
H1077 C1059 0.929 . S
H1078 C1060 0.928 . S
H1079 C1062 0.932 . S
C1080 C1081 1.264 . S
C1080 C1085 1.479 . S
C1080 C1090 1.465 . S
C1081 C1080 1.264 . S
C1081 C1083 1.339 . S
C1081 H1108 0.931 . S
C1082 C1083 1.395 . S
C1082 C1084 1.320 . S
C1083 C1081 1.339 . S
C1083 C1082 1.395 . S
C1083 H1109 0.929 . S
C1084 C1082 1.320 . S
C1084 C1085 1.405 . S
C1084 H1110 0.930 . S
C1085 C1080 1.479 . S
C1085 C1084 1.405 . S
C1085 H1111 0.931 . S
U1086 O1087 2.454 1_556 S
U1086 O1088 2.458 1_556 S
U1086 C1089 2.984 1_556 S
U1086 C1090 2.847 . S
U1086 C1103 2.882 . S
U1086 O1104 2.441 . S
U1086 O1105 2.420 . S
U1086 O1106 2.455 . S
U1086 O1107 2.449 . S
O1087 U1086 2.454 1_554 S
O1087 C1089 1.353 . S
O1088 U1086 2.458 1_554 S
O1088 C1089 1.286 . S
C1089 U1086 2.984 1_554 S
C1089 O1087 1.353 . S
C1089 O1088 1.286 . S
C1089 C1091 1.363 . S
C1090 C1080 1.465 . S
C1090 U1086 2.847 . S
C1090 O1104 1.249 . S
C1090 O1105 1.202 . S
C1091 C1089 1.363 . S
C1091 C1093 1.408 . S
C1091 C1096 1.342 . S
C1092 C1093 1.310 . S
C1092 C1095 1.461 . S
C1092 H1112 0.932 . S
C1093 C1091 1.408 . S
C1093 C1092 1.310 . S
C1093 H1113 0.930 . S
C1094 C1095 1.474 . S
C1094 C1096 1.285 . S
C1094 H1114 0.929 . S
C1095 C1092 1.461 . S
C1095 C1094 1.474 . S
C1096 C1091 1.342 . S
C1096 C1094 1.285 . S
C1096 H1115 0.930 . S
C1097 C1100 1.424 . S
C1097 C1102 1.245 . S
C1097 C1103 1.428 . S
C1098 C1101 1.260 . S
C1098 C1102 1.477 . S
C1098 H1116 0.932 . S
C1099 C1100 1.384 . S
C1099 C1101 1.479 . S
C1099 H1117 0.929 . S
C1100 C1097 1.424 . S
C1100 C1099 1.384 . S
C1100 H1118 0.928 . S
C1101 C1098 1.260 . S
C1101 C1099 1.479 . S
C1102 C1097 1.245 . S
C1102 C1098 1.477 . S
C1102 H1119 0.932 . S
C1103 U1086 2.882 . S
C1103 C1097 1.428 . S
C1103 O1106 1.301 . S
C1103 O1107 1.282 . S
O1104 U1086 2.441 . S
O1104 C1090 1.249 . S
O1105 U1086 2.420 . S
O1105 C1090 1.202 . S
O1106 U1086 2.455 . S
O1106 C1103 1.301 . S
O1107 U1086 2.449 . S
O1107 C1103 1.282 . S
H1108 C1081 0.931 . S
H1109 C1083 0.929 . S
H1110 C1084 0.930 . S
H1111 C1085 0.931 . S
H1112 C1092 0.932 . S
H1113 C1093 0.930 . S
H1114 C1094 0.929 . S
H1115 C1096 0.930 . S
H1116 C1098 0.932 . S
H1117 C1099 0.929 . S
H1118 C1100 0.928 . S
H1119 C1102 0.932 . S
C1120 C1121 1.264 . S
C1120 C1125 1.479 . S
C1120 C1130 1.465 . S
C1121 C1120 1.264 . S
C1121 C1123 1.339 . S
C1121 H1148 0.931 . S
C1122 C1123 1.395 . S
C1122 C1124 1.320 . S
C1123 C1121 1.339 . S
C1123 C1122 1.395 . S
C1123 H1149 0.929 . S
C1124 C1122 1.320 . S
C1124 C1125 1.405 . S
C1124 H1150 0.930 . S
C1125 C1120 1.479 . S
C1125 C1124 1.405 . S
C1125 H1151 0.931 . S
U1126 O1127 2.454 . S
U1126 O1128 2.458 . S
U1126 C1129 2.984 . S
U1126 C1130 2.847 1_455 S
U1126 C1143 2.882 . S
U1126 O1144 2.441 1_455 S
U1126 O1145 2.420 1_455 S
U1126 O1146 2.455 . S
U1126 O1147 2.449 . S
O1127 U1126 2.454 . S
O1127 C1129 1.353 . S
O1128 U1126 2.458 . S
O1128 C1129 1.286 . S
C1129 U1126 2.984 . S
C1129 O1127 1.353 . S
C1129 O1128 1.286 . S
C1129 C1131 1.363 . S
C1130 C1120 1.465 . S
C1130 U1126 2.847 1_655 S
C1130 O1144 1.249 . S
C1130 O1145 1.202 . S
C1131 C1129 1.363 . S
C1131 C1133 1.408 . S
C1131 C1136 1.342 . S
C1132 C1133 1.310 . S
C1132 C1135 1.461 . S
C1132 H1152 0.932 . S
C1133 C1131 1.408 . S
C1133 C1132 1.310 . S
C1133 H1153 0.930 . S
C1134 C1135 1.474 . S
C1134 C1136 1.285 . S
C1134 H1154 0.929 . S
C1135 C1132 1.461 . S
C1135 C1134 1.474 . S
C1136 C1131 1.342 . S
C1136 C1134 1.285 . S
C1136 H1155 0.930 . S
C1137 C1140 1.424 . S
C1137 C1142 1.245 . S
C1137 C1143 1.428 . S
C1138 C1141 1.260 . S
C1138 C1142 1.477 . S
C1138 H1156 0.932 . S
C1139 C1140 1.384 . S
C1139 C1141 1.479 . S
C1139 H1157 0.929 . S
C1140 C1137 1.424 . S
C1140 C1139 1.384 . S
C1140 H1158 0.928 . S
C1141 C1138 1.260 . S
C1141 C1139 1.479 . S
C1142 C1137 1.245 . S
C1142 C1138 1.477 . S
C1142 H1159 0.932 . S
C1143 U1126 2.882 . S
C1143 C1137 1.428 . S
C1143 O1146 1.301 . S
C1143 O1147 1.282 . S
O1144 U1126 2.441 1_655 S
O1144 C1130 1.249 . S
O1145 U1126 2.420 1_655 S
O1145 C1130 1.202 . S
O1146 U1126 2.455 . S
O1146 C1143 1.301 . S
O1147 U1126 2.449 . S
O1147 C1143 1.282 . S
H1148 C1121 0.931 . S
H1149 C1123 0.929 . S
H1150 C1124 0.930 . S
H1151 C1125 0.931 . S
H1152 C1132 0.932 . S
H1153 C1133 0.930 . S
H1154 C1134 0.929 . S
H1155 C1136 0.930 . S
H1156 C1138 0.932 . S
H1157 C1139 0.929 . S
H1158 C1140 0.928 . S
H1159 C1142 0.932 . S
C1160 C1161 1.264 . S
C1160 C1165 1.479 . S
C1160 C1170 1.465 . S
C1161 C1160 1.264 . S
C1161 C1163 1.339 . S
C1161 H1188 0.931 . S
C1162 C1163 1.395 . S
C1162 C1164 1.320 . S
C1163 C1161 1.339 . S
C1163 C1162 1.395 . S
C1163 H1189 0.929 . S
C1164 C1162 1.320 . S
C1164 C1165 1.405 . S
C1164 H1190 0.930 . S
C1165 C1160 1.479 . S
C1165 C1164 1.405 . S
C1165 H1191 0.931 . S
U1166 O1167 2.454 . S
U1166 O1168 2.458 . S
U1166 C1169 2.984 . S
U1166 C1170 2.847 . S
U1166 C1183 2.882 . S
U1166 O1184 2.441 . S
U1166 O1185 2.420 . S
U1166 O1186 2.455 . S
U1166 O1187 2.449 . S
O1167 U1166 2.454 . S
O1167 C1169 1.353 . S
O1168 U1166 2.458 . S
O1168 C1169 1.286 . S
C1169 U1166 2.984 . S
C1169 O1167 1.353 . S
C1169 O1168 1.286 . S
C1169 C1171 1.363 . S
C1170 C1160 1.465 . S
C1170 U1166 2.847 . S
C1170 O1184 1.249 . S
C1170 O1185 1.202 . S
C1171 C1169 1.363 . S
C1171 C1173 1.408 . S
C1171 C1176 1.342 . S
C1172 C1173 1.310 . S
C1172 C1175 1.461 . S
C1172 H1192 0.932 . S
C1173 C1171 1.408 . S
C1173 C1172 1.310 . S
C1173 H1193 0.930 . S
C1174 C1175 1.474 . S
C1174 C1176 1.285 . S
C1174 H1194 0.929 . S
C1175 C1172 1.461 . S
C1175 C1174 1.474 . S
C1176 C1171 1.342 . S
C1176 C1174 1.285 . S
C1176 H1195 0.930 . S
C1177 C1180 1.424 . S
C1177 C1182 1.245 . S
C1177 C1183 1.428 . S
C1178 C1181 1.260 . S
C1178 C1182 1.477 . S
C1178 H1196 0.932 . S
C1179 C1180 1.384 . S
C1179 C1181 1.479 . S
C1179 H1197 0.929 . S
C1180 C1177 1.424 . S
C1180 C1179 1.384 . S
C1180 H1198 0.928 . S
C1181 C1178 1.260 . S
C1181 C1179 1.479 . S
C1182 C1177 1.245 . S
C1182 C1178 1.477 . S
C1182 H1199 0.932 . S
C1183 U1166 2.882 . S
C1183 C1177 1.428 . S
C1183 O1186 1.301 . S
C1183 O1187 1.282 . S
O1184 U1166 2.441 . S
O1184 C1170 1.249 . S
O1185 U1166 2.420 . S
O1185 C1170 1.202 . S
O1186 U1166 2.455 . S
O1186 C1183 1.301 . S
O1187 U1166 2.449 . S
O1187 C1183 1.282 . S
H1188 C1161 0.931 . S
H1189 C1163 0.929 . S
H1190 C1164 0.930 . S
H1191 C1165 0.931 . S
H1192 C1172 0.932 . S
H1193 C1173 0.930 . S
H1194 C1174 0.929 . S
H1195 C1176 0.930 . S
H1196 C1178 0.932 . S
H1197 C1179 0.929 . S
H1198 C1180 0.928 . S
H1199 C1182 0.932 . S
C1200 C1201 1.264 . S
C1200 C1205 1.479 . S
C1200 C1210 1.465 . S
C1201 C1200 1.264 . S
C1201 C1203 1.339 . S
C1201 H1228 0.931 . S
C1202 C1203 1.395 . S
C1202 C1204 1.320 . S
C1203 C1201 1.339 . S
C1203 C1202 1.395 . S
C1203 H1229 0.929 . S
C1204 C1202 1.320 . S
C1204 C1205 1.405 . S
C1204 H1230 0.930 . S
C1205 C1200 1.479 . S
C1205 C1204 1.405 . S
C1205 H1231 0.931 . S
U1206 O1207 2.454 . S
U1206 O1208 2.458 . S
U1206 C1209 2.984 . S
U1206 C1210 2.847 . S
U1206 C1223 2.882 . S
U1206 O1224 2.441 . S
U1206 O1225 2.420 . S
U1206 O1226 2.455 . S
U1206 O1227 2.449 . S
O1207 U1206 2.454 . S
O1207 C1209 1.353 . S
O1208 U1206 2.458 . S
O1208 C1209 1.286 . S
C1209 U1206 2.984 . S
C1209 O1207 1.353 . S
C1209 O1208 1.286 . S
C1209 C1211 1.363 . S
C1210 C1200 1.465 . S
C1210 U1206 2.847 . S
C1210 O1224 1.249 . S
C1210 O1225 1.202 . S
C1211 C1209 1.363 . S
C1211 C1213 1.408 . S
C1211 C1216 1.342 . S
C1212 C1213 1.310 . S
C1212 C1215 1.461 . S
C1212 H1232 0.932 . S
C1213 C1211 1.408 . S
C1213 C1212 1.310 . S
C1213 H1233 0.930 . S
C1214 C1215 1.474 . S
C1214 C1216 1.285 . S
C1214 H1234 0.929 . S
C1215 C1212 1.461 . S
C1215 C1214 1.474 . S
C1216 C1211 1.342 . S
C1216 C1214 1.285 . S
C1216 H1235 0.930 . S
C1217 C1220 1.424 . S
C1217 C1222 1.245 . S
C1217 C1223 1.428 . S
C1218 C1221 1.260 . S
C1218 C1222 1.477 . S
C1218 H1236 0.932 . S
C1219 C1220 1.384 . S
C1219 C1221 1.479 . S
C1219 H1237 0.929 . S
C1220 C1217 1.424 . S
C1220 C1219 1.384 . S
C1220 H1238 0.928 . S
C1221 C1218 1.260 . S
C1221 C1219 1.479 . S
C1222 C1217 1.245 . S
C1222 C1218 1.477 . S
C1222 H1239 0.932 . S
C1223 U1206 2.882 . S
C1223 C1217 1.428 . S
C1223 O1226 1.301 . S
C1223 O1227 1.282 . S
O1224 U1206 2.441 . S
O1224 C1210 1.249 . S
O1225 U1206 2.420 . S
O1225 C1210 1.202 . S
O1226 U1206 2.455 . S
O1226 C1223 1.301 . S
O1227 U1206 2.449 . S
O1227 C1223 1.282 . S
H1228 C1201 0.931 . S
H1229 C1203 0.929 . S
H1230 C1204 0.930 . S
H1231 C1205 0.931 . S
H1232 C1212 0.932 . S
H1233 C1213 0.930 . S
H1234 C1214 0.929 . S
H1235 C1216 0.930 . S
H1236 C1218 0.932 . S
H1237 C1219 0.929 . S
H1238 C1220 0.928 . S
H1239 C1222 0.932 . S
C1240 C1241 1.264 . S
C1240 C1245 1.479 . S
C1240 C1250 1.465 . S
C1241 C1240 1.264 . S
C1241 C1243 1.339 . S
C1241 H1268 0.931 . S
C1242 C1243 1.395 . S
C1242 C1244 1.320 . S
C1243 C1241 1.339 . S
C1243 C1242 1.395 . S
C1243 H1269 0.929 . S
C1244 C1242 1.320 . S
C1244 C1245 1.405 . S
C1244 H1270 0.930 . S
C1245 C1240 1.479 . S
C1245 C1244 1.405 . S
C1245 H1271 0.931 . S
U1246 O1247 2.454 . S
U1246 O1248 2.458 . S
U1246 C1249 2.984 . S
U1246 C1250 2.847 . S
U1246 C1263 2.882 . S
U1246 O1264 2.441 . S
U1246 O1265 2.420 . S
U1246 O1266 2.455 . S
U1246 O1267 2.449 . S
O1247 U1246 2.454 . S
O1247 C1249 1.353 . S
O1248 U1246 2.458 . S
O1248 C1249 1.286 . S
C1249 U1246 2.984 . S
C1249 O1247 1.353 . S
C1249 O1248 1.286 . S
C1249 C1251 1.363 1_655 S
C1250 C1240 1.465 . S
C1250 U1246 2.847 . S
C1250 O1264 1.249 . S
C1250 O1265 1.202 . S
C1251 C1249 1.363 1_455 S
C1251 C1253 1.408 . S
C1251 C1256 1.342 . S
C1252 C1253 1.310 . S
C1252 C1255 1.461 . S
C1252 H1272 0.932 . S
C1253 C1251 1.408 . S
C1253 C1252 1.310 . S
C1253 H1273 0.930 . S
C1254 C1255 1.474 . S
C1254 C1256 1.285 . S
C1254 H1274 0.929 . S
C1255 C1252 1.461 . S
C1255 C1254 1.474 . S
C1256 C1251 1.342 . S
C1256 C1254 1.285 . S
C1256 H1275 0.930 1_455 S
C1257 C1260 1.424 . S
C1257 C1262 1.245 . S
C1257 C1263 1.428 . S
C1258 C1261 1.260 . S
C1258 C1262 1.477 . S
C1258 H1276 0.932 . S
C1259 C1260 1.384 . S
C1259 C1261 1.479 . S
C1259 H1277 0.929 . S
C1260 C1257 1.424 . S
C1260 C1259 1.384 . S
C1260 H1278 0.928 . S
C1261 C1258 1.260 . S
C1261 C1259 1.479 . S
C1262 C1257 1.245 . S
C1262 C1258 1.477 . S
C1262 H1279 0.932 . S
C1263 U1246 2.882 . S
C1263 C1257 1.428 . S
C1263 O1266 1.301 . S
C1263 O1267 1.282 . S
O1264 U1246 2.441 . S
O1264 C1250 1.249 . S
O1265 U1246 2.420 . S
O1265 C1250 1.202 . S
O1266 U1246 2.455 . S
O1266 C1263 1.301 . S
O1267 U1246 2.449 . S
O1267 C1263 1.282 . S
H1268 C1241 0.931 . S
H1269 C1243 0.929 . S
H1270 C1244 0.930 . S
H1271 C1245 0.931 . S
H1272 C1252 0.932 . S
H1273 C1253 0.930 . S
H1274 C1254 0.929 . S
H1275 C1256 0.930 1_655 S
H1276 C1258 0.932 . S
H1277 C1259 0.929 . S
H1278 C1260 0.928 . S
H1279 C1262 0.932 . S
C1280 C1281 1.264 . S
C1280 C1285 1.479 . S
C1280 C1290 1.465 . S
C1281 C1280 1.264 . S
C1281 C1283 1.339 . S
C1281 H1308 0.931 . S
C1282 C1283 1.395 . S
C1282 C1284 1.320 . S
C1283 C1281 1.339 . S
C1283 C1282 1.395 . S
C1283 H1309 0.929 . S
C1284 C1282 1.320 . S
C1284 C1285 1.405 . S
C1284 H1310 0.930 . S
C1285 C1280 1.479 . S
C1285 C1284 1.405 . S
C1285 H1311 0.931 . S
U1286 O1287 2.454 . S
U1286 O1288 2.458 . S
U1286 C1289 2.984 . S
U1286 C1290 2.847 . S
U1286 C1303 2.882 . S
U1286 O1304 2.441 . S
U1286 O1305 2.420 . S
U1286 O1306 2.455 . S
U1286 O1307 2.449 . S
O1287 U1286 2.454 . S
O1287 C1289 1.353 . S
O1288 U1286 2.458 . S
O1288 C1289 1.286 . S
C1289 U1286 2.984 . S
C1289 O1287 1.353 . S
C1289 O1288 1.286 . S
C1289 C1291 1.363 . S
C1290 C1280 1.465 . S
C1290 U1286 2.847 . S
C1290 O1304 1.249 . S
C1290 O1305 1.202 . S
C1291 C1289 1.363 . S
C1291 C1293 1.408 . S
C1291 C1296 1.342 . S
C1292 C1293 1.310 . S
C1292 C1295 1.461 . S
C1292 H1312 0.932 . S
C1293 C1291 1.408 . S
C1293 C1292 1.310 . S
C1293 H1313 0.930 . S
C1294 C1295 1.474 . S
C1294 C1296 1.285 . S
C1294 H1314 0.929 . S
C1295 C1292 1.461 . S
C1295 C1294 1.474 . S
C1296 C1291 1.342 . S
C1296 C1294 1.285 . S
C1296 H1315 0.930 . S
C1297 C1300 1.424 . S
C1297 C1302 1.245 . S
C1297 C1303 1.428 . S
C1298 C1301 1.260 . S
C1298 C1302 1.477 . S
C1298 H1316 0.932 . S
C1299 C1300 1.384 . S
C1299 C1301 1.479 . S
C1299 H1317 0.929 . S
C1300 C1297 1.424 . S
C1300 C1299 1.384 . S
C1300 H1318 0.928 . S
C1301 C1298 1.260 . S
C1301 C1299 1.479 . S
C1302 C1297 1.245 . S
C1302 C1298 1.477 . S
C1302 H1319 0.932 . S
C1303 U1286 2.882 . S
C1303 C1297 1.428 . S
C1303 O1306 1.301 . S
C1303 O1307 1.282 . S
O1304 U1286 2.441 . S
O1304 C1290 1.249 . S
O1305 U1286 2.420 . S
O1305 C1290 1.202 . S
O1306 U1286 2.455 . S
O1306 C1303 1.301 . S
O1307 U1286 2.449 . S
O1307 C1303 1.282 . S
H1308 C1281 0.931 . S
H1309 C1283 0.929 . S
H1310 C1284 0.930 . S
H1311 C1285 0.931 . S
H1312 C1292 0.932 . S
H1313 C1293 0.930 . S
H1314 C1294 0.929 . S
H1315 C1296 0.930 . S
H1316 C1298 0.932 . S
H1317 C1299 0.929 . S
H1318 C1300 0.928 . S
H1319 C1302 0.932 . S
C1320 C1321 1.264 . S
C1320 C1325 1.479 . S
C1320 C1330 1.465 . S
C1321 C1320 1.264 . S
C1321 C1323 1.339 . S
C1321 H1348 0.931 . S
C1322 C1323 1.395 . S
C1322 C1324 1.320 . S
C1323 C1321 1.339 . S
C1323 C1322 1.395 . S
C1323 H1349 0.929 . S
C1324 C1322 1.320 . S
C1324 C1325 1.405 . S
C1324 H1350 0.930 . S
C1325 C1320 1.479 . S
C1325 C1324 1.405 . S
C1325 H1351 0.931 . S
U1326 O1327 2.454 . S
U1326 O1328 2.458 . S
U1326 C1329 2.984 . S
U1326 C1330 2.847 . S
U1326 C1343 2.882 . S
U1326 O1344 2.441 . S
U1326 O1345 2.420 . S
U1326 O1346 2.455 . S
U1326 O1347 2.449 . S
O1327 U1326 2.454 . S
O1327 C1329 1.353 . S
O1328 U1326 2.458 . S
O1328 C1329 1.286 . S
C1329 U1326 2.984 . S
C1329 O1327 1.353 . S
C1329 O1328 1.286 . S
C1329 C1331 1.363 . S
C1330 C1320 1.465 . S
C1330 U1326 2.847 . S
C1330 O1344 1.249 . S
C1330 O1345 1.202 . S
C1331 C1329 1.363 . S
C1331 C1333 1.408 1_556 S
C1331 C1336 1.342 . S
C1332 C1333 1.310 . S
C1332 C1335 1.461 . S
C1332 H1352 0.932 . S
C1333 C1331 1.408 1_554 S
C1333 C1332 1.310 . S
C1333 H1353 0.930 . S
C1334 C1335 1.474 . S
C1334 C1336 1.285 1_554 S
C1334 H1354 0.929 . S
C1335 C1332 1.461 . S
C1335 C1334 1.474 . S
C1336 C1331 1.342 . S
C1336 C1334 1.285 1_556 S
C1336 H1355 0.930 . S
C1337 C1340 1.424 . S
C1337 C1342 1.245 . S
C1337 C1343 1.428 . S
C1338 C1341 1.260 . S
C1338 C1342 1.477 . S
C1338 H1356 0.932 . S
C1339 C1340 1.384 . S
C1339 C1341 1.479 . S
C1339 H1357 0.929 . S
C1340 C1337 1.424 . S
C1340 C1339 1.384 . S
C1340 H1358 0.928 . S
C1341 C1338 1.260 . S
C1341 C1339 1.479 . S
C1342 C1337 1.245 . S
C1342 C1338 1.477 . S
C1342 H1359 0.932 . S
C1343 U1326 2.882 . S
C1343 C1337 1.428 . S
C1343 O1346 1.301 . S
C1343 O1347 1.282 . S
O1344 U1326 2.441 . S
O1344 C1330 1.249 . S
O1345 U1326 2.420 . S
O1345 C1330 1.202 . S
O1346 U1326 2.455 . S
O1346 C1343 1.301 . S
O1347 U1326 2.449 . S
O1347 C1343 1.282 . S
H1348 C1321 0.931 . S
H1349 C1323 0.929 . S
H1350 C1324 0.930 . S
H1351 C1325 0.931 . S
H1352 C1332 0.932 . S
H1353 C1333 0.930 . S
H1354 C1334 0.929 . S
H1355 C1336 0.930 . S
H1356 C1338 0.932 . S
H1357 C1339 0.929 . S
H1358 C1340 0.928 . S
H1359 C1342 0.932 . S
C1360 C1361 1.264 . S
C1360 C1365 1.479 . S
C1360 C1370 1.465 . S
C1361 C1360 1.264 . S
C1361 C1363 1.339 . S
C1361 H1388 0.931 . S
C1362 C1363 1.395 . S
C1362 C1364 1.320 . S
C1363 C1361 1.339 . S
C1363 C1362 1.395 . S
C1363 H1389 0.929 . S
C1364 C1362 1.320 . S
C1364 C1365 1.405 . S
C1364 H1390 0.930 . S
C1365 C1360 1.479 . S
C1365 C1364 1.405 . S
C1365 H1391 0.931 . S
U1366 O1367 2.454 . S
U1366 O1368 2.458 . S
U1366 C1369 2.984 . S
U1366 C1370 2.847 . S
U1366 C1383 2.882 . S
U1366 O1384 2.441 . S
U1366 O1385 2.420 . S
U1366 O1386 2.455 . S
U1366 O1387 2.449 . S
O1367 U1366 2.454 . S
O1367 C1369 1.353 . S
O1368 U1366 2.458 . S
O1368 C1369 1.286 . S
C1369 U1366 2.984 . S
C1369 O1367 1.353 . S
C1369 O1368 1.286 . S
C1369 C1371 1.363 . S
C1370 C1360 1.465 . S
C1370 U1366 2.847 . S
C1370 O1384 1.249 . S
C1370 O1385 1.202 . S
C1371 C1369 1.363 . S
C1371 C1373 1.408 . S
C1371 C1376 1.342 . S
C1372 C1373 1.310 . S
C1372 C1375 1.461 . S
C1372 H1392 0.932 . S
C1373 C1371 1.408 . S
C1373 C1372 1.310 . S
C1373 H1393 0.930 . S
C1374 C1375 1.474 . S
C1374 C1376 1.285 . S
C1374 H1394 0.929 . S
C1375 C1372 1.461 . S
C1375 C1374 1.474 . S
C1376 C1371 1.342 . S
C1376 C1374 1.285 . S
C1376 H1395 0.930 . S
C1377 C1380 1.424 . S
C1377 C1382 1.245 . S
C1377 C1383 1.428 . S
C1378 C1381 1.260 . S
C1378 C1382 1.477 . S
C1378 H1396 0.932 . S
C1379 C1380 1.384 . S
C1379 C1381 1.479 . S
C1379 H1397 0.929 . S
C1380 C1377 1.424 . S
C1380 C1379 1.384 . S
C1380 H1398 0.928 . S
C1381 C1378 1.260 . S
C1381 C1379 1.479 . S
C1382 C1377 1.245 . S
C1382 C1378 1.477 . S
C1382 H1399 0.932 . S
C1383 U1366 2.882 . S
C1383 C1377 1.428 . S
C1383 O1386 1.301 . S
C1383 O1387 1.282 . S
O1384 U1366 2.441 . S
O1384 C1370 1.249 . S
O1385 U1366 2.420 . S
O1385 C1370 1.202 . S
O1386 U1366 2.455 . S
O1386 C1383 1.301 . S
O1387 U1366 2.449 . S
O1387 C1383 1.282 . S
H1388 C1361 0.931 . S
H1389 C1363 0.929 . S
H1390 C1364 0.930 . S
H1391 C1365 0.931 . S
H1392 C1372 0.932 . S
H1393 C1373 0.930 . S
H1394 C1374 0.929 . S
H1395 C1376 0.930 . S
H1396 C1378 0.932 . S
H1397 C1379 0.929 . S
H1398 C1380 0.928 . S
H1399 C1382 0.932 . S
C1400 C1401 1.264 . S
C1400 C1405 1.479 . S
C1400 C1410 1.465 . S
C1401 C1400 1.264 . S
C1401 C1403 1.339 . S
C1401 H1428 0.931 . S
C1402 C1403 1.395 . S
C1402 C1404 1.320 . S
C1403 C1401 1.339 . S
C1403 C1402 1.395 . S
C1403 H1429 0.929 . S
C1404 C1402 1.320 . S
C1404 C1405 1.405 . S
C1404 H1430 0.930 . S
C1405 C1400 1.479 . S
C1405 C1404 1.405 . S
C1405 H1431 0.931 . S
U1406 O1407 2.454 . S
U1406 O1408 2.458 . S
U1406 C1409 2.984 . S
U1406 C1410 2.847 . S
U1406 C1423 2.882 . S
U1406 O1424 2.441 . S
U1406 O1425 2.420 . S
U1406 O1426 2.455 . S
U1406 O1427 2.449 . S
O1407 U1406 2.454 . S
O1407 C1409 1.353 . S
O1408 U1406 2.458 . S
O1408 C1409 1.286 . S
C1409 U1406 2.984 . S
C1409 O1407 1.353 . S
C1409 O1408 1.286 . S
C1409 C1411 1.363 . S
C1410 C1400 1.465 . S
C1410 U1406 2.847 . S
C1410 O1424 1.249 . S
C1410 O1425 1.202 . S
C1411 C1409 1.363 . S
C1411 C1413 1.408 . S
C1411 C1416 1.342 . S
C1412 C1413 1.310 . S
C1412 C1415 1.461 . S
C1412 H1432 0.932 . S
C1413 C1411 1.408 . S
C1413 C1412 1.310 . S
C1413 H1433 0.930 . S
C1414 C1415 1.474 . S
C1414 C1416 1.285 . S
C1414 H1434 0.929 . S
C1415 C1412 1.461 . S
C1415 C1414 1.474 . S
C1416 C1411 1.342 . S
C1416 C1414 1.285 . S
C1416 H1435 0.930 . S
C1417 C1420 1.424 . S
C1417 C1422 1.245 . S
C1417 C1423 1.428 . S
C1418 C1421 1.260 . S
C1418 C1422 1.477 . S
C1418 H1436 0.932 . S
C1419 C1420 1.384 . S
C1419 C1421 1.479 . S
C1419 H1437 0.929 . S
C1420 C1417 1.424 . S
C1420 C1419 1.384 . S
C1420 H1438 0.928 . S
C1421 C1418 1.260 . S
C1421 C1419 1.479 . S
C1422 C1417 1.245 . S
C1422 C1418 1.477 . S
C1422 H1439 0.932 . S
C1423 U1406 2.882 . S
C1423 C1417 1.428 . S
C1423 O1426 1.301 . S
C1423 O1427 1.282 . S
O1424 U1406 2.441 . S
O1424 C1410 1.249 . S
O1425 U1406 2.420 . S
O1425 C1410 1.202 . S
O1426 U1406 2.455 . S
O1426 C1423 1.301 . S
O1427 U1406 2.449 . S
O1427 C1423 1.282 . S
H1428 C1401 0.931 . S
H1429 C1403 0.929 . S
H1430 C1404 0.930 . S
H1431 C1405 0.931 . S
H1432 C1412 0.932 . S
H1433 C1413 0.930 . S
H1434 C1414 0.929 . S
H1435 C1416 0.930 . S
H1436 C1418 0.932 . S
H1437 C1419 0.929 . S
H1438 C1420 0.928 . S
H1439 C1422 0.932 . S
C1440 C1441 1.264 . S
C1440 C1445 1.479 . S
C1440 C1450 1.465 . S
C1441 C1440 1.264 . S
C1441 C1443 1.339 . S
C1441 H1468 0.931 . S
C1442 C1443 1.395 . S
C1442 C1444 1.320 . S
C1443 C1441 1.339 . S
C1443 C1442 1.395 . S
C1443 H1469 0.929 . S
C1444 C1442 1.320 . S
C1444 C1445 1.405 . S
C1444 H1470 0.930 . S
C1445 C1440 1.479 . S
C1445 C1444 1.405 . S
C1445 H1471 0.931 . S
U1446 O1447 2.454 . S
U1446 O1448 2.458 . S
U1446 C1449 2.984 . S
U1446 C1450 2.847 . S
U1446 C1463 2.882 . S
U1446 O1464 2.441 . S
U1446 O1465 2.420 . S
U1446 O1466 2.455 . S
U1446 O1467 2.449 . S
O1447 U1446 2.454 . S
O1447 C1449 1.353 . S
O1448 U1446 2.458 . S
O1448 C1449 1.286 . S
C1449 U1446 2.984 . S
C1449 O1447 1.353 . S
C1449 O1448 1.286 . S
C1449 C1451 1.363 . S
C1450 C1440 1.465 . S
C1450 U1446 2.847 . S
C1450 O1464 1.249 . S
C1450 O1465 1.202 . S
C1451 C1449 1.363 . S
C1451 C1453 1.408 . S
C1451 C1456 1.342 . S
C1452 C1453 1.310 . S
C1452 C1455 1.461 . S
C1452 H1472 0.932 . S
C1453 C1451 1.408 . S
C1453 C1452 1.310 . S
C1453 H1473 0.930 . S
C1454 C1455 1.474 . S
C1454 C1456 1.285 . S
C1454 H1474 0.929 . S
C1455 C1452 1.461 . S
C1455 C1454 1.474 . S
C1456 C1451 1.342 . S
C1456 C1454 1.285 . S
C1456 H1475 0.930 . S
C1457 C1460 1.424 . S
C1457 C1462 1.245 . S
C1457 C1463 1.428 . S
C1458 C1461 1.260 . S
C1458 C1462 1.477 . S
C1458 H1476 0.932 . S
C1459 C1460 1.384 . S
C1459 C1461 1.479 . S
C1459 H1477 0.929 . S
C1460 C1457 1.424 . S
C1460 C1459 1.384 . S
C1460 H1478 0.928 . S
C1461 C1458 1.260 . S
C1461 C1459 1.479 . S
C1462 C1457 1.245 . S
C1462 C1458 1.477 . S
C1462 H1479 0.932 . S
C1463 U1446 2.882 . S
C1463 C1457 1.428 . S
C1463 O1466 1.301 . S
C1463 O1467 1.282 . S
O1464 U1446 2.441 . S
O1464 C1450 1.249 . S
O1465 U1446 2.420 . S
O1465 C1450 1.202 . S
O1466 U1446 2.455 . S
O1466 C1463 1.301 . S
O1467 U1446 2.449 . S
O1467 C1463 1.282 . S
H1468 C1441 0.931 . S
H1469 C1443 0.929 . S
H1470 C1444 0.930 . S
H1471 C1445 0.931 . S
H1472 C1452 0.932 . S
H1473 C1453 0.930 . S
H1474 C1454 0.929 . S
H1475 C1456 0.930 . S
H1476 C1458 0.932 . S
H1477 C1459 0.929 . S
H1478 C1460 0.928 . S
H1479 C1462 0.932 . S
C1480 C1481 1.264 . S
C1480 C1485 1.479 . S
C1480 C1490 1.465 . S
C1481 C1480 1.264 . S
C1481 C1483 1.339 . S
C1481 H1508 0.931 . S
C1482 C1483 1.395 . S
C1482 C1484 1.320 . S
C1483 C1481 1.339 . S
C1483 C1482 1.395 . S
C1483 H1509 0.929 . S
C1484 C1482 1.320 . S
C1484 C1485 1.405 . S
C1484 H1510 0.930 . S
C1485 C1480 1.479 . S
C1485 C1484 1.405 . S
C1485 H1511 0.931 . S
U1486 O1487 2.454 . S
U1486 O1488 2.458 . S
U1486 C1489 2.984 . S
U1486 C1490 2.847 . S
U1486 C1503 2.882 . S
U1486 O1504 2.441 . S
U1486 O1505 2.420 . S
U1486 O1506 2.455 . S
U1486 O1507 2.449 . S
O1487 U1486 2.454 . S
O1487 C1489 1.353 . S
O1488 U1486 2.458 . S
O1488 C1489 1.286 . S
C1489 U1486 2.984 . S
C1489 O1487 1.353 . S
C1489 O1488 1.286 . S
C1489 C1491 1.363 . S
C1490 C1480 1.465 . S
C1490 U1486 2.847 . S
C1490 O1504 1.249 . S
C1490 O1505 1.202 . S
C1491 C1489 1.363 . S
C1491 C1493 1.408 . S
C1491 C1496 1.342 . S
C1492 C1493 1.310 . S
C1492 C1495 1.461 . S
C1492 H1512 0.932 . S
C1493 C1491 1.408 . S
C1493 C1492 1.310 . S
C1493 H1513 0.930 . S
C1494 C1495 1.474 . S
C1494 C1496 1.285 . S
C1494 H1514 0.929 . S
C1495 C1492 1.461 . S
C1495 C1494 1.474 . S
C1496 C1491 1.342 . S
C1496 C1494 1.285 . S
C1496 H1515 0.930 . S
C1497 C1500 1.424 . S
C1497 C1502 1.245 . S
C1497 C1503 1.428 . S
C1498 C1501 1.260 . S
C1498 C1502 1.477 . S
C1498 H1516 0.932 . S
C1499 C1500 1.384 . S
C1499 C1501 1.479 . S
C1499 H1517 0.929 . S
C1500 C1497 1.424 . S
C1500 C1499 1.384 . S
C1500 H1518 0.928 . S
C1501 C1498 1.260 . S
C1501 C1499 1.479 . S
C1502 C1497 1.245 . S
C1502 C1498 1.477 . S
C1502 H1519 0.932 . S
C1503 U1486 2.882 . S
C1503 C1497 1.428 . S
C1503 O1506 1.301 . S
C1503 O1507 1.282 . S
O1504 U1486 2.441 . S
O1504 C1490 1.249 . S
O1505 U1486 2.420 . S
O1505 C1490 1.202 . S
O1506 U1486 2.455 . S
O1506 C1503 1.301 . S
O1507 U1486 2.449 . S
O1507 C1503 1.282 . S
H1508 C1481 0.931 . S
H1509 C1483 0.929 . S
H1510 C1484 0.930 . S
H1511 C1485 0.931 . S
H1512 C1492 0.932 . S
H1513 C1493 0.930 . S
H1514 C1494 0.929 . S
H1515 C1496 0.930 . S
H1516 C1498 0.932 . S
H1517 C1499 0.929 . S
H1518 C1500 0.928 . S
H1519 C1502 0.932 . S
C1520 C1521 1.264 . S
C1520 C1525 1.479 . S
C1520 C1530 1.465 . S
C1521 C1520 1.264 . S
C1521 C1523 1.339 . S
C1521 H1548 0.931 . S
C1522 C1523 1.395 . S
C1522 C1524 1.320 . S
C1523 C1521 1.339 . S
C1523 C1522 1.395 . S
C1523 H1549 0.929 . S
C1524 C1522 1.320 . S
C1524 C1525 1.405 . S
C1524 H1550 0.930 . S
C1525 C1520 1.479 . S
C1525 C1524 1.405 . S
C1525 H1551 0.931 . S
U1526 O1527 2.454 . S
U1526 O1528 2.458 . S
U1526 C1529 2.984 . S
U1526 C1530 2.847 . S
U1526 C1543 2.882 . S
U1526 O1544 2.441 . S
U1526 O1545 2.420 . S
U1526 O1546 2.455 . S
U1526 O1547 2.449 . S
O1527 U1526 2.454 . S
O1527 C1529 1.353 . S
O1528 U1526 2.458 . S
O1528 C1529 1.286 . S
C1529 U1526 2.984 . S
C1529 O1527 1.353 . S
C1529 O1528 1.286 . S
C1529 C1531 1.363 . S
C1530 C1520 1.465 . S
C1530 U1526 2.847 . S
C1530 O1544 1.249 . S
C1530 O1545 1.202 . S
C1531 C1529 1.363 . S
C1531 C1533 1.408 . S
C1531 C1536 1.342 . S
C1532 C1533 1.310 . S
C1532 C1535 1.461 . S
C1532 H1552 0.932 . S
C1533 C1531 1.408 . S
C1533 C1532 1.310 . S
C1533 H1553 0.930 . S
C1534 C1535 1.474 . S
C1534 C1536 1.285 . S
C1534 H1554 0.929 . S
C1535 C1532 1.461 . S
C1535 C1534 1.474 . S
C1536 C1531 1.342 . S
C1536 C1534 1.285 . S
C1536 H1555 0.930 . S
C1537 C1540 1.424 . S
C1537 C1542 1.245 . S
C1537 C1543 1.428 . S
C1538 C1541 1.260 . S
C1538 C1542 1.477 . S
C1538 H1556 0.932 . S
C1539 C1540 1.384 . S
C1539 C1541 1.479 . S
C1539 H1557 0.929 . S
C1540 C1537 1.424 . S
C1540 C1539 1.384 . S
C1540 H1558 0.928 . S
C1541 C1538 1.260 . S
C1541 C1539 1.479 . S
C1542 C1537 1.245 . S
C1542 C1538 1.477 . S
C1542 H1559 0.932 . S
C1543 U1526 2.882 . S
C1543 C1537 1.428 . S
C1543 O1546 1.301 . S
C1543 O1547 1.282 . S
O1544 U1526 2.441 . S
O1544 C1530 1.249 . S
O1545 U1526 2.420 . S
O1545 C1530 1.202 . S
O1546 U1526 2.455 . S
O1546 C1543 1.301 . S
O1547 U1526 2.449 . S
O1547 C1543 1.282 . S
H1548 C1521 0.931 . S
H1549 C1523 0.929 . S
H1550 C1524 0.930 . S
H1551 C1525 0.931 . S
H1552 C1532 0.932 . S
H1553 C1533 0.930 . S
H1554 C1534 0.929 . S
H1555 C1536 0.930 . S
H1556 C1538 0.932 . S
H1557 C1539 0.929 . S
H1558 C1540 0.928 . S
H1559 C1542 0.932 . S
C1560 C1561 1.264 . S
C1560 C1565 1.479 . S
C1560 C1570 1.465 . S
C1561 C1560 1.264 . S
C1561 C1563 1.339 . S
C1561 H1588 0.931 . S
C1562 C1563 1.395 . S
C1562 C1564 1.320 . S
C1563 C1561 1.339 . S
C1563 C1562 1.395 . S
C1563 H1589 0.929 . S
C1564 C1562 1.320 . S
C1564 C1565 1.405 . S
C1564 H1590 0.930 . S
C1565 C1560 1.479 . S
C1565 C1564 1.405 . S
C1565 H1591 0.931 . S
U1566 O1567 2.454 . S
U1566 O1568 2.458 . S
U1566 C1569 2.984 . S
U1566 C1570 2.847 . S
U1566 C1583 2.882 . S
U1566 O1584 2.441 . S
U1566 O1585 2.420 . S
U1566 O1586 2.455 . S
U1566 O1587 2.449 . S
O1567 U1566 2.454 . S
O1567 C1569 1.353 . S
O1568 U1566 2.458 . S
O1568 C1569 1.286 . S
C1569 U1566 2.984 . S
C1569 O1567 1.353 . S
C1569 O1568 1.286 . S
C1569 C1571 1.363 . S
C1570 C1560 1.465 . S
C1570 U1566 2.847 . S
C1570 O1584 1.249 . S
C1570 O1585 1.202 . S
C1571 C1569 1.363 . S
C1571 C1573 1.408 . S
C1571 C1576 1.342 . S
C1572 C1573 1.310 . S
C1572 C1575 1.461 . S
C1572 H1592 0.932 . S
C1573 C1571 1.408 . S
C1573 C1572 1.310 . S
C1573 H1593 0.930 . S
C1574 C1575 1.474 . S
C1574 C1576 1.285 . S
C1574 H1594 0.929 . S
C1575 C1572 1.461 . S
C1575 C1574 1.474 . S
C1576 C1571 1.342 . S
C1576 C1574 1.285 . S
C1576 H1595 0.930 . S
C1577 C1580 1.424 . S
C1577 C1582 1.245 . S
C1577 C1583 1.428 . S
C1578 C1581 1.260 . S
C1578 C1582 1.477 . S
C1578 H1596 0.932 . S
C1579 C1580 1.384 . S
C1579 C1581 1.479 . S
C1579 H1597 0.929 . S
C1580 C1577 1.424 . S
C1580 C1579 1.384 . S
C1580 H1598 0.928 . S
C1581 C1578 1.260 . S
C1581 C1579 1.479 . S
C1582 C1577 1.245 . S
C1582 C1578 1.477 . S
C1582 H1599 0.932 . S
C1583 U1566 2.882 . S
C1583 C1577 1.428 . S
C1583 O1586 1.301 . S
C1583 O1587 1.282 . S
O1584 U1566 2.441 . S
O1584 C1570 1.249 . S
O1585 U1566 2.420 . S
O1585 C1570 1.202 . S
O1586 U1566 2.455 . S
O1586 C1583 1.301 . S
O1587 U1566 2.449 . S
O1587 C1583 1.282 . S
H1588 C1561 0.931 . S
H1589 C1563 0.929 . S
H1590 C1564 0.930 . S
H1591 C1565 0.931 . S
H1592 C1572 0.932 . S
H1593 C1573 0.930 . S
H1594 C1574 0.929 . S
H1595 C1576 0.930 . S
H1596 C1578 0.932 . S
H1597 C1579 0.929 . S
H1598 C1580 0.928 . S
H1599 C1582 0.932 . S
C1600 C1601 1.264 . S
C1600 C1605 1.479 . S
C1600 C1610 1.465 . S
C1601 C1600 1.264 . S
C1601 C1603 1.339 . S
C1601 H1628 0.931 . S
C1602 C1603 1.395 . S
C1602 C1604 1.320 . S
C1603 C1601 1.339 . S
C1603 C1602 1.395 . S
C1603 H1629 0.929 . S
C1604 C1602 1.320 . S
C1604 C1605 1.405 . S
C1604 H1630 0.930 . S
C1605 C1600 1.479 . S
C1605 C1604 1.405 . S
C1605 H1631 0.931 . S
U1606 O1607 2.454 . S
U1606 O1608 2.458 . S
U1606 C1609 2.984 . S
U1606 C1610 2.847 1_455 S
U1606 C1623 2.882 . S
U1606 O1624 2.441 1_455 S
U1606 O1625 2.420 1_455 S
U1606 O1626 2.455 . S
U1606 O1627 2.449 . S
O1607 U1606 2.454 . S
O1607 C1609 1.353 . S
O1608 U1606 2.458 . S
O1608 C1609 1.286 . S
C1609 U1606 2.984 . S
C1609 O1607 1.353 . S
C1609 O1608 1.286 . S
C1609 C1611 1.363 . S
C1610 C1600 1.465 . S
C1610 U1606 2.847 1_655 S
C1610 O1624 1.249 . S
C1610 O1625 1.202 . S
C1611 C1609 1.363 . S
C1611 C1613 1.408 . S
C1611 C1616 1.342 . S
C1612 C1613 1.310 . S
C1612 C1615 1.461 . S
C1612 H1632 0.932 . S
C1613 C1611 1.408 . S
C1613 C1612 1.310 . S
C1613 H1633 0.930 . S
C1614 C1615 1.474 . S
C1614 C1616 1.285 . S
C1614 H1634 0.929 . S
C1615 C1612 1.461 . S
C1615 C1614 1.474 . S
C1616 C1611 1.342 . S
C1616 C1614 1.285 . S
C1616 H1635 0.930 . S
C1617 C1620 1.424 . S
C1617 C1622 1.245 . S
C1617 C1623 1.428 . S
C1618 C1621 1.260 . S
C1618 C1622 1.477 . S
C1618 H1636 0.932 . S
C1619 C1620 1.384 . S
C1619 C1621 1.479 . S
C1619 H1637 0.929 . S
C1620 C1617 1.424 . S
C1620 C1619 1.384 . S
C1620 H1638 0.928 . S
C1621 C1618 1.260 . S
C1621 C1619 1.479 . S
C1622 C1617 1.245 . S
C1622 C1618 1.477 . S
C1622 H1639 0.932 . S
C1623 U1606 2.882 . S
C1623 C1617 1.428 . S
C1623 O1626 1.301 . S
C1623 O1627 1.282 . S
O1624 U1606 2.441 1_655 S
O1624 C1610 1.249 . S
O1625 U1606 2.420 1_655 S
O1625 C1610 1.202 . S
O1626 U1606 2.455 . S
O1626 C1623 1.301 . S
O1627 U1606 2.449 . S
O1627 C1623 1.282 . S
H1628 C1601 0.931 . S
H1629 C1603 0.929 . S
H1630 C1604 0.930 . S
H1631 C1605 0.931 . S
H1632 C1612 0.932 . S
H1633 C1613 0.930 . S
H1634 C1614 0.929 . S
H1635 C1616 0.930 . S
H1636 C1618 0.932 . S
H1637 C1619 0.929 . S
H1638 C1620 0.928 . S
H1639 C1622 0.932 . S
C1640 C1641 1.264 . S
C1640 C1645 1.479 . S
C1640 C1650 1.465 . S
C1641 C1640 1.264 . S
C1641 C1643 1.339 . S
C1641 H1668 0.931 . S
C1642 C1643 1.395 . S
C1642 C1644 1.320 . S
C1643 C1641 1.339 . S
C1643 C1642 1.395 . S
C1643 H1669 0.929 . S
C1644 C1642 1.320 . S
C1644 C1645 1.405 . S
C1644 H1670 0.930 . S
C1645 C1640 1.479 . S
C1645 C1644 1.405 . S
C1645 H1671 0.931 . S
U1646 O1647 2.454 . S
U1646 O1648 2.458 . S
U1646 C1649 2.984 . S
U1646 C1650 2.847 . S
U1646 C1663 2.882 . S
U1646 O1664 2.441 . S
U1646 O1665 2.420 . S
U1646 O1666 2.455 . S
U1646 O1667 2.449 . S
O1647 U1646 2.454 . S
O1647 C1649 1.353 . S
O1648 U1646 2.458 . S
O1648 C1649 1.286 . S
C1649 U1646 2.984 . S
C1649 O1647 1.353 . S
C1649 O1648 1.286 . S
C1649 C1651 1.363 . S
C1650 C1640 1.465 . S
C1650 U1646 2.847 . S
C1650 O1664 1.249 . S
C1650 O1665 1.202 . S
C1651 C1649 1.363 . S
C1651 C1653 1.408 . S
C1651 C1656 1.342 . S
C1652 C1653 1.310 . S
C1652 C1655 1.461 . S
C1652 H1672 0.932 . S
C1653 C1651 1.408 . S
C1653 C1652 1.310 . S
C1653 H1673 0.930 . S
C1654 C1655 1.474 . S
C1654 C1656 1.285 . S
C1654 H1674 0.929 . S
C1655 C1652 1.461 . S
C1655 C1654 1.474 . S
C1656 C1651 1.342 . S
C1656 C1654 1.285 . S
C1656 H1675 0.930 . S
C1657 C1660 1.424 . S
C1657 C1662 1.245 . S
C1657 C1663 1.428 . S
C1658 C1661 1.260 . S
C1658 C1662 1.477 . S
C1658 H1676 0.932 . S
C1659 C1660 1.384 . S
C1659 C1661 1.479 . S
C1659 H1677 0.929 . S
C1660 C1657 1.424 . S
C1660 C1659 1.384 . S
C1660 H1678 0.928 . S
C1661 C1658 1.260 . S
C1661 C1659 1.479 . S
C1662 C1657 1.245 . S
C1662 C1658 1.477 . S
C1662 H1679 0.932 . S
C1663 U1646 2.882 . S
C1663 C1657 1.428 . S
C1663 O1666 1.301 . S
C1663 O1667 1.282 . S
O1664 U1646 2.441 . S
O1664 C1650 1.249 . S
O1665 U1646 2.420 . S
O1665 C1650 1.202 . S
O1666 U1646 2.455 . S
O1666 C1663 1.301 . S
O1667 U1646 2.449 . S
O1667 C1663 1.282 . S
H1668 C1641 0.931 . S
H1669 C1643 0.929 . S
H1670 C1644 0.930 . S
H1671 C1645 0.931 . S
H1672 C1652 0.932 . S
H1673 C1653 0.930 . S
H1674 C1654 0.929 . S
H1675 C1656 0.930 . S
H1676 C1658 0.932 . S
H1677 C1659 0.929 . S
H1678 C1660 0.928 . S
H1679 C1662 0.932 . S
C1680 C1681 1.264 . S
C1680 C1685 1.479 . S
C1680 C1690 1.465 . S
C1681 C1680 1.264 . S
C1681 C1683 1.339 . S
C1681 H1708 0.931 . S
C1682 C1683 1.395 . S
C1682 C1684 1.320 . S
C1683 C1681 1.339 . S
C1683 C1682 1.395 . S
C1683 H1709 0.929 . S
C1684 C1682 1.320 . S
C1684 C1685 1.405 . S
C1684 H1710 0.930 . S
C1685 C1680 1.479 . S
C1685 C1684 1.405 . S
C1685 H1711 0.931 . S
U1686 O1687 2.454 1_554 S
U1686 O1688 2.458 1_554 S
U1686 C1689 2.984 1_554 S
U1686 C1690 2.847 . S
U1686 C1703 2.882 . S
U1686 O1704 2.441 . S
U1686 O1705 2.420 . S
U1686 O1706 2.455 . S
U1686 O1707 2.449 . S
O1687 U1686 2.454 1_556 S
O1687 C1689 1.353 . S
O1688 U1686 2.458 1_556 S
O1688 C1689 1.286 . S
C1689 U1686 2.984 1_556 S
C1689 O1687 1.353 . S
C1689 O1688 1.286 . S
C1689 C1691 1.363 . S
C1690 C1680 1.465 . S
C1690 U1686 2.847 . S
C1690 O1704 1.249 . S
C1690 O1705 1.202 . S
C1691 C1689 1.363 . S
C1691 C1693 1.408 . S
C1691 C1696 1.342 . S
C1692 C1693 1.310 . S
C1692 C1695 1.461 . S
C1692 H1712 0.932 . S
C1693 C1691 1.408 . S
C1693 C1692 1.310 . S
C1693 H1713 0.930 . S
C1694 C1695 1.474 . S
C1694 C1696 1.285 . S
C1694 H1714 0.929 . S
C1695 C1692 1.461 . S
C1695 C1694 1.474 . S
C1696 C1691 1.342 . S
C1696 C1694 1.285 . S
C1696 H1715 0.930 . S
C1697 C1700 1.424 . S
C1697 C1702 1.245 . S
C1697 C1703 1.428 . S
C1698 C1701 1.260 . S
C1698 C1702 1.477 . S
C1698 H1716 0.932 . S
C1699 C1700 1.384 . S
C1699 C1701 1.479 . S
C1699 H1717 0.929 . S
C1700 C1697 1.424 . S
C1700 C1699 1.384 . S
C1700 H1718 0.928 . S
C1701 C1698 1.260 . S
C1701 C1699 1.479 . S
C1702 C1697 1.245 . S
C1702 C1698 1.477 . S
C1702 H1719 0.932 . S
C1703 U1686 2.882 . S
C1703 C1697 1.428 . S
C1703 O1706 1.301 . S
C1703 O1707 1.282 . S
O1704 U1686 2.441 . S
O1704 C1690 1.249 . S
O1705 U1686 2.420 . S
O1705 C1690 1.202 . S
O1706 U1686 2.455 . S
O1706 C1703 1.301 . S
O1707 U1686 2.449 . S
O1707 C1703 1.282 . S
H1708 C1681 0.931 . S
H1709 C1683 0.929 . S
H1710 C1684 0.930 . S
H1711 C1685 0.931 . S
H1712 C1692 0.932 . S
H1713 C1693 0.930 . S
H1714 C1694 0.929 . S
H1715 C1696 0.930 . S
H1716 C1698 0.932 . S
H1717 C1699 0.929 . S
H1718 C1700 0.928 . S
H1719 C1702 0.932 . S
C1720 C1721 1.264 . S
C1720 C1725 1.479 . S
C1720 C1730 1.465 . S
C1721 C1720 1.264 . S
C1721 C1723 1.339 . S
C1721 H1748 0.931 . S
C1722 C1723 1.395 . S
C1722 C1724 1.320 . S
C1723 C1721 1.339 . S
C1723 C1722 1.395 . S
C1723 H1749 0.929 . S
C1724 C1722 1.320 . S
C1724 C1725 1.405 . S
C1724 H1750 0.930 . S
C1725 C1720 1.479 . S
C1725 C1724 1.405 . S
C1725 H1751 0.931 . S
U1726 O1727 2.454 . S
U1726 O1728 2.458 . S
U1726 C1729 2.984 . S
U1726 C1730 2.847 . S
U1726 C1743 2.882 . S
U1726 O1744 2.441 . S
U1726 O1745 2.420 . S
U1726 O1746 2.455 . S
U1726 O1747 2.449 . S
O1727 U1726 2.454 . S
O1727 C1729 1.353 . S
O1728 U1726 2.458 . S
O1728 C1729 1.286 . S
C1729 U1726 2.984 . S
C1729 O1727 1.353 . S
C1729 O1728 1.286 . S
C1729 C1731 1.363 . S
C1730 C1720 1.465 . S
C1730 U1726 2.847 . S
C1730 O1744 1.249 . S
C1730 O1745 1.202 . S
C1731 C1729 1.363 . S
C1731 C1733 1.408 . S
C1731 C1736 1.342 . S
C1732 C1733 1.310 . S
C1732 C1735 1.461 . S
C1732 H1752 0.932 . S
C1733 C1731 1.408 . S
C1733 C1732 1.310 . S
C1733 H1753 0.930 . S
C1734 C1735 1.474 . S
C1734 C1736 1.285 . S
C1734 H1754 0.929 . S
C1735 C1732 1.461 . S
C1735 C1734 1.474 . S
C1736 C1731 1.342 . S
C1736 C1734 1.285 . S
C1736 H1755 0.930 . S
C1737 C1740 1.424 . S
C1737 C1742 1.245 . S
C1737 C1743 1.428 . S
C1738 C1741 1.260 . S
C1738 C1742 1.477 . S
C1738 H1756 0.932 . S
C1739 C1740 1.384 . S
C1739 C1741 1.479 . S
C1739 H1757 0.929 . S
C1740 C1737 1.424 . S
C1740 C1739 1.384 . S
C1740 H1758 0.928 . S
C1741 C1738 1.260 . S
C1741 C1739 1.479 . S
C1742 C1737 1.245 . S
C1742 C1738 1.477 . S
C1742 H1759 0.932 . S
C1743 U1726 2.882 . S
C1743 C1737 1.428 . S
C1743 O1746 1.301 . S
C1743 O1747 1.282 . S
O1744 U1726 2.441 . S
O1744 C1730 1.249 . S
O1745 U1726 2.420 . S
O1745 C1730 1.202 . S
O1746 U1726 2.455 . S
O1746 C1743 1.301 . S
O1747 U1726 2.449 . S
O1747 C1743 1.282 . S
H1748 C1721 0.931 . S
H1749 C1723 0.929 . S
H1750 C1724 0.930 . S
H1751 C1725 0.931 . S
H1752 C1732 0.932 . S
H1753 C1733 0.930 . S
H1754 C1734 0.929 . S
H1755 C1736 0.930 . S
H1756 C1738 0.932 . S
H1757 C1739 0.929 . S
H1758 C1740 0.928 . S
H1759 C1742 0.932 . S
C1760 C1761 1.264 . S
C1760 C1765 1.479 . S
C1760 C1770 1.465 . S
C1761 C1760 1.264 . S
C1761 C1763 1.339 . S
C1761 H1788 0.931 . S
C1762 C1763 1.395 . S
C1762 C1764 1.320 . S
C1763 C1761 1.339 . S
C1763 C1762 1.395 . S
C1763 H1789 0.929 . S
C1764 C1762 1.320 . S
C1764 C1765 1.405 . S
C1764 H1790 0.930 . S
C1765 C1760 1.479 . S
C1765 C1764 1.405 . S
C1765 H1791 0.931 . S
U1766 O1767 2.454 . S
U1766 O1768 2.458 . S
U1766 C1769 2.984 . S
U1766 C1770 2.847 . S
U1766 C1783 2.882 . S
U1766 O1784 2.441 . S
U1766 O1785 2.420 . S
U1766 O1786 2.455 . S
U1766 O1787 2.449 . S
O1767 U1766 2.454 . S
O1767 C1769 1.353 . S
O1768 U1766 2.458 . S
O1768 C1769 1.286 . S
C1769 U1766 2.984 . S
C1769 O1767 1.353 . S
C1769 O1768 1.286 . S
C1769 C1771 1.363 . S
C1770 C1760 1.465 . S
C1770 U1766 2.847 . S
C1770 O1784 1.249 . S
C1770 O1785 1.202 . S
C1771 C1769 1.363 . S
C1771 C1773 1.408 . S
C1771 C1776 1.342 . S
C1772 C1773 1.310 . S
C1772 C1775 1.461 . S
C1772 H1792 0.932 . S
C1773 C1771 1.408 . S
C1773 C1772 1.310 . S
C1773 H1793 0.930 . S
C1774 C1775 1.474 . S
C1774 C1776 1.285 . S
C1774 H1794 0.929 . S
C1775 C1772 1.461 . S
C1775 C1774 1.474 . S
C1776 C1771 1.342 . S
C1776 C1774 1.285 . S
C1776 H1795 0.930 . S
C1777 C1780 1.424 . S
C1777 C1782 1.245 . S
C1777 C1783 1.428 . S
C1778 C1781 1.260 . S
C1778 C1782 1.477 . S
C1778 H1796 0.932 . S
C1779 C1780 1.384 . S
C1779 C1781 1.479 . S
C1779 H1797 0.929 . S
C1780 C1777 1.424 . S
C1780 C1779 1.384 . S
C1780 H1798 0.928 . S
C1781 C1778 1.260 . S
C1781 C1779 1.479 . S
C1782 C1777 1.245 . S
C1782 C1778 1.477 . S
C1782 H1799 0.932 . S
C1783 U1766 2.882 . S
C1783 C1777 1.428 . S
C1783 O1786 1.301 . S
C1783 O1787 1.282 . S
O1784 U1766 2.441 . S
O1784 C1770 1.249 . S
O1785 U1766 2.420 . S
O1785 C1770 1.202 . S
O1786 U1766 2.455 . S
O1786 C1783 1.301 . S
O1787 U1766 2.449 . S
O1787 C1783 1.282 . S
H1788 C1761 0.931 . S
H1789 C1763 0.929 . S
H1790 C1764 0.930 . S
H1791 C1765 0.931 . S
H1792 C1772 0.932 . S
H1793 C1773 0.930 . S
H1794 C1774 0.929 . S
H1795 C1776 0.930 . S
H1796 C1778 0.932 . S
H1797 C1779 0.929 . S
H1798 C1780 0.928 . S
H1799 C1782 0.932 . S
C1800 C1801 1.264 . S
C1800 C1805 1.479 . S
C1800 C1810 1.465 . S
C1801 C1800 1.264 . S
C1801 C1803 1.339 . S
C1801 H1828 0.931 . S
C1802 C1803 1.395 . S
C1802 C1804 1.320 . S
C1803 C1801 1.339 . S
C1803 C1802 1.395 . S
C1803 H1829 0.929 . S
C1804 C1802 1.320 . S
C1804 C1805 1.405 . S
C1804 H1830 0.930 . S
C1805 C1800 1.479 . S
C1805 C1804 1.405 . S
C1805 H1831 0.931 . S
U1806 O1807 2.454 . S
U1806 O1808 2.458 . S
U1806 C1809 2.984 . S
U1806 C1810 2.847 . S
U1806 C1823 2.882 . S
U1806 O1824 2.441 . S
U1806 O1825 2.420 . S
U1806 O1826 2.455 . S
U1806 O1827 2.449 . S
O1807 U1806 2.454 . S
O1807 C1809 1.353 . S
O1808 U1806 2.458 . S
O1808 C1809 1.286 . S
C1809 U1806 2.984 . S
C1809 O1807 1.353 . S
C1809 O1808 1.286 . S
C1809 C1811 1.363 . S
C1810 C1800 1.465 . S
C1810 U1806 2.847 . S
C1810 O1824 1.249 . S
C1810 O1825 1.202 . S
C1811 C1809 1.363 . S
C1811 C1813 1.408 . S
C1811 C1816 1.342 . S
C1812 C1813 1.310 . S
C1812 C1815 1.461 . S
C1812 H1832 0.932 . S
C1813 C1811 1.408 . S
C1813 C1812 1.310 . S
C1813 H1833 0.930 . S
C1814 C1815 1.474 . S
C1814 C1816 1.285 . S
C1814 H1834 0.929 . S
C1815 C1812 1.461 . S
C1815 C1814 1.474 . S
C1816 C1811 1.342 . S
C1816 C1814 1.285 . S
C1816 H1835 0.930 . S
C1817 C1820 1.424 . S
C1817 C1822 1.245 . S
C1817 C1823 1.428 . S
C1818 C1821 1.260 . S
C1818 C1822 1.477 . S
C1818 H1836 0.932 . S
C1819 C1820 1.384 . S
C1819 C1821 1.479 . S
C1819 H1837 0.929 . S
C1820 C1817 1.424 . S
C1820 C1819 1.384 . S
C1820 H1838 0.928 . S
C1821 C1818 1.260 . S
C1821 C1819 1.479 . S
C1822 C1817 1.245 . S
C1822 C1818 1.477 . S
C1822 H1839 0.932 . S
C1823 U1806 2.882 . S
C1823 C1817 1.428 . S
C1823 O1826 1.301 . S
C1823 O1827 1.282 . S
O1824 U1806 2.441 . S
O1824 C1810 1.249 . S
O1825 U1806 2.420 . S
O1825 C1810 1.202 . S
O1826 U1806 2.455 . S
O1826 C1823 1.301 . S
O1827 U1806 2.449 . S
O1827 C1823 1.282 . S
H1828 C1801 0.931 . S
H1829 C1803 0.929 . S
H1830 C1804 0.930 . S
H1831 C1805 0.931 . S
H1832 C1812 0.932 . S
H1833 C1813 0.930 . S
H1834 C1814 0.929 . S
H1835 C1816 0.930 . S
H1836 C1818 0.932 . S
H1837 C1819 0.929 . S
H1838 C1820 0.928 . S
H1839 C1822 0.932 . S
C1840 C1841 1.264 . S
C1840 C1845 1.479 . S
C1840 C1850 1.465 . S
C1841 C1840 1.264 . S
C1841 C1843 1.339 . S
C1841 H1868 0.931 . S
C1842 C1843 1.395 . S
C1842 C1844 1.320 . S
C1843 C1841 1.339 . S
C1843 C1842 1.395 . S
C1843 H1869 0.929 . S
C1844 C1842 1.320 . S
C1844 C1845 1.405 . S
C1844 H1870 0.930 . S
C1845 C1840 1.479 . S
C1845 C1844 1.405 . S
C1845 H1871 0.931 . S
U1846 O1847 2.454 . S
U1846 O1848 2.458 . S
U1846 C1849 2.984 . S
U1846 C1850 2.847 . S
U1846 C1863 2.882 . S
U1846 O1864 2.441 . S
U1846 O1865 2.420 . S
U1846 O1866 2.455 . S
U1846 O1867 2.449 . S
O1847 U1846 2.454 . S
O1847 C1849 1.353 . S
O1848 U1846 2.458 . S
O1848 C1849 1.286 . S
C1849 U1846 2.984 . S
C1849 O1847 1.353 . S
C1849 O1848 1.286 . S
C1849 C1851 1.363 . S
C1850 C1840 1.465 . S
C1850 U1846 2.847 . S
C1850 O1864 1.249 . S
C1850 O1865 1.202 . S
C1851 C1849 1.363 . S
C1851 C1853 1.408 . S
C1851 C1856 1.342 . S
C1852 C1853 1.310 . S
C1852 C1855 1.461 . S
C1852 H1872 0.932 . S
C1853 C1851 1.408 . S
C1853 C1852 1.310 . S
C1853 H1873 0.930 . S
C1854 C1855 1.474 . S
C1854 C1856 1.285 . S
C1854 H1874 0.929 . S
C1855 C1852 1.461 . S
C1855 C1854 1.474 . S
C1856 C1851 1.342 . S
C1856 C1854 1.285 . S
C1856 H1875 0.930 . S
C1857 C1860 1.424 . S
C1857 C1862 1.245 . S
C1857 C1863 1.428 . S
C1858 C1861 1.260 . S
C1858 C1862 1.477 . S
C1858 H1876 0.932 . S
C1859 C1860 1.384 . S
C1859 C1861 1.479 . S
C1859 H1877 0.929 . S
C1860 C1857 1.424 . S
C1860 C1859 1.384 . S
C1860 H1878 0.928 . S
C1861 C1858 1.260 . S
C1861 C1859 1.479 . S
C1862 C1857 1.245 . S
C1862 C1858 1.477 . S
C1862 H1879 0.932 . S
C1863 U1846 2.882 . S
C1863 C1857 1.428 . S
C1863 O1866 1.301 . S
C1863 O1867 1.282 . S
O1864 U1846 2.441 . S
O1864 C1850 1.249 . S
O1865 U1846 2.420 . S
O1865 C1850 1.202 . S
O1866 U1846 2.455 . S
O1866 C1863 1.301 . S
O1867 U1846 2.449 . S
O1867 C1863 1.282 . S
H1868 C1841 0.931 . S
H1869 C1843 0.929 . S
H1870 C1844 0.930 . S
H1871 C1845 0.931 . S
H1872 C1852 0.932 . S
H1873 C1853 0.930 . S
H1874 C1854 0.929 . S
H1875 C1856 0.930 . S
H1876 C1858 0.932 . S
H1877 C1859 0.929 . S
H1878 C1860 0.928 . S
H1879 C1862 0.932 . S
C1880 C1881 1.264 . S
C1880 C1885 1.479 . S
C1880 C1890 1.465 . S
C1881 C1880 1.264 . S
C1881 C1883 1.339 . S
C1881 H1908 0.931 . S
C1882 C1883 1.395 . S
C1882 C1884 1.320 . S
C1883 C1881 1.339 . S
C1883 C1882 1.395 . S
C1883 H1909 0.929 . S
C1884 C1882 1.320 . S
C1884 C1885 1.405 . S
C1884 H1910 0.930 . S
C1885 C1880 1.479 . S
C1885 C1884 1.405 . S
C1885 H1911 0.931 . S
U1886 O1887 2.454 . S
U1886 O1888 2.458 . S
U1886 C1889 2.984 . S
U1886 C1890 2.847 . S
U1886 C1903 2.882 . S
U1886 O1904 2.441 . S
U1886 O1905 2.420 . S
U1886 O1906 2.455 . S
U1886 O1907 2.449 . S
O1887 U1886 2.454 . S
O1887 C1889 1.353 . S
O1888 U1886 2.458 . S
O1888 C1889 1.286 . S
C1889 U1886 2.984 . S
C1889 O1887 1.353 . S
C1889 O1888 1.286 . S
C1889 C1891 1.363 . S
C1890 C1880 1.465 . S
C1890 U1886 2.847 . S
C1890 O1904 1.249 . S
C1890 O1905 1.202 . S
C1891 C1889 1.363 . S
C1891 C1893 1.408 . S
C1891 C1896 1.342 . S
C1892 C1893 1.310 . S
C1892 C1895 1.461 . S
C1892 H1912 0.932 . S
C1893 C1891 1.408 . S
C1893 C1892 1.310 . S
C1893 H1913 0.930 . S
C1894 C1895 1.474 . S
C1894 C1896 1.285 . S
C1894 H1914 0.929 . S
C1895 C1892 1.461 . S
C1895 C1894 1.474 . S
C1896 C1891 1.342 . S
C1896 C1894 1.285 . S
C1896 H1915 0.930 . S
C1897 C1900 1.424 . S
C1897 C1902 1.245 . S
C1897 C1903 1.428 . S
C1898 C1901 1.260 . S
C1898 C1902 1.477 . S
C1898 H1916 0.932 . S
C1899 C1900 1.384 . S
C1899 C1901 1.479 . S
C1899 H1917 0.929 . S
C1900 C1897 1.424 . S
C1900 C1899 1.384 . S
C1900 H1918 0.928 . S
C1901 C1898 1.260 . S
C1901 C1899 1.479 . S
C1902 C1897 1.245 . S
C1902 C1898 1.477 . S
C1902 H1919 0.932 . S
C1903 U1886 2.882 . S
C1903 C1897 1.428 . S
C1903 O1906 1.301 . S
C1903 O1907 1.282 . S
O1904 U1886 2.441 . S
O1904 C1890 1.249 . S
O1905 U1886 2.420 . S
O1905 C1890 1.202 . S
O1906 U1886 2.455 . S
O1906 C1903 1.301 . S
O1907 U1886 2.449 . S
O1907 C1903 1.282 . S
H1908 C1881 0.931 . S
H1909 C1883 0.929 . S
H1910 C1884 0.930 . S
H1911 C1885 0.931 . S
H1912 C1892 0.932 . S
H1913 C1893 0.930 . S
H1914 C1894 0.929 . S
H1915 C1896 0.930 . S
H1916 C1898 0.932 . S
H1917 C1899 0.929 . S
H1918 C1900 0.928 . S
H1919 C1902 0.932 . S
C1920 C1921 1.386 . S
C1920 C1922 1.397 . S
C1920 H1944 0.931 . S
C1921 C1920 1.386 . S
C1921 C1925 1.397 . S
C1922 C1920 1.397 . S
C1922 C1923 1.384 . S
C1922 H1945 0.930 . S
C1923 C1922 1.384 . S
C1923 C1924 1.377 . S
C1923 C1926 1.481 . S
C1924 C1923 1.377 . S
C1924 C1925 1.389 . S
C1924 H1946 0.929 . S
C1925 C1921 1.397 . S
C1925 C1924 1.389 . S
C1925 H1947 0.931 . S
C1926 C1923 1.481 . S
C1926 C1927 1.387 . S
C1926 C1931 1.390 . S
C1927 C1926 1.387 . S
C1927 C1928 1.401 . S
C1927 H1948 0.930 . S
C1928 C1927 1.401 . S
C1928 C1929 1.376 . S
C1928 C1937 1.511 . S
C1929 C1928 1.376 . S
C1929 C1930 1.392 . S
C1929 H1950 0.931 . S
C1930 C1929 1.392 . S
C1930 C1931 1.361 . S
C1930 C1932 1.500 . S
C1931 C1926 1.390 . S
C1931 C1930 1.361 . S
C1931 H1949 0.931 . S
C1932 C1930 1.500 . S
C1932 C1933 1.371 . S
C1932 C1934 1.365 . S
C1933 C1932 1.371 . S
C1933 C1943 1.386 . S
C1933 H1951 0.931 . S
C1934 C1932 1.365 . S
C1934 C1935 1.409 . S
C1934 H1952 0.929 . S
C1935 C1934 1.409 . S
C1935 C1936 1.380 . S
C1935 H1953 0.930 . S
C1936 C1935 1.380 . S
C1936 C1943 1.357 . S
C1937 C1928 1.511 . S
C1937 C1938 1.341 . S
C1937 C1939 1.371 . S
C1938 C1937 1.341 . S
C1938 C1942 1.394 . S
C1938 H1954 0.930 . S
C1939 C1937 1.371 . S
C1939 C1940 1.392 . S
C1939 H1955 0.931 . S
C1940 C1939 1.392 . S
C1940 C1941 1.331 . S
C1940 H1958 0.932 . S
C1941 C1940 1.331 . S
C1941 C1942 1.336 . S
C1942 C1938 1.394 . S
C1942 C1941 1.336 . S
C1942 H1957 0.929 . S
C1943 C1933 1.386 . S
C1943 C1936 1.357 . S
C1943 H1956 0.928 . S
H1944 C1920 0.931 . S
H1945 C1922 0.930 . S
H1946 C1924 0.929 . S
H1947 C1925 0.931 . S
H1948 C1927 0.930 . S
H1949 C1931 0.931 . S
H1950 C1929 0.931 . S
H1951 C1933 0.931 . S
H1952 C1934 0.929 . S
H1953 C1935 0.930 . S
H1954 C1938 0.930 . S
H1955 C1939 0.931 . S
H1956 C1943 0.928 . S
H1957 C1942 0.929 . S
H1958 C1940 0.932 . S
C1959 C1960 1.386 . S
C1959 C1961 1.397 . S
C1959 H1983 0.931 . S
C1960 C1959 1.386 . S
C1960 C1964 1.397 . S
C1961 C1959 1.397 . S
C1961 C1962 1.384 . S
C1961 H1984 0.930 . S
C1962 C1961 1.384 . S
C1962 C1963 1.377 . S
C1962 C1965 1.481 . S
C1963 C1962 1.377 . S
C1963 C1964 1.389 . S
C1963 H1985 0.929 . S
C1964 C1960 1.397 . S
C1964 C1963 1.389 . S
C1964 H1986 0.931 . S
C1965 C1962 1.481 . S
C1965 C1966 1.387 . S
C1965 C1970 1.390 . S
C1966 C1965 1.387 . S
C1966 C1967 1.401 . S
C1966 H1987 0.930 . S
C1967 C1966 1.401 . S
C1967 C1968 1.376 . S
C1967 C1976 1.511 . S
C1968 C1967 1.376 . S
C1968 C1969 1.392 . S
C1968 H1989 0.931 . S
C1969 C1968 1.392 . S
C1969 C1970 1.361 . S
C1969 C1971 1.500 . S
C1970 C1965 1.390 . S
C1970 C1969 1.361 . S
C1970 H1988 0.931 . S
C1971 C1969 1.500 . S
C1971 C1972 1.371 . S
C1971 C1973 1.365 . S
C1972 C1971 1.371 . S
C1972 C1982 1.386 . S
C1972 H1990 0.931 . S
C1973 C1971 1.365 . S
C1973 C1974 1.409 . S
C1973 H1991 0.929 . S
C1974 C1973 1.409 . S
C1974 C1975 1.380 . S
C1974 H1992 0.930 . S
C1975 C1974 1.380 . S
C1975 C1982 1.357 . S
C1976 C1967 1.511 . S
C1976 C1977 1.341 . S
C1976 C1978 1.371 . S
C1977 C1976 1.341 . S
C1977 C1981 1.394 . S
C1977 H1993 0.930 . S
C1978 C1976 1.371 . S
C1978 C1979 1.392 . S
C1978 H1994 0.931 . S
C1979 C1978 1.392 . S
C1979 C1980 1.331 . S
C1979 H1997 0.932 . S
C1980 C1979 1.331 . S
C1980 C1981 1.336 . S
C1981 C1977 1.394 . S
C1981 C1980 1.336 . S
C1981 H1996 0.929 . S
C1982 C1972 1.386 . S
C1982 C1975 1.357 . S
C1982 H1995 0.928 . S
H1983 C1959 0.931 . S
H1984 C1961 0.930 . S
H1985 C1963 0.929 . S
H1986 C1964 0.931 . S
H1987 C1966 0.930 . S
H1988 C1970 0.931 . S
H1989 C1968 0.931 . S
H1990 C1972 0.931 . S
H1991 C1973 0.929 . S
H1992 C1974 0.930 . S
H1993 C1977 0.930 . S
H1994 C1978 0.931 . S
H1995 C1982 0.928 . S
H1996 C1981 0.929 . S
H1997 C1979 0.932 . S
C1998 C1999 1.386 . S
C1998 C2000 1.397 . S
C1998 H2022 0.931 . S
C1999 C1998 1.386 . S
C1999 C2003 1.397 . S
C2000 C1998 1.397 . S
C2000 C2001 1.384 . S
C2000 H2023 0.930 . S
C2001 C2000 1.384 . S
C2001 C2002 1.377 . S
C2001 C2004 1.481 . S
C2002 C2001 1.377 . S
C2002 C2003 1.389 . S
C2002 H2024 0.929 . S
C2003 C1999 1.397 . S
C2003 C2002 1.389 . S
C2003 H2025 0.931 . S
C2004 C2001 1.481 . S
C2004 C2005 1.387 . S
C2004 C2009 1.390 . S
C2005 C2004 1.387 . S
C2005 C2006 1.401 . S
C2005 H2026 0.930 . S
C2006 C2005 1.401 . S
C2006 C2007 1.376 . S
C2006 C2015 1.511 . S
C2007 C2006 1.376 . S
C2007 C2008 1.392 . S
C2007 H2028 0.931 . S
C2008 C2007 1.392 . S
C2008 C2009 1.361 . S
C2008 C2010 1.500 . S
C2009 C2004 1.390 . S
C2009 C2008 1.361 . S
C2009 H2027 0.931 . S
C2010 C2008 1.500 . S
C2010 C2011 1.371 . S
C2010 C2012 1.365 . S
C2011 C2010 1.371 . S
C2011 C2021 1.386 . S
C2011 H2029 0.931 . S
C2012 C2010 1.365 . S
C2012 C2013 1.409 . S
C2012 H2030 0.929 . S
C2013 C2012 1.409 . S
C2013 C2014 1.380 . S
C2013 H2031 0.930 . S
C2014 C2013 1.380 . S
C2014 C2021 1.357 . S
C2015 C2006 1.511 . S
C2015 C2016 1.341 . S
C2015 C2017 1.371 . S
C2016 C2015 1.341 . S
C2016 C2020 1.394 . S
C2016 H2032 0.930 . S
C2017 C2015 1.371 . S
C2017 C2018 1.392 . S
C2017 H2033 0.931 . S
C2018 C2017 1.392 . S
C2018 C2019 1.331 . S
C2018 H2036 0.932 . S
C2019 C2018 1.331 . S
C2019 C2020 1.336 . S
C2020 C2016 1.394 . S
C2020 C2019 1.336 . S
C2020 H2035 0.929 . S
C2021 C2011 1.386 . S
C2021 C2014 1.357 . S
C2021 H2034 0.928 . S
H2022 C1998 0.931 . S
H2023 C2000 0.930 . S
H2024 C2002 0.929 . S
H2025 C2003 0.931 . S
H2026 C2005 0.930 . S
H2027 C2009 0.931 . S
H2028 C2007 0.931 . S
H2029 C2011 0.931 . S
H2030 C2012 0.929 . S
H2031 C2013 0.930 . S
H2032 C2016 0.930 . S
H2033 C2017 0.931 . S
H2034 C2021 0.928 . S
H2035 C2020 0.929 . S
H2036 C2018 0.932 . S
C2037 C2038 1.386 . S
C2037 C2039 1.397 . S
C2037 H2061 0.931 . S
C2038 C2037 1.386 . S
C2038 C2042 1.397 . S
C2039 C2037 1.397 . S
C2039 C2040 1.384 . S
C2039 H2062 0.930 . S
C2040 C2039 1.384 . S
C2040 C2041 1.377 . S
C2040 C2043 1.481 . S
C2041 C2040 1.377 . S
C2041 C2042 1.389 . S
C2041 H2063 0.929 . S
C2042 C2038 1.397 . S
C2042 C2041 1.389 . S
C2042 H2064 0.931 . S
C2043 C2040 1.481 . S
C2043 C2044 1.387 . S
C2043 C2048 1.390 . S
C2044 C2043 1.387 . S
C2044 C2045 1.401 . S
C2044 H2065 0.930 . S
C2045 C2044 1.401 . S
C2045 C2046 1.376 . S
C2045 C2054 1.511 . S
C2046 C2045 1.376 . S
C2046 C2047 1.392 . S
C2046 H2067 0.931 . S
C2047 C2046 1.392 . S
C2047 C2048 1.361 . S
C2047 C2049 1.500 . S
C2048 C2043 1.390 . S
C2048 C2047 1.361 . S
C2048 H2066 0.931 . S
C2049 C2047 1.500 . S
C2049 C2050 1.371 . S
C2049 C2051 1.365 . S
C2050 C2049 1.371 . S
C2050 C2060 1.386 . S
C2050 H2068 0.931 . S
C2051 C2049 1.365 . S
C2051 C2052 1.409 . S
C2051 H2069 0.929 . S
C2052 C2051 1.409 . S
C2052 C2053 1.380 . S
C2052 H2070 0.930 . S
C2053 C2052 1.380 . S
C2053 C2060 1.357 . S
C2054 C2045 1.511 . S
C2054 C2055 1.341 . S
C2054 C2056 1.371 . S
C2055 C2054 1.341 . S
C2055 C2059 1.394 . S
C2055 H2071 0.930 . S
C2056 C2054 1.371 . S
C2056 C2057 1.392 . S
C2056 H2072 0.931 . S
C2057 C2056 1.392 . S
C2057 C2058 1.331 . S
C2057 H2075 0.932 . S
C2058 C2057 1.331 . S
C2058 C2059 1.336 . S
C2059 C2055 1.394 . S
C2059 C2058 1.336 . S
C2059 H2074 0.929 . S
C2060 C2050 1.386 . S
C2060 C2053 1.357 . S
C2060 H2073 0.928 . S
H2061 C2037 0.931 . S
H2062 C2039 0.930 . S
H2063 C2041 0.929 . S
H2064 C2042 0.931 . S
H2065 C2044 0.930 . S
H2066 C2048 0.931 . S
H2067 C2046 0.931 . S
H2068 C2050 0.931 . S
H2069 C2051 0.929 . S
H2070 C2052 0.930 . S
H2071 C2055 0.930 . S
H2072 C2056 0.931 . S
H2073 C2060 0.928 . S
H2074 C2059 0.929 . S
H2075 C2057 0.932 . S
C2076 C2077 1.386 . S
C2076 C2078 1.397 . S
C2076 H2100 0.931 . S
C2077 C2076 1.386 . S
C2077 C2081 1.397 . S
C2078 C2076 1.397 . S
C2078 C2079 1.384 . S
C2078 H2101 0.930 . S
C2079 C2078 1.384 . S
C2079 C2080 1.377 . S
C2079 C2082 1.481 . S
C2080 C2079 1.377 . S
C2080 C2081 1.389 . S
C2080 H2102 0.929 . S
C2081 C2077 1.397 . S
C2081 C2080 1.389 . S
C2081 H2103 0.931 . S
C2082 C2079 1.481 . S
C2082 C2083 1.387 . S
C2082 C2087 1.390 . S
C2083 C2082 1.387 . S
C2083 C2084 1.401 . S
C2083 H2104 0.930 . S
C2084 C2083 1.401 . S
C2084 C2085 1.376 . S
C2084 C2093 1.511 . S
C2085 C2084 1.376 . S
C2085 C2086 1.392 . S
C2085 H2106 0.931 . S
C2086 C2085 1.392 . S
C2086 C2087 1.361 . S
C2086 C2088 1.500 . S
C2087 C2082 1.390 . S
C2087 C2086 1.361 . S
C2087 H2105 0.931 . S
C2088 C2086 1.500 . S
C2088 C2089 1.371 . S
C2088 C2090 1.365 . S
C2089 C2088 1.371 . S
C2089 C2099 1.386 . S
C2089 H2107 0.931 . S
C2090 C2088 1.365 . S
C2090 C2091 1.409 . S
C2090 H2108 0.929 . S
C2091 C2090 1.409 . S
C2091 C2092 1.380 . S
C2091 H2109 0.930 . S
C2092 C2091 1.380 . S
C2092 C2099 1.357 . S
C2093 C2084 1.511 . S
C2093 C2094 1.341 . S
C2093 C2095 1.371 . S
C2094 C2093 1.341 . S
C2094 C2098 1.394 . S
C2094 H2110 0.930 . S
C2095 C2093 1.371 . S
C2095 C2096 1.392 . S
C2095 H2111 0.931 . S
C2096 C2095 1.392 . S
C2096 C2097 1.331 . S
C2096 H2114 0.932 . S
C2097 C2096 1.331 . S
C2097 C2098 1.336 . S
C2098 C2094 1.394 . S
C2098 C2097 1.336 . S
C2098 H2113 0.929 . S
C2099 C2089 1.386 . S
C2099 C2092 1.357 . S
C2099 H2112 0.928 . S
H2100 C2076 0.931 . S
H2101 C2078 0.930 . S
H2102 C2080 0.929 . S
H2103 C2081 0.931 . S
H2104 C2083 0.930 . S
H2105 C2087 0.931 . S
H2106 C2085 0.931 . S
H2107 C2089 0.931 . S
H2108 C2090 0.929 . S
H2109 C2091 0.930 . S
H2110 C2094 0.930 . S
H2111 C2095 0.931 . S
H2112 C2099 0.928 . S
H2113 C2098 0.929 . S
H2114 C2096 0.932 . S
C2115 C2116 1.386 . S
C2115 C2117 1.397 . S
C2115 H2139 0.931 . S
C2116 C2115 1.386 . S
C2116 C2120 1.397 . S
C2117 C2115 1.397 . S
C2117 C2118 1.384 . S
C2117 H2140 0.930 . S
C2118 C2117 1.384 . S
C2118 C2119 1.377 . S
C2118 C2121 1.481 . S
C2119 C2118 1.377 . S
C2119 C2120 1.389 . S
C2119 H2141 0.929 . S
C2120 C2116 1.397 . S
C2120 C2119 1.389 . S
C2120 H2142 0.931 . S
C2121 C2118 1.481 . S
C2121 C2122 1.387 . S
C2121 C2126 1.390 . S
C2122 C2121 1.387 . S
C2122 C2123 1.401 . S
C2122 H2143 0.930 . S
C2123 C2122 1.401 . S
C2123 C2124 1.376 . S
C2123 C2132 1.511 . S
C2124 C2123 1.376 . S
C2124 C2125 1.392 . S
C2124 H2145 0.931 . S
C2125 C2124 1.392 . S
C2125 C2126 1.361 . S
C2125 C2127 1.500 . S
C2126 C2121 1.390 . S
C2126 C2125 1.361 . S
C2126 H2144 0.931 . S
C2127 C2125 1.500 . S
C2127 C2128 1.371 . S
C2127 C2129 1.365 . S
C2128 C2127 1.371 . S
C2128 C2138 1.386 . S
C2128 H2146 0.931 . S
C2129 C2127 1.365 . S
C2129 C2130 1.409 . S
C2129 H2147 0.929 . S
C2130 C2129 1.409 . S
C2130 C2131 1.380 . S
C2130 H2148 0.930 . S
C2131 C2130 1.380 . S
C2131 C2138 1.357 . S
C2132 C2123 1.511 . S
C2132 C2133 1.341 . S
C2132 C2134 1.371 . S
C2133 C2132 1.341 . S
C2133 C2137 1.394 . S
C2133 H2149 0.930 . S
C2134 C2132 1.371 . S
C2134 C2135 1.392 . S
C2134 H2150 0.931 . S
C2135 C2134 1.392 . S
C2135 C2136 1.331 . S
C2135 H2153 0.932 . S
C2136 C2135 1.331 . S
C2136 C2137 1.336 . S
C2137 C2133 1.394 . S
C2137 C2136 1.336 . S
C2137 H2152 0.929 . S
C2138 C2128 1.386 . S
C2138 C2131 1.357 . S
C2138 H2151 0.928 . S
H2139 C2115 0.931 . S
H2140 C2117 0.930 . S
H2141 C2119 0.929 . S
H2142 C2120 0.931 . S
H2143 C2122 0.930 . S
H2144 C2126 0.931 . S
H2145 C2124 0.931 . S
H2146 C2128 0.931 . S
H2147 C2129 0.929 . S
H2148 C2130 0.930 . S
H2149 C2133 0.930 . S
H2150 C2134 0.931 . S
H2151 C2138 0.928 . S
H2152 C2137 0.929 . S
H2153 C2135 0.932 . S
C2154 C2155 1.386 . S
C2154 C2156 1.397 . S
C2154 H2178 0.931 . S
C2155 C2154 1.386 . S
C2155 C2159 1.397 . S
C2156 C2154 1.397 . S
C2156 C2157 1.384 . S
C2156 H2179 0.930 . S
C2157 C2156 1.384 . S
C2157 C2158 1.377 . S
C2157 C2160 1.481 . S
C2158 C2157 1.377 . S
C2158 C2159 1.389 . S
C2158 H2180 0.929 . S
C2159 C2155 1.397 . S
C2159 C2158 1.389 . S
C2159 H2181 0.931 . S
C2160 C2157 1.481 . S
C2160 C2161 1.387 . S
C2160 C2165 1.390 . S
C2161 C2160 1.387 . S
C2161 C2162 1.401 . S
C2161 H2182 0.930 . S
C2162 C2161 1.401 . S
C2162 C2163 1.376 . S
C2162 C2171 1.511 . S
C2163 C2162 1.376 . S
C2163 C2164 1.392 . S
C2163 H2184 0.931 . S
C2164 C2163 1.392 . S
C2164 C2165 1.361 . S
C2164 C2166 1.500 . S
C2165 C2160 1.390 . S
C2165 C2164 1.361 . S
C2165 H2183 0.931 . S
C2166 C2164 1.500 . S
C2166 C2167 1.371 . S
C2166 C2168 1.365 . S
C2167 C2166 1.371 . S
C2167 C2177 1.386 . S
C2167 H2185 0.931 . S
C2168 C2166 1.365 . S
C2168 C2169 1.409 . S
C2168 H2186 0.929 . S
C2169 C2168 1.409 . S
C2169 C2170 1.380 . S
C2169 H2187 0.930 . S
C2170 C2169 1.380 . S
C2170 C2177 1.357 . S
C2171 C2162 1.511 . S
C2171 C2172 1.341 . S
C2171 C2173 1.371 . S
C2172 C2171 1.341 . S
C2172 C2176 1.394 . S
C2172 H2188 0.930 . S
C2173 C2171 1.371 . S
C2173 C2174 1.392 . S
C2173 H2189 0.931 . S
C2174 C2173 1.392 . S
C2174 C2175 1.331 . S
C2174 H2192 0.932 . S
C2175 C2174 1.331 . S
C2175 C2176 1.336 . S
C2176 C2172 1.394 . S
C2176 C2175 1.336 . S
C2176 H2191 0.929 . S
C2177 C2167 1.386 . S
C2177 C2170 1.357 . S
C2177 H2190 0.928 . S
H2178 C2154 0.931 . S
H2179 C2156 0.930 . S
H2180 C2158 0.929 . S
H2181 C2159 0.931 . S
H2182 C2161 0.930 . S
H2183 C2165 0.931 . S
H2184 C2163 0.931 . S
H2185 C2167 0.931 . S
H2186 C2168 0.929 . S
H2187 C2169 0.930 . S
H2188 C2172 0.930 . S
H2189 C2173 0.931 . S
H2190 C2177 0.928 . S
H2191 C2176 0.929 . S
H2192 C2174 0.932 . S
C2193 C2194 1.386 . S
C2193 C2195 1.397 . S
C2193 H2217 0.931 . S
C2194 C2193 1.386 . S
C2194 C2198 1.397 . S
C2195 C2193 1.397 . S
C2195 C2196 1.384 . S
C2195 H2218 0.930 . S
C2196 C2195 1.384 . S
C2196 C2197 1.377 . S
C2196 C2199 1.481 . S
C2197 C2196 1.377 . S
C2197 C2198 1.389 . S
C2197 H2219 0.929 . S
C2198 C2194 1.397 . S
C2198 C2197 1.389 . S
C2198 H2220 0.931 . S
C2199 C2196 1.481 . S
C2199 C2200 1.387 . S
C2199 C2204 1.390 . S
C2200 C2199 1.387 . S
C2200 C2201 1.401 . S
C2200 H2221 0.930 . S
C2201 C2200 1.401 . S
C2201 C2202 1.376 . S
C2201 C2210 1.511 . S
C2202 C2201 1.376 . S
C2202 C2203 1.392 . S
C2202 H2223 0.931 . S
C2203 C2202 1.392 . S
C2203 C2204 1.361 . S
C2203 C2205 1.500 . S
C2204 C2199 1.390 . S
C2204 C2203 1.361 . S
C2204 H2222 0.931 . S
C2205 C2203 1.500 . S
C2205 C2206 1.371 . S
C2205 C2207 1.365 . S
C2206 C2205 1.371 . S
C2206 C2216 1.386 . S
C2206 H2224 0.931 . S
C2207 C2205 1.365 . S
C2207 C2208 1.409 . S
C2207 H2225 0.929 . S
C2208 C2207 1.409 . S
C2208 C2209 1.380 . S
C2208 H2226 0.930 . S
C2209 C2208 1.380 . S
C2209 C2216 1.357 . S
C2210 C2201 1.511 . S
C2210 C2211 1.341 . S
C2210 C2212 1.371 . S
C2211 C2210 1.341 . S
C2211 C2215 1.394 . S
C2211 H2227 0.930 . S
C2212 C2210 1.371 . S
C2212 C2213 1.392 . S
C2212 H2228 0.931 . S
C2213 C2212 1.392 . S
C2213 C2214 1.331 . S
C2213 H2231 0.932 . S
C2214 C2213 1.331 . S
C2214 C2215 1.336 . S
C2215 C2211 1.394 . S
C2215 C2214 1.336 . S
C2215 H2230 0.929 . S
C2216 C2206 1.386 . S
C2216 C2209 1.357 . S
C2216 H2229 0.928 . S
H2217 C2193 0.931 . S
H2218 C2195 0.930 . S
H2219 C2197 0.929 . S
H2220 C2198 0.931 . S
H2221 C2200 0.930 . S
H2222 C2204 0.931 . S
H2223 C2202 0.931 . S
H2224 C2206 0.931 . S
H2225 C2207 0.929 . S
H2226 C2208 0.930 . S
H2227 C2211 0.930 . S
H2228 C2212 0.931 . S
H2229 C2216 0.928 . S
H2230 C2215 0.929 . S
H2231 C2213 0.932 . S
C2232 C2233 1.386 . S
C2232 C2234 1.397 . S
C2232 H2256 0.931 . S
C2233 C2232 1.386 . S
C2233 C2237 1.397 . S
C2234 C2232 1.397 . S
C2234 C2235 1.384 . S
C2234 H2257 0.930 . S
C2235 C2234 1.384 . S
C2235 C2236 1.377 . S
C2235 C2238 1.481 . S
C2236 C2235 1.377 . S
C2236 C2237 1.389 . S
C2236 H2258 0.929 . S
C2237 C2233 1.397 . S
C2237 C2236 1.389 . S
C2237 H2259 0.931 . S
C2238 C2235 1.481 . S
C2238 C2239 1.387 . S
C2238 C2243 1.390 . S
C2239 C2238 1.387 . S
C2239 C2240 1.401 . S
C2239 H2260 0.930 . S
C2240 C2239 1.401 . S
C2240 C2241 1.376 . S
C2240 C2249 1.511 . S
C2241 C2240 1.376 . S
C2241 C2242 1.392 . S
C2241 H2262 0.931 . S
C2242 C2241 1.392 . S
C2242 C2243 1.361 . S
C2242 C2244 1.500 . S
C2243 C2238 1.390 . S
C2243 C2242 1.361 . S
C2243 H2261 0.931 . S
C2244 C2242 1.500 . S
C2244 C2245 1.371 . S
C2244 C2246 1.365 . S
C2245 C2244 1.371 . S
C2245 C2255 1.386 . S
C2245 H2263 0.931 . S
C2246 C2244 1.365 . S
C2246 C2247 1.409 . S
C2246 H2264 0.929 . S
C2247 C2246 1.409 . S
C2247 C2248 1.380 . S
C2247 H2265 0.930 . S
C2248 C2247 1.380 . S
C2248 C2255 1.357 . S
C2249 C2240 1.511 . S
C2249 C2250 1.341 . S
C2249 C2251 1.371 . S
C2250 C2249 1.341 . S
C2250 C2254 1.394 . S
C2250 H2266 0.930 . S
C2251 C2249 1.371 . S
C2251 C2252 1.392 . S
C2251 H2267 0.931 . S
C2252 C2251 1.392 . S
C2252 C2253 1.331 . S
C2252 H2270 0.932 . S
C2253 C2252 1.331 . S
C2253 C2254 1.336 . S
C2254 C2250 1.394 . S
C2254 C2253 1.336 . S
C2254 H2269 0.929 . S
C2255 C2245 1.386 . S
C2255 C2248 1.357 . S
C2255 H2268 0.928 . S
H2256 C2232 0.931 . S
H2257 C2234 0.930 . S
H2258 C2236 0.929 . S
H2259 C2237 0.931 . S
H2260 C2239 0.930 . S
H2261 C2243 0.931 . S
H2262 C2241 0.931 . S
H2263 C2245 0.931 . S
H2264 C2246 0.929 . S
H2265 C2247 0.930 . S
H2266 C2250 0.930 . S
H2267 C2251 0.931 . S
H2268 C2255 0.928 . S
H2269 C2254 0.929 . S
H2270 C2252 0.932 . S
C2271 C2272 1.386 . S
C2271 C2273 1.397 . S
C2271 H2295 0.931 . S
C2272 C2271 1.386 . S
C2272 C2276 1.397 . S
C2273 C2271 1.397 . S
C2273 C2274 1.384 . S
C2273 H2296 0.930 . S
C2274 C2273 1.384 . S
C2274 C2275 1.377 . S
C2274 C2277 1.481 . S
C2275 C2274 1.377 . S
C2275 C2276 1.389 . S
C2275 H2297 0.929 . S
C2276 C2272 1.397 . S
C2276 C2275 1.389 . S
C2276 H2298 0.931 . S
C2277 C2274 1.481 . S
C2277 C2278 1.387 . S
C2277 C2282 1.390 . S
C2278 C2277 1.387 . S
C2278 C2279 1.401 . S
C2278 H2299 0.930 . S
C2279 C2278 1.401 . S
C2279 C2280 1.376 . S
C2279 C2288 1.511 . S
C2280 C2279 1.376 . S
C2280 C2281 1.392 . S
C2280 H2301 0.931 . S
C2281 C2280 1.392 . S
C2281 C2282 1.361 . S
C2281 C2283 1.500 . S
C2282 C2277 1.390 . S
C2282 C2281 1.361 . S
C2282 H2300 0.931 . S
C2283 C2281 1.500 . S
C2283 C2284 1.371 . S
C2283 C2285 1.365 . S
C2284 C2283 1.371 . S
C2284 C2294 1.386 . S
C2284 H2302 0.931 . S
C2285 C2283 1.365 . S
C2285 C2286 1.409 . S
C2285 H2303 0.929 . S
C2286 C2285 1.409 . S
C2286 C2287 1.380 . S
C2286 H2304 0.930 . S
C2287 C2286 1.380 . S
C2287 C2294 1.357 . S
C2288 C2279 1.511 . S
C2288 C2289 1.341 . S
C2288 C2290 1.371 . S
C2289 C2288 1.341 . S
C2289 C2293 1.394 . S
C2289 H2305 0.930 . S
C2290 C2288 1.371 . S
C2290 C2291 1.392 . S
C2290 H2306 0.931 . S
C2291 C2290 1.392 . S
C2291 C2292 1.331 . S
C2291 H2309 0.932 . S
C2292 C2291 1.331 . S
C2292 C2293 1.336 . S
C2293 C2289 1.394 . S
C2293 C2292 1.336 . S
C2293 H2308 0.929 . S
C2294 C2284 1.386 . S
C2294 C2287 1.357 . S
C2294 H2307 0.928 . S
H2295 C2271 0.931 . S
H2296 C2273 0.930 . S
H2297 C2275 0.929 . S
H2298 C2276 0.931 . S
H2299 C2278 0.930 . S
H2300 C2282 0.931 . S
H2301 C2280 0.931 . S
H2302 C2284 0.931 . S
H2303 C2285 0.929 . S
H2304 C2286 0.930 . S
H2305 C2289 0.930 . S
H2306 C2290 0.931 . S
H2307 C2294 0.928 . S
H2308 C2293 0.929 . S
H2309 C2291 0.932 . S
C2310 C2311 1.386 . S
C2310 C2312 1.397 . S
C2310 H2334 0.931 . S
C2311 C2310 1.386 . S
C2311 C2315 1.397 . S
C2312 C2310 1.397 . S
C2312 C2313 1.384 . S
C2312 H2335 0.930 . S
C2313 C2312 1.384 . S
C2313 C2314 1.377 . S
C2313 C2316 1.481 . S
C2314 C2313 1.377 . S
C2314 C2315 1.389 . S
C2314 H2336 0.929 . S
C2315 C2311 1.397 . S
C2315 C2314 1.389 . S
C2315 H2337 0.931 . S
C2316 C2313 1.481 . S
C2316 C2317 1.387 . S
C2316 C2321 1.390 . S
C2317 C2316 1.387 . S
C2317 C2318 1.401 . S
C2317 H2338 0.930 . S
C2318 C2317 1.401 . S
C2318 C2319 1.376 . S
C2318 C2327 1.511 . S
C2319 C2318 1.376 . S
C2319 C2320 1.392 . S
C2319 H2340 0.931 . S
C2320 C2319 1.392 . S
C2320 C2321 1.361 . S
C2320 C2322 1.500 . S
C2321 C2316 1.390 . S
C2321 C2320 1.361 . S
C2321 H2339 0.931 . S
C2322 C2320 1.500 . S
C2322 C2323 1.371 . S
C2322 C2324 1.365 . S
C2323 C2322 1.371 . S
C2323 C2333 1.386 . S
C2323 H2341 0.931 . S
C2324 C2322 1.365 . S
C2324 C2325 1.409 . S
C2324 H2342 0.929 . S
C2325 C2324 1.409 . S
C2325 C2326 1.380 . S
C2325 H2343 0.930 . S
C2326 C2325 1.380 . S
C2326 C2333 1.357 . S
C2327 C2318 1.511 . S
C2327 C2328 1.341 . S
C2327 C2329 1.371 . S
C2328 C2327 1.341 . S
C2328 C2332 1.394 . S
C2328 H2344 0.930 . S
C2329 C2327 1.371 . S
C2329 C2330 1.392 . S
C2329 H2345 0.931 . S
C2330 C2329 1.392 . S
C2330 C2331 1.331 . S
C2330 H2348 0.932 . S
C2331 C2330 1.331 . S
C2331 C2332 1.336 . S
C2332 C2328 1.394 . S
C2332 C2331 1.336 . S
C2332 H2347 0.929 . S
C2333 C2323 1.386 . S
C2333 C2326 1.357 . S
C2333 H2346 0.928 . S
H2334 C2310 0.931 . S
H2335 C2312 0.930 . S
H2336 C2314 0.929 . S
H2337 C2315 0.931 . S
H2338 C2317 0.930 . S
H2339 C2321 0.931 . S
H2340 C2319 0.931 . S
H2341 C2323 0.931 . S
H2342 C2324 0.929 . S
H2343 C2325 0.930 . S
H2344 C2328 0.930 . S
H2345 C2329 0.931 . S
H2346 C2333 0.928 . S
H2347 C2332 0.929 . S
H2348 C2330 0.932 . S
C2349 C2350 1.386 . S
C2349 C2351 1.397 . S
C2349 H2373 0.931 . S
C2350 C2349 1.386 . S
C2350 C2354 1.397 . S
C2351 C2349 1.397 . S
C2351 C2352 1.384 . S
C2351 H2374 0.930 . S
C2352 C2351 1.384 . S
C2352 C2353 1.377 . S
C2352 C2355 1.481 . S
C2353 C2352 1.377 . S
C2353 C2354 1.389 . S
C2353 H2375 0.929 . S
C2354 C2350 1.397 . S
C2354 C2353 1.389 . S
C2354 H2376 0.931 . S
C2355 C2352 1.481 . S
C2355 C2356 1.387 . S
C2355 C2360 1.390 . S
C2356 C2355 1.387 . S
C2356 C2357 1.401 . S
C2356 H2377 0.930 . S
C2357 C2356 1.401 . S
C2357 C2358 1.376 . S
C2357 C2366 1.511 . S
C2358 C2357 1.376 . S
C2358 C2359 1.392 . S
C2358 H2379 0.931 . S
C2359 C2358 1.392 . S
C2359 C2360 1.361 . S
C2359 C2361 1.500 . S
C2360 C2355 1.390 . S
C2360 C2359 1.361 . S
C2360 H2378 0.931 . S
C2361 C2359 1.500 . S
C2361 C2362 1.371 . S
C2361 C2363 1.365 . S
C2362 C2361 1.371 . S
C2362 C2372 1.386 . S
C2362 H2380 0.931 . S
C2363 C2361 1.365 . S
C2363 C2364 1.409 . S
C2363 H2381 0.929 . S
C2364 C2363 1.409 . S
C2364 C2365 1.380 . S
C2364 H2382 0.930 . S
C2365 C2364 1.380 . S
C2365 C2372 1.357 . S
C2366 C2357 1.511 . S
C2366 C2367 1.341 . S
C2366 C2368 1.371 . S
C2367 C2366 1.341 . S
C2367 C2371 1.394 . S
C2367 H2383 0.930 . S
C2368 C2366 1.371 . S
C2368 C2369 1.392 . S
C2368 H2384 0.931 . S
C2369 C2368 1.392 . S
C2369 C2370 1.331 . S
C2369 H2387 0.932 . S
C2370 C2369 1.331 . S
C2370 C2371 1.336 . S
C2371 C2367 1.394 . S
C2371 C2370 1.336 . S
C2371 H2386 0.929 . S
C2372 C2362 1.386 . S
C2372 C2365 1.357 . S
C2372 H2385 0.928 . S
H2373 C2349 0.931 . S
H2374 C2351 0.930 . S
H2375 C2353 0.929 . S
H2376 C2354 0.931 . S
H2377 C2356 0.930 . S
H2378 C2360 0.931 . S
H2379 C2358 0.931 . S
H2380 C2362 0.931 . S
H2381 C2363 0.929 . S
H2382 C2364 0.930 . S
H2383 C2367 0.930 . S
H2384 C2368 0.931 . S
H2385 C2372 0.928 . S
H2386 C2371 0.929 . S
H2387 C2369 0.932 . S
C2388 C2389 1.386 . S
C2388 C2390 1.397 . S
C2388 H2412 0.931 . S
C2389 C2388 1.386 . S
C2389 C2393 1.397 . S
C2390 C2388 1.397 . S
C2390 C2391 1.384 . S
C2390 H2413 0.930 . S
C2391 C2390 1.384 . S
C2391 C2392 1.377 . S
C2391 C2394 1.481 . S
C2392 C2391 1.377 . S
C2392 C2393 1.389 . S
C2392 H2414 0.929 . S
C2393 C2389 1.397 . S
C2393 C2392 1.389 . S
C2393 H2415 0.931 . S
C2394 C2391 1.481 . S
C2394 C2395 1.387 . S
C2394 C2399 1.390 . S
C2395 C2394 1.387 . S
C2395 C2396 1.401 . S
C2395 H2416 0.930 . S
C2396 C2395 1.401 . S
C2396 C2397 1.376 . S
C2396 C2405 1.511 . S
C2397 C2396 1.376 . S
C2397 C2398 1.392 . S
C2397 H2418 0.931 . S
C2398 C2397 1.392 . S
C2398 C2399 1.361 . S
C2398 C2400 1.500 . S
C2399 C2394 1.390 . S
C2399 C2398 1.361 . S
C2399 H2417 0.931 . S
C2400 C2398 1.500 . S
C2400 C2401 1.371 . S
C2400 C2402 1.365 . S
C2401 C2400 1.371 . S
C2401 C2411 1.386 . S
C2401 H2419 0.931 . S
C2402 C2400 1.365 . S
C2402 C2403 1.409 . S
C2402 H2420 0.929 . S
C2403 C2402 1.409 . S
C2403 C2404 1.380 . S
C2403 H2421 0.930 . S
C2404 C2403 1.380 . S
C2404 C2411 1.357 . S
C2405 C2396 1.511 . S
C2405 C2406 1.341 . S
C2405 C2407 1.371 . S
C2406 C2405 1.341 . S
C2406 C2410 1.394 . S
C2406 H2422 0.930 . S
C2407 C2405 1.371 . S
C2407 C2408 1.392 . S
C2407 H2423 0.931 . S
C2408 C2407 1.392 . S
C2408 C2409 1.331 . S
C2408 H2426 0.932 . S
C2409 C2408 1.331 . S
C2409 C2410 1.336 . S
C2410 C2406 1.394 . S
C2410 C2409 1.336 . S
C2410 H2425 0.929 . S
C2411 C2401 1.386 . S
C2411 C2404 1.357 . S
C2411 H2424 0.928 . S
H2412 C2388 0.931 . S
H2413 C2390 0.930 . S
H2414 C2392 0.929 . S
H2415 C2393 0.931 . S
H2416 C2395 0.930 . S
H2417 C2399 0.931 . S
H2418 C2397 0.931 . S
H2419 C2401 0.931 . S
H2420 C2402 0.929 . S
H2421 C2403 0.930 . S
H2422 C2406 0.930 . S
H2423 C2407 0.931 . S
H2424 C2411 0.928 . S
H2425 C2410 0.929 . S
H2426 C2408 0.932 . S
C2427 C2428 1.386 . S
C2427 C2429 1.397 . S
C2427 H2451 0.931 . S
C2428 C2427 1.386 . S
C2428 C2432 1.397 . S
C2429 C2427 1.397 . S
C2429 C2430 1.384 . S
C2429 H2452 0.930 . S
C2430 C2429 1.384 . S
C2430 C2431 1.377 . S
C2430 C2433 1.481 . S
C2431 C2430 1.377 . S
C2431 C2432 1.389 . S
C2431 H2453 0.929 . S
C2432 C2428 1.397 . S
C2432 C2431 1.389 . S
C2432 H2454 0.931 . S
C2433 C2430 1.481 . S
C2433 C2434 1.387 . S
C2433 C2438 1.390 . S
C2434 C2433 1.387 . S
C2434 C2435 1.401 . S
C2434 H2455 0.930 . S
C2435 C2434 1.401 . S
C2435 C2436 1.376 . S
C2435 C2444 1.511 . S
C2436 C2435 1.376 . S
C2436 C2437 1.392 . S
C2436 H2457 0.931 . S
C2437 C2436 1.392 . S
C2437 C2438 1.361 . S
C2437 C2439 1.500 . S
C2438 C2433 1.390 . S
C2438 C2437 1.361 . S
C2438 H2456 0.931 . S
C2439 C2437 1.500 . S
C2439 C2440 1.371 . S
C2439 C2441 1.365 . S
C2440 C2439 1.371 . S
C2440 C2450 1.386 . S
C2440 H2458 0.931 . S
C2441 C2439 1.365 . S
C2441 C2442 1.409 . S
C2441 H2459 0.929 . S
C2442 C2441 1.409 . S
C2442 C2443 1.380 . S
C2442 H2460 0.930 . S
C2443 C2442 1.380 . S
C2443 C2450 1.357 . S
C2444 C2435 1.511 . S
C2444 C2445 1.341 . S
C2444 C2446 1.371 . S
C2445 C2444 1.341 . S
C2445 C2449 1.394 . S
C2445 H2461 0.930 . S
C2446 C2444 1.371 . S
C2446 C2447 1.392 . S
C2446 H2462 0.931 . S
C2447 C2446 1.392 . S
C2447 C2448 1.331 . S
C2447 H2465 0.932 . S
C2448 C2447 1.331 . S
C2448 C2449 1.336 . S
C2449 C2445 1.394 . S
C2449 C2448 1.336 . S
C2449 H2464 0.929 . S
C2450 C2440 1.386 . S
C2450 C2443 1.357 . S
C2450 H2463 0.928 . S
H2451 C2427 0.931 . S
H2452 C2429 0.930 . S
H2453 C2431 0.929 . S
H2454 C2432 0.931 . S
H2455 C2434 0.930 . S
H2456 C2438 0.931 . S
H2457 C2436 0.931 . S
H2458 C2440 0.931 . S
H2459 C2441 0.929 . S
H2460 C2442 0.930 . S
H2461 C2445 0.930 . S
H2462 C2446 0.931 . S
H2463 C2450 0.928 . S
H2464 C2449 0.929 . S
H2465 C2447 0.932 . S
C2466 C2467 1.386 . S
C2466 C2468 1.397 . S
C2466 H2490 0.931 . S
C2467 C2466 1.386 . S
C2467 C2471 1.397 . S
C2468 C2466 1.397 . S
C2468 C2469 1.384 . S
C2468 H2491 0.930 . S
C2469 C2468 1.384 . S
C2469 C2470 1.377 . S
C2469 C2472 1.481 . S
C2470 C2469 1.377 . S
C2470 C2471 1.389 . S
C2470 H2492 0.929 . S
C2471 C2467 1.397 . S
C2471 C2470 1.389 . S
C2471 H2493 0.931 . S
C2472 C2469 1.481 . S
C2472 C2473 1.387 . S
C2472 C2477 1.390 . S
C2473 C2472 1.387 . S
C2473 C2474 1.401 . S
C2473 H2494 0.930 . S
C2474 C2473 1.401 . S
C2474 C2475 1.376 . S
C2474 C2483 1.511 . S
C2475 C2474 1.376 . S
C2475 C2476 1.392 . S
C2475 H2496 0.931 . S
C2476 C2475 1.392 . S
C2476 C2477 1.361 . S
C2476 C2478 1.500 . S
C2477 C2472 1.390 . S
C2477 C2476 1.361 . S
C2477 H2495 0.931 . S
C2478 C2476 1.500 . S
C2478 C2479 1.371 . S
C2478 C2480 1.365 . S
C2479 C2478 1.371 . S
C2479 C2489 1.386 . S
C2479 H2497 0.931 . S
C2480 C2478 1.365 . S
C2480 C2481 1.409 . S
C2480 H2498 0.929 . S
C2481 C2480 1.409 . S
C2481 C2482 1.380 . S
C2481 H2499 0.930 . S
C2482 C2481 1.380 . S
C2482 C2489 1.357 . S
C2483 C2474 1.511 . S
C2483 C2484 1.341 . S
C2483 C2485 1.371 . S
C2484 C2483 1.341 . S
C2484 C2488 1.394 . S
C2484 H2500 0.930 . S
C2485 C2483 1.371 . S
C2485 C2486 1.392 . S
C2485 H2501 0.931 . S
C2486 C2485 1.392 . S
C2486 C2487 1.331 . S
C2486 H2504 0.932 . S
C2487 C2486 1.331 . S
C2487 C2488 1.336 . S
C2488 C2484 1.394 . S
C2488 C2487 1.336 . S
C2488 H2503 0.929 . S
C2489 C2479 1.386 . S
C2489 C2482 1.357 . S
C2489 H2502 0.928 . S
H2490 C2466 0.931 . S
H2491 C2468 0.930 . S
H2492 C2470 0.929 . S
H2493 C2471 0.931 . S
H2494 C2473 0.930 . S
H2495 C2477 0.931 . S
H2496 C2475 0.931 . S
H2497 C2479 0.931 . S
H2498 C2480 0.929 . S
H2499 C2481 0.930 . S
H2500 C2484 0.930 . S
H2501 C2485 0.931 . S
H2502 C2489 0.928 . S
H2503 C2488 0.929 . S
H2504 C2486 0.932 . S
C2505 C2506 1.386 . S
C2505 C2507 1.397 . S
C2505 H2529 0.931 . S
C2506 C2505 1.386 . S
C2506 C2510 1.397 . S
C2507 C2505 1.397 . S
C2507 C2508 1.384 . S
C2507 H2530 0.930 . S
C2508 C2507 1.384 . S
C2508 C2509 1.377 . S
C2508 C2511 1.481 . S
C2509 C2508 1.377 . S
C2509 C2510 1.389 . S
C2509 H2531 0.929 . S
C2510 C2506 1.397 . S
C2510 C2509 1.389 . S
C2510 H2532 0.931 . S
C2511 C2508 1.481 . S
C2511 C2512 1.387 . S
C2511 C2516 1.390 . S
C2512 C2511 1.387 . S
C2512 C2513 1.401 . S
C2512 H2533 0.930 . S
C2513 C2512 1.401 . S
C2513 C2514 1.376 . S
C2513 C2522 1.511 . S
C2514 C2513 1.376 . S
C2514 C2515 1.392 . S
C2514 H2535 0.931 . S
C2515 C2514 1.392 . S
C2515 C2516 1.361 . S
C2515 C2517 1.500 . S
C2516 C2511 1.390 . S
C2516 C2515 1.361 . S
C2516 H2534 0.931 . S
C2517 C2515 1.500 . S
C2517 C2518 1.371 . S
C2517 C2519 1.365 . S
C2518 C2517 1.371 . S
C2518 C2528 1.386 . S
C2518 H2536 0.931 . S
C2519 C2517 1.365 . S
C2519 C2520 1.409 . S
C2519 H2537 0.929 . S
C2520 C2519 1.409 . S
C2520 C2521 1.380 . S
C2520 H2538 0.930 . S
C2521 C2520 1.380 . S
C2521 C2528 1.357 . S
C2522 C2513 1.511 . S
C2522 C2523 1.341 . S
C2522 C2524 1.371 . S
C2523 C2522 1.341 . S
C2523 C2527 1.394 . S
C2523 H2539 0.930 . S
C2524 C2522 1.371 . S
C2524 C2525 1.392 . S
C2524 H2540 0.931 . S
C2525 C2524 1.392 . S
C2525 C2526 1.331 . S
C2525 H2543 0.932 . S
C2526 C2525 1.331 . S
C2526 C2527 1.336 . S
C2527 C2523 1.394 . S
C2527 C2526 1.336 . S
C2527 H2542 0.929 . S
C2528 C2518 1.386 . S
C2528 C2521 1.357 . S
C2528 H2541 0.928 . S
H2529 C2505 0.931 . S
H2530 C2507 0.930 . S
H2531 C2509 0.929 . S
H2532 C2510 0.931 . S
H2533 C2512 0.930 . S
H2534 C2516 0.931 . S
H2535 C2514 0.931 . S
H2536 C2518 0.931 . S
H2537 C2519 0.929 . S
H2538 C2520 0.930 . S
H2539 C2523 0.930 . S
H2540 C2524 0.931 . S
H2541 C2528 0.928 . S
H2542 C2527 0.929 . S
H2543 C2525 0.932 . S
C2544 C2545 1.386 . S
C2544 C2546 1.397 . S
C2544 H2568 0.931 . S
C2545 C2544 1.386 . S
C2545 C2549 1.397 . S
C2546 C2544 1.397 . S
C2546 C2547 1.384 . S
C2546 H2569 0.930 . S
C2547 C2546 1.384 . S
C2547 C2548 1.377 . S
C2547 C2550 1.481 . S
C2548 C2547 1.377 . S
C2548 C2549 1.389 . S
C2548 H2570 0.929 . S
C2549 C2545 1.397 . S
C2549 C2548 1.389 . S
C2549 H2571 0.931 . S
C2550 C2547 1.481 . S
C2550 C2551 1.387 . S
C2550 C2555 1.390 . S
C2551 C2550 1.387 . S
C2551 C2552 1.401 . S
C2551 H2572 0.930 . S
C2552 C2551 1.401 . S
C2552 C2553 1.376 . S
C2552 C2561 1.511 . S
C2553 C2552 1.376 . S
C2553 C2554 1.392 . S
C2553 H2574 0.931 . S
C2554 C2553 1.392 . S
C2554 C2555 1.361 . S
C2554 C2556 1.500 . S
C2555 C2550 1.390 . S
C2555 C2554 1.361 . S
C2555 H2573 0.931 . S
C2556 C2554 1.500 . S
C2556 C2557 1.371 . S
C2556 C2558 1.365 . S
C2557 C2556 1.371 . S
C2557 C2567 1.386 . S
C2557 H2575 0.931 . S
C2558 C2556 1.365 . S
C2558 C2559 1.409 . S
C2558 H2576 0.929 . S
C2559 C2558 1.409 . S
C2559 C2560 1.380 . S
C2559 H2577 0.930 . S
C2560 C2559 1.380 . S
C2560 C2567 1.357 . S
C2561 C2552 1.511 . S
C2561 C2562 1.341 . S
C2561 C2563 1.371 . S
C2562 C2561 1.341 . S
C2562 C2566 1.394 . S
C2562 H2578 0.930 . S
C2563 C2561 1.371 . S
C2563 C2564 1.392 . S
C2563 H2579 0.931 . S
C2564 C2563 1.392 . S
C2564 C2565 1.331 . S
C2564 H2582 0.932 . S
C2565 C2564 1.331 . S
C2565 C2566 1.336 . S
C2566 C2562 1.394 . S
C2566 C2565 1.336 . S
C2566 H2581 0.929 . S
C2567 C2557 1.386 . S
C2567 C2560 1.357 . S
C2567 H2580 0.928 . S
H2568 C2544 0.931 . S
H2569 C2546 0.930 . S
H2570 C2548 0.929 . S
H2571 C2549 0.931 . S
H2572 C2551 0.930 . S
H2573 C2555 0.931 . S
H2574 C2553 0.931 . S
H2575 C2557 0.931 . S
H2576 C2558 0.929 . S
H2577 C2559 0.930 . S
H2578 C2562 0.930 . S
H2579 C2563 0.931 . S
H2580 C2567 0.928 . S
H2581 C2566 0.929 . S
H2582 C2564 0.932 . S
C2583 C2584 1.386 . S
C2583 C2585 1.397 . S
C2583 H2607 0.931 . S
C2584 C2583 1.386 . S
C2584 C2588 1.397 . S
C2585 C2583 1.397 . S
C2585 C2586 1.384 . S
C2585 H2608 0.930 . S
C2586 C2585 1.384 . S
C2586 C2587 1.377 . S
C2586 C2589 1.481 . S
C2587 C2586 1.377 . S
C2587 C2588 1.389 . S
C2587 H2609 0.929 . S
C2588 C2584 1.397 . S
C2588 C2587 1.389 . S
C2588 H2610 0.931 . S
C2589 C2586 1.481 . S
C2589 C2590 1.387 . S
C2589 C2594 1.390 . S
C2590 C2589 1.387 . S
C2590 C2591 1.401 . S
C2590 H2611 0.930 . S
C2591 C2590 1.401 . S
C2591 C2592 1.376 . S
C2591 C2600 1.511 . S
C2592 C2591 1.376 . S
C2592 C2593 1.392 . S
C2592 H2613 0.931 . S
C2593 C2592 1.392 . S
C2593 C2594 1.361 . S
C2593 C2595 1.500 . S
C2594 C2589 1.390 . S
C2594 C2593 1.361 . S
C2594 H2612 0.931 . S
C2595 C2593 1.500 . S
C2595 C2596 1.371 . S
C2595 C2597 1.365 . S
C2596 C2595 1.371 . S
C2596 C2606 1.386 . S
C2596 H2614 0.931 . S
C2597 C2595 1.365 . S
C2597 C2598 1.409 . S
C2597 H2615 0.929 . S
C2598 C2597 1.409 . S
C2598 C2599 1.380 . S
C2598 H2616 0.930 . S
C2599 C2598 1.380 . S
C2599 C2606 1.357 . S
C2600 C2591 1.511 . S
C2600 C2601 1.341 . S
C2600 C2602 1.371 . S
C2601 C2600 1.341 . S
C2601 C2605 1.394 . S
C2601 H2617 0.930 . S
C2602 C2600 1.371 . S
C2602 C2603 1.392 . S
C2602 H2618 0.931 . S
C2603 C2602 1.392 . S
C2603 C2604 1.331 . S
C2603 H2621 0.932 . S
C2604 C2603 1.331 . S
C2604 C2605 1.336 . S
C2605 C2601 1.394 . S
C2605 C2604 1.336 . S
C2605 H2620 0.929 . S
C2606 C2596 1.386 . S
C2606 C2599 1.357 . S
C2606 H2619 0.928 . S
H2607 C2583 0.931 . S
H2608 C2585 0.930 . S
H2609 C2587 0.929 . S
H2610 C2588 0.931 . S
H2611 C2590 0.930 . S
H2612 C2594 0.931 . S
H2613 C2592 0.931 . S
H2614 C2596 0.931 . S
H2615 C2597 0.929 . S
H2616 C2598 0.930 . S
H2617 C2601 0.930 . S
H2618 C2602 0.931 . S
H2619 C2606 0.928 . S
H2620 C2605 0.929 . S
H2621 C2603 0.932 . S
C2622 C2623 1.386 . S
C2622 C2624 1.397 . S
C2622 H2646 0.931 . S
C2623 C2622 1.386 . S
C2623 C2627 1.397 . S
C2624 C2622 1.397 . S
C2624 C2625 1.384 . S
C2624 H2647 0.930 . S
C2625 C2624 1.384 . S
C2625 C2626 1.377 . S
C2625 C2628 1.481 . S
C2626 C2625 1.377 . S
C2626 C2627 1.389 . S
C2626 H2648 0.929 . S
C2627 C2623 1.397 . S
C2627 C2626 1.389 . S
C2627 H2649 0.931 . S
C2628 C2625 1.481 . S
C2628 C2629 1.387 . S
C2628 C2633 1.390 . S
C2629 C2628 1.387 . S
C2629 C2630 1.401 . S
C2629 H2650 0.930 . S
C2630 C2629 1.401 . S
C2630 C2631 1.376 . S
C2630 C2639 1.511 . S
C2631 C2630 1.376 . S
C2631 C2632 1.392 . S
C2631 H2652 0.931 . S
C2632 C2631 1.392 . S
C2632 C2633 1.361 . S
C2632 C2634 1.500 . S
C2633 C2628 1.390 . S
C2633 C2632 1.361 . S
C2633 H2651 0.931 . S
C2634 C2632 1.500 . S
C2634 C2635 1.371 . S
C2634 C2636 1.365 . S
C2635 C2634 1.371 . S
C2635 C2645 1.386 . S
C2635 H2653 0.931 . S
C2636 C2634 1.365 . S
C2636 C2637 1.409 . S
C2636 H2654 0.929 . S
C2637 C2636 1.409 . S
C2637 C2638 1.380 . S
C2637 H2655 0.930 . S
C2638 C2637 1.380 . S
C2638 C2645 1.357 . S
C2639 C2630 1.511 . S
C2639 C2640 1.341 . S
C2639 C2641 1.371 . S
C2640 C2639 1.341 . S
C2640 C2644 1.394 . S
C2640 H2656 0.930 . S
C2641 C2639 1.371 . S
C2641 C2642 1.392 . S
C2641 H2657 0.931 . S
C2642 C2641 1.392 . S
C2642 C2643 1.331 . S
C2642 H2660 0.932 . S
C2643 C2642 1.331 . S
C2643 C2644 1.336 . S
C2644 C2640 1.394 . S
C2644 C2643 1.336 . S
C2644 H2659 0.929 . S
C2645 C2635 1.386 . S
C2645 C2638 1.357 . S
C2645 H2658 0.928 . S
H2646 C2622 0.931 . S
H2647 C2624 0.930 . S
H2648 C2626 0.929 . S
H2649 C2627 0.931 . S
H2650 C2629 0.930 . S
H2651 C2633 0.931 . S
H2652 C2631 0.931 . S
H2653 C2635 0.931 . S
H2654 C2636 0.929 . S
H2655 C2637 0.930 . S
H2656 C2640 0.930 . S
H2657 C2641 0.931 . S
H2658 C2645 0.928 . S
H2659 C2644 0.929 . S
H2660 C2642 0.932 . S
C2661 C2662 1.386 . S
C2661 C2663 1.397 . S
C2661 H2685 0.931 . S
C2662 C2661 1.386 . S
C2662 C2666 1.397 . S
C2663 C2661 1.397 . S
C2663 C2664 1.384 . S
C2663 H2686 0.930 . S
C2664 C2663 1.384 . S
C2664 C2665 1.377 . S
C2664 C2667 1.481 . S
C2665 C2664 1.377 . S
C2665 C2666 1.389 . S
C2665 H2687 0.929 . S
C2666 C2662 1.397 . S
C2666 C2665 1.389 . S
C2666 H2688 0.931 . S
C2667 C2664 1.481 . S
C2667 C2668 1.387 . S
C2667 C2672 1.390 . S
C2668 C2667 1.387 . S
C2668 C2669 1.401 . S
C2668 H2689 0.930 . S
C2669 C2668 1.401 . S
C2669 C2670 1.376 . S
C2669 C2678 1.511 . S
C2670 C2669 1.376 . S
C2670 C2671 1.392 . S
C2670 H2691 0.931 . S
C2671 C2670 1.392 . S
C2671 C2672 1.361 . S
C2671 C2673 1.500 . S
C2672 C2667 1.390 . S
C2672 C2671 1.361 . S
C2672 H2690 0.931 . S
C2673 C2671 1.500 . S
C2673 C2674 1.371 . S
C2673 C2675 1.365 . S
C2674 C2673 1.371 . S
C2674 C2684 1.386 . S
C2674 H2692 0.931 . S
C2675 C2673 1.365 . S
C2675 C2676 1.409 . S
C2675 H2693 0.929 . S
C2676 C2675 1.409 . S
C2676 C2677 1.380 . S
C2676 H2694 0.930 . S
C2677 C2676 1.380 . S
C2677 C2684 1.357 . S
C2678 C2669 1.511 . S
C2678 C2679 1.341 . S
C2678 C2680 1.371 . S
C2679 C2678 1.341 . S
C2679 C2683 1.394 . S
C2679 H2695 0.930 . S
C2680 C2678 1.371 . S
C2680 C2681 1.392 . S
C2680 H2696 0.931 . S
C2681 C2680 1.392 . S
C2681 C2682 1.331 . S
C2681 H2699 0.932 . S
C2682 C2681 1.331 . S
C2682 C2683 1.336 . S
C2683 C2679 1.394 . S
C2683 C2682 1.336 . S
C2683 H2698 0.929 . S
C2684 C2674 1.386 . S
C2684 C2677 1.357 . S
C2684 H2697 0.928 . S
H2685 C2661 0.931 . S
H2686 C2663 0.930 . S
H2687 C2665 0.929 . S
H2688 C2666 0.931 . S
H2689 C2668 0.930 . S
H2690 C2672 0.931 . S
H2691 C2670 0.931 . S
H2692 C2674 0.931 . S
H2693 C2675 0.929 . S
H2694 C2676 0.930 . S
H2695 C2679 0.930 . S
H2696 C2680 0.931 . S
H2697 C2684 0.928 . S
H2698 C2683 0.929 . S
H2699 C2681 0.932 . S
C2700 C2701 1.386 . S
C2700 C2702 1.397 . S
C2700 H2724 0.931 . S
C2701 C2700 1.386 . S
C2701 C2705 1.397 . S
C2702 C2700 1.397 . S
C2702 C2703 1.384 . S
C2702 H2725 0.930 . S
C2703 C2702 1.384 . S
C2703 C2704 1.377 . S
C2703 C2706 1.481 . S
C2704 C2703 1.377 . S
C2704 C2705 1.389 . S
C2704 H2726 0.929 . S
C2705 C2701 1.397 . S
C2705 C2704 1.389 . S
C2705 H2727 0.931 . S
C2706 C2703 1.481 . S
C2706 C2707 1.387 . S
C2706 C2711 1.390 . S
C2707 C2706 1.387 . S
C2707 C2708 1.401 . S
C2707 H2728 0.930 . S
C2708 C2707 1.401 . S
C2708 C2709 1.376 . S
C2708 C2717 1.511 . S
C2709 C2708 1.376 . S
C2709 C2710 1.392 . S
C2709 H2730 0.931 . S
C2710 C2709 1.392 . S
C2710 C2711 1.361 . S
C2710 C2712 1.500 . S
C2711 C2706 1.390 . S
C2711 C2710 1.361 . S
C2711 H2729 0.931 . S
C2712 C2710 1.500 . S
C2712 C2713 1.371 . S
C2712 C2714 1.365 . S
C2713 C2712 1.371 . S
C2713 C2723 1.386 . S
C2713 H2731 0.931 . S
C2714 C2712 1.365 . S
C2714 C2715 1.409 . S
C2714 H2732 0.929 . S
C2715 C2714 1.409 . S
C2715 C2716 1.380 . S
C2715 H2733 0.930 . S
C2716 C2715 1.380 . S
C2716 C2723 1.357 . S
C2717 C2708 1.511 . S
C2717 C2718 1.341 . S
C2717 C2719 1.371 . S
C2718 C2717 1.341 . S
C2718 C2722 1.394 . S
C2718 H2734 0.930 . S
C2719 C2717 1.371 . S
C2719 C2720 1.392 . S
C2719 H2735 0.931 . S
C2720 C2719 1.392 . S
C2720 C2721 1.331 . S
C2720 H2738 0.932 . S
C2721 C2720 1.331 . S
C2721 C2722 1.336 . S
C2722 C2718 1.394 . S
C2722 C2721 1.336 . S
C2722 H2737 0.929 . S
C2723 C2713 1.386 . S
C2723 C2716 1.357 . S
C2723 H2736 0.928 . S
H2724 C2700 0.931 . S
H2725 C2702 0.930 . S
H2726 C2704 0.929 . S
H2727 C2705 0.931 . S
H2728 C2707 0.930 . S
H2729 C2711 0.931 . S
H2730 C2709 0.931 . S
H2731 C2713 0.931 . S
H2732 C2714 0.929 . S
H2733 C2715 0.930 . S
H2734 C2718 0.930 . S
H2735 C2719 0.931 . S
H2736 C2723 0.928 . S
H2737 C2722 0.929 . S
H2738 C2720 0.932 . S
C2739 C2740 1.386 . S
C2739 C2741 1.397 . S
C2739 H2763 0.931 . S
C2740 C2739 1.386 . S
C2740 C2744 1.397 . S
C2741 C2739 1.397 . S
C2741 C2742 1.384 . S
C2741 H2764 0.930 . S
C2742 C2741 1.384 . S
C2742 C2743 1.377 . S
C2742 C2745 1.481 . S
C2743 C2742 1.377 . S
C2743 C2744 1.389 . S
C2743 H2765 0.929 . S
C2744 C2740 1.397 . S
C2744 C2743 1.389 . S
C2744 H2766 0.931 . S
C2745 C2742 1.481 . S
C2745 C2746 1.387 . S
C2745 C2750 1.390 . S
C2746 C2745 1.387 . S
C2746 C2747 1.401 . S
C2746 H2767 0.930 . S
C2747 C2746 1.401 . S
C2747 C2748 1.376 . S
C2747 C2756 1.511 . S
C2748 C2747 1.376 . S
C2748 C2749 1.392 . S
C2748 H2769 0.931 . S
C2749 C2748 1.392 . S
C2749 C2750 1.361 . S
C2749 C2751 1.500 . S
C2750 C2745 1.390 . S
C2750 C2749 1.361 . S
C2750 H2768 0.931 . S
C2751 C2749 1.500 . S
C2751 C2752 1.371 . S
C2751 C2753 1.365 . S
C2752 C2751 1.371 . S
C2752 C2762 1.386 . S
C2752 H2770 0.931 . S
C2753 C2751 1.365 . S
C2753 C2754 1.409 . S
C2753 H2771 0.929 . S
C2754 C2753 1.409 . S
C2754 C2755 1.380 . S
C2754 H2772 0.930 . S
C2755 C2754 1.380 . S
C2755 C2762 1.357 . S
C2756 C2747 1.511 . S
C2756 C2757 1.341 . S
C2756 C2758 1.371 . S
C2757 C2756 1.341 . S
C2757 C2761 1.394 . S
C2757 H2773 0.930 . S
C2758 C2756 1.371 . S
C2758 C2759 1.392 . S
C2758 H2774 0.931 . S
C2759 C2758 1.392 . S
C2759 C2760 1.331 . S
C2759 H2777 0.932 . S
C2760 C2759 1.331 . S
C2760 C2761 1.336 . S
C2761 C2757 1.394 . S
C2761 C2760 1.336 . S
C2761 H2776 0.929 . S
C2762 C2752 1.386 . S
C2762 C2755 1.357 . S
C2762 H2775 0.928 . S
H2763 C2739 0.931 . S
H2764 C2741 0.930 . S
H2765 C2743 0.929 . S
H2766 C2744 0.931 . S
H2767 C2746 0.930 . S
H2768 C2750 0.931 . S
H2769 C2748 0.931 . S
H2770 C2752 0.931 . S
H2771 C2753 0.929 . S
H2772 C2754 0.930 . S
H2773 C2757 0.930 . S
H2774 C2758 0.931 . S
H2775 C2762 0.928 . S
H2776 C2761 0.929 . S
H2777 C2759 0.932 . S
C2778 C2779 1.386 . S
C2778 C2780 1.397 . S
C2778 H2802 0.931 . S
C2779 C2778 1.386 . S
C2779 C2783 1.397 . S
C2780 C2778 1.397 . S
C2780 C2781 1.384 . S
C2780 H2803 0.930 . S
C2781 C2780 1.384 . S
C2781 C2782 1.377 . S
C2781 C2784 1.481 . S
C2782 C2781 1.377 . S
C2782 C2783 1.389 . S
C2782 H2804 0.929 . S
C2783 C2779 1.397 . S
C2783 C2782 1.389 . S
C2783 H2805 0.931 . S
C2784 C2781 1.481 . S
C2784 C2785 1.387 . S
C2784 C2789 1.390 . S
C2785 C2784 1.387 . S
C2785 C2786 1.401 . S
C2785 H2806 0.930 . S
C2786 C2785 1.401 . S
C2786 C2787 1.376 . S
C2786 C2795 1.511 . S
C2787 C2786 1.376 . S
C2787 C2788 1.392 . S
C2787 H2808 0.931 . S
C2788 C2787 1.392 . S
C2788 C2789 1.361 . S
C2788 C2790 1.500 . S
C2789 C2784 1.390 . S
C2789 C2788 1.361 . S
C2789 H2807 0.931 . S
C2790 C2788 1.500 . S
C2790 C2791 1.371 . S
C2790 C2792 1.365 . S
C2791 C2790 1.371 . S
C2791 C2801 1.386 . S
C2791 H2809 0.931 . S
C2792 C2790 1.365 . S
C2792 C2793 1.409 . S
C2792 H2810 0.929 . S
C2793 C2792 1.409 . S
C2793 C2794 1.380 . S
C2793 H2811 0.930 . S
C2794 C2793 1.380 . S
C2794 C2801 1.357 . S
C2795 C2786 1.511 . S
C2795 C2796 1.341 . S
C2795 C2797 1.371 . S
C2796 C2795 1.341 . S
C2796 C2800 1.394 . S
C2796 H2812 0.930 . S
C2797 C2795 1.371 . S
C2797 C2798 1.392 . S
C2797 H2813 0.931 . S
C2798 C2797 1.392 . S
C2798 C2799 1.331 . S
C2798 H2816 0.932 . S
C2799 C2798 1.331 . S
C2799 C2800 1.336 . S
C2800 C2796 1.394 . S
C2800 C2799 1.336 . S
C2800 H2815 0.929 . S
C2801 C2791 1.386 . S
C2801 C2794 1.357 . S
C2801 H2814 0.928 . S
H2802 C2778 0.931 . S
H2803 C2780 0.930 . S
H2804 C2782 0.929 . S
H2805 C2783 0.931 . S
H2806 C2785 0.930 . S
H2807 C2789 0.931 . S
H2808 C2787 0.931 . S
H2809 C2791 0.931 . S
H2810 C2792 0.929 . S
H2811 C2793 0.930 . S
H2812 C2796 0.930 . S
H2813 C2797 0.931 . S
H2814 C2801 0.928 . S
H2815 C2800 0.929 . S
H2816 C2798 0.932 . S
C2817 C2818 1.386 . S
C2817 C2819 1.397 . S
C2817 H2841 0.931 . S
C2818 C2817 1.386 . S
C2818 C2822 1.397 . S
C2819 C2817 1.397 . S
C2819 C2820 1.384 . S
C2819 H2842 0.930 . S
C2820 C2819 1.384 . S
C2820 C2821 1.377 . S
C2820 C2823 1.481 . S
C2821 C2820 1.377 . S
C2821 C2822 1.389 . S
C2821 H2843 0.929 . S
C2822 C2818 1.397 . S
C2822 C2821 1.389 . S
C2822 H2844 0.931 . S
C2823 C2820 1.481 . S
C2823 C2824 1.387 . S
C2823 C2828 1.390 . S
C2824 C2823 1.387 . S
C2824 C2825 1.401 . S
C2824 H2845 0.930 . S
C2825 C2824 1.401 . S
C2825 C2826 1.376 . S
C2825 C2834 1.511 . S
C2826 C2825 1.376 . S
C2826 C2827 1.392 . S
C2826 H2847 0.931 . S
C2827 C2826 1.392 . S
C2827 C2828 1.361 . S
C2827 C2829 1.500 . S
C2828 C2823 1.390 . S
C2828 C2827 1.361 . S
C2828 H2846 0.931 . S
C2829 C2827 1.500 . S
C2829 C2830 1.371 . S
C2829 C2831 1.365 . S
C2830 C2829 1.371 . S
C2830 C2840 1.386 . S
C2830 H2848 0.931 . S
C2831 C2829 1.365 . S
C2831 C2832 1.409 . S
C2831 H2849 0.929 . S
C2832 C2831 1.409 . S
C2832 C2833 1.380 . S
C2832 H2850 0.930 . S
C2833 C2832 1.380 . S
C2833 C2840 1.357 . S
C2834 C2825 1.511 . S
C2834 C2835 1.341 . S
C2834 C2836 1.371 . S
C2835 C2834 1.341 . S
C2835 C2839 1.394 . S
C2835 H2851 0.930 . S
C2836 C2834 1.371 . S
C2836 C2837 1.392 . S
C2836 H2852 0.931 . S
C2837 C2836 1.392 . S
C2837 C2838 1.331 . S
C2837 H2855 0.932 . S
C2838 C2837 1.331 . S
C2838 C2839 1.336 . S
C2839 C2835 1.394 . S
C2839 C2838 1.336 . S
C2839 H2854 0.929 . S
C2840 C2830 1.386 . S
C2840 C2833 1.357 . S
C2840 H2853 0.928 . S
H2841 C2817 0.931 . S
H2842 C2819 0.930 . S
H2843 C2821 0.929 . S
H2844 C2822 0.931 . S
H2845 C2824 0.930 . S
H2846 C2828 0.931 . S
H2847 C2826 0.931 . S
H2848 C2830 0.931 . S
H2849 C2831 0.929 . S
H2850 C2832 0.930 . S
H2851 C2835 0.930 . S
H2852 C2836 0.931 . S
H2853 C2840 0.928 . S
H2854 C2839 0.929 . S
H2855 C2837 0.932 . S
C2856 C2857 1.386 . S
C2856 C2858 1.397 . S
C2856 H2880 0.931 . S
C2857 C2856 1.386 . S
C2857 C2861 1.397 . S
C2858 C2856 1.397 . S
C2858 C2859 1.384 . S
C2858 H2881 0.930 . S
C2859 C2858 1.384 . S
C2859 C2860 1.377 . S
C2859 C2862 1.481 . S
C2860 C2859 1.377 . S
C2860 C2861 1.389 . S
C2860 H2882 0.929 . S
C2861 C2857 1.397 . S
C2861 C2860 1.389 . S
C2861 H2883 0.931 . S
C2862 C2859 1.481 . S
C2862 C2863 1.387 . S
C2862 C2867 1.390 . S
C2863 C2862 1.387 . S
C2863 C2864 1.401 . S
C2863 H2884 0.930 . S
C2864 C2863 1.401 . S
C2864 C2865 1.376 . S
C2864 C2873 1.511 . S
C2865 C2864 1.376 . S
C2865 C2866 1.392 . S
C2865 H2886 0.931 . S
C2866 C2865 1.392 . S
C2866 C2867 1.361 . S
C2866 C2868 1.500 . S
C2867 C2862 1.390 . S
C2867 C2866 1.361 . S
C2867 H2885 0.931 . S
C2868 C2866 1.500 . S
C2868 C2869 1.371 . S
C2868 C2870 1.365 . S
C2869 C2868 1.371 . S
C2869 C2879 1.386 . S
C2869 H2887 0.931 . S
C2870 C2868 1.365 . S
C2870 C2871 1.409 . S
C2870 H2888 0.929 . S
C2871 C2870 1.409 . S
C2871 C2872 1.380 . S
C2871 H2889 0.930 . S
C2872 C2871 1.380 . S
C2872 C2879 1.357 . S
C2873 C2864 1.511 . S
C2873 C2874 1.341 . S
C2873 C2875 1.371 . S
C2874 C2873 1.341 . S
C2874 C2878 1.394 . S
C2874 H2890 0.930 . S
C2875 C2873 1.371 . S
C2875 C2876 1.392 . S
C2875 H2891 0.931 . S
C2876 C2875 1.392 . S
C2876 C2877 1.331 . S
C2876 H2894 0.932 . S
C2877 C2876 1.331 . S
C2877 C2878 1.336 . S
C2878 C2874 1.394 . S
C2878 C2877 1.336 . S
C2878 H2893 0.929 . S
C2879 C2869 1.386 . S
C2879 C2872 1.357 . S
C2879 H2892 0.928 . S
H2880 C2856 0.931 . S
H2881 C2858 0.930 . S
H2882 C2860 0.929 . S
H2883 C2861 0.931 . S
H2884 C2863 0.930 . S
H2885 C2867 0.931 . S
H2886 C2865 0.931 . S
H2887 C2869 0.931 . S
H2888 C2870 0.929 . S
H2889 C2871 0.930 . S
H2890 C2874 0.930 . S
H2891 C2875 0.931 . S
H2892 C2879 0.928 . S
H2893 C2878 0.929 . S
H2894 C2876 0.932 . S
C2895 C2896 1.386 . S
C2895 C2897 1.397 . S
C2895 H2919 0.931 . S
C2896 C2895 1.386 . S
C2896 C2900 1.397 . S
C2897 C2895 1.397 . S
C2897 C2898 1.384 . S
C2897 H2920 0.930 . S
C2898 C2897 1.384 . S
C2898 C2899 1.377 . S
C2898 C2901 1.481 . S
C2899 C2898 1.377 . S
C2899 C2900 1.389 . S
C2899 H2921 0.929 . S
C2900 C2896 1.397 . S
C2900 C2899 1.389 . S
C2900 H2922 0.931 . S
C2901 C2898 1.481 . S
C2901 C2902 1.387 . S
C2901 C2906 1.390 . S
C2902 C2901 1.387 . S
C2902 C2903 1.401 . S
C2902 H2923 0.930 . S
C2903 C2902 1.401 . S
C2903 C2904 1.376 . S
C2903 C2912 1.511 . S
C2904 C2903 1.376 . S
C2904 C2905 1.392 . S
C2904 H2925 0.931 . S
C2905 C2904 1.392 . S
C2905 C2906 1.361 . S
C2905 C2907 1.500 . S
C2906 C2901 1.390 . S
C2906 C2905 1.361 . S
C2906 H2924 0.931 . S
C2907 C2905 1.500 . S
C2907 C2908 1.371 . S
C2907 C2909 1.365 . S
C2908 C2907 1.371 . S
C2908 C2918 1.386 . S
C2908 H2926 0.931 . S
C2909 C2907 1.365 . S
C2909 C2910 1.409 . S
C2909 H2927 0.929 . S
C2910 C2909 1.409 . S
C2910 C2911 1.380 . S
C2910 H2928 0.930 . S
C2911 C2910 1.380 . S
C2911 C2918 1.357 . S
C2912 C2903 1.511 . S
C2912 C2913 1.341 . S
C2912 C2914 1.371 . S
C2913 C2912 1.341 . S
C2913 C2917 1.394 . S
C2913 H2929 0.930 . S
C2914 C2912 1.371 . S
C2914 C2915 1.392 . S
C2914 H2930 0.931 . S
C2915 C2914 1.392 . S
C2915 C2916 1.331 . S
C2915 H2933 0.932 . S
C2916 C2915 1.331 . S
C2916 C2917 1.336 . S
C2917 C2913 1.394 . S
C2917 C2916 1.336 . S
C2917 H2932 0.929 . S
C2918 C2908 1.386 . S
C2918 C2911 1.357 . S
C2918 H2931 0.928 . S
H2919 C2895 0.931 . S
H2920 C2897 0.930 . S
H2921 C2899 0.929 . S
H2922 C2900 0.931 . S
H2923 C2902 0.930 . S
H2924 C2906 0.931 . S
H2925 C2904 0.931 . S
H2926 C2908 0.931 . S
H2927 C2909 0.929 . S
H2928 C2910 0.930 . S
H2929 C2913 0.930 . S
H2930 C2914 0.931 . S
H2931 C2918 0.928 . S
H2932 C2917 0.929 . S
H2933 C2915 0.932 . S
C2934 C2935 1.386 . S
C2934 C2936 1.397 . S
C2934 H2958 0.931 . S
C2935 C2934 1.386 . S
C2935 C2939 1.397 . S
C2936 C2934 1.397 . S
C2936 C2937 1.384 . S
C2936 H2959 0.930 . S
C2937 C2936 1.384 . S
C2937 C2938 1.377 . S
C2937 C2940 1.481 . S
C2938 C2937 1.377 . S
C2938 C2939 1.389 . S
C2938 H2960 0.929 . S
C2939 C2935 1.397 . S
C2939 C2938 1.389 . S
C2939 H2961 0.931 . S
C2940 C2937 1.481 . S
C2940 C2941 1.387 . S
C2940 C2945 1.390 . S
C2941 C2940 1.387 . S
C2941 C2942 1.401 . S
C2941 H2962 0.930 . S
C2942 C2941 1.401 . S
C2942 C2943 1.376 . S
C2942 C2951 1.511 . S
C2943 C2942 1.376 . S
C2943 C2944 1.392 . S
C2943 H2964 0.931 . S
C2944 C2943 1.392 . S
C2944 C2945 1.361 . S
C2944 C2946 1.500 . S
C2945 C2940 1.390 . S
C2945 C2944 1.361 . S
C2945 H2963 0.931 . S
C2946 C2944 1.500 . S
C2946 C2947 1.371 . S
C2946 C2948 1.365 . S
C2947 C2946 1.371 . S
C2947 C2957 1.386 . S
C2947 H2965 0.931 . S
C2948 C2946 1.365 . S
C2948 C2949 1.409 . S
C2948 H2966 0.929 . S
C2949 C2948 1.409 . S
C2949 C2950 1.380 . S
C2949 H2967 0.930 . S
C2950 C2949 1.380 . S
C2950 C2957 1.357 . S
C2951 C2942 1.511 . S
C2951 C2952 1.341 . S
C2951 C2953 1.371 . S
C2952 C2951 1.341 . S
C2952 C2956 1.394 . S
C2952 H2968 0.930 . S
C2953 C2951 1.371 . S
C2953 C2954 1.392 . S
C2953 H2969 0.931 . S
C2954 C2953 1.392 . S
C2954 C2955 1.331 . S
C2954 H2972 0.932 . S
C2955 C2954 1.331 . S
C2955 C2956 1.336 . S
C2956 C2952 1.394 . S
C2956 C2955 1.336 . S
C2956 H2971 0.929 . S
C2957 C2947 1.386 . S
C2957 C2950 1.357 . S
C2957 H2970 0.928 . S
H2958 C2934 0.931 . S
H2959 C2936 0.930 . S
H2960 C2938 0.929 . S
H2961 C2939 0.931 . S
H2962 C2941 0.930 . S
H2963 C2945 0.931 . S
H2964 C2943 0.931 . S
H2965 C2947 0.931 . S
H2966 C2948 0.929 . S
H2967 C2949 0.930 . S
H2968 C2952 0.930 . S
H2969 C2953 0.931 . S
H2970 C2957 0.928 . S
H2971 C2956 0.929 . S
H2972 C2954 0.932 . S
C2973 C2974 1.386 . S
C2973 C2975 1.397 . S
C2973 H2997 0.931 . S
C2974 C2973 1.386 . S
C2974 C2978 1.397 . S
C2975 C2973 1.397 . S
C2975 C2976 1.384 . S
C2975 H2998 0.930 . S
C2976 C2975 1.384 . S
C2976 C2977 1.377 . S
C2976 C2979 1.481 . S
C2977 C2976 1.377 . S
C2977 C2978 1.389 . S
C2977 H2999 0.929 . S
C2978 C2974 1.397 . S
C2978 C2977 1.389 . S
C2978 H3000 0.931 . S
C2979 C2976 1.481 . S
C2979 C2980 1.387 . S
C2979 C2984 1.390 . S
C2980 C2979 1.387 . S
C2980 C2981 1.401 . S
C2980 H3001 0.930 . S
C2981 C2980 1.401 . S
C2981 C2982 1.376 . S
C2981 C2990 1.511 . S
C2982 C2981 1.376 . S
C2982 C2983 1.392 . S
C2982 H3003 0.931 . S
C2983 C2982 1.392 . S
C2983 C2984 1.361 . S
C2983 C2985 1.500 . S
C2984 C2979 1.390 . S
C2984 C2983 1.361 . S
C2984 H3002 0.931 . S
C2985 C2983 1.500 . S
C2985 C2986 1.371 . S
C2985 C2987 1.365 . S
C2986 C2985 1.371 . S
C2986 C2996 1.386 . S
C2986 H3004 0.931 . S
C2987 C2985 1.365 . S
C2987 C2988 1.409 . S
C2987 H3005 0.929 . S
C2988 C2987 1.409 . S
C2988 C2989 1.380 . S
C2988 H3006 0.930 . S
C2989 C2988 1.380 . S
C2989 C2996 1.357 . S
C2990 C2981 1.511 . S
C2990 C2991 1.341 . S
C2990 C2992 1.371 . S
C2991 C2990 1.341 . S
C2991 C2995 1.394 . S
C2991 H3007 0.930 . S
C2992 C2990 1.371 . S
C2992 C2993 1.392 . S
C2992 H3008 0.931 . S
C2993 C2992 1.392 . S
C2993 C2994 1.331 . S
C2993 H3011 0.932 . S
C2994 C2993 1.331 . S
C2994 C2995 1.336 . S
C2995 C2991 1.394 . S
C2995 C2994 1.336 . S
C2995 H3010 0.929 . S
C2996 C2986 1.386 . S
C2996 C2989 1.357 . S
C2996 H3009 0.928 . S
H2997 C2973 0.931 . S
H2998 C2975 0.930 . S
H2999 C2977 0.929 . S
H3000 C2978 0.931 . S
H3001 C2980 0.930 . S
H3002 C2984 0.931 . S
H3003 C2982 0.931 . S
H3004 C2986 0.931 . S
H3005 C2987 0.929 . S
H3006 C2988 0.930 . S
H3007 C2991 0.930 . S
H3008 C2992 0.931 . S
H3009 C2996 0.928 . S
H3010 C2995 0.929 . S
H3011 C2993 0.932 . S
C3012 C3013 1.386 . S
C3012 C3014 1.397 . S
C3012 H3036 0.931 . S
C3013 C3012 1.386 . S
C3013 C3017 1.397 . S
C3014 C3012 1.397 . S
C3014 C3015 1.384 . S
C3014 H3037 0.930 . S
C3015 C3014 1.384 . S
C3015 C3016 1.377 . S
C3015 C3018 1.481 . S
C3016 C3015 1.377 . S
C3016 C3017 1.389 . S
C3016 H3038 0.929 . S
C3017 C3013 1.397 . S
C3017 C3016 1.389 . S
C3017 H3039 0.931 . S
C3018 C3015 1.481 . S
C3018 C3019 1.387 . S
C3018 C3023 1.390 . S
C3019 C3018 1.387 . S
C3019 C3020 1.401 . S
C3019 H3040 0.930 . S
C3020 C3019 1.401 . S
C3020 C3021 1.376 . S
C3020 C3029 1.511 . S
C3021 C3020 1.376 . S
C3021 C3022 1.392 . S
C3021 H3042 0.931 . S
C3022 C3021 1.392 . S
C3022 C3023 1.361 . S
C3022 C3024 1.500 . S
C3023 C3018 1.390 . S
C3023 C3022 1.361 . S
C3023 H3041 0.931 . S
C3024 C3022 1.500 . S
C3024 C3025 1.371 . S
C3024 C3026 1.365 . S
C3025 C3024 1.371 . S
C3025 C3035 1.386 . S
C3025 H3043 0.931 . S
C3026 C3024 1.365 . S
C3026 C3027 1.409 . S
C3026 H3044 0.929 . S
C3027 C3026 1.409 . S
C3027 C3028 1.380 . S
C3027 H3045 0.930 . S
C3028 C3027 1.380 . S
C3028 C3035 1.357 . S
C3029 C3020 1.511 . S
C3029 C3030 1.341 . S
C3029 C3031 1.371 . S
C3030 C3029 1.341 . S
C3030 C3034 1.394 . S
C3030 H3046 0.930 . S
C3031 C3029 1.371 . S
C3031 C3032 1.392 . S
C3031 H3047 0.931 . S
C3032 C3031 1.392 . S
C3032 C3033 1.331 . S
C3032 H3050 0.932 . S
C3033 C3032 1.331 . S
C3033 C3034 1.336 . S
C3034 C3030 1.394 . S
C3034 C3033 1.336 . S
C3034 H3049 0.929 . S
C3035 C3025 1.386 . S
C3035 C3028 1.357 . S
C3035 H3048 0.928 . S
H3036 C3012 0.931 . S
H3037 C3014 0.930 . S
H3038 C3016 0.929 . S
H3039 C3017 0.931 . S
H3040 C3019 0.930 . S
H3041 C3023 0.931 . S
H3042 C3021 0.931 . S
H3043 C3025 0.931 . S
H3044 C3026 0.929 . S
H3045 C3027 0.930 . S
H3046 C3030 0.930 . S
H3047 C3031 0.931 . S
H3048 C3035 0.928 . S
H3049 C3034 0.929 . S
H3050 C3032 0.932 . S
C3051 C3052 1.386 . S
C3051 C3053 1.397 . S
C3051 H3075 0.931 . S
C3052 C3051 1.386 . S
C3052 C3056 1.397 . S
C3053 C3051 1.397 . S
C3053 C3054 1.384 . S
C3053 H3076 0.930 . S
C3054 C3053 1.384 . S
C3054 C3055 1.377 . S
C3054 C3057 1.481 . S
C3055 C3054 1.377 . S
C3055 C3056 1.389 . S
C3055 H3077 0.929 . S
C3056 C3052 1.397 . S
C3056 C3055 1.389 . S
C3056 H3078 0.931 . S
C3057 C3054 1.481 . S
C3057 C3058 1.387 . S
C3057 C3062 1.390 . S
C3058 C3057 1.387 . S
C3058 C3059 1.401 . S
C3058 H3079 0.930 . S
C3059 C3058 1.401 . S
C3059 C3060 1.376 . S
C3059 C3068 1.511 . S
C3060 C3059 1.376 . S
C3060 C3061 1.392 . S
C3060 H3081 0.931 . S
C3061 C3060 1.392 . S
C3061 C3062 1.361 . S
C3061 C3063 1.500 . S
C3062 C3057 1.390 . S
C3062 C3061 1.361 . S
C3062 H3080 0.931 . S
C3063 C3061 1.500 . S
C3063 C3064 1.371 . S
C3063 C3065 1.365 . S
C3064 C3063 1.371 . S
C3064 C3074 1.386 . S
C3064 H3082 0.931 . S
C3065 C3063 1.365 . S
C3065 C3066 1.409 . S
C3065 H3083 0.929 . S
C3066 C3065 1.409 . S
C3066 C3067 1.380 . S
C3066 H3084 0.930 . S
C3067 C3066 1.380 . S
C3067 C3074 1.357 . S
C3068 C3059 1.511 . S
C3068 C3069 1.341 . S
C3068 C3070 1.371 . S
C3069 C3068 1.341 . S
C3069 C3073 1.394 . S
C3069 H3085 0.930 . S
C3070 C3068 1.371 . S
C3070 C3071 1.392 . S
C3070 H3086 0.931 . S
C3071 C3070 1.392 . S
C3071 C3072 1.331 . S
C3071 H3089 0.932 . S
C3072 C3071 1.331 . S
C3072 C3073 1.336 . S
C3073 C3069 1.394 . S
C3073 C3072 1.336 . S
C3073 H3088 0.929 . S
C3074 C3064 1.386 . S
C3074 C3067 1.357 . S
C3074 H3087 0.928 . S
H3075 C3051 0.931 . S
H3076 C3053 0.930 . S
H3077 C3055 0.929 . S
H3078 C3056 0.931 . S
H3079 C3058 0.930 . S
H3080 C3062 0.931 . S
H3081 C3060 0.931 . S
H3082 C3064 0.931 . S
H3083 C3065 0.929 . S
H3084 C3066 0.930 . S
H3085 C3069 0.930 . S
H3086 C3070 0.931 . S
H3087 C3074 0.928 . S
H3088 C3073 0.929 . S
H3089 C3071 0.932 . S
C3090 C3091 1.386 . S
C3090 C3092 1.397 . S
C3090 H3114 0.931 . S
C3091 C3090 1.386 . S
C3091 C3095 1.397 . S
C3092 C3090 1.397 . S
C3092 C3093 1.384 . S
C3092 H3115 0.930 . S
C3093 C3092 1.384 . S
C3093 C3094 1.377 . S
C3093 C3096 1.481 . S
C3094 C3093 1.377 . S
C3094 C3095 1.389 . S
C3094 H3116 0.929 . S
C3095 C3091 1.397 . S
C3095 C3094 1.389 . S
C3095 H3117 0.931 . S
C3096 C3093 1.481 . S
C3096 C3097 1.387 . S
C3096 C3101 1.390 . S
C3097 C3096 1.387 . S
C3097 C3098 1.401 . S
C3097 H3118 0.930 . S
C3098 C3097 1.401 . S
C3098 C3099 1.376 . S
C3098 C3107 1.511 . S
C3099 C3098 1.376 . S
C3099 C3100 1.392 . S
C3099 H3120 0.931 . S
C3100 C3099 1.392 . S
C3100 C3101 1.361 . S
C3100 C3102 1.500 . S
C3101 C3096 1.390 . S
C3101 C3100 1.361 . S
C3101 H3119 0.931 . S
C3102 C3100 1.500 . S
C3102 C3103 1.371 . S
C3102 C3104 1.365 . S
C3103 C3102 1.371 . S
C3103 C3113 1.386 . S
C3103 H3121 0.931 . S
C3104 C3102 1.365 . S
C3104 C3105 1.409 . S
C3104 H3122 0.929 . S
C3105 C3104 1.409 . S
C3105 C3106 1.380 . S
C3105 H3123 0.930 . S
C3106 C3105 1.380 . S
C3106 C3113 1.357 . S
C3107 C3098 1.511 . S
C3107 C3108 1.341 . S
C3107 C3109 1.371 . S
C3108 C3107 1.341 . S
C3108 C3112 1.394 . S
C3108 H3124 0.930 . S
C3109 C3107 1.371 . S
C3109 C3110 1.392 . S
C3109 H3125 0.931 . S
C3110 C3109 1.392 . S
C3110 C3111 1.331 . S
C3110 H3128 0.932 . S
C3111 C3110 1.331 . S
C3111 C3112 1.336 . S
C3112 C3108 1.394 . S
C3112 C3111 1.336 . S
C3112 H3127 0.929 . S
C3113 C3103 1.386 . S
C3113 C3106 1.357 . S
C3113 H3126 0.928 . S
H3114 C3090 0.931 . S
H3115 C3092 0.930 . S
H3116 C3094 0.929 . S
H3117 C3095 0.931 . S
H3118 C3097 0.930 . S
H3119 C3101 0.931 . S
H3120 C3099 0.931 . S
H3121 C3103 0.931 . S
H3122 C3104 0.929 . S
H3123 C3105 0.930 . S
H3124 C3108 0.930 . S
H3125 C3109 0.931 . S
H3126 C3113 0.928 . S
H3127 C3112 0.929 . S
H3128 C3110 0.932 . S
C3129 C3130 1.386 . S
C3129 C3131 1.397 . S
C3129 H3153 0.931 . S
C3130 C3129 1.386 . S
C3130 C3134 1.397 . S
C3131 C3129 1.397 . S
C3131 C3132 1.384 . S
C3131 H3154 0.930 . S
C3132 C3131 1.384 . S
C3132 C3133 1.377 . S
C3132 C3135 1.481 . S
C3133 C3132 1.377 . S
C3133 C3134 1.389 . S
C3133 H3155 0.929 . S
C3134 C3130 1.397 . S
C3134 C3133 1.389 . S
C3134 H3156 0.931 . S
C3135 C3132 1.481 . S
C3135 C3136 1.387 . S
C3135 C3140 1.390 . S
C3136 C3135 1.387 . S
C3136 C3137 1.401 . S
C3136 H3157 0.930 . S
C3137 C3136 1.401 . S
C3137 C3138 1.376 . S
C3137 C3146 1.511 . S
C3138 C3137 1.376 . S
C3138 C3139 1.392 . S
C3138 H3159 0.931 . S
C3139 C3138 1.392 . S
C3139 C3140 1.361 . S
C3139 C3141 1.500 . S
C3140 C3135 1.390 . S
C3140 C3139 1.361 . S
C3140 H3158 0.931 . S
C3141 C3139 1.500 . S
C3141 C3142 1.371 . S
C3141 C3143 1.365 . S
C3142 C3141 1.371 . S
C3142 C3152 1.386 . S
C3142 H3160 0.931 . S
C3143 C3141 1.365 . S
C3143 C3144 1.409 . S
C3143 H3161 0.929 . S
C3144 C3143 1.409 . S
C3144 C3145 1.380 . S
C3144 H3162 0.930 . S
C3145 C3144 1.380 . S
C3145 C3152 1.357 . S
C3146 C3137 1.511 . S
C3146 C3147 1.341 . S
C3146 C3148 1.371 . S
C3147 C3146 1.341 . S
C3147 C3151 1.394 . S
C3147 H3163 0.930 . S
C3148 C3146 1.371 . S
C3148 C3149 1.392 . S
C3148 H3164 0.931 . S
C3149 C3148 1.392 . S
C3149 C3150 1.331 . S
C3149 H3167 0.932 . S
C3150 C3149 1.331 . S
C3150 C3151 1.336 . S
C3151 C3147 1.394 . S
C3151 C3150 1.336 . S
C3151 H3166 0.929 . S
C3152 C3142 1.386 . S
C3152 C3145 1.357 . S
C3152 H3165 0.928 . S
H3153 C3129 0.931 . S
H3154 C3131 0.930 . S
H3155 C3133 0.929 . S
H3156 C3134 0.931 . S
H3157 C3136 0.930 . S
H3158 C3140 0.931 . S
H3159 C3138 0.931 . S
H3160 C3142 0.931 . S
H3161 C3143 0.929 . S
H3162 C3144 0.930 . S
H3163 C3147 0.930 . S
H3164 C3148 0.931 . S
H3165 C3152 0.928 . S
H3166 C3151 0.929 . S
H3167 C3149 0.932 . S
C3168 C3169 1.386 . S
C3168 C3170 1.397 . S
C3168 H3192 0.931 . S
C3169 C3168 1.386 . S
C3169 C3173 1.397 . S
C3170 C3168 1.397 . S
C3170 C3171 1.384 . S
C3170 H3193 0.930 . S
C3171 C3170 1.384 . S
C3171 C3172 1.377 . S
C3171 C3174 1.481 . S
C3172 C3171 1.377 . S
C3172 C3173 1.389 . S
C3172 H3194 0.929 . S
C3173 C3169 1.397 . S
C3173 C3172 1.389 . S
C3173 H3195 0.931 . S
C3174 C3171 1.481 . S
C3174 C3175 1.387 . S
C3174 C3179 1.390 . S
C3175 C3174 1.387 . S
C3175 C3176 1.401 . S
C3175 H3196 0.930 . S
C3176 C3175 1.401 . S
C3176 C3177 1.376 . S
C3176 C3185 1.511 . S
C3177 C3176 1.376 . S
C3177 C3178 1.392 . S
C3177 H3198 0.931 . S
C3178 C3177 1.392 . S
C3178 C3179 1.361 . S
C3178 C3180 1.500 . S
C3179 C3174 1.390 . S
C3179 C3178 1.361 . S
C3179 H3197 0.931 . S
C3180 C3178 1.500 . S
C3180 C3181 1.371 . S
C3180 C3182 1.365 . S
C3181 C3180 1.371 . S
C3181 C3191 1.386 . S
C3181 H3199 0.931 . S
C3182 C3180 1.365 . S
C3182 C3183 1.409 . S
C3182 H3200 0.929 . S
C3183 C3182 1.409 . S
C3183 C3184 1.380 . S
C3183 H3201 0.930 . S
C3184 C3183 1.380 . S
C3184 C3191 1.357 . S
C3185 C3176 1.511 . S
C3185 C3186 1.341 . S
C3185 C3187 1.371 . S
C3186 C3185 1.341 . S
C3186 C3190 1.394 . S
C3186 H3202 0.930 . S
C3187 C3185 1.371 . S
C3187 C3188 1.392 . S
C3187 H3203 0.931 . S
C3188 C3187 1.392 . S
C3188 C3189 1.331 . S
C3188 H3206 0.932 . S
C3189 C3188 1.331 . S
C3189 C3190 1.336 . S
C3190 C3186 1.394 . S
C3190 C3189 1.336 . S
C3190 H3205 0.929 . S
C3191 C3181 1.386 . S
C3191 C3184 1.357 . S
C3191 H3204 0.928 . S
H3192 C3168 0.931 . S
H3193 C3170 0.930 . S
H3194 C3172 0.929 . S
H3195 C3173 0.931 . S
H3196 C3175 0.930 . S
H3197 C3179 0.931 . S
H3198 C3177 0.931 . S
H3199 C3181 0.931 . S
H3200 C3182 0.929 . S
H3201 C3183 0.930 . S
H3202 C3186 0.930 . S
H3203 C3187 0.931 . S
H3204 C3191 0.928 . S
H3205 C3190 0.929 . S
H3206 C3188 0.932 . S
C3207 C3208 1.386 . S
C3207 C3209 1.397 . S
C3207 H3231 0.931 . S
C3208 C3207 1.386 . S
C3208 C3212 1.397 . S
C3209 C3207 1.397 . S
C3209 C3210 1.384 . S
C3209 H3232 0.930 . S
C3210 C3209 1.384 . S
C3210 C3211 1.377 . S
C3210 C3213 1.481 . S
C3211 C3210 1.377 . S
C3211 C3212 1.389 . S
C3211 H3233 0.929 . S
C3212 C3208 1.397 . S
C3212 C3211 1.389 . S
C3212 H3234 0.931 . S
C3213 C3210 1.481 . S
C3213 C3214 1.387 . S
C3213 C3218 1.390 . S
C3214 C3213 1.387 . S
C3214 C3215 1.401 . S
C3214 H3235 0.930 . S
C3215 C3214 1.401 . S
C3215 C3216 1.376 . S
C3215 C3224 1.511 . S
C3216 C3215 1.376 . S
C3216 C3217 1.392 . S
C3216 H3237 0.931 . S
C3217 C3216 1.392 . S
C3217 C3218 1.361 . S
C3217 C3219 1.500 . S
C3218 C3213 1.390 . S
C3218 C3217 1.361 . S
C3218 H3236 0.931 . S
C3219 C3217 1.500 . S
C3219 C3220 1.371 . S
C3219 C3221 1.365 . S
C3220 C3219 1.371 . S
C3220 C3230 1.386 . S
C3220 H3238 0.931 . S
C3221 C3219 1.365 . S
C3221 C3222 1.409 . S
C3221 H3239 0.929 . S
C3222 C3221 1.409 . S
C3222 C3223 1.380 . S
C3222 H3240 0.930 . S
C3223 C3222 1.380 . S
C3223 C3230 1.357 . S
C3224 C3215 1.511 . S
C3224 C3225 1.341 . S
C3224 C3226 1.371 . S
C3225 C3224 1.341 . S
C3225 C3229 1.394 . S
C3225 H3241 0.930 . S
C3226 C3224 1.371 . S
C3226 C3227 1.392 . S
C3226 H3242 0.931 . S
C3227 C3226 1.392 . S
C3227 C3228 1.331 . S
C3227 H3245 0.932 . S
C3228 C3227 1.331 . S
C3228 C3229 1.336 . S
C3229 C3225 1.394 . S
C3229 C3228 1.336 . S
C3229 H3244 0.929 . S
C3230 C3220 1.386 . S
C3230 C3223 1.357 . S
C3230 H3243 0.928 . S
H3231 C3207 0.931 . S
H3232 C3209 0.930 . S
H3233 C3211 0.929 . S
H3234 C3212 0.931 . S
H3235 C3214 0.930 . S
H3236 C3218 0.931 . S
H3237 C3216 0.931 . S
H3238 C3220 0.931 . S
H3239 C3221 0.929 . S
H3240 C3222 0.930 . S
H3241 C3225 0.930 . S
H3242 C3226 0.931 . S
H3243 C3230 0.928 . S
H3244 C3229 0.929 . S
H3245 C3227 0.932 . S
C3246 C3247 1.386 . S
C3246 C3248 1.397 . S
C3246 H3270 0.931 . S
C3247 C3246 1.386 . S
C3247 C3251 1.397 . S
C3248 C3246 1.397 . S
C3248 C3249 1.384 . S
C3248 H3271 0.930 . S
C3249 C3248 1.384 . S
C3249 C3250 1.377 . S
C3249 C3252 1.481 . S
C3250 C3249 1.377 . S
C3250 C3251 1.389 . S
C3250 H3272 0.929 . S
C3251 C3247 1.397 . S
C3251 C3250 1.389 . S
C3251 H3273 0.931 . S
C3252 C3249 1.481 . S
C3252 C3253 1.387 . S
C3252 C3257 1.390 . S
C3253 C3252 1.387 . S
C3253 C3254 1.401 . S
C3253 H3274 0.930 . S
C3254 C3253 1.401 . S
C3254 C3255 1.376 . S
C3254 C3263 1.511 . S
C3255 C3254 1.376 . S
C3255 C3256 1.392 . S
C3255 H3276 0.931 . S
C3256 C3255 1.392 . S
C3256 C3257 1.361 . S
C3256 C3258 1.500 . S
C3257 C3252 1.390 . S
C3257 C3256 1.361 . S
C3257 H3275 0.931 . S
C3258 C3256 1.500 . S
C3258 C3259 1.371 . S
C3258 C3260 1.365 . S
C3259 C3258 1.371 . S
C3259 C3269 1.386 . S
C3259 H3277 0.931 . S
C3260 C3258 1.365 . S
C3260 C3261 1.409 . S
C3260 H3278 0.929 . S
C3261 C3260 1.409 . S
C3261 C3262 1.380 . S
C3261 H3279 0.930 . S
C3262 C3261 1.380 . S
C3262 C3269 1.357 . S
C3263 C3254 1.511 . S
C3263 C3264 1.341 . S
C3263 C3265 1.371 . S
C3264 C3263 1.341 . S
C3264 C3268 1.394 . S
C3264 H3280 0.930 . S
C3265 C3263 1.371 . S
C3265 C3266 1.392 . S
C3265 H3281 0.931 . S
C3266 C3265 1.392 . S
C3266 C3267 1.331 . S
C3266 H3284 0.932 . S
C3267 C3266 1.331 . S
C3267 C3268 1.336 . S
C3268 C3264 1.394 . S
C3268 C3267 1.336 . S
C3268 H3283 0.929 . S
C3269 C3259 1.386 . S
C3269 C3262 1.357 . S
C3269 H3282 0.928 . S
H3270 C3246 0.931 . S
H3271 C3248 0.930 . S
H3272 C3250 0.929 . S
H3273 C3251 0.931 . S
H3274 C3253 0.930 . S
H3275 C3257 0.931 . S
H3276 C3255 0.931 . S
H3277 C3259 0.931 . S
H3278 C3260 0.929 . S
H3279 C3261 0.930 . S
H3280 C3264 0.930 . S
H3281 C3265 0.931 . S
H3282 C3269 0.928 . S
H3283 C3268 0.929 . S
H3284 C3266 0.932 . S
C3285 C3286 1.386 . S
C3285 C3287 1.397 . S
C3285 H3309 0.931 . S
C3286 C3285 1.386 . S
C3286 C3290 1.397 . S
C3287 C3285 1.397 . S
C3287 C3288 1.384 . S
C3287 H3310 0.930 . S
C3288 C3287 1.384 . S
C3288 C3289 1.377 . S
C3288 C3291 1.481 . S
C3289 C3288 1.377 . S
C3289 C3290 1.389 . S
C3289 H3311 0.929 . S
C3290 C3286 1.397 . S
C3290 C3289 1.389 . S
C3290 H3312 0.931 . S
C3291 C3288 1.481 . S
C3291 C3292 1.387 . S
C3291 C3296 1.390 . S
C3292 C3291 1.387 . S
C3292 C3293 1.401 . S
C3292 H3313 0.930 . S
C3293 C3292 1.401 . S
C3293 C3294 1.376 . S
C3293 C3302 1.511 . S
C3294 C3293 1.376 . S
C3294 C3295 1.392 . S
C3294 H3315 0.931 . S
C3295 C3294 1.392 . S
C3295 C3296 1.361 . S
C3295 C3297 1.500 . S
C3296 C3291 1.390 . S
C3296 C3295 1.361 . S
C3296 H3314 0.931 . S
C3297 C3295 1.500 . S
C3297 C3298 1.371 . S
C3297 C3299 1.365 . S
C3298 C3297 1.371 . S
C3298 C3308 1.386 . S
C3298 H3316 0.931 . S
C3299 C3297 1.365 . S
C3299 C3300 1.409 . S
C3299 H3317 0.929 . S
C3300 C3299 1.409 . S
C3300 C3301 1.380 . S
C3300 H3318 0.930 . S
C3301 C3300 1.380 . S
C3301 C3308 1.357 . S
C3302 C3293 1.511 . S
C3302 C3303 1.341 . S
C3302 C3304 1.371 . S
C3303 C3302 1.341 . S
C3303 C3307 1.394 . S
C3303 H3319 0.930 . S
C3304 C3302 1.371 . S
C3304 C3305 1.392 . S
C3304 H3320 0.931 . S
C3305 C3304 1.392 . S
C3305 C3306 1.331 . S
C3305 H3323 0.932 . S
C3306 C3305 1.331 . S
C3306 C3307 1.336 . S
C3307 C3303 1.394 . S
C3307 C3306 1.336 . S
C3307 H3322 0.929 . S
C3308 C3298 1.386 . S
C3308 C3301 1.357 . S
C3308 H3321 0.928 . S
H3309 C3285 0.931 . S
H3310 C3287 0.930 . S
H3311 C3289 0.929 . S
H3312 C3290 0.931 . S
H3313 C3292 0.930 . S
H3314 C3296 0.931 . S
H3315 C3294 0.931 . S
H3316 C3298 0.931 . S
H3317 C3299 0.929 . S
H3318 C3300 0.930 . S
H3319 C3303 0.930 . S
H3320 C3304 0.931 . S
H3321 C3308 0.928 . S
H3322 C3307 0.929 . S
H3323 C3305 0.932 . S
C3324 C3325 1.386 . S
C3324 C3326 1.397 . S
C3324 H3348 0.931 . S
C3325 C3324 1.386 . S
C3325 C3329 1.397 . S
C3326 C3324 1.397 . S
C3326 C3327 1.384 . S
C3326 H3349 0.930 . S
C3327 C3326 1.384 . S
C3327 C3328 1.377 . S
C3327 C3330 1.481 . S
C3328 C3327 1.377 . S
C3328 C3329 1.389 . S
C3328 H3350 0.929 . S
C3329 C3325 1.397 . S
C3329 C3328 1.389 . S
C3329 H3351 0.931 . S
C3330 C3327 1.481 . S
C3330 C3331 1.387 . S
C3330 C3335 1.390 . S
C3331 C3330 1.387 . S
C3331 C3332 1.401 . S
C3331 H3352 0.930 . S
C3332 C3331 1.401 . S
C3332 C3333 1.376 . S
C3332 C3341 1.511 . S
C3333 C3332 1.376 . S
C3333 C3334 1.392 . S
C3333 H3354 0.931 . S
C3334 C3333 1.392 . S
C3334 C3335 1.361 . S
C3334 C3336 1.500 . S
C3335 C3330 1.390 . S
C3335 C3334 1.361 . S
C3335 H3353 0.931 . S
C3336 C3334 1.500 . S
C3336 C3337 1.371 . S
C3336 C3338 1.365 . S
C3337 C3336 1.371 . S
C3337 C3347 1.386 . S
C3337 H3355 0.931 . S
C3338 C3336 1.365 . S
C3338 C3339 1.409 . S
C3338 H3356 0.929 . S
C3339 C3338 1.409 . S
C3339 C3340 1.380 . S
C3339 H3357 0.930 . S
C3340 C3339 1.380 . S
C3340 C3347 1.357 . S
C3341 C3332 1.511 . S
C3341 C3342 1.341 . S
C3341 C3343 1.371 . S
C3342 C3341 1.341 . S
C3342 C3346 1.394 . S
C3342 H3358 0.930 . S
C3343 C3341 1.371 . S
C3343 C3344 1.392 . S
C3343 H3359 0.931 . S
C3344 C3343 1.392 . S
C3344 C3345 1.331 . S
C3344 H3362 0.932 . S
C3345 C3344 1.331 . S
C3345 C3346 1.336 . S
C3346 C3342 1.394 . S
C3346 C3345 1.336 . S
C3346 H3361 0.929 . S
C3347 C3337 1.386 . S
C3347 C3340 1.357 . S
C3347 H3360 0.928 . S
H3348 C3324 0.931 . S
H3349 C3326 0.930 . S
H3350 C3328 0.929 . S
H3351 C3329 0.931 . S
H3352 C3331 0.930 . S
H3353 C3335 0.931 . S
H3354 C3333 0.931 . S
H3355 C3337 0.931 . S
H3356 C3338 0.929 . S
H3357 C3339 0.930 . S
H3358 C3342 0.930 . S
H3359 C3343 0.931 . S
H3360 C3347 0.928 . S
H3361 C3346 0.929 . S
H3362 C3344 0.932 . S
C3363 C3364 1.386 . S
C3363 C3365 1.397 . S
C3363 H3387 0.931 . S
C3364 C3363 1.386 . S
C3364 C3368 1.397 . S
C3365 C3363 1.397 . S
C3365 C3366 1.384 . S
C3365 H3388 0.930 . S
C3366 C3365 1.384 . S
C3366 C3367 1.377 . S
C3366 C3369 1.481 . S
C3367 C3366 1.377 . S
C3367 C3368 1.389 . S
C3367 H3389 0.929 . S
C3368 C3364 1.397 . S
C3368 C3367 1.389 . S
C3368 H3390 0.931 . S
C3369 C3366 1.481 . S
C3369 C3370 1.387 . S
C3369 C3374 1.390 . S
C3370 C3369 1.387 . S
C3370 C3371 1.401 . S
C3370 H3391 0.930 . S
C3371 C3370 1.401 . S
C3371 C3372 1.376 . S
C3371 C3380 1.511 . S
C3372 C3371 1.376 . S
C3372 C3373 1.392 . S
C3372 H3393 0.931 . S
C3373 C3372 1.392 . S
C3373 C3374 1.361 . S
C3373 C3375 1.500 . S
C3374 C3369 1.390 . S
C3374 C3373 1.361 . S
C3374 H3392 0.931 . S
C3375 C3373 1.500 . S
C3375 C3376 1.371 . S
C3375 C3377 1.365 . S
C3376 C3375 1.371 . S
C3376 C3386 1.386 . S
C3376 H3394 0.931 . S
C3377 C3375 1.365 . S
C3377 C3378 1.409 . S
C3377 H3395 0.929 . S
C3378 C3377 1.409 . S
C3378 C3379 1.380 . S
C3378 H3396 0.930 . S
C3379 C3378 1.380 . S
C3379 C3386 1.357 . S
C3380 C3371 1.511 . S
C3380 C3381 1.341 . S
C3380 C3382 1.371 . S
C3381 C3380 1.341 . S
C3381 C3385 1.394 . S
C3381 H3397 0.930 . S
C3382 C3380 1.371 . S
C3382 C3383 1.392 . S
C3382 H3398 0.931 . S
C3383 C3382 1.392 . S
C3383 C3384 1.331 . S
C3383 H3401 0.932 . S
C3384 C3383 1.331 . S
C3384 C3385 1.336 . S
C3385 C3381 1.394 . S
C3385 C3384 1.336 . S
C3385 H3400 0.929 . S
C3386 C3376 1.386 . S
C3386 C3379 1.357 . S
C3386 H3399 0.928 . S
H3387 C3363 0.931 . S
H3388 C3365 0.930 . S
H3389 C3367 0.929 . S
H3390 C3368 0.931 . S
H3391 C3370 0.930 . S
H3392 C3374 0.931 . S
H3393 C3372 0.931 . S
H3394 C3376 0.931 . S
H3395 C3377 0.929 . S
H3396 C3378 0.930 . S
H3397 C3381 0.930 . S
H3398 C3382 0.931 . S
H3399 C3386 0.928 . S
H3400 C3385 0.929 . S
H3401 C3383 0.932 . S
C3402 C3403 1.386 . S
C3402 C3404 1.397 . S
C3402 H3426 0.931 . S
C3403 C3402 1.386 . S
C3403 C3407 1.397 . S
C3404 C3402 1.397 . S
C3404 C3405 1.384 . S
C3404 H3427 0.930 . S
C3405 C3404 1.384 . S
C3405 C3406 1.377 . S
C3405 C3408 1.481 . S
C3406 C3405 1.377 . S
C3406 C3407 1.389 . S
C3406 H3428 0.929 . S
C3407 C3403 1.397 . S
C3407 C3406 1.389 . S
C3407 H3429 0.931 . S
C3408 C3405 1.481 . S
C3408 C3409 1.387 . S
C3408 C3413 1.390 . S
C3409 C3408 1.387 . S
C3409 C3410 1.401 . S
C3409 H3430 0.930 . S
C3410 C3409 1.401 . S
C3410 C3411 1.376 . S
C3410 C3419 1.511 . S
C3411 C3410 1.376 . S
C3411 C3412 1.392 . S
C3411 H3432 0.931 . S
C3412 C3411 1.392 . S
C3412 C3413 1.361 . S
C3412 C3414 1.500 . S
C3413 C3408 1.390 . S
C3413 C3412 1.361 . S
C3413 H3431 0.931 . S
C3414 C3412 1.500 . S
C3414 C3415 1.371 . S
C3414 C3416 1.365 . S
C3415 C3414 1.371 . S
C3415 C3425 1.386 . S
C3415 H3433 0.931 . S
C3416 C3414 1.365 . S
C3416 C3417 1.409 . S
C3416 H3434 0.929 . S
C3417 C3416 1.409 . S
C3417 C3418 1.380 . S
C3417 H3435 0.930 . S
C3418 C3417 1.380 . S
C3418 C3425 1.357 . S
C3419 C3410 1.511 . S
C3419 C3420 1.341 . S
C3419 C3421 1.371 . S
C3420 C3419 1.341 . S
C3420 C3424 1.394 . S
C3420 H3436 0.930 . S
C3421 C3419 1.371 . S
C3421 C3422 1.392 . S
C3421 H3437 0.931 . S
C3422 C3421 1.392 . S
C3422 C3423 1.331 . S
C3422 H3440 0.932 . S
C3423 C3422 1.331 . S
C3423 C3424 1.336 . S
C3424 C3420 1.394 . S
C3424 C3423 1.336 . S
C3424 H3439 0.929 . S
C3425 C3415 1.386 . S
C3425 C3418 1.357 . S
C3425 H3438 0.928 . S
H3426 C3402 0.931 . S
H3427 C3404 0.930 . S
H3428 C3406 0.929 . S
H3429 C3407 0.931 . S
H3430 C3409 0.930 . S
H3431 C3413 0.931 . S
H3432 C3411 0.931 . S
H3433 C3415 0.931 . S
H3434 C3416 0.929 . S
H3435 C3417 0.930 . S
H3436 C3420 0.930 . S
H3437 C3421 0.931 . S
H3438 C3425 0.928 . S
H3439 C3424 0.929 . S
H3440 C3422 0.932 . S
C3441 C3442 1.386 . S
C3441 C3443 1.397 . S
C3441 H3465 0.931 . S
C3442 C3441 1.386 . S
C3442 C3446 1.397 . S
C3443 C3441 1.397 . S
C3443 C3444 1.384 . S
C3443 H3466 0.930 . S
C3444 C3443 1.384 . S
C3444 C3445 1.377 . S
C3444 C3447 1.481 . S
C3445 C3444 1.377 . S
C3445 C3446 1.389 . S
C3445 H3467 0.929 . S
C3446 C3442 1.397 . S
C3446 C3445 1.389 . S
C3446 H3468 0.931 . S
C3447 C3444 1.481 . S
C3447 C3448 1.387 . S
C3447 C3452 1.390 . S
C3448 C3447 1.387 . S
C3448 C3449 1.401 . S
C3448 H3469 0.930 . S
C3449 C3448 1.401 . S
C3449 C3450 1.376 . S
C3449 C3458 1.511 . S
C3450 C3449 1.376 . S
C3450 C3451 1.392 . S
C3450 H3471 0.931 . S
C3451 C3450 1.392 . S
C3451 C3452 1.361 . S
C3451 C3453 1.500 . S
C3452 C3447 1.390 . S
C3452 C3451 1.361 . S
C3452 H3470 0.931 . S
C3453 C3451 1.500 . S
C3453 C3454 1.371 . S
C3453 C3455 1.365 . S
C3454 C3453 1.371 . S
C3454 C3464 1.386 . S
C3454 H3472 0.931 . S
C3455 C3453 1.365 . S
C3455 C3456 1.409 . S
C3455 H3473 0.929 . S
C3456 C3455 1.409 . S
C3456 C3457 1.380 . S
C3456 H3474 0.930 . S
C3457 C3456 1.380 . S
C3457 C3464 1.357 . S
C3458 C3449 1.511 . S
C3458 C3459 1.341 . S
C3458 C3460 1.371 . S
C3459 C3458 1.341 . S
C3459 C3463 1.394 . S
C3459 H3475 0.930 . S
C3460 C3458 1.371 . S
C3460 C3461 1.392 . S
C3460 H3476 0.931 . S
C3461 C3460 1.392 . S
C3461 C3462 1.331 . S
C3461 H3479 0.932 . S
C3462 C3461 1.331 . S
C3462 C3463 1.336 . S
C3463 C3459 1.394 . S
C3463 C3462 1.336 . S
C3463 H3478 0.929 . S
C3464 C3454 1.386 . S
C3464 C3457 1.357 . S
C3464 H3477 0.928 . S
H3465 C3441 0.931 . S
H3466 C3443 0.930 . S
H3467 C3445 0.929 . S
H3468 C3446 0.931 . S
H3469 C3448 0.930 . S
H3470 C3452 0.931 . S
H3471 C3450 0.931 . S
H3472 C3454 0.931 . S
H3473 C3455 0.929 . S
H3474 C3456 0.930 . S
H3475 C3459 0.930 . S
H3476 C3460 0.931 . S
H3477 C3464 0.928 . S
H3478 C3463 0.929 . S
H3479 C3461 0.932 . S
C3480 C3481 1.386 . S
C3480 C3482 1.397 . S
C3480 H3504 0.931 . S
C3481 C3480 1.386 . S
C3481 C3485 1.397 . S
C3482 C3480 1.397 . S
C3482 C3483 1.384 . S
C3482 H3505 0.930 . S
C3483 C3482 1.384 . S
C3483 C3484 1.377 . S
C3483 C3486 1.481 . S
C3484 C3483 1.377 . S
C3484 C3485 1.389 . S
C3484 H3506 0.929 . S
C3485 C3481 1.397 . S
C3485 C3484 1.389 . S
C3485 H3507 0.931 . S
C3486 C3483 1.481 . S
C3486 C3487 1.387 . S
C3486 C3491 1.390 . S
C3487 C3486 1.387 . S
C3487 C3488 1.401 . S
C3487 H3508 0.930 . S
C3488 C3487 1.401 . S
C3488 C3489 1.376 . S
C3488 C3497 1.511 . S
C3489 C3488 1.376 . S
C3489 C3490 1.392 . S
C3489 H3510 0.931 . S
C3490 C3489 1.392 . S
C3490 C3491 1.361 . S
C3490 C3492 1.500 . S
C3491 C3486 1.390 . S
C3491 C3490 1.361 . S
C3491 H3509 0.931 . S
C3492 C3490 1.500 . S
C3492 C3493 1.371 . S
C3492 C3494 1.365 . S
C3493 C3492 1.371 . S
C3493 C3503 1.386 . S
C3493 H3511 0.931 . S
C3494 C3492 1.365 . S
C3494 C3495 1.409 . S
C3494 H3512 0.929 . S
C3495 C3494 1.409 . S
C3495 C3496 1.380 . S
C3495 H3513 0.930 . S
C3496 C3495 1.380 . S
C3496 C3503 1.357 . S
C3497 C3488 1.511 . S
C3497 C3498 1.341 . S
C3497 C3499 1.371 . S
C3498 C3497 1.341 . S
C3498 C3502 1.394 . S
C3498 H3514 0.930 . S
C3499 C3497 1.371 . S
C3499 C3500 1.392 . S
C3499 H3515 0.931 . S
C3500 C3499 1.392 . S
C3500 C3501 1.331 . S
C3500 H3518 0.932 . S
C3501 C3500 1.331 . S
C3501 C3502 1.336 . S
C3502 C3498 1.394 . S
C3502 C3501 1.336 . S
C3502 H3517 0.929 . S
C3503 C3493 1.386 . S
C3503 C3496 1.357 . S
C3503 H3516 0.928 . S
H3504 C3480 0.931 . S
H3505 C3482 0.930 . S
H3506 C3484 0.929 . S
H3507 C3485 0.931 . S
H3508 C3487 0.930 . S
H3509 C3491 0.931 . S
H3510 C3489 0.931 . S
H3511 C3493 0.931 . S
H3512 C3494 0.929 . S
H3513 C3495 0.930 . S
H3514 C3498 0.930 . S
H3515 C3499 0.931 . S
H3516 C3503 0.928 . S
H3517 C3502 0.929 . S
H3518 C3500 0.932 . S
C3519 C3520 1.386 . S
C3519 C3521 1.397 . S
C3519 H3543 0.931 . S
C3520 C3519 1.386 . S
C3520 C3524 1.397 . S
C3521 C3519 1.397 . S
C3521 C3522 1.384 . S
C3521 H3544 0.930 . S
C3522 C3521 1.384 . S
C3522 C3523 1.377 . S
C3522 C3525 1.481 . S
C3523 C3522 1.377 . S
C3523 C3524 1.389 . S
C3523 H3545 0.929 . S
C3524 C3520 1.397 . S
C3524 C3523 1.389 . S
C3524 H3546 0.931 . S
C3525 C3522 1.481 . S
C3525 C3526 1.387 . S
C3525 C3530 1.390 . S
C3526 C3525 1.387 . S
C3526 C3527 1.401 . S
C3526 H3547 0.930 . S
C3527 C3526 1.401 . S
C3527 C3528 1.376 . S
C3527 C3536 1.511 . S
C3528 C3527 1.376 . S
C3528 C3529 1.392 . S
C3528 H3549 0.931 . S
C3529 C3528 1.392 . S
C3529 C3530 1.361 . S
C3529 C3531 1.500 . S
C3530 C3525 1.390 . S
C3530 C3529 1.361 . S
C3530 H3548 0.931 . S
C3531 C3529 1.500 . S
C3531 C3532 1.371 . S
C3531 C3533 1.365 . S
C3532 C3531 1.371 . S
C3532 C3542 1.386 . S
C3532 H3550 0.931 . S
C3533 C3531 1.365 . S
C3533 C3534 1.409 . S
C3533 H3551 0.929 . S
C3534 C3533 1.409 . S
C3534 C3535 1.380 . S
C3534 H3552 0.930 . S
C3535 C3534 1.380 . S
C3535 C3542 1.357 . S
C3536 C3527 1.511 . S
C3536 C3537 1.341 . S
C3536 C3538 1.371 . S
C3537 C3536 1.341 . S
C3537 C3541 1.394 . S
C3537 H3553 0.930 . S
C3538 C3536 1.371 . S
C3538 C3539 1.392 . S
C3538 H3554 0.931 . S
C3539 C3538 1.392 . S
C3539 C3540 1.331 . S
C3539 H3557 0.932 . S
C3540 C3539 1.331 . S
C3540 C3541 1.336 . S
C3541 C3537 1.394 . S
C3541 C3540 1.336 . S
C3541 H3556 0.929 . S
C3542 C3532 1.386 . S
C3542 C3535 1.357 . S
C3542 H3555 0.928 . S
H3543 C3519 0.931 . S
H3544 C3521 0.930 . S
H3545 C3523 0.929 . S
H3546 C3524 0.931 . S
H3547 C3526 0.930 . S
H3548 C3530 0.931 . S
H3549 C3528 0.931 . S
H3550 C3532 0.931 . S
H3551 C3533 0.929 . S
H3552 C3534 0.930 . S
H3553 C3537 0.930 . S
H3554 C3538 0.931 . S
H3555 C3542 0.928 . S
H3556 C3541 0.929 . S
H3557 C3539 0.932 . S
C3558 C3559 1.386 . S
C3558 C3560 1.397 . S
C3558 H3582 0.931 . S
C3559 C3558 1.386 . S
C3559 C3563 1.397 . S
C3560 C3558 1.397 . S
C3560 C3561 1.384 . S
C3560 H3583 0.930 . S
C3561 C3560 1.384 . S
C3561 C3562 1.377 . S
C3561 C3564 1.481 . S
C3562 C3561 1.377 . S
C3562 C3563 1.389 . S
C3562 H3584 0.929 . S
C3563 C3559 1.397 . S
C3563 C3562 1.389 . S
C3563 H3585 0.931 . S
C3564 C3561 1.481 . S
C3564 C3565 1.387 . S
C3564 C3569 1.390 . S
C3565 C3564 1.387 . S
C3565 C3566 1.401 . S
C3565 H3586 0.930 . S
C3566 C3565 1.401 . S
C3566 C3567 1.376 . S
C3566 C3575 1.511 . S
C3567 C3566 1.376 . S
C3567 C3568 1.392 . S
C3567 H3588 0.931 . S
C3568 C3567 1.392 . S
C3568 C3569 1.361 . S
C3568 C3570 1.500 . S
C3569 C3564 1.390 . S
C3569 C3568 1.361 . S
C3569 H3587 0.931 . S
C3570 C3568 1.500 . S
C3570 C3571 1.371 . S
C3570 C3572 1.365 . S
C3571 C3570 1.371 . S
C3571 C3581 1.386 . S
C3571 H3589 0.931 . S
C3572 C3570 1.365 . S
C3572 C3573 1.409 . S
C3572 H3590 0.929 . S
C3573 C3572 1.409 . S
C3573 C3574 1.380 . S
C3573 H3591 0.930 . S
C3574 C3573 1.380 . S
C3574 C3581 1.357 . S
C3575 C3566 1.511 . S
C3575 C3576 1.341 . S
C3575 C3577 1.371 . S
C3576 C3575 1.341 . S
C3576 C3580 1.394 . S
C3576 H3592 0.930 . S
C3577 C3575 1.371 . S
C3577 C3578 1.392 . S
C3577 H3593 0.931 . S
C3578 C3577 1.392 . S
C3578 C3579 1.331 . S
C3578 H3596 0.932 . S
C3579 C3578 1.331 . S
C3579 C3580 1.336 . S
C3580 C3576 1.394 . S
C3580 C3579 1.336 . S
C3580 H3595 0.929 . S
C3581 C3571 1.386 . S
C3581 C3574 1.357 . S
C3581 H3594 0.928 . S
H3582 C3558 0.931 . S
H3583 C3560 0.930 . S
H3584 C3562 0.929 . S
H3585 C3563 0.931 . S
H3586 C3565 0.930 . S
H3587 C3569 0.931 . S
H3588 C3567 0.931 . S
H3589 C3571 0.931 . S
H3590 C3572 0.929 . S
H3591 C3573 0.930 . S
H3592 C3576 0.930 . S
H3593 C3577 0.931 . S
H3594 C3581 0.928 . S
H3595 C3580 0.929 . S
H3596 C3578 0.932 . S
C3597 C3598 1.386 . S
C3597 C3599 1.397 . S
C3597 H3621 0.931 . S
C3598 C3597 1.386 . S
C3598 C3602 1.397 . S
C3599 C3597 1.397 . S
C3599 C3600 1.384 . S
C3599 H3622 0.930 . S
C3600 C3599 1.384 . S
C3600 C3601 1.377 . S
C3600 C3603 1.481 . S
C3601 C3600 1.377 . S
C3601 C3602 1.389 . S
C3601 H3623 0.929 . S
C3602 C3598 1.397 . S
C3602 C3601 1.389 . S
C3602 H3624 0.931 . S
C3603 C3600 1.481 . S
C3603 C3604 1.387 . S
C3603 C3608 1.390 . S
C3604 C3603 1.387 . S
C3604 C3605 1.401 . S
C3604 H3625 0.930 . S
C3605 C3604 1.401 . S
C3605 C3606 1.376 . S
C3605 C3614 1.511 . S
C3606 C3605 1.376 . S
C3606 C3607 1.392 . S
C3606 H3627 0.931 . S
C3607 C3606 1.392 . S
C3607 C3608 1.361 . S
C3607 C3609 1.500 . S
C3608 C3603 1.390 . S
C3608 C3607 1.361 . S
C3608 H3626 0.931 . S
C3609 C3607 1.500 . S
C3609 C3610 1.371 . S
C3609 C3611 1.365 . S
C3610 C3609 1.371 . S
C3610 C3620 1.386 . S
C3610 H3628 0.931 . S
C3611 C3609 1.365 . S
C3611 C3612 1.409 . S
C3611 H3629 0.929 . S
C3612 C3611 1.409 . S
C3612 C3613 1.380 . S
C3612 H3630 0.930 . S
C3613 C3612 1.380 . S
C3613 C3620 1.357 . S
C3614 C3605 1.511 . S
C3614 C3615 1.341 . S
C3614 C3616 1.371 . S
C3615 C3614 1.341 . S
C3615 C3619 1.394 . S
C3615 H3631 0.930 . S
C3616 C3614 1.371 . S
C3616 C3617 1.392 . S
C3616 H3632 0.931 . S
C3617 C3616 1.392 . S
C3617 C3618 1.331 . S
C3617 H3635 0.932 . S
C3618 C3617 1.331 . S
C3618 C3619 1.336 . S
C3619 C3615 1.394 . S
C3619 C3618 1.336 . S
C3619 H3634 0.929 . S
C3620 C3610 1.386 . S
C3620 C3613 1.357 . S
C3620 H3633 0.928 . S
H3621 C3597 0.931 . S
H3622 C3599 0.930 . S
H3623 C3601 0.929 . S
H3624 C3602 0.931 . S
H3625 C3604 0.930 . S
H3626 C3608 0.931 . S
H3627 C3606 0.931 . S
H3628 C3610 0.931 . S
H3629 C3611 0.929 . S
H3630 C3612 0.930 . S
H3631 C3615 0.930 . S
H3632 C3616 0.931 . S
H3633 C3620 0.928 . S
H3634 C3619 0.929 . S
H3635 C3617 0.932 . S
C3636 C3637 1.386 . S
C3636 C3638 1.397 . S
C3636 H3660 0.931 . S
C3637 C3636 1.386 . S
C3637 C3641 1.397 . S
C3638 C3636 1.397 . S
C3638 C3639 1.384 . S
C3638 H3661 0.930 . S
C3639 C3638 1.384 . S
C3639 C3640 1.377 . S
C3639 C3642 1.481 . S
C3640 C3639 1.377 . S
C3640 C3641 1.389 . S
C3640 H3662 0.929 . S
C3641 C3637 1.397 . S
C3641 C3640 1.389 . S
C3641 H3663 0.931 . S
C3642 C3639 1.481 . S
C3642 C3643 1.387 . S
C3642 C3647 1.390 . S
C3643 C3642 1.387 . S
C3643 C3644 1.401 . S
C3643 H3664 0.930 . S
C3644 C3643 1.401 . S
C3644 C3645 1.376 . S
C3644 C3653 1.511 . S
C3645 C3644 1.376 . S
C3645 C3646 1.392 . S
C3645 H3666 0.931 . S
C3646 C3645 1.392 . S
C3646 C3647 1.361 . S
C3646 C3648 1.500 . S
C3647 C3642 1.390 . S
C3647 C3646 1.361 . S
C3647 H3665 0.931 . S
C3648 C3646 1.500 . S
C3648 C3649 1.371 . S
C3648 C3650 1.365 . S
C3649 C3648 1.371 . S
C3649 C3659 1.386 . S
C3649 H3667 0.931 . S
C3650 C3648 1.365 . S
C3650 C3651 1.409 . S
C3650 H3668 0.929 . S
C3651 C3650 1.409 . S
C3651 C3652 1.380 . S
C3651 H3669 0.930 . S
C3652 C3651 1.380 . S
C3652 C3659 1.357 . S
C3653 C3644 1.511 . S
C3653 C3654 1.341 . S
C3653 C3655 1.371 . S
C3654 C3653 1.341 . S
C3654 C3658 1.394 . S
C3654 H3670 0.930 . S
C3655 C3653 1.371 . S
C3655 C3656 1.392 . S
C3655 H3671 0.931 . S
C3656 C3655 1.392 . S
C3656 C3657 1.331 . S
C3656 H3674 0.932 . S
C3657 C3656 1.331 . S
C3657 C3658 1.336 . S
C3658 C3654 1.394 . S
C3658 C3657 1.336 . S
C3658 H3673 0.929 . S
C3659 C3649 1.386 . S
C3659 C3652 1.357 . S
C3659 H3672 0.928 . S
H3660 C3636 0.931 . S
H3661 C3638 0.930 . S
H3662 C3640 0.929 . S
H3663 C3641 0.931 . S
H3664 C3643 0.930 . S
H3665 C3647 0.931 . S
H3666 C3645 0.931 . S
H3667 C3649 0.931 . S
H3668 C3650 0.929 . S
H3669 C3651 0.930 . S
H3670 C3654 0.930 . S
H3671 C3655 0.931 . S
H3672 C3659 0.928 . S
H3673 C3658 0.929 . S
H3674 C3656 0.932 . S
C3675 C3676 1.386 . S
C3675 C3677 1.397 . S
C3675 H3699 0.931 . S
C3676 C3675 1.386 . S
C3676 C3680 1.397 . S
C3677 C3675 1.397 . S
C3677 C3678 1.384 . S
C3677 H3700 0.930 . S
C3678 C3677 1.384 . S
C3678 C3679 1.377 . S
C3678 C3681 1.481 . S
C3679 C3678 1.377 . S
C3679 C3680 1.389 . S
C3679 H3701 0.929 . S
C3680 C3676 1.397 . S
C3680 C3679 1.389 . S
C3680 H3702 0.931 . S
C3681 C3678 1.481 . S
C3681 C3682 1.387 . S
C3681 C3686 1.390 . S
C3682 C3681 1.387 . S
C3682 C3683 1.401 . S
C3682 H3703 0.930 . S
C3683 C3682 1.401 . S
C3683 C3684 1.376 . S
C3683 C3692 1.511 . S
C3684 C3683 1.376 . S
C3684 C3685 1.392 . S
C3684 H3705 0.931 . S
C3685 C3684 1.392 . S
C3685 C3686 1.361 . S
C3685 C3687 1.500 . S
C3686 C3681 1.390 . S
C3686 C3685 1.361 . S
C3686 H3704 0.931 . S
C3687 C3685 1.500 . S
C3687 C3688 1.371 . S
C3687 C3689 1.365 . S
C3688 C3687 1.371 . S
C3688 C3698 1.386 . S
C3688 H3706 0.931 . S
C3689 C3687 1.365 . S
C3689 C3690 1.409 . S
C3689 H3707 0.929 . S
C3690 C3689 1.409 . S
C3690 C3691 1.380 . S
C3690 H3708 0.930 . S
C3691 C3690 1.380 . S
C3691 C3698 1.357 . S
C3692 C3683 1.511 . S
C3692 C3693 1.341 . S
C3692 C3694 1.371 . S
C3693 C3692 1.341 . S
C3693 C3697 1.394 . S
C3693 H3709 0.930 . S
C3694 C3692 1.371 . S
C3694 C3695 1.392 . S
C3694 H3710 0.931 . S
C3695 C3694 1.392 . S
C3695 C3696 1.331 . S
C3695 H3713 0.932 . S
C3696 C3695 1.331 . S
C3696 C3697 1.336 . S
C3697 C3693 1.394 . S
C3697 C3696 1.336 . S
C3697 H3712 0.929 . S
C3698 C3688 1.386 . S
C3698 C3691 1.357 . S
C3698 H3711 0.928 . S
H3699 C3675 0.931 . S
H3700 C3677 0.930 . S
H3701 C3679 0.929 . S
H3702 C3680 0.931 . S
H3703 C3682 0.930 . S
H3704 C3686 0.931 . S
H3705 C3684 0.931 . S
H3706 C3688 0.931 . S
H3707 C3689 0.929 . S
H3708 C3690 0.930 . S
H3709 C3693 0.930 . S
H3710 C3694 0.931 . S
H3711 C3698 0.928 . S
H3712 C3697 0.929 . S
H3713 C3695 0.932 . S
C3714 C3715 1.386 . S
C3714 C3716 1.397 . S
C3714 H3738 0.931 . S
C3715 C3714 1.386 . S
C3715 C3719 1.397 . S
C3716 C3714 1.397 . S
C3716 C3717 1.384 . S
C3716 H3739 0.930 . S
C3717 C3716 1.384 . S
C3717 C3718 1.377 . S
C3717 C3720 1.481 . S
C3718 C3717 1.377 . S
C3718 C3719 1.389 . S
C3718 H3740 0.929 . S
C3719 C3715 1.397 . S
C3719 C3718 1.389 . S
C3719 H3741 0.931 . S
C3720 C3717 1.481 . S
C3720 C3721 1.387 . S
C3720 C3725 1.390 . S
C3721 C3720 1.387 . S
C3721 C3722 1.401 . S
C3721 H3742 0.930 . S
C3722 C3721 1.401 . S
C3722 C3723 1.376 . S
C3722 C3731 1.511 . S
C3723 C3722 1.376 . S
C3723 C3724 1.392 . S
C3723 H3744 0.931 . S
C3724 C3723 1.392 . S
C3724 C3725 1.361 . S
C3724 C3726 1.500 . S
C3725 C3720 1.390 . S
C3725 C3724 1.361 . S
C3725 H3743 0.931 . S
C3726 C3724 1.500 . S
C3726 C3727 1.371 . S
C3726 C3728 1.365 . S
C3727 C3726 1.371 . S
C3727 C3737 1.386 . S
C3727 H3745 0.931 . S
C3728 C3726 1.365 . S
C3728 C3729 1.409 . S
C3728 H3746 0.929 . S
C3729 C3728 1.409 . S
C3729 C3730 1.380 . S
C3729 H3747 0.930 . S
C3730 C3729 1.380 . S
C3730 C3737 1.357 . S
C3731 C3722 1.511 . S
C3731 C3732 1.341 . S
C3731 C3733 1.371 . S
C3732 C3731 1.341 . S
C3732 C3736 1.394 . S
C3732 H3748 0.930 . S
C3733 C3731 1.371 . S
C3733 C3734 1.392 . S
C3733 H3749 0.931 . S
C3734 C3733 1.392 . S
C3734 C3735 1.331 . S
C3734 H3752 0.932 . S
C3735 C3734 1.331 . S
C3735 C3736 1.336 . S
C3736 C3732 1.394 . S
C3736 C3735 1.336 . S
C3736 H3751 0.929 . S
C3737 C3727 1.386 . S
C3737 C3730 1.357 . S
C3737 H3750 0.928 . S
H3738 C3714 0.931 . S
H3739 C3716 0.930 . S
H3740 C3718 0.929 . S
H3741 C3719 0.931 . S
H3742 C3721 0.930 . S
H3743 C3725 0.931 . S
H3744 C3723 0.931 . S
H3745 C3727 0.931 . S
H3746 C3728 0.929 . S
H3747 C3729 0.930 . S
H3748 C3732 0.930 . S
H3749 C3733 0.931 . S
H3750 C3737 0.928 . S
H3751 C3736 0.929 . S
H3752 C3734 0.932 . S
C3753 C3754 1.386 . S
C3753 C3755 1.397 . S
C3753 H3777 0.931 . S
C3754 C3753 1.386 . S
C3754 C3758 1.397 . S
C3755 C3753 1.397 . S
C3755 C3756 1.384 . S
C3755 H3778 0.930 . S
C3756 C3755 1.384 . S
C3756 C3757 1.377 . S
C3756 C3759 1.481 . S
C3757 C3756 1.377 . S
C3757 C3758 1.389 . S
C3757 H3779 0.929 . S
C3758 C3754 1.397 . S
C3758 C3757 1.389 . S
C3758 H3780 0.931 . S
C3759 C3756 1.481 . S
C3759 C3760 1.387 . S
C3759 C3764 1.390 . S
C3760 C3759 1.387 . S
C3760 C3761 1.401 . S
C3760 H3781 0.930 . S
C3761 C3760 1.401 . S
C3761 C3762 1.376 . S
C3761 C3770 1.511 . S
C3762 C3761 1.376 . S
C3762 C3763 1.392 . S
C3762 H3783 0.931 . S
C3763 C3762 1.392 . S
C3763 C3764 1.361 . S
C3763 C3765 1.500 . S
C3764 C3759 1.390 . S
C3764 C3763 1.361 . S
C3764 H3782 0.931 . S
C3765 C3763 1.500 . S
C3765 C3766 1.371 . S
C3765 C3767 1.365 . S
C3766 C3765 1.371 . S
C3766 C3776 1.386 . S
C3766 H3784 0.931 . S
C3767 C3765 1.365 . S
C3767 C3768 1.409 . S
C3767 H3785 0.929 . S
C3768 C3767 1.409 . S
C3768 C3769 1.380 . S
C3768 H3786 0.930 . S
C3769 C3768 1.380 . S
C3769 C3776 1.357 . S
C3770 C3761 1.511 . S
C3770 C3771 1.341 . S
C3770 C3772 1.371 . S
C3771 C3770 1.341 . S
C3771 C3775 1.394 . S
C3771 H3787 0.930 . S
C3772 C3770 1.371 . S
C3772 C3773 1.392 . S
C3772 H3788 0.931 . S
C3773 C3772 1.392 . S
C3773 C3774 1.331 . S
C3773 H3791 0.932 . S
C3774 C3773 1.331 . S
C3774 C3775 1.336 . S
C3775 C3771 1.394 . S
C3775 C3774 1.336 . S
C3775 H3790 0.929 . S
C3776 C3766 1.386 . S
C3776 C3769 1.357 . S
C3776 H3789 0.928 . S
H3777 C3753 0.931 . S
H3778 C3755 0.930 . S
H3779 C3757 0.929 . S
H3780 C3758 0.931 . S
H3781 C3760 0.930 . S
H3782 C3764 0.931 . S
H3783 C3762 0.931 . S
H3784 C3766 0.931 . S
H3785 C3767 0.929 . S
H3786 C3768 0.930 . S
H3787 C3771 0.930 . S
H3788 C3772 0.931 . S
H3789 C3776 0.928 . S
H3790 C3775 0.929 . S
H3791 C3773 0.932 . S
H3792 C3800 0.950 . S
H3793 C3805 0.950 . S
H3794 C3802 0.950 . S
H3795 C3804 0.950 . S
H3796 C3806 0.950 . S
H3797 C3808 0.950 . S
H3798 C3810 0.950 . S
H3799 C3811 0.950 . S
C3800 H3792 0.950 . S
C3800 C3801 1.386 . S
C3800 C3802 1.391 . S
C3801 C3800 1.386 . S
C3801 C3805 1.393 . S
C3802 H3794 0.950 . S
C3802 C3800 1.391 . S
C3802 C3803 1.400 . S
C3803 C3802 1.400 . S
C3803 C3804 1.398 . S
C3803 C3809 1.491 . S
C3804 H3795 0.950 . S
C3804 C3803 1.398 . S
C3804 C3805 1.391 . S
C3805 H3793 0.950 . S
C3805 C3801 1.393 . S
C3805 C3804 1.391 . S
C3806 H3796 0.950 . S
C3806 C3807 1.386 . S
C3806 C3808 1.391 . S
C3807 C3806 1.386 . S
C3807 C3811 1.393 . S
C3808 H3797 0.950 . S
C3808 C3806 1.391 . S
C3808 C3809 1.400 . S
C3809 C3803 1.491 . S
C3809 C3808 1.400 . S
C3809 C3810 1.398 . S
C3810 H3798 0.950 . S
C3810 C3809 1.398 . S
C3810 C3811 1.391 . S
C3811 H3799 0.950 . S
C3811 C3807 1.393 . S
C3811 C3810 1.391 . S
H3812 C3820 0.950 . S
H3813 C3825 0.950 . S
H3814 C3822 0.950 . S
H3815 C3824 0.950 . S
H3816 C3826 0.950 . S
H3817 C3828 0.950 . S
H3818 C3830 0.950 . S
H3819 C3831 0.950 . S
C3820 H3812 0.950 . S
C3820 C3821 1.386 . S
C3820 C3822 1.391 . S
C3821 C3820 1.386 . S
C3821 C3825 1.393 . S
C3822 H3814 0.950 . S
C3822 C3820 1.391 . S
C3822 C3823 1.400 . S
C3823 C3822 1.400 . S
C3823 C3824 1.398 . S
C3823 C3829 1.491 . S
C3824 H3815 0.950 . S
C3824 C3823 1.398 . S
C3824 C3825 1.391 . S
C3825 H3813 0.950 . S
C3825 C3821 1.393 . S
C3825 C3824 1.391 . S
C3826 H3816 0.950 . S
C3826 C3827 1.386 . S
C3826 C3828 1.391 . S
C3827 C3826 1.386 . S
C3827 C3831 1.393 . S
C3828 H3817 0.950 . S
C3828 C3826 1.391 . S
C3828 C3829 1.400 . S
C3829 C3823 1.491 . S
C3829 C3828 1.400 . S
C3829 C3830 1.398 . S
C3830 H3818 0.950 . S
C3830 C3829 1.398 . S
C3830 C3831 1.391 . S
C3831 H3819 0.950 . S
C3831 C3827 1.393 . S
C3831 C3830 1.391 . S
H3832 C3840 0.950 . S
H3833 C3845 0.950 . S
H3834 C3842 0.950 . S
H3835 C3844 0.950 . S
H3836 C3846 0.950 . S
H3837 C3848 0.950 . S
H3838 C3850 0.950 . S
H3839 C3851 0.950 . S
C3840 H3832 0.950 . S
C3840 C3841 1.386 . S
C3840 C3842 1.391 . S
C3841 C3840 1.386 . S
C3841 C3845 1.393 . S
C3842 H3834 0.950 . S
C3842 C3840 1.391 . S
C3842 C3843 1.400 . S
C3843 C3842 1.400 . S
C3843 C3844 1.398 . S
C3843 C3849 1.491 . S
C3844 H3835 0.950 . S
C3844 C3843 1.398 . S
C3844 C3845 1.391 . S
C3845 H3833 0.950 . S
C3845 C3841 1.393 . S
C3845 C3844 1.391 . S
C3846 H3836 0.950 . S
C3846 C3847 1.386 . S
C3846 C3848 1.391 . S
C3847 C3846 1.386 . S
C3847 C3851 1.393 . S
C3848 H3837 0.950 . S
C3848 C3846 1.391 . S
C3848 C3849 1.400 . S
C3849 C3843 1.491 . S
C3849 C3848 1.400 . S
C3849 C3850 1.398 . S
C3850 H3838 0.950 . S
C3850 C3849 1.398 . S
C3850 C3851 1.391 . S
C3851 H3839 0.950 . S
C3851 C3847 1.393 . S
C3851 C3850 1.391 . S
H3852 C3860 0.950 . S
H3853 C3865 0.950 . S
H3854 C3862 0.950 . S
H3855 C3864 0.950 . S
H3856 C3866 0.950 . S
H3857 C3868 0.950 . S
H3858 C3870 0.950 . S
H3859 C3871 0.950 . S
C3860 H3852 0.950 . S
C3860 C3861 1.386 . S
C3860 C3862 1.391 . S
C3861 C3860 1.386 . S
C3861 C3865 1.393 . S
C3862 H3854 0.950 . S
C3862 C3860 1.391 . S
C3862 C3863 1.400 . S
C3863 C3862 1.400 . S
C3863 C3864 1.398 . S
C3863 C3869 1.491 . S
C3864 H3855 0.950 . S
C3864 C3863 1.398 . S
C3864 C3865 1.391 . S
C3865 H3853 0.950 . S
C3865 C3861 1.393 . S
C3865 C3864 1.391 . S
C3866 H3856 0.950 . S
C3866 C3867 1.386 . S
C3866 C3868 1.391 . S
C3867 C3866 1.386 . S
C3867 C3871 1.393 . S
C3868 H3857 0.950 . S
C3868 C3866 1.391 . S
C3868 C3869 1.400 . S
C3869 C3863 1.491 . S
C3869 C3868 1.400 . S
C3869 C3870 1.398 . S
C3870 H3858 0.950 . S
C3870 C3869 1.398 . S
C3870 C3871 1.391 . S
C3871 H3859 0.950 . S
C3871 C3867 1.393 . S
C3871 C3870 1.391 . S
H3872 C3880 0.950 . S
H3873 C3885 0.950 . S
H3874 C3882 0.950 . S
H3875 C3884 0.950 . S
H3876 C3886 0.950 . S
H3877 C3888 0.950 . S
H3878 C3890 0.950 . S
H3879 C3891 0.950 . S
C3880 H3872 0.950 . S
C3880 C3881 1.386 . S
C3880 C3882 1.391 . S
C3881 C3880 1.386 . S
C3881 C3885 1.393 . S
C3882 H3874 0.950 . S
C3882 C3880 1.391 . S
C3882 C3883 1.400 . S
C3883 C3882 1.400 . S
C3883 C3884 1.398 . S
C3883 C3889 1.491 . S
C3884 H3875 0.950 . S
C3884 C3883 1.398 . S
C3884 C3885 1.391 . S
C3885 H3873 0.950 . S
C3885 C3881 1.393 . S
C3885 C3884 1.391 . S
C3886 H3876 0.950 . S
C3886 C3887 1.386 . S
C3886 C3888 1.391 . S
C3887 C3886 1.386 . S
C3887 C3891 1.393 . S
C3888 H3877 0.950 . S
C3888 C3886 1.391 . S
C3888 C3889 1.400 . S
C3889 C3883 1.491 . S
C3889 C3888 1.400 . S
C3889 C3890 1.398 . S
C3890 H3878 0.950 . S
C3890 C3889 1.398 . S
C3890 C3891 1.391 . S
C3891 H3879 0.950 . S
C3891 C3887 1.393 . S
C3891 C3890 1.391 . S
H3892 C3900 0.950 . S
H3893 C3905 0.950 . S
H3894 C3902 0.950 . S
H3895 C3904 0.950 . S
H3896 C3906 0.950 . S
H3897 C3908 0.950 . S
H3898 C3910 0.950 . S
H3899 C3911 0.950 . S
C3900 H3892 0.950 . S
C3900 C3901 1.386 . S
C3900 C3902 1.391 . S
C3901 C3900 1.386 . S
C3901 C3905 1.393 . S
C3902 H3894 0.950 . S
C3902 C3900 1.391 . S
C3902 C3903 1.400 . S
C3903 C3902 1.400 . S
C3903 C3904 1.398 . S
C3903 C3909 1.491 . S
C3904 H3895 0.950 . S
C3904 C3903 1.398 . S
C3904 C3905 1.391 . S
C3905 H3893 0.950 . S
C3905 C3901 1.393 . S
C3905 C3904 1.391 . S
C3906 H3896 0.950 . S
C3906 C3907 1.386 . S
C3906 C3908 1.391 . S
C3907 C3906 1.386 . S
C3907 C3911 1.393 . S
C3908 H3897 0.950 . S
C3908 C3906 1.391 . S
C3908 C3909 1.400 . S
C3909 C3903 1.491 . S
C3909 C3908 1.400 . S
C3909 C3910 1.398 . S
C3910 H3898 0.950 . S
C3910 C3909 1.398 . S
C3910 C3911 1.391 . S
C3911 H3899 0.950 . S
C3911 C3907 1.393 . S
C3911 C3910 1.391 . S
H3912 C3920 0.950 . S
H3913 C3925 0.950 . S
H3914 C3922 0.950 . S
H3915 C3924 0.950 . S
H3916 C3926 0.950 . S
H3917 C3928 0.950 . S
H3918 C3930 0.950 . S
H3919 C3931 0.950 . S
C3920 H3912 0.950 . S
C3920 C3921 1.386 . S
C3920 C3922 1.391 . S
C3921 C3920 1.386 . S
C3921 C3925 1.393 . S
C3922 H3914 0.950 . S
C3922 C3920 1.391 . S
C3922 C3923 1.400 . S
C3923 C3922 1.400 . S
C3923 C3924 1.398 . S
C3923 C3929 1.491 . S
C3924 H3915 0.950 . S
C3924 C3923 1.398 . S
C3924 C3925 1.391 . S
C3925 H3913 0.950 . S
C3925 C3921 1.393 . S
C3925 C3924 1.391 . S
C3926 H3916 0.950 . S
C3926 C3927 1.386 . S
C3926 C3928 1.391 . S
C3927 C3926 1.386 . S
C3927 C3931 1.393 . S
C3928 H3917 0.950 . S
C3928 C3926 1.391 . S
C3928 C3929 1.400 . S
C3929 C3923 1.491 . S
C3929 C3928 1.400 . S
C3929 C3930 1.398 . S
C3930 H3918 0.950 . S
C3930 C3929 1.398 . S
C3930 C3931 1.391 . S
C3931 H3919 0.950 . S
C3931 C3927 1.393 . S
C3931 C3930 1.391 . S
H3932 C3940 0.950 . S
H3933 C3945 0.950 . S
H3934 C3942 0.950 . S
H3935 C3944 0.950 . S
H3936 C3946 0.950 . S
H3937 C3948 0.950 . S
H3938 C3950 0.950 . S
H3939 C3951 0.950 . S
C3940 H3932 0.950 . S
C3940 C3941 1.386 . S
C3940 C3942 1.391 . S
C3941 C3940 1.386 . S
C3941 C3945 1.393 . S
C3942 H3934 0.950 . S
C3942 C3940 1.391 . S
C3942 C3943 1.400 . S
C3943 C3942 1.400 . S
C3943 C3944 1.398 . S
C3943 C3949 1.491 . S
C3944 H3935 0.950 . S
C3944 C3943 1.398 . S
C3944 C3945 1.391 . S
C3945 H3933 0.950 . S
C3945 C3941 1.393 . S
C3945 C3944 1.391 . S
C3946 H3936 0.950 . S
C3946 C3947 1.386 . S
C3946 C3948 1.391 . S
C3947 C3946 1.386 . S
C3947 C3951 1.393 . S
C3948 H3937 0.950 . S
C3948 C3946 1.391 . S
C3948 C3949 1.400 . S
C3949 C3943 1.491 . S
C3949 C3948 1.400 . S
C3949 C3950 1.398 . S
C3950 H3938 0.950 . S
C3950 C3949 1.398 . S
C3950 C3951 1.391 . S
C3951 H3939 0.950 . S
C3951 C3947 1.393 . S
C3951 C3950 1.391 . S
H3952 C3960 0.950 . S
H3953 C3965 0.950 . S
H3954 C3962 0.950 . S
H3955 C3964 0.950 . S
H3956 C3966 0.950 . S
H3957 C3968 0.950 . S
H3958 C3970 0.950 . S
H3959 C3971 0.950 . S
C3960 H3952 0.950 . S
C3960 C3961 1.386 . S
C3960 C3962 1.391 . S
C3961 C3960 1.386 . S
C3961 C3965 1.393 . S
C3962 H3954 0.950 . S
C3962 C3960 1.391 . S
C3962 C3963 1.400 . S
C3963 C3962 1.400 . S
C3963 C3964 1.398 . S
C3963 C3969 1.491 . S
C3964 H3955 0.950 . S
C3964 C3963 1.398 . S
C3964 C3965 1.391 . S
C3965 H3953 0.950 . S
C3965 C3961 1.393 . S
C3965 C3964 1.391 . S
C3966 H3956 0.950 . S
C3966 C3967 1.386 . S
C3966 C3968 1.391 . S
C3967 C3966 1.386 . S
C3967 C3971 1.393 . S
C3968 H3957 0.950 . S
C3968 C3966 1.391 . S
C3968 C3969 1.400 . S
C3969 C3963 1.491 . S
C3969 C3968 1.400 . S
C3969 C3970 1.398 . S
C3970 H3958 0.950 . S
C3970 C3969 1.398 . S
C3970 C3971 1.391 . S
C3971 H3959 0.950 . S
C3971 C3967 1.393 . S
C3971 C3970 1.391 . S
H3972 C3980 0.950 . S
H3973 C3985 0.950 . S
H3974 C3982 0.950 . S
H3975 C3984 0.950 . S
H3976 C3986 0.950 . S
H3977 C3988 0.950 . S
H3978 C3990 0.950 . S
H3979 C3991 0.950 . S
C3980 H3972 0.950 . S
C3980 C3981 1.386 . S
C3980 C3982 1.391 . S
C3981 C3980 1.386 . S
C3981 C3985 1.393 . S
C3982 H3974 0.950 . S
C3982 C3980 1.391 . S
C3982 C3983 1.400 . S
C3983 C3982 1.400 . S
C3983 C3984 1.398 . S
C3983 C3989 1.491 . S
C3984 H3975 0.950 . S
C3984 C3983 1.398 . S
C3984 C3985 1.391 . S
C3985 H3973 0.950 . S
C3985 C3981 1.393 . S
C3985 C3984 1.391 . S
C3986 H3976 0.950 . S
C3986 C3987 1.386 . S
C3986 C3988 1.391 . S
C3987 C3986 1.386 . S
C3987 C3991 1.393 . S
C3988 H3977 0.950 . S
C3988 C3986 1.391 . S
C3988 C3989 1.400 . S
C3989 C3983 1.491 . S
C3989 C3988 1.400 . S
C3989 C3990 1.398 . S
C3990 H3978 0.950 . S
C3990 C3989 1.398 . S
C3990 C3991 1.391 . S
C3991 H3979 0.950 . S
C3991 C3987 1.393 . S
C3991 C3990 1.391 . S
H3992 C4000 0.950 . S
H3993 C4005 0.950 . S
H3994 C4002 0.950 . S
H3995 C4004 0.950 . S
H3996 C4006 0.950 . S
H3997 C4008 0.950 . S
H3998 C4010 0.950 . S
H3999 C4011 0.950 . S
C4000 H3992 0.950 . S
C4000 C4001 1.386 . S
C4000 C4002 1.391 . S
C4001 C4000 1.386 . S
C4001 C4005 1.393 . S
C4002 H3994 0.950 . S
C4002 C4000 1.391 . S
C4002 C4003 1.400 . S
C4003 C4002 1.400 . S
C4003 C4004 1.398 . S
C4003 C4009 1.491 . S
C4004 H3995 0.950 . S
C4004 C4003 1.398 . S
C4004 C4005 1.391 . S
C4005 H3993 0.950 . S
C4005 C4001 1.393 . S
C4005 C4004 1.391 . S
C4006 H3996 0.950 . S
C4006 C4007 1.386 . S
C4006 C4008 1.391 . S
C4007 C4006 1.386 . S
C4007 C4011 1.393 . S
C4008 H3997 0.950 . S
C4008 C4006 1.391 . S
C4008 C4009 1.400 . S
C4009 C4003 1.491 . S
C4009 C4008 1.400 . S
C4009 C4010 1.398 . S
C4010 H3998 0.950 . S
C4010 C4009 1.398 . S
C4010 C4011 1.391 . S
C4011 H3999 0.950 . S
C4011 C4007 1.393 . S
C4011 C4010 1.391 . S
H4012 C4020 0.950 . S
H4013 C4025 0.950 . S
H4014 C4022 0.950 . S
H4015 C4024 0.950 . S
H4016 C4026 0.950 . S
H4017 C4028 0.950 . S
H4018 C4030 0.950 . S
H4019 C4031 0.950 . S
C4020 H4012 0.950 . S
C4020 C4021 1.386 . S
C4020 C4022 1.391 . S
C4021 C4020 1.386 . S
C4021 C4025 1.393 . S
C4022 H4014 0.950 . S
C4022 C4020 1.391 . S
C4022 C4023 1.400 . S
C4023 C4022 1.400 . S
C4023 C4024 1.398 . S
C4023 C4029 1.491 . S
C4024 H4015 0.950 . S
C4024 C4023 1.398 . S
C4024 C4025 1.391 . S
C4025 H4013 0.950 . S
C4025 C4021 1.393 . S
C4025 C4024 1.391 . S
C4026 H4016 0.950 . S
C4026 C4027 1.386 . S
C4026 C4028 1.391 . S
C4027 C4026 1.386 . S
C4027 C4031 1.393 . S
C4028 H4017 0.950 . S
C4028 C4026 1.391 . S
C4028 C4029 1.400 . S
C4029 C4023 1.491 . S
C4029 C4028 1.400 . S
C4029 C4030 1.398 . S
C4030 H4018 0.950 . S
C4030 C4029 1.398 . S
C4030 C4031 1.391 . S
C4031 H4019 0.950 . S
C4031 C4027 1.393 . S
C4031 C4030 1.391 . S
H4032 C4040 0.950 . S
H4033 C4045 0.950 . S
H4034 C4042 0.950 . S
H4035 C4044 0.950 . S
H4036 C4046 0.950 . S
H4037 C4048 0.950 . S
H4038 C4050 0.950 . S
H4039 C4051 0.950 . S
C4040 H4032 0.950 . S
C4040 C4041 1.386 . S
C4040 C4042 1.391 . S
C4041 C4040 1.386 . S
C4041 C4045 1.393 . S
C4042 H4034 0.950 . S
C4042 C4040 1.391 . S
C4042 C4043 1.400 . S
C4043 C4042 1.400 . S
C4043 C4044 1.398 . S
C4043 C4049 1.491 . S
C4044 H4035 0.950 . S
C4044 C4043 1.398 . S
C4044 C4045 1.391 . S
C4045 H4033 0.950 . S
C4045 C4041 1.393 . S
C4045 C4044 1.391 . S
C4046 H4036 0.950 . S
C4046 C4047 1.386 . S
C4046 C4048 1.391 . S
C4047 C4046 1.386 . S
C4047 C4051 1.393 . S
C4048 H4037 0.950 . S
C4048 C4046 1.391 . S
C4048 C4049 1.400 . S
C4049 C4043 1.491 . S
C4049 C4048 1.400 . S
C4049 C4050 1.398 . S
C4050 H4038 0.950 . S
C4050 C4049 1.398 . S
C4050 C4051 1.391 . S
C4051 H4039 0.950 . S
C4051 C4047 1.393 . S
C4051 C4050 1.391 . S
H4052 C4060 0.950 . S
H4053 C4065 0.950 . S
H4054 C4062 0.950 . S
H4055 C4064 0.950 . S
H4056 C4066 0.950 . S
H4057 C4068 0.950 . S
H4058 C4070 0.950 . S
H4059 C4071 0.950 . S
C4060 H4052 0.950 . S
C4060 C4061 1.386 . S
C4060 C4062 1.391 . S
C4061 C4060 1.386 . S
C4061 C4065 1.393 . S
C4062 H4054 0.950 . S
C4062 C4060 1.391 . S
C4062 C4063 1.400 . S
C4063 C4062 1.400 . S
C4063 C4064 1.398 . S
C4063 C4069 1.491 . S
C4064 H4055 0.950 . S
C4064 C4063 1.398 . S
C4064 C4065 1.391 . S
C4065 H4053 0.950 . S
C4065 C4061 1.393 . S
C4065 C4064 1.391 . S
C4066 H4056 0.950 . S
C4066 C4067 1.386 . S
C4066 C4068 1.391 . S
C4067 C4066 1.386 . S
C4067 C4071 1.393 . S
C4068 H4057 0.950 . S
C4068 C4066 1.391 . S
C4068 C4069 1.400 . S
C4069 C4063 1.491 . S
C4069 C4068 1.400 . S
C4069 C4070 1.398 . S
C4070 H4058 0.950 . S
C4070 C4069 1.398 . S
C4070 C4071 1.391 . S
C4071 H4059 0.950 . S
C4071 C4067 1.393 . S
C4071 C4070 1.391 . S
H4072 C4080 0.950 . S
H4073 C4085 0.950 . S
H4074 C4082 0.950 . S
H4075 C4084 0.950 . S
H4076 C4086 0.950 . S
H4077 C4088 0.950 . S
H4078 C4090 0.950 . S
H4079 C4091 0.950 . S
C4080 H4072 0.950 . S
C4080 C4081 1.386 . S
C4080 C4082 1.391 . S
C4081 C4080 1.386 . S
C4081 C4085 1.393 . S
C4082 H4074 0.950 . S
C4082 C4080 1.391 . S
C4082 C4083 1.400 . S
C4083 C4082 1.400 . S
C4083 C4084 1.398 . S
C4083 C4089 1.491 . S
C4084 H4075 0.950 . S
C4084 C4083 1.398 . S
C4084 C4085 1.391 . S
C4085 H4073 0.950 . S
C4085 C4081 1.393 . S
C4085 C4084 1.391 . S
C4086 H4076 0.950 . S
C4086 C4087 1.386 . S
C4086 C4088 1.391 . S
C4087 C4086 1.386 . S
C4087 C4091 1.393 . S
C4088 H4077 0.950 . S
C4088 C4086 1.391 . S
C4088 C4089 1.400 . S
C4089 C4083 1.491 . S
C4089 C4088 1.400 . S
C4089 C4090 1.398 . S
C4090 H4078 0.950 . S
C4090 C4089 1.398 . S
C4090 C4091 1.391 . S
C4091 H4079 0.950 . S
C4091 C4087 1.393 . S
C4091 C4090 1.391 . S
H4092 C4100 0.950 . S
H4093 C4105 0.950 . S
H4094 C4102 0.950 . S
H4095 C4104 0.950 . S
H4096 C4106 0.950 . S
H4097 C4108 0.950 . S
H4098 C4110 0.950 . S
H4099 C4111 0.950 . S
C4100 H4092 0.950 . S
C4100 C4101 1.386 . S
C4100 C4102 1.391 . S
C4101 C4100 1.386 . S
C4101 C4105 1.393 . S
C4102 H4094 0.950 . S
C4102 C4100 1.391 . S
C4102 C4103 1.400 . S
C4103 C4102 1.400 . S
C4103 C4104 1.398 . S
C4103 C4109 1.491 . S
C4104 H4095 0.950 . S
C4104 C4103 1.398 . S
C4104 C4105 1.391 . S
C4105 H4093 0.950 . S
C4105 C4101 1.393 . S
C4105 C4104 1.391 . S
C4106 H4096 0.950 . S
C4106 C4107 1.386 . S
C4106 C4108 1.391 . S
C4107 C4106 1.386 . S
C4107 C4111 1.393 . S
C4108 H4097 0.950 . S
C4108 C4106 1.391 . S
C4108 C4109 1.400 . S
C4109 C4103 1.491 . S
C4109 C4108 1.400 . S
C4109 C4110 1.398 . S
C4110 H4098 0.950 . S
C4110 C4109 1.398 . S
C4110 C4111 1.391 . S
C4111 H4099 0.950 . S
C4111 C4107 1.393 . S
C4111 C4110 1.391 . S
H4112 C4120 0.950 . S
H4113 C4125 0.950 . S
H4114 C4122 0.950 . S
H4115 C4124 0.950 . S
H4116 C4126 0.950 . S
H4117 C4128 0.950 . S
H4118 C4130 0.950 . S
H4119 C4131 0.950 . S
C4120 H4112 0.950 . S
C4120 C4121 1.386 . S
C4120 C4122 1.391 . S
C4121 C4120 1.386 . S
C4121 C4125 1.393 . S
C4122 H4114 0.950 . S
C4122 C4120 1.391 . S
C4122 C4123 1.400 . S
C4123 C4122 1.400 . S
C4123 C4124 1.398 . S
C4123 C4129 1.491 . S
C4124 H4115 0.950 . S
C4124 C4123 1.398 . S
C4124 C4125 1.391 . S
C4125 H4113 0.950 . S
C4125 C4121 1.393 . S
C4125 C4124 1.391 . S
C4126 H4116 0.950 . S
C4126 C4127 1.386 . S
C4126 C4128 1.391 . S
C4127 C4126 1.386 . S
C4127 C4131 1.393 . S
C4128 H4117 0.950 . S
C4128 C4126 1.391 . S
C4128 C4129 1.400 . S
C4129 C4123 1.491 . S
C4129 C4128 1.400 . S
C4129 C4130 1.398 . S
C4130 H4118 0.950 . S
C4130 C4129 1.398 . S
C4130 C4131 1.391 . S
C4131 H4119 0.950 . S
C4131 C4127 1.393 . S
C4131 C4130 1.391 . S
H4132 C4140 0.950 . S
H4133 C4145 0.950 . S
H4134 C4142 0.950 . S
H4135 C4144 0.950 . S
H4136 C4146 0.950 . S
H4137 C4148 0.950 . S
H4138 C4150 0.950 . S
H4139 C4151 0.950 . S
C4140 H4132 0.950 . S
C4140 C4141 1.386 . S
C4140 C4142 1.391 . S
C4141 C4140 1.386 . S
C4141 C4145 1.393 . S
C4142 H4134 0.950 . S
C4142 C4140 1.391 . S
C4142 C4143 1.400 . S
C4143 C4142 1.400 . S
C4143 C4144 1.398 . S
C4143 C4149 1.491 . S
C4144 H4135 0.950 . S
C4144 C4143 1.398 . S
C4144 C4145 1.391 . S
C4145 H4133 0.950 . S
C4145 C4141 1.393 . S
C4145 C4144 1.391 . S
C4146 H4136 0.950 . S
C4146 C4147 1.386 . S
C4146 C4148 1.391 . S
C4147 C4146 1.386 . S
C4147 C4151 1.393 . S
C4148 H4137 0.950 . S
C4148 C4146 1.391 . S
C4148 C4149 1.400 . S
C4149 C4143 1.491 . S
C4149 C4148 1.400 . S
C4149 C4150 1.398 . S
C4150 H4138 0.950 . S
C4150 C4149 1.398 . S
C4150 C4151 1.391 . S
C4151 H4139 0.950 . S
C4151 C4147 1.393 . S
C4151 C4150 1.391 . S
H4152 C4160 0.950 . S
H4153 C4165 0.950 . S
H4154 C4162 0.950 . S
H4155 C4164 0.950 . S
H4156 C4166 0.950 . S
H4157 C4168 0.950 . S
H4158 C4170 0.950 . S
H4159 C4171 0.950 . S
C4160 H4152 0.950 . S
C4160 C4161 1.386 . S
C4160 C4162 1.391 . S
C4161 C4160 1.386 . S
C4161 C4165 1.393 . S
C4162 H4154 0.950 . S
C4162 C4160 1.391 . S
C4162 C4163 1.400 . S
C4163 C4162 1.400 . S
C4163 C4164 1.398 . S
C4163 C4169 1.491 . S
C4164 H4155 0.950 . S
C4164 C4163 1.398 . S
C4164 C4165 1.391 . S
C4165 H4153 0.950 . S
C4165 C4161 1.393 . S
C4165 C4164 1.391 . S
C4166 H4156 0.950 . S
C4166 C4167 1.386 . S
C4166 C4168 1.391 . S
C4167 C4166 1.386 . S
C4167 C4171 1.393 . S
C4168 H4157 0.950 . S
C4168 C4166 1.391 . S
C4168 C4169 1.400 . S
C4169 C4163 1.491 . S
C4169 C4168 1.400 . S
C4169 C4170 1.398 . S
C4170 H4158 0.950 . S
C4170 C4169 1.398 . S
C4170 C4171 1.391 . S
C4171 H4159 0.950 . S
C4171 C4167 1.393 . S
C4171 C4170 1.391 . S
H4172 C4180 0.950 . S
H4173 C4185 0.950 . S
H4174 C4182 0.950 . S
H4175 C4184 0.950 . S
H4176 C4186 0.950 . S
H4177 C4188 0.950 . S
H4178 C4190 0.950 . S
H4179 C4191 0.950 . S
C4180 H4172 0.950 . S
C4180 C4181 1.386 . S
C4180 C4182 1.391 . S
C4181 C4180 1.386 . S
C4181 C4185 1.393 . S
C4182 H4174 0.950 . S
C4182 C4180 1.391 . S
C4182 C4183 1.400 . S
C4183 C4182 1.400 . S
C4183 C4184 1.398 . S
C4183 C4189 1.491 . S
C4184 H4175 0.950 . S
C4184 C4183 1.398 . S
C4184 C4185 1.391 . S
C4185 H4173 0.950 . S
C4185 C4181 1.393 . S
C4185 C4184 1.391 . S
C4186 H4176 0.950 . S
C4186 C4187 1.386 . S
C4186 C4188 1.391 . S
C4187 C4186 1.386 . S
C4187 C4191 1.393 . S
C4188 H4177 0.950 . S
C4188 C4186 1.391 . S
C4188 C4189 1.400 . S
C4189 C4183 1.491 . S
C4189 C4188 1.400 . S
C4189 C4190 1.398 . S
C4190 H4178 0.950 . S
C4190 C4189 1.398 . S
C4190 C4191 1.391 . S
C4191 H4179 0.950 . S
C4191 C4187 1.393 . S
C4191 C4190 1.391 . S
H4192 C4200 0.950 . S
H4193 C4205 0.950 . S
H4194 C4202 0.950 . S
H4195 C4204 0.950 . S
H4196 C4206 0.950 . S
H4197 C4208 0.950 . S
H4198 C4210 0.950 . S
H4199 C4211 0.950 . S
C4200 H4192 0.950 . S
C4200 C4201 1.386 . S
C4200 C4202 1.391 . S
C4201 C4200 1.386 . S
C4201 C4205 1.393 . S
C4202 H4194 0.950 . S
C4202 C4200 1.391 . S
C4202 C4203 1.400 . S
C4203 C4202 1.400 . S
C4203 C4204 1.398 . S
C4203 C4209 1.491 . S
C4204 H4195 0.950 . S
C4204 C4203 1.398 . S
C4204 C4205 1.391 . S
C4205 H4193 0.950 . S
C4205 C4201 1.393 . S
C4205 C4204 1.391 . S
C4206 H4196 0.950 . S
C4206 C4207 1.386 . S
C4206 C4208 1.391 . S
C4207 C4206 1.386 . S
C4207 C4211 1.393 . S
C4208 H4197 0.950 . S
C4208 C4206 1.391 . S
C4208 C4209 1.400 . S
C4209 C4203 1.491 . S
C4209 C4208 1.400 . S
C4209 C4210 1.398 . S
C4210 H4198 0.950 . S
C4210 C4209 1.398 . S
C4210 C4211 1.391 . S
C4211 H4199 0.950 . S
C4211 C4207 1.393 . S
C4211 C4210 1.391 . S
H4212 C4220 0.950 . S
H4213 C4225 0.950 . S
H4214 C4222 0.950 . S
H4215 C4224 0.950 . S
H4216 C4226 0.950 . S
H4217 C4228 0.950 . S
H4218 C4230 0.950 . S
H4219 C4231 0.950 . S
C4220 H4212 0.950 . S
C4220 C4221 1.386 . S
C4220 C4222 1.391 . S
C4221 C4220 1.386 . S
C4221 C4225 1.393 . S
C4222 H4214 0.950 . S
C4222 C4220 1.391 . S
C4222 C4223 1.400 . S
C4223 C4222 1.400 . S
C4223 C4224 1.398 . S
C4223 C4229 1.491 . S
C4224 H4215 0.950 . S
C4224 C4223 1.398 . S
C4224 C4225 1.391 . S
C4225 H4213 0.950 . S
C4225 C4221 1.393 . S
C4225 C4224 1.391 . S
C4226 H4216 0.950 . S
C4226 C4227 1.386 . S
C4226 C4228 1.391 . S
C4227 C4226 1.386 . S
C4227 C4231 1.393 . S
C4228 H4217 0.950 . S
C4228 C4226 1.391 . S
C4228 C4229 1.400 . S
C4229 C4223 1.491 . S
C4229 C4228 1.400 . S
C4229 C4230 1.398 . S
C4230 H4218 0.950 . S
C4230 C4229 1.398 . S
C4230 C4231 1.391 . S
C4231 H4219 0.950 . S
C4231 C4227 1.393 . S
C4231 C4230 1.391 . S
H4232 C4240 0.950 . S
H4233 C4245 0.950 . S
H4234 C4242 0.950 . S
H4235 C4244 0.950 . S
H4236 C4246 0.950 . S
H4237 C4248 0.950 . S
H4238 C4250 0.950 . S
H4239 C4251 0.950 . S
C4240 H4232 0.950 . S
C4240 C4241 1.386 . S
C4240 C4242 1.391 . S
C4241 C4240 1.386 . S
C4241 C4245 1.393 . S
C4242 H4234 0.950 . S
C4242 C4240 1.391 . S
C4242 C4243 1.400 . S
C4243 C4242 1.400 . S
C4243 C4244 1.398 . S
C4243 C4249 1.491 . S
C4244 H4235 0.950 . S
C4244 C4243 1.398 . S
C4244 C4245 1.391 . S
C4245 H4233 0.950 . S
C4245 C4241 1.393 . S
C4245 C4244 1.391 . S
C4246 H4236 0.950 . S
C4246 C4247 1.386 . S
C4246 C4248 1.391 . S
C4247 C4246 1.386 . S
C4247 C4251 1.393 . S
C4248 H4237 0.950 . S
C4248 C4246 1.391 . S
C4248 C4249 1.400 . S
C4249 C4243 1.491 . S
C4249 C4248 1.400 . S
C4249 C4250 1.398 . S
C4250 H4238 0.950 . S
C4250 C4249 1.398 . S
C4250 C4251 1.391 . S
C4251 H4239 0.950 . S
C4251 C4247 1.393 . S
C4251 C4250 1.391 . S
H4252 C4260 0.950 . S
H4253 C4265 0.950 . S
H4254 C4262 0.950 . S
H4255 C4264 0.950 . S
H4256 C4266 0.950 . S
H4257 C4268 0.950 . S
H4258 C4270 0.950 . S
H4259 C4271 0.950 . S
C4260 H4252 0.950 . S
C4260 C4261 1.386 . S
C4260 C4262 1.391 . S
C4261 C4260 1.386 . S
C4261 C4265 1.393 . S
C4262 H4254 0.950 . S
C4262 C4260 1.391 . S
C4262 C4263 1.400 . S
C4263 C4262 1.400 . S
C4263 C4264 1.398 . S
C4263 C4269 1.491 . S
C4264 H4255 0.950 . S
C4264 C4263 1.398 . S
C4264 C4265 1.391 . S
C4265 H4253 0.950 . S
C4265 C4261 1.393 . S
C4265 C4264 1.391 . S
C4266 H4256 0.950 . S
C4266 C4267 1.386 . S
C4266 C4268 1.391 . S
C4267 C4266 1.386 . S
C4267 C4271 1.393 . S
C4268 H4257 0.950 . S
C4268 C4266 1.391 . S
C4268 C4269 1.400 . S
C4269 C4263 1.491 . S
C4269 C4268 1.400 . S
C4269 C4270 1.398 . S
C4270 H4258 0.950 . S
C4270 C4269 1.398 . S
C4270 C4271 1.391 . S
C4271 H4259 0.950 . S
C4271 C4267 1.393 . S
C4271 C4270 1.391 . S
H4272 C4280 0.950 . S
H4273 C4285 0.950 . S
H4274 C4282 0.950 . S
H4275 C4284 0.950 . S
H4276 C4286 0.950 . S
H4277 C4288 0.950 . S
H4278 C4290 0.950 . S
H4279 C4291 0.950 . S
C4280 H4272 0.950 . S
C4280 C4281 1.386 . S
C4280 C4282 1.391 . S
C4281 C4280 1.386 . S
C4281 C4285 1.393 . S
C4282 H4274 0.950 . S
C4282 C4280 1.391 . S
C4282 C4283 1.400 . S
C4283 C4282 1.400 . S
C4283 C4284 1.398 . S
C4283 C4289 1.491 . S
C4284 H4275 0.950 . S
C4284 C4283 1.398 . S
C4284 C4285 1.391 . S
C4285 H4273 0.950 . S
C4285 C4281 1.393 . S
C4285 C4284 1.391 . S
C4286 H4276 0.950 . S
C4286 C4287 1.386 . S
C4286 C4288 1.391 . S
C4287 C4286 1.386 . S
C4287 C4291 1.393 . S
C4288 H4277 0.950 . S
C4288 C4286 1.391 . S
C4288 C4289 1.400 . S
C4289 C4283 1.491 . S
C4289 C4288 1.400 . S
C4289 C4290 1.398 . S
C4290 H4278 0.950 . S
C4290 C4289 1.398 . S
C4290 C4291 1.391 . S
C4291 H4279 0.950 . S
C4291 C4287 1.393 . S
C4291 C4290 1.391 . S
H4292 C4300 0.950 . S
H4293 C4305 0.950 . S
H4294 C4302 0.950 . S
H4295 C4304 0.950 . S
H4296 C4306 0.950 . S
H4297 C4308 0.950 . S
H4298 C4310 0.950 . S
H4299 C4311 0.950 . S
C4300 H4292 0.950 . S
C4300 C4301 1.386 . S
C4300 C4302 1.391 . S
C4301 C4300 1.386 . S
C4301 C4305 1.393 . S
C4302 H4294 0.950 . S
C4302 C4300 1.391 . S
C4302 C4303 1.400 . S
C4303 C4302 1.400 . S
C4303 C4304 1.398 . S
C4303 C4309 1.491 . S
C4304 H4295 0.950 . S
C4304 C4303 1.398 . S
C4304 C4305 1.391 . S
C4305 H4293 0.950 . S
C4305 C4301 1.393 . S
C4305 C4304 1.391 . S
C4306 H4296 0.950 . S
C4306 C4307 1.386 . S
C4306 C4308 1.391 . S
C4307 C4306 1.386 . S
C4307 C4311 1.393 . S
C4308 H4297 0.950 . S
C4308 C4306 1.391 . S
C4308 C4309 1.400 . S
C4309 C4303 1.491 . S
C4309 C4308 1.400 . S
C4309 C4310 1.398 . S
C4310 H4298 0.950 . S
C4310 C4309 1.398 . S
C4310 C4311 1.391 . S
C4311 H4299 0.950 . S
C4311 C4307 1.393 . S
C4311 C4310 1.391 . S
H4312 C4320 0.950 . S
H4313 C4325 0.950 . S
H4314 C4322 0.950 . S
H4315 C4324 0.950 . S
H4316 C4326 0.950 . S
H4317 C4328 0.950 . S
H4318 C4330 0.950 . S
H4319 C4331 0.950 . S
C4320 H4312 0.950 . S
C4320 C4321 1.386 . S
C4320 C4322 1.391 . S
C4321 C4320 1.386 . S
C4321 C4325 1.393 . S
C4322 H4314 0.950 . S
C4322 C4320 1.391 . S
C4322 C4323 1.400 . S
C4323 C4322 1.400 . S
C4323 C4324 1.398 . S
C4323 C4329 1.491 . S
C4324 H4315 0.950 . S
C4324 C4323 1.398 . S
C4324 C4325 1.391 . S
C4325 H4313 0.950 . S
C4325 C4321 1.393 . S
C4325 C4324 1.391 . S
C4326 H4316 0.950 . S
C4326 C4327 1.386 . S
C4326 C4328 1.391 . S
C4327 C4326 1.386 . S
C4327 C4331 1.393 . S
C4328 H4317 0.950 . S
C4328 C4326 1.391 . S
C4328 C4329 1.400 . S
C4329 C4323 1.491 . S
C4329 C4328 1.400 . S
C4329 C4330 1.398 . S
C4330 H4318 0.950 . S
C4330 C4329 1.398 . S
C4330 C4331 1.391 . S
C4331 H4319 0.950 . S
C4331 C4327 1.393 . S
C4331 C4330 1.391 . S
H4332 C4340 0.950 . S
H4333 C4345 0.950 . S
H4334 C4342 0.950 . S
H4335 C4344 0.950 . S
H4336 C4346 0.950 . S
H4337 C4348 0.950 . S
H4338 C4350 0.950 . S
H4339 C4351 0.950 . S
C4340 H4332 0.950 . S
C4340 C4341 1.386 . S
C4340 C4342 1.391 . S
C4341 C4340 1.386 . S
C4341 C4345 1.393 . S
C4342 H4334 0.950 . S
C4342 C4340 1.391 . S
C4342 C4343 1.400 . S
C4343 C4342 1.400 . S
C4343 C4344 1.398 . S
C4343 C4349 1.491 . S
C4344 H4335 0.950 . S
C4344 C4343 1.398 . S
C4344 C4345 1.391 . S
C4345 H4333 0.950 . S
C4345 C4341 1.393 . S
C4345 C4344 1.391 . S
C4346 H4336 0.950 . S
C4346 C4347 1.386 . S
C4346 C4348 1.391 . S
C4347 C4346 1.386 . S
C4347 C4351 1.393 . S
C4348 H4337 0.950 . S
C4348 C4346 1.391 . S
C4348 C4349 1.400 . S
C4349 C4343 1.491 . S
C4349 C4348 1.400 . S
C4349 C4350 1.398 . S
C4350 H4338 0.950 . S
C4350 C4349 1.398 . S
C4350 C4351 1.391 . S
C4351 H4339 0.950 . S
C4351 C4347 1.393 . S
C4351 C4350 1.391 . S
H4352 C4360 0.950 . S
H4353 C4365 0.950 . S
H4354 C4362 0.950 . S
H4355 C4364 0.950 . S
H4356 C4366 0.950 . S
H4357 C4368 0.950 . S
H4358 C4370 0.950 . S
H4359 C4371 0.950 . S
C4360 H4352 0.950 . S
C4360 C4361 1.386 . S
C4360 C4362 1.391 . S
C4361 C4360 1.386 . S
C4361 C4365 1.393 . S
C4362 H4354 0.950 . S
C4362 C4360 1.391 . S
C4362 C4363 1.400 . S
C4363 C4362 1.400 . S
C4363 C4364 1.398 . S
C4363 C4369 1.491 . S
C4364 H4355 0.950 . S
C4364 C4363 1.398 . S
C4364 C4365 1.391 . S
C4365 H4353 0.950 . S
C4365 C4361 1.393 . S
C4365 C4364 1.391 . S
C4366 H4356 0.950 . S
C4366 C4367 1.386 . S
C4366 C4368 1.391 . S
C4367 C4366 1.386 . S
C4367 C4371 1.393 . S
C4368 H4357 0.950 . S
C4368 C4366 1.391 . S
C4368 C4369 1.400 . S
C4369 C4363 1.491 . S
C4369 C4368 1.400 . S
C4369 C4370 1.398 . S
C4370 H4358 0.950 . S
C4370 C4369 1.398 . S
C4370 C4371 1.391 . S
C4371 H4359 0.950 . S
C4371 C4367 1.393 . S
C4371 C4370 1.391 . S
H4372 C4380 0.950 . S
H4373 C4385 0.950 . S
H4374 C4382 0.950 . S
H4375 C4384 0.950 . S
H4376 C4386 0.950 . S
H4377 C4388 0.950 . S
H4378 C4390 0.950 . S
H4379 C4391 0.950 . S
C4380 H4372 0.950 . S
C4380 C4381 1.386 . S
C4380 C4382 1.391 . S
C4381 C4380 1.386 . S
C4381 C4385 1.393 . S
C4382 H4374 0.950 . S
C4382 C4380 1.391 . S
C4382 C4383 1.400 . S
C4383 C4382 1.400 . S
C4383 C4384 1.398 . S
C4383 C4389 1.491 . S
C4384 H4375 0.950 . S
C4384 C4383 1.398 . S
C4384 C4385 1.391 . S
C4385 H4373 0.950 . S
C4385 C4381 1.393 . S
C4385 C4384 1.391 . S
C4386 H4376 0.950 . S
C4386 C4387 1.386 . S
C4386 C4388 1.391 . S
C4387 C4386 1.386 . S
C4387 C4391 1.393 . S
C4388 H4377 0.950 . S
C4388 C4386 1.391 . S
C4388 C4389 1.400 . S
C4389 C4383 1.491 . S
C4389 C4388 1.400 . S
C4389 C4390 1.398 . S
C4390 H4378 0.950 . S
C4390 C4389 1.398 . S
C4390 C4391 1.391 . S
C4391 H4379 0.950 . S
C4391 C4387 1.393 . S
C4391 C4390 1.391 . S
H4392 C4400 0.950 . S
H4393 C4405 0.950 . S
H4394 C4402 0.950 . S
H4395 C4404 0.950 . S
H4396 C4406 0.950 . S
H4397 C4408 0.950 . S
H4398 C4410 0.950 . S
H4399 C4411 0.950 . S
C4400 H4392 0.950 . S
C4400 C4401 1.386 . S
C4400 C4402 1.391 . S
C4401 C4400 1.386 . S
C4401 C4405 1.393 . S
C4402 H4394 0.950 . S
C4402 C4400 1.391 . S
C4402 C4403 1.400 . S
C4403 C4402 1.400 . S
C4403 C4404 1.398 . S
C4403 C4409 1.491 . S
C4404 H4395 0.950 . S
C4404 C4403 1.398 . S
C4404 C4405 1.391 . S
C4405 H4393 0.950 . S
C4405 C4401 1.393 . S
C4405 C4404 1.391 . S
C4406 H4396 0.950 . S
C4406 C4407 1.386 . S
C4406 C4408 1.391 . S
C4407 C4406 1.386 . S
C4407 C4411 1.393 . S
C4408 H4397 0.950 . S
C4408 C4406 1.391 . S
C4408 C4409 1.400 . S
C4409 C4403 1.491 . S
C4409 C4408 1.400 . S
C4409 C4410 1.398 . S
C4410 H4398 0.950 . S
C4410 C4409 1.398 . S
C4410 C4411 1.391 . S
C4411 H4399 0.950 . S
C4411 C4407 1.393 . S
C4411 C4410 1.391 . S
H4412 C4420 0.950 . S
H4413 C4425 0.950 . S
H4414 C4422 0.950 . S
H4415 C4424 0.950 . S
H4416 C4426 0.950 . S
H4417 C4428 0.950 . S
H4418 C4430 0.950 . S
H4419 C4431 0.950 . S
C4420 H4412 0.950 . S
C4420 C4421 1.386 . S
C4420 C4422 1.391 . S
C4421 C4420 1.386 . S
C4421 C4425 1.393 . S
C4422 H4414 0.950 . S
C4422 C4420 1.391 . S
C4422 C4423 1.400 . S
C4423 C4422 1.400 . S
C4423 C4424 1.398 . S
C4423 C4429 1.491 . S
C4424 H4415 0.950 . S
C4424 C4423 1.398 . S
C4424 C4425 1.391 . S
C4425 H4413 0.950 . S
C4425 C4421 1.393 . S
C4425 C4424 1.391 . S
C4426 H4416 0.950 . S
C4426 C4427 1.386 . S
C4426 C4428 1.391 . S
C4427 C4426 1.386 . S
C4427 C4431 1.393 . S
C4428 H4417 0.950 . S
C4428 C4426 1.391 . S
C4428 C4429 1.400 . S
C4429 C4423 1.491 . S
C4429 C4428 1.400 . S
C4429 C4430 1.398 . S
C4430 H4418 0.950 . S
C4430 C4429 1.398 . S
C4430 C4431 1.391 . S
C4431 H4419 0.950 . S
C4431 C4427 1.393 . S
C4431 C4430 1.391 . S
H4432 C4440 0.950 . S
H4433 C4445 0.950 . S
H4434 C4442 0.950 . S
H4435 C4444 0.950 . S
H4436 C4446 0.950 . S
H4437 C4448 0.950 . S
H4438 C4450 0.950 . S
H4439 C4451 0.950 . S
C4440 H4432 0.950 . S
C4440 C4441 1.386 . S
C4440 C4442 1.391 . S
C4441 C4440 1.386 . S
C4441 C4445 1.393 . S
C4442 H4434 0.950 . S
C4442 C4440 1.391 . S
C4442 C4443 1.400 . S
C4443 C4442 1.400 . S
C4443 C4444 1.398 . S
C4443 C4449 1.491 . S
C4444 H4435 0.950 . S
C4444 C4443 1.398 . S
C4444 C4445 1.391 . S
C4445 H4433 0.950 . S
C4445 C4441 1.393 . S
C4445 C4444 1.391 . S
C4446 H4436 0.950 . S
C4446 C4447 1.386 . S
C4446 C4448 1.391 . S
C4447 C4446 1.386 . S
C4447 C4451 1.393 . S
C4448 H4437 0.950 . S
C4448 C4446 1.391 . S
C4448 C4449 1.400 . S
C4449 C4443 1.491 . S
C4449 C4448 1.400 . S
C4449 C4450 1.398 . S
C4450 H4438 0.950 . S
C4450 C4449 1.398 . S
C4450 C4451 1.391 . S
C4451 H4439 0.950 . S
C4451 C4447 1.393 . S
C4451 C4450 1.391 . S
H4452 C4460 0.950 . S
H4453 C4465 0.950 . S
H4454 C4462 0.950 . S
H4455 C4464 0.950 . S
H4456 C4466 0.950 . S
H4457 C4468 0.950 . S
H4458 C4470 0.950 . S
H4459 C4471 0.950 . S
C4460 H4452 0.950 . S
C4460 C4461 1.386 . S
C4460 C4462 1.391 . S
C4461 C4460 1.386 . S
C4461 C4465 1.393 . S
C4462 H4454 0.950 . S
C4462 C4460 1.391 . S
C4462 C4463 1.400 . S
C4463 C4462 1.400 . S
C4463 C4464 1.398 . S
C4463 C4469 1.491 . S
C4464 H4455 0.950 . S
C4464 C4463 1.398 . S
C4464 C4465 1.391 . S
C4465 H4453 0.950 . S
C4465 C4461 1.393 . S
C4465 C4464 1.391 . S
C4466 H4456 0.950 . S
C4466 C4467 1.386 . S
C4466 C4468 1.391 . S
C4467 C4466 1.386 . S
C4467 C4471 1.393 . S
C4468 H4457 0.950 . S
C4468 C4466 1.391 . S
C4468 C4469 1.400 . S
C4469 C4463 1.491 . S
C4469 C4468 1.400 . S
C4469 C4470 1.398 . S
C4470 H4458 0.950 . S
C4470 C4469 1.398 . S
C4470 C4471 1.391 . S
C4471 H4459 0.950 . S
C4471 C4467 1.393 . S
C4471 C4470 1.391 . S
H4472 C4480 0.950 . S
H4473 C4485 0.950 . S
H4474 C4482 0.950 . S
H4475 C4484 0.950 . S
H4476 C4486 0.950 . S
H4477 C4488 0.950 . S
H4478 C4490 0.950 . S
H4479 C4491 0.950 . S
C4480 H4472 0.950 . S
C4480 C4481 1.386 . S
C4480 C4482 1.391 . S
C4481 C4480 1.386 . S
C4481 C4485 1.393 . S
C4482 H4474 0.950 . S
C4482 C4480 1.391 . S
C4482 C4483 1.400 . S
C4483 C4482 1.400 . S
C4483 C4484 1.398 . S
C4483 C4489 1.491 . S
C4484 H4475 0.950 . S
C4484 C4483 1.398 . S
C4484 C4485 1.391 . S
C4485 H4473 0.950 . S
C4485 C4481 1.393 . S
C4485 C4484 1.391 . S
C4486 H4476 0.950 . S
C4486 C4487 1.386 . S
C4486 C4488 1.391 . S
C4487 C4486 1.386 . S
C4487 C4491 1.393 . S
C4488 H4477 0.950 . S
C4488 C4486 1.391 . S
C4488 C4489 1.400 . S
C4489 C4483 1.491 . S
C4489 C4488 1.400 . S
C4489 C4490 1.398 . S
C4490 H4478 0.950 . S
C4490 C4489 1.398 . S
C4490 C4491 1.391 . S
C4491 H4479 0.950 . S
C4491 C4487 1.393 . S
C4491 C4490 1.391 . S
H4492 C4500 0.950 . S
H4493 C4505 0.950 . S
H4494 C4502 0.950 . S
H4495 C4504 0.950 . S
H4496 C4506 0.950 . S
H4497 C4508 0.950 . S
H4498 C4510 0.950 . S
H4499 C4511 0.950 . S
C4500 H4492 0.950 . S
C4500 C4501 1.386 . S
C4500 C4502 1.391 . S
C4501 C4500 1.386 . S
C4501 C4505 1.393 . S
C4502 H4494 0.950 . S
C4502 C4500 1.391 . S
C4502 C4503 1.400 . S
C4503 C4502 1.400 . S
C4503 C4504 1.398 . S
C4503 C4509 1.491 . S
C4504 H4495 0.950 . S
C4504 C4503 1.398 . S
C4504 C4505 1.391 . S
C4505 H4493 0.950 . S
C4505 C4501 1.393 . S
C4505 C4504 1.391 . S
C4506 H4496 0.950 . S
C4506 C4507 1.386 . S
C4506 C4508 1.391 . S
C4507 C4506 1.386 . S
C4507 C4511 1.393 . S
C4508 H4497 0.950 . S
C4508 C4506 1.391 . S
C4508 C4509 1.400 . S
C4509 C4503 1.491 . S
C4509 C4508 1.400 . S
C4509 C4510 1.398 . S
C4510 H4498 0.950 . S
C4510 C4509 1.398 . S
C4510 C4511 1.391 . S
C4511 H4499 0.950 . S
C4511 C4507 1.393 . S
C4511 C4510 1.391 . S
H4512 C4520 0.950 . S
H4513 C4525 0.950 . S
H4514 C4522 0.950 . S
H4515 C4524 0.950 . S
H4516 C4526 0.950 . S
H4517 C4528 0.950 . S
H4518 C4530 0.950 . S
H4519 C4531 0.950 . S
C4520 H4512 0.950 . S
C4520 C4521 1.386 . S
C4520 C4522 1.391 . S
C4521 C4520 1.386 . S
C4521 C4525 1.393 . S
C4522 H4514 0.950 . S
C4522 C4520 1.391 . S
C4522 C4523 1.400 . S
C4523 C4522 1.400 . S
C4523 C4524 1.398 . S
C4523 C4529 1.491 . S
C4524 H4515 0.950 . S
C4524 C4523 1.398 . S
C4524 C4525 1.391 . S
C4525 H4513 0.950 . S
C4525 C4521 1.393 . S
C4525 C4524 1.391 . S
C4526 H4516 0.950 . S
C4526 C4527 1.386 . S
C4526 C4528 1.391 . S
C4527 C4526 1.386 . S
C4527 C4531 1.393 . S
C4528 H4517 0.950 . S
C4528 C4526 1.391 . S
C4528 C4529 1.400 . S
C4529 C4523 1.491 . S
C4529 C4528 1.400 . S
C4529 C4530 1.398 . S
C4530 H4518 0.950 . S
C4530 C4529 1.398 . S
C4530 C4531 1.391 . S
C4531 H4519 0.950 . S
C4531 C4527 1.393 . S
C4531 C4530 1.391 . S
H4532 C4540 0.950 . S
H4533 C4545 0.950 . S
H4534 C4542 0.950 . S
H4535 C4544 0.950 . S
H4536 C4546 0.950 . S
H4537 C4548 0.950 . S
H4538 C4550 0.950 . S
H4539 C4551 0.950 . S
C4540 H4532 0.950 . S
C4540 C4541 1.386 . S
C4540 C4542 1.391 . S
C4541 C4540 1.386 . S
C4541 C4545 1.393 . S
C4542 H4534 0.950 . S
C4542 C4540 1.391 . S
C4542 C4543 1.400 . S
C4543 C4542 1.400 . S
C4543 C4544 1.398 . S
C4543 C4549 1.491 . S
C4544 H4535 0.950 . S
C4544 C4543 1.398 . S
C4544 C4545 1.391 . S
C4545 H4533 0.950 . S
C4545 C4541 1.393 . S
C4545 C4544 1.391 . S
C4546 H4536 0.950 . S
C4546 C4547 1.386 . S
C4546 C4548 1.391 . S
C4547 C4546 1.386 . S
C4547 C4551 1.393 . S
C4548 H4537 0.950 . S
C4548 C4546 1.391 . S
C4548 C4549 1.400 . S
C4549 C4543 1.491 . S
C4549 C4548 1.400 . S
C4549 C4550 1.398 . S
C4550 H4538 0.950 . S
C4550 C4549 1.398 . S
C4550 C4551 1.391 . S
C4551 H4539 0.950 . S
C4551 C4547 1.393 . S
C4551 C4550 1.391 . S
H4552 C4560 0.950 . S
H4553 C4565 0.950 . S
H4554 C4562 0.950 . S
H4555 C4564 0.950 . S
H4556 C4566 0.950 . S
H4557 C4568 0.950 . S
H4558 C4570 0.950 . S
H4559 C4571 0.950 . S
C4560 H4552 0.950 . S
C4560 C4561 1.386 . S
C4560 C4562 1.391 . S
C4561 C4560 1.386 . S
C4561 C4565 1.393 . S
C4562 H4554 0.950 . S
C4562 C4560 1.391 . S
C4562 C4563 1.400 . S
C4563 C4562 1.400 . S
C4563 C4564 1.398 . S
C4563 C4569 1.491 . S
C4564 H4555 0.950 . S
C4564 C4563 1.398 . S
C4564 C4565 1.391 . S
C4565 H4553 0.950 . S
C4565 C4561 1.393 . S
C4565 C4564 1.391 . S
C4566 H4556 0.950 . S
C4566 C4567 1.386 . S
C4566 C4568 1.391 . S
C4567 C4566 1.386 . S
C4567 C4571 1.393 . S
C4568 H4557 0.950 . S
C4568 C4566 1.391 . S
C4568 C4569 1.400 . S
C4569 C4563 1.491 . S
C4569 C4568 1.400 . S
C4569 C4570 1.398 . S
C4570 H4558 0.950 . S
C4570 C4569 1.398 . S
C4570 C4571 1.391 . S
C4571 H4559 0.950 . S
C4571 C4567 1.393 . S
C4571 C4570 1.391 . S
H4572 C4580 0.950 . S
H4573 C4585 0.950 . S
H4574 C4582 0.950 . S
H4575 C4584 0.950 . S
H4576 C4586 0.950 . S
H4577 C4588 0.950 . S
H4578 C4590 0.950 . S
H4579 C4591 0.950 . S
C4580 H4572 0.950 . S
C4580 C4581 1.386 . S
C4580 C4582 1.391 . S
C4581 C4580 1.386 . S
C4581 C4585 1.393 . S
C4582 H4574 0.950 . S
C4582 C4580 1.391 . S
C4582 C4583 1.400 . S
C4583 C4582 1.400 . S
C4583 C4584 1.398 . S
C4583 C4589 1.491 . S
C4584 H4575 0.950 . S
C4584 C4583 1.398 . S
C4584 C4585 1.391 . S
C4585 H4573 0.950 . S
C4585 C4581 1.393 . S
C4585 C4584 1.391 . S
C4586 H4576 0.950 . S
C4586 C4587 1.386 . S
C4586 C4588 1.391 . S
C4587 C4586 1.386 . S
C4587 C4591 1.393 . S
C4588 H4577 0.950 . S
C4588 C4586 1.391 . S
C4588 C4589 1.400 . S
C4589 C4583 1.491 . S
C4589 C4588 1.400 . S
C4589 C4590 1.398 . S
C4590 H4578 0.950 . S
C4590 C4589 1.398 . S
C4590 C4591 1.391 . S
C4591 H4579 0.950 . S
C4591 C4587 1.393 . S
C4591 C4590 1.391 . S
H4592 C4600 0.950 . S
H4593 C4605 0.950 . S
H4594 C4602 0.950 . S
H4595 C4604 0.950 . S
H4596 C4606 0.950 . S
H4597 C4608 0.950 . S
H4598 C4610 0.950 . S
H4599 C4611 0.950 . S
C4600 H4592 0.950 . S
C4600 C4601 1.386 . S
C4600 C4602 1.391 . S
C4601 C4600 1.386 . S
C4601 C4605 1.393 . S
C4602 H4594 0.950 . S
C4602 C4600 1.391 . S
C4602 C4603 1.400 . S
C4603 C4602 1.400 . S
C4603 C4604 1.398 . S
C4603 C4609 1.491 . S
C4604 H4595 0.950 . S
C4604 C4603 1.398 . S
C4604 C4605 1.391 . S
C4605 H4593 0.950 . S
C4605 C4601 1.393 . S
C4605 C4604 1.391 . S
C4606 H4596 0.950 . S
C4606 C4607 1.386 . S
C4606 C4608 1.391 . S
C4607 C4606 1.386 . S
C4607 C4611 1.393 . S
C4608 H4597 0.950 . S
C4608 C4606 1.391 . S
C4608 C4609 1.400 . S
C4609 C4603 1.491 . S
C4609 C4608 1.400 . S
C4609 C4610 1.398 . S
C4610 H4598 0.950 . S
C4610 C4609 1.398 . S
C4610 C4611 1.391 . S
C4611 H4599 0.950 . S
C4611 C4607 1.393 . S
C4611 C4610 1.391 . S
H4612 C4620 0.950 . S
H4613 C4625 0.950 . S
H4614 C4622 0.950 . S
H4615 C4624 0.950 . S
H4616 C4626 0.950 . S
H4617 C4628 0.950 . S
H4618 C4630 0.950 . S
H4619 C4631 0.950 . S
C4620 H4612 0.950 . S
C4620 C4621 1.386 . S
C4620 C4622 1.391 . S
C4621 C4620 1.386 . S
C4621 C4625 1.393 . S
C4622 H4614 0.950 . S
C4622 C4620 1.391 . S
C4622 C4623 1.400 . S
C4623 C4622 1.400 . S
C4623 C4624 1.398 . S
C4623 C4629 1.491 . S
C4624 H4615 0.950 . S
C4624 C4623 1.398 . S
C4624 C4625 1.391 . S
C4625 H4613 0.950 . S
C4625 C4621 1.393 . S
C4625 C4624 1.391 . S
C4626 H4616 0.950 . S
C4626 C4627 1.386 . S
C4626 C4628 1.391 . S
C4627 C4626 1.386 . S
C4627 C4631 1.393 . S
C4628 H4617 0.950 . S
C4628 C4626 1.391 . S
C4628 C4629 1.400 . S
C4629 C4623 1.491 . S
C4629 C4628 1.400 . S
C4629 C4630 1.398 . S
C4630 H4618 0.950 . S
C4630 C4629 1.398 . S
C4630 C4631 1.391 . S
C4631 H4619 0.950 . S
C4631 C4627 1.393 . S
C4631 C4630 1.391 . S
H4632 C4640 0.950 . S
H4633 C4645 0.950 . S
H4634 C4642 0.950 . S
H4635 C4644 0.950 . S
H4636 C4646 0.950 . S
H4637 C4648 0.950 . S
H4638 C4650 0.950 . S
H4639 C4651 0.950 . S
C4640 H4632 0.950 . S
C4640 C4641 1.386 . S
C4640 C4642 1.391 . S
C4641 C4640 1.386 . S
C4641 C4645 1.393 . S
C4642 H4634 0.950 . S
C4642 C4640 1.391 . S
C4642 C4643 1.400 . S
C4643 C4642 1.400 . S
C4643 C4644 1.398 . S
C4643 C4649 1.491 . S
C4644 H4635 0.950 . S
C4644 C4643 1.398 . S
C4644 C4645 1.391 . S
C4645 H4633 0.950 . S
C4645 C4641 1.393 . S
C4645 C4644 1.391 . S
C4646 H4636 0.950 . S
C4646 C4647 1.386 . S
C4646 C4648 1.391 . S
C4647 C4646 1.386 . S
C4647 C4651 1.393 . S
C4648 H4637 0.950 . S
C4648 C4646 1.391 . S
C4648 C4649 1.400 . S
C4649 C4643 1.491 . S
C4649 C4648 1.400 . S
C4649 C4650 1.398 . S
C4650 H4638 0.950 . S
C4650 C4649 1.398 . S
C4650 C4651 1.391 . S
C4651 H4639 0.950 . S
C4651 C4647 1.393 . S
C4651 C4650 1.391 . S
H4652 C4660 0.950 . S
H4653 C4665 0.950 . S
H4654 C4662 0.950 . S
H4655 C4664 0.950 . S
H4656 C4666 0.950 . S
H4657 C4668 0.950 . S
H4658 C4670 0.950 . S
H4659 C4671 0.950 . S
C4660 H4652 0.950 . S
C4660 C4661 1.386 . S
C4660 C4662 1.391 . S
C4661 C4660 1.386 . S
C4661 C4665 1.393 . S
C4662 H4654 0.950 . S
C4662 C4660 1.391 . S
C4662 C4663 1.400 . S
C4663 C4662 1.400 . S
C4663 C4664 1.398 . S
C4663 C4669 1.491 . S
C4664 H4655 0.950 . S
C4664 C4663 1.398 . S
C4664 C4665 1.391 . S
C4665 H4653 0.950 . S
C4665 C4661 1.393 . S
C4665 C4664 1.391 . S
C4666 H4656 0.950 . S
C4666 C4667 1.386 . S
C4666 C4668 1.391 . S
C4667 C4666 1.386 . S
C4667 C4671 1.393 . S
C4668 H4657 0.950 . S
C4668 C4666 1.391 . S
C4668 C4669 1.400 . S
C4669 C4663 1.491 . S
C4669 C4668 1.400 . S
C4669 C4670 1.398 . S
C4670 H4658 0.950 . S
C4670 C4669 1.398 . S
C4670 C4671 1.391 . S
C4671 H4659 0.950 . S
C4671 C4667 1.393 . S
C4671 C4670 1.391 . S
H4672 C4680 0.950 . S
H4673 C4685 0.950 . S
H4674 C4682 0.950 . S
H4675 C4684 0.950 . S
H4676 C4686 0.950 . S
H4677 C4688 0.950 . S
H4678 C4690 0.950 . S
H4679 C4691 0.950 . S
C4680 H4672 0.950 . S
C4680 C4681 1.386 . S
C4680 C4682 1.391 . S
C4681 C4680 1.386 . S
C4681 C4685 1.393 . S
C4682 H4674 0.950 . S
C4682 C4680 1.391 . S
C4682 C4683 1.400 . S
C4683 C4682 1.400 . S
C4683 C4684 1.398 . S
C4683 C4689 1.491 . S
C4684 H4675 0.950 . S
C4684 C4683 1.398 . S
C4684 C4685 1.391 . S
C4685 H4673 0.950 . S
C4685 C4681 1.393 . S
C4685 C4684 1.391 . S
C4686 H4676 0.950 . S
C4686 C4687 1.386 . S
C4686 C4688 1.391 . S
C4687 C4686 1.386 . S
C4687 C4691 1.393 . S
C4688 H4677 0.950 . S
C4688 C4686 1.391 . S
C4688 C4689 1.400 . S
C4689 C4683 1.491 . S
C4689 C4688 1.400 . S
C4689 C4690 1.398 . S
C4690 H4678 0.950 . S
C4690 C4689 1.398 . S
C4690 C4691 1.391 . S
C4691 H4679 0.950 . S
C4691 C4687 1.393 . S
C4691 C4690 1.391 . S
H4692 C4700 0.950 . S
H4693 C4705 0.950 . S
H4694 C4702 0.950 . S
H4695 C4704 0.950 . S
H4696 C4706 0.950 . S
H4697 C4708 0.950 . S
H4698 C4710 0.950 . S
H4699 C4711 0.950 . S
C4700 H4692 0.950 . S
C4700 C4701 1.386 . S
C4700 C4702 1.391 . S
C4701 C4700 1.386 . S
C4701 C4705 1.393 . S
C4702 H4694 0.950 . S
C4702 C4700 1.391 . S
C4702 C4703 1.400 . S
C4703 C4702 1.400 . S
C4703 C4704 1.398 . S
C4703 C4709 1.491 . S
C4704 H4695 0.950 . S
C4704 C4703 1.398 . S
C4704 C4705 1.391 . S
C4705 H4693 0.950 . S
C4705 C4701 1.393 . S
C4705 C4704 1.391 . S
C4706 H4696 0.950 . S
C4706 C4707 1.386 . S
C4706 C4708 1.391 . S
C4707 C4706 1.386 . S
C4707 C4711 1.393 . S
C4708 H4697 0.950 . S
C4708 C4706 1.391 . S
C4708 C4709 1.400 . S
C4709 C4703 1.491 . S
C4709 C4708 1.400 . S
C4709 C4710 1.398 . S
C4710 H4698 0.950 . S
C4710 C4709 1.398 . S
C4710 C4711 1.391 . S
C4711 H4699 0.950 . S
C4711 C4707 1.393 . S
C4711 C4710 1.391 . S
H4712 C4720 0.950 . S
H4713 C4725 0.950 . S
H4714 C4722 0.950 . S
H4715 C4724 0.950 . S
H4716 C4726 0.950 . S
H4717 C4728 0.950 . S
H4718 C4730 0.950 . S
H4719 C4731 0.950 . S
C4720 H4712 0.950 . S
C4720 C4721 1.386 . S
C4720 C4722 1.391 . S
C4721 C4720 1.386 . S
C4721 C4725 1.393 . S
C4722 H4714 0.950 . S
C4722 C4720 1.391 . S
C4722 C4723 1.400 . S
C4723 C4722 1.400 . S
C4723 C4724 1.398 . S
C4723 C4729 1.491 . S
C4724 H4715 0.950 . S
C4724 C4723 1.398 . S
C4724 C4725 1.391 . S
C4725 H4713 0.950 . S
C4725 C4721 1.393 . S
C4725 C4724 1.391 . S
C4726 H4716 0.950 . S
C4726 C4727 1.386 . S
C4726 C4728 1.391 . S
C4727 C4726 1.386 . S
C4727 C4731 1.393 . S
C4728 H4717 0.950 . S
C4728 C4726 1.391 . S
C4728 C4729 1.400 . S
C4729 C4723 1.491 . S
C4729 C4728 1.400 . S
C4729 C4730 1.398 . S
C4730 H4718 0.950 . S
C4730 C4729 1.398 . S
C4730 C4731 1.391 . S
C4731 H4719 0.950 . S
C4731 C4727 1.393 . S
C4731 C4730 1.391 . S
H4732 C4740 0.950 . S
H4733 C4745 0.950 . S
H4734 C4742 0.950 . S
H4735 C4744 0.950 . S
H4736 C4746 0.950 . S
H4737 C4748 0.950 . S
H4738 C4750 0.950 . S
H4739 C4751 0.950 . S
C4740 H4732 0.950 . S
C4740 C4741 1.386 . S
C4740 C4742 1.391 . S
C4741 C4740 1.386 . S
C4741 C4745 1.393 . S
C4742 H4734 0.950 . S
C4742 C4740 1.391 . S
C4742 C4743 1.400 . S
C4743 C4742 1.400 . S
C4743 C4744 1.398 . S
C4743 C4749 1.491 . S
C4744 H4735 0.950 . S
C4744 C4743 1.398 . S
C4744 C4745 1.391 . S
C4745 H4733 0.950 . S
C4745 C4741 1.393 . S
C4745 C4744 1.391 . S
C4746 H4736 0.950 . S
C4746 C4747 1.386 . S
C4746 C4748 1.391 . S
C4747 C4746 1.386 . S
C4747 C4751 1.393 . S
C4748 H4737 0.950 . S
C4748 C4746 1.391 . S
C4748 C4749 1.400 . S
C4749 C4743 1.491 . S
C4749 C4748 1.400 . S
C4749 C4750 1.398 . S
C4750 H4738 0.950 . S
C4750 C4749 1.398 . S
C4750 C4751 1.391 . S
C4751 H4739 0.950 . S
C4751 C4747 1.393 . S
C4751 C4750 1.391 . S
H4752 C4760 0.950 . S
H4753 C4765 0.950 . S
H4754 C4762 0.950 . S
H4755 C4764 0.950 . S
H4756 C4766 0.950 . S
H4757 C4768 0.950 . S
H4758 C4770 0.950 . S
H4759 C4771 0.950 . S
C4760 H4752 0.950 . S
C4760 C4761 1.386 . S
C4760 C4762 1.391 . S
C4761 C4760 1.386 . S
C4761 C4765 1.393 . S
C4762 H4754 0.950 . S
C4762 C4760 1.391 . S
C4762 C4763 1.400 . S
C4763 C4762 1.400 . S
C4763 C4764 1.398 . S
C4763 C4769 1.491 . S
C4764 H4755 0.950 . S
C4764 C4763 1.398 . S
C4764 C4765 1.391 . S
C4765 H4753 0.950 . S
C4765 C4761 1.393 . S
C4765 C4764 1.391 . S
C4766 H4756 0.950 . S
C4766 C4767 1.386 . S
C4766 C4768 1.391 . S
C4767 C4766 1.386 . S
C4767 C4771 1.393 . S
C4768 H4757 0.950 . S
C4768 C4766 1.391 . S
C4768 C4769 1.400 . S
C4769 C4763 1.491 . S
C4769 C4768 1.400 . S
C4769 C4770 1.398 . S
C4770 H4758 0.950 . S
C4770 C4769 1.398 . S
C4770 C4771 1.391 . S
C4771 H4759 0.950 . S
C4771 C4767 1.393 . S
C4771 C4770 1.391 . S
H4772 C4780 0.950 . S
H4773 C4785 0.950 . S
H4774 C4782 0.950 . S
H4775 C4784 0.950 . S
H4776 C4786 0.950 . S
H4777 C4788 0.950 . S
H4778 C4790 0.950 . S
H4779 C4791 0.950 . S
C4780 H4772 0.950 . S
C4780 C4781 1.386 . S
C4780 C4782 1.391 . S
C4781 C4780 1.386 . S
C4781 C4785 1.393 . S
C4782 H4774 0.950 . S
C4782 C4780 1.391 . S
C4782 C4783 1.400 . S
C4783 C4782 1.400 . S
C4783 C4784 1.398 . S
C4783 C4789 1.491 . S
C4784 H4775 0.950 . S
C4784 C4783 1.398 . S
C4784 C4785 1.391 . S
C4785 H4773 0.950 . S
C4785 C4781 1.393 . S
C4785 C4784 1.391 . S
C4786 H4776 0.950 . S
C4786 C4787 1.386 . S
C4786 C4788 1.391 . S
C4787 C4786 1.386 . S
C4787 C4791 1.393 . S
C4788 H4777 0.950 . S
C4788 C4786 1.391 . S
C4788 C4789 1.400 . S
C4789 C4783 1.491 . S
C4789 C4788 1.400 . S
C4789 C4790 1.398 . S
C4790 H4778 0.950 . S
C4790 C4789 1.398 . S
C4790 C4791 1.391 . S
C4791 H4779 0.950 . S
C4791 C4787 1.393 . S
C4791 C4790 1.391 . S
H4792 C4800 0.950 . S
H4793 C4805 0.950 . S
H4794 C4802 0.950 . S
H4795 C4804 0.950 . S
H4796 C4806 0.950 . S
H4797 C4808 0.950 . S
H4798 C4810 0.950 . S
H4799 C4811 0.950 . S
C4800 H4792 0.950 . S
C4800 C4801 1.386 . S
C4800 C4802 1.391 . S
C4801 C4800 1.386 . S
C4801 C4805 1.393 . S
C4802 H4794 0.950 . S
C4802 C4800 1.391 . S
C4802 C4803 1.400 . S
C4803 C4802 1.400 . S
C4803 C4804 1.398 . S
C4803 C4809 1.491 . S
C4804 H4795 0.950 . S
C4804 C4803 1.398 . S
C4804 C4805 1.391 . S
C4805 H4793 0.950 . S
C4805 C4801 1.393 . S
C4805 C4804 1.391 . S
C4806 H4796 0.950 . S
C4806 C4807 1.386 . S
C4806 C4808 1.391 . S
C4807 C4806 1.386 . S
C4807 C4811 1.393 . S
C4808 H4797 0.950 . S
C4808 C4806 1.391 . S
C4808 C4809 1.400 . S
C4809 C4803 1.491 . S
C4809 C4808 1.400 . S
C4809 C4810 1.398 . S
C4810 H4798 0.950 . S
C4810 C4809 1.398 . S
C4810 C4811 1.391 . S
C4811 H4799 0.950 . S
C4811 C4807 1.393 . S
C4811 C4810 1.391 . S
H4812 C4820 0.950 . S
H4813 C4825 0.950 . S
H4814 C4822 0.950 . S
H4815 C4824 0.950 . S
H4816 C4826 0.950 . S
H4817 C4828 0.950 . S
H4818 C4830 0.950 . S
H4819 C4831 0.950 . S
C4820 H4812 0.950 . S
C4820 C4821 1.386 . S
C4820 C4822 1.391 . S
C4821 C4820 1.386 . S
C4821 C4825 1.393 . S
C4822 H4814 0.950 . S
C4822 C4820 1.391 . S
C4822 C4823 1.400 . S
C4823 C4822 1.400 . S
C4823 C4824 1.398 . S
C4823 C4829 1.491 . S
C4824 H4815 0.950 . S
C4824 C4823 1.398 . S
C4824 C4825 1.391 . S
C4825 H4813 0.950 . S
C4825 C4821 1.393 . S
C4825 C4824 1.391 . S
C4826 H4816 0.950 . S
C4826 C4827 1.386 . S
C4826 C4828 1.391 . S
C4827 C4826 1.386 . S
C4827 C4831 1.393 . S
C4828 H4817 0.950 . S
C4828 C4826 1.391 . S
C4828 C4829 1.400 . S
C4829 C4823 1.491 . S
C4829 C4828 1.400 . S
C4829 C4830 1.398 . S
C4830 H4818 0.950 . S
C4830 C4829 1.398 . S
C4830 C4831 1.391 . S
C4831 H4819 0.950 . S
C4831 C4827 1.393 . S
C4831 C4830 1.391 . S
H4832 C4840 0.950 . S
H4833 C4845 0.950 . S
H4834 C4842 0.950 . S
H4835 C4844 0.950 . S
H4836 C4846 0.950 . S
H4837 C4848 0.950 . S
H4838 C4850 0.950 . S
H4839 C4851 0.950 . S
C4840 H4832 0.950 . S
C4840 C4841 1.386 . S
C4840 C4842 1.391 . S
C4841 C4840 1.386 . S
C4841 C4845 1.393 . S
C4842 H4834 0.950 . S
C4842 C4840 1.391 . S
C4842 C4843 1.400 . S
C4843 C4842 1.400 . S
C4843 C4844 1.398 . S
C4843 C4849 1.491 . S
C4844 H4835 0.950 . S
C4844 C4843 1.398 . S
C4844 C4845 1.391 . S
C4845 H4833 0.950 . S
C4845 C4841 1.393 . S
C4845 C4844 1.391 . S
C4846 H4836 0.950 . S
C4846 C4847 1.386 . S
C4846 C4848 1.391 . S
C4847 C4846 1.386 . S
C4847 C4851 1.393 . S
C4848 H4837 0.950 . S
C4848 C4846 1.391 . S
C4848 C4849 1.400 . S
C4849 C4843 1.491 . S
C4849 C4848 1.400 . S
C4849 C4850 1.398 . S
C4850 H4838 0.950 . S
C4850 C4849 1.398 . S
C4850 C4851 1.391 . S
C4851 H4839 0.950 . S
C4851 C4847 1.393 . S
C4851 C4850 1.391 . S
H4852 C4860 0.950 . S
H4853 C4865 0.950 . S
H4854 C4862 0.950 . S
H4855 C4864 0.950 . S
H4856 C4866 0.950 . S
H4857 C4868 0.950 . S
H4858 C4870 0.950 . S
H4859 C4871 0.950 . S
C4860 H4852 0.950 . S
C4860 C4861 1.386 . S
C4860 C4862 1.391 . S
C4861 C4860 1.386 . S
C4861 C4865 1.393 . S
C4862 H4854 0.950 . S
C4862 C4860 1.391 . S
C4862 C4863 1.400 . S
C4863 C4862 1.400 . S
C4863 C4864 1.398 . S
C4863 C4869 1.491 . S
C4864 H4855 0.950 . S
C4864 C4863 1.398 . S
C4864 C4865 1.391 . S
C4865 H4853 0.950 . S
C4865 C4861 1.393 . S
C4865 C4864 1.391 . S
C4866 H4856 0.950 . S
C4866 C4867 1.386 . S
C4866 C4868 1.391 . S
C4867 C4866 1.386 . S
C4867 C4871 1.393 . S
C4868 H4857 0.950 . S
C4868 C4866 1.391 . S
C4868 C4869 1.400 . S
C4869 C4863 1.491 . S
C4869 C4868 1.400 . S
C4869 C4870 1.398 . S
C4870 H4858 0.950 . S
C4870 C4869 1.398 . S
C4870 C4871 1.391 . S
C4871 H4859 0.950 . S
C4871 C4867 1.393 . S
C4871 C4870 1.391 . S
H4872 C4880 0.950 . S
H4873 C4885 0.950 . S
H4874 C4882 0.950 . S
H4875 C4884 0.950 . S
H4876 C4886 0.950 . S
H4877 C4888 0.950 . S
H4878 C4890 0.950 . S
H4879 C4891 0.950 . S
C4880 H4872 0.950 . S
C4880 C4881 1.386 . S
C4880 C4882 1.391 . S
C4881 C4880 1.386 . S
C4881 C4885 1.393 . S
C4882 H4874 0.950 . S
C4882 C4880 1.391 . S
C4882 C4883 1.400 . S
C4883 C4882 1.400 . S
C4883 C4884 1.398 . S
C4883 C4889 1.491 . S
C4884 H4875 0.950 . S
C4884 C4883 1.398 . S
C4884 C4885 1.391 . S
C4885 H4873 0.950 . S
C4885 C4881 1.393 . S
C4885 C4884 1.391 . S
C4886 H4876 0.950 . S
C4886 C4887 1.386 . S
C4886 C4888 1.391 . S
C4887 C4886 1.386 . S
C4887 C4891 1.393 . S
C4888 H4877 0.950 . S
C4888 C4886 1.391 . S
C4888 C4889 1.400 . S
C4889 C4883 1.491 . S
C4889 C4888 1.400 . S
C4889 C4890 1.398 . S
C4890 H4878 0.950 . S
C4890 C4889 1.398 . S
C4890 C4891 1.391 . S
C4891 H4879 0.950 . S
C4891 C4887 1.393 . S
C4891 C4890 1.391 . S
H4892 C4900 0.950 . S
H4893 C4905 0.950 . S
H4894 C4902 0.950 . S
H4895 C4904 0.950 . S
H4896 C4906 0.950 . S
H4897 C4908 0.950 . S
H4898 C4910 0.950 . S
H4899 C4911 0.950 . S
C4900 H4892 0.950 . S
C4900 C4901 1.386 . S
C4900 C4902 1.391 . S
C4901 C4900 1.386 . S
C4901 C4905 1.393 . S
C4902 H4894 0.950 . S
C4902 C4900 1.391 . S
C4902 C4903 1.400 . S
C4903 C4902 1.400 . S
C4903 C4904 1.398 . S
C4903 C4909 1.491 . S
C4904 H4895 0.950 . S
C4904 C4903 1.398 . S
C4904 C4905 1.391 . S
C4905 H4893 0.950 . S
C4905 C4901 1.393 . S
C4905 C4904 1.391 . S
C4906 H4896 0.950 . S
C4906 C4907 1.386 . S
C4906 C4908 1.391 . S
C4907 C4906 1.386 . S
C4907 C4911 1.393 . S
C4908 H4897 0.950 . S
C4908 C4906 1.391 . S
C4908 C4909 1.400 . S
C4909 C4903 1.491 . S
C4909 C4908 1.400 . S
C4909 C4910 1.398 . S
C4910 H4898 0.950 . S
C4910 C4909 1.398 . S
C4910 C4911 1.391 . S
C4911 H4899 0.950 . S
C4911 C4907 1.393 . S
C4911 C4910 1.391 . S
H4912 C4920 0.950 . S
H4913 C4925 0.950 . S
H4914 C4922 0.950 . S
H4915 C4924 0.950 . S
H4916 C4926 0.950 . S
H4917 C4928 0.950 . S
H4918 C4930 0.950 . S
H4919 C4931 0.950 . S
C4920 H4912 0.950 . S
C4920 C4921 1.386 . S
C4920 C4922 1.391 . S
C4921 C4920 1.386 . S
C4921 C4925 1.393 . S
C4922 H4914 0.950 . S
C4922 C4920 1.391 . S
C4922 C4923 1.400 . S
C4923 C4922 1.400 . S
C4923 C4924 1.398 . S
C4923 C4929 1.491 . S
C4924 H4915 0.950 . S
C4924 C4923 1.398 . S
C4924 C4925 1.391 . S
C4925 H4913 0.950 . S
C4925 C4921 1.393 . S
C4925 C4924 1.391 . S
C4926 H4916 0.950 . S
C4926 C4927 1.386 . S
C4926 C4928 1.391 . S
C4927 C4926 1.386 . S
C4927 C4931 1.393 . S
C4928 H4917 0.950 . S
C4928 C4926 1.391 . S
C4928 C4929 1.400 . S
C4929 C4923 1.491 . S
C4929 C4928 1.400 . S
C4929 C4930 1.398 . S
C4930 H4918 0.950 . S
C4930 C4929 1.398 . S
C4930 C4931 1.391 . S
C4931 H4919 0.950 . S
C4931 C4927 1.393 . S
C4931 C4930 1.391 . S
H4932 C4940 0.950 . S
H4933 C4945 0.950 . S
H4934 C4942 0.950 . S
H4935 C4944 0.950 . S
H4936 C4946 0.950 . S
H4937 C4948 0.950 . S
H4938 C4950 0.950 . S
H4939 C4951 0.950 . S
C4940 H4932 0.950 . S
C4940 C4941 1.386 . S
C4940 C4942 1.391 . S
C4941 C4940 1.386 . S
C4941 C4945 1.393 . S
C4942 H4934 0.950 . S
C4942 C4940 1.391 . S
C4942 C4943 1.400 . S
C4943 C4942 1.400 . S
C4943 C4944 1.398 . S
C4943 C4949 1.491 . S
C4944 H4935 0.950 . S
C4944 C4943 1.398 . S
C4944 C4945 1.391 . S
C4945 H4933 0.950 . S
C4945 C4941 1.393 . S
C4945 C4944 1.391 . S
C4946 H4936 0.950 . S
C4946 C4947 1.386 . S
C4946 C4948 1.391 . S
C4947 C4946 1.386 . S
C4947 C4951 1.393 . S
C4948 H4937 0.950 . S
C4948 C4946 1.391 . S
C4948 C4949 1.400 . S
C4949 C4943 1.491 . S
C4949 C4948 1.400 . S
C4949 C4950 1.398 . S
C4950 H4938 0.950 . S
C4950 C4949 1.398 . S
C4950 C4951 1.391 . S
C4951 H4939 0.950 . S
C4951 C4947 1.393 . S
C4951 C4950 1.391 . S
H4952 C4960 0.950 . S
H4953 C4965 0.950 . S
H4954 C4962 0.950 . S
H4955 C4964 0.950 . S
H4956 C4966 0.950 . S
H4957 C4968 0.950 . S
H4958 C4970 0.950 . S
H4959 C4971 0.950 . S
C4960 H4952 0.950 . S
C4960 C4961 1.386 . S
C4960 C4962 1.391 . S
C4961 C4960 1.386 . S
C4961 C4965 1.393 . S
C4962 H4954 0.950 . S
C4962 C4960 1.391 . S
C4962 C4963 1.400 . S
C4963 C4962 1.400 . S
C4963 C4964 1.398 . S
C4963 C4969 1.491 . S
C4964 H4955 0.950 . S
C4964 C4963 1.398 . S
C4964 C4965 1.391 . S
C4965 H4953 0.950 . S
C4965 C4961 1.393 . S
C4965 C4964 1.391 . S
C4966 H4956 0.950 . S
C4966 C4967 1.386 . S
C4966 C4968 1.391 . S
C4967 C4966 1.386 . S
C4967 C4971 1.393 . S
C4968 H4957 0.950 . S
C4968 C4966 1.391 . S
C4968 C4969 1.400 . S
C4969 C4963 1.491 . S
C4969 C4968 1.400 . S
C4969 C4970 1.398 . S
C4970 H4958 0.950 . S
C4970 C4969 1.398 . S
C4970 C4971 1.391 . S
C4971 H4959 0.950 . S
C4971 C4967 1.393 . S
C4971 C4970 1.391 . S
H4972 C4980 0.950 . S
H4973 C4985 0.950 . S
H4974 C4982 0.950 . S
H4975 C4984 0.950 . S
H4976 C4986 0.950 . S
H4977 C4988 0.950 . S
H4978 C4990 0.950 . S
H4979 C4991 0.950 . S
C4980 H4972 0.950 . S
C4980 C4981 1.386 . S
C4980 C4982 1.391 . S
C4981 C4980 1.386 . S
C4981 C4985 1.393 . S
C4982 H4974 0.950 . S
C4982 C4980 1.391 . S
C4982 C4983 1.400 . S
C4983 C4982 1.400 . S
C4983 C4984 1.398 . S
C4983 C4989 1.491 . S
C4984 H4975 0.950 . S
C4984 C4983 1.398 . S
C4984 C4985 1.391 . S
C4985 H4973 0.950 . S
C4985 C4981 1.393 . S
C4985 C4984 1.391 . S
C4986 H4976 0.950 . S
C4986 C4987 1.386 . S
C4986 C4988 1.391 . S
C4987 C4986 1.386 . S
C4987 C4991 1.393 . S
C4988 H4977 0.950 . S
C4988 C4986 1.391 . S
C4988 C4989 1.400 . S
C4989 C4983 1.491 . S
C4989 C4988 1.400 . S
C4989 C4990 1.398 . S
C4990 H4978 0.950 . S
C4990 C4989 1.398 . S
C4990 C4991 1.391 . S
C4991 H4979 0.950 . S
C4991 C4987 1.393 . S
C4991 C4990 1.391 . S
H4992 C5000 0.950 . S
H4993 C5005 0.950 . S
H4994 C5002 0.950 . S
H4995 C5004 0.950 . S
H4996 C5006 0.950 . S
H4997 C5008 0.950 . S
H4998 C5010 0.950 . S
H4999 C5011 0.950 . S
C5000 H4992 0.950 . S
C5000 C5001 1.386 . S
C5000 C5002 1.391 . S
C5001 C5000 1.386 . S
C5001 C5005 1.393 . S
C5002 H4994 0.950 . S
C5002 C5000 1.391 . S
C5002 C5003 1.400 . S
C5003 C5002 1.400 . S
C5003 C5004 1.398 . S
C5003 C5009 1.491 . S
C5004 H4995 0.950 . S
C5004 C5003 1.398 . S
C5004 C5005 1.391 . S
C5005 H4993 0.950 . S
C5005 C5001 1.393 . S
C5005 C5004 1.391 . S
C5006 H4996 0.950 . S
C5006 C5007 1.386 . S
C5006 C5008 1.391 . S
C5007 C5006 1.386 . S
C5007 C5011 1.393 . S
C5008 H4997 0.950 . S
C5008 C5006 1.391 . S
C5008 C5009 1.400 . S
C5009 C5003 1.491 . S
C5009 C5008 1.400 . S
C5009 C5010 1.398 . S
C5010 H4998 0.950 . S
C5010 C5009 1.398 . S
C5010 C5011 1.391 . S
C5011 H4999 0.950 . S
C5011 C5007 1.393 . S
C5011 C5010 1.391 . S
H5012 C5020 0.950 . S
H5013 C5025 0.950 . S
H5014 C5022 0.950 . S
H5015 C5024 0.950 . S
H5016 C5026 0.950 . S
H5017 C5028 0.950 . S
H5018 C5030 0.950 . S
H5019 C5031 0.950 . S
C5020 H5012 0.950 . S
C5020 C5021 1.386 . S
C5020 C5022 1.391 . S
C5021 C5020 1.386 . S
C5021 C5025 1.393 . S
C5022 H5014 0.950 . S
C5022 C5020 1.391 . S
C5022 C5023 1.400 . S
C5023 C5022 1.400 . S
C5023 C5024 1.398 . S
C5023 C5029 1.491 . S
C5024 H5015 0.950 . S
C5024 C5023 1.398 . S
C5024 C5025 1.391 . S
C5025 H5013 0.950 . S
C5025 C5021 1.393 . S
C5025 C5024 1.391 . S
C5026 H5016 0.950 . S
C5026 C5027 1.386 . S
C5026 C5028 1.391 . S
C5027 C5026 1.386 . S
C5027 C5031 1.393 . S
C5028 H5017 0.950 . S
C5028 C5026 1.391 . S
C5028 C5029 1.400 . S
C5029 C5023 1.491 . S
C5029 C5028 1.400 . S
C5029 C5030 1.398 . S
C5030 H5018 0.950 . S
C5030 C5029 1.398 . S
C5030 C5031 1.391 . S
C5031 H5019 0.950 . S
C5031 C5027 1.393 . S
C5031 C5030 1.391 . S
H5032 C5040 0.950 . S
H5033 C5045 0.950 . S
H5034 C5042 0.950 . S
H5035 C5044 0.950 . S
H5036 C5046 0.950 . S
H5037 C5048 0.950 . S
H5038 C5050 0.950 . S
H5039 C5051 0.950 . S
C5040 H5032 0.950 . S
C5040 C5041 1.386 . S
C5040 C5042 1.391 . S
C5041 C5040 1.386 . S
C5041 C5045 1.393 . S
C5042 H5034 0.950 . S
C5042 C5040 1.391 . S
C5042 C5043 1.400 . S
C5043 C5042 1.400 . S
C5043 C5044 1.398 . S
C5043 C5049 1.491 . S
C5044 H5035 0.950 . S
C5044 C5043 1.398 . S
C5044 C5045 1.391 . S
C5045 H5033 0.950 . S
C5045 C5041 1.393 . S
C5045 C5044 1.391 . S
C5046 H5036 0.950 . S
C5046 C5047 1.386 . S
C5046 C5048 1.391 . S
C5047 C5046 1.386 . S
C5047 C5051 1.393 . S
C5048 H5037 0.950 . S
C5048 C5046 1.391 . S
C5048 C5049 1.400 . S
C5049 C5043 1.491 . S
C5049 C5048 1.400 . S
C5049 C5050 1.398 . S
C5050 H5038 0.950 . S
C5050 C5049 1.398 . S
C5050 C5051 1.391 . S
C5051 H5039 0.950 . S
C5051 C5047 1.393 . S
C5051 C5050 1.391 . S
H5052 C5060 0.950 . S
H5053 C5065 0.950 . S
H5054 C5062 0.950 . S
H5055 C5064 0.950 . S
H5056 C5066 0.950 . S
H5057 C5068 0.950 . S
H5058 C5070 0.950 . S
H5059 C5071 0.950 . S
C5060 H5052 0.950 . S
C5060 C5061 1.386 . S
C5060 C5062 1.391 . S
C5061 C5060 1.386 . S
C5061 C5065 1.393 . S
C5062 H5054 0.950 . S
C5062 C5060 1.391 . S
C5062 C5063 1.400 . S
C5063 C5062 1.400 . S
C5063 C5064 1.398 . S
C5063 C5069 1.491 . S
C5064 H5055 0.950 . S
C5064 C5063 1.398 . S
C5064 C5065 1.391 . S
C5065 H5053 0.950 . S
C5065 C5061 1.393 . S
C5065 C5064 1.391 . S
C5066 H5056 0.950 . S
C5066 C5067 1.386 . S
C5066 C5068 1.391 . S
C5067 C5066 1.386 . S
C5067 C5071 1.393 . S
C5068 H5057 0.950 . S
C5068 C5066 1.391 . S
C5068 C5069 1.400 . S
C5069 C5063 1.491 . S
C5069 C5068 1.400 . S
C5069 C5070 1.398 . S
C5070 H5058 0.950 . S
C5070 C5069 1.398 . S
C5070 C5071 1.391 . S
C5071 H5059 0.950 . S
C5071 C5067 1.393 . S
C5071 C5070 1.391 . S
H5072 C5080 0.950 . S
H5073 C5085 0.950 . S
H5074 C5082 0.950 . S
H5075 C5084 0.950 . S
H5076 C5086 0.950 . S
H5077 C5088 0.950 . S
H5078 C5090 0.950 . S
H5079 C5091 0.950 . S
C5080 H5072 0.950 . S
C5080 C5081 1.386 . S
C5080 C5082 1.391 . S
C5081 C5080 1.386 . S
C5081 C5085 1.393 . S
C5082 H5074 0.950 . S
C5082 C5080 1.391 . S
C5082 C5083 1.400 . S
C5083 C5082 1.400 . S
C5083 C5084 1.398 . S
C5083 C5089 1.491 . S
C5084 H5075 0.950 . S
C5084 C5083 1.398 . S
C5084 C5085 1.391 . S
C5085 H5073 0.950 . S
C5085 C5081 1.393 . S
C5085 C5084 1.391 . S
C5086 H5076 0.950 . S
C5086 C5087 1.386 . S
C5086 C5088 1.391 . S
C5087 C5086 1.386 . S
C5087 C5091 1.393 . S
C5088 H5077 0.950 . S
C5088 C5086 1.391 . S
C5088 C5089 1.400 . S
C5089 C5083 1.491 . S
C5089 C5088 1.400 . S
C5089 C5090 1.398 . S
C5090 H5078 0.950 . S
C5090 C5089 1.398 . S
C5090 C5091 1.391 . S
C5091 H5079 0.950 . S
C5091 C5087 1.393 . S
C5091 C5090 1.391 . S
H5092 C5100 0.950 . S
H5093 C5105 0.950 . S
H5094 C5102 0.950 . S
H5095 C5104 0.950 . S
H5096 C5106 0.950 . S
H5097 C5108 0.950 . S
H5098 C5110 0.950 . S
H5099 C5111 0.950 . S
C5100 H5092 0.950 . S
C5100 C5101 1.386 . S
C5100 C5102 1.391 . S
C5101 C5100 1.386 . S
C5101 C5105 1.393 . S
C5102 H5094 0.950 . S
C5102 C5100 1.391 . S
C5102 C5103 1.400 . S
C5103 C5102 1.400 . S
C5103 C5104 1.398 . S
C5103 C5109 1.491 . S
C5104 H5095 0.950 . S
C5104 C5103 1.398 . S
C5104 C5105 1.391 . S
C5105 H5093 0.950 . S
C5105 C5101 1.393 . S
C5105 C5104 1.391 . S
C5106 H5096 0.950 . S
C5106 C5107 1.386 . S
C5106 C5108 1.391 . S
C5107 C5106 1.386 . S
C5107 C5111 1.393 . S
C5108 H5097 0.950 . S
C5108 C5106 1.391 . S
C5108 C5109 1.400 . S
C5109 C5103 1.491 . S
C5109 C5108 1.400 . S
C5109 C5110 1.398 . S
C5110 H5098 0.950 . S
C5110 C5109 1.398 . S
C5110 C5111 1.391 . S
C5111 H5099 0.950 . S
C5111 C5107 1.393 . S
C5111 C5110 1.391 . S
H5112 C5120 0.950 . S
H5113 C5125 0.950 . S
H5114 C5122 0.950 . S
H5115 C5124 0.950 . S
H5116 C5126 0.950 . S
H5117 C5128 0.950 . S
H5118 C5130 0.950 . S
H5119 C5131 0.950 . S
C5120 H5112 0.950 . S
C5120 C5121 1.386 . S
C5120 C5122 1.391 . S
C5121 C5120 1.386 . S
C5121 C5125 1.393 . S
C5122 H5114 0.950 . S
C5122 C5120 1.391 . S
C5122 C5123 1.400 . S
C5123 C5122 1.400 . S
C5123 C5124 1.398 . S
C5123 C5129 1.491 . S
C5124 H5115 0.950 . S
C5124 C5123 1.398 . S
C5124 C5125 1.391 . S
C5125 H5113 0.950 . S
C5125 C5121 1.393 . S
C5125 C5124 1.391 . S
C5126 H5116 0.950 . S
C5126 C5127 1.386 . S
C5126 C5128 1.391 . S
C5127 C5126 1.386 . S
C5127 C5131 1.393 . S
C5128 H5117 0.950 . S
C5128 C5126 1.391 . S
C5128 C5129 1.400 . S
C5129 C5123 1.491 . S
C5129 C5128 1.400 . S
C5129 C5130 1.398 . S
C5130 H5118 0.950 . S
C5130 C5129 1.398 . S
C5130 C5131 1.391 . S
C5131 H5119 0.950 . S
C5131 C5127 1.393 . S
C5131 C5130 1.391 . S
H5132 C5140 0.950 . S
H5133 C5145 0.950 . S
H5134 C5142 0.950 . S
H5135 C5144 0.950 . S
H5136 C5146 0.950 . S
H5137 C5148 0.950 . S
H5138 C5150 0.950 . S
H5139 C5151 0.950 . S
C5140 H5132 0.950 . S
C5140 C5141 1.386 . S
C5140 C5142 1.391 . S
C5141 C5140 1.386 . S
C5141 C5145 1.393 . S
C5142 H5134 0.950 . S
C5142 C5140 1.391 . S
C5142 C5143 1.400 . S
C5143 C5142 1.400 . S
C5143 C5144 1.398 . S
C5143 C5149 1.491 . S
C5144 H5135 0.950 . S
C5144 C5143 1.398 . S
C5144 C5145 1.391 . S
C5145 H5133 0.950 . S
C5145 C5141 1.393 . S
C5145 C5144 1.391 . S
C5146 H5136 0.950 . S
C5146 C5147 1.386 . S
C5146 C5148 1.391 . S
C5147 C5146 1.386 . S
C5147 C5151 1.393 . S
C5148 H5137 0.950 . S
C5148 C5146 1.391 . S
C5148 C5149 1.400 . S
C5149 C5143 1.491 . S
C5149 C5148 1.400 . S
C5149 C5150 1.398 . S
C5150 H5138 0.950 . S
C5150 C5149 1.398 . S
C5150 C5151 1.391 . S
C5151 H5139 0.950 . S
C5151 C5147 1.393 . S
C5151 C5150 1.391 . S
H5152 C5160 0.950 . S
H5153 C5165 0.950 . S
H5154 C5162 0.950 . S
H5155 C5164 0.950 . S
H5156 C5166 0.950 . S
H5157 C5168 0.950 . S
H5158 C5170 0.950 . S
H5159 C5171 0.950 . S
C5160 H5152 0.950 . S
C5160 C5161 1.386 . S
C5160 C5162 1.391 . S
C5161 C5160 1.386 . S
C5161 C5165 1.393 . S
C5162 H5154 0.950 . S
C5162 C5160 1.391 . S
C5162 C5163 1.400 . S
C5163 C5162 1.400 . S
C5163 C5164 1.398 . S
C5163 C5169 1.491 . S
C5164 H5155 0.950 . S
C5164 C5163 1.398 . S
C5164 C5165 1.391 . S
C5165 H5153 0.950 . S
C5165 C5161 1.393 . S
C5165 C5164 1.391 . S
C5166 H5156 0.950 . S
C5166 C5167 1.386 . S
C5166 C5168 1.391 . S
C5167 C5166 1.386 . S
C5167 C5171 1.393 . S
C5168 H5157 0.950 . S
C5168 C5166 1.391 . S
C5168 C5169 1.400 . S
C5169 C5163 1.491 . S
C5169 C5168 1.400 . S
C5169 C5170 1.398 . S
C5170 H5158 0.950 . S
C5170 C5169 1.398 . S
C5170 C5171 1.391 . S
C5171 H5159 0.950 . S
C5171 C5167 1.393 . S
C5171 C5170 1.391 . S
H5172 C5180 0.950 . S
H5173 C5185 0.950 . S
H5174 C5182 0.950 . S
H5175 C5184 0.950 . S
H5176 C5186 0.950 . S
H5177 C5188 0.950 . S
H5178 C5190 0.950 . S
H5179 C5191 0.950 . S
C5180 H5172 0.950 . S
C5180 C5181 1.386 . S
C5180 C5182 1.391 . S
C5181 C5180 1.386 . S
C5181 C5185 1.393 . S
C5182 H5174 0.950 . S
C5182 C5180 1.391 . S
C5182 C5183 1.400 . S
C5183 C5182 1.400 . S
C5183 C5184 1.398 . S
C5183 C5189 1.491 . S
C5184 H5175 0.950 . S
C5184 C5183 1.398 . S
C5184 C5185 1.391 . S
C5185 H5173 0.950 . S
C5185 C5181 1.393 . S
C5185 C5184 1.391 . S
C5186 H5176 0.950 . S
C5186 C5187 1.386 . S
C5186 C5188 1.391 . S
C5187 C5186 1.386 . S
C5187 C5191 1.393 . S
C5188 H5177 0.950 . S
C5188 C5186 1.391 . S
C5188 C5189 1.400 . S
C5189 C5183 1.491 . S
C5189 C5188 1.400 . S
C5189 C5190 1.398 . S
C5190 H5178 0.950 . S
C5190 C5189 1.398 . S
C5190 C5191 1.391 . S
C5191 H5179 0.950 . S
C5191 C5187 1.393 . S
C5191 C5190 1.391 . S
H5192 C5200 0.950 . S
H5193 C5205 0.950 . S
H5194 C5202 0.950 . S
H5195 C5204 0.950 . S
H5196 C5206 0.950 . S
H5197 C5208 0.950 . S
H5198 C5210 0.950 . S
H5199 C5211 0.950 . S
C5200 H5192 0.950 . S
C5200 C5201 1.386 . S
C5200 C5202 1.391 . S
C5201 C5200 1.386 . S
C5201 C5205 1.393 . S
C5202 H5194 0.950 . S
C5202 C5200 1.391 . S
C5202 C5203 1.400 . S
C5203 C5202 1.400 . S
C5203 C5204 1.398 . S
C5203 C5209 1.491 . S
C5204 H5195 0.950 . S
C5204 C5203 1.398 . S
C5204 C5205 1.391 . S
C5205 H5193 0.950 . S
C5205 C5201 1.393 . S
C5205 C5204 1.391 . S
C5206 H5196 0.950 . S
C5206 C5207 1.386 . S
C5206 C5208 1.391 . S
C5207 C5206 1.386 . S
C5207 C5211 1.393 . S
C5208 H5197 0.950 . S
C5208 C5206 1.391 . S
C5208 C5209 1.400 . S
C5209 C5203 1.491 . S
C5209 C5208 1.400 . S
C5209 C5210 1.398 . S
C5210 H5198 0.950 . S
C5210 C5209 1.398 . S
C5210 C5211 1.391 . S
C5211 H5199 0.950 . S
C5211 C5207 1.393 . S
C5211 C5210 1.391 . S
H5212 C5220 0.950 . S
H5213 C5225 0.950 . S
H5214 C5222 0.950 . S
H5215 C5224 0.950 . S
H5216 C5226 0.950 . S
H5217 C5228 0.950 . S
H5218 C5230 0.950 . S
H5219 C5231 0.950 . S
C5220 H5212 0.950 . S
C5220 C5221 1.386 . S
C5220 C5222 1.391 . S
C5221 C5220 1.386 . S
C5221 C5225 1.393 . S
C5222 H5214 0.950 . S
C5222 C5220 1.391 . S
C5222 C5223 1.400 . S
C5223 C5222 1.400 . S
C5223 C5224 1.398 . S
C5223 C5229 1.491 . S
C5224 H5215 0.950 . S
C5224 C5223 1.398 . S
C5224 C5225 1.391 . S
C5225 H5213 0.950 . S
C5225 C5221 1.393 . S
C5225 C5224 1.391 . S
C5226 H5216 0.950 . S
C5226 C5227 1.386 . S
C5226 C5228 1.391 . S
C5227 C5226 1.386 . S
C5227 C5231 1.393 . S
C5228 H5217 0.950 . S
C5228 C5226 1.391 . S
C5228 C5229 1.400 . S
C5229 C5223 1.491 . S
C5229 C5228 1.400 . S
C5229 C5230 1.398 . S
C5230 H5218 0.950 . S
C5230 C5229 1.398 . S
C5230 C5231 1.391 . S
C5231 H5219 0.950 . S
C5231 C5227 1.393 . S
C5231 C5230 1.391 . S
H5232 C5240 0.950 . S
H5233 C5245 0.950 . S
H5234 C5242 0.950 . S
H5235 C5244 0.950 . S
H5236 C5246 0.950 . S
H5237 C5248 0.950 . S
H5238 C5250 0.950 . S
H5239 C5251 0.950 . S
C5240 H5232 0.950 . S
C5240 C5241 1.386 . S
C5240 C5242 1.391 . S
C5241 C5240 1.386 . S
C5241 C5245 1.393 . S
C5242 H5234 0.950 . S
C5242 C5240 1.391 . S
C5242 C5243 1.400 . S
C5243 C5242 1.400 . S
C5243 C5244 1.398 . S
C5243 C5249 1.491 . S
C5244 H5235 0.950 . S
C5244 C5243 1.398 . S
C5244 C5245 1.391 . S
C5245 H5233 0.950 . S
C5245 C5241 1.393 . S
C5245 C5244 1.391 . S
C5246 H5236 0.950 . S
C5246 C5247 1.386 . S
C5246 C5248 1.391 . S
C5247 C5246 1.386 . S
C5247 C5251 1.393 . S
C5248 H5237 0.950 . S
C5248 C5246 1.391 . S
C5248 C5249 1.400 . S
C5249 C5243 1.491 . S
C5249 C5248 1.400 . S
C5249 C5250 1.398 . S
C5250 H5238 0.950 . S
C5250 C5249 1.398 . S
C5250 C5251 1.391 . S
C5251 H5239 0.950 . S
C5251 C5247 1.393 . S
C5251 C5250 1.391 . S
H5252 C5260 0.950 . S
H5253 C5265 0.950 . S
H5254 C5262 0.950 . S
H5255 C5264 0.950 . S
H5256 C5266 0.950 . S
H5257 C5268 0.950 . S
H5258 C5270 0.950 . S
H5259 C5271 0.950 . S
C5260 H5252 0.950 . S
C5260 C5261 1.386 . S
C5260 C5262 1.391 . S
C5261 C5260 1.386 . S
C5261 C5265 1.393 . S
C5262 H5254 0.950 . S
C5262 C5260 1.391 . S
C5262 C5263 1.400 . S
C5263 C5262 1.400 . S
C5263 C5264 1.398 . S
C5263 C5269 1.491 . S
C5264 H5255 0.950 . S
C5264 C5263 1.398 . S
C5264 C5265 1.391 . S
C5265 H5253 0.950 . S
C5265 C5261 1.393 . S
C5265 C5264 1.391 . S
C5266 H5256 0.950 . S
C5266 C5267 1.386 . S
C5266 C5268 1.391 . S
C5267 C5266 1.386 . S
C5267 C5271 1.393 . S
C5268 H5257 0.950 . S
C5268 C5266 1.391 . S
C5268 C5269 1.400 . S
C5269 C5263 1.491 . S
C5269 C5268 1.400 . S
C5269 C5270 1.398 . S
C5270 H5258 0.950 . S
C5270 C5269 1.398 . S
C5270 C5271 1.391 . S
C5271 H5259 0.950 . S
C5271 C5267 1.393 . S
C5271 C5270 1.391 . S
H5272 C5280 0.950 . S
H5273 C5285 0.950 . S
H5274 C5282 0.950 . S
H5275 C5284 0.950 . S
H5276 C5286 0.950 . S
H5277 C5288 0.950 . S
H5278 C5290 0.950 . S
H5279 C5291 0.950 . S
C5280 H5272 0.950 . S
C5280 C5281 1.386 . S
C5280 C5282 1.391 . S
C5281 C5280 1.386 . S
C5281 C5285 1.393 . S
C5282 H5274 0.950 . S
C5282 C5280 1.391 . S
C5282 C5283 1.400 . S
C5283 C5282 1.400 . S
C5283 C5284 1.398 . S
C5283 C5289 1.491 . S
C5284 H5275 0.950 . S
C5284 C5283 1.398 . S
C5284 C5285 1.391 . S
C5285 H5273 0.950 . S
C5285 C5281 1.393 . S
C5285 C5284 1.391 . S
C5286 H5276 0.950 . S
C5286 C5287 1.386 . S
C5286 C5288 1.391 . S
C5287 C5286 1.386 . S
C5287 C5291 1.393 . S
C5288 H5277 0.950 . S
C5288 C5286 1.391 . S
C5288 C5289 1.400 . S
C5289 C5283 1.491 . S
C5289 C5288 1.400 . S
C5289 C5290 1.398 . S
C5290 H5278 0.950 . S
C5290 C5289 1.398 . S
C5290 C5291 1.391 . S
C5291 H5279 0.950 . S
C5291 C5287 1.393 . S
C5291 C5290 1.391 . S
H5292 C5300 0.950 . S
H5293 C5305 0.950 . S
H5294 C5302 0.950 . S
H5295 C5304 0.950 . S
H5296 C5306 0.950 . S
H5297 C5308 0.950 . S
H5298 C5310 0.950 . S
H5299 C5311 0.950 . S
C5300 H5292 0.950 . S
C5300 C5301 1.386 . S
C5300 C5302 1.391 . S
C5301 C5300 1.386 . S
C5301 C5305 1.393 . S
C5302 H5294 0.950 . S
C5302 C5300 1.391 . S
C5302 C5303 1.400 . S
C5303 C5302 1.400 . S
C5303 C5304 1.398 . S
C5303 C5309 1.491 . S
C5304 H5295 0.950 . S
C5304 C5303 1.398 . S
C5304 C5305 1.391 . S
C5305 H5293 0.950 . S
C5305 C5301 1.393 . S
C5305 C5304 1.391 . S
C5306 H5296 0.950 . S
C5306 C5307 1.386 . S
C5306 C5308 1.391 . S
C5307 C5306 1.386 . S
C5307 C5311 1.393 . S
C5308 H5297 0.950 . S
C5308 C5306 1.391 . S
C5308 C5309 1.400 . S
C5309 C5303 1.491 . S
C5309 C5308 1.400 . S
C5309 C5310 1.398 . S
C5310 H5298 0.950 . S
C5310 C5309 1.398 . S
C5310 C5311 1.391 . S
C5311 H5299 0.950 . S
C5311 C5307 1.393 . S
C5311 C5310 1.391 . S
H5312 C5320 0.950 . S
H5313 C5325 0.950 . S
H5314 C5322 0.950 . S
H5315 C5324 0.950 . S
H5316 C5326 0.950 . S
H5317 C5328 0.950 . S
H5318 C5330 0.950 . S
H5319 C5331 0.950 . S
C5320 H5312 0.950 . S
C5320 C5321 1.386 . S
C5320 C5322 1.391 . S
C5321 C5320 1.386 . S
C5321 C5325 1.393 . S
C5322 H5314 0.950 . S
C5322 C5320 1.391 . S
C5322 C5323 1.400 . S
C5323 C5322 1.400 . S
C5323 C5324 1.398 . S
C5323 C5329 1.491 . S
C5324 H5315 0.950 . S
C5324 C5323 1.398 . S
C5324 C5325 1.391 . S
C5325 H5313 0.950 . S
C5325 C5321 1.393 . S
C5325 C5324 1.391 . S
C5326 H5316 0.950 . S
C5326 C5327 1.386 . S
C5326 C5328 1.391 . S
C5327 C5326 1.386 . S
C5327 C5331 1.393 . S
C5328 H5317 0.950 . S
C5328 C5326 1.391 . S
C5328 C5329 1.400 . S
C5329 C5323 1.491 . S
C5329 C5328 1.400 . S
C5329 C5330 1.398 . S
C5330 H5318 0.950 . S
C5330 C5329 1.398 . S
C5330 C5331 1.391 . S
C5331 H5319 0.950 . S
C5331 C5327 1.393 . S
C5331 C5330 1.391 . S
H5332 C5340 0.950 . S
H5333 C5345 0.950 . S
H5334 C5342 0.950 . S
H5335 C5344 0.950 . S
H5336 C5346 0.950 . S
H5337 C5348 0.950 . S
H5338 C5350 0.950 . S
H5339 C5351 0.950 . S
C5340 H5332 0.950 . S
C5340 C5341 1.386 . S
C5340 C5342 1.391 . S
C5341 C5340 1.386 . S
C5341 C5345 1.393 . S
C5342 H5334 0.950 . S
C5342 C5340 1.391 . S
C5342 C5343 1.400 . S
C5343 C5342 1.400 . S
C5343 C5344 1.398 . S
C5343 C5349 1.491 . S
C5344 H5335 0.950 . S
C5344 C5343 1.398 . S
C5344 C5345 1.391 . S
C5345 H5333 0.950 . S
C5345 C5341 1.393 . S
C5345 C5344 1.391 . S
C5346 H5336 0.950 . S
C5346 C5347 1.386 . S
C5346 C5348 1.391 . S
C5347 C5346 1.386 . S
C5347 C5351 1.393 . S
C5348 H5337 0.950 . S
C5348 C5346 1.391 . S
C5348 C5349 1.400 . S
C5349 C5343 1.491 . S
C5349 C5348 1.400 . S
C5349 C5350 1.398 . S
C5350 H5338 0.950 . S
C5350 C5349 1.398 . S
C5350 C5351 1.391 . S
C5351 H5339 0.950 . S
C5351 C5347 1.393 . S
C5351 C5350 1.391 . S
H5352 C5360 0.950 . S
H5353 C5365 0.950 . S
H5354 C5362 0.950 . S
H5355 C5364 0.950 . S
H5356 C5366 0.950 . S
H5357 C5368 0.950 . S
H5358 C5370 0.950 . S
H5359 C5371 0.950 . S
C5360 H5352 0.950 . S
C5360 C5361 1.386 . S
C5360 C5362 1.391 . S
C5361 C5360 1.386 . S
C5361 C5365 1.393 . S
C5362 H5354 0.950 . S
C5362 C5360 1.391 . S
C5362 C5363 1.400 . S
C5363 C5362 1.400 . S
C5363 C5364 1.398 . S
C5363 C5369 1.491 . S
C5364 H5355 0.950 . S
C5364 C5363 1.398 . S
C5364 C5365 1.391 . S
C5365 H5353 0.950 . S
C5365 C5361 1.393 . S
C5365 C5364 1.391 . S
C5366 H5356 0.950 . S
C5366 C5367 1.386 . S
C5366 C5368 1.391 . S
C5367 C5366 1.386 . S
C5367 C5371 1.393 . S
C5368 H5357 0.950 . S
C5368 C5366 1.391 . S
C5368 C5369 1.400 . S
C5369 C5363 1.491 . S
C5369 C5368 1.400 . S
C5369 C5370 1.398 . S
C5370 H5358 0.950 . S
C5370 C5369 1.398 . S
C5370 C5371 1.391 . S
C5371 H5359 0.950 . S
C5371 C5367 1.393 . S
C5371 C5370 1.391 . S
H5372 C5380 0.950 . S
H5373 C5385 0.950 . S
H5374 C5382 0.950 . S
H5375 C5384 0.950 . S
H5376 C5386 0.950 . S
H5377 C5388 0.950 . S
H5378 C5390 0.950 . S
H5379 C5391 0.950 . S
C5380 H5372 0.950 . S
C5380 C5381 1.386 . S
C5380 C5382 1.391 . S
C5381 C5380 1.386 . S
C5381 C5385 1.393 . S
C5382 H5374 0.950 . S
C5382 C5380 1.391 . S
C5382 C5383 1.400 . S
C5383 C5382 1.400 . S
C5383 C5384 1.398 . S
C5383 C5389 1.491 . S
C5384 H5375 0.950 . S
C5384 C5383 1.398 . S
C5384 C5385 1.391 . S
C5385 H5373 0.950 . S
C5385 C5381 1.393 . S
C5385 C5384 1.391 . S
C5386 H5376 0.950 . S
C5386 C5387 1.386 . S
C5386 C5388 1.391 . S
C5387 C5386 1.386 . S
C5387 C5391 1.393 . S
C5388 H5377 0.950 . S
C5388 C5386 1.391 . S
C5388 C5389 1.400 . S
C5389 C5383 1.491 . S
C5389 C5388 1.400 . S
C5389 C5390 1.398 . S
C5390 H5378 0.950 . S
C5390 C5389 1.398 . S
C5390 C5391 1.391 . S
C5391 H5379 0.950 . S
C5391 C5387 1.393 . S
C5391 C5390 1.391 . S
H5392 C5400 0.950 . S
H5393 C5405 0.950 . S
H5394 C5402 0.950 . S
H5395 C5404 0.950 . S
H5396 C5406 0.950 . S
H5397 C5408 0.950 . S
H5398 C5410 0.950 . S
H5399 C5411 0.950 . S
C5400 H5392 0.950 . S
C5400 C5401 1.386 . S
C5400 C5402 1.391 . S
C5401 C5400 1.386 . S
C5401 C5405 1.393 . S
C5402 H5394 0.950 . S
C5402 C5400 1.391 . S
C5402 C5403 1.400 . S
C5403 C5402 1.400 . S
C5403 C5404 1.398 . S
C5403 C5409 1.491 . S
C5404 H5395 0.950 . S
C5404 C5403 1.398 . S
C5404 C5405 1.391 . S
C5405 H5393 0.950 . S
C5405 C5401 1.393 . S
C5405 C5404 1.391 . S
C5406 H5396 0.950 . S
C5406 C5407 1.386 . S
C5406 C5408 1.391 . S
C5407 C5406 1.386 . S
C5407 C5411 1.393 . S
C5408 H5397 0.950 . S
C5408 C5406 1.391 . S
C5408 C5409 1.400 . S
C5409 C5403 1.491 . S
C5409 C5408 1.400 . S
C5409 C5410 1.398 . S
C5410 H5398 0.950 . S
C5410 C5409 1.398 . S
C5410 C5411 1.391 . S
C5411 H5399 0.950 . S
C5411 C5407 1.393 . S
C5411 C5410 1.391 . S
H5412 C5420 0.950 . S
H5413 C5425 0.950 . S
H5414 C5422 0.950 . S
H5415 C5424 0.950 . S
H5416 C5426 0.950 . S
H5417 C5428 0.950 . S
H5418 C5430 0.950 . S
H5419 C5431 0.950 . S
C5420 H5412 0.950 . S
C5420 C5421 1.386 . S
C5420 C5422 1.391 . S
C5421 C5420 1.386 . S
C5421 C5425 1.393 . S
C5422 H5414 0.950 . S
C5422 C5420 1.391 . S
C5422 C5423 1.400 . S
C5423 C5422 1.400 . S
C5423 C5424 1.398 . S
C5423 C5429 1.491 . S
C5424 H5415 0.950 . S
C5424 C5423 1.398 . S
C5424 C5425 1.391 . S
C5425 H5413 0.950 . S
C5425 C5421 1.393 . S
C5425 C5424 1.391 . S
C5426 H5416 0.950 . S
C5426 C5427 1.386 . S
C5426 C5428 1.391 . S
C5427 C5426 1.386 . S
C5427 C5431 1.393 . S
C5428 H5417 0.950 . S
C5428 C5426 1.391 . S
C5428 C5429 1.400 . S
C5429 C5423 1.491 . S
C5429 C5428 1.400 . S
C5429 C5430 1.398 . S
C5430 H5418 0.950 . S
C5430 C5429 1.398 . S
C5430 C5431 1.391 . S
C5431 H5419 0.950 . S
C5431 C5427 1.393 . S
C5431 C5430 1.391 . S
H5432 C5440 0.950 . S
H5433 C5445 0.950 . S
H5434 C5442 0.950 . S
H5435 C5444 0.950 . S
H5436 C5446 0.950 . S
H5437 C5448 0.950 . S
H5438 C5450 0.950 . S
H5439 C5451 0.950 . S
C5440 H5432 0.950 . S
C5440 C5441 1.386 . S
C5440 C5442 1.391 . S
C5441 C5440 1.386 . S
C5441 C5445 1.393 . S
C5442 H5434 0.950 . S
C5442 C5440 1.391 . S
C5442 C5443 1.400 . S
C5443 C5442 1.400 . S
C5443 C5444 1.398 . S
C5443 C5449 1.491 . S
C5444 H5435 0.950 . S
C5444 C5443 1.398 . S
C5444 C5445 1.391 . S
C5445 H5433 0.950 . S
C5445 C5441 1.393 . S
C5445 C5444 1.391 . S
C5446 H5436 0.950 . S
C5446 C5447 1.386 . S
C5446 C5448 1.391 . S
C5447 C5446 1.386 . S
C5447 C5451 1.393 . S
C5448 H5437 0.950 . S
C5448 C5446 1.391 . S
C5448 C5449 1.400 . S
C5449 C5443 1.491 . S
C5449 C5448 1.400 . S
C5449 C5450 1.398 . S
C5450 H5438 0.950 . S
C5450 C5449 1.398 . S
C5450 C5451 1.391 . S
C5451 H5439 0.950 . S
C5451 C5447 1.393 . S
C5451 C5450 1.391 . S
H5452 C5460 0.950 . S
H5453 C5465 0.950 . S
H5454 C5462 0.950 . S
H5455 C5464 0.950 . S
H5456 C5466 0.950 . S
H5457 C5468 0.950 . S
H5458 C5470 0.950 . S
H5459 C5471 0.950 . S
C5460 H5452 0.950 . S
C5460 C5461 1.386 . S
C5460 C5462 1.391 . S
C5461 C5460 1.386 . S
C5461 C5465 1.393 . S
C5462 H5454 0.950 . S
C5462 C5460 1.391 . S
C5462 C5463 1.400 . S
C5463 C5462 1.400 . S
C5463 C5464 1.398 . S
C5463 C5469 1.491 . S
C5464 H5455 0.950 . S
C5464 C5463 1.398 . S
C5464 C5465 1.391 . S
C5465 H5453 0.950 . S
C5465 C5461 1.393 . S
C5465 C5464 1.391 . S
C5466 H5456 0.950 . S
C5466 C5467 1.386 . S
C5466 C5468 1.391 . S
C5467 C5466 1.386 . S
C5467 C5471 1.393 . S
C5468 H5457 0.950 . S
C5468 C5466 1.391 . S
C5468 C5469 1.400 . S
C5469 C5463 1.491 . S
C5469 C5468 1.400 . S
C5469 C5470 1.398 . S
C5470 H5458 0.950 . S
C5470 C5469 1.398 . S
C5470 C5471 1.391 . S
C5471 H5459 0.950 . S
C5471 C5467 1.393 . S
C5471 C5470 1.391 . S
H5472 C5480 0.950 . S
H5473 C5485 0.950 . S
H5474 C5482 0.950 . S
H5475 C5484 0.950 . S
H5476 C5486 0.950 . S
H5477 C5488 0.950 . S
H5478 C5490 0.950 . S
H5479 C5491 0.950 . S
C5480 H5472 0.950 . S
C5480 C5481 1.386 . S
C5480 C5482 1.391 . S
C5481 C5480 1.386 . S
C5481 C5485 1.393 . S
C5482 H5474 0.950 . S
C5482 C5480 1.391 . S
C5482 C5483 1.400 . S
C5483 C5482 1.400 . S
C5483 C5484 1.398 . S
C5483 C5489 1.491 . S
C5484 H5475 0.950 . S
C5484 C5483 1.398 . S
C5484 C5485 1.391 . S
C5485 H5473 0.950 . S
C5485 C5481 1.393 . S
C5485 C5484 1.391 . S
C5486 H5476 0.950 . S
C5486 C5487 1.386 . S
C5486 C5488 1.391 . S
C5487 C5486 1.386 . S
C5487 C5491 1.393 . S
C5488 H5477 0.950 . S
C5488 C5486 1.391 . S
C5488 C5489 1.400 . S
C5489 C5483 1.491 . S
C5489 C5488 1.400 . S
C5489 C5490 1.398 . S
C5490 H5478 0.950 . S
C5490 C5489 1.398 . S
C5490 C5491 1.391 . S
C5491 H5479 0.950 . S
C5491 C5487 1.393 . S
C5491 C5490 1.391 . S
H5492 C5500 0.950 . S
H5493 C5505 0.950 . S
H5494 C5502 0.950 . S
H5495 C5504 0.950 . S
H5496 C5506 0.950 . S
H5497 C5508 0.950 . S
H5498 C5510 0.950 . S
H5499 C5511 0.950 . S
C5500 H5492 0.950 . S
C5500 C5501 1.386 . S
C5500 C5502 1.391 . S
C5501 C5500 1.386 . S
C5501 C5505 1.393 . S
C5502 H5494 0.950 . S
C5502 C5500 1.391 . S
C5502 C5503 1.400 . S
C5503 C5502 1.400 . S
C5503 C5504 1.398 . S
C5503 C5509 1.491 . S
C5504 H5495 0.950 . S
C5504 C5503 1.398 . S
C5504 C5505 1.391 . S
C5505 H5493 0.950 . S
C5505 C5501 1.393 . S
C5505 C5504 1.391 . S
C5506 H5496 0.950 . S
C5506 C5507 1.386 . S
C5506 C5508 1.391 . S
C5507 C5506 1.386 . S
C5507 C5511 1.393 . S
C5508 H5497 0.950 . S
C5508 C5506 1.391 . S
C5508 C5509 1.400 . S
C5509 C5503 1.491 . S
C5509 C5508 1.400 . S
C5509 C5510 1.398 . S
C5510 H5498 0.950 . S
C5510 C5509 1.398 . S
C5510 C5511 1.391 . S
C5511 H5499 0.950 . S
C5511 C5507 1.393 . S
C5511 C5510 1.391 . S
H5512 C5520 0.950 . S
H5513 C5525 0.950 . S
H5514 C5522 0.950 . S
H5515 C5524 0.950 . S
H5516 C5526 0.950 . S
H5517 C5528 0.950 . S
H5518 C5530 0.950 . S
H5519 C5531 0.950 . S
C5520 H5512 0.950 . S
C5520 C5521 1.386 . S
C5520 C5522 1.391 . S
C5521 C5520 1.386 . S
C5521 C5525 1.393 . S
C5522 H5514 0.950 . S
C5522 C5520 1.391 . S
C5522 C5523 1.400 . S
C5523 C5522 1.400 . S
C5523 C5524 1.398 . S
C5523 C5529 1.491 . S
C5524 H5515 0.950 . S
C5524 C5523 1.398 . S
C5524 C5525 1.391 . S
C5525 H5513 0.950 . S
C5525 C5521 1.393 . S
C5525 C5524 1.391 . S
C5526 H5516 0.950 . S
C5526 C5527 1.386 . S
C5526 C5528 1.391 . S
C5527 C5526 1.386 . S
C5527 C5531 1.393 . S
C5528 H5517 0.950 . S
C5528 C5526 1.391 . S
C5528 C5529 1.400 . S
C5529 C5523 1.491 . S
C5529 C5528 1.400 . S
C5529 C5530 1.398 . S
C5530 H5518 0.950 . S
C5530 C5529 1.398 . S
C5530 C5531 1.391 . S
C5531 H5519 0.950 . S
C5531 C5527 1.393 . S
C5531 C5530 1.391 . S
H5532 C5540 0.950 . S
H5533 C5545 0.950 . S
H5534 C5542 0.950 . S
H5535 C5544 0.950 . S
H5536 C5546 0.950 . S
H5537 C5548 0.950 . S
H5538 C5550 0.950 . S
H5539 C5551 0.950 . S
C5540 H5532 0.950 . S
C5540 C5541 1.386 . S
C5540 C5542 1.391 . S
C5541 C5540 1.386 . S
C5541 C5545 1.393 . S
C5542 H5534 0.950 . S
C5542 C5540 1.391 . S
C5542 C5543 1.400 . S
C5543 C5542 1.400 . S
C5543 C5544 1.398 . S
C5543 C5549 1.491 . S
C5544 H5535 0.950 . S
C5544 C5543 1.398 . S
C5544 C5545 1.391 . S
C5545 H5533 0.950 . S
C5545 C5541 1.393 . S
C5545 C5544 1.391 . S
C5546 H5536 0.950 . S
C5546 C5547 1.386 . S
C5546 C5548 1.391 . S
C5547 C5546 1.386 . S
C5547 C5551 1.393 . S
C5548 H5537 0.950 . S
C5548 C5546 1.391 . S
C5548 C5549 1.400 . S
C5549 C5543 1.491 . S
C5549 C5548 1.400 . S
C5549 C5550 1.398 . S
C5550 H5538 0.950 . S
C5550 C5549 1.398 . S
C5550 C5551 1.391 . S
C5551 H5539 0.950 . S
C5551 C5547 1.393 . S
C5551 C5550 1.391 . S
H5552 C5560 0.950 . S
H5553 C5565 0.950 . S
H5554 C5562 0.950 . S
H5555 C5564 0.950 . S
H5556 C5566 0.950 . S
H5557 C5568 0.950 . S
H5558 C5570 0.950 . S
H5559 C5571 0.950 . S
C5560 H5552 0.950 . S
C5560 C5561 1.386 . S
C5560 C5562 1.391 . S
C5561 C5560 1.386 . S
C5561 C5565 1.393 . S
C5562 H5554 0.950 . S
C5562 C5560 1.391 . S
C5562 C5563 1.400 . S
C5563 C5562 1.400 . S
C5563 C5564 1.398 . S
C5563 C5569 1.491 . S
C5564 H5555 0.950 . S
C5564 C5563 1.398 . S
C5564 C5565 1.391 . S
C5565 H5553 0.950 . S
C5565 C5561 1.393 . S
C5565 C5564 1.391 . S
C5566 H5556 0.950 . S
C5566 C5567 1.386 . S
C5566 C5568 1.391 . S
C5567 C5566 1.386 . S
C5567 C5571 1.393 . S
C5568 H5557 0.950 . S
C5568 C5566 1.391 . S
C5568 C5569 1.400 . S
C5569 C5563 1.491 . S
C5569 C5568 1.400 . S
C5569 C5570 1.398 . S
C5570 H5558 0.950 . S
C5570 C5569 1.398 . S
C5570 C5571 1.391 . S
C5571 H5559 0.950 . S
C5571 C5567 1.393 . S
C5571 C5570 1.391 . S
H5572 C5580 0.950 . S
H5573 C5585 0.950 . S
H5574 C5582 0.950 . S
H5575 C5584 0.950 . S
H5576 C5586 0.950 . S
H5577 C5588 0.950 . S
H5578 C5590 0.950 . S
H5579 C5591 0.950 . S
C5580 H5572 0.950 . S
C5580 C5581 1.386 . S
C5580 C5582 1.391 . S
C5581 C5580 1.386 . S
C5581 C5585 1.393 . S
C5582 H5574 0.950 . S
C5582 C5580 1.391 . S
C5582 C5583 1.400 . S
C5583 C5582 1.400 . S
C5583 C5584 1.398 . S
C5583 C5589 1.491 . S
C5584 H5575 0.950 . S
C5584 C5583 1.398 . S
C5584 C5585 1.391 . S
C5585 H5573 0.950 . S
C5585 C5581 1.393 . S
C5585 C5584 1.391 . S
C5586 H5576 0.950 . S
C5586 C5587 1.386 . S
C5586 C5588 1.391 . S
C5587 C5586 1.386 . S
C5587 C5591 1.393 . S
C5588 H5577 0.950 . S
C5588 C5586 1.391 . S
C5588 C5589 1.400 . S
C5589 C5583 1.491 . S
C5589 C5588 1.400 . S
C5589 C5590 1.398 . S
C5590 H5578 0.950 . S
C5590 C5589 1.398 . S
C5590 C5591 1.391 . S
C5591 H5579 0.950 . S
C5591 C5587 1.393 . S
C5591 C5590 1.391 . S
H5592 C5600 0.950 . S
H5593 C5605 0.950 . S
H5594 C5602 0.950 . S
H5595 C5604 0.950 . S
H5596 C5606 0.950 . S
H5597 C5608 0.950 . S
H5598 C5610 0.950 . S
H5599 C5611 0.950 . S
C5600 H5592 0.950 . S
C5600 C5601 1.386 . S
C5600 C5602 1.391 . S
C5601 C5600 1.386 . S
C5601 C5605 1.393 . S
C5602 H5594 0.950 . S
C5602 C5600 1.391 . S
C5602 C5603 1.400 . S
C5603 C5602 1.400 . S
C5603 C5604 1.398 . S
C5603 C5609 1.491 . S
C5604 H5595 0.950 . S
C5604 C5603 1.398 . S
C5604 C5605 1.391 . S
C5605 H5593 0.950 . S
C5605 C5601 1.393 . S
C5605 C5604 1.391 . S
C5606 H5596 0.950 . S
C5606 C5607 1.386 . S
C5606 C5608 1.391 . S
C5607 C5606 1.386 . S
C5607 C5611 1.393 . S
C5608 H5597 0.950 . S
C5608 C5606 1.391 . S
C5608 C5609 1.400 . S
C5609 C5603 1.491 . S
C5609 C5608 1.400 . S
C5609 C5610 1.398 . S
C5610 H5598 0.950 . S
C5610 C5609 1.398 . S
C5610 C5611 1.391 . S
C5611 H5599 0.950 . S
C5611 C5607 1.393 . S
C5611 C5610 1.391 . S
H5612 C5620 0.950 . S
H5613 C5625 0.950 . S
H5614 C5622 0.950 . S
H5615 C5624 0.950 . S
H5616 C5626 0.950 . S
H5617 C5628 0.950 . S
H5618 C5630 0.950 . S
H5619 C5631 0.950 . S
C5620 H5612 0.950 . S
C5620 C5621 1.386 . S
C5620 C5622 1.391 . S
C5621 C5620 1.386 . S
C5621 C5625 1.393 . S
C5622 H5614 0.950 . S
C5622 C5620 1.391 . S
C5622 C5623 1.400 . S
C5623 C5622 1.400 . S
C5623 C5624 1.398 . S
C5623 C5629 1.491 . S
C5624 H5615 0.950 . S
C5624 C5623 1.398 . S
C5624 C5625 1.391 . S
C5625 H5613 0.950 . S
C5625 C5621 1.393 . S
C5625 C5624 1.391 . S
C5626 H5616 0.950 . S
C5626 C5627 1.386 . S
C5626 C5628 1.391 . S
C5627 C5626 1.386 . S
C5627 C5631 1.393 . S
C5628 H5617 0.950 . S
C5628 C5626 1.391 . S
C5628 C5629 1.400 . S
C5629 C5623 1.491 . S
C5629 C5628 1.400 . S
C5629 C5630 1.398 . S
C5630 H5618 0.950 . S
C5630 C5629 1.398 . S
C5630 C5631 1.391 . S
C5631 H5619 0.950 . S
C5631 C5627 1.393 . S
C5631 C5630 1.391 . S
H5632 C5640 0.950 . S
H5633 C5645 0.950 . S
H5634 C5642 0.950 . S
H5635 C5644 0.950 . S
H5636 C5646 0.950 . S
H5637 C5648 0.950 . S
H5638 C5650 0.950 . S
H5639 C5651 0.950 . S
C5640 H5632 0.950 . S
C5640 C5641 1.386 . S
C5640 C5642 1.391 . S
C5641 C5640 1.386 . S
C5641 C5645 1.393 . S
C5642 H5634 0.950 . S
C5642 C5640 1.391 . S
C5642 C5643 1.400 . S
C5643 C5642 1.400 . S
C5643 C5644 1.398 . S
C5643 C5649 1.491 . S
C5644 H5635 0.950 . S
C5644 C5643 1.398 . S
C5644 C5645 1.391 . S
C5645 H5633 0.950 . S
C5645 C5641 1.393 . S
C5645 C5644 1.391 . S
C5646 H5636 0.950 . S
C5646 C5647 1.386 . S
C5646 C5648 1.391 . S
C5647 C5646 1.386 . S
C5647 C5651 1.393 . S
C5648 H5637 0.950 . S
C5648 C5646 1.391 . S
C5648 C5649 1.400 . S
C5649 C5643 1.491 . S
C5649 C5648 1.400 . S
C5649 C5650 1.398 . S
C5650 H5638 0.950 . S
C5650 C5649 1.398 . S
C5650 C5651 1.391 . S
C5651 H5639 0.950 . S
C5651 C5647 1.393 . S
C5651 C5650 1.391 . S
H5652 C5660 0.950 . S
H5653 C5665 0.950 . S
H5654 C5662 0.950 . S
H5655 C5664 0.950 . S
H5656 C5666 0.950 . S
H5657 C5668 0.950 . S
H5658 C5670 0.950 . S
H5659 C5671 0.950 . S
C5660 H5652 0.950 . S
C5660 C5661 1.386 . S
C5660 C5662 1.391 . S
C5661 C5660 1.386 . S
C5661 C5665 1.393 . S
C5662 H5654 0.950 . S
C5662 C5660 1.391 . S
C5662 C5663 1.400 . S
C5663 C5662 1.400 . S
C5663 C5664 1.398 . S
C5663 C5669 1.491 . S
C5664 H5655 0.950 . S
C5664 C5663 1.398 . S
C5664 C5665 1.391 . S
C5665 H5653 0.950 . S
C5665 C5661 1.393 . S
C5665 C5664 1.391 . S
C5666 H5656 0.950 . S
C5666 C5667 1.386 . S
C5666 C5668 1.391 . S
C5667 C5666 1.386 . S
C5667 C5671 1.393 . S
C5668 H5657 0.950 . S
C5668 C5666 1.391 . S
C5668 C5669 1.400 . S
C5669 C5663 1.491 . S
C5669 C5668 1.400 . S
C5669 C5670 1.398 . S
C5670 H5658 0.950 . S
C5670 C5669 1.398 . S
C5670 C5671 1.391 . S
C5671 H5659 0.950 . S
C5671 C5667 1.393 . S
C5671 C5670 1.391 . S
H5672 C5680 0.950 . S
H5673 C5685 0.950 . S
H5674 C5682 0.950 . S
H5675 C5684 0.950 . S
H5676 C5686 0.950 . S
H5677 C5688 0.950 . S
H5678 C5690 0.950 . S
H5679 C5691 0.950 . S
C5680 H5672 0.950 . S
C5680 C5681 1.386 . S
C5680 C5682 1.391 . S
C5681 C5680 1.386 . S
C5681 C5685 1.393 . S
C5682 H5674 0.950 . S
C5682 C5680 1.391 . S
C5682 C5683 1.400 . S
C5683 C5682 1.400 . S
C5683 C5684 1.398 . S
C5683 C5689 1.491 . S
C5684 H5675 0.950 . S
C5684 C5683 1.398 . S
C5684 C5685 1.391 . S
C5685 H5673 0.950 . S
C5685 C5681 1.393 . S
C5685 C5684 1.391 . S
C5686 H5676 0.950 . S
C5686 C5687 1.386 . S
C5686 C5688 1.391 . S
C5687 C5686 1.386 . S
C5687 C5691 1.393 . S
C5688 H5677 0.950 . S
C5688 C5686 1.391 . S
C5688 C5689 1.400 . S
C5689 C5683 1.491 . S
C5689 C5688 1.400 . S
C5689 C5690 1.398 . S
C5690 H5678 0.950 . S
C5690 C5689 1.398 . S
C5690 C5691 1.391 . S
C5691 H5679 0.950 . S
C5691 C5687 1.393 . S
C5691 C5690 1.391 . S
H5692 C5700 0.950 . S
H5693 C5705 0.950 . S
H5694 C5702 0.950 . S
H5695 C5704 0.950 . S
H5696 C5706 0.950 . S
H5697 C5708 0.950 . S
H5698 C5710 0.950 . S
H5699 C5711 0.950 . S
C5700 H5692 0.950 . S
C5700 C5701 1.386 . S
C5700 C5702 1.391 . S
C5701 C5700 1.386 . S
C5701 C5705 1.393 . S
C5702 H5694 0.950 . S
C5702 C5700 1.391 . S
C5702 C5703 1.400 . S
C5703 C5702 1.400 . S
C5703 C5704 1.398 . S
C5703 C5709 1.491 . S
C5704 H5695 0.950 . S
C5704 C5703 1.398 . S
C5704 C5705 1.391 . S
C5705 H5693 0.950 . S
C5705 C5701 1.393 . S
C5705 C5704 1.391 . S
C5706 H5696 0.950 . S
C5706 C5707 1.386 . S
C5706 C5708 1.391 . S
C5707 C5706 1.386 . S
C5707 C5711 1.393 . S
C5708 H5697 0.950 . S
C5708 C5706 1.391 . S
C5708 C5709 1.400 . S
C5709 C5703 1.491 . S
C5709 C5708 1.400 . S
C5709 C5710 1.398 . S
C5710 H5698 0.950 . S
C5710 C5709 1.398 . S
C5710 C5711 1.391 . S
C5711 H5699 0.950 . S
C5711 C5707 1.393 . S
C5711 C5710 1.391 . S
H5712 C5720 0.950 . S
H5713 C5725 0.950 . S
H5714 C5722 0.950 . S
H5715 C5724 0.950 . S
H5716 C5726 0.950 . S
H5717 C5728 0.950 . S
H5718 C5730 0.950 . S
H5719 C5731 0.950 . S
C5720 H5712 0.950 . S
C5720 C5721 1.386 . S
C5720 C5722 1.391 . S
C5721 C5720 1.386 . S
C5721 C5725 1.393 . S
C5722 H5714 0.950 . S
C5722 C5720 1.391 . S
C5722 C5723 1.400 . S
C5723 C5722 1.400 . S
C5723 C5724 1.398 . S
C5723 C5729 1.491 . S
C5724 H5715 0.950 . S
C5724 C5723 1.398 . S
C5724 C5725 1.391 . S
C5725 H5713 0.950 . S
C5725 C5721 1.393 . S
C5725 C5724 1.391 . S
C5726 H5716 0.950 . S
C5726 C5727 1.386 . S
C5726 C5728 1.391 . S
C5727 C5726 1.386 . S
C5727 C5731 1.393 . S
C5728 H5717 0.950 . S
C5728 C5726 1.391 . S
C5728 C5729 1.400 . S
C5729 C5723 1.491 . S
C5729 C5728 1.400 . S
C5729 C5730 1.398 . S
C5730 H5718 0.950 . S
C5730 C5729 1.398 . S
C5730 C5731 1.391 . S
C5731 H5719 0.950 . S
C5731 C5727 1.393 . S
C5731 C5730 1.391 . S
H5732 C5740 0.950 . S
H5733 C5745 0.950 . S
H5734 C5742 0.950 . S
H5735 C5744 0.950 . S
H5736 C5746 0.950 . S
H5737 C5748 0.950 . S
H5738 C5750 0.950 . S
H5739 C5751 0.950 . S
C5740 H5732 0.950 . S
C5740 C5741 1.386 . S
C5740 C5742 1.391 . S
C5741 C5740 1.386 . S
C5741 C5745 1.393 . S
C5742 H5734 0.950 . S
C5742 C5740 1.391 . S
C5742 C5743 1.400 . S
C5743 C5742 1.400 . S
C5743 C5744 1.398 . S
C5743 C5749 1.491 . S
C5744 H5735 0.950 . S
C5744 C5743 1.398 . S
C5744 C5745 1.391 . S
C5745 H5733 0.950 . S
C5745 C5741 1.393 . S
C5745 C5744 1.391 . S
C5746 H5736 0.950 . S
C5746 C5747 1.386 . S
C5746 C5748 1.391 . S
C5747 C5746 1.386 . S
C5747 C5751 1.393 . S
C5748 H5737 0.950 . S
C5748 C5746 1.391 . S
C5748 C5749 1.400 . S
C5749 C5743 1.491 . S
C5749 C5748 1.400 . S
C5749 C5750 1.398 . S
C5750 H5738 0.950 . S
C5750 C5749 1.398 . S
C5750 C5751 1.391 . S
C5751 H5739 0.950 . S
C5751 C5747 1.393 . S
C5751 C5750 1.391 . S
H5752 C5760 0.950 . S
H5753 C5765 0.950 . S
H5754 C5762 0.950 . S
H5755 C5764 0.950 . S
H5756 C5766 0.950 . S
H5757 C5768 0.950 . S
H5758 C5770 0.950 . S
H5759 C5771 0.950 . S
C5760 H5752 0.950 . S
C5760 C5761 1.386 . S
C5760 C5762 1.391 . S
C5761 C5760 1.386 . S
C5761 C5765 1.393 . S
C5762 H5754 0.950 . S
C5762 C5760 1.391 . S
C5762 C5763 1.400 . S
C5763 C5762 1.400 . S
C5763 C5764 1.398 . S
C5763 C5769 1.491 . S
C5764 H5755 0.950 . S
C5764 C5763 1.398 . S
C5764 C5765 1.391 . S
C5765 H5753 0.950 . S
C5765 C5761 1.393 . S
C5765 C5764 1.391 . S
C5766 H5756 0.950 . S
C5766 C5767 1.386 . S
C5766 C5768 1.391 . S
C5767 C5766 1.386 . S
C5767 C5771 1.393 . S
C5768 H5757 0.950 . S
C5768 C5766 1.391 . S
C5768 C5769 1.400 . S
C5769 C5763 1.491 . S
C5769 C5768 1.400 . S
C5769 C5770 1.398 . S
C5770 H5758 0.950 . S
C5770 C5769 1.398 . S
C5770 C5771 1.391 . S
C5771 H5759 0.950 . S
C5771 C5767 1.393 . S
C5771 C5770 1.391 . S
H5772 C5780 0.950 . S
H5773 C5785 0.950 . S
H5774 C5782 0.950 . S
H5775 C5784 0.950 . S
H5776 C5786 0.950 . S
H5777 C5788 0.950 . S
H5778 C5790 0.950 . S
H5779 C5791 0.950 . S
C5780 H5772 0.950 . S
C5780 C5781 1.386 . S
C5780 C5782 1.391 . S
C5781 C5780 1.386 . S
C5781 C5785 1.393 . S
C5782 H5774 0.950 . S
C5782 C5780 1.391 . S
C5782 C5783 1.400 . S
C5783 C5782 1.400 . S
C5783 C5784 1.398 . S
C5783 C5789 1.491 . S
C5784 H5775 0.950 . S
C5784 C5783 1.398 . S
C5784 C5785 1.391 . S
C5785 H5773 0.950 . S
C5785 C5781 1.393 . S
C5785 C5784 1.391 . S
C5786 H5776 0.950 . S
C5786 C5787 1.386 . S
C5786 C5788 1.391 . S
C5787 C5786 1.386 . S
C5787 C5791 1.393 . S
C5788 H5777 0.950 . S
C5788 C5786 1.391 . S
C5788 C5789 1.400 . S
C5789 C5783 1.491 . S
C5789 C5788 1.400 . S
C5789 C5790 1.398 . S
C5790 H5778 0.950 . S
C5790 C5789 1.398 . S
C5790 C5791 1.391 . S
C5791 H5779 0.950 . S
C5791 C5787 1.393 . S
C5791 C5790 1.391 . S
H5792 C5800 0.950 . S
H5793 C5805 0.950 . S
H5794 C5802 0.950 . S
H5795 C5804 0.950 . S
H5796 C5806 0.950 . S
H5797 C5808 0.950 . S
H5798 C5810 0.950 . S
H5799 C5811 0.950 . S
C5800 H5792 0.950 . S
C5800 C5801 1.386 . S
C5800 C5802 1.391 . S
C5801 C5800 1.386 . S
C5801 C5805 1.393 . S
C5802 H5794 0.950 . S
C5802 C5800 1.391 . S
C5802 C5803 1.400 . S
C5803 C5802 1.400 . S
C5803 C5804 1.398 . S
C5803 C5809 1.491 . S
C5804 H5795 0.950 . S
C5804 C5803 1.398 . S
C5804 C5805 1.391 . S
C5805 H5793 0.950 . S
C5805 C5801 1.393 . S
C5805 C5804 1.391 . S
C5806 H5796 0.950 . S
C5806 C5807 1.386 . S
C5806 C5808 1.391 . S
C5807 C5806 1.386 . S
C5807 C5811 1.393 . S
C5808 H5797 0.950 . S
C5808 C5806 1.391 . S
C5808 C5809 1.400 . S
C5809 C5803 1.491 . S
C5809 C5808 1.400 . S
C5809 C5810 1.398 . S
C5810 H5798 0.950 . S
C5810 C5809 1.398 . S
C5810 C5811 1.391 . S
C5811 H5799 0.950 . S
C5811 C5807 1.393 . S
C5811 C5810 1.391 . S
H5812 C5820 0.950 . S
H5813 C5825 0.950 . S
H5814 C5822 0.950 . S
H5815 C5824 0.950 . S
H5816 C5826 0.950 . S
H5817 C5828 0.950 . S
H5818 C5830 0.950 . S
H5819 C5831 0.950 . S
C5820 H5812 0.950 . S
C5820 C5821 1.386 . S
C5820 C5822 1.391 . S
C5821 C5820 1.386 . S
C5821 C5825 1.393 . S
C5822 H5814 0.950 . S
C5822 C5820 1.391 . S
C5822 C5823 1.400 . S
C5823 C5822 1.400 . S
C5823 C5824 1.398 . S
C5823 C5829 1.491 . S
C5824 H5815 0.950 . S
C5824 C5823 1.398 . S
C5824 C5825 1.391 . S
C5825 H5813 0.950 . S
C5825 C5821 1.393 . S
C5825 C5824 1.391 . S
C5826 H5816 0.950 . S
C5826 C5827 1.386 . S
C5826 C5828 1.391 . S
C5827 C5826 1.386 . S
C5827 C5831 1.393 . S
C5828 H5817 0.950 . S
C5828 C5826 1.391 . S
C5828 C5829 1.400 . S
C5829 C5823 1.491 . S
C5829 C5828 1.400 . S
C5829 C5830 1.398 . S
C5830 H5818 0.950 . S
C5830 C5829 1.398 . S
C5830 C5831 1.391 . S
C5831 H5819 0.950 . S
C5831 C5827 1.393 . S
C5831 C5830 1.391 . S
H5832 C5840 0.950 . S
H5833 C5845 0.950 . S
H5834 C5842 0.950 . S
H5835 C5844 0.950 . S
H5836 C5846 0.950 . S
H5837 C5848 0.950 . S
H5838 C5850 0.950 . S
H5839 C5851 0.950 . S
C5840 H5832 0.950 . S
C5840 C5841 1.386 . S
C5840 C5842 1.391 . S
C5841 C5840 1.386 . S
C5841 C5845 1.393 . S
C5842 H5834 0.950 . S
C5842 C5840 1.391 . S
C5842 C5843 1.400 . S
C5843 C5842 1.400 . S
C5843 C5844 1.398 . S
C5843 C5849 1.491 . S
C5844 H5835 0.950 . S
C5844 C5843 1.398 . S
C5844 C5845 1.391 . S
C5845 H5833 0.950 . S
C5845 C5841 1.393 . S
C5845 C5844 1.391 . S
C5846 H5836 0.950 . S
C5846 C5847 1.386 . S
C5846 C5848 1.391 . S
C5847 C5846 1.386 . S
C5847 C5851 1.393 . S
C5848 H5837 0.950 . S
C5848 C5846 1.391 . S
C5848 C5849 1.400 . S
C5849 C5843 1.491 . S
C5849 C5848 1.400 . S
C5849 C5850 1.398 . S
C5850 H5838 0.950 . S
C5850 C5849 1.398 . S
C5850 C5851 1.391 . S
C5851 H5839 0.950 . S
C5851 C5847 1.393 . S
C5851 C5850 1.391 . S
H5852 C5860 0.950 . S
H5853 C5865 0.950 . S
H5854 C5862 0.950 . S
H5855 C5864 0.950 . S
H5856 C5866 0.950 . S
H5857 C5868 0.950 . S
H5858 C5870 0.950 . S
H5859 C5871 0.950 . S
C5860 H5852 0.950 . S
C5860 C5861 1.386 . S
C5860 C5862 1.391 . S
C5861 C5860 1.386 . S
C5861 C5865 1.393 . S
C5862 H5854 0.950 . S
C5862 C5860 1.391 . S
C5862 C5863 1.400 . S
C5863 C5862 1.400 . S
C5863 C5864 1.398 . S
C5863 C5869 1.491 . S
C5864 H5855 0.950 . S
C5864 C5863 1.398 . S
C5864 C5865 1.391 . S
C5865 H5853 0.950 . S
C5865 C5861 1.393 . S
C5865 C5864 1.391 . S
C5866 H5856 0.950 . S
C5866 C5867 1.386 . S
C5866 C5868 1.391 . S
C5867 C5866 1.386 . S
C5867 C5871 1.393 . S
C5868 H5857 0.950 . S
C5868 C5866 1.391 . S
C5868 C5869 1.400 . S
C5869 C5863 1.491 . S
C5869 C5868 1.400 . S
C5869 C5870 1.398 . S
C5870 H5858 0.950 . S
C5870 C5869 1.398 . S
C5870 C5871 1.391 . S
C5871 H5859 0.950 . S
C5871 C5867 1.393 . S
C5871 C5870 1.391 . S
H5872 C5880 0.950 . S
H5873 C5885 0.950 . S
H5874 C5882 0.950 . S
H5875 C5884 0.950 . S
H5876 C5886 0.950 . S
H5877 C5888 0.950 . S
H5878 C5890 0.950 . S
H5879 C5891 0.950 . S
C5880 H5872 0.950 . S
C5880 C5881 1.386 . S
C5880 C5882 1.391 . S
C5881 C5880 1.386 . S
C5881 C5885 1.393 . S
C5882 H5874 0.950 . S
C5882 C5880 1.391 . S
C5882 C5883 1.400 . S
C5883 C5882 1.400 . S
C5883 C5884 1.398 . S
C5883 C5889 1.491 . S
C5884 H5875 0.950 . S
C5884 C5883 1.398 . S
C5884 C5885 1.391 . S
C5885 H5873 0.950 . S
C5885 C5881 1.393 . S
C5885 C5884 1.391 . S
C5886 H5876 0.950 . S
C5886 C5887 1.386 . S
C5886 C5888 1.391 . S
C5887 C5886 1.386 . S
C5887 C5891 1.393 . S
C5888 H5877 0.950 . S
C5888 C5886 1.391 . S
C5888 C5889 1.400 . S
C5889 C5883 1.491 . S
C5889 C5888 1.400 . S
C5889 C5890 1.398 . S
C5890 H5878 0.950 . S
C5890 C5889 1.398 . S
C5890 C5891 1.391 . S
C5891 H5879 0.950 . S
C5891 C5887 1.393 . S
C5891 C5890 1.391 . S
H5892 C5900 0.950 . S
H5893 C5905 0.950 . S
H5894 C5902 0.950 . S
H5895 C5904 0.950 . S
H5896 C5906 0.950 . S
H5897 C5908 0.950 . S
H5898 C5910 0.950 . S
H5899 C5911 0.950 . S
C5900 H5892 0.950 . S
C5900 C5901 1.386 . S
C5900 C5902 1.391 . S
C5901 C5900 1.386 . S
C5901 C5905 1.393 . S
C5902 H5894 0.950 . S
C5902 C5900 1.391 . S
C5902 C5903 1.400 . S
C5903 C5902 1.400 . S
C5903 C5904 1.398 . S
C5903 C5909 1.491 . S
C5904 H5895 0.950 . S
C5904 C5903 1.398 . S
C5904 C5905 1.391 . S
C5905 H5893 0.950 . S
C5905 C5901 1.393 . S
C5905 C5904 1.391 . S
C5906 H5896 0.950 . S
C5906 C5907 1.386 . S
C5906 C5908 1.391 . S
C5907 C5906 1.386 . S
C5907 C5911 1.393 . S
C5908 H5897 0.950 . S
C5908 C5906 1.391 . S
C5908 C5909 1.400 . S
C5909 C5903 1.491 . S
C5909 C5908 1.400 . S
C5909 C5910 1.398 . S
C5910 H5898 0.950 . S
C5910 C5909 1.398 . S
C5910 C5911 1.391 . S
C5911 H5899 0.950 . S
C5911 C5907 1.393 . S
C5911 C5910 1.391 . S
H5912 C5920 0.950 . S
H5913 C5925 0.950 . S
H5914 C5922 0.950 . S
H5915 C5924 0.950 . S
H5916 C5926 0.950 . S
H5917 C5928 0.950 . S
H5918 C5930 0.950 . S
H5919 C5931 0.950 . S
C5920 H5912 0.950 . S
C5920 C5921 1.386 . S
C5920 C5922 1.391 . S
C5921 C5920 1.386 . S
C5921 C5925 1.393 . S
C5922 H5914 0.950 . S
C5922 C5920 1.391 . S
C5922 C5923 1.400 . S
C5923 C5922 1.400 . S
C5923 C5924 1.398 . S
C5923 C5929 1.491 . S
C5924 H5915 0.950 . S
C5924 C5923 1.398 . S
C5924 C5925 1.391 . S
C5925 H5913 0.950 . S
C5925 C5921 1.393 . S
C5925 C5924 1.391 . S
C5926 H5916 0.950 . S
C5926 C5927 1.386 . S
C5926 C5928 1.391 . S
C5927 C5926 1.386 . S
C5927 C5931 1.393 . S
C5928 H5917 0.950 . S
C5928 C5926 1.391 . S
C5928 C5929 1.400 . S
C5929 C5923 1.491 . S
C5929 C5928 1.400 . S
C5929 C5930 1.398 . S
C5930 H5918 0.950 . S
C5930 C5929 1.398 . S
C5930 C5931 1.391 . S
C5931 H5919 0.950 . S
C5931 C5927 1.393 . S
C5931 C5930 1.391 . S
H5932 C5940 0.950 . S
H5933 C5945 0.950 . S
H5934 C5942 0.950 . S
H5935 C5944 0.950 . S
H5936 C5946 0.950 . S
H5937 C5948 0.950 . S
H5938 C5950 0.950 . S
H5939 C5951 0.950 . S
C5940 H5932 0.950 . S
C5940 C5941 1.386 . S
C5940 C5942 1.391 . S
C5941 C5940 1.386 . S
C5941 C5945 1.393 . S
C5942 H5934 0.950 . S
C5942 C5940 1.391 . S
C5942 C5943 1.400 . S
C5943 C5942 1.400 . S
C5943 C5944 1.398 . S
C5943 C5949 1.491 . S
C5944 H5935 0.950 . S
C5944 C5943 1.398 . S
C5944 C5945 1.391 . S
C5945 H5933 0.950 . S
C5945 C5941 1.393 . S
C5945 C5944 1.391 . S
C5946 H5936 0.950 . S
C5946 C5947 1.386 . S
C5946 C5948 1.391 . S
C5947 C5946 1.386 . S
C5947 C5951 1.393 . S
C5948 H5937 0.950 . S
C5948 C5946 1.391 . S
C5948 C5949 1.400 . S
C5949 C5943 1.491 . S
C5949 C5948 1.400 . S
C5949 C5950 1.398 . S
C5950 H5938 0.950 . S
C5950 C5949 1.398 . S
C5950 C5951 1.391 . S
C5951 H5939 0.950 . S
C5951 C5947 1.393 . S
C5951 C5950 1.391 . S
H5952 C5960 0.950 . S
H5953 C5965 0.950 . S
H5954 C5962 0.950 . S
H5955 C5964 0.950 . S
H5956 C5966 0.950 . S
H5957 C5968 0.950 . S
H5958 C5970 0.950 . S
H5959 C5971 0.950 . S
C5960 H5952 0.950 . S
C5960 C5961 1.386 . S
C5960 C5962 1.391 . S
C5961 C5960 1.386 . S
C5961 C5965 1.393 . S
C5962 H5954 0.950 . S
C5962 C5960 1.391 . S
C5962 C5963 1.400 . S
C5963 C5962 1.400 . S
C5963 C5964 1.398 . S
C5963 C5969 1.491 . S
C5964 H5955 0.950 . S
C5964 C5963 1.398 . S
C5964 C5965 1.391 . S
C5965 H5953 0.950 . S
C5965 C5961 1.393 . S
C5965 C5964 1.391 . S
C5966 H5956 0.950 . S
C5966 C5967 1.386 . S
C5966 C5968 1.391 . S
C5967 C5966 1.386 . S
C5967 C5971 1.393 . S
C5968 H5957 0.950 . S
C5968 C5966 1.391 . S
C5968 C5969 1.400 . S
C5969 C5963 1.491 . S
C5969 C5968 1.400 . S
C5969 C5970 1.398 . S
C5970 H5958 0.950 . S
C5970 C5969 1.398 . S
C5970 C5971 1.391 . S
C5971 H5959 0.950 . S
C5971 C5967 1.393 . S
C5971 C5970 1.391 . S
H5972 C5980 0.950 . S
H5973 C5985 0.950 . S
H5974 C5982 0.950 . S
H5975 C5984 0.950 . S
H5976 C5986 0.950 . S
H5977 C5988 0.950 . S
H5978 C5990 0.950 . S
H5979 C5991 0.950 . S
C5980 H5972 0.950 . S
C5980 C5981 1.386 . S
C5980 C5982 1.391 . S
C5981 C5980 1.386 . S
C5981 C5985 1.393 . S
C5982 H5974 0.950 . S
C5982 C5980 1.391 . S
C5982 C5983 1.400 . S
C5983 C5982 1.400 . S
C5983 C5984 1.398 . S
C5983 C5989 1.491 . S
C5984 H5975 0.950 . S
C5984 C5983 1.398 . S
C5984 C5985 1.391 . S
C5985 H5973 0.950 . S
C5985 C5981 1.393 . S
C5985 C5984 1.391 . S
C5986 H5976 0.950 . S
C5986 C5987 1.386 . S
C5986 C5988 1.391 . S
C5987 C5986 1.386 . S
C5987 C5991 1.393 . S
C5988 H5977 0.950 . S
C5988 C5986 1.391 . S
C5988 C5989 1.400 . S
C5989 C5983 1.491 . S
C5989 C5988 1.400 . S
C5989 C5990 1.398 . S
C5990 H5978 0.950 . S
C5990 C5989 1.398 . S
C5990 C5991 1.391 . S
C5991 H5979 0.950 . S
C5991 C5987 1.393 . S
C5991 C5990 1.391 . S
H5992 C6000 0.950 . S
H5993 C6005 0.950 . S
H5994 C6002 0.950 . S
H5995 C6004 0.950 . S
H5996 C6006 0.950 . S
H5997 C6008 0.950 . S
H5998 C6010 0.950 . S
H5999 C6011 0.950 . S
C6000 H5992 0.950 . S
C6000 C6001 1.386 . S
C6000 C6002 1.391 . S
C6001 C6000 1.386 . S
C6001 C6005 1.393 . S
C6002 H5994 0.950 . S
C6002 C6000 1.391 . S
C6002 C6003 1.400 . S
C6003 C6002 1.400 . S
C6003 C6004 1.398 . S
C6003 C6009 1.491 . S
C6004 H5995 0.950 . S
C6004 C6003 1.398 . S
C6004 C6005 1.391 . S
C6005 H5993 0.950 . S
C6005 C6001 1.393 . S
C6005 C6004 1.391 . S
C6006 H5996 0.950 . S
C6006 C6007 1.386 . S
C6006 C6008 1.391 . S
C6007 C6006 1.386 . S
C6007 C6011 1.393 . S
C6008 H5997 0.950 . S
C6008 C6006 1.391 . S
C6008 C6009 1.400 . S
C6009 C6003 1.491 . S
C6009 C6008 1.400 . S
C6009 C6010 1.398 . S
C6010 H5998 0.950 . S
C6010 C6009 1.398 . S
C6010 C6011 1.391 . S
C6011 H5999 0.950 . S
C6011 C6007 1.393 . S
C6011 C6010 1.391 . S
H6012 C6020 0.950 . S
H6013 C6025 0.950 . S
H6014 C6022 0.950 . S
H6015 C6024 0.950 . S
H6016 C6026 0.950 . S
H6017 C6028 0.950 . S
H6018 C6030 0.950 . S
H6019 C6031 0.950 . S
C6020 H6012 0.950 . S
C6020 C6021 1.386 . S
C6020 C6022 1.391 . S
C6021 C6020 1.386 . S
C6021 C6025 1.393 . S
C6022 H6014 0.950 . S
C6022 C6020 1.391 . S
C6022 C6023 1.400 . S
C6023 C6022 1.400 . S
C6023 C6024 1.398 . S
C6023 C6029 1.491 . S
C6024 H6015 0.950 . S
C6024 C6023 1.398 . S
C6024 C6025 1.391 . S
C6025 H6013 0.950 . S
C6025 C6021 1.393 . S
C6025 C6024 1.391 . S
C6026 H6016 0.950 . S
C6026 C6027 1.386 . S
C6026 C6028 1.391 . S
C6027 C6026 1.386 . S
C6027 C6031 1.393 . S
C6028 H6017 0.950 . S
C6028 C6026 1.391 . S
C6028 C6029 1.400 . S
C6029 C6023 1.491 . S
C6029 C6028 1.400 . S
C6029 C6030 1.398 . S
C6030 H6018 0.950 . S
C6030 C6029 1.398 . S
C6030 C6031 1.391 . S
C6031 H6019 0.950 . S
C6031 C6027 1.393 . S
C6031 C6030 1.391 . S
H6032 C6040 0.950 . S
H6033 C6045 0.950 . S
H6034 C6042 0.950 . S
H6035 C6044 0.950 . S
H6036 C6046 0.950 . S
H6037 C6048 0.950 . S
H6038 C6050 0.950 . S
H6039 C6051 0.950 . S
C6040 H6032 0.950 . S
C6040 C6041 1.386 . S
C6040 C6042 1.391 . S
C6041 C6040 1.386 . S
C6041 C6045 1.393 . S
C6042 H6034 0.950 . S
C6042 C6040 1.391 . S
C6042 C6043 1.400 . S
C6043 C6042 1.400 . S
C6043 C6044 1.398 . S
C6043 C6049 1.491 . S
C6044 H6035 0.950 . S
C6044 C6043 1.398 . S
C6044 C6045 1.391 . S
C6045 H6033 0.950 . S
C6045 C6041 1.393 . S
C6045 C6044 1.391 . S
C6046 H6036 0.950 . S
C6046 C6047 1.386 . S
C6046 C6048 1.391 . S
C6047 C6046 1.386 . S
C6047 C6051 1.393 . S
C6048 H6037 0.950 . S
C6048 C6046 1.391 . S
C6048 C6049 1.400 . S
C6049 C6043 1.491 . S
C6049 C6048 1.400 . S
C6049 C6050 1.398 . S
C6050 H6038 0.950 . S
C6050 C6049 1.398 . S
C6050 C6051 1.391 . S
C6051 H6039 0.950 . S
C6051 C6047 1.393 . S
C6051 C6050 1.391 . S
H6052 C6060 0.950 . S
H6053 C6065 0.950 . S
H6054 C6062 0.950 . S
H6055 C6064 0.950 . S
H6056 C6066 0.950 . S
H6057 C6068 0.950 . S
H6058 C6070 0.950 . S
H6059 C6071 0.950 . S
C6060 H6052 0.950 . S
C6060 C6061 1.386 . S
C6060 C6062 1.391 . S
C6061 C6060 1.386 . S
C6061 C6065 1.393 . S
C6062 H6054 0.950 . S
C6062 C6060 1.391 . S
C6062 C6063 1.400 . S
C6063 C6062 1.400 . S
C6063 C6064 1.398 . S
C6063 C6069 1.491 . S
C6064 H6055 0.950 . S
C6064 C6063 1.398 . S
C6064 C6065 1.391 . S
C6065 H6053 0.950 . S
C6065 C6061 1.393 . S
C6065 C6064 1.391 . S
C6066 H6056 0.950 . S
C6066 C6067 1.386 . S
C6066 C6068 1.391 . S
C6067 C6066 1.386 . S
C6067 C6071 1.393 . S
C6068 H6057 0.950 . S
C6068 C6066 1.391 . S
C6068 C6069 1.400 . S
C6069 C6063 1.491 . S
C6069 C6068 1.400 . S
C6069 C6070 1.398 . S
C6070 H6058 0.950 . S
C6070 C6069 1.398 . S
C6070 C6071 1.391 . S
C6071 H6059 0.950 . S
C6071 C6067 1.393 . S
C6071 C6070 1.391 . S
H6072 C6080 0.950 . S
H6073 C6085 0.950 . S
H6074 C6082 0.950 . S
H6075 C6084 0.950 . S
H6076 C6086 0.950 . S
H6077 C6088 0.950 . S
H6078 C6090 0.950 . S
H6079 C6091 0.950 . S
C6080 H6072 0.950 . S
C6080 C6081 1.386 . S
C6080 C6082 1.391 . S
C6081 C6080 1.386 . S
C6081 C6085 1.393 . S
C6082 H6074 0.950 . S
C6082 C6080 1.391 . S
C6082 C6083 1.400 . S
C6083 C6082 1.400 . S
C6083 C6084 1.398 . S
C6083 C6089 1.491 . S
C6084 H6075 0.950 . S
C6084 C6083 1.398 . S
C6084 C6085 1.391 . S
C6085 H6073 0.950 . S
C6085 C6081 1.393 . S
C6085 C6084 1.391 . S
C6086 H6076 0.950 . S
C6086 C6087 1.386 . S
C6086 C6088 1.391 . S
C6087 C6086 1.386 . S
C6087 C6091 1.393 . S
C6088 H6077 0.950 . S
C6088 C6086 1.391 . S
C6088 C6089 1.400 . S
C6089 C6083 1.491 . S
C6089 C6088 1.400 . S
C6089 C6090 1.398 . S
C6090 H6078 0.950 . S
C6090 C6089 1.398 . S
C6090 C6091 1.391 . S
C6091 H6079 0.950 . S
C6091 C6087 1.393 . S
C6091 C6090 1.391 . S
H6092 C6100 0.950 . S
H6093 C6105 0.950 . S
H6094 C6102 0.950 . S
H6095 C6104 0.950 . S
H6096 C6106 0.950 . S
H6097 C6108 0.950 . S
H6098 C6110 0.950 . S
H6099 C6111 0.950 . S
C6100 H6092 0.950 . S
C6100 C6101 1.386 . S
C6100 C6102 1.391 . S
C6101 C6100 1.386 . S
C6101 C6105 1.393 . S
C6102 H6094 0.950 . S
C6102 C6100 1.391 . S
C6102 C6103 1.400 . S
C6103 C6102 1.400 . S
C6103 C6104 1.398 . S
C6103 C6109 1.491 . S
C6104 H6095 0.950 . S
C6104 C6103 1.398 . S
C6104 C6105 1.391 . S
C6105 H6093 0.950 . S
C6105 C6101 1.393 . S
C6105 C6104 1.391 . S
C6106 H6096 0.950 . S
C6106 C6107 1.386 . S
C6106 C6108 1.391 . S
C6107 C6106 1.386 . S
C6107 C6111 1.393 . S
C6108 H6097 0.950 . S
C6108 C6106 1.391 . S
C6108 C6109 1.400 . S
C6109 C6103 1.491 . S
C6109 C6108 1.400 . S
C6109 C6110 1.398 . S
C6110 H6098 0.950 . S
C6110 C6109 1.398 . S
C6110 C6111 1.391 . S
C6111 H6099 0.950 . S
C6111 C6107 1.393 . S
C6111 C6110 1.391 . S
H6112 C6120 0.950 . S
H6113 C6125 0.950 . S
H6114 C6122 0.950 . S
H6115 C6124 0.950 . S
H6116 C6126 0.950 . S
H6117 C6128 0.950 . S
H6118 C6130 0.950 . S
H6119 C6131 0.950 . S
C6120 H6112 0.950 . S
C6120 C6121 1.386 . S
C6120 C6122 1.391 . S
C6121 C6120 1.386 . S
C6121 C6125 1.393 . S
C6122 H6114 0.950 . S
C6122 C6120 1.391 . S
C6122 C6123 1.400 . S
C6123 C6122 1.400 . S
C6123 C6124 1.398 . S
C6123 C6129 1.491 . S
C6124 H6115 0.950 . S
C6124 C6123 1.398 . S
C6124 C6125 1.391 . S
C6125 H6113 0.950 . S
C6125 C6121 1.393 . S
C6125 C6124 1.391 . S
C6126 H6116 0.950 . S
C6126 C6127 1.386 . S
C6126 C6128 1.391 . S
C6127 C6126 1.386 . S
C6127 C6131 1.393 . S
C6128 H6117 0.950 . S
C6128 C6126 1.391 . S
C6128 C6129 1.400 . S
C6129 C6123 1.491 . S
C6129 C6128 1.400 . S
C6129 C6130 1.398 . S
C6130 H6118 0.950 . S
C6130 C6129 1.398 . S
C6130 C6131 1.391 . S
C6131 H6119 0.950 . S
C6131 C6127 1.393 . S
C6131 C6130 1.391 . S
H6132 C6140 0.950 . S
H6133 C6145 0.950 . S
H6134 C6142 0.950 . S
H6135 C6144 0.950 . S
H6136 C6146 0.950 . S
H6137 C6148 0.950 . S
H6138 C6150 0.950 . S
H6139 C6151 0.950 . S
C6140 H6132 0.950 . S
C6140 C6141 1.386 . S
C6140 C6142 1.391 . S
C6141 C6140 1.386 . S
C6141 C6145 1.393 . S
C6142 H6134 0.950 . S
C6142 C6140 1.391 . S
C6142 C6143 1.400 . S
C6143 C6142 1.400 . S
C6143 C6144 1.398 . S
C6143 C6149 1.491 . S
C6144 H6135 0.950 . S
C6144 C6143 1.398 . S
C6144 C6145 1.391 . S
C6145 H6133 0.950 . S
C6145 C6141 1.393 . S
C6145 C6144 1.391 . S
C6146 H6136 0.950 . S
C6146 C6147 1.386 . S
C6146 C6148 1.391 . S
C6147 C6146 1.386 . S
C6147 C6151 1.393 . S
C6148 H6137 0.950 . S
C6148 C6146 1.391 . S
C6148 C6149 1.400 . S
C6149 C6143 1.491 . S
C6149 C6148 1.400 . S
C6149 C6150 1.398 . S
C6150 H6138 0.950 . S
C6150 C6149 1.398 . S
C6150 C6151 1.391 . S
C6151 H6139 0.950 . S
C6151 C6147 1.393 . S
C6151 C6150 1.391 . S
H6152 C6160 0.950 . S
H6153 C6165 0.950 . S
H6154 C6162 0.950 . S
H6155 C6164 0.950 . S
H6156 C6166 0.950 . S
H6157 C6168 0.950 . S
H6158 C6170 0.950 . S
H6159 C6171 0.950 . S
C6160 H6152 0.950 . S
C6160 C6161 1.386 . S
C6160 C6162 1.391 . S
C6161 C6160 1.386 . S
C6161 C6165 1.393 . S
C6162 H6154 0.950 . S
C6162 C6160 1.391 . S
C6162 C6163 1.400 . S
C6163 C6162 1.400 . S
C6163 C6164 1.398 . S
C6163 C6169 1.491 . S
C6164 H6155 0.950 . S
C6164 C6163 1.398 . S
C6164 C6165 1.391 . S
C6165 H6153 0.950 . S
C6165 C6161 1.393 . S
C6165 C6164 1.391 . S
C6166 H6156 0.950 . S
C6166 C6167 1.386 . S
C6166 C6168 1.391 . S
C6167 C6166 1.386 . S
C6167 C6171 1.393 . S
C6168 H6157 0.950 . S
C6168 C6166 1.391 . S
C6168 C6169 1.400 . S
C6169 C6163 1.491 . S
C6169 C6168 1.400 . S
C6169 C6170 1.398 . S
C6170 H6158 0.950 . S
C6170 C6169 1.398 . S
C6170 C6171 1.391 . S
C6171 H6159 0.950 . S
C6171 C6167 1.393 . S
C6171 C6170 1.391 . S
H6172 C6180 0.950 . S
H6173 C6185 0.950 . S
H6174 C6182 0.950 . S
H6175 C6184 0.950 . S
H6176 C6186 0.950 . S
H6177 C6188 0.950 . S
H6178 C6190 0.950 . S
H6179 C6191 0.950 . S
C6180 H6172 0.950 . S
C6180 C6181 1.386 . S
C6180 C6182 1.391 . S
C6181 C6180 1.386 . S
C6181 C6185 1.393 . S
C6182 H6174 0.950 . S
C6182 C6180 1.391 . S
C6182 C6183 1.400 . S
C6183 C6182 1.400 . S
C6183 C6184 1.398 . S
C6183 C6189 1.491 . S
C6184 H6175 0.950 . S
C6184 C6183 1.398 . S
C6184 C6185 1.391 . S
C6185 H6173 0.950 . S
C6185 C6181 1.393 . S
C6185 C6184 1.391 . S
C6186 H6176 0.950 . S
C6186 C6187 1.386 . S
C6186 C6188 1.391 . S
C6187 C6186 1.386 . S
C6187 C6191 1.393 . S
C6188 H6177 0.950 . S
C6188 C6186 1.391 . S
C6188 C6189 1.400 . S
C6189 C6183 1.491 . S
C6189 C6188 1.400 . S
C6189 C6190 1.398 . S
C6190 H6178 0.950 . S
C6190 C6189 1.398 . S
C6190 C6191 1.391 . S
C6191 H6179 0.950 . S
C6191 C6187 1.393 . S
C6191 C6190 1.391 . S
H6192 C6200 0.950 . S
H6193 C6205 0.950 . S
H6194 C6202 0.950 . S
H6195 C6204 0.950 . S
H6196 C6206 0.950 . S
H6197 C6208 0.950 . S
H6198 C6210 0.950 . S
H6199 C6211 0.950 . S
C6200 H6192 0.950 . S
C6200 C6201 1.386 . S
C6200 C6202 1.391 . S
C6201 C6200 1.386 . S
C6201 C6205 1.393 . S
C6202 H6194 0.950 . S
C6202 C6200 1.391 . S
C6202 C6203 1.400 . S
C6203 C6202 1.400 . S
C6203 C6204 1.398 . S
C6203 C6209 1.491 . S
C6204 H6195 0.950 . S
C6204 C6203 1.398 . S
C6204 C6205 1.391 . S
C6205 H6193 0.950 . S
C6205 C6201 1.393 . S
C6205 C6204 1.391 . S
C6206 H6196 0.950 . S
C6206 C6207 1.386 . S
C6206 C6208 1.391 . S
C6207 C6206 1.386 . S
C6207 C6211 1.393 . S
C6208 H6197 0.950 . S
C6208 C6206 1.391 . S
C6208 C6209 1.400 . S
C6209 C6203 1.491 . S
C6209 C6208 1.400 . S
C6209 C6210 1.398 . S
C6210 H6198 0.950 . S
C6210 C6209 1.398 . S
C6210 C6211 1.391 . S
C6211 H6199 0.950 . S
C6211 C6207 1.393 . S
C6211 C6210 1.391 . S
H6212 C6220 0.950 . S
H6213 C6225 0.950 . S
H6214 C6222 0.950 . S
H6215 C6224 0.950 . S
H6216 C6226 0.950 . S
H6217 C6228 0.950 . S
H6218 C6230 0.950 . S
H6219 C6231 0.950 . S
C6220 H6212 0.950 . S
C6220 C6221 1.386 . S
C6220 C6222 1.391 . S
C6221 C6220 1.386 . S
C6221 C6225 1.393 . S
C6222 H6214 0.950 . S
C6222 C6220 1.391 . S
C6222 C6223 1.400 . S
C6223 C6222 1.400 . S
C6223 C6224 1.398 . S
C6223 C6229 1.491 . S
C6224 H6215 0.950 . S
C6224 C6223 1.398 . S
C6224 C6225 1.391 . S
C6225 H6213 0.950 . S
C6225 C6221 1.393 . S
C6225 C6224 1.391 . S
C6226 H6216 0.950 . S
C6226 C6227 1.386 . S
C6226 C6228 1.391 . S
C6227 C6226 1.386 . S
C6227 C6231 1.393 . S
C6228 H6217 0.950 . S
C6228 C6226 1.391 . S
C6228 C6229 1.400 . S
C6229 C6223 1.491 . S
C6229 C6228 1.400 . S
C6229 C6230 1.398 . S
C6230 H6218 0.950 . S
C6230 C6229 1.398 . S
C6230 C6231 1.391 . S
C6231 H6219 0.950 . S
C6231 C6227 1.393 . S
C6231 C6230 1.391 . S
H6232 C6240 0.950 . S
H6233 C6245 0.950 . S
H6234 C6242 0.950 . S
H6235 C6244 0.950 . S
H6236 C6246 0.950 . S
H6237 C6248 0.950 . S
H6238 C6250 0.950 . S
H6239 C6251 0.950 . S
C6240 H6232 0.950 . S
C6240 C6241 1.386 . S
C6240 C6242 1.391 . S
C6241 C6240 1.386 . S
C6241 C6245 1.393 . S
C6242 H6234 0.950 . S
C6242 C6240 1.391 . S
C6242 C6243 1.400 . S
C6243 C6242 1.400 . S
C6243 C6244 1.398 . S
C6243 C6249 1.491 . S
C6244 H6235 0.950 . S
C6244 C6243 1.398 . S
C6244 C6245 1.391 . S
C6245 H6233 0.950 . S
C6245 C6241 1.393 . S
C6245 C6244 1.391 . S
C6246 H6236 0.950 . S
C6246 C6247 1.386 . S
C6246 C6248 1.391 . S
C6247 C6246 1.386 . S
C6247 C6251 1.393 . S
C6248 H6237 0.950 . S
C6248 C6246 1.391 . S
C6248 C6249 1.400 . S
C6249 C6243 1.491 . S
C6249 C6248 1.400 . S
C6249 C6250 1.398 . S
C6250 H6238 0.950 . S
C6250 C6249 1.398 . S
C6250 C6251 1.391 . S
C6251 H6239 0.950 . S
C6251 C6247 1.393 . S
C6251 C6250 1.391 . S
H6252 C6260 0.950 . S
H6253 C6265 0.950 . S
H6254 C6262 0.950 . S
H6255 C6264 0.950 . S
H6256 C6266 0.950 . S
H6257 C6268 0.950 . S
H6258 C6270 0.950 . S
H6259 C6271 0.950 . S
C6260 H6252 0.950 . S
C6260 C6261 1.386 . S
C6260 C6262 1.391 . S
C6261 C6260 1.386 . S
C6261 C6265 1.393 . S
C6262 H6254 0.950 . S
C6262 C6260 1.391 . S
C6262 C6263 1.400 . S
C6263 C6262 1.400 . S
C6263 C6264 1.398 . S
C6263 C6269 1.491 . S
C6264 H6255 0.950 . S
C6264 C6263 1.398 . S
C6264 C6265 1.391 . S
C6265 H6253 0.950 . S
C6265 C6261 1.393 . S
C6265 C6264 1.391 . S
C6266 H6256 0.950 . S
C6266 C6267 1.386 . S
C6266 C6268 1.391 . S
C6267 C6266 1.386 . S
C6267 C6271 1.393 . S
C6268 H6257 0.950 . S
C6268 C6266 1.391 . S
C6268 C6269 1.400 . S
C6269 C6263 1.491 . S
C6269 C6268 1.400 . S
C6269 C6270 1.398 . S
C6270 H6258 0.950 . S
C6270 C6269 1.398 . S
C6270 C6271 1.391 . S
C6271 H6259 0.950 . S
C6271 C6267 1.393 . S
C6271 C6270 1.391 . S
H6272 C6280 0.950 . S
H6273 C6285 0.950 . S
H6274 C6282 0.950 . S
H6275 C6284 0.950 . S
H6276 C6286 0.950 . S
H6277 C6288 0.950 . S
H6278 C6290 0.950 . S
H6279 C6291 0.950 . S
C6280 H6272 0.950 . S
C6280 C6281 1.386 . S
C6280 C6282 1.391 . S
C6281 C6280 1.386 . S
C6281 C6285 1.393 . S
C6282 H6274 0.950 . S
C6282 C6280 1.391 . S
C6282 C6283 1.400 . S
C6283 C6282 1.400 . S
C6283 C6284 1.398 . S
C6283 C6289 1.491 . S
C6284 H6275 0.950 . S
C6284 C6283 1.398 . S
C6284 C6285 1.391 . S
C6285 H6273 0.950 . S
C6285 C6281 1.393 . S
C6285 C6284 1.391 . S
C6286 H6276 0.950 . S
C6286 C6287 1.386 . S
C6286 C6288 1.391 . S
C6287 C6286 1.386 . S
C6287 C6291 1.393 . S
C6288 H6277 0.950 . S
C6288 C6286 1.391 . S
C6288 C6289 1.400 . S
C6289 C6283 1.491 . S
C6289 C6288 1.400 . S
C6289 C6290 1.398 . S
C6290 H6278 0.950 . S
C6290 C6289 1.398 . S
C6290 C6291 1.391 . S
C6291 H6279 0.950 . S
C6291 C6287 1.393 . S
C6291 C6290 1.391 . S
H6292 C6300 0.950 . S
H6293 C6305 0.950 . S
H6294 C6302 0.950 . S
H6295 C6304 0.950 . S
H6296 C6306 0.950 . S
H6297 C6308 0.950 . S
H6298 C6310 0.950 . S
H6299 C6311 0.950 . S
C6300 H6292 0.950 . S
C6300 C6301 1.386 . S
C6300 C6302 1.391 . S
C6301 C6300 1.386 . S
C6301 C6305 1.393 . S
C6302 H6294 0.950 . S
C6302 C6300 1.391 . S
C6302 C6303 1.400 . S
C6303 C6302 1.400 . S
C6303 C6304 1.398 . S
C6303 C6309 1.491 . S
C6304 H6295 0.950 . S
C6304 C6303 1.398 . S
C6304 C6305 1.391 . S
C6305 H6293 0.950 . S
C6305 C6301 1.393 . S
C6305 C6304 1.391 . S
C6306 H6296 0.950 . S
C6306 C6307 1.386 . S
C6306 C6308 1.391 . S
C6307 C6306 1.386 . S
C6307 C6311 1.393 . S
C6308 H6297 0.950 . S
C6308 C6306 1.391 . S
C6308 C6309 1.400 . S
C6309 C6303 1.491 . S
C6309 C6308 1.400 . S
C6309 C6310 1.398 . S
C6310 H6298 0.950 . S
C6310 C6309 1.398 . S
C6310 C6311 1.391 . S
C6311 H6299 0.950 . S
C6311 C6307 1.393 . S
C6311 C6310 1.391 . S
H6312 C6320 0.950 . S
H6313 C6325 0.950 . S
H6314 C6322 0.950 . S
H6315 C6324 0.950 . S
H6316 C6326 0.950 . S
H6317 C6328 0.950 . S
H6318 C6330 0.950 . S
H6319 C6331 0.950 . S
C6320 H6312 0.950 . S
C6320 C6321 1.386 . S
C6320 C6322 1.391 . S
C6321 C6320 1.386 . S
C6321 C6325 1.393 . S
C6322 H6314 0.950 . S
C6322 C6320 1.391 . S
C6322 C6323 1.400 . S
C6323 C6322 1.400 . S
C6323 C6324 1.398 . S
C6323 C6329 1.491 . S
C6324 H6315 0.950 . S
C6324 C6323 1.398 . S
C6324 C6325 1.391 . S
C6325 H6313 0.950 . S
C6325 C6321 1.393 . S
C6325 C6324 1.391 . S
C6326 H6316 0.950 . S
C6326 C6327 1.386 . S
C6326 C6328 1.391 . S
C6327 C6326 1.386 . S
C6327 C6331 1.393 . S
C6328 H6317 0.950 . S
C6328 C6326 1.391 . S
C6328 C6329 1.400 . S
C6329 C6323 1.491 . S
C6329 C6328 1.400 . S
C6329 C6330 1.398 . S
C6330 H6318 0.950 . S
C6330 C6329 1.398 . S
C6330 C6331 1.391 . S
C6331 H6319 0.950 . S
C6331 C6327 1.393 . S
C6331 C6330 1.391 . S
H6332 C6340 0.950 . S
H6333 C6345 0.950 . S
H6334 C6342 0.950 . S
H6335 C6344 0.950 . S
H6336 C6346 0.950 . S
H6337 C6348 0.950 . S
H6338 C6350 0.950 . S
H6339 C6351 0.950 . S
C6340 H6332 0.950 . S
C6340 C6341 1.386 . S
C6340 C6342 1.391 . S
C6341 C6340 1.386 . S
C6341 C6345 1.393 . S
C6342 H6334 0.950 . S
C6342 C6340 1.391 . S
C6342 C6343 1.400 . S
C6343 C6342 1.400 . S
C6343 C6344 1.398 . S
C6343 C6349 1.491 . S
C6344 H6335 0.950 . S
C6344 C6343 1.398 . S
C6344 C6345 1.391 . S
C6345 H6333 0.950 . S
C6345 C6341 1.393 . S
C6345 C6344 1.391 . S
C6346 H6336 0.950 . S
C6346 C6347 1.386 . S
C6346 C6348 1.391 . S
C6347 C6346 1.386 . S
C6347 C6351 1.393 . S
C6348 H6337 0.950 . S
C6348 C6346 1.391 . S
C6348 C6349 1.400 . S
C6349 C6343 1.491 . S
C6349 C6348 1.400 . S
C6349 C6350 1.398 . S
C6350 H6338 0.950 . S
C6350 C6349 1.398 . S
C6350 C6351 1.391 . S
C6351 H6339 0.950 . S
C6351 C6347 1.393 . S
C6351 C6350 1.391 . S
H6352 C6360 0.950 . S
H6353 C6365 0.950 . S
H6354 C6362 0.950 . S
H6355 C6364 0.950 . S
H6356 C6366 0.950 . S
H6357 C6368 0.950 . S
H6358 C6370 0.950 . S
H6359 C6371 0.950 . S
C6360 H6352 0.950 . S
C6360 C6361 1.386 . S
C6360 C6362 1.391 . S
C6361 C6360 1.386 . S
C6361 C6365 1.393 . S
C6362 H6354 0.950 . S
C6362 C6360 1.391 . S
C6362 C6363 1.400 . S
C6363 C6362 1.400 . S
C6363 C6364 1.398 . S
C6363 C6369 1.491 . S
C6364 H6355 0.950 . S
C6364 C6363 1.398 . S
C6364 C6365 1.391 . S
C6365 H6353 0.950 . S
C6365 C6361 1.393 . S
C6365 C6364 1.391 . S
C6366 H6356 0.950 . S
C6366 C6367 1.386 . S
C6366 C6368 1.391 . S
C6367 C6366 1.386 . S
C6367 C6371 1.393 . S
C6368 H6357 0.950 . S
C6368 C6366 1.391 . S
C6368 C6369 1.400 . S
C6369 C6363 1.491 . S
C6369 C6368 1.400 . S
C6369 C6370 1.398 . S
C6370 H6358 0.950 . S
C6370 C6369 1.398 . S
C6370 C6371 1.391 . S
C6371 H6359 0.950 . S
C6371 C6367 1.393 . S
C6371 C6370 1.391 . S
H6372 C6380 0.950 . S
H6373 C6385 0.950 . S
H6374 C6382 0.950 . S
H6375 C6384 0.950 . S
H6376 C6386 0.950 . S
H6377 C6388 0.950 . S
H6378 C6390 0.950 . S
H6379 C6391 0.950 . S
C6380 H6372 0.950 . S
C6380 C6381 1.386 . S
C6380 C6382 1.391 . S
C6381 C6380 1.386 . S
C6381 C6385 1.393 . S
C6382 H6374 0.950 . S
C6382 C6380 1.391 . S
C6382 C6383 1.400 . S
C6383 C6382 1.400 . S
C6383 C6384 1.398 . S
C6383 C6389 1.491 . S
C6384 H6375 0.950 . S
C6384 C6383 1.398 . S
C6384 C6385 1.391 . S
C6385 H6373 0.950 . S
C6385 C6381 1.393 . S
C6385 C6384 1.391 . S
C6386 H6376 0.950 . S
C6386 C6387 1.386 . S
C6386 C6388 1.391 . S
C6387 C6386 1.386 . S
C6387 C6391 1.393 . S
C6388 H6377 0.950 . S
C6388 C6386 1.391 . S
C6388 C6389 1.400 . S
C6389 C6383 1.491 . S
C6389 C6388 1.400 . S
C6389 C6390 1.398 . S
C6390 H6378 0.950 . S
C6390 C6389 1.398 . S
C6390 C6391 1.391 . S
C6391 H6379 0.950 . S
C6391 C6387 1.393 . S
C6391 C6390 1.391 . S
H6392 C6400 0.950 . S
H6393 C6405 0.950 . S
H6394 C6402 0.950 . S
H6395 C6404 0.950 . S
H6396 C6406 0.950 . S
H6397 C6408 0.950 . S
H6398 C6410 0.950 . S
H6399 C6411 0.950 . S
C6400 H6392 0.950 . S
C6400 C6401 1.386 . S
C6400 C6402 1.391 . S
C6401 C6400 1.386 . S
C6401 C6405 1.393 . S
C6402 H6394 0.950 . S
C6402 C6400 1.391 . S
C6402 C6403 1.400 . S
C6403 C6402 1.400 . S
C6403 C6404 1.398 . S
C6403 C6409 1.491 . S
C6404 H6395 0.950 . S
C6404 C6403 1.398 . S
C6404 C6405 1.391 . S
C6405 H6393 0.950 . S
C6405 C6401 1.393 . S
C6405 C6404 1.391 . S
C6406 H6396 0.950 . S
C6406 C6407 1.386 . S
C6406 C6408 1.391 . S
C6407 C6406 1.386 . S
C6407 C6411 1.393 . S
C6408 H6397 0.950 . S
C6408 C6406 1.391 . S
C6408 C6409 1.400 . S
C6409 C6403 1.491 . S
C6409 C6408 1.400 . S
C6409 C6410 1.398 . S
C6410 H6398 0.950 . S
C6410 C6409 1.398 . S
C6410 C6411 1.391 . S
C6411 H6399 0.950 . S
C6411 C6407 1.393 . S
C6411 C6410 1.391 . S
H6412 C6420 0.950 . S
H6413 C6425 0.950 . S
H6414 C6422 0.950 . S
H6415 C6424 0.950 . S
H6416 C6426 0.950 . S
H6417 C6428 0.950 . S
H6418 C6430 0.950 . S
H6419 C6431 0.950 . S
C6420 H6412 0.950 . S
C6420 C6421 1.386 . S
C6420 C6422 1.391 . S
C6421 C6420 1.386 . S
C6421 C6425 1.393 . S
C6422 H6414 0.950 . S
C6422 C6420 1.391 . S
C6422 C6423 1.400 . S
C6423 C6422 1.400 . S
C6423 C6424 1.398 . S
C6423 C6429 1.491 . S
C6424 H6415 0.950 . S
C6424 C6423 1.398 . S
C6424 C6425 1.391 . S
C6425 H6413 0.950 . S
C6425 C6421 1.393 . S
C6425 C6424 1.391 . S
C6426 H6416 0.950 . S
C6426 C6427 1.386 . S
C6426 C6428 1.391 . S
C6427 C6426 1.386 . S
C6427 C6431 1.393 . S
C6428 H6417 0.950 . S
C6428 C6426 1.391 . S
C6428 C6429 1.400 . S
C6429 C6423 1.491 . S
C6429 C6428 1.400 . S
C6429 C6430 1.398 . S
C6430 H6418 0.950 . S
C6430 C6429 1.398 . S
C6430 C6431 1.391 . S
C6431 H6419 0.950 . S
C6431 C6427 1.393 . S
C6431 C6430 1.391 . S
H6432 C6440 0.950 . S
H6433 C6445 0.950 . S
H6434 C6442 0.950 . S
H6435 C6444 0.950 . S
H6436 C6446 0.950 . S
H6437 C6448 0.950 . S
H6438 C6450 0.950 . S
H6439 C6451 0.950 . S
C6440 H6432 0.950 . S
C6440 C6441 1.386 . S
C6440 C6442 1.391 . S
C6441 C6440 1.386 . S
C6441 C6445 1.393 . S
C6442 H6434 0.950 . S
C6442 C6440 1.391 . S
C6442 C6443 1.400 . S
C6443 C6442 1.400 . S
C6443 C6444 1.398 . S
C6443 C6449 1.491 . S
C6444 H6435 0.950 . S
C6444 C6443 1.398 . S
C6444 C6445 1.391 . S
C6445 H6433 0.950 . S
C6445 C6441 1.393 . S
C6445 C6444 1.391 . S
C6446 H6436 0.950 . S
C6446 C6447 1.386 . S
C6446 C6448 1.391 . S
C6447 C6446 1.386 . S
C6447 C6451 1.393 . S
C6448 H6437 0.950 . S
C6448 C6446 1.391 . S
C6448 C6449 1.400 . S
C6449 C6443 1.491 . S
C6449 C6448 1.400 . S
C6449 C6450 1.398 . S
C6450 H6438 0.950 . S
C6450 C6449 1.398 . S
C6450 C6451 1.391 . S
C6451 H6439 0.950 . S
C6451 C6447 1.393 . S
C6451 C6450 1.391 . S
H6452 C6460 0.950 . S
H6453 C6465 0.950 . S
H6454 C6462 0.950 . S
H6455 C6464 0.950 . S
H6456 C6466 0.950 . S
H6457 C6468 0.950 . S
H6458 C6470 0.950 . S
H6459 C6471 0.950 . S
C6460 H6452 0.950 . S
C6460 C6461 1.386 . S
C6460 C6462 1.391 . S
C6461 C6460 1.386 . S
C6461 C6465 1.393 . S
C6462 H6454 0.950 . S
C6462 C6460 1.391 . S
C6462 C6463 1.400 . S
C6463 C6462 1.400 . S
C6463 C6464 1.398 . S
C6463 C6469 1.491 . S
C6464 H6455 0.950 . S
C6464 C6463 1.398 . S
C6464 C6465 1.391 . S
C6465 H6453 0.950 . S
C6465 C6461 1.393 . S
C6465 C6464 1.391 . S
C6466 H6456 0.950 . S
C6466 C6467 1.386 . S
C6466 C6468 1.391 . S
C6467 C6466 1.386 . S
C6467 C6471 1.393 . S
C6468 H6457 0.950 . S
C6468 C6466 1.391 . S
C6468 C6469 1.400 . S
C6469 C6463 1.491 . S
C6469 C6468 1.400 . S
C6469 C6470 1.398 . S
C6470 H6458 0.950 . S
C6470 C6469 1.398 . S
C6470 C6471 1.391 . S
C6471 H6459 0.950 . S
C6471 C6467 1.393 . S
C6471 C6470 1.391 . S
H6472 C6480 0.950 . S
H6473 C6485 0.950 . S
H6474 C6482 0.950 . S
H6475 C6484 0.950 . S
H6476 C6486 0.950 . S
H6477 C6488 0.950 . S
H6478 C6490 0.950 . S
H6479 C6491 0.950 . S
C6480 H6472 0.950 . S
C6480 C6481 1.386 . S
C6480 C6482 1.391 . S
C6481 C6480 1.386 . S
C6481 C6485 1.393 . S
C6482 H6474 0.950 . S
C6482 C6480 1.391 . S
C6482 C6483 1.400 . S
C6483 C6482 1.400 . S
C6483 C6484 1.398 . S
C6483 C6489 1.491 . S
C6484 H6475 0.950 . S
C6484 C6483 1.398 . S
C6484 C6485 1.391 . S
C6485 H6473 0.950 . S
C6485 C6481 1.393 . S
C6485 C6484 1.391 . S
C6486 H6476 0.950 . S
C6486 C6487 1.386 . S
C6486 C6488 1.391 . S
C6487 C6486 1.386 . S
C6487 C6491 1.393 . S
C6488 H6477 0.950 . S
C6488 C6486 1.391 . S
C6488 C6489 1.400 . S
C6489 C6483 1.491 . S
C6489 C6488 1.400 . S
C6489 C6490 1.398 . S
C6490 H6478 0.950 . S
C6490 C6489 1.398 . S
C6490 C6491 1.391 . S
C6491 H6479 0.950 . S
C6491 C6487 1.393 . S
C6491 C6490 1.391 . S
H6492 C6500 0.950 . S
H6493 C6505 0.950 . S
H6494 C6502 0.950 . S
H6495 C6504 0.950 . S
H6496 C6506 0.950 . S
H6497 C6508 0.950 . S
H6498 C6510 0.950 . S
H6499 C6511 0.950 . S
C6500 H6492 0.950 . S
C6500 C6501 1.386 . S
C6500 C6502 1.391 . S
C6501 C6500 1.386 . S
C6501 C6505 1.393 . S
C6502 H6494 0.950 . S
C6502 C6500 1.391 . S
C6502 C6503 1.400 . S
C6503 C6502 1.400 . S
C6503 C6504 1.398 . S
C6503 C6509 1.491 . S
C6504 H6495 0.950 . S
C6504 C6503 1.398 . S
C6504 C6505 1.391 . S
C6505 H6493 0.950 . S
C6505 C6501 1.393 . S
C6505 C6504 1.391 . S
C6506 H6496 0.950 . S
C6506 C6507 1.386 . S
C6506 C6508 1.391 . S
C6507 C6506 1.386 . S
C6507 C6511 1.393 . S
C6508 H6497 0.950 . S
C6508 C6506 1.391 . S
C6508 C6509 1.400 . S
C6509 C6503 1.491 . S
C6509 C6508 1.400 . S
C6509 C6510 1.398 . S
C6510 H6498 0.950 . S
C6510 C6509 1.398 . S
C6510 C6511 1.391 . S
C6511 H6499 0.950 . S
C6511 C6507 1.393 . S
C6511 C6510 1.391 . S
H6512 C6520 0.950 . S
H6513 C6525 0.950 . S
H6514 C6522 0.950 . S
H6515 C6524 0.950 . S
H6516 C6526 0.950 . S
H6517 C6528 0.950 . S
H6518 C6530 0.950 . S
H6519 C6531 0.950 . S
C6520 H6512 0.950 . S
C6520 C6521 1.386 . S
C6520 C6522 1.391 . S
C6521 C6520 1.386 . S
C6521 C6525 1.393 . S
C6522 H6514 0.950 . S
C6522 C6520 1.391 . S
C6522 C6523 1.400 . S
C6523 C6522 1.400 . S
C6523 C6524 1.398 . S
C6523 C6529 1.491 . S
C6524 H6515 0.950 . S
C6524 C6523 1.398 . S
C6524 C6525 1.391 . S
C6525 H6513 0.950 . S
C6525 C6521 1.393 . S
C6525 C6524 1.391 . S
C6526 H6516 0.950 . S
C6526 C6527 1.386 . S
C6526 C6528 1.391 . S
C6527 C6526 1.386 . S
C6527 C6531 1.393 . S
C6528 H6517 0.950 . S
C6528 C6526 1.391 . S
C6528 C6529 1.400 . S
C6529 C6523 1.491 . S
C6529 C6528 1.400 . S
C6529 C6530 1.398 . S
C6530 H6518 0.950 . S
C6530 C6529 1.398 . S
C6530 C6531 1.391 . S
C6531 H6519 0.950 . S
C6531 C6527 1.393 . S
C6531 C6530 1.391 . S
H6532 C6540 0.950 . S
H6533 C6545 0.950 . S
H6534 C6542 0.950 . S
H6535 C6544 0.950 . S
H6536 C6546 0.950 . S
H6537 C6548 0.950 . S
H6538 C6550 0.950 . S
H6539 C6551 0.950 . S
C6540 H6532 0.950 . S
C6540 C6541 1.386 . S
C6540 C6542 1.391 . S
C6541 C6540 1.386 . S
C6541 C6545 1.393 . S
C6542 H6534 0.950 . S
C6542 C6540 1.391 . S
C6542 C6543 1.400 . S
C6543 C6542 1.400 . S
C6543 C6544 1.398 . S
C6543 C6549 1.491 . S
C6544 H6535 0.950 . S
C6544 C6543 1.398 . S
C6544 C6545 1.391 . S
C6545 H6533 0.950 . S
C6545 C6541 1.393 . S
C6545 C6544 1.391 . S
C6546 H6536 0.950 . S
C6546 C6547 1.386 . S
C6546 C6548 1.391 . S
C6547 C6546 1.386 . S
C6547 C6551 1.393 . S
C6548 H6537 0.950 . S
C6548 C6546 1.391 . S
C6548 C6549 1.400 . S
C6549 C6543 1.491 . S
C6549 C6548 1.400 . S
C6549 C6550 1.398 . S
C6550 H6538 0.950 . S
C6550 C6549 1.398 . S
C6550 C6551 1.391 . S
C6551 H6539 0.950 . S
C6551 C6547 1.393 . S
C6551 C6550 1.391 . S
H6552 C6560 0.950 . S
H6553 C6565 0.950 . S
H6554 C6562 0.950 . S
H6555 C6564 0.950 . S
H6556 C6566 0.950 . S
H6557 C6568 0.950 . S
H6558 C6570 0.950 . S
H6559 C6571 0.950 . S
C6560 H6552 0.950 . S
C6560 C6561 1.386 . S
C6560 C6562 1.391 . S
C6561 C6560 1.386 . S
C6561 C6565 1.393 . S
C6562 H6554 0.950 . S
C6562 C6560 1.391 . S
C6562 C6563 1.400 . S
C6563 C6562 1.400 . S
C6563 C6564 1.398 . S
C6563 C6569 1.491 . S
C6564 H6555 0.950 . S
C6564 C6563 1.398 . S
C6564 C6565 1.391 . S
C6565 H6553 0.950 . S
C6565 C6561 1.393 . S
C6565 C6564 1.391 . S
C6566 H6556 0.950 . S
C6566 C6567 1.386 . S
C6566 C6568 1.391 . S
C6567 C6566 1.386 . S
C6567 C6571 1.393 . S
C6568 H6557 0.950 . S
C6568 C6566 1.391 . S
C6568 C6569 1.400 . S
C6569 C6563 1.491 . S
C6569 C6568 1.400 . S
C6569 C6570 1.398 . S
C6570 H6558 0.950 . S
C6570 C6569 1.398 . S
C6570 C6571 1.391 . S
C6571 H6559 0.950 . S
C6571 C6567 1.393 . S
C6571 C6570 1.391 . S
H6572 C6580 0.950 . S
H6573 C6585 0.950 . S
H6574 C6582 0.950 . S
H6575 C6584 0.950 . S
H6576 C6586 0.950 . S
H6577 C6588 0.950 . S
H6578 C6590 0.950 . S
H6579 C6591 0.950 . S
C6580 H6572 0.950 . S
C6580 C6581 1.386 . S
C6580 C6582 1.391 . S
C6581 C6580 1.386 . S
C6581 C6585 1.393 . S
C6582 H6574 0.950 . S
C6582 C6580 1.391 . S
C6582 C6583 1.400 . S
C6583 C6582 1.400 . S
C6583 C6584 1.398 . S
C6583 C6589 1.491 . S
C6584 H6575 0.950 . S
C6584 C6583 1.398 . S
C6584 C6585 1.391 . S
C6585 H6573 0.950 . S
C6585 C6581 1.393 . S
C6585 C6584 1.391 . S
C6586 H6576 0.950 . S
C6586 C6587 1.386 . S
C6586 C6588 1.391 . S
C6587 C6586 1.386 . S
C6587 C6591 1.393 . S
C6588 H6577 0.950 . S
C6588 C6586 1.391 . S
C6588 C6589 1.400 . S
C6589 C6583 1.491 . S
C6589 C6588 1.400 . S
C6589 C6590 1.398 . S
C6590 H6578 0.950 . S
C6590 C6589 1.398 . S
C6590 C6591 1.391 . S
C6591 H6579 0.950 . S
C6591 C6587 1.393 . S
C6591 C6590 1.391 . S
H6592 C6600 0.950 . S
H6593 C6605 0.950 . S
H6594 C6602 0.950 . S
H6595 C6604 0.950 . S
H6596 C6606 0.950 . S
H6597 C6608 0.950 . S
H6598 C6610 0.950 . S
H6599 C6611 0.950 . S
C6600 H6592 0.950 . S
C6600 C6601 1.386 . S
C6600 C6602 1.391 . S
C6601 C6600 1.386 . S
C6601 C6605 1.393 . S
C6602 H6594 0.950 . S
C6602 C6600 1.391 . S
C6602 C6603 1.400 . S
C6603 C6602 1.400 . S
C6603 C6604 1.398 . S
C6603 C6609 1.491 . S
C6604 H6595 0.950 . S
C6604 C6603 1.398 . S
C6604 C6605 1.391 . S
C6605 H6593 0.950 . S
C6605 C6601 1.393 . S
C6605 C6604 1.391 . S
C6606 H6596 0.950 . S
C6606 C6607 1.386 . S
C6606 C6608 1.391 . S
C6607 C6606 1.386 . S
C6607 C6611 1.393 . S
C6608 H6597 0.950 . S
C6608 C6606 1.391 . S
C6608 C6609 1.400 . S
C6609 C6603 1.491 . S
C6609 C6608 1.400 . S
C6609 C6610 1.398 . S
C6610 H6598 0.950 . S
C6610 C6609 1.398 . S
C6610 C6611 1.391 . S
C6611 H6599 0.950 . S
C6611 C6607 1.393 . S
C6611 C6610 1.391 . S
H6612 C6620 0.950 . S
H6613 C6625 0.950 . S
H6614 C6622 0.950 . S
H6615 C6624 0.950 . S
H6616 C6626 0.950 . S
H6617 C6628 0.950 . S
H6618 C6630 0.950 . S
H6619 C6631 0.950 . S
C6620 H6612 0.950 . S
C6620 C6621 1.386 . S
C6620 C6622 1.391 . S
C6621 C6620 1.386 . S
C6621 C6625 1.393 . S
C6622 H6614 0.950 . S
C6622 C6620 1.391 . S
C6622 C6623 1.400 . S
C6623 C6622 1.400 . S
C6623 C6624 1.398 . S
C6623 C6629 1.491 . S
C6624 H6615 0.950 . S
C6624 C6623 1.398 . S
C6624 C6625 1.391 . S
C6625 H6613 0.950 . S
C6625 C6621 1.393 . S
C6625 C6624 1.391 . S
C6626 H6616 0.950 . S
C6626 C6627 1.386 . S
C6626 C6628 1.391 . S
C6627 C6626 1.386 . S
C6627 C6631 1.393 . S
C6628 H6617 0.950 . S
C6628 C6626 1.391 . S
C6628 C6629 1.400 . S
C6629 C6623 1.491 . S
C6629 C6628 1.400 . S
C6629 C6630 1.398 . S
C6630 H6618 0.950 . S
C6630 C6629 1.398 . S
C6630 C6631 1.391 . S
C6631 H6619 0.950 . S
C6631 C6627 1.393 . S
C6631 C6630 1.391 . S
H6632 C6640 0.950 . S
H6633 C6645 0.950 . S
H6634 C6642 0.950 . S
H6635 C6644 0.950 . S
H6636 C6646 0.950 . S
H6637 C6648 0.950 . S
H6638 C6650 0.950 . S
H6639 C6651 0.950 . S
C6640 H6632 0.950 . S
C6640 C6641 1.386 . S
C6640 C6642 1.391 . S
C6641 C6640 1.386 . S
C6641 C6645 1.393 . S
C6642 H6634 0.950 . S
C6642 C6640 1.391 . S
C6642 C6643 1.400 . S
C6643 C6642 1.400 . S
C6643 C6644 1.398 . S
C6643 C6649 1.491 . S
C6644 H6635 0.950 . S
C6644 C6643 1.398 . S
C6644 C6645 1.391 . S
C6645 H6633 0.950 . S
C6645 C6641 1.393 . S
C6645 C6644 1.391 . S
C6646 H6636 0.950 . S
C6646 C6647 1.386 . S
C6646 C6648 1.391 . S
C6647 C6646 1.386 . S
C6647 C6651 1.393 . S
C6648 H6637 0.950 . S
C6648 C6646 1.391 . S
C6648 C6649 1.400 . S
C6649 C6643 1.491 . S
C6649 C6648 1.400 . S
C6649 C6650 1.398 . S
C6650 H6638 0.950 . S
C6650 C6649 1.398 . S
C6650 C6651 1.391 . S
C6651 H6639 0.950 . S
C6651 C6647 1.393 . S
C6651 C6650 1.391 . S
H6652 C6660 0.950 . S
H6653 C6665 0.950 . S
H6654 C6662 0.950 . S
H6655 C6664 0.950 . S
H6656 C6666 0.950 . S
H6657 C6668 0.950 . S
H6658 C6670 0.950 . S
H6659 C6671 0.950 . S
C6660 H6652 0.950 . S
C6660 C6661 1.386 . S
C6660 C6662 1.391 . S
C6661 C6660 1.386 . S
C6661 C6665 1.393 . S
C6662 H6654 0.950 . S
C6662 C6660 1.391 . S
C6662 C6663 1.400 . S
C6663 C6662 1.400 . S
C6663 C6664 1.398 . S
C6663 C6669 1.491 . S
C6664 H6655 0.950 . S
C6664 C6663 1.398 . S
C6664 C6665 1.391 . S
C6665 H6653 0.950 . S
C6665 C6661 1.393 . S
C6665 C6664 1.391 . S
C6666 H6656 0.950 . S
C6666 C6667 1.386 . S
C6666 C6668 1.391 . S
C6667 C6666 1.386 . S
C6667 C6671 1.393 . S
C6668 H6657 0.950 . S
C6668 C6666 1.391 . S
C6668 C6669 1.400 . S
C6669 C6663 1.491 . S
C6669 C6668 1.400 . S
C6669 C6670 1.398 . S
C6670 H6658 0.950 . S
C6670 C6669 1.398 . S
C6670 C6671 1.391 . S
C6671 H6659 0.950 . S
C6671 C6667 1.393 . S
C6671 C6670 1.391 . S
C3801 C1781 1.683 . S
C3807 C1921 1.708 . S
C3821 C981 1.686 . S
C3827 C1960 1.705 . S
C3847 C1999 1.694 . S
C3841 C1861 1.732 . S
C3861 C1061 1.761 . S
C3867 C2038 1.727 . S
C3881 C1901 1.699 . S
C3887 C2077 1.729 . S
C3901 C941 1.692 . S
C3907 C2116 1.710 . S
C3921 C1821 1.756 . S
C3927 C2155 1.723 . S
C3941 C1021 1.740 . S
C3947 C2194 1.703 . S
C3961 C661 1.662 . S
C3967 C2233 1.686 . S
C3981 C1621 1.746 . S
C3987 C2272 1.714 . S
C4001 C741 1.674 . S
C4007 C2311 1.689 . S
C4021 C1581 1.680 . S
C4027 C2350 1.685 . S
C4041 C901 1.735 . S
C4047 C2389 1.704 . S
C4067 C2428 1.705 . S
C4061 C1661 1.737 . S
C4087 C2467 1.716 . S
C4081 C821 1.706 . S
C4101 C1141 1.730 . S
C4107 C2506 1.696 . S
C4127 C2545 1.703 . S
C4121 C781 1.732 . S
C4147 C2584 1.732 . S
C4141 C1701 1.700 . S
C4161 C861 1.736 . S
C4167 C2623 1.701 . S
C4181 C1181 1.678 . S
C4187 C2662 1.689 . S
C4207 C2701 1.703 . S
C4201 C1101 1.670 . S
C4221 C1421 1.671 . S
C4227 C2740 1.677 . S
C4247 C2779 1.693 . S
C4241 C381 1.718 . S
C4267 C2818 1.683 . S
C4261 C1501 1.716 . S
C4287 C2857 1.729 . S
C4281 C461 1.714 . S
C4307 C2896 1.729 . S
C4301 C1541 1.703 . S
C4321 C341 1.665 . S
C4327 C2935 1.683 . S
C4347 C2974 1.704 . S
C4341 C1461 1.726 . S
C4361 C421 1.713 . S
C4367 C3013 1.692 . S
C4387 C3052 1.694 . S
C4381 C61 1.659 . S
C4407 C3091 1.752 . S
C4401 C1261 1.711 . S
C4421 C141 1.692 . S
C4427 C3130 1.707 . S
C4447 C3169 1.699 . S
C4441 C1221 1.744 . S
C4467 C3208 1.696 . S
C4461 C301 1.718 . S
C4481 C1301 1.754 . S
C4487 C3247 1.708 . S
C4507 C3286 1.720 . S
C4501 C221 1.691 . S
C4527 C3325 1.705 . S
C4521 C541 1.739 . S
C4541 C181 1.742 . S
C4547 C3364 1.704 . S
C4567 C3403 1.698 . S
C4561 C1341 1.684 . S
C4581 C261 1.751 . S
C4587 C3442 1.727 . S
C4607 C3481 1.706 . S
C4601 C581 1.680 . S
C4621 C501 1.652 . S
C4627 C3520 1.693 . S
C4641 C701 1.746 . S
C4647 C3559 1.714 . S
C4667 C3598 1.696 . S
C4661 C621 1.667 . S
C4681 C1741 1.729 . S
C4687 C3637 1.688 . S
C4701 C101 1.704 . S
C4707 C3676 1.740 . S
C4727 C3715 1.722 . S
C4721 C21 1.754 . S
C4747 C3754 1.699 . S
C4741 C1381 1.727 . S
C4761 C1335 2.099 . S
C4767 C1936 2.094 . S
C4781 C535 1.601 . S
C4787 C1975 1.596 . S
C4801 C1362 2.212 . S
C4807 C2019 2.137 . S
C4827 C2058 1.569 . S
C4821 C1295 1.604 . S
C4841 C575 2.111 . S
C4847 C2097 2.122 . S
C4861 C1215 1.583 . S
C4867 C2136 1.567 . S
C4887 C2170 2.159 . S
C4881 C495 2.166 . S
C4901 C1242 1.597 . S
C4907 C2209 1.599 . S
C4921 C1255 2.128 . S
C4927 C2248 2.129 . S
C4947 C2287 1.557 . S
C4941 C562 1.548 . S
C4961 C1202 2.162 . S
C4967 C2331 2.101 . S
C4987 C2370 1.570 . S
C4981 C482 1.569 . S
C5001 C522 2.230 . S
C5007 C2404 2.158 . S
C5021 C1375 1.601 . S
C5027 C2448 1.574 . S
C5047 C2487 2.113 . S
C5041 C1282 2.174 . S
C5067 C2521 1.556 . S
C5061 C1322 1.557 . S
C5081 C455 2.098 . S
C5087 C2365 2.093 . S
C5101 C1415 2.085 . S
C5107 C2560 2.084 . S
C5121 C1455 1.580 . S
C5127 C2599 1.569 . S
C5147 C2643 2.064 . S
C5141 C1482 2.134 . S
C5167 C2409 1.593 . S
C5161 C442 1.591 . S
C5181 C362 2.144 . S
C5187 C2292 2.078 . S
C5201 C1495 1.571 . S
C5207 C2677 1.558 . S
C5227 C2721 1.547 . S
C5221 C1402 1.552 . S
C5247 C2755 1.582 . S
C5241 C1695 1.601 . S
C5261 C1135 2.122 . S
C5267 C2794 2.098 . S
C5287 C2838 1.578 . S
C5281 C1722 1.594 . S
C5307 C2872 2.068 . S
C5301 C1655 2.096 . S
C5321 C1175 1.599 . S
C5327 C2916 1.588 . S
C5341 C1562 2.022 . S
C5347 C2955 2.039 . S
C5361 C1095 1.582 . S
C5367 C2994 1.586 . S
C5387 C3028 2.054 . S
C5381 C1615 2.080 . S
C5407 C3072 1.585 . S
C5401 C1602 1.602 . S
C5421 C1162 2.106 . S
C5427 C3106 2.135 . S
C5447 C3145 1.564 . S
C5441 C1575 1.569 . S
C5461 C1082 2.057 . S
C5467 C3189 2.083 . S
C5487 C3228 1.555 . S
C5481 C1122 1.582 . S
C5501 C1735 2.126 . S
C5507 C3267 2.100 . S
C5527 C3301 1.567 . S
C5521 C1642 1.602 . S
C5541 C1682 2.051 . S
C5547 C3340 2.079 . S
C5561 C1042 1.625 . S
C5567 C3184 1.597 . S
C5581 C1775 1.604 . S
C5587 C3379 1.586 . S
C5601 C1815 2.145 . S
C5607 C3423 2.119 . S
C5627 C3462 1.586 . S
C5621 C1842 1.599 . S
C5641 C1055 2.124 . S
C5647 C3223 2.099 . S
C5661 C975 1.597 . S
C5667 C3111 1.595 . S
C5687 C3501 2.104 . S
C5681 C1855 2.137 . S
C5701 C1762 2.086 . S
C5707 C3535 2.115 . S
C5727 C2131 2.092 . S
C5721 C215 2.101 . S
C5747 C2175 1.600 . S
C5741 C255 1.631 . S
C5767 C2214 2.138 . S
C5761 C282 2.202 . S
C5787 C2092 1.560 . S
C5781 C175 1.569 . S
C5807 C2053 2.127 . S
C5801 C135 2.133 . S
C5821 C15 1.586 . S
C5827 C1941 1.554 . S
C5841 C55 2.117 . S
C5847 C1980 2.129 . S
C5861 C82 1.576 . S
C5867 C2014 1.599 . S
C5881 C95 2.107 . S
C5887 C2716 2.110 . S
C5901 C122 1.555 . S
C5907 C3574 1.584 . S
C5921 C2 2.179 . S
C5927 C2682 2.112 . S
C5941 C42 1.537 . S
C5947 C3618 1.563 . S
C5961 C242 2.223 . S
C5967 C3652 2.136 . S
C5987 C2565 1.563 . S
C5981 C295 1.595 . S
C6001 C162 2.175 . S
C6007 C2604 2.111 . S
C6021 C202 1.568 . S
C6027 C2638 1.567 . S
C6047 C3613 2.079 . S
C6041 C1535 2.087 . S
C6061 C335 2.105 . S
C6067 C2443 2.100 . S
C6081 C375 1.576 . S
C6087 C2482 1.558 . S
C6101 C402 2.121 . S
C6107 C2526 2.059 . S
C6127 C3657 1.585 . S
C6121 C1522 1.568 . S
C6147 C3579 2.103 . S
C6141 C1442 2.163 . S
C6167 C2326 1.530 . S
C6161 C415 1.564 . S
C6181 C322 1.548 . S
C6187 C2253 1.564 . S
C6201 C815 1.591 . S
C6207 C2950 1.589 . S
C6221 C855 2.095 . S
C6227 C2989 2.072 . S
C6241 C882 1.596 . S
C6247 C3033 1.572 . S
C6261 C775 2.093 . S
C6267 C2911 2.067 . S
C6287 C2877 1.589 . S
C6281 C735 1.599 . S
C6307 C2760 2.042 . S
C6301 C602 2.024 . S
C6327 C2799 1.576 . S
C6321 C655 1.592 . S
C6341 C695 2.094 . S
C6347 C2833 2.068 . S
C6367 C3540 1.584 . S
C6361 C682 1.603 . S
C6381 C722 2.104 . S
C6387 C3691 2.133 . S
C6401 C615 1.578 . S
C6407 C3496 1.549 . S
C6427 C3735 2.094 . S
C6421 C642 2.071 . S
C6441 C842 1.593 . S
C6447 C3774 1.575 . S
C6467 C3384 2.095 . S
C6461 C895 2.129 . S
C6481 C762 1.592 . S
C6487 C3418 1.566 . S
C6501 C802 2.056 . S
C6507 C3457 2.087 . S
C6521 C1895 1.599 . S
C6527 C3730 1.581 . S
C6547 C3262 1.585 . S
C6541 C935 1.605 . S
C6561 C962 2.082 . S
C6567 C3306 2.102 . S
C6581 C1002 1.595 . S
C6587 C3345 1.569 . S
C6601 C1882 2.041 . S
C6607 C3769 2.074 . S
C6621 C1802 1.630 . S
C6627 C3696 1.611 . S
C6647 C3150 2.119 . S
C6641 C1015 2.148 . S
C6667 C3067 2.116 . S
C6661 C922 2.087 . S
