# Generated by pormake.
# Topology pyr, (3,6)-cn, num edge types: 1
# Building blocks:
#     Node 0, Type 0, BuildingBlock: KAKCAD_clean_linker_0, # of connection points: 3
#     Node 1, Type 0, BuildingBlock: KAKCAD_clean_linker_0, # of connection points: 3
#     Node 2, Type 0, BuildingBlock: KAKCAD_clean_linker_0, # of connection points: 3
#     Node 3, Type 0, BuildingBlock: KAKCAD_clean_linker_0, # of connection points: 3
#     Node 4, Type 0, BuildingBlock: KAKCAD_clean_linker_0, # of connection points: 3
#     Node 5, Type 0, BuildingBlock: KAKCAD_clean_linker_0, # of connection points: 3
#     Node 6, Type 0, BuildingBlock: KAKCAD_clean_linker_0, # of connection points: 3
#     Node 7, Type 0, BuildingBlock: KAKCAD_clean_linker_0, # of connection points: 3
#     Node 8, Type 1, BuildingBlock: GEDQOX_clean_sbu_0, # of connection points: 6
#     Node 9, Type 1, BuildingBlock: GEDQOX_clean_sbu_0, # of connection points: 6
#     Node 10, Type 1, BuildingBlock: GEDQOX_clean_sbu_0, # of connection points: 6
#     Node 11, Type 1, BuildingBlock: GEDQOX_clean_sbu_0, # of connection points: 6
#     Edge 12, Type (0, 1), BuildingBlock: TEMPAE_clean_linker_10, # of connection points: 2
#     Edge 13, Type (0, 1), BuildingBlock: TEMPAE_clean_linker_10, # of connection points: 2
#     Edge 14, Type (0, 1), BuildingBlock: TEMPAE_clean_linker_10, # of connection points: 2
#     Edge 15, Type (0, 1), BuildingBlock: TEMPAE_clean_linker_10, # of connection points: 2
#     Edge 16, Type (0, 1), BuildingBlock: TEMPAE_clean_linker_10, # of connection points: 2
#     Edge 17, Type (0, 1), BuildingBlock: TEMPAE_clean_linker_10, # of connection points: 2
#     Edge 18, Type (0, 1), BuildingBlock: TEMPAE_clean_linker_10, # of connection points: 2
#     Edge 19, Type (0, 1), BuildingBlock: TEMPAE_clean_linker_10, # of connection points: 2
#     Edge 20, Type (0, 1), BuildingBlock: TEMPAE_clean_linker_10, # of connection points: 2
#     Edge 21, Type (0, 1), BuildingBlock: TEMPAE_clean_linker_10, # of connection points: 2
#     Edge 22, Type (0, 1), BuildingBlock: TEMPAE_clean_linker_10, # of connection points: 2
#     Edge 23, Type (0, 1), BuildingBlock: TEMPAE_clean_linker_10, # of connection points: 2
#     Edge 24, Type (0, 1), BuildingBlock: TEMPAE_clean_linker_10, # of connection points: 2
#     Edge 25, Type (0, 1), BuildingBlock: TEMPAE_clean_linker_10, # of connection points: 2
#     Edge 26, Type (0, 1), BuildingBlock: TEMPAE_clean_linker_10, # of connection points: 2
#     Edge 27, Type (0, 1), BuildingBlock: TEMPAE_clean_linker_10, # of connection points: 2
#     Edge 28, Type (0, 1), BuildingBlock: TEMPAE_clean_linker_10, # of connection points: 2
#     Edge 29, Type (0, 1), BuildingBlock: TEMPAE_clean_linker_10, # of connection points: 2
#     Edge 30, Type (0, 1), BuildingBlock: TEMPAE_clean_linker_10, # of connection points: 2
#     Edge 31, Type (0, 1), BuildingBlock: TEMPAE_clean_linker_10, # of connection points: 2
#     Edge 32, Type (0, 1), BuildingBlock: TEMPAE_clean_linker_10, # of connection points: 2
#     Edge 33, Type (0, 1), BuildingBlock: TEMPAE_clean_linker_10, # of connection points: 2
#     Edge 34, Type (0, 1), BuildingBlock: TEMPAE_clean_linker_10, # of connection points: 2
#     Edge 35, Type (0, 1), BuildingBlock: TEMPAE_clean_linker_10, # of connection points: 2
# Relax obj value: 0.102
# Max RMSD: 0.152
# Mean RMSD: 0.061
data_MOF--net-pyr--node1-GEDQOX_clean_sbu_0--node2-KAKCAD_clean_linker_0--edge1-TEMPAE_clean_linker_10
_symmetry_space_group_name_H-M    P1
_symmetry_Int_Tables_number       1
_symmetry_cell_setting            triclinic
loop_
_symmetry_equiv_pos_as_xyz
'x, y, z'
_cell_length_a     49.540841
_cell_length_b     48.907156
_cell_length_c     43.218323
_cell_angle_alpha  88.086614
_cell_angle_beta   90.879253
_cell_angle_gamma 86.939899
loop_
_atom_site_label
_atom_site_type_symbol
_atom_site_fract_x
_atom_site_fract_y
_atom_site_fract_z
_atom_type_partial_charge
C0 C 0.12528 0.14828 0.25102 0.0
C1 C 0.14007 0.13596 0.2765 0.0
C2 C 0.13832 0.16059 0.22565 0.0
C3 C 0.16679 0.161 0.22441 0.0
C4 C 0.18162 0.14838 0.2497 0.0
C5 C 0.16856 0.13627 0.27523 0.0
C6 C 0.18077 0.17507 0.1974 0.0
C7 C 0.1693 0.19973 0.18346 0.0
C8 C 0.18205 0.21384 0.15908 0.0
C9 C 0.20708 0.20247 0.14826 0.0
C10 C 0.21918 0.17723 0.16079 0.0
C11 C 0.20555 0.16409 0.18556 0.0
C12 C 0.24567 0.16436 0.14801 0.0
C13 C 0.25336 0.16875 0.11686 0.0
C14 C 0.2636 0.14703 0.16667 0.0
C15 C 0.28758 0.13452 0.15478 0.0
C16 C 0.29516 0.13885 0.12367 0.0
C17 C 0.16882 0.24047 0.1453 0.0
C18 C 0.14134 0.24217 0.13584 0.0
C19 C 0.18292 0.26477 0.1427 0.0
C20 C 0.16986 0.28985 0.13178 0.0
C21 C 0.14238 0.29148 0.1222 0.0
C22 C 0.12851 0.26702 0.12415 0.0
C23 C 0.27751 0.15643 0.10506 0.0
H24 H 0.1034 0.14888 0.25081 0.0
H25 H 0.1259 0.16968 0.20679 0.0
H26 H 0.20348 0.14828 0.25013 0.0
H27 H 0.18095 0.12687 0.29394 0.0
H28 H 0.15059 0.20862 0.19231 0.0
H29 H 0.21376 0.14467 0.19523 0.0
H30 H 0.21701 0.2134 0.12987 0.0
H31 H 0.24044 0.18134 0.10109 0.0
H32 H 0.25946 0.14325 0.19088 0.0
H33 H 0.30049 0.1217 0.17036 0.0
H34 H 0.12966 0.22408 0.13739 0.0
H35 H 0.20398 0.26455 0.14987 0.0
H36 H 0.28203 0.1603 0.08093 0.0
H37 H 0.10739 0.26721 0.11725 0.0
H38 H 0.18141 0.30803 0.13059 0.0
C39 C 0.37839 0.83171 0.86096 0.0
C40 C 0.40386 0.84251 0.8563 0.0
C41 C 0.36771 0.81408 0.83967 0.0
C42 C 0.38241 0.80649 0.81349 0.0
C43 C 0.40815 0.81656 0.80923 0.0
C44 C 0.41867 0.83449 0.83025 0.0
C45 C 0.37034 0.78942 0.78972 0.0
C46 C 0.34423 0.79651 0.77779 0.0
C47 C 0.33348 0.78212 0.75335 0.0
C48 C 0.34846 0.75967 0.74186 0.0
C49 C 0.3744 0.75206 0.75367 0.0
C50 C 0.38541 0.76723 0.77739 0.0
C51 C 0.39027 0.72939 0.73938 0.0
C52 C 0.37823 0.70467 0.73349 0.0
C53 C 0.41651 0.73324 0.72882 0.0
C54 C 0.42991 0.71329 0.71136 0.0
C55 C 0.41741 0.68901 0.70445 0.0
C56 C 0.3079 0.79203 0.73759 0.0
C57 C 0.28437 0.79796 0.75439 0.0
C58 C 0.30722 0.79611 0.70526 0.0
C59 C 0.2836 0.8062 0.68999 0.0
C60 C 0.26007 0.81218 0.70668 0.0
C61 C 0.26051 0.80772 0.73898 0.0
C62 C 0.3917 0.68463 0.71632 0.0
H63 H 0.3666 0.83693 0.88101 0.0
H64 H 0.3479 0.80641 0.84362 0.0
H65 H 0.41975 0.81135 0.78901 0.0
H66 H 0.4381 0.84271 0.82549 0.0
H67 H 0.33296 0.81428 0.78624 0.0
H68 H 0.40561 0.76172 0.78631 0.0
H69 H 0.34023 0.74867 0.72281 0.0
H70 H 0.35806 0.70115 0.74151 0.0
H71 H 0.42617 0.75219 0.73285 0.0
H72 H 0.44984 0.71706 0.70276 0.0
H73 H 0.28443 0.79493 0.77933 0.0
H74 H 0.32516 0.79197 0.69179 0.0
H75 H 0.38152 0.66621 0.71124 0.0
H76 H 0.24259 0.81234 0.75231 0.0
H77 H 0.28371 0.80936 0.66506 0.0
C78 C 0.79913 0.46303 0.88627 0.0
C79 C 0.81856 0.44404 0.89972 0.0
C80 C 0.77428 0.45443 0.87556 0.0
C81 C 0.76828 0.42669 0.87825 0.0
C82 C 0.78771 0.40774 0.89176 0.0
C83 C 0.81255 0.41631 0.90234 0.0
C84 C 0.74194 0.41736 0.86698 0.0
C85 C 0.73086 0.42706 0.83817 0.0
C86 C 0.70678 0.41693 0.82689 0.0
C87 C 0.69336 0.39772 0.84479 0.0
C88 C 0.70366 0.38836 0.87384 0.0
C89 C 0.72809 0.39806 0.8847 0.0
C90 C 0.68907 0.36771 0.89192 0.0
C91 C 0.66079 0.37044 0.89408 0.0
C92 C 0.70287 0.34402 0.90468 0.0
C93 C 0.68846 0.3227 0.91753 0.0
C94 C 0.66005 0.32477 0.91781 0.0
C95 C 0.69529 0.42571 0.79622 0.0
C96 C 0.68545 0.45285 0.79048 0.0
C97 C 0.6912 0.4061 0.77387 0.0
C98 C 0.67666 0.41326 0.74662 0.0
C99 C 0.66555 0.44008 0.7415 0.0
C100 C 0.67048 0.45995 0.76339 0.0
C101 C 0.64644 0.3492 0.90688 0.0
H102 H 0.80327 0.4845 0.88368 0.0
H103 H 0.75966 0.46953 0.86545 0.0
H104 H 0.78384 0.38618 0.89386 0.0
H105 H 0.82699 0.40123 0.91284 0.0
H106 H 0.7414 0.44163 0.82403 0.0
H107 H 0.73611 0.39087 0.90717 0.0
H108 H 0.67485 0.38983 0.83582 0.0
H109 H 0.64969 0.38872 0.88497 0.0
H110 H 0.72465 0.34133 0.9032 0.0
H111 H 0.69946 0.30403 0.92564 0.0
H112 H 0.68821 0.4682 0.80759 0.0
H113 H 0.69855 0.385 0.77799 0.0
H114 H 0.62458 0.35154 0.90734 0.0
H115 H 0.66223 0.4808 0.75985 0.0
H116 H 0.673 0.39753 0.73023 0.0
C117 C 0.81478 0.77427 0.18539 0.0
C118 C 0.84195 0.77228 0.1764 0.0
C119 C 0.80754 0.78713 0.21261 0.0
C120 C 0.82737 0.79777 0.23176 0.0
C121 C 0.85393 0.79861 0.22095 0.0
C122 C 0.86107 0.78625 0.19335 0.0
C123 C 0.82134 0.80355 0.26458 0.0
C124 C 0.80567 0.78541 0.28153 0.0
C125 C 0.80221 0.78791 0.3134 0.0
C126 C 0.81416 0.80926 0.32842 0.0
C127 C 0.83068 0.82718 0.31227 0.0
C128 C 0.83382 0.82443 0.28016 0.0
C129 C 0.84633 0.84708 0.32955 0.0
C130 C 0.85153 0.87294 0.31644 0.0
C131 C 0.85685 0.8399 0.35932 0.0
C132 C 0.87178 0.85813 0.3757 0.0
C133 C 0.87726 0.88386 0.36254 0.0
C134 C 0.78855 0.76646 0.33134 0.0
C135 C 0.76494 0.75551 0.3197 0.0
C136 C 0.80019 0.75538 0.35919 0.0
C137 C 0.78877 0.73349 0.37474 0.0
C138 C 0.76548 0.72219 0.36278 0.0
C139 C 0.75353 0.73359 0.33526 0.0
C140 C 0.86695 0.89105 0.33266 0.0
H141 H 0.7994 0.76393 0.17296 0.0
H142 H 0.78671 0.7869 0.21984 0.0
H143 H 0.86974 0.80677 0.23491 0.0
H144 H 0.88202 0.78592 0.18653 0.0
H145 H 0.79762 0.76803 0.2703 0.0
H146 H 0.84684 0.83776 0.26751 0.0
H147 H 0.81101 0.81147 0.35298 0.0
H148 H 0.84361 0.87928 0.29368 0.0
H149 H 0.85391 0.81997 0.37001 0.0
H150 H 0.87888 0.85199 0.39885 0.0
H151 H 0.75547 0.7637 0.29836 0.0
H152 H 0.81861 0.76311 0.36852 0.0
H153 H 0.87101 0.91056 0.32161 0.0
H154 H 0.73566 0.72521 0.32537 0.0
H155 H 0.79822 0.72536 0.39613 0.0
C156 C 0.88866 0.88996 0.76077 0.0
C157 C 0.89505 0.91773 0.76098 0.0
C158 C 0.87596 0.87731 0.78616 0.0
C159 C 0.8685 0.89207 0.81252 0.0
C160 C 0.87442 0.91999 0.81252 0.0
C161 C 0.88777 0.93248 0.78743 0.0
C162 C 0.85526 0.87813 0.83995 0.0
C163 C 0.86626 0.85271 0.85232 0.0
C164 C 0.85456 0.83874 0.87769 0.0
C165 C 0.83061 0.85105 0.89042 0.0
C166 C 0.81871 0.87665 0.87869 0.0
C167 C 0.83171 0.88991 0.85363 0.0
C168 C 0.79263 0.88949 0.89211 0.0
C169 C 0.77125 0.87345 0.90199 0.0
C170 C 0.78847 0.91816 0.89464 0.0
C171 C 0.76418 0.93018 0.90631 0.0
C172 C 0.74254 0.91424 0.91582 0.0
C173 C 0.86775 0.81152 0.89058 0.0
C174 C 0.88145 0.79291 0.87107 0.0
C175 C 0.86772 0.80401 0.92247 0.0
C176 C 0.88112 0.77936 0.93425 0.0
C177 C 0.89512 0.76095 0.91471 0.0
C178 C 0.89481 0.76836 0.8828 0.0
C179 C 0.74682 0.88549 0.91338 0.0
H180 H 0.89396 0.87776 0.74109 0.0
H181 H 0.87175 0.85586 0.78503 0.0
H182 H 0.86921 0.93211 0.8323 0.0
H183 H 0.89213 0.95389 0.78859 0.0
H184 H 0.88471 0.84418 0.84251 0.0
H185 H 0.82297 0.90913 0.84391 0.0
H186 H 0.82115 0.84067 0.90957 0.0
H187 H 0.77306 0.8514 0.90022 0.0
H188 H 0.80426 0.93153 0.88796 0.0
H189 H 0.76268 0.95221 0.90818 0.0
H190 H 0.88185 0.79716 0.84635 0.0
H191 H 0.85777 0.81746 0.93864 0.0
H192 H 0.73102 0.87202 0.91968 0.0
H193 H 0.90537 0.75541 0.86661 0.0
H194 H 0.88026 0.77471 0.95886 0.0
C195 C 0.67 0.19031 0.18784 0.0
C196 C 0.64783 0.20122 0.17001 0.0
C197 C 0.68293 0.20639 0.20897 0.0
C198 C 0.67423 0.23395 0.2126 0.0
C199 C 0.65217 0.24498 0.19447 0.0
C200 C 0.63903 0.22873 0.17349 0.0
C201 C 0.6877 0.25057 0.23604 0.0
C202 C 0.71575 0.24678 0.24164 0.0
C203 C 0.72835 0.25949 0.26627 0.0
C204 C 0.71268 0.27737 0.28438 0.0
C205 C 0.68484 0.2822 0.27865 0.0
C206 C 0.67246 0.26871 0.25444 0.0
C207 C 0.66875 0.30055 0.29898 0.0
C208 C 0.67335 0.29926 0.33119 0.0
C209 C 0.6495 0.32013 0.28638 0.0
C210 C 0.63575 0.33854 0.30552 0.0
C211 C 0.64091 0.33767 0.33767 0.0
C212 C 0.75712 0.25213 0.27516 0.0
C213 C 0.76772 0.22502 0.27288 0.0
C214 C 0.77338 0.27135 0.28878 0.0
C215 C 0.79857 0.26317 0.30203 0.0
C216 C 0.80838 0.23568 0.30144 0.0
C217 C 0.79312 0.217 0.28552 0.0
C218 C 0.65968 0.31762 0.35027 0.0
H219 H 0.67691 0.16903 0.1861 0.0
H220 H 0.69935 0.19691 0.22304 0.0
H221 H 0.64509 0.26617 0.19641 0.0
H222 H 0.62205 0.2377 0.15989 0.0
H223 H 0.72776 0.23352 0.227 0.0
H224 H 0.65076 0.27137 0.25095 0.0
H225 H 0.722 0.28712 0.30365 0.0
H226 H 0.68772 0.28412 0.34171 0.0
H227 H 0.64556 0.32168 0.26164 0.0
H228 H 0.62114 0.35351 0.29513 0.0
H229 H 0.7559 0.2095 0.26277 0.0
H230 H 0.76628 0.29258 0.29024 0.0
H231 H 0.66433 0.31649 0.37486 0.0
H232 H 0.80033 0.19582 0.2838 0.0
H233 H 0.80964 0.2782 0.31408 0.0
C234 C 0.22708 0.60334 0.17805 0.0
C235 C 0.22355 0.60087 0.14595 0.0
C236 C 0.25165 0.61117 0.19031 0.0
C237 C 0.27313 0.61693 0.17071 0.0
C238 C 0.2698 0.61392 0.13866 0.0
C239 C 0.24529 0.60581 0.12641 0.0
C240 C 0.29827 0.62768 0.18355 0.0
C241 C 0.31064 0.61581 0.21072 0.0
C242 C 0.33311 0.6275 0.22407 0.0
C243 C 0.34333 0.6509 0.21005 0.0
C244 C 0.33149 0.66281 0.18284 0.0
C245 C 0.30909 0.65098 0.16953 0.0
C246 C 0.34252 0.68789 0.16896 0.0
C247 C 0.34932 0.70927 0.18803 0.0
C248 C 0.34763 0.69012 0.13711 0.0
C249 C 0.36022 0.71291 0.1248 0.0
C250 C 0.36768 0.73394 0.1441 0.0
C251 C 0.34645 0.61569 0.25265 0.0
C252 C 0.35008 0.63234 0.27807 0.0
C253 C 0.35835 0.58899 0.25342 0.0
C254 C 0.37486 0.57962 0.27857 0.0
C255 C 0.37933 0.59669 0.3035 0.0
C256 C 0.3662 0.62286 0.30337 0.0
C257 C 0.36176 0.732 0.17576 0.0
H258 H 0.21074 0.59938 0.19368 0.0
H259 H 0.25353 0.61355 0.21507 0.0
H260 H 0.28608 0.61808 0.12303 0.0
H261 H 0.2431 0.60415 0.10158 0.0
H262 H 0.30262 0.59777 0.22167 0.0
H263 H 0.2994 0.66061 0.14898 0.0
H264 H 0.36096 0.65962 0.22017 0.0
H265 H 0.34534 0.70824 0.21261 0.0
H266 H 0.34268 0.67386 0.12193 0.0
H267 H 0.36436 0.71397 0.10026 0.0
H268 H 0.34112 0.65305 0.27788 0.0
H269 H 0.35597 0.57591 0.23393 0.0
H270 H 0.36751 0.74768 0.19132 0.0
H271 H 0.36944 0.6365 0.32215 0.0
H272 H 0.38464 0.55929 0.27825 0.0
C273 C 0.18069 0.15393 0.71409 0.0
C274 C 0.16881 0.15805 0.68453 0.0
C275 C 0.19522 0.17453 0.72718 0.0
C276 C 0.19765 0.1998 0.71113 0.0
C277 C 0.18557 0.20372 0.6815 0.0
C278 C 0.17156 0.18297 0.66825 0.0
C279 C 0.21162 0.22252 0.72553 0.0
C280 C 0.22581 0.24094 0.70702 0.0
C281 C 0.23602 0.26441 0.71957 0.0
C282 C 0.23329 0.2687 0.75125 0.0
C283 C 0.21976 0.25034 0.77037 0.0
C284 C 0.20893 0.22729 0.75732 0.0
C285 C 0.21415 0.25762 0.8028 0.0
C286 C 0.23376 0.27016 0.8205 0.0
C287 C 0.18795 0.25602 0.81446 0.0
C288 C 0.1808 0.26922 0.84152 0.0
C289 C 0.19962 0.28455 0.85719 0.0
C290 C 0.24768 0.2856 0.69929 0.0
C291 C 0.26654 0.27834 0.67667 0.0
C292 C 0.23975 0.31339 0.70245 0.0
C293 C 0.25086 0.33357 0.68381 0.0
C294 C 0.27014 0.3264 0.66163 0.0
C295 C 0.27773 0.29857 0.65806 0.0
C296 C 0.22654 0.28363 0.84735 0.0
H297 H 0.17885 0.13474 0.72695 0.0
H298 H 0.20453 0.17064 0.74984 0.0
H299 H 0.18625 0.22308 0.66873 0.0
H300 H 0.16219 0.18669 0.64557 0.0
H301 H 0.22803 0.23764 0.68251 0.0
H302 H 0.19752 0.21371 0.77174 0.0
H303 H 0.24081 0.28711 0.76078 0.0
H304 H 0.25429 0.27118 0.81244 0.0
H305 H 0.17234 0.2465 0.80147 0.0
H306 H 0.16003 0.26902 0.84897 0.0
H307 H 0.27298 0.25709 0.67374 0.0
H308 H 0.22488 0.31955 0.71933 0.0
H309 H 0.24158 0.29517 0.85884 0.0
H310 H 0.29236 0.29245 0.6409 0.0
H311 H 0.24478 0.35485 0.68725 0.0
Nd312 Nd 0.03704 1.00197 0.51973 0.0
Nd313 Nd 1.00276 0.05285 0.52427 0.0
C314 C 0.06468 0.95547 0.5109 0.0
C315 C 0.08038 0.93695 0.53287 0.0
C316 C 0.08044 0.90844 0.53028 0.0
C317 C 0.09526 0.89109 0.55156 0.0
C318 C 0.11018 0.90205 0.57578 0.0
C319 C 0.10983 0.93065 0.57826 0.0
C320 C 0.09501 0.94785 0.5572 0.0
C321 C 0.05351 0.03423 0.56672 0.0
C322 C 0.99306 1.00482 0.57547 0.0
C323 C 0.98159 0.1037 0.52491 0.0
C324 C 0.97188 0.12274 0.49973 0.0
C325 C 0.96636 0.15054 0.50511 0.0
C326 C 0.95521 0.16806 0.48143 0.0
C327 C 0.94925 0.15793 0.45209 0.0
C328 C 0.95583 0.13017 0.44666 0.0
C329 C 0.96715 0.11281 0.47019 0.0
C330 C 0.97828 1.01233 0.49353 0.0
C331 C 0.04467 0.05019 0.46521 0.0
O332 O 0.03841 0.95683 0.51433 0.0
O333 O 0.07452 0.97952 0.50596 0.0
O334 O 0.05439 1.00781 0.56857 0.0
O335 O 0.04552 0.04271 0.54022 0.0
O336 O 1.00409 0.98871 0.55443 0.0
O337 O 0.99447 0.03176 0.572 0.0
O338 O 1.00757 0.09773 0.52602 0.0
O339 O 0.96753 0.0821 0.5289 0.0
O340 O 0.96605 0.02777 0.51325 0.0
O341 O 1.00224 1.01885 0.48993 0.0
O342 O 0.02428 0.06392 0.47824 0.0
O343 O 0.05345 0.02587 0.47694 0.0
H344 H 0.06907 0.89964 0.51183 0.0
H345 H 0.09496 0.86914 0.54914 0.0
H346 H 0.12152 0.93989 0.59613 0.0
H347 H 0.09527 0.96978 0.55986 0.0
H348 H 0.97015 0.15855 0.52775 0.0
H349 H 0.95079 0.1894 0.48628 0.0
H350 H 0.95116 0.12145 0.42464 0.0
H351 H 0.9714 0.09137 0.4656 0.0
Nd352 Nd 0.51951 1.0084 0.04351 0.0
Nd353 Nd 0.51475 0.04116 0.99177 0.0
C354 C 0.52495 0.96632 0.08379 0.0
C355 C 0.5117 0.94022 0.08777 0.0
C356 C 0.50586 0.92441 0.06219 0.0
C357 C 0.49165 0.90067 0.06602 0.0
C358 C 0.48301 0.89228 0.0955 0.0
C359 C 0.48934 0.90788 0.12114 0.0
C360 C 0.50355 0.93165 0.11728 0.0
C361 C 0.47554 0.04623 0.04951 0.0
C362 C 0.48439 0.98755 0.98457 0.0
C363 C 0.51054 0.08392 0.95264 0.0
C364 C 0.52709 0.10786 0.94966 0.0
C365 C 0.51486 0.13365 0.94158 0.0
C366 C 0.53004 0.15693 0.9417 0.0
C367 C 0.55768 0.1547 0.94983 0.0
C368 C 0.5699 0.12879 0.95773 0.0
C369 C 0.55469 0.10559 0.95784 0.0
C370 C 0.55921 1.00379 0.98626 0.0
C371 C 0.5499 0.06253 0.05003 0.0
O372 O 0.54003 0.96899 0.0595 0.0
O373 O 0.50994 0.9884 0.08869 0.0
O374 O 0.49467 0.04109 0.07001 0.0
O375 O 0.48069 0.03254 0.02545 0.0
O376 O 0.49933 0.98012 1.00915 0.0
O377 O 0.48352 1.01302 0.97418 0.0
O378 O 0.49685 0.08241 0.9781 0.0
O379 O 0.52217 0.0604 0.94568 0.0
O380 O 0.54034 1.00887 0.96544 0.0
O381 O 0.55362 1.01745 1.01018 0.0
O382 O 0.53499 0.06969 0.02542 0.0
O383 O 0.55051 0.03719 0.0609 0.0
H384 H 0.51197 0.93052 0.03914 0.0
H385 H 0.48738 0.88891 0.04588 0.0
H386 H 0.48268 0.90213 0.14409 0.0
H387 H 0.50774 0.94363 0.13726 0.0
H388 H 0.4935 0.13582 0.93566 0.0
H389 H 0.52022 0.17667 0.93527 0.0
H390 H 0.59109 0.12658 0.96445 0.0
H391 H 0.56439 0.08594 0.96492 0.0
Nd392 Nd 0.50076 0.5 0.51484 0.0
Nd393 Nd 0.5536 0.53111 0.51943 0.0
C394 C 0.45117 0.48548 0.50316 0.0
C395 C 0.42637 0.4796 0.51946 0.0
C396 C 0.40216 0.47836 0.50256 0.0
C397 C 0.37914 0.46915 0.51698 0.0
C398 C 0.38011 0.46095 0.5485 0.0
C399 C 0.40411 0.46378 0.5657 0.0
C400 C 0.42706 0.4731 0.55128 0.0
C401 C 0.53509 0.48285 0.56307 0.0
C402 C 0.50242 0.55446 0.55749 0.0
C403 C 0.60312 0.5467 0.52934 0.0
C404 C 0.62618 0.55472 0.51108 0.0
C405 C 0.65089 0.55858 0.52597 0.0
C406 C 0.67188 0.56993 0.50957 0.0
C407 C 0.6683 0.57772 0.47808 0.0
C408 C 0.64393 0.57229 0.46289 0.0
C409 C 0.62303 0.56083 0.47928 0.0
C410 C 0.51913 0.54788 0.4711 0.0
C411 C 0.55242 0.47565 0.47846 0.0
O412 O 0.45789 0.51101 0.50208 0.0
O413 O 0.47176 0.46795 0.50848 0.0
O414 O 0.51906 0.46649 0.54974 0.0
O415 O 0.53017 0.507 0.55327 0.0
O416 O 0.48725 0.53961 0.53979 0.0
O417 O 0.52905 0.551 0.55782 0.0
O418 O 0.59724 0.52095 0.52869 0.0
O419 O 0.58178 0.56366 0.52729 0.0
O420 O 0.53462 0.56451 0.48478 0.0
O421 O 0.52444 0.52383 0.48093 0.0
O422 O 0.56733 0.49087 0.496 0.0
O423 O 0.5258 0.47908 0.47758 0.0
H424 H 0.40134 0.48352 0.47797 0.0
H425 H 0.36086 0.46756 0.50324 0.0
H426 H 0.40565 0.45734 0.58991 0.0
H427 H 0.44565 0.47406 0.56465 0.0
H428 H 0.6536 0.5538 0.55053 0.0
H429 H 0.69056 0.57351 0.52177 0.0
H430 H 0.64039 0.57832 0.43877 0.0
H431 H 0.60398 0.5579 0.4675 0.0
Nd432 Nd 0.99772 0.52345 0.04292 0.0
Nd433 Nd 0.04225 0.53136 0.99812 0.0
C434 C 0.9499 0.52594 0.06848 0.0
C435 C 0.93364 0.55129 0.07377 0.0
C436 C 0.90538 0.55165 0.0752 0.0
C437 C 0.89038 0.57657 0.07797 0.0
C438 C 0.90352 0.60139 0.07895 0.0
C439 C 0.93184 0.60075 0.07733 0.0
C440 C 0.94668 0.57602 0.07475 0.0
C441 C 0.04184 0.54689 0.06746 0.0
C442 C 0.99666 0.58107 0.9972 0.0
C443 C 0.08998 0.5293 0.9724 0.0
C444 C 0.10589 0.50411 0.9656 0.0
C445 C 0.13415 0.50345 0.96431 0.0
C446 C 0.14881 0.47856 0.96011 0.0
C447 C 0.13531 0.45408 0.95746 0.0
C448 C 0.10698 0.45503 0.95889 0.0
C449 C 0.09247 0.47972 0.96302 0.0
C450 C 0.99829 0.50735 0.97379 0.0
C451 C 0.04324 0.47353 0.0437 0.0
O452 O 0.95324 0.52058 0.0393 0.0
O453 O 0.97243 0.52277 0.08475 0.0
O454 O 0.02806 0.52914 0.08251 0.0
O455 O 0.03133 0.55287 0.0412 0.0
O456 O 0.98314 0.56326 1.01392 0.0
O457 O 0.02239 0.57526 0.99083 0.0
O458 O 0.08681 0.53334 1.00192 0.0
O459 O 0.06744 0.5335 0.9563 0.0
O460 O 1.01194 0.52506 0.95849 0.0
O461 O 1.0089 0.50172 1.00005 0.0
O462 O 0.05669 0.49111 0.02651 0.0
O463 O 1.01764 0.47961 0.05058 0.0
H464 H 0.89497 0.53279 0.07391 0.0
H465 H 0.86856 0.57648 0.07908 0.0
H466 H 0.94265 0.61936 0.07864 0.0
H467 H 0.96849 0.57627 0.07332 0.0
H468 H 0.14483 0.52202 0.96685 0.0
H469 H 0.17065 0.47841 0.95924 0.0
H470 H 0.09588 0.43673 0.95634 0.0
H471 H 0.07065 0.47971 0.96443 0.0
C472 C 0.13584 0.12514 0.33468 0.0
C473 C 0.12589 0.12309 0.30413 0.0
C474 C 0.12268 0.11355 0.36059 0.0
C475 C 0.09882 0.09907 0.35647 0.0
C476 C 0.08873 0.09677 0.32573 0.0
C477 C 0.10216 0.10876 0.30025 0.0
C478 C 0.13431 0.11701 0.3926 0.0
C479 C 0.06367 0.08142 0.31967 0.0
C480 C 0.07871 0.04776 0.42138 0.0
C481 C 0.05807 0.06245 0.43691 0.0
C482 C 0.09181 0.05921 0.39535 0.0
C483 C 0.08454 0.08632 0.38415 0.0
C484 C 0.06366 0.10122 0.39966 0.0
C485 C 0.05075 0.08921 0.42551 0.0
C486 C 0.11362 0.04217 0.37981 0.0
C487 C 0.05503 0.13012 0.38909 0.0
H488 H 0.15381 0.13634 0.33851 0.0
H489 H 0.09418 0.10647 0.27706 0.0
H490 H 0.11906 0.12768 0.40711 0.0
H491 H 0.13937 0.09664 0.4039 0.0
H492 H 0.15282 0.12887 0.39222 0.0
H493 H 0.0583 0.08125 0.29463 0.0
H494 H 0.06676 0.05994 0.32864 0.0
H495 H 0.04634 0.09086 0.33215 0.0
H496 H 0.08475 0.02713 0.42959 0.0
H497 H 0.03499 0.10103 0.43701 0.0
H498 H 0.13301 0.05247 0.38093 0.0
H499 H 0.10834 0.04025 0.35496 0.0
H500 H 0.11669 1.02131 0.39067 0.0
H501 H 0.07251 0.14333 0.39043 0.0
H502 H 0.03845 0.13905 0.40326 0.0
H503 H 0.04812 0.13051 0.36454 0.0
C504 C 0.44237 0.86278 0.88471 0.0
C505 C 0.41457 0.86277 0.87781 0.0
C506 C 0.45292 0.88284 0.90324 0.0
C507 C 0.43524 0.90316 0.91571 0.0
C508 C 0.40709 0.90275 0.90983 0.0
C509 C 0.39713 0.88276 0.89073 0.0
C510 C 0.48308 0.88261 0.90896 0.0
C511 C 0.38753 0.92366 0.92338 0.0
C512 C 0.46319 0.94236 0.98259 0.0
C513 C 0.47013 0.96676 0.96753 0.0
C514 C 0.45098 0.92181 0.96625 0.0
C515 C 0.44635 0.92546 0.93391 0.0
C516 C 0.45308 0.95021 0.91868 0.0
C517 C 0.46459 0.9707 0.93575 0.0
C518 C 0.44364 0.89603 0.98357 0.0
C519 C 0.44886 0.95474 0.88417 0.0
H520 H 0.456 0.84713 0.87549 0.0
H521 H 0.37567 0.88327 0.88535 0.0
H522 H 0.49092 0.90222 0.90028 0.0
H523 H 0.48761 0.88079 0.93417 0.0
H524 H 0.49411 0.86548 0.89746 0.0
H525 H 0.36613 0.91953 0.91818 0.0
H526 H 0.39048 0.92384 0.94889 0.0
H527 H 0.39149 0.94443 0.91401 0.0
H528 H 0.46723 0.93933 1.00721 0.0
H529 H 0.47012 0.98945 0.92397 0.0
H530 H 0.45907 0.87935 0.97934 0.0
H531 H 0.42378 0.88923 0.97555 0.0
H532 H 0.44284 0.899 1.00889 0.0
H533 H 0.46086 0.93886 0.87177 0.0
H534 H 0.45489 0.97525 0.8759 0.0
H535 H 0.42731 0.95268 0.87782 0.0
C536 C 0.62164 0.45925 0.7188 0.0
C537 C 0.64731 0.44664 0.71448 0.0
C538 C 0.60339 0.46415 0.69384 0.0
C539 C 0.61119 0.45663 0.66377 0.0
C540 C 0.63723 0.44417 0.65921 0.0
C541 C 0.65491 0.43909 0.68472 0.0
C542 C 0.5757 0.47719 0.69968 0.0
C543 C 0.64646 0.43641 0.6274 0.0
C544 C 0.55576 0.44946 0.60303 0.0
C545 C 0.55498 0.47532 0.58806 0.0
C546 C 0.57411 0.44295 0.62767 0.0
C547 C 0.59233 0.46263 0.63699 0.0
C548 C 0.592 0.48851 0.62133 0.0
C549 C 0.57312 0.49463 0.59731 0.0
C550 C 0.57365 0.41528 0.64414 0.0
C551 C 0.61136 0.50991 0.63015 0.0
H552 H 0.6156 0.4647 0.74189 0.0
H553 H 0.6748 0.4294 0.68138 0.0
H554 H 0.5729 0.49697 0.68642 0.0
H555 H 0.55988 0.46377 0.6915 0.0
H556 H 0.57249 0.481 0.72459 0.0
H557 H 0.66735 0.42693 0.62779 0.0
H558 H 0.63262 0.42179 0.61744 0.0
H559 H 0.64574 0.45487 0.61169 0.0
H560 H 0.54168 0.43455 0.59592 0.0
H561 H 0.57258 0.51467 0.58576 0.0
H562 H 0.56877 0.41794 0.66886 0.0
H563 H 0.59389 0.4045 0.64345 0.0
H564 H 0.55857 0.40212 0.63374 0.0
H565 H 0.60728 0.51646 0.65403 0.0
H566 H 0.60966 0.52829 0.61427 0.0
H567 H 0.63248 0.50117 0.62994 0.0
C568 C 0.83428 0.74647 0.12773 0.0
C569 C 0.85083 0.75195 0.15325 0.0
C570 C 0.84013 0.72365 0.10958 0.0
C571 C 0.86308 0.7061 0.11707 0.0
C572 C 0.88089 0.71269 0.14125 0.0
C573 C 0.87446 0.73535 0.15915 0.0
C574 C 0.82126 0.71767 0.08322 0.0
C575 C 0.90608 0.69493 0.14936 0.0
C576 C 0.86863 0.62984 0.10644 0.0
C577 C 0.88839 0.62789 0.08367 0.0
C578 C 0.85824 0.65549 0.11565 0.0
C579 C 0.86778 0.67965 0.10162 0.0
C580 C 0.88564 0.67771 0.07649 0.0
C581 C 0.89594 0.65184 0.06803 0.0
C582 C 0.83891 0.65669 0.14231 0.0
C583 C 0.89588 0.7027 0.06002 0.0
H584 H 0.81629 0.75949 0.12256 0.0
H585 H 0.88727 0.73898 0.17898 0.0
H586 H 0.83287 0.71435 0.06179 0.0
H587 H 0.81099 0.69853 0.08872 0.0
H588 H 0.80562 0.73452 0.07867 0.0
H589 H 0.91866 0.70383 0.16758 0.0
H590 H 0.90037 0.67437 0.15774 0.0
H591 H 0.91856 0.6921 0.12849 0.0
H592 H 0.86273 0.61145 0.11867 0.0
H593 H 0.911 0.6505 0.05017 0.0
H594 H 0.82196 0.67198 0.13714 0.0
H595 H 0.84971 0.66322 0.16328 0.0
H596 H 0.83048 0.6365 0.14763 0.0
H597 H 0.89731 0.6993 0.03481 0.0
H598 H 0.91652 0.70621 0.06886 0.0
H599 H 0.88281 0.72146 0.0633 0.0
C600 C 0.33028 0.09834 0.12049 0.0
C601 C 0.32113 0.12518 0.1109 0.0
C602 C 0.35445 0.08547 0.10914 0.0
C603 C 0.37074 0.0995 0.08762 0.0
C604 C 0.36161 0.12654 0.07774 0.0
C605 C 0.33717 0.13882 0.08918 0.0
C606 C 0.36264 0.05664 0.12038 0.0
C607 C 0.37802 0.14284 0.05536 0.0
C608 C 0.44681 0.07633 0.08439 0.0
C609 C 0.44867 0.06071 0.05758 0.0
C610 C 0.42206 0.08919 0.09392 0.0
C611 C 0.39773 0.08643 0.07669 0.0
C612 C 0.39945 0.07082 0.0494 0.0
C613 C 0.42468 0.05841 0.04013 0.0
C614 C 0.42197 0.10569 0.1228 0.0
C615 C 0.37443 0.0668 0.03017 0.0
H616 H 0.3183 0.08707 0.13676 0.0
H617 H 0.33096 0.15955 0.08155 0.0
H618 H 0.36549 0.04322 0.10036 0.0
H619 H 0.38228 0.05642 0.13309 0.0
H620 H 0.34744 0.04786 0.13592 0.0
H621 H 0.36811 0.16323 0.0491 0.0
H622 H 0.39823 0.14587 0.06573 0.0
H623 H 0.3813 0.13141 0.03388 0.0
H624 H 0.46495 0.07851 0.09823 0.0
H625 H 0.42549 0.04641 0.01951 0.0
H626 H 0.40882 0.09638 0.14035 0.0
H627 H 0.41349 0.1268 0.11744 0.0
H628 H 0.44254 0.10689 0.1331 0.0
H629 H 0.35942 0.0563 0.04446 0.0
H630 H 0.37884 0.05449 1.00952 0.0
H631 H 0.36493 0.08696 0.02237 0.0
C632 C 0.21067 0.81172 0.69352 0.0
C633 C 0.2355 0.82383 0.69017 0.0
C634 C 0.18773 0.82186 0.67637 0.0
C635 C 0.18974 0.84486 0.6559 0.0
C636 C 0.21468 0.8575 0.65308 0.0
C637 C 0.2373 0.84669 0.67009 0.0
C638 C 0.16155 0.80768 0.67964 0.0
C639 C 0.21757 0.88237 0.63194 0.0
C640 C 0.14316 0.86204 0.58686 0.0
C641 C 0.12725 0.8842 0.59766 0.0
C642 C 0.16239 0.8477 0.60632 0.0
C643 C 0.16599 0.85596 0.63714 0.0
C644 C 0.14884 0.87716 0.64872 0.0
C645 C 0.12953 0.89085 0.62891 0.0
C646 C 0.18001 0.82487 0.59329 0.0
C647 C 0.15208 0.88665 0.6814 0.0
H648 H 0.2094 0.79389 0.70893 0.0
H649 H 0.25648 0.85619 0.66777 0.0
H650 H 0.14514 0.82248 0.68642 0.0
H651 H 0.15552 0.79959 0.65701 0.0
H652 H 0.16317 0.79045 0.6971 0.0
H653 H 0.23819 0.8902 0.63312 0.0
H654 H 0.2131 0.87724 0.60765 0.0
H655 H 0.20277 0.89903 0.63819 0.0
H656 H 0.14165 0.85679 0.56276 0.0
H657 H 0.11683 0.9075 0.63766 0.0
H658 H 0.18148 0.80683 0.6096 0.0
H659 H 0.20076 0.83185 0.5901 0.0
H660 H 0.17222 0.8184 0.57058 0.0
H661 H 0.15304 0.86895 0.69816 0.0
H662 H 0.13531 0.90123 0.68787 0.0
H663 H 0.1714 0.89699 0.68362 0.0
C664 C 0.84658 0.47679 0.92793 0.0
C665 C 0.8451 0.45302 0.91084 0.0
C666 C 0.87155 0.48537 0.93867 0.0
C667 C 0.8956 0.46987 0.93203 0.0
C668 C 0.89423 0.44586 0.91481 0.0
C669 C 0.86901 0.43771 0.90445 0.0
C670 C 0.8722 0.51103 0.95711 0.0
C671 C 0.91945 0.42889 0.90711 0.0
C672 C 0.96163 0.50585 0.93387 0.0
C673 C 0.97256 0.49694 0.96279 0.0
C674 C 0.93665 0.49708 0.92352 0.0
C675 C 0.92226 0.47905 0.94262 0.0
C676 C 0.93331 0.46985 0.97178 0.0
C677 C 0.95842 0.47885 0.98149 0.0
C678 C 0.92557 0.50728 0.89224 0.0
C679 C 0.91852 0.4507 0.99284 0.0
H680 H 0.82815 0.4885 0.93326 0.0
H681 H 0.86802 0.41951 0.89092 0.0
H682 H 0.88194 0.50622 0.98008 0.0
H683 H 0.8845 0.52625 0.94503 0.0
H684 H 0.85166 0.52055 0.96067 0.0
H685 H 0.91488 0.41054 0.89389 0.0
H686 H 0.93311 0.4415 0.89322 0.0
H687 H 0.9306 0.42205 0.92869 0.0
H688 H 0.97252 0.51988 0.91939 0.0
H689 H 0.96685 0.47194 1.00387 0.0
H690 H 0.90585 0.51872 0.89499 0.0
H691 H 0.92191 0.48969 0.87746 0.0
H692 H 0.93946 0.52092 0.88002 0.0
H693 H 0.8985 0.46028 0.99861 0.0
H694 H 0.92993 0.44539 1.01474 0.0
H695 H 0.9148 0.43151 0.98085 0.0
C696 C 0.77045 0.67658 0.39107 0.0
C697 C 0.75371 0.69855 0.37896 0.0
C698 C 0.75953 0.65437 0.40696 0.0
C699 C 0.73124 0.65421 0.41078 0.0
C700 C 0.71422 0.67612 0.3982 0.0
C701 C 0.72567 0.69804 0.38248 0.0
C702 C 0.77824 0.6313 0.42001 0.0
C703 C 0.68392 0.67668 0.40188 0.0
C704 C 0.6942 0.59041 0.43078 0.0
C705 C 0.68835 0.59434 0.46202 0.0
C706 C 0.70955 0.60895 0.41408 0.0
C707 C 0.71924 0.63187 0.42907 0.0
C708 C 0.7149 0.63494 0.46107 0.0
C709 C 0.69945 0.61617 0.47714 0.0
C710 C 0.714 0.60488 0.38003 0.0
C711 C 0.72504 0.65906 0.4779 0.0
H712 H 0.79212 0.67669 0.38798 0.0
H713 H 0.71269 0.7151 0.37348 0.0
H714 H 0.77682 0.63014 0.44561 0.0
H715 H 0.77208 0.61143 0.41135 0.0
H716 H 0.79966 0.63396 0.41385 0.0
H717 H 0.67349 0.69475 0.38977 0.0
H718 H 0.67579 0.65784 0.39263 0.0
H719 H 0.67893 0.67711 0.42681 0.0
H720 H 0.68601 0.57332 0.41911 0.0
H721 H 0.69478 0.61956 0.50118 0.0
H722 H 0.7355 0.6073 0.37427 0.0
H723 H 0.70176 0.62075 0.36627 0.0
H724 H 0.70816 0.58439 0.37282 0.0
H725 H 0.7467 0.6616 0.47304 0.0
H726 H 0.7226 0.65682 0.50335 0.0
H727 H 0.71365 0.6781 0.46953 0.0
C728 C 0.13009 0.34269 0.12693 0.0
C729 C 0.12816 0.31841 0.11057 0.0
C730 C 0.1162 0.36772 0.11688 0.0
C731 C 0.10032 0.36924 0.08908 0.0
C732 C 0.09877 0.34489 0.07214 0.0
C733 C 0.11218 0.31995 0.08324 0.0
C734 C 0.11823 0.39254 0.1364 0.0
C735 C 0.08293 0.34516 0.04203 0.0
C736 C 0.04471 0.42758 0.07432 0.0
C737 C 0.0576 0.44669 0.05528 0.0
C738 C 0.05824 0.4027 0.08551 0.0
C739 C 0.08557 0.39614 0.07761 0.0
C740 C 0.09869 0.41539 0.05847 0.0
C741 C 0.08473 0.44011 0.04767 0.0
C742 C 0.04324 0.38343 0.10614 0.0
C743 C 0.12774 0.40997 0.04949 0.0
H744 H 0.14205 0.34199 0.14818 0.0
H745 H 0.11053 0.30161 0.0701 0.0
H746 H 0.12723 0.4093 0.12283 0.0
H747 H 0.09773 0.40017 0.14314 0.0
H748 H 0.13071 0.38809 0.15773 0.0
H749 H 0.08553 0.32544 0.03012 0.0
H750 H 0.06113 0.34926 0.04649 0.0
H751 H 0.08935 0.36188 0.02625 0.0
H752 H 0.02392 0.4321 0.08069 0.0
H753 H 0.09527 0.45441 0.03317 0.0
H754 H 0.05446 0.3796 0.12843 0.0
H755 H 0.04194 0.36339 0.09507 0.0
H756 H 0.02245 0.39159 0.11105 0.0
H757 H 0.13475 0.42597 0.0331 0.0
H758 H 0.1303 0.3897 0.03881 0.0
H759 H 0.14098 0.40926 0.07044 0.0
C760 C 0.62327 0.29339 0.90722 0.0
C761 C 0.64453 0.30068 0.92652 0.0
C762 C 0.60932 0.26976 0.91359 0.0
C763 C 0.61672 0.25304 0.94004 0.0
C764 C 0.63775 0.26057 0.96006 0.0
C765 C 0.65157 0.28427 0.95294 0.0
C766 C 0.58718 0.26229 0.89149 0.0
C767 C 0.64593 0.24335 0.98865 0.0
C768 C 0.56415 0.20317 0.96374 0.0
C769 C 0.57383 0.17929 0.94959 0.0
C770 C 0.5786 0.22706 0.96214 0.0
C771 C 0.60308 0.22707 0.94566 0.0
C772 C 0.61334 0.20274 0.93217 0.0
C773 C 0.59862 0.17908 0.93444 0.0
C774 C 0.56724 0.25251 0.97717 0.0
C775 C 0.63924 0.20201 0.91417 0.0
H776 H 0.61807 0.30575 0.88648 0.0
H777 H 0.66791 0.28997 0.96798 0.0
H778 H 0.59272 0.24234 0.88116 0.0
H779 H 0.56808 0.25989 0.90412 0.0
H780 H 0.5834 0.27792 0.87246 0.0
H781 H 0.66149 0.25294 1.00285 0.0
H782 H 0.62803 0.24003 1.00316 0.0
H783 H 0.65411 0.2229 0.98187 0.0
H784 H 0.54517 0.20317 0.9759 0.0
H785 H 0.60605 0.16065 0.92337 0.0
H786 H 0.56096 0.26827 0.95904 0.0
H787 H 0.58293 0.26129 0.99187 0.0
H788 H 0.54947 0.24838 0.99164 0.0
H789 H 0.63661 0.21562 0.89316 0.0
H790 H 0.64537 0.18104 0.90691 0.0
H791 H 0.65588 0.2098 0.92828 0.0
C792 C 0.88715 0.93134 0.37843 0.0
C793 C 0.89352 0.90301 0.38019 0.0
C794 C 0.90172 0.94941 0.3959 0.0
C795 C 0.92274 0.93885 0.41616 0.0
C796 C 0.92945 0.91037 0.41791 0.0
C797 C 0.91504 0.89287 0.39959 0.0
C798 C 0.89435 0.97977 0.39303 0.0
C799 C 0.9515 0.89832 0.43961 0.0
C800 C 0.97514 0.98605 0.44538 0.0
C801 C 0.96455 0.9931 0.47407 0.0
C802 C 0.96155 0.96864 0.42605 0.0
C803 C 0.93727 0.95751 0.43616 0.0
C804 C 0.92686 0.96413 0.46548 0.0
C805 C 0.94047 0.98218 0.48393 0.0
C806 C 0.97293 0.96251 0.39467 0.0
C807 C 0.90141 0.95207 0.47738 0.0
H808 H 0.87038 0.93942 0.36388 0.0
H809 H 0.92062 0.87113 0.40061 0.0
H810 H 0.88656 0.98711 0.41538 0.0
H811 H 0.91256 0.99119 0.38765 0.0
H812 H 0.87873 0.98484 0.37472 0.0
H813 H 0.9541 0.87568 0.43834 0.0
H814 H 0.97101 0.90729 0.43408 0.0
H815 H 0.94671 0.90348 0.4638 0.0
H816 H 0.99373 0.99466 0.43773 0.0
H817 H 0.93245 0.98754 0.50627 0.0
H818 H 0.95777 0.96882 0.37628 0.0
H819 H 0.97736 0.94015 0.3929 0.0
H820 H 0.99176 0.97321 0.39009 0.0
H821 H 0.88408 0.95834 0.46171 0.0
H822 H 0.89651 0.95863 0.50111 0.0
H823 H 0.90367 0.92937 0.47766 0.0
C824 C 0.44144 0.67808 0.65553 0.0
C825 C 0.43039 0.66899 0.68348 0.0
C826 C 0.45267 0.65943 0.6347 0.0
C827 C 0.45307 0.63099 0.64212 0.0
C828 C 0.44212 0.62168 0.67041 0.0
C829 C 0.43078 0.6408 0.69069 0.0
C830 C 0.46395 0.67013 0.60466 0.0
C831 C 0.44248 0.59154 0.6793 0.0
C832 C 0.46175 0.58104 0.57691 0.0
C833 C 0.48953 0.5739 0.57908 0.0
C834 C 0.44956 0.59959 0.5973 0.0
C835 C 0.4655 0.61105 0.62055 0.0
C836 C 0.49348 0.60372 0.62301 0.0
C837 C 0.50516 0.58537 0.60218 0.0
C838 C 0.41969 0.60711 0.59382 0.0
C839 C 0.51111 0.6153 0.64766 0.0
H840 H 0.44078 0.69983 0.64964 0.0
H841 H 0.4224 0.63372 0.71237 0.0
H842 H 0.48572 0.66378 0.60331 0.0
H843 H 0.45351 0.66121 0.58479 0.0
H844 H 0.4617 0.69283 0.60216 0.0
H845 H 0.43308 0.58767 0.70209 0.0
H846 H 0.43152 0.58042 0.66147 0.0
H847 H 0.46362 0.5828 0.6803 0.0
H848 H 0.44954 0.57232 0.5591 0.0
H849 H 0.52662 0.57987 0.6042 0.0
H850 H 0.41642 0.62953 0.5894 0.0
H851 H 0.40927 0.60195 0.61563 0.0
H852 H 0.41013 0.59636 0.5746 0.0
H853 H 0.51081 0.63793 0.64476 0.0
H854 H 0.53241 0.60706 0.64687 0.0
H855 H 0.50309 0.61051 0.67093 0.0
C856 C 0.90067 0.92775 0.70309 0.0
C857 C 0.9093 0.93107 0.73388 0.0
C858 C 0.91374 0.94007 0.67755 0.0
C859 C 0.93677 0.95568 0.68233 0.0
C860 C 0.94576 0.95884 0.71338 0.0
C861 C 0.93182 0.94695 0.73854 0.0
C862 C 0.90266 0.93653 0.64531 0.0
C863 C 0.97051 0.97447 0.72007 0.0
C864 C 0.98499 0.96516 0.61342 0.0
C865 C 0.97886 0.99242 0.60303 0.0
C866 C 0.97197 0.95327 0.63924 0.0
C867 C 0.95145 0.96848 0.655 0.0
C868 C 0.94496 0.99592 0.64434 0.0
C869 C 0.95889 1.00758 0.61903 0.0
C870 C 0.9804 0.92433 0.64985 0.0
C871 C 0.9229 1.01296 0.65943 0.0
H872 H 0.88324 0.91581 0.69893 0.0
H873 H 0.93901 0.94957 0.76201 0.0
H874 H 0.89805 0.95689 0.63376 0.0
H875 H 0.91803 0.92556 0.63124 0.0
H876 H 0.884 0.9249 0.64533 0.0
H877 H 0.97548 0.97456 0.74522 0.0
H878 H 0.98813 0.96527 0.70785 0.0
H879 H 0.96734 0.99597 0.71123 0.0
H880 H 1.00041 0.95313 0.60161 0.0
H881 H 0.95367 0.02854 0.61133 0.0
H882 H 0.96307 0.91103 0.64767 0.0
H883 H 0.98656 0.92383 0.67467 0.0
H884 H 0.99744 0.91556 0.63627 0.0
H885 H 0.90367 1.00234 0.65855 0.0
H886 H 0.91958 0.0336 0.64807 0.0
H887 H 0.92807 1.01546 0.6842 0.0
C888 C 0.60522 0.18263 0.14946 0.0
C889 C 0.63345 0.18341 0.14882 0.0
C890 C 0.5916 0.16393 0.13179 0.0
C891 C 0.60657 0.14576 0.11284 0.0
C892 C 0.63497 0.14724 0.11116 0.0
C893 C 0.64808 0.16595 0.1293 0.0
C894 C 0.5613 0.16289 0.13432 0.0
C895 C 0.65159 0.12851 0.09088 0.0
C896 C 0.57645 0.07802 0.09533 0.0
C897 C 0.56526 0.08342 0.06564 0.0
C898 C 0.58999 0.09814 0.11088 0.0
C899 C 0.5927 0.12418 0.09622 0.0
C900 C 0.58191 0.12958 0.06598 0.0
C901 C 0.56817 0.1092 0.05115 0.0
C902 C 0.60107 0.09166 0.1432 0.0
C903 C 0.58472 0.15693 0.04936 0.0
H904 H 0.59387 0.19593 0.16472 0.0
H905 H 0.66989 0.16674 0.12848 0.0
H906 H 0.5516 0.16483 0.11099 0.0
H907 H 0.55622 0.14277 0.14467 0.0
H908 H 0.55249 0.17934 0.1488 0.0
H909 H 0.67317 0.1336 0.09045 0.0
H910 H 0.65047 0.10697 0.09946 0.0
H911 H 0.64335 0.12976 0.06683 0.0
H912 H 0.57419 0.0582 0.10671 0.0
H913 H 0.55967 0.1135 0.02813 0.0
H914 H 0.59164 0.10612 0.15962 0.0
H915 H 0.62317 0.09432 0.14396 0.0
H916 H 0.59735 0.07041 0.15129 0.0
H917 H 0.57447 0.17344 0.06254 0.0
H918 H 0.57593 0.15754 0.02552 0.0
H919 H 0.60637 0.16152 0.04798 0.0
C920 C 0.39257 0.59166 0.35966 0.0
C921 C 0.3991 0.5882 0.32854 0.0
C922 C 0.41173 0.58522 0.38341 0.0
C923 C 0.43816 0.57551 0.37577 0.0
C924 C 0.44482 0.57189 0.34438 0.0
C925 C 0.42514 0.57811 0.32114 0.0
C926 C 0.40374 0.58884 0.41666 0.0
C927 C 0.47284 0.56182 0.33529 0.0
C928 C 0.49525 0.58219 0.43452 0.0
C929 C 0.49852 0.55537 0.44686 0.0
C930 C 0.47565 0.58909 0.41129 0.0
C931 C 0.45877 0.56873 0.40062 0.0
C932 C 0.46184 0.54171 0.41337 0.0
C933 C 0.48186 0.53531 0.43609 0.0
C934 C 0.47315 0.61806 0.39797 0.0
C935 C 0.44402 0.51951 0.403 0.0
H936 H 0.37239 0.59936 0.36539 0.0
H937 H 0.43035 0.57582 0.29706 0.0
H938 H 0.40698 0.56911 0.42997 0.0
H939 H 0.41668 0.60376 0.42759 0.0
H940 H 0.38225 0.59617 0.41872 0.0
H941 H 0.47483 0.56042 0.30982 0.0
H942 H 0.48796 0.57584 0.34386 0.0
H943 H 0.4779 0.5413 0.34621 0.0
H944 H 0.50816 0.5977 0.44281 0.0
H945 H 0.48437 0.51451 0.44555 0.0
H946 H 0.45241 0.62702 0.4014 0.0
H947 H 0.47653 0.61804 0.37265 0.0
H948 H 0.48783 0.63144 0.40873 0.0
H949 H 0.42243 0.52604 0.40582 0.0
H950 H 0.44827 0.49984 0.41623 0.0
H951 H 0.44705 0.51592 0.37805 0.0
C952 C 0.20648 0.31073 0.90562 0.0
C953 C 0.19038 0.30505 0.87985 0.0
C954 C 0.19991 0.33332 0.92385 0.0
C955 C 0.17685 0.35059 0.91592 0.0
C956 C 0.15978 0.34408 0.89098 0.0
C957 C 0.16677 0.32146 0.87327 0.0
C958 C 0.21826 0.3394 0.95066 0.0
C959 C 0.13487 0.36191 0.88183 0.0
C960 C 0.14204 0.40322 0.96553 0.0
C961 C 0.15016 0.42768 0.9515 0.0
C962 C 0.15253 0.3777 0.95621 0.0
C963 C 0.17122 0.37664 0.93184 0.0
C964 C 0.18105 0.40123 0.9192 0.0
C965 C 0.17045 0.4265 0.92928 0.0
C966 C 0.14186 0.35201 0.9707 0.0
C967 C 0.201 0.40094 0.89313 0.0
H968 H 0.22461 0.29797 0.911 0.0
H969 H 0.15445 0.31761 0.8531 0.0
H970 H 0.22936 0.35796 0.94486 0.0
H971 H 0.20626 0.34376 0.97157 0.0
H972 H 0.23325 0.32218 0.95627 0.0
H973 H 0.12299 0.35315 0.86291 0.0
H974 H 0.12159 0.36467 0.90204 0.0
H975 H 0.14089 0.38252 0.87397 0.0
H976 H 0.12648 0.40397 0.98284 0.0
H977 H 0.17672 0.44527 0.91819 0.0
H978 H 0.15807 0.33554 0.97356 0.0
H979 H 0.12592 0.34445 0.95536 0.0
H980 H 0.13287 0.35586 0.99364 0.0
H981 H 0.21803 0.38576 0.89835 0.0
H982 H 0.20928 0.42135 0.88872 0.0
H983 H 0.19082 0.39476 0.87161 0.0
C984 C 0.70649 0.95427 0.9184 0.0
C985 C 0.71591 0.92743 0.92787 0.0
C986 C 0.6819 0.9667 0.92921 0.0
C987 C 0.66534 0.95223 0.95002 0.0
C988 C 0.67461 0.92522 0.95975 0.0
C989 C 0.69946 0.91338 0.94888 0.0
C990 C 0.67345 0.99546 0.91795 0.0
C991 C 0.65803 0.90855 0.98161 0.0
C992 C 0.61003 0.99227 0.99661 0.0
C993 C 0.5864 0.98976 0.97859 0.0
C994 C 0.63557 0.98028 0.98781 0.0
C995 C 0.63799 0.96488 0.96043 0.0
C996 C 0.61403 0.96191 0.9426 0.0
C997 C 0.58894 0.97436 0.95168 0.0
C998 C 0.66018 0.9845 1.00767 0.0
C999 C 0.61486 0.94561 0.91356 0.0
H1000 H 0.71809 0.96568 0.9019 0.0
H1001 H 0.70605 0.89297 0.95726 0.0
H1002 H 0.65432 0.99533 0.90429 0.0
H1003 H 0.66954 1.00866 0.93796 0.0
H1004 H 0.68899 1.00474 0.90328 0.0
H1005 H 0.66781 0.88801 0.98739 0.0
H1006 H 0.65477 0.91957 1.00338 0.0
H1007 H 0.63782 0.90585 0.97108 0.0
H1008 H 0.60869 1.00412 1.01733 0.0
H1009 H 0.57108 0.97203 0.93741 0.0
H1010 H 0.67528 0.99533 0.99385 0.0
H1011 H 0.66982 0.9644 1.01547 0.0
H1012 H 0.65523 0.99658 0.02834 0.0
H1013 H 0.62826 0.95517 0.89647 0.0
H1014 H 0.59452 0.94429 0.90271 0.0
H1015 H 0.62343 0.92454 0.91894 0.0
C1016 C 0.85502 0.24261 0.32318 0.0
C1017 C 0.83296 0.22597 0.31982 0.0
C1018 C 0.87697 0.2345 0.343 0.0
C1019 C 0.87702 0.209 0.35948 0.0
C1020 C 0.85537 0.19169 0.3553 0.0
C1021 C 0.83355 0.20049 0.33584 0.0
C1022 C 0.89963 0.25357 0.3471 0.0
C1023 C 0.85476 0.16418 0.37221 0.0
C1024 C 0.93901 0.17194 0.39647 0.0
C1025 C 0.934 0.17527 0.42806 0.0
C1026 C 0.92154 0.18426 0.37358 0.0
C1027 C 0.89878 0.20067 0.38248 0.0
C1028 C 0.89491 0.20602 0.41414 0.0
C1029 C 0.91243 0.19309 0.43656 0.0
C1030 C 0.92635 0.17801 0.34007 0.0
C1031 C 0.87111 0.22378 0.42456 0.0
H1032 H 0.855 0.26216 0.31062 0.0
H1033 H 0.81645 0.18767 0.33411 0.0
H1034 H 0.89979 0.26076 0.37118 0.0
H1035 H 0.91945 0.24262 0.34343 0.0
H1036 H 0.89758 0.27173 0.33094 0.0
H1037 H 0.83741 0.15237 0.36471 0.0
H1038 H 0.87374 0.15178 0.36829 0.0
H1039 H 0.85333 0.16714 0.39748 0.0
H1040 H 0.95602 0.15877 0.38962 0.0
H1041 H 0.90817 0.19572 0.46083 0.0
H1042 H 0.9239 0.19693 0.3252 0.0
H1043 H 0.91113 0.16381 0.33216 0.0
H1044 H 0.94681 0.1683 0.33659 0.0
H1045 H 0.86884 0.24299 0.41014 0.0
H1046 H 0.87316 0.22914 0.44923 0.0
H1047 H 0.85229 0.21274 0.42169 0.0
C1048 C 0.19541 0.57373 0.11071 0.0
C1049 C 0.197 0.59386 0.13292 0.0
C1050 C 0.1703 0.56655 0.09884 0.0
C1051 C 0.14627 0.58007 0.10919 0.0
C1052 C 0.14782 0.60083 0.1311 0.0
C1053 C 0.17315 0.60737 0.14281 0.0
C1054 C 0.16943 0.54409 0.07576 0.0
C1055 C 0.12268 0.61593 0.14244 0.0
C1056 C 0.08146 0.57615 0.0615 0.0
C1057 C 0.0682 0.55598 0.07823 0.0
C1058 C 0.10692 0.58426 0.07128 0.0
C1059 C 0.11942 0.57167 0.09823 0.0
C1060 C 0.1061 0.55121 0.11508 0.0
C1061 C 0.08059 0.54372 0.10496 0.0
C1062 C 0.12041 0.60629 0.05285 0.0
C1063 C 0.11886 0.53711 0.14374 0.0
H1064 H 0.21381 0.56314 0.10315 0.0
H1065 H 0.17435 0.62325 0.15962 0.0
H1066 H 0.15843 0.52676 0.08567 0.0
H1067 H 0.15823 0.55166 0.05448 0.0
H1068 H 0.18996 0.53628 0.06923 0.0
H1069 H 0.12744 0.63242 0.15841 0.0
H1070 H 0.11064 0.62516 0.12251 0.0
H1071 H 0.1098 0.60137 0.15473 0.0
H1072 H 0.07192 0.58559 0.04077 0.0
H1073 H 0.07046 0.52797 0.11783 0.0
H1074 H 0.14023 0.59817 0.04451 0.0
H1075 H 0.12439 0.62366 0.06785 0.0
H1076 H 0.10792 0.61415 0.03257 0.0
H1077 H 0.13879 0.52725 0.1381 0.0
H1078 H 0.10605 0.52124 0.15386 0.0
H1079 H 0.12247 0.55239 0.16154 0.0
C1080 C 0.31116 0.34649 0.63951 0.0
C1081 C 0.28309 0.348 0.64319 0.0
C1082 C 0.324 0.36713 0.62313 0.0
C1083 C 0.30836 0.38983 0.61006 0.0
C1084 C 0.27998 0.39146 0.61351 0.0
C1085 C 0.26765 0.37049 0.63011 0.0
C1086 C 0.35437 0.36471 0.62002 0.0
C1087 C 0.2627 0.41529 0.59968 0.0
C1088 C 0.35043 0.45069 0.59341 0.0
C1089 C 0.35755 0.44645 0.56259 0.0
C1090 C 0.33281 0.43347 0.60869 0.0
C1091 C 0.32207 0.41161 0.59269 0.0
C1092 C 0.3275 0.40858 0.56092 0.0
C1093 C 0.34526 0.42599 0.54626 0.0
C1094 C 0.32726 0.43751 0.64253 0.0
C1095 C 0.31625 0.38563 0.543 0.0
H1096 H 0.3232 0.32937 0.65 0.0
H1097 H 0.24589 0.37159 0.63271 0.0
H1098 H 0.35974 0.36475 0.59519 0.0
H1099 H 0.36351 0.38262 0.63029 0.0
H1100 H 0.36353 0.34574 0.63158 0.0
H1101 H 0.2409 0.4135 0.60453 0.0
H1102 H 0.26926 0.43476 0.60904 0.0
H1103 H 0.2653 0.41662 0.57423 0.0
H1104 H 0.35949 0.4668 0.60595 0.0
H1105 H 0.35081 0.42239 0.52253 0.0
H1106 H 0.33804 0.42083 0.65663 0.0
H1107 H 0.30537 0.43644 0.6471 0.0
H1108 H 0.33408 0.45744 0.65041 0.0
H1109 H 0.32666 0.36588 0.55076 0.0
H1110 H 0.31909 0.3885 0.51767 0.0
H1111 H 0.29439 0.38407 0.54742 0.0
C1112 C 0.9223 0.73247 0.95701 0.0
C1113 C 0.90998 0.73441 0.92726 0.0
C1114 C 0.93645 0.70807 0.96862 0.0
C1115 C 0.93887 0.68445 0.9503 0.0
C1116 C 0.9265 0.68619 0.92035 0.0
C1117 C 0.91233 0.71075 0.90938 0.0
C1118 C 0.94924 0.70777 1.00054 0.0
C1119 C 0.92821 0.66192 0.89967 0.0
C1120 C 0.99576 0.62822 0.96914 0.0
C1121 C 0.98218 0.60778 0.98542 0.0
C1122 C 0.98213 0.65301 0.95783 0.0
C1123 C 0.95393 0.65797 0.96253 0.0
C1124 C 0.94013 0.63738 0.97891 0.0
C1125 C 0.95425 0.61289 0.99009 0.0
C1126 C 0.99799 0.67394 0.94058 0.0
C1127 C 0.91014 0.64097 0.98423 0.0
H1128 H 0.92137 0.75028 0.97126 0.0
H1129 H 0.90275 0.71119 0.88668 0.0
H1130 H 0.94425 0.68907 1.01405 0.0
H1131 H 0.97155 0.70732 0.9985 0.0
H1132 H 0.94264 0.72605 1.01361 0.0
H1133 H 0.91825 0.66649 0.87674 0.0
H1134 H 0.94969 0.6554 0.89603 0.0
H1135 H 0.91851 0.64436 0.91096 0.0
H1136 H 1.01721 0.62488 0.96517 0.0
H1137 H 0.94317 0.59752 1.00238 0.0
H1138 H 0.99661 0.69363 0.95262 0.0
H1139 H 0.98922 0.67788 0.91698 0.0
H1140 H 1.01966 0.66724 0.93857 0.0
H1141 H 0.905 0.66139 0.99365 0.0
H1142 H 0.90284 0.6249 1.00034 0.0
H1143 H 0.89907 0.63996 0.96184 0.0
C1144 C 0.37649 0.78384 0.14177 0.0
C1145 C 0.38279 0.75726 0.13193 0.0
C1146 C 0.3925 0.80559 0.13347 0.0
C1147 C 0.41531 0.80066 0.11474 0.0
C1148 C 0.42112 0.77414 0.10357 0.0
C1149 C 0.40479 0.75271 0.11235 0.0
C1150 C 0.38557 0.83363 0.1457 0.0
C1151 C 0.44518 0.76819 0.08337 0.0
C1152 C 0.44562 0.86343 0.0784 0.0
C1153 C 0.46671 0.86783 0.09939 0.0
C1154 C 0.42923 0.84113 0.0825 0.0
C1155 C 0.43387 0.82298 0.10842 0.0
C1156 C 0.45545 0.82697 0.12937 0.0
C1157 C 0.47165 0.84933 0.12456 0.0
C1158 C 0.4065 0.83748 0.05958 0.0
C1159 C 0.46105 0.80799 0.15729 0.0
H1160 H 0.35924 0.78753 0.1565 0.0
H1161 H 0.40991 0.73216 0.1049 0.0
H1162 H 0.40205 0.83957 0.16138 0.0
H1163 H 0.38378 0.84913 0.12635 0.0
H1164 H 0.36636 0.83435 0.15864 0.0
H1165 H 0.44557 0.74712 0.07447 0.0
H1166 H 0.44504 0.78306 0.06341 0.0
H1167 H 0.46411 0.77054 0.09684 0.0
H1168 H 0.44142 0.8779 0.05922 0.0
H1169 H 0.48815 0.85241 0.14061 0.0
H1170 H 0.38679 0.84081 0.0711 0.0
H1171 H 0.40747 0.81626 0.05123 0.0
H1172 H 0.40707 0.85198 0.03928 0.0
H1173 H 0.44342 0.80889 0.17283 0.0
H1174 H 0.47924 0.81333 0.17067 0.0
H1175 H 0.46399 0.78653 0.14996 0.0
C1176 C 0.15889 0.12776 0.64115 0.0
C1177 C 0.15279 0.13687 0.67071 0.0
C1178 C 0.14248 0.1095 0.62646 0.0
C1179 C 0.11912 0.10069 0.6415 0.0
C1180 C 0.11319 0.10941 0.67168 0.0
C1181 C 0.13031 0.12727 0.68609 0.0
C1182 C 0.14976 0.10022 0.59451 0.0
C1183 C 0.08823 0.10078 0.68818 0.0
C1184 C 0.06449 0.07957 0.58638 0.0
C1185 C 0.06827 0.05101 0.58818 0.0
C1186 C 0.0801 0.09598 0.60476 0.0
C1187 C 0.10032 0.08344 0.62486 0.0
C1188 C 0.10368 0.05453 0.62739 0.0
C1189 C 0.08735 0.03861 0.60921 0.0
C1190 C 0.07556 0.12675 0.6019 0.0
C1191 C 0.12532 0.04047 0.64817 0.0
H1192 H 0.17641 0.13518 0.62943 0.0
H1193 H 0.12554 0.13461 0.70887 0.0
H1194 H 0.1504 0.07753 0.59396 0.0
H1195 H 0.13406 0.10822 0.57747 0.0
H1196 H 0.16962 0.10738 0.58704 0.0
H1197 H 0.08731 0.10816 0.7122 0.0
H1198 H 0.06993 0.10905 0.67518 0.0
H1199 H 0.08756 0.07813 0.68903 0.0
H1200 H 0.04957 0.0891 0.57026 0.0
H1201 H 0.09032 1.01647 0.61054 0.0
H1202 H 0.09346 0.1358 0.59135 0.0
H1203 H 0.07309 0.13544 0.62514 0.0
H1204 H 0.05745 0.13311 0.5874 0.0
H1205 H 0.14554 0.0455 0.63965 0.0
H1206 H 0.12413 1.01784 0.64901 0.0
H1207 H 0.12369 0.04794 0.67205 0.0
C1208 C 0.6242 0.38569 0.34861 0.0
C1209 C 0.62736 0.35795 0.35803 0.0
C1210 C 0.61229 0.40518 0.36805 0.0
C1211 C 0.60341 0.39676 0.39768 0.0
C1212 C 0.60644 0.3688 0.4073 0.0
C1213 C 0.61829 0.34974 0.38734 0.0
C1214 C 0.6093 0.43481 0.35694 0.0
C1215 C 0.59715 0.35902 0.4387 0.0
C1216 C 0.59377 0.45017 0.45913 0.0
C1217 C 0.56566 0.45545 0.45798 0.0
C1218 C 0.60637 0.4311 0.43963 0.0
C1219 C 0.59047 0.41711 0.41842 0.0
C1220 C 0.56212 0.42241 0.4171 0.0
C1221 C 0.55006 0.44144 0.43692 0.0
C1222 C 0.63666 0.42587 0.44178 0.0
C1223 C 0.54449 0.40799 0.39471 0.0
H1224 H 0.6315 0.39228 0.3262 0.0
H1225 H 0.62031 0.3283 0.39464 0.0
H1226 H 0.5877 0.44205 0.357 0.0
H1227 H 0.62033 0.44775 0.37292 0.0
H1228 H 0.61714 0.43799 0.33321 0.0
H1229 H 0.6014 0.33666 0.44289 0.0
H1230 H 0.60736 0.37008 0.45716 0.0
H1231 H 0.57509 0.36363 0.44075 0.0
H1232 H 0.60599 0.46085 0.47533 0.0
H1233 H 0.52833 0.4454 0.43574 0.0
H1234 H 0.64577 0.43045 0.41902 0.0
H1235 H 0.64167 0.40393 0.44773 0.0
H1236 H 0.64613 0.43847 0.45945 0.0
H1237 H 0.55098 0.41211 0.37062 0.0
H1238 H 0.52277 0.41457 0.39643 0.0
H1239 H 0.54675 0.38551 0.3992 0.0
loop_
_geom_bond_atom_site_label_1
_geom_bond_atom_site_label_2
_geom_bond_distance
_geom_bond_site_symmetry_2
_ccdc_geom_bond_type
C0 C1 1.386 . S
C0 C2 1.397 . S
C0 H24 0.931 . S
C1 C0 1.386 . S
C1 C5 1.397 . S
C2 C0 1.397 . S
C2 C3 1.384 . S
C2 H25 0.930 . S
C3 C2 1.384 . S
C3 C4 1.377 . S
C3 C6 1.481 . S
C4 C3 1.377 . S
C4 C5 1.389 . S
C4 H26 0.929 . S
C5 C1 1.397 . S
C5 C4 1.389 . S
C5 H27 0.931 . S
C6 C3 1.481 . S
C6 C7 1.387 . S
C6 C11 1.390 . S
C7 C6 1.387 . S
C7 C8 1.401 . S
C7 H28 0.930 . S
C8 C7 1.401 . S
C8 C9 1.376 . S
C8 C17 1.511 . S
C9 C8 1.376 . S
C9 C10 1.392 . S
C9 H30 0.931 . S
C10 C9 1.392 . S
C10 C11 1.361 . S
C10 C12 1.500 . S
C11 C6 1.390 . S
C11 C10 1.361 . S
C11 H29 0.931 . S
C12 C10 1.500 . S
C12 C13 1.371 . S
C12 C14 1.365 . S
C13 C12 1.371 . S
C13 C23 1.386 . S
C13 H31 0.931 . S
C14 C12 1.365 . S
C14 C15 1.409 . S
C14 H32 0.929 . S
C15 C14 1.409 . S
C15 C16 1.380 . S
C15 H33 0.930 . S
C16 C15 1.380 . S
C16 C23 1.357 . S
C17 C8 1.511 . S
C17 C18 1.341 . S
C17 C19 1.371 . S
C18 C17 1.341 . S
C18 C22 1.394 . S
C18 H34 0.930 . S
C19 C17 1.371 . S
C19 C20 1.392 . S
C19 H35 0.931 . S
C20 C19 1.392 . S
C20 C21 1.331 . S
C20 H38 0.932 . S
C21 C20 1.331 . S
C21 C22 1.336 . S
C22 C18 1.394 . S
C22 C21 1.336 . S
C22 H37 0.929 . S
C23 C13 1.386 . S
C23 C16 1.357 . S
C23 H36 0.928 . S
H24 C0 0.931 . S
H25 C2 0.930 . S
H26 C4 0.929 . S
H27 C5 0.931 . S
H28 C7 0.930 . S
H29 C11 0.931 . S
H30 C9 0.931 . S
H31 C13 0.931 . S
H32 C14 0.929 . S
H33 C15 0.930 . S
H34 C18 0.930 . S
H35 C19 0.931 . S
H36 C23 0.928 . S
H37 C22 0.929 . S
H38 C20 0.932 . S
C39 C40 1.386 . S
C39 C41 1.397 . S
C39 H63 0.931 . S
C40 C39 1.386 . S
C40 C44 1.397 . S
C41 C39 1.397 . S
C41 C42 1.384 . S
C41 H64 0.930 . S
C42 C41 1.384 . S
C42 C43 1.377 . S
C42 C45 1.481 . S
C43 C42 1.377 . S
C43 C44 1.389 . S
C43 H65 0.929 . S
C44 C40 1.397 . S
C44 C43 1.389 . S
C44 H66 0.931 . S
C45 C42 1.481 . S
C45 C46 1.387 . S
C45 C50 1.390 . S
C46 C45 1.387 . S
C46 C47 1.401 . S
C46 H67 0.930 . S
C47 C46 1.401 . S
C47 C48 1.376 . S
C47 C56 1.511 . S
C48 C47 1.376 . S
C48 C49 1.392 . S
C48 H69 0.931 . S
C49 C48 1.392 . S
C49 C50 1.361 . S
C49 C51 1.500 . S
C50 C45 1.390 . S
C50 C49 1.361 . S
C50 H68 0.931 . S
C51 C49 1.500 . S
C51 C52 1.371 . S
C51 C53 1.365 . S
C52 C51 1.371 . S
C52 C62 1.386 . S
C52 H70 0.931 . S
C53 C51 1.365 . S
C53 C54 1.409 . S
C53 H71 0.929 . S
C54 C53 1.409 . S
C54 C55 1.380 . S
C54 H72 0.930 . S
C55 C54 1.380 . S
C55 C62 1.357 . S
C56 C47 1.511 . S
C56 C57 1.341 . S
C56 C58 1.371 . S
C57 C56 1.341 . S
C57 C61 1.394 . S
C57 H73 0.930 . S
C58 C56 1.371 . S
C58 C59 1.392 . S
C58 H74 0.931 . S
C59 C58 1.392 . S
C59 C60 1.331 . S
C59 H77 0.932 . S
C60 C59 1.331 . S
C60 C61 1.336 . S
C61 C57 1.394 . S
C61 C60 1.336 . S
C61 H76 0.929 . S
C62 C52 1.386 . S
C62 C55 1.357 . S
C62 H75 0.928 . S
H63 C39 0.931 . S
H64 C41 0.930 . S
H65 C43 0.929 . S
H66 C44 0.931 . S
H67 C46 0.930 . S
H68 C50 0.931 . S
H69 C48 0.931 . S
H70 C52 0.931 . S
H71 C53 0.929 . S
H72 C54 0.930 . S
H73 C57 0.930 . S
H74 C58 0.931 . S
H75 C62 0.928 . S
H76 C61 0.929 . S
H77 C59 0.932 . S
C78 C79 1.386 . S
C78 C80 1.397 . S
C78 H102 0.931 . S
C79 C78 1.386 . S
C79 C83 1.397 . S
C80 C78 1.397 . S
C80 C81 1.384 . S
C80 H103 0.930 . S
C81 C80 1.384 . S
C81 C82 1.377 . S
C81 C84 1.481 . S
C82 C81 1.377 . S
C82 C83 1.389 . S
C82 H104 0.929 . S
C83 C79 1.397 . S
C83 C82 1.389 . S
C83 H105 0.931 . S
C84 C81 1.481 . S
C84 C85 1.387 . S
C84 C89 1.390 . S
C85 C84 1.387 . S
C85 C86 1.401 . S
C85 H106 0.930 . S
C86 C85 1.401 . S
C86 C87 1.376 . S
C86 C95 1.511 . S
C87 C86 1.376 . S
C87 C88 1.392 . S
C87 H108 0.931 . S
C88 C87 1.392 . S
C88 C89 1.361 . S
C88 C90 1.500 . S
C89 C84 1.390 . S
C89 C88 1.361 . S
C89 H107 0.931 . S
C90 C88 1.500 . S
C90 C91 1.371 . S
C90 C92 1.365 . S
C91 C90 1.371 . S
C91 C101 1.386 . S
C91 H109 0.931 . S
C92 C90 1.365 . S
C92 C93 1.409 . S
C92 H110 0.929 . S
C93 C92 1.409 . S
C93 C94 1.380 . S
C93 H111 0.930 . S
C94 C93 1.380 . S
C94 C101 1.357 . S
C95 C86 1.511 . S
C95 C96 1.341 . S
C95 C97 1.371 . S
C96 C95 1.341 . S
C96 C100 1.394 . S
C96 H112 0.930 . S
C97 C95 1.371 . S
C97 C98 1.392 . S
C97 H113 0.931 . S
C98 C97 1.392 . S
C98 C99 1.331 . S
C98 H116 0.932 . S
C99 C98 1.331 . S
C99 C100 1.336 . S
C100 C96 1.394 . S
C100 C99 1.336 . S
C100 H115 0.929 . S
C101 C91 1.386 . S
C101 C94 1.357 . S
C101 H114 0.928 . S
H102 C78 0.931 . S
H103 C80 0.930 . S
H104 C82 0.929 . S
H105 C83 0.931 . S
H106 C85 0.930 . S
H107 C89 0.931 . S
H108 C87 0.931 . S
H109 C91 0.931 . S
H110 C92 0.929 . S
H111 C93 0.930 . S
H112 C96 0.930 . S
H113 C97 0.931 . S
H114 C101 0.928 . S
H115 C100 0.929 . S
H116 C98 0.932 . S
C117 C118 1.386 . S
C117 C119 1.397 . S
C117 H141 0.931 . S
C118 C117 1.386 . S
C118 C122 1.397 . S
C119 C117 1.397 . S
C119 C120 1.384 . S
C119 H142 0.930 . S
C120 C119 1.384 . S
C120 C121 1.377 . S
C120 C123 1.481 . S
C121 C120 1.377 . S
C121 C122 1.389 . S
C121 H143 0.929 . S
C122 C118 1.397 . S
C122 C121 1.389 . S
C122 H144 0.931 . S
C123 C120 1.481 . S
C123 C124 1.387 . S
C123 C128 1.390 . S
C124 C123 1.387 . S
C124 C125 1.401 . S
C124 H145 0.930 . S
C125 C124 1.401 . S
C125 C126 1.376 . S
C125 C134 1.511 . S
C126 C125 1.376 . S
C126 C127 1.392 . S
C126 H147 0.931 . S
C127 C126 1.392 . S
C127 C128 1.361 . S
C127 C129 1.500 . S
C128 C123 1.390 . S
C128 C127 1.361 . S
C128 H146 0.931 . S
C129 C127 1.500 . S
C129 C130 1.371 . S
C129 C131 1.365 . S
C130 C129 1.371 . S
C130 C140 1.386 . S
C130 H148 0.931 . S
C131 C129 1.365 . S
C131 C132 1.409 . S
C131 H149 0.929 . S
C132 C131 1.409 . S
C132 C133 1.380 . S
C132 H150 0.930 . S
C133 C132 1.380 . S
C133 C140 1.357 . S
C134 C125 1.511 . S
C134 C135 1.341 . S
C134 C136 1.371 . S
C135 C134 1.341 . S
C135 C139 1.394 . S
C135 H151 0.930 . S
C136 C134 1.371 . S
C136 C137 1.392 . S
C136 H152 0.931 . S
C137 C136 1.392 . S
C137 C138 1.331 . S
C137 H155 0.932 . S
C138 C137 1.331 . S
C138 C139 1.336 . S
C139 C135 1.394 . S
C139 C138 1.336 . S
C139 H154 0.929 . S
C140 C130 1.386 . S
C140 C133 1.357 . S
C140 H153 0.928 . S
H141 C117 0.931 . S
H142 C119 0.930 . S
H143 C121 0.929 . S
H144 C122 0.931 . S
H145 C124 0.930 . S
H146 C128 0.931 . S
H147 C126 0.931 . S
H148 C130 0.931 . S
H149 C131 0.929 . S
H150 C132 0.930 . S
H151 C135 0.930 . S
H152 C136 0.931 . S
H153 C140 0.928 . S
H154 C139 0.929 . S
H155 C137 0.932 . S
C156 C157 1.386 . S
C156 C158 1.397 . S
C156 H180 0.931 . S
C157 C156 1.386 . S
C157 C161 1.397 . S
C158 C156 1.397 . S
C158 C159 1.384 . S
C158 H181 0.930 . S
C159 C158 1.384 . S
C159 C160 1.377 . S
C159 C162 1.481 . S
C160 C159 1.377 . S
C160 C161 1.389 . S
C160 H182 0.929 . S
C161 C157 1.397 . S
C161 C160 1.389 . S
C161 H183 0.931 . S
C162 C159 1.481 . S
C162 C163 1.387 . S
C162 C167 1.390 . S
C163 C162 1.387 . S
C163 C164 1.401 . S
C163 H184 0.930 . S
C164 C163 1.401 . S
C164 C165 1.376 . S
C164 C173 1.511 . S
C165 C164 1.376 . S
C165 C166 1.392 . S
C165 H186 0.931 . S
C166 C165 1.392 . S
C166 C167 1.361 . S
C166 C168 1.500 . S
C167 C162 1.390 . S
C167 C166 1.361 . S
C167 H185 0.931 . S
C168 C166 1.500 . S
C168 C169 1.371 . S
C168 C170 1.365 . S
C169 C168 1.371 . S
C169 C179 1.386 . S
C169 H187 0.931 . S
C170 C168 1.365 . S
C170 C171 1.409 . S
C170 H188 0.929 . S
C171 C170 1.409 . S
C171 C172 1.380 . S
C171 H189 0.930 . S
C172 C171 1.380 . S
C172 C179 1.357 . S
C173 C164 1.511 . S
C173 C174 1.341 . S
C173 C175 1.371 . S
C174 C173 1.341 . S
C174 C178 1.394 . S
C174 H190 0.930 . S
C175 C173 1.371 . S
C175 C176 1.392 . S
C175 H191 0.931 . S
C176 C175 1.392 . S
C176 C177 1.331 . S
C176 H194 0.932 . S
C177 C176 1.331 . S
C177 C178 1.336 . S
C178 C174 1.394 . S
C178 C177 1.336 . S
C178 H193 0.929 . S
C179 C169 1.386 . S
C179 C172 1.357 . S
C179 H192 0.928 . S
H180 C156 0.931 . S
H181 C158 0.930 . S
H182 C160 0.929 . S
H183 C161 0.931 . S
H184 C163 0.930 . S
H185 C167 0.931 . S
H186 C165 0.931 . S
H187 C169 0.931 . S
H188 C170 0.929 . S
H189 C171 0.930 . S
H190 C174 0.930 . S
H191 C175 0.931 . S
H192 C179 0.928 . S
H193 C178 0.929 . S
H194 C176 0.932 . S
C195 C196 1.386 . S
C195 C197 1.397 . S
C195 H219 0.931 . S
C196 C195 1.386 . S
C196 C200 1.397 . S
C197 C195 1.397 . S
C197 C198 1.384 . S
C197 H220 0.930 . S
C198 C197 1.384 . S
C198 C199 1.377 . S
C198 C201 1.481 . S
C199 C198 1.377 . S
C199 C200 1.389 . S
C199 H221 0.929 . S
C200 C196 1.397 . S
C200 C199 1.389 . S
C200 H222 0.931 . S
C201 C198 1.481 . S
C201 C202 1.387 . S
C201 C206 1.390 . S
C202 C201 1.387 . S
C202 C203 1.401 . S
C202 H223 0.930 . S
C203 C202 1.401 . S
C203 C204 1.376 . S
C203 C212 1.511 . S
C204 C203 1.376 . S
C204 C205 1.392 . S
C204 H225 0.931 . S
C205 C204 1.392 . S
C205 C206 1.361 . S
C205 C207 1.500 . S
C206 C201 1.390 . S
C206 C205 1.361 . S
C206 H224 0.931 . S
C207 C205 1.500 . S
C207 C208 1.371 . S
C207 C209 1.365 . S
C208 C207 1.371 . S
C208 C218 1.386 . S
C208 H226 0.931 . S
C209 C207 1.365 . S
C209 C210 1.409 . S
C209 H227 0.929 . S
C210 C209 1.409 . S
C210 C211 1.380 . S
C210 H228 0.930 . S
C211 C210 1.380 . S
C211 C218 1.357 . S
C212 C203 1.511 . S
C212 C213 1.341 . S
C212 C214 1.371 . S
C213 C212 1.341 . S
C213 C217 1.394 . S
C213 H229 0.930 . S
C214 C212 1.371 . S
C214 C215 1.392 . S
C214 H230 0.931 . S
C215 C214 1.392 . S
C215 C216 1.331 . S
C215 H233 0.932 . S
C216 C215 1.331 . S
C216 C217 1.336 . S
C217 C213 1.394 . S
C217 C216 1.336 . S
C217 H232 0.929 . S
C218 C208 1.386 . S
C218 C211 1.357 . S
C218 H231 0.928 . S
H219 C195 0.931 . S
H220 C197 0.930 . S
H221 C199 0.929 . S
H222 C200 0.931 . S
H223 C202 0.930 . S
H224 C206 0.931 . S
H225 C204 0.931 . S
H226 C208 0.931 . S
H227 C209 0.929 . S
H228 C210 0.930 . S
H229 C213 0.930 . S
H230 C214 0.931 . S
H231 C218 0.928 . S
H232 C217 0.929 . S
H233 C215 0.932 . S
C234 C235 1.386 . S
C234 C236 1.397 . S
C234 H258 0.931 . S
C235 C234 1.386 . S
C235 C239 1.397 . S
C236 C234 1.397 . S
C236 C237 1.384 . S
C236 H259 0.930 . S
C237 C236 1.384 . S
C237 C238 1.377 . S
C237 C240 1.481 . S
C238 C237 1.377 . S
C238 C239 1.389 . S
C238 H260 0.929 . S
C239 C235 1.397 . S
C239 C238 1.389 . S
C239 H261 0.931 . S
C240 C237 1.481 . S
C240 C241 1.387 . S
C240 C245 1.390 . S
C241 C240 1.387 . S
C241 C242 1.401 . S
C241 H262 0.930 . S
C242 C241 1.401 . S
C242 C243 1.376 . S
C242 C251 1.511 . S
C243 C242 1.376 . S
C243 C244 1.392 . S
C243 H264 0.931 . S
C244 C243 1.392 . S
C244 C245 1.361 . S
C244 C246 1.500 . S
C245 C240 1.390 . S
C245 C244 1.361 . S
C245 H263 0.931 . S
C246 C244 1.500 . S
C246 C247 1.371 . S
C246 C248 1.365 . S
C247 C246 1.371 . S
C247 C257 1.386 . S
C247 H265 0.931 . S
C248 C246 1.365 . S
C248 C249 1.409 . S
C248 H266 0.929 . S
C249 C248 1.409 . S
C249 C250 1.380 . S
C249 H267 0.930 . S
C250 C249 1.380 . S
C250 C257 1.357 . S
C251 C242 1.511 . S
C251 C252 1.341 . S
C251 C253 1.371 . S
C252 C251 1.341 . S
C252 C256 1.394 . S
C252 H268 0.930 . S
C253 C251 1.371 . S
C253 C254 1.392 . S
C253 H269 0.931 . S
C254 C253 1.392 . S
C254 C255 1.331 . S
C254 H272 0.932 . S
C255 C254 1.331 . S
C255 C256 1.336 . S
C256 C252 1.394 . S
C256 C255 1.336 . S
C256 H271 0.929 . S
C257 C247 1.386 . S
C257 C250 1.357 . S
C257 H270 0.928 . S
H258 C234 0.931 . S
H259 C236 0.930 . S
H260 C238 0.929 . S
H261 C239 0.931 . S
H262 C241 0.930 . S
H263 C245 0.931 . S
H264 C243 0.931 . S
H265 C247 0.931 . S
H266 C248 0.929 . S
H267 C249 0.930 . S
H268 C252 0.930 . S
H269 C253 0.931 . S
H270 C257 0.928 . S
H271 C256 0.929 . S
H272 C254 0.932 . S
C273 C274 1.386 . S
C273 C275 1.397 . S
C273 H297 0.931 . S
C274 C273 1.386 . S
C274 C278 1.397 . S
C275 C273 1.397 . S
C275 C276 1.384 . S
C275 H298 0.930 . S
C276 C275 1.384 . S
C276 C277 1.377 . S
C276 C279 1.481 . S
C277 C276 1.377 . S
C277 C278 1.389 . S
C277 H299 0.929 . S
C278 C274 1.397 . S
C278 C277 1.389 . S
C278 H300 0.931 . S
C279 C276 1.481 . S
C279 C280 1.387 . S
C279 C284 1.390 . S
C280 C279 1.387 . S
C280 C281 1.401 . S
C280 H301 0.930 . S
C281 C280 1.401 . S
C281 C282 1.376 . S
C281 C290 1.511 . S
C282 C281 1.376 . S
C282 C283 1.392 . S
C282 H303 0.931 . S
C283 C282 1.392 . S
C283 C284 1.361 . S
C283 C285 1.500 . S
C284 C279 1.390 . S
C284 C283 1.361 . S
C284 H302 0.931 . S
C285 C283 1.500 . S
C285 C286 1.371 . S
C285 C287 1.365 . S
C286 C285 1.371 . S
C286 C296 1.386 . S
C286 H304 0.931 . S
C287 C285 1.365 . S
C287 C288 1.409 . S
C287 H305 0.929 . S
C288 C287 1.409 . S
C288 C289 1.380 . S
C288 H306 0.930 . S
C289 C288 1.380 . S
C289 C296 1.357 . S
C290 C281 1.511 . S
C290 C291 1.341 . S
C290 C292 1.371 . S
C291 C290 1.341 . S
C291 C295 1.394 . S
C291 H307 0.930 . S
C292 C290 1.371 . S
C292 C293 1.392 . S
C292 H308 0.931 . S
C293 C292 1.392 . S
C293 C294 1.331 . S
C293 H311 0.932 . S
C294 C293 1.331 . S
C294 C295 1.336 . S
C295 C291 1.394 . S
C295 C294 1.336 . S
C295 H310 0.929 . S
C296 C286 1.386 . S
C296 C289 1.357 . S
C296 H309 0.928 . S
H297 C273 0.931 . S
H298 C275 0.930 . S
H299 C277 0.929 . S
H300 C278 0.931 . S
H301 C280 0.930 . S
H302 C284 0.931 . S
H303 C282 0.931 . S
H304 C286 0.931 . S
H305 C287 0.929 . S
H306 C288 0.930 . S
H307 C291 0.930 . S
H308 C292 0.931 . S
H309 C296 0.928 . S
H310 C295 0.929 . S
H311 C293 0.932 . S
Nd312 C314 2.836 . S
Nd312 O332 2.500 . S
Nd312 O333 2.492 . S
Nd312 O334 2.487 1_565 S
Nd312 O335 2.682 1_565 S
Nd312 O336 2.410 . S
Nd312 O341 2.414 1_455 S
Nd312 O343 2.424 1_565 S
Nd313 C323 2.836 . S
Nd313 O335 2.414 1_655 S
Nd313 O337 2.424 1_545 S
Nd313 O338 2.500 . S
Nd313 O339 2.492 . S
Nd313 O340 2.487 1_545 S
Nd313 O341 2.682 1_545 S
Nd313 O342 2.410 . S
C314 Nd312 2.836 . S
C314 C315 1.498 . S
C314 O332 1.258 . S
C314 O333 1.239 . S
C315 C314 1.498 . S
C315 C316 1.366 . S
C315 C320 1.407 . S
C316 C315 1.366 . S
C316 C317 1.392 . S
C316 H344 0.930 . S
C317 C316 1.392 . S
C317 C318 1.398 . S
C317 H345 0.929 . S
C318 C317 1.398 . S
C318 C319 1.352 . S
C319 C318 1.352 . S
C319 C320 1.384 . S
C319 H346 0.930 . S
C320 C315 1.407 . S
C320 C319 1.384 . S
C320 H347 0.929 . S
C321 O334 1.241 . S
C321 O335 1.273 . S
C322 O336 1.251 1_655 S
C322 O337 1.268 . S
C323 Nd313 2.836 . S
C323 C324 1.498 . S
C323 O338 1.258 . S
C323 O339 1.239 . S
C324 C323 1.498 . S
C324 C325 1.366 . S
C324 C329 1.407 . S
C325 C324 1.366 . S
C325 C326 1.392 . S
C325 H348 0.930 . S
C326 C325 1.392 . S
C326 C327 1.398 . S
C326 H349 0.929 . S
C327 C326 1.398 . S
C327 C328 1.352 . S
C328 C327 1.352 . S
C328 C329 1.384 . S
C328 H350 0.930 . S
C329 C324 1.407 . S
C329 C328 1.384 . S
C329 H351 0.929 . S
C330 O340 1.241 . S
C330 O341 1.273 . S
C331 O342 1.251 1_455 S
C331 O343 1.268 . S
O332 Nd312 2.500 . S
O332 C314 1.258 . S
O333 Nd312 2.492 . S
O333 C314 1.239 . S
O334 Nd312 2.487 1_545 S
O334 C321 1.241 . S
O335 Nd312 2.682 1_545 S
O335 Nd313 2.414 1_455 S
O335 C321 1.273 . S
O336 Nd312 2.410 . S
O336 C322 1.251 1_455 S
O337 Nd313 2.424 1_565 S
O337 C322 1.268 . S
O338 Nd313 2.500 . S
O338 C323 1.258 . S
O339 Nd313 2.492 . S
O339 C323 1.239 . S
O340 Nd313 2.487 1_565 S
O340 C330 1.241 . S
O341 Nd312 2.414 1_655 S
O341 Nd313 2.682 1_565 S
O341 C330 1.273 . S
O342 Nd313 2.410 . S
O342 C331 1.251 1_655 S
O343 Nd312 2.424 1_545 S
O343 C331 1.268 . S
H344 C316 0.930 . S
H345 C317 0.929 . S
H346 C319 0.930 . S
H347 C320 0.929 . S
H348 C325 0.930 . S
H349 C326 0.929 . S
H350 C328 0.930 . S
H351 C329 0.929 . S
Nd352 C354 2.836 . S
Nd352 O372 2.500 . S
Nd352 O373 2.492 . S
Nd352 O374 2.487 1_565 S
Nd352 O375 2.682 1_565 S
Nd352 O376 2.410 1_554 S
Nd352 O381 2.414 1_554 S
Nd352 O383 2.424 1_565 S
Nd353 C363 2.836 . S
Nd353 O375 2.414 1_556 S
Nd353 O377 2.424 1_545 S
Nd353 O378 2.500 . S
Nd353 O379 2.492 . S
Nd353 O380 2.486 1_545 S
Nd353 O381 2.682 1_545 S
Nd353 O382 2.410 1_556 S
C354 Nd352 2.836 . S
C354 C355 1.498 . S
C354 O372 1.258 . S
C354 O373 1.239 . S
C355 C354 1.498 . S
C355 C356 1.366 . S
C355 C360 1.407 . S
C356 C355 1.366 . S
C356 C357 1.392 . S
C356 H384 0.930 . S
C357 C356 1.392 . S
C357 C358 1.398 . S
C357 H385 0.929 . S
C358 C357 1.398 . S
C358 C359 1.352 . S
C359 C358 1.352 . S
C359 C360 1.384 . S
C359 H386 0.930 . S
C360 C355 1.407 . S
C360 C359 1.384 . S
C360 H387 0.929 . S
C361 O374 1.241 . S
C361 O375 1.273 . S
C362 O376 1.251 . S
C362 O377 1.268 . S
C363 Nd353 2.836 . S
C363 C364 1.498 . S
C363 O378 1.258 . S
C363 O379 1.239 . S
C364 C363 1.498 . S
C364 C365 1.366 . S
C364 C369 1.407 . S
C365 C364 1.366 . S
C365 C366 1.392 . S
C365 H388 0.930 . S
C366 C365 1.392 . S
C366 C367 1.398 . S
C366 H389 0.929 . S
C367 C366 1.398 . S
C367 C368 1.352 . S
C368 C367 1.352 . S
C368 C369 1.384 . S
C368 H390 0.930 . S
C369 C364 1.407 . S
C369 C368 1.384 . S
C369 H391 0.929 . S
C370 O380 1.243 . S
C370 O381 1.273 . S
C371 O382 1.251 . S
C371 O383 1.268 . S
O372 Nd352 2.500 . S
O372 C354 1.258 . S
O373 Nd352 2.492 . S
O373 C354 1.239 . S
O374 Nd352 2.487 1_545 S
O374 C361 1.241 . S
O375 Nd352 2.682 1_545 S
O375 Nd353 2.414 1_554 S
O375 C361 1.273 . S
O376 Nd352 2.410 1_556 S
O376 C362 1.251 . S
O377 Nd353 2.424 1_565 S
O377 C362 1.268 . S
O378 Nd353 2.500 . S
O378 C363 1.258 . S
O379 Nd353 2.492 . S
O379 C363 1.239 . S
O380 Nd353 2.486 1_565 S
O380 C370 1.243 . S
O381 Nd352 2.414 1_556 S
O381 Nd353 2.682 1_565 S
O381 C370 1.273 . S
O382 Nd353 2.410 1_554 S
O382 C371 1.251 . S
O383 Nd352 2.424 1_545 S
O383 C371 1.268 . S
H384 C356 0.930 . S
H385 C357 0.929 . S
H386 C359 0.930 . S
H387 C360 0.929 . S
H388 C365 0.930 . S
H389 C366 0.929 . S
H390 C368 0.930 . S
H391 C369 0.929 . S
Nd392 C394 2.836 . S
Nd392 O412 2.500 . S
Nd392 O413 2.492 . S
Nd392 O414 2.487 . S
Nd392 O415 2.682 . S
Nd392 O416 2.410 . S
Nd392 O421 2.414 . S
Nd392 O423 2.424 . S
Nd393 C403 2.836 . S
Nd393 O415 2.414 . S
Nd393 O417 2.424 . S
Nd393 O418 2.500 . S
Nd393 O419 2.492 . S
Nd393 O420 2.487 . S
Nd393 O421 2.682 . S
Nd393 O422 2.410 . S
C394 Nd392 2.836 . S
C394 C395 1.498 . S
C394 O412 1.258 . S
C394 O413 1.239 . S
C395 C394 1.498 . S
C395 C396 1.366 . S
C395 C400 1.407 . S
C396 C395 1.366 . S
C396 C397 1.392 . S
C396 H424 0.930 . S
C397 C396 1.392 . S
C397 C398 1.398 . S
C397 H425 0.929 . S
C398 C397 1.398 . S
C398 C399 1.352 . S
C399 C398 1.352 . S
C399 C400 1.384 . S
C399 H426 0.930 . S
C400 C395 1.407 . S
C400 C399 1.384 . S
C400 H427 0.929 . S
C401 O414 1.241 . S
C401 O415 1.273 . S
C402 O416 1.251 . S
C402 O417 1.268 . S
C403 Nd393 2.836 . S
C403 C404 1.498 . S
C403 O418 1.258 . S
C403 O419 1.239 . S
C404 C403 1.498 . S
C404 C405 1.366 . S
C404 C409 1.407 . S
C405 C404 1.366 . S
C405 C406 1.392 . S
C405 H428 0.930 . S
C406 C405 1.392 . S
C406 C407 1.398 . S
C406 H429 0.929 . S
C407 C406 1.398 . S
C407 C408 1.352 . S
C408 C407 1.352 . S
C408 C409 1.384 . S
C408 H430 0.930 . S
C409 C404 1.407 . S
C409 C408 1.384 . S
C409 H431 0.929 . S
C410 O420 1.241 . S
C410 O421 1.273 . S
C411 O422 1.251 . S
C411 O423 1.268 . S
O412 Nd392 2.500 . S
O412 C394 1.258 . S
O413 Nd392 2.492 . S
O413 C394 1.239 . S
O414 Nd392 2.487 . S
O414 C401 1.241 . S
O415 Nd392 2.682 . S
O415 Nd393 2.414 . S
O415 C401 1.273 . S
O416 Nd392 2.410 . S
O416 C402 1.251 . S
O417 Nd393 2.424 . S
O417 C402 1.268 . S
O418 Nd393 2.500 . S
O418 C403 1.258 . S
O419 Nd393 2.492 . S
O419 C403 1.239 . S
O420 Nd393 2.487 . S
O420 C410 1.241 . S
O421 Nd392 2.414 . S
O421 Nd393 2.682 . S
O421 C410 1.273 . S
O422 Nd393 2.410 . S
O422 C411 1.251 . S
O423 Nd392 2.424 . S
O423 C411 1.268 . S
H424 C396 0.930 . S
H425 C397 0.929 . S
H426 C399 0.930 . S
H427 C400 0.929 . S
H428 C405 0.930 . S
H429 C406 0.929 . S
H430 C408 0.930 . S
H431 C409 0.929 . S
Nd432 C434 2.836 . S
Nd432 O452 2.500 . S
Nd432 O453 2.492 . S
Nd432 O454 2.487 1_655 S
Nd432 O455 2.682 1_655 S
Nd432 O456 2.410 . S
Nd432 O461 2.414 1_554 S
Nd432 O463 2.424 1_655 S
Nd433 C443 2.836 . S
Nd433 O455 2.414 1_556 S
Nd433 O457 2.424 1_455 S
Nd433 O458 2.500 . S
Nd433 O459 2.492 . S
Nd433 O460 2.487 1_455 S
Nd433 O461 2.682 1_455 S
Nd433 O462 2.410 . S
C434 Nd432 2.836 . S
C434 C435 1.498 . S
C434 O452 1.258 . S
C434 O453 1.239 . S
C435 C434 1.498 . S
C435 C436 1.366 . S
C435 C440 1.407 . S
C436 C435 1.366 . S
C436 C437 1.392 . S
C436 H464 0.930 . S
C437 C436 1.392 . S
C437 C438 1.398 . S
C437 H465 0.929 . S
C438 C437 1.398 . S
C438 C439 1.352 . S
C439 C438 1.352 . S
C439 C440 1.384 . S
C439 H466 0.930 . S
C440 C435 1.407 . S
C440 C439 1.384 . S
C440 H467 0.929 . S
C441 O454 1.241 . S
C441 O455 1.273 . S
C442 O456 1.251 1_556 S
C442 O457 1.268 . S
C443 Nd433 2.836 . S
C443 C444 1.498 . S
C443 O458 1.258 . S
C443 O459 1.239 . S
C444 C443 1.498 . S
C444 C445 1.366 . S
C444 C449 1.407 . S
C445 C444 1.366 . S
C445 C446 1.392 . S
C445 H468 0.930 . S
C446 C445 1.392 . S
C446 C447 1.398 . S
C446 H469 0.929 . S
C447 C446 1.398 . S
C447 C448 1.352 . S
C448 C447 1.352 . S
C448 C449 1.384 . S
C448 H470 0.930 . S
C449 C444 1.407 . S
C449 C448 1.384 . S
C449 H471 0.929 . S
C450 O460 1.241 . S
C450 O461 1.273 . S
C451 O462 1.251 1_554 S
C451 O463 1.268 . S
O452 Nd432 2.500 . S
O452 C434 1.258 . S
O453 Nd432 2.492 . S
O453 C434 1.239 . S
O454 Nd432 2.487 1_455 S
O454 C441 1.241 . S
O455 Nd432 2.682 1_455 S
O455 Nd433 2.414 1_554 S
O455 C441 1.273 . S
O456 Nd432 2.410 . S
O456 C442 1.251 1_554 S
O457 Nd433 2.424 1_655 S
O457 C442 1.268 . S
O458 Nd433 2.500 . S
O458 C443 1.258 . S
O459 Nd433 2.492 . S
O459 C443 1.239 . S
O460 Nd433 2.487 1_655 S
O460 C450 1.241 . S
O461 Nd432 2.414 1_556 S
O461 Nd433 2.682 1_655 S
O461 C450 1.273 . S
O462 Nd433 2.410 . S
O462 C451 1.251 1_556 S
O463 Nd432 2.424 1_455 S
O463 C451 1.268 . S
H464 C436 0.930 . S
H465 C437 0.929 . S
H466 C439 0.930 . S
H467 C440 0.929 . S
H468 C445 0.930 . S
H469 C446 0.929 . S
H470 C448 0.930 . S
H471 C449 0.929 . S
C472 C473 1.391 . S
C472 C474 1.394 . S
C472 H488 0.931 . S
C473 C472 1.391 . S
C473 C477 1.376 . S
C474 C472 1.394 . S
C474 C475 1.369 . S
C474 C478 1.531 . S
C475 C474 1.369 . S
C475 C476 1.410 . S
C475 C483 1.503 . S
C476 C475 1.410 . S
C476 C477 1.392 . S
C476 C479 1.511 . S
C477 C473 1.376 . S
C477 C476 1.392 . S
C477 H489 0.929 . S
C478 C474 1.531 . S
C478 H490 0.960 . S
C478 H491 0.962 . S
C478 H492 0.960 . S
C479 C476 1.511 . S
C479 H493 0.961 . S
C479 H494 0.961 . S
C479 H495 0.961 . S
C480 C481 1.370 . S
C480 C482 1.363 . S
C480 H496 0.931 . S
C481 C480 1.370 . S
C481 C485 1.408 . S
C482 C480 1.363 . S
C482 C483 1.370 . S
C482 C486 1.524 . S
C483 C475 1.503 . S
C483 C482 1.370 . S
C483 C484 1.403 . S
C484 C483 1.403 . S
C484 C485 1.404 . S
C484 C487 1.539 . S
C485 C481 1.408 . S
C485 C484 1.404 . S
C485 H497 0.930 . S
C486 C482 1.524 . S
C486 H498 0.956 . S
C486 H499 0.961 . S
C486 H500 0.961 . S
C487 C484 1.539 . S
C487 H501 0.958 . S
C487 H502 0.961 . S
C487 H503 0.960 . S
H488 C472 0.931 . S
H489 C477 0.929 . S
H490 C478 0.960 . S
H491 C478 0.962 . S
H492 C478 0.960 . S
H493 C479 0.961 . S
H494 C479 0.961 . S
H495 C479 0.961 . S
H496 C480 0.931 . S
H497 C485 0.930 . S
H498 C486 0.956 . S
H499 C486 0.961 . S
H500 C486 0.961 . S
H501 C487 0.958 . S
H502 C487 0.961 . S
H503 C487 0.960 . S
C504 C505 1.391 . S
C504 C506 1.394 . S
C504 H520 0.931 . S
C505 C504 1.391 . S
C505 C509 1.376 . S
C506 C504 1.394 . S
C506 C507 1.369 . S
C506 C510 1.531 . S
C507 C506 1.369 . S
C507 C508 1.410 . S
C507 C515 1.503 . S
C508 C507 1.410 . S
C508 C509 1.392 . S
C508 C511 1.511 . S
C509 C505 1.376 . S
C509 C508 1.392 . S
C509 H521 0.929 . S
C510 C506 1.531 . S
C510 H522 0.960 . S
C510 H523 0.962 . S
C510 H524 0.960 . S
C511 C508 1.511 . S
C511 H525 0.961 . S
C511 H526 0.961 . S
C511 H527 0.961 . S
C512 C513 1.370 . S
C512 C514 1.363 . S
C512 H528 0.931 . S
C513 C512 1.370 . S
C513 C517 1.408 . S
C514 C512 1.363 . S
C514 C515 1.370 . S
C514 C518 1.524 . S
C515 C507 1.503 . S
C515 C514 1.370 . S
C515 C516 1.403 . S
C516 C515 1.403 . S
C516 C517 1.404 . S
C516 C519 1.539 . S
C517 C513 1.408 . S
C517 C516 1.404 . S
C517 H529 0.930 . S
C518 C514 1.524 . S
C518 H530 0.956 . S
C518 H531 0.961 . S
C518 H532 0.961 . S
C519 C516 1.539 . S
C519 H533 0.958 . S
C519 H534 0.961 . S
C519 H535 0.960 . S
H520 C504 0.931 . S
H521 C509 0.929 . S
H522 C510 0.960 . S
H523 C510 0.962 . S
H524 C510 0.960 . S
H525 C511 0.961 . S
H526 C511 0.961 . S
H527 C511 0.961 . S
H528 C512 0.931 . S
H529 C517 0.930 . S
H530 C518 0.956 . S
H531 C518 0.961 . S
H532 C518 0.961 . S
H533 C519 0.958 . S
H534 C519 0.961 . S
H535 C519 0.960 . S
C536 C537 1.391 . S
C536 C538 1.394 . S
C536 H552 0.931 . S
C537 C536 1.391 . S
C537 C541 1.376 . S
C538 C536 1.394 . S
C538 C539 1.369 . S
C538 C542 1.531 . S
C539 C538 1.369 . S
C539 C540 1.410 . S
C539 C547 1.503 . S
C540 C539 1.410 . S
C540 C541 1.392 . S
C540 C543 1.511 . S
C541 C537 1.376 . S
C541 C540 1.392 . S
C541 H553 0.929 . S
C542 C538 1.531 . S
C542 H554 0.960 . S
C542 H555 0.962 . S
C542 H556 0.960 . S
C543 C540 1.511 . S
C543 H557 0.961 . S
C543 H558 0.961 . S
C543 H559 0.961 . S
C544 C545 1.370 . S
C544 C546 1.363 . S
C544 H560 0.931 . S
C545 C544 1.370 . S
C545 C549 1.408 . S
C546 C544 1.363 . S
C546 C547 1.370 . S
C546 C550 1.524 . S
C547 C539 1.503 . S
C547 C546 1.370 . S
C547 C548 1.403 . S
C548 C547 1.403 . S
C548 C549 1.404 . S
C548 C551 1.539 . S
C549 C545 1.408 . S
C549 C548 1.404 . S
C549 H561 0.930 . S
C550 C546 1.524 . S
C550 H562 0.956 . S
C550 H563 0.961 . S
C550 H564 0.961 . S
C551 C548 1.539 . S
C551 H565 0.958 . S
C551 H566 0.961 . S
C551 H567 0.960 . S
H552 C536 0.931 . S
H553 C541 0.929 . S
H554 C542 0.960 . S
H555 C542 0.962 . S
H556 C542 0.960 . S
H557 C543 0.961 . S
H558 C543 0.961 . S
H559 C543 0.961 . S
H560 C544 0.931 . S
H561 C549 0.930 . S
H562 C550 0.956 . S
H563 C550 0.961 . S
H564 C550 0.961 . S
H565 C551 0.958 . S
H566 C551 0.961 . S
H567 C551 0.960 . S
C568 C569 1.391 . S
C568 C570 1.394 . S
C568 H584 0.931 . S
C569 C568 1.391 . S
C569 C573 1.376 . S
C570 C568 1.394 . S
C570 C571 1.369 . S
C570 C574 1.531 . S
C571 C570 1.369 . S
C571 C572 1.410 . S
C571 C579 1.503 . S
C572 C571 1.410 . S
C572 C573 1.392 . S
C572 C575 1.511 . S
C573 C569 1.376 . S
C573 C572 1.392 . S
C573 H585 0.929 . S
C574 C570 1.531 . S
C574 H586 0.960 . S
C574 H587 0.962 . S
C574 H588 0.960 . S
C575 C572 1.511 . S
C575 H589 0.961 . S
C575 H590 0.961 . S
C575 H591 0.961 . S
C576 C577 1.370 . S
C576 C578 1.363 . S
C576 H592 0.931 . S
C577 C576 1.370 . S
C577 C581 1.408 . S
C578 C576 1.363 . S
C578 C579 1.370 . S
C578 C582 1.524 . S
C579 C571 1.503 . S
C579 C578 1.370 . S
C579 C580 1.403 . S
C580 C579 1.403 . S
C580 C581 1.404 . S
C580 C583 1.539 . S
C581 C577 1.408 . S
C581 C580 1.404 . S
C581 H593 0.930 . S
C582 C578 1.524 . S
C582 H594 0.956 . S
C582 H595 0.961 . S
C582 H596 0.961 . S
C583 C580 1.539 . S
C583 H597 0.958 . S
C583 H598 0.961 . S
C583 H599 0.960 . S
H584 C568 0.931 . S
H585 C573 0.929 . S
H586 C574 0.960 . S
H587 C574 0.962 . S
H588 C574 0.960 . S
H589 C575 0.961 . S
H590 C575 0.961 . S
H591 C575 0.961 . S
H592 C576 0.931 . S
H593 C581 0.930 . S
H594 C582 0.956 . S
H595 C582 0.961 . S
H596 C582 0.961 . S
H597 C583 0.958 . S
H598 C583 0.961 . S
H599 C583 0.960 . S
C600 C601 1.391 . S
C600 C602 1.394 . S
C600 H616 0.931 . S
C601 C600 1.391 . S
C601 C605 1.376 . S
C602 C600 1.394 . S
C602 C603 1.369 . S
C602 C606 1.531 . S
C603 C602 1.369 . S
C603 C604 1.410 . S
C603 C611 1.503 . S
C604 C603 1.410 . S
C604 C605 1.392 . S
C604 C607 1.511 1_554 S
C605 C601 1.376 . S
C605 C604 1.392 . S
C605 H617 0.929 . S
C606 C602 1.531 . S
C606 H618 0.960 . S
C606 H619 0.962 . S
C606 H620 0.960 . S
C607 C604 1.511 1_556 S
C607 H621 0.961 . S
C607 H622 0.961 . S
C607 H623 0.961 . S
C608 C609 1.370 . S
C608 C610 1.363 . S
C608 H624 0.931 . S
C609 C608 1.370 . S
C609 C613 1.408 . S
C610 C608 1.363 . S
C610 C611 1.370 . S
C610 C614 1.524 . S
C611 C603 1.503 . S
C611 C610 1.370 . S
C611 C612 1.403 . S
C612 C611 1.403 . S
C612 C613 1.404 . S
C612 C615 1.539 . S
C613 C609 1.408 . S
C613 C612 1.404 . S
C613 H625 0.930 . S
C614 C610 1.524 . S
C614 H626 0.956 . S
C614 H627 0.961 . S
C614 H628 0.961 . S
C615 C612 1.539 . S
C615 H629 0.958 . S
C615 H630 0.961 . S
C615 H631 0.960 . S
H616 C600 0.931 . S
H617 C605 0.929 . S
H618 C606 0.960 . S
H619 C606 0.962 . S
H620 C606 0.960 . S
H621 C607 0.961 . S
H622 C607 0.961 . S
H623 C607 0.961 . S
H624 C608 0.931 . S
H625 C613 0.930 . S
H626 C614 0.956 . S
H627 C614 0.961 . S
H628 C614 0.961 . S
H629 C615 0.958 . S
H630 C615 0.961 . S
H631 C615 0.960 . S
C632 C633 1.391 . S
C632 C634 1.394 . S
C632 H648 0.931 . S
C633 C632 1.391 . S
C633 C637 1.376 . S
C634 C632 1.394 . S
C634 C635 1.369 . S
C634 C638 1.531 . S
C635 C634 1.369 . S
C635 C636 1.410 . S
C635 C643 1.503 . S
C636 C635 1.410 . S
C636 C637 1.392 . S
C636 C639 1.511 . S
C637 C633 1.376 . S
C637 C636 1.392 . S
C637 H649 0.929 . S
C638 C634 1.531 . S
C638 H650 0.960 . S
C638 H651 0.962 . S
C638 H652 0.960 . S
C639 C636 1.511 . S
C639 H653 0.961 . S
C639 H654 0.961 . S
C639 H655 0.961 . S
C640 C641 1.370 . S
C640 C642 1.363 . S
C640 H656 0.931 . S
C641 C640 1.370 . S
C641 C645 1.408 . S
C642 C640 1.363 . S
C642 C643 1.370 . S
C642 C646 1.524 . S
C643 C635 1.503 . S
C643 C642 1.370 . S
C643 C644 1.403 . S
C644 C643 1.403 . S
C644 C645 1.404 . S
C644 C647 1.539 . S
C645 C641 1.408 . S
C645 C644 1.404 . S
C645 H657 0.930 . S
C646 C642 1.524 . S
C646 H658 0.956 . S
C646 H659 0.961 . S
C646 H660 0.961 . S
C647 C644 1.539 . S
C647 H661 0.958 . S
C647 H662 0.961 . S
C647 H663 0.960 . S
H648 C632 0.931 . S
H649 C637 0.929 . S
H650 C638 0.960 . S
H651 C638 0.962 . S
H652 C638 0.960 . S
H653 C639 0.961 . S
H654 C639 0.961 . S
H655 C639 0.961 . S
H656 C640 0.931 . S
H657 C645 0.930 . S
H658 C646 0.956 . S
H659 C646 0.961 . S
H660 C646 0.961 . S
H661 C647 0.958 . S
H662 C647 0.961 . S
H663 C647 0.960 . S
C664 C665 1.391 . S
C664 C666 1.394 . S
C664 H680 0.931 . S
C665 C664 1.391 . S
C665 C669 1.376 . S
C666 C664 1.394 . S
C666 C667 1.369 . S
C666 C670 1.531 . S
C667 C666 1.369 . S
C667 C668 1.410 . S
C667 C675 1.503 . S
C668 C667 1.410 . S
C668 C669 1.392 . S
C668 C671 1.511 . S
C669 C665 1.376 . S
C669 C668 1.392 . S
C669 H681 0.929 . S
C670 C666 1.531 . S
C670 H682 0.960 . S
C670 H683 0.962 . S
C670 H684 0.960 . S
C671 C668 1.511 . S
C671 H685 0.961 . S
C671 H686 0.961 . S
C671 H687 0.961 . S
C672 C673 1.370 . S
C672 C674 1.363 . S
C672 H688 0.931 . S
C673 C672 1.370 . S
C673 C677 1.408 . S
C674 C672 1.363 . S
C674 C675 1.370 . S
C674 C678 1.524 . S
C675 C667 1.503 . S
C675 C674 1.370 . S
C675 C676 1.403 . S
C676 C675 1.403 . S
C676 C677 1.404 . S
C676 C679 1.539 . S
C677 C673 1.408 . S
C677 C676 1.404 . S
C677 H689 0.930 . S
C678 C674 1.524 . S
C678 H690 0.956 . S
C678 H691 0.961 . S
C678 H692 0.961 . S
C679 C676 1.539 . S
C679 H693 0.958 . S
C679 H694 0.961 . S
C679 H695 0.960 . S
H680 C664 0.931 . S
H681 C669 0.929 . S
H682 C670 0.960 . S
H683 C670 0.962 . S
H684 C670 0.960 . S
H685 C671 0.961 . S
H686 C671 0.961 . S
H687 C671 0.961 . S
H688 C672 0.931 . S
H689 C677 0.930 . S
H690 C678 0.956 . S
H691 C678 0.961 . S
H692 C678 0.961 . S
H693 C679 0.958 . S
H694 C679 0.961 . S
H695 C679 0.960 . S
C696 C697 1.391 . S
C696 C698 1.394 . S
C696 H712 0.931 . S
C697 C696 1.391 . S
C697 C701 1.376 . S
C698 C696 1.394 . S
C698 C699 1.369 . S
C698 C702 1.531 . S
C699 C698 1.369 . S
C699 C700 1.410 . S
C699 C707 1.503 . S
C700 C699 1.410 . S
C700 C701 1.392 . S
C700 C703 1.511 . S
C701 C697 1.376 . S
C701 C700 1.392 . S
C701 H713 0.929 . S
C702 C698 1.531 . S
C702 H714 0.960 . S
C702 H715 0.962 . S
C702 H716 0.960 . S
C703 C700 1.511 . S
C703 H717 0.961 . S
C703 H718 0.961 . S
C703 H719 0.961 . S
C704 C705 1.370 . S
C704 C706 1.363 . S
C704 H720 0.931 . S
C705 C704 1.370 . S
C705 C709 1.408 . S
C706 C704 1.363 . S
C706 C707 1.370 . S
C706 C710 1.524 . S
C707 C699 1.503 . S
C707 C706 1.370 . S
C707 C708 1.403 . S
C708 C707 1.403 . S
C708 C709 1.404 . S
C708 C711 1.539 . S
C709 C705 1.408 . S
C709 C708 1.404 . S
C709 H721 0.930 . S
C710 C706 1.524 . S
C710 H722 0.956 . S
C710 H723 0.961 . S
C710 H724 0.961 . S
C711 C708 1.539 . S
C711 H725 0.958 . S
C711 H726 0.961 . S
C711 H727 0.960 . S
H712 C696 0.931 . S
H713 C701 0.929 . S
H714 C702 0.960 . S
H715 C702 0.962 . S
H716 C702 0.960 . S
H717 C703 0.961 . S
H718 C703 0.961 . S
H719 C703 0.961 . S
H720 C704 0.931 . S
H721 C709 0.930 . S
H722 C710 0.956 . S
H723 C710 0.961 . S
H724 C710 0.961 . S
H725 C711 0.958 . S
H726 C711 0.961 . S
H727 C711 0.960 . S
C728 C729 1.391 . S
C728 C730 1.394 . S
C728 H744 0.931 . S
C729 C728 1.391 . S
C729 C733 1.376 . S
C730 C728 1.394 . S
C730 C731 1.369 . S
C730 C734 1.531 . S
C731 C730 1.369 . S
C731 C732 1.410 . S
C731 C739 1.503 . S
C732 C731 1.410 . S
C732 C733 1.392 . S
C732 C735 1.511 . S
C733 C729 1.376 . S
C733 C732 1.392 . S
C733 H745 0.929 . S
C734 C730 1.531 . S
C734 H746 0.960 . S
C734 H747 0.962 . S
C734 H748 0.960 . S
C735 C732 1.511 . S
C735 H749 0.961 . S
C735 H750 0.961 . S
C735 H751 0.961 . S
C736 C737 1.370 . S
C736 C738 1.363 . S
C736 H752 0.931 . S
C737 C736 1.370 . S
C737 C741 1.408 1_554 S
C738 C736 1.363 . S
C738 C739 1.370 . S
C738 C742 1.524 . S
C739 C731 1.503 . S
C739 C738 1.370 . S
C739 C740 1.403 . S
C740 C739 1.403 . S
C740 C741 1.404 1_554 S
C740 C743 1.539 1_554 S
C741 C737 1.408 1_556 S
C741 C740 1.404 1_556 S
C741 H753 0.930 . S
C742 C738 1.524 . S
C742 H754 0.956 . S
C742 H755 0.961 . S
C742 H756 0.961 . S
C743 C740 1.539 1_556 S
C743 H757 0.958 . S
C743 H758 0.961 . S
C743 H759 0.960 . S
H744 C728 0.931 . S
H745 C733 0.929 . S
H746 C734 0.960 . S
H747 C734 0.962 . S
H748 C734 0.960 . S
H749 C735 0.961 . S
H750 C735 0.961 . S
H751 C735 0.961 . S
H752 C736 0.931 . S
H753 C741 0.930 . S
H754 C742 0.956 . S
H755 C742 0.961 . S
H756 C742 0.961 . S
H757 C743 0.958 . S
H758 C743 0.961 . S
H759 C743 0.960 . S
C760 C761 1.391 . S
C760 C762 1.394 . S
C760 H776 0.931 . S
C761 C760 1.391 . S
C761 C765 1.376 . S
C762 C760 1.394 . S
C762 C763 1.369 . S
C762 C766 1.531 . S
C763 C762 1.369 . S
C763 C764 1.410 . S
C763 C771 1.503 . S
C764 C763 1.410 . S
C764 C765 1.392 . S
C764 C767 1.511 . S
C765 C761 1.376 . S
C765 C764 1.392 . S
C765 H777 0.929 . S
C766 C762 1.531 . S
C766 H778 0.960 . S
C766 H779 0.962 . S
C766 H780 0.960 . S
C767 C764 1.511 . S
C767 H781 0.961 . S
C767 H782 0.961 . S
C767 H783 0.961 . S
C768 C769 1.370 . S
C768 C770 1.363 . S
C768 H784 0.931 . S
C769 C768 1.370 . S
C769 C773 1.408 . S
C770 C768 1.363 . S
C770 C771 1.370 . S
C770 C774 1.524 . S
C771 C763 1.503 . S
C771 C770 1.370 . S
C771 C772 1.403 . S
C772 C771 1.403 . S
C772 C773 1.404 . S
C772 C775 1.539 . S
C773 C769 1.408 . S
C773 C772 1.404 . S
C773 H785 0.930 . S
C774 C770 1.524 . S
C774 H786 0.956 . S
C774 H787 0.961 . S
C774 H788 0.961 . S
C775 C772 1.539 . S
C775 H789 0.958 . S
C775 H790 0.961 . S
C775 H791 0.960 . S
H776 C760 0.931 . S
H777 C765 0.929 . S
H778 C766 0.960 . S
H779 C766 0.962 . S
H780 C766 0.960 . S
H781 C767 0.961 . S
H782 C767 0.961 . S
H783 C767 0.961 . S
H784 C768 0.931 . S
H785 C773 0.930 . S
H786 C774 0.956 . S
H787 C774 0.961 . S
H788 C774 0.961 . S
H789 C775 0.958 . S
H790 C775 0.961 . S
H791 C775 0.960 . S
C792 C793 1.391 . S
C792 C794 1.394 . S
C792 H808 0.931 . S
C793 C792 1.391 . S
C793 C797 1.376 . S
C794 C792 1.394 . S
C794 C795 1.369 . S
C794 C798 1.531 . S
C795 C794 1.369 . S
C795 C796 1.410 . S
C795 C803 1.503 . S
C796 C795 1.410 . S
C796 C797 1.392 . S
C796 C799 1.511 . S
C797 C793 1.376 . S
C797 C796 1.392 . S
C797 H809 0.929 . S
C798 C794 1.531 . S
C798 H810 0.960 . S
C798 H811 0.962 . S
C798 H812 0.960 . S
C799 C796 1.511 . S
C799 H813 0.961 . S
C799 H814 0.961 . S
C799 H815 0.961 . S
C800 C801 1.370 . S
C800 C802 1.363 . S
C800 H816 0.931 . S
C801 C800 1.370 . S
C801 C805 1.408 . S
C802 C800 1.363 . S
C802 C803 1.370 . S
C802 C806 1.524 . S
C803 C795 1.503 . S
C803 C802 1.370 . S
C803 C804 1.403 . S
C804 C803 1.403 . S
C804 C805 1.404 . S
C804 C807 1.539 . S
C805 C801 1.408 . S
C805 C804 1.404 . S
C805 H817 0.930 . S
C806 C802 1.524 . S
C806 H818 0.956 . S
C806 H819 0.961 . S
C806 H820 0.961 . S
C807 C804 1.539 . S
C807 H821 0.958 . S
C807 H822 0.961 . S
C807 H823 0.960 . S
H808 C792 0.931 . S
H809 C797 0.929 . S
H810 C798 0.960 . S
H811 C798 0.962 . S
H812 C798 0.960 . S
H813 C799 0.961 . S
H814 C799 0.961 . S
H815 C799 0.961 . S
H816 C800 0.931 . S
H817 C805 0.930 . S
H818 C806 0.956 . S
H819 C806 0.961 . S
H820 C806 0.961 . S
H821 C807 0.958 . S
H822 C807 0.961 . S
H823 C807 0.960 . S
C824 C825 1.391 . S
C824 C826 1.394 . S
C824 H840 0.931 . S
C825 C824 1.391 . S
C825 C829 1.376 . S
C826 C824 1.394 . S
C826 C827 1.369 . S
C826 C830 1.531 . S
C827 C826 1.369 . S
C827 C828 1.410 . S
C827 C835 1.503 . S
C828 C827 1.410 . S
C828 C829 1.392 . S
C828 C831 1.511 . S
C829 C825 1.376 . S
C829 C828 1.392 . S
C829 H841 0.929 . S
C830 C826 1.531 . S
C830 H842 0.960 . S
C830 H843 0.962 . S
C830 H844 0.960 . S
C831 C828 1.511 . S
C831 H845 0.961 . S
C831 H846 0.961 . S
C831 H847 0.961 . S
C832 C833 1.370 . S
C832 C834 1.363 . S
C832 H848 0.931 . S
C833 C832 1.370 . S
C833 C837 1.408 . S
C834 C832 1.363 . S
C834 C835 1.370 . S
C834 C838 1.524 . S
C835 C827 1.503 . S
C835 C834 1.370 . S
C835 C836 1.403 . S
C836 C835 1.403 . S
C836 C837 1.404 . S
C836 C839 1.539 . S
C837 C833 1.408 . S
C837 C836 1.404 . S
C837 H849 0.930 . S
C838 C834 1.524 . S
C838 H850 0.956 . S
C838 H851 0.961 . S
C838 H852 0.961 . S
C839 C836 1.539 . S
C839 H853 0.958 . S
C839 H854 0.961 . S
C839 H855 0.960 . S
H840 C824 0.931 . S
H841 C829 0.929 . S
H842 C830 0.960 . S
H843 C830 0.962 . S
H844 C830 0.960 . S
H845 C831 0.961 . S
H846 C831 0.961 . S
H847 C831 0.961 . S
H848 C832 0.931 . S
H849 C837 0.930 . S
H850 C838 0.956 . S
H851 C838 0.961 . S
H852 C838 0.961 . S
H853 C839 0.958 . S
H854 C839 0.961 . S
H855 C839 0.960 . S
C856 C857 1.391 . S
C856 C858 1.394 . S
C856 H872 0.931 . S
C857 C856 1.391 . S
C857 C861 1.376 . S
C858 C856 1.394 . S
C858 C859 1.369 . S
C858 C862 1.531 . S
C859 C858 1.369 . S
C859 C860 1.410 . S
C859 C867 1.503 . S
C860 C859 1.410 . S
C860 C861 1.392 . S
C860 C863 1.511 . S
C861 C857 1.376 . S
C861 C860 1.392 . S
C861 H873 0.929 . S
C862 C858 1.531 . S
C862 H874 0.960 . S
C862 H875 0.962 . S
C862 H876 0.960 . S
C863 C860 1.511 . S
C863 H877 0.961 . S
C863 H878 0.961 . S
C863 H879 0.961 . S
C864 C865 1.370 . S
C864 C866 1.363 . S
C864 H880 0.931 . S
C865 C864 1.370 . S
C865 C869 1.408 . S
C866 C864 1.363 . S
C866 C867 1.370 . S
C866 C870 1.524 . S
C867 C859 1.503 . S
C867 C866 1.370 . S
C867 C868 1.403 . S
C868 C867 1.403 . S
C868 C869 1.404 . S
C868 C871 1.539 . S
C869 C865 1.408 . S
C869 C868 1.404 . S
C869 H881 0.930 . S
C870 C866 1.524 . S
C870 H882 0.956 . S
C870 H883 0.961 . S
C870 H884 0.961 1_655 S
C871 C868 1.539 . S
C871 H885 0.958 . S
C871 H886 0.961 . S
C871 H887 0.960 . S
H872 C856 0.931 . S
H873 C861 0.929 . S
H874 C862 0.960 . S
H875 C862 0.962 . S
H876 C862 0.960 . S
H877 C863 0.961 . S
H878 C863 0.961 . S
H879 C863 0.961 . S
H880 C864 0.931 . S
H881 C869 0.930 . S
H882 C870 0.956 . S
H883 C870 0.961 . S
H884 C870 0.961 1_455 S
H885 C871 0.958 . S
H886 C871 0.961 . S
H887 C871 0.960 . S
C888 C889 1.391 . S
C888 C890 1.394 . S
C888 H904 0.931 . S
C889 C888 1.391 . S
C889 C893 1.376 . S
C890 C888 1.394 . S
C890 C891 1.369 . S
C890 C894 1.531 . S
C891 C890 1.369 . S
C891 C892 1.410 . S
C891 C899 1.503 . S
C892 C891 1.410 . S
C892 C893 1.392 . S
C892 C895 1.511 . S
C893 C889 1.376 . S
C893 C892 1.392 . S
C893 H905 0.929 . S
C894 C890 1.531 . S
C894 H906 0.960 . S
C894 H907 0.962 . S
C894 H908 0.960 . S
C895 C892 1.511 . S
C895 H909 0.961 . S
C895 H910 0.961 . S
C895 H911 0.961 . S
C896 C897 1.370 . S
C896 C898 1.363 . S
C896 H912 0.931 . S
C897 C896 1.370 . S
C897 C901 1.408 . S
C898 C896 1.363 . S
C898 C899 1.370 . S
C898 C902 1.524 . S
C899 C891 1.503 . S
C899 C898 1.370 . S
C899 C900 1.403 . S
C900 C899 1.403 . S
C900 C901 1.404 . S
C900 C903 1.539 . S
C901 C897 1.408 . S
C901 C900 1.404 . S
C901 H913 0.930 . S
C902 C898 1.524 . S
C902 H914 0.956 . S
C902 H915 0.961 . S
C902 H916 0.961 . S
C903 C900 1.539 . S
C903 H917 0.958 . S
C903 H918 0.961 . S
C903 H919 0.960 . S
H904 C888 0.931 . S
H905 C893 0.929 . S
H906 C894 0.960 . S
H907 C894 0.962 . S
H908 C894 0.960 . S
H909 C895 0.961 . S
H910 C895 0.961 . S
H911 C895 0.961 . S
H912 C896 0.931 . S
H913 C901 0.930 . S
H914 C902 0.956 . S
H915 C902 0.961 . S
H916 C902 0.961 . S
H917 C903 0.958 . S
H918 C903 0.961 . S
H919 C903 0.960 . S
C920 C921 1.391 . S
C920 C922 1.394 . S
C920 H936 0.931 . S
C921 C920 1.391 . S
C921 C925 1.376 . S
C922 C920 1.394 . S
C922 C923 1.369 . S
C922 C926 1.531 . S
C923 C922 1.369 . S
C923 C924 1.410 . S
C923 C931 1.503 . S
C924 C923 1.410 . S
C924 C925 1.392 . S
C924 C927 1.511 . S
C925 C921 1.376 . S
C925 C924 1.392 . S
C925 H937 0.929 . S
C926 C922 1.531 . S
C926 H938 0.960 . S
C926 H939 0.962 . S
C926 H940 0.960 . S
C927 C924 1.511 . S
C927 H941 0.961 . S
C927 H942 0.961 . S
C927 H943 0.961 . S
C928 C929 1.370 . S
C928 C930 1.363 . S
C928 H944 0.931 . S
C929 C928 1.370 . S
C929 C933 1.408 . S
C930 C928 1.363 . S
C930 C931 1.370 . S
C930 C934 1.524 . S
C931 C923 1.503 . S
C931 C930 1.370 . S
C931 C932 1.403 . S
C932 C931 1.403 . S
C932 C933 1.404 . S
C932 C935 1.539 . S
C933 C929 1.408 . S
C933 C932 1.404 . S
C933 H945 0.930 . S
C934 C930 1.524 . S
C934 H946 0.956 . S
C934 H947 0.961 . S
C934 H948 0.961 . S
C935 C932 1.539 . S
C935 H949 0.958 . S
C935 H950 0.961 . S
C935 H951 0.960 . S
H936 C920 0.931 . S
H937 C925 0.929 . S
H938 C926 0.960 . S
H939 C926 0.962 . S
H940 C926 0.960 . S
H941 C927 0.961 . S
H942 C927 0.961 . S
H943 C927 0.961 . S
H944 C928 0.931 . S
H945 C933 0.930 . S
H946 C934 0.956 . S
H947 C934 0.961 . S
H948 C934 0.961 . S
H949 C935 0.958 . S
H950 C935 0.961 . S
H951 C935 0.960 . S
C952 C953 1.391 . S
C952 C954 1.394 . S
C952 H968 0.931 . S
C953 C952 1.391 . S
C953 C957 1.376 . S
C954 C952 1.394 . S
C954 C955 1.369 . S
C954 C958 1.531 . S
C955 C954 1.369 . S
C955 C956 1.410 . S
C955 C963 1.503 . S
C956 C955 1.410 . S
C956 C957 1.392 . S
C956 C959 1.511 . S
C957 C953 1.376 . S
C957 C956 1.392 . S
C957 H969 0.929 . S
C958 C954 1.531 . S
C958 H970 0.960 . S
C958 H971 0.962 . S
C958 H972 0.960 . S
C959 C956 1.511 . S
C959 H973 0.961 . S
C959 H974 0.961 . S
C959 H975 0.961 . S
C960 C961 1.370 . S
C960 C962 1.363 . S
C960 H976 0.931 . S
C961 C960 1.370 . S
C961 C965 1.408 . S
C962 C960 1.363 . S
C962 C963 1.370 . S
C962 C966 1.524 . S
C963 C955 1.503 . S
C963 C962 1.370 . S
C963 C964 1.403 . S
C964 C963 1.403 . S
C964 C965 1.404 . S
C964 C967 1.539 . S
C965 C961 1.408 . S
C965 C964 1.404 . S
C965 H977 0.930 . S
C966 C962 1.524 . S
C966 H978 0.956 . S
C966 H979 0.961 . S
C966 H980 0.961 . S
C967 C964 1.539 . S
C967 H981 0.958 . S
C967 H982 0.961 . S
C967 H983 0.960 . S
H968 C952 0.931 . S
H969 C957 0.929 . S
H970 C958 0.960 . S
H971 C958 0.962 . S
H972 C958 0.960 . S
H973 C959 0.961 . S
H974 C959 0.961 . S
H975 C959 0.961 . S
H976 C960 0.931 . S
H977 C965 0.930 . S
H978 C966 0.956 . S
H979 C966 0.961 . S
H980 C966 0.961 . S
H981 C967 0.958 . S
H982 C967 0.961 . S
H983 C967 0.960 . S
C984 C985 1.391 . S
C984 C986 1.394 . S
C984 H1000 0.931 . S
C985 C984 1.391 . S
C985 C989 1.376 . S
C986 C984 1.394 . S
C986 C987 1.369 . S
C986 C990 1.531 . S
C987 C986 1.369 . S
C987 C988 1.410 . S
C987 C995 1.503 . S
C988 C987 1.410 . S
C988 C989 1.392 . S
C988 C991 1.511 1_556 S
C989 C985 1.376 . S
C989 C988 1.392 . S
C989 H1001 0.929 . S
C990 C986 1.531 . S
C990 H1002 0.960 . S
C990 H1003 0.962 . S
C990 H1004 0.960 . S
C991 C988 1.511 1_554 S
C991 H1005 0.961 . S
C991 H1006 0.961 . S
C991 H1007 0.961 . S
C992 C993 1.370 . S
C992 C994 1.363 . S
C992 H1008 0.931 . S
C993 C992 1.370 . S
C993 C997 1.408 . S
C994 C992 1.363 . S
C994 C995 1.370 . S
C994 C998 1.524 . S
C995 C987 1.503 . S
C995 C994 1.370 . S
C995 C996 1.403 . S
C996 C995 1.403 . S
C996 C997 1.404 . S
C996 C999 1.539 . S
C997 C993 1.408 . S
C997 C996 1.404 . S
C997 H1009 0.930 . S
C998 C994 1.524 . S
C998 H1010 0.956 . S
C998 H1011 0.961 . S
C998 H1012 0.961 . S
C999 C996 1.539 . S
C999 H1013 0.958 . S
C999 H1014 0.961 . S
C999 H1015 0.960 . S
H1000 C984 0.931 . S
H1001 C989 0.929 . S
H1002 C990 0.960 . S
H1003 C990 0.962 . S
H1004 C990 0.960 . S
H1005 C991 0.961 . S
H1006 C991 0.961 . S
H1007 C991 0.961 . S
H1008 C992 0.931 . S
H1009 C997 0.930 . S
H1010 C998 0.956 . S
H1011 C998 0.961 . S
H1012 C998 0.961 . S
H1013 C999 0.958 . S
H1014 C999 0.961 . S
H1015 C999 0.960 . S
C1016 C1017 1.391 . S
C1016 C1018 1.394 . S
C1016 H1032 0.931 . S
C1017 C1016 1.391 . S
C1017 C1021 1.376 . S
C1018 C1016 1.394 . S
C1018 C1019 1.369 . S
C1018 C1022 1.531 . S
C1019 C1018 1.369 . S
C1019 C1020 1.410 . S
C1019 C1027 1.503 . S
C1020 C1019 1.410 . S
C1020 C1021 1.392 . S
C1020 C1023 1.511 . S
C1021 C1017 1.376 . S
C1021 C1020 1.392 . S
C1021 H1033 0.929 . S
C1022 C1018 1.531 . S
C1022 H1034 0.960 . S
C1022 H1035 0.962 . S
C1022 H1036 0.960 . S
C1023 C1020 1.511 . S
C1023 H1037 0.961 . S
C1023 H1038 0.961 . S
C1023 H1039 0.961 . S
C1024 C1025 1.370 . S
C1024 C1026 1.363 . S
C1024 H1040 0.931 . S
C1025 C1024 1.370 . S
C1025 C1029 1.408 . S
C1026 C1024 1.363 . S
C1026 C1027 1.370 . S
C1026 C1030 1.524 . S
C1027 C1019 1.503 . S
C1027 C1026 1.370 . S
C1027 C1028 1.403 . S
C1028 C1027 1.403 . S
C1028 C1029 1.404 . S
C1028 C1031 1.539 . S
C1029 C1025 1.408 . S
C1029 C1028 1.404 . S
C1029 H1041 0.930 . S
C1030 C1026 1.524 . S
C1030 H1042 0.956 . S
C1030 H1043 0.961 . S
C1030 H1044 0.961 . S
C1031 C1028 1.539 . S
C1031 H1045 0.958 . S
C1031 H1046 0.961 . S
C1031 H1047 0.960 . S
H1032 C1016 0.931 . S
H1033 C1021 0.929 . S
H1034 C1022 0.960 . S
H1035 C1022 0.962 . S
H1036 C1022 0.960 . S
H1037 C1023 0.961 . S
H1038 C1023 0.961 . S
H1039 C1023 0.961 . S
H1040 C1024 0.931 . S
H1041 C1029 0.930 . S
H1042 C1030 0.956 . S
H1043 C1030 0.961 . S
H1044 C1030 0.961 . S
H1045 C1031 0.958 . S
H1046 C1031 0.961 . S
H1047 C1031 0.960 . S
C1048 C1049 1.391 . S
C1048 C1050 1.394 . S
C1048 H1064 0.931 . S
C1049 C1048 1.391 . S
C1049 C1053 1.376 . S
C1050 C1048 1.394 . S
C1050 C1051 1.369 . S
C1050 C1054 1.531 . S
C1051 C1050 1.369 . S
C1051 C1052 1.410 . S
C1051 C1059 1.503 . S
C1052 C1051 1.410 . S
C1052 C1053 1.392 . S
C1052 C1055 1.511 . S
C1053 C1049 1.376 . S
C1053 C1052 1.392 . S
C1053 H1065 0.929 . S
C1054 C1050 1.531 . S
C1054 H1066 0.960 . S
C1054 H1067 0.962 . S
C1054 H1068 0.960 . S
C1055 C1052 1.511 . S
C1055 H1069 0.961 . S
C1055 H1070 0.961 . S
C1055 H1071 0.961 . S
C1056 C1057 1.370 . S
C1056 C1058 1.363 . S
C1056 H1072 0.931 1_554 S
C1057 C1056 1.370 . S
C1057 C1061 1.408 . S
C1058 C1056 1.363 . S
C1058 C1059 1.370 . S
C1058 C1062 1.524 . S
C1059 C1051 1.503 . S
C1059 C1058 1.370 . S
C1059 C1060 1.403 . S
C1060 C1059 1.403 . S
C1060 C1061 1.404 . S
C1060 C1063 1.539 . S
C1061 C1057 1.408 . S
C1061 C1060 1.404 . S
C1061 H1073 0.930 . S
C1062 C1058 1.524 . S
C1062 H1074 0.956 . S
C1062 H1075 0.961 . S
C1062 H1076 0.961 1_554 S
C1063 C1060 1.539 . S
C1063 H1077 0.958 . S
C1063 H1078 0.961 . S
C1063 H1079 0.960 . S
H1064 C1048 0.931 . S
H1065 C1053 0.929 . S
H1066 C1054 0.960 . S
H1067 C1054 0.962 . S
H1068 C1054 0.960 . S
H1069 C1055 0.961 . S
H1070 C1055 0.961 . S
H1071 C1055 0.961 . S
H1072 C1056 0.931 1_556 S
H1073 C1061 0.930 . S
H1074 C1062 0.956 . S
H1075 C1062 0.961 . S
H1076 C1062 0.961 1_556 S
H1077 C1063 0.958 . S
H1078 C1063 0.961 . S
H1079 C1063 0.960 . S
C1080 C1081 1.391 . S
C1080 C1082 1.394 . S
C1080 H1096 0.931 . S
C1081 C1080 1.391 . S
C1081 C1085 1.376 . S
C1082 C1080 1.394 . S
C1082 C1083 1.369 . S
C1082 C1086 1.531 . S
C1083 C1082 1.369 . S
C1083 C1084 1.410 . S
C1083 C1091 1.503 . S
C1084 C1083 1.410 . S
C1084 C1085 1.392 . S
C1084 C1087 1.511 . S
C1085 C1081 1.376 . S
C1085 C1084 1.392 . S
C1085 H1097 0.929 . S
C1086 C1082 1.531 . S
C1086 H1098 0.960 . S
C1086 H1099 0.962 . S
C1086 H1100 0.960 . S
C1087 C1084 1.511 . S
C1087 H1101 0.961 . S
C1087 H1102 0.961 . S
C1087 H1103 0.961 . S
C1088 C1089 1.370 . S
C1088 C1090 1.363 . S
C1088 H1104 0.931 . S
C1089 C1088 1.370 . S
C1089 C1093 1.408 . S
C1090 C1088 1.363 . S
C1090 C1091 1.370 . S
C1090 C1094 1.524 . S
C1091 C1083 1.503 . S
C1091 C1090 1.370 . S
C1091 C1092 1.403 . S
C1092 C1091 1.403 . S
C1092 C1093 1.404 . S
C1092 C1095 1.539 . S
C1093 C1089 1.408 . S
C1093 C1092 1.404 . S
C1093 H1105 0.930 . S
C1094 C1090 1.524 . S
C1094 H1106 0.956 . S
C1094 H1107 0.961 . S
C1094 H1108 0.961 . S
C1095 C1092 1.539 . S
C1095 H1109 0.958 . S
C1095 H1110 0.961 . S
C1095 H1111 0.960 . S
H1096 C1080 0.931 . S
H1097 C1085 0.929 . S
H1098 C1086 0.960 . S
H1099 C1086 0.962 . S
H1100 C1086 0.960 . S
H1101 C1087 0.961 . S
H1102 C1087 0.961 . S
H1103 C1087 0.961 . S
H1104 C1088 0.931 . S
H1105 C1093 0.930 . S
H1106 C1094 0.956 . S
H1107 C1094 0.961 . S
H1108 C1094 0.961 . S
H1109 C1095 0.958 . S
H1110 C1095 0.961 . S
H1111 C1095 0.960 . S
C1112 C1113 1.391 . S
C1112 C1114 1.394 . S
C1112 H1128 0.931 . S
C1113 C1112 1.391 . S
C1113 C1117 1.376 . S
C1114 C1112 1.394 . S
C1114 C1115 1.369 . S
C1114 C1118 1.531 1_556 S
C1115 C1114 1.369 . S
C1115 C1116 1.410 . S
C1115 C1123 1.503 . S
C1116 C1115 1.410 . S
C1116 C1117 1.392 . S
C1116 C1119 1.511 . S
C1117 C1113 1.376 . S
C1117 C1116 1.392 . S
C1117 H1129 0.929 . S
C1118 C1114 1.531 1_554 S
C1118 H1130 0.960 . S
C1118 H1131 0.962 1_554 S
C1118 H1132 0.960 . S
C1119 C1116 1.511 . S
C1119 H1133 0.961 . S
C1119 H1134 0.961 . S
C1119 H1135 0.961 . S
C1120 C1121 1.370 . S
C1120 C1122 1.363 . S
C1120 H1136 0.931 . S
C1121 C1120 1.370 . S
C1121 C1125 1.408 . S
C1122 C1120 1.363 . S
C1122 C1123 1.370 . S
C1122 C1126 1.524 . S
C1123 C1115 1.503 . S
C1123 C1122 1.370 . S
C1123 C1124 1.403 . S
C1124 C1123 1.403 . S
C1124 C1125 1.404 . S
C1124 C1127 1.539 1_556 S
C1125 C1121 1.408 . S
C1125 C1124 1.404 . S
C1125 H1137 0.930 1_556 S
C1126 C1122 1.524 . S
C1126 H1138 0.956 . S
C1126 H1139 0.961 . S
C1126 H1140 0.961 . S
C1127 C1124 1.539 1_554 S
C1127 H1141 0.958 . S
C1127 H1142 0.961 . S
C1127 H1143 0.960 1_554 S
H1128 C1112 0.931 . S
H1129 C1117 0.929 . S
H1130 C1118 0.960 . S
H1131 C1118 0.962 1_556 S
H1132 C1118 0.960 . S
H1133 C1119 0.961 . S
H1134 C1119 0.961 . S
H1135 C1119 0.961 . S
H1136 C1120 0.931 . S
H1137 C1125 0.930 1_554 S
H1138 C1126 0.956 . S
H1139 C1126 0.961 . S
H1140 C1126 0.961 . S
H1141 C1127 0.958 . S
H1142 C1127 0.961 . S
H1143 C1127 0.960 1_556 S
C1144 C1145 1.391 . S
C1144 C1146 1.394 . S
C1144 H1160 0.931 . S
C1145 C1144 1.391 . S
C1145 C1149 1.376 . S
C1146 C1144 1.394 . S
C1146 C1147 1.369 . S
C1146 C1150 1.531 . S
C1147 C1146 1.369 . S
C1147 C1148 1.410 . S
C1147 C1155 1.503 . S
C1148 C1147 1.410 . S
C1148 C1149 1.392 . S
C1148 C1151 1.511 . S
C1149 C1145 1.376 . S
C1149 C1148 1.392 . S
C1149 H1161 0.929 . S
C1150 C1146 1.531 . S
C1150 H1162 0.960 . S
C1150 H1163 0.962 . S
C1150 H1164 0.960 . S
C1151 C1148 1.511 . S
C1151 H1165 0.961 . S
C1151 H1166 0.961 . S
C1151 H1167 0.961 . S
C1152 C1153 1.370 . S
C1152 C1154 1.363 . S
C1152 H1168 0.931 . S
C1153 C1152 1.370 . S
C1153 C1157 1.408 . S
C1154 C1152 1.363 . S
C1154 C1155 1.370 . S
C1154 C1158 1.524 . S
C1155 C1147 1.503 . S
C1155 C1154 1.370 . S
C1155 C1156 1.403 . S
C1156 C1155 1.403 . S
C1156 C1157 1.404 . S
C1156 C1159 1.539 . S
C1157 C1153 1.408 . S
C1157 C1156 1.404 . S
C1157 H1169 0.930 . S
C1158 C1154 1.524 . S
C1158 H1170 0.956 . S
C1158 H1171 0.961 . S
C1158 H1172 0.961 . S
C1159 C1156 1.539 . S
C1159 H1173 0.958 . S
C1159 H1174 0.961 . S
C1159 H1175 0.960 . S
H1160 C1144 0.931 . S
H1161 C1149 0.929 . S
H1162 C1150 0.960 . S
H1163 C1150 0.962 . S
H1164 C1150 0.960 . S
H1165 C1151 0.961 . S
H1166 C1151 0.961 . S
H1167 C1151 0.961 . S
H1168 C1152 0.931 . S
H1169 C1157 0.930 . S
H1170 C1158 0.956 . S
H1171 C1158 0.961 . S
H1172 C1158 0.961 . S
H1173 C1159 0.958 . S
H1174 C1159 0.961 . S
H1175 C1159 0.960 . S
C1176 C1177 1.391 . S
C1176 C1178 1.394 . S
C1176 H1192 0.931 . S
C1177 C1176 1.391 . S
C1177 C1181 1.376 . S
C1178 C1176 1.394 . S
C1178 C1179 1.369 . S
C1178 C1182 1.531 . S
C1179 C1178 1.369 . S
C1179 C1180 1.410 . S
C1179 C1187 1.503 . S
C1180 C1179 1.410 . S
C1180 C1181 1.392 . S
C1180 C1183 1.511 . S
C1181 C1177 1.376 . S
C1181 C1180 1.392 . S
C1181 H1193 0.929 . S
C1182 C1178 1.531 . S
C1182 H1194 0.960 . S
C1182 H1195 0.962 . S
C1182 H1196 0.960 . S
C1183 C1180 1.511 . S
C1183 H1197 0.961 . S
C1183 H1198 0.961 . S
C1183 H1199 0.961 . S
C1184 C1185 1.370 . S
C1184 C1186 1.363 . S
C1184 H1200 0.958 . S
C1185 C1184 1.370 . S
C1185 C1189 1.408 . S
C1186 C1184 1.363 . S
C1186 C1187 1.370 . S
C1186 C1190 1.524 . S
C1187 C1179 1.503 . S
C1187 C1186 1.370 . S
C1187 C1188 1.403 . S
C1188 C1187 1.403 . S
C1188 C1189 1.404 . S
C1188 C1191 1.539 . S
C1189 C1185 1.408 . S
C1189 C1188 1.404 . S
C1189 H1201 0.930 . S
C1190 C1186 1.524 . S
C1190 H1202 0.956 . S
C1190 H1203 0.961 . S
C1190 H1204 0.961 . S
C1191 C1188 1.539 . S
C1191 H1205 0.958 . S
C1191 H1206 0.961 . S
C1191 H1207 0.960 . S
H1192 C1176 0.931 . S
H1193 C1181 0.929 . S
H1194 C1182 0.960 . S
H1195 C1182 0.962 . S
H1196 C1182 0.960 . S
H1197 C1183 0.961 . S
H1198 C1183 0.961 . S
H1199 C1183 0.961 . S
H1200 C1184 0.958 . S
H1201 C1189 0.930 . S
H1202 C1190 0.956 . S
H1203 C1190 0.961 . S
H1204 C1190 0.961 . S
H1205 C1191 0.958 . S
H1206 C1191 0.961 . S
H1207 C1191 0.960 . S
C1208 C1209 1.391 . S
C1208 C1210 1.394 . S
C1208 H1224 0.931 . S
C1209 C1208 1.391 . S
C1209 C1213 1.376 . S
C1210 C1208 1.394 . S
C1210 C1211 1.369 . S
C1210 C1214 1.531 . S
C1211 C1210 1.369 . S
C1211 C1212 1.410 . S
C1211 C1219 1.503 . S
C1212 C1211 1.410 . S
C1212 C1213 1.392 . S
C1212 C1215 1.511 . S
C1213 C1209 1.376 . S
C1213 C1212 1.392 . S
C1213 H1225 0.929 . S
C1214 C1210 1.531 . S
C1214 H1226 0.960 . S
C1214 H1227 0.962 . S
C1214 H1228 0.960 . S
C1215 C1212 1.511 . S
C1215 H1229 0.961 . S
C1215 H1230 0.961 . S
C1215 H1231 0.961 . S
C1216 C1217 1.370 . S
C1216 C1218 1.363 . S
C1216 H1232 0.931 . S
C1217 C1216 1.370 . S
C1217 C1221 1.408 . S
C1218 C1216 1.363 . S
C1218 C1219 1.370 . S
C1218 C1222 1.524 . S
C1219 C1211 1.503 . S
C1219 C1218 1.370 . S
C1219 C1220 1.403 . S
C1220 C1219 1.403 . S
C1220 C1221 1.404 . S
C1220 C1223 1.539 . S
C1221 C1217 1.408 . S
C1221 C1220 1.404 . S
C1221 H1233 0.930 . S
C1222 C1218 1.524 . S
C1222 H1234 0.956 . S
C1222 H1235 0.961 . S
C1222 H1236 0.961 . S
C1223 C1220 1.539 . S
C1223 H1237 0.958 . S
C1223 H1238 0.961 . S
C1223 H1239 0.960 . S
H1224 C1208 0.931 . S
H1225 C1213 0.929 . S
H1226 C1214 0.960 . S
H1227 C1214 0.962 . S
H1228 C1214 0.960 . S
H1229 C1215 0.961 . S
H1230 C1215 0.961 . S
H1231 C1215 0.961 . S
H1232 C1216 0.931 . S
H1233 C1221 0.930 . S
H1234 C1222 0.956 . S
H1235 C1222 0.961 . S
H1236 C1222 0.961 . S
H1237 C1223 0.958 . S
H1238 C1223 0.961 . S
H1239 C1223 0.960 . S
C473 C1 2.907 . S
C481 C331 2.894 . S
C505 C40 2.394 . S
C513 C362 2.513 . S
C545 C401 1.382 . S
C537 C99 1.408 . S
C569 C118 0.544 . S
C577 C438 0.480 . S
C609 C361 2.822 . S
C601 C16 2.906 . S
C641 C318 1.540 . S
C633 C60 1.511 . S
C673 C450 1.429 . S
C665 C79 1.461 . S
C705 C407 1.032 . S
C697 C138 1.050 . S
C729 C21 2.300 . S
C737 C451 2.301 . S
C769 C367 1.299 . S
C761 C94 1.286 . S
C793 C133 0.510 . S
C801 C330 0.604 . S
C825 C55 2.520 . S
C833 C402 2.552 . S
C865 C322 2.893 . S
C857 C157 2.913 . S
C889 C196 2.426 . S
C897 C371 2.507 . S
C921 C255 1.405 . S
C929 C410 1.359 . S
C953 C289 0.445 . S
C961 C447 0.488 . S
C985 C172 2.904 . S
C993 C370 2.833 . S
C1025 C327 1.532 . S
C1017 C216 1.495 . S
C1057 C441 1.416 . S
C1049 C235 1.473 . S
C1089 C398 1.026 . S
C1081 C294 1.070 . S
C1113 C177 2.296 . S
C1121 C442 2.302 . S
C1153 C358 1.305 . S
C1145 C250 1.288 . S
C1185 C321 0.546 . S
C1177 C274 0.553 . S
C1209 C211 2.519 . S
C1217 C411 2.547 . S
