# Generated by pormake.
# Topology dag, (6,3)-cn, num edge types: 1
# Building blocks:
#     Node 0, Type 0, BuildingBlock: OJICUG_clean_sbu_0, # of connection points: 6
#     Node 1, Type 0, BuildingBlock: OJICUG_clean_sbu_0, # of connection points: 6
#     Node 2, Type 0, BuildingBlock: OJICUG_clean_sbu_0, # of connection points: 6
#     Node 3, Type 0, BuildingBlock: OJICUG_clean_sbu_0, # of connection points: 6
#     Node 4, Type 1, BuildingBlock: KAKCAD_clean_linker_0, # of connection points: 3
#     Node 5, Type 1, BuildingBlock: KAKCAD_clean_linker_0, # of connection points: 3
#     Node 6, Type 1, BuildingBlock: KAKCAD_clean_linker_0, # of connection points: 3
#     Node 7, Type 1, BuildingBlock: KAKCAD_clean_linker_0, # of connection points: 3
#     Node 8, Type 1, BuildingBlock: KAKCAD_clean_linker_0, # of connection points: 3
#     Node 9, Type 1, BuildingBlock: KAKCAD_clean_linker_0, # of connection points: 3
#     Node 10, Type 1, BuildingBlock: KAKCAD_clean_linker_0, # of connection points: 3
#     Node 11, Type 1, BuildingBlock: KAKCAD_clean_linker_0, # of connection points: 3
#     Edge 12, Type (0, 1), BuildingBlock: TEMPAE_clean_linker_10, # of connection points: 2
#     Edge 13, Type (0, 1), BuildingBlock: TEMPAE_clean_linker_10, # of connection points: 2
#     Edge 14, Type (0, 1), BuildingBlock: TEMPAE_clean_linker_10, # of connection points: 2
#     Edge 15, Type (0, 1), BuildingBlock: TEMPAE_clean_linker_10, # of connection points: 2
#     Edge 16, Type (0, 1), BuildingBlock: TEMPAE_clean_linker_10, # of connection points: 2
#     Edge 17, Type (0, 1), BuildingBlock: TEMPAE_clean_linker_10, # of connection points: 2
#     Edge 18, Type (0, 1), BuildingBlock: TEMPAE_clean_linker_10, # of connection points: 2
#     Edge 19, Type (0, 1), BuildingBlock: TEMPAE_clean_linker_10, # of connection points: 2
#     Edge 20, Type (0, 1), BuildingBlock: TEMPAE_clean_linker_10, # of connection points: 2
#     Edge 21, Type (0, 1), BuildingBlock: TEMPAE_clean_linker_10, # of connection points: 2
#     Edge 22, Type (0, 1), BuildingBlock: TEMPAE_clean_linker_10, # of connection points: 2
#     Edge 23, Type (0, 1), BuildingBlock: TEMPAE_clean_linker_10, # of connection points: 2
#     Edge 24, Type (0, 1), BuildingBlock: TEMPAE_clean_linker_10, # of connection points: 2
#     Edge 25, Type (0, 1), BuildingBlock: TEMPAE_clean_linker_10, # of connection points: 2
#     Edge 26, Type (0, 1), BuildingBlock: TEMPAE_clean_linker_10, # of connection points: 2
#     Edge 27, Type (0, 1), BuildingBlock: TEMPAE_clean_linker_10, # of connection points: 2
#     Edge 28, Type (0, 1), BuildingBlock: TEMPAE_clean_linker_10, # of connection points: 2
#     Edge 29, Type (0, 1), BuildingBlock: TEMPAE_clean_linker_10, # of connection points: 2
#     Edge 30, Type (0, 1), BuildingBlock: TEMPAE_clean_linker_10, # of connection points: 2
#     Edge 31, Type (0, 1), BuildingBlock: TEMPAE_clean_linker_10, # of connection points: 2
#     Edge 32, Type (0, 1), BuildingBlock: TEMPAE_clean_linker_10, # of connection points: 2
#     Edge 33, Type (0, 1), BuildingBlock: TEMPAE_clean_linker_10, # of connection points: 2
#     Edge 34, Type (0, 1), BuildingBlock: TEMPAE_clean_linker_10, # of connection points: 2
#     Edge 35, Type (0, 1), BuildingBlock: TEMPAE_clean_linker_10, # of connection points: 2
# Relax obj value: 0.252
# Max RMSD: 0.199
# Mean RMSD: 0.164
data_MOF--net-dag--node1-OJICUG_clean_sbu_0--node2-KAKCAD_clean_linker_0--edge1-TEMPAE_clean_linker_10
_symmetry_space_group_name_H-M    P1
_symmetry_Int_Tables_number       1
_symmetry_cell_setting            triclinic
loop_
_symmetry_equiv_pos_as_xyz
'x, y, z'
_cell_length_a     44.376783
_cell_length_b     46.441812
_cell_length_c     45.616014
_cell_angle_alpha  95.24727
_cell_angle_beta   90.155557
_cell_angle_gamma 90.076974
loop_
_atom_site_label
_atom_site_type_symbol
_atom_site_fract_x
_atom_site_fract_y
_atom_site_fract_z
_atom_type_partial_charge
Sc0 Sc 0.12467 0.85603 0.05165 0.0
Sc1 Sc 0.14097 0.78158 0.04857 0.0
Sc2 Sc 0.18952 0.83229 0.08656 0.0
O3 O 0.15174 0.8233 0.06221 0.0
C4 C 0.18947 0.88302 0.0436 0.0
C5 C 0.12398 0.81329 0.99228 0.0
C6 C 0.21276 0.78206 0.04049 0.0
C7 C 0.07635 0.8089 0.06578 0.0
C8 C 0.1434 0.87715 0.11787 0.0
C9 C 0.16383 0.77608 0.11374 0.0
O10 O 0.16181 0.88041 0.03651 0.0
O11 O 0.13442 0.79138 0.00366 0.0
O12 O 0.21707 0.80539 0.05676 0.0
O13 O 0.08503 0.83502 0.06612 0.0
O14 O 0.16563 0.86009 0.11905 0.0
O15 O 0.1465 0.76806 0.09227 0.0
O16 O 0.12777 0.87901 0.09475 0.0
O17 O 0.0935 0.78755 0.05829 0.0
O18 O 0.18145 0.79767 0.11366 0.0
O19 O 0.11801 0.83711 0.00715 0.0
O20 O 0.2021 0.86798 0.06206 0.0
O21 O 0.18692 0.77031 0.03692 0.0
Sc22 Sc 0.69444 0.6716 0.47094 0.0
Sc23 Sc 0.64436 0.72341 0.50541 0.0
Sc24 Sc 0.62901 0.64893 0.50535 0.0
O25 O 0.65594 0.68136 0.49391 0.0
C26 C 0.64782 0.62643 0.43953 0.0
C27 C 0.67089 0.72712 0.44103 0.0
C28 C 0.58049 0.69518 0.48762 0.0
C29 C 0.71564 0.72322 0.5173 0.0
C30 C 0.6938 0.62175 0.51467 0.0
C31 C 0.6264 0.69311 0.56316 0.0
O32 O 0.67148 0.64192 0.43908 0.0
O33 O 0.65363 0.73633 0.46202 0.0
O34 O 0.58882 0.66971 0.49178 0.0
O35 O 0.72079 0.70026 0.50066 0.0
O36 O 0.66591 0.62422 0.52047 0.0
O37 O 0.63349 0.71534 0.55027 0.0
O38 O 0.707 0.63696 0.49682 0.0
O39 O 0.68952 0.73441 0.52044 0.0
O40 O 0.62412 0.66805 0.54962 0.0
O41 O 0.68712 0.70471 0.44189 0.0
O42 O 0.63096 0.62646 0.46203 0.0
O43 O 0.59797 0.71695 0.49151 0.0
Sc44 Sc 0.85628 0.21634 0.00545 0.0
Sc45 Sc 0.80675 0.16721 0.96601 0.0
Sc46 Sc 0.86847 0.14117 0.00401 0.0
O47 O 0.84383 0.17495 0.99188 0.0
C48 C 0.91981 0.18634 0.99062 0.0
C49 C 0.83469 0.22297 0.93984 0.0
C50 C 0.85313 0.12128 0.93661 0.0
C51 C 0.7844 0.21824 0.01213 0.0
C52 C 0.86959 0.18393 0.06301 0.0
C53 C 0.802 0.1162 0.00832 0.0
O54 O 0.90302 0.20852 0.99447 0.0
O55 O 0.81741 0.20111 0.93892 0.0
O56 O 0.86783 0.11927 0.9603 0.0
O57 O 0.81069 0.22848 0.01747 0.0
O58 O 0.87196 0.15919 0.04885 0.0
O59 O 0.79102 0.13194 0.9896 0.0
O60 O 0.86367 0.20669 0.05051 0.0
O61 O 0.77948 0.19575 0.99468 0.0
O62 O 0.8294 0.11784 0.01647 0.0
O63 O 0.85084 0.23097 0.96216 0.0
O64 O 0.91041 0.16082 0.99317 0.0
O65 O 0.83095 0.13832 0.93476 0.0
Sc66 Sc 0.37851 0.34865 0.5419 0.0
Sc67 Sc 0.31626 0.32481 0.58025 0.0
Sc68 Sc 0.36189 0.27428 0.53825 0.0
O69 O 0.35221 0.31587 0.55343 0.0
C70 C 0.37535 0.30849 0.48174 0.0
C71 C 0.31218 0.37571 0.53885 0.0
C72 C 0.29045 0.27452 0.53417 0.0
C73 C 0.36555 0.36956 0.60877 0.0
C74 C 0.42742 0.2998 0.55191 0.0
C75 C 0.34328 0.26881 0.60528 0.0
O76 O 0.37733 0.33304 0.49635 0.0
O77 O 0.29948 0.35775 0.55426 0.0
O78 O 0.31605 0.26578 0.52465 0.0
O79 O 0.38257 0.36778 0.58635 0.0
O80 O 0.40887 0.2788 0.5502 0.0
O81 O 0.32999 0.29308 0.60859 0.0
O82 O 0.41966 0.32562 0.54846 0.0
O83 O 0.34047 0.35633 0.60919 0.0
O84 O 0.35415 0.25827 0.58081 0.0
O85 O 0.34037 0.37547 0.53383 0.0
O86 O 0.37092 0.28521 0.49385 0.0
O87 O 0.28726 0.29439 0.55503 0.0
C88 C 0.97538 0.19183 0.27798 0.0
C89 C 0.95042 0.1762 0.26597 0.0
C90 C 0.99368 0.18035 0.299 0.0
C91 C 0.98742 0.15297 0.30838 0.0
C92 C 0.96126 0.13829 0.2979 0.0
C93 C 0.94292 0.14981 0.27695 0.0
C94 C 0.00998 0.13834 0.326 0.0
C95 C 0.02576 0.15372 0.34922 0.0
C96 C 0.04971 0.14071 0.36327 0.0
C97 C 0.0581 0.11226 0.35376 0.0
C98 C 0.04278 0.09683 0.33046 0.0
C99 C 0.01838 0.10968 0.31712 0.0
C100 C 0.05513 0.06932 0.31683 0.0
C101 C 0.08384 0.06907 0.30412 0.0
C102 C 0.03762 0.04408 0.31402 0.0
C103 C 0.04854 0.01899 0.29825 0.0
C104 C 0.07684 0.01897 0.28423 0.0
C105 C 0.06827 0.15757 0.38567 0.0
C106 C 0.08186 0.18346 0.37904 0.0
C107 C 0.07467 0.14666 0.41267 0.0
C108 C 0.09497 0.16102 0.43244 0.0
C109 C 0.10983 0.18626 0.42529 0.0
C110 C 0.1026 0.19753 0.39851 0.0
C111 C 0.09445 0.04433 0.28775 0.0
H112 H 0.98153 0.21236 0.27015 0.0
H113 H 0.01376 0.19214 0.30649 0.0
H114 H 0.9557 0.11729 0.30497 0.0
H115 H 0.92397 0.13713 0.26801 0.0
H116 H 0.0198 0.17595 0.35604 0.0
H117 H 0.00754 0.0981 0.29823 0.0
H118 H 0.07754 0.10263 0.36348 0.0
H119 H 0.09751 0.0885 0.30566 0.0
H120 H 0.01536 0.0439 0.32371 0.0
H121 H 0.03453 -0.00018 0.29665 0.0
H122 H 0.07756 0.19207 0.35814 0.0
H123 H 0.06428 0.12676 0.41827 0.0
H124 H 0.11596 0.04568 0.27684 0.0
H125 H 0.11388 0.21657 0.3919 0.0
H126 H 0.09938 0.15202 0.45309 0.0
C127 C 0.40026 0.54352 0.78074 0.0
C128 C 0.42157 0.52291 0.7699 0.0
C129 C 0.40936 0.56859 0.79765 0.0
C130 C 0.44001 0.57363 0.8042 0.0
C131 C 0.4612 0.55241 0.79444 0.0
C132 C 0.45207 0.52728 0.7775 0.0
C133 C 0.44983 0.60193 0.81901 0.0
C134 C 0.43266 0.61588 0.84183 0.0
C135 C 0.43928 0.64435 0.85306 0.0
C136 C 0.46404 0.65869 0.84189 0.0
C137 C 0.48162 0.64502 0.81911 0.0
C138 C 0.4745 0.61655 0.80806 0.0
C139 C 0.50476 0.66131 0.80388 0.0
C140 C 0.49823 0.68899 0.7954 0.0
C141 C 0.53177 0.64783 0.79427 0.0
C142 C 0.55059 0.66066 0.77468 0.0
C143 C 0.54279 0.68725 0.76428 0.0
C144 C 0.41836 0.65992 0.87418 0.0
C145 C 0.38722 0.6589 0.86856 0.0
C146 C 0.42909 0.67615 0.89959 0.0
C147 C 0.4089 0.69084 0.91919 0.0
C148 C 0.37777 0.68989 0.91337 0.0
C149 C 0.36717 0.67379 0.88788 0.0
C150 C 0.51707 0.70182 0.7758 0.0
H151 H 0.37656 0.54059 0.77553 0.0
H152 H 0.39246 0.5846 0.8045 0.0
H153 H 0.48493 0.55556 0.79935 0.0
H154 H 0.46904 0.51186 0.76932 0.0
H155 H 0.41355 0.6048 0.85044 0.0
H156 H 0.48684 0.6065 0.78937 0.0
H157 H 0.46876 0.68092 0.84998 0.0
H158 H 0.47754 0.6999 0.80229 0.0
H159 H 0.53755 0.62665 0.80072 0.0
H160 H 0.57012 0.64875 0.76613 0.0
H161 H 0.37836 0.64685 0.84895 0.0
H162 H 0.453 0.67724 0.9044 0.0
H163 H 0.51067 0.7225 0.76847 0.0
H164 H 0.34327 0.67248 0.88302 0.0
H165 H 0.41762 0.70322 0.93866 0.0
C166 C 0.83517 0.7845 0.11443 0.0
C167 C 0.85504 0.80427 0.10314 0.0
C168 C 0.80551 0.79267 0.12169 0.0
C169 C 0.79539 0.8209 0.11819 0.0
C170 C 0.81561 0.84057 0.10707 0.0
C171 C 0.8449 0.83229 0.09943 0.0
C172 C 0.7645 0.83063 0.12724 0.0
C173 C 0.7513 0.82194 0.153 0.0
C174 C 0.72418 0.83443 0.16387 0.0
C175 C 0.7104 0.85605 0.14886 0.0
C176 C 0.72301 0.86453 0.12286 0.0
C177 C 0.74944 0.85114 0.11177 0.0
C178 C 0.71184 0.8903 0.10944 0.0
C179 C 0.70791 0.88956 0.07884 0.0
C180 C 0.71049 0.91695 0.12655 0.0
C181 C 0.70833 0.94267 0.11305 0.0
C182 C 0.70717 0.94217 0.08216 0.0
C183 C 0.71158 0.82626 0.19203 0.0
C184 C 0.71028 0.79708 0.19777 0.0
C185 C 0.70197 0.8476 0.21384 0.0
C186 C 0.69203 0.83995 0.24112 0.0
C187 C 0.69134 0.8108 0.24707 0.0
C188 C 0.7002 0.78943 0.22497 0.0
C189 C 0.70529 0.91526 0.06535 0.0
H190 H 0.84254 0.76275 0.1175 0.0
H191 H 0.79056 0.77689 0.13001 0.0
H192 H 0.80918 0.86277 0.10497 0.0
H193 H 0.85998 0.84816 0.09139 0.0
H194 H 0.76298 0.80673 0.16564 0.0
H195 H 0.75926 0.85807 0.09185 0.0
H196 H 0.69007 0.86654 0.15752 0.0
H197 H 0.70865 0.86919 0.06524 0.0
H198 H 0.71375 0.91808 0.15018 0.0
H199 H 0.71008 0.9629 0.12675 0.0
H200 H 0.71735 0.78018 0.1813 0.0
H201 H 0.70298 0.87029 0.21015 0.0
H202 H 0.70363 0.91407 0.04157 0.0
H203 H 0.70026 0.76681 0.22902 0.0
H204 H 0.68518 0.85685 0.25769 0.0
C205 C 0.65554 0.29147 0.63793 0.0
C206 C 0.64569 0.29049 0.60854 0.0
C207 C 0.68473 0.30056 0.64567 0.0
C208 C 0.70505 0.30844 0.62415 0.0
C209 C 0.69589 0.30538 0.59447 0.0
C210 C 0.66651 0.29671 0.58678 0.0
C211 C 0.73425 0.32262 0.63303 0.0
C212 C 0.75002 0.31499 0.65792 0.0
C213 C 0.77457 0.33159 0.66939 0.0
C214 C 0.7843 0.35535 0.65498 0.0
C215 C 0.76928 0.36287 0.6297 0.0
C216 C 0.74448 0.34637 0.61879 0.0
C217 C 0.7763 0.39023 0.6169 0.0
C218 C 0.77638 0.4164 0.63491 0.0
C219 C 0.77891 0.39079 0.58631 0.0
C220 C 0.77972 0.41713 0.5738 0.0
C221 C 0.77736 0.44341 0.59163 0.0
C222 C 0.78772 0.32596 0.69818 0.0
C223 C 0.76855 0.32165 0.72182 0.0
C224 C 0.81908 0.32547 0.70255 0.0
C225 C 0.83099 0.32014 0.73 0.0
C226 C 0.8117 0.31571 0.75357 0.0
C227 C 0.78039 0.31661 0.74918 0.0
C228 C 0.77676 0.44274 0.62241 0.0
H229 H 0.64034 0.28623 0.6552 0.0
H230 H 0.6907 0.30282 0.6688 0.0
H231 H 0.71108 0.31069 0.57722 0.0
H232 H 0.65977 0.29634 0.56392 0.0
H233 H 0.74264 0.29658 0.66902 0.0
H234 H 0.73177 0.3535 0.60048 0.0
H235 H 0.80262 0.36879 0.66419 0.0
H236 H 0.77404 0.41653 0.65856 0.0
H237 H 0.77913 0.37083 0.57201 0.0
H238 H 0.7809 0.41687 0.55007 0.0
H239 H 0.74429 0.32237 0.71923 0.0
H240 H 0.83432 0.32877 0.68465 0.0
H241 H 0.77458 0.46247 0.63684 0.0
H242 H 0.76494 0.31281 0.76677 0.0
H243 H 0.85522 0.31952 0.73283 0.0
C244 C 0.55414 0.47952 0.26699 0.0
C245 C 0.58526 0.48158 0.27274 0.0
C246 C 0.54229 0.45563 0.24987 0.0
C247 C 0.56128 0.43329 0.23814 0.0
C248 C 0.59253 0.43601 0.24283 0.0
C249 C 0.60437 0.4599 0.25987 0.0
C250 C 0.54849 0.40616 0.22319 0.0
C251 C 0.56314 0.39165 0.1989 0.0
C252 C 0.5535 0.36411 0.18716 0.0
C253 C 0.52832 0.35145 0.19957 0.0
C254 C 0.51351 0.36555 0.22395 0.0
C255 C 0.52349 0.39305 0.23534 0.0
C256 C 0.49045 0.35017 0.24017 0.0
C257 C 0.4648 0.36479 0.25175 0.0
C258 C 0.49584 0.32176 0.24715 0.0
C259 C 0.47724 0.30905 0.267 0.0
C260 C 0.4528 0.32443 0.28014 0.0
C261 C 0.57186 0.34736 0.16433 0.0
C262 C 0.58583 0.36112 0.14173 0.0
C263 C 0.57756 0.31785 0.16646 0.0
C264 C 0.59762 0.30276 0.14723 0.0
C265 C 0.61275 0.31687 0.12559 0.0
C266 C 0.60613 0.34606 0.12263 0.0
C267 C 0.44608 0.35199 0.27148 0.0
H268 H 0.53877 0.49574 0.27675 0.0
H269 H 0.51815 0.4543 0.24642 0.0
H270 H 0.60781 0.41908 0.23443 0.0
H271 H 0.62848 0.46103 0.26359 0.0
H272 H 0.58297 0.4013 0.19002 0.0
H273 H 0.51314 0.40332 0.2551 0.0
H274 H 0.52068 0.33021 0.19079 0.0
H275 H 0.45998 0.38661 0.24655 0.0
H276 H 0.51554 0.31001 0.23877 0.0
H277 H 0.4828 0.28771 0.27317 0.0
H278 H 0.58163 0.38373 0.13923 0.0
H279 H 0.56753 0.30658 0.18377 0.0
H280 H 0.42753 0.36445 0.28142 0.0
H281 H 0.61749 0.35763 0.1063 0.0
H282 H 0.60178 0.28015 0.14977 0.0
C283 C 0.14672 0.18725 0.90003 0.0
C284 C 0.13721 0.18981 0.92955 0.0
C285 C 0.17626 0.17914 0.89272 0.0
C286 C 0.19724 0.17387 0.91478 0.0
C287 C 0.18821 0.17816 0.94439 0.0
C288 C 0.15854 0.18577 0.95167 0.0
C289 C 0.2276 0.1619 0.90692 0.0
C290 C 0.24294 0.1698 0.88202 0.0
C291 C 0.27014 0.1564 0.87318 0.0
C292 C 0.28282 0.13557 0.88984 0.0
C293 C 0.26767 0.12702 0.91464 0.0
C294 C 0.24014 0.14039 0.92294 0.0
C295 C 0.27805 0.10176 0.92981 0.0
C296 C 0.28932 0.07691 0.91357 0.0
C297 C 0.27297 0.10083 0.96011 0.0
C298 C 0.27573 0.07492 0.97309 0.0
C299 C 0.28436 0.04936 0.95626 0.0
C300 C 0.2831 0.1617 0.84451 0.0
C301 C 0.26672 0.15348 0.81881 0.0
C302 C 0.31104 0.17547 0.84257 0.0
C303 C 0.32181 0.18219 0.81519 0.0
C304 C 0.30491 0.17483 0.78938 0.0
C305 C 0.27764 0.15969 0.7915 0.0
C306 C 0.29275 0.05109 0.92673 0.0
H307 H 0.13113 0.19078 0.88242 0.0
H308 H 0.18218 0.17586 0.86965 0.0
H309 H 0.20387 0.17488 0.96202 0.0
H310 H 0.15213 0.18728 0.97464 0.0
H311 H 0.2335 0.18597 0.86897 0.0
H312 H 0.22736 0.13265 0.94084 0.0
H313 H 0.30369 0.12515 0.88261 0.0
H314 H 0.29358 0.07672 0.89019 0.0
H315 H 0.26508 0.11978 0.97349 0.0
H316 H 0.26896 0.0747 0.99585 0.0
H317 H 0.24528 0.14243 0.81993 0.0
H318 H 0.32397 0.18189 0.86228 0.0
H319 H 0.30038 0.0321 0.91327 0.0
H320 H 0.26442 0.15305 0.77205 0.0
H321 H 0.34275 0.19408 0.81441 0.0
C322 C 0.34256 0.70906 0.42274 0.0
C323 C 0.36707 0.69007 0.41797 0.0
C324 C 0.31305 0.6992 0.41718 0.0
C325 C 0.30766 0.67009 0.40736 0.0
C326 C 0.33221 0.65131 0.40212 0.0
C327 C 0.36158 0.66121 0.40724 0.0
C328 C 0.2766 0.65873 0.40339 0.0
C329 C 0.25606 0.6713 0.38493 0.0
C330 C 0.22764 0.65851 0.37876 0.0
C331 C 0.21947 0.63375 0.39252 0.0
C332 C 0.23997 0.621 0.41076 0.0
C333 C 0.26837 0.63357 0.41616 0.0
C334 C 0.23343 0.59271 0.42147 0.0
C335 C 0.21029 0.58939 0.4418 0.0
C336 C 0.2517 0.56904 0.41221 0.0
C337 C 0.24765 0.54263 0.42382 0.0
C338 C 0.22546 0.53946 0.4452 0.0
C339 C 0.20852 0.66861 0.35499 0.0
C340 C 0.20589 0.69821 0.35132 0.0
C341 C 0.19532 0.64838 0.33391 0.0
C342 C 0.18142 0.65746 0.30889 0.0
C343 C 0.18052 0.68692 0.3043 0.0
C344 C 0.19203 0.70729 0.32622 0.0
C345 C 0.20652 0.56295 0.45386 0.0
H346 H 0.34622 0.73142 0.43098 0.0
H347 H 0.29442 0.71405 0.42136 0.0
H348 H 0.32863 0.62883 0.39429 0.0
H349 H 0.37999 0.646 0.40372 0.0
H350 H 0.26312 0.6898 0.37379 0.0
H351 H 0.28436 0.62335 0.42996 0.0
H352 H 0.19782 0.62347 0.38786 0.0
H353 H 0.19599 0.6075 0.44914 0.0
H354 H 0.2696 0.57122 0.39644 0.0
H355 H 0.26291 0.52507 0.41711 0.0
H356 H 0.21552 0.71432 0.36734 0.0
H357 H 0.19719 0.62538 0.33583 0.0
H358 H 0.18933 0.56102 0.47039 0.0
H359 H 0.19186 0.73015 0.32323 0.0
H360 H 0.17244 0.6413 0.29254 0.0
C361 C 0.06741 0.84343 0.76567 0.0
C362 C 0.05689 0.8238 0.78516 0.0
C363 C 0.04783 0.85454 0.74541 0.0
C364 C 0.01764 0.84554 0.74358 0.0
C365 C 0.00782 0.82404 0.761 0.0
C366 C 0.02708 0.81348 0.78173 0.0
C367 C 0.99501 0.86185 0.728 0.0
C368 C 0.97436 0.84742 0.70848 0.0
C369 C 0.94903 0.86198 0.69877 0.0
C370 C 0.94424 0.89102 0.7092 0.0
C371 C 0.96471 0.90585 0.7288 0.0
C372 C 0.9907 0.89124 0.73707 0.0
C373 C 0.95702 0.93501 0.74343 0.0
C374 C 0.93964 0.95481 0.72891 0.0
C375 C 0.96479 0.94226 0.77318 0.0
C376 C 0.95483 0.968 0.78811 0.0
C377 C 0.93629 0.98683 0.77396 0.0
C378 C 0.92622 0.84629 0.67962 0.0
C379 C 0.93488 0.82943 0.65389 0.0
C380 C 0.89553 0.84822 0.68701 0.0
C381 C 0.87388 0.83373 0.66895 0.0
C382 C 0.88243 0.81718 0.64301 0.0
C383 C 0.91314 0.81516 0.63561 0.0
C384 C 0.929 0.98028 0.74418 0.0
H385 H 0.09038 0.85132 0.76695 0.0
H386 H 0.05587 0.87111 0.73211 0.0
H387 H 0.98449 0.81708 0.76029 0.0
H388 H 0.01772 0.79881 0.79642 0.0
H389 H 0.97725 0.82454 0.702 0.0
H390 H 0.00673 0.90209 0.75228 0.0
H391 H 0.92382 0.9016 0.70286 0.0
H392 H 0.93364 0.95038 0.70592 0.0
H393 H 0.97733 0.9275 0.78558 0.0
H394 H 0.96032 0.97248 0.81125 0.0
H395 H 0.9584 0.82765 0.64771 0.0
H396 H 0.88827 0.86081 0.7069 0.0
H397 H 0.91468 0.99462 0.73291 0.0
H398 H 0.92033 0.80237 0.61583 0.0
H399 H 0.85036 0.83582 0.67506 0.0
C400 C 0.13422 0.88499 0.17198 0.0
C401 C 0.1353 0.89596 0.1444 0.0
C402 C 0.12481 0.9025 0.19704 0.0
C403 C 0.11742 0.93183 0.19446 0.0
C404 C 0.1194 0.94313 0.16671 0.0
C405 C 0.12778 0.92489 0.14192 0.0
C406 C 0.12196 0.88945 0.22602 0.0
C407 C 0.11259 0.97449 0.16316 0.0
C408 C 0.06629 0.97677 0.24688 0.0
C409 C 0.08714 0.99363 0.26422 0.0
C410 C 0.07587 0.95514 0.22545 0.0
C411 C 0.10707 0.95085 0.22047 0.0
C412 C 0.12824 0.96684 0.2386 0.0
C413 C 0.11802 0.9876 0.2606 0.0
C414 C 0.05256 0.93789 0.20714 0.0
C415 C 0.16172 0.96329 0.23364 0.0
H416 H 0.13977 0.86248 0.17374 0.0
H417 H 0.12886 0.93334 0.12055 0.0
H418 H 0.13585 0.90173 0.24313 0.0
H419 H 0.09821 0.8909 0.23357 0.0
H420 H 0.129 0.86641 0.22441 0.0
H421 H 0.11708 0.98024 0.14047 0.0
H422 H 0.08859 0.97912 0.1684 0.0
H423 H 0.12642 0.9887 0.17881 0.0
H424 H 0.04241 0.98121 0.24902 0.0
H425 H 0.1344 -0.00027 0.27439 0.0
H426 H 0.05828 0.91454 0.20526 0.0
H427 H 0.05221 0.94493 0.18455 0.0
H428 H 0.02958 0.9407 0.21658 0.0
H429 H 0.16818 0.9402 0.23312 0.0
H430 H 0.17524 0.97587 0.25092 0.0
H431 H 0.1677 0.9707 0.21194 0.0
C432 C 0.62069 0.72327 0.61168 0.0
C433 C 0.61912 0.69629 0.59507 0.0
C434 C 0.61164 0.7264 0.64135 0.0
C435 C 0.60052 0.70208 0.65453 0.0
C436 C 0.59989 0.67469 0.63818 0.0
C437 C 0.60929 0.67212 0.60881 0.0
C438 C 0.61306 0.75585 0.65827 0.0
C439 C 0.58813 0.64816 0.65135 0.0
C440 C 0.5902 0.69485 0.7359 0.0
C441 C 0.55879 0.6973 0.7385 0.0
C442 C 0.60467 0.69885 0.70921 0.0
C443 C 0.58723 0.70513 0.68455 0.0
C444 C 0.55585 0.7098 0.68774 0.0
C445 C 0.54203 0.70587 0.71467 0.0
C446 C 0.63826 0.69424 0.70684 0.0
C447 C 0.53637 0.71639 0.66199 0.0
H448 H 0.62845 0.74205 0.6014 0.0
H449 H 0.60814 0.65111 0.59639 0.0
H450 H 0.58989 0.76416 0.66237 0.0
H451 H 0.6239 0.75442 0.68004 0.0
H452 H 0.62571 0.77169 0.64619 0.0
H453 H 0.59028 0.62824 0.63604 0.0
H454 H 0.60052 0.64487 0.67192 0.0
H455 H 0.564 0.6512 0.65715 0.0
H456 H 0.60332 0.68863 0.75438 0.0
H457 H 0.51773 0.70752 0.71634 0.0
H458 H 0.64883 0.71088 0.69422 0.0
H459 H 0.64278 0.67283 0.69482 0.0
H460 H 0.64918 0.69485 0.72884 0.0
H461 H 0.54656 0.73383 0.6502 0.0
H462 H 0.51323 0.72304 0.66895 0.0
H463 H 0.53468 0.69684 0.64615 0.0
C464 C 0.79249 0.07944 0.044 0.0
C465 C 0.78255 0.09404 0.02019 0.0
C466 C 0.7758 0.05658 0.0538 0.0
C467 C 0.74854 0.04794 0.03935 0.0
C468 C 0.73764 0.06337 0.01618 0.0
C469 C 0.75475 0.08632 0.0069 0.0
C470 C 0.78806 0.04083 0.07882 0.0
C471 C 0.70868 0.05477 0.00026 0.0
C472 C 0.73262 0.96854 0.04374 0.0
C473 C 0.71281 0.96915 0.06773 0.0
C474 C 0.74283 0.99412 0.03304 0.0
C475 C 0.73329 0.02107 0.04683 0.0
C476 C 0.71183 0.02193 0.06979 0.0
C477 C 0.70175 0.99592 0.07992 0.0
C478 C 0.76554 0.99224 0.00831 0.0
C479 C 0.70097 0.05027 0.08489 0.0
H480 H 0.81373 0.08546 0.05467 0.0
H481 H 0.7468 0.09751 0.98854 0.0
H482 H 0.77057 0.03929 0.09594 0.0
H483 H 0.79434 0.01845 0.0705 0.0
H484 H 0.80825 0.05168 0.08923 0.0
H485 H 0.70142 0.07104 0.9853 0.0
H486 H 0.71187 0.03376 0.987 0.0
H487 H 0.69036 0.05182 0.01621 0.0
H488 H 0.74174 0.94811 0.03437 0.0
H489 H 0.68607 0.9966 0.09815 0.0
H490 H 0.78785 -0.00024 0.01703 0.0
H491 H 0.75887 0.00652 0.99119 0.0
H492 H 0.76802 0.96984 0.9978 0.0
H493 H 0.71943 0.0605 0.09862 0.0
H494 H 0.68126 0.04735 0.09929 0.0
H495 H 0.69473 0.06545 0.06846 0.0
C496 C 0.48156 0.31444 0.55214 0.0
C497 C 0.4595 0.29429 0.5585 0.0
C498 C 0.51187 0.31052 0.55942 0.0
C499 C 0.52035 0.28599 0.57376 0.0
C500 C 0.49837 0.26518 0.57966 0.0
C501 C 0.46817 0.26949 0.57178 0.0
C502 C 0.53469 0.33306 0.55243 0.0
C503 C 0.50656 0.23893 0.59519 0.0
C504 C 0.60442 0.27085 0.57427 0.0
C505 C 0.61324 0.28588 0.60104 0.0
C506 C 0.57401 0.26957 0.56557 0.0
C507 C 0.55191 0.28341 0.5842 0.0
C508 C 0.56045 0.29729 0.61187 0.0
C509 C 0.59097 0.29854 0.61984 0.0
C510 C 0.56575 0.25463 0.53585 0.0
C511 C 0.53754 0.31217 0.63247 0.0
H512 H 0.47513 0.33349 0.54156 0.0
H513 H 0.45124 0.25385 0.57682 0.0
H514 H 0.5441 0.34384 0.57317 0.0
H515 H 0.55373 0.32269 0.53979 0.0
H516 H 0.52476 0.34985 0.5395 0.0
H517 H 0.48731 0.22374 0.59623 0.0
H518 H 0.52563 0.22724 0.58387 0.0
H519 H 0.51405 0.24583 0.61798 0.0
H520 H 0.62136 0.26059 0.5598 0.0
H521 H 0.59744 0.31065 0.64033 0.0
H522 H 0.5581 0.27093 0.52113 0.0
H523 H 0.54678 0.23938 0.53794 0.0
H524 H 0.58503 0.24256 0.52525 0.0
H525 H 0.52849 0.33143 0.62274 0.0
H526 H 0.54734 0.31929 0.65438 0.0
H527 H 0.51827 0.29751 0.63559 0.0
C528 C 0.65707 0.6061 0.3873 0.0
C529 C 0.63943 0.60724 0.4129 0.0
C530 C 0.64956 0.58736 0.36239 0.0
C531 C 0.62389 0.56932 0.36314 0.0
C532 C 0.60572 0.57075 0.38866 0.0
C533 C 0.61367 0.58967 0.41316 0.0
C534 C 0.66939 0.58647 0.33548 0.0
C535 C 0.57815 0.55185 0.39034 0.0
C536 C 0.58683 0.53343 0.29402 0.0
C537 C 0.59739 0.50496 0.29395 0.0
C538 C 0.59624 0.55501 0.31572 0.0
C539 C 0.61659 0.54787 0.33789 0.0
C540 C 0.62813 0.51943 0.33731 0.0
C541 C 0.61837 0.49834 0.31539 0.0
C542 C 0.5836 0.58515 0.31554 0.0
C543 C 0.64976 0.51093 0.36064 0.0
H544 H 0.67692 0.61965 0.38676 0.0
H545 H 0.59975 0.5904 0.4327 0.0
H546 H 0.67987 0.5648 0.33147 0.0
H547 H 0.65567 0.59001 0.31576 0.0
H548 H 0.68756 0.603 0.3378 0.0
H549 H 0.56584 0.55629 0.41145 0.0
H550 H 0.5625 0.55521 0.37197 0.0
H551 H 0.58485 0.52874 0.38801 0.0
H552 H 0.57089 0.53876 0.2773 0.0
H553 H 0.62631 0.47632 0.31577 0.0
H554 H 0.60208 0.60133 0.31711 0.0
H555 H 0.56892 0.58998 0.33502 0.0
H556 H 0.57015 0.58783 0.29539 0.0
H557 H 0.66918 0.52604 0.36271 0.0
H558 H 0.65842 0.48857 0.35576 0.0
H559 H 0.63824 0.51234 0.38229 0.0
C560 C 0.97318 0.1695 0.98893 0.0
C561 C 0.95173 0.19018 0.98256 0.0
C562 C 0.00337 0.17217 0.98066 0.0
C563 C 0.01223 0.1958 0.96513 0.0
C564 C 0.99077 0.21694 0.95887 0.0
C565 C 0.96077 0.21402 0.96792 0.0
C566 C 0.0257 0.14943 0.9882 0.0
C567 C 0.99929 0.24213 0.94188 0.0
C568 C 0.09633 0.21053 0.96335 0.0
C569 C 0.10481 0.19438 0.93714 0.0
C570 C 0.0661 0.21202 0.97234 0.0
C571 C 0.04373 0.19747 0.95443 0.0
C572 C 0.05187 0.18246 0.92723 0.0
C573 C 0.08229 0.18084 0.91907 0.0
C574 C 0.05829 0.22805 0.00162 0.0
C575 C 0.0286 0.16697 0.90731 0.0
H576 H 0.96637 0.15119 0.0005 0.0
H577 H 0.94422 0.22997 0.9628 0.0
H578 H 0.03454 0.1378 0.96769 0.0
H579 H 0.04518 0.15977 0.00032 0.0
H580 H 0.01553 0.13335 0.00184 0.0
H581 H 0.98023 0.2573 0.93982 0.0
H582 H 0.01843 0.25423 0.95279 0.0
H583 H 0.00685 0.23402 0.91946 0.0
H584 H 0.11342 0.22158 0.9772 0.0
H585 H 0.08846 0.1679 0.89902 0.0
H586 H 0.05011 0.21248 0.01687 0.0
H587 H 0.03982 0.24366 0.99894 0.0
H588 H 0.07792 0.23994 0.01195 0.0
H589 H 0.01951 0.14822 0.91789 0.0
H590 H 0.0381 0.15899 0.88557 0.0
H591 H 0.00941 0.18155 0.90373 0.0
C592 C 0.26198 0.39718 0.52736 0.0
C593 C 0.29361 0.39809 0.5263 0.0
C594 C 0.24447 0.4184 0.51531 0.0
C595 C 0.25898 0.44106 0.5021 0.0
C596 C 0.29084 0.44214 0.5011 0.0
C597 C 0.30771 0.42065 0.51311 0.0
C598 C 0.21055 0.41652 0.51654 0.0
C599 C 0.30724 0.46604 0.48729 0.0
C600 C 0.22765 0.48571 0.44439 0.0
C601 C 0.22506 0.51274 0.46055 0.0
C602 C 0.23567 0.46112 0.45826 0.0
C603 C 0.24141 0.46382 0.48892 0.0
C604 C 0.23564 0.49039 0.50573 0.0
C605 C 0.22746 0.51462 0.49129 0.0
C606 C 0.24108 0.43307 0.43959 0.0
C607 C 0.24131 0.49412 0.5385 0.0
H608 H 0.25087 0.37978 0.53742 0.0
H609 H 0.33209 0.42169 0.51226 0.0
H610 H 0.20123 0.43658 0.52814 0.0
H611 H 0.2011 0.41464 0.4939 0.0
H612 H 0.20274 0.39774 0.52794 0.0
H613 H 0.33212 0.4639 0.48867 0.0
H614 H 0.30079 0.46591 0.46376 0.0
H615 H 0.30071 0.48737 0.49839 0.0
H616 H 0.22534 0.4842 0.42062 0.0
H617 H 0.22553 0.53551 0.50384 0.0
H618 H 0.23245 0.41443 0.45064 0.0
H619 H 0.26568 0.42994 0.43635 0.0
H620 H 0.23025 0.43298 0.4176 0.0
H621 H 0.23285 0.47522 0.54923 0.0
H622 H 0.23049 0.51401 0.549 0.0
H623 H 0.26594 0.49573 0.54263 0.0
C624 C 0.09117 0.82339 0.95032 0.0
C625 C 0.11751 0.81101 0.96044 0.0
C626 C 0.08458 0.82214 0.9202 0.0
C627 C 0.10537 0.80903 0.89959 0.0
C628 C 0.13209 0.79645 0.90969 0.0
C629 C 0.13763 0.79717 0.94013 0.0
C630 C 0.05543 0.83514 0.91045 0.0
C631 C 0.15523 0.78315 0.88839 0.0
C632 C 0.07106 0.79091 0.82404 0.0
C633 C 0.07509 0.81711 0.81133 0.0
C634 C 0.08241 0.78713 0.85219 0.0
C635 C 0.09917 0.80966 0.86759 0.0
C636 C 0.10612 0.8348 0.85363 0.0
C637 C 0.09364 0.83844 0.82593 0.0
C638 C 0.07421 0.76007 0.86638 0.0
C639 C 0.12477 0.85896 0.86891 0.0
H640 H 0.07549 0.83383 0.9661 0.0
H641 H 0.15813 0.7878 0.94804 0.0
H642 H 0.06032 0.85388 0.89778 0.0
H643 H 0.04278 0.81905 0.89568 0.0
H644 H 0.04075 0.84258 0.92932 0.0
H645 H 0.17395 0.77281 0.89976 0.0
H646 H 0.14458 0.76672 0.87244 0.0
H647 H 0.1648 0.80013 0.87552 0.0
H648 H 0.0577 0.77381 0.81265 0.0
H649 H 0.09696 0.8589 0.81676 0.0
H650 H 0.05706 0.76546 0.88369 0.0
H651 H 0.0941 0.75121 0.87723 0.0
H652 H 0.06479 0.74303 0.85023 0.0
H653 H 0.11099 0.87113 0.8861 0.0
H654 H 0.13274 0.87434 0.85332 0.0
H655 H 0.14461 0.85019 0.87995 0.0
C656 C 0.8604 0.11349 0.8821 0.0
C657 C 0.86279 0.10324 0.90999 0.0
C658 C 0.87137 0.09715 0.85695 0.0
C659 C 0.88425 0.06967 0.85978 0.0
C660 C 0.88589 0.05892 0.88782 0.0
C661 C 0.87551 0.07602 0.91263 0.0
C662 C 0.86993 0.10957 0.82753 0.0
C663 C 0.89883 0.02943 0.89169 0.0
C664 C 0.8912 0.01195 0.79589 0.0
C665 C 0.9224 0.01157 0.79147 0.0
C666 C 0.8781 0.03185 0.8171 0.0
C667 C 0.8967 0.05209 0.83375 0.0
C668 C 0.92796 0.05311 0.82773 0.0
C669 C 0.94054 0.03249 0.80692 0.0
C670 C 0.8448 0.02969 0.82322 0.0
C671 C 0.94842 0.07483 0.8445 0.0
H672 H 0.85082 0.13469 0.88009 0.0
H673 H 0.87717 0.06797 0.93415 0.0
H674 H 0.89308 0.11208 0.81898 0.0
H675 H 0.85772 0.09458 0.81129 0.0
H676 H 0.85858 0.13096 0.82895 0.0
H677 H 0.89689 0.02364 0.91471 0.0
H678 H 0.88705 0.01268 0.87695 0.0
H679 H 0.92298 0.02885 0.88547 0.0
H680 H 0.87732 0.99547 0.7841 0.0
H681 H 0.9647 0.03206 0.80341 0.0
H682 H 0.83409 0.05132 0.82425 0.0
H683 H 0.84151 0.02123 0.84498 0.0
H684 H 0.833 0.01507 0.80626 0.0
H685 H 0.93839 0.09678 0.8456 0.0
H686 H 0.97109 0.07552 0.83432 0.0
H687 H 0.95116 0.06907 0.86743 0.0
C688 C 0.3883 0.3325 0.43662 0.0
C689 C 0.38038 0.30721 0.44947 0.0
C690 C 0.39652 0.33165 0.40698 0.0
C691 C 0.39647 0.3049 0.38944 0.0
C692 C 0.38679 0.27953 0.40167 0.0
C693 C 0.37903 0.28092 0.43165 0.0
C694 C 0.40682 0.35926 0.39488 0.0
C695 C 0.38581 0.25075 0.38343 0.0
C696 C 0.40583 0.31593 0.30873 0.0
C697 C 0.43721 0.31383 0.30578 0.0
C698 C 0.3917 0.31054 0.33522 0.0
C699 C 0.40951 0.30355 0.35937 0.0
C700 C 0.44097 0.29964 0.35583 0.0
C701 C 0.45439 0.30467 0.32902 0.0
C702 C 0.35801 0.31419 0.33792 0.0
C703 C 0.46087 0.29256 0.38111 0.0
H704 H 0.38919 0.35301 0.44999 0.0
H705 H 0.37264 0.2613 0.44124 0.0
H706 H 0.43094 0.35739 0.38865 0.0
H707 H 0.3939 0.36295 0.37473 0.0
H708 H 0.40411 0.37848 0.41103 0.0
H709 H 0.37337 0.23417 0.39469 0.0
H710 H 0.37501 0.25299 0.36178 0.0
H711 H 0.40911 0.24289 0.37911 0.0
H712 H 0.39247 0.32273 0.29067 0.0
H713 H 0.4787 0.30332 0.32697 0.0
H714 H 0.35295 0.33507 0.35074 0.0
H715 H 0.34805 0.29675 0.3499 0.0
H716 H 0.34693 0.31411 0.31604 0.0
H717 H 0.46164 0.31138 0.39795 0.0
H718 H 0.48429 0.28731 0.37392 0.0
H719 H 0.45159 0.274 0.39181 0.0
C720 C 0.19385 0.93077 0.02334 0.0
C721 C 0.20755 0.90518 0.03047 0.0
C722 C 0.21069 0.9525 0.01164 0.0
C723 C 0.24185 0.94818 0.00619 0.0
C724 C 0.25577 0.92219 0.01298 0.0
C725 C 0.23849 0.90111 0.02546 0.0
C726 C 0.1951 0.98015 0.00521 0.0
C727 C 0.28871 0.91653 0.00667 0.0
C728 C 0.26872 0.99723 0.95014 0.0
C729 C 0.28026 0.02081 0.96827 0.0
C730 C 0.25865 0.97218 0.96203 0.0
C731 C 0.25933 0.97092 0.99287 0.0
C732 C 0.27302 0.99357 0.01109 0.0
C733 C 0.28375 0.01806 0.9985 0.0
C734 C 0.24498 0.94809 0.94174 0.0
C735 C 0.27401 0.99313 0.04414 0.0
H736 H 0.17 0.93406 0.02749 0.0
H737 H 0.24906 0.8812 0.03079 0.0
H738 H 0.20677 -0.00098 0.01687 0.0
H739 H 0.19615 0.98272 0.9813 0.0
H740 H 0.17107 0.9806 0.01201 0.0
H741 H 0.2961 0.89518 0.01323 0.0
H742 H 0.29307 0.91725 0.9828 0.0
H743 H 0.30274 0.93364 0.01852 0.0
H744 H 0.26558 -0.00108 0.92681 0.0
H745 H 0.29345 0.0357 0.01265 0.0
H746 H 0.22007 0.94888 0.94364 0.0
H747 H 0.25245 0.92668 0.94797 0.0
H748 H 0.25104 0.94992 0.91837 0.0
H749 H 0.25092 0.99644 0.0531 0.0
H750 H 0.28886 0.01035 0.05476 0.0
H751 H 0.282 0.97189 0.05031 0.0
C752 C 0.53997 0.72485 0.4661 0.0
C753 C 0.54902 0.69926 0.47775 0.0
C754 C 0.5104 0.72805 0.45568 0.0
C755 C 0.48943 0.70522 0.45718 0.0
C756 C 0.49829 0.67964 0.46948 0.0
C757 C 0.52791 0.67695 0.47949 0.0
C758 C 0.50175 0.75555 0.44254 0.0
C759 C 0.47658 0.65483 0.47171 0.0
C760 C 0.40454 0.71304 0.45394 0.0
C761 C 0.39826 0.69931 0.42594 0.0
C762 C 0.4344 0.71704 0.4638 0.0
C763 C 0.45841 0.7072 0.4451 0.0
C764 C 0.45217 0.69538 0.416 0.0
C765 C 0.42214 0.69146 0.40681 0.0
C766 C 0.4401 0.72969 0.49499 0.0
C767 C 0.47711 0.68493 0.39524 0.0
H768 H 0.55612 0.74217 0.4646 0.0
H769 H 0.53453 0.65718 0.48867 0.0
H770 H 0.49583 0.75061 0.41897 0.0
H771 H 0.48152 0.76522 0.45374 0.0
H772 H 0.52022 0.7718 0.44425 0.0
H773 H 0.48674 0.63686 0.48281 0.0
H774 H 0.45621 0.66249 0.48412 0.0
H775 H 0.46911 0.64623 0.44937 0.0
H776 H 0.38612 0.719 0.46883 0.0
H777 H 0.4173 0.6812 0.385 0.0
H778 H 0.45855 0.74587 0.49572 0.0
H779 H 0.44726 0.71224 0.50855 0.0
H780 H 0.41965 0.74013 0.50512 0.0
H781 H 0.49533 0.70131 0.39533 0.0
H782 H 0.46884 0.68007 0.37231 0.0
H783 H 0.48711 0.66494 0.40268 0.0
C784 C 0.40118 0.40557 0.6342 0.0
C785 C 0.37487 0.38883 0.635 0.0
C786 C 0.40918 0.42555 0.65786 0.0
C787 C 0.39052 0.42883 0.68304 0.0
C788 C 0.3646 0.41124 0.68455 0.0
C789 C 0.35704 0.39148 0.66049 0.0
C790 C 0.437 0.44395 0.65539 0.0
C791 C 0.34429 0.414 0.71116 0.0
C792 C 0.42387 0.47036 0.75122 0.0
C793 C 0.41227 0.49815 0.74893 0.0
C794 C 0.41633 0.44728 0.73039 0.0
C795 C 0.39695 0.45224 0.70666 0.0
C796 C 0.38479 0.48013 0.70456 0.0
C797 C 0.39258 0.50271 0.72571 0.0
C798 C 0.42953 0.41776 0.73342 0.0
C799 C 0.36422 0.48637 0.67946 0.0
H800 H 0.41525 0.40365 0.61475 0.0
H801 H 0.3368 0.37852 0.66147 0.0
H802 H 0.43038 0.46695 0.65505 0.0
H803 H 0.45182 0.44249 0.67482 0.0
H804 H 0.45014 0.43745 0.63518 0.0
H805 H 0.3266 0.39698 0.71004 0.0
H806 H 0.35769 0.41268 0.73156 0.0
H807 H 0.33313 0.43545 0.71289 0.0
H808 H 0.43889 0.46669 0.76928 0.0
H809 H 0.38394 0.52424 0.72354 0.0
H810 H 0.44451 0.41152 0.71448 0.0
H811 H 0.41133 0.40133 0.73307 0.0
H812 H 0.44274 0.41708 0.75407 0.0
H813 H 0.3765 0.48271 0.6583 0.0
H814 H 0.35569 0.50894 0.68172 0.0
H815 H 0.34467 0.4714 0.67828 0.0
C816 C 0.03101 0.77642 0.06572 0.0
C817 C 0.04455 0.80339 0.07353 0.0
C818 C 0.0002 0.77196 0.07085 0.0
C819 C 0.98267 0.79493 0.08428 0.0
C820 C 0.99652 0.82177 0.09331 0.0
C821 C 0.0272 0.82569 0.08774 0.0
C822 C 0.98618 0.74307 0.06087 0.0
C823 C 0.97869 0.84675 0.108 0.0
C824 C 0.8994 0.80342 0.06965 0.0
C825 C 0.88682 0.79668 0.09633 0.0
C826 C 0.93047 0.80105 0.06469 0.0
C827 C 0.94945 0.79198 0.08708 0.0
C828 C 0.93664 0.78341 0.11334 0.0
C829 C 0.90536 0.78577 0.11762 0.0
C830 C 0.94316 0.81004 0.03621 0.0
C831 C 0.95612 0.77366 0.13772 0.0
H832 H 0.04422 0.75905 0.05474 0.0
H833 H 0.03752 0.84649 0.09419 0.0
H834 H 0.97288 0.73491 0.07894 0.0
H835 H 0.9704 0.74562 0.04238 0.0
H836 H 0.00334 0.72663 0.05341 0.0
H837 H 0.99322 0.86551 0.11545 0.0
H838 H 0.96165 0.85393 0.09238 0.0
H839 H 0.96637 0.83984 0.1273 0.0
H840 H 0.88497 0.81155 0.05305 0.0
H841 H 0.89565 0.7807 0.13833 0.0
H842 H 0.95909 0.79348 0.02642 0.0
H843 H 0.95594 0.83054 0.04065 0.0
H844 H 0.92523 0.8134 0.01983 0.0
H845 H 0.97301 0.75761 0.12879 0.0
H846 H 0.94259 0.76397 0.15478 0.0
H847 H 0.96867 0.79248 0.1484 0.0
C848 C 0.69897 0.58534 0.5515 0.0
C849 C 0.71114 0.599 0.52802 0.0
C850 C 0.71354 0.56176 0.56239 0.0
C851 C 0.74082 0.55141 0.54934 0.0
C852 C 0.75397 0.56589 0.52657 0.0
C853 C 0.73903 0.58961 0.51624 0.0
C854 C 0.69897 0.5471 0.58698 0.0
C855 C 0.78298 0.55541 0.51208 0.0
C856 C 0.78342 0.49729 0.59125 0.0
C857 C 0.77179 0.47099 0.5783 0.0
C858 C 0.77456 0.52375 0.58129 0.0
C859 C 0.75378 0.52384 0.55772 0.0
C860 C 0.74328 0.49735 0.54352 0.0
C861 C 0.75225 0.4713 0.55408 0.0
C862 C 0.78628 0.5516 0.59691 0.0
C863 C 0.72125 0.49651 0.51814 0.0
H864 H 0.67765 0.59267 0.56099 0.0
H865 H 0.74865 0.60005 0.49812 0.0
H866 H 0.6913 0.52514 0.57854 0.0
H867 H 0.71551 0.54454 0.60483 0.0
H868 H 0.67926 0.55935 0.59648 0.0
H869 H 0.79204 0.57093 0.49716 0.0
H870 H 0.80031 0.55176 0.52891 0.0
H871 H 0.77897 0.5344 0.49903 0.0
H872 H 0.79887 0.49724 0.60968 0.0
H873 H 0.74268 0.45123 0.54418 0.0
H874 H 0.76764 0.56303 0.60923 0.0
H875 H 0.79473 0.56615 0.58078 0.0
H876 H 0.80468 0.54782 0.61267 0.0
H877 H 0.69929 0.50554 0.52607 0.0
H878 H 0.71744 0.4742 0.50781 0.0
H879 H 0.72952 0.51008 0.50104 0.0
C880 C 0.88471 0.16148 0.10855 0.0
C881 C 0.87579 0.18617 0.09517 0.0
C882 C 0.89371 0.16327 0.13809 0.0
C883 C 0.89354 0.19039 0.15497 0.0
C884 C 0.88311 0.21519 0.14217 0.0
C885 C 0.8745 0.21284 0.11234 0.0
C886 C 0.90475 0.13625 0.15083 0.0
C887 C 0.88213 0.24437 0.15966 0.0
C888 C 0.90337 0.18262 0.23645 0.0
C889 C 0.93474 0.18524 0.2395 0.0
C890 C 0.88913 0.1865 0.20954 0.0
C891 C 0.90679 0.19272 0.18508 0.0
C892 C 0.93821 0.19717 0.1886 0.0
C893 C 0.95177 0.19345 0.21577 0.0
C894 C 0.85551 0.18213 0.2068 0.0
C895 C 0.95793 0.2036 0.16305 0.0
H896 H 0.88562 0.14069 0.09569 0.0
H897 H 0.86741 0.23202 0.10234 0.0
H898 H 0.92895 0.13871 0.15676 0.0
H899 H 0.89228 0.13288 0.17128 0.0
H900 H 0.9021 0.11661 0.1352 0.0
H901 H 0.86981 0.26063 0.14783 0.0
H902 H 0.87119 0.24265 0.18128 0.0
H903 H 0.90544 0.25232 0.16408 0.0
H904 H 0.89007 0.17662 0.25485 0.0
H905 H 0.97606 0.19518 0.21782 0.0
H906 H 0.85079 0.16098 0.19429 0.0
H907 H 0.84518 0.19913 0.19447 0.0
H908 H 0.84448 0.18235 0.22866 0.0
H909 H 0.95896 0.18425 0.1469 0.0
H910 H 0.98127 0.20952 0.17014 0.0
H911 H 0.9483 0.22152 0.15154 0.0
C912 C 0.18603 0.76519 0.16176 0.0
C913 C 0.16322 0.76032 0.14052 0.0
C914 C 0.18549 0.75156 0.18785 0.0
C915 C 0.16146 0.73264 0.193 0.0
C916 C 0.13838 0.72744 0.17169 0.0
C917 C 0.13959 0.74127 0.14557 0.0
C918 C 0.21071 0.75746 0.20993 0.0
C919 C 0.11237 0.70748 0.1766 0.0
C920 C 0.18153 0.68112 0.24939 0.0
C921 C 0.17098 0.69615 0.27542 0.0
C922 C 0.17679 0.69179 0.22202 0.0
C923 C 0.16115 0.71815 0.22067 0.0
C924 C 0.14876 0.73248 0.24661 0.0
C925 C 0.15392 0.72134 0.27375 0.0
C926 C 0.19048 0.67595 0.19488 0.0
C927 C 0.1317 0.76051 0.24595 0.0
H928 H 0.20447 0.77973 0.15802 0.0
H929 H 0.12178 0.73753 0.12936 0.0
H930 H 0.20144 0.76678 0.23128 0.0
H931 H 0.22213 0.73693 0.21394 0.0
H932 H 0.22782 0.77265 0.20246 0.0
H933 H 0.09622 0.70574 0.15786 0.0
H934 H 0.1209 0.68556 0.17987 0.0
H935 H 0.10011 0.71541 0.19691 0.0
H936 H 0.19504 0.66183 0.25053 0.0
H937 H 0.1454 0.7328 0.29378 0.0
H938 H 0.20993 0.68849 0.18756 0.0
H939 H 0.17392 0.67385 0.17655 0.0
H940 H 0.19849 0.65402 0.19901 0.0
H941 H 0.14759 0.77805 0.2415 0.0
H942 H 0.12011 0.76681 0.26713 0.0
H943 H 0.11472 0.75879 0.22798 0.0
C944 C 0.73827 0.76537 0.54797 0.0
C945 C 0.74108 0.73717 0.53435 0.0
C946 C 0.76189 0.77849 0.56483 0.0
C947 C 0.78884 0.76291 0.56846 0.0
C948 C 0.79193 0.73453 0.55464 0.0
C949 C 0.76809 0.72206 0.53762 0.0
C950 C 0.7579 0.80892 0.57899 0.0
C951 C 0.82022 0.71714 0.55828 0.0
C952 C 0.85934 0.80492 0.5933 0.0
C953 C 0.85921 0.80234 0.62368 0.0
C954 C 0.83663 0.7921 0.57499 0.0
C955 C 0.81349 0.77607 0.58736 0.0
C956 C 0.81359 0.77295 0.61795 0.0
C957 C 0.83638 0.78626 0.63576 0.0
C958 C 0.83708 0.79614 0.54252 0.0
C959 C 0.78952 0.75571 0.63189 0.0
H960 H 0.71758 0.77728 0.54544 0.0
H961 H 0.77045 0.7002 0.52734 0.0
H962 H 0.75916 0.809 0.60329 0.0
H963 H 0.77637 0.82296 0.57216 0.0
H964 H 0.73601 0.81848 0.57311 0.0
H965 H 0.81925 0.69553 0.54568 0.0
H966 H 0.84011 0.72897 0.55083 0.0
H967 H 0.82376 0.71413 0.58189 0.0
H968 H 0.87682 0.8176 0.58397 0.0
H969 H 0.83644 0.78399 0.65921 0.0
H970 H 0.81628 0.80741 0.53639 0.0
H971 H 0.8374 0.7748 0.52943 0.0
H972 H 0.8569 0.80886 0.5363 0.0
H973 H 0.76711 0.76553 0.62874 0.0
H974 H 0.79336 0.75466 0.65585 0.0
H975 H 0.78877 0.73334 0.62103 0.0
C976 C 0.73006 0.21942 0.02694 0.0
C977 C 0.75834 0.23303 0.02713 0.0
C978 C 0.70543 0.2328 0.04176 0.0
C979 C 0.70909 0.26056 0.05692 0.0
C980 C 0.73736 0.27467 0.05673 0.0
C981 C 0.76169 0.26068 0.04196 0.0
C982 C 0.67567 0.21698 0.04174 0.0
C983 C 0.74203 0.30439 0.07248 0.0
C984 C 0.63981 0.30584 0.07755 0.0
C985 C 0.63664 0.30164 0.10746 0.0
C986 C 0.66319 0.29246 0.06071 0.0
C987 C 0.68372 0.27433 0.07408 0.0
C988 C 0.68041 0.2697 0.10412 0.0
C989 C 0.65704 0.28352 0.12047 0.0
C990 C 0.66612 0.29794 0.02873 0.0
C991 C 0.70183 0.25044 0.11914 0.0
H992 H 0.72725 0.19802 0.01564 0.0
H993 H 0.78337 0.27147 0.04207 0.0
H994 H 0.66961 0.21293 0.06459 0.0
H995 H 0.65752 0.23047 0.03335 0.0
H996 H 0.67626 0.19595 0.02804 0.0
H997 H 0.76503 0.31293 0.06911 0.0
H998 H 0.72535 0.31975 0.06465 0.0
H999 H 0.73836 0.30364 0.09645 0.0
H1000 H 0.62396 0.31956 0.06727 0.0
H1001 H 0.65516 0.2806 0.14369 0.0
H1002 H 0.66515 0.27719 0.01463 0.0
H1003 H 0.68833 0.30795 0.02494 0.0
H1004 H 0.64813 0.31239 0.02158 0.0
H1005 H 0.70233 0.22858 0.10712 0.0
H1006 H 0.69548 0.24828 0.14238 0.0
H1007 H 0.72502 0.25935 0.11878 0.0
C1008 C 0.34427 0.22191 0.62835 0.0
C1009 C 0.34532 0.2522 0.63127 0.0
C1010 C 0.3417 0.20644 0.6533 0.0
C1011 C 0.34064 0.22171 0.68162 0.0
C1012 C 0.34403 0.25213 0.68467 0.0
C1013 C 0.34609 0.26701 0.65944 0.0
C1014 C 0.33798 0.17402 0.64921 0.0
C1015 C 0.34351 0.26921 0.71449 0.0
C1016 C 0.2927 0.19492 0.7418 0.0
C1017 C 0.31439 0.18461 0.76067 0.0
C1018 C 0.30097 0.20572 0.71534 0.0
C1019 C 0.33179 0.20675 0.70768 0.0
C1020 C 0.35384 0.19584 0.72619 0.0
C1021 C 0.34487 0.1848 0.75249 0.0
C1022 C 0.27671 0.21712 0.69617 0.0
C1023 C 0.38692 0.19676 0.71874 0.0
H1024 H 0.34373 0.21043 0.60656 0.0
H1025 H 0.34746 0.29043 0.66176 0.0
H1026 H 0.35232 0.16346 0.66504 0.0
H1027 H 0.31423 0.16834 0.65363 0.0
H1028 H 0.34374 0.16506 0.6265 0.0
H1029 H 0.35019 0.29213 0.71329 0.0
H1030 H 0.32043 0.26878 0.72376 0.0
H1031 H 0.35885 0.25939 0.73002 0.0
H1032 H 0.26918 0.19546 0.74814 0.0
H1033 H 0.36173 0.17656 0.76676 0.0
H1034 H 0.27898 0.2074 0.67315 0.0
H1035 H 0.27923 0.24087 0.69592 0.0
H1036 H 0.25368 0.21252 0.70404 0.0
H1037 H 0.3908 0.18724 0.69587 0.0
H1038 H 0.40094 0.18501 0.73395 0.0
H1039 H 0.39465 0.21958 0.71999 0.0
C1040 C 0.65022 0.76329 0.40846 0.0
C1041 C 0.67203 0.74258 0.41402 0.0
C1042 C 0.6506 0.77688 0.38216 0.0
C1043 C 0.6734 0.7697 0.36112 0.0
C1044 C 0.69575 0.74924 0.36687 0.0
C1045 C 0.69474 0.73592 0.39316 0.0
C1046 C 0.62636 0.79853 0.37665 0.0
C1047 C 0.72059 0.74113 0.34507 0.0
C1048 C 0.66485 0.77855 0.27983 0.0
C1049 C 0.68324 0.80265 0.27675 0.0
C1050 C 0.65996 0.76856 0.30753 0.0
C1051 C 0.67394 0.78296 0.33269 0.0
C1052 C 0.69126 0.80818 0.32993 0.0
C1053 C 0.69568 0.81774 0.30196 0.0
C1054 C 0.64113 0.74172 0.30962 0.0
C1055 C 0.70662 0.82406 0.35622 0.0
H1056 H 0.63253 0.76851 0.4244 0.0
H1057 H 0.71183 0.72012 0.39728 0.0
H1058 H 0.63671 0.81943 0.37216 0.0
H1059 H 0.61309 0.79069 0.35686 0.0
H1060 H 0.61074 0.80238 0.3956 0.0
H1061 H 0.73667 0.72536 0.35325 0.0
H1062 H 0.71075 0.73155 0.32401 0.0
H1063 H 0.73331 0.76072 0.34025 0.0
H1064 H 0.65481 0.76709 0.26043 0.0
H1065 H 0.71013 0.83625 0.29968 0.0
H1066 H 0.62427 0.74536 0.32747 0.0
H1067 H 0.65585 0.72369 0.31517 0.0
H1068 H 0.62917 0.73498 0.28868 0.0
H1069 H 0.69055 0.82809 0.37472 0.0
H1070 H 0.71627 0.84507 0.35099 0.0
H1071 H 0.72512 0.81053 0.3639 0.0
C1072 C 0.8154 0.23287 0.89035 0.0
C1073 C 0.83584 0.23947 0.91353 0.0
C1074 C 0.81583 0.2479 0.86516 0.0
C1075 C 0.83732 0.27011 0.86289 0.0
C1076 C 0.85825 0.27683 0.88598 0.0
C1077 C 0.85721 0.26147 0.91114 0.0
C1078 C 0.79299 0.24012 0.84106 0.0
C1079 C 0.88158 0.30027 0.88414 0.0
C1080 C 0.84516 0.28661 0.78371 0.0
C1081 C 0.8236 0.30848 0.78238 0.0
C1082 C 0.85201 0.27548 0.81053 0.0
C1083 C 0.83686 0.28651 0.83644 0.0
C1084 C 0.81713 0.31034 0.83558 0.0
C1085 C 0.81076 0.32105 0.80852 0.0
C1086 C 0.87339 0.25024 0.8106 0.0
C1087 C 0.80066 0.32286 0.86272 0.0
H1088 H 0.79876 0.21598 0.8919 0.0
H1089 H 0.87321 0.26662 0.92885 0.0
H1090 H 0.7788 0.25919 0.83767 0.0
H1091 H 0.80468 0.23376 0.82 0.0
H1092 H 0.778 0.22208 0.84616 0.0
H1093 H 0.89687 0.30221 0.90354 0.0
H1094 H 0.89529 0.29578 0.86394 0.0
H1095 H 0.87029 0.32137 0.88254 0.0
H1096 H 0.85513 0.27682 0.76354 0.0
H1097 H 0.79452 0.33837 0.80759 0.0
H1098 H 0.86028 0.23007 0.81211 0.0
H1099 H 0.88865 0.25287 0.82997 0.0
H1100 H 0.88722 0.24764 0.79027 0.0
H1101 H 0.7828 0.30756 0.86835 0.0
H1102 H 0.78991 0.34391 0.85938 0.0
H1103 H 0.81621 0.32596 0.88182 0.0
C1104 C 0.26401 0.25011 0.49033 0.0
C1105 C 0.26312 0.26146 0.51987 0.0
C1106 C 0.2381 0.23842 0.47612 0.0
C1107 C 0.21083 0.23742 0.49204 0.0
C1108 C 0.20988 0.24845 0.522 0.0
C1109 C 0.23598 0.26068 0.53547 0.0
C1110 C 0.23986 0.22739 0.44398 0.0
C1111 C 0.1814 0.24711 0.53986 0.0
C1112 C 0.13856 0.22983 0.44724 0.0
C1113 C 0.13409 0.19976 0.44466 0.0
C1114 C 0.16315 0.24246 0.46302 0.0
C1115 C 0.18339 0.22469 0.4772 0.0
C1116 C 0.17829 0.19453 0.47587 0.0
C1117 C 0.15397 0.1824 0.45935 0.0
C1118 C 0.16805 0.2747 0.46367 0.0
C1119 C 0.19909 0.17492 0.49116 0.0
H1120 H 0.28486 0.25094 0.4781 0.0
H1121 H 0.23526 0.26926 0.55838 0.0
H1122 H 0.23418 0.20404 0.44115 0.0
H1123 H 0.22313 0.23881 0.43113 0.0
H1124 H 0.26259 0.23045 0.43458 0.0
H1125 H 0.18456 0.25617 0.56306 0.0
H1126 H 0.16314 0.25927 0.52985 0.0
H1127 H 0.17373 0.22435 0.53973 0.0
H1128 H 0.12306 0.24356 0.43655 0.0
H1129 H 0.15117 0.15912 0.45722 0.0
H1130 H 0.18977 0.27907 0.45291 0.0
H1131 H 0.1695 0.28449 0.48674 0.0
H1132 H 0.14974 0.2856 0.45226 0.0
H1133 H 0.22157 0.17446 0.48055 0.0
H1134 H 0.19039 0.15242 0.49036 0.0
H1135 H 0.20228 0.18329 0.51453 0.0
C1136 C 0.26571 0.784 0.02186 0.0
C1137 C 0.23876 0.76851 0.02426 0.0
C1138 C 0.28993 0.77206 0.00521 0.0
C1139 C 0.28725 0.74386 0.99083 0.0
C1140 C 0.26046 0.72781 0.99378 0.0
C1141 C 0.23649 0.74037 0.01033 0.0
C1142 C 0.31806 0.78992 0.00233 0.0
C1143 C 0.25688 0.69757 0.97894 0.0
C1144 C 0.33335 0.72233 0.92254 0.0
C1145 C 0.35609 0.70545 0.93371 0.0
C1146 C 0.31127 0.73556 0.94107 0.0
C1147 C 0.31182 0.73161 0.97146 0.0
C1148 C 0.33514 0.71515 0.98301 0.0
C1149 C 0.35714 0.70236 0.96397 0.0
C1150 C 0.28699 0.75328 0.92798 0.0
C1151 C 0.33631 0.71033 0.01527 0.0
H1152 H 0.26768 0.8058 0.03243 0.0
H1153 H 0.21586 0.72816 0.01219 0.0
H1154 H 0.33813 0.77791 0.00907 0.0
H1155 H 0.32129 0.79407 0.97898 0.0
H1156 H 0.31706 0.81102 0.01589 0.0
H1157 H 0.23528 0.6874 0.98474 0.0
H1158 H 0.25771 0.69812 0.95469 0.0
H1159 H 0.27574 0.68371 0.98523 0.0
H1160 H 0.33275 0.72502 0.89918 0.0
H1161 H 0.3746 0.68913 0.97258 0.0
H1162 H 0.28612 0.77523 0.9398 0.0
H1163 H 0.26468 0.74304 0.93065 0.0
H1164 H 0.29067 0.75541 0.9042 0.0
H1165 H 0.33606 0.73135 0.02893 0.0
H1166 H 0.35668 0.6981 0.02098 0.0
H1167 H 0.31604 0.69812 0.02119 0.0
loop_
_geom_bond_atom_site_label_1
_geom_bond_atom_site_label_2
_geom_bond_distance
_geom_bond_site_symmetry_2
_ccdc_geom_bond_type
Sc0 O3 2.025 . S
Sc0 O10 2.105 . S
Sc0 O13 2.105 . S
Sc0 O16 2.105 . S
Sc0 O19 2.105 1_554 S
Sc1 O3 2.025 . S
Sc1 O11 2.105 1_554 S
Sc1 O15 2.105 . S
Sc1 O17 2.105 . S
Sc1 O21 2.105 . S
Sc2 O3 2.025 . S
Sc2 O12 2.105 . S
Sc2 O14 2.105 . S
Sc2 O18 2.105 . S
Sc2 O20 2.105 . S
O3 Sc0 2.025 . S
O3 Sc1 2.025 . S
O3 Sc2 2.025 . S
C4 O10 1.268 . S
C4 O20 1.268 . S
C5 O11 1.268 . S
C5 O19 1.268 . S
C6 O12 1.268 . S
C6 O21 1.268 . S
C7 O13 1.268 . S
C7 O17 1.268 . S
C8 O14 1.268 . S
C8 O16 1.268 . S
C9 O15 1.268 . S
C9 O18 1.268 . S
O10 Sc0 2.105 . S
O10 C4 1.268 . S
O11 Sc1 2.105 1_556 S
O11 C5 1.268 . S
O12 Sc2 2.105 . S
O12 C6 1.268 . S
O13 Sc0 2.105 . S
O13 C7 1.268 . S
O14 Sc2 2.105 . S
O14 C8 1.268 . S
O15 Sc1 2.105 . S
O15 C9 1.268 . S
O16 Sc0 2.105 . S
O16 C8 1.268 . S
O17 Sc1 2.105 . S
O17 C7 1.268 . S
O18 Sc2 2.105 . S
O18 C9 1.268 . S
O19 Sc0 2.105 1_556 S
O19 C5 1.268 . S
O20 Sc2 2.105 . S
O20 C4 1.268 . S
O21 Sc1 2.105 . S
O21 C6 1.268 . S
Sc22 O25 2.025 . S
Sc22 O32 2.105 . S
Sc22 O35 2.105 . S
Sc22 O38 2.105 . S
Sc22 O41 2.105 . S
Sc23 O25 2.025 . S
Sc23 O33 2.105 . S
Sc23 O37 2.105 . S
Sc23 O39 2.105 . S
Sc23 O43 2.105 . S
Sc24 O25 2.025 . S
Sc24 O34 2.105 . S
Sc24 O36 2.105 . S
Sc24 O40 2.105 . S
Sc24 O42 2.105 . S
O25 Sc22 2.025 . S
O25 Sc23 2.025 . S
O25 Sc24 2.025 . S
C26 O32 1.268 . S
C26 O42 1.268 . S
C27 O33 1.268 . S
C27 O41 1.268 . S
C28 O34 1.268 . S
C28 O43 1.268 . S
C29 O35 1.268 . S
C29 O39 1.268 . S
C30 O36 1.268 . S
C30 O38 1.268 . S
C31 O37 1.268 . S
C31 O40 1.268 . S
O32 Sc22 2.105 . S
O32 C26 1.268 . S
O33 Sc23 2.105 . S
O33 C27 1.268 . S
O34 Sc24 2.105 . S
O34 C28 1.268 . S
O35 Sc22 2.105 . S
O35 C29 1.268 . S
O36 Sc24 2.105 . S
O36 C30 1.268 . S
O37 Sc23 2.105 . S
O37 C31 1.268 . S
O38 Sc22 2.105 . S
O38 C30 1.268 . S
O39 Sc23 2.105 . S
O39 C29 1.268 . S
O40 Sc24 2.105 . S
O40 C31 1.268 . S
O41 Sc22 2.105 . S
O41 C27 1.268 . S
O42 Sc24 2.105 . S
O42 C26 1.268 . S
O43 Sc23 2.105 . S
O43 C28 1.268 . S
Sc44 O47 2.028 . S
Sc44 O54 2.105 1_554 S
Sc44 O57 2.105 . S
Sc44 O60 2.105 . S
Sc44 O63 2.105 1_554 S
Sc45 O47 2.019 1_556 S
Sc45 O55 2.105 . S
Sc45 O59 2.105 1_556 S
Sc45 O61 2.105 1_556 S
Sc45 O65 2.105 . S
Sc46 O47 2.029 . S
Sc46 O56 2.105 1_554 S
Sc46 O58 2.105 . S
Sc46 O62 2.105 . S
Sc46 O64 2.105 1_554 S
O47 Sc44 2.028 . S
O47 Sc45 2.019 1_554 S
O47 Sc46 2.029 . S
C48 O54 1.268 . S
C48 O64 1.268 . S
C49 O55 1.268 . S
C49 O63 1.268 . S
C50 O56 1.268 . S
C50 O65 1.268 . S
C51 O57 1.268 . S
C51 O61 1.268 . S
C52 O58 1.268 . S
C52 O60 1.268 . S
C53 O59 1.268 . S
C53 O62 1.268 . S
O54 Sc44 2.105 1_556 S
O54 C48 1.268 . S
O55 Sc45 2.105 . S
O55 C49 1.268 . S
O56 Sc46 2.105 1_556 S
O56 C50 1.268 . S
O57 Sc44 2.105 . S
O57 C51 1.268 . S
O58 Sc46 2.105 . S
O58 C52 1.268 . S
O59 Sc45 2.105 1_554 S
O59 C53 1.268 . S
O60 Sc44 2.105 . S
O60 C52 1.268 . S
O61 Sc45 2.105 1_554 S
O61 C51 1.268 . S
O62 Sc46 2.105 . S
O62 C53 1.268 . S
O63 Sc44 2.105 1_556 S
O63 C49 1.268 . S
O64 Sc46 2.105 1_556 S
O64 C48 1.268 . S
O65 Sc45 2.105 . S
O65 C50 1.268 . S
Sc66 O69 2.025 . S
Sc66 O76 2.105 . S
Sc66 O79 2.105 . S
Sc66 O82 2.105 . S
Sc66 O85 2.105 . S
Sc67 O69 2.025 . S
Sc67 O77 2.105 . S
Sc67 O81 2.105 . S
Sc67 O83 2.105 . S
Sc67 O87 2.105 . S
Sc68 O69 2.025 . S
Sc68 O78 2.105 . S
Sc68 O80 2.105 . S
Sc68 O84 2.105 . S
Sc68 O86 2.105 . S
O69 Sc66 2.025 . S
O69 Sc67 2.025 . S
O69 Sc68 2.025 . S
C70 O76 1.268 . S
C70 O86 1.268 . S
C71 O77 1.268 . S
C71 O85 1.268 . S
C72 O78 1.268 . S
C72 O87 1.268 . S
C73 O79 1.268 . S
C73 O83 1.268 . S
C74 O80 1.268 . S
C74 O82 1.268 . S
C75 O81 1.268 . S
C75 O84 1.268 . S
O76 Sc66 2.105 . S
O76 C70 1.268 . S
O77 Sc67 2.105 . S
O77 C71 1.268 . S
O78 Sc68 2.105 . S
O78 C72 1.268 . S
O79 Sc66 2.105 . S
O79 C73 1.268 . S
O80 Sc68 2.105 . S
O80 C74 1.268 . S
O81 Sc67 2.105 . S
O81 C75 1.268 . S
O82 Sc66 2.105 . S
O82 C74 1.268 . S
O83 Sc67 2.105 . S
O83 C73 1.268 . S
O84 Sc68 2.105 . S
O84 C75 1.268 . S
O85 Sc66 2.105 . S
O85 C71 1.268 . S
O86 Sc68 2.105 . S
O86 C70 1.268 . S
O87 Sc67 2.105 . S
O87 C72 1.268 . S
C88 C89 1.386 . S
C88 C90 1.397 1_655 S
C88 H112 0.931 . S
C89 C88 1.386 . S
C89 C93 1.397 . S
C90 C88 1.397 1_455 S
C90 C91 1.384 . S
C90 H113 0.930 . S
C91 C90 1.384 . S
C91 C92 1.377 1_455 S
C91 C94 1.481 . S
C92 C91 1.377 1_655 S
C92 C93 1.389 . S
C92 H114 0.929 . S
C93 C89 1.397 . S
C93 C92 1.389 . S
C93 H115 0.931 . S
C94 C91 1.481 . S
C94 C95 1.387 . S
C94 C99 1.390 . S
C95 C94 1.387 . S
C95 C96 1.401 . S
C95 H116 0.930 . S
C96 C95 1.401 . S
C96 C97 1.376 . S
C96 C105 1.511 . S
C97 C96 1.376 . S
C97 C98 1.392 . S
C97 H118 0.931 . S
C98 C97 1.392 . S
C98 C99 1.361 . S
C98 C100 1.500 . S
C99 C94 1.390 . S
C99 C98 1.361 . S
C99 H117 0.931 . S
C100 C98 1.500 . S
C100 C101 1.371 . S
C100 C102 1.365 . S
C101 C100 1.371 . S
C101 C111 1.386 . S
C101 H119 0.931 . S
C102 C100 1.365 . S
C102 C103 1.409 . S
C102 H120 0.929 . S
C103 C102 1.409 . S
C103 C104 1.380 . S
C103 H121 0.930 . S
C104 C103 1.380 . S
C104 C111 1.357 . S
C105 C96 1.511 . S
C105 C106 1.341 . S
C105 C107 1.371 . S
C106 C105 1.341 . S
C106 C110 1.394 . S
C106 H122 0.930 . S
C107 C105 1.371 . S
C107 C108 1.392 . S
C107 H123 0.931 . S
C108 C107 1.392 . S
C108 C109 1.331 . S
C108 H126 0.932 . S
C109 C108 1.331 . S
C109 C110 1.336 . S
C110 C106 1.394 . S
C110 C109 1.336 . S
C110 H125 0.929 . S
C111 C101 1.386 . S
C111 C104 1.357 . S
C111 H124 0.928 . S
H112 C88 0.931 . S
H113 C90 0.930 . S
H114 C92 0.929 . S
H115 C93 0.931 . S
H116 C95 0.930 . S
H117 C99 0.931 . S
H118 C97 0.931 . S
H119 C101 0.931 . S
H120 C102 0.929 . S
H121 C103 0.930 . S
H122 C106 0.930 . S
H123 C107 0.931 . S
H124 C111 0.928 . S
H125 C110 0.929 . S
H126 C108 0.932 . S
C127 C128 1.386 . S
C127 C129 1.397 . S
C127 H151 0.931 . S
C128 C127 1.386 . S
C128 C132 1.397 . S
C129 C127 1.397 . S
C129 C130 1.384 . S
C129 H152 0.930 . S
C130 C129 1.384 . S
C130 C131 1.377 . S
C130 C133 1.481 . S
C131 C130 1.377 . S
C131 C132 1.389 . S
C131 H153 0.929 . S
C132 C128 1.397 . S
C132 C131 1.389 . S
C132 H154 0.931 . S
C133 C130 1.481 . S
C133 C134 1.387 . S
C133 C138 1.390 . S
C134 C133 1.387 . S
C134 C135 1.401 . S
C134 H155 0.930 . S
C135 C134 1.401 . S
C135 C136 1.376 . S
C135 C144 1.511 . S
C136 C135 1.376 . S
C136 C137 1.392 . S
C136 H157 0.931 . S
C137 C136 1.392 . S
C137 C138 1.361 . S
C137 C139 1.500 . S
C138 C133 1.390 . S
C138 C137 1.361 . S
C138 H156 0.931 . S
C139 C137 1.500 . S
C139 C140 1.371 . S
C139 C141 1.365 . S
C140 C139 1.371 . S
C140 C150 1.386 . S
C140 H158 0.931 . S
C141 C139 1.365 . S
C141 C142 1.409 . S
C141 H159 0.929 . S
C142 C141 1.409 . S
C142 C143 1.380 . S
C142 H160 0.930 . S
C143 C142 1.380 . S
C143 C150 1.357 . S
C144 C135 1.511 . S
C144 C145 1.341 . S
C144 C146 1.371 . S
C145 C144 1.341 . S
C145 C149 1.394 . S
C145 H161 0.930 . S
C146 C144 1.371 . S
C146 C147 1.392 . S
C146 H162 0.931 . S
C147 C146 1.392 . S
C147 C148 1.331 . S
C147 H165 0.932 . S
C148 C147 1.331 . S
C148 C149 1.336 . S
C149 C145 1.394 . S
C149 C148 1.336 . S
C149 H164 0.929 . S
C150 C140 1.386 . S
C150 C143 1.357 . S
C150 H163 0.928 . S
H151 C127 0.931 . S
H152 C129 0.930 . S
H153 C131 0.929 . S
H154 C132 0.931 . S
H155 C134 0.930 . S
H156 C138 0.931 . S
H157 C136 0.931 . S
H158 C140 0.931 . S
H159 C141 0.929 . S
H160 C142 0.930 . S
H161 C145 0.930 . S
H162 C146 0.931 . S
H163 C150 0.928 . S
H164 C149 0.929 . S
H165 C147 0.932 . S
C166 C167 1.386 . S
C166 C168 1.397 . S
C166 H190 0.931 . S
C167 C166 1.386 . S
C167 C171 1.397 . S
C168 C166 1.397 . S
C168 C169 1.384 . S
C168 H191 0.930 . S
C169 C168 1.384 . S
C169 C170 1.377 . S
C169 C172 1.481 . S
C170 C169 1.377 . S
C170 C171 1.389 . S
C170 H192 0.929 . S
C171 C167 1.397 . S
C171 C170 1.389 . S
C171 H193 0.931 . S
C172 C169 1.481 . S
C172 C173 1.387 . S
C172 C177 1.390 . S
C173 C172 1.387 . S
C173 C174 1.401 . S
C173 H194 0.930 . S
C174 C173 1.401 . S
C174 C175 1.376 . S
C174 C183 1.511 . S
C175 C174 1.376 . S
C175 C176 1.392 . S
C175 H196 0.931 . S
C176 C175 1.392 . S
C176 C177 1.361 . S
C176 C178 1.500 . S
C177 C172 1.390 . S
C177 C176 1.361 . S
C177 H195 0.931 . S
C178 C176 1.500 . S
C178 C179 1.371 . S
C178 C180 1.365 . S
C179 C178 1.371 . S
C179 C189 1.386 . S
C179 H197 0.931 . S
C180 C178 1.365 . S
C180 C181 1.409 . S
C180 H198 0.929 . S
C181 C180 1.409 . S
C181 C182 1.380 . S
C181 H199 0.930 . S
C182 C181 1.380 . S
C182 C189 1.357 . S
C183 C174 1.511 . S
C183 C184 1.341 . S
C183 C185 1.371 . S
C184 C183 1.341 . S
C184 C188 1.394 . S
C184 H200 0.930 . S
C185 C183 1.371 . S
C185 C186 1.392 . S
C185 H201 0.931 . S
C186 C185 1.392 . S
C186 C187 1.331 . S
C186 H204 0.932 . S
C187 C186 1.331 . S
C187 C188 1.336 . S
C188 C184 1.394 . S
C188 C187 1.336 . S
C188 H203 0.929 . S
C189 C179 1.386 . S
C189 C182 1.357 . S
C189 H202 0.928 . S
H190 C166 0.931 . S
H191 C168 0.930 . S
H192 C170 0.929 . S
H193 C171 0.931 . S
H194 C173 0.930 . S
H195 C177 0.931 . S
H196 C175 0.931 . S
H197 C179 0.931 . S
H198 C180 0.929 . S
H199 C181 0.930 . S
H200 C184 0.930 . S
H201 C185 0.931 . S
H202 C189 0.928 . S
H203 C188 0.929 . S
H204 C186 0.932 . S
C205 C206 1.386 . S
C205 C207 1.397 . S
C205 H229 0.931 . S
C206 C205 1.386 . S
C206 C210 1.397 . S
C207 C205 1.397 . S
C207 C208 1.384 . S
C207 H230 0.930 . S
C208 C207 1.384 . S
C208 C209 1.377 . S
C208 C211 1.481 . S
C209 C208 1.377 . S
C209 C210 1.389 . S
C209 H231 0.929 . S
C210 C206 1.397 . S
C210 C209 1.389 . S
C210 H232 0.931 . S
C211 C208 1.481 . S
C211 C212 1.387 . S
C211 C216 1.390 . S
C212 C211 1.387 . S
C212 C213 1.401 . S
C212 H233 0.930 . S
C213 C212 1.401 . S
C213 C214 1.376 . S
C213 C222 1.511 . S
C214 C213 1.376 . S
C214 C215 1.392 . S
C214 H235 0.931 . S
C215 C214 1.392 . S
C215 C216 1.361 . S
C215 C217 1.500 . S
C216 C211 1.390 . S
C216 C215 1.361 . S
C216 H234 0.931 . S
C217 C215 1.500 . S
C217 C218 1.371 . S
C217 C219 1.365 . S
C218 C217 1.371 . S
C218 C228 1.386 . S
C218 H236 0.931 . S
C219 C217 1.365 . S
C219 C220 1.409 . S
C219 H237 0.929 . S
C220 C219 1.409 . S
C220 C221 1.380 . S
C220 H238 0.930 . S
C221 C220 1.380 . S
C221 C228 1.357 . S
C222 C213 1.511 . S
C222 C223 1.341 . S
C222 C224 1.371 . S
C223 C222 1.341 . S
C223 C227 1.394 . S
C223 H239 0.930 . S
C224 C222 1.371 . S
C224 C225 1.392 . S
C224 H240 0.931 . S
C225 C224 1.392 . S
C225 C226 1.331 . S
C225 H243 0.932 . S
C226 C225 1.331 . S
C226 C227 1.336 . S
C227 C223 1.394 . S
C227 C226 1.336 . S
C227 H242 0.929 . S
C228 C218 1.386 . S
C228 C221 1.357 . S
C228 H241 0.928 . S
H229 C205 0.931 . S
H230 C207 0.930 . S
H231 C209 0.929 . S
H232 C210 0.931 . S
H233 C212 0.930 . S
H234 C216 0.931 . S
H235 C214 0.931 . S
H236 C218 0.931 . S
H237 C219 0.929 . S
H238 C220 0.930 . S
H239 C223 0.930 . S
H240 C224 0.931 . S
H241 C228 0.928 . S
H242 C227 0.929 . S
H243 C225 0.932 . S
C244 C245 1.386 . S
C244 C246 1.397 . S
C244 H268 0.931 . S
C245 C244 1.386 . S
C245 C249 1.397 . S
C246 C244 1.397 . S
C246 C247 1.384 . S
C246 H269 0.930 . S
C247 C246 1.384 . S
C247 C248 1.377 . S
C247 C250 1.481 . S
C248 C247 1.377 . S
C248 C249 1.389 . S
C248 H270 0.929 . S
C249 C245 1.397 . S
C249 C248 1.389 . S
C249 H271 0.931 . S
C250 C247 1.481 . S
C250 C251 1.387 . S
C250 C255 1.390 . S
C251 C250 1.387 . S
C251 C252 1.401 . S
C251 H272 0.930 . S
C252 C251 1.401 . S
C252 C253 1.376 . S
C252 C261 1.511 . S
C253 C252 1.376 . S
C253 C254 1.392 . S
C253 H274 0.931 . S
C254 C253 1.392 . S
C254 C255 1.361 . S
C254 C256 1.500 . S
C255 C250 1.390 . S
C255 C254 1.361 . S
C255 H273 0.931 . S
C256 C254 1.500 . S
C256 C257 1.371 . S
C256 C258 1.365 . S
C257 C256 1.371 . S
C257 C267 1.386 . S
C257 H275 0.931 . S
C258 C256 1.365 . S
C258 C259 1.409 . S
C258 H276 0.929 . S
C259 C258 1.409 . S
C259 C260 1.380 . S
C259 H277 0.930 . S
C260 C259 1.380 . S
C260 C267 1.357 . S
C261 C252 1.511 . S
C261 C262 1.341 . S
C261 C263 1.371 . S
C262 C261 1.341 . S
C262 C266 1.394 . S
C262 H278 0.930 . S
C263 C261 1.371 . S
C263 C264 1.392 . S
C263 H279 0.931 . S
C264 C263 1.392 . S
C264 C265 1.331 . S
C264 H282 0.932 . S
C265 C264 1.331 . S
C265 C266 1.336 . S
C266 C262 1.394 . S
C266 C265 1.336 . S
C266 H281 0.929 . S
C267 C257 1.386 . S
C267 C260 1.357 . S
C267 H280 0.928 . S
H268 C244 0.931 . S
H269 C246 0.930 . S
H270 C248 0.929 . S
H271 C249 0.931 . S
H272 C251 0.930 . S
H273 C255 0.931 . S
H274 C253 0.931 . S
H275 C257 0.931 . S
H276 C258 0.929 . S
H277 C259 0.930 . S
H278 C262 0.930 . S
H279 C263 0.931 . S
H280 C267 0.928 . S
H281 C266 0.929 . S
H282 C264 0.932 . S
C283 C284 1.386 . S
C283 C285 1.397 . S
C283 H307 0.931 . S
C284 C283 1.386 . S
C284 C288 1.397 . S
C285 C283 1.397 . S
C285 C286 1.384 . S
C285 H308 0.930 . S
C286 C285 1.384 . S
C286 C287 1.377 . S
C286 C289 1.481 . S
C287 C286 1.377 . S
C287 C288 1.389 . S
C287 H309 0.929 . S
C288 C284 1.397 . S
C288 C287 1.389 . S
C288 H310 0.931 . S
C289 C286 1.481 . S
C289 C290 1.387 . S
C289 C294 1.390 . S
C290 C289 1.387 . S
C290 C291 1.401 . S
C290 H311 0.930 . S
C291 C290 1.401 . S
C291 C292 1.376 . S
C291 C300 1.511 . S
C292 C291 1.376 . S
C292 C293 1.392 . S
C292 H313 0.931 . S
C293 C292 1.392 . S
C293 C294 1.361 . S
C293 C295 1.500 . S
C294 C289 1.390 . S
C294 C293 1.361 . S
C294 H312 0.931 . S
C295 C293 1.500 . S
C295 C296 1.371 . S
C295 C297 1.365 . S
C296 C295 1.371 . S
C296 C306 1.386 . S
C296 H314 0.931 . S
C297 C295 1.365 . S
C297 C298 1.409 . S
C297 H315 0.929 . S
C298 C297 1.409 . S
C298 C299 1.380 . S
C298 H316 0.930 . S
C299 C298 1.380 . S
C299 C306 1.357 . S
C300 C291 1.511 . S
C300 C301 1.341 . S
C300 C302 1.371 . S
C301 C300 1.341 . S
C301 C305 1.394 . S
C301 H317 0.930 . S
C302 C300 1.371 . S
C302 C303 1.392 . S
C302 H318 0.931 . S
C303 C302 1.392 . S
C303 C304 1.331 . S
C303 H321 0.932 . S
C304 C303 1.331 . S
C304 C305 1.336 . S
C305 C301 1.394 . S
C305 C304 1.336 . S
C305 H320 0.929 . S
C306 C296 1.386 . S
C306 C299 1.357 . S
C306 H319 0.928 . S
H307 C283 0.931 . S
H308 C285 0.930 . S
H309 C287 0.929 . S
H310 C288 0.931 . S
H311 C290 0.930 . S
H312 C294 0.931 . S
H313 C292 0.931 . S
H314 C296 0.931 . S
H315 C297 0.929 . S
H316 C298 0.930 . S
H317 C301 0.930 . S
H318 C302 0.931 . S
H319 C306 0.928 . S
H320 C305 0.929 . S
H321 C303 0.932 . S
C322 C323 1.386 . S
C322 C324 1.397 . S
C322 H346 0.931 . S
C323 C322 1.386 . S
C323 C327 1.397 . S
C324 C322 1.397 . S
C324 C325 1.384 . S
C324 H347 0.930 . S
C325 C324 1.384 . S
C325 C326 1.377 . S
C325 C328 1.481 . S
C326 C325 1.377 . S
C326 C327 1.389 . S
C326 H348 0.929 . S
C327 C323 1.397 . S
C327 C326 1.389 . S
C327 H349 0.931 . S
C328 C325 1.481 . S
C328 C329 1.387 . S
C328 C333 1.390 . S
C329 C328 1.387 . S
C329 C330 1.401 . S
C329 H350 0.930 . S
C330 C329 1.401 . S
C330 C331 1.376 . S
C330 C339 1.511 . S
C331 C330 1.376 . S
C331 C332 1.392 . S
C331 H352 0.931 . S
C332 C331 1.392 . S
C332 C333 1.361 . S
C332 C334 1.500 . S
C333 C328 1.390 . S
C333 C332 1.361 . S
C333 H351 0.931 . S
C334 C332 1.500 . S
C334 C335 1.371 . S
C334 C336 1.365 . S
C335 C334 1.371 . S
C335 C345 1.386 . S
C335 H353 0.931 . S
C336 C334 1.365 . S
C336 C337 1.409 . S
C336 H354 0.929 . S
C337 C336 1.409 . S
C337 C338 1.380 . S
C337 H355 0.930 . S
C338 C337 1.380 . S
C338 C345 1.357 . S
C339 C330 1.511 . S
C339 C340 1.341 . S
C339 C341 1.371 . S
C340 C339 1.341 . S
C340 C344 1.394 . S
C340 H356 0.930 . S
C341 C339 1.371 . S
C341 C342 1.392 . S
C341 H357 0.931 . S
C342 C341 1.392 . S
C342 C343 1.331 . S
C342 H360 0.932 . S
C343 C342 1.331 . S
C343 C344 1.336 . S
C344 C340 1.394 . S
C344 C343 1.336 . S
C344 H359 0.929 . S
C345 C335 1.386 . S
C345 C338 1.357 . S
C345 H358 0.928 . S
H346 C322 0.931 . S
H347 C324 0.930 . S
H348 C326 0.929 . S
H349 C327 0.931 . S
H350 C329 0.930 . S
H351 C333 0.931 . S
H352 C331 0.931 . S
H353 C335 0.931 . S
H354 C336 0.929 . S
H355 C337 0.930 . S
H356 C340 0.930 . S
H357 C341 0.931 . S
H358 C345 0.928 . S
H359 C344 0.929 . S
H360 C342 0.932 . S
C361 C362 1.386 . S
C361 C363 1.397 . S
C361 H385 0.931 . S
C362 C361 1.386 . S
C362 C366 1.397 . S
C363 C361 1.397 . S
C363 C364 1.384 1_455 S
C363 H386 0.930 . S
C364 C363 1.384 1_655 S
C364 C365 1.377 . S
C364 C367 1.481 . S
C365 C364 1.377 . S
C365 C366 1.389 1_655 S
C365 H387 0.929 . S
C366 C362 1.397 . S
C366 C365 1.389 1_455 S
C366 H388 0.931 . S
C367 C364 1.481 . S
C367 C368 1.387 . S
C367 C372 1.390 . S
C368 C367 1.387 . S
C368 C369 1.401 . S
C368 H389 0.930 . S
C369 C368 1.401 . S
C369 C370 1.376 . S
C369 C378 1.511 . S
C370 C369 1.376 . S
C370 C371 1.392 . S
C370 H391 0.931 . S
C371 C370 1.392 . S
C371 C372 1.361 . S
C371 C373 1.500 . S
C372 C367 1.390 . S
C372 C371 1.361 . S
C372 H390 0.931 . S
C373 C371 1.500 . S
C373 C374 1.371 . S
C373 C375 1.365 . S
C374 C373 1.371 . S
C374 C384 1.386 . S
C374 H392 0.931 . S
C375 C373 1.365 . S
C375 C376 1.409 . S
C375 H393 0.929 . S
C376 C375 1.409 . S
C376 C377 1.380 . S
C376 H394 0.930 . S
C377 C376 1.380 . S
C377 C384 1.357 . S
C378 C369 1.511 . S
C378 C379 1.341 . S
C378 C380 1.371 . S
C379 C378 1.341 . S
C379 C383 1.394 . S
C379 H395 0.930 . S
C380 C378 1.371 . S
C380 C381 1.392 . S
C380 H396 0.931 . S
C381 C380 1.392 . S
C381 C382 1.331 . S
C381 H399 0.932 . S
C382 C381 1.331 . S
C382 C383 1.336 . S
C383 C379 1.394 . S
C383 C382 1.336 . S
C383 H398 0.929 . S
C384 C374 1.386 . S
C384 C377 1.357 . S
C384 H397 0.928 . S
H385 C361 0.931 . S
H386 C363 0.930 . S
H387 C365 0.929 . S
H388 C366 0.931 . S
H389 C368 0.930 . S
H390 C372 0.931 . S
H391 C370 0.931 . S
H392 C374 0.931 . S
H393 C375 0.929 . S
H394 C376 0.930 . S
H395 C379 0.930 . S
H396 C380 0.931 . S
H397 C384 0.928 . S
H398 C383 0.929 . S
H399 C381 0.932 . S
C400 C401 1.391 . S
C400 C402 1.394 . S
C400 H416 0.931 . S
C401 C400 1.391 . S
C401 C405 1.376 . S
C402 C400 1.394 . S
C402 C403 1.369 . S
C402 C406 1.531 . S
C403 C402 1.369 . S
C403 C404 1.410 . S
C403 C411 1.503 . S
C404 C403 1.410 . S
C404 C405 1.392 . S
C404 C407 1.511 . S
C405 C401 1.376 . S
C405 C404 1.392 . S
C405 H417 0.929 . S
C406 C402 1.531 . S
C406 H418 0.960 . S
C406 H419 0.962 . S
C406 H420 0.960 . S
C407 C404 1.511 . S
C407 H421 0.961 . S
C407 H422 0.961 . S
C407 H423 0.961 . S
C408 C409 1.370 . S
C408 C410 1.363 . S
C408 H424 0.931 . S
C409 C408 1.370 . S
C409 C413 1.408 . S
C410 C408 1.363 . S
C410 C411 1.370 . S
C410 C414 1.524 . S
C411 C403 1.503 . S
C411 C410 1.370 . S
C411 C412 1.403 . S
C412 C411 1.403 . S
C412 C413 1.404 . S
C412 C415 1.539 . S
C413 C409 1.408 . S
C413 C412 1.404 . S
C413 H425 0.930 . S
C414 C410 1.524 . S
C414 H426 0.956 . S
C414 H427 0.961 . S
C414 H428 0.961 . S
C415 C412 1.539 . S
C415 H429 0.958 . S
C415 H430 0.961 . S
C415 H431 0.960 . S
H416 C400 0.931 . S
H417 C405 0.929 . S
H418 C406 0.960 . S
H419 C406 0.962 . S
H420 C406 0.960 . S
H421 C407 0.961 . S
H422 C407 0.961 . S
H423 C407 0.961 . S
H424 C408 0.931 . S
H425 C413 0.930 . S
H426 C414 0.956 . S
H427 C414 0.961 . S
H428 C414 0.961 . S
H429 C415 0.958 . S
H430 C415 0.961 . S
H431 C415 0.960 . S
C432 C433 1.391 . S
C432 C434 1.394 . S
C432 H448 0.931 . S
C433 C432 1.391 . S
C433 C437 1.376 . S
C434 C432 1.394 . S
C434 C435 1.369 . S
C434 C438 1.531 . S
C435 C434 1.369 . S
C435 C436 1.410 . S
C435 C443 1.503 . S
C436 C435 1.410 . S
C436 C437 1.392 . S
C436 C439 1.511 . S
C437 C433 1.376 . S
C437 C436 1.392 . S
C437 H449 0.929 . S
C438 C434 1.531 . S
C438 H450 0.960 . S
C438 H451 0.962 . S
C438 H452 0.960 . S
C439 C436 1.511 . S
C439 H453 0.961 . S
C439 H454 0.961 . S
C439 H455 0.961 . S
C440 C441 1.370 . S
C440 C442 1.363 . S
C440 H456 0.931 . S
C441 C440 1.370 . S
C441 C445 1.408 . S
C442 C440 1.363 . S
C442 C443 1.370 . S
C442 C446 1.524 . S
C443 C435 1.503 . S
C443 C442 1.370 . S
C443 C444 1.403 . S
C444 C443 1.403 . S
C444 C445 1.404 . S
C444 C447 1.539 . S
C445 C441 1.408 . S
C445 C444 1.404 . S
C445 H457 0.930 . S
C446 C442 1.524 . S
C446 H458 0.956 . S
C446 H459 0.961 . S
C446 H460 0.961 . S
C447 C444 1.539 . S
C447 H461 0.958 . S
C447 H462 0.961 . S
C447 H463 0.960 . S
H448 C432 0.931 . S
H449 C437 0.929 . S
H450 C438 0.960 . S
H451 C438 0.962 . S
H452 C438 0.960 . S
H453 C439 0.961 . S
H454 C439 0.961 . S
H455 C439 0.961 . S
H456 C440 0.931 . S
H457 C445 0.930 . S
H458 C446 0.956 . S
H459 C446 0.961 . S
H460 C446 0.961 . S
H461 C447 0.958 . S
H462 C447 0.961 . S
H463 C447 0.960 . S
C464 C465 1.391 . S
C464 C466 1.394 . S
C464 H480 0.931 . S
C465 C464 1.391 . S
C465 C469 1.376 . S
C466 C464 1.394 . S
C466 C467 1.369 . S
C466 C470 1.531 . S
C467 C466 1.369 . S
C467 C468 1.410 . S
C467 C475 1.503 . S
C468 C467 1.410 . S
C468 C469 1.392 . S
C468 C471 1.511 . S
C469 C465 1.376 . S
C469 C468 1.392 . S
C469 H481 0.929 . S
C470 C466 1.531 . S
C470 H482 0.960 . S
C470 H483 0.962 . S
C470 H484 0.960 . S
C471 C468 1.511 . S
C471 H485 0.961 . S
C471 H486 0.961 . S
C471 H487 0.961 . S
C472 C473 1.370 . S
C472 C474 1.343 1_565 S
C472 H488 0.931 . S
C473 C472 1.370 . S
C473 C477 1.379 1_565 S
C474 C472 1.343 1_545 S
C474 C475 1.389 . S
C474 C478 1.526 1_545 S
C475 C467 1.503 . S
C475 C474 1.389 . S
C475 C476 1.403 . S
C476 C475 1.403 . S
C476 C477 1.437 . S
C476 C479 1.539 . S
C477 C473 1.379 1_545 S
C477 C476 1.437 . S
C477 H489 0.930 . S
C478 C474 1.526 1_565 S
C478 H490 0.956 1_565 S
C478 H491 0.962 1_565 S
C478 H492 0.959 . S
C479 C476 1.539 . S
C479 H493 0.958 . S
C479 H494 0.961 . S
C479 H495 0.960 . S
H480 C464 0.931 . S
H481 C469 0.929 . S
H482 C470 0.960 . S
H483 C470 0.962 . S
H484 C470 0.960 . S
H485 C471 0.961 . S
H486 C471 0.961 . S
H487 C471 0.961 . S
H488 C472 0.931 . S
H489 C477 0.930 . S
H490 C478 0.956 1_545 S
H491 C478 0.962 1_545 S
H492 C478 0.959 . S
H493 C479 0.958 . S
H494 C479 0.961 . S
H495 C479 0.960 . S
C496 C497 1.391 . S
C496 C498 1.394 . S
C496 H512 0.931 . S
C497 C496 1.391 . S
C497 C501 1.376 . S
C498 C496 1.394 . S
C498 C499 1.369 . S
C498 C502 1.531 . S
C499 C498 1.369 . S
C499 C500 1.410 . S
C499 C507 1.503 . S
C500 C499 1.410 . S
C500 C501 1.392 . S
C500 C503 1.511 . S
C501 C497 1.376 . S
C501 C500 1.392 . S
C501 H513 0.929 . S
C502 C498 1.531 . S
C502 H514 0.960 . S
C502 H515 0.962 . S
C502 H516 0.960 . S
C503 C500 1.511 . S
C503 H517 0.961 . S
C503 H518 0.961 . S
C503 H519 0.961 . S
C504 C505 1.370 . S
C504 C506 1.363 . S
C504 H520 0.931 . S
C505 C504 1.370 . S
C505 C509 1.408 . S
C506 C504 1.363 . S
C506 C507 1.370 . S
C506 C510 1.524 . S
C507 C499 1.503 . S
C507 C506 1.370 . S
C507 C508 1.403 . S
C508 C507 1.403 . S
C508 C509 1.404 . S
C508 C511 1.539 . S
C509 C505 1.408 . S
C509 C508 1.404 . S
C509 H521 0.930 . S
C510 C506 1.524 . S
C510 H522 0.956 . S
C510 H523 0.961 . S
C510 H524 0.961 . S
C511 C508 1.539 . S
C511 H525 0.958 . S
C511 H526 0.961 . S
C511 H527 0.960 . S
H512 C496 0.931 . S
H513 C501 0.929 . S
H514 C502 0.960 . S
H515 C502 0.962 . S
H516 C502 0.960 . S
H517 C503 0.961 . S
H518 C503 0.961 . S
H519 C503 0.961 . S
H520 C504 0.931 . S
H521 C509 0.930 . S
H522 C510 0.956 . S
H523 C510 0.961 . S
H524 C510 0.961 . S
H525 C511 0.958 . S
H526 C511 0.961 . S
H527 C511 0.960 . S
C528 C529 1.391 . S
C528 C530 1.394 . S
C528 H544 0.931 . S
C529 C528 1.391 . S
C529 C533 1.376 . S
C530 C528 1.394 . S
C530 C531 1.369 . S
C530 C534 1.531 . S
C531 C530 1.369 . S
C531 C532 1.410 . S
C531 C539 1.503 . S
C532 C531 1.410 . S
C532 C533 1.392 . S
C532 C535 1.511 . S
C533 C529 1.376 . S
C533 C532 1.392 . S
C533 H545 0.929 . S
C534 C530 1.531 . S
C534 H546 0.960 . S
C534 H547 0.962 . S
C534 H548 0.960 . S
C535 C532 1.511 . S
C535 H549 0.961 . S
C535 H550 0.961 . S
C535 H551 0.961 . S
C536 C537 1.370 . S
C536 C538 1.363 . S
C536 H552 0.931 . S
C537 C536 1.370 . S
C537 C541 1.408 . S
C538 C536 1.363 . S
C538 C539 1.370 . S
C538 C542 1.524 . S
C539 C531 1.503 . S
C539 C538 1.370 . S
C539 C540 1.403 . S
C540 C539 1.403 . S
C540 C541 1.404 . S
C540 C543 1.539 . S
C541 C537 1.408 . S
C541 C540 1.404 . S
C541 H553 0.930 . S
C542 C538 1.524 . S
C542 H554 0.956 . S
C542 H555 0.961 . S
C542 H556 0.961 . S
C543 C540 1.539 . S
C543 H557 0.958 . S
C543 H558 0.961 . S
C543 H559 0.960 . S
H544 C528 0.931 . S
H545 C533 0.929 . S
H546 C534 0.960 . S
H547 C534 0.962 . S
H548 C534 0.960 . S
H549 C535 0.961 . S
H550 C535 0.961 . S
H551 C535 0.961 . S
H552 C536 0.931 . S
H553 C541 0.930 . S
H554 C542 0.956 . S
H555 C542 0.961 . S
H556 C542 0.961 . S
H557 C543 0.958 . S
H558 C543 0.961 . S
H559 C543 0.960 . S
C560 C561 1.391 . S
C560 C562 1.394 . S
C560 H576 0.931 1_556 S
C561 C560 1.391 . S
C561 C565 1.376 . S
C562 C560 1.394 . S
C562 C563 1.369 1_655 S
C562 C566 1.531 1_656 S
C563 C562 1.369 1_455 S
C563 C564 1.410 1_455 S
C563 C571 1.503 . S
C564 C563 1.410 1_655 S
C564 C565 1.392 . S
C564 C567 1.511 . S
C565 C561 1.376 . S
C565 C564 1.392 . S
C565 H577 0.929 . S
C566 C562 1.531 1_454 S
C566 H578 0.960 1_554 S
C566 H579 0.962 . S
C566 H580 0.960 . S
C567 C564 1.511 . S
C567 H581 0.961 . S
C567 H582 0.961 1_655 S
C567 H583 0.965 . S
C568 C569 1.370 . S
C568 C570 1.363 . S
C568 H584 0.931 . S
C569 C568 1.370 . S
C569 C573 1.408 . S
C570 C568 1.363 . S
C570 C571 1.370 . S
C570 C574 1.524 . S
C571 C563 1.503 . S
C571 C570 1.370 . S
C571 C572 1.403 . S
C572 C571 1.403 . S
C572 C573 1.404 . S
C572 C575 1.539 . S
C573 C569 1.408 . S
C573 C572 1.404 . S
C573 H585 0.930 . S
C574 C570 1.524 . S
C574 H586 0.956 . S
C574 H587 0.961 . S
C574 H588 0.961 . S
C575 C572 1.539 . S
C575 H589 0.958 . S
C575 H590 0.961 . S
C575 H591 0.960 . S
H576 C560 0.931 1_554 S
H577 C565 0.929 . S
H578 C566 0.960 1_556 S
H579 C566 0.962 . S
H580 C566 0.960 . S
H581 C567 0.961 . S
H582 C567 0.961 1_455 S
H583 C567 0.965 . S
H584 C568 0.931 . S
H585 C573 0.930 . S
H586 C574 0.956 . S
H587 C574 0.961 . S
H588 C574 0.961 . S
H589 C575 0.958 . S
H590 C575 0.961 . S
H591 C575 0.960 . S
C592 C593 1.391 . S
C592 C594 1.394 . S
C592 H608 0.931 . S
C593 C592 1.391 . S
C593 C597 1.376 . S
C594 C592 1.394 . S
C594 C595 1.369 . S
C594 C598 1.531 . S
C595 C594 1.369 . S
C595 C596 1.410 . S
C595 C603 1.503 . S
C596 C595 1.410 . S
C596 C597 1.392 . S
C596 C599 1.511 . S
C597 C593 1.376 . S
C597 C596 1.392 . S
C597 H609 0.929 . S
C598 C594 1.531 . S
C598 H610 0.960 . S
C598 H611 0.962 . S
C598 H612 0.960 . S
C599 C596 1.511 . S
C599 H613 0.961 . S
C599 H614 0.961 . S
C599 H615 0.961 . S
C600 C601 1.370 . S
C600 C602 1.363 . S
C600 H616 0.931 . S
C601 C600 1.370 . S
C601 C605 1.408 . S
C602 C600 1.363 . S
C602 C603 1.370 . S
C602 C606 1.524 . S
C603 C595 1.503 . S
C603 C602 1.370 . S
C603 C604 1.403 . S
C604 C603 1.403 . S
C604 C605 1.404 . S
C604 C607 1.539 . S
C605 C601 1.408 . S
C605 C604 1.404 . S
C605 H617 0.930 . S
C606 C602 1.524 . S
C606 H618 0.956 . S
C606 H619 0.961 . S
C606 H620 0.961 . S
C607 C604 1.539 . S
C607 H621 0.958 . S
C607 H622 0.961 . S
C607 H623 0.960 . S
H608 C592 0.931 . S
H609 C597 0.929 . S
H610 C598 0.960 . S
H611 C598 0.962 . S
H612 C598 0.960 . S
H613 C599 0.961 . S
H614 C599 0.961 . S
H615 C599 0.961 . S
H616 C600 0.931 . S
H617 C605 0.930 . S
H618 C606 0.956 . S
H619 C606 0.961 . S
H620 C606 0.961 . S
H621 C607 0.958 . S
H622 C607 0.961 . S
H623 C607 0.960 . S
C624 C625 1.391 . S
C624 C626 1.394 . S
C624 H640 0.931 . S
C625 C624 1.391 . S
C625 C629 1.376 . S
C626 C624 1.394 . S
C626 C627 1.369 . S
C626 C630 1.531 . S
C627 C626 1.369 . S
C627 C628 1.410 . S
C627 C635 1.503 . S
C628 C627 1.410 . S
C628 C629 1.392 . S
C628 C631 1.511 . S
C629 C625 1.376 . S
C629 C628 1.392 . S
C629 H641 0.929 . S
C630 C626 1.531 . S
C630 H642 0.960 . S
C630 H643 0.962 . S
C630 H644 0.960 . S
C631 C628 1.511 . S
C631 H645 0.961 . S
C631 H646 0.961 . S
C631 H647 0.961 . S
C632 C633 1.370 . S
C632 C634 1.363 . S
C632 H648 0.931 . S
C633 C632 1.370 . S
C633 C637 1.408 . S
C634 C632 1.363 . S
C634 C635 1.370 . S
C634 C638 1.524 . S
C635 C627 1.503 . S
C635 C634 1.370 . S
C635 C636 1.403 . S
C636 C635 1.403 . S
C636 C637 1.404 . S
C636 C639 1.539 . S
C637 C633 1.408 . S
C637 C636 1.404 . S
C637 H649 0.930 . S
C638 C634 1.524 . S
C638 H650 0.956 . S
C638 H651 0.961 . S
C638 H652 0.961 . S
C639 C636 1.539 . S
C639 H653 0.958 . S
C639 H654 0.961 . S
C639 H655 0.960 . S
H640 C624 0.931 . S
H641 C629 0.929 . S
H642 C630 0.960 . S
H643 C630 0.962 . S
H644 C630 0.960 . S
H645 C631 0.961 . S
H646 C631 0.961 . S
H647 C631 0.961 . S
H648 C632 0.931 . S
H649 C637 0.930 . S
H650 C638 0.956 . S
H651 C638 0.961 . S
H652 C638 0.961 . S
H653 C639 0.958 . S
H654 C639 0.961 . S
H655 C639 0.960 . S
C656 C657 1.391 . S
C656 C658 1.394 . S
C656 H672 0.931 . S
C657 C656 1.391 . S
C657 C661 1.376 . S
C658 C656 1.394 . S
C658 C659 1.369 . S
C658 C662 1.531 . S
C659 C658 1.369 . S
C659 C660 1.410 . S
C659 C667 1.503 . S
C660 C659 1.410 . S
C660 C661 1.392 . S
C660 C663 1.511 . S
C661 C657 1.376 . S
C661 C660 1.392 . S
C661 H673 0.929 . S
C662 C658 1.531 . S
C662 H674 0.960 . S
C662 H675 0.962 . S
C662 H676 0.960 . S
C663 C660 1.511 . S
C663 H677 0.961 . S
C663 H678 0.961 . S
C663 H679 0.961 . S
C664 C665 1.370 . S
C664 C666 1.363 . S
C664 H680 0.931 . S
C665 C664 1.370 . S
C665 C669 1.408 . S
C666 C664 1.363 . S
C666 C667 1.370 . S
C666 C670 1.524 . S
C667 C659 1.503 . S
C667 C666 1.370 . S
C667 C668 1.403 . S
C668 C667 1.403 . S
C668 C669 1.404 . S
C668 C671 1.539 . S
C669 C665 1.408 . S
C669 C668 1.404 . S
C669 H681 0.930 . S
C670 C666 1.524 . S
C670 H682 0.956 . S
C670 H683 0.961 . S
C670 H684 0.961 . S
C671 C668 1.539 . S
C671 H685 0.958 . S
C671 H686 0.961 . S
C671 H687 0.960 . S
H672 C656 0.931 . S
H673 C661 0.929 . S
H674 C662 0.960 . S
H675 C662 0.962 . S
H676 C662 0.960 . S
H677 C663 0.961 . S
H678 C663 0.961 . S
H679 C663 0.961 . S
H680 C664 0.931 . S
H681 C669 0.930 . S
H682 C670 0.956 . S
H683 C670 0.961 . S
H684 C670 0.961 . S
H685 C671 0.958 . S
H686 C671 0.961 . S
H687 C671 0.960 . S
C688 C689 1.391 . S
C688 C690 1.394 . S
C688 H704 0.931 . S
C689 C688 1.391 . S
C689 C693 1.376 . S
C690 C688 1.394 . S
C690 C691 1.369 . S
C690 C694 1.531 . S
C691 C690 1.369 . S
C691 C692 1.410 . S
C691 C699 1.503 . S
C692 C691 1.410 . S
C692 C693 1.392 . S
C692 C695 1.511 . S
C693 C689 1.376 . S
C693 C692 1.392 . S
C693 H705 0.929 . S
C694 C690 1.531 . S
C694 H706 0.960 . S
C694 H707 0.962 . S
C694 H708 0.960 . S
C695 C692 1.511 . S
C695 H709 0.961 . S
C695 H710 0.961 . S
C695 H711 0.961 . S
C696 C697 1.370 . S
C696 C698 1.363 . S
C696 H712 0.931 . S
C697 C696 1.370 . S
C697 C701 1.408 . S
C698 C696 1.363 . S
C698 C699 1.370 . S
C698 C702 1.524 . S
C699 C691 1.503 . S
C699 C698 1.370 . S
C699 C700 1.403 . S
C700 C699 1.403 . S
C700 C701 1.404 . S
C700 C703 1.539 . S
C701 C697 1.408 . S
C701 C700 1.404 . S
C701 H713 0.930 . S
C702 C698 1.524 . S
C702 H714 0.956 . S
C702 H715 0.961 . S
C702 H716 0.961 . S
C703 C700 1.539 . S
C703 H717 0.958 . S
C703 H718 0.961 . S
C703 H719 0.960 . S
H704 C688 0.931 . S
H705 C693 0.929 . S
H706 C694 0.960 . S
H707 C694 0.962 . S
H708 C694 0.960 . S
H709 C695 0.961 . S
H710 C695 0.961 . S
H711 C695 0.961 . S
H712 C696 0.931 . S
H713 C701 0.930 . S
H714 C702 0.956 . S
H715 C702 0.961 . S
H716 C702 0.961 . S
H717 C703 0.958 . S
H718 C703 0.961 . S
H719 C703 0.960 . S
C720 C721 1.391 . S
C720 C722 1.394 . S
C720 H736 0.931 . S
C721 C720 1.391 . S
C721 C725 1.376 1_554 S
C722 C720 1.394 . S
C722 C723 1.369 1_554 S
C722 C726 1.531 . S
C723 C722 1.369 1_556 S
C723 C724 1.410 . S
C723 C731 1.503 . S
C724 C723 1.410 . S
C724 C725 1.392 . S
C724 C727 1.511 . S
C725 C721 1.376 1_556 S
C725 C724 1.392 . S
C725 H737 0.929 . S
C726 C722 1.531 . S
C726 H738 0.961 1_565 S
C726 H739 0.949 1_554 S
C726 H740 0.960 . S
C727 C724 1.511 . S
C727 H741 0.961 . S
C727 H742 0.961 . S
C727 H743 0.961 . S
C728 C729 1.370 . S
C728 C730 1.363 1_545 S
C728 H744 0.931 . S
C729 C728 1.370 . S
C729 C733 1.408 . S
C730 C728 1.363 1_565 S
C730 C731 1.370 . S
C730 C734 1.524 . S
C731 C723 1.503 . S
C731 C730 1.370 . S
C731 C732 1.403 . S
C732 C731 1.403 . S
C732 C733 1.404 1_565 S
C732 C735 1.539 1_556 S
C733 C729 1.408 . S
C733 C732 1.404 1_545 S
C733 H745 0.930 . S
C734 C730 1.524 . S
C734 H746 0.956 . S
C734 H747 0.961 . S
C734 H748 0.961 . S
C735 C732 1.539 1_554 S
C735 H749 0.958 . S
C735 H750 0.961 . S
C735 H751 0.960 . S
H736 C720 0.931 . S
H737 C725 0.929 . S
H738 C726 0.961 1_545 S
H739 C726 0.949 1_556 S
H740 C726 0.960 . S
H741 C727 0.961 . S
H742 C727 0.961 . S
H743 C727 0.961 . S
H744 C728 0.931 . S
H745 C733 0.930 . S
H746 C734 0.956 . S
H747 C734 0.961 . S
H748 C734 0.961 . S
H749 C735 0.958 . S
H750 C735 0.961 . S
H751 C735 0.960 . S
C752 C753 1.391 . S
C752 C754 1.394 . S
C752 H768 0.931 . S
C753 C752 1.391 . S
C753 C757 1.376 . S
C754 C752 1.394 . S
C754 C755 1.369 . S
C754 C758 1.531 . S
C755 C754 1.369 . S
C755 C756 1.410 . S
C755 C763 1.503 . S
C756 C755 1.410 . S
C756 C757 1.392 . S
C756 C759 1.511 . S
C757 C753 1.376 . S
C757 C756 1.392 . S
C757 H769 0.929 . S
C758 C754 1.531 . S
C758 H770 0.960 . S
C758 H771 0.962 . S
C758 H772 0.960 . S
C759 C756 1.511 . S
C759 H773 0.961 . S
C759 H774 0.961 . S
C759 H775 0.961 . S
C760 C761 1.370 . S
C760 C762 1.363 . S
C760 H776 0.931 . S
C761 C760 1.370 . S
C761 C765 1.408 . S
C762 C760 1.363 . S
C762 C763 1.370 . S
C762 C766 1.524 . S
C763 C755 1.503 . S
C763 C762 1.370 . S
C763 C764 1.403 . S
C764 C763 1.403 . S
C764 C765 1.404 . S
C764 C767 1.539 . S
C765 C761 1.408 . S
C765 C764 1.404 . S
C765 H777 0.930 . S
C766 C762 1.524 . S
C766 H778 0.956 . S
C766 H779 0.961 . S
C766 H780 0.961 . S
C767 C764 1.539 . S
C767 H781 0.958 . S
C767 H782 0.961 . S
C767 H783 0.960 . S
H768 C752 0.931 . S
H769 C757 0.929 . S
H770 C758 0.960 . S
H771 C758 0.962 . S
H772 C758 0.960 . S
H773 C759 0.961 . S
H774 C759 0.961 . S
H775 C759 0.961 . S
H776 C760 0.931 . S
H777 C765 0.930 . S
H778 C766 0.956 . S
H779 C766 0.961 . S
H780 C766 0.961 . S
H781 C767 0.958 . S
H782 C767 0.961 . S
H783 C767 0.960 . S
C784 C785 1.391 . S
C784 C786 1.394 . S
C784 H800 0.931 . S
C785 C784 1.391 . S
C785 C789 1.376 . S
C786 C784 1.394 . S
C786 C787 1.369 . S
C786 C790 1.531 . S
C787 C786 1.369 . S
C787 C788 1.410 . S
C787 C795 1.503 . S
C788 C787 1.410 . S
C788 C789 1.392 . S
C788 C791 1.511 . S
C789 C785 1.376 . S
C789 C788 1.392 . S
C789 H801 0.929 . S
C790 C786 1.531 . S
C790 H802 0.960 . S
C790 H803 0.962 . S
C790 H804 0.960 . S
C791 C788 1.511 . S
C791 H805 0.961 . S
C791 H806 0.961 . S
C791 H807 0.961 . S
C792 C793 1.370 . S
C792 C794 1.363 . S
C792 H808 0.931 . S
C793 C792 1.370 . S
C793 C797 1.408 . S
C794 C792 1.363 . S
C794 C795 1.370 . S
C794 C798 1.524 . S
C795 C787 1.503 . S
C795 C794 1.370 . S
C795 C796 1.403 . S
C796 C795 1.403 . S
C796 C797 1.404 . S
C796 C799 1.539 . S
C797 C793 1.408 . S
C797 C796 1.404 . S
C797 H809 0.930 . S
C798 C794 1.524 . S
C798 H810 0.956 . S
C798 H811 0.961 . S
C798 H812 0.961 . S
C799 C796 1.539 . S
C799 H813 0.958 . S
C799 H814 0.961 . S
C799 H815 0.960 . S
H800 C784 0.931 . S
H801 C789 0.929 . S
H802 C790 0.960 . S
H803 C790 0.962 . S
H804 C790 0.960 . S
H805 C791 0.961 . S
H806 C791 0.961 . S
H807 C791 0.961 . S
H808 C792 0.931 . S
H809 C797 0.930 . S
H810 C798 0.956 . S
H811 C798 0.961 . S
H812 C798 0.961 . S
H813 C799 0.958 . S
H814 C799 0.961 . S
H815 C799 0.960 . S
C816 C817 1.391 . S
C816 C818 1.394 . S
C816 H832 0.931 . S
C817 C816 1.391 . S
C817 C821 1.376 . S
C818 C816 1.394 . S
C818 C819 1.369 1_455 S
C818 C822 1.531 1_455 S
C819 C818 1.369 1_655 S
C819 C820 1.410 1_655 S
C819 C827 1.503 . S
C820 C819 1.410 1_455 S
C820 C821 1.392 . S
C820 C823 1.511 1_455 S
C821 C817 1.376 . S
C821 C820 1.392 . S
C821 H833 0.929 . S
C822 C818 1.531 1_655 S
C822 H834 0.960 . S
C822 H835 0.962 . S
C822 H836 0.960 1_655 S
C823 C820 1.511 1_655 S
C823 H837 0.961 1_655 S
C823 H838 0.961 . S
C823 H839 0.961 . S
C824 C825 1.370 . S
C824 C826 1.363 . S
C824 H840 0.931 . S
C825 C824 1.370 . S
C825 C829 1.408 . S
C826 C824 1.363 . S
C826 C827 1.370 . S
C826 C830 1.524 . S
C827 C819 1.503 . S
C827 C826 1.370 . S
C827 C828 1.403 . S
C828 C827 1.403 . S
C828 C829 1.404 . S
C828 C831 1.539 . S
C829 C825 1.408 . S
C829 C828 1.404 . S
C829 H841 0.930 . S
C830 C826 1.524 . S
C830 H842 0.956 . S
C830 H843 0.961 . S
C830 H844 0.961 . S
C831 C828 1.539 . S
C831 H845 0.958 . S
C831 H846 0.961 . S
C831 H847 0.960 . S
H832 C816 0.931 . S
H833 C821 0.929 . S
H834 C822 0.960 . S
H835 C822 0.962 . S
H836 C822 0.960 1_455 S
H837 C823 0.961 1_455 S
H838 C823 0.961 . S
H839 C823 0.961 . S
H840 C824 0.931 . S
H841 C829 0.930 . S
H842 C830 0.956 . S
H843 C830 0.961 . S
H844 C830 0.961 . S
H845 C831 0.958 . S
H846 C831 0.961 . S
H847 C831 0.960 . S
C848 C849 1.391 . S
C848 C850 1.394 . S
C848 H864 0.931 . S
C849 C848 1.391 . S
C849 C853 1.376 . S
C850 C848 1.394 . S
C850 C851 1.369 . S
C850 C854 1.531 . S
C851 C850 1.369 . S
C851 C852 1.410 . S
C851 C859 1.503 . S
C852 C851 1.410 . S
C852 C853 1.392 . S
C852 C855 1.511 . S
C853 C849 1.376 . S
C853 C852 1.392 . S
C853 H865 0.929 . S
C854 C850 1.531 . S
C854 H866 0.960 . S
C854 H867 0.962 . S
C854 H868 0.960 . S
C855 C852 1.511 . S
C855 H869 0.961 . S
C855 H870 0.961 . S
C855 H871 0.961 . S
C856 C857 1.370 . S
C856 C858 1.363 . S
C856 H872 0.931 . S
C857 C856 1.370 . S
C857 C861 1.408 . S
C858 C856 1.363 . S
C858 C859 1.370 . S
C858 C862 1.524 . S
C859 C851 1.503 . S
C859 C858 1.370 . S
C859 C860 1.403 . S
C860 C859 1.403 . S
C860 C861 1.404 . S
C860 C863 1.539 . S
C861 C857 1.408 . S
C861 C860 1.404 . S
C861 H873 0.930 . S
C862 C858 1.524 . S
C862 H874 0.956 . S
C862 H875 0.961 . S
C862 H876 0.961 . S
C863 C860 1.539 . S
C863 H877 0.958 . S
C863 H878 0.961 . S
C863 H879 0.960 . S
H864 C848 0.931 . S
H865 C853 0.929 . S
H866 C854 0.960 . S
H867 C854 0.962 . S
H868 C854 0.960 . S
H869 C855 0.961 . S
H870 C855 0.961 . S
H871 C855 0.961 . S
H872 C856 0.931 . S
H873 C861 0.930 . S
H874 C862 0.956 . S
H875 C862 0.961 . S
H876 C862 0.961 . S
H877 C863 0.958 . S
H878 C863 0.961 . S
H879 C863 0.960 . S
C880 C881 1.391 . S
C880 C882 1.394 . S
C880 H896 0.931 . S
C881 C880 1.391 . S
C881 C885 1.376 . S
C882 C880 1.394 . S
C882 C883 1.369 . S
C882 C886 1.531 . S
C883 C882 1.369 . S
C883 C884 1.410 . S
C883 C891 1.503 . S
C884 C883 1.410 . S
C884 C885 1.392 . S
C884 C887 1.511 . S
C885 C881 1.376 . S
C885 C884 1.392 . S
C885 H897 0.929 . S
C886 C882 1.531 . S
C886 H898 0.960 . S
C886 H899 0.962 . S
C886 H900 0.960 . S
C887 C884 1.511 . S
C887 H901 0.961 . S
C887 H902 0.961 . S
C887 H903 0.961 . S
C888 C889 1.370 . S
C888 C890 1.363 . S
C888 H904 0.931 . S
C889 C888 1.370 . S
C889 C893 1.408 . S
C890 C888 1.363 . S
C890 C891 1.370 . S
C890 C894 1.524 . S
C891 C883 1.503 . S
C891 C890 1.370 . S
C891 C892 1.403 . S
C892 C891 1.403 . S
C892 C893 1.404 . S
C892 C895 1.539 . S
C893 C889 1.408 . S
C893 C892 1.404 . S
C893 H905 0.930 . S
C894 C890 1.524 . S
C894 H906 0.956 . S
C894 H907 0.961 . S
C894 H908 0.961 . S
C895 C892 1.539 . S
C895 H909 0.958 . S
C895 H910 0.961 1_655 S
C895 H911 0.960 . S
H896 C880 0.931 . S
H897 C885 0.929 . S
H898 C886 0.960 . S
H899 C886 0.962 . S
H900 C886 0.960 . S
H901 C887 0.961 . S
H902 C887 0.961 . S
H903 C887 0.961 . S
H904 C888 0.931 . S
H905 C893 0.930 . S
H906 C894 0.956 . S
H907 C894 0.961 . S
H908 C894 0.961 . S
H909 C895 0.958 . S
H910 C895 0.961 1_455 S
H911 C895 0.960 . S
C912 C913 1.391 . S
C912 C914 1.394 . S
C912 H928 0.931 . S
C913 C912 1.391 . S
C913 C917 1.376 . S
C914 C912 1.394 . S
C914 C915 1.369 . S
C914 C918 1.531 . S
C915 C914 1.369 . S
C915 C916 1.410 . S
C915 C923 1.503 . S
C916 C915 1.410 . S
C916 C917 1.392 . S
C916 C919 1.511 . S
C917 C913 1.376 . S
C917 C916 1.392 . S
C917 H929 0.929 . S
C918 C914 1.531 . S
C918 H930 0.960 . S
C918 H931 0.962 . S
C918 H932 0.960 . S
C919 C916 1.511 . S
C919 H933 0.961 . S
C919 H934 0.961 . S
C919 H935 0.961 . S
C920 C921 1.370 . S
C920 C922 1.363 . S
C920 H936 0.931 . S
C921 C920 1.370 . S
C921 C925 1.408 . S
C922 C920 1.363 . S
C922 C923 1.370 . S
C922 C926 1.524 . S
C923 C915 1.503 . S
C923 C922 1.370 . S
C923 C924 1.403 . S
C924 C923 1.403 . S
C924 C925 1.404 . S
C924 C927 1.539 . S
C925 C921 1.408 . S
C925 C924 1.404 . S
C925 H937 0.930 . S
C926 C922 1.524 . S
C926 H938 0.956 . S
C926 H939 0.961 . S
C926 H940 0.961 . S
C927 C924 1.539 . S
C927 H941 0.958 . S
C927 H942 0.961 . S
C927 H943 0.960 . S
H928 C912 0.931 . S
H929 C917 0.929 . S
H930 C918 0.960 . S
H931 C918 0.962 . S
H932 C918 0.960 . S
H933 C919 0.961 . S
H934 C919 0.961 . S
H935 C919 0.961 . S
H936 C920 0.931 . S
H937 C925 0.930 . S
H938 C926 0.956 . S
H939 C926 0.961 . S
H940 C926 0.961 . S
H941 C927 0.958 . S
H942 C927 0.961 . S
H943 C927 0.960 . S
C944 C945 1.391 . S
C944 C946 1.394 . S
C944 H960 0.931 . S
C945 C944 1.391 . S
C945 C949 1.376 . S
C946 C944 1.394 . S
C946 C947 1.369 . S
C946 C950 1.531 . S
C947 C946 1.369 . S
C947 C948 1.410 . S
C947 C955 1.503 . S
C948 C947 1.410 . S
C948 C949 1.392 . S
C948 C951 1.511 . S
C949 C945 1.376 . S
C949 C948 1.392 . S
C949 H961 0.929 . S
C950 C946 1.531 . S
C950 H962 0.960 . S
C950 H963 0.962 . S
C950 H964 0.960 . S
C951 C948 1.511 . S
C951 H965 0.961 . S
C951 H966 0.961 . S
C951 H967 0.961 . S
C952 C953 1.370 . S
C952 C954 1.363 . S
C952 H968 0.931 . S
C953 C952 1.370 . S
C953 C957 1.408 . S
C954 C952 1.363 . S
C954 C955 1.370 . S
C954 C958 1.524 . S
C955 C947 1.503 . S
C955 C954 1.370 . S
C955 C956 1.403 . S
C956 C955 1.403 . S
C956 C957 1.404 . S
C956 C959 1.539 . S
C957 C953 1.408 . S
C957 C956 1.404 . S
C957 H969 0.930 . S
C958 C954 1.524 . S
C958 H970 0.956 . S
C958 H971 0.961 . S
C958 H972 0.961 . S
C959 C956 1.539 . S
C959 H973 0.958 . S
C959 H974 0.961 . S
C959 H975 0.960 . S
H960 C944 0.931 . S
H961 C949 0.929 . S
H962 C950 0.960 . S
H963 C950 0.962 . S
H964 C950 0.960 . S
H965 C951 0.961 . S
H966 C951 0.961 . S
H967 C951 0.961 . S
H968 C952 0.931 . S
H969 C957 0.930 . S
H970 C958 0.956 . S
H971 C958 0.961 . S
H972 C958 0.961 . S
H973 C959 0.958 . S
H974 C959 0.961 . S
H975 C959 0.960 . S
C976 C977 1.391 . S
C976 C978 1.394 . S
C976 H992 0.931 . S
C977 C976 1.391 . S
C977 C981 1.376 . S
C978 C976 1.394 . S
C978 C979 1.369 . S
C978 C982 1.531 . S
C979 C978 1.369 . S
C979 C980 1.410 . S
C979 C987 1.503 . S
C980 C979 1.410 . S
C980 C981 1.392 . S
C980 C983 1.511 . S
C981 C977 1.376 . S
C981 C980 1.392 . S
C981 H993 0.929 . S
C982 C978 1.531 . S
C982 H994 0.960 . S
C982 H995 0.962 . S
C982 H996 0.960 . S
C983 C980 1.511 . S
C983 H997 0.961 . S
C983 H998 0.961 . S
C983 H999 0.961 . S
C984 C985 1.370 . S
C984 C986 1.363 . S
C984 H1000 0.931 . S
C985 C984 1.370 . S
C985 C989 1.408 . S
C986 C984 1.363 . S
C986 C987 1.370 . S
C986 C990 1.524 . S
C987 C979 1.503 . S
C987 C986 1.370 . S
C987 C988 1.403 . S
C988 C987 1.403 . S
C988 C989 1.404 . S
C988 C991 1.539 . S
C989 C985 1.408 . S
C989 C988 1.404 . S
C989 H1001 0.930 . S
C990 C986 1.524 . S
C990 H1002 0.956 . S
C990 H1003 0.961 . S
C990 H1004 0.961 . S
C991 C988 1.539 . S
C991 H1005 0.958 . S
C991 H1006 0.961 . S
C991 H1007 0.960 . S
H992 C976 0.931 . S
H993 C981 0.929 . S
H994 C982 0.960 . S
H995 C982 0.962 . S
H996 C982 0.960 . S
H997 C983 0.961 . S
H998 C983 0.961 . S
H999 C983 0.961 . S
H1000 C984 0.931 . S
H1001 C989 0.930 . S
H1002 C990 0.956 . S
H1003 C990 0.961 . S
H1004 C990 0.961 . S
H1005 C991 0.958 . S
H1006 C991 0.961 . S
H1007 C991 0.960 . S
C1008 C1009 1.391 . S
C1008 C1010 1.394 . S
C1008 H1024 0.931 . S
C1009 C1008 1.391 . S
C1009 C1013 1.376 . S
C1010 C1008 1.394 . S
C1010 C1011 1.369 . S
C1010 C1014 1.531 . S
C1011 C1010 1.369 . S
C1011 C1012 1.410 . S
C1011 C1019 1.503 . S
C1012 C1011 1.410 . S
C1012 C1013 1.392 . S
C1012 C1015 1.511 . S
C1013 C1009 1.376 . S
C1013 C1012 1.392 . S
C1013 H1025 0.929 . S
C1014 C1010 1.531 . S
C1014 H1026 0.960 . S
C1014 H1027 0.962 . S
C1014 H1028 0.960 . S
C1015 C1012 1.511 . S
C1015 H1029 0.961 . S
C1015 H1030 0.961 . S
C1015 H1031 0.961 . S
C1016 C1017 1.370 . S
C1016 C1018 1.363 . S
C1016 H1032 0.931 . S
C1017 C1016 1.370 . S
C1017 C1021 1.408 . S
C1018 C1016 1.363 . S
C1018 C1019 1.370 . S
C1018 C1022 1.524 . S
C1019 C1011 1.503 . S
C1019 C1018 1.370 . S
C1019 C1020 1.403 . S
C1020 C1019 1.403 . S
C1020 C1021 1.404 . S
C1020 C1023 1.539 . S
C1021 C1017 1.408 . S
C1021 C1020 1.404 . S
C1021 H1033 0.930 . S
C1022 C1018 1.524 . S
C1022 H1034 0.956 . S
C1022 H1035 0.961 . S
C1022 H1036 0.961 . S
C1023 C1020 1.539 . S
C1023 H1037 0.958 . S
C1023 H1038 0.961 . S
C1023 H1039 0.960 . S
H1024 C1008 0.931 . S
H1025 C1013 0.929 . S
H1026 C1014 0.960 . S
H1027 C1014 0.962 . S
H1028 C1014 0.960 . S
H1029 C1015 0.961 . S
H1030 C1015 0.961 . S
H1031 C1015 0.961 . S
H1032 C1016 0.931 . S
H1033 C1021 0.930 . S
H1034 C1022 0.956 . S
H1035 C1022 0.961 . S
H1036 C1022 0.961 . S
H1037 C1023 0.958 . S
H1038 C1023 0.961 . S
H1039 C1023 0.960 . S
C1040 C1041 1.391 . S
C1040 C1042 1.394 . S
C1040 H1056 0.931 . S
C1041 C1040 1.391 . S
C1041 C1045 1.376 . S
C1042 C1040 1.394 . S
C1042 C1043 1.369 . S
C1042 C1046 1.531 . S
C1043 C1042 1.369 . S
C1043 C1044 1.410 . S
C1043 C1051 1.503 . S
C1044 C1043 1.410 . S
C1044 C1045 1.392 . S
C1044 C1047 1.511 . S
C1045 C1041 1.376 . S
C1045 C1044 1.392 . S
C1045 H1057 0.929 . S
C1046 C1042 1.531 . S
C1046 H1058 0.960 . S
C1046 H1059 0.962 . S
C1046 H1060 0.960 . S
C1047 C1044 1.511 . S
C1047 H1061 0.961 . S
C1047 H1062 0.961 . S
C1047 H1063 0.961 . S
C1048 C1049 1.370 . S
C1048 C1050 1.363 . S
C1048 H1064 0.931 . S
C1049 C1048 1.370 . S
C1049 C1053 1.408 . S
C1050 C1048 1.363 . S
C1050 C1051 1.370 . S
C1050 C1054 1.524 . S
C1051 C1043 1.503 . S
C1051 C1050 1.370 . S
C1051 C1052 1.403 . S
C1052 C1051 1.403 . S
C1052 C1053 1.404 . S
C1052 C1055 1.539 . S
C1053 C1049 1.408 . S
C1053 C1052 1.404 . S
C1053 H1065 0.930 . S
C1054 C1050 1.524 . S
C1054 H1066 0.956 . S
C1054 H1067 0.961 . S
C1054 H1068 0.961 . S
C1055 C1052 1.539 . S
C1055 H1069 0.958 . S
C1055 H1070 0.961 . S
C1055 H1071 0.960 . S
H1056 C1040 0.931 . S
H1057 C1045 0.929 . S
H1058 C1046 0.960 . S
H1059 C1046 0.962 . S
H1060 C1046 0.960 . S
H1061 C1047 0.961 . S
H1062 C1047 0.961 . S
H1063 C1047 0.961 . S
H1064 C1048 0.931 . S
H1065 C1053 0.930 . S
H1066 C1054 0.956 . S
H1067 C1054 0.961 . S
H1068 C1054 0.961 . S
H1069 C1055 0.958 . S
H1070 C1055 0.961 . S
H1071 C1055 0.960 . S
C1072 C1073 1.391 . S
C1072 C1074 1.394 . S
C1072 H1088 0.931 . S
C1073 C1072 1.391 . S
C1073 C1077 1.376 . S
C1074 C1072 1.394 . S
C1074 C1075 1.369 . S
C1074 C1078 1.531 . S
C1075 C1074 1.369 . S
C1075 C1076 1.410 . S
C1075 C1083 1.503 . S
C1076 C1075 1.410 . S
C1076 C1077 1.392 . S
C1076 C1079 1.511 . S
C1077 C1073 1.376 . S
C1077 C1076 1.392 . S
C1077 H1089 0.929 . S
C1078 C1074 1.531 . S
C1078 H1090 0.960 . S
C1078 H1091 0.962 . S
C1078 H1092 0.960 . S
C1079 C1076 1.511 . S
C1079 H1093 0.961 . S
C1079 H1094 0.961 . S
C1079 H1095 0.961 . S
C1080 C1081 1.370 . S
C1080 C1082 1.363 . S
C1080 H1096 0.931 . S
C1081 C1080 1.370 . S
C1081 C1085 1.408 . S
C1082 C1080 1.363 . S
C1082 C1083 1.370 . S
C1082 C1086 1.524 . S
C1083 C1075 1.503 . S
C1083 C1082 1.370 . S
C1083 C1084 1.403 . S
C1084 C1083 1.403 . S
C1084 C1085 1.404 . S
C1084 C1087 1.539 . S
C1085 C1081 1.408 . S
C1085 C1084 1.404 . S
C1085 H1097 0.930 . S
C1086 C1082 1.524 . S
C1086 H1098 0.956 . S
C1086 H1099 0.961 . S
C1086 H1100 0.961 . S
C1087 C1084 1.539 . S
C1087 H1101 0.958 . S
C1087 H1102 0.961 . S
C1087 H1103 0.960 . S
H1088 C1072 0.931 . S
H1089 C1077 0.929 . S
H1090 C1078 0.960 . S
H1091 C1078 0.962 . S
H1092 C1078 0.960 . S
H1093 C1079 0.961 . S
H1094 C1079 0.961 . S
H1095 C1079 0.961 . S
H1096 C1080 0.931 . S
H1097 C1085 0.930 . S
H1098 C1086 0.956 . S
H1099 C1086 0.961 . S
H1100 C1086 0.961 . S
H1101 C1087 0.958 . S
H1102 C1087 0.961 . S
H1103 C1087 0.960 . S
C1104 C1105 1.391 . S
C1104 C1106 1.394 . S
C1104 H1120 0.931 . S
C1105 C1104 1.391 . S
C1105 C1109 1.376 . S
C1106 C1104 1.394 . S
C1106 C1107 1.369 . S
C1106 C1110 1.531 . S
C1107 C1106 1.369 . S
C1107 C1108 1.410 . S
C1107 C1115 1.503 . S
C1108 C1107 1.410 . S
C1108 C1109 1.392 . S
C1108 C1111 1.511 . S
C1109 C1105 1.376 . S
C1109 C1108 1.392 . S
C1109 H1121 0.929 . S
C1110 C1106 1.531 . S
C1110 H1122 0.960 . S
C1110 H1123 0.962 . S
C1110 H1124 0.960 . S
C1111 C1108 1.511 . S
C1111 H1125 0.961 . S
C1111 H1126 0.961 . S
C1111 H1127 0.961 . S
C1112 C1113 1.370 . S
C1112 C1114 1.363 . S
C1112 H1128 0.931 . S
C1113 C1112 1.370 . S
C1113 C1117 1.408 . S
C1114 C1112 1.363 . S
C1114 C1115 1.370 . S
C1114 C1118 1.524 . S
C1115 C1107 1.503 . S
C1115 C1114 1.370 . S
C1115 C1116 1.403 . S
C1116 C1115 1.403 . S
C1116 C1117 1.404 . S
C1116 C1119 1.539 . S
C1117 C1113 1.408 . S
C1117 C1116 1.404 . S
C1117 H1129 0.930 . S
C1118 C1114 1.524 . S
C1118 H1130 0.956 . S
C1118 H1131 0.961 . S
C1118 H1132 0.961 . S
C1119 C1116 1.539 . S
C1119 H1133 0.958 . S
C1119 H1134 0.961 . S
C1119 H1135 0.960 . S
H1120 C1104 0.931 . S
H1121 C1109 0.929 . S
H1122 C1110 0.960 . S
H1123 C1110 0.962 . S
H1124 C1110 0.960 . S
H1125 C1111 0.961 . S
H1126 C1111 0.961 . S
H1127 C1111 0.961 . S
H1128 C1112 0.931 . S
H1129 C1117 0.930 . S
H1130 C1118 0.956 . S
H1131 C1118 0.961 . S
H1132 C1118 0.961 . S
H1133 C1119 0.958 . S
H1134 C1119 0.961 . S
H1135 C1119 0.960 . S
C1136 C1137 1.391 1_554 S
C1136 C1138 1.391 1_554 S
C1136 H1152 0.931 . S
C1137 C1136 1.391 1_556 S
C1137 C1141 1.376 . S
C1138 C1136 1.391 1_556 S
C1138 C1139 1.374 . S
C1138 C1142 1.528 1_556 S
C1139 C1138 1.374 . S
C1139 C1140 1.410 . S
C1139 C1147 1.503 . S
C1140 C1139 1.410 . S
C1140 C1141 1.392 . S
C1140 C1143 1.511 . S
C1141 C1137 1.376 . S
C1141 C1140 1.392 . S
C1141 H1153 0.929 . S
C1142 C1138 1.528 1_554 S
C1142 H1154 0.960 . S
C1142 H1155 0.962 . S
C1142 H1156 0.960 . S
C1143 C1140 1.511 . S
C1143 H1157 0.961 . S
C1143 H1158 0.961 . S
C1143 H1159 0.961 . S
C1144 C1145 1.370 . S
C1144 C1146 1.363 . S
C1144 H1160 0.931 . S
C1145 C1144 1.370 . S
C1145 C1149 1.408 . S
C1146 C1144 1.363 . S
C1146 C1147 1.370 . S
C1146 C1150 1.524 . S
C1147 C1139 1.503 . S
C1147 C1146 1.370 . S
C1147 C1148 1.403 . S
C1148 C1147 1.403 . S
C1148 C1149 1.404 . S
C1148 C1151 1.539 . S
C1149 C1145 1.408 . S
C1149 C1148 1.404 . S
C1149 H1161 0.930 . S
C1150 C1146 1.524 . S
C1150 H1162 0.956 . S
C1150 H1163 0.961 . S
C1150 H1164 0.961 . S
C1151 C1148 1.539 . S
C1151 H1165 0.958 1_556 S
C1151 H1166 0.961 . S
C1151 H1167 0.960 . S
H1152 C1136 0.931 . S
H1153 C1141 0.929 . S
H1154 C1142 0.960 . S
H1155 C1142 0.962 . S
H1156 C1142 0.960 . S
H1157 C1143 0.961 . S
H1158 C1143 0.961 . S
H1159 C1143 0.961 . S
H1160 C1144 0.931 . S
H1161 C1149 0.930 . S
H1162 C1150 0.956 . S
H1163 C1150 0.961 . S
H1164 C1150 0.961 . S
H1165 C1151 0.958 1_554 S
H1166 C1151 0.961 . S
H1167 C1151 0.960 . S
C401 C8 1.601 . S
C409 C104 1.537 1_565 S
C433 C31 1.518 . S
C441 C143 1.419 . S
C465 C53 1.812 . S
C473 C182 1.694 . S
C505 C206 1.425 . S
C497 C74 1.432 . S
C537 C245 1.521 . S
C529 C26 1.578 . S
C561 C48 1.446 . S
C569 C284 1.427 . S
C593 C71 1.779 . S
C601 C338 1.695 . S
C625 C5 1.518 . S
C633 C362 1.430 . S
C657 C50 1.593 . S
C665 C377 1.527 1_545 S
C697 C260 1.405 . S
C689 C70 1.511 . S
C729 C299 1.706 . S
C721 C4 1.776 . S
C753 C28 1.447 . S
C761 C323 1.430 . S
C793 C128 1.512 . S
C785 C73 1.578 . S
C817 C7 1.472 . S
C825 C167 1.445 . S
C857 C221 1.677 . S
C849 C30 1.767 . S
C889 C89 1.408 . S
C881 C52 1.509 . S
C921 C343 1.514 . S
C913 C9 1.546 . S
C953 C382 1.364 . S
C945 C29 1.405 . S
C977 C51 1.402 . S
C985 C265 1.363 . S
C1017 C304 1.504 . S
C1009 C75 1.564 . S
C1049 C187 1.499 . S
C1041 C27 1.565 . S
C1073 C49 1.557 . S
C1081 C226 1.483 . S
C1113 C109 1.362 . S
C1105 C72 1.373 . S
C1145 C148 1.367 . S
C1137 C6 1.356 1_556 S
