# Generated by pormake.
# Topology zzz, (3,6)-cn, num edge types: 1
# Building blocks:
#     Node 0, Type 0, BuildingBlock: ESEHIV_clean_linker_0, # of connection points: 3
#     Node 1, Type 0, BuildingBlock: ESEHIV_clean_linker_0, # of connection points: 3
#     Node 2, Type 0, BuildingBlock: ESEHIV_clean_linker_0, # of connection points: 3
#     Node 3, Type 0, BuildingBlock: ESEHIV_clean_linker_0, # of connection points: 3
#     Node 4, Type 0, BuildingBlock: ESEHIV_clean_linker_0, # of connection points: 3
#     Node 5, Type 0, BuildingBlock: ESEHIV_clean_linker_0, # of connection points: 3
#     Node 6, Type 0, BuildingBlock: ESEHIV_clean_linker_0, # of connection points: 3
#     Node 7, Type 0, BuildingBlock: ESEHIV_clean_linker_0, # of connection points: 3
#     Node 8, Type 1, BuildingBlock: CUWYAW_clean_sbu_0, # of connection points: 6
#     Node 9, Type 1, BuildingBlock: CUWYAW_clean_sbu_0, # of connection points: 6
#     Node 10, Type 1, BuildingBlock: CUWYAW_clean_sbu_0, # of connection points: 6
#     Node 11, Type 1, BuildingBlock: CUWYAW_clean_sbu_0, # of connection points: 6
#     Edge 12, Type (0, 1), BuildingBlock: XUDNAN_clean_linker_2, # of connection points: 2
#     Edge 13, Type (0, 1), BuildingBlock: XUDNAN_clean_linker_2, # of connection points: 2
#     Edge 14, Type (0, 1), BuildingBlock: XUDNAN_clean_linker_2, # of connection points: 2
#     Edge 15, Type (0, 1), BuildingBlock: XUDNAN_clean_linker_2, # of connection points: 2
#     Edge 16, Type (0, 1), BuildingBlock: XUDNAN_clean_linker_2, # of connection points: 2
#     Edge 17, Type (0, 1), BuildingBlock: XUDNAN_clean_linker_2, # of connection points: 2
#     Edge 18, Type (0, 1), BuildingBlock: XUDNAN_clean_linker_2, # of connection points: 2
#     Edge 19, Type (0, 1), BuildingBlock: XUDNAN_clean_linker_2, # of connection points: 2
#     Edge 20, Type (0, 1), BuildingBlock: XUDNAN_clean_linker_2, # of connection points: 2
#     Edge 21, Type (0, 1), BuildingBlock: XUDNAN_clean_linker_2, # of connection points: 2
#     Edge 22, Type (0, 1), BuildingBlock: XUDNAN_clean_linker_2, # of connection points: 2
#     Edge 23, Type (0, 1), BuildingBlock: XUDNAN_clean_linker_2, # of connection points: 2
#     Edge 24, Type (0, 1), BuildingBlock: XUDNAN_clean_linker_2, # of connection points: 2
#     Edge 25, Type (0, 1), BuildingBlock: XUDNAN_clean_linker_2, # of connection points: 2
#     Edge 26, Type (0, 1), BuildingBlock: XUDNAN_clean_linker_2, # of connection points: 2
#     Edge 27, Type (0, 1), BuildingBlock: XUDNAN_clean_linker_2, # of connection points: 2
#     Edge 28, Type (0, 1), BuildingBlock: XUDNAN_clean_linker_2, # of connection points: 2
#     Edge 29, Type (0, 1), BuildingBlock: XUDNAN_clean_linker_2, # of connection points: 2
#     Edge 30, Type (0, 1), BuildingBlock: XUDNAN_clean_linker_2, # of connection points: 2
#     Edge 31, Type (0, 1), BuildingBlock: XUDNAN_clean_linker_2, # of connection points: 2
#     Edge 32, Type (0, 1), BuildingBlock: XUDNAN_clean_linker_2, # of connection points: 2
#     Edge 33, Type (0, 1), BuildingBlock: XUDNAN_clean_linker_2, # of connection points: 2
#     Edge 34, Type (0, 1), BuildingBlock: XUDNAN_clean_linker_2, # of connection points: 2
#     Edge 35, Type (0, 1), BuildingBlock: XUDNAN_clean_linker_2, # of connection points: 2
# Relax obj value: 0.489
# Max RMSD: 0.243
# Mean RMSD: 0.232
data_MOF--net-zzz--node1-CUWYAW_clean_sbu_0--node2-ESEHIV_clean_linker_0--edge1-XUDNAN_clean_linker_2
_symmetry_space_group_name_H-M    P1
_symmetry_Int_Tables_number       1
_symmetry_cell_setting            triclinic
loop_
_symmetry_equiv_pos_as_xyz
'x, y, z'
_cell_length_a     44.841148
_cell_length_b     44.750483
_cell_length_c     14.884119
_cell_angle_alpha  89.963197
_cell_angle_beta   90.400205
_cell_angle_gamma 89.982096
loop_
_atom_site_label
_atom_site_type_symbol
_atom_site_fract_x
_atom_site_fract_y
_atom_site_fract_z
_atom_type_partial_charge
H0 H 0.78265 0.54714 0.36767 0.0
H1 H 0.70576 0.52758 0.20959 0.0
H2 H 0.70266 0.51624 0.4972 0.0
C3 C 0.75987 0.53919 0.36378 0.0
C4 C 0.74621 0.52964 0.44302 0.0
C5 C 0.74726 0.53289 0.27954 0.0
C6 C 0.7165 0.52899 0.27462 0.0
C7 C 0.69923 0.52435 0.3515 0.0
C8 C 0.7146 0.52298 0.43761 0.0
H9 H 0.03293 0.78119 0.40329 0.0
H10 H 0.0292 0.69901 0.26129 0.0
H11 H 0.98154 0.70812 0.51298 0.0
C12 C 0.02532 0.75813 0.40185 0.0
C13 C 1.0079 0.74733 0.47194 0.0
C14 C 0.03271 0.74064 0.32811 0.0
C15 C 0.02378 0.71125 0.3221 0.0
C16 C 1.00453 0.69886 0.38523 0.0
C17 C 0.99627 0.71711 0.46246 0.0
H18 H 0.75084 0.96892 0.361 0.0
H19 H 0.81636 0.02132 0.23435 0.0
H20 H 0.82724 0.99927 0.51202 0.0
C21 C 0.77168 0.98099 0.36704 0.0
C22 C 0.78258 0.99023 0.45109 0.0
C23 C 0.7804 0.99793 0.29432 0.0
C24 C 0.80908 1.00877 0.2928 0.0
C25 C 0.82888 1.00222 0.36273 0.0
C26 C 0.81459 0.99739 0.45013 0.0
H27 H 0.54609 0.75062 0.40856 0.0
H28 H 0.48746 0.8232 0.47956 0.0
H29 H 0.5448 0.82895 0.24859 0.0
C30 C 0.53956 0.77392 0.4022 0.0
C31 C 0.54476 0.78786 0.31997 0.0
C32 C 0.51779 0.7852 0.46024 0.0
C33 C 0.50578 0.81449 0.44049 0.0
C34 C 0.51745 0.83166 0.36643 0.0
C35 C 0.53852 0.81805 0.31091 0.0
H36 H 0.25518 0.55825 0.07298 0.0
H37 H 0.33103 0.54838 0.23917 0.0
H38 H 0.32331 0.4943 0.99943 0.0
C39 C 0.27742 0.54892 0.07958 0.0
C40 C 0.28664 0.52627 0.02116 0.0
C41 C 0.29234 0.55454 0.16002 0.0
C42 C 0.32062 0.54357 0.17467 0.0
C43 C 0.3335 0.52282 0.11636 0.0
C44 C 0.31538 0.51244 0.04095 0.0
H45 H 0.03754 0.24891 0.10485 0.0
H46 H 0.03331 0.32714 0.26726 0.0
H47 H 1.01532 0.33324 0.98068 0.0
C48 C 0.0347 0.273 0.10888 0.0
C49 C 0.02743 0.28857 0.03086 0.0
C50 C 0.03719 0.2869 0.19233 0.0
C51 C 0.03253 0.31735 0.2005 0.0
C52 C 0.02421 0.33482 0.12648 0.0
C53 C 0.02158 0.32032 0.03933 0.0
H54 H 0.28681 0.04236 0.10537 0.0
H55 H 0.20857 0.04289 0.26649 0.0
H56 H 0.20283 0.0171 0.98596 0.0
C57 C 0.26273 0.04054 0.10937 0.0
C58 C 0.24722 0.03074 0.03349 0.0
C59 C 0.24913 0.04447 0.19263 0.0
C60 C 0.21864 0.04006 0.20089 0.0
C61 C 0.2012 0.03057 0.12785 0.0
C62 C 0.21566 0.02525 0.04271 0.0
H63 H 0.53861 0.2838 0.08621 0.0
H64 H 0.49126 0.20505 0.99312 0.0
H65 H 0.52543 0.21189 0.26576 0.0
C66 C 0.5296 0.26155 0.09701 0.0
C67 C 0.53472 0.24783 0.17895 0.0
C68 C 0.5116 0.2482 0.03145 0.0
C69 C 0.50295 0.21715 0.04553 0.0
C70 C 0.51017 0.20244 0.13027 0.0
C71 C 0.52256 0.22037 0.19788 0.0
C72 C 0.94455 0.04373 0.60997 0.0
Eu73 Eu 0.98873 0.0239 0.70874 0.0
C74 C 0.94364 0.07215 0.56148 0.0
C75 C 0.91965 0.08061 0.50578 0.0
C76 C 0.92241 0.10569 0.44955 0.0
C77 C 0.9486 0.12281 0.45325 0.0
C78 C 0.97087 0.11595 0.51613 0.0
C79 C 0.96902 0.09018 0.5661 0.0
C80 C 0.98126 1.00736 0.88389 0.0
C81 C 0.02511 0.0849 0.7809 0.0
C82 C 0.08361 1.00219 0.9092 0.0
Eu83 Eu 0.04487 1.01645 0.78618 0.0
C84 C 0.0832 0.97348 0.95484 0.0
C85 C 0.10938 0.95965 0.98566 0.0
C86 C 0.10889 0.92929 1.00873 0.0
C87 C 0.08254 0.91255 0.99692 0.0
C88 C 0.05681 0.92682 0.96406 0.0
C89 C 0.05678 0.95709 0.94805 0.0
C90 C 0.05962 0.02416 0.60968 0.0
C91 C 1.01186 0.95522 0.70872 0.0
O92 O 0.96474 0.0252 0.58072 0.0
O93 O 0.94545 0.04613 0.69718 0.0
O94 O 0.96734 0.99562 0.81579 0.0
O95 O 1.00066 0.02586 0.85478 0.0
O96 O 0.9995 0.07325 0.75228 0.0
O97 O 0.04789 0.06686 0.79428 0.0
O98 O 0.06067 0.01936 0.92512 0.0
O99 O 0.08884 0.9997 0.82359 0.0
O100 O 0.0783 0.02136 0.67536 0.0
O101 O 0.03272 0.02428 0.63831 0.0
O102 O 0.0331 0.96699 0.75973 0.0
O103 O 0.99136 0.97335 0.6746 0.0
H104 H 0.89964 0.06723 0.50276 0.0
H105 H 0.90504 0.11083 0.40107 0.0
H106 H 0.99131 0.12889 0.5196 0.0
H107 H 0.98852 0.08335 0.60303 0.0
H108 H 0.1301 0.97203 0.9898 0.0
H109 H 0.129 0.91903 0.03502 0.0
H110 H 0.0364 0.9147 0.95009 0.0
H111 H 0.03626 0.96739 0.92508 0.0
C112 C 0.49334 0.9497 0.55426 0.0
Eu113 Eu 0.50965 0.98429 0.68594 0.0
C114 C 0.46295 0.9453 0.52028 0.0
C115 C 0.45531 0.92148 0.46341 0.0
C116 C 0.42691 0.92059 0.42335 0.0
C117 C 0.40573 0.94248 0.44518 0.0
C118 C 0.41246 0.96389 0.51068 0.0
C119 C 0.44117 0.96618 0.54398 0.0
C120 C 0.51489 0.96839 0.86356 0.0
C121 C 0.44904 1.01561 0.77939 0.0
C122 C 0.52955 0.08054 0.92355 0.0
Eu123 Eu 0.51598 0.04336 0.79735 0.0
C124 C 0.55908 0.08371 0.96433 0.0
C125 C 0.57315 0.11172 0.96478 0.0
C126 C 0.60376 0.11373 0.98133 0.0
C127 C 0.62045 0.08771 0.99699 0.0
C128 C 0.60608 0.05989 0.99954 0.0
C129 C 0.57575 0.05789 0.98294 0.0
C130 C 0.508 0.05853 0.61814 0.0
C131 C 0.57743 1.0096 0.71879 0.0
O132 O 0.50406 0.9766 0.54225 0.0
O133 O 0.49798 0.93996 0.63577 0.0
O134 O 0.51407 0.94979 0.79685 0.0
O135 O 0.51541 0.9949 0.83141 0.0
O136 O 0.46135 0.99427 0.72965 0.0
O137 O 0.46544 0.03765 0.81324 0.0
O138 O 0.51544 0.05543 0.93935 0.0
O139 O 0.52893 0.08803 0.83884 0.0
O140 O 0.51126 0.0774 0.68315 0.0
O141 O 0.50875 0.03251 0.65303 0.0
O142 O 0.56556 0.02929 0.77589 0.0
O143 O 0.56018 0.9909 0.67217 0.0
H144 H 0.47165 0.90479 0.44599 0.0
H145 H 0.42221 0.90428 0.37144 0.0
H146 H 0.39679 0.98164 0.52595 0.0
H147 H 0.44675 0.98574 0.58235 0.0
H148 H 0.56074 0.13178 0.94819 0.0
H149 H 0.61447 0.13542 0.98037 0.0
H150 H 0.61828 0.03956 0.01456 0.0
H151 H 0.56571 0.03591 0.98069 0.0
C152 C 0.57347 0.50476 0.55406 0.0
Eu153 Eu 0.5391 0.51472 0.68954 0.0
C154 C 0.57909 0.47631 0.50878 0.0
C155 C 0.60791 0.46422 0.51204 0.0
C156 C 0.61233 0.43396 0.49506 0.0
C157 C 0.58803 0.41553 0.47303 0.0
C158 C 0.55958 0.42828 0.46224 0.0
C159 C 0.55508 0.45837 0.48069 0.0
C160 C 0.55522 0.52198 0.8685 0.0
C161 C 0.50856 0.45237 0.77537 0.0
C162 C 0.44821 0.53446 0.94278 0.0
Eu163 Eu 0.48039 0.51919 0.80702 0.0
C164 C 0.44731 0.56465 0.983 0.0
C165 C 0.4308 0.58763 0.9409 0.0
C166 C 0.43771 0.61756 0.95746 0.0
C167 C 0.46091 0.62472 0.01684 0.0
C168 C 0.47507 0.6021 0.06634 0.0
C169 C 0.46821 0.57226 0.04995 0.0
C170 C 0.46494 0.50877 0.6297 0.0
C171 C 0.5079 0.58084 0.71053 0.0
O172 O 0.54665 0.51604 0.54507 0.0
O173 O 0.5832 0.50558 0.637 0.0
O174 O 0.57382 0.51927 0.80273 0.0
O175 O 0.52912 0.52132 0.83375 0.0
O176 O 0.52751 0.46481 0.71689 0.0
O177 O 0.48928 0.46894 0.82156 0.0
O178 O 0.47358 0.52014 0.95181 0.0
O179 O 0.43732 0.53227 0.86123 0.0
O180 O 0.44597 0.50959 0.69531 0.0
O181 O 0.49078 0.51169 0.66426 0.0
O182 O 0.48798 0.56835 0.76496 0.0
O183 O 0.52975 0.56496 0.67406 0.0
H184 H 0.62665 0.47768 0.5342 0.0
H185 H 0.63453 0.42478 0.5034 0.0
H186 H 0.54059 0.41489 0.44186 0.0
H187 H 0.53253 0.46705 0.47779 0.0
H188 H 0.41434 0.58256 0.88955 0.0
H189 H 0.42647 0.63493 0.91939 0.0
H190 H 0.4928 0.60748 0.11349 0.0
H191 H 0.48114 0.55519 0.08418 0.0
C192 C 0.02815 0.58465 0.58762 0.0
Eu193 Eu 0.01619 0.54626 0.71176 0.0
C194 C 0.05469 0.58319 0.53265 0.0
C195 C 0.07017 0.60938 0.51139 0.0
C196 C 0.10027 0.60781 0.48868 0.0
C197 C 0.115 0.58008 0.48877 0.0
C198 C 0.09885 0.55387 0.50588 0.0
C199 C 0.06888 0.55538 0.52616 0.0
C200 C 1.00382 0.56172 0.88584 0.0
C201 C 0.07763 0.51193 0.78853 0.0
C202 C 0.99411 0.44853 0.91818 0.0
Eu203 Eu 1.00918 0.48796 0.79987 0.0
C204 C 0.96342 0.44446 0.94731 0.0
C205 C 0.95156 0.41578 0.96029 0.0
C206 C 0.92069 0.41207 0.96866 0.0
C207 C 0.90173 0.43683 0.95946 0.0
C208 C 0.91375 0.46532 0.94582 0.0
C209 C 0.94429 0.4692 0.94227 0.0
C210 C 0.01666 0.4736 0.6214 0.0
C211 C 0.9481 0.52095 0.72218 0.0
O212 O 1.00887 0.56302 0.57558 0.0
O213 O 0.03459 0.58907 0.67222 0.0
O214 O 1.00732 0.58005 0.81994 0.0
O215 O 1.00561 0.53473 0.85643 0.0
O216 O 0.0663 0.53484 0.74213 0.0
O217 O 0.05957 0.49105 0.81964 0.0
O218 O 1.00659 0.47395 0.9403 0.0
O219 O 0.99776 0.4421 0.83372 0.0
O220 O 1.0146 0.45471 0.6865 0.0
O221 O 0.01649 0.5001 0.65426 0.0
O222 O 0.9598 0.49792 0.76592 0.0
O223 O 0.96545 0.5428 0.69331 0.0
H224 H 0.05959 0.63102 0.51815 0.0
H225 H 0.11216 0.62825 0.47365 0.0
H226 H 0.10962 0.5322 0.50777 0.0
H227 H 0.05753 0.53492 0.54475 0.0
H228 H 0.96606 0.39642 0.96295 0.0
H229 H 0.91168 0.39017 0.98348 0.0
H230 H 0.89947 0.48489 0.94301 0.0
H231 H 0.95289 0.4916 0.9332 0.0
H232 H 0.17377 0.98415 0.21667 0.0
H233 H 0.15702 0.07194 0.10657 0.0
H234 H 0.11362 0.07757 0.20678 0.0
H235 H 0.08923 0.96683 0.26164 0.0
H236 H 0.09928 0.94588 0.36074 0.0
H237 H 0.1236 0.94601 0.26466 0.0
H238 H 0.16686 0.96382 0.36675 0.0
H239 H 0.14275 0.96471 0.46251 0.0
H240 H 0.16287 0.99789 0.43027 0.0
H241 H 0.07727 0.07736 0.34213 0.0
H242 H 0.05181 0.0702 0.48835 0.0
H243 H 0.09332 0.98334 0.51516 0.0
C244 C 0.1597 1.00366 0.20911 0.0
C245 C 0.16851 0.02713 0.15015 0.0
C246 C 0.1503 0.05307 0.14725 0.0
C247 C 0.12572 0.05664 0.20561 0.0
C248 C 0.11886 0.03389 0.26674 0.0
C249 C 0.13488 1.00745 0.2668 0.0
C250 C 0.12458 0.98735 0.3436 0.0
C251 C 0.10822 0.95989 0.30544 0.0
C252 C 0.15084 0.97793 0.40438 0.0
C253 C 0.10276 1.00778 0.39263 0.0
C254 C 0.09873 0.03406 0.34515 0.0
C255 C 0.07998 0.05656 0.37841 0.0
C256 C 0.06539 0.05229 0.46175 0.0
C257 C 0.06994 0.02602 0.51325 0.0
C258 C 0.08886 1.0035 0.47709 0.0
H259 H 0.55193 0.16991 0.22169 0.0
H260 H 0.46273 0.16016 0.11243 0.0
H261 H 0.45602 0.11476 0.20806 0.0
H262 H 0.57405 0.09797 0.30207 0.0
H263 H 0.58592 0.11255 0.40947 0.0
H264 H 0.58721 0.13594 0.31111 0.0
H265 H 0.55495 0.17545 0.39152 0.0
H266 H 0.55318 0.1522 0.49 0.0
H267 H 0.5193 0.16482 0.43636 0.0
H268 H 0.45943 0.07072 0.33685 0.0
H269 H 0.46651 0.04458 0.48357 0.0
H270 H 0.54578 0.09718 0.53337 0.0
C271 C 0.53097 0.15804 0.21545 0.0
C272 C 0.50784 0.16942 0.15825 0.0
C273 C 0.48111 0.15242 0.15381 0.0
C274 C 0.47702 0.12666 0.2096 0.0
C275 C 0.4992 0.11873 0.27315 0.0
C276 C 0.5253 0.13499 0.27725 0.0
C277 C 0.54233 0.12884 0.36417 0.0
C278 C 0.57426 0.11816 0.3455 0.0
C279 C 0.54245 0.15697 0.42402 0.0
C280 C 0.52346 0.10434 0.40576 0.0
C281 C 0.49884 0.09818 0.35216 0.0
C282 C 0.47853 0.07597 0.37874 0.0
C283 C 0.48287 0.06086 0.46226 0.0
C284 C 0.50693 0.06833 0.52054 0.0
C285 C 0.52742 0.09034 0.49039 0.0
H286 H 0.38162 0.55587 0.17333 0.0
H287 H 0.3517 0.46421 0.1522 0.0
H288 H 0.38967 0.4495 0.26623 0.0
H289 H 0.46154 0.54498 0.24394 0.0
H290 H 0.45905 0.57469 0.32521 0.0
H291 H 0.43682 0.57616 0.22399 0.0
H292 H 0.38936 0.58196 0.31888 0.0
H293 H 0.41114 0.58007 0.42062 0.0
H294 H 0.38078 0.55429 0.40283 0.0
H295 H 0.42561 0.44652 0.40527 0.0
H296 H 0.45225 0.45538 0.54937 0.0
H297 H 0.45302 0.5503 0.49495 0.0
C298 C 0.38402 0.53234 0.18903 0.0
C299 C 0.36352 0.51118 0.15111 0.0
C300 C 0.36718 0.48089 0.177 0.0
C301 C 0.38856 0.47245 0.2435 0.0
C302 C 0.40614 0.49449 0.28553 0.0
C303 C 0.40396 0.52395 0.25871 0.0
C304 C 0.42078 0.54435 0.32418 0.0
C305 C 0.44607 0.56102 0.27642 0.0
C306 C 0.39924 0.56646 0.36929 0.0
C307 C 0.43313 0.52192 0.39218 0.0
C308 C 0.42489 0.49318 0.36794 0.0
C309 C 0.43239 0.46894 0.4233 0.0
C310 C 0.44782 0.47415 0.50525 0.0
C311 C 0.45589 0.50338 0.53296 0.0
C312 C 0.44844 0.52752 0.47459 0.0
H313 H 0.0615 0.38063 0.18073 0.0
H314 H 0.96829 0.35807 0.1506 0.0
H315 H 0.9554 0.39668 0.26277 0.0
H316 H 0.06412 0.38791 0.40272 0.0
H317 H 0.08843 0.41988 0.41172 0.0
H318 H 0.08993 0.39641 0.31393 0.0
H319 H 0.0798 0.44164 0.21018 0.0
H320 H 0.07908 0.46567 0.30747 0.0
H321 H 0.0479 0.46513 0.23047 0.0
H322 H 0.95397 0.4311 0.40355 0.0
H323 H 0.96355 0.45949 0.54349 0.0
H324 H 0.05792 0.46034 0.48564 0.0
C325 C 0.03818 0.38524 0.19295 0.0
C326 C 0.01589 0.36658 0.15286 0.0
C327 C 0.98579 0.3725 0.17606 0.0
C328 C 0.97832 0.39423 0.24168 0.0
C329 C 1.00104 0.41072 0.28392 0.0
C330 C 0.03037 0.40708 0.25821 0.0
C331 C 0.05091 0.42589 0.31841 0.0
C332 C 0.07474 0.40634 0.36443 0.0
C333 C 0.06529 0.45106 0.26337 0.0
C334 C 0.02904 0.43886 0.38656 0.0
C335 C 1.00023 0.43046 0.364 0.0
C336 C 0.97641 0.43839 0.41949 0.0
C337 C 0.98204 0.45488 0.49914 0.0
C338 C 1.01132 0.46368 0.52489 0.0
C339 C 0.03509 0.45539 0.46674 0.0
H340 H 0.84592 0.97459 0.21088 0.0
H341 H 0.88515 0.02575 0.42751 0.0
H342 H 0.93135 0.03212 0.33446 0.0
H343 H 0.90106 0.94188 0.09283 0.0
H344 H 0.8874 0.95387 0.98433 0.0
H345 H 0.8619 0.9495 0.07578 0.0
H346 H 0.84411 1.00423 0.05584 0.0
H347 H 0.86949 1.00876 0.96345 0.0
H348 H 0.8711 0.034 0.0575 0.0
H349 H 0.97455 0.03262 0.1955 0.0
H350 H 1.00183 0.03054 0.04967 0.0
H351 H 0.92488 0.98893 0.92553 0.0
C352 C 0.86421 0.98695 0.24086 0.0
C353 C 0.86112 0.99978 0.3282 0.0
C354 C 0.88631 1.0156 0.36192 0.0
C355 C 0.91258 0.01962 0.30811 0.0
C356 C 0.91296 1.00897 0.21845 0.0
C357 C 0.88844 0.99381 0.18573 0.0
C358 C 0.88995 0.98948 0.08488 0.0
C359 C 0.88481 0.95672 0.05801 0.0
C360 C 0.86733 1.01031 0.03763 0.0
C361 C 0.92139 0.99968 0.06605 0.0
C362 C 0.93455 1.01186 0.14225 0.0
C363 C 0.9638 0.02317 0.13672 0.0
C364 C 0.97933 0.02185 0.0531 0.0
C365 C 0.96595 1.00913 0.97494 0.0
C366 C 0.9364 0.99827 0.98318 0.0
H367 H 0.48035 0.8407 0.22307 0.0
H368 H 0.53455 0.88852 0.41596 0.0
H369 H 0.53436 0.93289 0.31597 0.0
H370 H 0.51942 0.86113 0.04294 0.0
H371 H 0.48892 0.86436 0.96398 0.0
H372 H 0.48554 0.84025 0.05988 0.0
H373 H 0.43787 0.86795 0.10995 0.0
H374 H 0.44053 0.89186 1.01278 0.0
H375 H 0.43858 0.90796 0.12356 0.0
H376 H 0.53472 0.97029 0.17768 0.0
H377 H 0.53607 0.99338 0.02524 0.0
H378 H 0.48615 0.91827 0.92001 0.0
C379 C 0.49045 0.86121 0.24706 0.0
C380 C 0.50619 0.86127 0.33045 0.0
C381 C 0.52115 0.88803 0.35517 0.0
C382 C 0.5215 0.91334 0.29759 0.0
C383 C 0.5073 0.91177 0.21347 0.0
C384 C 0.49173 0.88627 0.18905 0.0
C385 C 0.4819 0.88806 0.09103 0.0
C386 C 0.49472 0.86191 0.03629 0.0
C387 C 0.44769 0.88902 0.08392 0.0
C388 C 0.49542 0.91777 0.06242 0.0
C389 C 0.50926 0.93176 0.13415 0.0
C390 C 0.52371 0.95935 0.12177 0.0
C391 C 0.52438 0.97249 0.03462 0.0
C392 C 0.5114 0.9578 0.95962 0.0
C393 C 0.49645 0.93025 0.9753 0.0
H394 H 0.67454 0.4794 0.25028 0.0
H395 H 0.65079 0.56079 0.38826 0.0
H396 H 0.60559 0.5652 0.29204 0.0
H397 H 0.66218 0.50614 0.04396 0.0
H398 H 0.64812 0.47242 0.99267 0.0
H399 H 0.67241 0.47013 0.08891 0.0
H400 H 0.63336 0.43923 0.17561 0.0
H401 H 0.60905 0.44053 0.07862 0.0
H402 H 0.59585 0.45319 0.18619 0.0
H403 H 0.56607 0.56474 0.15769 0.0
H404 H 0.54068 0.56038 1.00894 0.0
H405 H 0.59508 0.48326 0.94818 0.0
C406 C 0.65882 0.49714 0.2644 0.0
C407 C 0.66628 0.51923 0.33009 0.0
C408 C 0.64556 0.5429 0.34179 0.0
C409 C 0.61989 0.54585 0.28559 0.0
C410 C 0.61484 0.52509 0.2163 0.0
C411 C 0.63381 0.50094 0.20659 0.0
C412 C 0.62666 0.48408 0.1199 0.0
C413 C 0.65395 0.48317 0.05771 0.0
C414 C 0.61557 0.45238 0.14135 0.0
C415 C 0.60159 0.50305 0.07975 0.0
C416 C 0.59421 0.52606 0.1375 0.0
C417 C 0.57175 0.54654 0.11314 0.0
C418 C 0.55713 0.54381 0.02823 0.0
C419 C 0.56528 0.52121 0.96629 0.0
C420 C 0.58778 0.50055 0.9939 0.0
H421 H 0.03204 0.64346 0.36224 0.0
H422 H 0.94913 0.69036 0.31389 0.0
H423 H 0.93753 0.65564 0.18972 0.0
H424 H 0.05348 0.63163 0.15237 0.0
H425 H 0.06697 0.59373 0.1604 0.0
H426 H 0.06607 0.6169 0.25897 0.0
H427 H 0.03396 0.57825 0.34197 0.0
H428 H 0.03531 0.55425 0.24479 0.0
H429 H 0.99988 0.565 0.29113 0.0
H430 H 0.94006 0.62299 0.04934 0.0
H431 H 0.95301 0.59167 0.91905 0.0
H432 H 0.03388 0.56318 0.05444 0.0
C433 C 1.01039 0.64508 0.33003 0.0
C434 C 0.99104 0.66962 0.35165 0.0
C435 C 0.96381 0.67151 0.3029 0.0
C436 C 0.95733 0.65203 0.23027 0.0
C437 C 0.97777 0.62965 0.20711 0.0
C438 C 1.00332 0.62529 0.25776 0.0
C439 C 0.02228 0.60043 0.2153 0.0
C440 C 0.05407 0.61136 0.19554 0.0
C441 C 0.02291 0.57285 0.27697 0.0
C442 C 1.00486 0.59348 0.12861 0.0
C443 C 0.97885 0.61016 0.12685 0.0
C444 C 0.95982 0.60914 0.05212 0.0
C445 C 0.96731 0.59093 0.97803 0.0
C446 C 0.99369 0.57339 0.9767 0.0
C447 C 1.01273 0.57484 0.05414 0.0
H448 H 0.99413 0.28491 0.31643 0.0
H449 H 0.07756 0.24399 0.23833 0.0
H450 H 0.05844 0.1948 0.28446 0.0
H451 H 0.97746 0.23214 0.51326 0.0
H452 H 0.93826 0.23388 0.48573 0.0
H453 H 0.96174 0.26582 0.46608 0.0
H454 H 0.94313 0.26593 0.30107 0.0
H455 H 0.92158 0.23249 0.31766 0.0
H456 H 0.94963 0.23364 0.23162 0.0
H457 H 0.02459 0.15143 0.28132 0.0
H458 H 0.98857 0.11281 0.32519 0.0
H459 H 0.92967 0.18096 0.43081 0.0
C460 C 1.00925 0.26601 0.31618 0.0
C461 C 0.03679 0.26759 0.27139 0.0
C462 C 0.05621 0.24272 0.27178 0.0
C463 C 0.04521 0.21468 0.29537 0.0
C464 C 0.01577 0.21296 0.32377 0.0
C465 C 0.99875 0.23799 0.34113 0.0
C466 C 0.96741 0.22962 0.36903 0.0
C467 C 0.96085 0.241 0.46426 0.0
C468 C 0.94409 0.24112 0.3008 0.0
C469 C 0.96972 0.19593 0.36498 0.0
C470 C 0.99722 0.18716 0.3329 0.0
C471 C 1.00354 0.15773 0.31098 0.0
C472 C 0.98259 0.13611 0.33361 0.0
C473 C 0.95705 0.1441 0.3836 0.0
C474 C 0.94927 0.17442 0.39356 0.0
H475 H 0.2472 1.00719 0.33669 0.0
H476 H 0.29649 0.08152 0.22488 0.0
H477 H 0.3436 0.05689 0.26636 0.0
H478 H 0.30572 0.9936 0.53098 0.0
H479 H 0.29744 0.95419 0.52651 0.0
H480 H 0.2684 0.98116 0.50511 0.0
H481 H 0.2578 0.95439 0.35432 0.0
H482 H 0.28834 0.92889 0.3711 0.0
H483 H 0.28692 0.95189 0.27171 0.0
H484 H 0.3805 1.01556 0.25682 0.0
H485 H 0.41488 0.97509 0.29954 0.0
H486 H 0.34486 0.93286 0.45405 0.0
C487 C 0.26775 0.01954 0.32792 0.0
C488 C 0.26872 0.04512 0.27229 0.0
C489 C 0.29571 0.06127 0.26479 0.0
C490 C 0.32256 0.04708 0.28588 0.0
C491 C 0.32113 0.01875 0.32404 0.0
C492 C 0.29473 1.00642 0.35351 0.0
C493 C 0.29989 0.9758 0.3947 0.0
C494 C 0.29246 0.97622 0.49534 0.0
C495 C 0.28217 0.95134 0.34493 0.0
C496 C 0.33304 0.97242 0.37868 0.0
C497 C 0.3442 0.99683 0.33314 0.0
C498 C 0.37272 0.99712 0.29748 0.0
C499 C 0.39171 0.97355 0.31946 0.0
C500 C 0.38255 0.95149 0.3815 0.0
C501 C 0.35234 0.94966 0.40691 0.0
H502 H 0.51714 0.26845 0.33911 0.0
H503 H 0.59343 0.25961 0.16541 0.0
H504 H 0.62309 0.29139 0.2671 0.0
H505 H 0.51864 0.33768 0.35777 0.0
H506 H 0.50859 0.3429 0.47386 0.0
H507 H 0.49794 0.30938 0.41709 0.0
H508 H 0.52489 0.2769 0.53639 0.0
H509 H 0.53445 0.31062 0.59602 0.0
H510 H 0.56324 0.28451 0.56524 0.0
H511 H 0.63698 0.33533 0.34449 0.0
H512 H 0.63452 0.38766 0.39066 0.0
H513 H 0.55034 0.37066 0.5232 0.0
C514 C 0.54056 0.27231 0.32596 0.0
C515 C 0.55341 0.26218 0.24608 0.0
C516 C 0.58361 0.26764 0.22719 0.0
C517 C 0.6006 0.28521 0.28523 0.0
C518 C 0.58683 0.29705 0.36105 0.0
C519 C 0.55749 0.29045 0.38253 0.0
C520 C 0.54562 0.31139 0.45337 0.0
C521 C 0.51602 0.32622 0.42355 0.0
C522 C 0.54187 0.29487 0.5431 0.0
C523 C 0.57116 0.33344 0.45786 0.0
C524 C 0.59532 0.32379 0.40812 0.0
C525 C 0.61893 0.34269 0.38696 0.0
C526 C 0.6173 0.37252 0.41319 0.0
C527 C 0.59221 0.38314 0.46028 0.0
C528 C 0.56973 0.36299 0.48694 0.0
H529 H 0.24739 0.52056 0.20966 0.0
H530 H 0.29706 0.59949 0.28736 0.0
H531 H 0.26058 0.60887 0.40974 0.0
H532 H 0.18267 0.55617 0.20912 0.0
H533 H 0.16027 0.52462 0.24196 0.0
H534 H 0.19471 0.51866 0.18449 0.0
H535 H 0.21377 0.48486 0.31434 0.0
H536 H 0.17907 0.49032 0.37244 0.0
H537 H 0.21392 0.49873 0.42807 0.0
H538 H 0.21343 0.61446 0.50017 0.0
H539 H 0.1604 0.61738 0.54516 0.0
H540 H 0.14144 0.5381 0.38715 0.0
C541 C 0.25087 0.53957 0.25364 0.0
C542 C 0.27403 0.55996 0.2388 0.0
C543 C 0.27873 0.58415 0.29779 0.0
C544 C 0.25841 0.58932 0.36746 0.0
C545 C 0.23418 0.56985 0.37592 0.0
C546 C 0.23055 0.5454 0.32005 0.0
C547 C 0.20014 0.53164 0.32653 0.0
C548 C 0.18349 0.53288 0.23524 0.0
C549 C 0.20185 0.49949 0.3626 0.0
C550 C 0.18666 0.55253 0.39361 0.0
C551 C 0.20661 0.57398 0.42347 0.0
C552 C 0.19777 0.59749 0.47851 0.0
C553 C 0.16764 0.59923 0.50244 0.0
C554 C 0.14698 0.57789 0.46946 0.0
C555 C 0.15686 0.5542 0.41559 0.0
H556 H 1.00257 0.78108 0.23707 0.0
H557 H 0.08697 0.73441 0.24566 0.0
H558 H 0.10727 0.76955 0.13191 0.0
H559 H 1.0039 0.81155 1.00135 0.0
H560 H 0.98915 0.84662 0.04079 0.0
H561 H 0.9786 0.81222 0.09497 0.0
H562 H 0.99613 0.83371 0.24825 0.0
H563 H 1.00708 0.86786 0.19526 0.0
H564 H 0.03392 0.84691 0.26036 0.0
H565 H 0.12056 0.81585 0.04247 0.0
H566 H 0.12587 0.86811 0.98929 0.0
H567 H 0.03457 0.88552 0.06975 0.0
C568 C 0.02492 0.77763 0.21165 0.0
C569 C 0.04347 0.75562 0.24829 0.0
C570 C 0.0727 0.75143 0.21652 0.0
C571 C 0.0842 0.77113 0.15218 0.0
C572 C 0.06595 0.79443 0.12204 0.0
C573 C 0.03679 0.79755 0.15106 0.0
C574 C 0.02375 0.82745 0.1278 0.0
C575 C 0.9973 0.82425 0.06226 0.0
C576 C 1.01475 0.84498 0.21291 0.0
C577 C 0.05031 0.84115 0.08314 0.0
C578 C 0.07421 0.82181 0.0776 0.0
C579 C 0.10179 0.83103 0.04483 0.0
C580 C 0.10475 0.8608 0.01627 0.0
C581 C 0.08044 0.88087 0.02365 0.0
C582 C 0.0532 0.87066 0.05852 0.0
H583 H 0.75576 0.99218 0.12783 0.0
H584 H 0.7575 0.04706 0.36755 0.0
H585 H 0.72599 0.08471 0.29299 0.0
H586 H 0.75248 0.05391 0.9613 0.0
H587 H 0.72622 0.03442 0.89033 0.0
H588 H 0.75304 1.01369 0.95632 0.0
H589 H 0.71125 0.98326 0.03144 0.0
H590 H 0.68367 1.00263 0.96607 0.0
H591 H 0.68117 1.00252 0.08655 0.0
H592 H 0.69199 0.11332 0.20258 0.0
H593 H 0.64599 0.12455 0.11915 0.0
H594 H 0.66492 0.05224 0.93444 0.0
C595 C 0.7494 1.01226 0.16355 0.0
C596 C 0.75847 0.01709 0.25228 0.0
C597 C 0.75009 0.04325 0.29903 0.0
C598 C 0.73291 0.06496 0.25677 0.0
C599 C 0.72473 0.06013 0.16786 0.0
C600 C 0.73196 0.03413 0.12249 0.0
C601 C 0.71596 0.03214 0.03358 0.0
C602 C 0.73825 0.03363 0.95575 0.0
C603 C 0.69688 1.00349 0.02916 0.0
C604 C 0.69718 0.06024 0.03874 0.0
C605 C 0.70379 0.07673 0.11488 0.0
C606 C 0.68686 0.10119 0.14152 0.0
C607 C 0.66088 0.10756 0.09343 0.0
C608 C 0.65215 0.08911 0.02111 0.0
C609 C 0.67156 0.06672 0.98926 0.0
H610 H 0.48965 0.77008 0.28227 0.0
H611 H 0.58028 0.7655 0.18467 0.0
H612 H 0.56359 0.73061 0.06437 0.0
H613 H 0.47733 0.6974 0.2767 0.0
H614 H 0.43844 0.6985 0.24508 0.0
H615 H 0.45476 0.72952 0.30308 0.0
H616 H 0.43865 0.7656 0.17705 0.0
H617 H 0.42142 0.73495 0.11769 0.0
H618 H 0.44875 0.75793 0.06236 0.0
H619 H 0.54 0.68927 0.98145 0.0
H620 H 0.51269 0.64291 0.94466 0.0
H621 H 0.43773 0.67293 0.10224 0.0
C622 C 0.50579 0.76227 0.23375 0.0
C623 C 0.53619 0.76998 0.2417 0.0
C624 C 0.55695 0.75954 0.17869 0.0
C625 C 0.54754 0.74007 0.11022 0.0
C626 C 0.51744 0.73175 0.10665 0.0
C627 C 0.49688 0.74264 0.16701 0.0
C628 C 0.46737 0.72644 0.16095 0.0
C629 C 0.45905 0.71209 0.25175 0.0
C630 C 0.44258 0.74748 0.12743 0.0
C631 C 0.47501 0.70321 0.09135 0.0
C632 C 0.50365 0.70732 0.05872 0.0
C633 C 0.51726 0.68635 1.00361 0.0
C634 C 0.50174 0.6601 0.98368 0.0
C635 C 0.4732 0.65498 0.02019 0.0
C636 C 0.4592 0.6771 0.07177 0.0
H637 H 0.8055 0.51423 0.29349 0.0
H638 H 0.73405 0.52285 0.09505 0.0
H639 H 0.76221 0.48998 0.99418 0.0
H640 H 0.86663 0.51255 0.13318 0.0
H641 H 0.88613 0.48964 0.21391 0.0
H642 H 0.85937 0.51695 0.25021 0.0
H643 H 0.82903 0.46776 0.33179 0.0
H644 H 0.86074 0.44737 0.29072 0.0
H645 H 0.82334 0.43639 0.26028 0.0
H646 H 0.80265 0.45858 0.91056 0.0
H647 H 0.85008 0.43584 0.85807 0.0
H648 H 0.88637 0.44176 0.12707 0.0
C649 C 0.79517 0.51026 0.22921 0.0
C650 C 0.76663 0.52117 0.20577 0.0
C651 C 0.75536 0.51449 0.11814 0.0
C652 C 0.77123 0.49567 0.0596 0.0
C653 C 0.79827 0.48378 0.08938 0.0
C654 C 0.81002 0.49127 0.17199 0.0
C655 C 0.8394 0.47646 0.19046 0.0
C656 C 0.86433 0.5002 0.19767 0.0
C657 C 0.83815 0.45586 0.27318 0.0
C658 C 0.84233 0.45852 0.10636 0.0
C659 C 0.81901 0.46347 0.04675 0.0
C660 C 0.8204 0.45364 0.95791 0.0
C661 C 0.84707 0.44026 0.92895 0.0
C662 C 0.87099 0.43595 0.99017 0.0
C663 C 0.86761 0.4432 0.0808 0.0
H664 H 0.98283 0.25506 0.93908 0.0
H665 H 0.07776 0.2725 0.94589 0.0
H666 H 0.08711 0.22316 0.87895 0.0
H667 H 0.97836 0.18253 0.98333 0.0
H668 H 0.95284 0.16978 0.8973 0.0
H669 H 0.9523 0.20826 0.93216 0.0
H670 H 0.96056 0.22572 0.76884 0.0
H671 H 0.96038 0.18722 0.73269 0.0
H672 H 0.9915 0.21098 0.70632 0.0
H673 H 0.08695 0.16737 0.84537 0.0
H674 H 0.07755 0.11462 0.80958 0.0
H675 H 0.98242 0.13224 0.7986 0.0
C676 C 1.00545 0.24947 0.92069 0.0
C677 C 0.02952 0.26883 0.94724 0.0
C678 C 0.05877 0.25928 0.9244 0.0
C679 C 0.06438 0.2307 0.88773 0.0
C680 C 0.04049 0.21169 0.86799 0.0
C681 C 1.01146 0.22133 0.87824 0.0
C682 C 0.99009 0.19636 0.84703 0.0
C683 C 0.96705 0.18879 0.91937 0.0
C684 C 0.97469 0.20562 0.75856 0.0
C685 C 1.01145 0.1701 0.82997 0.0
C686 C 0.04049 0.17988 0.84097 0.0
C687 C 0.06429 0.15988 0.83393 0.0
C688 C 0.0586 0.12955 0.81377 0.0
C689 C 0.02921 0.11843 0.79974 0.0
C690 C 1.00526 0.13951 0.80758 0.0
H691 H 0.28572 0.06938 0.94931 0.0
H692 H 0.25898 0.97655 0.95032 0.0
H693 H 0.3062 0.96317 0.87412 0.0
H694 H 0.33163 0.06869 0.7359 0.0
H695 H 0.35891 0.09339 0.78531 0.0
H696 H 0.32035 0.09595 0.81805 0.0
H697 H 0.33638 0.08921 0.9841 0.0
H698 H 0.37483 0.08572 0.95198 0.0
H699 H 0.35737 0.05654 0.01658 0.0
H700 H 0.3607 0.95948 0.81315 0.0
H701 H 0.41392 0.96539 0.77555 0.0
H702 H 0.40793 0.06026 0.8312 0.0
C703 C 0.28894 0.0464 0.92878 0.0
C704 C 0.26754 0.02422 0.95393 0.0
C705 C 0.27387 0.99425 0.92943 0.0
C706 C 0.30117 0.9864 0.88738 0.0
C707 C 0.32252 1.00862 0.87006 0.0
C708 C 0.31645 0.03815 0.88942 0.0
C709 C 0.34416 0.05747 0.8745 0.0
C710 C 0.33842 0.08023 0.79896 0.0
C711 C 0.35374 0.07315 0.96199 0.0
C712 C 0.36721 0.03428 0.84585 0.0
C713 C 0.35407 1.0063 0.84165 0.0
C714 C 0.37086 0.98139 0.81626 0.0
C715 C 0.40137 0.98502 0.79483 0.0
C716 C 0.41582 1.01328 0.80028 0.0
C717 C 0.39808 0.03824 0.82648 0.0
H718 H 0.47696 0.29802 0.04402 0.0
H719 H 0.53285 0.25112 0.85553 0.0
H720 H 0.53622 0.29728 0.76306 0.0
H721 H 0.43819 0.35074 0.88915 0.0
H722 H 0.44094 0.38075 0.96955 0.0
H723 H 0.43852 0.34262 1.00784 0.0
H724 H 0.48724 0.35008 0.09962 0.0
H725 H 0.49023 0.38795 0.05988 0.0
H726 H 0.52051 0.36213 0.04292 0.0
H727 H 0.53837 0.35351 0.70067 0.0
H728 H 0.53683 0.40822 0.67505 0.0
H729 H 0.48181 0.41854 0.91121 0.0
C730 C 0.48839 0.29681 0.98026 0.0
C731 C 0.50333 0.26983 0.95578 0.0
C732 C 0.51986 0.27047 0.87459 0.0
C733 C 0.52236 0.29709 0.82227 0.0
C734 C 0.50864 0.32359 0.85173 0.0
C735 C 0.49175 0.32333 0.92901 0.0
C736 C 0.48205 0.35499 0.9536 0.0
C737 C 0.44789 0.35741 0.9551 0.0
C738 C 0.49581 0.36433 0.04438 0.0
C739 C 0.49518 0.37338 0.87716 0.0
C740 C 0.51071 0.35503 0.819 0.0
C741 C 0.52586 0.36759 0.74586 0.0
C742 C 0.52496 0.39905 0.73188 0.0
C743 C 0.50901 0.41844 0.79023 0.0
C744 C 0.49394 0.40487 0.86389 0.0
H745 H 0.24781 0.56151 0.91863 0.0
H746 H 0.26688 0.4686 0.9775 0.0
H747 H 0.21773 0.4547 0.91158 0.0
H748 H 0.17419 0.55743 0.99567 0.0
H749 H 0.1591 0.58429 0.91731 0.0
H750 H 0.19776 0.58626 0.95037 0.0
H751 H 0.21382 0.58347 0.78408 0.0
H752 H 0.17521 0.58192 0.74997 0.0
H753 H 0.20068 0.55314 0.71465 0.0
H754 H 0.16172 0.45203 0.85726 0.0
H755 H 0.10877 0.45995 0.81763 0.0
H756 H 0.12396 0.55546 0.80356 0.0
C757 C 0.24223 0.53799 0.91564 0.0
C758 C 0.2622 0.51622 0.95406 0.0
C759 C 0.25305 0.4859 0.94801 0.0
C760 C 0.22464 0.47786 0.91155 0.0
C761 C 0.20487 0.50024 0.88122 0.0
C762 C 0.21359 0.52977 0.88244 0.0
C763 C 0.18737 0.55008 0.85578 0.0
C764 C 0.17913 0.57074 0.93441 0.0
C765 C 0.19471 0.56822 0.77107 0.0
C766 C 0.16239 0.52754 0.83735 0.0
C767 C 0.17298 0.49886 0.85265 0.0
C768 C 0.15365 0.47446 0.84482 0.0
C769 C 0.12323 0.47928 0.82221 0.0
C770 C 0.11134 0.50835 0.80636 0.0
C771 C 0.13179 0.5328 0.81338 0.0
H772 H 0.96194 0.78804 0.5272 0.0
H773 H 0.05264 0.76066 0.58629 0.0
H774 H 0.06284 0.8099 0.65264 0.0
H775 H 0.96653 0.85983 0.47727 0.0
H776 H 0.93826 0.87631 0.54739 0.0
H777 H 0.93572 0.83752 0.51655 0.0
H778 H 0.93358 0.82185 0.68296 0.0
H779 H 0.93514 0.86073 0.71492 0.0
H780 H 0.96201 0.83469 0.75971 0.0
H781 H 0.06663 0.86571 0.68457 0.0
H782 H 0.06095 0.91941 0.71419 0.0
H783 H 0.96624 0.91295 0.65555 0.0
C784 C 0.9834 0.79165 0.55905 0.0
C785 C 1.00639 0.76939 0.55096 0.0
C786 C 0.03427 0.77626 0.59248 0.0
C787 C 0.04053 0.80472 0.62926 0.0
C788 C 0.01821 0.82651 0.63077 0.0
C789 C 0.9896 0.81976 0.60237 0.0
C790 C 0.96953 0.84722 0.61899 0.0
C791 C 0.95147 0.85573 0.53491 0.0
C792 C 0.94881 0.84075 0.69875 0.0
C793 C 0.99221 0.87164 0.64565 0.0
C794 C 0.01999 0.85857 0.65525 0.0
C795 C 0.04476 0.87583 0.67927 0.0
C796 C 0.04125 0.90674 0.69593 0.0
C797 C 1.01319 0.92142 0.68804 0.0
C798 C 0.98821 0.90312 0.66198 0.0
H799 H 0.72239 1.00134 0.41667 0.0
H800 H 0.78231 0.99647 0.64677 0.0
H801 H 0.7376 1.00365 0.74532 0.0
H802 H 0.66841 0.04879 0.4837 0.0
H803 H 0.63851 0.0274 0.43394 0.0
H804 H 0.67532 0.02556 0.38718 0.0
H805 H 0.67607 0.968 0.40566 0.0
H806 H 0.6389 0.96933 0.45047 0.0
H807 H 0.66848 0.9518 0.51397 0.0
H808 H 0.67941 1.01392 0.81469 0.0
H809 H 0.6246 1.01674 0.84251 0.0
H810 H 0.60787 1.0017 0.55982 0.0
C811 C 0.72744 1.00002 0.4874 0.0
C812 C 0.75737 0.9964 0.52097 0.0
C813 C 0.76041 0.99838 0.61628 0.0
C814 C 0.73472 1.00239 0.67318 0.0
C815 C 0.70562 1.00374 0.63501 0.0
C816 C 0.70258 1.00176 0.54335 0.0
C817 C 0.67011 1.00081 0.51353 0.0
C818 C 0.66267 0.0272 0.45093 0.0
C819 C 0.66297 0.97071 0.46823 0.0
C820 C 0.65417 1.0036 0.60229 0.0
C821 C 0.67458 1.00601 0.67251 0.0
C822 C 0.66386 1.01104 0.75972 0.0
C823 C 0.6324 1.0128 0.77488 0.0
C824 C 0.61124 1.00884 0.70385 0.0
C825 C 0.6229 1.00419 0.61658 0.0
H826 H 0.54406 0.75579 0.60534 0.0
H827 H 0.46364 0.75764 0.44348 0.0
H828 H 0.45135 0.70651 0.49495 0.0
H829 H 0.56598 0.68504 0.5704 0.0
H830 H 0.57761 0.67525 0.6829 0.0
H831 H 0.57753 0.71376 0.6482 0.0
H832 H 0.54287 0.72818 0.77959 0.0
H833 H 0.54424 0.68982 0.81648 0.0
H834 H 0.50878 0.70763 0.79607 0.0
H835 H 0.45166 0.6515 0.54828 0.0
H836 H 0.46163 0.60086 0.60849 0.0
H837 H 0.54204 0.6334 0.7381 0.0
C838 C 0.52294 0.74614 0.58491 0.0
C839 C 0.50441 0.76161 0.5216 0.0
C840 C 0.47774 0.74718 0.49379 0.0
C841 C 0.47081 0.71773 0.52199 0.0
C842 C 0.49031 0.70267 0.58057 0.0
C843 C 0.51537 0.71684 0.6142 0.0
C844 C 0.53317 0.69532 0.67421 0.0
C845 C 0.56549 0.69215 0.6419 0.0
C846 C 0.5322 0.70589 0.77241 0.0
C847 C 0.51575 0.66611 0.66309 0.0
C848 C 0.49061 0.67114 0.61064 0.0
C849 C 0.47104 0.64769 0.59046 0.0
C850 C 0.47692 0.6188 0.6251 0.0
C851 C 0.50253 0.61271 0.67858 0.0
C852 C 0.52225 0.63699 0.69746 0.0
H853 H 0.79609 0.49432 0.43981 0.0
H854 H 0.74951 0.5542 0.61818 0.0
H855 H 0.79445 0.55554 0.71796 0.0
H856 H 0.84585 0.45409 0.59871 0.0
H857 H 0.87579 0.45556 0.51869 0.0
H858 H 0.83758 0.45498 0.48052 0.0
H859 H 0.84768 0.50859 0.39404 0.0
H860 H 0.88559 0.50221 0.43001 0.0
H861 H 0.86667 0.53659 0.45706 0.0
H862 H 0.85045 0.55483 0.78887 0.0
H863 H 0.90501 0.55096 0.81923 0.0
H864 H 0.9148 0.49464 0.58551 0.0
C865 C 0.79483 0.50707 0.50135 0.0
C866 C 0.76838 0.52374 0.52059 0.0
C867 C 0.76861 0.54053 0.60162 0.0
C868 C 0.79451 0.54172 0.65833 0.0
C869 C 0.82071 0.52645 0.63341 0.0
C870 C 0.82071 0.50937 0.55626 0.0
C871 C 0.8521 0.49796 0.53634 0.0
C872 C 0.85288 0.46363 0.53322 0.0
C873 C 0.86378 0.51204 0.44921 0.0
C874 C 0.86991 0.50979 0.61572 0.0
C875 C 0.85173 0.5266 0.67113 0.0
C876 C 0.86432 0.54146 0.74533 0.0
C877 C 0.89557 0.53923 0.76212 0.0
C878 C 0.91458 0.52233 0.70541 0.0
C879 C 0.90115 0.50737 0.63142 0.0
loop_
_geom_bond_atom_site_label_1
_geom_bond_atom_site_label_2
_geom_bond_distance
_geom_bond_site_symmetry_2
_ccdc_geom_bond_type
H0 C3 0.931 . S
H1 C6 0.928 . S
H2 C8 0.930 . S
C3 H0 0.931 . S
C3 C4 1.413 . S
C3 C5 1.360 . S
C4 C3 1.413 . S
C4 C8 1.429 . S
C5 C3 1.360 . S
C5 C6 1.372 . S
C6 H1 0.928 . S
C6 C5 1.372 . S
C6 C7 1.404 . S
C7 C6 1.404 . S
C7 C8 1.391 . S
C8 H2 0.930 . S
C8 C4 1.429 . S
C8 C7 1.391 . S
H9 C12 0.931 . S
H10 C15 0.928 . S
H11 C17 0.930 . S
C12 H9 0.931 . S
C12 C13 1.413 . S
C12 C14 1.360 . S
C13 C12 1.413 . S
C13 C17 1.429 1_655 S
C14 C12 1.360 . S
C14 C15 1.372 . S
C15 H10 0.928 . S
C15 C14 1.372 . S
C15 C16 1.404 . S
C16 C15 1.404 . S
C16 C17 1.390 1_655 S
C17 H11 0.930 . S
C17 C13 1.429 1_455 S
C17 C16 1.390 1_455 S
H18 C21 0.931 . S
H19 C24 0.928 . S
H20 C26 0.930 . S
C21 H18 0.931 . S
C21 C22 1.413 . S
C21 C23 1.360 . S
C22 C21 1.413 . S
C22 C26 1.429 1_565 S
C23 C21 1.360 . S
C23 C24 1.372 . S
C24 H19 0.928 . S
C24 C23 1.372 . S
C24 C25 1.404 . S
C25 C24 1.404 . S
C25 C26 1.390 1_565 S
C26 H20 0.930 . S
C26 C22 1.429 1_545 S
C26 C25 1.390 1_545 S
H27 C30 0.931 . S
H28 C33 0.928 . S
H29 C35 0.930 . S
C30 H27 0.931 . S
C30 C31 1.413 . S
C30 C32 1.360 . S
C31 C30 1.413 . S
C31 C35 1.429 . S
C32 C30 1.360 . S
C32 C33 1.372 . S
C33 H28 0.928 . S
C33 C32 1.372 . S
C33 C34 1.404 . S
C34 C33 1.404 . S
C34 C35 1.391 . S
C35 H29 0.930 . S
C35 C31 1.429 . S
C35 C34 1.391 . S
H36 C39 0.931 . S
H37 C42 0.928 . S
H38 C44 0.930 . S
C39 H36 0.931 . S
C39 C40 1.413 1_554 S
C39 C41 1.360 . S
C40 C39 1.413 1_556 S
C40 C44 1.429 . S
C41 C39 1.360 . S
C41 C42 1.372 . S
C42 H37 0.928 . S
C42 C41 1.372 . S
C42 C43 1.404 . S
C43 C42 1.404 . S
C43 C44 1.391 1_554 S
C44 H38 0.930 . S
C44 C40 1.429 . S
C44 C43 1.391 1_556 S
H45 C48 0.931 . S
H46 C51 0.928 . S
H47 C53 0.930 . S
C48 H45 0.931 . S
C48 C49 1.413 1_554 S
C48 C50 1.360 . S
C49 C48 1.413 1_556 S
C49 C53 1.429 1_655 S
C50 C48 1.360 . S
C50 C51 1.372 . S
C51 H46 0.928 . S
C51 C50 1.372 . S
C51 C52 1.404 . S
C52 C51 1.404 . S
C52 C53 1.391 1_654 S
C53 H47 0.930 . S
C53 C49 1.429 1_455 S
C53 C52 1.391 1_456 S
H54 C57 0.931 . S
H55 C60 0.928 . S
H56 C62 0.930 . S
C57 H54 0.931 . S
C57 C58 1.413 1_554 S
C57 C59 1.360 . S
C58 C57 1.413 1_556 S
C58 C62 1.429 1_565 S
C59 C57 1.360 . S
C59 C60 1.372 . S
C60 H55 0.928 . S
C60 C59 1.372 . S
C60 C61 1.404 . S
C61 C60 1.404 . S
C61 C62 1.391 1_564 S
C62 H56 0.930 . S
C62 C58 1.429 1_545 S
C62 C61 1.391 1_546 S
H63 C66 0.931 . S
H64 C69 0.928 . S
H65 C71 0.930 . S
C66 H63 0.931 . S
C66 C67 1.413 . S
C66 C68 1.360 1_554 S
C67 C66 1.413 . S
C67 C71 1.429 . S
C68 C66 1.360 1_556 S
C68 C69 1.372 . S
C69 H64 0.928 . S
C69 C68 1.372 . S
C69 C70 1.404 1_556 S
C70 C69 1.404 1_554 S
C70 C71 1.391 . S
C71 H65 0.930 . S
C71 C67 1.429 . S
C71 C70 1.391 . S
C72 Eu73 2.835 . S
C72 C74 1.500 . S
C72 O92 1.257 . S
C72 O93 1.260 . S
Eu73 C72 2.835 . S
Eu73 O92 2.473 . S
Eu73 O93 2.480 . S
Eu73 O94 2.430 . S
Eu73 O95 2.670 1_545 S
Eu73 O96 2.394 . S
Eu73 O101 2.355 1_655 S
Eu73 O103 2.374 1_545 S
C74 C72 1.500 . S
C74 C75 1.377 . S
C74 C79 1.377 . S
C75 C74 1.377 . S
C75 C76 1.395 . S
C75 H104 0.931 . S
C76 C75 1.395 . S
C76 C77 1.383 . S
C76 H105 0.931 . S
C77 C76 1.383 . S
C77 C78 1.394 . S
C78 C77 1.394 . S
C78 C79 1.378 . S
C78 H106 0.916 1_655 S
C79 C74 1.377 . S
C79 C78 1.378 . S
C79 H107 0.931 1_655 S
C80 O94 1.259 . S
C80 O95 1.270 1_545 S
C81 O96 1.251 1_455 S
C81 O97 1.251 . S
C82 Eu83 2.835 . S
C82 C84 1.500 . S
C82 O98 1.257 . S
C82 O99 1.260 . S
Eu83 C82 2.835 . S
Eu83 O95 2.355 1_455 S
Eu83 O97 2.374 1_565 S
Eu83 O98 2.473 . S
Eu83 O99 2.480 . S
Eu83 O100 2.430 . S
Eu83 O101 2.670 1_565 S
Eu83 O102 2.394 . S
C84 C82 1.500 . S
C84 C85 1.377 . S
C84 C89 1.377 . S
C85 C84 1.377 . S
C85 C86 1.395 . S
C85 H108 0.931 . S
C86 C85 1.395 . S
C86 C87 1.383 1_556 S
C86 H109 0.931 . S
C87 C86 1.383 1_554 S
C87 C88 1.394 . S
C88 C87 1.394 . S
C88 C89 1.378 1_554 S
C88 H110 0.923 1_455 S
C89 C84 1.377 . S
C89 C88 1.378 1_556 S
C89 H111 0.931 1_455 S
C90 O100 1.259 . S
C90 O101 1.270 1_565 S
C91 O102 1.251 1_655 S
C91 O103 1.251 . S
O92 C72 1.257 . S
O92 Eu73 2.473 . S
O93 C72 1.260 . S
O93 Eu73 2.480 . S
O94 Eu73 2.430 . S
O94 C80 1.259 . S
O95 Eu73 2.670 1_565 S
O95 C80 1.270 1_565 S
O95 Eu83 2.355 1_655 S
O96 Eu73 2.394 . S
O96 C81 1.251 1_655 S
O97 C81 1.251 . S
O97 Eu83 2.374 1_545 S
O98 C82 1.257 . S
O98 Eu83 2.473 . S
O99 C82 1.260 . S
O99 Eu83 2.480 . S
O100 Eu83 2.430 . S
O100 C90 1.259 . S
O101 Eu73 2.355 1_455 S
O101 Eu83 2.670 1_545 S
O101 C90 1.270 1_545 S
O102 Eu83 2.394 . S
O102 C91 1.251 1_455 S
O103 Eu73 2.374 1_565 S
O103 C91 1.251 . S
H104 C75 0.931 . S
H105 C76 0.931 . S
H106 C78 0.916 1_455 S
H107 C79 0.931 1_455 S
H108 C85 0.931 . S
H109 C86 0.931 . S
H110 C88 0.923 1_655 S
H111 C89 0.931 1_655 S
C112 Eu113 2.835 . S
C112 C114 1.500 . S
C112 O132 1.257 . S
C112 O133 1.260 . S
Eu113 C112 2.835 . S
Eu113 O132 2.473 . S
Eu113 O133 2.480 . S
Eu113 O134 2.430 . S
Eu113 O135 2.670 . S
Eu113 O136 2.394 . S
Eu113 O141 2.355 1_565 S
Eu113 O143 2.374 . S
C114 C112 1.500 . S
C114 C115 1.377 . S
C114 C119 1.377 . S
C115 C114 1.377 . S
C115 C116 1.395 . S
C115 H144 0.931 . S
C116 C115 1.395 . S
C116 C117 1.383 . S
C116 H145 0.931 . S
C117 C116 1.383 . S
C117 C118 1.394 . S
C118 C117 1.394 . S
C118 C119 1.378 . S
C118 H146 0.931 1_565 S
C119 C114 1.377 . S
C119 C118 1.378 . S
C119 H147 0.931 1_565 S
C120 O134 1.259 . S
C120 O135 1.270 . S
C121 O136 1.251 1_545 S
C121 O137 1.251 . S
C122 Eu123 2.835 . S
C122 C124 1.500 . S
C122 O138 1.257 . S
C122 O139 1.260 . S
Eu123 C122 2.835 . S
Eu123 O135 2.355 1_545 S
Eu123 O137 2.374 . S
Eu123 O138 2.473 . S
Eu123 O139 2.480 . S
Eu123 O140 2.430 . S
Eu123 O141 2.670 . S
Eu123 O142 2.394 . S
C124 C122 1.500 . S
C124 C125 1.377 . S
C124 C129 1.377 . S
C125 C124 1.377 . S
C125 C126 1.395 . S
C125 H148 0.931 . S
C126 C125 1.395 . S
C126 C127 1.383 1_556 S
C126 H149 0.931 . S
C127 C126 1.383 1_554 S
C127 C128 1.394 . S
C128 C127 1.394 . S
C128 C129 1.378 1_554 S
C128 H150 0.931 1_545 S
C129 C124 1.377 . S
C129 C128 1.378 1_556 S
C129 H151 0.931 1_545 S
C130 O140 1.259 . S
C130 O141 1.270 . S
C131 O142 1.251 1_565 S
C131 O143 1.251 . S
O132 C112 1.257 . S
O132 Eu113 2.473 . S
O133 C112 1.260 . S
O133 Eu113 2.480 . S
O134 Eu113 2.430 . S
O134 C120 1.259 . S
O135 Eu113 2.670 . S
O135 C120 1.270 . S
O135 Eu123 2.355 1_565 S
O136 Eu113 2.394 . S
O136 C121 1.251 1_565 S
O137 C121 1.251 . S
O137 Eu123 2.374 . S
O138 C122 1.257 . S
O138 Eu123 2.473 . S
O139 C122 1.260 . S
O139 Eu123 2.480 . S
O140 Eu123 2.430 . S
O140 C130 1.259 . S
O141 Eu113 2.355 1_545 S
O141 Eu123 2.670 . S
O141 C130 1.270 . S
O142 Eu123 2.394 . S
O142 C131 1.251 1_545 S
O143 Eu113 2.374 . S
O143 C131 1.251 . S
H144 C115 0.931 . S
H145 C116 0.931 . S
H146 C118 0.931 1_545 S
H147 C119 0.931 1_545 S
H148 C125 0.931 . S
H149 C126 0.931 . S
H150 C128 0.931 1_565 S
H151 C129 0.931 1_565 S
C152 Eu153 2.835 . S
C152 C154 1.500 . S
C152 O172 1.257 . S
C152 O173 1.260 . S
Eu153 C152 2.835 . S
Eu153 O172 2.473 . S
Eu153 O173 2.480 . S
Eu153 O174 2.430 . S
Eu153 O175 2.670 . S
Eu153 O176 2.394 . S
Eu153 O181 2.355 . S
Eu153 O183 2.374 . S
C154 C152 1.500 . S
C154 C155 1.377 . S
C154 C159 1.377 . S
C155 C154 1.377 . S
C155 C156 1.395 . S
C155 H184 0.931 . S
C156 C155 1.395 . S
C156 C157 1.383 . S
C156 H185 0.931 . S
C157 C156 1.383 . S
C157 C158 1.394 . S
C158 C157 1.394 . S
C158 C159 1.378 . S
C158 H186 0.931 . S
C159 C154 1.377 . S
C159 C158 1.378 . S
C159 H187 0.931 . S
C160 O174 1.259 . S
C160 O175 1.270 . S
C161 O176 1.251 . S
C161 O177 1.251 . S
C162 Eu163 2.835 . S
C162 C164 1.500 . S
C162 O178 1.257 . S
C162 O179 1.260 . S
Eu163 C162 2.835 . S
Eu163 O175 2.355 . S
Eu163 O177 2.374 . S
Eu163 O178 2.473 . S
Eu163 O179 2.480 . S
Eu163 O180 2.430 . S
Eu163 O181 2.670 . S
Eu163 O182 2.394 . S
C164 C162 1.500 . S
C164 C165 1.377 . S
C164 C169 1.377 . S
C165 C164 1.377 . S
C165 C166 1.395 . S
C165 H188 0.931 . S
C166 C165 1.395 . S
C166 C167 1.383 1_556 S
C166 H189 0.931 1_556 S
C167 C166 1.383 1_554 S
C167 C168 1.394 . S
C168 C167 1.394 . S
C168 C169 1.378 1_554 S
C168 H190 0.931 . S
C169 C164 1.377 . S
C169 C168 1.378 1_556 S
C169 H191 0.931 . S
C170 O180 1.259 . S
C170 O181 1.270 . S
C171 O182 1.251 . S
C171 O183 1.251 . S
O172 C152 1.257 . S
O172 Eu153 2.473 . S
O173 C152 1.260 . S
O173 Eu153 2.480 . S
O174 Eu153 2.430 . S
O174 C160 1.259 . S
O175 Eu153 2.670 . S
O175 C160 1.270 . S
O175 Eu163 2.355 . S
O176 Eu153 2.394 . S
O176 C161 1.251 . S
O177 C161 1.251 . S
O177 Eu163 2.374 . S
O178 C162 1.257 . S
O178 Eu163 2.473 . S
O179 C162 1.260 . S
O179 Eu163 2.480 . S
O180 Eu163 2.430 . S
O180 C170 1.259 . S
O181 Eu153 2.355 . S
O181 Eu163 2.670 . S
O181 C170 1.270 . S
O182 Eu163 2.394 . S
O182 C171 1.251 . S
O183 Eu153 2.374 . S
O183 C171 1.251 . S
H184 C155 0.931 . S
H185 C156 0.931 . S
H186 C158 0.931 . S
H187 C159 0.931 . S
H188 C165 0.931 . S
H189 C166 0.931 1_554 S
H190 C168 0.931 . S
H191 C169 0.931 . S
C192 Eu193 2.835 . S
C192 C194 1.500 . S
C192 O212 1.257 . S
C192 O213 1.260 . S
Eu193 C192 2.835 . S
Eu193 O212 2.473 . S
Eu193 O213 2.480 . S
Eu193 O214 2.430 . S
Eu193 O215 2.670 1_455 S
Eu193 O216 2.394 . S
Eu193 O221 2.355 . S
Eu193 O223 2.374 1_455 S
C194 C192 1.500 . S
C194 C195 1.377 . S
C194 C199 1.377 . S
C195 C194 1.377 . S
C195 C196 1.395 . S
C195 H224 0.931 . S
C196 C195 1.395 . S
C196 C197 1.383 . S
C196 H225 0.931 . S
C197 C196 1.383 . S
C197 C198 1.394 . S
C198 C197 1.394 . S
C198 C199 1.378 . S
C198 H226 0.931 . S
C199 C194 1.377 . S
C199 C198 1.378 . S
C199 H227 0.931 . S
C200 O214 1.259 . S
C200 O215 1.270 1_455 S
C201 O216 1.251 . S
C201 O217 1.251 . S
C202 Eu203 2.835 . S
C202 C204 1.500 . S
C202 O218 1.257 . S
C202 O219 1.260 . S
Eu203 C202 2.835 . S
Eu203 O215 2.355 . S
Eu203 O217 2.374 1_655 S
Eu203 O218 2.473 . S
Eu203 O219 2.480 . S
Eu203 O220 2.430 . S
Eu203 O221 2.670 1_655 S
Eu203 O222 2.394 . S
C204 C202 1.500 . S
C204 C205 1.377 . S
C204 C209 1.377 . S
C205 C204 1.377 . S
C205 C206 1.395 . S
C205 H228 0.931 . S
C206 C205 1.395 . S
C206 C207 1.383 1_556 S
C206 H229 0.931 1_556 S
C207 C206 1.383 1_554 S
C207 C208 1.394 . S
C208 C207 1.394 . S
C208 C209 1.378 1_554 S
C208 H230 0.931 . S
C209 C204 1.377 . S
C209 C208 1.378 1_556 S
C209 H231 0.931 . S
C210 O220 1.259 1_455 S
C210 O221 1.270 . S
C211 O222 1.251 . S
C211 O223 1.251 . S
O212 C192 1.257 . S
O212 Eu193 2.473 . S
O213 C192 1.260 . S
O213 Eu193 2.480 . S
O214 Eu193 2.430 . S
O214 C200 1.259 . S
O215 Eu193 2.670 1_655 S
O215 C200 1.270 1_655 S
O215 Eu203 2.355 . S
O216 Eu193 2.394 . S
O216 C201 1.251 . S
O217 C201 1.251 . S
O217 Eu203 2.374 1_455 S
O218 C202 1.257 . S
O218 Eu203 2.473 . S
O219 C202 1.260 . S
O219 Eu203 2.480 . S
O220 Eu203 2.430 . S
O220 C210 1.259 1_655 S
O221 Eu193 2.355 . S
O221 Eu203 2.670 1_455 S
O221 C210 1.270 . S
O222 Eu203 2.394 . S
O222 C211 1.251 . S
O223 Eu193 2.374 1_655 S
O223 C211 1.251 . S
H224 C195 0.931 . S
H225 C196 0.931 . S
H226 C198 0.931 . S
H227 C199 0.931 . S
H228 C205 0.931 . S
H229 C206 0.931 1_554 S
H230 C208 0.931 . S
H231 C209 0.931 . S
H232 C244 0.930 . S
H233 C246 0.930 . S
H234 C247 0.930 . S
H235 C251 0.959 . S
H236 C251 0.959 . S
H237 C251 0.961 . S
H238 C252 0.960 . S
H239 C252 0.961 . S
H240 C252 0.959 . S
H241 C255 0.929 . S
H242 C256 0.931 . S
H243 C258 0.930 . S
C244 H232 0.930 . S
C244 C245 1.399 1_565 S
C244 C249 1.399 . S
C245 C244 1.399 1_545 S
C245 C246 1.376 . S
C246 H233 0.930 . S
C246 C245 1.376 . S
C246 C247 1.388 . S
C247 H234 0.930 . S
C247 C246 1.388 . S
C247 C248 1.390 . S
C248 C247 1.390 . S
C248 C249 1.394 1_545 S
C248 C254 1.465 . S
C249 C244 1.399 . S
C249 C248 1.394 1_565 S
C249 C250 1.516 . S
C250 C249 1.516 . S
C250 C251 1.502 . S
C250 C252 1.561 . S
C250 C253 1.526 . S
C251 H235 0.959 . S
C251 H236 0.959 . S
C251 H237 0.961 . S
C251 C250 1.502 . S
C252 H238 0.960 . S
C252 H239 0.961 . S
C252 H240 0.959 . S
C252 C250 1.561 . S
C253 C250 1.526 . S
C253 C254 1.396 1_565 S
C253 C258 1.390 . S
C254 C248 1.465 . S
C254 C253 1.396 1_545 S
C254 C255 1.399 . S
C255 H241 0.929 . S
C255 C254 1.399 . S
C255 C256 1.385 . S
C256 H242 0.931 . S
C256 C255 1.385 . S
C256 C257 1.389 . S
C257 C256 1.389 . S
C257 C258 1.387 1_545 S
C258 H243 0.930 . S
C258 C253 1.390 . S
C258 C257 1.387 1_565 S
H259 C271 0.930 . S
H260 C273 0.930 . S
H261 C274 0.930 . S
H262 C278 0.959 . S
H263 C278 0.959 . S
H264 C278 0.961 . S
H265 C279 0.960 . S
H266 C279 0.961 . S
H267 C279 0.959 . S
H268 C282 0.929 . S
H269 C283 0.931 . S
H270 C285 0.930 . S
C271 H259 0.930 . S
C271 C272 1.399 . S
C271 C276 1.399 . S
C272 C271 1.399 . S
C272 C273 1.376 . S
C273 H260 0.930 . S
C273 C272 1.376 . S
C273 C274 1.388 . S
C274 H261 0.930 . S
C274 C273 1.388 . S
C274 C275 1.390 . S
C275 C274 1.390 . S
C275 C276 1.394 . S
C275 C281 1.465 . S
C276 C271 1.399 . S
C276 C275 1.394 . S
C276 C277 1.516 . S
C277 C276 1.516 . S
C277 C278 1.502 . S
C277 C279 1.561 . S
C277 C280 1.526 . S
C278 H262 0.959 . S
C278 H263 0.959 . S
C278 H264 0.961 . S
C278 C277 1.502 . S
C279 H265 0.960 . S
C279 H266 0.961 . S
C279 H267 0.959 . S
C279 C277 1.561 . S
C280 C277 1.526 . S
C280 C281 1.396 . S
C280 C285 1.390 . S
C281 C275 1.465 . S
C281 C280 1.396 . S
C281 C282 1.399 . S
C282 H268 0.929 . S
C282 C281 1.399 . S
C282 C283 1.385 . S
C283 H269 0.931 . S
C283 C282 1.385 . S
C283 C284 1.389 . S
C284 C283 1.389 . S
C284 C285 1.387 . S
C285 H270 0.930 . S
C285 C280 1.390 . S
C285 C284 1.387 . S
H286 C298 0.930 . S
H287 C300 0.930 . S
H288 C301 0.930 . S
H289 C305 0.959 . S
H290 C305 0.959 . S
H291 C305 0.961 . S
H292 C306 0.960 . S
H293 C306 0.961 . S
H294 C306 0.959 . S
H295 C309 0.929 . S
H296 C310 0.931 . S
H297 C312 0.930 . S
C298 H286 0.930 . S
C298 C299 1.399 . S
C298 C303 1.399 . S
C299 C298 1.399 . S
C299 C300 1.376 . S
C300 H287 0.930 . S
C300 C299 1.376 . S
C300 C301 1.388 . S
C301 H288 0.930 . S
C301 C300 1.388 . S
C301 C302 1.390 . S
C302 C301 1.390 . S
C302 C303 1.394 . S
C302 C308 1.465 . S
C303 C298 1.399 . S
C303 C302 1.394 . S
C303 C304 1.516 . S
C304 C303 1.516 . S
C304 C305 1.502 . S
C304 C306 1.561 . S
C304 C307 1.526 . S
C305 H289 0.959 . S
C305 H290 0.959 . S
C305 H291 0.961 . S
C305 C304 1.502 . S
C306 H292 0.960 . S
C306 H293 0.961 . S
C306 H294 0.959 . S
C306 C304 1.561 . S
C307 C304 1.526 . S
C307 C308 1.396 . S
C307 C312 1.390 . S
C308 C302 1.465 . S
C308 C307 1.396 . S
C308 C309 1.399 . S
C309 H295 0.929 . S
C309 C308 1.399 . S
C309 C310 1.385 . S
C310 H296 0.931 . S
C310 C309 1.385 . S
C310 C311 1.389 . S
C311 C310 1.389 . S
C311 C312 1.387 . S
C312 H297 0.930 . S
C312 C307 1.390 . S
C312 C311 1.387 . S
H313 C325 0.930 . S
H314 C327 0.930 . S
H315 C328 0.930 . S
H316 C332 0.959 . S
H317 C332 0.959 . S
H318 C332 0.961 . S
H319 C333 0.960 . S
H320 C333 0.961 . S
H321 C333 0.959 . S
H322 C336 0.929 . S
H323 C337 0.931 . S
H324 C339 0.930 . S
C325 H313 0.930 . S
C325 C326 1.399 1_455 S
C325 C330 1.399 . S
C326 C325 1.399 1_655 S
C326 C327 1.376 . S
C327 H314 0.930 . S
C327 C326 1.376 . S
C327 C328 1.388 . S
C328 H315 0.930 . S
C328 C327 1.388 . S
C328 C329 1.390 . S
C329 C328 1.390 . S
C329 C330 1.394 1_655 S
C329 C335 1.465 . S
C330 C325 1.399 . S
C330 C329 1.394 1_455 S
C330 C331 1.516 . S
C331 C330 1.516 . S
C331 C332 1.502 . S
C331 C333 1.561 . S
C331 C334 1.526 . S
C332 H316 0.959 . S
C332 H317 0.959 . S
C332 H318 0.961 . S
C332 C331 1.502 . S
C333 H319 0.960 . S
C333 H320 0.961 . S
C333 H321 0.959 . S
C333 C331 1.561 . S
C334 C331 1.526 . S
C334 C335 1.396 1_455 S
C334 C339 1.390 . S
C335 C329 1.465 . S
C335 C334 1.396 1_655 S
C335 C336 1.399 . S
C336 H322 0.929 . S
C336 C335 1.399 . S
C336 C337 1.385 . S
C337 H323 0.931 . S
C337 C336 1.385 . S
C337 C338 1.389 . S
C338 C337 1.389 . S
C338 C339 1.387 1_655 S
C339 H324 0.930 . S
C339 C334 1.390 . S
C339 C338 1.387 1_455 S
H340 C352 0.930 . S
H341 C354 0.930 . S
H342 C355 0.930 . S
H343 C359 0.959 . S
H344 C359 0.959 1_556 S
H345 C359 0.961 . S
H346 C360 0.960 . S
H347 C360 0.961 1_556 S
H348 C360 0.959 . S
H349 C363 0.929 . S
H350 C364 0.931 . S
H351 C366 0.930 . S
C352 H340 0.930 . S
C352 C353 1.399 1_565 S
C352 C357 1.398 1_565 S
C353 C352 1.399 1_545 S
C353 C354 1.376 . S
C354 H341 0.930 . S
C354 C353 1.376 . S
C354 C355 1.388 . S
C355 H342 0.930 . S
C355 C354 1.388 . S
C355 C356 1.390 . S
C356 C355 1.390 . S
C356 C357 1.395 . S
C356 C362 1.465 . S
C357 C352 1.398 1_545 S
C357 C356 1.395 . S
C357 C358 1.516 1_545 S
C358 C357 1.516 1_565 S
C358 C359 1.502 . S
C358 C360 1.561 1_565 S
C358 C361 1.525 1_565 S
C359 H343 0.959 . S
C359 H344 0.959 1_554 S
C359 H345 0.961 . S
C359 C358 1.502 . S
C360 H346 0.960 . S
C360 H347 0.961 1_554 S
C360 H348 0.959 . S
C360 C358 1.561 1_545 S
C361 C358 1.525 1_545 S
C361 C362 1.397 . S
C361 C366 1.389 1_544 S
C362 C356 1.465 . S
C362 C361 1.397 . S
C362 C363 1.399 . S
C363 H349 0.929 . S
C363 C362 1.399 . S
C363 C364 1.385 1_554 S
C364 H350 0.931 . S
C364 C363 1.385 1_556 S
C364 C365 1.389 . S
C365 C364 1.389 . S
C365 C366 1.387 1_545 S
C366 H351 0.930 . S
C366 C361 1.389 1_566 S
C366 C365 1.387 1_565 S
H367 C379 0.930 . S
H368 C381 0.930 . S
H369 C382 0.930 . S
H370 C386 0.959 . S
H371 C386 0.959 1_556 S
H372 C386 0.961 . S
H373 C387 0.960 . S
H374 C387 0.961 . S
H375 C387 0.959 . S
H376 C390 0.929 . S
H377 C391 0.931 . S
H378 C393 0.930 . S
C379 H367 0.930 . S
C379 C380 1.399 . S
C379 C384 1.399 . S
C380 C379 1.399 . S
C380 C381 1.376 . S
C381 H368 0.930 . S
C381 C380 1.376 . S
C381 C382 1.388 . S
C382 H369 0.930 . S
C382 C381 1.388 . S
C382 C383 1.390 . S
C383 C382 1.390 . S
C383 C384 1.394 . S
C383 C389 1.465 . S
C384 C379 1.399 . S
C384 C383 1.394 . S
C384 C385 1.516 . S
C385 C384 1.516 . S
C385 C386 1.502 . S
C385 C387 1.561 . S
C385 C388 1.526 . S
C386 H370 0.959 . S
C386 H371 0.959 1_554 S
C386 H372 0.961 . S
C386 C385 1.502 . S
C387 H373 0.960 . S
C387 H374 0.961 . S
C387 H375 0.959 . S
C387 C385 1.561 . S
C388 C385 1.526 . S
C388 C389 1.396 . S
C388 C393 1.390 1_554 S
C389 C383 1.465 . S
C389 C388 1.396 . S
C389 C390 1.399 . S
C390 H376 0.929 . S
C390 C389 1.399 . S
C390 C391 1.385 1_554 S
C391 H377 0.931 . S
C391 C390 1.385 1_556 S
C391 C392 1.389 . S
C392 C391 1.389 . S
C392 C393 1.387 . S
C393 H378 0.930 . S
C393 C388 1.390 1_556 S
C393 C392 1.387 . S
H394 C406 0.930 . S
H395 C408 0.930 . S
H396 C409 0.930 . S
H397 C413 0.959 . S
H398 C413 0.959 1_556 S
H399 C413 0.961 . S
H400 C414 0.960 . S
H401 C414 0.961 . S
H402 C414 0.959 . S
H403 C417 0.929 . S
H404 C418 0.931 . S
H405 C420 0.930 . S
C406 H394 0.930 . S
C406 C407 1.399 . S
C406 C411 1.399 . S
C407 C406 1.399 . S
C407 C408 1.376 . S
C408 H395 0.930 . S
C408 C407 1.376 . S
C408 C409 1.388 . S
C409 H396 0.930 . S
C409 C408 1.388 . S
C409 C410 1.390 . S
C410 C409 1.390 . S
C410 C411 1.394 . S
C410 C416 1.465 . S
C411 C406 1.399 . S
C411 C410 1.394 . S
C411 C412 1.516 . S
C412 C411 1.516 . S
C412 C413 1.502 . S
C412 C414 1.561 . S
C412 C415 1.526 . S
C413 H397 0.959 . S
C413 H398 0.959 1_554 S
C413 H399 0.961 . S
C413 C412 1.502 . S
C414 H400 0.960 . S
C414 H401 0.961 . S
C414 H402 0.959 . S
C414 C412 1.561 . S
C415 C412 1.526 . S
C415 C416 1.396 . S
C415 C420 1.390 1_554 S
C416 C410 1.465 . S
C416 C415 1.396 . S
C416 C417 1.399 . S
C417 H403 0.929 . S
C417 C416 1.399 . S
C417 C418 1.385 1_554 S
C418 H404 0.931 . S
C418 C417 1.385 1_556 S
C418 C419 1.389 . S
C419 C418 1.389 . S
C419 C420 1.387 . S
C420 H405 0.930 . S
C420 C415 1.390 1_556 S
C420 C419 1.387 . S
H421 C433 0.930 . S
H422 C435 0.930 . S
H423 C436 0.930 . S
H424 C440 0.959 . S
H425 C440 0.959 . S
H426 C440 0.961 . S
H427 C441 0.960 . S
H428 C441 0.961 . S
H429 C441 0.959 . S
H430 C444 0.929 . S
H431 C445 0.931 . S
H432 C447 0.930 1_554 S
C433 H421 0.930 . S
C433 C434 1.399 1_455 S
C433 C438 1.399 . S
C434 C433 1.399 1_655 S
C434 C435 1.376 . S
C435 H422 0.930 . S
C435 C434 1.376 . S
C435 C436 1.388 . S
C436 H423 0.930 . S
C436 C435 1.388 . S
C436 C437 1.390 . S
C437 C436 1.390 . S
C437 C438 1.394 1_655 S
C437 C443 1.465 . S
C438 C433 1.399 . S
C438 C437 1.394 1_455 S
C438 C439 1.516 . S
C439 C438 1.516 . S
C439 C440 1.502 . S
C439 C441 1.561 1_455 S
C439 C442 1.526 . S
C440 H424 0.959 . S
C440 H425 0.959 . S
C440 H426 0.961 . S
C440 C439 1.502 . S
C441 H427 0.960 . S
C441 H428 0.961 . S
C441 H429 0.959 . S
C441 C439 1.561 1_655 S
C442 C439 1.526 . S
C442 C443 1.396 1_455 S
C442 C447 1.390 1_554 S
C443 C437 1.465 . S
C443 C442 1.396 1_655 S
C443 C444 1.399 1_554 S
C444 H430 0.929 . S
C444 C443 1.399 1_556 S
C444 C445 1.385 . S
C445 H431 0.931 . S
C445 C444 1.385 . S
C445 C446 1.389 . S
C446 C445 1.389 . S
C446 C447 1.387 1_655 S
C447 H432 0.930 1_556 S
C447 C442 1.390 1_556 S
C447 C446 1.387 1_455 S
H448 C460 0.930 . S
H449 C462 0.930 . S
H450 C463 0.930 . S
H451 C467 0.959 . S
H452 C467 0.959 . S
H453 C467 0.961 . S
H454 C468 0.960 . S
H455 C468 0.961 . S
H456 C468 0.959 . S
H457 C471 0.929 1_455 S
H458 C472 0.931 . S
H459 C474 0.930 . S
C460 H448 0.930 . S
C460 C461 1.399 1_655 S
C460 C465 1.399 . S
C461 C460 1.399 1_455 S
C461 C462 1.376 . S
C462 H449 0.930 . S
C462 C461 1.376 . S
C462 C463 1.388 . S
C463 H450 0.930 . S
C463 C462 1.388 . S
C463 C464 1.390 1_455 S
C464 C463 1.390 1_655 S
C464 C465 1.394 . S
C464 C470 1.465 . S
C465 C460 1.399 . S
C465 C464 1.394 . S
C465 C466 1.516 . S
C466 C465 1.516 . S
C466 C467 1.502 . S
C466 C468 1.561 . S
C466 C469 1.526 . S
C467 H451 0.959 . S
C467 H452 0.959 . S
C467 H453 0.961 . S
C467 C466 1.502 . S
C468 H454 0.960 . S
C468 H455 0.961 . S
C468 H456 0.959 . S
C468 C466 1.561 . S
C469 C466 1.526 . S
C469 C470 1.396 . S
C469 C474 1.390 . S
C470 C464 1.465 . S
C470 C469 1.396 . S
C470 C471 1.399 . S
C471 H457 0.929 1_655 S
C471 C470 1.399 . S
C471 C472 1.385 . S
C472 H458 0.931 . S
C472 C471 1.385 . S
C472 C473 1.389 . S
C473 C472 1.389 . S
C473 C474 1.387 . S
C474 H459 0.930 . S
C474 C469 1.390 . S
C474 C473 1.387 . S
H475 C487 0.930 . S
H476 C489 0.930 . S
H477 C490 0.930 . S
H478 C494 0.959 . S
H479 C494 0.959 . S
H480 C494 0.961 . S
H481 C495 0.960 . S
H482 C495 0.961 . S
H483 C495 0.959 . S
H484 C498 0.929 . S
H485 C499 0.931 . S
H486 C501 0.930 . S
C487 H475 0.930 . S
C487 C488 1.399 1_565 S
C487 C492 1.399 . S
C488 C487 1.399 1_545 S
C488 C489 1.376 . S
C489 H476 0.930 . S
C489 C488 1.376 . S
C489 C490 1.388 . S
C490 H477 0.930 . S
C490 C489 1.388 . S
C490 C491 1.390 1_545 S
C491 C490 1.390 1_565 S
C491 C492 1.394 . S
C491 C497 1.465 . S
C492 C487 1.399 . S
C492 C491 1.394 . S
C492 C493 1.516 . S
C493 C492 1.516 . S
C493 C494 1.502 . S
C493 C495 1.561 . S
C493 C496 1.526 . S
C494 H478 0.959 . S
C494 H479 0.959 . S
C494 H480 0.961 . S
C494 C493 1.502 . S
C495 H481 0.960 . S
C495 H482 0.961 . S
C495 H483 0.959 . S
C495 C493 1.561 . S
C496 C493 1.526 . S
C496 C497 1.396 . S
C496 C501 1.390 . S
C497 C491 1.465 . S
C497 C496 1.396 . S
C497 C498 1.399 . S
C498 H484 0.929 . S
C498 C497 1.399 . S
C498 C499 1.385 . S
C499 H485 0.931 . S
C499 C498 1.385 . S
C499 C500 1.389 . S
C500 C499 1.389 . S
C500 C501 1.387 . S
C501 H486 0.930 . S
C501 C496 1.390 . S
C501 C500 1.387 . S
H502 C514 0.930 . S
H503 C516 0.930 . S
H504 C517 0.930 . S
H505 C521 0.959 . S
H506 C521 0.959 . S
H507 C521 0.961 . S
H508 C522 0.960 . S
H509 C522 0.961 . S
H510 C522 0.959 . S
H511 C525 0.929 . S
H512 C526 0.931 . S
H513 C528 0.930 . S
C514 H502 0.930 . S
C514 C515 1.399 . S
C514 C519 1.399 . S
C515 C514 1.399 . S
C515 C516 1.376 . S
C516 H503 0.930 . S
C516 C515 1.376 . S
C516 C517 1.388 . S
C517 H504 0.930 . S
C517 C516 1.388 . S
C517 C518 1.390 . S
C518 C517 1.390 . S
C518 C519 1.394 . S
C518 C524 1.465 . S
C519 C514 1.399 . S
C519 C518 1.394 . S
C519 C520 1.516 . S
C520 C519 1.516 . S
C520 C521 1.502 . S
C520 C522 1.561 . S
C520 C523 1.526 . S
C521 H505 0.959 . S
C521 H506 0.959 . S
C521 H507 0.961 . S
C521 C520 1.502 . S
C522 H508 0.960 . S
C522 H509 0.961 . S
C522 H510 0.959 . S
C522 C520 1.561 . S
C523 C520 1.526 . S
C523 C524 1.396 . S
C523 C528 1.390 . S
C524 C518 1.465 . S
C524 C523 1.396 . S
C524 C525 1.399 . S
C525 H511 0.929 . S
C525 C524 1.399 . S
C525 C526 1.385 . S
C526 H512 0.931 . S
C526 C525 1.385 . S
C526 C527 1.389 . S
C527 C526 1.389 . S
C527 C528 1.387 . S
C528 H513 0.930 . S
C528 C523 1.390 . S
C528 C527 1.387 . S
H529 C541 0.930 . S
H530 C543 0.930 . S
H531 C544 0.930 . S
H532 C548 0.959 . S
H533 C548 0.959 . S
H534 C548 0.961 . S
H535 C549 0.960 . S
H536 C549 0.961 . S
H537 C549 0.959 . S
H538 C552 0.929 . S
H539 C553 0.931 . S
H540 C555 0.930 . S
C541 H529 0.930 . S
C541 C542 1.399 . S
C541 C546 1.399 . S
C542 C541 1.399 . S
C542 C543 1.376 . S
C543 H530 0.930 . S
C543 C542 1.376 . S
C543 C544 1.388 . S
C544 H531 0.930 . S
C544 C543 1.388 . S
C544 C545 1.390 . S
C545 C544 1.390 . S
C545 C546 1.394 . S
C545 C551 1.465 . S
C546 C541 1.399 . S
C546 C545 1.394 . S
C546 C547 1.516 . S
C547 C546 1.516 . S
C547 C548 1.502 . S
C547 C549 1.561 . S
C547 C550 1.526 . S
C548 H532 0.959 . S
C548 H533 0.959 . S
C548 H534 0.961 . S
C548 C547 1.502 . S
C549 H535 0.960 . S
C549 H536 0.961 . S
C549 H537 0.959 . S
C549 C547 1.561 . S
C550 C547 1.526 . S
C550 C551 1.396 . S
C550 C555 1.390 . S
C551 C545 1.465 . S
C551 C550 1.396 . S
C551 C552 1.399 . S
C552 H538 0.929 . S
C552 C551 1.399 . S
C552 C553 1.385 . S
C553 H539 0.931 . S
C553 C552 1.385 . S
C553 C554 1.389 . S
C554 C553 1.389 . S
C554 C555 1.387 . S
C555 H540 0.930 . S
C555 C550 1.390 . S
C555 C554 1.387 . S
H556 C568 0.930 . S
H557 C570 0.930 . S
H558 C571 0.930 . S
H559 C575 0.959 . S
H560 C575 0.959 . S
H561 C575 0.961 . S
H562 C576 0.960 . S
H563 C576 0.961 . S
H564 C576 0.989 . S
H565 C579 0.929 . S
H566 C580 0.931 . S
H567 C582 0.930 . S
C568 H556 0.930 . S
C568 C569 1.399 1_655 S
C568 C573 1.399 1_655 S
C569 C568 1.399 1_455 S
C569 C570 1.377 . S
C570 H557 0.930 . S
C570 C569 1.377 . S
C570 C571 1.388 . S
C571 H558 0.930 . S
C571 C570 1.388 . S
C571 C572 1.390 . S
C572 C571 1.390 . S
C572 C573 1.394 . S
C572 C578 1.465 . S
C573 C568 1.399 1_455 S
C573 C572 1.394 . S
C573 C574 1.516 1_455 S
C574 C573 1.516 1_655 S
C574 C575 1.502 . S
C574 C576 1.561 . S
C574 C577 1.526 1_655 S
C575 H559 0.959 . S
C575 H560 0.959 . S
C575 H561 0.961 . S
C575 C574 1.502 . S
C576 H562 0.960 . S
C576 H563 0.961 . S
C576 H564 0.989 . S
C576 C574 1.561 . S
C577 C574 1.526 1_455 S
C577 C578 1.396 . S
C577 C582 1.390 . S
C578 C572 1.465 . S
C578 C577 1.396 . S
C578 C579 1.399 . S
C579 H565 0.929 . S
C579 C578 1.399 . S
C579 C580 1.385 . S
C580 H566 0.931 . S
C580 C579 1.385 . S
C580 C581 1.389 . S
C581 C580 1.389 . S
C581 C582 1.387 . S
C582 H567 0.930 . S
C582 C577 1.390 . S
C582 C581 1.387 . S
H583 C595 0.930 . S
H584 C597 0.930 . S
H585 C598 0.930 . S
H586 C602 0.959 . S
H587 C602 0.959 1_556 S
H588 C602 0.945 1_565 S
H589 C603 0.960 . S
H590 C603 0.961 . S
H591 C603 0.959 . S
H592 C606 0.929 . S
H593 C607 0.931 . S
H594 C609 0.930 1_556 S
C595 H583 0.930 . S
C595 C596 1.399 . S
C595 C600 1.399 1_565 S
C596 C595 1.399 . S
C596 C597 1.376 1_565 S
C597 H584 0.930 . S
C597 C596 1.376 1_545 S
C597 C598 1.388 . S
C598 H585 0.930 . S
C598 C597 1.388 . S
C598 C599 1.390 . S
C599 C598 1.390 . S
C599 C600 1.394 . S
C599 C605 1.465 . S
C600 C595 1.399 1_545 S
C600 C599 1.394 . S
C600 C601 1.516 . S
C601 C600 1.516 . S
C601 C602 1.502 . S
C601 C603 1.561 1_545 S
C601 C604 1.526 . S
C602 H586 0.959 . S
C602 H587 0.959 1_554 S
C602 H588 0.945 1_545 S
C602 C601 1.502 . S
C603 H589 0.960 . S
C603 H590 0.961 . S
C603 H591 0.959 . S
C603 C601 1.561 1_565 S
C604 C601 1.526 . S
C604 C605 1.396 . S
C604 C609 1.390 . S
C605 C599 1.465 . S
C605 C604 1.396 . S
C605 C606 1.399 . S
C606 H592 0.929 . S
C606 C605 1.399 . S
C606 C607 1.385 . S
C607 H593 0.931 . S
C607 C606 1.385 . S
C607 C608 1.389 . S
C608 C607 1.389 . S
C608 C609 1.387 . S
C609 H594 0.930 1_554 S
C609 C604 1.390 . S
C609 C608 1.387 . S
H610 C622 0.930 . S
H611 C624 0.930 . S
H612 C625 0.930 . S
H613 C629 0.959 . S
H614 C629 0.959 . S
H615 C629 0.961 . S
H616 C630 0.960 . S
H617 C630 0.961 . S
H618 C630 0.959 . S
H619 C633 0.929 . S
H620 C634 0.931 . S
H621 C636 0.930 . S
C622 H610 0.930 . S
C622 C623 1.399 . S
C622 C627 1.399 . S
C623 C622 1.399 . S
C623 C624 1.376 . S
C624 H611 0.930 . S
C624 C623 1.376 . S
C624 C625 1.388 . S
C625 H612 0.930 . S
C625 C624 1.388 . S
C625 C626 1.390 . S
C626 C625 1.390 . S
C626 C627 1.394 . S
C626 C632 1.465 . S
C627 C622 1.399 . S
C627 C626 1.394 . S
C627 C628 1.516 . S
C628 C627 1.516 . S
C628 C629 1.502 . S
C628 C630 1.561 . S
C628 C631 1.526 . S
C629 H613 0.959 . S
C629 H614 0.959 . S
C629 H615 0.961 . S
C629 C628 1.502 . S
C630 H616 0.960 . S
C630 H617 0.961 . S
C630 H618 0.959 . S
C630 C628 1.561 . S
C631 C628 1.526 . S
C631 C632 1.396 . S
C631 C636 1.390 . S
C632 C626 1.465 . S
C632 C631 1.396 . S
C632 C633 1.399 . S
C633 H619 0.929 . S
C633 C632 1.399 . S
C633 C634 1.385 . S
C634 H620 0.931 . S
C634 C633 1.385 . S
C634 C635 1.389 . S
C635 C634 1.389 . S
C635 C636 1.387 . S
C636 H621 0.930 . S
C636 C631 1.390 . S
C636 C635 1.387 . S
H637 C649 0.930 . S
H638 C651 0.930 . S
H639 C652 0.930 . S
H640 C656 0.959 . S
H641 C656 0.959 . S
H642 C656 0.961 . S
H643 C657 0.960 . S
H644 C657 0.961 . S
H645 C657 0.959 . S
H646 C660 0.929 . S
H647 C661 0.931 1_556 S
H648 C663 0.930 . S
C649 H637 0.930 . S
C649 C650 1.399 . S
C649 C654 1.399 . S
C650 C649 1.399 . S
C650 C651 1.376 . S
C651 H638 0.930 . S
C651 C650 1.376 . S
C651 C652 1.388 . S
C652 H639 0.930 . S
C652 C651 1.388 . S
C652 C653 1.390 . S
C653 C652 1.390 . S
C653 C654 1.394 . S
C653 C659 1.465 . S
C654 C649 1.399 . S
C654 C653 1.394 . S
C654 C655 1.516 . S
C655 C654 1.516 . S
C655 C656 1.502 . S
C655 C657 1.561 . S
C655 C658 1.526 . S
C656 H640 0.959 . S
C656 H641 0.959 . S
C656 H642 0.961 . S
C656 C655 1.502 . S
C657 H643 0.960 . S
C657 H644 0.961 . S
C657 H645 0.959 . S
C657 C655 1.561 . S
C658 C655 1.526 . S
C658 C659 1.396 . S
C658 C663 1.390 . S
C659 C653 1.465 . S
C659 C658 1.396 . S
C659 C660 1.399 . S
C660 H646 0.929 . S
C660 C659 1.399 . S
C660 C661 1.385 . S
C661 H647 0.931 1_554 S
C661 C660 1.385 . S
C661 C662 1.389 . S
C662 C661 1.389 . S
C662 C663 1.387 . S
C663 H648 0.930 . S
C663 C658 1.390 . S
C663 C662 1.387 . S
H664 C676 0.930 . S
H665 C678 0.930 . S
H666 C679 0.930 . S
H667 C683 0.959 . S
H668 C683 0.959 . S
H669 C683 0.961 . S
H670 C684 0.960 . S
H671 C684 0.961 . S
H672 C684 0.959 1_455 S
H673 C687 0.929 . S
H674 C688 0.931 . S
H675 C690 0.930 . S
C676 H664 0.930 . S
C676 C677 1.399 1_655 S
C676 C681 1.399 . S
C677 C676 1.399 1_455 S
C677 C678 1.376 . S
C678 H665 0.930 . S
C678 C677 1.376 . S
C678 C679 1.388 . S
C679 H666 0.930 . S
C679 C678 1.388 . S
C679 C680 1.390 . S
C680 C679 1.390 . S
C680 C681 1.394 1_455 S
C680 C686 1.465 . S
C681 C676 1.399 . S
C681 C680 1.394 1_655 S
C681 C682 1.516 . S
C682 C681 1.516 . S
C682 C683 1.502 . S
C682 C684 1.561 . S
C682 C685 1.526 . S
C683 H667 0.959 . S
C683 H668 0.959 . S
C683 H669 0.961 . S
C683 C682 1.502 . S
C684 H670 0.960 . S
C684 H671 0.961 . S
C684 H672 0.959 1_655 S
C684 C682 1.561 . S
C685 C682 1.526 . S
C685 C686 1.396 1_655 S
C685 C690 1.390 . S
C686 C680 1.465 . S
C686 C685 1.396 1_455 S
C686 C687 1.399 . S
C687 H673 0.929 . S
C687 C686 1.399 . S
C687 C688 1.385 . S
C688 H674 0.931 . S
C688 C687 1.385 . S
C688 C689 1.389 . S
C689 C688 1.389 . S
C689 C690 1.387 1_455 S
C690 H675 0.930 . S
C690 C685 1.390 . S
C690 C689 1.387 1_655 S
H691 C703 0.930 . S
H692 C705 0.930 . S
H693 C706 0.930 . S
H694 C710 0.959 . S
H695 C710 0.959 . S
H696 C710 0.961 . S
H697 C711 0.960 . S
H698 C711 0.961 . S
H699 C711 0.959 . S
H700 C714 0.929 . S
H701 C715 0.931 . S
H702 C717 0.930 . S
C703 H691 0.930 . S
C703 C704 1.389 1_545 S
C703 C708 1.399 . S
C704 C703 1.389 1_565 S
C704 C705 1.389 . S
C705 H692 0.930 . S
C705 C704 1.389 . S
C705 C706 1.388 . S
C706 H693 0.930 . S
C706 C705 1.388 . S
C706 C707 1.390 . S
C707 C706 1.390 . S
C707 C708 1.394 1_565 S
C707 C713 1.465 . S
C708 C703 1.399 . S
C708 C707 1.394 1_545 S
C708 C709 1.516 . S
C709 C708 1.516 . S
C709 C710 1.502 . S
C709 C711 1.561 . S
C709 C712 1.526 . S
C710 H694 0.959 . S
C710 H695 0.959 . S
C710 H696 0.961 . S
C710 C709 1.502 . S
C711 H697 0.960 . S
C711 H698 0.961 . S
C711 H699 0.959 . S
C711 C709 1.561 . S
C712 C709 1.526 . S
C712 C713 1.396 1_545 S
C712 C717 1.390 . S
C713 C707 1.465 . S
C713 C712 1.396 1_565 S
C713 C714 1.399 . S
C714 H700 0.929 . S
C714 C713 1.399 . S
C714 C715 1.385 . S
C715 H701 0.931 . S
C715 C714 1.385 . S
C715 C716 1.389 1_565 S
C716 C715 1.389 1_545 S
C716 C717 1.387 . S
C717 H702 0.930 . S
C717 C712 1.390 . S
C717 C716 1.387 . S
H718 C730 0.930 . S
H719 C732 0.930 . S
H720 C733 0.930 . S
H721 C737 0.959 . S
H722 C737 0.959 1_554 S
H723 C737 0.961 1_554 S
H724 C738 0.960 . S
H725 C738 0.961 . S
H726 C738 0.959 . S
H727 C741 0.929 . S
H728 C742 0.931 . S
H729 C744 0.930 . S
C730 H718 0.930 . S
C730 C731 1.399 . S
C730 C735 1.399 . S
C731 C730 1.399 . S
C731 C732 1.376 . S
C732 H719 0.930 . S
C732 C731 1.376 . S
C732 C733 1.388 . S
C733 H720 0.930 . S
C733 C732 1.388 . S
C733 C734 1.390 . S
C734 C733 1.390 . S
C734 C735 1.394 . S
C734 C740 1.465 . S
C735 C730 1.399 . S
C735 C734 1.394 . S
C735 C736 1.516 . S
C736 C735 1.516 . S
C736 C737 1.502 . S
C736 C738 1.561 1_556 S
C736 C739 1.526 . S
C737 H721 0.959 . S
C737 H722 0.959 1_556 S
C737 H723 0.961 1_556 S
C737 C736 1.502 . S
C738 H724 0.960 . S
C738 H725 0.961 . S
C738 H726 0.959 . S
C738 C736 1.561 1_554 S
C739 C736 1.526 . S
C739 C740 1.396 . S
C739 C744 1.390 . S
C740 C734 1.465 . S
C740 C739 1.396 . S
C740 C741 1.399 . S
C741 H727 0.929 . S
C741 C740 1.399 . S
C741 C742 1.385 . S
C742 H728 0.931 . S
C742 C741 1.385 . S
C742 C743 1.389 . S
C743 C742 1.389 . S
C743 C744 1.387 . S
C744 H729 0.930 . S
C744 C739 1.390 . S
C744 C743 1.387 . S
H745 C757 0.930 . S
H746 C759 0.930 . S
H747 C760 0.930 . S
H748 C764 0.959 . S
H749 C764 0.959 . S
H750 C764 0.961 . S
H751 C765 0.960 . S
H752 C765 0.961 . S
H753 C765 0.959 . S
H754 C768 0.929 . S
H755 C769 0.931 . S
H756 C771 0.930 . S
C757 H745 0.930 . S
C757 C758 1.399 . S
C757 C762 1.399 . S
C758 C757 1.399 . S
C758 C759 1.376 . S
C759 H746 0.930 . S
C759 C758 1.376 . S
C759 C760 1.388 . S
C760 H747 0.930 . S
C760 C759 1.388 . S
C760 C761 1.390 . S
C761 C760 1.390 . S
C761 C762 1.394 . S
C761 C767 1.465 . S
C762 C757 1.399 . S
C762 C761 1.394 . S
C762 C763 1.516 . S
C763 C762 1.516 . S
C763 C764 1.502 . S
C763 C765 1.561 . S
C763 C766 1.526 . S
C764 H748 0.959 . S
C764 H749 0.959 . S
C764 H750 0.961 . S
C764 C763 1.502 . S
C765 H751 0.960 . S
C765 H752 0.961 . S
C765 H753 0.959 . S
C765 C763 1.561 . S
C766 C763 1.526 . S
C766 C767 1.396 . S
C766 C771 1.390 . S
C767 C761 1.465 . S
C767 C766 1.396 . S
C767 C768 1.399 . S
C768 H754 0.929 . S
C768 C767 1.399 . S
C768 C769 1.385 . S
C769 H755 0.931 . S
C769 C768 1.385 . S
C769 C770 1.389 . S
C770 C769 1.389 . S
C770 C771 1.387 . S
C771 H756 0.930 . S
C771 C766 1.390 . S
C771 C770 1.387 . S
H772 C784 0.930 . S
H773 C786 0.930 . S
H774 C787 0.930 . S
H775 C791 0.959 . S
H776 C791 0.959 . S
H777 C791 0.961 . S
H778 C792 0.960 . S
H779 C792 0.961 . S
H780 C792 0.959 . S
H781 C795 0.929 . S
H782 C796 0.931 . S
H783 C798 0.930 . S
C784 H772 0.930 . S
C784 C785 1.374 1_655 S
C784 C789 1.399 . S
C785 C784 1.374 1_455 S
C785 C786 1.407 . S
C786 H773 0.930 . S
C786 C785 1.407 . S
C786 C787 1.388 . S
C787 H774 0.930 . S
C787 C786 1.388 . S
C787 C788 1.390 . S
C788 C787 1.390 . S
C788 C789 1.394 1_455 S
C788 C794 1.465 . S
C789 C784 1.399 . S
C789 C788 1.394 1_655 S
C789 C790 1.516 . S
C790 C789 1.516 . S
C790 C791 1.502 . S
C790 C792 1.561 . S
C790 C793 1.526 . S
C791 H775 0.959 . S
C791 H776 0.959 . S
C791 H777 0.961 . S
C791 C790 1.502 . S
C792 H778 0.960 . S
C792 H779 0.961 . S
C792 H780 0.959 . S
C792 C790 1.561 . S
C793 C790 1.526 . S
C793 C794 1.396 1_655 S
C793 C798 1.390 . S
C794 C788 1.465 . S
C794 C793 1.396 1_455 S
C794 C795 1.399 . S
C795 H781 0.929 . S
C795 C794 1.399 . S
C795 C796 1.385 . S
C796 H782 0.931 . S
C796 C795 1.385 . S
C796 C797 1.389 1_455 S
C797 C796 1.389 1_655 S
C797 C798 1.387 . S
C798 H783 0.930 . S
C798 C793 1.390 . S
C798 C797 1.387 . S
H799 C811 0.930 . S
H800 C813 0.930 . S
H801 C814 0.930 . S
H802 C818 0.959 . S
H803 C818 0.959 . S
H804 C818 0.961 . S
H805 C819 0.960 . S
H806 C819 0.961 . S
H807 C819 0.959 . S
H808 C822 0.929 . S
H809 C823 0.931 . S
H810 C825 0.930 . S
C811 H799 0.930 . S
C811 C812 1.399 . S
C811 C816 1.399 . S
C812 C811 1.399 . S
C812 C813 1.376 . S
C813 H800 0.930 . S
C813 C812 1.376 . S
C813 C814 1.388 . S
C814 H801 0.930 . S
C814 C813 1.388 . S
C814 C815 1.390 . S
C815 C814 1.390 . S
C815 C816 1.394 . S
C815 C821 1.465 . S
C816 C811 1.399 . S
C816 C815 1.394 . S
C816 C817 1.516 . S
C817 C816 1.516 . S
C817 C818 1.502 1_565 S
C817 C819 1.561 . S
C817 C820 1.526 . S
C818 H802 0.959 . S
C818 H803 0.959 . S
C818 H804 0.961 . S
C818 C817 1.502 1_545 S
C819 H805 0.960 . S
C819 H806 0.961 . S
C819 H807 0.959 . S
C819 C817 1.561 . S
C820 C817 1.526 . S
C820 C821 1.396 . S
C820 C825 1.390 . S
C821 C815 1.465 . S
C821 C820 1.396 . S
C821 C822 1.399 . S
C822 H808 0.929 . S
C822 C821 1.399 . S
C822 C823 1.385 . S
C823 H809 0.931 . S
C823 C822 1.385 . S
C823 C824 1.389 . S
C824 C823 1.389 . S
C824 C825 1.387 . S
C825 H810 0.930 . S
C825 C820 1.390 . S
C825 C824 1.387 . S
H826 C838 0.930 . S
H827 C840 0.930 . S
H828 C841 0.930 . S
H829 C845 0.959 . S
H830 C845 0.959 . S
H831 C845 0.961 . S
H832 C846 0.960 . S
H833 C846 0.961 . S
H834 C846 0.959 . S
H835 C849 0.929 . S
H836 C850 0.931 . S
H837 C852 0.930 . S
C838 H826 0.930 . S
C838 C839 1.399 . S
C838 C843 1.399 . S
C839 C838 1.399 . S
C839 C840 1.376 . S
C840 H827 0.930 . S
C840 C839 1.376 . S
C840 C841 1.388 . S
C841 H828 0.930 . S
C841 C840 1.388 . S
C841 C842 1.390 . S
C842 C841 1.390 . S
C842 C843 1.394 . S
C842 C848 1.465 . S
C843 C838 1.399 . S
C843 C842 1.394 . S
C843 C844 1.516 . S
C844 C843 1.516 . S
C844 C845 1.502 . S
C844 C846 1.561 . S
C844 C847 1.526 . S
C845 H829 0.959 . S
C845 H830 0.959 . S
C845 H831 0.961 . S
C845 C844 1.502 . S
C846 H832 0.960 . S
C846 H833 0.961 . S
C846 H834 0.959 . S
C846 C844 1.561 . S
C847 C844 1.526 . S
C847 C848 1.396 . S
C847 C852 1.390 . S
C848 C842 1.465 . S
C848 C847 1.396 . S
C848 C849 1.399 . S
C849 H835 0.929 . S
C849 C848 1.399 . S
C849 C850 1.385 . S
C850 H836 0.931 . S
C850 C849 1.385 . S
C850 C851 1.389 . S
C851 C850 1.389 . S
C851 C852 1.387 . S
C852 H837 0.930 . S
C852 C847 1.390 . S
C852 C851 1.387 . S
H853 C865 0.930 . S
H854 C867 0.930 . S
H855 C868 0.930 . S
H856 C872 0.959 . S
H857 C872 0.959 . S
H858 C872 0.961 . S
H859 C873 0.960 . S
H860 C873 0.961 . S
H861 C873 0.959 . S
H862 C876 0.929 . S
H863 C877 0.931 . S
H864 C879 0.930 . S
C865 H853 0.930 . S
C865 C866 1.399 . S
C865 C870 1.399 . S
C866 C865 1.399 . S
C866 C867 1.376 . S
C867 H854 0.930 . S
C867 C866 1.376 . S
C867 C868 1.388 . S
C868 H855 0.930 . S
C868 C867 1.388 . S
C868 C869 1.390 . S
C869 C868 1.390 . S
C869 C870 1.394 . S
C869 C875 1.465 . S
C870 C865 1.399 . S
C870 C869 1.394 . S
C870 C871 1.516 . S
C871 C870 1.516 . S
C871 C872 1.502 . S
C871 C873 1.561 . S
C871 C874 1.526 . S
C872 H856 0.959 . S
C872 H857 0.959 . S
C872 H858 0.961 . S
C872 C871 1.502 . S
C873 H859 0.960 . S
C873 H860 0.961 . S
C873 H861 0.959 . S
C873 C871 1.561 . S
C874 C871 1.526 . S
C874 C875 1.396 . S
C874 C879 1.390 . S
C875 C869 1.465 . S
C875 C874 1.396 . S
C875 C876 1.399 . S
C876 H862 0.929 . S
C876 C875 1.399 . S
C876 C877 1.385 . S
C877 H863 0.931 . S
C877 C876 1.385 . S
C877 C878 1.389 . S
C878 C877 1.389 . S
C878 C879 1.387 . S
C879 H864 0.930 . S
C879 C874 1.390 . S
C879 C878 1.387 . S
C245 C61 1.783 1_545 S
C257 C90 1.962 1_545 S
C284 C130 1.990 . S
C272 C70 1.850 . S
C311 C170 1.996 . S
C299 C43 1.811 . S
C338 C210 1.968 1_655 S
C326 C52 1.828 . S
C365 C80 1.964 . S
C353 C25 1.849 1_545 S
C380 C34 1.884 . S
C392 C120 1.992 . S
C407 C7 1.868 . S
C419 C160 2.000 . S
C434 C16 1.796 . S
C446 C200 1.974 1_655 S
C473 C77 0.380 . S
C461 C50 0.480 1_455 S
C500 C117 0.436 . S
C488 C59 0.439 1_545 S
C527 C157 0.561 . S
C515 C67 0.379 . S
C542 C41 0.464 . S
C554 C197 0.548 . S
C569 C14 0.356 1_455 S
C581 C87 0.587 . S
C608 C127 0.522 . S
C596 C23 0.416 . S
C635 C167 0.384 . S
C623 C31 0.529 . S
C650 C5 0.424 . S
C662 C207 0.545 . S
C677 C49 2.041 1_455 S
C689 C81 2.282 . S
C704 C58 1.975 . S
C716 C121 2.196 . S
C743 C161 2.189 . S
C731 C68 2.008 . S
C770 C201 2.266 . S
C758 C40 2.049 . S
C785 C13 2.052 1_455 S
C797 C91 2.257 . S
C824 C131 2.225 . S
C812 C22 2.039 . S
C851 C171 2.178 . S
C839 C32 1.955 . S
C866 C4 2.046 . S
C878 C211 2.267 . S
