# Generated by pormake.
# Topology ftw, (4,12)-cn, num edge types: 1
# Building blocks:
#     Node 0, Type 0, BuildingBlock: GIZVER_clean_linker_0, # of connection points: 4
#     Node 1, Type 0, BuildingBlock: GIZVER_clean_linker_0, # of connection points: 4
#     Node 2, Type 0, BuildingBlock: GIZVER_clean_linker_0, # of connection points: 4
#     Node 3, Type 1, BuildingBlock: QEWDON_clean_sbu_0, # of connection points: 12
#     Edge 4, Type (0, 1), BuildingBlock: TEMPAE_clean_linker_10, # of connection points: 2
#     Edge 5, Type (0, 1), BuildingBlock: TEMPAE_clean_linker_10, # of connection points: 2
#     Edge 6, Type (0, 1), BuildingBlock: TEMPAE_clean_linker_10, # of connection points: 2
#     Edge 7, Type (0, 1), BuildingBlock: TEMPAE_clean_linker_10, # of connection points: 2
#     Edge 8, Type (0, 1), BuildingBlock: TEMPAE_clean_linker_10, # of connection points: 2
#     Edge 9, Type (0, 1), BuildingBlock: TEMPAE_clean_linker_10, # of connection points: 2
#     Edge 10, Type (0, 1), BuildingBlock: TEMPAE_clean_linker_10, # of connection points: 2
#     Edge 11, Type (0, 1), BuildingBlock: TEMPAE_clean_linker_10, # of connection points: 2
#     Edge 12, Type (0, 1), BuildingBlock: TEMPAE_clean_linker_10, # of connection points: 2
#     Edge 13, Type (0, 1), BuildingBlock: TEMPAE_clean_linker_10, # of connection points: 2
#     Edge 14, Type (0, 1), BuildingBlock: TEMPAE_clean_linker_10, # of connection points: 2
#     Edge 15, Type (0, 1), BuildingBlock: TEMPAE_clean_linker_10, # of connection points: 2
# Relax obj value: 0.120
# Max RMSD: 0.265
# Mean RMSD: 0.215
data_MOF--net-ftw--node1-QEWDON_clean_sbu_0--node2-GIZVER_clean_linker_0--edge1-TEMPAE_clean_linker_10
_symmetry_space_group_name_H-M    P1
_symmetry_Int_Tables_number       1
_symmetry_cell_setting            triclinic
loop_
_symmetry_equiv_pos_as_xyz
'x, y, z'
_cell_length_a     26.383825
_cell_length_b     24.717908
_cell_length_c     24.010237
_cell_angle_alpha  89.965426
_cell_angle_beta   89.758368
_cell_angle_gamma 90.357904
loop_
_atom_site_label
_atom_site_type_symbol
_atom_site_fract_x
_atom_site_fract_y
_atom_site_fract_z
_atom_type_partial_charge
H0 H 0.92152 0.45214 0.39874 0.0
H1 H 0.88123 0.43695 0.57173 0.0
H2 H 0.97333 0.31566 0.49385 0.0
H3 H 0.84456 0.49902 0.44129 0.0
H4 H 0.83769 0.50124 0.51537 0.0
H5 H 0.89285 0.56707 0.3956 0.0
H6 H 0.98083 0.68118 0.49017 0.0
H7 H 0.91104 0.54496 0.5723 0.0
C8 C 0.92432 0.43063 0.43796 0.0
C9 C 0.95201 0.38225 0.44091 0.0
C10 C 0.89875 0.4505 0.4851 0.0
C11 C 0.90135 0.42197 0.53547 0.0
C12 C 0.92853 0.37352 0.53899 0.0
C13 C 0.95434 0.35439 0.49185 0.0
C14 C 0.86611 0.50015 0.48102 0.0
C15 C 0.89824 0.55062 0.48367 0.0
C16 C 0.90847 0.58035 0.43502 0.0
C17 C 0.93762 0.62791 0.43728 0.0
C18 C 0.95786 0.64469 0.48837 0.0
C19 C 0.94878 0.61491 0.53719 0.0
C20 C 0.91844 0.56812 0.53474 0.0
H21 H 0.44888 0.02786 0.38346 0.0
H22 H 0.46367 0.04721 0.55994 0.0
H23 H 0.34259 0.94993 0.49492 0.0
H24 H 0.505 0.09488 0.41938 0.0
H25 H 0.50257 0.11151 0.49145 0.0
H26 H 0.57163 0.03848 0.38357 0.0
H27 H 0.69556 0.00107 0.49334 0.0
H28 H 0.55561 0.05947 0.56058 0.0
C29 C 0.43679 0.01655 0.42503 0.0
C30 C 0.39202 0.98585 0.43282 0.0
C31 C 0.46382 0.03722 0.47084 0.0
C32 C 0.44549 0.02753 0.52493 0.0
C33 C 0.40099 -0.00272 0.53358 0.0
C34 C 0.3763 0.97417 0.48764 0.0
C35 C 0.50678 0.07712 0.46193 0.0
C36 C 0.55809 0.05183 0.4709 0.0
C37 C 0.58758 0.03566 0.42495 0.0
C38 C 0.63766 0.01748 0.43213 0.0
C39 C 0.65672 0.01333 0.48658 0.0
C40 C 0.62708 0.0272 0.53296 0.0
C41 C 0.57804 0.0472 0.52491 0.0
H42 H 0.55456 0.39468 0.14415 0.0
H43 H 0.59889 0.56034 0.12155 0.0
H44 H 0.65675 0.43849 0.01112 0.0
H45 H 0.53069 0.46238 0.21207 0.0
H46 H 0.55283 0.53067 0.20535 0.0
H47 H 0.45431 0.43161 0.16229 0.0
H48 H 0.35688 0.55304 0.09316 0.0
H49 H 0.50431 0.59755 0.15299 0.0
C50 C 0.57485 0.42495 0.12005 0.0
C51 C 0.60762 0.40926 0.07671 0.0
C52 C 0.57023 0.47973 0.13476 0.0
C53 C 0.59999 0.51881 0.10723 0.0
C54 C 0.63283 0.50394 0.06368 0.0
C55 C 0.63352 0.4497 0.04652 0.0
C56 C 0.53582 0.49625 0.18197 0.0
C57 C 0.48502 0.51257 0.15924 0.0
C58 C 0.44713 0.47317 0.15052 0.0
C59 C 0.40006 0.48754 0.12779 0.0
C60 C 0.39202 0.54168 0.11309 0.0
C61 C 0.42852 0.58181 0.12354 0.0
C62 C 0.47557 0.56692 0.14547 0.0
Zn63 Zn 0.12686 0.11244 0.95261 0.0
Zn64 Zn 0.07939 0.10855 0.07598 0.0
O65 O 0.08367 0.0671 0.00467 0.0
H66 H 0.06178 0.03742 0.99401 0.0
C67 C 0.8953 0.14076 0.88164 0.0
O68 O 0.89555 0.16381 0.93096 0.0
Zn69 Zn 0.94834 0.87845 0.05394 0.0
Zn70 Zn 0.91002 0.9002 0.92811 0.0
O71 O 0.94269 0.93572 0.99503 0.0
H72 H 0.96227 0.96886 0.994 0.0
Zn73 Zn 0.87703 0.05546 0.95604 0.0
O74 O 0.93287 0.07716 0.00999 0.0
Zn75 Zn 0.90038 0.06066 0.08272 0.0
H76 H 0.96867 0.07822 0.00143 0.0
Zn77 Zn 0.13738 0.89946 0.92729 0.0
O78 O 0.08976 0.92117 0.9891 0.0
H79 H 0.05563 0.93427 0.98441 0.0
Zn80 Zn 0.12974 0.92164 0.05927 0.0
C81 C 0.10056 0.80455 0.8673 0.0
O82 O 0.11681 0.78054 0.91262 0.0
O83 O 0.14961 0.18503 0.98662 0.0
O84 O 0.10874 0.1841 0.06797 0.0
O85 O 0.88391 0.82307 0.94383 0.0
O86 O 0.9185 0.80698 0.02658 0.0
O87 O 0.80606 0.06883 0.98968 0.0
O88 O 0.82539 0.07753 0.0792 0.0
C89 C 0.14208 0.02694 0.12746 0.0
O90 O 0.20814 0.87823 0.95552 0.0
O91 O 0.2031 0.89933 0.04562 0.0
O92 O 0.86913 0.94615 0.87164 0.0
C93 C 0.13787 0.20738 0.03267 0.0
O94 O 0.17519 0.07437 0.89656 0.0
C95 C 0.89208 0.94736 0.12631 0.0
O96 O 0.88744 0.0901 0.87866 0.0
C97 C 0.89189 0.79178 0.98501 0.0
O98 O 0.10568 0.85552 0.86271 0.0
C99 C 0.97864 0.1204 0.1407 0.0
O100 O 0.12564 0.07489 0.13179 0.0
O101 O 0.12341 -0.00299 0.0896 0.0
C102 C 0.79305 0.07887 0.0398 0.0
O103 O 0.90376 0.89823 0.11937 0.0
O104 O 0.91274 0.98234 0.0949 0.0
C105 C 0.05074 0.85671 0.113 0.0
O106 O 0.93234 0.10606 0.14237 0.0
O107 O 0.00603 0.10424 0.1004 0.0
C108 C 0.22811 0.88188 0.00366 0.0
O109 O 0.09759 0.86917 0.11337 0.0
O110 O 0.02298 0.87669 0.07498 0.0
C111 C 0.82237 0.955 0.88059 0.0
O112 O 0.80166 0.93703 0.92697 0.0
C113 C 0.21368 0.10055 0.87907 0.0
O114 O 0.22144 0.14998 0.89739 0.0
C115 C 0.01947 0.32993 0.39072 0.0
C116 C 0.97243 0.35618 0.38988 0.0
C117 C 0.03399 0.29521 0.34727 0.0
C118 C 1.00035 0.28614 0.30246 0.0
C119 C 0.95488 0.31622 0.29915 0.0
C120 C 0.94156 0.35098 0.34284 0.0
C121 C 0.08331 0.26499 0.35176 0.0
C122 C 0.91782 0.30788 0.25208 0.0
C123 C 0.02361 0.20433 0.17137 0.0
C124 C 0.99761 0.15649 0.18474 0.0
C125 C 0.02918 0.24577 0.21107 0.0
C126 C 0.00735 0.23909 0.26468 0.0
C127 C 0.98476 0.18892 0.27944 0.0
C128 C 0.98023 0.14827 0.23923 0.0
C129 C 0.05468 0.29813 0.19431 0.0
C130 C 0.96107 0.17979 0.33611 0.0
H131 H 0.04384 0.33451 0.42669 0.0
H132 H 0.90505 0.37083 0.34204 0.0
H133 H 0.07568 0.22361 0.36778 0.0
H134 H 0.10187 0.26096 0.31043 0.0
H135 H 0.10998 0.28539 0.38077 0.0
H136 H 0.88741 0.33877 0.25213 0.0
H137 H 0.93764 0.30931 0.21129 0.0
H138 H 0.89987 0.26731 0.25608 0.0
H139 H 0.03557 0.21135 0.12884 0.0
H140 H 0.96004 0.11117 0.24941 0.0
H141 H 0.08223 0.31098 0.22656 0.0
H142 H 0.02592 0.33049 0.1908 0.0
H143 H 0.07477 0.29463 0.15373 0.0
H144 H 0.98792 0.19141 0.3695 0.0
H145 H 0.94941 0.13696 0.34259 0.0
H146 H 0.92701 0.2056 0.34057 0.0
C147 C 0.70926 0.96619 0.3871 0.0
C148 C 0.67127 0.00568 0.38331 0.0
C149 C 0.74454 0.95856 0.34397 0.0
C150 C 0.74065 0.9895 0.29461 0.0
C151 C 0.7011 0.02749 0.2892 0.0
C152 C 0.66749 0.03583 0.33385 0.0
C153 C 0.78656 0.91801 0.35169 0.0
C154 C 0.69487 0.05995 0.23649 0.0
C155 C 0.85885 0.004 0.20424 0.0
C156 C 0.85206 0.96155 0.16649 0.0
C157 C 0.82252 0.01417 0.24587 0.0
C158 C 0.77799 0.98179 0.24866 0.0
C159 C 0.77023 0.94025 0.209 0.0
C160 C 0.80781 0.93005 0.16898 0.0
C161 C 0.83279 0.05799 0.28819 0.0
C162 C 0.72266 0.90594 0.20937 0.0
H163 H 0.71191 0.94136 0.42414 0.0
H164 H 0.63905 0.06703 0.33028 0.0
H165 H 0.78385 0.88591 0.31957 0.0
H166 H 0.82393 0.93824 0.34625 0.0
H167 H 0.7854 0.89862 0.39343 0.0
H168 H 0.66135 0.0869 0.2381 0.0
H169 H 0.72926 0.08496 0.22938 0.0
H170 H 0.69099 0.03246 0.20022 0.0
H171 H 0.8936 0.02753 0.20285 0.0
H172 H 0.80263 0.89731 0.13945 0.0
H173 H 0.83619 0.03964 0.3302 0.0
H174 H 0.80075 0.08677 0.2898 0.0
H175 H 0.86814 0.08098 0.27884 0.0
H176 H 0.72124 0.88099 0.24775 0.0
H177 H 0.72058 0.87853 0.17279 0.0
H178 H 0.68865 0.93213 0.20964 0.0
C179 C 0.96477 0.63548 0.33768 0.0
C180 C 0.94734 0.66034 0.38649 0.0
C181 C 0.97802 0.66647 0.2908 0.0
C182 C 0.97336 0.72346 0.29293 0.0
C183 C 0.9536 0.74849 0.34127 0.0
C184 C 0.94104 0.7166 0.38763 0.0
C185 C 0.99876 0.63845 0.2398 0.0
C186 C 0.94695 0.80906 0.3445 0.0
C187 C 0.06158 0.8078 0.20294 0.0
C188 C 0.03018 0.82195 0.1582 0.0
C189 C 0.04356 0.77548 0.24673 0.0
C190 C 0.99265 0.75727 0.24626 0.0
C191 C 0.96059 0.77158 0.20161 0.0
C192 C 0.98008 0.80295 0.15763 0.0
C193 C 0.07901 0.76107 0.29365 0.0
C194 C 0.90593 0.75332 0.19979 0.0
H195 H 0.96977 0.59199 0.33687 0.0
H196 H 0.92667 0.73571 0.42509 0.0
H197 H 0.97681 0.65028 0.20247 0.0
H198 H 0.03863 0.65132 0.23263 0.0
H199 H 0.99758 0.59368 0.24382 0.0
H200 H 0.92796 0.82178 0.3837 0.0
H201 H 0.98451 0.82938 0.34195 0.0
H202 H 0.92422 0.82346 0.3087 0.0
H203 H 0.1005 0.82208 0.20398 0.0
H204 H 0.95604 0.81221 0.12289 0.0
H205 H 0.08169 0.71644 0.29757 0.0
H206 H 0.06387 0.77668 0.33367 0.0
H207 H 0.11776 0.77788 0.28728 0.0
H208 H 0.88757 0.75725 0.24123 0.0
H209 H 0.90441 0.70999 0.18792 0.0
H210 H 0.88367 0.77688 0.16912 0.0
C211 C 0.37686 0.96548 0.3308 0.0
C212 C 0.35761 0.9737 0.3848 0.0
C213 C 0.34456 0.96389 0.28435 0.0
C214 C 0.29157 0.96929 0.29203 0.0
C215 C 0.27159 0.97265 0.34663 0.0
C216 C 0.30467 0.97578 0.39203 0.0
C217 C 0.368 0.96104 0.2271 0.0
C218 C 0.2153 0.9778 0.35695 0.0
C219 C 0.21276 0.04981 0.19104 0.0
C220 C 0.18343 0.00966 0.16499 0.0
C221 C 0.24989 0.03669 0.23003 0.0
C222 C 0.25789 0.98187 0.24411 0.0
C223 C 0.23044 0.94073 0.21589 0.0
C224 C 0.19342 0.95516 0.17646 0.0
C225 C 0.27927 0.08192 0.25769 0.0
C226 C 0.23869 0.88176 0.22886 0.0
H227 H 0.41741 0.96251 0.3243 0.0
H228 H 0.28861 0.98329 0.43283 0.0
H229 H 0.34098 0.94558 0.19558 0.0
H230 H 0.3803 0.00225 0.21431 0.0
H231 H 0.40211 0.93491 0.22736 0.0
H232 H 0.20527 0.97167 0.40151 0.0
H233 H 0.20275 0.0188 0.34439 0.0
H234 H 0.19393 0.94798 0.33157 0.0
H235 H 0.20624 0.09208 0.18149 0.0
H236 H 0.17134 0.92396 0.15622 0.0
H237 H 0.32058 0.07442 0.25421 0.0
H238 H 0.26959 0.08343 0.30268 0.0
H239 H 0.27107 0.12208 0.23908 0.0
H240 H 0.2797 0.87303 0.23306 0.0
H241 H 0.22245 0.85499 0.19623 0.0
H242 H 0.22019 0.87178 0.2692 0.0
C243 C 0.0224 0.64801 0.59259 0.0
C244 C 0.97096 0.63376 0.59036 0.0
C245 C 0.04316 0.6716 0.64045 0.0
C246 C 0.01155 0.68161 0.68705 0.0
C247 C 0.95999 0.6653 0.68588 0.0
C248 C 0.94031 0.64125 0.63749 0.0
C249 C 0.09847 0.68775 0.64028 0.0
C250 C 0.92509 0.67556 0.73469 0.0
C251 C 0.07659 0.71607 0.82356 0.0
C252 C 0.07634 0.77283 0.82227 0.0
C253 C 0.05475 0.68567 0.78037 0.0
C254 C 0.03183 0.71272 0.73511 0.0
C255 C 0.03048 0.76996 0.73422 0.0
C256 C 0.05293 0.79931 0.77766 0.0
C257 C 0.05717 0.62469 0.78253 0.0
C258 C 0.00604 0.8003 0.68686 0.0
H259 H 0.04623 0.64158 0.55632 0.0
H260 H 0.90045 0.63049 0.63564 0.0
H261 H 0.10189 0.73248 0.64198 0.0
H262 H 0.11764 0.67139 0.67765 0.0
H263 H 0.11871 0.67321 0.60254 0.0
H264 H 0.88731 0.65628 0.7291 0.0
H265 H 0.94208 0.66012 0.77373 0.0
H266 H 0.91978 0.71976 0.73993 0.0
H267 H 0.09454 0.6953 0.85793 0.0
H268 H 0.05221 0.84314 0.77655 0.0
H269 H 0.07998 0.60955 0.74694 0.0
H270 H 0.0186 0.60705 0.77853 0.0
H271 H 0.07429 0.6098 0.8218 0.0
H272 H 0.02659 0.79187 0.64743 0.0
H273 H 0.00597 0.84473 0.6938 0.0
H274 H 0.96634 0.78631 0.68134 0.0
C275 C 0.32381 0.01383 0.59092 0.0
C276 C 0.375 -0.00105 0.58853 0.0
C277 C 0.29971 0.02383 0.64188 0.0
C278 C 0.32731 0.01843 0.69197 0.0
C279 C 0.37823 0.0006 0.69017 0.0
C280 C 0.40172 0.99159 0.63831 0.0
C281 C 0.24557 0.04344 0.64177 0.0
C282 C 0.4085 0.99331 0.74279 0.0
C283 C 0.28057 0.11143 0.8061 0.0
C284 C 0.247 0.07759 0.83542 0.0
C285 C 0.3088 0.09191 0.76088 0.0
C286 C 0.30398 0.03692 0.7451 0.0
C287 C 0.27241 0.00176 0.77656 0.0
C288 C 0.24388 0.02263 0.8211 0.0
C289 C 0.34159 0.13094 0.72807 0.0
C290 C 0.2671 0.94266 0.76175 0.0
H291 H 0.30318 0.02061 0.55261 0.0
H292 H 0.44124 0.97994 0.63659 0.0
H293 H 0.22187 0.0184 0.67015 0.0
H294 H 0.24426 0.0857 0.65727 0.0
H295 H 0.22852 0.04227 0.59955 0.0
H296 H 0.44487 0.97219 0.73489 0.0
H297 H 0.41705 0.03345 0.76126 0.0
H298 H 0.38628 0.96997 0.77404 0.0
H299 H 0.28334 0.15389 0.817 0.0
H300 H 0.21847 -0.00393 0.84407 0.0
H301 H 0.32585 0.13588 0.68558 0.0
H302 H 0.38051 0.11483 0.72343 0.0
H303 H 0.34393 0.17143 0.748 0.0
H304 H 0.2453 0.93857 0.72256 0.0
H305 H 0.24716 0.91929 0.79486 0.0
H306 H 0.3049 0.92448 0.75448 0.0
C307 C 0.96997 0.31627 0.61165 0.0
C308 C 0.92613 0.34019 0.59023 0.0
C309 C 0.96751 0.2827 0.65875 0.0
C310 C 0.92007 0.27277 0.68468 0.0
C311 C 0.8757 0.29665 0.66307 0.0
C312 C 0.8793 0.33021 0.61618 0.0
C313 C 0.01547 0.2574 0.68044 0.0
C314 C 0.82436 0.28626 0.68916 0.0
C315 C 0.90082 0.15019 0.77791 0.0
C316 C 0.90356 0.17368 0.83097 0.0
C317 C 0.90758 0.18167 0.72975 0.0
C318 C 0.91668 0.23798 0.73494 0.0
C319 C 0.92034 0.26167 0.78839 0.0
C320 C 0.91377 0.22923 0.83574 0.0
C321 C 0.90326 0.1547 0.67355 0.0
C322 C 0.93027 0.32152 0.79554 0.0
H323 H 0.0062 0.32396 0.5916 0.0
H324 H 0.84519 0.34774 0.599 0.0
H325 H 0.02155 0.26937 0.72445 0.0
H326 H 0.0118 0.21265 0.67954 0.0
H327 H 0.04938 0.2694 0.65567 0.0
H328 H 0.79359 0.30822 0.66746 0.0
H329 H 0.8156 0.24231 0.68818 0.0
H330 H 0.82465 0.29888 0.7335 0.0
H331 H 0.89286 0.10729 0.77386 0.0
H332 H 0.91617 0.24767 0.8766 0.0
H333 H 0.92963 0.17295 0.64263 0.0
H334 H 0.86408 0.15973 0.65782 0.0
H335 H 0.91121 0.11073 0.67626 0.0
H336 H 0.9654 0.33344 0.773 0.0
H337 H 0.93422 0.3332 0.83999 0.0
H338 H 0.89867 0.34489 0.77722 0.0
C339 C 0.66982 0.9719 0.60532 0.0
C340 C 0.64867 0.02135 0.58948 0.0
C341 C 0.69484 0.96635 0.65633 0.0
C342 C 0.69946 0.01163 0.69213 0.0
C343 C 0.67699 0.06141 0.67702 0.0
C344 C 0.65148 0.0656 0.62585 0.0
C345 C 0.71775 0.91236 0.67106 0.0
C346 C 0.68151 0.11066 0.71382 0.0
C347 C 0.73738 0.97453 0.83945 0.0
C348 C 0.79041 0.97813 0.83601 0.0
C349 C 0.70685 0.98842 0.7939 0.0
C350 C 0.72993 0.0067 0.74393 0.0
C351 C 0.78318 0.01403 0.74163 0.0
C352 C 0.81278 -0.00035 0.7877 0.0
C353 C 0.65023 0.98011 0.79808 0.0
C354 C 0.80914 0.03457 0.68953 0.0
H355 H 0.66734 0.93765 0.57724 0.0
H356 H 0.63544 0.10398 0.6133 0.0
H357 H 0.75961 0.91638 0.67335 0.0
H358 H 0.70411 0.89893 0.71263 0.0
H359 H 0.70836 0.88048 0.64011 0.0
H360 H 0.65752 0.1445 0.69905 0.0
H361 H 0.67061 0.1006 0.75729 0.0
H362 H 0.72154 0.12465 0.71451 0.0
H363 H 0.7197 0.95835 0.87679 0.0
H364 H 0.85368 0.00347 0.78509 0.0
H365 H 0.63895 0.94497 0.77209 0.0
H366 H 0.62991 0.01596 0.78193 0.0
H367 H 0.63764 0.97238 0.8416 0.0
H368 H 0.80054 0.00748 0.65393 0.0
H369 H 0.85092 0.03706 0.69432 0.0
H370 H 0.79467 0.07531 0.67888 0.0
C371 C 0.30774 0.46221 0.12658 0.0
C372 C 0.35866 0.44703 0.11944 0.0
C373 C 0.26793 0.42656 0.11405 0.0
C374 C 0.27912 0.37354 0.09614 0.0
C375 C 0.33025 0.35687 0.09147 0.0
C376 C 0.36943 0.39403 0.10241 0.0
C377 C 0.21392 0.44614 0.11855 0.0
C378 C 0.34358 0.30003 0.07394 0.0
C379 C 0.17856 0.26364 0.10594 0.0
C380 C 0.16612 0.25628 0.0497 0.0
C381 C 0.21446 0.3026 0.12197 0.0
C382 C 0.23742 0.33581 0.08086 0.0
C383 C 0.22225 0.33116 0.02455 0.0
C384 C 0.18727 0.29085 0.0095 0.0
C385 C 0.23023 0.30557 0.1823 0.0
C386 C 0.24451 0.36726 0.97984 0.0
H387 H 0.29877 0.50242 0.14145 0.0
H388 H 0.40843 0.38183 0.09631 0.0
H389 H 0.19525 0.44315 0.07732 0.0
H390 H 0.19202 0.42016 0.14777 0.0
H391 H 0.21167 0.48871 0.13312 0.0
H392 H 0.38495 0.29227 0.07646 0.0
H393 H 0.32335 0.27021 0.10068 0.0
H394 H 0.33117 0.29297 0.03045 0.0
H395 H 0.16277 0.23655 0.13714 0.0
H396 H 0.17759 0.2853 0.96602 0.0
H397 H 0.23005 0.34798 0.19728 0.0
H398 H 0.26958 0.29049 0.18638 0.0
H399 H 0.20512 0.28096 0.20977 0.0
H400 H 0.24232 0.4103 0.99268 0.0
H401 H 0.22478 0.36236 0.93935 0.0
H402 H 0.28514 0.35756 0.97371 0.0
C403 C 0.4473 0.67364 0.08234 0.0
C404 C 0.41521 0.63903 0.11277 0.0
C405 C 0.43011 0.72455 0.06441 0.0
C406 C 0.37953 0.73996 0.0761 0.0
C407 C 0.34878 0.70694 0.11082 0.0
C408 C 0.36731 0.65734 0.12927 0.0
C409 C 0.46528 0.76055 0.03115 0.0
C410 C 0.29504 0.72233 0.12591 0.0
C411 C 0.30657 0.8687 0.06051 0.0
C412 C 0.27776 0.85618 0.01322 0.0
C413 C 0.34639 0.83497 0.07719 0.0
C414 C 0.35556 0.78654 0.04753 0.0
C415 C 0.33044 0.77719 0.9964 0.0
C416 C 0.29239 0.81274 0.97938 0.0
C417 C 0.3752 0.84916 0.12926 0.0
C418 C 0.3388 0.72606 0.96329 0.0
H419 H 0.48476 0.66 0.07033 0.0
H420 H 0.34318 0.63142 0.15459 0.0
H421 H 0.45839 0.75443 0.98606 0.0
H422 H 0.45862 0.80387 0.04077 0.0
H423 H 0.50563 0.75096 0.03951 0.0
H424 H 0.27599 0.69139 0.15241 0.0
H425 H 0.29504 0.76133 0.14874 0.0
H426 H 0.27228 0.72776 0.08755 0.0
H427 H 0.2964 0.90313 0.08614 0.0
H428 H 0.27071 0.80316 0.94237 0.0
H429 H 0.40953 0.82412 0.13502 0.0
H430 H 0.35003 0.84404 0.16605 0.0
H431 H 0.38707 0.89228 0.12744 0.0
H432 H 0.37981 0.71825 0.95785 0.0
H433 H 0.32097 0.72797 0.9215 0.0
H434 H 0.32217 0.69117 0.98626 0.0
C435 C 0.58524 0.30929 0.07628 0.0
C436 C 0.6207 0.35122 0.06771 0.0
C437 C 0.59974 0.25462 0.07272 0.0
C438 C 0.65063 0.24182 0.05954 0.0
C439 C 0.68594 0.28393 0.04875 0.0
C440 C 0.67083 0.33767 0.05401 0.0
C441 C 0.56111 0.21104 0.08537 0.0
C442 C 0.74066 0.27244 0.03395 0.0
C443 C 0.73233 0.12665 0.10257 0.0
C444 C 0.74304 0.10407 0.05024 0.0
C445 C 0.69569 0.16717 0.10825 0.0
C446 C 0.66953 0.18531 0.06048 0.0
C447 C 0.67429 0.15651 0.00985 0.0
C448 C 0.71101 0.11592 0.00533 0.0
C449 C 0.69004 0.19577 0.16346 0.0
C450 C 0.64615 0.17367 0.95828 0.0
H451 H 0.54633 0.31902 0.08657 0.0
H452 H 0.69931 0.3691 0.04927 0.0
H453 H 0.56675 0.17491 0.05873 0.0
H454 H 0.56532 0.19815 0.12937 0.0
H455 H 0.5218 0.2259 0.07975 0.0
H456 H 0.76206 0.30971 0.02253 0.0
H457 H 0.75985 0.25333 0.06991 0.0
H458 H 0.74274 0.24386 0.99842 0.0
H459 H 0.75603 0.11683 0.13785 0.0
H460 H 0.71793 0.09761 0.96501 0.0
H461 H 0.64934 0.19905 0.17466 0.0
H462 H 0.70563 0.23747 0.16023 0.0
H463 H 0.71024 0.17476 0.19754 0.0
H464 H 0.60706 0.18667 0.96861 0.0
H465 H 0.64432 0.14051 0.92711 0.0
H466 H 0.66622 0.2086 0.93897 0.0
C467 C 0.65969 0.59811 0.03526 0.0
C468 C 0.67099 0.543 0.04095 0.0
C469 C 0.69749 0.63582 0.02056 0.0
C470 C 0.74755 0.61785 0.0102 0.0
C471 C 0.75859 0.56207 0.01279 0.0
C472 C 0.72049 0.52551 0.02889 0.0
C473 C 0.6844 0.69518 0.01875 0.0
C474 C 0.81126 0.54117 0.00108 0.0
C475 C 0.83698 0.71982 0.94265 0.0
C476 C 0.86215 0.74093 0.9893 0.0
C477 C 0.80103 0.678 0.94835 0.0
C478 C 0.78926 0.65782 0.00207 0.0
C479 C 0.81618 0.67725 0.04891 0.0
C480 C 0.85284 0.71796 0.04181 0.0
C481 C 0.77426 0.65698 0.89724 0.0
C482 C 0.80445 0.65699 0.10697 0.0
H483 H 0.62153 0.61203 0.04353 0.0
H484 H 0.73033 0.48334 0.03421 0.0
H485 H 0.70546 0.717 0.05185 0.0
H486 H 0.69615 0.71301 0.97828 0.0
H487 H 0.64321 0.70228 0.02487 0.0
H488 H 0.81189 0.4964 0.99708 0.0
H489 H 0.82668 0.55927 0.96221 0.0
H490 H 0.83695 0.55301 0.0355 0.0
H491 H 0.8442 0.73712 0.90186 0.0
H492 H 0.87203 0.73398 0.07806 0.0
H493 H 0.73404 0.66974 0.89818 0.0
H494 H 0.7746 0.61209 0.89663 0.0
H495 H 0.79191 0.67224 0.85813 0.0
H496 H 0.76408 0.66466 0.11725 0.0
H497 H 0.82835 0.67677 0.13907 0.0
H498 H 0.81033 0.61267 0.10928 0.0
loop_
_geom_bond_atom_site_label_1
_geom_bond_atom_site_label_2
_geom_bond_distance
_geom_bond_site_symmetry_2
_ccdc_geom_bond_type
H0 C8 0.930 . S
H1 C11 0.930 . S
H2 C13 0.930 . S
H3 C14 0.970 . S
H4 C14 0.970 . S
H5 C16 0.930 . S
H6 C18 0.930 . S
H7 C20 0.930 . S
C8 H0 0.930 . S
C8 C9 1.382 . S
C8 C10 1.426 . S
C9 C8 1.382 . S
C9 C13 1.389 1_655 S
C10 C8 1.426 . S
C10 C11 1.375 . S
C10 C14 1.532 . S
C11 H1 0.930 . S
C11 C10 1.375 . S
C11 C12 1.416 . S
C12 C11 1.416 . S
C12 C13 1.371 1_655 S
C13 H2 0.930 . S
C13 C9 1.389 1_455 S
C13 C12 1.371 1_455 S
C14 H3 0.970 . S
C14 H4 0.970 . S
C14 C10 1.532 . S
C14 C15 1.499 . S
C15 C14 1.499 . S
C15 C16 1.370 . S
C15 C20 1.415 . S
C16 H5 0.930 . S
C16 C15 1.370 . S
C16 C17 1.407 . S
C17 C16 1.407 . S
C17 C18 1.365 1_655 S
C18 H6 0.930 . S
C18 C17 1.365 1_455 S
C18 C19 1.393 1_455 S
C19 C18 1.393 1_655 S
C19 C20 1.387 . S
C20 H7 0.930 . S
C20 C15 1.415 . S
C20 C19 1.387 . S
H21 C29 0.930 . S
H22 C32 0.930 . S
H23 C34 0.930 . S
H24 C35 0.970 . S
H25 C35 0.970 . S
H26 C37 0.930 . S
H27 C39 0.930 . S
H28 C41 0.930 . S
C29 H21 0.930 . S
C29 C30 1.382 . S
C29 C31 1.426 . S
C30 C29 1.382 . S
C30 C34 1.389 1_545 S
C31 C29 1.426 . S
C31 C32 1.375 . S
C31 C35 1.532 . S
C32 H22 0.930 . S
C32 C31 1.375 . S
C32 C33 1.416 . S
C33 C32 1.416 . S
C33 C34 1.371 1_545 S
C34 H23 0.930 . S
C34 C30 1.389 1_565 S
C34 C33 1.371 1_565 S
C35 H24 0.970 . S
C35 H25 0.970 . S
C35 C31 1.532 . S
C35 C36 1.499 . S
C36 C35 1.499 . S
C36 C37 1.370 . S
C36 C41 1.415 . S
C37 H26 0.930 . S
C37 C36 1.370 . S
C37 C38 1.407 . S
C38 C37 1.407 . S
C38 C39 1.365 1_545 S
C39 H27 0.930 . S
C39 C38 1.365 1_565 S
C39 C40 1.393 1_565 S
C40 C39 1.393 1_545 S
C40 C41 1.387 . S
C41 H28 0.930 . S
C41 C36 1.415 . S
C41 C40 1.387 . S
H42 C50 0.930 . S
H43 C53 0.930 . S
H44 C55 0.930 1_556 S
H45 C56 0.970 . S
H46 C56 0.970 . S
H47 C58 0.930 . S
H48 C60 0.930 1_556 S
H49 C62 0.930 . S
C50 H42 0.930 . S
C50 C51 1.382 . S
C50 C52 1.426 . S
C51 C50 1.382 . S
C51 C55 1.389 . S
C52 C50 1.426 . S
C52 C53 1.375 . S
C52 C56 1.532 . S
C53 H43 0.930 . S
C53 C52 1.375 . S
C53 C54 1.416 . S
C54 C53 1.416 . S
C54 C55 1.371 . S
C55 H44 0.930 1_554 S
C55 C51 1.389 . S
C55 C54 1.371 . S
C56 H45 0.970 . S
C56 H46 0.970 . S
C56 C52 1.532 . S
C56 C57 1.499 . S
C57 C56 1.499 . S
C57 C58 1.370 . S
C57 C62 1.415 . S
C58 H47 0.930 . S
C58 C57 1.370 . S
C58 C59 1.407 . S
C59 C58 1.407 . S
C59 C60 1.365 . S
C60 H48 0.930 1_554 S
C60 C59 1.365 . S
C60 C61 1.393 . S
C61 C60 1.393 . S
C61 C62 1.387 . S
C62 H49 0.930 . S
C62 C57 1.415 . S
C62 C61 1.387 . S
Zn63 O65 1.933 1_556 S
Zn63 O83 1.985 . S
Zn63 O94 1.955 . S
Zn64 O65 1.911 . S
Zn64 O84 1.970 . S
Zn64 O100 1.945 . S
Zn64 O107 1.981 . S
O65 Zn63 1.933 1_554 S
O65 Zn64 1.911 . S
O65 H66 0.841 . S
H66 O65 0.841 . S
C67 O68 1.246 . S
C67 O96 1.276 1_455 S
O68 C67 1.246 . S
Zn69 O71 1.911 . S
Zn69 O86 1.970 . S
Zn69 O103 1.945 . S
Zn69 O110 1.981 . S
Zn70 O71 1.933 1_556 S
Zn70 O85 1.985 . S
Zn70 O92 1.955 . S
O71 Zn69 1.911 . S
O71 Zn70 1.933 1_554 S
O71 H72 0.841 . S
H72 O71 0.841 . S
Zn73 O74 1.933 1_556 S
Zn73 O87 1.985 . S
Zn73 O96 1.955 . S
O74 Zn73 1.933 1_554 S
O74 Zn75 1.911 . S
O74 H76 0.841 . S
Zn75 O74 1.911 . S
Zn75 O88 1.970 . S
Zn75 O104 1.981 . S
Zn75 O106 1.945 . S
H76 O74 0.841 . S
Zn77 O78 1.933 1_556 S
Zn77 O90 1.985 . S
Zn77 O98 1.955 . S
O78 Zn77 1.933 1_554 S
O78 H79 0.841 . S
O78 Zn80 1.911 . S
H79 O78 0.841 . S
Zn80 O78 1.911 . S
Zn80 O91 1.970 . S
Zn80 O101 1.981 . S
Zn80 O109 1.945 . S
C81 O82 1.246 . S
C81 O98 1.276 1_655 S
O82 C81 1.246 . S
O83 Zn63 1.985 . S
O83 C93 1.245 1_556 S
O84 Zn64 1.970 . S
O84 C93 1.263 . S
O85 Zn70 1.985 . S
O85 C97 1.245 1_556 S
O86 Zn69 1.970 . S
O86 C97 1.263 . S
O87 Zn73 1.985 . S
O87 C102 1.245 1_556 S
O88 Zn75 1.970 . S
O88 C102 1.263 . S
C89 O100 1.262 . S
C89 O101 1.245 1_545 S
O90 Zn77 1.985 . S
O90 C108 1.245 1_556 S
O91 Zn80 1.970 . S
O91 C108 1.263 . S
O92 Zn70 1.955 . S
O92 C111 1.276 1_565 S
C93 O83 1.245 1_554 S
C93 O84 1.263 . S
O94 Zn63 1.955 . S
O94 C113 1.276 1_545 S
C95 O103 1.269 . S
C95 O104 1.241 1_565 S
O96 C67 1.276 1_655 S
O96 Zn73 1.955 . S
C97 O85 1.245 1_554 S
C97 O86 1.263 . S
O98 Zn77 1.955 . S
O98 C81 1.276 1_455 S
C99 O106 1.260 . S
C99 O107 1.246 1_655 S
O100 Zn64 1.945 . S
O100 C89 1.262 . S
O101 Zn80 1.981 . S
O101 C89 1.245 1_565 S
C102 O87 1.245 1_554 S
C102 O88 1.263 . S
O103 Zn69 1.945 . S
O103 C95 1.269 . S
O104 Zn75 1.981 . S
O104 C95 1.241 1_545 S
C105 O109 1.264 . S
C105 O110 1.244 1_455 S
O106 Zn75 1.945 . S
O106 C99 1.260 . S
O107 Zn64 1.981 . S
O107 C99 1.246 1_455 S
C108 O90 1.245 1_554 S
C108 O91 1.263 . S
O109 Zn80 1.945 . S
O109 C105 1.264 . S
O110 Zn69 1.981 . S
O110 C105 1.244 1_655 S
C111 O92 1.276 1_545 S
C111 O112 1.246 . S
O112 C111 1.246 . S
C113 O94 1.276 1_565 S
C113 O114 1.246 . S
O114 C113 1.246 . S
C115 C116 1.391 1_455 S
C115 C117 1.394 . S
C115 H131 0.931 . S
C116 C115 1.391 1_655 S
C116 C120 1.376 . S
C117 C115 1.394 . S
C117 C118 1.369 1_455 S
C117 C121 1.531 . S
C118 C117 1.369 1_655 S
C118 C119 1.410 . S
C118 C126 1.503 1_655 S
C119 C118 1.410 . S
C119 C120 1.392 . S
C119 C122 1.511 . S
C120 C116 1.376 . S
C120 C119 1.392 . S
C120 H132 0.929 . S
C121 C117 1.531 . S
C121 H133 0.960 . S
C121 H134 0.962 . S
C121 H135 0.960 . S
C122 C119 1.511 . S
C122 H136 0.961 . S
C122 H137 0.961 . S
C122 H138 0.961 . S
C123 C124 1.370 . S
C123 C125 1.363 . S
C123 H139 0.931 . S
C124 C123 1.370 . S
C124 C128 1.408 1_455 S
C125 C123 1.363 . S
C125 C126 1.370 . S
C125 C129 1.524 . S
C126 C118 1.503 1_455 S
C126 C125 1.370 . S
C126 C127 1.403 1_455 S
C127 C126 1.403 1_655 S
C127 C128 1.404 . S
C127 C130 1.539 . S
C128 C124 1.408 1_655 S
C128 C127 1.404 . S
C128 H140 0.930 . S
C129 C125 1.524 . S
C129 H141 0.956 . S
C129 H142 0.961 . S
C129 H143 0.961 . S
C130 C127 1.539 . S
C130 H144 0.958 . S
C130 H145 0.961 . S
C130 H146 0.960 . S
H131 C115 0.931 . S
H132 C120 0.929 . S
H133 C121 0.960 . S
H134 C121 0.962 . S
H135 C121 0.960 . S
H136 C122 0.961 . S
H137 C122 0.961 . S
H138 C122 0.961 . S
H139 C123 0.931 . S
H140 C128 0.930 . S
H141 C129 0.956 . S
H142 C129 0.961 . S
H143 C129 0.961 . S
H144 C130 0.958 . S
H145 C130 0.961 . S
H146 C130 0.960 . S
C147 C148 1.391 . S
C147 C149 1.394 . S
C147 H163 0.931 . S
C148 C147 1.391 . S
C148 C152 1.376 1_565 S
C149 C147 1.394 . S
C149 C150 1.369 . S
C149 C153 1.531 . S
C150 C149 1.369 . S
C150 C151 1.410 1_565 S
C150 C158 1.503 1_565 S
C151 C150 1.410 1_545 S
C151 C152 1.392 . S
C151 C154 1.511 . S
C152 C148 1.376 1_545 S
C152 C151 1.392 . S
C152 H164 0.929 . S
C153 C149 1.531 . S
C153 H165 0.960 . S
C153 H166 0.962 . S
C153 H167 0.960 . S
C154 C151 1.511 . S
C154 H168 0.961 . S
C154 H169 0.961 . S
C154 H170 0.961 . S
C155 C156 1.370 . S
C155 C157 1.363 . S
C155 H171 0.931 . S
C156 C155 1.370 . S
C156 C160 1.408 1_545 S
C157 C155 1.363 . S
C157 C158 1.370 . S
C157 C161 1.524 . S
C158 C150 1.503 1_545 S
C158 C157 1.370 . S
C158 C159 1.403 1_545 S
C159 C158 1.403 1_565 S
C159 C160 1.404 . S
C159 C162 1.539 . S
C160 C156 1.408 1_565 S
C160 C159 1.404 . S
C160 H172 0.930 . S
C161 C157 1.524 . S
C161 H173 0.956 . S
C161 H174 0.961 . S
C161 H175 0.961 . S
C162 C159 1.539 . S
C162 H176 0.958 . S
C162 H177 0.961 . S
C162 H178 0.960 . S
H163 C147 0.931 . S
H164 C152 0.929 . S
H165 C153 0.960 . S
H166 C153 0.962 . S
H167 C153 0.960 . S
H168 C154 0.961 . S
H169 C154 0.961 . S
H170 C154 0.961 . S
H171 C155 0.931 . S
H172 C160 0.930 . S
H173 C161 0.956 . S
H174 C161 0.961 . S
H175 C161 0.961 . S
H176 C162 0.958 . S
H177 C162 0.961 . S
H178 C162 0.960 . S
C179 C180 1.391 . S
C179 C181 1.394 . S
C179 H195 0.931 . S
C180 C179 1.391 . S
C180 C184 1.376 1_455 S
C181 C179 1.394 . S
C181 C182 1.369 1_455 S
C181 C185 1.531 . S
C182 C181 1.369 1_655 S
C182 C183 1.410 . S
C182 C190 1.503 . S
C183 C182 1.410 . S
C183 C184 1.392 . S
C183 C186 1.511 . S
C184 C180 1.376 1_655 S
C184 C183 1.392 . S
C184 H196 0.929 . S
C185 C181 1.531 . S
C185 H197 0.960 . S
C185 H198 0.962 . S
C185 H199 0.960 . S
C186 C183 1.511 . S
C186 H200 0.961 . S
C186 H201 0.961 . S
C186 H202 0.961 . S
C187 C188 1.370 1_455 S
C187 C189 1.363 . S
C187 H203 0.931 . S
C188 C187 1.370 1_655 S
C188 C192 1.408 . S
C189 C187 1.363 . S
C189 C190 1.370 1_455 S
C189 C193 1.524 . S
C190 C182 1.503 . S
C190 C189 1.370 1_655 S
C190 C191 1.403 . S
C191 C190 1.403 . S
C191 C192 1.404 . S
C191 C194 1.539 . S
C192 C188 1.408 . S
C192 C191 1.404 . S
C192 H204 0.930 . S
C193 C189 1.524 . S
C193 H205 0.956 . S
C193 H206 0.961 1_455 S
C193 H207 0.961 . S
C194 C191 1.539 . S
C194 H208 0.958 . S
C194 H209 0.961 . S
C194 H210 0.960 . S
H195 C179 0.931 . S
H196 C184 0.929 . S
H197 C185 0.960 . S
H198 C185 0.962 . S
H199 C185 0.960 . S
H200 C186 0.961 . S
H201 C186 0.961 . S
H202 C186 0.961 . S
H203 C187 0.931 . S
H204 C192 0.930 . S
H205 C193 0.956 . S
H206 C193 0.961 1_655 S
H207 C193 0.961 . S
H208 C194 0.958 . S
H209 C194 0.961 . S
H210 C194 0.960 . S
C211 C212 1.400 . S
C211 C213 1.394 . S
C211 H227 0.931 . S
C212 C211 1.400 . S
C212 C216 1.369 1_565 S
C213 C211 1.394 . S
C213 C214 1.369 . S
C213 C217 1.531 . S
C214 C213 1.369 . S
C214 C215 1.410 1_565 S
C214 C222 1.503 . S
C215 C214 1.410 1_545 S
C215 C216 1.392 . S
C215 C218 1.511 . S
C216 C212 1.369 1_545 S
C216 C215 1.392 . S
C216 H228 0.929 . S
C217 C213 1.531 . S
C217 H229 0.960 . S
C217 H230 0.962 . S
C217 H231 0.960 . S
C218 C215 1.511 . S
C218 H232 0.961 . S
C218 H233 0.961 . S
C218 H234 0.961 . S
C219 C220 1.370 1_545 S
C219 C221 1.363 . S
C219 H235 0.931 . S
C220 C219 1.370 1_565 S
C220 C224 1.408 . S
C221 C219 1.363 . S
C221 C222 1.370 1_545 S
C221 C225 1.524 . S
C222 C214 1.503 . S
C222 C221 1.370 1_565 S
C222 C223 1.403 . S
C223 C222 1.403 . S
C223 C224 1.404 . S
C223 C226 1.539 . S
C224 C220 1.408 . S
C224 C223 1.404 . S
C224 H236 0.930 . S
C225 C221 1.524 . S
C225 H237 0.956 . S
C225 H238 0.961 . S
C225 H239 0.961 . S
C226 C223 1.539 . S
C226 H240 0.958 . S
C226 H241 0.961 . S
C226 H242 0.960 . S
H227 C211 0.931 . S
H228 C216 0.929 . S
H229 C217 0.960 . S
H230 C217 0.962 . S
H231 C217 0.960 . S
H232 C218 0.961 . S
H233 C218 0.961 . S
H234 C218 0.961 . S
H235 C219 0.931 . S
H236 C224 0.930 . S
H237 C225 0.956 . S
H238 C225 0.961 . S
H239 C225 0.961 . S
H240 C226 0.958 . S
H241 C226 0.961 . S
H242 C226 0.960 . S
C243 C244 1.391 1_455 S
C243 C245 1.394 . S
C243 H259 0.931 . S
C244 C243 1.391 1_655 S
C244 C248 1.376 . S
C245 C243 1.394 . S
C245 C246 1.369 1_455 S
C245 C249 1.531 . S
C246 C245 1.369 1_655 S
C246 C247 1.410 . S
C246 C254 1.503 . S
C247 C246 1.410 . S
C247 C248 1.392 . S
C247 C250 1.511 . S
C248 C244 1.376 . S
C248 C247 1.392 . S
C248 H260 0.929 . S
C249 C245 1.531 . S
C249 H261 0.960 . S
C249 H262 0.962 . S
C249 H263 0.960 . S
C250 C247 1.511 . S
C250 H264 0.961 . S
C250 H265 0.961 . S
C250 H266 0.961 . S
C251 C252 1.370 1_455 S
C251 C253 1.363 . S
C251 H267 0.931 . S
C252 C251 1.370 1_655 S
C252 C256 1.408 . S
C253 C251 1.363 . S
C253 C254 1.370 1_455 S
C253 C257 1.524 . S
C254 C246 1.503 . S
C254 C253 1.370 1_655 S
C254 C255 1.403 . S
C255 C254 1.403 . S
C255 C256 1.404 . S
C255 C258 1.539 . S
C256 C252 1.408 . S
C256 C255 1.404 . S
C256 H268 0.930 . S
C257 C253 1.524 . S
C257 H269 0.956 . S
C257 H270 0.961 . S
C257 H271 0.961 . S
C258 C255 1.539 . S
C258 H272 0.958 . S
C258 H273 0.961 . S
C258 H274 0.960 . S
H259 C243 0.931 . S
H260 C248 0.929 . S
H261 C249 0.960 . S
H262 C249 0.962 . S
H263 C249 0.960 . S
H264 C250 0.961 . S
H265 C250 0.961 . S
H266 C250 0.961 . S
H267 C251 0.931 . S
H268 C256 0.930 . S
H269 C257 0.956 . S
H270 C257 0.961 . S
H271 C257 0.961 . S
H272 C258 0.958 . S
H273 C258 0.961 . S
H274 C258 0.960 . S
C275 C276 1.391 1_545 S
C275 C277 1.394 . S
C275 H291 0.931 . S
C276 C275 1.391 1_565 S
C276 C280 1.376 . S
C277 C275 1.394 . S
C277 C278 1.369 1_545 S
C277 C281 1.531 . S
C278 C277 1.369 1_565 S
C278 C279 1.410 . S
C278 C286 1.503 . S
C279 C278 1.410 . S
C279 C280 1.392 . S
C279 C282 1.511 . S
C280 C276 1.376 . S
C280 C279 1.392 . S
C280 H292 0.929 . S
C281 C277 1.531 . S
C281 H293 0.958 1_545 S
C281 H294 0.962 . S
C281 H295 0.960 . S
C282 C279 1.511 . S
C282 H296 0.961 . S
C282 H297 0.961 . S
C282 H298 0.961 . S
C283 C284 1.370 1_545 S
C283 C285 1.363 . S
C283 H299 0.931 . S
C284 C283 1.370 1_565 S
C284 C288 1.408 . S
C285 C283 1.363 . S
C285 C286 1.370 1_545 S
C285 C289 1.524 . S
C286 C278 1.503 . S
C286 C285 1.370 1_565 S
C286 C287 1.403 . S
C287 C286 1.403 . S
C287 C288 1.404 . S
C287 C290 1.539 . S
C288 C284 1.408 . S
C288 C287 1.404 . S
C288 H300 0.930 . S
C289 C285 1.524 . S
C289 H301 0.956 . S
C289 H302 0.961 . S
C289 H303 0.961 . S
C290 C287 1.539 . S
C290 H304 0.958 . S
C290 H305 0.961 . S
C290 H306 0.960 . S
H291 C275 0.931 . S
H292 C280 0.929 . S
H293 C281 0.958 1_565 S
H294 C281 0.962 . S
H295 C281 0.960 . S
H296 C282 0.961 . S
H297 C282 0.961 . S
H298 C282 0.961 . S
H299 C283 0.931 . S
H300 C288 0.930 . S
H301 C289 0.956 . S
H302 C289 0.961 . S
H303 C289 0.961 . S
H304 C290 0.958 . S
H305 C290 0.961 . S
H306 C290 0.960 . S
C307 C308 1.391 . S
C307 C309 1.394 . S
C307 H323 0.931 . S
C308 C307 1.391 . S
C308 C312 1.376 1_455 S
C309 C307 1.394 . S
C309 C310 1.369 . S
C309 C313 1.531 . S
C310 C309 1.369 . S
C310 C311 1.410 1_455 S
C310 C318 1.503 . S
C311 C310 1.410 1_655 S
C311 C312 1.392 . S
C311 C314 1.511 . S
C312 C308 1.376 1_655 S
C312 C311 1.392 . S
C312 H324 0.929 . S
C313 C309 1.531 . S
C313 H325 0.960 . S
C313 H326 0.962 . S
C313 H327 0.960 . S
C314 C311 1.511 . S
C314 H328 0.961 . S
C314 H329 0.961 . S
C314 H330 0.961 . S
C315 C316 1.370 . S
C315 C317 1.363 . S
C315 H331 0.931 . S
C316 C315 1.370 . S
C316 C320 1.408 1_455 S
C317 C315 1.363 . S
C317 C318 1.370 . S
C317 C321 1.524 . S
C318 C310 1.503 . S
C318 C317 1.370 . S
C318 C319 1.403 1_455 S
C319 C318 1.403 1_655 S
C319 C320 1.404 . S
C319 C322 1.539 . S
C320 C316 1.408 1_655 S
C320 C319 1.404 . S
C320 H332 0.930 . S
C321 C317 1.524 . S
C321 H333 0.956 . S
C321 H334 0.961 . S
C321 H335 0.961 . S
C322 C319 1.539 . S
C322 H336 0.958 . S
C322 H337 0.961 . S
C322 H338 0.960 . S
H323 C307 0.931 . S
H324 C312 0.929 . S
H325 C313 0.960 . S
H326 C313 0.962 . S
H327 C313 0.960 . S
H328 C314 0.961 . S
H329 C314 0.961 . S
H330 C314 0.961 . S
H331 C315 0.931 . S
H332 C320 0.930 . S
H333 C321 0.956 . S
H334 C321 0.961 . S
H335 C321 0.961 . S
H336 C322 0.958 . S
H337 C322 0.961 . S
H338 C322 0.960 . S
C339 C340 1.391 1_565 S
C339 C341 1.394 . S
C339 H355 0.931 . S
C340 C339 1.391 1_545 S
C340 C344 1.376 . S
C341 C339 1.394 . S
C341 C342 1.369 1_565 S
C341 C345 1.531 . S
C342 C341 1.369 1_545 S
C342 C343 1.410 . S
C342 C350 1.503 . S
C343 C342 1.410 . S
C343 C344 1.392 . S
C343 C346 1.511 . S
C344 C340 1.376 . S
C344 C343 1.392 . S
C344 H356 0.929 . S
C345 C341 1.531 . S
C345 H357 0.960 . S
C345 H358 0.962 . S
C345 H359 0.960 . S
C346 C343 1.511 . S
C346 H360 0.961 . S
C346 H361 0.961 . S
C346 H362 0.961 . S
C347 C348 1.370 . S
C347 C349 1.363 . S
C347 H363 0.931 . S
C348 C347 1.370 . S
C348 C352 1.408 . S
C349 C347 1.363 . S
C349 C350 1.370 . S
C349 C353 1.524 . S
C350 C342 1.503 . S
C350 C349 1.370 . S
C350 C351 1.403 . S
C351 C350 1.403 . S
C351 C352 1.404 . S
C351 C354 1.539 . S
C352 C348 1.408 . S
C352 C351 1.404 . S
C352 H364 0.930 . S
C353 C349 1.524 . S
C353 H365 0.956 1_545 S
C353 H366 0.961 . S
C353 H367 0.961 . S
C354 C351 1.539 . S
C354 H368 0.958 1_545 S
C354 H369 0.961 . S
C354 H370 0.960 . S
H355 C339 0.931 . S
H356 C344 0.929 . S
H357 C345 0.960 . S
H358 C345 0.962 . S
H359 C345 0.960 . S
H360 C346 0.961 . S
H361 C346 0.961 . S
H362 C346 0.961 . S
H363 C347 0.931 . S
H364 C352 0.930 . S
H365 C353 0.956 1_565 S
H366 C353 0.961 . S
H367 C353 0.961 . S
H368 C354 0.958 1_565 S
H369 C354 0.961 . S
H370 C354 0.960 . S
C371 C372 1.391 . S
C371 C373 1.394 . S
C371 H387 0.931 . S
C372 C371 1.391 . S
C372 C376 1.376 . S
C373 C371 1.394 . S
C373 C374 1.369 . S
C373 C377 1.531 . S
C374 C373 1.369 . S
C374 C375 1.410 . S
C374 C382 1.503 . S
C375 C374 1.410 . S
C375 C376 1.392 . S
C375 C378 1.511 . S
C376 C372 1.376 . S
C376 C375 1.392 . S
C376 H388 0.929 . S
C377 C373 1.531 . S
C377 H389 0.960 1_554 S
C377 H390 0.962 . S
C377 H391 0.960 1_554 S
C378 C375 1.511 . S
C378 H392 0.961 . S
C378 H393 0.961 . S
C378 H394 0.961 1_554 S
C379 C380 1.370 . S
C379 C381 1.363 . S
C379 H395 0.931 . S
C380 C379 1.370 . S
C380 C384 1.408 1_554 S
C381 C379 1.363 . S
C381 C382 1.370 . S
C381 C385 1.524 . S
C382 C374 1.503 . S
C382 C381 1.370 . S
C382 C383 1.403 1_554 S
C383 C382 1.403 1_556 S
C383 C384 1.404 . S
C383 C386 1.539 . S
C384 C380 1.408 1_556 S
C384 C383 1.404 . S
C384 H396 0.930 . S
C385 C381 1.524 . S
C385 H397 0.956 . S
C385 H398 0.961 . S
C385 H399 0.961 . S
C386 C383 1.539 . S
C386 H400 0.958 . S
C386 H401 0.961 . S
C386 H402 0.960 . S
H387 C371 0.931 . S
H388 C376 0.929 . S
H389 C377 0.960 1_556 S
H390 C377 0.962 . S
H391 C377 0.960 1_556 S
H392 C378 0.961 . S
H393 C378 0.961 . S
H394 C378 0.961 1_556 S
H395 C379 0.931 . S
H396 C384 0.930 . S
H397 C385 0.956 . S
H398 C385 0.961 . S
H399 C385 0.961 . S
H400 C386 0.958 . S
H401 C386 0.961 . S
H402 C386 0.960 . S
C403 C404 1.391 . S
C403 C405 1.394 . S
C403 H419 0.931 . S
C404 C403 1.391 . S
C404 C408 1.376 . S
C405 C403 1.394 . S
C405 C406 1.369 . S
C405 C409 1.531 . S
C406 C405 1.369 . S
C406 C407 1.410 1_554 S
C406 C414 1.503 . S
C407 C406 1.410 1_556 S
C407 C408 1.392 1_556 S
C407 C410 1.511 . S
C408 C404 1.376 . S
C408 C407 1.392 1_554 S
C408 H420 0.929 1_554 S
C409 C405 1.531 . S
C409 H421 0.960 . S
C409 H422 0.962 . S
C409 H423 0.960 . S
C410 C407 1.511 . S
C410 H424 0.961 . S
C410 H425 0.961 . S
C410 H426 0.961 . S
C411 C412 1.370 . S
C411 C413 1.363 . S
C411 H427 0.931 . S
C412 C411 1.370 . S
C412 C416 1.408 1_554 S
C413 C411 1.363 . S
C413 C414 1.370 . S
C413 C417 1.524 . S
C414 C406 1.503 . S
C414 C413 1.370 . S
C414 C415 1.403 1_554 S
C415 C414 1.403 1_556 S
C415 C416 1.404 . S
C415 C418 1.539 . S
C416 C412 1.408 1_556 S
C416 C415 1.404 . S
C416 H428 0.930 . S
C417 C413 1.524 . S
C417 H429 0.956 . S
C417 H430 0.961 . S
C417 H431 0.961 . S
C418 C415 1.539 . S
C418 H432 0.958 . S
C418 H433 0.961 . S
C418 H434 0.960 . S
H419 C403 0.931 . S
H420 C408 0.929 1_556 S
H421 C409 0.960 . S
H422 C409 0.962 . S
H423 C409 0.960 . S
H424 C410 0.961 . S
H425 C410 0.961 . S
H426 C410 0.961 . S
H427 C411 0.931 . S
H428 C416 0.930 . S
H429 C417 0.956 . S
H430 C417 0.961 . S
H431 C417 0.961 . S
H432 C418 0.958 . S
H433 C418 0.961 . S
H434 C418 0.960 . S
C435 C436 1.391 . S
C435 C437 1.394 . S
C435 H451 0.931 . S
C436 C435 1.391 . S
C436 C440 1.376 . S
C437 C435 1.394 . S
C437 C438 1.369 . S
C437 C441 1.531 . S
C438 C437 1.369 . S
C438 C439 1.412 . S
C438 C446 1.503 . S
C439 C438 1.412 . S
C439 C440 1.394 . S
C439 C442 1.507 1_554 S
C440 C436 1.376 . S
C440 C439 1.394 . S
C440 H452 0.929 . S
C441 C437 1.531 . S
C441 H453 0.960 . S
C441 H454 0.962 . S
C441 H455 0.960 . S
C442 C439 1.507 1_556 S
C442 H456 0.962 . S
C442 H457 0.961 1_556 S
C442 H458 0.961 . S
C443 C444 1.370 . S
C443 C445 1.363 . S
C443 H459 0.931 . S
C444 C443 1.370 . S
C444 C448 1.408 1_554 S
C445 C443 1.363 . S
C445 C446 1.370 . S
C445 C449 1.524 . S
C446 C438 1.503 . S
C446 C445 1.370 . S
C446 C447 1.403 1_554 S
C447 C446 1.403 1_556 S
C447 C448 1.404 . S
C447 C450 1.539 . S
C448 C444 1.408 1_556 S
C448 C447 1.404 . S
C448 H460 0.930 . S
C449 C445 1.524 . S
C449 H461 0.956 . S
C449 H462 0.961 . S
C449 H463 0.961 . S
C450 C447 1.539 . S
C450 H464 0.958 . S
C450 H465 0.961 . S
C450 H466 0.960 . S
H451 C435 0.931 . S
H452 C440 0.929 . S
H453 C441 0.960 . S
H454 C441 0.962 . S
H455 C441 0.960 . S
H456 C442 0.962 . S
H457 C442 0.961 1_554 S
H458 C442 0.961 . S
H459 C443 0.931 . S
H460 C448 0.930 . S
H461 C449 0.956 . S
H462 C449 0.961 . S
H463 C449 0.961 . S
H464 C450 0.958 . S
H465 C450 0.961 . S
H466 C450 0.960 . S
C467 C468 1.391 . S
C467 C469 1.394 . S
C467 H483 0.931 . S
C468 C467 1.391 . S
C468 C472 1.376 1_554 S
C469 C467 1.394 . S
C469 C470 1.369 . S
C469 C473 1.531 . S
C470 C469 1.369 . S
C470 C471 1.410 1_554 S
C470 C478 1.503 . S
C471 C470 1.410 1_556 S
C471 C472 1.392 . S
C471 C474 1.511 . S
C472 C468 1.376 1_556 S
C472 C471 1.392 . S
C472 H484 0.929 . S
C473 C469 1.531 . S
C473 H485 0.960 . S
C473 H486 0.962 . S
C473 H487 0.960 . S
C474 C471 1.511 . S
C474 H488 0.961 . S
C474 H489 0.961 . S
C474 H490 0.961 . S
C475 C476 1.370 1_556 S
C475 C477 1.363 . S
C475 H491 0.931 . S
C476 C475 1.370 1_554 S
C476 C480 1.408 . S
C477 C475 1.363 . S
C477 C478 1.370 1_556 S
C477 C481 1.524 . S
C478 C470 1.503 . S
C478 C477 1.370 1_554 S
C478 C479 1.403 . S
C479 C478 1.403 . S
C479 C480 1.404 . S
C479 C482 1.539 . S
C480 C476 1.408 . S
C480 C479 1.404 . S
C480 H492 0.930 . S
C481 C477 1.524 . S
C481 H493 0.956 . S
C481 H494 0.961 . S
C481 H495 0.961 . S
C482 C479 1.539 . S
C482 H496 0.958 . S
C482 H497 0.961 . S
C482 H498 0.960 . S
H483 C467 0.931 . S
H484 C472 0.929 . S
H485 C473 0.960 . S
H486 C473 0.962 . S
H487 C473 0.960 . S
H488 C474 0.961 . S
H489 C474 0.961 . S
H490 C474 0.961 . S
H491 C475 0.931 . S
H492 C480 0.930 . S
H493 C481 0.956 . S
H494 C481 0.961 . S
H495 C481 0.961 . S
H496 C482 0.958 . S
H497 C482 0.961 . S
H498 C482 0.960 . S
C124 C99 1.311 1_455 S
C116 C9 1.327 . S
C156 C95 1.656 1_545 S
C148 C38 1.726 1_565 S
C188 C105 1.322 1_655 S
C180 C17 1.361 1_455 S
C220 C89 1.668 1_565 S
C212 C30 1.704 1_565 S
C244 C19 1.428 . S
C252 C81 1.414 . S
C284 C113 1.775 . S
C276 C33 1.817 1_565 S
C308 C12 1.457 1_455 S
C316 C67 1.402 . S
C340 C40 1.791 . S
C348 C111 1.754 . S
C372 C59 1.408 . S
C380 C93 1.407 . S
C404 C61 1.434 . S
C412 C108 1.395 . S
C444 C102 1.402 . S
C436 C51 1.438 . S
C476 C97 1.414 . S
C468 C54 1.339 . S
