# Generated by pormake.
# Topology anh, (6,3)-cn, num edge types: 1
# Building blocks:
#     Node 0, Type 0, BuildingBlock: HISSIN_clean_sbu_0, # of connection points: 6
#     Node 1, Type 0, BuildingBlock: HISSIN_clean_sbu_0, # of connection points: 6
#     Node 2, Type 0, BuildingBlock: HISSIN_clean_sbu_0, # of connection points: 6
#     Node 3, Type 1, BuildingBlock: BELTOD_clean_linker_0, # of connection points: 3
#     Node 4, Type 1, BuildingBlock: BELTOD_clean_linker_0, # of connection points: 3
#     Node 5, Type 1, BuildingBlock: BELTOD_clean_linker_0, # of connection points: 3
#     Node 6, Type 1, BuildingBlock: BELTOD_clean_linker_0, # of connection points: 3
#     Node 7, Type 1, BuildingBlock: BELTOD_clean_linker_0, # of connection points: 3
#     Node 8, Type 1, BuildingBlock: BELTOD_clean_linker_0, # of connection points: 3
#     Edge 9, Type (0, 1), BuildingBlock: TEMPAE_clean_linker_10, # of connection points: 2
#     Edge 10, Type (0, 1), BuildingBlock: TEMPAE_clean_linker_10, # of connection points: 2
#     Edge 11, Type (0, 1), BuildingBlock: TEMPAE_clean_linker_10, # of connection points: 2
#     Edge 12, Type (0, 1), BuildingBlock: TEMPAE_clean_linker_10, # of connection points: 2
#     Edge 13, Type (0, 1), BuildingBlock: TEMPAE_clean_linker_10, # of connection points: 2
#     Edge 14, Type (0, 1), BuildingBlock: TEMPAE_clean_linker_10, # of connection points: 2
#     Edge 15, Type (0, 1), BuildingBlock: TEMPAE_clean_linker_10, # of connection points: 2
#     Edge 16, Type (0, 1), BuildingBlock: TEMPAE_clean_linker_10, # of connection points: 2
#     Edge 17, Type (0, 1), BuildingBlock: TEMPAE_clean_linker_10, # of connection points: 2
#     Edge 18, Type (0, 1), BuildingBlock: TEMPAE_clean_linker_10, # of connection points: 2
#     Edge 19, Type (0, 1), BuildingBlock: TEMPAE_clean_linker_10, # of connection points: 2
#     Edge 20, Type (0, 1), BuildingBlock: TEMPAE_clean_linker_10, # of connection points: 2
#     Edge 21, Type (0, 1), BuildingBlock: TEMPAE_clean_linker_10, # of connection points: 2
#     Edge 22, Type (0, 1), BuildingBlock: TEMPAE_clean_linker_10, # of connection points: 2
#     Edge 23, Type (0, 1), BuildingBlock: TEMPAE_clean_linker_10, # of connection points: 2
#     Edge 24, Type (0, 1), BuildingBlock: TEMPAE_clean_linker_10, # of connection points: 2
#     Edge 25, Type (0, 1), BuildingBlock: TEMPAE_clean_linker_10, # of connection points: 2
#     Edge 26, Type (0, 1), BuildingBlock: TEMPAE_clean_linker_10, # of connection points: 2
# Relax obj value: 0.241
# Max RMSD: 0.183
# Mean RMSD: 0.147
data_MOF--net-anh--node1-HISSIN_clean_sbu_0--node2-BELTOD_clean_linker_0--edge1-TEMPAE_clean_linker_10
_symmetry_space_group_name_H-M    P1
_symmetry_Int_Tables_number       1
_symmetry_cell_setting            triclinic
loop_
_symmetry_equiv_pos_as_xyz
'x, y, z'
_cell_length_a     34.809124
_cell_length_b     34.792802
_cell_length_c     61.263232
_cell_angle_alpha  93.064655
_cell_angle_beta   90.088531
_cell_angle_gamma 119.98717
loop_
_atom_site_label
_atom_site_type_symbol
_atom_site_fract_x
_atom_site_fract_y
_atom_site_fract_z
_atom_type_partial_charge
Eu0 Eu 1.0105 0.5484 0.16043 0.0
Eu1 Eu 1.05752 0.65394 0.1748 0.0
C2 C 1.01761 0.5802 0.21193 0.0
C3 C 0.93617 0.42115 0.14688 0.0
C4 C 0.91149 0.4096 0.16591 0.0
C5 C 0.89949 0.34359 0.13397 0.0
C6 C 0.88193 0.36492 0.16926 0.0
C7 C 0.92886 0.38817 0.13062 0.0
C8 C 0.87706 0.33147 0.15367 0.0
C9 C 0.97386 0.46587 0.14492 0.0
O10 O 0.11446 0.64139 0.16566 0.0
O11 O 1.08127 0.56663 0.16933 0.0
C12 C 0.11728 0.60518 0.16708 0.0
O13 O 1.05237 0.5869 0.13272 0.0
O14 O 0.10274 0.71203 0.19588 0.0
O15 O 1.0749 0.72084 0.1663 0.0
O16 O 1.0392 0.6434 0.13909 0.0
C17 C 1.05296 0.62224 0.12612 0.0
O18 O 0.95501 0.56577 0.15809 0.0
O19 O 0.98492 0.63403 0.17707 0.0
O20 O 1.04265 0.6219 0.20712 0.0
O21 O 0.96648 0.49524 0.13642 0.0
O22 O 1.00199 0.48244 0.16155 0.0
O23 O 0.99882 0.54729 0.19677 0.0
C24 C 0.15167 0.766 0.17339 0.0
C25 C 0.16457 0.74899 0.1553 0.0
C26 C 0.22898 0.81907 0.18216 0.0
C27 C 0.20938 0.76524 0.15139 0.0
C28 C 0.18404 0.80239 0.18622 0.0
C29 C 0.24215 0.79885 0.16553 0.0
C30 C 0.10651 0.73963 0.18133 0.0
C31 C 0.95092 0.59908 0.16695 0.0
H32 H 0.91694 0.43481 0.17865 0.0
H33 H 0.89593 0.31843 0.12163 0.0
H34 H 0.86523 0.35641 0.18464 0.0
H35 H 0.94774 0.39667 0.11585 0.0
H36 H 0.1401 0.72068 0.14518 0.0
H37 H 0.25341 0.84603 0.19292 0.0
H38 H 0.21803 0.74886 0.13841 0.0
H39 H 0.17476 0.8159 0.20026 0.0
Eu40 Eu 0.56153 0.99096 0.50575 0.0
Eu41 Eu 0.5131 1.047 0.49823 0.0
C42 C 0.53507 1.03173 0.54618 0.0
C43 C 0.60671 0.90847 0.50835 0.0
C44 C 0.60273 0.88186 0.52555 0.0
C45 C 0.63353 0.86831 0.48535 0.0
C46 C 0.61565 0.84994 0.52297 0.0
C47 C 0.62044 0.9002 0.48791 0.0
C48 C 0.63308 0.84428 0.50315 0.0
C49 C 0.60421 0.94903 0.5132 0.0
O50 O 0.58546 0.09809 0.50599 0.0
O51 O 0.61535 1.05681 0.49316 0.0
C52 C 0.61957 0.09597 0.49831 0.0
O53 O 0.53175 0.96952 0.4721 0.0
O54 O 0.49306 0.09401 0.51087 0.0
O55 O 0.48563 0.0754 0.47625 0.0
O56 O 0.54012 1.03695 0.4659 0.0
C57 C 0.53565 0.99872 0.4585 0.0
O58 O 0.48747 0.93865 0.50692 0.0
O59 O 0.45477 0.97624 0.49315 0.0
O60 O 0.5029 1.02907 0.53377 0.0
O61 O 0.61363 0.97632 0.49765 0.0
O62 O 0.57248 0.94654 0.52548 0.0
O63 O 0.56838 1.03057 0.53704 0.0
C64 C 0.51861 0.1517 0.4873 0.0
C65 C 0.55998 0.16416 0.47819 0.0
C66 C 0.54419 0.22947 0.49719 0.0
C67 C 0.59364 0.20865 0.47925 0.0
C68 C 0.51051 0.1848 0.49621 0.0
C69 C 0.58674 0.2417 0.48952 0.0
C70 C 0.48835 0.10464 0.49137 0.0
C71 C 0.45205 0.93904 0.4992 0.0
H72 H 0.5926 0.88785 0.54149 0.0
H73 H 0.6464 0.86425 0.46984 0.0
H74 H 0.61536 0.83233 0.53708 0.0
H75 H 0.62373 0.92015 0.4743 0.0
H76 H 0.56736 0.13919 0.47151 0.0
H77 H 0.53751 0.25421 0.50485 0.0
H78 H 0.62596 0.21659 0.47337 0.0
H79 H 0.47904 0.1759 0.50353 0.0
Eu80 Eu 0.54096 0.53048 0.82668 0.0
Eu81 Eu 0.64282 0.58434 0.84515 0.0
C82 C 0.56481 0.55145 0.87827 0.0
C83 C 0.43273 0.51737 0.81032 0.0
C84 C 0.45041 0.5581 0.80036 0.0
C85 C 0.37778 0.53169 0.82722 0.0
C86 C 0.43327 0.58628 0.8047 0.0
C87 C 0.39465 0.50328 0.82272 0.0
C88 C 0.39865 0.57447 0.81929 0.0
C89 C 0.45914 0.49517 0.81215 0.0
O90 O 0.62359 0.51062 0.84542 0.0
O91 O 0.56079 0.47776 0.82299 0.0
C92 C 0.5927 0.47575 0.83351 0.0
O93 O 0.58521 0.56008 0.79777 0.0
O94 O 0.69456 0.59438 0.86901 0.0
O95 O 0.70851 0.64209 0.84438 0.0
O96 O 0.64722 0.56179 0.8111 0.0
C97 C 0.62357 0.56214 0.79463 0.0
O98 O 0.55357 0.60037 0.83456 0.0
O99 O 0.62892 0.63707 0.83229 0.0
O100 O 0.60191 0.58569 0.87287 0.0
O101 O 0.49265 0.50772 0.79933 0.0
O102 O 0.46985 0.49228 0.83213 0.0
O103 O 0.53916 0.52054 0.86328 0.0
C104 C 0.76954 0.63747 0.85819 0.0
C105 C 0.79038 0.646 0.83796 0.0
C106 C 0.83952 0.65703 0.87626 0.0
C107 C 0.8359 0.66155 0.83704 0.0
C108 C 0.79415 0.64178 0.87719 0.0
C109 C 0.86113 0.66849 0.85629 0.0
C110 C 0.72447 0.6305 0.86041 0.0
C111 C 0.59121 0.63744 0.83242 0.0
H112 H 0.47987 0.57005 0.79074 0.0
H113 H 0.35049 0.52152 0.83823 0.0
H114 H 0.4499 0.61895 0.7983 0.0
H115 H 0.38041 0.47203 0.83052 0.0
H116 H 0.77202 0.64271 0.82301 0.0
H117 H 0.85814 0.66246 0.8914 0.0
H118 H 0.85167 0.66965 0.82141 0.0
H119 H 0.77878 0.63567 0.89296 0.0
P120 P 0.66105 0.8974 0.24494 0.0
H121 H 0.62006 0.82872 0.2085 0.0
H122 H 0.55811 0.81007 0.18267 0.0
H123 H 0.53794 0.91098 0.21601 0.0
H124 H 0.59946 0.92953 0.24121 0.0
H125 H 0.7238 0.92622 0.20964 0.0
H126 H 0.76441 0.99772 0.19264 0.0
H127 H 0.71964 1.0576 0.24236 0.0
H128 H 0.67831 0.98661 0.25871 0.0
H129 H 0.57668 0.85397 0.26762 0.0
H130 H 0.71398 0.94846 0.28415 0.0
O131 O 0.68153 0.86318 0.24216 0.0
H132 H 0.55535 0.87059 0.30323 0.0
H133 H 0.6928 0.96616 0.31967 0.0
C134 C 0.61364 0.87988 0.22698 0.0
C135 C 0.60196 0.84647 0.21025 0.0
C136 C 0.56682 0.83605 0.19547 0.0
C137 C 0.54359 0.85949 0.19712 0.0
C138 C 0.55579 0.893 0.21393 0.0
C139 C 0.59056 0.90321 0.22858 0.0
C140 C 0.69959 0.95143 0.236 0.0
C141 C 0.72395 0.95512 0.21725 0.0
C142 C 0.74667 0.99571 0.20744 0.0
C143 C 0.74536 1.03305 0.21638 0.0
C144 C 0.7219 1.0295 0.23545 0.0
C145 C 0.69865 0.9889 0.24496 0.0
C146 C 0.64673 0.90139 0.27291 0.0
C147 C 0.60232 0.87819 0.27894 0.0
C148 C 0.59011 0.88792 0.29928 0.0
C149 C 0.6222 0.92072 0.31402 0.0
C150 C 0.66718 0.94095 0.30866 0.0
C151 C 0.67936 0.93094 0.28833 0.0
P152 P 0.87651 0.65561 0.59398 0.0
H153 H 0.89292 0.64443 0.54813 0.0
H154 H 0.86274 0.57765 0.52335 0.0
H155 H 0.81721 0.49599 0.57871 0.0
H156 H 0.84665 0.56273 0.60342 0.0
H157 H 0.90592 0.74955 0.58751 0.0
H158 H 0.87394 0.78458 0.56567 0.0
H159 H 0.76672 0.65456 0.54357 0.0
H160 H 0.79872 0.62018 0.56496 0.0
H161 H 0.89508 0.68848 0.6401 0.0
H162 H 0.78355 0.58987 0.60015 0.0
O163 O 0.92998 0.68983 0.60075 0.0
H164 H 0.8477 0.67128 0.67175 0.0
H165 H 0.73577 0.57351 0.6314 0.0
C166 C 0.87025 0.60833 0.5775 0.0
C167 C 0.87752 0.61217 0.55499 0.0
C168 C 0.86028 0.57413 0.54083 0.0
C169 C 0.83698 0.5319 0.54915 0.0
C170 C 0.83491 0.52828 0.57192 0.0
C171 C 0.85151 0.56638 0.58605 0.0
C172 C 0.85506 0.68235 0.57758 0.0
C173 C 0.87583 0.72876 0.57775 0.0
C174 C 0.85751 0.74864 0.56534 0.0
C175 C 0.81817 0.72222 0.5527 0.0
C176 C 0.7976 0.67578 0.5527 0.0
C177 C 0.81572 0.6561 0.56512 0.0
C178 C 0.84306 0.63996 0.61785 0.0
C179 C 0.86051 0.66288 0.63817 0.0
C180 C 0.83322 0.65337 0.65618 0.0
C181 C 0.78784 0.62106 0.6541 0.0
C182 C 0.77062 0.59812 0.63367 0.0
C183 C 0.79795 0.60758 0.61574 0.0
P184 P 0.30116 0.87913 0.94279 0.0
H185 H 0.36866 0.9071 0.90974 0.0
H186 H 0.39275 0.86398 0.88639 0.0
H187 H 0.32085 0.75156 0.92576 0.0
H188 H 0.29672 0.79401 0.94873 0.0
H189 H 0.25743 0.92854 0.92975 0.0
H190 H 0.19147 0.90653 0.9063 0.0
H191 H 0.1834 0.78041 0.88955 0.0
H192 H 0.24823 0.80222 0.91259 0.0
H193 H 0.33592 0.86323 0.98286 0.0
H194 H 0.20962 0.84013 0.95787 0.0
O195 O 0.33449 0.9338 0.9475 0.0
H196 H 0.29902 0.8194 0.01421 0.0
H197 H 0.17322 0.79758 0.98902 0.0
C198 C 0.33162 0.85419 0.93125 0.0
C199 C 0.35967 0.8738 0.91387 0.0
C200 C 0.37314 0.84913 0.90047 0.0
C201 C 0.35804 0.80441 0.90419 0.0
C202 C 0.33254 0.78592 0.92249 0.0
C203 C 0.31936 0.81054 0.93588 0.0
C204 C 0.25844 0.86751 0.9226 0.0
C205 C 0.24209 0.89672 0.92051 0.0
C206 C 0.20433 0.88402 0.90722 0.0
C207 C 0.18247 0.84187 0.89592 0.0
C208 C 0.20001 0.8135 0.89756 0.0
C209 C 0.2373 0.82604 0.91087 0.0
C210 C 0.27551 0.85411 0.96772 0.0
C211 C 0.30047 0.84937 0.98428 0.0
C212 C 0.27937 0.82437 0.00217 0.0
C213 C 0.23304 0.80417 0.00381 0.0
C214 C 0.20875 0.81157 0.98789 0.0
C215 C 0.22974 0.83627 0.97005 0.0
P216 P 1.03998 0.5027 0.44488 0.0
H217 H 0.13348 0.53199 0.45577 0.0
H218 H 0.19787 0.6035 0.46649 0.0
H219 H 0.11385 0.66107 0.47493 0.0
H220 H 1.04846 0.5884 0.46374 0.0
H221 H 1.01993 0.43154 0.47441 0.0
H222 H 0.95103 0.36821 0.4852 0.0
H223 H 0.87703 0.42356 0.45692 0.0
H224 H 0.9467 0.48664 0.44562 0.0
H225 H 1.08715 0.58064 0.41826 0.0
H226 H 0.96932 0.45118 0.41123 0.0
O227 O 1.06256 0.47126 0.43836 0.0
H228 H 1.07817 0.59267 0.38027 0.0
H229 H 0.96001 0.46351 0.37312 0.0
C230 C 1.08515 0.55374 0.45906 0.0
C231 C 0.12813 0.55938 0.4603 0.0
C232 C 0.16555 0.60093 0.46625 0.0
C233 C 0.16176 0.63882 0.47135 0.0
C234 C 0.11844 0.63288 0.4712 0.0
C235 C 1.08073 0.59104 0.46496 0.0
C236 C 0.98926 0.46438 0.45897 0.0
C237 C 0.98907 0.43084 0.47092 0.0
C238 C 0.94908 0.39412 0.47713 0.0
C239 C 0.90739 0.38946 0.47177 0.0
C240 C 0.90787 0.42471 0.46099 0.0
C241 C 0.94809 0.46155 0.45476 0.0
C242 C 1.02789 0.51561 0.4182 0.0
C243 C 1.05846 0.55524 0.4089 0.0
C244 C 1.05367 0.56196 0.38694 0.0
C245 C 1.01833 0.52911 0.37361 0.0
C246 C 0.9872 0.48981 0.38301 0.0
C247 C 0.99233 0.4829 0.40494 0.0
P248 P 0.61377 0.06322 0.78317 0.0
H249 H 0.67726 0.15077 0.80426 0.0
H250 H 0.67226 0.21635 0.81504 0.0
H251 H 0.53044 0.14125 0.80355 0.0
H252 H 0.53564 0.07494 0.79247 0.0
H253 H 0.55925 0.97036 0.76386 0.0
H254 H 0.55018 0.9001 0.77401 0.0
H255 H 0.62286 0.96336 0.83481 0.0
H256 H 0.62968 1.03371 0.82488 0.0
H257 H 0.66202 0.10085 0.74355 0.0
H258 H 0.52528 1.02029 0.7606 0.0
O259 O 0.66849 0.0834 0.78251 0.0
H260 H 0.63909 0.09731 0.70563 0.0
H261 H 0.50193 1.01653 0.72225 0.0
C262 C 0.60679 0.10703 0.79755 0.0
C263 C 0.64472 0.14759 0.80443 0.0
C264 C 0.64195 0.18569 0.81042 0.0
C265 C 0.60106 0.18478 0.8099 0.0
C266 C 0.5626 0.1435 0.80422 0.0
C267 C 0.56548 0.10526 0.79796 0.0
C268 C 0.59407 1.00809 0.79379 0.0
C269 C 0.57173 0.96929 0.77982 0.0
C270 C 0.56749 0.92866 0.7855 0.0
C271 C 0.58648 0.92524 0.80517 0.0
C272 C 0.60726 0.96376 0.8196 0.0
C273 C 0.61098 1.00439 0.81397 0.0
C274 C 0.5955 0.05987 0.75497 0.0
C275 C 0.62696 0.08214 0.73919 0.0
C276 C 0.61376 0.08048 0.71743 0.0
C277 C 0.56865 1.05659 0.71084 0.0
C278 C 0.53697 1.03486 0.72674 0.0
C279 C 0.55027 1.03701 0.74866 0.0
P280 P 0.51159 0.55588 0.11765 0.0
H281 H 0.54365 0.52756 0.15468 0.0
H282 H 0.61647 0.53898 0.1646 0.0
H283 H 0.67614 0.64276 0.11925 0.0
H284 H 0.60242 0.62959 0.10879 0.0
H285 H 0.41653 0.51054 0.1103 0.0
H286 H 0.35772 0.5263 0.11929 0.0
H287 H 0.45324 0.65016 0.1531 0.0
H288 H 0.51308 0.63371 0.14389 0.0
H289 H 0.56151 0.53197 0.0872 0.0
H290 H 0.47492 0.58683 0.08303 0.0
O291 O 0.48661 0.5013 0.12078 0.0
H292 H 0.56605 0.52983 0.04752 0.0
H293 H 0.477 0.58221 0.04327 0.0
C294 C 0.56676 0.57757 0.13089 0.0
C295 C 0.57239 0.55372 0.14724 0.0
C296 C 0.61466 0.5603 0.15291 0.0
C297 C 0.65323 0.5914 0.14257 0.0
C298 C 0.64772 0.61757 0.1273 0.0
C299 C 0.60527 0.61072 0.12155 0.0
C300 C 0.46966 0.57052 0.12653 0.0
C301 C 0.42522 0.54109 0.11982 0.0
C302 C 0.39129 0.55043 0.12481 0.0
C303 C 0.40014 0.58979 0.13682 0.0
C304 C 0.44477 0.61936 0.1439 0.0
C305 C 0.47922 0.61005 0.13862 0.0
C306 C 0.51812 0.55976 0.08829 0.0
C307 C 0.54357 0.54377 0.07776 0.0
C308 C 0.54556 0.54191 0.05493 0.0
C309 C 0.52138 0.55522 0.0419 0.0
C310 C 0.49644 0.57199 0.05259 0.0
C311 C 0.49498 0.57439 0.0755 0.0
C312 C 0.19863 0.64524 0.15711 0.0
C313 C 0.16134 0.60702 0.16421 0.0
C314 C 0.23919 0.64633 0.15287 0.0
C315 C 0.24363 0.60853 0.15624 0.0
C316 C 0.20631 0.57018 0.16386 0.0
C317 C 0.16594 0.56979 0.16758 0.0
C318 C 0.277 0.68855 0.14492 0.0
C319 C 0.20873 0.52897 0.16773 0.0
C320 C 0.32888 0.58803 0.12548 0.0
C321 C 0.36243 0.59893 0.14153 0.0
C322 C 0.29127 0.59238 0.12986 0.0
C323 C 0.28604 0.60781 0.15094 0.0
C324 C 0.32056 0.62061 0.16699 0.0
C325 C 0.35812 0.61613 0.16214 0.0
C326 C 0.25669 0.57998 0.11186 0.0
C327 C 0.31717 0.63776 0.18961 0.0
H328 H 0.19598 0.67433 0.15439 0.0
H329 H 0.13773 0.53995 0.17306 0.0
H330 H 0.29482 0.71164 0.15929 0.0
H331 H 0.30096 0.68273 0.13548 0.0
H332 H 0.26443 0.70534 0.1345 0.0
H333 H 0.17766 0.50242 0.17442 0.0
H334 H 0.21518 0.51574 0.15214 0.0
H335 H 0.23673 0.53729 0.17932 0.0
H336 H 0.3319 0.57578 0.10931 0.0
H337 H 0.38341 0.62474 0.17478 0.0
H338 H 0.25165 0.60855 0.10933 0.0
H339 H 0.22446 0.55201 0.11665 0.0
H340 H 0.26606 0.57004 0.09612 0.0
H341 H 0.30653 0.66287 0.18869 0.0
H342 H 0.34915 0.65289 0.1991 0.0
H343 H 0.29162 0.60987 0.19858 0.0
C344 C 0.69695 0.13923 0.48278 0.0
C345 C 0.66251 0.13854 0.49511 0.0
C346 C 0.73644 0.17967 0.47914 0.0
C347 C 0.74238 0.22094 0.4881 0.0
C348 C 0.7078 0.22007 0.50073 0.0
C349 C 0.66873 0.17942 0.50399 0.0
C350 C 0.77182 0.17824 0.46554 0.0
C351 C 0.71219 0.26215 0.5112 0.0
C352 C 0.86084 0.32304 0.49489 0.0
C353 C 0.8642 0.34736 0.47657 0.0
C354 C 0.82191 0.28241 0.49881 0.0
C355 C 0.78437 0.26482 0.48423 0.0
C356 C 0.787 0.28957 0.46601 0.0
C357 C 0.82646 0.33 0.46239 0.0
C358 C 0.82109 0.25812 0.51863 0.0
C359 C 0.74801 0.27304 0.45013 0.0
H360 H 0.69283 0.10813 0.47569 0.0
H361 H 0.64284 0.17979 0.51365 0.0
H362 H 0.77774 0.19815 0.45108 0.0
H363 H 0.80354 0.19336 0.47521 0.0
H364 H 0.76268 0.14379 0.45981 0.0
H365 H 0.68071 0.2571 0.51822 0.0
H366 H 0.7379 0.27479 0.52453 0.0
H367 H 0.72305 0.28772 0.49905 0.0
H368 H 0.88877 0.33584 0.5064 0.0
H369 H 0.82793 0.34747 0.44803 0.0
H370 H 0.8136 0.22391 0.51354 0.0
H371 H 0.79435 0.25506 0.52948 0.0
H372 H 0.85308 0.27528 0.52816 0.0
H373 H 0.7403 0.24041 0.44224 0.0
H374 H 0.75434 0.2965 0.43718 0.0
H375 H 0.71816 0.26787 0.45898 0.0
C376 C 0.63021 0.72119 0.82865 0.0
C377 C 0.59069 0.68011 0.82952 0.0
C378 C 0.6298 0.76109 0.82549 0.0
C379 C 0.58892 0.76053 0.82288 0.0
C380 C 0.54893 0.71916 0.82395 0.0
C381 C 0.55032 0.67991 0.82726 0.0
C382 C 0.67337 0.80402 0.8248 0.0
C383 C 0.50404 0.71522 0.82103 0.0
C384 C 0.58517 0.86954 0.83142 0.0
C385 C 0.58646 0.88264 0.80991 0.0
C386 C 0.58602 0.83033 0.83585 0.0
C387 C 0.58817 0.80279 0.81848 0.0
C388 C 0.5888 0.81535 0.79677 0.0
C389 C 0.58837 0.85487 0.7928 0.0
C390 C 0.58428 0.81809 0.85921 0.0
C391 C 0.58953 0.78666 0.77761 0.0
H392 H 0.66172 0.72227 0.83041 0.0
H393 H 0.51936 0.64878 0.82785 0.0
H394 H 0.67657 0.81794 0.80859 0.0
H395 H 0.67436 0.82888 0.83727 0.0
H396 H 0.70231 0.79951 0.82782 0.0
H397 H 0.48032 0.69153 0.83244 0.0
H398 H 0.50491 0.74735 0.82372 0.0
H399 H 0.4911 0.70182 0.80412 0.0
H400 H 0.58293 0.88964 0.84492 0.0
H401 H 0.59022 0.86422 0.7761 0.0
H402 H 0.61498 0.81765 0.86364 0.0
H403 H 0.55592 0.78411 0.86101 0.0
H404 H 0.58084 0.84164 0.8709 0.0
H405 H 0.61925 0.7829 0.77901 0.0
H406 H 0.58981 0.80061 0.76168 0.0
H407 H 0.5599 0.75291 0.77773 0.0
C408 C 0.90359 0.63609 0.16969 0.0
C409 C 0.90703 0.598 0.16451 0.0
C410 C 0.86325 0.6362 0.16651 0.0
C411 C 0.82453 0.59713 0.15812 0.0
C412 C 0.82762 0.5584 0.15316 0.0
C413 C 0.86851 0.55937 0.15625 0.0
C414 C 0.86229 0.67853 0.17188 0.0
C415 C 0.78758 0.51572 0.14446 0.0
C416 C 0.70937 0.5855 0.16733 0.0
C417 C 0.69807 0.59476 0.1469 0.0
C418 C 0.74991 0.58615 0.17117 0.0
C419 C 0.78109 0.59687 0.15435 0.0
C420 C 0.77041 0.607 0.13384 0.0
C421 C 0.7294 0.60558 0.13036 0.0
C422 C 0.75922 0.57491 0.19329 0.0
C423 C 0.80226 0.61898 0.11537 0.0
H424 H 0.93278 0.66636 0.17594 0.0
H425 H 0.87021 0.52958 0.15216 0.0
H426 H 0.85276 0.68905 0.15699 0.0
H427 H 0.8369 0.67274 0.18418 0.0
H428 H 0.89488 0.7061 0.17835 0.0
H429 H 0.79477 0.48811 0.14193 0.0
H430 H 0.76007 0.50565 0.15599 0.0
H431 H 0.77576 0.52089 0.12865 0.0
H432 H 0.68654 0.57783 0.18056 0.0
H433 H 0.72159 0.61208 0.11434 0.0
H434 H 0.79017 0.60323 0.20077 0.0
H435 H 0.76445 0.54597 0.19144 0.0
H436 H 0.73176 0.56694 0.20467 0.0
H437 H 0.83508 0.64759 0.12075 0.0
H438 H 0.79019 0.6277 0.10068 0.0
H439 H 0.80737 0.59065 0.1107 0.0
C440 C 0.4013 0.85703 0.50588 0.0
C441 C 0.40811 0.89583 0.49635 0.0
C442 C 0.36082 0.81607 0.50269 0.0
C443 C 0.32584 0.81284 0.48926 0.0
C444 C 0.33248 0.85192 0.47965 0.0
C445 C 0.37299 0.89261 0.48342 0.0
C446 C 0.35565 0.77598 0.51361 0.0
C447 C 0.297 0.8506 0.46492 0.0
C448 C 0.24075 0.69725 0.46297 0.0
C449 C 0.20314 0.68407 0.47584 0.0
C450 C 0.28016 0.73874 0.46699 0.0
C451 C 0.28319 0.76846 0.48462 0.0
C452 C 0.24535 0.75546 0.49768 0.0
C453 C 0.20595 0.71397 0.49304 0.0
C454 C 0.31872 0.75084 0.45222 0.0
C455 C 0.2467 0.78523 0.51684 0.0
H456 H 0.42773 0.85859 0.51595 0.0
H457 H 0.37744 0.92187 0.47576 0.0
H458 H 0.32533 0.7616 0.52342 0.0
H459 H 0.35155 0.74995 0.50103 0.0
H460 H 0.38464 0.78414 0.52449 0.0
H461 H 0.30665 0.8837 0.45892 0.0
H462 H 0.29015 0.82688 0.45061 0.0
H463 H 0.26563 0.83848 0.47377 0.0
H464 H 0.23922 0.67514 0.44942 0.0
H465 H 0.17758 0.70446 0.50326 0.0
H466 H 0.34802 0.75584 0.46188 0.0
H467 H 0.32814 0.78268 0.44481 0.0
H468 H 0.31102 0.72488 0.43888 0.0
H469 H 0.27386 0.79156 0.52857 0.0
H470 H 0.21496 0.77057 0.52557 0.0
H471 H 0.25395 0.81789 0.51118 0.0
C472 C 0.62011 0.42391 0.8452 0.0
C473 C 0.59395 0.43289 0.83113 0.0
C474 C 0.62094 0.3835 0.8428 0.0
C475 C 0.59571 0.35116 0.82565 0.0
C476 C 0.56951 0.36025 0.81136 0.0
C477 C 0.56867 0.40042 0.81436 0.0
C478 C 0.64889 0.37539 0.85869 0.0
C479 C 0.54267 0.32769 0.79258 0.0
C480 C 0.63093 0.26695 0.80524 0.0
C481 C 0.59941 0.22724 0.81423 0.0
C482 C 0.63018 0.30707 0.80888 0.0
C483 C 0.5975 0.30848 0.82218 0.0
C484 C 0.56577 0.26862 0.83149 0.0
C485 C 0.56681 0.22865 0.82725 0.0
C486 C 0.66415 0.34797 0.79812 0.0
C487 C 0.53065 0.26821 0.84603 0.0
H488 H 0.63972 0.44832 0.85826 0.0
H489 H 0.54849 0.40665 0.8032 0.0
H490 H 0.62799 0.34371 0.86653 0.0
H491 H 0.67492 0.37203 0.84982 0.0
H492 H 0.66517 0.40269 0.87165 0.0
H493 H 0.52406 0.33948 0.78284 0.0
H494 H 0.56492 0.32207 0.78158 0.0
H495 H 0.51867 0.29513 0.79884 0.0
H496 H 0.65594 0.26649 0.79489 0.0
H497 H 0.54244 0.19855 0.83446 0.0
H498 H 0.68354 0.37525 0.8107 0.0
H499 H 0.64716 0.35971 0.78722 0.0
H500 H 0.68752 0.34172 0.78831 0.0
H501 H 0.54649 0.29366 0.85981 0.0
H502 H 0.50952 0.23528 0.85278 0.0
H503 H 0.50908 0.27695 0.83667 0.0
C504 C 0.7005 0.8393 0.49472 0.0
C505 C 0.65729 0.81936 0.50256 0.0
C506 C 0.72837 0.82209 0.49894 0.0
C507 C 0.71256 0.78424 0.51134 0.0
C508 C 0.66773 0.76166 0.51754 0.0
C509 C 0.64056 0.77951 0.51304 0.0
C510 C 0.77581 0.84677 0.49182 0.0
C511 C 0.64952 0.72081 0.53056 0.0
C512 C 0.77746 0.72512 0.51971 0.0
C513 C 0.79642 0.74238 0.54071 0.0
C514 C 0.75136 0.73962 0.50945 0.0
C515 C 0.7441 0.772 0.52053 0.0
C516 C 0.76495 0.79109 0.54127 0.0
C517 C 0.79092 0.77604 0.55111 0.0
C518 C 0.73009 0.71898 0.48722 0.0
C519 C 0.75813 0.82593 0.55356 0.0
H520 H 0.71379 0.87032 0.48674 0.0
H521 H 0.60695 0.7637 0.51883 0.0
H522 H 0.79792 0.866 0.50616 0.0
H523 H 0.78639 0.82327 0.48531 0.0
H524 H 0.78056 0.87031 0.47914 0.0
H525 H 0.61285 0.7041 0.53168 0.0
H526 H 0.65843 0.69665 0.52313 0.0
H527 H 0.66443 0.73045 0.54739 0.0
H528 H 0.78219 0.69945 0.51152 0.0
H529 H 0.80514 0.78912 0.56742 0.0
H530 H 0.73573 0.74513 0.47597 0.0
H531 H 0.6937 0.69788 0.48874 0.0
H532 H 0.74305 0.69807 0.47978 0.0
H533 H 0.76649 0.85407 0.54317 0.0
H534 H 0.77866 0.83912 0.56895 0.0
H535 H 0.7227 0.81143 0.55768 0.0
C536 C 0.93345 0.73148 0.84527 0.0
C537 C 0.91025 0.69208 0.85617 0.0
C538 C 0.97964 0.75839 0.84806 0.0
C539 C 1.00297 0.74552 0.86209 0.0
C540 C 0.98005 0.70441 0.87202 0.0
C541 C 0.93392 0.67818 0.86894 0.0
C542 C 1.00297 0.80184 0.8371 0.0
C543 C 1.00387 0.68927 0.8869 0.0
C544 C 0.12806 0.79815 0.86505 0.0
C545 C 0.13866 0.82467 0.88466 0.0
C546 C 1.08422 0.77401 0.85669 0.0
C547 C 1.05035 0.77662 0.86822 0.0
C548 C 1.06139 0.8059 0.8871 0.0
C549 C 0.10545 0.82957 0.89512 0.0
C550 C 1.0738 0.74354 0.83636 0.0
C551 C 1.0262 0.80987 0.89976 0.0
H552 H 0.91525 0.74259 0.83554 0.0
H553 H 0.9161 0.64745 0.87713 0.0
H554 H 1.01269 0.82978 0.84953 0.0
H555 H 1.03379 0.80638 0.82953 0.0
H556 H 0.9815 0.80389 0.82432 0.0
H557 H 0.9819 0.65488 0.89187 0.0
H558 H 1.03288 0.69064 0.87869 0.0
H559 H 1.01656 0.71195 0.90186 0.0
H560 H 0.15381 0.79478 0.85675 0.0
H561 H 0.11329 0.84965 0.91037 0.0
H562 H 1.05117 0.74719 0.82499 0.0
H563 H 1.05658 0.7085 0.84094 0.0
H564 H 0.10425 0.75011 0.82763 0.0
H565 H 1.00477 0.81575 0.88862 0.0
H566 H 1.04072 0.83727 0.91276 0.0
H567 H 1.00463 0.77826 0.90753 0.0
C568 C 0.3086 0.80701 0.14511 0.0
C569 C 0.28879 0.80818 0.16492 0.0
C570 C 0.3514 0.81228 0.14488 0.0
C571 C 0.37497 0.81936 0.16492 0.0
C572 C 0.35514 0.82063 0.1849 0.0
C573 C 0.31233 0.81462 0.18465 0.0
C574 C 0.37076 0.8092 0.12329 0.0
C575 C 0.37909 0.82824 0.20671 0.0
C576 C 0.47123 0.80349 0.17875 0.0
C577 C 0.50478 0.8479 0.18256 0.0
C578 C 0.42946 0.79299 0.17016 0.0
C579 C 0.42123 0.82777 0.16562 0.0
C580 C 0.45671 0.87222 0.16683 0.0
C581 C 0.4982 0.88173 0.17517 0.0
C582 C 0.39307 0.74503 0.16793 0.0
C583 C 0.44964 0.91029 0.16178 0.0
H584 H 0.29063 0.80175 0.12976 0.0
H585 H 0.29691 0.81397 0.20008 0.0
H586 H 0.40594 0.83586 0.1226 0.0
H587 H 0.36991 0.77689 0.12145 0.0
H588 H 0.35181 0.81128 0.10923 0.0
H589 H 0.35923 0.82911 0.22071 0.0
H590 H 0.38689 0.80139 0.20885 0.0
H591 H 0.41098 0.86019 0.20729 0.0
H592 H 0.47632 0.77714 0.18412 0.0
H593 H 0.52464 0.91606 0.17742 0.0
H594 H 0.3767 0.73737 0.15149 0.0
H595 H 0.36763 0.73915 0.18022 0.0
H596 H 0.4057 0.72182 0.17033 0.0
H597 H 0.42917 0.90231 0.14653 0.0
H598 H 0.48156 0.94157 0.16002 0.0
H599 H 0.43152 0.91604 0.17528 0.0
C600 C 0.62942 0.30868 0.51521 0.0
C601 C 0.62505 0.28731 0.49453 0.0
C602 C 0.66726 0.34948 0.52133 0.0
C603 C 0.70211 0.36944 0.50652 0.0
C604 C 0.69778 0.34861 0.48546 0.0
C605 C 0.6592 0.30786 0.47967 0.0
C606 C 0.67032 0.37078 0.5439 0.0
C607 C 0.73452 0.36846 0.46937 0.0
C608 C 0.77664 0.49243 0.52075 0.0
C609 C 0.80885 0.49235 0.53448 0.0
C610 C 0.74326 0.45286 0.51021 0.0
C611 C 0.74247 0.41246 0.51334 0.0
C612 C 0.77721 0.41305 0.52576 0.0
C613 C 0.80981 0.453 0.53635 0.0
C614 C 0.70686 0.45384 0.49725 0.0
C615 C 0.77882 0.37126 0.52883 0.0
H616 H 0.60385 0.29276 0.52702 0.0
H617 H 0.65614 0.29169 0.46363 0.0
H618 H 0.69873 0.37319 0.55337 0.0
H619 H 0.67641 0.40508 0.54268 0.0
H620 H 0.63968 0.35175 0.55317 0.0
H621 H 0.72432 0.35061 0.45297 0.0
H622 H 0.74538 0.40401 0.46766 0.0
H623 H 0.76365 0.36692 0.47557 0.0
H624 H 0.77572 0.52293 0.51947 0.0
H625 H 0.83509 0.45324 0.54681 0.0
H626 H 0.67573 0.43812 0.50643 0.0
H627 H 0.70028 0.43451 0.48134 0.0
H628 H 0.71516 0.48828 0.49414 0.0
H629 H 0.7477 0.34639 0.53614 0.0
H630 H 0.80725 0.3772 0.53958 0.0
H631 H 0.78195 0.35726 0.5127 0.0
C632 C 0.39 0.61426 0.85206 0.0
C633 C 0.39009 0.6091 0.82922 0.0
C634 C 0.38665 0.6493 0.86228 0.0
C635 C 0.38298 0.6799 0.84937 0.0
C636 C 0.38304 0.67501 0.82628 0.0
C637 C 0.38679 0.63964 0.81643 0.0
C638 C 0.38756 0.65387 0.88698 0.0
C639 C 0.37965 0.70732 0.81205 0.0
C640 C 0.3281 0.73552 0.87991 0.0
C641 C 0.36482 0.77544 0.88808 0.0
C642 C 0.33348 0.70547 0.866 0.0
C643 C 0.37674 0.71535 0.86038 0.0
C644 C 0.41386 0.75667 0.86774 0.0
C645 C 0.40736 0.78657 0.88136 0.0
C646 C 0.29301 0.66214 0.85824 0.0
C647 C 0.46047 0.7689 0.86175 0.0
H648 H 0.39397 0.59157 0.86202 0.0
H649 H 0.38749 0.63603 0.79878 0.0
H650 H 0.41515 0.68703 0.8929 0.0
H651 H 0.35621 0.65145 0.89264 0.0
H652 H 0.39184 0.62794 0.89462 0.0
H653 H 0.37723 0.69719 0.79436 0.0
H654 H 0.3502 0.71026 0.81628 0.0
H655 H 0.40935 0.74075 0.81504 0.0
H656 H 0.29506 0.72748 0.88475 0.0
H657 H 0.43562 0.81778 0.8875 0.0
H658 H 0.29306 0.63429 0.86624 0.0
H659 H 0.29366 0.65596 0.84032 0.0
H660 H 0.26162 0.66174 0.86205 0.0
H661 H 0.46654 0.74093 0.86403 0.0
H662 H 0.48586 0.79869 0.87158 0.0
H663 H 0.46493 0.77633 0.84427 0.0
C664 C 0.87512 0.25953 0.15655 0.0
C665 C 0.85368 0.28442 0.15919 0.0
C666 C 0.85648 0.2168 0.16414 0.0
C667 C 0.81522 0.19845 0.17445 0.0
C668 C 0.79236 0.22257 0.17625 0.0
C669 C 0.81211 0.26558 0.16875 0.0
C670 C 0.88209 0.19233 0.16217 0.0
C671 C 0.74791 0.20366 0.18684 0.0
C672 C 0.75487 0.07491 0.18313 0.0
C673 C 0.76559 0.075 0.20519 0.0
C674 C 0.7705 0.11493 0.17286 0.0
C675 C 0.79791 0.1557 0.18494 0.0
C676 C 0.80952 0.15582 0.20712 0.0
C677 C 0.79291 0.1154 0.21703 0.0
C678 C 0.75705 0.11367 0.14928 0.0
C679 C 0.83926 0.19866 0.22042 0.0
H680 H 0.90761 0.27433 0.14946 0.0
H681 H 0.79546 0.28478 0.17067 0.0
H682 H 0.89256 0.18882 0.17872 0.0
H683 H 0.86076 0.15833 0.15456 0.0
H684 H 0.91212 0.20985 0.15231 0.0
H685 H 0.7325 0.22463 0.18493 0.0
H686 H 0.72486 0.16965 0.17967 0.0
H687 H 0.75205 0.201 0.20455 0.0
H688 H 0.73311 1.04359 0.17411 0.0
H689 H 0.80116 0.1153 0.23409 0.0
H690 H 0.78695 0.13033 0.13929 0.0
H691 H 0.73893 0.1322 0.14798 0.0
H692 H 0.73553 0.07918 0.1422 0.0
H693 H 0.87148 0.2175 0.21238 0.0
H694 H 0.84576 0.19285 0.23735 0.0
H695 H 0.82381 0.21989 0.22131 0.0
C696 C 1.0743 0.67928 0.0987 0.0
C697 C 1.07744 0.64384 0.10659 0.0
C698 C 0.10113 0.70386 0.0819 0.0
C699 C 0.13204 0.69288 0.07282 0.0
C700 C 0.13501 0.65675 0.08049 0.0
C701 C 0.10749 0.63249 0.09726 0.0
C702 C 0.0968 0.74202 0.07408 0.0
C703 C 0.16783 0.64432 0.0713 0.0
C704 C 0.16958 0.73427 0.01655 0.0
C705 C 0.20943 0.77411 0.02149 0.0
C706 C 0.14492 0.70667 0.03304 0.0
C707 C 0.16057 0.71905 0.05504 0.0
C708 C 0.20174 0.75822 0.0601 0.0
C709 C 0.22573 0.78536 0.04322 0.0
C710 C 0.10132 0.66504 0.02698 0.0
C711 C 0.21961 0.77227 0.0834 0.0
H712 H 1.05126 0.68832 0.10591 0.0
H713 H 0.11057 0.60556 0.10353 0.0
H714 H 0.12893 0.77349 0.0766 0.0
H715 H 0.08842 0.7367 0.05628 0.0
H716 H 1.07087 0.74599 0.08275 0.0
H717 H 0.16541 0.61481 0.07877 0.0
H718 H 0.16229 0.63718 0.05335 0.0
H719 H 0.2021 0.67264 0.07419 0.0
H720 H 0.15736 0.72482 0.99972 0.0
H721 H 0.25649 0.8161 0.04714 0.0
H722 H 1.07366 0.66818 0.03412 0.0
H723 H 0.10053 0.6358 0.03386 0.0
H724 H 0.09531 0.6586 0.00899 0.0
H725 H 0.19754 0.78073 0.09299 0.0
H726 H 0.25369 0.80156 0.08441 0.0
H727 H 0.22009 0.74451 0.09127 0.0
C728 C 0.52544 0.94619 0.42705 0.0
C729 C 0.54172 0.99016 0.43528 0.0
C730 C 0.53672 0.93676 0.40634 0.0
C731 C 0.56527 0.9722 0.39358 0.0
C732 C 0.58001 1.01668 0.4013 0.0
C733 C 0.56783 1.02518 0.4221 0.0
C734 C 0.51978 0.88885 0.39861 0.0
C735 C 0.6105 1.0553 0.38811 0.0
C736 C 0.63287 0.9443 0.35406 0.0
C737 C 0.60849 0.93522 0.33436 0.0
C738 C 0.62 0.95791 0.37331 0.0
C739 C 0.5817 0.96233 0.37286 0.0
C740 C 0.55744 0.95407 0.35296 0.0
C741 C 0.57119 0.94074 0.33394 0.0
C742 C 0.64675 0.96645 0.39426 0.0
C743 C 0.51642 0.95837 0.35185 0.0
H744 H 0.50487 0.91901 0.43714 0.0
H745 H 0.58068 0.05921 0.42848 0.0
H746 H 0.5041 0.8819 0.38201 0.0
H747 H 0.54797 0.88249 0.39752 0.0
H748 H 0.49521 0.86519 0.40976 0.0
H749 H 0.61528 0.08743 0.39535 0.0
H750 H 0.64337 1.0575 0.38729 0.0
H751 H 0.59719 1.0502 0.37109 0.0
H752 H 0.66155 0.93989 0.35455 0.0
H753 H 0.55274 0.93479 0.31867 0.0
H754 H 0.62623 0.9417 0.4061 0.0
H755 H 0.65644 0.99985 0.40186 0.0
H756 H 0.67725 0.96441 0.39156 0.0
H757 H 0.49041 0.93351 0.362 0.0
H758 H 0.50275 0.95325 0.33487 0.0
H759 H 0.524 0.99173 0.35863 0.0
C760 C 0.62161 0.57315 0.75442 0.0
C761 C 0.64252 0.56759 0.77259 0.0
C762 C 0.64135 0.58073 0.73387 0.0
C763 C 0.68286 0.58285 0.73156 0.0
C764 C 0.70358 0.57642 0.74976 0.0
C765 C 0.68318 0.5688 0.76996 0.0
C766 C 0.61822 0.58719 0.71475 0.0
C767 C 0.74786 0.57841 0.74802 0.0
C768 C 0.72661 0.5675 0.67704 0.0
C769 C 0.75855 0.61144 0.67314 0.0
C770 C 0.70003 0.55784 0.69543 0.0
C771 C 0.70573 0.5929 0.71037 0.0
C772 C 0.73686 0.6374 0.70616 0.0
C773 C 0.76281 0.64613 0.68758 0.0
C774 C 0.66719 0.50995 0.69935 0.0
C775 C 0.74397 0.67572 0.72172 0.0
H776 H 0.59022 0.57223 0.7563 0.0
H777 H 0.69963 0.56436 0.78383 0.0
H778 H 0.63895 0.62117 0.70909 0.0
H779 H 0.61386 0.56343 0.70085 0.0
H780 H 0.58519 0.58253 0.71898 0.0
H781 H 0.75912 0.57187 0.76366 0.0
H782 H 0.74574 0.55366 0.73517 0.0
H783 H 0.77343 0.61172 0.74315 0.0
H784 H 0.72328 0.54044 0.66607 0.0
H785 H 0.78673 0.68022 0.68444 0.0
H786 H 0.63425 0.50598 0.70304 0.0
H787 H 0.67852 0.4998 0.71376 0.0
H788 H 0.6633 0.48709 0.68507 0.0
H789 H 0.71184 0.67393 0.72512 0.0
H790 H 0.7668 0.70849 0.71522 0.0
H791 H 0.75817 0.67361 0.73754 0.0
C792 C 0.56653 1.03146 0.58284 0.0
C793 C 0.53464 1.03533 0.57054 0.0
C794 C 0.56764 1.03458 0.60578 0.0
C795 C 0.53625 1.04209 0.617 0.0
C796 C 0.50375 1.04589 0.60478 0.0
C797 C 0.5032 1.04228 0.58168 0.0
C798 C 0.60274 1.03003 0.61803 0.0
C799 C 0.46989 1.05416 0.61612 0.0
C800 C 0.5251 1.01272 0.67664 0.0
C801 C 0.55543 1.05373 0.68732 0.0
C802 C 0.51661 1.0088 0.6539 0.0
C803 C 0.53868 1.04684 0.6415 0.0
C804 C 0.5674 0.08872 0.65242 0.0
C805 C 0.57553 0.09162 0.67511 0.0
C806 C 0.48597 0.96345 0.64297 0.0
C807 C 0.59136 0.13024 0.63997 0.0
H808 H 0.59086 1.02576 0.57453 0.0
H809 H 0.47843 1.04529 0.57238 0.0
H810 H 0.62427 0.06106 0.62816 0.0
H811 H 0.5869 1.00268 0.62927 0.0
H812 H 0.62403 1.02313 0.60689 0.0
H813 H 0.44635 1.05557 0.60436 0.0
H814 H 0.45074 1.02751 0.62736 0.0
H815 H 0.48693 0.08602 0.62621 0.0
H816 H 0.5096 0.98324 0.6859 0.0
H817 H 0.59844 0.12357 0.68328 0.0
H818 H 0.50564 0.95232 0.63302 0.0
H819 H 0.46178 0.96485 0.63171 0.0
H820 H 0.46748 0.93827 0.65502 0.0
H821 H 0.61654 0.12828 0.62962 0.0
H822 H 0.6084 0.16081 0.65104 0.0
H823 H 0.56778 0.13313 0.6289 0.0
C824 C 0.58853 0.57065 0.91766 0.0
C825 C 0.554 0.54791 0.90185 0.0
C826 C 0.58022 0.56947 0.94009 0.0
C827 C 0.53605 0.54557 0.94711 0.0
C828 C 0.50086 0.52235 0.93128 0.0
C829 C 0.51029 0.52339 0.90881 0.0
C830 C 0.61891 0.59397 0.95629 0.0
C831 C 0.45327 0.49706 0.93806 0.0
C832 C 0.52432 0.51563 0.00666 0.0
C833 C 0.52202 0.55117 0.01738 0.0
C834 C 0.52738 0.51256 0.98379 0.0
C835 C 0.52734 0.54536 0.97108 0.0
C836 C 0.5232 0.58031 0.98163 0.0
C837 C 0.52096 0.583 0.00458 0.0
C838 C 0.53225 0.475 0.97333 0.0
C839 C 0.52263 0.6158 0.96872 0.0
H840 H 0.62251 0.5893 0.91251 0.0
H841 H 0.48343 0.50591 0.89671 0.0
H842 H 0.61575 0.62011 0.96593 0.0
H843 H 0.61885 0.57068 0.968 0.0
H844 H 0.65136 0.60989 0.9482 0.0
H845 H 0.42973 0.48055 0.92384 0.0
H846 H 0.44889 0.47143 0.94938 0.0
H847 H 0.44459 0.52009 0.94703 0.0
H848 H 0.52401 0.49011 0.01616 0.0
H849 H 0.51963 0.61089 0.01249 0.0
H850 H 0.56523 0.48866 0.96587 0.0
H851 H 0.50683 0.45715 0.96 0.0
H852 H 0.52909 0.45073 0.98527 0.0
H853 H 0.55565 0.63647 0.96172 0.0
H854 H 0.51446 0.63792 0.97897 0.0
H855 H 0.49806 0.60039 0.95486 0.0
C856 C 1.00033 0.52775 0.24204 0.0
C857 C 1.01214 0.57025 0.23549 0.0
C858 C 0.99903 0.51924 0.26436 0.0
C859 C 1.009 0.55381 0.28061 0.0
C860 C 1.01935 0.59632 0.27408 0.0
C861 C 1.02118 0.60409 0.25169 0.0
C862 C 0.98843 0.47363 0.27054 0.0
C863 C 1.02946 0.63397 0.29077 0.0
C864 C 0.97506 0.52484 0.33954 0.0
C865 C 1.01545 0.53494 0.34976 0.0
C866 C 0.97236 0.53069 0.3171 0.0
C867 C 1.0108 0.54633 0.3044 0.0
C868 C 1.05148 0.55588 0.31459 0.0
C869 C 1.05336 0.55037 0.33708 0.0
C870 C 0.9285 0.52075 0.30704 0.0
C871 C 0.09316 0.57198 0.3017 0.0
H872 H 0.99355 0.50142 0.22971 0.0
H873 H 1.03001 0.63697 0.24687 0.0
H874 H 1.01754 0.47597 0.27928 0.0
H875 H 0.96047 0.46011 0.28187 0.0
H876 H 0.97959 0.44983 0.25605 0.0
H877 H 1.03388 0.66408 0.28309 0.0
H878 H 1.00228 0.62342 0.30252 0.0
H879 H 1.06027 0.64295 0.30028 0.0
H880 H 0.94568 0.51314 0.34923 0.0
H881 H 1.08455 0.55759 0.34473 0.0
H882 H 0.91861 0.49542 0.2932 0.0
H883 H 0.93182 0.55124 0.30033 0.0
H884 H 0.90161 0.50845 0.31902 0.0
H885 H 1.0874 0.54792 0.2877 0.0
H886 H 0.12177 0.57647 0.31184 0.0
H887 H 0.10205 0.60418 0.29486 0.0
loop_
_geom_bond_atom_site_label_1
_geom_bond_atom_site_label_2
_geom_bond_distance
_geom_bond_site_symmetry_2
_ccdc_geom_bond_type
Eu0 C9 2.828 . S
Eu0 O11 2.392 1_655 S
Eu0 O13 2.418 . S
Eu0 O18 2.373 . S
Eu0 O21 2.488 . S
Eu0 O22 2.471 . S
Eu0 O23 2.349 . S
Eu1 O10 2.373 . S
Eu1 O14 2.488 . S
Eu1 O15 2.471 . S
Eu1 O16 2.349 . S
Eu1 O19 2.392 1_455 S
Eu1 O20 2.418 . S
Eu1 C30 2.828 . S
C2 O20 1.244 . S
C2 O23 1.265 1_455 S
C3 C4 1.379 . S
C3 C7 1.373 . S
C3 C9 1.505 . S
C4 C3 1.379 . S
C4 C6 1.369 . S
C4 H32 0.930 . S
C5 C7 1.383 . S
C5 C8 1.382 . S
C5 H33 0.930 . S
C6 C4 1.369 . S
C6 C8 1.392 . S
C6 H34 0.930 . S
C7 C3 1.373 . S
C7 C5 1.383 . S
C7 H35 0.931 . S
C8 C5 1.382 . S
C8 C6 1.392 . S
C9 Eu0 2.828 . S
C9 C3 1.505 . S
C9 O21 1.249 . S
C9 O22 1.244 . S
O10 Eu1 2.373 . S
O10 C12 1.258 . S
O11 Eu0 2.392 1_455 S
O11 C12 1.242 . S
C12 O10 1.258 . S
C12 O11 1.242 . S
O13 Eu0 2.418 . S
O13 C17 1.244 . S
O14 Eu1 2.488 . S
O14 C30 1.249 . S
O15 Eu1 2.471 . S
O15 C30 1.244 . S
O16 Eu1 2.349 . S
O16 C17 1.265 1_455 S
C17 O13 1.244 . S
C17 O16 1.265 1_655 S
O18 Eu0 2.373 . S
O18 C31 1.258 . S
O19 Eu1 2.392 1_655 S
O19 C31 1.242 . S
O20 Eu1 2.418 . S
O20 C2 1.244 . S
O21 Eu0 2.488 . S
O21 C9 1.249 . S
O22 Eu0 2.471 . S
O22 C9 1.244 . S
O23 Eu0 2.349 . S
O23 C2 1.265 1_655 S
C24 C25 1.379 . S
C24 C28 1.373 . S
C24 C30 1.505 . S
C25 C24 1.379 . S
C25 C27 1.369 . S
C25 H36 0.930 . S
C26 C28 1.383 . S
C26 C29 1.382 . S
C26 H37 0.930 . S
C27 C25 1.369 . S
C27 C29 1.392 . S
C27 H38 0.930 . S
C28 C24 1.373 . S
C28 C26 1.383 . S
C28 H39 0.931 . S
C29 C26 1.382 . S
C29 C27 1.392 . S
C30 Eu1 2.828 . S
C30 O14 1.249 . S
C30 O15 1.244 . S
C30 C24 1.505 . S
C31 O18 1.258 . S
C31 O19 1.242 . S
H32 C4 0.930 . S
H33 C5 0.930 . S
H34 C6 0.930 . S
H35 C7 0.931 . S
H36 C25 0.930 . S
H37 C26 0.930 . S
H38 C27 0.930 . S
H39 C28 0.931 . S
Eu40 C49 2.828 . S
Eu40 O51 2.392 1_565 S
Eu40 O53 2.418 . S
Eu40 O58 2.373 . S
Eu40 O61 2.488 . S
Eu40 O62 2.471 . S
Eu40 O63 2.349 . S
Eu41 O50 2.373 . S
Eu41 O54 2.488 . S
Eu41 O55 2.471 . S
Eu41 O56 2.349 . S
Eu41 O59 2.392 1_545 S
Eu41 O60 2.418 . S
Eu41 C70 2.828 . S
C42 O60 1.244 . S
C42 O63 1.265 1_545 S
C43 C44 1.379 . S
C43 C47 1.373 . S
C43 C49 1.505 . S
C44 C43 1.379 . S
C44 C46 1.369 . S
C44 H72 0.930 . S
C45 C47 1.383 . S
C45 C48 1.382 . S
C45 H73 0.930 . S
C46 C44 1.369 . S
C46 C48 1.392 . S
C46 H74 0.930 . S
C47 C43 1.373 . S
C47 C45 1.383 . S
C47 H75 0.931 . S
C48 C45 1.382 . S
C48 C46 1.392 . S
C49 Eu40 2.828 . S
C49 C43 1.505 . S
C49 O61 1.249 . S
C49 O62 1.244 . S
O50 Eu41 2.373 . S
O50 C52 1.258 . S
O51 Eu40 2.392 1_545 S
O51 C52 1.242 . S
C52 O50 1.258 . S
C52 O51 1.242 . S
O53 Eu40 2.418 . S
O53 C57 1.244 1_565 S
O54 Eu41 2.488 . S
O54 C70 1.249 . S
O55 Eu41 2.471 . S
O55 C70 1.244 . S
O56 Eu41 2.349 . S
O56 C57 1.265 . S
C57 O53 1.244 1_545 S
C57 O56 1.265 . S
O58 Eu40 2.373 . S
O58 C71 1.258 . S
O59 Eu41 2.392 1_565 S
O59 C71 1.242 . S
O60 Eu41 2.418 . S
O60 C42 1.244 . S
O61 Eu40 2.488 . S
O61 C49 1.249 . S
O62 Eu40 2.471 . S
O62 C49 1.244 . S
O63 Eu40 2.349 . S
O63 C42 1.265 1_565 S
C64 C65 1.379 . S
C64 C68 1.373 . S
C64 C70 1.505 . S
C65 C64 1.379 . S
C65 C67 1.369 . S
C65 H76 0.930 . S
C66 C68 1.383 . S
C66 C69 1.382 . S
C66 H77 0.930 . S
C67 C65 1.369 . S
C67 C69 1.392 . S
C67 H78 0.930 . S
C68 C64 1.373 . S
C68 C66 1.383 . S
C68 H79 0.931 . S
C69 C66 1.382 . S
C69 C67 1.392 . S
C70 Eu41 2.828 . S
C70 O54 1.249 . S
C70 O55 1.244 . S
C70 C64 1.505 . S
C71 O58 1.258 . S
C71 O59 1.242 . S
H72 C44 0.930 . S
H73 C45 0.930 . S
H74 C46 0.930 . S
H75 C47 0.931 . S
H76 C65 0.930 . S
H77 C66 0.930 . S
H78 C67 0.930 . S
H79 C68 0.931 . S
Eu80 C89 2.828 . S
Eu80 O91 2.392 . S
Eu80 O93 2.418 . S
Eu80 O98 2.373 . S
Eu80 O101 2.488 . S
Eu80 O102 2.471 . S
Eu80 O103 2.349 . S
Eu81 O90 2.373 . S
Eu81 O94 2.488 . S
Eu81 O95 2.471 . S
Eu81 O96 2.349 . S
Eu81 O99 2.392 . S
Eu81 O100 2.418 . S
Eu81 C110 2.828 . S
C82 O100 1.244 . S
C82 O103 1.265 . S
C83 C84 1.379 . S
C83 C87 1.373 . S
C83 C89 1.505 . S
C84 C83 1.379 . S
C84 C86 1.369 . S
C84 H112 0.930 . S
C85 C87 1.383 . S
C85 C88 1.382 . S
C85 H113 0.930 . S
C86 C84 1.369 . S
C86 C88 1.392 . S
C86 H114 0.930 . S
C87 C83 1.373 . S
C87 C85 1.383 . S
C87 H115 0.931 . S
C88 C85 1.382 . S
C88 C86 1.392 . S
C89 Eu80 2.828 . S
C89 C83 1.505 . S
C89 O101 1.249 . S
C89 O102 1.244 . S
O90 Eu81 2.373 . S
O90 C92 1.258 . S
O91 Eu80 2.392 . S
O91 C92 1.242 . S
C92 O90 1.258 . S
C92 O91 1.242 . S
O93 Eu80 2.418 . S
O93 C97 1.244 . S
O94 Eu81 2.488 . S
O94 C110 1.249 . S
O95 Eu81 2.471 . S
O95 C110 1.244 . S
O96 Eu81 2.349 . S
O96 C97 1.265 . S
C97 O93 1.244 . S
C97 O96 1.265 . S
O98 Eu80 2.373 . S
O98 C111 1.258 . S
O99 Eu81 2.392 . S
O99 C111 1.242 . S
O100 Eu81 2.418 . S
O100 C82 1.244 . S
O101 Eu80 2.488 . S
O101 C89 1.249 . S
O102 Eu80 2.471 . S
O102 C89 1.244 . S
O103 Eu80 2.349 . S
O103 C82 1.265 . S
C104 C105 1.379 . S
C104 C108 1.373 . S
C104 C110 1.505 . S
C105 C104 1.379 . S
C105 C107 1.369 . S
C105 H116 0.930 . S
C106 C108 1.383 . S
C106 C109 1.382 . S
C106 H117 0.930 . S
C107 C105 1.369 . S
C107 C109 1.392 . S
C107 H118 0.930 . S
C108 C104 1.373 . S
C108 C106 1.383 . S
C108 H119 0.931 . S
C109 C106 1.382 . S
C109 C107 1.392 . S
C110 Eu81 2.828 . S
C110 O94 1.249 . S
C110 O95 1.244 . S
C110 C104 1.505 . S
C111 O98 1.258 . S
C111 O99 1.242 . S
H112 C84 0.930 . S
H113 C85 0.930 . S
H114 C86 0.930 . S
H115 C87 0.931 . S
H116 C105 0.930 . S
H117 C106 0.930 . S
H118 C107 0.930 . S
H119 C108 0.931 . S
P120 O131 1.503 . S
P120 C134 1.812 . S
P120 C140 1.792 1_565 S
P120 C146 1.815 1_565 S
H121 C135 0.941 . S
H122 C136 0.939 . S
H123 C138 0.940 . S
H124 C139 0.940 . S
H125 C141 0.939 . S
H126 C142 0.942 . S
H127 C144 0.940 . S
H128 C145 0.939 . S
H129 C147 0.941 . S
H130 C151 0.939 . S
O131 P120 1.503 . S
H132 C148 0.939 . S
H133 C150 0.940 . S
C134 P120 1.812 . S
C134 C135 1.389 . S
C134 C139 1.391 . S
C135 H121 0.941 . S
C135 C134 1.389 . S
C135 C136 1.397 . S
C136 H122 0.939 . S
C136 C135 1.397 . S
C136 C137 1.378 . S
C137 C136 1.378 . S
C137 C138 1.378 . S
C138 H123 0.940 . S
C138 C137 1.378 . S
C138 C139 1.396 . S
C139 H124 0.940 . S
C139 C134 1.391 . S
C139 C138 1.396 . S
C140 P120 1.792 1_545 S
C140 C141 1.378 . S
C140 C145 1.400 . S
C141 H125 0.939 . S
C141 C140 1.378 . S
C141 C142 1.361 . S
C142 H126 0.942 . S
C142 C141 1.361 . S
C142 C143 1.369 . S
C143 C142 1.369 . S
C143 C144 1.404 . S
C144 H127 0.940 . S
C144 C143 1.404 . S
C144 C145 1.389 . S
C145 H128 0.939 . S
C145 C140 1.400 . S
C145 C144 1.389 . S
C146 P120 1.815 1_545 S
C146 C147 1.391 1_545 S
C146 C151 1.391 . S
C147 H129 0.941 . S
C147 C146 1.391 1_565 S
C147 C148 1.396 . S
C148 H132 0.939 . S
C148 C147 1.396 . S
C148 C149 1.397 1_565 S
C149 C148 1.397 1_545 S
C149 C150 1.385 . S
C150 H133 0.940 . S
C150 C149 1.385 . S
C150 C151 1.388 . S
C151 H130 0.939 . S
C151 C146 1.391 . S
C151 C150 1.388 . S
P152 O163 1.490 . S
P152 C166 1.812 . S
P152 C172 1.803 . S
P152 C178 1.819 . S
H153 C167 0.941 . S
H154 C168 0.939 . S
H155 C170 0.940 . S
H156 C171 0.940 . S
H157 C173 0.939 . S
H158 C174 0.942 . S
H159 C176 0.940 . S
H160 C177 0.939 . S
H161 C179 0.941 . S
H162 C183 0.939 . S
O163 P152 1.490 . S
H164 C180 0.939 . S
H165 C182 0.940 . S
C166 P152 1.812 . S
C166 C167 1.389 . S
C166 C171 1.391 . S
C167 H153 0.941 . S
C167 C166 1.389 . S
C167 C168 1.397 . S
C168 H154 0.939 . S
C168 C167 1.397 . S
C168 C169 1.378 . S
C169 C168 1.378 . S
C169 C170 1.378 . S
C170 H155 0.940 . S
C170 C169 1.378 . S
C170 C171 1.396 . S
C171 H156 0.940 . S
C171 C166 1.391 . S
C171 C170 1.396 . S
C172 P152 1.803 . S
C172 C173 1.378 . S
C172 C177 1.400 . S
C173 H157 0.939 . S
C173 C172 1.378 . S
C173 C174 1.361 . S
C174 H158 0.942 . S
C174 C173 1.361 . S
C174 C175 1.369 . S
C175 C174 1.369 . S
C175 C176 1.404 . S
C176 H159 0.940 . S
C176 C175 1.404 . S
C176 C177 1.389 . S
C177 H160 0.939 . S
C177 C172 1.400 . S
C177 C176 1.389 . S
C178 P152 1.819 . S
C178 C179 1.391 . S
C178 C183 1.391 . S
C179 H161 0.941 . S
C179 C178 1.391 . S
C179 C180 1.396 . S
C180 H164 0.939 . S
C180 C179 1.396 . S
C180 C181 1.397 . S
C181 C180 1.397 . S
C181 C182 1.385 . S
C182 H165 0.940 . S
C182 C181 1.385 . S
C182 C183 1.388 . S
C183 H162 0.939 . S
C183 C178 1.391 . S
C183 C182 1.388 . S
P184 O195 1.490 . S
P184 C198 1.812 . S
P184 C204 1.803 . S
P184 C210 1.819 . S
H185 C199 0.941 . S
H186 C200 0.939 . S
H187 C202 0.940 . S
H188 C203 0.940 . S
H189 C205 0.939 1_455 S
H190 C206 0.942 . S
H191 C208 0.940 . S
H192 C209 0.939 1_455 S
H193 C211 0.941 . S
H194 C215 0.939 1_655 S
O195 P184 1.490 . S
H196 C212 0.939 . S
H197 C214 0.940 1_655 S
C198 P184 1.812 . S
C198 C199 1.389 . S
C198 C203 1.391 . S
C199 H185 0.941 . S
C199 C198 1.389 . S
C199 C200 1.397 . S
C200 H186 0.939 . S
C200 C199 1.397 . S
C200 C201 1.378 . S
C201 C200 1.378 . S
C201 C202 1.378 . S
C202 H187 0.940 . S
C202 C201 1.378 . S
C202 C203 1.396 . S
C203 H188 0.940 . S
C203 C198 1.391 . S
C203 C202 1.396 . S
C204 P184 1.803 . S
C204 C205 1.378 1_455 S
C204 C209 1.400 1_455 S
C205 H189 0.939 1_655 S
C205 C204 1.378 1_655 S
C205 C206 1.361 . S
C206 H190 0.942 . S
C206 C205 1.361 . S
C206 C207 1.369 . S
C207 C206 1.369 . S
C207 C208 1.404 . S
C208 H191 0.940 . S
C208 C207 1.404 . S
C208 C209 1.389 . S
C209 H192 0.939 1_655 S
C209 C204 1.400 1_655 S
C209 C208 1.389 . S
C210 P184 1.819 . S
C210 C211 1.391 . S
C210 C215 1.391 . S
C211 H193 0.941 . S
C211 C210 1.391 . S
C211 C212 1.396 . S
C212 H196 0.939 . S
C212 C211 1.396 . S
C212 C213 1.397 . S
C213 C212 1.397 . S
C213 C214 1.385 . S
C214 H197 0.940 1_455 S
C214 C213 1.385 . S
C214 C215 1.388 . S
C215 H194 0.939 1_455 S
C215 C210 1.391 . S
C215 C214 1.388 . S
P216 O227 1.490 . S
P216 C230 1.812 . S
P216 C236 1.803 1_455 S
P216 C242 1.819 . S
H217 C231 0.941 . S
H218 C232 0.939 . S
H219 C234 0.940 . S
H220 C235 0.940 . S
H221 C237 0.939 . S
H222 C238 0.942 . S
H223 C240 0.940 . S
H224 C241 0.939 . S
H225 C243 0.941 . S
H226 C247 0.939 . S
O227 P216 1.490 . S
H228 C244 0.939 . S
H229 C246 0.940 . S
C230 P216 1.812 . S
C230 C231 1.389 . S
C230 C235 1.391 . S
C231 H217 0.941 . S
C231 C230 1.389 . S
C231 C232 1.397 . S
C232 H218 0.939 . S
C232 C231 1.397 . S
C232 C233 1.378 . S
C233 C232 1.378 . S
C233 C234 1.378 . S
C234 H219 0.940 . S
C234 C233 1.378 . S
C234 C235 1.396 . S
C235 H220 0.940 . S
C235 C230 1.391 . S
C235 C234 1.396 . S
C236 P216 1.803 1_655 S
C236 C237 1.378 . S
C236 C241 1.400 . S
C237 H221 0.939 . S
C237 C236 1.378 . S
C237 C238 1.361 . S
C238 H222 0.942 . S
C238 C237 1.361 . S
C238 C239 1.369 . S
C239 C238 1.369 . S
C239 C240 1.404 . S
C240 H223 0.940 . S
C240 C239 1.404 . S
C240 C241 1.389 . S
C241 H224 0.939 . S
C241 C236 1.400 . S
C241 C240 1.389 . S
C242 P216 1.819 . S
C242 C243 1.391 . S
C242 C247 1.391 1_455 S
C243 H225 0.941 . S
C243 C242 1.391 . S
C243 C244 1.396 . S
C244 H228 0.939 . S
C244 C243 1.396 . S
C244 C245 1.397 . S
C245 C244 1.397 . S
C245 C246 1.385 1_455 S
C246 H229 0.940 . S
C246 C245 1.385 1_655 S
C246 C247 1.388 . S
C247 H226 0.939 . S
C247 C242 1.391 1_655 S
C247 C246 1.388 . S
P248 O259 1.490 . S
P248 C262 1.812 . S
P248 C268 1.803 1_545 S
P248 C274 1.819 . S
H249 C263 0.941 . S
H250 C264 0.939 . S
H251 C266 0.940 . S
H252 C267 0.940 . S
H253 C269 0.939 . S
H254 C270 0.942 . S
H255 C272 0.940 . S
H256 C273 0.939 . S
H257 C275 0.941 . S
H258 C279 0.939 . S
O259 P248 1.490 . S
H260 C276 0.939 . S
H261 C278 0.940 . S
C262 P248 1.812 . S
C262 C263 1.389 . S
C262 C267 1.391 . S
C263 H249 0.941 . S
C263 C262 1.389 . S
C263 C264 1.397 . S
C264 H250 0.939 . S
C264 C263 1.397 . S
C264 C265 1.378 . S
C265 C264 1.378 . S
C265 C266 1.378 . S
C266 H251 0.940 . S
C266 C265 1.378 . S
C266 C267 1.396 . S
C267 H252 0.940 . S
C267 C262 1.391 . S
C267 C266 1.396 . S
C268 P248 1.803 1_565 S
C268 C269 1.378 . S
C268 C273 1.400 . S
C269 H253 0.939 . S
C269 C268 1.378 . S
C269 C270 1.361 . S
C270 H254 0.942 . S
C270 C269 1.361 . S
C270 C271 1.369 . S
C271 C270 1.369 . S
C271 C272 1.404 . S
C272 H255 0.940 . S
C272 C271 1.404 . S
C272 C273 1.389 . S
C273 H256 0.939 . S
C273 C268 1.400 . S
C273 C272 1.389 . S
C274 P248 1.819 . S
C274 C275 1.391 . S
C274 C279 1.391 1_545 S
C275 H257 0.941 . S
C275 C274 1.391 . S
C275 C276 1.396 . S
C276 H260 0.939 . S
C276 C275 1.396 . S
C276 C277 1.397 . S
C277 C276 1.397 . S
C277 C278 1.385 1_545 S
C278 H261 0.940 . S
C278 C277 1.385 1_565 S
C278 C279 1.388 . S
C279 H258 0.939 . S
C279 C274 1.391 1_565 S
C279 C278 1.388 . S
P280 O291 1.490 . S
P280 C294 1.812 . S
P280 C300 1.803 . S
P280 C306 1.819 . S
H281 C295 0.941 . S
H282 C296 0.939 . S
H283 C298 0.940 . S
H284 C299 0.940 . S
H285 C301 0.939 . S
H286 C302 0.942 . S
H287 C304 0.940 . S
H288 C305 0.939 . S
H289 C307 0.941 . S
H290 C311 0.939 . S
O291 P280 1.490 . S
H292 C308 0.939 . S
H293 C310 0.940 . S
C294 P280 1.812 . S
C294 C295 1.389 . S
C294 C299 1.391 . S
C295 H281 0.941 . S
C295 C294 1.389 . S
C295 C296 1.397 . S
C296 H282 0.939 . S
C296 C295 1.397 . S
C296 C297 1.378 . S
C297 C296 1.378 . S
C297 C298 1.378 . S
C298 H283 0.940 . S
C298 C297 1.378 . S
C298 C299 1.396 . S
C299 H284 0.940 . S
C299 C294 1.391 . S
C299 C298 1.396 . S
C300 P280 1.803 . S
C300 C301 1.378 . S
C300 C305 1.400 . S
C301 H285 0.939 . S
C301 C300 1.378 . S
C301 C302 1.361 . S
C302 H286 0.942 . S
C302 C301 1.361 . S
C302 C303 1.369 . S
C303 C302 1.369 . S
C303 C304 1.404 . S
C304 H287 0.940 . S
C304 C303 1.404 . S
C304 C305 1.389 . S
C305 H288 0.939 . S
C305 C300 1.400 . S
C305 C304 1.389 . S
C306 P280 1.819 . S
C306 C307 1.391 . S
C306 C311 1.391 . S
C307 H289 0.941 . S
C307 C306 1.391 . S
C307 C308 1.396 . S
C308 H292 0.939 . S
C308 C307 1.396 . S
C308 C309 1.397 . S
C309 C308 1.397 . S
C309 C310 1.385 . S
C310 H293 0.940 . S
C310 C309 1.385 . S
C310 C311 1.388 . S
C311 H290 0.939 . S
C311 C306 1.391 . S
C311 C310 1.388 . S
C312 C313 1.391 . S
C312 C314 1.394 . S
C312 H328 0.931 . S
C313 C312 1.391 . S
C313 C317 1.376 . S
C314 C312 1.394 . S
C314 C315 1.369 . S
C314 C318 1.531 . S
C315 C314 1.369 . S
C315 C316 1.410 . S
C315 C323 1.503 . S
C316 C315 1.410 . S
C316 C317 1.392 . S
C316 C319 1.511 . S
C317 C313 1.376 . S
C317 C316 1.392 . S
C317 H329 0.929 . S
C318 C314 1.531 . S
C318 H330 0.960 . S
C318 H331 0.962 . S
C318 H332 0.960 . S
C319 C316 1.511 . S
C319 H333 0.961 . S
C319 H334 0.961 . S
C319 H335 0.961 . S
C320 C321 1.370 . S
C320 C322 1.363 . S
C320 H336 0.931 . S
C321 C320 1.370 . S
C321 C325 1.408 . S
C322 C320 1.363 . S
C322 C323 1.370 . S
C322 C326 1.524 . S
C323 C315 1.503 . S
C323 C322 1.370 . S
C323 C324 1.403 . S
C324 C323 1.403 . S
C324 C325 1.404 . S
C324 C327 1.539 . S
C325 C321 1.408 . S
C325 C324 1.404 . S
C325 H337 0.930 . S
C326 C322 1.524 . S
C326 H338 0.956 . S
C326 H339 0.961 . S
C326 H340 0.961 . S
C327 C324 1.539 . S
C327 H341 0.958 . S
C327 H342 0.961 . S
C327 H343 0.960 . S
H328 C312 0.931 . S
H329 C317 0.929 . S
H330 C318 0.960 . S
H331 C318 0.962 . S
H332 C318 0.960 . S
H333 C319 0.961 . S
H334 C319 0.961 . S
H335 C319 0.961 . S
H336 C320 0.931 . S
H337 C325 0.930 . S
H338 C326 0.956 . S
H339 C326 0.961 . S
H340 C326 0.961 . S
H341 C327 0.958 . S
H342 C327 0.961 . S
H343 C327 0.960 . S
C344 C345 1.391 . S
C344 C346 1.394 . S
C344 H360 0.931 . S
C345 C344 1.391 . S
C345 C349 1.376 . S
C346 C344 1.394 . S
C346 C347 1.369 . S
C346 C350 1.531 . S
C347 C346 1.369 . S
C347 C348 1.410 . S
C347 C355 1.503 . S
C348 C347 1.410 . S
C348 C349 1.392 . S
C348 C351 1.511 . S
C349 C345 1.376 . S
C349 C348 1.392 . S
C349 H361 0.929 . S
C350 C346 1.531 . S
C350 H362 0.960 . S
C350 H363 0.962 . S
C350 H364 0.960 . S
C351 C348 1.511 . S
C351 H365 0.961 . S
C351 H366 0.961 . S
C351 H367 0.961 . S
C352 C353 1.370 . S
C352 C354 1.363 . S
C352 H368 0.931 . S
C353 C352 1.370 . S
C353 C357 1.408 . S
C354 C352 1.363 . S
C354 C355 1.370 . S
C354 C358 1.524 . S
C355 C347 1.503 . S
C355 C354 1.370 . S
C355 C356 1.403 . S
C356 C355 1.403 . S
C356 C357 1.404 . S
C356 C359 1.539 . S
C357 C353 1.408 . S
C357 C356 1.404 . S
C357 H369 0.930 . S
C358 C354 1.524 . S
C358 H370 0.956 . S
C358 H371 0.961 . S
C358 H372 0.961 . S
C359 C356 1.539 . S
C359 H373 0.958 . S
C359 H374 0.961 . S
C359 H375 0.960 . S
H360 C344 0.931 . S
H361 C349 0.929 . S
H362 C350 0.960 . S
H363 C350 0.962 . S
H364 C350 0.960 . S
H365 C351 0.961 . S
H366 C351 0.961 . S
H367 C351 0.961 . S
H368 C352 0.931 . S
H369 C357 0.930 . S
H370 C358 0.956 . S
H371 C358 0.961 . S
H372 C358 0.961 . S
H373 C359 0.958 . S
H374 C359 0.961 . S
H375 C359 0.960 . S
C376 C377 1.391 . S
C376 C378 1.394 . S
C376 H392 0.931 . S
C377 C376 1.391 . S
C377 C381 1.376 . S
C378 C376 1.394 . S
C378 C379 1.369 . S
C378 C382 1.531 . S
C379 C378 1.369 . S
C379 C380 1.410 . S
C379 C387 1.503 . S
C380 C379 1.410 . S
C380 C381 1.392 . S
C380 C383 1.511 . S
C381 C377 1.376 . S
C381 C380 1.392 . S
C381 H393 0.929 . S
C382 C378 1.531 . S
C382 H394 0.960 . S
C382 H395 0.962 . S
C382 H396 0.960 . S
C383 C380 1.511 . S
C383 H397 0.961 . S
C383 H398 0.961 . S
C383 H399 0.961 . S
C384 C385 1.370 . S
C384 C386 1.363 . S
C384 H400 0.931 . S
C385 C384 1.370 . S
C385 C389 1.408 . S
C386 C384 1.363 . S
C386 C387 1.370 . S
C386 C390 1.524 . S
C387 C379 1.503 . S
C387 C386 1.370 . S
C387 C388 1.403 . S
C388 C387 1.403 . S
C388 C389 1.404 . S
C388 C391 1.539 . S
C389 C385 1.408 . S
C389 C388 1.404 . S
C389 H401 0.930 . S
C390 C386 1.524 . S
C390 H402 0.956 . S
C390 H403 0.961 . S
C390 H404 0.961 . S
C391 C388 1.539 . S
C391 H405 0.958 . S
C391 H406 0.961 . S
C391 H407 0.960 . S
H392 C376 0.931 . S
H393 C381 0.929 . S
H394 C382 0.960 . S
H395 C382 0.962 . S
H396 C382 0.960 . S
H397 C383 0.961 . S
H398 C383 0.961 . S
H399 C383 0.961 . S
H400 C384 0.931 . S
H401 C389 0.930 . S
H402 C390 0.956 . S
H403 C390 0.961 . S
H404 C390 0.961 . S
H405 C391 0.958 . S
H406 C391 0.961 . S
H407 C391 0.960 . S
C408 C409 1.391 . S
C408 C410 1.394 . S
C408 H424 0.931 . S
C409 C408 1.391 . S
C409 C413 1.376 . S
C410 C408 1.394 . S
C410 C411 1.369 . S
C410 C414 1.531 . S
C411 C410 1.369 . S
C411 C412 1.410 . S
C411 C419 1.503 . S
C412 C411 1.410 . S
C412 C413 1.392 . S
C412 C415 1.511 . S
C413 C409 1.376 . S
C413 C412 1.392 . S
C413 H425 0.929 . S
C414 C410 1.531 . S
C414 H426 0.960 . S
C414 H427 0.962 . S
C414 H428 0.960 . S
C415 C412 1.511 . S
C415 H429 0.961 . S
C415 H430 0.961 . S
C415 H431 0.961 . S
C416 C417 1.370 . S
C416 C418 1.363 . S
C416 H432 0.931 . S
C417 C416 1.370 . S
C417 C421 1.408 . S
C418 C416 1.363 . S
C418 C419 1.370 . S
C418 C422 1.524 . S
C419 C411 1.503 . S
C419 C418 1.370 . S
C419 C420 1.403 . S
C420 C419 1.403 . S
C420 C421 1.404 . S
C420 C423 1.539 . S
C421 C417 1.408 . S
C421 C420 1.404 . S
C421 H433 0.930 . S
C422 C418 1.524 . S
C422 H434 0.956 . S
C422 H435 0.961 . S
C422 H436 0.961 . S
C423 C420 1.539 . S
C423 H437 0.958 . S
C423 H438 0.961 . S
C423 H439 0.960 . S
H424 C408 0.931 . S
H425 C413 0.929 . S
H426 C414 0.960 . S
H427 C414 0.962 . S
H428 C414 0.960 . S
H429 C415 0.961 . S
H430 C415 0.961 . S
H431 C415 0.961 . S
H432 C416 0.931 . S
H433 C421 0.930 . S
H434 C422 0.956 . S
H435 C422 0.961 . S
H436 C422 0.961 . S
H437 C423 0.958 . S
H438 C423 0.961 . S
H439 C423 0.960 . S
C440 C441 1.391 . S
C440 C442 1.394 . S
C440 H456 0.931 . S
C441 C440 1.391 . S
C441 C445 1.376 . S
C442 C440 1.394 . S
C442 C443 1.369 . S
C442 C446 1.531 . S
C443 C442 1.369 . S
C443 C444 1.410 . S
C443 C451 1.503 . S
C444 C443 1.410 . S
C444 C445 1.392 . S
C444 C447 1.511 . S
C445 C441 1.376 . S
C445 C444 1.392 . S
C445 H457 0.929 . S
C446 C442 1.531 . S
C446 H458 0.960 . S
C446 H459 0.962 . S
C446 H460 0.960 . S
C447 C444 1.511 . S
C447 H461 0.961 . S
C447 H462 0.961 . S
C447 H463 0.961 . S
C448 C449 1.370 . S
C448 C450 1.363 . S
C448 H464 0.931 . S
C449 C448 1.370 . S
C449 C453 1.408 . S
C450 C448 1.363 . S
C450 C451 1.370 . S
C450 C454 1.524 . S
C451 C443 1.503 . S
C451 C450 1.370 . S
C451 C452 1.403 . S
C452 C451 1.403 . S
C452 C453 1.404 . S
C452 C455 1.539 . S
C453 C449 1.408 . S
C453 C452 1.404 . S
C453 H465 0.930 . S
C454 C450 1.524 . S
C454 H466 0.956 . S
C454 H467 0.961 . S
C454 H468 0.961 . S
C455 C452 1.539 . S
C455 H469 0.958 . S
C455 H470 0.961 . S
C455 H471 0.960 . S
H456 C440 0.931 . S
H457 C445 0.929 . S
H458 C446 0.960 . S
H459 C446 0.962 . S
H460 C446 0.960 . S
H461 C447 0.961 . S
H462 C447 0.961 . S
H463 C447 0.961 . S
H464 C448 0.931 . S
H465 C453 0.930 . S
H466 C454 0.956 . S
H467 C454 0.961 . S
H468 C454 0.961 . S
H469 C455 0.958 . S
H470 C455 0.961 . S
H471 C455 0.960 . S
C472 C473 1.391 . S
C472 C474 1.394 . S
C472 H488 0.931 . S
C473 C472 1.391 . S
C473 C477 1.376 . S
C474 C472 1.394 . S
C474 C475 1.369 . S
C474 C478 1.531 . S
C475 C474 1.369 . S
C475 C476 1.410 . S
C475 C483 1.503 . S
C476 C475 1.410 . S
C476 C477 1.392 . S
C476 C479 1.511 . S
C477 C473 1.376 . S
C477 C476 1.392 . S
C477 H489 0.929 . S
C478 C474 1.531 . S
C478 H490 0.960 . S
C478 H491 0.962 . S
C478 H492 0.960 . S
C479 C476 1.511 . S
C479 H493 0.961 . S
C479 H494 0.961 . S
C479 H495 0.961 . S
C480 C481 1.370 . S
C480 C482 1.363 . S
C480 H496 0.931 . S
C481 C480 1.370 . S
C481 C485 1.408 . S
C482 C480 1.363 . S
C482 C483 1.370 . S
C482 C486 1.524 . S
C483 C475 1.503 . S
C483 C482 1.370 . S
C483 C484 1.403 . S
C484 C483 1.403 . S
C484 C485 1.404 . S
C484 C487 1.539 . S
C485 C481 1.408 . S
C485 C484 1.404 . S
C485 H497 0.930 . S
C486 C482 1.524 . S
C486 H498 0.956 . S
C486 H499 0.961 . S
C486 H500 0.961 . S
C487 C484 1.539 . S
C487 H501 0.958 . S
C487 H502 0.961 . S
C487 H503 0.960 . S
H488 C472 0.931 . S
H489 C477 0.929 . S
H490 C478 0.960 . S
H491 C478 0.962 . S
H492 C478 0.960 . S
H493 C479 0.961 . S
H494 C479 0.961 . S
H495 C479 0.961 . S
H496 C480 0.931 . S
H497 C485 0.930 . S
H498 C486 0.956 . S
H499 C486 0.961 . S
H500 C486 0.961 . S
H501 C487 0.958 . S
H502 C487 0.961 . S
H503 C487 0.960 . S
C504 C505 1.391 . S
C504 C506 1.394 . S
C504 H520 0.931 . S
C505 C504 1.391 . S
C505 C509 1.376 . S
C506 C504 1.394 . S
C506 C507 1.369 . S
C506 C510 1.531 . S
C507 C506 1.369 . S
C507 C508 1.410 . S
C507 C515 1.503 . S
C508 C507 1.410 . S
C508 C509 1.392 . S
C508 C511 1.511 . S
C509 C505 1.376 . S
C509 C508 1.392 . S
C509 H521 0.929 . S
C510 C506 1.531 . S
C510 H522 0.960 . S
C510 H523 0.962 . S
C510 H524 0.960 . S
C511 C508 1.511 . S
C511 H525 0.961 . S
C511 H526 0.961 . S
C511 H527 0.961 . S
C512 C513 1.370 . S
C512 C514 1.363 . S
C512 H528 0.931 . S
C513 C512 1.370 . S
C513 C517 1.408 . S
C514 C512 1.363 . S
C514 C515 1.370 . S
C514 C518 1.524 . S
C515 C507 1.503 . S
C515 C514 1.370 . S
C515 C516 1.403 . S
C516 C515 1.403 . S
C516 C517 1.404 . S
C516 C519 1.539 . S
C517 C513 1.408 . S
C517 C516 1.404 . S
C517 H529 0.930 . S
C518 C514 1.524 . S
C518 H530 0.956 . S
C518 H531 0.961 . S
C518 H532 0.961 . S
C519 C516 1.539 . S
C519 H533 0.958 . S
C519 H534 0.961 . S
C519 H535 0.960 . S
H520 C504 0.931 . S
H521 C509 0.929 . S
H522 C510 0.960 . S
H523 C510 0.962 . S
H524 C510 0.960 . S
H525 C511 0.961 . S
H526 C511 0.961 . S
H527 C511 0.961 . S
H528 C512 0.931 . S
H529 C517 0.930 . S
H530 C518 0.956 . S
H531 C518 0.961 . S
H532 C518 0.961 . S
H533 C519 0.958 . S
H534 C519 0.961 . S
H535 C519 0.960 . S
C536 C537 1.391 . S
C536 C538 1.394 . S
C536 H552 0.931 . S
C537 C536 1.391 . S
C537 C541 1.376 . S
C538 C536 1.394 . S
C538 C539 1.369 . S
C538 C542 1.531 . S
C539 C538 1.369 . S
C539 C540 1.410 . S
C539 C547 1.503 . S
C540 C539 1.410 . S
C540 C541 1.392 . S
C540 C543 1.511 . S
C541 C537 1.376 . S
C541 C540 1.392 . S
C541 H553 0.929 . S
C542 C538 1.531 . S
C542 H554 0.960 . S
C542 H555 0.962 . S
C542 H556 0.960 . S
C543 C540 1.511 . S
C543 H557 0.961 . S
C543 H558 0.961 . S
C543 H559 0.961 . S
C544 C545 1.370 . S
C544 C546 1.363 . S
C544 H560 0.931 . S
C545 C544 1.370 . S
C545 C549 1.408 . S
C546 C544 1.363 . S
C546 C547 1.370 . S
C546 C550 1.524 . S
C547 C539 1.503 . S
C547 C546 1.370 . S
C547 C548 1.403 . S
C548 C547 1.403 . S
C548 C549 1.404 . S
C548 C551 1.539 . S
C549 C545 1.408 . S
C549 C548 1.404 . S
C549 H561 0.930 . S
C550 C546 1.524 . S
C550 H562 0.956 . S
C550 H563 0.961 . S
C550 H564 0.961 . S
C551 C548 1.539 . S
C551 H565 0.958 . S
C551 H566 0.961 . S
C551 H567 0.960 . S
H552 C536 0.931 . S
H553 C541 0.929 . S
H554 C542 0.960 . S
H555 C542 0.962 . S
H556 C542 0.960 . S
H557 C543 0.961 . S
H558 C543 0.961 . S
H559 C543 0.961 . S
H560 C544 0.931 . S
H561 C549 0.930 . S
H562 C550 0.956 . S
H563 C550 0.961 . S
H564 C550 0.961 . S
H565 C551 0.958 . S
H566 C551 0.961 . S
H567 C551 0.960 . S
C568 C569 1.391 . S
C568 C570 1.394 . S
C568 H584 0.931 . S
C569 C568 1.391 . S
C569 C573 1.376 . S
C570 C568 1.394 . S
C570 C571 1.369 . S
C570 C574 1.531 . S
C571 C570 1.369 . S
C571 C572 1.410 . S
C571 C579 1.503 . S
C572 C571 1.410 . S
C572 C573 1.392 . S
C572 C575 1.511 . S
C573 C569 1.376 . S
C573 C572 1.392 . S
C573 H585 0.929 . S
C574 C570 1.531 . S
C574 H586 0.960 . S
C574 H587 0.962 . S
C574 H588 0.960 . S
C575 C572 1.511 . S
C575 H589 0.961 . S
C575 H590 0.961 . S
C575 H591 0.961 . S
C576 C577 1.370 . S
C576 C578 1.363 . S
C576 H592 0.931 . S
C577 C576 1.370 . S
C577 C581 1.408 . S
C578 C576 1.363 . S
C578 C579 1.370 . S
C578 C582 1.524 . S
C579 C571 1.503 . S
C579 C578 1.370 . S
C579 C580 1.403 . S
C580 C579 1.403 . S
C580 C581 1.404 . S
C580 C583 1.539 . S
C581 C577 1.408 . S
C581 C580 1.404 . S
C581 H593 0.930 . S
C582 C578 1.524 . S
C582 H594 0.956 . S
C582 H595 0.961 . S
C582 H596 0.961 . S
C583 C580 1.539 . S
C583 H597 0.958 . S
C583 H598 0.961 . S
C583 H599 0.960 . S
H584 C568 0.931 . S
H585 C573 0.929 . S
H586 C574 0.960 . S
H587 C574 0.962 . S
H588 C574 0.960 . S
H589 C575 0.961 . S
H590 C575 0.961 . S
H591 C575 0.961 . S
H592 C576 0.931 . S
H593 C581 0.930 . S
H594 C582 0.956 . S
H595 C582 0.961 . S
H596 C582 0.961 . S
H597 C583 0.958 . S
H598 C583 0.961 . S
H599 C583 0.960 . S
C600 C601 1.391 . S
C600 C602 1.394 . S
C600 H616 0.931 . S
C601 C600 1.391 . S
C601 C605 1.376 . S
C602 C600 1.394 . S
C602 C603 1.369 . S
C602 C606 1.531 . S
C603 C602 1.369 . S
C603 C604 1.410 . S
C603 C611 1.503 . S
C604 C603 1.410 . S
C604 C605 1.392 . S
C604 C607 1.511 . S
C605 C601 1.376 . S
C605 C604 1.392 . S
C605 H617 0.929 . S
C606 C602 1.531 . S
C606 H618 0.960 . S
C606 H619 0.962 . S
C606 H620 0.960 . S
C607 C604 1.511 . S
C607 H621 0.961 . S
C607 H622 0.961 . S
C607 H623 0.961 . S
C608 C609 1.370 . S
C608 C610 1.363 . S
C608 H624 0.931 . S
C609 C608 1.370 . S
C609 C613 1.408 . S
C610 C608 1.363 . S
C610 C611 1.370 . S
C610 C614 1.524 . S
C611 C603 1.503 . S
C611 C610 1.370 . S
C611 C612 1.403 . S
C612 C611 1.403 . S
C612 C613 1.404 . S
C612 C615 1.539 . S
C613 C609 1.408 . S
C613 C612 1.404 . S
C613 H625 0.930 . S
C614 C610 1.524 . S
C614 H626 0.956 . S
C614 H627 0.961 . S
C614 H628 0.961 . S
C615 C612 1.539 . S
C615 H629 0.958 . S
C615 H630 0.961 . S
C615 H631 0.960 . S
H616 C600 0.931 . S
H617 C605 0.929 . S
H618 C606 0.960 . S
H619 C606 0.962 . S
H620 C606 0.960 . S
H621 C607 0.961 . S
H622 C607 0.961 . S
H623 C607 0.961 . S
H624 C608 0.931 . S
H625 C613 0.930 . S
H626 C614 0.956 . S
H627 C614 0.961 . S
H628 C614 0.961 . S
H629 C615 0.958 . S
H630 C615 0.961 . S
H631 C615 0.960 . S
C632 C633 1.391 . S
C632 C634 1.394 . S
C632 H648 0.931 . S
C633 C632 1.391 . S
C633 C637 1.376 . S
C634 C632 1.394 . S
C634 C635 1.369 . S
C634 C638 1.531 . S
C635 C634 1.369 . S
C635 C636 1.410 . S
C635 C643 1.503 . S
C636 C635 1.410 . S
C636 C637 1.392 . S
C636 C639 1.511 . S
C637 C633 1.376 . S
C637 C636 1.392 . S
C637 H649 0.929 . S
C638 C634 1.531 . S
C638 H650 0.960 . S
C638 H651 0.962 . S
C638 H652 0.960 . S
C639 C636 1.511 . S
C639 H653 0.961 . S
C639 H654 0.961 . S
C639 H655 0.961 . S
C640 C641 1.370 . S
C640 C642 1.363 . S
C640 H656 0.931 . S
C641 C640 1.370 . S
C641 C645 1.408 . S
C642 C640 1.363 . S
C642 C643 1.370 . S
C642 C646 1.524 . S
C643 C635 1.503 . S
C643 C642 1.370 . S
C643 C644 1.403 . S
C644 C643 1.403 . S
C644 C645 1.404 . S
C644 C647 1.539 . S
C645 C641 1.408 . S
C645 C644 1.404 . S
C645 H657 0.930 . S
C646 C642 1.524 . S
C646 H658 0.956 . S
C646 H659 0.961 . S
C646 H660 0.961 . S
C647 C644 1.539 . S
C647 H661 0.958 . S
C647 H662 0.961 . S
C647 H663 0.960 . S
H648 C632 0.931 . S
H649 C637 0.929 . S
H650 C638 0.960 . S
H651 C638 0.962 . S
H652 C638 0.960 . S
H653 C639 0.961 . S
H654 C639 0.961 . S
H655 C639 0.961 . S
H656 C640 0.931 . S
H657 C645 0.930 . S
H658 C646 0.956 . S
H659 C646 0.961 . S
H660 C646 0.961 . S
H661 C647 0.958 . S
H662 C647 0.961 . S
H663 C647 0.960 . S
C664 C665 1.391 . S
C664 C666 1.394 . S
C664 H680 0.931 . S
C665 C664 1.391 . S
C665 C669 1.376 . S
C666 C664 1.394 . S
C666 C667 1.369 . S
C666 C670 1.531 . S
C667 C666 1.369 . S
C667 C668 1.410 . S
C667 C675 1.503 . S
C668 C667 1.410 . S
C668 C669 1.392 . S
C668 C671 1.511 . S
C669 C665 1.376 . S
C669 C668 1.392 . S
C669 H681 0.929 . S
C670 C666 1.531 . S
C670 H682 0.960 . S
C670 H683 0.962 . S
C670 H684 0.960 . S
C671 C668 1.511 . S
C671 H685 0.961 . S
C671 H686 0.961 . S
C671 H687 0.961 . S
C672 C673 1.370 . S
C672 C674 1.363 . S
C672 H688 0.931 . S
C673 C672 1.370 . S
C673 C677 1.408 . S
C674 C672 1.363 . S
C674 C675 1.370 . S
C674 C678 1.524 . S
C675 C667 1.503 . S
C675 C674 1.370 . S
C675 C676 1.403 . S
C676 C675 1.403 . S
C676 C677 1.404 . S
C676 C679 1.539 . S
C677 C673 1.408 . S
C677 C676 1.404 . S
C677 H689 0.930 . S
C678 C674 1.524 . S
C678 H690 0.956 . S
C678 H691 0.961 . S
C678 H692 0.961 . S
C679 C676 1.539 . S
C679 H693 0.958 . S
C679 H694 0.961 . S
C679 H695 0.960 . S
H680 C664 0.931 . S
H681 C669 0.929 . S
H682 C670 0.960 . S
H683 C670 0.962 . S
H684 C670 0.960 . S
H685 C671 0.961 . S
H686 C671 0.961 . S
H687 C671 0.961 . S
H688 C672 0.931 . S
H689 C677 0.930 . S
H690 C678 0.956 . S
H691 C678 0.961 . S
H692 C678 0.961 . S
H693 C679 0.958 . S
H694 C679 0.961 . S
H695 C679 0.960 . S
C696 C697 1.391 . S
C696 C698 1.394 . S
C696 H712 0.931 1_455 S
C697 C696 1.391 . S
C697 C701 1.376 . S
C698 C696 1.394 . S
C698 C699 1.369 . S
C698 C702 1.531 . S
C699 C698 1.369 . S
C699 C700 1.410 . S
C699 C707 1.503 . S
C700 C699 1.410 . S
C700 C701 1.392 . S
C700 C703 1.511 . S
C701 C697 1.376 . S
C701 C700 1.392 . S
C701 H713 0.929 . S
C702 C698 1.531 . S
C702 H714 0.960 . S
C702 H715 0.962 1_455 S
C702 H716 0.960 . S
C703 C700 1.511 . S
C703 H717 0.961 . S
C703 H718 0.961 . S
C703 H719 0.961 . S
C704 C705 1.370 1_654 S
C704 C706 1.363 . S
C704 H720 0.931 1_554 S
C705 C704 1.370 1_456 S
C705 C709 1.408 1_556 S
C706 C704 1.363 . S
C706 C707 1.370 1_655 S
C706 C710 1.524 . S
C707 C699 1.503 . S
C707 C706 1.370 1_455 S
C707 C708 1.403 . S
C708 C707 1.403 . S
C708 C709 1.404 . S
C708 C711 1.539 . S
C709 C705 1.408 1_554 S
C709 C708 1.404 . S
C709 H721 0.930 . S
C710 C706 1.524 . S
C710 H722 0.956 . S
C710 H723 0.961 . S
C710 H724 0.961 . S
C711 C708 1.539 . S
C711 H725 0.958 . S
C711 H726 0.961 . S
C711 H727 0.960 . S
H712 C696 0.931 1_655 S
H713 C701 0.929 . S
H714 C702 0.960 . S
H715 C702 0.962 1_655 S
H716 C702 0.960 . S
H717 C703 0.961 . S
H718 C703 0.961 . S
H719 C703 0.961 . S
H720 C704 0.931 1_556 S
H721 C709 0.930 . S
H722 C710 0.956 . S
H723 C710 0.961 . S
H724 C710 0.961 . S
H725 C711 0.958 . S
H726 C711 0.961 . S
H727 C711 0.960 . S
C728 C729 1.391 1_565 S
C728 C730 1.394 . S
C728 H744 0.931 . S
C729 C728 1.391 1_545 S
C729 C733 1.376 . S
C730 C728 1.394 . S
C730 C731 1.369 1_565 S
C730 C734 1.531 . S
C731 C730 1.369 1_545 S
C731 C732 1.410 . S
C731 C739 1.503 . S
C732 C731 1.410 . S
C732 C733 1.392 . S
C732 C735 1.511 . S
C733 C729 1.376 . S
C733 C732 1.392 . S
C733 H745 0.929 . S
C734 C730 1.531 . S
C734 H746 0.960 . S
C734 H747 0.962 1_565 S
C734 H748 0.960 . S
C735 C732 1.511 . S
C735 H749 0.961 . S
C735 H750 0.961 . S
C735 H751 0.962 . S
C736 C737 1.370 . S
C736 C738 1.363 . S
C736 H752 0.931 . S
C737 C736 1.370 . S
C737 C741 1.408 1_545 S
C738 C736 1.363 . S
C738 C739 1.370 . S
C738 C742 1.524 . S
C739 C731 1.503 . S
C739 C738 1.370 . S
C739 C740 1.403 1_545 S
C740 C739 1.403 1_565 S
C740 C741 1.404 . S
C740 C743 1.539 . S
C741 C737 1.408 1_565 S
C741 C740 1.404 . S
C741 H753 0.930 . S
C742 C738 1.524 . S
C742 H754 0.956 . S
C742 H755 0.961 . S
C742 H756 0.961 . S
C743 C740 1.539 . S
C743 H757 0.958 . S
C743 H758 0.961 . S
C743 H759 0.960 . S
H744 C728 0.931 . S
H745 C733 0.929 . S
H746 C734 0.960 . S
H747 C734 0.962 1_545 S
H748 C734 0.960 . S
H749 C735 0.961 . S
H750 C735 0.961 . S
H751 C735 0.962 . S
H752 C736 0.931 . S
H753 C741 0.930 . S
H754 C742 0.956 . S
H755 C742 0.961 . S
H756 C742 0.961 . S
H757 C743 0.958 . S
H758 C743 0.961 . S
H759 C743 0.960 . S
C760 C761 1.391 . S
C760 C762 1.394 . S
C760 H776 0.931 . S
C761 C760 1.391 . S
C761 C765 1.376 . S
C762 C760 1.394 . S
C762 C763 1.369 . S
C762 C766 1.531 . S
C763 C762 1.369 . S
C763 C764 1.410 . S
C763 C771 1.503 . S
C764 C763 1.410 . S
C764 C765 1.392 . S
C764 C767 1.511 . S
C765 C761 1.376 . S
C765 C764 1.392 . S
C765 H777 0.929 . S
C766 C762 1.531 . S
C766 H778 0.960 . S
C766 H779 0.962 . S
C766 H780 0.960 . S
C767 C764 1.511 . S
C767 H781 0.961 . S
C767 H782 0.961 . S
C767 H783 0.961 . S
C768 C769 1.370 . S
C768 C770 1.363 . S
C768 H784 0.931 . S
C769 C768 1.370 . S
C769 C773 1.408 . S
C770 C768 1.363 . S
C770 C771 1.370 . S
C770 C774 1.524 . S
C771 C763 1.503 . S
C771 C770 1.370 . S
C771 C772 1.403 . S
C772 C771 1.403 . S
C772 C773 1.404 . S
C772 C775 1.539 . S
C773 C769 1.408 . S
C773 C772 1.404 . S
C773 H785 0.930 . S
C774 C770 1.524 . S
C774 H786 0.956 . S
C774 H787 0.961 . S
C774 H788 0.961 . S
C775 C772 1.539 . S
C775 H789 0.958 . S
C775 H790 0.961 . S
C775 H791 0.960 . S
H776 C760 0.931 . S
H777 C765 0.929 . S
H778 C766 0.960 . S
H779 C766 0.962 . S
H780 C766 0.960 . S
H781 C767 0.961 . S
H782 C767 0.961 . S
H783 C767 0.961 . S
H784 C768 0.931 . S
H785 C773 0.930 . S
H786 C774 0.956 . S
H787 C774 0.961 . S
H788 C774 0.961 . S
H789 C775 0.958 . S
H790 C775 0.961 . S
H791 C775 0.960 . S
C792 C793 1.391 . S
C792 C794 1.394 . S
C792 H808 0.931 . S
C793 C792 1.391 . S
C793 C797 1.376 1_545 S
C794 C792 1.394 . S
C794 C795 1.369 . S
C794 C798 1.531 . S
C795 C794 1.369 . S
C795 C796 1.410 . S
C795 C803 1.503 . S
C796 C795 1.410 . S
C796 C797 1.392 1_545 S
C796 C799 1.511 1_545 S
C797 C793 1.376 1_565 S
C797 C796 1.392 1_565 S
C797 H809 0.929 . S
C798 C794 1.531 . S
C798 H810 0.960 . S
C798 H811 0.962 . S
C798 H812 0.960 . S
C799 C796 1.511 1_565 S
C799 H813 0.961 . S
C799 H814 0.961 . S
C799 H815 0.961 1_565 S
C800 C801 1.370 1_565 S
C800 C802 1.363 . S
C800 H816 0.931 . S
C801 C800 1.370 1_545 S
C801 C805 1.408 . S
C802 C800 1.363 . S
C802 C803 1.370 1_565 S
C802 C806 1.524 . S
C803 C795 1.503 . S
C803 C802 1.370 1_545 S
C803 C804 1.403 . S
C804 C803 1.403 . S
C804 C805 1.404 . S
C804 C807 1.539 . S
C805 C801 1.408 . S
C805 C804 1.404 . S
C805 H817 0.930 . S
C806 C802 1.524 . S
C806 H818 0.956 . S
C806 H819 0.961 . S
C806 H820 0.961 . S
C807 C804 1.539 . S
C807 H821 0.958 . S
C807 H822 0.961 . S
C807 H823 0.960 . S
H808 C792 0.931 . S
H809 C797 0.929 . S
H810 C798 0.960 . S
H811 C798 0.962 . S
H812 C798 0.960 . S
H813 C799 0.961 . S
H814 C799 0.961 . S
H815 C799 0.961 1_545 S
H816 C800 0.931 . S
H817 C805 0.930 . S
H818 C806 0.956 . S
H819 C806 0.961 . S
H820 C806 0.961 . S
H821 C807 0.958 . S
H822 C807 0.961 . S
H823 C807 0.960 . S
C824 C825 1.391 . S
C824 C826 1.394 . S
C824 H840 0.931 . S
C825 C824 1.391 . S
C825 C829 1.376 . S
C826 C824 1.394 . S
C826 C827 1.369 . S
C826 C830 1.531 . S
C827 C826 1.369 . S
C827 C828 1.410 . S
C827 C835 1.503 . S
C828 C827 1.410 . S
C828 C829 1.392 . S
C828 C831 1.511 . S
C829 C825 1.376 . S
C829 C828 1.392 . S
C829 H841 0.929 . S
C830 C826 1.531 . S
C830 H842 0.960 . S
C830 H843 0.962 . S
C830 H844 0.960 . S
C831 C828 1.511 . S
C831 H845 0.961 . S
C831 H846 0.961 . S
C831 H847 0.961 . S
C832 C833 1.370 . S
C832 C834 1.363 1_554 S
C832 H848 0.931 . S
C833 C832 1.370 . S
C833 C837 1.408 . S
C834 C832 1.363 1_556 S
C834 C835 1.370 . S
C834 C838 1.524 . S
C835 C827 1.503 . S
C835 C834 1.370 . S
C835 C836 1.403 . S
C836 C835 1.403 . S
C836 C837 1.404 1_556 S
C836 C839 1.539 . S
C837 C833 1.408 . S
C837 C836 1.404 1_554 S
C837 H849 0.930 . S
C838 C834 1.524 . S
C838 H850 0.956 . S
C838 H851 0.961 . S
C838 H852 0.961 . S
C839 C836 1.539 . S
C839 H853 0.958 . S
C839 H854 0.961 . S
C839 H855 0.960 . S
H840 C824 0.931 . S
H841 C829 0.929 . S
H842 C830 0.960 . S
H843 C830 0.962 . S
H844 C830 0.960 . S
H845 C831 0.961 . S
H846 C831 0.961 . S
H847 C831 0.961 . S
H848 C832 0.931 . S
H849 C837 0.930 . S
H850 C838 0.956 . S
H851 C838 0.961 . S
H852 C838 0.961 . S
H853 C839 0.958 . S
H854 C839 0.961 . S
H855 C839 0.960 . S
C856 C857 1.391 1_655 S
C856 C858 1.394 . S
C856 H872 0.931 . S
C857 C856 1.391 1_455 S
C857 C861 1.376 . S
C858 C856 1.394 . S
C858 C859 1.369 1_655 S
C858 C862 1.531 . S
C859 C858 1.369 1_455 S
C859 C860 1.410 . S
C859 C867 1.503 . S
C860 C859 1.410 . S
C860 C861 1.392 . S
C860 C863 1.511 . S
C861 C857 1.376 . S
C861 C860 1.392 . S
C861 H873 0.929 . S
C862 C858 1.531 . S
C862 H874 0.960 . S
C862 H875 0.962 . S
C862 H876 0.960 . S
C863 C860 1.511 . S
C863 H877 0.961 . S
C863 H878 0.961 . S
C863 H879 0.961 . S
C864 C865 1.370 1_655 S
C864 C866 1.363 . S
C864 H880 0.931 . S
C865 C864 1.370 1_455 S
C865 C869 1.408 . S
C866 C864 1.363 . S
C866 C867 1.370 1_655 S
C866 C870 1.524 . S
C867 C859 1.503 . S
C867 C866 1.370 1_455 S
C867 C868 1.403 . S
C868 C867 1.403 . S
C868 C869 1.404 . S
C868 C871 1.539 . S
C869 C865 1.408 . S
C869 C868 1.404 . S
C869 H881 0.930 . S
C870 C866 1.524 . S
C870 H882 0.956 . S
C870 H883 0.961 . S
C870 H884 0.961 . S
C871 C868 1.539 . S
C871 H885 0.958 . S
C871 H886 0.961 . S
C871 H887 0.960 . S
H872 C856 0.931 . S
H873 C861 0.929 . S
H874 C862 0.960 . S
H875 C862 0.962 . S
H876 C862 0.960 . S
H877 C863 0.961 . S
H878 C863 0.961 . S
H879 C863 0.961 . S
H880 C864 0.931 . S
H881 C869 0.930 . S
H882 C870 0.956 . S
H883 C870 0.961 . S
H884 C870 0.961 . S
H885 C871 0.958 . S
H886 C871 0.961 . S
H887 C871 0.960 . S
C313 C12 2.896 . S
C321 C303 2.841 . S
C345 C52 2.922 . S
C353 C239 2.874 . S
C377 C111 2.962 . S
C385 C271 2.905 . S
C409 C31 3.097 . S
C417 C297 3.044 . S
C449 C233 3.017 . S
C441 C71 3.072 . S
C481 C265 2.973 . S
C473 C92 3.023 . S
C505 C48 0.461 . S
C513 C175 0.439 . S
C537 C109 0.440 . S
C545 C207 0.413 . S
C569 C29 0.436 . S
C577 C137 0.516 . S
C609 C169 0.327 . S
C601 C69 0.487 . S
C641 C201 0.305 . S
C633 C88 0.372 . S
C665 C8 0.346 . S
C673 C143 0.420 . S
C705 C213 1.071 . S
C697 C17 1.084 1_455 S
C729 C57 1.054 . S
C737 C149 1.046 . S
C761 C97 1.098 . S
C769 C181 1.074 . S
C801 C277 1.749 . S
C793 C42 1.698 . S
C833 C309 1.750 . S
C825 C82 1.734 . S
C857 C2 1.739 . S
C865 C245 1.745 . S
