# Generated by pormake.
# Topology pyr, (3,6)-cn, num edge types: 1
# Building blocks:
#     Node 0, Type 0, BuildingBlock: QEWDON_clean_linker_0, # of connection points: 3
#     Node 1, Type 0, BuildingBlock: QEWDON_clean_linker_0, # of connection points: 3
#     Node 2, Type 0, BuildingBlock: QEWDON_clean_linker_0, # of connection points: 3
#     Node 3, Type 0, BuildingBlock: QEWDON_clean_linker_0, # of connection points: 3
#     Node 4, Type 0, BuildingBlock: QEWDON_clean_linker_0, # of connection points: 3
#     Node 5, Type 0, BuildingBlock: QEWDON_clean_linker_0, # of connection points: 3
#     Node 6, Type 0, BuildingBlock: QEWDON_clean_linker_0, # of connection points: 3
#     Node 7, Type 0, BuildingBlock: QEWDON_clean_linker_0, # of connection points: 3
#     Node 8, Type 1, BuildingBlock: MIDCAF_clean_sbu_0, # of connection points: 6
#     Node 9, Type 1, BuildingBlock: MIDCAF_clean_sbu_0, # of connection points: 6
#     Node 10, Type 1, BuildingBlock: MIDCAF_clean_sbu_0, # of connection points: 6
#     Node 11, Type 1, BuildingBlock: MIDCAF_clean_sbu_0, # of connection points: 6
#     Edge 12, Type (0, 1), BuildingBlock: ZUJKAS_clean_linker_0, # of connection points: 2
#     Edge 13, Type (0, 1), BuildingBlock: ZUJKAS_clean_linker_0, # of connection points: 2
#     Edge 14, Type (0, 1), BuildingBlock: ZUJKAS_clean_linker_0, # of connection points: 2
#     Edge 15, Type (0, 1), BuildingBlock: ZUJKAS_clean_linker_0, # of connection points: 2
#     Edge 16, Type (0, 1), BuildingBlock: ZUJKAS_clean_linker_0, # of connection points: 2
#     Edge 17, Type (0, 1), BuildingBlock: ZUJKAS_clean_linker_0, # of connection points: 2
#     Edge 18, Type (0, 1), BuildingBlock: ZUJKAS_clean_linker_0, # of connection points: 2
#     Edge 19, Type (0, 1), BuildingBlock: ZUJKAS_clean_linker_0, # of connection points: 2
#     Edge 20, Type (0, 1), BuildingBlock: ZUJKAS_clean_linker_0, # of connection points: 2
#     Edge 21, Type (0, 1), BuildingBlock: ZUJKAS_clean_linker_0, # of connection points: 2
#     Edge 22, Type (0, 1), BuildingBlock: ZUJKAS_clean_linker_0, # of connection points: 2
#     Edge 23, Type (0, 1), BuildingBlock: ZUJKAS_clean_linker_0, # of connection points: 2
#     Edge 24, Type (0, 1), BuildingBlock: ZUJKAS_clean_linker_0, # of connection points: 2
#     Edge 25, Type (0, 1), BuildingBlock: ZUJKAS_clean_linker_0, # of connection points: 2
#     Edge 26, Type (0, 1), BuildingBlock: ZUJKAS_clean_linker_0, # of connection points: 2
#     Edge 27, Type (0, 1), BuildingBlock: ZUJKAS_clean_linker_0, # of connection points: 2
#     Edge 28, Type (0, 1), BuildingBlock: ZUJKAS_clean_linker_0, # of connection points: 2
#     Edge 29, Type (0, 1), BuildingBlock: ZUJKAS_clean_linker_0, # of connection points: 2
#     Edge 30, Type (0, 1), BuildingBlock: ZUJKAS_clean_linker_0, # of connection points: 2
#     Edge 31, Type (0, 1), BuildingBlock: ZUJKAS_clean_linker_0, # of connection points: 2
#     Edge 32, Type (0, 1), BuildingBlock: ZUJKAS_clean_linker_0, # of connection points: 2
#     Edge 33, Type (0, 1), BuildingBlock: ZUJKAS_clean_linker_0, # of connection points: 2
#     Edge 34, Type (0, 1), BuildingBlock: ZUJKAS_clean_linker_0, # of connection points: 2
#     Edge 35, Type (0, 1), BuildingBlock: ZUJKAS_clean_linker_0, # of connection points: 2
# Relax obj value: 0.142
# Max RMSD: 0.267
# Mean RMSD: 0.193
data_MOF--net-pyr--node1-MIDCAF_clean_sbu_0--node2-QEWDON_clean_linker_0--edge1-ZUJKAS_clean_linker_0
_symmetry_space_group_name_H-M    P1
_symmetry_Int_Tables_number       1
_symmetry_cell_setting            triclinic
loop_
_symmetry_equiv_pos_as_xyz
'x, y, z'
_cell_length_a     45.448442
_cell_length_b     45.890816
_cell_length_c     48.824006
_cell_angle_alpha  90.10906
_cell_angle_beta   90.500848
_cell_angle_gamma 99.748684
loop_
_atom_site_label
_atom_site_type_symbol
_atom_site_fract_x
_atom_site_fract_y
_atom_site_fract_z
_atom_type_partial_charge
H0 H 0.28207 0.27449 0.23673 0.0
C1 C 0.26691 0.26397 0.25219 0.0
C2 C 0.26853 0.23498 0.26066 0.0
C3 C 0.24642 0.27999 0.26395 0.0
H4 H 0.25024 0.19986 0.28798 0.0
C5 C 0.24896 0.22207 0.28118 0.0
C6 C 0.22859 0.23791 0.2937 0.0
C7 C 0.22727 0.26684 0.28457 0.0
C8 C 0.24925 0.3121 0.25824 0.0
H9 H 0.21275 0.27989 0.29463 0.0
C10 C 0.22778 0.32421 0.24277 0.0
C11 C 0.23256 0.35482 0.23665 0.0
C12 C 0.27483 0.3308 0.26804 0.0
H13 H 0.2915 0.32195 0.27995 0.0
C14 C 0.27919 0.36099 0.26268 0.0
H15 H 0.20815 0.30984 0.23487 0.0
C16 C 0.25835 0.37291 0.24711 0.0
H17 H 0.2624 0.3965 0.24332 0.0
H18 H 0.29893 0.37521 0.27051 0.0
H19 H 0.2972 0.86856 0.82008 0.0
C20 C 0.31024 0.85556 0.80811 0.0
C21 C 0.34022 0.85466 0.81547 0.0
C22 C 0.29622 0.83791 0.78661 0.0
H23 H 0.3792 0.83545 0.80545 0.0
C24 C 0.35617 0.83637 0.80019 0.0
C25 C 0.3423 0.81843 0.77873 0.0
C26 C 0.31237 0.81947 0.77214 0.0
C27 C 0.26361 0.83504 0.78159 0.0
H28 H 0.30132 0.80549 0.75587 0.0
C29 C 0.25043 0.85844 0.77094 0.0
C30 C 0.21947 0.85403 0.76459 0.0
C31 C 0.24568 0.80756 0.78645 0.0
H32 H 0.25537 0.78934 0.79462 0.0
C33 C 0.21526 0.80315 0.78058 0.0
H34 H 0.26431 0.87965 0.76724 0.0
C35 C 0.20229 0.82596 0.76954 0.0
H36 H 0.1788 0.82118 0.76423 0.0
H37 H 0.20171 0.78175 0.78416 0.0
H38 H 0.73157 0.38248 0.85974 0.0
C39 C 0.7302 0.36187 0.8708 0.0
C40 C 0.756 0.35422 0.88327 0.0
C41 C 0.70217 0.34392 0.87409 0.0
H42 H 0.77246 0.3217 0.90889 0.0
C43 C 0.7534 0.32747 0.89799 0.0
C44 C 0.72561 0.30927 0.90092 0.0
C45 C 0.70029 0.31745 0.88872 0.0
C46 C 0.67425 0.35391 0.86504 0.0
H47 H 0.67876 0.30344 0.89136 0.0
C48 C 0.67114 0.36518 0.83856 0.0
C49 C 0.64387 0.37323 0.83019 0.0
C50 C 0.65014 0.35173 0.88326 0.0
H51 H 0.65209 0.34373 0.90395 0.0
C52 C 0.62333 0.36004 0.87514 0.0
H53 H 0.6895 0.36684 0.82431 0.0
C54 C 0.62011 0.37059 0.84877 0.0
H55 H 0.5991 0.37714 0.84303 0.0
H56 H 0.60497 0.35831 0.88936 0.0
H57 H 0.80377 0.823 0.29866 0.0
C58 C 0.78697 0.80891 0.31046 0.0
C59 C 0.78547 0.813 0.33892 0.0
C60 C 0.76678 0.7866 0.29722 0.0
H61 H 0.76198 0.79828 0.3758 0.0
C62 C 0.76364 0.79456 0.35398 0.0
C63 C 0.74354 0.77193 0.34117 0.0
C64 C 0.74517 0.76825 0.31269 0.0
C65 C 0.76808 0.78195 0.26723 0.0
H66 H 0.73012 0.75056 0.30258 0.0
C67 C 0.79475 0.7775 0.25466 0.0
C68 C 0.79509 0.76979 0.22662 0.0
C69 C 0.74193 0.78004 0.25137 0.0
H70 H 0.7212 0.78352 0.26058 0.0
C71 C 0.74219 0.77331 0.22356 0.0
H72 H 0.81488 0.77922 0.267 0.0
C73 C 0.76834 0.76785 0.21133 0.0
H74 H 0.76715 0.76118 0.19003 0.0
H75 H 0.72183 0.7716 0.21155 0.0
H76 H 0.91061 0.9181 0.96444 0.0
C77 C 0.91607 0.92155 0.943 0.0
C78 C 0.9287 0.90027 0.92833 0.0
C79 C 0.91261 0.94844 0.93084 0.0
H80 H 0.94764 0.89047 0.88957 0.0
C81 C 0.93752 0.90642 0.90092 0.0
C82 C 0.93425 0.93341 0.88839 0.0
C83 C 0.92129 0.95397 0.9036 0.0
C84 C 0.9049 0.97292 0.94767 0.0
H85 H 0.91844 0.97486 0.89455 0.0
C86 C 0.87601 0.97244 0.95823 0.0
C87 C 0.86966 0.99654 0.97392 0.0
C88 C 0.92722 0.99745 0.95287 0.0
H89 H 0.94952 0.99822 0.9449 0.0
C90 C 0.9211 0.02112 0.96844 0.0
H91 H 0.85868 0.95358 0.95419 0.0
C92 C 0.89261 0.02075 0.97886 0.0
H93 H 0.88838 0.03976 0.99042 0.0
H94 H 0.93848 0.03995 0.9723 0.0
H95 H 0.68087 0.17515 0.48657 0.0
C96 C 0.67083 0.17389 0.46629 0.0
C97 C 0.68373 0.1599 0.44494 0.0
C98 C 0.64464 0.18578 0.46207 0.0
H99 H 0.67916 0.14667 0.4025 0.0
C100 C 0.67013 0.15844 0.41881 0.0
C101 C 0.64377 0.1702 0.41409 0.0
C102 C 0.63139 0.18417 0.43589 0.0
C103 C 0.62907 0.19577 0.48607 0.0
H104 H 0.61081 0.19275 0.43281 0.0
C105 C 0.62219 0.2246 0.48804 0.0
C106 C 0.60736 0.23304 0.51137 0.0
C107 C 0.62102 0.17568 0.50749 0.0
H108 H 0.62597 0.15342 0.50637 0.0
C109 C 0.6063 0.1839 0.53039 0.0
H110 H 0.62839 0.24028 0.47166 0.0
C111 C 0.59951 0.21229 0.53236 0.0
H112 H 0.58847 0.21821 0.55063 0.0
H113 H 0.60021 0.1682 0.54675 0.0
H114 H 0.45886 0.69293 0.16314 0.0
C115 C 0.43752 0.67821 0.16293 0.0
C116 C 0.41214 0.68744 0.15142 0.0
C117 C 0.43534 0.65026 0.17506 0.0
H118 H 0.36514 0.67442 0.14259 0.0
C119 C 0.38471 0.66806 0.15213 0.0
C120 C 0.38222 0.6402 0.16456 0.0
C121 C 0.4077 0.63129 0.17586 0.0
C122 C 0.46182 0.64111 0.18769 0.0
H123 H 0.40601 0.60984 0.18557 0.0
C124 C 0.46583 0.64273 0.2162 0.0
C125 C 0.49017 0.63251 0.22882 0.0
C126 C 0.48262 0.63005 0.17141 0.0
H127 H 0.47978 0.62874 0.14936 0.0
C128 C 0.50695 0.62009 0.18359 0.0
H129 H 0.44988 0.65211 0.22833 0.0
C130 C 0.51063 0.62104 0.21204 0.0
H131 H 0.52918 0.61216 0.22081 0.0
H132 H 0.5228 0.61119 0.17097 0.0
H133 H 0.14201 0.45011 0.70099 0.0
C134 C 0.13902 0.43678 0.68254 0.0
C135 C 0.16015 0.44265 0.66149 0.0
C136 C 0.11468 0.41337 0.68008 0.0
H137 H 0.17409 0.42803 0.62234 0.0
C138 C 0.15723 0.42441 0.63811 0.0
C139 C 0.13344 0.40077 0.63541 0.0
C140 C 0.11186 0.39606 0.65607 0.0
C141 C 0.09304 0.40573 0.70294 0.0
H142 H 0.09333 0.37799 0.65382 0.0
C143 C 0.08518 0.42771 0.72035 0.0
C144 C 0.0648 0.42012 0.7418 0.0
C145 C 0.08025 0.37597 0.70773 0.0
H146 H 0.08648 0.35817 0.69572 0.0
C147 C 0.05956 0.36853 0.72854 0.0
H148 H 0.09458 0.45076 0.7172 0.0
C149 C 0.05178 0.39041 0.74544 0.0
H150 H 0.03632 0.38397 0.76198 0.0
H151 H 0.04992 0.3456 0.73189 0.0
Zn152 Zn 0.98479 0.09023 0.58544 0.0
Zn153 Zn 0.04287 0.01968 0.52821 0.0
Zn154 Zn 0.01314 0.05613 0.5551 0.0
C155 C 0.06689 0.07776 0.5121 0.0
C156 C 0.98231 0.00762 0.51164 0.0
O157 O 0.01388 0.04234 0.59946 0.0
O158 O 0.9909 0.07362 0.62209 0.0
C159 C 0.03108 0.12694 0.55778 0.0
O160 O 0.04806 0.08377 0.53003 0.0
O161 O 0.0693 0.05119 0.50733 0.0
O162 O 0.00646 0.9976 0.51001 0.0
O163 O 0.98062 0.0304 0.52662 0.0
O164 O 0.00991 0.12802 0.57415 0.0
O165 O 0.03593 0.10189 0.54854 0.0
O166 O 0.96613 0.05202 0.53914 0.0
O167 O 0.94498 0.07973 0.56761 0.0
C168 C 0.94324 0.06318 0.54677 0.0
O169 O 0.03373 0.02781 0.58493 0.0
O170 O 0.05941 1.00081 0.55985 0.0
C171 C 1.00403 0.05148 0.62216 0.0
C172 C 0.05132 0.0085 0.58304 0.0
Zn173 Zn 0.49905 0.08837 0.06089 0.0
Zn174 Zn 0.54742 0.01696 0.12513 0.0
Zn175 Zn 0.52168 0.05095 0.09236 0.0
C176 C 0.59185 0.04084 0.09003 0.0
C177 C 0.50201 0.98075 0.09523 0.0
O178 O 0.49936 0.08069 0.11933 0.0
O179 O 0.47809 0.10707 0.08959 0.0
C180 C 0.56031 0.09856 0.05251 0.0
O181 O 0.56968 0.05235 0.08077 0.0
O182 O 0.58884 0.02497 0.11122 0.0
O183 O 0.52227 0.97971 0.11286 0.0
O184 O 0.49795 0.00563 0.08502 0.0
O185 O 0.53777 0.11053 0.04772 0.0
O186 O 0.55808 0.0752 0.06743 0.0
O187 O 0.48835 0.02371 0.06457 0.0
O188 O 0.47541 0.05749 0.03681 0.0
C189 C 0.47391 0.03062 0.04331 0.0
O190 O 0.51795 0.06623 0.13585 0.0
O191 O 0.53888 0.03463 0.1604 0.0
C192 C 0.4826 0.10018 0.1141 0.0
C193 C 0.52627 0.05708 0.15925 0.0
Zn194 Zn 0.55572 0.61264 0.60494 0.0
Zn195 Zn 0.46811 0.53779 0.55508 0.0
Zn196 Zn 0.51071 0.57522 0.58083 0.0
C197 C 0.50872 0.50371 0.57486 0.0
C198 C 0.49541 0.57624 0.51562 0.0
O199 O 0.48988 0.60256 0.61096 0.0
O200 O 0.5287 0.63554 0.62444 0.0
C201 C 0.5612 0.55425 0.61949 0.0
O202 O 0.52123 0.5294 0.58379 0.0
O203 O 0.48388 0.5008 0.56248 0.0
O204 O 0.47462 0.55442 0.51792 0.0
O205 O 0.51113 0.58661 0.53666 0.0
O206 O 0.57273 0.58079 0.62447 0.0
O207 O 0.53887 0.54832 0.60277 0.0
O208 O 0.53615 0.6036 0.54928 0.0
O209 O 0.57465 0.63021 0.57095 0.0
C210 C 0.56054 0.62265 0.54897 0.0
O211 O 0.46764 0.57952 0.60029 0.0
O212 O 0.43474 0.54754 0.57682 0.0
C213 C 0.50091 0.6261 0.62464 0.0
C214 C 0.44059 0.56648 0.59572 0.0
Zn215 Zn 0.07879 0.62205 0.02879 0.0
Zn216 Zn 0.9917 0.54366 0.07617 0.0
Zn217 Zn 0.0343 0.58246 0.04958 0.0
C218 C 0.04648 0.53333 0.09635 0.0
C219 C 0.98839 0.53205 0.0187 0.0
O220 O 0.02257 0.62782 0.0529 0.0
O221 O 0.0591 0.65737 0.03215 0.0
C222 C 0.10359 0.59274 0.06996 0.0
O223 O 0.05544 0.55408 0.07894 0.0
O224 O 0.01894 0.52485 0.10026 0.0
O225 O 0.97664 0.52332 0.04124 0.0
O226 O 0.01023 0.55388 0.01776 0.0
O227 O 0.10993 0.61592 0.05585 0.0
O228 O 0.07724 0.57708 0.06886 0.0
O229 O 0.03453 0.57295 1.00565 0.0
O230 O 0.07645 0.60113 0.9924 0.0
C231 C 0.05382 0.58177 0.98699 0.0
O232 O 1.00464 0.60846 0.07073 0.0
O233 O 0.97083 0.57521 0.09104 0.0
C234 C 0.03403 0.65362 0.04376 0.0
C235 C 0.98133 0.6019 0.0858 0.0
H236 H 0.24521 0.2039 0.33549 0.0
H237 H 0.21557 0.18232 0.37404 0.0
H238 H 0.14169 0.22272 0.34631 0.0
H239 H 0.17071 0.24319 0.3067 0.0
H240 H 0.19113 0.20752 0.41612 0.0
H241 H 0.10104 0.1384 0.35578 0.0
H242 H 0.13531 0.1563 0.34042 0.0
H243 H 0.10615 0.17709 0.34788 0.0
C244 C 0.22245 0.20777 0.33714 0.0
C245 C 0.2103 0.22497 0.31753 0.0
C246 C 0.2056 0.19566 0.35949 0.0
C247 C 0.17615 0.20043 0.36298 0.0
C248 C 0.16409 0.21811 0.34383 0.0
H249 H 0.04976 0.1284 0.49252 0.0
H250 H 0.0758 0.16258 0.45837 0.0
C251 C 0.1809 0.23011 0.3213 0.0
C252 C 0.15842 0.18687 0.38675 0.0
H253 H 0.09559 0.13822 0.4038 0.0
C254 C 0.17017 0.1925 0.41337 0.0
C255 C 0.13096 0.16725 0.38332 0.0
C256 C 0.11769 0.15913 0.35533 0.0
C257 C 0.15556 0.17871 0.43643 0.0
C258 C 0.12853 0.15873 0.43287 0.0
C259 C 0.11624 0.15375 0.40646 0.0
C260 C 0.11419 0.14056 0.45585 0.0
C261 C 0.16922 0.18526 0.46449 0.0
C262 C 0.12732 0.11719 0.46603 0.0
C263 C 0.11249 0.09765 0.48533 0.0
C264 C 0.08433 0.10126 0.49513 0.0
C265 C 0.07167 0.12538 0.48573 0.0
C266 C 0.08641 0.14477 0.46609 0.0
H267 H 0.18678 0.20531 0.46453 0.0
H268 H 0.1518 0.18838 0.47952 0.0
H269 H 0.17951 0.16622 0.47137 0.0
H270 H 0.14859 0.11336 0.45822 0.0
H271 H 0.1227 0.07917 0.49204 0.0
H272 H 0.37792 0.83653 0.85387 0.0
H273 H 0.39945 0.86286 0.89484 0.0
H274 H 0.35516 0.93609 0.87484 0.0
H275 H 0.33395 0.91021 0.83345 0.0
H276 H 0.43653 0.91894 0.89967 0.0
H277 H 0.32976 0.91639 0.95452 0.0
H278 H 0.33324 0.89299 0.92535 0.0
H279 H 0.33005 0.93114 0.92045 0.0
C280 C 0.373 0.85841 0.85788 0.0
C281 C 0.35411 0.87117 0.84016 0.0
C282 C 0.38519 0.87334 0.88151 0.0
C283 C 0.37857 0.90126 0.88821 0.0
C284 C 0.36009 0.91428 0.87045 0.0
H285 H 0.42736 0.03657 0.00963 0.0
H286 H 0.40433 1.00261 0.97403 0.0
C287 C 0.34797 0.89943 0.84674 0.0
C288 C 0.39143 0.91698 0.91348 0.0
H289 H 0.37249 0.94694 0.97366 0.0
C290 C 0.42257 0.92485 0.91598 0.0
C291 C 0.37322 0.9246 0.93481 0.0
C292 C 0.33972 0.91565 0.93388 0.0
C293 C 0.43592 0.94115 0.93865 0.0
C294 C 0.41767 0.94923 0.95981 0.0
C295 C 0.38654 0.94075 0.95755 0.0
C296 C 0.43022 0.96837 0.98335 0.0
C297 C 0.46938 0.95066 0.93909 0.0
C298 C 0.45191 0.9602 1.00119 0.0
C299 C 0.46535 0.97982 0.02158 0.0
C300 C 0.45702 0.00777 0.02482 0.0
C301 C 0.43433 0.01522 0.00775 0.0
C302 C 0.42107 0.99577 0.98735 0.0
H303 H 0.47925 0.9488 0.91855 0.0
H304 H 0.47556 0.97387 0.94632 0.0
H305 H 0.47949 0.93626 0.95335 0.0
H306 H 0.459 0.93897 0.99892 0.0
H307 H 0.48326 0.97367 0.0338 0.0
H308 H 0.59698 0.35684 0.79522 0.0
H309 H 0.58611 0.38132 0.7528 0.0
H310 H 0.67013 0.44081 0.76021 0.0
H311 H 0.6812 0.41624 0.80272 0.0
H312 H 0.58074 0.44037 0.75344 0.0
H313 H 0.66588 0.42026 0.67809 0.0
H314 H 0.65749 0.39784 0.70833 0.0
H315 H 0.68079 0.43354 0.71087 0.0
C316 C 0.61337 0.37482 0.78754 0.0
C317 C 0.63981 0.38486 0.80237 0.0
C318 C 0.6072 0.38867 0.76327 0.0
C319 C 0.62737 0.41275 0.75328 0.0
C320 C 0.65451 0.42189 0.76727 0.0
H321 H 0.61626 0.55582 0.64267 0.0
H322 H 0.63251 0.51871 0.67255 0.0
C323 C 0.66078 0.40792 0.79158 0.0
C324 C 0.61814 0.43058 0.73051 0.0
H325 H 0.63717 0.45769 0.66681 0.0
C326 C 0.59287 0.44388 0.73436 0.0
C327 C 0.63419 0.43529 0.70579 0.0
C328 C 0.66096 0.42079 0.70032 0.0
C329 C 0.58357 0.46237 0.71446 0.0
C330 C 0.59963 0.46722 0.68974 0.0
C331 C 0.62481 0.45375 0.68572 0.0
C332 C 0.59131 0.4875 0.6686 0.0
C333 C 0.55723 0.47741 0.72053 0.0
C334 C 0.5631 0.48183 0.65588 0.0
C335 C 0.55361 0.50316 0.63917 0.0
C336 C 0.5724 0.53025 0.63438 0.0
C337 C 0.60125 0.53519 0.646 0.0
C338 C 0.61064 0.51395 0.66293 0.0
H339 H 0.55182 0.47676 0.7427 0.0
H340 H 0.5616 0.50086 0.71387 0.0
H341 H 0.53732 0.46595 0.70919 0.0
H342 H 0.54797 0.4614 0.6598 0.0
H343 H 0.53103 0.49894 0.6311 0.0
H344 H 0.83904 0.74332 0.25063 0.0
H345 H 0.87965 0.72465 0.22835 0.0
H346 H 0.85162 0.75511 0.15036 0.0
H347 H 0.81325 0.77698 0.17286 0.0
H348 H 0.87408 0.6822 0.19659 0.0
H349 H 0.93742 0.77394 0.138 0.0
H350 H 0.91056 0.7801 0.16344 0.0
H351 H 0.89879 0.77018 0.12874 0.0
C352 C 0.84215 0.74731 0.22893 0.0
C353 C 0.82231 0.76154 0.21367 0.0
C354 C 0.86534 0.7362 0.21608 0.0
C355 C 0.86902 0.73844 0.18756 0.0
C356 C 0.84999 0.75359 0.17242 0.0
H357 H 0.92202 0.59962 0.09299 0.0
H358 H 0.89714 0.63534 0.11673 0.0
C359 C 0.82737 0.76551 0.18536 0.0
C360 C 0.88986 0.72165 0.17338 0.0
H361 H 0.93924 0.72445 0.12054 0.0
C362 C 0.88872 0.69178 0.18035 0.0
C363 C 0.9095 0.73391 0.15235 0.0
C364 C 0.91436 0.76639 0.14548 0.0
C365 C 0.9055 0.67368 0.16634 0.0
C366 C 0.92288 0.68521 0.14367 0.0
C367 C 0.92529 0.71538 0.13744 0.0
C368 C 0.93784 0.66586 0.12596 0.0
C369 C 0.90442 0.64234 0.17619 0.0
C370 C 0.96876 0.67217 0.12137 0.0
C371 C 0.98297 0.65202 0.10707 0.0
C372 C 0.96643 0.62525 0.09741 0.0
C373 C 0.93535 0.61984 0.10069 0.0
C374 C 0.92115 0.64016 0.11441 0.0
H375 H 0.89931 0.64039 0.19839 0.0
H376 H 0.8864 0.62752 0.16504 0.0
H377 H 0.92589 0.6345 0.17264 0.0
H378 H 0.98205 0.69205 0.12977 0.0
H379 H 0.00698 0.65671 0.10473 0.0
H380 H 0.32726 0.25692 0.24964 0.0
H381 H 0.36484 0.23096 0.22983 0.0
H382 H 0.30067 0.15026 0.22693 0.0
H383 H 0.26264 0.17626 0.24605 0.0
H384 H 0.38843 0.18016 0.24762 0.0
H385 H 0.32922 0.16145 0.14734 0.0
H386 H 0.31978 0.18714 0.17248 0.0
H387 H 0.30754 0.14811 0.17672 0.0
C388 C 0.32098 0.23371 0.24454 0.0
C389 C 0.29169 0.21884 0.24914 0.0
C390 C 0.34265 0.2188 0.2335 0.0
C391 C 0.33559 0.18869 0.22662 0.0
C392 C 0.3066 0.17357 0.23175 0.0
H393 H 0.46295 0.07783 0.16462 0.0
H394 H 0.42884 0.09818 0.19549 0.0
C395 C 0.2849 0.18846 0.24286 0.0
C396 C 0.35823 0.17359 0.21307 0.0
H397 H 0.37349 0.14183 0.15261 0.0
C398 C 0.3851 0.17157 0.22692 0.0
C399 C 0.35402 0.16258 0.18596 0.0
C400 C 0.32623 0.16506 0.16958 0.0
C401 C 0.40789 0.15907 0.21428 0.0
C402 C 0.40366 0.14828 0.18713 0.0
C403 C 0.37664 0.14994 0.17349 0.0
C404 C 0.42767 0.13752 0.17136 0.0
C405 C 0.43671 0.15835 0.22961 0.0
C406 C 0.43893 0.15312 0.148 0.0
C407 C 0.45831 0.14165 0.13055 0.0
C408 C 0.46698 0.11418 0.1359 0.0
C409 C 0.45706 0.09921 0.16012 0.0
C410 C 0.43746 0.11078 0.17771 0.0
H411 H 0.4381 0.17116 0.24905 0.0
H412 H 0.43846 0.13511 0.23453 0.0
H413 H 0.4561 0.16738 0.21668 0.0
H414 H 0.43185 0.17381 0.14272 0.0
H415 H 0.46563 0.15388 0.11218 0.0
H416 H 0.16255 0.86518 0.77242 0.0
H417 H 0.13542 0.89589 0.74477 0.0
H418 H 0.21609 0.92972 0.70119 0.0
H419 H 0.24285 0.89667 0.72701 0.0
H420 H 0.13475 0.95002 0.73488 0.0
H421 H 0.16551 0.90071 0.63773 0.0
H422 H 0.17494 0.88708 0.67063 0.0
H423 H 0.19741 0.91948 0.65621 0.0
C424 C 0.1746 0.87879 0.7567 0.0
C425 C 0.20479 0.87744 0.75141 0.0
C426 C 0.15902 0.89676 0.74107 0.0
C427 C 0.17328 0.91448 0.72005 0.0
C428 C 0.20413 0.91537 0.71643 0.0
H429 H 0.07712 0.03686 0.62896 0.0
H430 H 0.10636 0.01589 0.66409 0.0
C431 C 0.21963 0.89678 0.73166 0.0
C432 C 0.1553 0.93063 0.70137 0.0
H433 H 0.13787 0.9395 0.634 0.0
C434 C 0.13544 0.94766 0.7128 0.0
C435 C 0.15564 0.92729 0.67249 0.0
C436 C 0.17427 0.90742 0.65854 0.0
C437 C 0.11575 0.96091 0.69637 0.0
C438 C 0.11672 0.95821 0.6675 0.0
C439 C 0.13702 0.94173 0.65609 0.0
C440 C 0.09625 0.97099 0.6485 0.0
C441 C 0.09333 0.97656 0.71027 0.0
C442 C 0.08059 0.95298 0.628 0.0
C443 C 0.06463 0.9651 0.60763 0.0
C444 C 0.06332 0.99543 0.60753 0.0
C445 C 0.07742 0.01331 0.62884 0.0
C446 C 0.09407 1.00126 0.64898 0.0
H447 H 0.08915 0.96878 0.73164 0.0
H448 H 0.10221 1.0006 0.7111 0.0
H449 H 0.0717 0.9732 0.69896 0.0
H450 H 0.08158 0.92957 0.62715 0.0
H451 H 0.05401 0.95085 0.59138 0.0
H452 H 0.81368 0.34281 0.88286 0.0
H453 H 0.85899 0.37699 0.89588 0.0
H454 H 0.809 0.4488 0.89797 0.0
H455 H 0.76341 0.41479 0.887 0.0
H456 H 0.89269 0.4318 0.87861 0.0
H457 H 0.83541 0.44142 0.97741 0.0
H458 H 0.82103 0.41421 0.95185 0.0
H459 H 0.81519 0.45185 0.94834 0.0
C460 C 0.8123 0.36591 0.88593 0.0
C461 C 0.78457 0.37575 0.88451 0.0
C462 C 0.83834 0.38548 0.89303 0.0
C463 C 0.83717 0.41526 0.89851 0.0
C464 C 0.81024 0.42575 0.89432 0.0
H465 H 0.9484 0.55414 0.98762 0.0
H466 H 0.91557 0.52771 0.9523 0.0
C467 C 0.78415 0.40619 0.88771 0.0
C468 C 0.86271 0.43433 0.91216 0.0
H469 H 0.88189 0.47225 0.9716 0.0
C470 C 0.89041 0.44072 0.89891 0.0
C471 C 0.85978 0.44548 0.93888 0.0
C472 C 0.83138 0.43769 0.9551 0.0
C473 C 0.91506 0.45864 0.91155 0.0
C474 C 0.9117 0.47025 0.93793 0.0
C475 C 0.88416 0.46363 0.95115 0.0
C476 C 0.93638 0.48867 0.95314 0.0
C477 C 0.94437 0.46534 0.8967 0.0
C478 C 0.95943 0.47571 0.96471 0.0
C479 C 0.97815 0.4908 0.98492 0.0
C480 C 0.97407 0.51901 0.99352 0.0
C481 C 0.95215 0.53257 0.98086 0.0
C482 C 0.93351 0.51756 0.9607 0.0
H483 H 0.94206 0.45878 0.87477 0.0
H484 H 0.95367 0.48929 0.89812 0.0
H485 H 0.96069 0.45309 0.90654 0.0
H486 H 0.96155 0.45319 0.95959 0.0
H487 H 0.99461 0.47983 0.99492 0.0
H488 H 0.68484 0.75005 0.32825 0.0
H489 H 0.64796 0.71922 0.35683 0.0
H490 H 0.71443 0.71933 0.42044 0.0
H491 H 0.75165 0.74865 0.39161 0.0
H492 H 0.68099 0.6652 0.41359 0.0
H493 H 0.60753 0.75024 0.42158 0.0
H494 H 0.61387 0.73818 0.38745 0.0
H495 H 0.64438 0.75824 0.4071 0.0
C496 C 0.6917 0.74316 0.34817 0.0
C497 C 0.72116 0.75218 0.35777 0.0
C498 C 0.67048 0.72583 0.36461 0.0
C499 C 0.67827 0.71748 0.391 0.0
C500 C 0.70784 0.72569 0.40023 0.0
H501 H 0.58768 0.67905 0.54013 0.0
H502 H 0.61265 0.69945 0.49852 0.0
C503 C 0.72904 0.74275 0.3838 0.0
C504 C 0.65585 0.70073 0.40957 0.0
H505 H 0.59353 0.70641 0.44642 0.0
C506 C 0.66165 0.67401 0.42057 0.0
C507 C 0.63072 0.71237 0.4187 0.0
C508 C 0.62376 0.74143 0.40831 0.0
C509 C 0.64384 0.65927 0.44132 0.0
C510 C 0.61905 0.67123 0.45084 0.0
C511 C 0.61251 0.69728 0.43902 0.0
C512 C 0.60169 0.65894 0.47502 0.0
C513 C 0.65279 0.632 0.45389 0.0
C514 C 0.58682 0.6295 0.47554 0.0
C515 C 0.57295 0.61772 0.4995 0.0
C516 C 0.57298 0.6354 0.52299 0.0
C517 C 0.58714 0.66502 0.52219 0.0
C518 C 0.60127 0.67671 0.49841 0.0
H519 H 0.67592 0.62954 0.44837 0.0
H520 H 0.65126 0.63262 0.47656 0.0
H521 H 0.63749 0.61213 0.44634 0.0
H522 H 0.58652 0.61546 0.45765 0.0
H523 H 0.56324 0.59452 0.49999 0.0
H524 H 0.17118 0.34822 0.23956 0.0
H525 H 0.13839 0.37698 0.21487 0.0
H526 H 0.21403 0.42189 0.1701 0.0
H527 H 0.24663 0.39343 0.19455 0.0
H528 H 0.1816 0.4606 0.19387 0.0
H529 H 0.10677 0.37331 0.13575 0.0
H530 H 0.10913 0.36683 0.17193 0.0
H531 H 0.14152 0.36719 0.15104 0.0
C532 C 0.18063 0.36376 0.22402 0.0
C533 C 0.21155 0.36866 0.21919 0.0
C534 C 0.1619 0.38023 0.20992 0.0
C535 C 0.1737 0.40167 0.19055 0.0
C536 C 0.20436 0.40567 0.18502 0.0
H537 H 0.0811 0.49764 0.07303 0.0
H538 H 0.11263 0.46657 0.09624 0.0
C539 C 0.22299 0.38935 0.19905 0.0
C540 C 0.15482 0.4213 0.17711 0.0
H541 H 0.09494 0.42165 0.13422 0.0
C542 C 0.16262 0.45204 0.18086 0.0
C543 C 0.13023 0.41026 0.15987 0.0
C544 C 0.12147 0.37762 0.15413 0.0
C545 C 0.14654 0.47194 0.16801 0.0
C546 C 0.12164 0.46089 0.15116 0.0
C547 C 0.11391 0.43016 0.14726 0.0
C548 C 0.10357 0.48086 0.13712 0.0
C549 C 0.15681 0.50467 0.17212 0.0
C550 C 0.08798 0.49933 0.15228 0.0
C551 C 0.07016 0.51722 0.13899 0.0
C552 C 0.06786 0.51722 0.1103 0.0
C553 C 0.08328 0.49868 0.09515 0.0
C554 C 0.10103 0.48074 0.1084 0.0
H555 H 0.18031 0.50965 0.17954 0.0
H556 H 0.15486 0.51691 0.15279 0.0
H557 H 0.14254 0.51296 0.18765 0.0
H558 H 0.08902 0.49939 0.17445 0.0
H559 H 0.0578 0.53074 0.15113 0.0
H560 H 0.75142 0.25957 0.89721 0.0
H561 H 0.73917 0.21423 0.92489 0.0
H562 H 0.67914 0.25614 0.97329 0.0
H563 H 0.69096 0.30093 0.94573 0.0
H564 H 0.72156 0.21788 1.00235 0.0
H565 H 0.64852 0.16601 0.91687 0.0
H566 H 0.6862 0.1842 0.91043 0.0
H567 H 0.65826 0.20573 0.91933 0.0
C568 C 0.73606 0.2591 0.91411 0.0
C569 C 0.72185 0.28342 0.9193 0.0
C570 C 0.72911 0.23334 0.92983 0.0
C571 C 0.70825 0.23198 0.95103 0.0
C572 C 0.69537 0.25688 0.95707 0.0
H573 H 0.58894 0.15389 0.06252 0.0
H574 H 0.63289 0.18014 0.03928 0.0
C575 C 0.70199 0.28232 0.94127 0.0
C576 C 0.69693 0.20409 0.96537 0.0
H577 H 0.63952 0.146 0.96068 0.0
C578 C 0.70423 0.20156 0.99312 0.0
C579 C 0.67461 0.18275 0.95315 0.0
C580 C 0.66625 0.18455 0.9233 0.0
C581 C 0.68813 0.17941 0.00952 0.0
C582 C 0.66359 0.16005 0.99796 0.0
C583 C 0.65819 0.16095 0.96963 0.0
C584 C 0.64039 0.1424 0.01517 0.0
C585 C 0.69682 0.17777 0.03928 0.0
C586 C 0.62954 0.11253 0.00912 0.0
C587 C 0.60399 0.09771 0.0221 0.0
C588 C 0.58922 0.11244 0.04148 0.0
C589 C 0.60043 0.14199 0.04801 0.0
C590 C 0.62575 0.15685 0.03497 0.0
H591 H 0.72134 0.18435 0.04205 0.0
H592 H 0.68596 0.19347 0.0513 0.0
H593 H 0.68993 0.15519 0.04765 0.0
H594 H 0.64001 0.10111 0.99348 0.0
H595 H 0.59476 0.07542 0.01581 0.0
H596 H 0.81703 0.80707 0.38555 0.0
H597 H 0.84871 0.84587 0.4118 0.0
H598 H 0.83328 0.91041 0.35164 0.0
H599 H 0.8012 0.8715 0.32519 0.0
H600 H 0.90163 0.88659 0.39129 0.0
H601 H 0.81003 0.94278 0.42883 0.0
H602 H 0.80306 0.90494 0.41683 0.0
H603 H 0.81146 0.9346 0.3928 0.0
C604 C 0.82038 0.82953 0.37789 0.0
C605 C 0.80653 0.83633 0.35342 0.0
C606 C 0.8385 0.85162 0.39287 0.0
C607 C 0.84296 0.88099 0.38382 0.0
C608 C 0.82976 0.88788 0.35909 0.0
H609 H 0.95046 0.0305 0.47189 0.0
H610 H 0.91428 1.00239 0.43978 0.0
C611 C 0.81172 0.86565 0.34392 0.0
C612 C 0.86178 0.90405 0.40046 0.0
H613 H 0.85846 0.96008 0.44597 0.0
C614 C 0.89228 0.90288 0.40301 0.0
C615 C 0.84946 0.92533 0.41557 0.0
C616 C 0.81669 0.92713 0.41362 0.0
C617 C 0.91073 0.92195 0.42086 0.0
C618 C 0.89817 0.94223 0.43706 0.0
C619 C 0.86791 0.94432 0.43367 0.0
C620 C 0.91601 0.96006 0.45863 0.0
C621 C 0.94352 0.91996 0.42246 0.0
C622 C 0.92778 0.94573 0.48047 0.0
C623 C 0.94806 0.96174 0.49881 0.0
C624 C 0.95647 0.99241 0.49593 0.0
C625 C 0.94341 0.00706 0.47506 0.0
C626 C 0.92312 0.99096 0.45655 0.0
H627 H 0.95106 0.90971 0.40371 0.0
H628 H 0.95733 0.94216 0.42536 0.0
H629 H 0.94753 0.906 0.44019 0.0
H630 H 0.92223 0.92195 0.48264 0.0
H631 H 0.9581 0.95 0.51463 0.0
H632 H 0.32239 0.76002 0.76736 0.0
H633 H 0.34815 0.72549 0.74264 0.0
H634 H 0.42377 0.7949 0.73109 0.0
H635 H 0.39835 0.8293 0.75655 0.0
H636 H 0.3664 0.72444 0.69184 0.0
H637 H 0.46563 0.73147 0.75946 0.0
H638 H 0.43335 0.74716 0.76891 0.0
H639 H 0.4612 0.76708 0.74671 0.0
C640 C 0.34456 0.7679 0.75961 0.0
C641 C 0.35838 0.79741 0.764 0.0
C642 C 0.3593 0.74811 0.74549 0.0
C643 C 0.38819 0.7573 0.73531 0.0
C644 C 0.40189 0.78689 0.73939 0.0
H645 H 0.50947 0.68573 0.63018 0.0
H646 H 0.4805 0.71566 0.65704 0.0
C647 C 0.3873 0.80663 0.75385 0.0
C648 C 0.40352 0.73615 0.71979 0.0
H649 H 0.46879 0.70867 0.71574 0.0
C650 C 0.38867 0.72079 0.69728 0.0
C651 C 0.43251 0.73103 0.72692 0.0
C652 C 0.44896 0.74481 0.75199 0.0
C653 C 0.40236 0.70138 0.68128 0.0
C654 C 0.4317 0.6972 0.68787 0.0
C655 C 0.44636 0.71207 0.7106 0.0
C656 C 0.4482 0.67858 0.67075 0.0
C657 C 0.38573 0.68608 0.65696 0.0
C658 C 0.4398 0.64767 0.66959 0.0
C659 C 0.45659 0.63045 0.65433 0.0
C660 C 0.48177 0.64377 0.63978 0.0
C661 C 0.49003 0.67473 0.64102 0.0
C662 C 0.47348 0.6919 0.65634 0.0
H663 H 0.36504 0.69501 0.65215 0.0
H664 H 0.4002 0.6884 0.63861 0.0
H665 H 0.37947 0.66213 0.66136 0.0
H666 H 0.42078 0.63681 0.68107 0.0
H667 H 0.45079 0.60675 0.65495 0.0
H668 H 0.96082 0.98768 0.8691 0.0
H669 H 0.97675 1.00124 0.82286 0.0
H670 H 0.95316 0.91021 0.79732 0.0
H671 H 0.93472 0.89671 0.8433 0.0
H672 H 0.01857 0.98819 0.792 0.0
H673 H 0.9108 0.94733 0.73911 0.0
H674 H 0.91413 0.94903 0.77589 0.0
H675 H 0.92572 0.9191 0.75725 0.0
C676 C 0.95823 0.97049 0.85363 0.0
C677 C 0.94567 0.94111 0.86009 0.0
C678 C 0.96784 0.97829 0.8271 0.0
C679 C 0.96566 0.95695 0.8062 0.0
C680 C 0.9543 0.92735 0.81274 0.0
H681 H 1.00311 0.99201 0.63062 0.0
H682 H 0.99852 0.96594 0.67476 0.0
C683 C 0.94416 0.91956 0.83927 0.0
C684 C 0.97542 0.96616 0.77784 0.0
H685 H 0.95116 0.96764 0.71135 0.0
C686 C 1.0038 0.98347 0.77439 0.0
C687 C 0.95633 0.96011 0.75463 0.0
C688 C 0.92496 0.94313 0.75685 0.0
C689 C 0.0132 0.99556 0.74884 0.0
C690 C 0.99389 0.99002 0.72584 0.0
C691 C 0.96608 0.97165 0.72892 0.0
C692 C 1.00054 0.0056 0.69926 0.0
C693 C 0.04348 0.01485 0.74707 0.0
C694 C 1.00369 0.03653 0.69832 0.0
C695 C 0.00644 0.05137 0.67327 0.0
C696 C 0.00614 0.03569 0.64846 0.0
C697 C 1.00404 0.00477 0.64938 0.0
C698 C 1.00113 0.98984 0.67457 0.0
H699 H 0.05966 0.00697 0.76128 0.0
H700 H 0.05254 0.01562 0.72603 0.0
H701 H 0.04149 0.03769 0.75333 0.0
H702 H 1.00283 0.04919 0.71697 0.0
H703 H 0.00785 0.07518 0.67328 0.0
H704 H 0.58373 0.1532 0.40428 0.0
H705 H 0.55858 0.14031 0.36029 0.0
H706 H 0.64256 0.1633 0.31872 0.0
H707 H 0.66792 0.17616 0.36265 0.0
H708 H 0.5535 0.16998 0.30979 0.0
H709 H 0.61541 0.07622 0.29865 0.0
H710 H 0.61498 0.09641 0.33033 0.0
H711 H 0.63888 0.11158 0.30288 0.0
C712 C 0.5968 0.15607 0.38575 0.0
C713 C 0.62795 0.16549 0.38707 0.0
C714 C 0.58236 0.14863 0.36059 0.0
C715 C 0.59871 0.15039 0.33621 0.0
C716 C 0.62954 0.16122 0.3373 0.0
H717 H 0.53671 0.11724 0.16684 0.0
H718 H 0.55016 0.14277 0.21063 0.0
C719 C 0.64402 0.16853 0.36244 0.0
C720 C 0.584 0.13879 0.31006 0.0
H721 H 0.58502 0.08544 0.26141 0.0
C722 C 0.56036 0.1515 0.29915 0.0
C723 C 0.59263 0.11439 0.29639 0.0
C724 C 0.61666 0.09862 0.30773 0.0
C725 C 0.5454 0.14062 0.2748 0.0
C726 C 0.5545 0.11658 0.26095 0.0
C727 C 0.57805 0.10392 0.27196 0.0
C728 C 0.53982 0.10328 0.23536 0.0
C729 C 0.51962 0.15443 0.26441 0.0
C730 C 0.52842 0.07289 0.2347 0.0
C731 C 0.52106 0.05835 0.20981 0.0
C732 C 0.52472 0.07389 0.18497 0.0
C733 C 0.53336 0.10479 0.1857 0.0
C734 C 0.5411 0.11938 0.21075 0.0
H735 H 0.51096 0.16782 0.28049 0.0
H736 H 0.52721 0.16921 0.24698 0.0
H737 H 0.5011 0.13722 0.25695 0.0
H738 H 0.52706 0.06 0.25336 0.0
H739 H 0.51442 0.03453 0.20986 0.0
H740 H 0.5421 0.63958 0.25974 0.0
H741 H 0.54694 0.63429 0.30919 0.0
H742 H 0.45133 0.62407 0.31704 0.0
H743 H 0.44592 0.62611 0.26767 0.0
H744 H 0.53381 0.66208 0.35362 0.0
H745 H 0.46567 0.5501 0.35248 0.0
H746 H 0.47753 0.56956 0.32144 0.0
H747 H 0.44501 0.57701 0.33929 0.0
C748 C 0.52198 0.63564 0.27183 0.0
C749 C 0.49355 0.63266 0.25931 0.0
C750 C 0.52487 0.63309 0.30024 0.0
C751 C 0.49946 0.62798 0.31679 0.0
C752 C 0.47124 0.62707 0.30462 0.0
H753 H 0.49474 0.63188 0.49587 0.0
H754 H 0.4995 0.64716 0.44762 0.0
C755 C 0.46825 0.6288 0.27623 0.0
C756 C 0.50224 0.62207 0.34652 0.0
H757 H 0.47619 0.57241 0.39609 0.0
C758 C 0.52139 0.64238 0.36293 0.0
C759 C 0.48656 0.59604 0.35859 0.0
C760 C 0.46783 0.57181 0.34197 0.0
C761 C 0.5249 0.63753 0.39114 0.0
C762 C 0.50803 0.6122 0.40336 0.0
C763 C 0.48905 0.59194 0.38685 0.0
C764 C 0.50975 0.60538 0.43303 0.0
C765 C 0.5472 0.65911 0.40731 0.0
C766 C 0.514 0.57697 0.44097 0.0
C767 C 0.51017 0.56802 0.46811 0.0
C768 C 0.50291 0.58755 0.48804 0.0
C769 C 0.5005 0.61659 0.48069 0.0
C770 C 0.50352 0.62536 0.45322 0.0
H771 H 0.5646 0.67144 0.39387 0.0
H772 H 0.53549 0.67549 0.41744 0.0
H773 H 0.55832 0.64764 0.42334 0.0
H774 H 0.51899 0.5612 0.42588 0.0
H775 H 0.51228 0.54556 0.47349 0.0
H776 H 0.10514 0.46103 0.76876 0.0
H777 H 0.09559 0.49279 0.80678 0.0
H778 H 1.00089 0.46193 0.79782 0.0
H779 H 0.01047 0.42941 0.76021 0.0
H780 H 0.06411 0.53729 0.81324 0.0
H781 H 0.014 0.44093 0.87633 0.0
H782 H 0.03247 0.43656 0.84442 0.0
H783 H 0.99517 0.44485 0.84446 0.0
C784 C 0.08226 0.4614 0.77461 0.0
C785 C 0.05856 0.44259 0.76176 0.0
C786 C 0.07682 0.47946 0.79639 0.0
C787 C 0.04757 0.47919 0.80559 0.0
C788 C 0.02369 0.46184 0.79161 0.0
H789 H 1.00218 0.5632 0.95854 0.0
H790 H 0.99652 0.53952 0.91318 0.0
C791 C 0.02916 0.44344 0.77005 0.0
C792 C 0.0426 0.49609 0.83058 0.0
H793 H 0.01885 0.4878 0.89677 0.0
C794 C 0.05398 0.52649 0.83142 0.0
C795 C 0.02913 0.48203 0.85427 0.0
C796 C 0.01719 0.44927 0.85502 0.0
C797 C 0.05325 0.54299 0.85554 0.0
C798 C 0.04111 0.52862 0.87948 0.0
C799 C 0.02826 0.49864 0.87833 0.0
C800 C 0.04405 0.54355 0.90648 0.0
C801 C 0.06594 0.57557 0.85534 0.0
C802 C 0.07252 0.5532 0.91781 0.0
C803 C 0.07563 0.56589 0.94389 0.0
C804 C 0.05031 0.5689 0.95921 0.0
C805 C 0.02186 0.55975 0.94765 0.0
C806 C 0.01869 0.5468 0.9216 0.0
H807 H 0.06594 0.58485 0.83433 0.0
H808 H 0.0531 0.58812 0.86895 0.0
H809 H 0.08939 0.57886 0.86284 0.0
H810 H 0.09236 0.55038 0.90667 0.0
H811 H 0.09786 0.57282 0.9523 0.0
H812 H 0.81559 0.98298 0.94709 0.0
H813 H 0.76677 0.99179 0.96333 0.0
H814 H 0.80652 0.02159 0.04112 0.0
H815 H 0.85507 0.01288 0.02513 0.0
H816 H 0.73159 0.97074 0.00899 0.0
H817 H 0.7686 0.09197 0.0157 0.0
H818 H 0.78953 0.06795 0.99768 0.0
H819 H 0.79231 0.07132 0.03437 0.0
C820 C 0.81377 0.99094 0.96779 0.0
C821 C 0.83927 0.99758 0.9847 0.0
C822 C 0.78593 0.99616 0.97698 0.0
C823 C 0.78316 0.00814 1.00318 0.0
C824 C 0.80826 0.01319 0.02056 0.0
H825 H 0.64871 0.05364 0.10984 0.0
H826 H 0.69457 0.0473 0.08605 0.0
C827 C 0.83598 0.00806 0.01142 0.0
C828 C 0.75427 0.01572 0.01248 0.0
H829 H 0.72251 0.07275 0.03733 0.0
C830 C 0.72946 0.99309 0.01487 0.0
C831 C 0.75148 0.04494 0.02007 0.0
C832 C 0.7768 0.07051 0.01659 0.0
C833 C 0.70238 0.99865 0.02578 0.0
C834 C 0.69989 0.02773 0.03408 0.0
C835 C 0.72446 0.05048 0.03103 0.0
C836 C 0.6725 0.03459 0.04734 0.0
C837 C 0.67702 0.97312 0.02934 0.0
C838 C 0.64501 0.0305 0.03325 0.0
C839 C 0.61887 0.03424 0.04683 0.0
C840 C 0.61984 0.04265 0.07452 0.0
C841 C 0.64748 0.04773 0.08832 0.0
C842 C 0.67362 0.04401 0.07477 0.0
H843 H 0.68453 0.95141 0.02731 0.0
H844 H 0.66651 0.97419 0.04969 0.0
H845 H 0.65972 0.97434 0.0134 0.0
H846 H 0.64364 0.0235 0.01202 0.0
H847 H 0.59767 0.02906 0.03608 0.0
H848 H 0.69473 0.12762 0.48998 0.0
H849 H 0.73891 0.10579 0.50027 0.0
H850 H 0.77656 0.13564 0.42245 0.0
H851 H 0.73277 0.15866 0.41238 0.0
H852 H 0.76388 0.06274 0.4738 0.0
H853 H 0.84307 0.16932 0.47567 0.0
H854 H 0.80313 0.16763 0.47555 0.0
H855 H 0.82206 0.16159 0.44442 0.0
C856 C 0.71253 0.12995 0.47514 0.0
C857 C 0.71031 0.14543 0.45051 0.0
C858 C 0.7377 0.11714 0.48096 0.0
C859 C 0.76135 0.11942 0.46237 0.0
C860 C 0.7589 0.13406 0.43739 0.0
H861 H 0.93897 0.07386 0.49225 0.0
H862 H 0.89417 0.08244 0.46717 0.0
C863 C 0.73368 0.14698 0.43154 0.0
C864 C 0.78862 0.10686 0.46961 0.0
H865 H 0.86319 0.12618 0.48378 0.0
C866 C 0.78564 0.07659 0.47579 0.0
C867 C 0.81709 0.12485 0.47214 0.0
C868 C 0.82165 0.15769 0.46684 0.0
C869 C 0.81017 0.06398 0.48481 0.0
C870 C 0.8384 0.08215 0.48815 0.0
C871 C 0.8416 0.11219 0.4811 0.0
C872 C 0.86427 0.07133 0.50126 0.0
C873 C 0.80561 0.0313 0.49082 0.0
C874 C 0.86232 0.06145 0.52851 0.0
C875 C 0.88782 0.05623 0.54267 0.0
C876 C 0.91577 0.06054 0.52985 0.0
C877 C 0.91751 0.06904 0.50221 0.0
C878 C 0.89199 0.07443 0.48804 0.0
H879 H 0.78612 0.01913 0.47931 0.0
H880 H 0.82573 0.02174 0.48557 0.0
H881 H 0.80124 0.02781 0.51299 0.0
H882 H 0.84145 0.05957 0.53942 0.0
H883 H 0.88601 0.05044 0.56416 0.0
H884 H 0.33007 0.65505 0.18147 0.0
H885 H 0.28007 0.62701 0.17485 0.0
H886 H 0.31732 0.5536 0.14276 0.0
H887 H 0.36782 0.58214 0.14894 0.0
H888 H 0.27911 0.57163 0.10764 0.0
H889 H 0.22427 0.5593 0.20768 0.0
H890 H 0.24251 0.59684 0.20404 0.0
H891 H 0.26442 0.56751 0.20455 0.0
C892 C 0.32762 0.63267 0.1736 0.0
C893 C 0.35269 0.62084 0.16542 0.0
C894 C 0.29903 0.61645 0.17019 0.0
C895 C 0.29488 0.58797 0.15869 0.0
C896 C 0.32003 0.57539 0.15197 0.0
H897 H 0.12394 0.54044 0.06947 0.0
H898 H 0.16708 0.52809 0.09498 0.0
C899 C 0.3488 0.59166 0.15551 0.0
C900 C 0.26457 0.57435 0.14928 0.0
H901 H 0.19184 0.56824 0.1685 0.0
C902 C 0.25997 0.56968 0.12104 0.0
C903 C 0.23963 0.57159 0.16678 0.0
C904 C 0.24306 0.57377 0.19749 0.0
C905 C 0.2312 0.56583 0.1095 0.0
C906 C 0.20647 0.56633 0.12679 0.0
C907 C 0.21086 0.56807 0.15526 0.0
C908 C 0.17721 0.57055 0.11545 0.0
C909 C 0.22781 0.56415 0.07871 0.0
C910 C 0.16791 0.59787 0.11951 0.0
C911 C 0.14306 0.60456 0.10548 0.0
C912 C 0.12694 0.5839 0.08744 0.0
C913 C 0.13545 0.55614 0.08414 0.0
C914 C 0.16031 0.54933 0.0983 0.0
H915 H 0.24969 0.56749 0.06817 0.0
H916 H 0.21539 0.54209 0.07275 0.0
H917 H 0.21489 0.58108 0.07126 0.0
H918 H 0.18077 0.61461 0.1325 0.0
H919 H 0.13697 0.62622 0.10807 0.0
H920 H 0.18363 0.48314 0.62329 0.0
H921 H 0.23201 0.51594 0.62523 0.0
H922 H 0.24511 0.48852 0.70822 0.0
H923 H 0.19693 0.45514 0.70626 0.0
H924 H 0.26163 0.56294 0.66343 0.0
H925 H 0.31169 0.46006 0.66156 0.0
H926 H 0.27288 0.45979 0.65333 0.0
H927 H 0.28555 0.46368 0.68827 0.0
C928 C 0.19663 0.48442 0.6421 0.0
C929 C 0.18671 0.46625 0.66448 0.0
C930 C 0.22411 0.50335 0.64326 0.0
C931 C 0.24219 0.5044 0.66677 0.0
C932 C 0.23148 0.48788 0.68985 0.0
H933 H 0.43412 0.55126 0.64908 0.0
H934 H 0.38726 0.5438 0.67457 0.0
C935 C 0.20392 0.46892 0.68873 0.0
C936 C 0.2736 0.51955 0.66548 0.0
H937 H 0.34382 0.5048 0.65621 0.0
C938 C 0.27977 0.55038 0.66234 0.0
C939 C 0.29717 0.50308 0.66419 0.0
C940 C 0.29169 0.46981 0.66684 0.0
C941 C 0.30888 0.56508 0.65698 0.0
C942 C 0.33213 0.54834 0.65398 0.0
C943 C 0.3261 0.51771 0.65861 0.0
C944 C 0.36174 0.5609 0.64253 0.0
C945 C 0.31431 0.59827 0.65416 0.0
C946 C 0.36335 0.57417 0.61654 0.0
C947 C 0.39024 0.57896 0.60228 0.0
C948 C 0.41593 0.57056 0.61373 0.0
C949 C 0.41479 0.55881 0.64026 0.0
C950 C 0.38799 0.55438 0.65471 0.0
H951 H 0.29885 0.6083 0.66732 0.0
H952 H 0.33764 0.6081 0.6597 0.0
H953 H 0.30998 0.60412 0.63263 0.0
H954 H 0.34336 0.57851 0.60624 0.0
H955 H 0.39044 0.58714 0.58146 0.0
H956 H 0.97718 0.87204 0.92278 0.0
H957 H 0.98751 0.82821 0.94679 0.0
H958 H 0.90508 0.82277 0.99088 0.0
H959 H 0.89393 0.86615 0.9663 0.0
H960 H 0.9583 0.81862 0.02435 0.0
H961 H 0.94381 0.74097 0.93605 0.0
H962 H 0.96744 0.7758 0.92962 0.0
H963 H 0.92849 0.77483 0.93638 0.0
C964 C 0.96083 0.86127 0.93711 0.0
C965 C 0.93454 0.87272 0.94233 0.0
C966 C 0.96691 0.83624 0.95098 0.0
C967 C 0.94697 0.82205 0.9705 0.0
C968 C 0.92079 0.83335 0.9759 0.0
H969 H 0.97355 0.65043 0.03776 0.0
H970 H 0.9475 0.69101 0.02433 0.0
C971 C 0.91454 0.85827 0.96187 0.0
C972 C 0.95395 0.79582 0.98555 0.0
H973 H 0.96777 0.72563 0.97581 0.0
C974 C 0.96003 0.79815 0.01382 0.0
C975 C 0.95581 0.76897 0.97192 0.0
C976 C 0.9483 0.76475 0.94186 0.0
C977 C 0.96935 0.77485 0.02847 0.0
C978 C 0.97272 0.74862 0.01449 0.0
C979 C 0.96525 0.74577 0.98653 0.0
C980 C 0.98666 0.725 0.02764 0.0
C981 C 0.97597 0.77856 0.05871 0.0
C982 C 0.01708 0.73074 0.03474 0.0
C983 C 0.03198 0.70764 0.04221 0.0
C984 C 0.01674 0.6783 0.04298 0.0
C985 C 0.98581 0.67282 0.03776 0.0
C986 C 0.97095 0.69597 0.02987 0.0
H987 H 0.96526 0.79635 0.06774 0.0
H988 H 0.96818 0.7576 0.06982 0.0
H989 H 1.00045 0.78454 0.0619 0.0
H990 H 0.02976 0.75285 0.03285 0.0
H991 H 0.05584 0.71253 0.04597 0.0
H992 H 0.45756 0.71862 0.12116 0.0
H993 H 0.46112 0.76875 0.10324 0.0
H994 H 0.37348 0.77343 0.13425 0.0
H995 H 0.37054 0.72429 0.1539 0.0
H996 H 0.42745 0.79423 0.06634 0.0
H997 H 0.42269 0.84489 0.16953 0.0
H998 H 0.42729 0.80696 0.16498 0.0
H999 H 0.39109 0.81732 0.16076 0.0
C1000 C 0.43919 0.73042 0.12452 0.0
C1001 C 0.4139 0.71741 0.13926 0.0
C1002 C 0.44109 0.75894 0.11393 0.0
C1003 C 0.41773 0.77498 0.11773 0.0
C1004 C 0.39201 0.7617 0.13152 0.0
H1005 H 0.44113 0.96684 0.09357 0.0
H1006 H 0.41208 0.9164 0.09168 0.0
C1007 C 0.39025 0.73337 0.14245 0.0
C1008 C 0.42109 0.80605 0.10836 0.0
H1009 H 0.42843 0.87693 0.13206 0.0
C1010 C 0.42727 0.81231 0.08064 0.0
C1011 C 0.42061 0.82964 0.12701 0.0
C1012 C 0.41532 0.8245 0.15726 0.0
C1013 C 0.43439 0.84157 0.07135 0.0
C1014 C 0.43539 0.86502 0.09027 0.0
C1015 C 0.42731 0.85882 0.11756 0.0
C1016 C 0.4504 0.89537 0.08395 0.0
C1017 C 0.44192 0.8472 0.0416 0.0
C1018 C 0.48126 0.90015 0.07945 0.0
C1019 C 0.49773 0.92858 0.08107 0.0
C1020 C 0.48357 0.95273 0.08684 0.0
C1021 C 0.45236 0.94843 0.08892 0.0
C1022 C 0.43584 0.91975 0.08784 0.0
H1023 H 0.43085 0.8287 0.02843 0.0
H1024 H 0.4352 0.86811 0.03448 0.0
H1025 H 0.4664 0.84907 0.039 0.0
H1026 H 0.49302 0.88167 0.07697 0.0
H1027 H 0.52181 0.9315 0.07943 0.0
H1028 H 0.0849 0.37425 0.60546 0.0
H1029 H 0.08175 0.33022 0.57673 0.0
H1030 H 0.1769 0.33397 0.58457 0.0
H1031 H 0.18005 0.37717 0.61451 0.0
H1032 H 0.10776 0.31203 0.52888 0.0
H1033 H 0.14342 0.25649 0.6221 0.0
H1034 H 0.1339 0.29301 0.62353 0.0
H1035 H 0.16887 0.28757 0.60924 0.0
C1036 C 0.10523 0.36592 0.60083 0.0
C1037 C 0.13259 0.37881 0.61283 0.0
C1038 C 0.10345 0.34092 0.58417 0.0
C1039 C 0.129 0.32843 0.57905 0.0
C1040 C 0.15682 0.34293 0.58873 0.0
H1041 H 0.09151 0.13757 0.54915 0.0
H1042 H 0.12326 0.18632 0.54449 0.0
C1043 C 0.1586 0.36782 0.60563 0.0
C1044 C 0.12539 0.29836 0.56697 0.0
H1045 H 0.12323 0.22651 0.58594 0.0
C1046 C 0.1118 0.29333 0.54105 0.0
C1047 C 0.13094 0.27395 0.58276 0.0
C1048 C 0.14491 0.27781 0.61101 0.0
C1049 C 0.10164 0.26449 0.53143 0.0
C1050 C 0.10476 0.24021 0.54833 0.0
C1051 C 0.12086 0.24519 0.57301 0.0
C1052 C 0.08637 0.21063 0.54413 0.0
C1053 C 0.0863 0.26029 0.50386 0.0
C1054 C 0.05519 0.20812 0.54491 0.0
C1055 C 0.03725 0.18056 0.54781 0.0
C1056 C 0.05006 0.1549 0.5499 0.0
C1057 C 0.08112 0.15706 0.54737 0.0
C1058 C 0.09922 0.18483 0.54469 0.0
H1059 H 0.09567 0.27824 0.48958 0.0
H1060 H 0.08847 0.23863 0.49459 0.0
H1061 H 0.06222 0.26119 0.50632 0.0
H1062 H 0.04477 0.22767 0.54524 0.0
H1063 H 0.01334 0.17947 0.54965 0.0
H1064 H 0.55441 0.24814 0.5265 0.0
H1065 H 0.54439 0.29705 0.53903 0.0
H1066 H 0.6346 0.33547 0.51804 0.0
H1067 H 0.64464 0.28631 0.5051 0.0
H1068 H 0.57268 0.33237 0.58016 0.0
H1069 H 0.58646 0.39142 0.48051 0.0
H1070 H 0.58241 0.3517 0.48289 0.0
H1071 H 0.61748 0.3745 0.49132 0.0
C1072 C 0.572 0.26707 0.52416 0.0
C1073 C 0.60033 0.26337 0.51482 0.0
C1074 C 0.56627 0.29502 0.53141 0.0
C1075 C 0.58868 0.32004 0.52948 0.0
C1076 C 0.61678 0.31662 0.51932 0.0
H1077 H 0.56889 0.50294 0.57273 0.0
H1078 H 0.59292 0.45945 0.5652 0.0
C1079 C 0.6225 0.28854 0.51188 0.0
C1080 C 0.58266 0.34916 0.53949 0.0
H1081 H 0.57569 0.41888 0.51891 0.0
C1082 C 0.57355 0.35133 0.56677 0.0
C1083 C 0.58405 0.37405 0.52217 0.0
C1084 C 0.59289 0.37291 0.49253 0.0
C1085 C 0.56501 0.37731 0.57692 0.0
C1086 C 0.56529 0.40175 0.55932 0.0
C1087 C 0.57559 0.40011 0.5324 0.0
C1088 C 0.55189 0.42784 0.56744 0.0
C1089 C 0.5553 0.37831 0.60633 0.0
C1090 C 0.52102 0.42445 0.57173 0.0
C1091 C 0.50732 0.44912 0.57588 0.0
C1092 C 0.5242 0.47778 0.57602 0.0
C1093 C 0.55536 0.48112 0.57309 0.0
C1094 C 0.56907 0.45633 0.56859 0.0
H1095 H 0.56397 0.36148 0.61899 0.0
H1096 H 0.563 0.40051 0.61546 0.0
H1097 H 0.53055 0.37367 0.60711 0.0
H1098 H 0.50727 0.40275 0.57061 0.0
H1099 H 0.48326 0.44585 0.57793 0.0
loop_
_geom_bond_atom_site_label_1
_geom_bond_atom_site_label_2
_geom_bond_distance
_geom_bond_site_symmetry_2
_ccdc_geom_bond_type
H0 C1 0.949 . S
C1 H0 0.949 . S
C1 C2 1.395 . S
C1 C3 1.391 . S
C2 C1 1.395 . S
C2 C5 1.390 . S
C3 C1 1.391 . S
C3 C7 1.387 . S
C3 C8 1.491 . S
H4 C5 0.950 . S
C5 C2 1.390 . S
C5 H4 0.950 . S
C5 C6 1.378 . S
C6 C5 1.378 . S
C6 C7 1.409 . S
C7 C3 1.387 . S
C7 C6 1.409 . S
C7 H9 0.951 . S
C8 C3 1.491 . S
C8 C10 1.382 . S
C8 C12 1.404 . S
H9 C7 0.951 . S
C10 C8 1.382 . S
C10 C11 1.390 . S
C10 H15 0.949 . S
C11 C10 1.390 . S
C11 C16 1.399 . S
C12 C8 1.404 . S
C12 H13 0.950 . S
C12 C14 1.375 . S
H13 C12 0.950 . S
C14 C12 1.375 . S
C14 C16 1.382 . S
C14 H18 0.950 . S
H15 C10 0.949 . S
C16 C11 1.399 . S
C16 C14 1.382 . S
C16 H17 0.952 . S
H17 C16 0.952 . S
H18 C14 0.950 . S
H19 C20 0.949 . S
C20 H19 0.949 . S
C20 C21 1.395 . S
C20 C22 1.391 . S
C21 C20 1.395 . S
C21 C24 1.390 . S
C22 C20 1.391 . S
C22 C26 1.387 . S
C22 C27 1.491 . S
H23 C24 0.950 . S
C24 C21 1.390 . S
C24 H23 0.950 . S
C24 C25 1.378 . S
C25 C24 1.378 . S
C25 C26 1.409 . S
C26 C22 1.387 . S
C26 C25 1.409 . S
C26 H28 0.951 . S
C27 C22 1.491 . S
C27 C29 1.382 . S
C27 C31 1.404 . S
H28 C26 0.951 . S
C29 C27 1.382 . S
C29 C30 1.390 . S
C29 H34 0.949 . S
C30 C29 1.390 . S
C30 C35 1.399 . S
C31 C27 1.404 . S
C31 H32 0.950 . S
C31 C33 1.375 . S
H32 C31 0.950 . S
C33 C31 1.375 . S
C33 C35 1.382 . S
C33 H37 0.950 . S
H34 C29 0.949 . S
C35 C30 1.399 . S
C35 C33 1.382 . S
C35 H36 0.952 . S
H36 C35 0.952 . S
H37 C33 0.950 . S
H38 C39 0.949 . S
C39 H38 0.949 . S
C39 C40 1.395 . S
C39 C41 1.391 . S
C40 C39 1.395 . S
C40 C43 1.390 . S
C41 C39 1.391 . S
C41 C45 1.387 . S
C41 C46 1.491 . S
H42 C43 0.950 . S
C43 C40 1.390 . S
C43 H42 0.950 . S
C43 C44 1.378 . S
C44 C43 1.378 . S
C44 C45 1.409 . S
C45 C41 1.387 . S
C45 C44 1.409 . S
C45 H47 0.951 . S
C46 C41 1.491 . S
C46 C48 1.382 . S
C46 C50 1.404 . S
H47 C45 0.951 . S
C48 C46 1.382 . S
C48 C49 1.390 . S
C48 H53 0.949 . S
C49 C48 1.390 . S
C49 C54 1.399 . S
C50 C46 1.404 . S
C50 H51 0.950 . S
C50 C52 1.375 . S
H51 C50 0.950 . S
C52 C50 1.375 . S
C52 C54 1.382 . S
C52 H56 0.950 . S
H53 C48 0.949 . S
C54 C49 1.399 . S
C54 C52 1.382 . S
C54 H55 0.952 . S
H55 C54 0.952 . S
H56 C52 0.950 . S
H57 C58 0.949 . S
C58 H57 0.949 . S
C58 C59 1.395 . S
C58 C60 1.391 . S
C59 C58 1.395 . S
C59 C62 1.390 . S
C60 C58 1.391 . S
C60 C64 1.387 . S
C60 C65 1.491 . S
H61 C62 0.950 . S
C62 C59 1.390 . S
C62 H61 0.950 . S
C62 C63 1.378 . S
C63 C62 1.378 . S
C63 C64 1.409 . S
C64 C60 1.387 . S
C64 C63 1.409 . S
C64 H66 0.951 . S
C65 C60 1.491 . S
C65 C67 1.382 . S
C65 C69 1.404 . S
H66 C64 0.951 . S
C67 C65 1.382 . S
C67 C68 1.390 . S
C67 H72 0.949 . S
C68 C67 1.390 . S
C68 C73 1.399 . S
C69 C65 1.404 . S
C69 H70 0.950 . S
C69 C71 1.375 . S
H70 C69 0.950 . S
C71 C69 1.375 . S
C71 C73 1.382 . S
C71 H75 0.950 . S
H72 C67 0.949 . S
C73 C68 1.399 . S
C73 C71 1.382 . S
C73 H74 0.952 . S
H74 C73 0.952 . S
H75 C71 0.950 . S
H76 C77 0.949 . S
C77 H76 0.949 . S
C77 C78 1.395 . S
C77 C79 1.391 . S
C78 C77 1.395 . S
C78 C81 1.390 . S
C79 C77 1.391 . S
C79 C83 1.381 1_565 S
C79 C84 1.491 . S
H80 C81 0.950 . S
C81 C78 1.390 . S
C81 H80 0.950 . S
C81 C82 1.378 . S
C82 C81 1.378 . S
C82 C83 1.398 1_565 S
C83 C79 1.381 1_545 S
C83 C82 1.398 1_545 S
C83 H85 0.969 . S
C84 C79 1.491 . S
C84 C86 1.382 1_565 S
C84 C88 1.404 1_565 S
H85 C83 0.969 . S
C86 C84 1.382 1_545 S
C86 C87 1.390 . S
C86 H91 0.935 1_556 S
C87 C86 1.390 . S
C87 C92 1.399 . S
C88 C84 1.404 1_545 S
C88 H89 0.950 1_545 S
C88 C90 1.375 . S
H89 C88 0.950 1_565 S
C90 C88 1.375 . S
C90 C92 1.382 . S
C90 H94 0.950 . S
H91 C86 0.935 1_554 S
C92 C87 1.399 . S
C92 C90 1.382 . S
C92 H93 0.952 . S
H93 C92 0.952 . S
H94 C90 0.950 . S
H95 C96 0.949 . S
C96 H95 0.949 . S
C96 C97 1.395 . S
C96 C98 1.391 . S
C97 C96 1.395 . S
C97 C100 1.390 . S
C98 C96 1.391 . S
C98 C102 1.387 . S
C98 C103 1.491 . S
H99 C100 0.950 . S
C100 C97 1.390 . S
C100 H99 0.950 . S
C100 C101 1.378 . S
C101 C100 1.378 . S
C101 C102 1.409 . S
C102 C98 1.387 . S
C102 C101 1.409 . S
C102 H104 0.951 . S
C103 C98 1.491 . S
C103 C105 1.382 . S
C103 C107 1.404 . S
H104 C102 0.951 . S
C105 C103 1.382 . S
C105 C106 1.390 . S
C105 H110 0.949 . S
C106 C105 1.390 . S
C106 C111 1.399 . S
C107 C103 1.404 . S
C107 H108 0.950 . S
C107 C109 1.375 . S
H108 C107 0.950 . S
C109 C107 1.375 . S
C109 C111 1.382 . S
C109 H113 0.950 . S
H110 C105 0.949 . S
C111 C106 1.399 . S
C111 C109 1.382 . S
C111 H112 0.952 . S
H112 C111 0.952 . S
H113 C109 0.950 . S
H114 C115 0.949 . S
C115 H114 0.949 . S
C115 C116 1.395 . S
C115 C117 1.391 . S
C116 C115 1.395 . S
C116 C119 1.390 . S
C117 C115 1.391 . S
C117 C121 1.387 . S
C117 C122 1.491 . S
H118 C119 0.950 . S
C119 C116 1.390 . S
C119 H118 0.950 . S
C119 C120 1.378 . S
C120 C119 1.378 . S
C120 C121 1.409 . S
C121 C117 1.387 . S
C121 C120 1.409 . S
C121 H123 0.951 . S
C122 C117 1.491 . S
C122 C124 1.382 . S
C122 C126 1.404 . S
H123 C121 0.951 . S
C124 C122 1.382 . S
C124 C125 1.390 . S
C124 H129 0.949 . S
C125 C124 1.390 . S
C125 C130 1.399 . S
C126 C122 1.404 . S
C126 H127 0.950 . S
C126 C128 1.375 . S
H127 C126 0.950 . S
C128 C126 1.375 . S
C128 C130 1.382 . S
C128 H132 0.950 . S
H129 C124 0.949 . S
C130 C125 1.399 . S
C130 C128 1.382 . S
C130 H131 0.952 . S
H131 C130 0.952 . S
H132 C128 0.950 . S
H133 C134 0.949 . S
C134 H133 0.949 . S
C134 C135 1.395 . S
C134 C136 1.391 . S
C135 C134 1.395 . S
C135 C138 1.390 . S
C136 C134 1.391 . S
C136 C140 1.387 . S
C136 C141 1.491 . S
H137 C138 0.950 . S
C138 C135 1.390 . S
C138 H137 0.950 . S
C138 C139 1.378 . S
C139 C138 1.378 . S
C139 C140 1.409 . S
C140 C136 1.387 . S
C140 C139 1.409 . S
C140 H142 0.951 . S
C141 C136 1.491 . S
C141 C143 1.382 . S
C141 C145 1.404 . S
H142 C140 0.951 . S
C143 C141 1.382 . S
C143 C144 1.390 . S
C143 H148 0.949 . S
C144 C143 1.390 . S
C144 C149 1.399 . S
C145 C141 1.404 . S
C145 H146 0.950 . S
C145 C147 1.375 . S
H146 C145 0.950 . S
C147 C145 1.375 . S
C147 C149 1.382 . S
C147 H151 0.950 . S
H148 C143 0.949 . S
C149 C144 1.399 . S
C149 C147 1.382 . S
C149 H150 0.952 . S
H150 C149 0.952 . S
H151 C147 0.950 . S
Zn152 O158 1.920 . S
Zn152 O164 1.898 . S
Zn152 O167 1.905 . S
Zn153 O161 1.905 . S
Zn153 O162 1.898 1_545 S
Zn153 O170 1.920 . S
Zn154 O157 2.080 1_455 S
Zn154 O160 2.114 . S
Zn154 O163 2.120 1_455 S
Zn154 O165 2.120 . S
Zn154 O166 2.114 1_455 S
Zn154 O169 2.080 . S
C155 O160 1.166 . S
C155 O161 1.182 . S
C156 O162 1.167 1_655 S
C156 O163 1.299 1_565 S
O157 Zn154 2.080 1_655 S
O157 C171 1.305 . S
O158 Zn152 1.920 . S
O158 C171 1.234 . S
C159 O164 1.167 1_455 S
C159 O165 1.299 . S
O160 Zn154 2.114 . S
O160 C155 1.166 . S
O161 Zn153 1.905 . S
O161 C155 1.182 . S
O162 Zn153 1.898 1_565 S
O162 C156 1.167 1_455 S
O163 Zn154 2.120 1_655 S
O163 C156 1.299 1_545 S
O164 Zn152 1.898 . S
O164 C159 1.167 1_655 S
O165 Zn154 2.120 . S
O165 C159 1.299 . S
O166 Zn154 2.114 1_655 S
O166 C168 1.166 . S
O167 Zn152 1.905 . S
O167 C168 1.182 . S
C168 O166 1.166 . S
C168 O167 1.182 . S
O169 Zn154 2.080 . S
O169 C172 1.305 . S
O170 Zn153 1.920 . S
O170 C172 1.234 . S
C171 O157 1.305 . S
C171 O158 1.234 . S
C172 O169 1.305 . S
C172 O170 1.234 . S
Zn173 O179 1.920 . S
Zn173 O185 1.898 . S
Zn173 O188 1.905 . S
Zn174 O182 1.905 1_565 S
Zn174 O183 1.898 . S
Zn174 O191 1.920 1_565 S
Zn175 O178 2.080 . S
Zn175 O181 2.114 . S
Zn175 O184 2.120 1_545 S
Zn175 O186 2.120 . S
Zn175 O187 2.114 . S
Zn175 O190 2.080 . S
C176 O181 1.166 . S
C176 O182 1.182 . S
C177 O183 1.167 . S
C177 O184 1.299 . S
O178 Zn175 2.080 . S
O178 C192 1.305 . S
O179 Zn173 1.920 . S
O179 C192 1.234 . S
C180 O185 1.167 . S
C180 O186 1.299 . S
O181 Zn175 2.114 . S
O181 C176 1.166 . S
O182 Zn174 1.905 1_545 S
O182 C176 1.182 . S
O183 Zn174 1.898 . S
O183 C177 1.167 . S
O184 Zn175 2.120 1_565 S
O184 C177 1.299 . S
O185 Zn173 1.898 . S
O185 C180 1.167 . S
O186 Zn175 2.120 . S
O186 C180 1.299 . S
O187 Zn175 2.114 . S
O187 C189 1.166 . S
O188 Zn173 1.905 . S
O188 C189 1.182 . S
C189 O187 1.166 . S
C189 O188 1.182 . S
O190 Zn175 2.080 . S
O190 C193 1.305 . S
O191 Zn174 1.920 1_545 S
O191 C193 1.234 . S
C192 O178 1.305 . S
C192 O179 1.234 . S
C193 O190 1.305 . S
C193 O191 1.234 . S
Zn194 O200 1.920 . S
Zn194 O206 1.898 . S
Zn194 O209 1.905 . S
Zn195 O203 1.905 . S
Zn195 O204 1.898 . S
Zn195 O212 1.920 . S
Zn196 O199 2.080 . S
Zn196 O202 2.114 . S
Zn196 O205 2.120 . S
Zn196 O207 2.120 . S
Zn196 O208 2.114 . S
Zn196 O211 2.080 . S
C197 O202 1.166 . S
C197 O203 1.182 . S
C198 O204 1.167 . S
C198 O205 1.299 . S
O199 Zn196 2.080 . S
O199 C213 1.305 . S
O200 Zn194 1.920 . S
O200 C213 1.234 . S
C201 O206 1.167 . S
C201 O207 1.299 . S
O202 Zn196 2.114 . S
O202 C197 1.166 . S
O203 Zn195 1.905 . S
O203 C197 1.182 . S
O204 Zn195 1.898 . S
O204 C198 1.167 . S
O205 Zn196 2.120 . S
O205 C198 1.299 . S
O206 Zn194 1.898 . S
O206 C201 1.167 . S
O207 Zn196 2.120 . S
O207 C201 1.299 . S
O208 Zn196 2.114 . S
O208 C210 1.166 . S
O209 Zn194 1.905 . S
O209 C210 1.182 . S
C210 O208 1.166 . S
C210 O209 1.182 . S
O211 Zn196 2.080 . S
O211 C214 1.305 . S
O212 Zn195 1.920 . S
O212 C214 1.234 . S
C213 O199 1.305 . S
C213 O200 1.234 . S
C214 O211 1.305 . S
C214 O212 1.234 . S
Zn215 O221 1.920 . S
Zn215 O227 1.898 1_556 S
Zn215 O230 1.905 . S
Zn216 O224 1.905 1_655 S
Zn216 O225 1.898 . S
Zn216 O233 1.920 . S
Zn217 O220 2.080 . S
Zn217 O223 2.114 . S
Zn217 O226 2.120 1_455 S
Zn217 O228 2.120 . S
Zn217 O229 2.114 1_554 S
Zn217 O232 2.080 . S
C218 O223 1.166 . S
C218 O224 1.182 . S
C219 O225 1.167 . S
C219 O226 1.299 . S
O220 Zn217 2.080 . S
O220 C234 1.305 . S
O221 Zn215 1.920 . S
O221 C234 1.234 1_556 S
C222 O227 1.167 . S
C222 O228 1.299 . S
O223 Zn217 2.114 . S
O223 C218 1.166 . S
O224 Zn216 1.905 1_455 S
O224 C218 1.182 . S
O225 Zn216 1.898 . S
O225 C219 1.167 . S
O226 Zn217 2.120 1_655 S
O226 C219 1.299 . S
O227 Zn215 1.898 1_554 S
O227 C222 1.167 . S
O228 Zn217 2.120 . S
O228 C222 1.299 . S
O229 Zn217 2.114 1_556 S
O229 C231 1.166 . S
O230 Zn215 1.905 . S
O230 C231 1.182 . S
C231 O229 1.166 . S
C231 O230 1.182 . S
O232 Zn217 2.080 . S
O232 C235 1.305 1_455 S
O233 Zn216 1.920 . S
O233 C235 1.234 . S
C234 O220 1.305 . S
C234 O221 1.234 1_554 S
C235 O232 1.305 1_655 S
C235 O233 1.234 . S
H236 C244 0.929 . S
H237 C246 0.930 . S
H238 C248 0.930 . S
H239 C251 0.929 . S
H240 C254 0.930 . S
H241 C256 0.960 . S
H242 C256 0.960 . S
H243 C256 0.960 . S
C244 H236 0.929 . S
C244 C245 1.377 . S
C244 C246 1.384 . S
C245 C244 1.377 . S
C245 C251 1.390 . S
C246 H237 0.930 . S
C246 C244 1.384 . S
C246 C247 1.372 . S
C247 C246 1.372 . S
C247 C248 1.400 . S
C247 C252 1.490 . S
C248 H238 0.930 . S
C248 C247 1.400 . S
C248 C251 1.386 . S
H249 C265 0.930 . S
H250 C266 0.931 . S
C251 H239 0.929 . S
C251 C245 1.390 . S
C251 C248 1.386 . S
C252 C247 1.490 . S
C252 C254 1.395 . S
C252 C255 1.403 . S
H253 C259 0.930 . S
C254 H240 0.930 . S
C254 C252 1.395 . S
C254 C257 1.403 . S
C255 C252 1.403 . S
C255 C256 1.524 . S
C255 C259 1.400 . S
C256 H241 0.960 . S
C256 H242 0.960 . S
C256 H243 0.960 . S
C256 C255 1.524 . S
C257 C254 1.403 . S
C257 C258 1.392 . S
C257 C261 1.495 . S
C258 C257 1.392 . S
C258 C259 1.385 . S
C258 C260 1.478 . S
C259 H253 0.930 . S
C259 C255 1.400 . S
C259 C258 1.385 . S
C260 C258 1.478 . S
C260 C262 1.381 . S
C260 C266 1.383 . S
C261 C257 1.495 . S
C261 H267 0.959 . S
C261 H268 0.961 . S
C261 H269 0.960 . S
C262 C260 1.381 . S
C262 C263 1.394 . S
C262 H270 0.930 . S
C263 C262 1.394 . S
C263 C264 1.383 . S
C263 H271 0.929 . S
C264 C263 1.383 . S
C264 C265 1.377 . S
C265 H249 0.930 . S
C265 C264 1.377 . S
C265 C266 1.379 . S
C266 H250 0.931 . S
C266 C260 1.383 . S
C266 C265 1.379 . S
H267 C261 0.959 . S
H268 C261 0.961 . S
H269 C261 0.960 . S
H270 C262 0.930 . S
H271 C263 0.929 . S
H272 C280 0.929 . S
H273 C282 0.930 . S
H274 C284 0.930 . S
H275 C287 0.929 . S
H276 C290 0.930 . S
H277 C292 0.960 . S
H278 C292 0.960 . S
H279 C292 0.960 . S
C280 H272 0.929 . S
C280 C281 1.377 . S
C280 C282 1.384 . S
C281 C280 1.377 . S
C281 C287 1.390 . S
C282 H273 0.930 . S
C282 C280 1.384 . S
C282 C283 1.372 . S
C283 C282 1.372 . S
C283 C284 1.400 . S
C283 C288 1.490 . S
C284 H274 0.930 . S
C284 C283 1.400 . S
C284 C287 1.386 . S
H285 C301 0.930 . S
H286 C302 0.931 1_545 S
C287 H275 0.929 . S
C287 C281 1.390 . S
C287 C284 1.386 . S
C288 C283 1.490 . S
C288 C290 1.395 . S
C288 C291 1.403 . S
H289 C295 0.930 . S
C290 H276 0.930 . S
C290 C288 1.395 . S
C290 C293 1.403 . S
C291 C288 1.403 . S
C291 C292 1.524 . S
C291 C295 1.400 . S
C292 H277 0.960 . S
C292 H278 0.960 . S
C292 H279 0.960 . S
C292 C291 1.524 . S
C293 C290 1.403 . S
C293 C294 1.392 . S
C293 C297 1.495 . S
C294 C293 1.392 . S
C294 C295 1.385 . S
C294 C296 1.478 . S
C295 H289 0.930 . S
C295 C291 1.400 . S
C295 C294 1.385 . S
C296 C294 1.478 . S
C296 C298 1.381 . S
C296 C302 1.383 . S
C297 C293 1.495 . S
C297 H303 0.959 . S
C297 H304 0.961 . S
C297 H305 0.960 . S
C298 C296 1.381 . S
C298 C299 1.364 1_556 S
C298 H306 0.930 . S
C299 C298 1.364 1_554 S
C299 C300 1.393 . S
C299 H307 0.951 . S
C300 C299 1.393 . S
C300 C301 1.377 1_564 S
C301 H285 0.930 . S
C301 C300 1.377 1_546 S
C301 C302 1.379 1_545 S
C302 H286 0.931 1_565 S
C302 C296 1.383 . S
C302 C301 1.379 1_565 S
H303 C297 0.959 . S
H304 C297 0.961 . S
H305 C297 0.960 . S
H306 C298 0.930 . S
H307 C299 0.951 . S
H308 C316 0.929 . S
H309 C318 0.930 . S
H310 C320 0.930 . S
H311 C323 0.929 . S
H312 C326 0.930 . S
H313 C328 0.960 . S
H314 C328 0.960 . S
H315 C328 0.960 . S
C316 H308 0.929 . S
C316 C317 1.377 . S
C316 C318 1.384 . S
C317 C316 1.377 . S
C317 C323 1.390 . S
C318 H309 0.930 . S
C318 C316 1.384 . S
C318 C319 1.372 . S
C319 C318 1.372 . S
C319 C320 1.400 . S
C319 C324 1.490 . S
C320 H310 0.930 . S
C320 C319 1.400 . S
C320 C323 1.386 . S
H321 C337 0.930 . S
H322 C338 0.931 . S
C323 H311 0.929 . S
C323 C317 1.390 . S
C323 C320 1.386 . S
C324 C319 1.490 . S
C324 C326 1.395 . S
C324 C327 1.403 . S
H325 C331 0.930 . S
C326 H312 0.930 . S
C326 C324 1.395 . S
C326 C329 1.403 . S
C327 C324 1.403 . S
C327 C328 1.524 . S
C327 C331 1.400 . S
C328 H313 0.960 . S
C328 H314 0.960 . S
C328 H315 0.960 . S
C328 C327 1.524 . S
C329 C326 1.403 . S
C329 C330 1.392 . S
C329 C333 1.495 . S
C330 C329 1.392 . S
C330 C331 1.385 . S
C330 C332 1.478 . S
C331 H325 0.930 . S
C331 C327 1.400 . S
C331 C330 1.385 . S
C332 C330 1.478 . S
C332 C334 1.381 . S
C332 C338 1.383 . S
C333 C329 1.495 . S
C333 H339 0.959 . S
C333 H340 0.961 . S
C333 H341 0.960 . S
C334 C332 1.381 . S
C334 C335 1.394 . S
C334 H342 0.930 . S
C335 C334 1.394 . S
C335 C336 1.383 . S
C335 H343 0.929 . S
C336 C335 1.383 . S
C336 C337 1.377 . S
C337 H321 0.930 . S
C337 C336 1.377 . S
C337 C338 1.379 . S
C338 H322 0.931 . S
C338 C332 1.383 . S
C338 C337 1.379 . S
H339 C333 0.959 . S
H340 C333 0.961 . S
H341 C333 0.960 . S
H342 C334 0.930 . S
H343 C335 0.929 . S
H344 C352 0.929 . S
H345 C354 0.930 . S
H346 C356 0.930 . S
H347 C359 0.929 . S
H348 C362 0.930 . S
H349 C364 0.960 . S
H350 C364 0.960 . S
H351 C364 0.960 . S
C352 H344 0.929 . S
C352 C353 1.377 . S
C352 C354 1.384 . S
C353 C352 1.377 . S
C353 C359 1.390 . S
C354 H345 0.930 . S
C354 C352 1.384 . S
C354 C355 1.372 . S
C355 C354 1.372 . S
C355 C356 1.400 . S
C355 C360 1.490 . S
C356 H346 0.930 . S
C356 C355 1.400 . S
C356 C359 1.386 . S
H357 C373 0.930 . S
H358 C374 0.931 . S
C359 H347 0.929 . S
C359 C353 1.390 . S
C359 C356 1.386 . S
C360 C355 1.490 . S
C360 C362 1.395 . S
C360 C363 1.403 . S
H361 C367 0.930 . S
C362 H348 0.930 . S
C362 C360 1.395 . S
C362 C365 1.403 . S
C363 C360 1.403 . S
C363 C364 1.524 . S
C363 C367 1.400 . S
C364 H349 0.960 . S
C364 H350 0.960 . S
C364 H351 0.960 . S
C364 C363 1.524 . S
C365 C362 1.403 . S
C365 C366 1.392 . S
C365 C369 1.495 . S
C366 C365 1.392 . S
C366 C367 1.385 . S
C366 C368 1.478 . S
C367 H361 0.930 . S
C367 C363 1.400 . S
C367 C366 1.385 . S
C368 C366 1.478 . S
C368 C370 1.381 . S
C368 C374 1.383 . S
C369 C365 1.495 . S
C369 H375 0.959 . S
C369 H376 0.961 . S
C369 H377 0.960 . S
C370 C368 1.381 . S
C370 C371 1.394 1_655 S
C370 H378 0.930 1_655 S
C371 C370 1.394 1_455 S
C371 C372 1.383 1_455 S
C371 H379 0.929 . S
C372 C371 1.383 1_655 S
C372 C373 1.377 . S
C373 H357 0.930 . S
C373 C372 1.377 . S
C373 C374 1.379 . S
C374 H358 0.931 . S
C374 C368 1.383 . S
C374 C373 1.379 . S
H375 C369 0.959 . S
H376 C369 0.961 . S
H377 C369 0.960 . S
H378 C370 0.930 1_455 S
H379 C371 0.929 . S
H380 C388 0.929 . S
H381 C390 0.930 . S
H382 C392 0.930 . S
H383 C395 0.929 . S
H384 C398 0.930 . S
H385 C400 0.960 . S
H386 C400 0.960 . S
H387 C400 0.960 . S
C388 H380 0.929 . S
C388 C389 1.377 . S
C388 C390 1.384 . S
C389 C388 1.377 . S
C389 C395 1.390 . S
C390 H381 0.930 . S
C390 C388 1.384 . S
C390 C391 1.372 . S
C391 C390 1.372 . S
C391 C392 1.400 . S
C391 C396 1.490 . S
C392 H382 0.930 . S
C392 C391 1.400 . S
C392 C395 1.386 . S
H393 C409 0.930 . S
H394 C410 0.931 . S
C395 H383 0.929 . S
C395 C389 1.390 . S
C395 C392 1.386 . S
C396 C391 1.490 . S
C396 C398 1.395 . S
C396 C399 1.403 . S
H397 C403 0.930 . S
C398 H384 0.930 . S
C398 C396 1.395 . S
C398 C401 1.403 . S
C399 C396 1.403 . S
C399 C400 1.524 . S
C399 C403 1.400 . S
C400 H385 0.960 . S
C400 H386 0.960 . S
C400 H387 0.960 . S
C400 C399 1.524 . S
C401 C398 1.403 . S
C401 C402 1.392 . S
C401 C405 1.495 . S
C402 C401 1.392 . S
C402 C403 1.385 . S
C402 C404 1.478 . S
C403 H397 0.930 . S
C403 C399 1.400 . S
C403 C402 1.385 . S
C404 C402 1.478 . S
C404 C406 1.381 . S
C404 C410 1.383 . S
C405 C401 1.495 . S
C405 H411 0.959 . S
C405 H412 0.961 . S
C405 H413 0.960 . S
C406 C404 1.381 . S
C406 C407 1.394 . S
C406 H414 0.930 . S
C407 C406 1.394 . S
C407 C408 1.383 . S
C407 H415 0.929 . S
C408 C407 1.383 . S
C408 C409 1.377 . S
C409 H393 0.930 . S
C409 C408 1.377 . S
C409 C410 1.379 . S
C410 H394 0.931 . S
C410 C404 1.383 . S
C410 C409 1.379 . S
H411 C405 0.959 . S
H412 C405 0.961 . S
H413 C405 0.960 . S
H414 C406 0.930 . S
H415 C407 0.929 . S
H416 C424 0.929 . S
H417 C426 0.930 . S
H418 C428 0.930 . S
H419 C431 0.929 . S
H420 C434 0.930 . S
H421 C436 0.960 . S
H422 C436 0.960 . S
H423 C436 0.960 . S
C424 H416 0.929 . S
C424 C425 1.377 . S
C424 C426 1.384 . S
C425 C424 1.377 . S
C425 C431 1.390 . S
C426 H417 0.930 . S
C426 C424 1.384 . S
C426 C427 1.372 . S
C427 C426 1.372 . S
C427 C428 1.400 . S
C427 C432 1.490 . S
C428 H418 0.930 . S
C428 C427 1.400 . S
C428 C431 1.386 . S
H429 C445 0.930 . S
H430 C446 0.931 . S
C431 H419 0.929 . S
C431 C425 1.390 . S
C431 C428 1.386 . S
C432 C427 1.490 . S
C432 C434 1.395 . S
C432 C435 1.403 . S
H433 C439 0.930 . S
C434 H420 0.930 . S
C434 C432 1.395 . S
C434 C437 1.403 . S
C435 C432 1.403 . S
C435 C436 1.524 . S
C435 C439 1.400 . S
C436 H421 0.960 . S
C436 H422 0.960 . S
C436 H423 0.960 . S
C436 C435 1.524 . S
C437 C434 1.403 . S
C437 C438 1.392 . S
C437 C441 1.495 . S
C438 C437 1.392 . S
C438 C439 1.385 . S
C438 C440 1.478 . S
C439 H433 0.930 . S
C439 C435 1.400 . S
C439 C438 1.385 . S
C440 C438 1.478 . S
C440 C442 1.381 . S
C440 C446 1.383 1_565 S
C441 C437 1.495 . S
C441 H447 0.959 . S
C441 H448 0.961 1_565 S
C441 H449 0.960 . S
C442 C440 1.381 . S
C442 C443 1.394 . S
C442 H450 0.930 . S
C443 C442 1.394 . S
C443 C444 1.383 1_565 S
C443 H451 0.929 . S
C444 C443 1.383 1_545 S
C444 C445 1.377 . S
C445 H429 0.930 . S
C445 C444 1.377 . S
C445 C446 1.379 . S
C446 H430 0.931 . S
C446 C440 1.383 1_545 S
C446 C445 1.379 . S
H447 C441 0.959 . S
H448 C441 0.961 1_545 S
H449 C441 0.960 . S
H450 C442 0.930 . S
H451 C443 0.929 . S
H452 C460 0.929 . S
H453 C462 0.930 . S
H454 C464 0.930 . S
H455 C467 0.929 . S
H456 C470 0.930 . S
H457 C472 0.960 . S
H458 C472 0.960 . S
H459 C472 0.960 . S
C460 H452 0.929 . S
C460 C461 1.377 . S
C460 C462 1.384 . S
C461 C460 1.377 . S
C461 C467 1.390 . S
C462 H453 0.930 . S
C462 C460 1.384 . S
C462 C463 1.372 . S
C463 C462 1.372 . S
C463 C464 1.400 . S
C463 C468 1.490 . S
C464 H454 0.930 . S
C464 C463 1.400 . S
C464 C467 1.386 . S
H465 C481 0.930 . S
H466 C482 0.931 . S
C467 H455 0.929 . S
C467 C461 1.390 . S
C467 C464 1.386 . S
C468 C463 1.490 . S
C468 C470 1.395 . S
C468 C471 1.403 . S
H469 C475 0.930 . S
C470 H456 0.930 . S
C470 C468 1.395 . S
C470 C473 1.403 . S
C471 C468 1.403 . S
C471 C472 1.524 . S
C471 C475 1.400 . S
C472 H457 0.960 . S
C472 H458 0.960 . S
C472 H459 0.960 . S
C472 C471 1.524 . S
C473 C470 1.403 . S
C473 C474 1.392 . S
C473 C477 1.495 . S
C474 C473 1.392 . S
C474 C475 1.385 . S
C474 C476 1.478 . S
C475 H469 0.930 . S
C475 C471 1.400 . S
C475 C474 1.385 . S
C476 C474 1.478 . S
C476 C478 1.381 . S
C476 C482 1.383 . S
C477 C473 1.495 . S
C477 H483 0.959 . S
C477 H484 0.961 . S
C477 H485 0.960 . S
C478 C476 1.381 . S
C478 C479 1.394 . S
C478 H486 0.930 . S
C479 C478 1.394 . S
C479 C480 1.383 . S
C479 H487 0.929 1_556 S
C480 C479 1.383 . S
C480 C481 1.377 . S
C481 H465 0.930 . S
C481 C480 1.377 . S
C481 C482 1.379 . S
C482 H466 0.931 . S
C482 C476 1.383 . S
C482 C481 1.379 . S
H483 C477 0.959 . S
H484 C477 0.961 . S
H485 C477 0.960 . S
H486 C478 0.930 . S
H487 C479 0.929 1_554 S
H488 C496 0.929 . S
H489 C498 0.930 . S
H490 C500 0.930 . S
H491 C503 0.929 . S
H492 C506 0.930 . S
H493 C508 0.960 . S
H494 C508 0.960 . S
H495 C508 0.960 . S
C496 H488 0.929 . S
C496 C497 1.377 . S
C496 C498 1.384 . S
C497 C496 1.377 . S
C497 C503 1.390 . S
C498 H489 0.930 . S
C498 C496 1.384 . S
C498 C499 1.372 . S
C499 C498 1.372 . S
C499 C500 1.400 . S
C499 C504 1.490 . S
C500 H490 0.930 . S
C500 C499 1.400 . S
C500 C503 1.386 . S
H501 C517 0.930 . S
H502 C518 0.931 . S
C503 H491 0.929 . S
C503 C497 1.390 . S
C503 C500 1.386 . S
C504 C499 1.490 . S
C504 C506 1.395 . S
C504 C507 1.403 . S
H505 C511 0.930 . S
C506 H492 0.930 . S
C506 C504 1.395 . S
C506 C509 1.403 . S
C507 C504 1.403 . S
C507 C508 1.524 . S
C507 C511 1.400 . S
C508 H493 0.960 . S
C508 H494 0.960 . S
C508 H495 0.960 . S
C508 C507 1.524 . S
C509 C506 1.403 . S
C509 C510 1.392 . S
C509 C513 1.495 . S
C510 C509 1.392 . S
C510 C511 1.385 . S
C510 C512 1.478 . S
C511 H505 0.930 . S
C511 C507 1.400 . S
C511 C510 1.385 . S
C512 C510 1.478 . S
C512 C514 1.381 . S
C512 C518 1.383 . S
C513 C509 1.495 . S
C513 H519 0.959 . S
C513 H520 0.961 . S
C513 H521 0.960 . S
C514 C512 1.381 . S
C514 C515 1.394 . S
C514 H522 0.930 . S
C515 C514 1.394 . S
C515 C516 1.383 . S
C515 H523 0.929 . S
C516 C515 1.383 . S
C516 C517 1.377 . S
C517 H501 0.930 . S
C517 C516 1.377 . S
C517 C518 1.379 . S
C518 H502 0.931 . S
C518 C512 1.383 . S
C518 C517 1.379 . S
H519 C513 0.959 . S
H520 C513 0.961 . S
H521 C513 0.960 . S
H522 C514 0.930 . S
H523 C515 0.929 . S
H524 C532 0.929 . S
H525 C534 0.930 . S
H526 C536 0.930 . S
H527 C539 0.929 . S
H528 C542 0.930 . S
H529 C544 0.960 . S
H530 C544 0.960 . S
H531 C544 0.960 . S
C532 H524 0.929 . S
C532 C533 1.377 . S
C532 C534 1.384 . S
C533 C532 1.377 . S
C533 C539 1.390 . S
C534 H525 0.930 . S
C534 C532 1.384 . S
C534 C535 1.372 . S
C535 C534 1.372 . S
C535 C536 1.400 . S
C535 C540 1.490 . S
C536 H526 0.930 . S
C536 C535 1.400 . S
C536 C539 1.386 . S
H537 C553 0.930 . S
H538 C554 0.931 . S
C539 H527 0.929 . S
C539 C533 1.390 . S
C539 C536 1.386 . S
C540 C535 1.490 . S
C540 C542 1.395 . S
C540 C543 1.403 . S
H541 C547 0.930 . S
C542 H528 0.930 . S
C542 C540 1.395 . S
C542 C545 1.403 . S
C543 C540 1.403 . S
C543 C544 1.524 . S
C543 C547 1.400 . S
C544 H529 0.960 . S
C544 H530 0.960 . S
C544 H531 0.960 . S
C544 C543 1.524 . S
C545 C542 1.403 . S
C545 C546 1.392 . S
C545 C549 1.495 . S
C546 C545 1.392 . S
C546 C547 1.385 . S
C546 C548 1.478 . S
C547 H541 0.930 . S
C547 C543 1.400 . S
C547 C546 1.385 . S
C548 C546 1.478 . S
C548 C550 1.381 . S
C548 C554 1.383 . S
C549 C545 1.495 . S
C549 H555 0.959 . S
C549 H556 0.961 . S
C549 H557 0.960 . S
C550 C548 1.381 . S
C550 C551 1.394 . S
C550 H558 0.930 . S
C551 C550 1.394 . S
C551 C552 1.383 . S
C551 H559 0.929 . S
C552 C551 1.383 . S
C552 C553 1.377 . S
C553 H537 0.930 . S
C553 C552 1.377 . S
C553 C554 1.379 . S
C554 H538 0.931 . S
C554 C548 1.383 . S
C554 C553 1.379 . S
H555 C549 0.959 . S
H556 C549 0.961 . S
H557 C549 0.960 . S
H558 C550 0.930 . S
H559 C551 0.929 . S
H560 C568 0.929 . S
H561 C570 0.930 . S
H562 C572 0.930 . S
H563 C575 0.929 . S
H564 C578 0.930 . S
H565 C580 0.960 . S
H566 C580 0.960 . S
H567 C580 0.960 . S
C568 H560 0.929 . S
C568 C569 1.377 . S
C568 C570 1.384 . S
C569 C568 1.377 . S
C569 C575 1.390 . S
C570 H561 0.930 . S
C570 C568 1.384 . S
C570 C571 1.372 . S
C571 C570 1.372 . S
C571 C572 1.400 . S
C571 C576 1.490 . S
C572 H562 0.930 . S
C572 C571 1.400 . S
C572 C575 1.386 . S
H573 C589 0.930 . S
H574 C590 0.931 . S
C575 H563 0.929 . S
C575 C569 1.390 . S
C575 C572 1.386 . S
C576 C571 1.490 . S
C576 C578 1.395 1_556 S
C576 C579 1.403 . S
H577 C583 0.930 . S
C578 H564 0.930 . S
C578 C576 1.395 1_554 S
C578 C581 1.403 . S
C579 C576 1.403 . S
C579 C580 1.524 . S
C579 C583 1.400 . S
C580 H565 0.960 . S
C580 H566 0.960 . S
C580 H567 0.960 . S
C580 C579 1.524 . S
C581 C578 1.403 . S
C581 C582 1.392 . S
C581 C585 1.495 . S
C582 C581 1.392 . S
C582 C583 1.385 1_554 S
C582 C584 1.478 . S
C583 H577 0.930 . S
C583 C579 1.400 . S
C583 C582 1.385 1_556 S
C584 C582 1.478 . S
C584 C586 1.381 . S
C584 C590 1.383 . S
C585 C581 1.495 . S
C585 H591 0.959 . S
C585 H592 0.961 . S
C585 H593 0.960 . S
C586 C584 1.381 . S
C586 C587 1.394 . S
C586 H594 0.930 . S
C587 C586 1.394 . S
C587 C588 1.383 . S
C587 H595 0.929 . S
C588 C587 1.383 . S
C588 C589 1.377 . S
C589 H573 0.930 . S
C589 C588 1.377 . S
C589 C590 1.379 . S
C590 H574 0.931 . S
C590 C584 1.383 . S
C590 C589 1.379 . S
H591 C585 0.959 . S
H592 C585 0.961 . S
H593 C585 0.960 . S
H594 C586 0.930 . S
H595 C587 0.929 . S
H596 C604 0.929 . S
H597 C606 0.930 . S
H598 C608 0.930 . S
H599 C611 0.929 . S
H600 C614 0.930 . S
H601 C616 0.960 . S
H602 C616 0.960 . S
H603 C616 0.960 . S
C604 H596 0.929 . S
C604 C605 1.377 . S
C604 C606 1.384 . S
C605 C604 1.377 . S
C605 C611 1.390 . S
C606 H597 0.930 . S
C606 C604 1.384 . S
C606 C607 1.372 . S
C607 C606 1.372 . S
C607 C608 1.400 . S
C607 C612 1.490 . S
C608 H598 0.930 . S
C608 C607 1.400 . S
C608 C611 1.386 . S
H609 C625 0.930 . S
H610 C626 0.931 . S
C611 H599 0.929 . S
C611 C605 1.390 . S
C611 C608 1.386 . S
C612 C607 1.490 . S
C612 C614 1.395 . S
C612 C615 1.403 . S
H613 C619 0.930 . S
C614 H600 0.930 . S
C614 C612 1.395 . S
C614 C617 1.403 . S
C615 C612 1.403 . S
C615 C616 1.524 . S
C615 C619 1.400 . S
C616 H601 0.960 . S
C616 H602 0.960 . S
C616 H603 0.960 . S
C616 C615 1.524 . S
C617 C614 1.403 . S
C617 C618 1.392 . S
C617 C621 1.495 . S
C618 C617 1.392 . S
C618 C619 1.385 . S
C618 C620 1.478 . S
C619 H613 0.930 . S
C619 C615 1.400 . S
C619 C618 1.385 . S
C620 C618 1.478 . S
C620 C622 1.381 . S
C620 C626 1.383 . S
C621 C617 1.495 . S
C621 H627 0.959 . S
C621 H628 0.961 . S
C621 H629 0.960 . S
C622 C620 1.381 . S
C622 C623 1.394 . S
C622 H630 0.930 . S
C623 C622 1.394 . S
C623 C624 1.383 . S
C623 H631 0.929 . S
C624 C623 1.383 . S
C624 C625 1.377 . S
C625 H609 0.930 . S
C625 C624 1.377 . S
C625 C626 1.379 . S
C626 H610 0.931 . S
C626 C620 1.383 . S
C626 C625 1.379 . S
H627 C621 0.959 . S
H628 C621 0.961 . S
H629 C621 0.960 . S
H630 C622 0.930 . S
H631 C623 0.929 . S
H632 C640 0.929 . S
H633 C642 0.930 . S
H634 C644 0.930 . S
H635 C647 0.929 . S
H636 C650 0.930 . S
H637 C652 0.960 . S
H638 C652 0.960 . S
H639 C652 0.960 . S
C640 H632 0.929 . S
C640 C641 1.377 . S
C640 C642 1.384 . S
C641 C640 1.377 . S
C641 C647 1.390 . S
C642 H633 0.930 . S
C642 C640 1.384 . S
C642 C643 1.372 . S
C643 C642 1.372 . S
C643 C644 1.400 . S
C643 C648 1.490 . S
C644 H634 0.930 . S
C644 C643 1.400 . S
C644 C647 1.386 . S
H645 C661 0.930 . S
H646 C662 0.931 . S
C647 H635 0.929 . S
C647 C641 1.390 . S
C647 C644 1.386 . S
C648 C643 1.490 . S
C648 C650 1.395 . S
C648 C651 1.403 . S
H649 C655 0.930 . S
C650 H636 0.930 . S
C650 C648 1.395 . S
C650 C653 1.403 . S
C651 C648 1.403 . S
C651 C652 1.524 . S
C651 C655 1.400 . S
C652 H637 0.960 . S
C652 H638 0.960 . S
C652 H639 0.960 . S
C652 C651 1.524 . S
C653 C650 1.403 . S
C653 C654 1.392 . S
C653 C657 1.495 . S
C654 C653 1.392 . S
C654 C655 1.385 . S
C654 C656 1.478 . S
C655 H649 0.930 . S
C655 C651 1.400 . S
C655 C654 1.385 . S
C656 C654 1.478 . S
C656 C658 1.381 . S
C656 C662 1.383 . S
C657 C653 1.495 . S
C657 H663 0.959 . S
C657 H664 0.961 . S
C657 H665 0.960 . S
C658 C656 1.381 . S
C658 C659 1.394 . S
C658 H666 0.930 . S
C659 C658 1.394 . S
C659 C660 1.383 . S
C659 H667 0.929 . S
C660 C659 1.383 . S
C660 C661 1.377 . S
C661 H645 0.930 . S
C661 C660 1.377 . S
C661 C662 1.379 . S
C662 H646 0.931 . S
C662 C656 1.383 . S
C662 C661 1.379 . S
H663 C657 0.959 . S
H664 C657 0.961 . S
H665 C657 0.960 . S
H666 C658 0.930 . S
H667 C659 0.929 . S
H668 C676 0.929 . S
H669 C678 0.930 . S
H670 C680 0.930 . S
H671 C683 0.929 . S
H672 C686 0.929 1_455 S
H673 C688 0.960 . S
H674 C688 0.960 . S
H675 C688 0.960 . S
C676 H668 0.929 . S
C676 C677 1.404 . S
C676 C678 1.384 . S
C677 C676 1.404 . S
C677 C683 1.367 1_545 S
C678 H669 0.930 . S
C678 C676 1.384 . S
C678 C679 1.372 . S
C679 C678 1.372 . S
C679 C680 1.400 1_545 S
C679 C684 1.490 . S
C680 H670 0.930 . S
C680 C679 1.400 1_565 S
C680 C683 1.386 . S
H681 C697 0.925 1_465 S
H682 C698 0.923 1_465 S
C683 H671 0.929 . S
C683 C677 1.367 1_565 S
C683 C680 1.386 . S
C684 C679 1.490 . S
C684 C686 1.396 . S
C684 C687 1.403 1_545 S
H685 C691 0.926 1_565 S
C686 H672 0.929 1_655 S
C686 C684 1.396 . S
C686 C689 1.403 1_655 S
C687 C684 1.403 1_565 S
C687 C688 1.524 . S
C687 C691 1.398 1_565 S
C688 H673 0.960 . S
C688 H674 0.960 . S
C688 H675 0.960 . S
C688 C687 1.524 . S
C689 C686 1.403 1_455 S
C689 C690 1.392 1_455 S
C689 C693 1.495 . S
C690 C689 1.392 1_655 S
C690 C691 1.391 . S
C690 C692 1.478 . S
C691 H685 0.926 1_545 S
C691 C687 1.398 1_545 S
C691 C690 1.391 . S
C692 C690 1.478 . S
C692 C694 1.381 . S
C692 C698 1.391 . S
C693 C689 1.495 . S
C693 H699 0.959 . S
C693 H700 0.961 . S
C693 H701 0.960 . S
C694 C692 1.381 . S
C694 C695 1.394 . S
C694 H702 0.930 . S
C695 C694 1.394 . S
C695 C696 1.383 . S
C695 H703 0.929 . S
C696 C695 1.383 . S
C696 C697 1.381 . S
C697 H681 0.925 1_645 S
C697 C696 1.381 . S
C697 C698 1.379 . S
C698 H682 0.923 1_645 S
C698 C692 1.391 . S
C698 C697 1.379 . S
H699 C693 0.959 . S
H700 C693 0.961 . S
H701 C693 0.960 . S
H702 C694 0.930 . S
H703 C695 0.929 . S
H704 C712 0.929 . S
H705 C714 0.930 . S
H706 C716 0.930 . S
H707 C719 0.929 . S
H708 C722 0.930 . S
H709 C724 0.960 . S
H710 C724 0.960 . S
H711 C724 0.960 . S
C712 H704 0.929 . S
C712 C713 1.377 . S
C712 C714 1.384 . S
C713 C712 1.377 . S
C713 C719 1.390 . S
C714 H705 0.930 . S
C714 C712 1.384 . S
C714 C715 1.372 . S
C715 C714 1.372 . S
C715 C716 1.400 . S
C715 C720 1.490 . S
C716 H706 0.930 . S
C716 C715 1.400 . S
C716 C719 1.386 . S
H717 C733 0.930 . S
H718 C734 0.931 . S
C719 H707 0.929 . S
C719 C713 1.390 . S
C719 C716 1.386 . S
C720 C715 1.490 . S
C720 C722 1.395 . S
C720 C723 1.403 . S
H721 C727 0.930 . S
C722 H708 0.930 . S
C722 C720 1.395 . S
C722 C725 1.403 . S
C723 C720 1.403 . S
C723 C724 1.524 . S
C723 C727 1.400 . S
C724 H709 0.960 . S
C724 H710 0.960 . S
C724 H711 0.960 . S
C724 C723 1.524 . S
C725 C722 1.403 . S
C725 C726 1.392 . S
C725 C729 1.495 . S
C726 C725 1.392 . S
C726 C727 1.385 . S
C726 C728 1.478 . S
C727 H721 0.930 . S
C727 C723 1.400 . S
C727 C726 1.385 . S
C728 C726 1.478 . S
C728 C730 1.381 . S
C728 C734 1.383 . S
C729 C725 1.495 . S
C729 H735 0.959 . S
C729 H736 0.961 . S
C729 H737 0.960 . S
C730 C728 1.381 . S
C730 C731 1.394 . S
C730 H738 0.930 . S
C731 C730 1.394 . S
C731 C732 1.383 . S
C731 H739 0.929 . S
C732 C731 1.383 . S
C732 C733 1.377 . S
C733 H717 0.930 . S
C733 C732 1.377 . S
C733 C734 1.379 . S
C734 H718 0.931 . S
C734 C728 1.383 . S
C734 C733 1.379 . S
H735 C729 0.959 . S
H736 C729 0.961 . S
H737 C729 0.960 . S
H738 C730 0.930 . S
H739 C731 0.929 . S
H740 C748 0.929 . S
H741 C750 0.930 . S
H742 C752 0.930 . S
H743 C755 0.929 . S
H744 C758 0.930 . S
H745 C760 0.960 . S
H746 C760 0.960 . S
H747 C760 0.960 . S
C748 H740 0.929 . S
C748 C749 1.377 . S
C748 C750 1.384 . S
C749 C748 1.377 . S
C749 C755 1.390 . S
C750 H741 0.930 . S
C750 C748 1.384 . S
C750 C751 1.372 . S
C751 C750 1.372 . S
C751 C752 1.400 . S
C751 C756 1.490 . S
C752 H742 0.930 . S
C752 C751 1.400 . S
C752 C755 1.386 . S
H753 C769 0.930 . S
H754 C770 0.931 . S
C755 H743 0.929 . S
C755 C749 1.390 . S
C755 C752 1.386 . S
C756 C751 1.490 . S
C756 C758 1.395 . S
C756 C759 1.403 . S
H757 C763 0.930 . S
C758 H744 0.930 . S
C758 C756 1.395 . S
C758 C761 1.403 . S
C759 C756 1.403 . S
C759 C760 1.524 . S
C759 C763 1.400 . S
C760 H745 0.960 . S
C760 H746 0.960 . S
C760 H747 0.960 . S
C760 C759 1.524 . S
C761 C758 1.403 . S
C761 C762 1.392 . S
C761 C765 1.495 . S
C762 C761 1.392 . S
C762 C763 1.385 . S
C762 C764 1.478 . S
C763 H757 0.930 . S
C763 C759 1.400 . S
C763 C762 1.385 . S
C764 C762 1.478 . S
C764 C766 1.381 . S
C764 C770 1.383 . S
C765 C761 1.495 . S
C765 H771 0.959 . S
C765 H772 0.961 . S
C765 H773 0.960 . S
C766 C764 1.381 . S
C766 C767 1.394 . S
C766 H774 0.930 . S
C767 C766 1.394 . S
C767 C768 1.383 . S
C767 H775 0.929 . S
C768 C767 1.383 . S
C768 C769 1.377 . S
C769 H753 0.930 . S
C769 C768 1.377 . S
C769 C770 1.379 . S
C770 H754 0.931 . S
C770 C764 1.383 . S
C770 C769 1.379 . S
H771 C765 0.959 . S
H772 C765 0.961 . S
H773 C765 0.960 . S
H774 C766 0.930 . S
H775 C767 0.929 . S
H776 C784 0.929 . S
H777 C786 0.930 . S
H778 C788 0.930 . S
H779 C791 0.929 . S
H780 C794 0.930 . S
H781 C796 0.960 . S
H782 C796 0.960 . S
H783 C796 0.960 . S
C784 H776 0.929 . S
C784 C785 1.377 . S
C784 C786 1.384 . S
C785 C784 1.377 . S
C785 C791 1.390 . S
C786 H777 0.930 . S
C786 C784 1.384 . S
C786 C787 1.372 . S
C787 C786 1.372 . S
C787 C788 1.400 . S
C787 C792 1.490 . S
C788 H778 0.930 . S
C788 C787 1.400 . S
C788 C791 1.386 . S
H789 C805 0.930 . S
H790 C806 0.931 . S
C791 H779 0.929 . S
C791 C785 1.390 . S
C791 C788 1.386 . S
C792 C787 1.490 . S
C792 C794 1.395 . S
C792 C795 1.403 . S
H793 C799 0.930 . S
C794 H780 0.930 . S
C794 C792 1.395 . S
C794 C797 1.403 . S
C795 C792 1.403 . S
C795 C796 1.524 . S
C795 C799 1.400 . S
C796 H781 0.960 . S
C796 H782 0.960 . S
C796 H783 0.960 . S
C796 C795 1.524 . S
C797 C794 1.403 . S
C797 C798 1.392 . S
C797 C801 1.495 . S
C798 C797 1.392 . S
C798 C799 1.385 . S
C798 C800 1.478 . S
C799 H793 0.930 . S
C799 C795 1.400 . S
C799 C798 1.385 . S
C800 C798 1.478 . S
C800 C802 1.381 . S
C800 C806 1.383 . S
C801 C797 1.495 . S
C801 H807 0.959 . S
C801 H808 0.961 . S
C801 H809 0.960 . S
C802 C800 1.381 . S
C802 C803 1.394 . S
C802 H810 0.930 . S
C803 C802 1.394 . S
C803 C804 1.383 . S
C803 H811 0.929 . S
C804 C803 1.383 . S
C804 C805 1.377 . S
C805 H789 0.930 . S
C805 C804 1.377 . S
C805 C806 1.379 . S
C806 H790 0.931 . S
C806 C800 1.383 . S
C806 C805 1.379 . S
H807 C801 0.959 . S
H808 C801 0.961 . S
H809 C801 0.960 . S
H810 C802 0.930 . S
H811 C803 0.929 . S
H812 C820 0.929 . S
H813 C822 0.930 1_556 S
H814 C824 0.930 . S
H815 C827 0.929 . S
H816 C830 0.930 . S
H817 C832 0.960 . S
H818 C832 0.960 . S
H819 C832 0.960 . S
C820 H812 0.929 . S
C820 C821 1.377 1_556 S
C820 C822 1.384 1_556 S
C821 C820 1.377 1_554 S
C821 C827 1.390 . S
C822 H813 0.930 1_554 S
C822 C820 1.384 1_554 S
C822 C823 1.372 . S
C823 C822 1.372 . S
C823 C824 1.400 . S
C823 C828 1.490 . S
C824 H814 0.930 . S
C824 C823 1.400 . S
C824 C827 1.386 . S
H825 C841 0.930 . S
H826 C842 0.931 . S
C827 H815 0.929 . S
C827 C821 1.390 . S
C827 C824 1.386 . S
C828 C823 1.490 . S
C828 C830 1.395 1_545 S
C828 C831 1.403 . S
H829 C835 0.930 . S
C830 H816 0.930 . S
C830 C828 1.395 1_565 S
C830 C833 1.403 . S
C831 C828 1.403 . S
C831 C832 1.524 . S
C831 C835 1.400 . S
C832 H817 0.960 . S
C832 H818 0.960 . S
C832 H819 0.960 . S
C832 C831 1.524 . S
C833 C830 1.403 . S
C833 C834 1.392 1_565 S
C833 C837 1.495 . S
C834 C833 1.392 1_545 S
C834 C835 1.385 . S
C834 C836 1.478 . S
C835 H829 0.930 . S
C835 C831 1.400 . S
C835 C834 1.385 . S
C836 C834 1.478 . S
C836 C838 1.381 . S
C836 C842 1.383 . S
C837 C833 1.495 . S
C837 H843 0.959 . S
C837 H844 0.961 . S
C837 H845 0.960 . S
C838 C836 1.381 . S
C838 C839 1.394 . S
C838 H846 0.930 . S
C839 C838 1.394 . S
C839 C840 1.383 . S
C839 H847 0.929 . S
C840 C839 1.383 . S
C840 C841 1.377 . S
C841 H825 0.930 . S
C841 C840 1.377 . S
C841 C842 1.379 . S
C842 H826 0.931 . S
C842 C836 1.383 . S
C842 C841 1.379 . S
H843 C837 0.959 . S
H844 C837 0.961 . S
H845 C837 0.960 . S
H846 C838 0.930 . S
H847 C839 0.929 . S
H848 C856 0.929 . S
H849 C858 0.930 . S
H850 C860 0.930 . S
H851 C863 0.929 . S
H852 C866 0.930 . S
H853 C868 0.960 . S
H854 C868 0.960 . S
H855 C868 0.960 . S
C856 H848 0.929 . S
C856 C857 1.377 . S
C856 C858 1.384 . S
C857 C856 1.377 . S
C857 C863 1.390 . S
C858 H849 0.930 . S
C858 C856 1.384 . S
C858 C859 1.372 . S
C859 C858 1.372 . S
C859 C860 1.400 . S
C859 C864 1.490 . S
C860 H850 0.930 . S
C860 C859 1.400 . S
C860 C863 1.386 . S
H861 C877 0.930 . S
H862 C878 0.931 . S
C863 H851 0.929 . S
C863 C857 1.390 . S
C863 C860 1.386 . S
C864 C859 1.490 . S
C864 C866 1.395 . S
C864 C867 1.403 . S
H865 C871 0.930 . S
C866 H852 0.930 . S
C866 C864 1.395 . S
C866 C869 1.403 . S
C867 C864 1.403 . S
C867 C868 1.524 . S
C867 C871 1.400 . S
C868 H853 0.960 . S
C868 H854 0.960 . S
C868 H855 0.960 . S
C868 C867 1.524 . S
C869 C866 1.403 . S
C869 C870 1.392 . S
C869 C873 1.495 . S
C870 C869 1.392 . S
C870 C871 1.385 . S
C870 C872 1.478 . S
C871 H865 0.930 . S
C871 C867 1.400 . S
C871 C870 1.385 . S
C872 C870 1.478 . S
C872 C874 1.381 . S
C872 C878 1.383 . S
C873 C869 1.495 . S
C873 H879 0.959 . S
C873 H880 0.961 . S
C873 H881 0.960 . S
C874 C872 1.381 . S
C874 C875 1.394 . S
C874 H882 0.930 . S
C875 C874 1.394 . S
C875 C876 1.383 . S
C875 H883 0.929 . S
C876 C875 1.383 . S
C876 C877 1.377 . S
C877 H861 0.930 . S
C877 C876 1.377 . S
C877 C878 1.379 . S
C878 H862 0.931 . S
C878 C872 1.383 . S
C878 C877 1.379 . S
H879 C873 0.959 . S
H880 C873 0.961 . S
H881 C873 0.960 . S
H882 C874 0.930 . S
H883 C875 0.929 . S
H884 C892 0.929 . S
H885 C894 0.930 . S
H886 C896 0.930 . S
H887 C899 0.929 . S
H888 C902 0.930 . S
H889 C904 0.960 . S
H890 C904 0.960 . S
H891 C904 0.960 . S
C892 H884 0.929 . S
C892 C893 1.377 . S
C892 C894 1.384 . S
C893 C892 1.377 . S
C893 C899 1.390 . S
C894 H885 0.930 . S
C894 C892 1.384 . S
C894 C895 1.372 . S
C895 C894 1.372 . S
C895 C896 1.400 . S
C895 C900 1.490 . S
C896 H886 0.930 . S
C896 C895 1.400 . S
C896 C899 1.386 . S
H897 C913 0.930 . S
H898 C914 0.931 . S
C899 H887 0.929 . S
C899 C893 1.390 . S
C899 C896 1.386 . S
C900 C895 1.490 . S
C900 C902 1.395 . S
C900 C903 1.403 . S
H901 C907 0.930 . S
C902 H888 0.930 . S
C902 C900 1.395 . S
C902 C905 1.403 . S
C903 C900 1.403 . S
C903 C904 1.524 . S
C903 C907 1.400 . S
C904 H889 0.960 . S
C904 H890 0.960 . S
C904 H891 0.960 . S
C904 C903 1.524 . S
C905 C902 1.403 . S
C905 C906 1.392 . S
C905 C909 1.495 . S
C906 C905 1.392 . S
C906 C907 1.385 . S
C906 C908 1.478 . S
C907 H901 0.930 . S
C907 C903 1.400 . S
C907 C906 1.385 . S
C908 C906 1.478 . S
C908 C910 1.381 . S
C908 C914 1.383 . S
C909 C905 1.495 . S
C909 H915 0.959 . S
C909 H916 0.961 . S
C909 H917 0.960 . S
C910 C908 1.381 . S
C910 C911 1.394 . S
C910 H918 0.930 . S
C911 C910 1.394 . S
C911 C912 1.383 . S
C911 H919 0.929 . S
C912 C911 1.383 . S
C912 C913 1.377 . S
C913 H897 0.930 . S
C913 C912 1.377 . S
C913 C914 1.379 . S
C914 H898 0.931 . S
C914 C908 1.383 . S
C914 C913 1.379 . S
H915 C909 0.959 . S
H916 C909 0.961 . S
H917 C909 0.960 . S
H918 C910 0.930 . S
H919 C911 0.929 . S
H920 C928 0.929 . S
H921 C930 0.930 . S
H922 C932 0.930 . S
H923 C935 0.929 . S
H924 C938 0.930 . S
H925 C940 0.960 . S
H926 C940 0.960 . S
H927 C940 0.960 . S
C928 H920 0.929 . S
C928 C929 1.377 . S
C928 C930 1.384 . S
C929 C928 1.377 . S
C929 C935 1.390 . S
C930 H921 0.930 . S
C930 C928 1.384 . S
C930 C931 1.372 . S
C931 C930 1.372 . S
C931 C932 1.400 . S
C931 C936 1.490 . S
C932 H922 0.930 . S
C932 C931 1.400 . S
C932 C935 1.386 . S
H933 C949 0.930 . S
H934 C950 0.931 . S
C935 H923 0.929 . S
C935 C929 1.390 . S
C935 C932 1.386 . S
C936 C931 1.490 . S
C936 C938 1.395 . S
C936 C939 1.403 . S
H937 C943 0.930 . S
C938 H924 0.930 . S
C938 C936 1.395 . S
C938 C941 1.403 . S
C939 C936 1.403 . S
C939 C940 1.524 . S
C939 C943 1.400 . S
C940 H925 0.960 . S
C940 H926 0.960 . S
C940 H927 0.960 . S
C940 C939 1.524 . S
C941 C938 1.403 . S
C941 C942 1.392 . S
C941 C945 1.495 . S
C942 C941 1.392 . S
C942 C943 1.385 . S
C942 C944 1.478 . S
C943 H937 0.930 . S
C943 C939 1.400 . S
C943 C942 1.385 . S
C944 C942 1.478 . S
C944 C946 1.381 . S
C944 C950 1.383 . S
C945 C941 1.495 . S
C945 H951 0.959 . S
C945 H952 0.961 . S
C945 H953 0.960 . S
C946 C944 1.381 . S
C946 C947 1.394 . S
C946 H954 0.930 . S
C947 C946 1.394 . S
C947 C948 1.383 . S
C947 H955 0.929 . S
C948 C947 1.383 . S
C948 C949 1.377 . S
C949 H933 0.930 . S
C949 C948 1.377 . S
C949 C950 1.379 . S
C950 H934 0.931 . S
C950 C944 1.383 . S
C950 C949 1.379 . S
H951 C945 0.959 . S
H952 C945 0.961 . S
H953 C945 0.960 . S
H954 C946 0.930 . S
H955 C947 0.929 . S
H956 C964 0.929 . S
H957 C966 0.930 . S
H958 C968 0.930 . S
H959 C971 0.929 . S
H960 C974 0.930 . S
H961 C976 0.960 . S
H962 C976 0.960 . S
H963 C976 0.960 . S
C964 H956 0.929 . S
C964 C965 1.377 1_455 S
C964 C966 1.384 . S
C965 C964 1.377 1_655 S
C965 C971 1.390 . S
C966 H957 0.930 . S
C966 C964 1.384 . S
C966 C967 1.372 1_455 S
C967 C966 1.372 1_655 S
C967 C968 1.400 . S
C967 C972 1.490 . S
C968 H958 0.930 . S
C968 C967 1.400 . S
C968 C971 1.386 . S
H969 C985 0.930 . S
H970 C986 0.931 . S
C971 H959 0.929 . S
C971 C965 1.390 . S
C971 C968 1.386 . S
C972 C967 1.490 . S
C972 C974 1.395 1_656 S
C972 C975 1.403 . S
H973 C979 0.930 . S
C974 H960 0.930 . S
C974 C972 1.395 1_454 S
C974 C977 1.403 . S
C975 C972 1.403 . S
C975 C976 1.524 . S
C975 C979 1.400 . S
C976 H961 0.960 . S
C976 H962 0.960 . S
C976 H963 0.960 . S
C976 C975 1.524 . S
C977 C974 1.403 . S
C977 C978 1.392 1_554 S
C977 C981 1.495 . S
C978 C977 1.392 1_556 S
C978 C979 1.385 1_455 S
C978 C980 1.478 1_556 S
C979 H973 0.930 . S
C979 C975 1.400 . S
C979 C978 1.385 1_655 S
C980 C978 1.478 1_554 S
C980 C982 1.378 1_554 S
C980 C986 1.383 1_455 S
C981 C977 1.495 . S
C981 H987 0.959 . S
C981 H988 0.961 . S
C981 H989 0.960 . S
C982 C980 1.378 1_556 S
C982 C983 1.391 1_556 S
C982 H990 0.938 . S
C983 C982 1.391 1_554 S
C983 C984 1.383 . S
C983 H991 0.929 1_554 S
C984 C983 1.383 . S
C984 C985 1.377 1_455 S
C985 H969 0.930 . S
C985 C984 1.377 1_655 S
C985 C986 1.379 . S
C986 H970 0.931 . S
C986 C980 1.383 1_655 S
C986 C985 1.379 . S
H987 C981 0.959 . S
H988 C981 0.961 . S
H989 C981 0.960 . S
H990 C982 0.938 . S
H991 C983 0.929 1_556 S
H992 C1000 0.929 . S
H993 C1002 0.930 . S
H994 C1004 0.930 . S
H995 C1007 0.929 . S
H996 C1010 0.930 . S
H997 C1012 0.960 . S
H998 C1012 0.960 . S
H999 C1012 0.960 . S
C1000 H992 0.929 . S
C1000 C1001 1.377 . S
C1000 C1002 1.384 . S
C1001 C1000 1.377 . S
C1001 C1007 1.390 . S
C1002 H993 0.930 . S
C1002 C1000 1.384 . S
C1002 C1003 1.372 . S
C1003 C1002 1.372 . S
C1003 C1004 1.400 . S
C1003 C1008 1.490 . S
C1004 H994 0.930 . S
C1004 C1003 1.400 . S
C1004 C1007 1.386 . S
H1005 C1021 0.930 . S
H1006 C1022 0.931 . S
C1007 H995 0.929 . S
C1007 C1001 1.390 . S
C1007 C1004 1.386 . S
C1008 C1003 1.490 . S
C1008 C1010 1.395 . S
C1008 C1011 1.403 . S
H1009 C1015 0.930 . S
C1010 H996 0.930 . S
C1010 C1008 1.395 . S
C1010 C1013 1.403 . S
C1011 C1008 1.403 . S
C1011 C1012 1.524 . S
C1011 C1015 1.400 . S
C1012 H997 0.960 . S
C1012 H998 0.960 . S
C1012 H999 0.960 . S
C1012 C1011 1.524 . S
C1013 C1010 1.403 . S
C1013 C1014 1.392 . S
C1013 C1017 1.495 . S
C1014 C1013 1.392 . S
C1014 C1015 1.385 . S
C1014 C1016 1.478 . S
C1015 H1009 0.930 . S
C1015 C1011 1.400 . S
C1015 C1014 1.385 . S
C1016 C1014 1.478 . S
C1016 C1018 1.381 . S
C1016 C1022 1.383 . S
C1017 C1013 1.495 . S
C1017 H1023 0.959 . S
C1017 H1024 0.961 . S
C1017 H1025 0.960 . S
C1018 C1016 1.381 . S
C1018 C1019 1.394 . S
C1018 H1026 0.930 . S
C1019 C1018 1.394 . S
C1019 C1020 1.383 . S
C1019 H1027 0.929 . S
C1020 C1019 1.383 . S
C1020 C1021 1.377 . S
C1021 H1005 0.930 . S
C1021 C1020 1.377 . S
C1021 C1022 1.379 . S
C1022 H1006 0.931 . S
C1022 C1016 1.383 . S
C1022 C1021 1.379 . S
H1023 C1017 0.959 . S
H1024 C1017 0.961 . S
H1025 C1017 0.960 . S
H1026 C1018 0.930 . S
H1027 C1019 0.929 . S
H1028 C1036 0.929 . S
H1029 C1038 0.930 . S
H1030 C1040 0.930 . S
H1031 C1043 0.929 . S
H1032 C1046 0.930 . S
H1033 C1048 0.960 . S
H1034 C1048 0.960 . S
H1035 C1048 0.960 . S
C1036 H1028 0.929 . S
C1036 C1037 1.377 . S
C1036 C1038 1.384 . S
C1037 C1036 1.377 . S
C1037 C1043 1.390 . S
C1038 H1029 0.930 . S
C1038 C1036 1.384 . S
C1038 C1039 1.372 . S
C1039 C1038 1.372 . S
C1039 C1040 1.400 . S
C1039 C1044 1.490 . S
C1040 H1030 0.930 . S
C1040 C1039 1.400 . S
C1040 C1043 1.386 . S
H1041 C1057 0.930 . S
H1042 C1058 0.931 . S
C1043 H1031 0.929 . S
C1043 C1037 1.390 . S
C1043 C1040 1.386 . S
C1044 C1039 1.490 . S
C1044 C1046 1.395 . S
C1044 C1047 1.403 . S
H1045 C1051 0.930 . S
C1046 H1032 0.930 . S
C1046 C1044 1.395 . S
C1046 C1049 1.403 . S
C1047 C1044 1.403 . S
C1047 C1048 1.524 . S
C1047 C1051 1.400 . S
C1048 H1033 0.960 . S
C1048 H1034 0.960 . S
C1048 H1035 0.960 . S
C1048 C1047 1.524 . S
C1049 C1046 1.403 . S
C1049 C1050 1.392 . S
C1049 C1053 1.495 . S
C1050 C1049 1.392 . S
C1050 C1051 1.385 . S
C1050 C1052 1.478 . S
C1051 H1045 0.930 . S
C1051 C1047 1.400 . S
C1051 C1050 1.385 . S
C1052 C1050 1.478 . S
C1052 C1054 1.381 . S
C1052 C1058 1.383 . S
C1053 C1049 1.495 . S
C1053 H1059 0.959 . S
C1053 H1060 0.961 . S
C1053 H1061 0.960 1_455 S
C1054 C1052 1.381 . S
C1054 C1055 1.394 . S
C1054 H1062 0.930 1_455 S
C1055 C1054 1.394 . S
C1055 C1056 1.383 . S
C1055 H1063 0.929 1_455 S
C1056 C1055 1.383 . S
C1056 C1057 1.377 . S
C1057 H1041 0.930 . S
C1057 C1056 1.377 . S
C1057 C1058 1.379 . S
C1058 H1042 0.931 . S
C1058 C1052 1.383 . S
C1058 C1057 1.379 . S
H1059 C1053 0.959 . S
H1060 C1053 0.961 . S
H1061 C1053 0.960 1_655 S
H1062 C1054 0.930 1_655 S
H1063 C1055 0.929 1_655 S
H1064 C1072 0.929 . S
H1065 C1074 0.930 . S
H1066 C1076 0.930 . S
H1067 C1079 0.929 . S
H1068 C1082 0.930 . S
H1069 C1084 0.960 . S
H1070 C1084 0.960 . S
H1071 C1084 0.960 . S
C1072 H1064 0.929 . S
C1072 C1073 1.377 . S
C1072 C1074 1.384 . S
C1073 C1072 1.377 . S
C1073 C1079 1.390 . S
C1074 H1065 0.930 . S
C1074 C1072 1.384 . S
C1074 C1075 1.372 . S
C1075 C1074 1.372 . S
C1075 C1076 1.400 . S
C1075 C1080 1.490 . S
C1076 H1066 0.930 . S
C1076 C1075 1.400 . S
C1076 C1079 1.386 . S
H1077 C1093 0.930 . S
H1078 C1094 0.931 . S
C1079 H1067 0.929 . S
C1079 C1073 1.390 . S
C1079 C1076 1.386 . S
C1080 C1075 1.490 . S
C1080 C1082 1.395 . S
C1080 C1083 1.403 . S
H1081 C1087 0.930 . S
C1082 H1068 0.930 . S
C1082 C1080 1.395 . S
C1082 C1085 1.403 . S
C1083 C1080 1.403 . S
C1083 C1084 1.524 . S
C1083 C1087 1.400 . S
C1084 H1069 0.960 . S
C1084 H1070 0.960 . S
C1084 H1071 0.960 . S
C1084 C1083 1.524 . S
C1085 C1082 1.403 . S
C1085 C1086 1.392 . S
C1085 C1089 1.495 . S
C1086 C1085 1.392 . S
C1086 C1087 1.385 . S
C1086 C1088 1.478 . S
C1087 H1081 0.930 . S
C1087 C1083 1.400 . S
C1087 C1086 1.385 . S
C1088 C1086 1.478 . S
C1088 C1090 1.381 . S
C1088 C1094 1.383 . S
C1089 C1085 1.495 . S
C1089 H1095 0.959 . S
C1089 H1096 0.961 . S
C1089 H1097 0.960 . S
C1090 C1088 1.381 . S
C1090 C1091 1.394 . S
C1090 H1098 0.930 . S
C1091 C1090 1.394 . S
C1091 C1092 1.383 . S
C1091 H1099 0.929 . S
C1092 C1091 1.383 . S
C1092 C1093 1.377 . S
C1093 H1077 0.930 . S
C1093 C1092 1.377 . S
C1093 C1094 1.379 . S
C1094 H1078 0.931 . S
C1094 C1088 1.383 . S
C1094 C1093 1.379 . S
H1095 C1089 0.959 . S
H1096 C1089 0.961 . S
H1097 C1089 0.960 . S
H1098 C1090 0.930 . S
H1099 C1091 0.929 . S
C245 C6 1.866 . S
C264 C155 1.746 . S
C281 C21 2.137 . S
C300 C189 1.966 1_565 S
C336 C201 0.774 . S
C317 C49 0.775 . S
C353 C68 1.172 . S
C372 C235 1.098 . S
C408 C192 2.238 . S
C389 C2 2.400 . S
C444 C172 1.212 . S
C425 C30 1.123 . S
C480 C219 1.183 1_556 S
C461 C40 1.276 . S
C516 C210 1.289 . S
C497 C63 1.330 . S
C533 C11 1.464 . S
C552 C218 1.544 . S
C588 C180 1.567 . S
C569 C44 1.691 . S
C605 C59 1.087 . S
C624 C156 0.959 . S
C641 C25 1.841 . S
C660 C213 1.765 . S
C696 C171 2.033 . S
C677 C82 2.160 1_545 S
C713 C101 1.868 . S
C732 C193 1.759 . S
C749 C125 1.395 . S
C768 C198 1.367 . S
C785 C144 0.968 . S
C804 C231 1.013 . S
C821 C87 1.242 1_554 S
C840 C176 1.346 . S
C876 C168 2.195 . S
C857 C97 2.359 . S
C912 C222 1.320 . S
C893 C120 1.384 . S
C948 C214 1.290 . S
C929 C135 1.365 . S
C965 C78 1.947 . S
C984 C234 1.871 . S
C1020 C177 1.137 . S
C1001 C116 1.224 . S
C1056 C159 1.636 . S
C1037 C139 1.762 . S
C1073 C106 1.515 . S
C1092 C197 1.493 . S
