# Generated by pormake.
# Topology ctn, (3,4)-cn, num edge types: 1
# Building blocks:
#     Node 0, Type 0, BuildingBlock: BETDAH_clean_linker_0, # of connection points: 3
#     Node 1, Type 0, BuildingBlock: BETDAH_clean_linker_0, # of connection points: 3
#     Node 2, Type 0, BuildingBlock: BETDAH_clean_linker_0, # of connection points: 3
#     Node 3, Type 0, BuildingBlock: BETDAH_clean_linker_0, # of connection points: 3
#     Node 4, Type 0, BuildingBlock: BETDAH_clean_linker_0, # of connection points: 3
#     Node 5, Type 0, BuildingBlock: BETDAH_clean_linker_0, # of connection points: 3
#     Node 6, Type 0, BuildingBlock: BETDAH_clean_linker_0, # of connection points: 3
#     Node 7, Type 0, BuildingBlock: BETDAH_clean_linker_0, # of connection points: 3
#     Node 8, Type 0, BuildingBlock: BETDAH_clean_linker_0, # of connection points: 3
#     Node 9, Type 0, BuildingBlock: BETDAH_clean_linker_0, # of connection points: 3
#     Node 10, Type 0, BuildingBlock: BETDAH_clean_linker_0, # of connection points: 3
#     Node 11, Type 0, BuildingBlock: BETDAH_clean_linker_0, # of connection points: 3
#     Node 12, Type 0, BuildingBlock: BETDAH_clean_linker_0, # of connection points: 3
#     Node 13, Type 0, BuildingBlock: BETDAH_clean_linker_0, # of connection points: 3
#     Node 14, Type 0, BuildingBlock: BETDAH_clean_linker_0, # of connection points: 3
#     Node 15, Type 0, BuildingBlock: BETDAH_clean_linker_0, # of connection points: 3
#     Node 16, Type 1, BuildingBlock: QUQFOY_clean_sbu_1, # of connection points: 4
#     Node 17, Type 1, BuildingBlock: QUQFOY_clean_sbu_1, # of connection points: 4
#     Node 18, Type 1, BuildingBlock: QUQFOY_clean_sbu_1, # of connection points: 4
#     Node 19, Type 1, BuildingBlock: QUQFOY_clean_sbu_1, # of connection points: 4
#     Node 20, Type 1, BuildingBlock: QUQFOY_clean_sbu_1, # of connection points: 4
#     Node 21, Type 1, BuildingBlock: QUQFOY_clean_sbu_1, # of connection points: 4
#     Node 22, Type 1, BuildingBlock: QUQFOY_clean_sbu_1, # of connection points: 4
#     Node 23, Type 1, BuildingBlock: QUQFOY_clean_sbu_1, # of connection points: 4
#     Node 24, Type 1, BuildingBlock: QUQFOY_clean_sbu_1, # of connection points: 4
#     Node 25, Type 1, BuildingBlock: QUQFOY_clean_sbu_1, # of connection points: 4
#     Node 26, Type 1, BuildingBlock: QUQFOY_clean_sbu_1, # of connection points: 4
#     Node 27, Type 1, BuildingBlock: QUQFOY_clean_sbu_1, # of connection points: 4
#     Edge 28, Type (0, 1), BuildingBlock: XIVTED_clean_linker_0, # of connection points: 2
#     Edge 29, Type (0, 1), BuildingBlock: XIVTED_clean_linker_0, # of connection points: 2
#     Edge 30, Type (0, 1), BuildingBlock: XIVTED_clean_linker_0, # of connection points: 2
#     Edge 31, Type (0, 1), BuildingBlock: XIVTED_clean_linker_0, # of connection points: 2
#     Edge 32, Type (0, 1), BuildingBlock: XIVTED_clean_linker_0, # of connection points: 2
#     Edge 33, Type (0, 1), BuildingBlock: XIVTED_clean_linker_0, # of connection points: 2
#     Edge 34, Type (0, 1), BuildingBlock: XIVTED_clean_linker_0, # of connection points: 2
#     Edge 35, Type (0, 1), BuildingBlock: XIVTED_clean_linker_0, # of connection points: 2
#     Edge 36, Type (0, 1), BuildingBlock: XIVTED_clean_linker_0, # of connection points: 2
#     Edge 37, Type (0, 1), BuildingBlock: XIVTED_clean_linker_0, # of connection points: 2
#     Edge 38, Type (0, 1), BuildingBlock: XIVTED_clean_linker_0, # of connection points: 2
#     Edge 39, Type (0, 1), BuildingBlock: XIVTED_clean_linker_0, # of connection points: 2
#     Edge 40, Type (0, 1), BuildingBlock: XIVTED_clean_linker_0, # of connection points: 2
#     Edge 41, Type (0, 1), BuildingBlock: XIVTED_clean_linker_0, # of connection points: 2
#     Edge 42, Type (0, 1), BuildingBlock: XIVTED_clean_linker_0, # of connection points: 2
#     Edge 43, Type (0, 1), BuildingBlock: XIVTED_clean_linker_0, # of connection points: 2
#     Edge 44, Type (0, 1), BuildingBlock: XIVTED_clean_linker_0, # of connection points: 2
#     Edge 45, Type (0, 1), BuildingBlock: XIVTED_clean_linker_0, # of connection points: 2
#     Edge 46, Type (0, 1), BuildingBlock: XIVTED_clean_linker_0, # of connection points: 2
#     Edge 47, Type (0, 1), BuildingBlock: XIVTED_clean_linker_0, # of connection points: 2
#     Edge 48, Type (0, 1), BuildingBlock: XIVTED_clean_linker_0, # of connection points: 2
#     Edge 49, Type (0, 1), BuildingBlock: XIVTED_clean_linker_0, # of connection points: 2
#     Edge 50, Type (0, 1), BuildingBlock: XIVTED_clean_linker_0, # of connection points: 2
#     Edge 51, Type (0, 1), BuildingBlock: XIVTED_clean_linker_0, # of connection points: 2
#     Edge 52, Type (0, 1), BuildingBlock: XIVTED_clean_linker_0, # of connection points: 2
#     Edge 53, Type (0, 1), BuildingBlock: XIVTED_clean_linker_0, # of connection points: 2
#     Edge 54, Type (0, 1), BuildingBlock: XIVTED_clean_linker_0, # of connection points: 2
#     Edge 55, Type (0, 1), BuildingBlock: XIVTED_clean_linker_0, # of connection points: 2
#     Edge 56, Type (0, 1), BuildingBlock: XIVTED_clean_linker_0, # of connection points: 2
#     Edge 57, Type (0, 1), BuildingBlock: XIVTED_clean_linker_0, # of connection points: 2
#     Edge 58, Type (0, 1), BuildingBlock: XIVTED_clean_linker_0, # of connection points: 2
#     Edge 59, Type (0, 1), BuildingBlock: XIVTED_clean_linker_0, # of connection points: 2
#     Edge 60, Type (0, 1), BuildingBlock: XIVTED_clean_linker_0, # of connection points: 2
#     Edge 61, Type (0, 1), BuildingBlock: XIVTED_clean_linker_0, # of connection points: 2
#     Edge 62, Type (0, 1), BuildingBlock: XIVTED_clean_linker_0, # of connection points: 2
#     Edge 63, Type (0, 1), BuildingBlock: XIVTED_clean_linker_0, # of connection points: 2
#     Edge 64, Type (0, 1), BuildingBlock: XIVTED_clean_linker_0, # of connection points: 2
#     Edge 65, Type (0, 1), BuildingBlock: XIVTED_clean_linker_0, # of connection points: 2
#     Edge 66, Type (0, 1), BuildingBlock: XIVTED_clean_linker_0, # of connection points: 2
#     Edge 67, Type (0, 1), BuildingBlock: XIVTED_clean_linker_0, # of connection points: 2
#     Edge 68, Type (0, 1), BuildingBlock: XIVTED_clean_linker_0, # of connection points: 2
#     Edge 69, Type (0, 1), BuildingBlock: XIVTED_clean_linker_0, # of connection points: 2
#     Edge 70, Type (0, 1), BuildingBlock: XIVTED_clean_linker_0, # of connection points: 2
#     Edge 71, Type (0, 1), BuildingBlock: XIVTED_clean_linker_0, # of connection points: 2
#     Edge 72, Type (0, 1), BuildingBlock: XIVTED_clean_linker_0, # of connection points: 2
#     Edge 73, Type (0, 1), BuildingBlock: XIVTED_clean_linker_0, # of connection points: 2
#     Edge 74, Type (0, 1), BuildingBlock: XIVTED_clean_linker_0, # of connection points: 2
#     Edge 75, Type (0, 1), BuildingBlock: XIVTED_clean_linker_0, # of connection points: 2
# Relax obj value: 0.075
# Max RMSD: 0.181
# Mean RMSD: 0.121
data_MOF--net-ctn--node1-QUQFOY_clean_sbu_1--node2-BETDAH_clean_linker_0--edge1-XIVTED_clean_linker_0
_symmetry_space_group_name_H-M    P1
_symmetry_Int_Tables_number       1
_symmetry_cell_setting            triclinic
loop_
_symmetry_equiv_pos_as_xyz
'x, y, z'
_cell_length_a     54.113388
_cell_length_b     53.848591
_cell_length_c     55.324088
_cell_angle_alpha  101.91885
_cell_angle_beta   90.0867
_cell_angle_gamma 99.666748
loop_
_atom_site_label
_atom_site_type_symbol
_atom_site_fract_x
_atom_site_fract_y
_atom_site_fract_z
_atom_type_partial_charge
H0 H 0.0418 0.04886 0.09607 0.0
H1 H 0.05901 0.09152 0.03854 0.0
H2 H 0.00828 0.11543 0.09467 0.0
C3 C 0.03896 0.0643 0.08711 0.0
C4 C 0.02283 0.08115 0.09762 0.0
C5 C 0.05205 0.06759 0.06569 0.0
C6 C 0.04914 0.08861 0.055 0.0
C7 C 0.03361 0.10605 0.06585 0.0
C8 C 0.02064 0.10217 0.08696 0.0
N9 N 0.03082 0.12815 0.05662 0.0
C10 C 0.03604 0.13183 0.03292 0.0
H11 H 0.35999 0.72247 0.24647 0.0
H12 H 0.39313 0.77391 0.20095 0.0
H13 H 0.3131 0.7497 0.19841 0.0
C14 C 0.35805 0.7338 0.23274 0.0
C15 C 0.33401 0.73426 0.22339 0.0
C16 C 0.37955 0.74804 0.22495 0.0
C17 C 0.37677 0.76282 0.20731 0.0
C18 C 0.353 0.76352 0.19764 0.0
C19 C 0.33156 0.74908 0.2056 0.0
N20 N 0.35164 0.77931 0.18023 0.0
C21 C 0.32974 0.78269 0.1691 0.0
H22 H 0.01366 0.46528 0.08735 0.0
H23 H 0.96319 0.50942 0.12989 0.0
H24 H 0.94175 0.46857 0.0558 0.0
C25 C 0.99594 0.47221 0.08898 0.0
C26 C 0.97822 0.46458 0.06909 0.0
C27 C 0.9909 0.48864 0.11095 0.0
C28 C 0.96769 0.49714 0.11293 0.0
C29 C 0.95026 0.49043 0.09301 0.0
C30 C 0.95548 0.4741 0.07107 0.0
N31 N 0.92734 0.4999 0.09574 0.0
C32 C 0.91758 0.51083 0.07803 0.0
H33 H 0.80822 0.798 0.20842 0.0
H34 H 0.788 0.72571 0.23092 0.0
H35 H 0.79666 0.7967 0.2851 0.0
C36 C 0.80385 0.78735 0.22293 0.0
C37 C 0.80371 0.80073 0.24754 0.0
C38 C 0.79819 0.76037 0.21668 0.0
C39 C 0.7927 0.74655 0.23547 0.0
C40 C 0.79143 0.75962 0.25999 0.0
C41 C 0.79698 0.78671 0.26601 0.0
N42 N 0.78372 0.74524 0.27822 0.0
C43 C 0.76681 0.75314 0.2958 0.0
H44 H 0.07673 0.02717 0.44614 0.0
H45 H 0.09616 0.96397 0.4745 0.0
H46 H 0.02495 0.95559 0.43669 0.0
C47 C 0.07192 0.00767 0.44909 0.0
C48 C 0.04859 0.99287 0.44027 0.0
C49 C 0.08928 0.99739 0.4613 0.0
C50 C 0.08295 0.97215 0.4651 0.0
C51 C 0.05964 0.95723 0.45636 0.0
C52 C 0.0427 0.96749 0.44377 0.0
N53 N 0.05326 0.93155 0.45938 0.0
C54 C 0.05249 0.92561 0.48262 0.0
H55 H 0.2582 0.74129 0.82918 0.0
H56 H 0.2346 0.79604 0.79136 0.0
H57 H 0.26988 0.73509 0.75145 0.0
C58 C 0.25648 0.74844 0.81246 0.0
C59 C 0.26563 0.73565 0.79042 0.0
C60 C 0.24536 0.77039 0.8132 0.0
C61 C 0.24275 0.77897 0.79115 0.0
C62 C 0.25141 0.7661 0.76885 0.0
C63 C 0.26334 0.74493 0.76873 0.0
N64 N 0.24789 0.77388 0.74627 0.0
C65 C 0.22734 0.78492 0.74188 0.0
H66 H 0.93846 0.57272 0.53859 0.0
H67 H 0.00607 0.5849 0.49849 0.0
H68 H 0.95158 0.51586 0.47528 0.0
C69 C 0.9505 0.56597 0.52389 0.0
C70 C 0.94234 0.54253 0.50735 0.0
C71 C 0.97336 0.58149 0.5207 0.0
C72 C 0.98838 0.57304 0.50095 0.0
C73 C 0.98062 0.54909 0.48475 0.0
C74 C 0.95763 0.53412 0.48803 0.0
N75 N 0.99523 0.53924 0.46494 0.0
C76 C 0.0164 0.55305 0.4567 0.0
H77 H 0.83899 0.7939 0.82129 0.0
H78 H 0.80013 0.84508 0.79135 0.0
H79 H 0.76392 0.80189 0.84249 0.0
C80 C 0.82252 0.80266 0.82012 0.0
C81 C 0.80177 0.7961 0.8341 0.0
C82 C 0.82219 0.8203 0.8046 0.0
C83 C 0.80061 0.83148 0.80321 0.0
C84 C 0.77959 0.82481 0.81697 0.0
C85 C 0.7803 0.8071 0.83215 0.0
N86 N 0.75716 0.83496 0.8157 0.0
C87 C 0.75536 0.85739 0.80759 0.0
H88 H 0.34411 0.29925 0.33666 0.0
H89 H 0.30387 0.34369 0.29911 0.0
H90 H 0.27004 0.3109 0.35811 0.0
C91 C 0.32742 0.30719 0.33406 0.0
C92 C 0.30722 0.30303 0.34939 0.0
C93 C 0.32636 0.32129 0.31543 0.0
C94 C 0.3052 0.33295 0.31345 0.0
C95 C 0.28503 0.32947 0.32919 0.0
C96 C 0.28603 0.3142 0.34671 0.0
N97 N 0.26289 0.33988 0.32717 0.0
C98 C 0.26172 0.36164 0.31768 0.0
H99 H 0.51708 0.94445 0.57935 0.0
H100 H 0.46598 0.99528 0.60996 0.0
H101 H 0.44982 0.94575 0.53855 0.0
C102 C 0.50018 0.95244 0.57791 0.0
C103 C 0.48463 0.94344 0.55649 0.0
C104 C 0.49396 0.97141 0.5974 0.0
C105 C 0.47145 0.9808 0.59527 0.0
C106 C 0.45563 0.97152 0.57416 0.0
C107 C 0.46235 0.95311 0.55469 0.0
N108 N 0.43178 0.97878 0.57364 0.0
C109 C 0.42781 -0.00044 0.56385 0.0
H110 H 0.30197 0.29996 0.7212 0.0
H111 H 0.27744 0.23401 0.75282 0.0
H112 H 0.27882 0.31007 0.79662 0.0
C113 C 0.29575 0.29203 0.73708 0.0
C114 C 0.29173 0.30858 0.7594 0.0
C115 C 0.29066 0.26522 0.73454 0.0
C116 C 0.28159 0.25474 0.75463 0.0
C117 C 0.27689 0.27083 0.7768 0.0
C118 C 0.28194 0.29774 0.77919 0.0
N119 N 0.26682 0.2595 0.79638 0.0
C120 C 0.24762 0.26852 0.81028 0.0
H121 H 0.82685 0.2421 0.76402 0.0
H122 H 0.84608 0.31547 0.74334 0.0
H123 H 0.76959 0.27662 0.73619 0.0
C124 C 0.82147 0.25758 0.75657 0.0
C125 C 0.79605 0.25667 0.75044 0.0
C126 C 0.83982 0.27859 0.75413 0.0
C127 C 0.83238 0.2989 0.74523 0.0
C128 C 0.8073 0.29801 0.73829 0.0
C129 C 0.78912 0.27676 0.74064 0.0
N130 N 0.80071 0.31974 0.73083 0.0
C131 C 0.78374 0.31815 0.7115 0.0
H132 H 0.55082 0.55161 0.60366 0.0
H133 H 0.58674 0.60145 0.5577 0.0
H134 H 0.53414 0.6281 0.61059 0.0
C135 C 0.55381 0.57007 0.59823 0.0
C136 C 0.54032 0.58924 0.60951 0.0
C137 C 0.57096 0.57431 0.57983 0.0
C138 C 0.57349 0.59768 0.5717 0.0
C139 C 0.55994 0.61691 0.58269 0.0
C140 C 0.54389 0.6128 0.60181 0.0
N141 N 0.56284 0.64104 0.57563 0.0
C142 C 0.56632 0.6439 0.55143 0.0
H143 H 0.55922 0.53133 0.94499 0.0
H144 H 0.57837 0.4715 0.97889 0.0
H145 H 0.50821 0.45972 0.9383 0.0
C146 C 0.5543 0.5126 0.94973 0.0
C147 C 0.53144 0.49697 0.94074 0.0
C148 C 0.57164 0.50336 0.96301 0.0
C149 C 0.56521 0.47881 0.96855 0.0
C150 C 0.54218 0.46322 0.95985 0.0
C151 C 0.52571 0.47209 0.94546 0.0
N152 N 0.53564 0.43813 0.96448 0.0
C153 C 0.53813 0.43313 0.98789 0.0
H154 H 0.76336 0.23558 0.33436 0.0
H155 H 0.72421 0.27359 0.28922 0.0
H156 H 0.76577 0.21525 0.25508 0.0
C157 C 0.75766 0.23788 0.31629 0.0
C158 C 0.76597 0.22272 0.29506 0.0
C159 C 0.74259 0.25633 0.31444 0.0
C160 C 0.73606 0.25967 0.29087 0.0
C161 C 0.74469 0.24507 0.26945 0.0
C162 C 0.75975 0.22686 0.2717 0.0
N163 N 0.73814 0.248 0.24543 0.0
C164 C 0.7181 0.25971 0.2409 0.0
H165 H 0.42698 0.0806 0.03499 0.0
H166 H 0.50114 0.08042 0.00701 0.0
H167 H 0.44844 0.00962 0.99743 0.0
C168 C 0.44067 0.07036 0.0249 0.0
C169 C 0.43458 0.04362 0.01623 0.0
C170 C 0.46468 0.08376 0.0219 0.0
C171 C 0.48257 0.07022 0.0094 0.0
C172 C 0.47661 0.04342 0.00053 0.0
C173 C 0.45285 0.03027 0.00437 0.0
N174 N 0.4942 0.02901 0.98812 0.0
C175 C 0.51308 0.03908 0.97412 0.0
O176 O 0.2207 0.86789 0.99589 0.0
Cd177 Cd 0.23378 0.88793 0.03068 0.0
Cd178 Cd 0.21002 0.92636 0.00818 0.0
O179 O 0.20549 0.89572 0.9782 0.0
O180 O 0.25339 0.86197 0.03808 0.0
O181 O 0.22391 0.87517 0.06225 0.0
C182 C 0.24096 0.86093 0.05767 0.0
C183 C 0.1778 0.95071 0.01629 0.0
C184 C 0.21101 0.8735 0.9772 0.0
C185 C 0.26452 0.94018 0.02659 0.0
O186 O 0.24585 0.94651 0.01689 0.0
O187 O 0.26274 0.91863 0.033 0.0
O188 O 0.19237 0.95257 -0.00187 0.0
O189 O 0.18116 0.93452 0.02976 0.0
O190 O 0.21117 0.59414 0.29532 0.0
Cd191 Cd 0.19125 0.56354 0.30822 0.0
Cd192 Cd 0.15171 0.57477 0.28017 0.0
O193 O 0.18106 0.60081 0.27168 0.0
O194 O 0.21694 0.5463 0.32075 0.0
O195 O 0.1903 0.52703 0.28949 0.0
C196 C 0.20857 0.526 0.30414 0.0
C197 C 0.12186 0.55676 0.24804 0.0
C198 C 0.2036 0.60622 0.28007 0.0
C199 C 0.14576 0.57733 0.33536 0.0
O200 O 0.13721 0.58041 0.31497 0.0
O201 O 0.16696 0.5704 0.33665 0.0
O202 O 0.12372 0.58029 0.25979 0.0
O203 O 0.13718 0.5431 0.25448 0.0
O204 O 0.79083 0.67844 0.96816 0.0
Cd205 Cd 0.78014 0.65736 0.99469 0.0
Cd206 Cd 0.79684 0.62061 0.9602 0.0
O207 O 0.80423 0.64902 0.9397 0.0
O208 O 0.77051 0.68364 0.02225 0.0
O209 O 0.80057 0.66155 0.02633 0.0
C210 C 0.78723 0.67846 0.03612 0.0
C211 C 0.8275 0.60536 0.97948 0.0
C212 C 0.79984 0.67182 0.94705 0.0
C213 C 0.7436 0.60856 0.97334 0.0
O214 O 0.76071 0.60069 0.9596 0.0
O215 O 0.74789 0.6303 0.98822 0.0
O216 O 0.82122 0.5961 0.95641 0.0
O217 O 0.81709 0.62408 0.99109 0.0
O218 O 0.93097 0.03915 0.31121 0.0
Cd219 Cd 0.90772 0.03281 0.28018 0.0
Cd220 Cd 0.87421 0.04302 0.31576 0.0
O221 O 0.9037 0.04625 0.34036 0.0
O222 O 0.93152 0.02411 0.25367 0.0
O223 O 0.91238 0.05762 0.25677 0.0
C224 C 0.92765 0.04369 0.24524 0.0
C225 C 0.85592 0.07822 0.31259 0.0
C226 C 0.92582 0.04373 0.33393 0.0
C227 C 0.86254 0.99139 0.28368 0.0
O228 O 0.85537 0.00627 0.30223 0.0
O229 O 0.88201 0.99898 0.27258 0.0
O230 O 0.85025 0.06574 0.32998 0.0
O231 O 0.87233 0.07071 0.29699 0.0
O232 O 0.29474 0.19056 0.48944 0.0
Cd233 Cd 0.28631 0.16676 0.51417 0.0
Cd234 Cd 0.3076 0.13396 0.48046 0.0
O235 O 0.31277 0.16406 0.462 0.0
O236 O 0.27377 0.18841 0.54349 0.0
O237 O 0.30775 0.17091 0.54508 0.0
C238 C 0.29191 0.18428 0.55636 0.0
C239 C 0.34059 0.11786 0.49499 0.0
C240 C 0.30554 0.18563 0.46904 0.0
C241 C 0.25457 0.1157 0.4901 0.0
O242 O 0.27303 0.11033 0.4771 0.0
O243 O 0.2565 0.13692 0.50565 0.0
O244 O 0.33357 0.11175 0.47188 0.0
O245 O 0.32948 0.13414 0.50964 0.0
O246 O 0.41855 0.53795 0.80184 0.0
Cd247 Cd 0.39597 0.53551 0.77122 0.0
Cd248 Cd 0.36535 0.54943 0.80797 0.0
O249 O 0.39515 0.55247 0.83229 0.0
O250 O 0.42025 0.52586 0.74552 0.0
O251 O 0.40415 0.56134 0.74905 0.0
C252 C 0.41925 0.5468 0.73818 0.0
C253 C 0.34771 0.58485 0.80412 0.0
C254 C 0.41549 0.54525 0.82481 0.0
C255 C 0.34967 0.49736 0.77606 0.0
O256 O 0.34529 0.51281 0.79562 0.0
O257 O 0.36796 0.50372 0.76293 0.0
O258 O 0.34208 0.57302 0.82198 0.0
O259 O 0.36381 0.57664 0.7885 0.0
O260 O 0.72706 0.36692 0.49275 0.0
Cd261 Cd 0.73904 0.39084 0.52648 0.0
Cd262 Cd 0.7173 0.42491 0.50356 0.0
O263 O 0.70999 0.39335 0.47488 0.0
O264 O 0.75265 0.36652 0.54343 0.0
O265 O 0.72209 0.38685 0.55848 0.0
C266 C 0.73705 0.37105 0.56062 0.0
C267 C 0.68585 0.44899 0.51631 0.0
C268 C 0.71605 0.37143 0.4742 0.0
C269 C 0.77217 0.43937 0.51794 0.0
O270 O 0.75346 0.44473 0.50743 0.0
O271 O 0.77001 0.4194 0.52718 0.0
O272 O 0.69673 0.44981 0.49571 0.0
O273 O 0.69251 0.43394 0.5296 0.0
O274 O 0.69043 0.08782 0.79764 0.0
Cd275 Cd 0.67247 0.05458 0.80771 0.0
Cd276 Cd 0.63225 0.06625 0.78266 0.0
O277 O 0.65875 0.09689 0.77782 0.0
O278 O 0.6997 0.03789 0.81824 0.0
O279 O 0.67339 0.01945 0.78654 0.0
C280 C 0.69209 0.01832 0.80059 0.0
C281 C 0.60601 0.04537 0.74852 0.0
C282 C 0.68155 0.10217 0.78548 0.0
C283 C 0.62629 0.06258 0.83637 0.0
O284 O 0.61685 0.06653 0.81676 0.0
O285 O 0.6484 0.05757 0.83676 0.0
O286 O 0.60287 0.06729 0.76154 0.0
O287 O 0.62432 0.03511 0.75479 0.0
O288 O 0.00507 0.30589 0.92463 0.0
Cd289 Cd 0.0108 0.27427 0.89811 0.0
Cd290 Cd 0.04131 0.31065 0.88107 0.0
O291 O 0.0342 0.33468 0.91332 0.0
O292 O 0.99621 0.24364 0.91169 0.0
O293 O 0.03665 0.25358 0.90542 0.0
C294 C 0.01856 0.23863 0.91312 0.0
C295 C 0.08199 0.30442 0.8721 0.0
C296 C 0.01728 0.32875 0.92803 0.0
C297 C 0.99637 0.28403 0.84901 0.0
O298 O 0.01442 0.30297 0.85288 0.0
O299 O 0.9928 0.26887 0.86398 0.0
O300 O 0.07412 0.32486 0.86874 0.0
O301 O 0.06662 0.28756 0.88072 0.0
O302 O 0.52824 0.78869 0.41769 0.0
Cd303 Cd 0.53607 0.75704 0.3926 0.0
Cd304 Cd 0.56516 0.79419 0.37493 0.0
O305 O 0.5546 0.81894 0.40507 0.0
O306 O 0.52246 0.72719 0.40767 0.0
O307 O 0.56294 0.73908 0.40276 0.0
C308 C 0.54524 0.72412 0.41098 0.0
C309 C 0.60682 0.79011 0.36874 0.0
C310 C 0.53823 0.81221 0.41998 0.0
C311 C 0.52315 0.76281 0.34133 0.0
O312 O 0.54029 0.78259 0.34505 0.0
O313 O 0.51935 0.74894 0.35745 0.0
O314 O 0.59811 0.80946 0.36372 0.0
O315 O 0.59183 0.77334 0.37784 0.0
O316 O 0.98653 0.80732 0.70266 0.0
Cd317 Cd 0.01451 0.79337 0.68148 0.0
Cd318 Cd 0.99142 0.81052 0.64554 0.0
O319 O 0.96648 0.81875 0.67314 0.0
O320 O 0.0387 0.78738 0.70578 0.0
O321 O 0.04898 0.81429 0.6807 0.0
C322 C 0.05558 0.80328 0.69775 0.0
C323 C 0.00497 0.84147 0.62243 0.0
C324 C 0.96825 0.81633 0.69541 0.0
C325 C 0.99665 0.75462 0.63491 0.0
O326 O 0.98991 0.77297 0.62682 0.0
O327 O 0.00602 0.75848 0.65671 0.0
O328 O 0.98239 0.82876 0.61999 0.0
O329 O 0.02 0.83704 0.63859 0.0
O330 O 0.48531 0.30454 0.20215 0.0
Cd331 Cd 0.51374 0.29424 0.17932 0.0
Cd332 Cd 0.48683 0.31431 0.14747 0.0
O333 O 0.46481 0.32214 0.17754 0.0
O334 O 0.53546 0.28214 0.20184 0.0
O335 O 0.54926 0.31406 0.18321 0.0
C336 C 0.55376 0.29903 0.19748 0.0
C337 C 0.50151 0.34679 0.1266 0.0
C338 C 0.46732 0.3158 0.19816 0.0
C339 C 0.49265 0.25926 0.13096 0.0
O340 O 0.4822 0.27731 0.12641 0.0
O341 O 0.50596 0.26258 0.15066 0.0
O342 O 0.47825 0.33602 0.12491 0.0
O343 O 0.51661 0.33951 0.14079 0.0
H344 H 0.20472 0.79582 0.82168 0.0
H345 H 0.22571 0.82647 0.96787 0.0
H346 H 0.26704 0.77749 0.85959 0.0
H347 H 0.19372 0.87815 0.93163 0.0
H348 H 0.23091 0.79976 0.92763 0.0
H349 H 0.19221 0.81911 0.86144 0.0
C350 C 0.21582 0.79664 0.83821 0.0
C351 C 0.23699 0.78444 0.8371 0.0
C352 C 0.2225 0.81681 0.92853 0.0
C353 C 0.22213 0.81026 0.88258 0.0
C354 C 0.21936 0.83204 0.95151 0.0
C355 C 0.20961 0.8549 0.9532 0.0
C356 C 0.21562 0.82422 0.90699 0.0
C357 C 0.20156 0.86086 0.93121 0.0
C358 C 0.2085 0.80978 0.86087 0.0
C359 C 0.25026 0.78588 0.85935 0.0
N360 N 0.20492 0.84569 0.90892 0.0
N361 N 0.24253 0.7984 0.8811 0.0
H362 H 0.01657 0.58505 0.42518 0.0
H363 H 0.15351 0.56462 0.38006 0.0
H364 H 0.06392 0.54456 0.45968 0.0
H365 H 0.10169 0.59615 0.34052 0.0
H366 H 0.12433 0.56448 0.41378 0.0
H367 H 0.05099 0.59687 0.39869 0.0
C368 C 0.03449 0.57918 0.42748 0.0
C369 C 0.03769 0.56396 0.44448 0.0
C370 C 0.11949 0.57169 0.39783 0.0
C371 C 0.07679 0.57677 0.41413 0.0
C372 C 0.13617 0.57183 0.37858 0.0
C373 C 0.12991 0.58008 0.35724 0.0
C374 C 0.09642 0.57992 0.39576 0.0
C375 C 0.1072 0.5893 0.35645 0.0
C376 C 0.05405 0.58576 0.41232 0.0
C377 C 0.06096 0.55646 0.44674 0.0
N378 N 0.09121 0.58876 0.37531 0.0
N379 N 0.07964 0.56274 0.43153 0.0
H380 H 0.78611 0.801 0.88152 0.0
H381 H 0.81567 0.66485 0.89909 0.0
H382 H 0.81955 0.75023 0.82521 0.0
H383 H 0.79174 0.72156 0.95731 0.0
H384 H 0.81754 0.69538 0.87153 0.0
H385 H 0.78759 0.77134 0.90918 0.0
C386 C 0.79365 0.78351 0.87493 0.0
C387 C 0.80262 0.77805 0.85098 0.0
C388 C 0.81205 0.70114 0.8904 0.0
C389 C 0.80461 0.74399 0.88269 0.0
C390 C 0.81102 0.68374 0.90616 0.0
C391 C 0.80341 0.69054 0.93055 0.0
C392 C 0.80528 0.72543 0.89907 0.0
C393 C 0.7976 0.71533 0.93865 0.0
C394 C 0.79468 0.76666 0.8908 0.0
C395 C 0.8126 0.75529 0.84359 0.0
N396 N 0.79851 0.73173 0.92294 0.0
N397 N 0.81322 0.73902 0.85935 0.0
H398 H 0.9981 0.99044 0.44639 0.0
H399 H 0.97648 0.0486 0.32878 0.0
H400 H 0.05851 0.02007 0.40378 0.0
H401 H 0.91901 0.03623 0.38114 0.0
H402 H 0.0071 0.03974 0.35685 0.0
H403 H 0.96879 0.00759 0.42314 0.0
C404 C 0.00516 0.00057 0.43214 0.0
C405 C 0.03072 0.00375 0.4269 0.0
C406 C 0.98787 0.03929 0.36238 0.0
C407 C 0.99742 0.02348 0.40035 0.0
C408 C 0.97037 0.04438 0.34636 0.0
C409 C 0.94511 0.04293 0.35254 0.0
C410 C 0.98 0.03231 0.38459 0.0
C411 C 0.93829 0.03753 0.37563 0.0
C412 C 0.9885 0.01053 0.41903 0.0
C413 C 0.03898 0.01733 0.4085 0.0
N414 N 0.95557 0.03202 0.39067 0.0
N415 N 0.02235 0.0265 0.39575 0.0
H416 H 0.25502 0.22719 0.70885 0.0
H417 H 0.33349 0.19493 0.58779 0.0
H418 H 0.33094 0.26589 0.70467 0.0
H419 H 0.25369 0.19453 0.58628 0.0
H420 H 0.3348 0.21134 0.63288 0.0
H421 H 0.25653 0.20423 0.66588 0.0
C422 C 0.27218 0.2304 0.69901 0.0
C423 C 0.29285 0.24848 0.71014 0.0
C424 C 0.31706 0.2075 0.62256 0.0
C425 C 0.29466 0.22249 0.66124 0.0
C426 C 0.31629 0.19817 0.59697 0.0
C427 C 0.29349 0.19367 0.58337 0.0
C428 C 0.29477 0.2116 0.6345 0.0
C429 C 0.2717 0.19808 0.59605 0.0
C430 C 0.27296 0.2175 0.67452 0.0
C431 C 0.31457 0.25219 0.69657 0.0
N432 N 0.27286 0.20668 0.62092 0.0
N433 N 0.31492 0.23934 0.67271 0.0
H434 H 0.54631 0.56371 0.64656 0.0
H435 H 0.4188 0.58608 0.71315 0.0
H436 H 0.49436 0.60443 0.61816 0.0
H437 H 0.45826 0.52421 0.71938 0.0
H438 H 0.44847 0.5979 0.68204 0.0
H439 H 0.51653 0.55419 0.67769 0.0
C440 C 0.52859 0.57054 0.64674 0.0
C441 C 0.52275 0.58459 0.62941 0.0
C442 C 0.45047 0.58171 0.69024 0.0
C443 C 0.48867 0.57416 0.6655 0.0
C444 C 0.43361 0.57498 0.70795 0.0
C445 C 0.43603 0.5541 0.7188 0.0
C446 C 0.47002 0.56768 0.68376 0.0
C447 C 0.45557 0.54038 0.71145 0.0
C448 C 0.51162 0.5652 0.66463 0.0
C449 C 0.49975 0.59364 0.63119 0.0
N450 N 0.47185 0.5475 0.69453 0.0
N451 N 0.4835 0.58823 0.6489 0.0
H452 H 0.78377 0.28922 0.6656 0.0
H453 H 0.71614 0.38482 0.6057 0.0
H454 H 0.75317 0.35234 0.70874 0.0
H455 H 0.75913 0.33035 0.56524 0.0
H456 H 0.72177 0.3677 0.64281 0.0
H457 H 0.76666 0.29823 0.62787 0.0
C458 C 0.7729 0.3046 0.66706 0.0
C459 C 0.76968 0.32005 0.69004 0.0
C460 C 0.7297 0.35934 0.62571 0.0
C461 C 0.75063 0.33092 0.64725 0.0
C462 C 0.72644 0.36905 0.60453 0.0
C463 C 0.73745 0.35921 0.58245 0.0
C464 C 0.7439 0.33955 0.62466 0.0
C465 C 0.75059 0.33875 0.58196 0.0
C466 C 0.76329 0.30988 0.64559 0.0
C467 C 0.75582 0.33997 0.69119 0.0
N468 N 0.75357 0.32974 0.60275 0.0
N469 N 0.74696 0.34503 0.67001 0.0
H470 H 0.54561 0.97883 0.6008 0.0
H471 H 0.5584 0.05253 0.74037 0.0
H472 H 0.48087 0.98612 0.64573 0.0
H473 H 0.61505 0.00978 0.70777 0.0
H474 H 0.53086 0.03311 0.70393 0.0
H475 H 0.57266 0.99454 0.63806 0.0
C476 C 0.53698 0.98347 0.61843 0.0
C477 C 0.51076 0.98107 0.61995 0.0
C478 C 0.54926 0.02787 0.70483 0.0
C479 C 0.54185 -0.00019 0.66256 0.0
C480 C 0.56502 0.039 0.72553 0.0
C481 C 0.58903 0.03273 0.72702 0.0
C482 C 0.55777 0.01079 0.68523 0.0
C483 C 0.59662 0.01502 0.70734 0.0
C484 C 0.55251 0.99256 0.63966 0.0
C485 C 0.5009 0.9881 0.6434 0.0
N486 N 0.58112 0.00485 0.68706 0.0
N487 N 0.51645 0.99734 0.66372 0.0
H488 H 0.8734 0.32103 0.7776 0.0
H489 H 0.96243 0.24132 0.82784 0.0
H490 H 0.86686 0.23897 0.74993 0.0
H491 H 0.987 0.32111 0.82484 0.0
H492 H 0.92707 0.23966 0.79957 0.0
H493 H 0.91491 0.32171 0.79517 0.0
C494 C 0.88077 0.30321 0.77479 0.0
C495 C 0.8663 0.27983 0.76247 0.0
C496 C 0.94047 0.25739 0.80477 0.0
C497 C 0.91367 0.28048 0.78323 0.0
C498 C 0.96061 0.25836 0.82093 0.0
C499 C 0.97756 0.28143 0.82884 0.0
C500 C 0.93696 0.27981 0.79696 0.0
C501 C 0.97436 0.30292 0.81924 0.0
C502 C 0.90449 0.30363 0.78496 0.0
C503 C 0.87693 0.25734 0.75986 0.0
N504 N 0.95415 0.30173 0.80416 0.0
N505 N 0.89977 0.25815 0.7705 0.0
H506 H 0.49612 0.89681 0.55965 0.0
H507 H 0.54284 0.86411 0.42255 0.0
H508 H 0.48904 0.94504 0.50765 0.0
H509 H 0.51579 0.80489 0.46277 0.0
H510 H 0.52896 0.89607 0.45561 0.0
H511 H 0.50897 0.86454 0.52617 0.0
C512 C 0.49729 0.90054 0.54114 0.0
C513 C 0.49155 0.9235 0.53628 0.0
C514 C 0.52605 0.87605 0.45711 0.0
C515 C 0.50646 0.88703 0.49815 0.0
C516 C 0.53409 0.85786 0.43837 0.0
C517 C 0.53044 0.83182 0.43994 0.0
C518 C 0.51477 0.86821 0.47775 0.0
C519 C 0.51887 0.82475 0.46078 0.0
C520 C 0.50451 0.88215 0.52209 0.0
C521 C 0.4932 0.92746 0.51202 0.0
N522 N 0.5116 0.84288 0.47898 0.0
N523 N 0.50075 0.90947 0.49384 0.0
H524 H 0.22959 0.31245 0.8111 0.0
H525 H 0.10441 0.26371 0.87719 0.0
H526 H 0.21617 0.24121 0.83665 0.0
H527 H 0.11818 0.33563 0.8525 0.0
H528 H 0.14637 0.25641 0.86486 0.0
H529 H 0.19003 0.32283 0.82873 0.0
C530 C 0.21836 0.29921 0.82076 0.0
C531 C 0.22588 0.27608 0.82267 0.0
C532 C 0.14027 0.27385 0.86224 0.0
C533 C 0.18075 0.28742 0.84244 0.0
C534 C 0.11629 0.27802 0.86927 0.0
C535 C 0.10771 0.30025 0.86574 0.0
C536 C 0.15578 0.292 0.85154 0.0
C537 C 0.12396 0.31817 0.85547 0.0
C538 C 0.19581 0.30504 0.83072 0.0
C539 C 0.21084 0.25931 0.83501 0.0
N540 N 0.14716 0.3136 0.84863 0.0
N541 N 0.18886 0.26525 0.84436 0.0
H542 H 0.60395 0.6723 0.53172 0.0
H543 H 0.51261 0.68507 0.42404 0.0
H544 H 0.52947 0.62825 0.51632 0.0
H545 H 0.59026 0.72191 0.43258 0.0
H546 H 0.5202 0.66005 0.4545 0.0
H547 H 0.60135 0.68682 0.49264 0.0
C548 C 0.58728 0.66531 0.51976 0.0
C549 C 0.56688 0.64915 0.52695 0.0
C550 C 0.53571 0.67332 0.4495 0.0
C551 C 0.56348 0.66588 0.48278 0.0
C552 C 0.53138 0.68762 0.43207 0.0
C553 C 0.55076 0.70582 0.42598 0.0
C554 C 0.55952 0.67751 0.46126 0.0
C555 C 0.57474 0.70816 0.43683 0.0
C556 C 0.58574 0.67361 0.49755 0.0
C557 C 0.54557 0.64072 0.5112 0.0
N558 N 0.57836 0.69448 0.45426 0.0
N559 N 0.54429 0.64942 0.48994 0.0
H560 H 0.82249 0.82449 0.75593 0.0
H561 H 0.96847 0.8194 0.74542 0.0
H562 H 0.87205 0.82897 0.81845 0.0
H563 H 0.92211 0.82705 0.68469 0.0
H564 H 0.93376 0.82545 0.77286 0.0
H565 H 0.85896 0.82846 0.73 0.0
C566 C 0.84105 0.82673 0.7643 0.0
C567 C 0.84417 0.82604 0.78934 0.0
C568 C 0.93122 0.82605 0.75358 0.0
C569 C 0.88596 0.83016 0.7597 0.0
C570 C 0.95105 0.82255 0.73787 0.0
C571 C 0.94816 0.82248 0.71265 0.0
C572 C 0.90816 0.82924 0.744 0.0
C573 C 0.92517 0.82685 0.70399 0.0
C574 C 0.86187 0.82885 0.74946 0.0
C575 C 0.86869 0.82881 0.79912 0.0
N576 N 0.90597 0.82977 0.71958 0.0
N577 N 0.88857 0.83047 0.78425 0.0
H578 H 0.08476 0.9084 0.51031 0.0
H579 H 0.9758 0.86413 0.59661 0.0
H580 H 0.01024 0.92616 0.50759 0.0
H581 H 0.05309 0.85905 0.61046 0.0
H582 H 0.98895 0.88904 0.56541 0.0
H583 H 0.07474 0.8922 0.54826 0.0
C584 C 0.06642 0.90914 0.51798 0.0
C585 C 0.04818 0.91842 0.50608 0.0
C586 C 0.00313 0.88277 0.57541 0.0
C587 C 0.03652 0.89991 0.5489 0.0
C588 C 0.99561 0.8685 0.59323 0.0
C589 C 0.01337 0.85935 0.60598 0.0
C590 C 0.0286 0.88761 0.56993 0.0
C591 C 0.03881 0.86575 0.601 0.0
C592 C 0.0607 0.89996 0.53956 0.0
C593 C 0.0247 0.91903 0.5164 0.0
N594 N 0.04566 0.8792 0.58307 0.0
N595 N 0.01945 0.90968 0.53713 0.0
H596 H 0.18884 0.78531 0.77234 0.0
H597 H 0.09814 0.8241 0.67699 0.0
H598 H 0.21326 0.80356 0.70302 0.0
H599 H 0.07292 0.79096 0.7392 0.0
H600 H 0.14169 0.82474 0.68995 0.0
H601 H 0.14759 0.79545 0.76419 0.0
C602 C 0.18551 0.79184 0.75555 0.0
C603 C 0.20417 0.79366 0.73827 0.0
C604 C 0.12659 0.81761 0.70088 0.0
C605 C 0.15718 0.80491 0.72859 0.0
C606 C 0.10177 0.81735 0.69357 0.0
C607 C 0.0819 0.80721 0.7069 0.0
C608 C 0.13148 0.80785 0.72175 0.0
C609 C 0.08765 0.79868 0.72821 0.0
C610 C 0.162 0.79752 0.75084 0.0
C611 C 0.19914 0.80199 0.71672 0.0
N612 N 0.11187 0.79906 0.73488 0.0
N613 N 0.17597 0.80718 0.71236 0.0
H614 H 0.9886 0.62808 0.50823 0.0
H615 H 0.00014 0.70872 0.64765 0.0
H616 H 0.97404 0.59278 0.57117 0.0
H617 H 0.98854 0.74187 0.5847 0.0
H618 H 0.99715 0.66647 0.61988 0.0
H619 H 0.99597 0.67058 0.5362 0.0
C620 C 0.98734 0.6293 0.52797 0.0
C621 C 0.98062 0.60699 0.53746 0.0
C622 C 0.99526 0.68302 0.6122 0.0
C623 C 0.98884 0.65532 0.56943 0.0
C624 C 0.99696 0.70713 0.62801 0.0
C625 C 0.99443 0.72884 0.6185 0.0
C626 C 0.99135 0.68067 0.58667 0.0
C627 C 0.9904 0.72563 0.59287 0.0
C628 C 0.99132 0.6535 0.54387 0.0
C629 C 0.97898 0.60959 0.56315 0.0
N630 N 0.98907 0.70202 0.57784 0.0
N631 N 0.98303 0.63333 0.57826 0.0
H632 H 0.78234 0.83629 0.28044 0.0
H633 H 0.87117 0.95594 0.24314 0.0
H634 H 0.84147 0.83022 0.22833 0.0
H635 H 0.82572 0.96469 0.30746 0.0
H636 H 0.85517 0.90994 0.23405 0.0
H637 H 0.79401 0.88343 0.28831 0.0
C638 C 0.79781 0.84482 0.27076 0.0
C639 C 0.81081 0.82925 0.25354 0.0
C640 C 0.84856 0.92189 0.25011 0.0
C641 C 0.82387 0.88296 0.2621 0.0
C642 C 0.85761 0.94824 0.25526 0.0
C643 C 0.85 0.96421 0.27627 0.0
C644 C 0.83174 0.91125 0.26605 0.0
C645 C 0.83219 0.95307 0.29112 0.0
C646 C 0.80433 0.87168 0.27513 0.0
C647 C 0.83054 0.84138 0.24136 0.0
N648 N 0.82379 0.92718 0.28584 0.0
N649 N 0.83638 0.86742 0.24582 0.0
H650 H 0.8063 0.20839 0.26864 0.0
H651 H 0.81992 0.09728 0.34175 0.0
H652 H 0.75814 0.18956 0.32675 0.0
H653 H 0.86364 0.10929 0.27867 0.0
H654 H 0.79881 0.13281 0.33766 0.0
H655 H 0.82893 0.17363 0.27285 0.0
C656 C 0.80043 0.19694 0.28223 0.0
C657 C 0.78032 0.20201 0.29742 0.0
C658 C 0.81302 0.12773 0.32469 0.0
C659 C 0.80627 0.1624 0.30249 0.0
C660 C 0.82514 0.10743 0.32704 0.0
C661 C 0.84355 0.10023 0.31049 0.0
C662 C 0.81933 0.14107 0.30566 0.0
C663 C 0.84952 0.11415 0.29181 0.0
C664 C 0.81343 0.17718 0.28469 0.0
C665 C 0.77377 0.18671 0.31492 0.0
N666 N 0.83742 0.13391 0.28988 0.0
N667 N 0.78669 0.16766 0.31694 0.0
H668 H 0.38929 0.05796 0.00952 0.0
H669 H 0.30923 0.93168 0.04371 0.0
H670 H 0.42215 0.99771 0.03102 0.0
H671 H 0.27635 0.98745 0.01418 0.0
H672 H 0.3505 0.95799 0.04332 0.0
H673 H 0.3476 0.03454 0.01497 0.0
C674 C 0.38772 0.03987 0.01554 0.0
C675 C 0.40921 0.02971 0.01973 0.0
C676 C 0.33425 0.96454 0.03705 0.0
C677 C 0.36158 0.00275 0.02588 0.0
C678 C 0.31063 0.94957 0.03734 0.0
C679 C 0.28925 0.95724 0.02877 0.0
C680 C 0.33658 0.9874 0.02816 0.0
C681 C 0.29229 0.98067 0.02082 0.0
C682 C 0.36393 0.02647 0.01855 0.0
C683 C 0.40607 0.00606 0.02725 0.0
N684 N 0.31553 0.99484 0.02058 0.0
N685 N 0.3827 0.99338 0.03006 0.0
H686 H 0.22715 0.36653 0.2845 0.0
H687 H 0.24955 0.51981 0.32964 0.0
H688 H 0.28622 0.40971 0.33621 0.0
H689 H 0.19189 0.47781 0.27549 0.0
H690 H 0.26534 0.47998 0.32946 0.0
H691 H 0.21621 0.40714 0.27783 0.0
C692 C 0.23808 0.38466 0.29406 0.0
C693 C 0.25763 0.38505 0.31078 0.0
C694 C 0.24934 0.47943 0.31747 0.0
C695 C 0.24507 0.43135 0.30376 0.0
C696 C 0.24027 0.50221 0.31758 0.0
C697 C 0.21922 0.50214 0.30269 0.0
C698 C 0.23722 0.45625 0.30249 0.0
C699 C 0.20811 0.47875 0.28734 0.0
C700 C 0.2318 0.40779 0.29037 0.0
C701 C 0.2711 0.4088 0.32304 0.0
N702 N 0.21711 0.4567 0.28778 0.0
N703 N 0.26445 0.43105 0.31942 0.0
H704 H 0.13514 0.9831 0.45239 0.0
H705 H 0.21055 0.1235 0.51188 0.0
H706 H 0.10016 0.04707 0.48709 0.0
H707 H 0.244 0.06608 0.4627 0.0
H708 H 0.17104 0.09349 0.50755 0.0
H709 H 0.17634 0.01095 0.46107 0.0
C710 C 0.13621 0.0029 0.46218 0.0
C711 C 0.11431 0.01292 0.46895 0.0
C712 C 0.18701 0.08741 0.49771 0.0
C713 C 0.16109 0.04477 0.4787 0.0
C714 C 0.20962 0.10455 0.50017 0.0
C715 C 0.23063 0.09737 0.4875 0.0
C716 C 0.18529 0.0628 0.48257 0.0
C717 C 0.22824 0.07249 0.47266 0.0
C718 C 0.15964 0.0188 0.46692 0.0
C719 C 0.11662 0.03872 0.48135 0.0
N720 N 0.20594 0.05607 0.47058 0.0
N721 N 0.13958 0.05377 0.48576 0.0
H722 H 0.75437 0.22944 0.72205 0.0
H723 H 0.7277 0.12505 0.80647 0.0
H724 H 0.79414 0.2354 0.79128 0.0
H725 H 0.67259 0.13211 0.75289 0.0
H726 H 0.75425 0.16345 0.79817 0.0
H727 H 0.72533 0.19223 0.73061 0.0
C728 C 0.75691 0.22307 0.73907 0.0
C729 C 0.77702 0.23529 0.75574 0.0
C730 C 0.73631 0.15665 0.78827 0.0
C731 C 0.74421 0.1927 0.76543 0.0
C732 C 0.72118 0.13464 0.79292 0.0
C733 C 0.69785 0.12535 0.78039 0.0
C734 C 0.72825 0.16938 0.77074 0.0
C735 C 0.6904 0.13867 0.76305 0.0
C736 C 0.74042 0.2018 0.74389 0.0
C737 C 0.7794 0.22616 0.77752 0.0
N738 N 0.70561 0.15997 0.75864 0.0
N739 N 0.76339 0.20535 0.7816 0.0
H740 H 0.41556 0.04354 0.58999 0.0
H741 H 0.36717 0.08293 0.46887 0.0
H742 H 0.42381 0.00221 0.51586 0.0
H743 H 0.35613 0.12263 0.54318 0.0
H744 H 0.39321 0.0571 0.48557 0.0
H745 H 0.3989 0.07638 0.57315 0.0
C746 C 0.41417 0.04169 0.57014 0.0
C747 C 0.42095 0.02039 0.55417 0.0
C748 C 0.38532 0.07164 0.49823 0.0
C749 C 0.40173 0.0574 0.53476 0.0
C750 C 0.37048 0.08646 0.4887 0.0
C751 C 0.35922 0.10479 0.50467 0.0
C752 C 0.38886 0.07507 0.52394 0.0
C753 C 0.36429 0.1086 0.53018 0.0
C754 C 0.40463 0.06033 0.56052 0.0
C755 C 0.41874 0.01853 0.52865 0.0
N756 N 0.37853 0.09367 0.53904 0.0
N757 N 0.40913 0.03674 0.51969 0.0
H758 H 0.59304 0.54494 0.60551 0.0
H759 H 0.66546 0.47926 0.49051 0.0
H760 H 0.58553 0.55911 0.53205 0.0
H761 H 0.66364 0.45697 0.56117 0.0
H762 H 0.63649 0.50878 0.50535 0.0
H763 H 0.61917 0.51299 0.58962 0.0
C764 C 0.59665 0.54117 0.58596 0.0
C765 C 0.58686 0.55469 0.57008 0.0
C766 C 0.6423 0.49734 0.51758 0.0
C767 C 0.61733 0.5183 0.55181 0.0
C768 C 0.65887 0.48047 0.50913 0.0
C769 C 0.66706 0.46566 0.52466 0.0
C770 C 0.63397 0.49961 0.54182 0.0
C771 C 0.65783 0.468 0.54857 0.0
C772 C 0.61173 0.52297 0.57693 0.0
C773 C 0.59281 0.54937 0.54504 0.0
N774 N 0.6419 0.48478 0.55646 0.0
N775 N 0.60769 0.53162 0.5367 0.0
H776 H 0.73784 0.30745 0.32313 0.0
H777 H 0.72038 0.32046 0.46686 0.0
H778 H 0.72769 0.24165 0.35769 0.0
H779 H 0.70591 0.37848 0.42783 0.0
H780 H 0.72251 0.29095 0.42721 0.0
H781 H 0.72581 0.33366 0.36123 0.0
C782 C 0.73279 0.29837 0.33857 0.0
C783 C 0.73401 0.27225 0.33714 0.0
C784 C 0.71851 0.31001 0.42733 0.0
C785 C 0.72069 0.30244 0.38111 0.0
C786 C 0.71728 0.32687 0.44997 0.0
C787 C 0.71318 0.35207 0.45068 0.0
C788 C 0.71602 0.31854 0.40526 0.0
C789 C 0.70918 0.35927 0.42819 0.0
C790 C 0.726 0.31343 0.36039 0.0
C791 C 0.72762 0.2618 0.35804 0.0
N792 N 0.71109 0.34273 0.40639 0.0
N793 N 0.72149 0.27697 0.37921 0.0
H794 H 0.56162 0.03295 0.97283 0.0
H795 H 0.57979 0.07594 0.84306 0.0
H796 H 0.50568 0.06236 0.93679 0.0
H797 H 0.63768 0.04997 0.88027 0.0
H798 H 0.55359 0.07388 0.87862 0.0
H799 H 0.59108 0.04199 0.94074 0.0
C800 C 0.55577 0.04169 0.95829 0.0
C801 C 0.53144 0.04706 0.95724 0.0
C802 C 0.57208 0.06878 0.87911 0.0
C803 C 0.56456 0.05705 0.92047 0.0
C804 C 0.58708 0.06992 0.85876 0.0
C805 C 0.61095 0.06294 0.85856 0.0
C806 C 0.58089 0.06045 0.89944 0.0
C807 C 0.61938 0.05544 0.87955 0.0
C808 C 0.57247 0.04676 0.93997 0.0
C809 C 0.52444 0.05809 0.9381 0.0
N810 N 0.6043 0.05422 0.89906 0.0
N811 N 0.54088 0.06259 0.92032 0.0
H812 H 0.32488 0.25743 0.34272 0.0
H813 H 0.29145 0.23319 0.47773 0.0
H814 H 0.29135 0.31011 0.39719 0.0
H815 H 0.3253 0.18102 0.42298 0.0
H816 H 0.29285 0.26248 0.44926 0.0
H817 H 0.32652 0.23006 0.37251 0.0
C818 C 0.31803 0.26336 0.36103 0.0
C819 C 0.30806 0.28621 0.36748 0.0
C820 C 0.30008 0.24469 0.44352 0.0
C821 C 0.3096 0.25467 0.40168 0.0
C822 C 0.29935 0.22794 0.4598 0.0
C823 C 0.30818 0.2045 0.45273 0.0
C824 C 0.30967 0.23798 0.41995 0.0
C825 C 0.31823 0.19882 0.42924 0.0
C826 C 0.31886 0.24763 0.37801 0.0
C827 C 0.29899 0.29258 0.39133 0.0
N828 N 0.31859 0.21538 0.41368 0.0
N829 N 0.29998 0.2769 0.40757 0.0
H830 H 0.51053 0.5407 0.9512 0.0
H831 H 0.45671 0.52276 0.81416 0.0
H832 H 0.5143 0.47368 0.89411 0.0
H833 H 0.41822 0.56063 0.87572 0.0
H834 H 0.48549 0.51276 0.84309 0.0
H835 H 0.48302 0.5554 0.92349 0.0
C836 C 0.50551 0.52915 0.93284 0.0
C837 C 0.51444 0.50593 0.92483 0.0
C838 C 0.47084 0.5234 0.85025 0.0
C839 C 0.48383 0.52275 0.89323 0.0
C840 C 0.45445 0.5293 0.83378 0.0
C841 C 0.43479 0.54237 0.84252 0.0
C842 C 0.46788 0.53088 0.87571 0.0
C843 C 0.43299 0.55037 0.8682 0.0
C844 C 0.48987 0.53748 0.91717 0.0
C845 C 0.50756 0.49157 0.90097 0.0
N846 N 0.44935 0.54444 0.88398 0.0
N847 N 0.49281 0.50032 0.88592 0.0
H848 H 0.81788 0.71752 0.19508 0.0
H849 H 0.76518 0.71802 0.05993 0.0
H850 H 0.77507 0.77303 0.1784 0.0
H851 H 0.8155 0.66732 0.07259 0.0
H852 H 0.76795 0.73729 0.10383 0.0
H853 H 0.81612 0.69727 0.15086 0.0
C854 C 0.80804 0.72534 0.18213 0.0
C855 C 0.79678 0.74708 0.19033 0.0
C856 C 0.77849 0.72201 0.09709 0.0
C857 C 0.79476 0.72423 0.14 0.0
C858 C 0.77692 0.71099 0.07196 0.0
C859 C 0.79012 0.69102 0.06258 0.0
C860 C 0.79328 0.71297 0.11312 0.0
C861 C 0.80506 0.68273 0.07908 0.0
C862 C 0.80717 0.71391 0.15694 0.0
C863 C 0.78436 0.75656 0.17283 0.0
N864 N 0.80617 0.69369 0.10363 0.0
N865 N 0.7837 0.74509 0.14856 0.0
H866 H 0.01084 0.11679 0.13743 0.0
H867 H 0.95028 0.01146 0.21156 0.0
H868 H 0.00073 0.03485 0.10759 0.0
H869 H 0.9343 0.08894 0.22834 0.0
H870 H 0.9726 0.02093 0.17547 0.0
H871 H 0.98618 0.10819 0.17277 0.0
C872 C 0.00336 0.09702 0.13816 0.0
C873 C 0.00805 0.07651 0.11944 0.0
C874 C 0.96414 0.03586 0.18695 0.0
C875 C 0.98022 0.06664 0.1601 0.0
C876 C 0.95146 0.03051 0.20763 0.0
C877 C 0.94044 0.04948 0.22299 0.0
C878 C 0.96619 0.06049 0.18168 0.0
C879 C 0.94248 0.07377 0.21691 0.0
C880 C 0.98935 0.09217 0.1584 0.0
C881 C 0.99815 0.05129 0.12173 0.0
N882 N 0.95532 0.07868 0.19677 0.0
N883 N 0.98486 0.0471 0.14171 0.0
H884 H 0.3004 0.8186 0.18434 0.0
H885 H 0.26271 0.81839 0.0457 0.0
H886 H 0.3155 0.7616 0.12176 0.0
H887 H 0.23415 0.86665 0.10773 0.0
H888 H 0.27877 0.795 0.07376 0.0
H889 H 0.27273 0.83415 0.15764 0.0
C890 C 0.29735 0.80902 0.16507 0.0
C891 C 0.31 0.78884 0.15506 0.0
C892 C 0.26873 0.81047 0.08132 0.0
C893 C 0.27908 0.80668 0.12445 0.0
C894 C 0.25958 0.82388 0.06528 0.0
C895 C 0.24729 0.84464 0.07445 0.0
C896 C 0.26606 0.81813 0.10689 0.0
C897 C 0.24356 0.85076 0.09994 0.0
C898 C 0.28167 0.8179 0.14984 0.0
C899 C 0.30588 0.77717 0.13005 0.0
N900 N 0.2533 0.83783 0.11537 0.0
N901 N 0.29098 0.78645 0.11551 0.0
H902 H 0.02219 0.46075 0.12902 0.0
H903 H 0.08834 0.58197 0.2308 0.0
H904 H 0.00356 0.53704 0.13956 0.0
H905 H 0.11139 0.50758 0.21948 0.0
H906 H 0.05651 0.56495 0.19787 0.0
H907 H 0.05436 0.47668 0.16236 0.0
C908 C 0.02489 0.48084 0.13829 0.0
C909 C 0.01009 0.49758 0.13151 0.0
C910 C 0.06849 0.55227 0.20251 0.0
C911 C 0.0467 0.51584 0.16973 0.0
C912 C 0.08672 0.562 0.22137 0.0
C913 C 0.1026 0.54617 0.22791 0.0
C914 C 0.06597 0.52645 0.18998 0.0
C915 C 0.09956 0.52044 0.215 0.0
C916 C 0.04318 0.48988 0.15738 0.0
C917 C 0.01421 0.52333 0.14438 0.0
N918 N 0.08155 0.51135 0.19661 0.0
N919 N 0.0321 0.53163 0.16281 0.0
H920 H 0.41787 0.7892 0.23874 0.0
H921 H 0.48753 0.71995 0.32435 0.0
H922 H 0.39827 0.70785 0.23766 0.0
H923 H 0.51937 0.79359 0.30831 0.0
H924 H 0.45569 0.71432 0.29138 0.0
H925 H 0.45629 0.7906 0.26248 0.0
C926 C 0.42181 0.77152 0.24308 0.0
C927 C 0.40454 0.74845 0.23645 0.0
C928 C 0.46986 0.73154 0.29485 0.0
C929 C 0.44832 0.75008 0.2642 0.0
C930 C 0.48803 0.73479 0.31371 0.0
C931 C 0.50599 0.75741 0.31931 0.0
C932 C 0.46942 0.75122 0.28174 0.0
C933 C 0.50581 0.77591 0.30477 0.0
C934 C 0.44373 0.77237 0.25678 0.0
C935 C 0.41066 0.72623 0.24291 0.0
N936 N 0.48758 0.77258 0.28691 0.0
N937 N 0.43184 0.72768 0.25671 0.0
H938 H 0.02105 0.46564 0.04285 0.0
H939 H 0.97744 0.32551 0.95842 0.0
H940 H 0.94723 0.42113 0.04476 0.0
H941 H 0.04312 0.3777 0.94465 0.0
H942 H 0.96716 0.3593 0.99172 0.0
H943 H 0.03043 0.4328 0.00807 0.0
C944 C 0.00679 0.44897 0.03584 0.0
C945 C 0.98336 0.44602 0.04669 0.0
C946 C 0.98379 0.36336 0.98137 0.0
C947 C 0.99398 0.40833 0.00707 0.0
C948 C 0.98976 0.34403 0.96244 0.0
C949 C 0.01121 0.34876 0.94872 0.0
C950 C -0.0005 0.38752 0.98681 0.0
C951 C 0.02639 0.37319 0.95471 0.0
C952 C 0.01212 0.43029 0.01597 0.0
C953 C 0.96546 0.42421 0.03679 0.0
N954 N 0.02029 0.39161 0.97336 0.0
N955 N 0.97121 0.40607 0.01765 0.0
H956 H 0.75187 0.79927 0.30379 0.0
H957 H 0.62989 0.74976 0.37374 0.0
H958 H 0.73671 0.72444 0.32228 0.0
H959 H 0.64296 0.82237 0.35031 0.0
H960 H 0.67156 0.74252 0.36014 0.0
H961 H 0.71478 0.81052 0.32596 0.0
C962 C 0.74087 0.78542 0.31293 0.0
C963 C 0.74712 0.76101 0.31144 0.0
C964 C 0.66538 0.76013 0.35817 0.0
C965 C 0.70465 0.77338 0.33634 0.0
C966 C 0.64161 0.7643 0.36596 0.0
C967 C 0.63283 0.78659 0.36293 0.0
C968 C 0.68048 0.77838 0.34726 0.0
C969 C 0.64886 0.80481 0.35282 0.0
C970 C 0.71968 0.79175 0.32547 0.0
C971 C 0.73235 0.74352 0.32323 0.0
N972 N 0.67182 0.80021 0.34519 0.0
N973 N 0.71162 0.74997 0.3351 0.0
H974 H 0.07488 0.16249 0.01726 0.0
H975 H 0.98439 0.19851 0.92208 0.0
H976 H -3e-05 0.12128 0.99714 0.0
H977 H 0.06326 0.23064 0.93104 0.0
H978 H 0.99116 0.16698 0.94622 0.0
H979 H 0.07296 0.18428 0.98259 0.0
C980 C 0.05833 0.15754 0.00503 0.0
C981 C 0.0376 0.1401 0.00974 0.0
C982 C 0.0071 0.18068 0.94267 0.0
C983 C 0.03487 0.16529 0.97076 0.0
C984 C 0.00322 0.19874 0.92891 0.0
C985 C 0.02324 0.21741 0.92479 0.0
C986 C 0.03113 0.1815 0.95279 0.0
C987 C 0.04727 0.21664 0.9339 0.0
C988 C 0.05715 0.17003 0.98537 0.0
C989 C 0.01638 0.13455 0.99385 0.0
N990 N 0.05049 0.19925 0.94782 0.0
N991 N 0.01542 0.14736 0.97522 0.0
H992 H 0.34647 0.36142 0.29306 0.0
H993 H 0.45959 0.29349 0.23811 0.0
H994 H 0.35303 0.28329 0.29637 0.0
H995 H 0.43115 0.34658 0.20099 0.0
H996 H 0.42554 0.29658 0.2668 0.0
H997 H 0.38156 0.36223 0.26483 0.0
C998 C 0.35514 0.34446 0.2879 0.0
C999 C 0.34695 0.32241 0.29758 0.0
C1000 C 0.42685 0.30765 0.25244 0.0
C1001 C 0.38732 0.32357 0.26594 0.0
C1002 C 0.44636 0.30604 0.23614 0.0
C1003 C 0.44813 0.31965 0.21698 0.0
C1004 C 0.40911 0.32327 0.24988 0.0
C1005 C 0.43035 0.3356 0.21538 0.0
C1006 C 0.37521 0.34503 0.27191 0.0
C1007 C 0.35909 0.30107 0.29021 0.0
N1008 N 0.41152 0.337 0.23166 0.0
N1009 N 0.37873 0.3023 0.2751 0.0
H1010 H 0.50367 0.4438 0.02129 0.0
H1011 H 0.54913 0.35973 0.11092 0.0
H1012 H 0.56918 0.40791 0.00848 0.0
H1013 H 0.4741 0.3763 0.10711 0.0
H1014 H 0.56154 0.38615 0.08021 0.0
H1015 H 0.49766 0.42816 0.05979 0.0
C1016 C 0.51699 0.43294 0.02691 0.0
C1017 C 0.53682 0.42692 0.01195 0.0
C1018 C 0.54248 0.38424 0.08641 0.0
C1019 C 0.53006 0.4088 0.05552 0.0
C1020 C 0.53543 0.36933 0.10399 0.0
C1021 C 0.51049 0.36565 0.11131 0.0
C1022 C 0.52451 0.39575 0.07645 0.0
C1023 C 0.49345 0.3784 0.10173 0.0
C1024 C 0.51355 0.42396 0.04876 0.0
C1025 C 0.55364 0.4128 0.01973 0.0
N1026 N 0.50073 0.39277 0.08472 0.0
N1027 N 0.54977 0.40398 0.041 0.0
H1028 H 0.67747 0.25734 0.26851 0.0
H1029 H 0.59893 0.32039 0.18154 0.0
H1030 H 0.7084 0.28533 0.20553 0.0
H1031 H 0.56656 0.27821 0.2355 0.0
H1032 H 0.64078 0.315 0.1946 0.0
H1033 H 0.63825 0.27204 0.26107 0.0
C1034 C 0.67595 0.26683 0.25322 0.0
C1035 C 0.69584 0.27012 0.23748 0.0
C1036 C 0.6245 0.3072 0.20373 0.0
C1037 C 0.65126 0.2868 0.22871 0.0
C1038 C 0.60066 0.3104 0.1964 0.0
C1039 C 0.57926 0.29951 0.20731 0.0
C1040 C 0.62683 0.29322 0.2222 0.0
C1041 C 0.58253 0.28668 0.22641 0.0
C1042 C 0.65363 0.27517 0.24894 0.0
C1043 C 0.69323 0.28247 0.21795 0.0
N1044 N 0.60582 0.28377 0.23313 0.0
N1045 N 0.6712 0.29028 0.21397 0.0
H1046 H 0.43766 0.12214 0.0204 0.0
H1047 H 0.51896 0.22016 0.1308 0.0
H1048 H 0.50629 0.10813 0.05067 0.0
H1049 H 0.46054 0.24159 0.09019 0.0
H1050 H 0.51441 0.17903 0.10145 0.0
H1051 H 0.44584 0.16619 0.04506 0.0
C1052 C 0.45461 0.12848 0.03204 0.0
C1053 C 0.47127 0.11147 0.03363 0.0
C1054 C 0.50266 0.19275 0.09885 0.0
C1055 C 0.48059 0.16164 0.06205 0.0
C1056 C 0.50513 0.21622 0.11571 0.0
C1057 C 0.48997 0.23432 0.11307 0.0
C1058 C 0.48471 0.18713 0.07928 0.0
C1059 C 0.47255 0.22819 0.09299 0.0
C1060 C 0.45927 0.1536 0.04607 0.0
C1061 C 0.49304 0.12067 0.0488 0.0
N1062 N 0.47027 0.20501 0.07696 0.0
N1063 N 0.49691 0.14504 0.06266 0.0
H1064 H 0.26659 0.34631 0.78432 0.0
H1065 H 0.35577 0.45899 0.73689 0.0
H1066 H 0.33101 0.33589 0.73968 0.0
H1067 H 0.31264 0.47426 0.8023 0.0
H1068 H 0.33909 0.41326 0.73175 0.0
H1069 H 0.27714 0.3929 0.78655 0.0
C1070 C 0.28295 0.35372 0.77507 0.0
C1071 C 0.29783 0.337 0.76165 0.0
C1072 C 0.33309 0.42665 0.74711 0.0
C1073 C 0.30947 0.39007 0.7636 0.0
C1074 C 0.34249 0.45282 0.75 0.0
C1075 C 0.3359 0.47052 0.77029 0.0
C1076 C 0.31689 0.418 0.76456 0.0
C1077 C 0.3184 0.46128 0.78651 0.0
C1078 C 0.2888 0.38027 0.7762 0.0
C1079 C 0.3186 0.3478 0.74977 0.0
N1080 N 0.30965 0.43556 0.78343 0.0
N1081 N 0.3237 0.37354 0.75095 0.0
H1082 H 0.30761 0.72233 0.76654 0.0
H1083 H 0.30959 0.60263 0.83078 0.0
H1084 H 0.25022 0.69608 0.81405 0.0
H1085 H 0.35813 0.61721 0.77158 0.0
H1086 H 0.28926 0.63855 0.82622 0.0
H1087 H 0.32757 0.68518 0.76879 0.0
C1088 C 0.29909 0.70868 0.77726 0.0
C1089 C 0.27732 0.71251 0.79032 0.0
C1090 C 0.30432 0.63391 0.81417 0.0
C1091 C 0.30025 0.67023 0.79325 0.0
C1092 C 0.31602 0.61343 0.81682 0.0
C1093 C 0.33561 0.60689 0.80154 0.0
C1094 C 0.31232 0.64819 0.7962 0.0
C1095 C 0.34307 0.62157 0.78374 0.0
C1096 C 0.31056 0.68756 0.77864 0.0
C1097 C 0.26726 0.69429 0.80411 0.0
N1098 N 0.33146 0.64161 0.7816 0.0
N1099 N 0.27886 0.67408 0.80531 0.0
H1100 H 0.90551 0.52521 0.47143 0.0
H1101 H 0.81354 0.44246 0.54786 0.0
H1102 H 0.9222 0.52606 0.54787 0.0
H1103 H 0.78738 0.47347 0.48845 0.0
H1104 H 0.85515 0.46835 0.5462 0.0
H1105 H 0.86363 0.50096 0.47499 0.0
C1106 C 0.90034 0.52012 0.48892 0.0
C1107 C 0.91722 0.5275 0.50938 0.0
C1108 C 0.8402 0.46954 0.53367 0.0
C1109 C 0.86956 0.49981 0.51356 0.0
C1110 C 0.81652 0.45476 0.53455 0.0
C1111 C 0.79699 0.45582 0.51825 0.0
C1112 C 0.84445 0.48501 0.51604 0.0
C1113 C 0.80186 0.47213 0.50142 0.0
C1114 C 0.87644 0.50648 0.49099 0.0
C1115 C 0.9096 0.52072 0.53172 0.0
N1116 N 0.82517 0.48588 0.50058 0.0
N1117 N 0.88632 0.50703 0.53319 0.0
H1118 H 0.77953 0.90554 0.82667 0.0
H1119 H 0.6773 0.97124 0.7693 0.0
H1120 H 0.71901 0.86265 0.77652 0.0
H1121 H 0.7339 0.01225 0.82494 0.0
H1122 H 0.69551 0.93217 0.76728 0.0
H1123 H 0.76657 0.94578 0.82165 0.0
C1124 C 0.76378 0.90474 0.81424 0.0
C1125 C 0.75031 0.88103 0.80188 0.0
C1126 C 0.70404 0.94979 0.77979 0.0
C1127 C 0.73504 0.92664 0.79635 0.0
C1128 C 0.69368 0.97211 0.78091 0.0
C1129 C 0.70395 0.99501 0.79746 0.0
C1130 C 0.72487 0.9504 0.79527 0.0
C1131 C 0.72521 0.995 0.81205 0.0
C1132 C 0.75627 0.92761 0.81146 0.0
C1133 C 0.72989 0.88074 0.78621 0.0
N1134 N 0.73486 0.97305 0.8107 0.0
N1135 N 0.72272 0.90324 0.784 0.0
H1136 H 0.58526 0.55467 0.98352 0.0
H1137 H 0.72899 0.55788 0.95016 0.0
H1138 H 0.61611 0.48619 0.95437 0.0
H1139 H 0.70126 0.62223 0.99516 0.0
H1140 H 0.68748 0.53148 0.95018 0.0
H1141 H 0.62759 0.58003 0.98733 0.0
C1142 C 0.60102 0.54498 0.97819 0.0
C1143 C 0.59725 0.51835 0.96864 0.0
C1144 C 0.69055 0.55136 0.96011 0.0
C1145 C 0.6456 0.54717 0.97257 0.0
C1146 C 0.71418 0.56647 0.95998 0.0
C1147 C 0.7186 0.59232 0.97261 0.0
C1148 C 0.67116 0.56226 0.97276 0.0
C1149 C 0.69874 0.6024 0.98516 0.0
C1150 C 0.62515 0.55941 0.98036 0.0
C1151 C 0.61827 0.50666 0.96206 0.0
N1152 N 0.67589 0.58739 0.98482 0.0
N1153 N 0.64155 0.52119 0.9639 0.0
H1154 H 0.32484 0.72983 0.27102 0.0
H1155 H 0.19865 0.62699 0.23946 0.0
H1156 H 0.29272 0.70404 0.19677 0.0
H1157 H 0.24853 0.63222 0.30197 0.0
H1158 H 0.22836 0.66063 0.22596 0.0
H1159 H 0.2918 0.70005 0.28518 0.0
C1160 C 0.31077 0.71794 0.25767 0.0
C1161 C 0.31186 0.71904 0.23254 0.0
C1162 C 0.2327 0.65441 0.24264 0.0
C1163 C 0.27374 0.68515 0.2488 0.0
C1164 C 0.21578 0.63529 0.25041 0.0
C1165 C 0.22118 0.62673 0.27185 0.0
C1166 C 0.25495 0.66532 0.25665 0.0
C1167 C 0.24367 0.6381 0.28526 0.0
C1168 C 0.29191 0.70098 0.26581 0.0
C1169 C 0.29263 0.70378 0.21628 0.0
N1170 N 0.25969 0.65688 0.27748 0.0
N1171 N 0.27441 0.68728 0.22466 0.0
H1172 H 0.90563 0.49574 0.02885 0.0
H1173 H 0.84586 0.62187 0.02718 0.0
H1174 H 0.9059 0.55795 0.0919 0.0
H1175 H 0.8477 0.56181 0.9624 0.0
H1176 H 0.87021 0.59978 0.05036 0.0
H1177 H 0.88634 0.52032 0.00333 0.0
C1178 C 0.90167 0.51464 0.03719 0.0
C1179 C 0.90712 0.52499 0.06233 0.0
C1180 C 0.86548 0.59149 0.03102 0.0
C1181 C 0.88526 0.55305 0.03364 0.0
C1182 C 0.8516 0.60415 0.01775 0.0
C1183 C 0.84462 0.59362 0.99283 0.0
C1184 C 0.87232 0.56799 0.01939 0.0
C1185 C 0.85264 0.57061 0.98159 0.0
C1186 C 0.89074 0.52866 0.02271 0.0
C1187 C 0.90182 0.54944 0.07249 0.0
N1188 N 0.86589 0.55845 0.99501 0.0
N1189 N 0.89108 0.56263 0.05814 0.0
H1190 H 0.04519 0.01528 0.06279 0.0
H1191 H 0.17421 0.99413 -0.00075 0.0
H1192 H 0.09787 0.07784 0.04465 0.0
H1193 H 0.1373 0.94507 0.04571 0.0
H1194 H 0.14273 0.02208 0.00918 0.0
H1195 H 0.07514 0.98639 0.04986 0.0
C1196 C 0.06304 0.02303 0.05614 0.0
C1197 C 0.06909 0.04927 0.05526 0.0
C1198 C 0.14152 0.00517 0.01714 0.0
C1199 C 0.10325 0.01592 0.03981 0.0
C1200 C 0.15939 0.98914 0.01143 0.0
C1201 C 0.15839 0.96725 0.02172 0.0
C1202 C 0.12223 0.99904 0.03293 0.0
C1203 C 0.13884 0.96181 0.03746 0.0
C1204 C 0.08008 0.00643 0.04867 0.0
C1205 C 0.09224 0.05782 0.0456 0.0
N1206 N 0.12145 0.97754 0.04251 0.0
N1207 N 0.1085 0.04121 0.03831 0.0
loop_
_geom_bond_atom_site_label_1
_geom_bond_atom_site_label_2
_geom_bond_distance
_geom_bond_site_symmetry_2
_ccdc_geom_bond_type
H0 C3 0.929 . S
H1 C6 0.929 . S
H2 C8 0.930 . S
C3 H0 0.929 . S
C3 C4 1.398 . S
C3 C5 1.396 . S
C4 C3 1.398 . S
C4 C8 1.407 . S
C5 C3 1.396 . S
C5 C6 1.394 . S
C6 H1 0.929 . S
C6 C5 1.394 . S
C6 C7 1.382 . S
C7 C6 1.382 . S
C7 C8 1.392 . S
C7 N9 1.420 . S
C8 H2 0.930 . S
C8 C4 1.407 . S
C8 C7 1.392 . S
N9 C7 1.420 . S
N9 C10 1.244 . S
C10 N9 1.244 . S
H11 C14 0.929 . S
H12 C17 0.929 . S
H13 C19 0.930 . S
C14 H11 0.929 . S
C14 C15 1.398 . S
C14 C16 1.396 . S
C15 C14 1.398 . S
C15 C19 1.407 . S
C16 C14 1.396 . S
C16 C17 1.394 . S
C17 H12 0.929 . S
C17 C16 1.394 . S
C17 C18 1.382 . S
C18 C17 1.382 . S
C18 C19 1.392 . S
C18 N20 1.420 . S
C19 H13 0.930 . S
C19 C15 1.407 . S
C19 C18 1.392 . S
N20 C18 1.420 . S
N20 C21 1.244 . S
C21 N20 1.244 . S
H22 C25 0.929 . S
H23 C28 0.929 . S
H24 C30 0.930 . S
C25 H22 0.929 . S
C25 C26 1.398 . S
C25 C27 1.396 . S
C26 C25 1.398 . S
C26 C30 1.407 . S
C27 C25 1.396 . S
C27 C28 1.394 . S
C28 H23 0.929 . S
C28 C27 1.394 . S
C28 C29 1.382 . S
C29 C28 1.382 . S
C29 C30 1.392 . S
C29 N31 1.420 . S
C30 H24 0.930 . S
C30 C26 1.407 . S
C30 C29 1.392 . S
N31 C29 1.420 . S
N31 C32 1.244 . S
C32 N31 1.244 . S
H33 C36 0.929 . S
H34 C39 0.929 . S
H35 C41 0.930 . S
C36 H33 0.929 . S
C36 C37 1.398 . S
C36 C38 1.396 . S
C37 C36 1.398 . S
C37 C41 1.407 . S
C38 C36 1.396 . S
C38 C39 1.394 . S
C39 H34 0.929 . S
C39 C38 1.394 . S
C39 C40 1.382 . S
C40 C39 1.382 . S
C40 C41 1.392 . S
C40 N42 1.420 . S
C41 H35 0.930 . S
C41 C37 1.407 . S
C41 C40 1.392 . S
N42 C40 1.420 . S
N42 C43 1.244 . S
C43 N42 1.244 . S
H44 C47 0.929 . S
H45 C50 0.929 . S
H46 C52 0.930 . S
C47 H44 0.929 . S
C47 C48 1.398 . S
C47 C49 1.396 . S
C48 C47 1.398 . S
C48 C52 1.407 . S
C49 C47 1.396 . S
C49 C50 1.394 . S
C50 H45 0.929 . S
C50 C49 1.394 . S
C50 C51 1.382 . S
C51 C50 1.382 . S
C51 C52 1.392 . S
C51 N53 1.420 . S
C52 H46 0.930 . S
C52 C48 1.407 . S
C52 C51 1.392 . S
N53 C51 1.420 . S
N53 C54 1.244 . S
C54 N53 1.244 . S
H55 C58 0.929 . S
H56 C61 0.929 . S
H57 C63 0.930 . S
C58 H55 0.929 . S
C58 C59 1.398 . S
C58 C60 1.396 . S
C59 C58 1.398 . S
C59 C63 1.407 . S
C60 C58 1.396 . S
C60 C61 1.394 . S
C61 H56 0.929 . S
C61 C60 1.394 . S
C61 C62 1.382 . S
C62 C61 1.382 . S
C62 C63 1.392 . S
C62 N64 1.420 . S
C63 H57 0.930 . S
C63 C59 1.407 . S
C63 C62 1.392 . S
N64 C62 1.420 . S
N64 C65 1.244 . S
C65 N64 1.244 . S
H66 C69 0.929 . S
H67 C72 0.929 . S
H68 C74 0.930 . S
C69 H66 0.929 . S
C69 C70 1.398 . S
C69 C71 1.396 . S
C70 C69 1.398 . S
C70 C74 1.407 . S
C71 C69 1.396 . S
C71 C72 1.394 . S
C72 H67 0.929 . S
C72 C71 1.394 . S
C72 C73 1.382 . S
C73 C72 1.382 . S
C73 C74 1.392 . S
C73 N75 1.420 . S
C74 H68 0.930 . S
C74 C70 1.407 . S
C74 C73 1.392 . S
N75 C73 1.420 . S
N75 C76 1.244 . S
C76 N75 1.244 . S
H77 C80 0.929 . S
H78 C83 0.929 . S
H79 C85 0.930 . S
C80 H77 0.929 . S
C80 C81 1.398 . S
C80 C82 1.396 . S
C81 C80 1.398 . S
C81 C85 1.407 . S
C82 C80 1.396 . S
C82 C83 1.394 . S
C83 H78 0.929 . S
C83 C82 1.394 . S
C83 C84 1.382 . S
C84 C83 1.382 . S
C84 C85 1.392 . S
C84 N86 1.420 . S
C85 H79 0.930 . S
C85 C81 1.407 . S
C85 C84 1.392 . S
N86 C84 1.420 . S
N86 C87 1.244 . S
C87 N86 1.244 . S
H88 C91 0.929 . S
H89 C94 0.929 . S
H90 C96 0.930 . S
C91 H88 0.929 . S
C91 C92 1.398 . S
C91 C93 1.396 . S
C92 C91 1.398 . S
C92 C96 1.407 . S
C93 C91 1.396 . S
C93 C94 1.394 . S
C94 H89 0.929 . S
C94 C93 1.394 . S
C94 C95 1.382 . S
C95 C94 1.382 . S
C95 C96 1.392 . S
C95 N97 1.420 . S
C96 H90 0.930 . S
C96 C92 1.407 . S
C96 C95 1.392 . S
N97 C95 1.420 . S
N97 C98 1.244 . S
C98 N97 1.244 . S
H99 C102 0.929 . S
H100 C105 0.929 . S
H101 C107 0.930 . S
C102 H99 0.929 . S
C102 C103 1.398 . S
C102 C104 1.396 . S
C103 C102 1.398 . S
C103 C107 1.407 . S
C104 C102 1.396 . S
C104 C105 1.394 . S
C105 H100 0.929 . S
C105 C104 1.394 . S
C105 C106 1.382 . S
C106 C105 1.382 . S
C106 C107 1.392 . S
C106 N108 1.420 . S
C107 H101 0.930 . S
C107 C103 1.407 . S
C107 C106 1.392 . S
N108 C106 1.420 . S
N108 C109 1.244 . S
C109 N108 1.244 . S
H110 C113 0.929 . S
H111 C116 0.929 . S
H112 C118 0.930 . S
C113 H110 0.929 . S
C113 C114 1.398 . S
C113 C115 1.396 . S
C114 C113 1.398 . S
C114 C118 1.407 . S
C115 C113 1.396 . S
C115 C116 1.394 . S
C116 H111 0.929 . S
C116 C115 1.394 . S
C116 C117 1.382 . S
C117 C116 1.382 . S
C117 C118 1.392 . S
C117 N119 1.420 . S
C118 H112 0.930 . S
C118 C114 1.407 . S
C118 C117 1.392 . S
N119 C117 1.420 . S
N119 C120 1.244 . S
C120 N119 1.244 . S
H121 C124 0.929 . S
H122 C127 0.929 . S
H123 C129 0.930 . S
C124 H121 0.929 . S
C124 C125 1.398 . S
C124 C126 1.396 . S
C125 C124 1.398 . S
C125 C129 1.407 . S
C126 C124 1.396 . S
C126 C127 1.394 . S
C127 H122 0.929 . S
C127 C126 1.394 . S
C127 C128 1.382 . S
C128 C127 1.382 . S
C128 C129 1.392 . S
C128 N130 1.420 . S
C129 H123 0.930 . S
C129 C125 1.407 . S
C129 C128 1.392 . S
N130 C128 1.420 . S
N130 C131 1.244 . S
C131 N130 1.244 . S
H132 C135 0.929 . S
H133 C138 0.929 . S
H134 C140 0.930 . S
C135 H132 0.929 . S
C135 C136 1.398 . S
C135 C137 1.396 . S
C136 C135 1.398 . S
C136 C140 1.407 . S
C137 C135 1.396 . S
C137 C138 1.394 . S
C138 H133 0.929 . S
C138 C137 1.394 . S
C138 C139 1.382 . S
C139 C138 1.382 . S
C139 C140 1.392 . S
C139 N141 1.420 . S
C140 H134 0.930 . S
C140 C136 1.407 . S
C140 C139 1.392 . S
N141 C139 1.420 . S
N141 C142 1.244 . S
C142 N141 1.244 . S
H143 C146 0.929 . S
H144 C149 0.929 . S
H145 C151 0.930 . S
C146 H143 0.929 . S
C146 C147 1.398 . S
C146 C148 1.396 . S
C147 C146 1.398 . S
C147 C151 1.407 . S
C148 C146 1.396 . S
C148 C149 1.394 . S
C149 H144 0.929 . S
C149 C148 1.394 . S
C149 C150 1.382 . S
C150 C149 1.382 . S
C150 C151 1.392 . S
C150 N152 1.420 . S
C151 H145 0.930 . S
C151 C147 1.407 . S
C151 C150 1.392 . S
N152 C150 1.420 . S
N152 C153 1.244 . S
C153 N152 1.244 . S
H154 C157 0.929 . S
H155 C160 0.929 . S
H156 C162 0.930 . S
C157 H154 0.929 . S
C157 C158 1.398 . S
C157 C159 1.396 . S
C158 C157 1.398 . S
C158 C162 1.407 . S
C159 C157 1.396 . S
C159 C160 1.394 . S
C160 H155 0.929 . S
C160 C159 1.394 . S
C160 C161 1.382 . S
C161 C160 1.382 . S
C161 C162 1.392 . S
C161 N163 1.420 . S
C162 H156 0.930 . S
C162 C158 1.407 . S
C162 C161 1.392 . S
N163 C161 1.420 . S
N163 C164 1.244 . S
C164 N163 1.244 . S
H165 C168 0.929 . S
H166 C171 0.929 . S
H167 C173 0.930 . S
C168 H165 0.929 . S
C168 C169 1.398 . S
C168 C170 1.396 . S
C169 C168 1.398 . S
C169 C173 1.407 . S
C170 C168 1.396 . S
C170 C171 1.394 . S
C171 H166 0.929 . S
C171 C170 1.394 . S
C171 C172 1.382 . S
C172 C171 1.382 . S
C172 C173 1.392 . S
C172 N174 1.420 . S
C173 H167 0.930 . S
C173 C169 1.407 . S
C173 C172 1.392 . S
N174 C172 1.420 . S
N174 C175 1.244 . S
C175 N174 1.244 . S
O176 Cd177 2.223 . S
O176 C184 1.315 . S
Cd177 O176 2.223 . S
Cd177 O180 2.297 . S
Cd177 O181 2.439 . S
Cd177 O187 2.240 . S
Cd178 O179 2.240 . S
Cd178 O186 2.223 . S
Cd178 O188 2.297 . S
Cd178 O189 2.439 . S
O179 Cd178 2.240 . S
O179 C184 1.279 . S
O180 Cd177 2.297 . S
O180 C182 1.247 . S
O181 Cd177 2.439 . S
O181 C182 1.208 . S
C182 O180 1.247 . S
C182 O181 1.208 . S
C183 O188 1.247 . S
C183 O189 1.208 . S
C184 O176 1.315 . S
C184 O179 1.279 . S
C185 O186 1.315 . S
C185 O187 1.279 . S
O186 Cd178 2.223 . S
O186 C185 1.315 . S
O187 Cd177 2.240 . S
O187 C185 1.279 . S
O188 Cd178 2.297 . S
O188 C183 1.247 . S
O189 Cd178 2.439 . S
O189 C183 1.208 . S
O190 Cd191 2.223 . S
O190 C198 1.315 . S
Cd191 O190 2.223 . S
Cd191 O194 2.297 . S
Cd191 O195 2.439 . S
Cd191 O201 2.240 . S
Cd192 O193 2.240 . S
Cd192 O200 2.223 . S
Cd192 O202 2.297 . S
Cd192 O203 2.439 . S
O193 Cd192 2.240 . S
O193 C198 1.279 . S
O194 Cd191 2.297 . S
O194 C196 1.247 . S
O195 Cd191 2.439 . S
O195 C196 1.208 . S
C196 O194 1.247 . S
C196 O195 1.208 . S
C197 O202 1.247 . S
C197 O203 1.208 . S
C198 O190 1.315 . S
C198 O193 1.279 . S
C199 O200 1.315 . S
C199 O201 1.279 . S
O200 Cd192 2.223 . S
O200 C199 1.315 . S
O201 Cd191 2.240 . S
O201 C199 1.279 . S
O202 Cd192 2.297 . S
O202 C197 1.247 . S
O203 Cd192 2.439 . S
O203 C197 1.208 . S
O204 Cd205 2.223 1_556 S
O204 C212 1.315 . S
Cd205 O204 2.223 1_554 S
Cd205 O208 2.297 . S
Cd205 O209 2.439 . S
Cd205 O215 2.240 1_554 S
Cd206 O207 2.240 . S
Cd206 O214 2.223 . S
Cd206 O216 2.297 . S
Cd206 O217 2.439 1_556 S
O207 Cd206 2.240 . S
O207 C212 1.279 . S
O208 Cd205 2.297 . S
O208 C210 1.247 . S
O209 Cd205 2.439 . S
O209 C210 1.208 . S
C210 O208 1.247 . S
C210 O209 1.208 . S
C211 O216 1.247 1_554 S
C211 O217 1.208 . S
C212 O204 1.315 . S
C212 O207 1.279 . S
C213 O214 1.315 . S
C213 O215 1.279 . S
O214 Cd206 2.223 . S
O214 C213 1.315 . S
O215 Cd205 2.240 1_556 S
O215 C213 1.279 . S
O216 Cd206 2.297 . S
O216 C211 1.247 1_556 S
O217 Cd206 2.439 1_554 S
O217 C211 1.208 . S
O218 Cd219 2.223 . S
O218 C226 1.315 . S
Cd219 O218 2.223 . S
Cd219 O222 2.297 . S
Cd219 O223 2.439 . S
Cd219 O229 2.240 . S
Cd220 O221 2.240 . S
Cd220 O228 2.223 . S
Cd220 O230 2.297 . S
Cd220 O231 2.439 . S
O221 Cd220 2.240 . S
O221 C226 1.279 . S
O222 Cd219 2.297 . S
O222 C224 1.247 . S
O223 Cd219 2.439 . S
O223 C224 1.208 . S
C224 O222 1.247 . S
C224 O223 1.208 . S
C225 O230 1.247 . S
C225 O231 1.208 . S
C226 O218 1.315 . S
C226 O221 1.279 . S
C227 O228 1.315 . S
C227 O229 1.279 . S
O228 Cd220 2.223 . S
O228 C227 1.315 . S
O229 Cd219 2.240 . S
O229 C227 1.279 . S
O230 Cd220 2.297 . S
O230 C225 1.247 . S
O231 Cd220 2.439 . S
O231 C225 1.208 . S
O232 Cd233 2.223 . S
O232 C240 1.315 . S
Cd233 O232 2.223 . S
Cd233 O236 2.297 . S
Cd233 O237 2.439 . S
Cd233 O243 2.240 . S
Cd234 O235 2.240 . S
Cd234 O242 2.223 . S
Cd234 O244 2.297 . S
Cd234 O245 2.439 . S
O235 Cd234 2.240 . S
O235 C240 1.279 . S
O236 Cd233 2.297 . S
O236 C238 1.247 . S
O237 Cd233 2.439 . S
O237 C238 1.208 . S
C238 O236 1.247 . S
C238 O237 1.208 . S
C239 O244 1.247 . S
C239 O245 1.208 . S
C240 O232 1.315 . S
C240 O235 1.279 . S
C241 O242 1.315 . S
C241 O243 1.279 . S
O242 Cd234 2.223 . S
O242 C241 1.315 . S
O243 Cd233 2.240 . S
O243 C241 1.279 . S
O244 Cd234 2.297 . S
O244 C239 1.247 . S
O245 Cd234 2.439 . S
O245 C239 1.208 . S
O246 Cd247 2.223 . S
O246 C254 1.315 . S
Cd247 O246 2.223 . S
Cd247 O250 2.297 . S
Cd247 O251 2.439 . S
Cd247 O257 2.240 . S
Cd248 O249 2.240 . S
Cd248 O256 2.223 . S
Cd248 O258 2.297 . S
Cd248 O259 2.439 . S
O249 Cd248 2.240 . S
O249 C254 1.279 . S
O250 Cd247 2.297 . S
O250 C252 1.247 . S
O251 Cd247 2.439 . S
O251 C252 1.208 . S
C252 O250 1.247 . S
C252 O251 1.208 . S
C253 O258 1.247 . S
C253 O259 1.208 . S
C254 O246 1.315 . S
C254 O249 1.279 . S
C255 O256 1.315 . S
C255 O257 1.279 . S
O256 Cd248 2.223 . S
O256 C255 1.315 . S
O257 Cd247 2.240 . S
O257 C255 1.279 . S
O258 Cd248 2.297 . S
O258 C253 1.247 . S
O259 Cd248 2.439 . S
O259 C253 1.208 . S
O260 Cd261 2.223 . S
O260 C268 1.315 . S
Cd261 O260 2.223 . S
Cd261 O264 2.297 . S
Cd261 O265 2.439 . S
Cd261 O271 2.240 . S
Cd262 O263 2.240 . S
Cd262 O270 2.223 . S
Cd262 O272 2.297 . S
Cd262 O273 2.439 . S
O263 Cd262 2.240 . S
O263 C268 1.279 . S
O264 Cd261 2.297 . S
O264 C266 1.247 . S
O265 Cd261 2.439 . S
O265 C266 1.208 . S
C266 O264 1.247 . S
C266 O265 1.208 . S
C267 O272 1.247 . S
C267 O273 1.208 . S
C268 O260 1.315 . S
C268 O263 1.279 . S
C269 O270 1.315 . S
C269 O271 1.279 . S
O270 Cd262 2.223 . S
O270 C269 1.315 . S
O271 Cd261 2.240 . S
O271 C269 1.279 . S
O272 Cd262 2.297 . S
O272 C267 1.247 . S
O273 Cd262 2.439 . S
O273 C267 1.208 . S
O274 Cd275 2.223 1_545 S
O274 C282 1.315 . S
Cd275 O274 2.223 1_565 S
Cd275 O278 2.297 . S
Cd275 O279 2.439 . S
Cd275 O285 2.240 1_565 S
Cd276 O277 2.240 . S
Cd276 O284 2.223 . S
Cd276 O286 2.297 . S
Cd276 O287 2.439 1_545 S
O277 Cd276 2.240 . S
O277 C282 1.279 . S
O278 Cd275 2.297 . S
O278 C280 1.247 . S
O279 Cd275 2.439 . S
O279 C280 1.208 . S
C280 O278 1.247 . S
C280 O279 1.208 . S
C281 O286 1.247 1_565 S
C281 O287 1.208 . S
C282 O274 1.315 . S
C282 O277 1.279 . S
C283 O284 1.315 . S
C283 O285 1.279 . S
O284 Cd276 2.223 . S
O284 C283 1.315 . S
O285 Cd275 2.240 1_545 S
O285 C283 1.279 . S
O286 Cd276 2.297 . S
O286 C281 1.247 1_545 S
O287 Cd276 2.439 1_565 S
O287 C281 1.208 . S
O288 Cd289 2.223 . S
O288 C296 1.315 . S
Cd289 O288 2.223 . S
Cd289 O292 2.297 1_655 S
Cd289 O293 2.439 1_655 S
Cd289 O299 2.240 . S
Cd290 O291 2.240 . S
Cd290 O298 2.223 1_455 S
Cd290 O300 2.297 . S
Cd290 O301 2.439 . S
O291 Cd290 2.240 . S
O291 C296 1.279 1_455 S
O292 Cd289 2.297 1_455 S
O292 C294 1.247 . S
O293 Cd289 2.439 1_455 S
O293 C294 1.208 . S
C294 O292 1.247 . S
C294 O293 1.208 . S
C295 O300 1.247 . S
C295 O301 1.208 . S
C296 O288 1.315 . S
C296 O291 1.279 1_655 S
C297 O298 1.315 . S
C297 O299 1.279 . S
O298 Cd290 2.223 1_655 S
O298 C297 1.315 . S
O299 Cd289 2.240 . S
O299 C297 1.279 . S
O300 Cd290 2.297 . S
O300 C295 1.247 . S
O301 Cd290 2.439 . S
O301 C295 1.208 . S
O302 Cd303 2.223 . S
O302 C310 1.315 . S
Cd303 O302 2.223 . S
Cd303 O306 2.297 . S
Cd303 O307 2.439 . S
Cd303 O313 2.240 . S
Cd304 O305 2.240 . S
Cd304 O312 2.223 . S
Cd304 O314 2.297 . S
Cd304 O315 2.439 . S
O305 Cd304 2.240 . S
O305 C310 1.279 . S
O306 Cd303 2.297 . S
O306 C308 1.247 . S
O307 Cd303 2.439 . S
O307 C308 1.208 . S
C308 O306 1.247 . S
C308 O307 1.208 . S
C309 O314 1.247 . S
C309 O315 1.208 . S
C310 O302 1.315 . S
C310 O305 1.279 . S
C311 O312 1.315 . S
C311 O313 1.279 . S
O312 Cd304 2.223 . S
O312 C311 1.315 . S
O313 Cd303 2.240 . S
O313 C311 1.279 . S
O314 Cd304 2.297 . S
O314 C309 1.247 . S
O315 Cd304 2.439 . S
O315 C309 1.208 . S
O316 Cd317 2.223 1_655 S
O316 C324 1.315 . S
Cd317 O316 2.223 1_455 S
Cd317 O320 2.297 . S
Cd317 O321 2.439 . S
Cd317 O327 2.240 . S
Cd318 O319 2.240 . S
Cd318 O326 2.223 . S
Cd318 O328 2.297 1_655 S
Cd318 O329 2.439 1_655 S
O319 Cd318 2.240 . S
O319 C324 1.279 . S
O320 Cd317 2.297 . S
O320 C322 1.247 . S
O321 Cd317 2.439 . S
O321 C322 1.208 . S
C322 O320 1.247 . S
C322 O321 1.208 . S
C323 O328 1.247 . S
C323 O329 1.208 . S
C324 O316 1.315 . S
C324 O319 1.279 . S
C325 O326 1.315 . S
C325 O327 1.279 1_655 S
O326 Cd318 2.223 . S
O326 C325 1.315 . S
O327 Cd317 2.240 . S
O327 C325 1.279 1_455 S
O328 Cd318 2.297 1_455 S
O328 C323 1.247 . S
O329 Cd318 2.439 1_455 S
O329 C323 1.208 . S
O330 Cd331 2.223 . S
O330 C338 1.315 . S
Cd331 O330 2.223 . S
Cd331 O334 2.297 . S
Cd331 O335 2.439 . S
Cd331 O341 2.240 . S
Cd332 O333 2.240 . S
Cd332 O340 2.223 . S
Cd332 O342 2.297 . S
Cd332 O343 2.439 . S
O333 Cd332 2.240 . S
O333 C338 1.279 . S
O334 Cd331 2.297 . S
O334 C336 1.247 . S
O335 Cd331 2.439 . S
O335 C336 1.208 . S
C336 O334 1.247 . S
C336 O335 1.208 . S
C337 O342 1.247 . S
C337 O343 1.208 . S
C338 O330 1.315 . S
C338 O333 1.279 . S
C339 O340 1.315 . S
C339 O341 1.279 . S
O340 Cd332 2.223 . S
O340 C339 1.315 . S
O341 Cd331 2.240 . S
O341 C339 1.279 . S
O342 Cd332 2.297 . S
O342 C337 1.247 . S
O343 Cd332 2.439 . S
O343 C337 1.208 . S
H344 C350 0.930 . S
H345 C354 0.930 . S
H346 C359 0.929 . S
H347 C357 0.929 . S
H348 C352 0.929 . S
H349 C358 0.929 . S
C350 H344 0.930 . S
C350 C351 1.367 . S
C350 C358 1.378 . S
C351 C350 1.367 . S
C351 C359 1.433 . S
C352 H348 0.929 . S
C352 C354 1.378 . S
C352 C356 1.350 . S
C353 C356 1.463 . S
C353 C358 1.350 . S
C353 N361 1.427 . S
C354 H345 0.930 . S
C354 C352 1.378 . S
C354 C355 1.367 1_556 S
C355 C354 1.367 1_554 S
C355 C357 1.433 . S
C356 C352 1.350 . S
C356 C353 1.463 . S
C356 N360 1.427 . S
C357 H347 0.929 . S
C357 C355 1.433 . S
C357 N360 1.384 1_554 S
C358 H349 0.929 . S
C358 C350 1.378 . S
C358 C353 1.350 . S
C359 H346 0.929 . S
C359 C351 1.433 . S
C359 N361 1.384 . S
N360 C356 1.427 . S
N360 C357 1.384 1_556 S
N361 C353 1.427 . S
N361 C359 1.384 . S
H362 C368 0.930 . S
H363 C372 0.930 . S
H364 C377 0.929 . S
H365 C375 0.929 . S
H366 C370 0.929 . S
H367 C376 0.929 . S
C368 H362 0.930 . S
C368 C369 1.367 . S
C368 C376 1.378 . S
C369 C368 1.367 . S
C369 C377 1.433 1_655 S
C370 H366 0.929 . S
C370 C372 1.378 . S
C370 C374 1.350 . S
C371 C374 1.463 . S
C371 C376 1.350 1_455 S
C371 N379 1.427 . S
C372 H363 0.930 . S
C372 C370 1.378 . S
C372 C373 1.367 . S
C373 C372 1.367 . S
C373 C375 1.433 . S
C374 C370 1.350 . S
C374 C371 1.463 . S
C374 N378 1.427 . S
C375 H365 0.929 . S
C375 C373 1.433 . S
C375 N378 1.384 . S
C376 H367 0.929 . S
C376 C368 1.378 . S
C376 C371 1.350 1_655 S
C377 H364 0.929 . S
C377 C369 1.433 1_455 S
C377 N379 1.384 . S
N378 C374 1.427 . S
N378 C375 1.384 . S
N379 C371 1.427 . S
N379 C377 1.384 . S
H380 C386 0.930 . S
H381 C390 0.930 . S
H382 C395 0.929 . S
H383 C393 0.929 . S
H384 C388 0.929 . S
H385 C394 0.929 . S
C386 H380 0.930 . S
C386 C387 1.367 . S
C386 C394 1.378 . S
C387 C386 1.367 . S
C387 C395 1.433 . S
C388 H384 0.929 . S
C388 C390 1.378 . S
C388 C392 1.350 . S
C389 C392 1.463 . S
C389 C394 1.350 . S
C389 N397 1.427 . S
C390 H381 0.930 . S
C390 C388 1.378 . S
C390 C391 1.367 . S
C391 C390 1.367 . S
C391 C393 1.433 . S
C392 C388 1.350 . S
C392 C389 1.463 . S
C392 N396 1.427 . S
C393 H383 0.929 . S
C393 C391 1.433 . S
C393 N396 1.384 . S
C394 H385 0.929 . S
C394 C386 1.378 . S
C394 C389 1.350 . S
C395 H382 0.929 . S
C395 C387 1.433 . S
C395 N397 1.384 . S
N396 C392 1.427 . S
N396 C393 1.384 . S
N397 C389 1.427 . S
N397 C395 1.384 . S
H398 C404 0.930 . S
H399 C408 0.930 . S
H400 C413 0.929 . S
H401 C411 0.929 . S
H402 C406 0.929 . S
H403 C412 0.942 . S
C404 H398 0.930 . S
C404 C405 1.367 . S
C404 C412 1.349 1_565 S
C405 C404 1.367 . S
C405 C413 1.433 . S
C406 H402 0.929 . S
C406 C408 1.378 . S
C406 C410 1.350 . S
C407 C410 1.463 . S
C407 C412 1.367 . S
C407 N415 1.421 1_545 S
C408 H399 0.930 . S
C408 C406 1.378 . S
C408 C409 1.367 1_455 S
C409 C408 1.367 1_655 S
C409 C411 1.433 . S
C410 C406 1.350 . S
C410 C407 1.463 . S
C410 N414 1.427 1_455 S
C411 H401 0.929 . S
C411 C409 1.433 . S
C411 N414 1.384 . S
C412 H403 0.942 . S
C412 C404 1.349 1_545 S
C412 C407 1.367 . S
C413 H400 0.929 . S
C413 C405 1.433 . S
C413 N415 1.400 . S
N414 C410 1.427 1_655 S
N414 C411 1.384 . S
N415 C407 1.421 1_565 S
N415 C413 1.400 . S
H416 C422 0.930 . S
H417 C426 0.930 . S
H418 C431 0.929 . S
H419 C429 0.929 . S
H420 C424 0.929 . S
H421 C430 0.929 . S
C422 H416 0.930 . S
C422 C423 1.367 . S
C422 C430 1.378 . S
C423 C422 1.367 . S
C423 C431 1.433 . S
C424 H420 0.929 . S
C424 C426 1.378 . S
C424 C428 1.350 . S
C425 C428 1.463 . S
C425 C430 1.350 . S
C425 N433 1.427 . S
C426 H417 0.930 . S
C426 C424 1.378 . S
C426 C427 1.367 . S
C427 C426 1.367 . S
C427 C429 1.433 . S
C428 C424 1.350 . S
C428 C425 1.463 . S
C428 N432 1.427 . S
C429 H419 0.929 . S
C429 C427 1.433 . S
C429 N432 1.384 . S
C430 H421 0.929 . S
C430 C422 1.378 . S
C430 C425 1.350 . S
C431 H418 0.929 . S
C431 C423 1.433 . S
C431 N433 1.384 . S
N432 C428 1.427 . S
N432 C429 1.384 . S
N433 C425 1.427 . S
N433 C431 1.384 . S
H434 C440 0.930 . S
H435 C444 0.930 . S
H436 C449 0.929 . S
H437 C447 0.929 . S
H438 C442 0.929 . S
H439 C448 0.929 . S
C440 H434 0.930 . S
C440 C441 1.367 . S
C440 C448 1.378 . S
C441 C440 1.367 . S
C441 C449 1.433 . S
C442 H438 0.929 . S
C442 C444 1.378 . S
C442 C446 1.350 . S
C443 C446 1.463 . S
C443 C448 1.350 . S
C443 N451 1.427 . S
C444 H435 0.930 . S
C444 C442 1.378 . S
C444 C445 1.367 . S
C445 C444 1.367 . S
C445 C447 1.433 . S
C446 C442 1.350 . S
C446 C443 1.463 . S
C446 N450 1.427 . S
C447 H437 0.929 . S
C447 C445 1.433 . S
C447 N450 1.384 . S
C448 H439 0.929 . S
C448 C440 1.378 . S
C448 C443 1.350 . S
C449 H436 0.929 . S
C449 C441 1.433 . S
C449 N451 1.384 . S
N450 C446 1.427 . S
N450 C447 1.384 . S
N451 C443 1.427 . S
N451 C449 1.384 . S
H452 C458 0.930 . S
H453 C462 0.930 . S
H454 C467 0.929 . S
H455 C465 0.929 . S
H456 C460 0.929 . S
H457 C466 0.929 . S
C458 H452 0.930 . S
C458 C459 1.367 . S
C458 C466 1.378 . S
C459 C458 1.367 . S
C459 C467 1.433 . S
C460 H456 0.929 . S
C460 C462 1.378 . S
C460 C464 1.350 . S
C461 C464 1.463 . S
C461 C466 1.350 . S
C461 N469 1.427 . S
C462 H453 0.930 . S
C462 C460 1.378 . S
C462 C463 1.367 . S
C463 C462 1.367 . S
C463 C465 1.433 . S
C464 C460 1.350 . S
C464 C461 1.463 . S
C464 N468 1.427 . S
C465 H455 0.929 . S
C465 C463 1.433 . S
C465 N468 1.384 . S
C466 H457 0.929 . S
C466 C458 1.378 . S
C466 C461 1.350 . S
C467 H454 0.929 . S
C467 C459 1.433 . S
C467 N469 1.384 . S
N468 C464 1.427 . S
N468 C465 1.384 . S
N469 C461 1.427 . S
N469 C467 1.384 . S
H470 C476 0.930 . S
H471 C480 0.902 1_545 S
H472 C485 0.929 . S
H473 C483 0.929 . S
H474 C478 0.929 . S
H475 C484 0.929 . S
C476 H470 0.930 . S
C476 C477 1.367 . S
C476 C484 1.378 . S
C477 C476 1.367 . S
C477 C485 1.433 . S
C478 H474 0.929 . S
C478 C480 1.378 . S
C478 C482 1.350 . S
C479 C482 1.463 . S
C479 C484 1.350 . S
C479 N487 1.427 . S
C480 H471 0.902 1_565 S
C480 C478 1.378 . S
C480 C481 1.367 . S
C481 C480 1.367 . S
C481 C483 1.433 . S
C482 C478 1.350 . S
C482 C479 1.463 . S
C482 N486 1.427 . S
C483 H473 0.929 . S
C483 C481 1.433 . S
C483 N486 1.384 . S
C484 H475 0.929 . S
C484 C476 1.378 . S
C484 C479 1.350 . S
C485 H472 0.929 . S
C485 C477 1.433 . S
C485 N487 1.384 . S
N486 C482 1.427 . S
N486 C483 1.384 . S
N487 C479 1.427 . S
N487 C485 1.384 . S
H488 C494 0.930 . S
H489 C498 0.930 . S
H490 C503 0.929 . S
H491 C501 0.929 . S
H492 C496 0.929 . S
H493 C502 0.929 . S
C494 H488 0.930 . S
C494 C495 1.367 . S
C494 C502 1.378 . S
C495 C494 1.367 . S
C495 C503 1.433 . S
C496 H492 0.929 . S
C496 C498 1.378 . S
C496 C500 1.350 . S
C497 C500 1.463 . S
C497 C502 1.350 . S
C497 N505 1.427 . S
C498 H489 0.930 . S
C498 C496 1.378 . S
C498 C499 1.367 . S
C499 C498 1.367 . S
C499 C501 1.433 . S
C500 C496 1.350 . S
C500 C497 1.463 . S
C500 N504 1.427 . S
C501 H491 0.929 . S
C501 C499 1.433 . S
C501 N504 1.384 . S
C502 H493 0.929 . S
C502 C494 1.378 . S
C502 C497 1.350 . S
C503 H490 0.929 . S
C503 C495 1.433 . S
C503 N505 1.384 . S
N504 C500 1.427 . S
N504 C501 1.384 . S
N505 C497 1.427 . S
N505 C503 1.384 . S
H506 C512 0.930 . S
H507 C516 0.930 . S
H508 C521 0.929 . S
H509 C519 0.929 . S
H510 C514 0.929 . S
H511 C520 0.929 . S
C512 H506 0.930 . S
C512 C513 1.367 . S
C512 C520 1.378 . S
C513 C512 1.367 . S
C513 C521 1.433 . S
C514 H510 0.929 . S
C514 C516 1.378 . S
C514 C518 1.350 . S
C515 C518 1.463 . S
C515 C520 1.350 . S
C515 N523 1.427 . S
C516 H507 0.930 . S
C516 C514 1.378 . S
C516 C517 1.367 . S
C517 C516 1.367 . S
C517 C519 1.433 . S
C518 C514 1.350 . S
C518 C515 1.463 . S
C518 N522 1.427 . S
C519 H509 0.929 . S
C519 C517 1.433 . S
C519 N522 1.384 . S
C520 H511 0.929 . S
C520 C512 1.378 . S
C520 C515 1.350 . S
C521 H508 0.929 . S
C521 C513 1.433 . S
C521 N523 1.384 . S
N522 C518 1.427 . S
N522 C519 1.384 . S
N523 C515 1.427 . S
N523 C521 1.384 . S
H524 C530 0.930 . S
H525 C534 0.930 . S
H526 C539 0.929 . S
H527 C537 0.929 . S
H528 C532 0.929 . S
H529 C538 0.929 . S
C530 H524 0.930 . S
C530 C531 1.367 . S
C530 C538 1.378 . S
C531 C530 1.367 . S
C531 C539 1.433 . S
C532 H528 0.929 . S
C532 C534 1.378 . S
C532 C536 1.350 . S
C533 C536 1.463 . S
C533 C538 1.350 . S
C533 N541 1.427 . S
C534 H525 0.930 . S
C534 C532 1.378 . S
C534 C535 1.367 . S
C535 C534 1.367 . S
C535 C537 1.433 . S
C536 C532 1.350 . S
C536 C533 1.463 . S
C536 N540 1.427 . S
C537 H527 0.929 . S
C537 C535 1.433 . S
C537 N540 1.384 . S
C538 H529 0.929 . S
C538 C530 1.378 . S
C538 C533 1.350 . S
C539 H526 0.929 . S
C539 C531 1.433 . S
C539 N541 1.384 . S
N540 C536 1.427 . S
N540 C537 1.384 . S
N541 C533 1.427 . S
N541 C539 1.384 . S
H542 C548 0.930 . S
H543 C552 0.930 . S
H544 C557 0.929 . S
H545 C555 0.929 . S
H546 C550 0.929 . S
H547 C556 0.929 . S
C548 H542 0.930 . S
C548 C549 1.367 . S
C548 C556 1.378 . S
C549 C548 1.367 . S
C549 C557 1.433 . S
C550 H546 0.929 . S
C550 C552 1.378 . S
C550 C554 1.350 . S
C551 C554 1.463 . S
C551 C556 1.350 . S
C551 N559 1.427 . S
C552 H543 0.930 . S
C552 C550 1.378 . S
C552 C553 1.367 . S
C553 C552 1.367 . S
C553 C555 1.433 . S
C554 C550 1.350 . S
C554 C551 1.463 . S
C554 N558 1.427 . S
C555 H545 0.929 . S
C555 C553 1.433 . S
C555 N558 1.384 . S
C556 H547 0.929 . S
C556 C548 1.378 . S
C556 C551 1.350 . S
C557 H544 0.929 . S
C557 C549 1.433 . S
C557 N559 1.384 . S
N558 C554 1.427 . S
N558 C555 1.384 . S
N559 C551 1.427 . S
N559 C557 1.384 . S
H560 C566 0.930 . S
H561 C570 0.930 . S
H562 C575 0.929 . S
H563 C573 0.929 . S
H564 C568 0.929 . S
H565 C574 0.929 . S
C566 H560 0.930 . S
C566 C567 1.367 . S
C566 C574 1.378 . S
C567 C566 1.367 . S
C567 C575 1.433 . S
C568 H564 0.929 . S
C568 C570 1.378 . S
C568 C572 1.350 . S
C569 C572 1.463 . S
C569 C574 1.350 . S
C569 N577 1.427 . S
C570 H561 0.930 . S
C570 C568 1.378 . S
C570 C571 1.367 . S
C571 C570 1.367 . S
C571 C573 1.433 . S
C572 C568 1.350 . S
C572 C569 1.463 . S
C572 N576 1.427 . S
C573 H563 0.929 . S
C573 C571 1.433 . S
C573 N576 1.384 . S
C574 H565 0.929 . S
C574 C566 1.378 . S
C574 C569 1.350 . S
C575 H562 0.929 . S
C575 C567 1.433 . S
C575 N577 1.384 . S
N576 C572 1.427 . S
N576 C573 1.384 . S
N577 C569 1.427 . S
N577 C575 1.384 . S
H578 C584 0.930 . S
H579 C588 0.930 . S
H580 C593 0.929 . S
H581 C591 0.929 . S
H582 C586 0.929 . S
H583 C592 0.929 . S
C584 H578 0.930 . S
C584 C585 1.367 . S
C584 C592 1.378 . S
C585 C584 1.367 . S
C585 C593 1.433 . S
C586 H582 0.929 . S
C586 C588 1.378 . S
C586 C590 1.350 . S
C587 C590 1.463 . S
C587 C592 1.350 . S
C587 N595 1.427 . S
C588 H579 0.930 . S
C588 C586 1.378 . S
C588 C589 1.367 . S
C589 C588 1.367 . S
C589 C591 1.433 . S
C590 C586 1.350 . S
C590 C587 1.463 . S
C590 N594 1.427 . S
C591 H581 0.929 . S
C591 C589 1.433 . S
C591 N594 1.384 . S
C592 H583 0.929 . S
C592 C584 1.378 . S
C592 C587 1.350 . S
C593 H580 0.929 . S
C593 C585 1.433 . S
C593 N595 1.384 . S
N594 C590 1.427 . S
N594 C591 1.384 . S
N595 C587 1.427 . S
N595 C593 1.384 . S
H596 C602 0.930 . S
H597 C606 0.930 . S
H598 C611 0.929 . S
H599 C609 0.929 . S
H600 C604 0.929 . S
H601 C610 0.929 . S
C602 H596 0.930 . S
C602 C603 1.367 . S
C602 C610 1.378 . S
C603 C602 1.367 . S
C603 C611 1.433 . S
C604 H600 0.929 . S
C604 C606 1.378 . S
C604 C608 1.350 . S
C605 C608 1.463 . S
C605 C610 1.350 . S
C605 N613 1.427 . S
C606 H597 0.930 . S
C606 C604 1.378 . S
C606 C607 1.367 . S
C607 C606 1.367 . S
C607 C609 1.433 . S
C608 C604 1.350 . S
C608 C605 1.463 . S
C608 N612 1.427 . S
C609 H599 0.929 . S
C609 C607 1.433 . S
C609 N612 1.384 . S
C610 H601 0.929 . S
C610 C602 1.378 . S
C610 C605 1.350 . S
C611 H598 0.929 . S
C611 C603 1.433 . S
C611 N613 1.384 . S
N612 C608 1.427 . S
N612 C609 1.384 . S
N613 C605 1.427 . S
N613 C611 1.384 . S
H614 C620 0.930 . S
H615 C624 0.930 . S
H616 C629 0.929 . S
H617 C627 0.929 . S
H618 C622 0.929 . S
H619 C628 0.929 . S
C620 H614 0.930 . S
C620 C621 1.367 . S
C620 C628 1.378 . S
C621 C620 1.367 . S
C621 C629 1.433 . S
C622 H618 0.929 . S
C622 C624 1.378 . S
C622 C626 1.350 . S
C623 C626 1.463 . S
C623 C628 1.350 . S
C623 N631 1.427 . S
C624 H615 0.930 . S
C624 C622 1.378 . S
C624 C625 1.367 . S
C625 C624 1.367 . S
C625 C627 1.433 . S
C626 C622 1.350 . S
C626 C623 1.463 . S
C626 N630 1.427 . S
C627 H617 0.929 . S
C627 C625 1.433 . S
C627 N630 1.384 . S
C628 H619 0.929 . S
C628 C620 1.378 . S
C628 C623 1.350 . S
C629 H616 0.929 . S
C629 C621 1.433 . S
C629 N631 1.384 . S
N630 C626 1.427 . S
N630 C627 1.384 . S
N631 C623 1.427 . S
N631 C629 1.384 . S
H632 C638 0.930 . S
H633 C642 0.930 . S
H634 C647 0.929 . S
H635 C645 0.929 . S
H636 C640 0.929 . S
H637 C646 0.929 . S
C638 H632 0.930 . S
C638 C639 1.367 . S
C638 C646 1.378 . S
C639 C638 1.367 . S
C639 C647 1.433 . S
C640 H636 0.929 . S
C640 C642 1.378 . S
C640 C644 1.350 . S
C641 C644 1.463 . S
C641 C646 1.350 . S
C641 N649 1.427 . S
C642 H633 0.930 . S
C642 C640 1.378 . S
C642 C643 1.367 1_565 S
C643 C642 1.367 1_545 S
C643 C645 1.433 . S
C644 C640 1.350 . S
C644 C641 1.463 . S
C644 N648 1.427 . S
C645 H635 0.929 . S
C645 C643 1.433 . S
C645 N648 1.384 1_545 S
C646 H637 0.929 . S
C646 C638 1.378 . S
C646 C641 1.350 . S
C647 H634 0.929 . S
C647 C639 1.433 . S
C647 N649 1.384 . S
N648 C644 1.427 . S
N648 C645 1.384 1_565 S
N649 C641 1.427 . S
N649 C647 1.384 . S
H650 C656 0.930 . S
H651 C660 0.930 . S
H652 C665 0.929 . S
H653 C663 0.929 . S
H654 C658 0.929 . S
H655 C664 0.929 . S
C656 H650 0.930 . S
C656 C657 1.367 . S
C656 C664 1.378 . S
C657 C656 1.367 . S
C657 C665 1.433 . S
C658 H654 0.929 . S
C658 C660 1.378 . S
C658 C662 1.350 . S
C659 C662 1.463 . S
C659 C664 1.350 . S
C659 N667 1.427 . S
C660 H651 0.930 . S
C660 C658 1.378 . S
C660 C661 1.367 . S
C661 C660 1.367 . S
C661 C663 1.433 . S
C662 C658 1.350 . S
C662 C659 1.463 . S
C662 N666 1.427 . S
C663 H653 0.929 . S
C663 C661 1.433 . S
C663 N666 1.384 . S
C664 H655 0.929 . S
C664 C656 1.378 . S
C664 C659 1.350 . S
C665 H652 0.929 . S
C665 C657 1.433 . S
C665 N667 1.384 . S
N666 C662 1.427 . S
N666 C663 1.384 . S
N667 C659 1.427 . S
N667 C665 1.384 . S
H668 C674 0.930 . S
H669 C678 0.930 . S
H670 C683 0.929 . S
H671 C681 0.929 . S
H672 C676 0.929 . S
H673 C682 0.927 1_554 S
C674 H668 0.930 . S
C674 C675 1.367 . S
C674 C682 1.378 . S
C675 C674 1.367 . S
C675 C683 1.433 . S
C676 H672 0.929 . S
C676 C678 1.378 . S
C676 C680 1.350 1_565 S
C677 C680 1.463 1_556 S
C677 C682 1.350 . S
C677 N685 1.427 . S
C678 H669 0.930 . S
C678 C676 1.378 . S
C678 C679 1.367 . S
C679 C678 1.367 . S
C679 C681 1.433 1_565 S
C680 C676 1.350 1_545 S
C680 C677 1.463 1_554 S
C680 N684 1.427 . S
C681 H671 0.929 . S
C681 C679 1.433 1_545 S
C681 N684 1.384 . S
C682 H673 0.927 1_556 S
C682 C674 1.378 . S
C682 C677 1.350 . S
C683 H670 0.929 . S
C683 C675 1.433 . S
C683 N685 1.384 . S
N684 C680 1.427 . S
N684 C681 1.384 . S
N685 C677 1.427 . S
N685 C683 1.384 . S
H686 C692 0.930 . S
H687 C696 0.930 . S
H688 C701 0.929 . S
H689 C699 0.929 . S
H690 C694 0.929 . S
H691 C700 0.929 . S
C692 H686 0.930 . S
C692 C693 1.367 . S
C692 C700 1.378 . S
C693 C692 1.367 . S
C693 C701 1.433 . S
C694 H690 0.929 . S
C694 C696 1.378 . S
C694 C698 1.350 . S
C695 C698 1.463 . S
C695 C700 1.350 . S
C695 N703 1.427 . S
C696 H687 0.930 . S
C696 C694 1.378 . S
C696 C697 1.367 . S
C697 C696 1.367 . S
C697 C699 1.433 . S
C698 C694 1.350 . S
C698 C695 1.463 . S
C698 N702 1.427 . S
C699 H689 0.929 . S
C699 C697 1.433 . S
C699 N702 1.384 . S
C700 H691 0.929 . S
C700 C692 1.378 . S
C700 C695 1.350 . S
C701 H688 0.929 . S
C701 C693 1.433 . S
C701 N703 1.384 . S
N702 C698 1.427 . S
N702 C699 1.384 . S
N703 C695 1.427 . S
N703 C701 1.384 . S
H704 C710 0.930 . S
H705 C714 0.930 . S
H706 C719 0.929 . S
H707 C717 0.929 . S
H708 C712 0.929 . S
H709 C718 0.929 . S
C710 H704 0.930 . S
C710 C711 1.353 1_565 S
C710 C718 1.378 1_565 S
C711 C710 1.353 1_545 S
C711 C719 1.474 . S
C712 H708 0.929 . S
C712 C714 1.378 . S
C712 C716 1.350 . S
C713 C716 1.463 . S
C713 C718 1.350 . S
C713 N721 1.427 . S
C714 H705 0.930 . S
C714 C712 1.378 . S
C714 C715 1.367 . S
C715 C714 1.367 . S
C715 C717 1.433 . S
C716 C712 1.350 . S
C716 C713 1.463 . S
C716 N720 1.427 . S
C717 H707 0.929 . S
C717 C715 1.433 . S
C717 N720 1.384 . S
C718 H709 0.929 . S
C718 C710 1.378 1_545 S
C718 C713 1.350 . S
C719 H706 0.929 . S
C719 C711 1.474 . S
C719 N721 1.384 . S
N720 C716 1.427 . S
N720 C717 1.384 . S
N721 C713 1.427 . S
N721 C719 1.384 . S
H722 C728 0.930 . S
H723 C732 0.930 . S
H724 C737 0.929 . S
H725 C735 0.929 . S
H726 C730 0.929 . S
H727 C736 0.929 . S
C728 H722 0.930 . S
C728 C729 1.367 . S
C728 C736 1.378 . S
C729 C728 1.367 . S
C729 C737 1.433 . S
C730 H726 0.929 . S
C730 C732 1.378 . S
C730 C734 1.350 . S
C731 C734 1.463 . S
C731 C736 1.350 . S
C731 N739 1.427 . S
C732 H723 0.930 . S
C732 C730 1.378 . S
C732 C733 1.367 . S
C733 C732 1.367 . S
C733 C735 1.433 . S
C734 C730 1.350 . S
C734 C731 1.463 . S
C734 N738 1.427 . S
C735 H725 0.929 . S
C735 C733 1.433 . S
C735 N738 1.384 . S
C736 H727 0.929 . S
C736 C728 1.378 . S
C736 C731 1.350 . S
C737 H724 0.929 . S
C737 C729 1.433 . S
C737 N739 1.384 . S
N738 C734 1.427 . S
N738 C735 1.384 . S
N739 C731 1.427 . S
N739 C737 1.384 . S
H740 C746 0.930 . S
H741 C750 0.930 . S
H742 C755 0.929 . S
H743 C753 0.929 . S
H744 C748 0.929 . S
H745 C754 0.929 . S
C746 H740 0.930 . S
C746 C747 1.367 1_545 S
C746 C754 1.378 . S
C747 C746 1.367 1_565 S
C747 C755 1.433 . S
C748 H744 0.929 . S
C748 C750 1.378 . S
C748 C752 1.350 . S
C749 C752 1.463 . S
C749 C754 1.350 . S
C749 N757 1.427 . S
C750 H741 0.930 . S
C750 C748 1.378 . S
C750 C751 1.367 . S
C751 C750 1.367 . S
C751 C753 1.433 . S
C752 C748 1.350 . S
C752 C749 1.463 . S
C752 N756 1.427 . S
C753 H743 0.929 . S
C753 C751 1.433 . S
C753 N756 1.384 . S
C754 H745 0.929 . S
C754 C746 1.378 . S
C754 C749 1.350 . S
C755 H742 0.929 . S
C755 C747 1.433 . S
C755 N757 1.384 1_565 S
N756 C752 1.427 . S
N756 C753 1.384 . S
N757 C749 1.427 . S
N757 C755 1.384 1_545 S
H758 C764 0.930 . S
H759 C768 0.930 . S
H760 C773 0.929 . S
H761 C771 0.929 . S
H762 C766 0.929 . S
H763 C772 0.929 . S
C764 H758 0.930 . S
C764 C765 1.367 . S
C764 C772 1.378 . S
C765 C764 1.367 . S
C765 C773 1.433 . S
C766 H762 0.929 . S
C766 C768 1.378 . S
C766 C770 1.350 . S
C767 C770 1.463 . S
C767 C772 1.350 . S
C767 N775 1.427 . S
C768 H759 0.930 . S
C768 C766 1.378 . S
C768 C769 1.367 . S
C769 C768 1.367 . S
C769 C771 1.433 . S
C770 C766 1.350 . S
C770 C767 1.463 . S
C770 N774 1.427 . S
C771 H761 0.929 . S
C771 C769 1.433 . S
C771 N774 1.384 . S
C772 H763 0.929 . S
C772 C764 1.378 . S
C772 C767 1.350 . S
C773 H760 0.929 . S
C773 C765 1.433 . S
C773 N775 1.384 . S
N774 C770 1.427 . S
N774 C771 1.384 . S
N775 C767 1.427 . S
N775 C773 1.384 . S
H776 C782 0.930 . S
H777 C786 0.930 . S
H778 C791 0.929 . S
H779 C789 0.929 . S
H780 C784 0.929 . S
H781 C790 0.929 . S
C782 H776 0.930 . S
C782 C783 1.367 . S
C782 C790 1.378 . S
C783 C782 1.367 . S
C783 C791 1.433 . S
C784 H780 0.929 . S
C784 C786 1.378 . S
C784 C788 1.350 . S
C785 C788 1.463 . S
C785 C790 1.350 . S
C785 N793 1.427 . S
C786 H777 0.930 . S
C786 C784 1.378 . S
C786 C787 1.367 . S
C787 C786 1.367 . S
C787 C789 1.433 . S
C788 C784 1.350 . S
C788 C785 1.463 . S
C788 N792 1.427 . S
C789 H779 0.929 . S
C789 C787 1.433 . S
C789 N792 1.384 . S
C790 H781 0.929 . S
C790 C782 1.378 . S
C790 C785 1.350 . S
C791 H778 0.929 . S
C791 C783 1.433 . S
C791 N793 1.384 . S
N792 C788 1.427 . S
N792 C789 1.384 . S
N793 C785 1.427 . S
N793 C791 1.384 . S
H794 C800 0.930 . S
H795 C804 0.930 . S
H796 C809 0.929 . S
H797 C807 0.929 . S
H798 C802 0.929 . S
H799 C808 0.929 . S
C800 H794 0.930 . S
C800 C801 1.367 . S
C800 C808 1.378 . S
C801 C800 1.367 . S
C801 C809 1.433 . S
C802 H798 0.929 . S
C802 C804 1.378 . S
C802 C806 1.350 . S
C803 C806 1.463 . S
C803 C808 1.350 . S
C803 N811 1.427 . S
C804 H795 0.930 . S
C804 C802 1.378 . S
C804 C805 1.367 . S
C805 C804 1.367 . S
C805 C807 1.433 . S
C806 C802 1.350 . S
C806 C803 1.463 . S
C806 N810 1.427 . S
C807 H797 0.929 . S
C807 C805 1.433 . S
C807 N810 1.384 . S
C808 H799 0.929 . S
C808 C800 1.378 . S
C808 C803 1.350 . S
C809 H796 0.929 . S
C809 C801 1.433 . S
C809 N811 1.384 . S
N810 C806 1.427 . S
N810 C807 1.384 . S
N811 C803 1.427 . S
N811 C809 1.384 . S
H812 C818 0.930 . S
H813 C822 0.930 . S
H814 C827 0.929 . S
H815 C825 0.929 . S
H816 C820 0.929 . S
H817 C826 0.929 . S
C818 H812 0.930 . S
C818 C819 1.367 . S
C818 C826 1.378 . S
C819 C818 1.367 . S
C819 C827 1.433 . S
C820 H816 0.929 . S
C820 C822 1.378 . S
C820 C824 1.350 . S
C821 C824 1.463 . S
C821 C826 1.350 . S
C821 N829 1.427 . S
C822 H813 0.930 . S
C822 C820 1.378 . S
C822 C823 1.367 . S
C823 C822 1.367 . S
C823 C825 1.433 . S
C824 C820 1.350 . S
C824 C821 1.463 . S
C824 N828 1.427 . S
C825 H815 0.929 . S
C825 C823 1.433 . S
C825 N828 1.384 . S
C826 H817 0.929 . S
C826 C818 1.378 . S
C826 C821 1.350 . S
C827 H814 0.929 . S
C827 C819 1.433 . S
C827 N829 1.384 . S
N828 C824 1.427 . S
N828 C825 1.384 . S
N829 C821 1.427 . S
N829 C827 1.384 . S
H830 C836 0.930 . S
H831 C840 0.930 . S
H832 C845 0.929 . S
H833 C843 0.929 . S
H834 C838 0.929 . S
H835 C844 0.929 . S
C836 H830 0.930 . S
C836 C837 1.367 . S
C836 C844 1.378 . S
C837 C836 1.367 . S
C837 C845 1.433 . S
C838 H834 0.929 . S
C838 C840 1.378 . S
C838 C842 1.350 . S
C839 C842 1.463 . S
C839 C844 1.350 . S
C839 N847 1.427 . S
C840 H831 0.930 . S
C840 C838 1.378 . S
C840 C841 1.367 . S
C841 C840 1.367 . S
C841 C843 1.433 . S
C842 C838 1.350 . S
C842 C839 1.463 . S
C842 N846 1.427 . S
C843 H833 0.929 . S
C843 C841 1.433 . S
C843 N846 1.384 . S
C844 H835 0.929 . S
C844 C836 1.378 . S
C844 C839 1.350 . S
C845 H832 0.929 . S
C845 C837 1.433 . S
C845 N847 1.384 . S
N846 C842 1.427 . S
N846 C843 1.384 . S
N847 C839 1.427 . S
N847 C845 1.384 . S
H848 C854 0.930 . S
H849 C858 0.930 . S
H850 C863 0.929 . S
H851 C861 0.929 . S
H852 C856 0.929 . S
H853 C862 0.929 . S
C854 H848 0.930 . S
C854 C855 1.367 . S
C854 C862 1.378 . S
C855 C854 1.367 . S
C855 C863 1.433 . S
C856 H852 0.929 . S
C856 C858 1.378 . S
C856 C860 1.350 . S
C857 C860 1.463 . S
C857 C862 1.350 . S
C857 N865 1.427 . S
C858 H849 0.930 . S
C858 C856 1.378 . S
C858 C859 1.367 . S
C859 C858 1.367 . S
C859 C861 1.433 . S
C860 C856 1.350 . S
C860 C857 1.463 . S
C860 N864 1.427 . S
C861 H851 0.929 . S
C861 C859 1.433 . S
C861 N864 1.384 . S
C862 H853 0.929 . S
C862 C854 1.378 . S
C862 C857 1.350 . S
C863 H850 0.929 . S
C863 C855 1.433 . S
C863 N865 1.384 . S
N864 C860 1.427 . S
N864 C861 1.384 . S
N865 C857 1.427 . S
N865 C863 1.384 . S
H866 C872 0.930 . S
H867 C876 0.930 . S
H868 C881 0.929 . S
H869 C879 0.929 . S
H870 C874 0.929 . S
H871 C880 0.929 . S
C872 H866 0.930 . S
C872 C873 1.367 . S
C872 C880 1.378 . S
C873 C872 1.367 . S
C873 C881 1.433 . S
C874 H870 0.929 . S
C874 C876 1.378 . S
C874 C878 1.350 . S
C875 C878 1.463 . S
C875 C880 1.350 . S
C875 N883 1.427 . S
C876 H867 0.930 . S
C876 C874 1.378 . S
C876 C877 1.367 . S
C877 C876 1.367 . S
C877 C879 1.433 . S
C878 C874 1.350 . S
C878 C875 1.463 . S
C878 N882 1.427 . S
C879 H869 0.929 . S
C879 C877 1.433 . S
C879 N882 1.384 . S
C880 H871 0.929 . S
C880 C872 1.378 . S
C880 C875 1.350 . S
C881 H868 0.929 . S
C881 C873 1.433 . S
C881 N883 1.384 . S
N882 C878 1.427 . S
N882 C879 1.384 . S
N883 C875 1.427 . S
N883 C881 1.384 . S
H884 C890 0.930 . S
H885 C894 0.930 . S
H886 C899 0.929 . S
H887 C897 0.929 . S
H888 C892 0.929 . S
H889 C898 0.929 . S
C890 H884 0.930 . S
C890 C891 1.367 . S
C890 C898 1.378 . S
C891 C890 1.367 . S
C891 C899 1.433 . S
C892 H888 0.929 . S
C892 C894 1.378 . S
C892 C896 1.350 . S
C893 C896 1.463 . S
C893 C898 1.350 . S
C893 N901 1.427 . S
C894 H885 0.930 . S
C894 C892 1.378 . S
C894 C895 1.367 . S
C895 C894 1.367 . S
C895 C897 1.433 . S
C896 C892 1.350 . S
C896 C893 1.463 . S
C896 N900 1.427 . S
C897 H887 0.929 . S
C897 C895 1.433 . S
C897 N900 1.384 . S
C898 H889 0.929 . S
C898 C890 1.378 . S
C898 C893 1.350 . S
C899 H886 0.929 . S
C899 C891 1.433 . S
C899 N901 1.384 . S
N900 C896 1.427 . S
N900 C897 1.384 . S
N901 C893 1.427 . S
N901 C899 1.384 . S
H902 C908 0.930 . S
H903 C912 0.930 . S
H904 C917 0.929 . S
H905 C915 0.929 . S
H906 C910 0.929 . S
H907 C916 0.929 . S
C908 H902 0.930 . S
C908 C909 1.367 . S
C908 C916 1.378 . S
C909 C908 1.367 . S
C909 C917 1.433 . S
C910 H906 0.929 . S
C910 C912 1.378 . S
C910 C914 1.350 . S
C911 C914 1.463 1_655 S
C911 C916 1.350 . S
C911 N919 1.427 . S
C912 H903 0.930 . S
C912 C910 1.378 . S
C912 C913 1.367 . S
C913 C912 1.367 . S
C913 C915 1.433 . S
C914 C910 1.350 . S
C914 C911 1.463 1_455 S
C914 N918 1.427 . S
C915 H905 0.929 . S
C915 C913 1.433 . S
C915 N918 1.384 . S
C916 H907 0.929 . S
C916 C908 1.378 . S
C916 C911 1.350 . S
C917 H904 0.929 . S
C917 C909 1.433 . S
C917 N919 1.384 . S
N918 C914 1.427 . S
N918 C915 1.384 . S
N919 C911 1.427 . S
N919 C917 1.384 . S
H920 C926 0.930 . S
H921 C930 0.930 . S
H922 C935 0.929 . S
H923 C933 0.929 . S
H924 C928 0.929 . S
H925 C934 0.929 . S
C926 H920 0.930 . S
C926 C927 1.367 . S
C926 C934 1.378 . S
C927 C926 1.367 . S
C927 C935 1.433 . S
C928 H924 0.929 . S
C928 C930 1.378 . S
C928 C932 1.350 . S
C929 C932 1.463 . S
C929 C934 1.350 . S
C929 N937 1.427 . S
C930 H921 0.930 . S
C930 C928 1.378 . S
C930 C931 1.367 . S
C931 C930 1.367 . S
C931 C933 1.433 . S
C932 C928 1.350 . S
C932 C929 1.463 . S
C932 N936 1.427 . S
C933 H923 0.929 . S
C933 C931 1.433 . S
C933 N936 1.384 . S
C934 H925 0.929 . S
C934 C926 1.378 . S
C934 C929 1.350 . S
C935 H922 0.929 . S
C935 C927 1.433 . S
C935 N937 1.384 . S
N936 C932 1.427 . S
N936 C933 1.384 . S
N937 C929 1.427 . S
N937 C935 1.384 . S
H938 C944 0.930 . S
H939 C948 0.930 . S
H940 C953 0.929 . S
H941 C951 0.929 1_455 S
H942 C946 0.929 . S
H943 C952 0.929 . S
C944 H938 0.930 . S
C944 C945 1.367 . S
C944 C952 1.378 . S
C945 C944 1.367 . S
C945 C953 1.433 . S
C946 H942 0.929 . S
C946 C948 1.378 . S
C946 C950 1.350 . S
C947 C950 1.463 1_554 S
C947 C952 1.350 . S
C947 N955 1.427 1_554 S
C948 H939 0.930 . S
C948 C946 1.378 . S
C948 C949 1.367 . S
C949 C948 1.367 . S
C949 C951 1.433 . S
C950 C946 1.350 . S
C950 C947 1.463 1_556 S
C950 N954 1.427 . S
C951 H941 0.929 1_655 S
C951 C949 1.433 . S
C951 N954 1.384 . S
C952 H943 0.929 . S
C952 C944 1.378 . S
C952 C947 1.350 . S
C953 H940 0.929 . S
C953 C945 1.433 . S
C953 N955 1.384 1_554 S
N954 C950 1.427 . S
N954 C951 1.384 . S
N955 C947 1.427 1_556 S
N955 C953 1.384 1_556 S
H956 C962 0.930 . S
H957 C966 0.930 . S
H958 C971 0.929 . S
H959 C969 0.929 . S
H960 C964 0.929 . S
H961 C970 0.929 . S
C962 H956 0.930 . S
C962 C963 1.367 . S
C962 C970 1.378 . S
C963 C962 1.367 . S
C963 C971 1.433 . S
C964 H960 0.929 . S
C964 C966 1.378 . S
C964 C968 1.350 . S
C965 C968 1.463 . S
C965 C970 1.350 . S
C965 N973 1.427 . S
C966 H957 0.930 . S
C966 C964 1.378 . S
C966 C967 1.367 . S
C967 C966 1.367 . S
C967 C969 1.433 . S
C968 C964 1.350 . S
C968 C965 1.463 . S
C968 N972 1.427 . S
C969 H959 0.929 . S
C969 C967 1.433 . S
C969 N972 1.384 . S
C970 H961 0.929 . S
C970 C962 1.378 . S
C970 C965 1.350 . S
C971 H958 0.929 . S
C971 C963 1.433 . S
C971 N973 1.384 . S
N972 C968 1.427 . S
N972 C969 1.384 . S
N973 C965 1.427 . S
N973 C971 1.384 . S
H974 C980 0.930 . S
H975 C984 0.930 . S
H976 C989 0.929 . S
H977 C987 0.929 . S
H978 C982 0.929 . S
H979 C988 0.929 . S
C980 H974 0.930 . S
C980 C981 1.367 . S
C980 C988 1.378 . S
C981 C980 1.367 . S
C981 C989 1.433 . S
C982 H978 0.929 . S
C982 C984 1.378 . S
C982 C986 1.350 1_556 S
C983 C986 1.463 . S
C983 C988 1.350 . S
C983 N991 1.427 . S
C984 H975 0.930 . S
C984 C982 1.378 . S
C984 C985 1.367 . S
C985 C984 1.367 . S
C985 C987 1.433 . S
C986 C982 1.350 1_554 S
C986 C983 1.463 . S
C986 N990 1.427 . S
C987 H977 0.929 . S
C987 C985 1.433 . S
C987 N990 1.384 1_556 S
C988 H979 0.929 . S
C988 C980 1.378 . S
C988 C983 1.350 . S
C989 H976 0.929 . S
C989 C981 1.433 . S
C989 N991 1.384 . S
N990 C986 1.427 . S
N990 C987 1.384 1_554 S
N991 C983 1.427 . S
N991 C989 1.384 . S
H992 C998 0.930 . S
H993 C1002 0.930 . S
H994 C1007 0.929 . S
H995 C1005 0.929 . S
H996 C1000 0.929 . S
H997 C1006 0.929 . S
C998 H992 0.930 . S
C998 C999 1.367 . S
C998 C1006 1.378 . S
C999 C998 1.367 . S
C999 C1007 1.433 . S
C1000 H996 0.929 . S
C1000 C1002 1.378 . S
C1000 C1004 1.350 . S
C1001 C1004 1.463 . S
C1001 C1006 1.350 . S
C1001 N1009 1.427 . S
C1002 H993 0.930 . S
C1002 C1000 1.378 . S
C1002 C1003 1.367 . S
C1003 C1002 1.367 . S
C1003 C1005 1.433 . S
C1004 C1000 1.350 . S
C1004 C1001 1.463 . S
C1004 N1008 1.427 . S
C1005 H995 0.929 . S
C1005 C1003 1.433 . S
C1005 N1008 1.384 . S
C1006 H997 0.929 . S
C1006 C998 1.378 . S
C1006 C1001 1.350 . S
C1007 H994 0.929 . S
C1007 C999 1.433 . S
C1007 N1009 1.384 . S
N1008 C1004 1.427 . S
N1008 C1005 1.384 . S
N1009 C1001 1.427 . S
N1009 C1007 1.384 . S
H1010 C1016 0.928 1_556 S
H1011 C1020 0.930 . S
H1012 C1025 0.929 . S
H1013 C1023 0.929 . S
H1014 C1018 0.929 . S
H1015 C1024 0.929 . S
C1016 H1010 0.928 1_554 S
C1016 C1017 1.361 1_554 S
C1016 C1024 1.386 . S
C1017 C1016 1.361 1_556 S
C1017 C1025 1.433 . S
C1018 H1014 0.929 . S
C1018 C1020 1.378 . S
C1018 C1022 1.350 . S
C1019 C1022 1.463 . S
C1019 C1024 1.350 . S
C1019 N1027 1.427 . S
C1020 H1011 0.930 . S
C1020 C1018 1.378 . S
C1020 C1021 1.367 . S
C1021 C1020 1.367 . S
C1021 C1023 1.433 . S
C1022 C1018 1.350 . S
C1022 C1019 1.463 . S
C1022 N1026 1.427 . S
C1023 H1013 0.929 . S
C1023 C1021 1.433 . S
C1023 N1026 1.384 . S
C1024 H1015 0.929 . S
C1024 C1016 1.386 . S
C1024 C1019 1.350 . S
C1025 H1012 0.929 . S
C1025 C1017 1.433 . S
C1025 N1027 1.384 1_556 S
N1026 C1022 1.427 . S
N1026 C1023 1.384 . S
N1027 C1019 1.427 . S
N1027 C1025 1.384 1_554 S
H1028 C1034 0.930 . S
H1029 C1038 0.930 . S
H1030 C1043 0.929 . S
H1031 C1041 0.929 . S
H1032 C1036 0.929 . S
H1033 C1042 0.929 . S
C1034 H1028 0.930 . S
C1034 C1035 1.367 . S
C1034 C1042 1.378 . S
C1035 C1034 1.367 . S
C1035 C1043 1.433 . S
C1036 H1032 0.929 . S
C1036 C1038 1.378 . S
C1036 C1040 1.350 . S
C1037 C1040 1.463 . S
C1037 C1042 1.350 . S
C1037 N1045 1.427 . S
C1038 H1029 0.930 . S
C1038 C1036 1.378 . S
C1038 C1039 1.367 . S
C1039 C1038 1.367 . S
C1039 C1041 1.433 . S
C1040 C1036 1.350 . S
C1040 C1037 1.463 . S
C1040 N1044 1.427 . S
C1041 H1031 0.929 . S
C1041 C1039 1.433 . S
C1041 N1044 1.384 . S
C1042 H1033 0.929 . S
C1042 C1034 1.378 . S
C1042 C1037 1.350 . S
C1043 H1030 0.929 . S
C1043 C1035 1.433 . S
C1043 N1045 1.384 . S
N1044 C1040 1.427 . S
N1044 C1041 1.384 . S
N1045 C1037 1.427 . S
N1045 C1043 1.384 . S
H1046 C1052 0.930 . S
H1047 C1056 0.930 . S
H1048 C1061 0.929 . S
H1049 C1059 0.929 . S
H1050 C1054 0.929 . S
H1051 C1060 0.929 . S
C1052 H1046 0.930 . S
C1052 C1053 1.367 . S
C1052 C1060 1.378 1_556 S
C1053 C1052 1.367 . S
C1053 C1061 1.433 . S
C1054 H1050 0.929 . S
C1054 C1056 1.378 . S
C1054 C1058 1.350 . S
C1055 C1058 1.463 . S
C1055 C1060 1.350 . S
C1055 N1063 1.427 . S
C1056 H1047 0.930 . S
C1056 C1054 1.378 . S
C1056 C1057 1.367 . S
C1057 C1056 1.367 . S
C1057 C1059 1.433 . S
C1058 C1054 1.350 . S
C1058 C1055 1.463 . S
C1058 N1062 1.427 . S
C1059 H1049 0.929 . S
C1059 C1057 1.433 . S
C1059 N1062 1.384 . S
C1060 H1051 0.929 . S
C1060 C1052 1.378 1_554 S
C1060 C1055 1.350 . S
C1061 H1048 0.929 . S
C1061 C1053 1.433 . S
C1061 N1063 1.384 1_556 S
N1062 C1058 1.427 . S
N1062 C1059 1.384 . S
N1063 C1055 1.427 . S
N1063 C1061 1.384 1_554 S
H1064 C1070 0.930 . S
H1065 C1074 0.930 . S
H1066 C1079 0.929 . S
H1067 C1077 0.929 . S
H1068 C1072 0.929 . S
H1069 C1078 0.929 . S
C1070 H1064 0.930 . S
C1070 C1071 1.367 . S
C1070 C1078 1.378 . S
C1071 C1070 1.367 . S
C1071 C1079 1.433 . S
C1072 H1068 0.929 . S
C1072 C1074 1.378 . S
C1072 C1076 1.350 . S
C1073 C1076 1.463 . S
C1073 C1078 1.350 . S
C1073 N1081 1.427 . S
C1074 H1065 0.930 . S
C1074 C1072 1.378 . S
C1074 C1075 1.367 . S
C1075 C1074 1.367 . S
C1075 C1077 1.433 . S
C1076 C1072 1.350 . S
C1076 C1073 1.463 . S
C1076 N1080 1.427 . S
C1077 H1067 0.929 . S
C1077 C1075 1.433 . S
C1077 N1080 1.384 . S
C1078 H1069 0.929 . S
C1078 C1070 1.378 . S
C1078 C1073 1.350 . S
C1079 H1066 0.929 . S
C1079 C1071 1.433 . S
C1079 N1081 1.384 . S
N1080 C1076 1.427 . S
N1080 C1077 1.384 . S
N1081 C1073 1.427 . S
N1081 C1079 1.384 . S
H1082 C1088 0.930 . S
H1083 C1092 0.930 . S
H1084 C1097 0.929 . S
H1085 C1095 0.929 . S
H1086 C1090 0.929 . S
H1087 C1096 0.929 . S
C1088 H1082 0.930 . S
C1088 C1089 1.367 . S
C1088 C1096 1.378 . S
C1089 C1088 1.367 . S
C1089 C1097 1.433 . S
C1090 H1086 0.929 . S
C1090 C1092 1.378 . S
C1090 C1094 1.350 . S
C1091 C1094 1.463 . S
C1091 C1096 1.350 . S
C1091 N1099 1.427 . S
C1092 H1083 0.930 . S
C1092 C1090 1.378 . S
C1092 C1093 1.367 . S
C1093 C1092 1.367 . S
C1093 C1095 1.433 . S
C1094 C1090 1.350 . S
C1094 C1091 1.463 . S
C1094 N1098 1.427 . S
C1095 H1085 0.929 . S
C1095 C1093 1.433 . S
C1095 N1098 1.384 . S
C1096 H1087 0.929 . S
C1096 C1088 1.378 . S
C1096 C1091 1.350 . S
C1097 H1084 0.929 . S
C1097 C1089 1.433 . S
C1097 N1099 1.384 . S
N1098 C1094 1.427 . S
N1098 C1095 1.384 . S
N1099 C1091 1.427 . S
N1099 C1097 1.384 . S
H1100 C1106 0.930 . S
H1101 C1110 0.930 . S
H1102 C1115 0.929 . S
H1103 C1113 0.929 . S
H1104 C1108 0.929 . S
H1105 C1114 0.929 . S
C1106 H1100 0.930 . S
C1106 C1107 1.367 . S
C1106 C1114 1.378 . S
C1107 C1106 1.367 . S
C1107 C1115 1.433 . S
C1108 H1104 0.929 . S
C1108 C1110 1.378 . S
C1108 C1112 1.350 . S
C1109 C1112 1.463 . S
C1109 C1114 1.350 . S
C1109 N1117 1.427 . S
C1110 H1101 0.930 . S
C1110 C1108 1.378 . S
C1110 C1111 1.367 . S
C1111 C1110 1.367 . S
C1111 C1113 1.433 . S
C1112 C1108 1.350 . S
C1112 C1109 1.463 . S
C1112 N1116 1.427 . S
C1113 H1103 0.929 . S
C1113 C1111 1.433 . S
C1113 N1116 1.384 . S
C1114 H1105 0.929 . S
C1114 C1106 1.378 . S
C1114 C1109 1.350 . S
C1115 H1102 0.929 . S
C1115 C1107 1.433 . S
C1115 N1117 1.384 . S
N1116 C1112 1.427 . S
N1116 C1113 1.384 . S
N1117 C1109 1.427 . S
N1117 C1115 1.384 . S
H1118 C1124 0.930 . S
H1119 C1128 0.930 . S
H1120 C1133 0.929 . S
H1121 C1131 0.929 . S
H1122 C1126 0.929 . S
H1123 C1132 0.929 . S
C1124 H1118 0.930 . S
C1124 C1125 1.367 . S
C1124 C1132 1.378 . S
C1125 C1124 1.367 . S
C1125 C1133 1.433 . S
C1126 H1122 0.929 . S
C1126 C1128 1.378 . S
C1126 C1130 1.350 . S
C1127 C1130 1.463 . S
C1127 C1132 1.350 . S
C1127 N1135 1.427 . S
C1128 H1119 0.930 . S
C1128 C1126 1.378 . S
C1128 C1129 1.367 . S
C1129 C1128 1.367 . S
C1129 C1131 1.433 . S
C1130 C1126 1.350 . S
C1130 C1127 1.463 . S
C1130 N1134 1.427 . S
C1131 H1121 0.929 . S
C1131 C1129 1.433 . S
C1131 N1134 1.384 . S
C1132 H1123 0.929 . S
C1132 C1124 1.378 . S
C1132 C1127 1.350 . S
C1133 H1120 0.929 . S
C1133 C1125 1.433 . S
C1133 N1135 1.384 . S
N1134 C1130 1.427 . S
N1134 C1131 1.384 . S
N1135 C1127 1.427 . S
N1135 C1133 1.384 . S
H1136 C1142 0.930 . S
H1137 C1146 0.930 . S
H1138 C1151 0.929 . S
H1139 C1149 0.929 . S
H1140 C1144 0.929 . S
H1141 C1150 0.929 . S
C1142 H1136 0.930 . S
C1142 C1143 1.367 . S
C1142 C1150 1.378 . S
C1143 C1142 1.367 . S
C1143 C1151 1.433 . S
C1144 H1140 0.929 . S
C1144 C1146 1.378 . S
C1144 C1148 1.350 . S
C1145 C1148 1.463 . S
C1145 C1150 1.350 . S
C1145 N1153 1.427 . S
C1146 H1137 0.930 . S
C1146 C1144 1.378 . S
C1146 C1147 1.367 . S
C1147 C1146 1.367 . S
C1147 C1149 1.433 . S
C1148 C1144 1.350 . S
C1148 C1145 1.463 . S
C1148 N1152 1.427 . S
C1149 H1139 0.929 . S
C1149 C1147 1.433 . S
C1149 N1152 1.384 . S
C1150 H1141 0.929 . S
C1150 C1142 1.378 . S
C1150 C1145 1.350 . S
C1151 H1138 0.929 . S
C1151 C1143 1.433 . S
C1151 N1153 1.384 . S
N1152 C1148 1.427 . S
N1152 C1149 1.384 . S
N1153 C1145 1.427 . S
N1153 C1151 1.384 . S
H1154 C1160 0.930 . S
H1155 C1164 0.930 . S
H1156 C1169 0.929 . S
H1157 C1167 0.929 . S
H1158 C1162 0.929 . S
H1159 C1168 0.929 . S
C1160 H1154 0.930 . S
C1160 C1161 1.367 . S
C1160 C1168 1.378 . S
C1161 C1160 1.367 . S
C1161 C1169 1.433 . S
C1162 H1158 0.929 . S
C1162 C1164 1.378 . S
C1162 C1166 1.350 . S
C1163 C1166 1.463 . S
C1163 C1168 1.350 . S
C1163 N1171 1.427 . S
C1164 H1155 0.930 . S
C1164 C1162 1.378 . S
C1164 C1165 1.367 . S
C1165 C1164 1.367 . S
C1165 C1167 1.433 . S
C1166 C1162 1.350 . S
C1166 C1163 1.463 . S
C1166 N1170 1.427 . S
C1167 H1157 0.929 . S
C1167 C1165 1.433 . S
C1167 N1170 1.384 . S
C1168 H1159 0.929 . S
C1168 C1160 1.378 . S
C1168 C1163 1.350 . S
C1169 H1156 0.929 . S
C1169 C1161 1.433 . S
C1169 N1171 1.384 . S
N1170 C1166 1.427 . S
N1170 C1167 1.384 . S
N1171 C1163 1.427 . S
N1171 C1169 1.384 . S
H1172 C1178 0.930 . S
H1173 C1182 0.930 . S
H1174 C1187 0.929 . S
H1175 C1185 0.937 . S
H1176 C1180 0.929 . S
H1177 C1186 0.929 . S
C1178 H1172 0.930 . S
C1178 C1179 1.367 . S
C1178 C1186 1.378 . S
C1179 C1178 1.367 . S
C1179 C1187 1.433 . S
C1180 H1176 0.929 . S
C1180 C1182 1.378 . S
C1180 C1184 1.350 . S
C1181 C1184 1.463 . S
C1181 C1186 1.350 . S
C1181 N1189 1.427 . S
C1182 H1173 0.930 . S
C1182 C1180 1.378 . S
C1182 C1183 1.367 . S
C1183 C1182 1.367 . S
C1183 C1185 1.433 . S
C1184 C1180 1.350 . S
C1184 C1181 1.463 . S
C1184 N1188 1.427 . S
C1185 H1175 0.937 . S
C1185 C1183 1.433 . S
C1185 N1188 1.384 . S
C1186 H1177 0.929 . S
C1186 C1178 1.378 . S
C1186 C1181 1.350 . S
C1187 H1174 0.929 . S
C1187 C1179 1.433 . S
C1187 N1189 1.384 . S
N1188 C1184 1.427 . S
N1188 C1185 1.384 . S
N1189 C1181 1.427 . S
N1189 C1187 1.384 . S
H1190 C1196 0.930 . S
H1191 C1200 0.930 . S
H1192 C1205 0.929 . S
H1193 C1203 0.929 . S
H1194 C1198 0.929 . S
H1195 C1204 0.929 . S
C1196 H1190 0.930 . S
C1196 C1197 1.367 . S
C1196 C1204 1.378 . S
C1197 C1196 1.367 . S
C1197 C1205 1.433 . S
C1198 H1194 0.929 . S
C1198 C1200 1.378 . S
C1198 C1202 1.350 . S
C1199 C1202 1.463 . S
C1199 C1204 1.350 . S
C1199 N1207 1.427 . S
C1200 H1191 0.930 . S
C1200 C1198 1.378 . S
C1200 C1201 1.367 . S
C1201 C1200 1.367 . S
C1201 C1203 1.433 . S
C1202 C1198 1.350 . S
C1202 C1199 1.463 . S
C1202 N1206 1.427 . S
C1203 H1193 0.929 . S
C1203 C1201 1.433 . S
C1203 N1206 1.384 . S
C1204 H1195 0.929 . S
C1204 C1196 1.378 . S
C1204 C1199 1.350 . S
C1205 H1192 0.929 . S
C1205 C1197 1.433 . S
C1205 N1207 1.384 . S
N1206 C1202 1.427 . S
N1206 C1203 1.384 . S
N1207 C1199 1.427 . S
N1207 C1205 1.384 . S
C355 C184 1.734 . S
C351 C60 1.740 . S
C373 C199 1.565 . S
C369 C76 1.582 . S
C387 C81 1.818 . S
C391 C212 1.808 . S
C409 C226 1.542 . S
C405 C48 1.562 . S
C427 C238 1.685 . S
C423 C115 1.772 . S
C445 C252 1.390 . S
C441 C136 1.407 . S
C459 C131 1.569 . S
C463 C266 1.542 . S
C481 C281 1.382 . S
C477 C104 1.404 . S
C495 C126 1.619 . S
C499 C297 1.588 . S
C517 C310 1.391 . S
C513 C103 1.377 . S
C531 C120 1.530 . S
C535 C295 1.477 . S
C553 C308 1.532 . S
C549 C142 1.511 . S
C567 C82 1.863 . S
C571 C324 1.855 . S
C585 C54 1.787 . S
C589 C323 1.749 . S
C603 C65 1.638 . S
C607 C322 1.588 . S
C621 C71 1.320 . S
C625 C325 1.325 . S
C639 C37 1.732 . S
C643 C227 1.728 . S
C657 C158 1.824 . S
C661 C225 1.802 . S
C679 C185 1.402 . S
C675 C169 1.412 . S
C697 C196 1.503 . S
C693 C98 1.542 . S
C711 C49 1.680 1_545 S
C715 C241 1.698 . S
C733 C282 1.880 . S
C729 C125 1.878 . S
C751 C239 1.488 . S
C747 C109 1.489 . S
C769 C267 1.656 . S
C765 C137 1.692 . S
C787 C268 1.734 . S
C783 C159 1.738 . S
C801 C175 1.581 . S
C805 C283 1.563 . S
C819 C92 1.820 . S
C823 C240 1.804 . S
C841 C254 1.544 . S
C837 C147 1.561 . S
C855 C38 1.772 . S
C859 C210 1.683 . S
C877 C224 1.382 1_455 S
C873 C4 1.410 . S
C895 C182 1.534 . S
C891 C21 1.571 . S
C913 C197 1.386 . S
C909 C27 1.413 . S
C927 C16 1.620 . S
C931 C311 1.592 . S
C945 C26 1.370 . S
C949 C296 1.387 . S
C963 C43 1.531 . S
C967 C309 1.477 . S
C981 C10 1.520 . S
C985 C294 1.539 . S
C1003 C338 1.857 . S
C999 C93 1.861 . S
C1021 C337 1.756 . S
C1017 C153 1.783 . S
C1039 C336 1.583 . S
C1035 C164 1.633 . S
C1053 C170 1.322 . S
C1057 C339 1.327 . S
C1071 C114 1.731 . S
C1075 C255 1.728 . S
C1093 C253 1.800 . S
C1089 C59 1.825 . S
C1111 C269 1.401 . S
C1107 C70 1.415 . S
C1129 C280 1.512 . S
C1125 C87 1.539 . S
C1143 C148 1.691 . S
C1147 C213 1.688 . S
C1165 C198 1.881 . S
C1161 C15 1.881 . S
C1179 C32 1.497 . S
C1183 C211 1.500 . S
C1201 C183 1.654 1_545 S
C1197 C5 1.685 . S
