# Generated by pormake.
# Topology ftw, (4,12)-cn, num edge types: 1
# Building blocks:
#     Node 0, Type 0, BuildingBlock: AZAVOO_clean_linker_0, # of connection points: 4
#     Node 1, Type 0, BuildingBlock: AZAVOO_clean_linker_0, # of connection points: 4
#     Node 2, Type 0, BuildingBlock: AZAVOO_clean_linker_0, # of connection points: 4
#     Node 3, Type 1, BuildingBlock: EZIPEK_clean_sbu_0, # of connection points: 12
#     Edge 4, Type (0, 1), BuildingBlock: MIFKUJ_clean_linker_0, # of connection points: 2
#     Edge 5, Type (0, 1), BuildingBlock: MIFKUJ_clean_linker_0, # of connection points: 2
#     Edge 6, Type (0, 1), BuildingBlock: MIFKUJ_clean_linker_0, # of connection points: 2
#     Edge 7, Type (0, 1), BuildingBlock: MIFKUJ_clean_linker_0, # of connection points: 2
#     Edge 8, Type (0, 1), BuildingBlock: MIFKUJ_clean_linker_0, # of connection points: 2
#     Edge 9, Type (0, 1), BuildingBlock: MIFKUJ_clean_linker_0, # of connection points: 2
#     Edge 10, Type (0, 1), BuildingBlock: MIFKUJ_clean_linker_0, # of connection points: 2
#     Edge 11, Type (0, 1), BuildingBlock: MIFKUJ_clean_linker_0, # of connection points: 2
#     Edge 12, Type (0, 1), BuildingBlock: MIFKUJ_clean_linker_0, # of connection points: 2
#     Edge 13, Type (0, 1), BuildingBlock: MIFKUJ_clean_linker_0, # of connection points: 2
#     Edge 14, Type (0, 1), BuildingBlock: MIFKUJ_clean_linker_0, # of connection points: 2
#     Edge 15, Type (0, 1), BuildingBlock: MIFKUJ_clean_linker_0, # of connection points: 2
# Relax obj value: 0.048
# Max RMSD: 0.221
# Mean RMSD: 0.169
data_MOF--net-ftw--node1-EZIPEK_clean_sbu_0--node2-AZAVOO_clean_linker_0--edge1-MIFKUJ_clean_linker_0
_symmetry_space_group_name_H-M    P1
_symmetry_Int_Tables_number       1
_symmetry_cell_setting            triclinic
loop_
_symmetry_equiv_pos_as_xyz
'x, y, z'
_cell_length_a     34.510681
_cell_length_b     34.43471
_cell_length_c     34.460853
_cell_angle_alpha  91.380632
_cell_angle_beta   88.656563
_cell_angle_gamma 91.39537
loop_
_atom_site_label
_atom_site_type_symbol
_atom_site_fract_x
_atom_site_fract_y
_atom_site_fract_z
_atom_type_partial_charge
H0 H 0.02659 0.2637 0.38298 0.0
H1 H 0.96049 0.51125 0.75579 0.0
H2 H 0.06299 0.48209 0.4133 0.0
H3 H 0.06795 0.44251 0.35349 0.0
H4 H 0.94326 0.42741 0.35424 0.0
H5 H 0.93867 0.46734 0.41359 0.0
H6 H 0.05813 0.41291 0.46208 0.0
H7 H 0.05707 0.34857 0.43026 0.0
H8 H 0.93213 0.34327 0.44332 0.0
H9 H 0.93362 0.40794 0.4746 0.0
H10 H 0.05753 0.43491 0.56278 0.0
H11 H 0.05691 0.38496 0.61216 0.0
H12 H 0.93281 0.37036 0.60128 0.0
H13 H 0.93392 0.42016 0.55155 0.0
H14 H 0.05862 0.52157 0.58725 0.0
H15 H 0.05713 0.52964 0.65807 0.0
H16 H 0.9336 0.50514 0.6598 0.0
H17 H 0.93542 0.49794 0.58897 0.0
H18 H 0.0669 0.57563 0.52806 0.0
H19 H 0.07267 0.63292 0.57118 0.0
H20 H 0.94785 0.63523 0.58354 0.0
H21 H 0.94244 0.57825 0.54 0.0
H22 H 0.06447 0.57014 0.45335 0.0
H23 H 0.06807 0.62107 0.4048 0.0
H24 H 0.94594 0.60303 0.3835 0.0
H25 H 0.94277 0.55209 0.43192 0.0
O26 O 0.0265 0.28848 0.39683 0.0
O27 O 0.96357 0.28326 0.41174 0.0
O28 O 0.02352 0.53016 0.72522 0.0
O29 O 0.96151 0.51093 0.7277 0.0
C30 C 0.9989 0.48672 0.45984 0.0
C31 C 0.99654 0.45561 0.48594 0.0
C32 C 0.99618 0.46325 0.52616 0.0
C33 C 0.99834 0.50189 0.54049 0.0
C34 C 0.0014 0.53302 0.51448 0.0
C35 C 0.00149 0.52548 0.474 0.0
C36 C 0.0005 0.47734 0.41773 0.0
C37 C 0.03669 0.4719 0.39938 0.0
C38 C 0.03948 0.44884 0.36559 0.0
C39 C 0.00605 0.43122 0.34972 0.0
C40 C 0.96952 0.44067 0.36568 0.0
C41 C 0.96679 0.46365 0.3995 0.0
C42 C 0.99598 0.41489 0.47075 0.0
C43 C 0.03063 0.39757 0.45843 0.0
C44 C 0.0299 0.36094 0.4401 0.0
C45 C 0.9945 0.34084 0.43416 0.0
C46 C 0.95989 0.35794 0.44752 0.0
C47 C 0.96065 0.39473 0.46558 0.0
C48 C 0.99582 0.43084 0.55359 0.0
C49 C 0.03033 0.42056 0.57083 0.0
C50 C 0.02984 0.39232 0.5992 0.0
C51 C 0.99476 0.37391 0.61075 0.0
C52 C 0.96031 0.38376 0.59271 0.0
C53 C 0.96086 0.41212 0.56436 0.0
C54 C 0.99709 0.50943 0.58309 0.0
C55 C 0.0312 0.5186 0.60297 0.0
C56 C 0.03028 0.523 0.6434 0.0
C57 C 0.99525 0.5178 0.6646 0.0
C58 C 0.96106 0.50918 0.64439 0.0
C59 C 0.96198 0.50513 0.60397 0.0
C60 C 0.00425 0.57312 0.53066 0.0
C61 C 0.04081 0.58954 0.53878 0.0
C62 C 0.04405 0.62187 0.56384 0.0
C63 C 0.01073 0.63824 0.58109 0.0
C64 C 0.97403 0.62347 0.57046 0.0
C65 C 0.97084 0.59104 0.5455 0.0
C66 C 0.00329 0.55776 0.44634 0.0
C67 C 0.03844 0.57762 0.43853 0.0
C68 C 0.04042 0.60664 0.4108 0.0
C69 C 0.0073 0.61603 0.39022 0.0
C70 C 0.97207 0.59616 0.39846 0.0
C71 C 0.97011 0.56728 0.42627 0.0
C72 C 0.99377 0.30244 0.41366 0.0
C73 C 0.99441 0.52024 0.70764 0.0
H74 H 0.56715 0.98101 0.25437 0.0
H75 H 0.25382 0.04635 0.58592 0.0
H76 H 0.57366 0.94824 0.46306 0.0
H77 H 0.63102 0.94936 0.41994 0.0
H78 H 0.64944 0.07129 0.44684 0.0
H79 H 0.59128 0.07029 0.48951 0.0
H80 H 0.50837 0.95195 0.41185 0.0
H81 H 0.52942 0.95282 0.34355 0.0
H82 H 0.55577 0.07593 0.3552 0.0
H83 H 0.53432 0.07464 0.42341 0.0
H84 H 0.43489 0.94952 0.44133 0.0
H85 H 0.3861 0.94813 0.39063 0.0
H86 H 0.38688 0.07364 0.39268 0.0
H87 H 0.43614 0.07472 0.44306 0.0
H88 H 0.41387 0.95029 0.53617 0.0
H89 H 0.34699 0.94983 0.5615 0.0
H90 H 0.34292 0.0739 0.54584 0.0
H91 H 0.41 0.07395 0.52103 0.0
H92 H 0.47974 0.94952 0.58896 0.0
H93 H 0.4374 0.94412 0.64677 0.0
H94 H 0.42009 0.06797 0.64629 0.0
H95 H 0.46254 0.07302 0.58889 0.0
H96 H 0.57927 0.95533 0.5443 0.0
H97 H 0.62856 0.95419 0.59439 0.0
H98 H 0.58972 0.06457 0.6404 0.0
H99 H 0.54187 0.06672 0.58901 0.0
O100 O 0.55802 0.98152 0.28115 0.0
O101 O 0.56986 0.04503 0.28828 0.0
O102 O 0.28388 0.98193 0.58339 0.0
O103 O 0.27997 0.04556 0.5752 0.0
C104 C 0.53738 0.01125 0.49271 0.0
C105 C 0.50848 0.01232 0.46426 0.0
C106 C 0.46906 0.01278 0.47547 0.0
C107 C 0.45831 0.0128 0.51503 0.0
C108 C 0.48708 0.0127 0.54364 0.0
C109 C 0.52682 0.0118 0.53266 0.0
C110 C 0.57837 0.0092 0.4793 0.0
C111 C 0.59105 0.97478 0.46107 0.0
C112 C 0.62357 0.97548 0.43634 0.0
C113 C 0.6442 0.01044 0.43016 0.0
C114 C 0.63397 0.04399 0.45156 0.0
C115 C 0.60101 0.0434 0.47602 0.0
C116 C 0.51967 0.01327 0.4224 0.0
C117 C 0.5183 0.97913 0.39944 0.0
C118 C 0.53048 0.9797 0.36049 0.0
C119 C 0.54424 0.01446 0.34388 0.0
C120 C 0.54523 0.0487 0.36703 0.0
C121 C 0.533 0.04807 0.40596 0.0
C122 C 0.43893 0.01221 0.44563 0.0
C123 C 0.4245 0.97665 0.43074 0.0
C124 C 0.39684 0.97593 0.4018 0.0
C125 C 0.38285 0.01079 0.38778 0.0
C126 C 0.39703 0.04639 0.40321 0.0
C127 C 0.42511 0.04707 0.4318 0.0
C128 C 0.41663 0.01213 0.52679 0.0
C129 C 0.39832 0.97725 0.53793 0.0
C130 C 0.36019 0.9771 0.55248 0.0
C131 C 0.33964 0.01188 0.55583 0.0
C132 C 0.35791 0.04664 0.54371 0.0
C133 C 0.39611 0.04674 0.52933 0.0
C134 C 0.47414 0.01165 0.58487 0.0
C135 C 0.46824 0.97567 0.60249 0.0
C136 C 0.44364 0.97258 0.6351 0.0
C137 C 0.42494 0.00553 0.65058 0.0
C138 C 0.43421 0.04211 0.63518 0.0
C139 C 0.45862 0.04512 0.60249 0.0
C140 C 0.55695 0.01118 0.56281 0.0
C141 C 0.58178 0.9796 0.56474 0.0
C142 C 0.60975 0.97887 0.5934 0.0
C143 C 0.61272 0.00926 0.62117 0.0
C144 C 0.58774 0.0407 0.61943 0.0
C145 C 0.56041 0.04187 0.5902 0.0
C146 C 0.55808 0.01477 0.30278 0.0
C147 C 0.2995 0.01205 0.57226 0.0
H148 H 0.43072 0.24983 0.96068 0.0
H149 H 0.74526 0.55095 0.064 0.0
H150 H 0.43022 0.45973 0.93267 0.0
H151 H 0.37384 0.41568 0.92705 0.0
H152 H 0.34407 0.43825 0.04774 0.0
H153 H 0.40088 0.48193 0.05327 0.0
H154 H 0.49955 0.40575 0.94451 0.0
H155 H 0.47621 0.33807 0.94077 0.0
H156 H 0.42695 0.34996 0.05688 0.0
H157 H 0.45095 0.41738 0.0604 0.0
H158 H 0.58482 0.45381 0.95384 0.0
H159 H 0.6345 0.40439 0.95627 0.0
H160 H 0.58662 0.36647 0.06625 0.0
H161 H 0.53786 0.41718 0.06452 0.0
H162 H 0.59005 0.53674 0.95258 0.0
H163 H 0.65806 0.55618 0.96089 0.0
H164 H 0.64886 0.52525 0.08168 0.0
H165 H 0.58057 0.50676 0.07318 0.0
H166 H 0.52301 0.57882 0.93863 0.0
H167 H 0.56552 0.63654 0.93292 0.0
H168 H 0.57165 0.64546 0.05773 0.0
H169 H 0.52975 0.58716 0.06329 0.0
H170 H 0.44606 0.56298 0.93665 0.0
H171 H 0.39541 0.61167 0.9342 0.0
H172 H 0.3783 0.6052 0.05855 0.0
H173 H 0.42885 0.55662 0.06058 0.0
O174 O 0.4406 0.2763 0.96315 0.0
O175 O 0.41559 0.28406 0.02282 0.0
O176 O 0.71893 0.56894 0.00097 0.0
O177 O 0.71806 0.54484 0.06031 0.0
C178 C 0.4602 0.48686 2e-05 0.0
C179 C 0.48857 0.45825 0.00377 0.0
C180 C 0.52792 0.46935 0.00734 0.0
C181 C 0.5389 0.5091 0.00745 0.0
C182 C 0.5105 0.5377 0.00369 0.0
C183 C 0.47106 0.52661 0.00045 0.0
C184 C 0.41962 0.47387 0.99339 0.0
C185 C 0.41048 0.45662 0.95738 0.0
C186 C 0.37859 0.43116 0.95433 0.0
C187 C 0.35512 0.42315 0.98714 0.0
C188 C 0.36168 0.44406 0.022 0.0
C189 C 0.39392 0.46924 0.02515 0.0
C190 C 0.47685 0.41641 0.00268 0.0
C191 C 0.4841 0.3935 0.96924 0.0
C192 C 0.47059 0.35493 0.96714 0.0
C193 C 0.44958 0.33864 0.99848 0.0
C194 C 0.44298 0.36159 0.03221 0.0
C195 C 0.45664 0.40008 0.03431 0.0
C196 C 0.5579 0.43926 0.00912 0.0
C197 C 0.58537 0.43523 0.97873 0.0
C198 C 0.6136 0.40703 0.9801 0.0
C199 C 0.61426 0.38184 0.01148 0.0
C200 C 0.5865 0.38554 0.04171 0.0
C201 C 0.55873 0.41435 0.04072 0.0
C202 C 0.58029 0.52079 0.01239 0.0
C203 C 0.60263 0.53468 0.98093 0.0
C204 C 0.64151 0.5456 0.98572 0.0
C205 C 0.65887 0.5423 0.02198 0.0
C206 C 0.6364 0.52813 0.05338 0.0
C207 C 0.59742 0.51754 0.04862 0.0
C208 C 0.52332 0.57893 0.00137 0.0
C209 C 0.53199 0.5943 0.96478 0.0
C210 C 0.55652 0.62695 0.96153 0.0
C211 C 0.57192 0.64502 0.99489 0.0
C212 C 0.55985 0.63207 0.03166 0.0
C213 C 0.53581 0.59899 0.03488 0.0
C214 C 0.44104 0.55644 0.99878 0.0
C215 C 0.43142 0.57228 0.96329 0.0
C216 C 0.4026 0.60009 0.962 0.0
C217 C 0.38278 0.61219 0.99619 0.0
C218 C 0.39266 0.59612 0.03167 0.0
C219 C 0.42162 0.56858 0.03294 0.0
C220 C 0.43425 0.29804 0.99574 0.0
C221 C 0.70038 0.55299 0.027 0.0
C222 C 0.99962 0.089 0.90808 0.0
C223 C 0.99919 0.09586 0.09555 0.0
C224 C 0.99777 0.90154 0.90965 0.0
C225 C 0.0006 0.9075 0.09816 0.0
C226 C 0.09166 0.90529 0.00047 0.0
C227 C 0.09307 0.09401 0.00378 0.0
C228 C 0.90315 0.90357 0.00632 0.0
C229 C 0.90553 0.09063 0.0026 0.0
C230 C 0.90783 0.00342 0.10199 0.0
C231 C 0.09486 0.00235 0.09322 0.0
C232 C 0.90302 0.99382 0.91363 0.0
C233 C 0.09121 0.00041 0.90591 0.0
Eu234 Eu 0.9993 0.07156 0.00219 0.0
O235 O 0.03429 0.03459 0.03577 0.0
O236 O 0.96398 0.031 0.96976 0.0
Eu237 Eu 0.07219 0.99934 0.00036 0.0
Eu238 Eu 0.92578 0.99745 0.00676 0.0
O239 O 0.03308 0.03207 0.96694 0.0
O240 O 0.96563 0.03357 0.03898 0.0
Eu241 Eu 0.99759 0.99585 0.92989 0.0
Eu242 Eu 0.00074 0.00098 0.07658 0.0
O243 O 0.0323 0.96293 0.96776 0.0
O244 O 0.03341 0.96531 0.03635 0.0
O245 O 0.96481 0.96424 0.03991 0.0
O246 O 0.9635 0.96226 0.9707 0.0
Eu247 Eu 0.99784 0.92442 0.00383 0.0
O248 O 0.00184 0.1022 0.94471 0.0
O249 O 0.99672 0.10595 0.05862 0.0
O250 O 0.99964 0.89028 0.9464 0.0
O251 O 0.99772 0.89423 0.06156 0.0
O252 O 0.10384 0.94225 0.99738 0.0
O253 O 0.105 0.05735 0.00229 0.0
O254 O 0.89261 0.94052 0.0087 0.0
O255 O 0.8936 0.05365 0.00521 0.0
O256 O 0.94496 0.0027 0.11167 0.0
O257 O 0.05833 0.00406 0.10653 0.0
O258 O 0.93965 0.99415 0.90018 0.0
O259 O 0.05442 0.99624 0.89499 0.0
O260 O 0.93969 0.89142 0.00382 0.0
O261 O 0.05476 0.89302 0.00402 0.0
O262 O 0.94246 0.10311 0.00108 0.0
O263 O 0.05626 0.10489 0.00373 0.0
O264 O 0.00229 0.05972 0.10819 0.0
O265 O 0.0025 0.94485 0.10951 0.0
O266 O 0.99693 0.05173 0.89676 0.0
O267 O 0.99596 0.93805 0.89801 0.0
O268 O 0.10337 0.00265 0.94233 0.0
O269 O 0.10598 0.99949 0.05594 0.0
O270 O 0.89204 0.99458 0.95106 0.0
O271 O 0.89476 0.00167 0.06574 0.0
H272 H 0.96287 0.41717 0.28488 0.0
H273 H 0.96308 0.35874 0.24287 0.0
H274 H 0.05561 0.31285 0.30882 0.0
H275 H 0.05561 0.37103 0.35071 0.0
H276 H 0.06723 0.29894 0.23234 0.0
H277 H 0.96365 0.28387 0.32533 0.0
H278 H 0.90427 0.30175 0.36207 0.0
H279 H 0.84056 0.29998 0.25653 0.0
H280 H 0.89973 0.283 0.21899 0.0
H281 H 0.03743 0.10146 0.16417 0.0
H282 H 0.04012 0.15788 0.20921 0.0
H283 H 0.96198 0.21844 0.13727 0.0
H284 H 0.95975 0.16276 0.09194 0.0
H285 H 0.94432 0.22232 0.21958 0.0
H286 H 0.04983 0.24201 0.127 0.0
H287 H 0.10948 0.22437 0.09075 0.0
H288 H 0.16953 0.21524 0.19772 0.0
H289 H 0.10999 0.23237 0.2347 0.0
C290 C 0.98352 0.39479 0.29008 0.0
C291 C 0.00934 0.39876 0.32092 0.0
C292 C 0.98354 0.36141 0.26621 0.0
C293 C 0.00903 0.33126 0.2731 0.0
C294 C 0.03578 0.3358 0.30295 0.0
C295 C 0.0359 0.36919 0.3267 0.0
C296 C 0.00698 0.29447 0.24998 0.0
C297 C 0.04049 0.28188 0.23004 0.0
C298 C 0.97197 0.27241 0.24674 0.0
C299 C 0.93628 0.28259 0.26928 0.0
C300 C 0.93708 0.28767 0.30989 0.0
C301 C 0.90345 0.29759 0.33087 0.0
C302 C 0.86871 0.30206 0.31164 0.0
C303 C 0.86751 0.29658 0.27138 0.0
C304 C 0.9011 0.28683 0.25023 0.0
C305 C 0.02057 0.1267 0.15827 0.0
C306 C 0.99858 0.12796 0.12455 0.0
C307 C 0.02227 0.15885 0.18382 0.0
C308 C 0.00144 0.19225 0.17627 0.0
C309 C 0.9783 0.19291 0.14344 0.0
C310 C 0.9772 0.16119 0.11757 0.0
C311 C 0.00439 0.22714 0.20188 0.0
C312 C 0.97107 0.23928 0.22228 0.0
C313 C 0.03958 0.24859 0.20578 0.0
C314 C 0.0753 0.23794 0.18364 0.0
C315 C 0.07562 0.23579 0.14282 0.0
C316 C 0.10945 0.226 0.12212 0.0
C317 C 0.14325 0.21852 0.1419 0.0
C318 C 0.1433 0.22095 0.18244 0.0
C319 C 0.10952 0.23071 0.20328 0.0
H320 H 0.16941 0.21094 0.12583 0.0
H321 H 0.8427 0.30969 0.32795 0.0
H322 H 0.62627 0.00274 0.35497 0.0
H323 H 0.66973 0.00664 0.29823 0.0
H324 H 0.76702 0.02646 0.37343 0.0
H325 H 0.72261 0.02488 0.43039 0.0
H326 H 0.7762 0.06967 0.31331 0.0
H327 H 0.74488 0.93481 0.32936 0.0
H328 H 0.702 0.87714 0.33778 0.0
H329 H 0.65037 0.89696 0.22805 0.0
H330 H 0.69264 0.95505 0.21919 0.0
H331 H 0.92256 0.00902 0.17955 0.0
H332 H 0.87631 0.01504 0.2334 0.0
H333 H 0.78202 0.01288 0.15339 0.0
H334 H 0.82828 0.00645 0.09871 0.0
H335 H 0.77042 0.96278 0.21428 0.0
H336 H 0.80976 0.0967 0.1981 0.0
H337 H 0.85673 0.1516 0.19231 0.0
H338 H 0.8989 0.12942 0.30561 0.0
H339 H 0.85267 0.07407 0.31191 0.0
C340 C 0.65692 0.00812 0.35921 0.0
C341 C 0.67138 0.01314 0.39672 0.0
C342 C 0.68179 0.01009 0.32688 0.0
C343 C 0.72185 0.01584 0.33151 0.0
C344 C 0.73625 0.02176 0.36913 0.0
C345 C 0.71107 0.02069 0.40159 0.0
C346 C 0.74854 0.0151 0.29706 0.0
C347 C 0.77525 0.04606 0.29191 0.0
C348 C 0.74691 0.98461 0.26871 0.0
C349 C 0.72169 0.94947 0.27378 0.0
C350 C 0.72422 0.927 0.30713 0.0
C351 C 0.70005 0.89422 0.31197 0.0
C352 C 0.67342 0.88345 0.28351 0.0
C353 C 0.67099 0.90537 0.25009 0.0
C354 C 0.69508 0.93819 0.24512 0.0
C355 C 0.89204 0.00987 0.17309 0.0
C356 C 0.87922 0.00711 0.13458 0.0
C357 C 0.86564 0.01361 0.20407 0.0
C358 C 0.82583 0.01491 0.19736 0.0
C359 C 0.81273 0.01209 0.1591 0.0
C360 C 0.8392 0.00838 0.12792 0.0
C361 C 0.79799 0.01728 0.23062 0.0
C362 C 0.77114 0.98651 0.23557 0.0
C363 C 0.80014 0.04753 0.25911 0.0
C364 C 0.82786 0.08101 0.25535 0.0
C365 C 0.82922 0.10334 0.22166 0.0
C366 C 0.85569 0.13456 0.2183 0.0
C367 C 0.88079 0.14392 0.24852 0.0
C368 C 0.87945 0.12213 0.28221 0.0
C369 C 0.85309 0.09085 0.28571 0.0
H370 H 0.90122 0.1681 0.24588 0.0
H371 H 0.65472 0.85807 0.28732 0.0
H372 H 0.04511 0.68691 0.39316 0.0
H373 H 0.04767 0.73659 0.34346 0.0
H374 H 0.97666 0.66303 0.26946 0.0
H375 H 0.97472 0.61288 0.3186 0.0
H376 H 0.03775 0.69777 0.22926 0.0
H377 H 0.93698 0.73644 0.32165 0.0
H378 H 0.91096 0.75367 0.38691 0.0
H379 H 0.99406 0.84811 0.39605 0.0
H380 H 0.02092 0.83112 0.33102 0.0
H381 H 0.97449 0.832 0.09491 0.0
H382 H 0.97846 0.78338 0.14491 0.0
H383 H 0.03591 0.86752 0.22003 0.0
H384 H 0.03092 0.91672 0.17056 0.0
H385 H 0.98583 0.82822 0.26059 0.0
H386 H 0.08573 0.79367 0.16931 0.0
H387 H 0.11394 0.77845 0.1045 0.0
H388 H 0.03784 0.67844 0.09383 0.0
H389 H 0.00875 0.69338 0.15841 0.0
C390 C 0.03037 0.68116 0.36615 0.0
C391 C 0.0095 0.64605 0.35992 0.0
C392 C 0.03165 0.70967 0.33789 0.0
C393 C 0.01204 0.70364 0.30292 0.0
C394 C 0.99192 0.6683 0.29628 0.0
C395 C 0.99053 0.63985 0.32454 0.0
C396 C 0.01166 0.73445 0.27358 0.0
C397 C 0.02608 0.72619 0.23593 0.0
C398 C 0.99754 0.7719 0.28268 0.0
C399 C 0.98121 0.78225 0.32166 0.0
C400 C 0.94989 0.7607 0.3377 0.0
C401 C 0.93496 0.77045 0.37463 0.0
C402 C 0.95091 0.80189 0.39566 0.0
C403 C 0.98177 0.82373 0.37976 0.0
C404 C 0.99684 0.81406 0.34286 0.0
C405 C 0.98804 0.84016 0.12204 0.0
C406 C 0.00248 0.87819 0.1287 0.0
C407 C 0.99048 0.81225 0.15056 0.0
C408 C 0.00824 0.82151 0.18598 0.0
C409 C 0.02225 0.85962 0.19288 0.0
C410 C 0.01932 0.88773 0.16458 0.0
C411 C 0.01165 0.79157 0.21599 0.0
C412 C 0.9978 0.79995 0.25382 0.0
C413 C 0.02686 0.75443 0.20716 0.0
C414 C 0.04484 0.74483 0.16862 0.0
C415 C 0.07487 0.76853 0.15308 0.0
C416 C 0.09102 0.75995 0.11637 0.0
C417 C 0.07764 0.72755 0.09501 0.0
C418 C 0.04817 0.70355 0.1104 0.0
C419 C 0.03186 0.71203 0.14709 0.0
H420 H 0.09014 0.721 0.06656 0.0
H421 H 0.93932 0.8094 0.42424 0.0
H422 H 0.38446 0.96905 0.31957 0.0
H423 H 0.336 0.96757 0.26861 0.0
H424 H 0.26702 0.04881 0.33576 0.0
H425 H 0.31551 0.05057 0.38676 0.0
H426 H 0.22521 0.98143 0.3048 0.0
H427 H 0.31604 0.08274 0.26378 0.0
H428 H 0.38109 0.10916 0.24663 0.0
H429 H 0.39243 0.02308 0.15509 0.0
H430 H 0.32763 0.99578 0.17207 0.0
H431 H 0.09063 0.0333 0.16669 0.0
H432 H 0.14064 0.03451 0.21556 0.0
H433 H 0.21798 0.9749 0.13532 0.0
H434 H 0.16838 0.97474 0.08571 0.0
H435 H 0.25666 0.0291 0.1727 0.0
H436 H 0.16946 0.92693 0.21 0.0
H437 H 0.10607 0.89582 0.22539 0.0
H438 H 0.08983 0.97551 0.32185 0.0
H439 H 0.15297 0.00748 0.30668 0.0
C440 C 0.35888 0.98647 0.32346 0.0
C441 C 0.35365 0.00995 0.35701 0.0
C442 C 0.33138 0.98572 0.29434 0.0
C443 C 0.2981 0.00818 0.29849 0.0
C444 C 0.29258 0.03132 0.33213 0.0
C445 C 0.32032 0.03247 0.36103 0.0
C446 C 0.26903 0.00754 0.26765 0.0
C447 C 0.23182 0.99228 0.27603 0.0
C448 C 0.27831 0.0204 0.22983 0.0
C449 C 0.31715 0.03698 0.21946 0.0
C450 C 0.33254 0.06923 0.24021 0.0
C451 C 0.36934 0.08441 0.23048 0.0
C452 C 0.39092 0.06774 0.19986 0.0
C453 C 0.3757 0.03593 0.17883 0.0
C454 C 0.33893 0.02062 0.18848 0.0
C455 C 0.11826 0.02037 0.15944 0.0
C456 C 0.12549 0.00364 0.12246 0.0
C457 C 0.14679 0.02099 0.18746 0.0
C458 C 0.18281 0.0041 0.17939 0.0
C459 C 0.19037 0.988 0.14223 0.0
C460 C 0.162 0.9879 0.11394 0.0
C461 C 0.21248 0.00326 0.20981 0.0
C462 C 0.24989 0.01815 0.20139 0.0
C463 C 0.20361 0.98926 0.24739 0.0
C464 C 0.16582 0.96982 0.25699 0.0
C465 C 0.15227 0.93798 0.23436 0.0
C466 C 0.11638 0.92018 0.24305 0.0
C467 C 0.09387 0.93373 0.27452 0.0
C468 C 0.10728 0.96506 0.29745 0.0
C469 C 0.14315 0.98301 0.28885 0.0
H470 H 0.06608 0.91992 0.28119 0.0
H471 H 0.41941 0.07953 0.19236 0.0
H472 H 0.05934 0.63742 0.64224 0.0
H473 H 0.06118 0.68214 0.69837 0.0
H474 H 0.97067 0.74875 0.64972 0.0
H475 H 0.96919 0.70445 0.59299 0.0
H476 H 0.02881 0.79511 0.68148 0.0
H477 H 0.94979 0.68316 0.71788 0.0
H478 H 0.93499 0.61393 0.72966 0.0
H479 H 0.02762 0.6113 0.81052 0.0
H480 H 0.04346 0.6803 0.7987 0.0
H481 H 0.95994 0.90232 0.84178 0.0
H482 H 0.9657 0.85675 0.78687 0.0
H483 H 0.0446 0.78866 0.85101 0.0
H484 H 0.03755 0.83364 0.90698 0.0
H485 H 0.99842 0.7426 0.81186 0.0
H486 H 0.07737 0.85323 0.77853 0.0
H487 H 0.09206 0.92302 0.77021 0.0
H488 H 0.00322 0.92844 0.68556 0.0
H489 H 0.98776 0.85872 0.69351 0.0
C490 C 0.04039 0.66206 0.64309 0.0
C491 C 0.01417 0.66754 0.61315 0.0
C492 C 0.0412 0.68732 0.67537 0.0
C493 C 0.01574 0.71844 0.67839 0.0
C494 C 0.99047 0.7248 0.64796 0.0
C495 C 0.98952 0.69943 0.6157 0.0
C496 C 0.0146 0.74374 0.71376 0.0
C497 C 0.02186 0.78372 0.70996 0.0
C498 C 0.00681 0.72862 0.75106 0.0
C499 C 0.99804 0.6868 0.75711 0.0
C500 C 0.96733 0.66769 0.73779 0.0
C501 C 0.95869 0.62852 0.74455 0.0
C502 C 0.98032 0.60831 0.77087 0.0
C503 C 0.01088 0.62704 0.79017 0.0
C504 C 0.01971 0.66615 0.78343 0.0
C505 C 0.97831 0.87746 0.84427 0.0
C506 C 0.99855 0.87159 0.87844 0.0
C507 C 0.98183 0.85161 0.81276 0.0
C508 C 0.00655 0.81995 0.81432 0.0
C509 C 0.02567 0.81313 0.84902 0.0
C510 C 0.02154 0.83869 0.88098 0.0
C511 C 0.01216 0.79412 0.77963 0.0
C512 C 0.00581 0.75402 0.78349 0.0
C513 C 0.02132 0.80907 0.74246 0.0
C514 C 0.03121 0.85079 0.73685 0.0
C515 C 0.06088 0.86933 0.75823 0.0
C516 C 0.06935 0.90887 0.75358 0.0
C517 C 0.04846 0.93018 0.72755 0.0
C518 C 0.01932 0.9119 0.70578 0.0
C519 C 0.01076 0.87235 0.71026 0.0
H520 H 0.05479 0.96085 0.72427 0.0
H521 H 0.97328 0.5782 0.77654 0.0
H522 H 0.40945 0.05079 0.71527 0.0
H523 H 0.35134 0.04805 0.75732 0.0
H524 H 0.30818 0.9487 0.69141 0.0
H525 H 0.36563 0.95198 0.64866 0.0
H526 H 0.253 0.00142 0.70289 0.0
H527 H 0.34336 0.93797 0.7818 0.0
H528 H 0.40463 0.93029 0.81589 0.0
H529 H 0.3821 0.03286 0.88528 0.0
H530 H 0.32091 0.04147 0.85123 0.0
H531 H 0.09767 0.95753 0.83842 0.0
H532 H 0.15345 0.95699 0.79285 0.0
H533 H 0.2083 0.04997 0.85941 0.0
H534 H 0.15376 0.0491 0.90577 0.0
H535 H 0.25732 0.99643 0.84639 0.0
H536 H 0.16764 0.06122 0.76496 0.0
H537 H 0.10668 0.06841 0.72988 0.0
H538 H 0.12767 0.96249 0.66551 0.0
H539 H 0.18851 0.95446 0.70034 0.0
C540 C 0.38771 0.02818 0.71001 0.0
C541 C 0.39228 0.00135 0.67897 0.0
C542 C 0.35462 0.02653 0.7341 0.0
C543 C 0.32559 0.99795 0.72767 0.0
C544 C 0.33029 0.97088 0.69696 0.0
C545 C 0.36336 0.97249 0.67289 0.0
C546 C 0.28975 0.99713 0.75222 0.0
C547 C 0.25383 -0.00017 0.73427 0.0
C548 C 0.29095 0.99568 0.79313 0.0
C549 C 0.32772 0.99055 0.8137 0.0
C550 C 0.35162 0.95907 0.80411 0.0
C551 C 0.3863 0.95451 0.82347 0.0
C552 C 0.3973 0.98112 0.85267 0.0
C553 C 0.37357 0.0123 0.86263 0.0
C554 C 0.33886 0.017 0.84334 0.0
C555 C 0.12146 0.97816 0.8428 0.0
C556 C 0.12172 0.00317 0.87554 0.0
C557 C 0.15321 0.97798 0.81675 0.0
C558 C 0.18505 0.0036 0.82254 0.0
C559 C 0.18428 0.02974 0.85443 0.0
C560 C 0.15311 0.0293 0.88084 0.0
C561 C 0.22041 0.00164 0.79722 0.0
C562 C 0.25634 0.99815 0.81503 0.0
C563 C 0.21915 0.00235 0.75621 0.0
C564 C 0.18246 0.00712 0.73545 0.0
C565 C 0.15911 0.03936 0.7435 0.0
C566 C 0.12466 0.04363 0.72361 0.0
C567 C 0.11341 0.016 0.69548 0.0
C568 C 0.13651 0.98395 0.68721 0.0
C569 C 0.17097 0.97953 0.70698 0.0
H570 H 0.08673 0.01937 0.68014 0.0
H571 H 0.42416 0.97755 0.86763 0.0
H572 H 0.95507 0.30418 0.61316 0.0
H573 H 0.95502 0.25652 0.6647 0.0
H574 H 0.03291 0.33099 0.73053 0.0
H575 H 0.03298 0.37877 0.67922 0.0
H576 H 0.05674 0.25793 0.72843 0.0
H577 H 0.93771 0.32196 0.75672 0.0
H578 H 0.87332 0.34744 0.74348 0.0
H579 H 0.83111 0.23211 0.71526 0.0
H580 H 0.89545 0.20599 0.72779 0.0
H581 H 0.03178 0.16229 0.9103 0.0
H582 H 0.03163 0.21055 0.85919 0.0
H583 H 0.9675 0.13004 0.78584 0.0
H584 H 0.96794 0.08145 0.83649 0.0
H585 H 0.93665 0.20612 0.79231 0.0
H586 H 0.0569 0.14262 0.76642 0.0
H587 H 0.12218 0.11891 0.77873 0.0
H588 H 0.16273 0.23546 0.80325 0.0
H589 H 0.09736 0.25991 0.79242 0.0
C590 C 0.97185 0.31054 0.63881 0.0
C591 C 0.99412 0.34514 0.6421 0.0
C592 C 0.97181 0.28331 0.66821 0.0
C593 C 0.99375 0.29036 0.70157 0.0
C594 C 0.01588 0.32493 0.70497 0.0
C595 C 0.01601 0.35211 0.67558 0.0
C596 C 0.99454 0.26122 0.73246 0.0
C597 C 0.03054 0.24704 0.74287 0.0
C598 C 0.96023 0.24644 0.75059 0.0
C599 C 0.92155 0.26208 0.74278 0.0
C600 C 0.91481 0.30207 0.74732 0.0
C601 C 0.8783 0.31662 0.74003 0.0
C602 C 0.84817 0.29142 0.72843 0.0
C603 C 0.85449 0.2516 0.72418 0.0
C604 C 0.89097 0.23691 0.7314 0.0
C605 C 0.01766 0.15489 0.88328 0.0
C606 C 0.99988 0.11812 0.87734 0.0
C607 C 0.01777 0.18237 0.85411 0.0
C608 C 0.99967 0.17368 0.81881 0.0
C609 C 0.98165 0.13716 0.81292 0.0
C610 C 0.98209 0.10944 0.84179 0.0
C611 C 0.99885 0.203 0.78826 0.0
C612 C 0.96283 0.21716 0.77795 0.0
C613 C 0.03319 0.21802 0.77048 0.0
C614 C 0.07204 0.20309 0.77892 0.0
C615 C 0.07952 0.16318 0.77505 0.0
C616 C 0.1166 0.14961 0.78155 0.0
C617 C 0.14662 0.17569 0.7913 0.0
C618 C 0.13947 0.21533 0.79543 0.0
C619 C 0.10238 0.22905 0.78925 0.0
H620 H 0.17544 0.16517 0.79564 0.0
H621 H 0.81991 0.30274 0.72283 0.0
H622 H 0.69074 0.00192 0.61227 0.0
H623 H 0.73874 0.99939 0.66326 0.0
H624 H 0.6475 0.00941 0.75059 0.0
H625 H 0.59978 0.01409 0.69939 0.0
H626 H 0.70566 0.05066 0.77328 0.0
H627 H 0.69285 0.91968 0.72368 0.0
H628 H 0.69205 0.86744 0.67344 0.0
H629 H 0.81069 0.89466 0.64245 0.0
H630 H 0.81205 0.9474 0.69217 0.0
H631 H 0.82417 0.99129 0.92672 0.0
H632 H 0.77344 0.99262 0.87866 0.0
H633 H 0.86031 0.99658 0.7867 0.0
H634 H 0.9113 0.99495 0.83434 0.0
H635 H 0.80224 0.94617 0.76909 0.0
H636 H 0.81331 0.07861 0.81907 0.0
H637 H 0.8138 0.12823 0.87192 0.0
H638 H 0.69702 0.09528 0.90475 0.0
H639 H 0.69604 0.04505 0.85243 0.0
C640 C 0.68109 0.0036 0.64239 0.0
C641 C 0.64169 0.00796 0.65204 0.0
C642 C 0.70843 0.00192 0.67154 0.0
C643 C 0.69674 0.00327 0.71093 0.0
C644 C 0.65732 0.00818 0.72051 0.0
C645 C 0.63006 0.01076 0.69131 0.0
C646 C 0.7256 0.99961 0.74205 0.0
C647 C 0.72638 0.02746 0.77257 0.0
C648 C 0.7531 0.96964 0.74113 0.0
C649 C 0.75244 0.93769 0.71145 0.0
C650 C 0.7187 0.91466 0.70601 0.0
C651 C 0.71815 0.88495 0.67763 0.0
C652 C 0.75127 0.87779 0.65472 0.0
C653 C 0.78505 0.90026 0.6602 0.0
C654 C 0.78573 0.93003 0.6885 0.0
C655 C 0.83261 0.99237 0.89629 0.0
C656 C 0.87198 0.99325 0.88453 0.0
C657 C 0.80349 0.99323 0.86884 0.0
C658 C 0.81309 0.99512 0.82911 0.0
C659 C 0.85224 0.99516 0.81722 0.0
C660 C 0.88139 0.99431 0.8446 0.0
C661 C 0.78249 0.9974 0.79977 0.0
C662 C 0.78136 0.96924 0.76971 0.0
C663 C 0.75454 0.02684 0.80134 0.0
C664 C 0.75471 0.05787 0.83202 0.0
C665 C 0.78779 0.08185 0.83765 0.0
C666 C 0.78816 0.11008 0.86752 0.0
C667 C 0.7555 0.11485 0.89174 0.0
C668 C 0.72232 0.09153 0.886 0.0
C669 C 0.72182 0.06321 0.85621 0.0
H670 H 0.75588 0.13665 0.91491 0.0
H671 H 0.75078 0.85479 0.63275 0.0
H672 H 0.27938 0.41944 0.01265 0.0
H673 H 0.2371 0.36132 0.01636 0.0
H674 H 0.32919 0.29182 0.96692 0.0
H675 H 0.37064 0.34998 0.96165 0.0
H676 H 0.26572 0.26724 0.93772 0.0
H677 H 0.30589 0.29637 0.06629 0.0
H678 H 0.3164 0.33504 0.1264 0.0
H679 H 0.19352 0.34765 0.14218 0.0
H680 H 0.18225 0.30967 0.08175 0.0
H681 H 0.17197 0.08881 0.99282 0.0
H682 H 0.22007 0.14232 0.9931 0.0
H683 H 0.12964 0.2239 0.01875 0.0
H684 H 0.08162 0.17104 0.01935 0.0
H685 H 0.19651 0.23811 0.06186 0.0
H686 H 0.16007 0.20885 0.92832 0.0
H687 H 0.15269 0.16118 0.8744 0.0
H688 H 0.27524 0.14215 0.87268 0.0
H689 H 0.28314 0.18879 0.92763 0.0
C690 C 0.29028 0.39177 0.00223 0.0
C691 C 0.3281 0.38915 0.9867 0.0
C692 C 0.2663 0.35854 0.0046 0.0
C693 C 0.28018 0.32199 0.99256 0.0
C694 C 0.31774 0.3196 0.97633 0.0
C695 C 0.34139 0.35286 0.97327 0.0
C696 C 0.25577 0.28618 0.99725 0.0
C697 C 0.25104 0.26074 0.96506 0.0
C698 C 0.2366 0.27737 0.03293 0.0
C699 C 0.24326 0.30058 0.06915 0.0
C700 C 0.28111 0.30774 0.08233 0.0
C701 C 0.28721 0.32949 0.11651 0.0
C702 C 0.25566 0.34392 0.13802 0.0
C703 C 0.21794 0.33656 0.12543 0.0
C704 C 0.21168 0.31493 0.0912 0.0
C705 C 0.16236 0.11808 0.99892 0.0
C706 C 0.12284 0.12561 0.00563 0.0
C707 C 0.18987 0.14857 0.99904 0.0
C708 C 0.17825 0.18699 0.00575 0.0
C709 C 0.13913 0.19441 0.01366 0.0
C710 C 0.11168 0.16409 0.01359 0.0
C711 C 0.20618 0.22003 0.00236 0.0
C712 C 0.2115 0.2448 0.03473 0.0
C713 C 0.22649 0.22776 0.96719 0.0
C714 C 0.22215 0.20205 0.93231 0.0
C715 C 0.18544 0.19448 0.91648 0.0
C716 C 0.18115 0.16755 0.88581 0.0
C717 C 0.21348 0.14861 0.87012 0.0
C718 C 0.25022 0.1568 0.88491 0.0
C719 C 0.25461 0.18343 0.91588 0.0
H720 H 0.21009 0.1276 0.8465 0.0
H721 H 0.26044 0.3607 0.16451 0.0
H722 H 0.38396 0.67989 0.95612 0.0
H723 H 0.33388 0.72904 0.9558 0.0
H724 H 0.2623 0.66033 0.03362 0.0
H725 H 0.31199 0.61076 0.03356 0.0
H726 H 0.22056 0.69015 0.97422 0.0
H727 H 0.31235 0.73663 0.06871 0.0
H728 H 0.37725 0.75562 0.09209 0.0
H729 H 0.38731 0.84399 0.00637 0.0
H730 H 0.32265 0.82514 0.98211 0.0
H731 H 0.08637 0.8333 0.03205 0.0
H732 H 0.13562 0.7836 0.03107 0.0
H733 H 0.21343 0.85899 0.96603 0.0
H734 H 0.16472 0.90944 0.96819 0.0
H735 H 0.25215 0.82522 0.01839 0.0
H736 H 0.16171 0.77928 0.92274 0.0
H737 H 0.09681 0.76132 0.89864 0.0
H738 H 0.08439 0.67307 0.98431 0.0
H739 H 0.14908 0.6908 0.00919 0.0
C740 C 0.35739 0.67508 0.97284 0.0
C741 C 0.352 0.64154 0.99502 0.0
C742 C 0.32893 0.70329 0.97285 0.0
C743 C 0.29454 0.6985 0.995 0.0
C744 C 0.28867 0.66465 0.01643 0.0
C745 C 0.3172 0.63652 0.0166 0.0
C746 C 0.26497 0.72912 0.99639 0.0
C747 C 0.22731 0.7196 0.98425 0.0
C748 C 0.27404 0.76771 0.00867 0.0
C749 C 0.31283 0.77921 0.02335 0.0
C750 C 0.32853 0.7599 0.05465 0.0
C751 C 0.36525 0.77067 0.06809 0.0
C752 C 0.38643 0.80092 0.05066 0.0
C753 C 0.37089 0.82053 0.01981 0.0
C754 C 0.3342 0.80983 0.00622 0.0
C755 C 0.11393 0.83926 0.01742 0.0
C756 C 0.12157 0.87521 0.99995 0.0
C757 C 0.14205 0.81074 0.01678 0.0
C758 C 0.17805 0.81718 0.99782 0.0
C759 C 0.18588 0.85326 0.98077 0.0
C760 C 0.15799 0.88207 0.98197 0.0
C761 C 0.20763 0.78643 0.99599 0.0
C762 C 0.24533 0.79586 0.00814 0.0
C763 C 0.19867 0.74783 0.9834 0.0
C764 C 0.16014 0.73651 0.96795 0.0
C765 C 0.14508 0.75612 0.9365 0.0
C766 C 0.10834 0.74598 0.9227 0.0
C767 C 0.08648 0.71609 0.93995 0.0
C768 C 0.10137 0.69619 0.97095 0.0
C769 C 0.1381 0.70622 0.98487 0.0
H770 H 0.05801 0.70832 0.92926 0.0
H771 H 0.41485 0.80922 0.06111 0.0
H772 H 0.69243 0.39142 0.00372 0.0
H773 H 0.74118 0.34098 0.00231 0.0
H774 H 0.6508 0.25339 0.01783 0.0
H775 H 0.60218 0.30417 0.02093 0.0
H776 H 0.70881 0.23574 0.05879 0.0
H777 H 0.69579 0.27199 0.92705 0.0
H778 H 0.69391 0.31614 0.87187 0.0
H779 H 0.81217 0.35181 0.89089 0.0
H780 H 0.81459 0.30829 0.94657 0.0
H781 H 0.82702 0.07828 0.99803 0.0
H782 H 0.77686 0.12694 0.99802 0.0
H783 H 0.86434 0.21831 0.0043 0.0
H784 H 0.91496 0.16995 0.0041 0.0
H785 H 0.80649 0.23162 0.95083 0.0
H786 H 0.81677 0.19143 0.08398 0.0
H787 H 0.81677 0.14174 0.13425 0.0
H788 H 0.69949 0.1084 0.10782 0.0
H789 H 0.69912 0.1572 0.05656 0.0
C790 C 0.68312 0.36137 0.00694 0.0
C791 C 0.6437 0.35149 0.01221 0.0
C792 C 0.71089 0.33256 0.00593 0.0
C793 C 0.69961 0.29325 0.00907 0.0
C794 C 0.66021 0.28348 0.01521 0.0
C795 C 0.63248 0.31241 0.01697 0.0
C796 C 0.7289 0.26239 0.00575 0.0
C797 C 0.72981 0.2346 0.03489 0.0
C798 C 0.75657 0.26094 0.97472 0.0
C799 C 0.75524 0.28714 0.94122 0.0
C800 C 0.7213 0.28947 0.91965 0.0
C801 C 0.72015 0.31435 0.88826 0.0
C802 C 0.75287 0.33683 0.87794 0.0
C803 C 0.78683 0.33442 0.89895 0.0
C804 C 0.78812 0.30963 0.93041 0.0
C805 C 0.83576 0.10869 0.99941 0.0
C806 C 0.87512 0.12015 0.00145 0.0
C807 C 0.80697 0.13643 0.99939 0.0
C808 C 0.81695 0.17611 0.00164 0.0
C809 C 0.85614 0.18775 0.00263 0.0
C810 C 0.885 0.16003 0.00263 0.0
C811 C 0.78649 0.20555 0.00398 0.0
C812 C 0.78538 0.23293 0.97464 0.0
C813 C 0.75824 0.20616 0.0344 0.0
C814 C 0.75804 0.17776 0.06617 0.0
C815 C 0.79105 0.17337 0.08872 0.0
C816 C 0.79111 0.14535 0.11741 0.0
C817 C 0.75816 0.12192 0.12425 0.0
C818 C 0.72501 0.12655 0.10247 0.0
C819 C 0.72487 0.15436 0.07357 0.0
H820 H 0.75829 0.10017 0.14641 0.0
H821 H 0.75193 0.35607 0.85362 0.0
H822 H 0.64078 0.63234 0.95852 0.0
H823 H 0.69854 0.67521 0.9577 0.0
H824 H 0.63546 0.7628 0.02255 0.0
H825 H 0.57775 0.71929 0.02454 0.0
H826 H 0.68613 0.78569 0.94928 0.0
H827 H 0.68564 0.72254 0.07389 0.0
H828 H 0.68236 0.66562 0.11597 0.0
H829 H 0.78282 0.61926 0.05734 0.0
H830 H 0.78616 0.67556 0.0143 0.0
H831 H 0.82631 0.91582 0.02062 0.0
H832 H 0.77244 0.86977 0.01425 0.0
H833 H 0.85173 0.77873 0.98291 0.0
H834 H 0.90661 0.82499 0.98938 0.0
H835 H 0.79505 0.75415 0.03382 0.0
H836 H 0.80113 0.81839 0.91383 0.0
H837 H 0.80533 0.87297 0.8688 0.0
H838 H 0.69661 0.91482 0.91365 0.0
H839 H 0.69206 0.86089 0.95951 0.0
C840 C 0.63915 0.66097 0.97212 0.0
C841 C 0.60493 0.67283 0.99134 0.0
C842 C 0.67208 0.68527 0.97173 0.0
C843 C 0.67107 0.72203 0.99001 0.0
C844 C 0.63657 0.73451 0.00818 0.0
C845 C 0.6038 0.70978 0.00935 0.0
C846 C 0.70664 0.74664 0.99158 0.0
C847 C 0.70982 0.77921 0.96805 0.0
C848 C 0.73796 0.73698 0.01492 0.0
C849 C 0.73584 0.703 0.04056 0.0
C850 C 0.70671 0.69995 0.06962 0.0
C851 C 0.7049 0.66786 0.09371 0.0
C852 C 0.73232 0.63881 0.0893 0.0
C853 C 0.76157 0.64177 0.06071 0.0
C854 C 0.76342 0.67374 0.03643 0.0
C855 C 0.83263 0.88606 0.01238 0.0
C856 C 0.87097 0.87426 0.00514 0.0
C857 C 0.80161 0.85976 0.00861 0.0
C858 C 0.80801 0.82106 0.99732 0.0
C859 C 0.84621 0.80863 0.99136 0.0
C860 C 0.8775 0.83507 0.99513 0.0
C861 C 0.77442 0.79398 0.99212 0.0
C862 C 0.77157 0.76072 0.01482 0.0
C863 C 0.74358 0.8028 0.96757 0.0
C864 C 0.74639 0.83567 0.94037 0.0
C865 C 0.77829 0.83944 0.91441 0.0
C866 C 0.78071 0.87023 0.88867 0.0
C867 C 0.75125 0.89731 0.88836 0.0
C868 C 0.7194 0.89378 0.91392 0.0
C869 C 0.71687 0.86309 0.93978 0.0
H870 H 0.753 0.92091 0.86817 0.0
H871 H 0.73097 0.6141 0.10813 0.0
loop_
_geom_bond_atom_site_label_1
_geom_bond_atom_site_label_2
_geom_bond_distance
_geom_bond_site_symmetry_2
_ccdc_geom_bond_type
H0 O26 0.856 . S
H1 O29 0.854 . S
H2 C37 0.930 . S
H3 C38 0.930 . S
H4 C40 0.930 . S
H5 C41 0.930 . S
H6 C43 0.931 . S
H7 C44 0.930 . S
H8 C46 0.930 . S
H9 C47 0.929 . S
H10 C49 0.930 . S
H11 C50 0.931 . S
H12 C52 0.930 . S
H13 C53 0.929 . S
H14 C55 0.931 . S
H15 C56 0.930 . S
H16 C58 0.930 . S
H17 C59 0.932 . S
H18 C61 0.930 . S
H19 C62 0.929 . S
H20 C64 0.931 . S
H21 C65 0.930 . S
H22 C67 0.929 . S
H23 C68 0.931 . S
H24 C70 0.930 . S
H25 C71 0.929 . S
O26 H0 0.856 . S
O26 C72 1.300 1_455 S
O27 C72 1.209 . S
O28 C73 1.199 1_455 S
O29 H1 0.854 . S
O29 C73 1.297 . S
C30 C31 1.405 . S
C30 C35 1.397 1_655 S
C30 C36 1.490 1_655 S
C31 C30 1.405 . S
C31 C32 1.396 . S
C31 C42 1.492 . S
C32 C31 1.396 . S
C32 C33 1.397 . S
C32 C48 1.509 . S
C33 C32 1.397 . S
C33 C34 1.413 . S
C33 C54 1.485 . S
C34 C33 1.413 . S
C34 C35 1.389 1_655 S
C34 C60 1.490 1_655 S
C35 C30 1.397 1_455 S
C35 C34 1.389 1_455 S
C35 C66 1.519 1_455 S
C36 C30 1.490 1_455 S
C36 C37 1.363 . S
C36 C41 1.390 1_455 S
C37 H2 0.930 . S
C37 C36 1.363 . S
C37 C38 1.372 . S
C38 H3 0.930 . S
C38 C37 1.372 . S
C38 C39 1.383 . S
C39 C38 1.383 . S
C39 C40 1.395 1_455 S
C40 H4 0.930 . S
C40 C39 1.395 1_655 S
C40 C41 1.362 . S
C41 H5 0.930 . S
C41 C36 1.390 1_655 S
C41 C40 1.362 . S
C42 C31 1.492 . S
C42 C43 1.377 1_655 S
C42 C47 1.397 . S
C43 H6 0.931 . S
C43 C42 1.377 1_455 S
C43 C44 1.376 . S
C44 H7 0.930 . S
C44 C43 1.376 . S
C44 C45 1.376 1_455 S
C45 C44 1.376 1_655 S
C45 C46 1.378 . S
C45 C72 1.486 . S
C46 H8 0.930 . S
C46 C45 1.378 . S
C46 C47 1.376 . S
C47 H9 0.929 . S
C47 C42 1.397 . S
C47 C46 1.376 . S
C48 C32 1.509 . S
C48 C49 1.391 1_655 S
C48 C53 1.386 . S
C49 H10 0.930 . S
C49 C48 1.391 1_455 S
C49 C50 1.375 . S
C50 H11 0.931 . S
C50 C49 1.375 . S
C50 C51 1.375 1_455 S
C51 C50 1.375 1_655 S
C51 C52 1.361 . S
C52 H12 0.930 . S
C52 C51 1.361 . S
C52 C53 1.399 . S
C53 H13 0.929 . S
C53 C48 1.386 . S
C53 C52 1.399 . S
C54 C33 1.485 . S
C54 C55 1.394 1_655 S
C54 C59 1.360 . S
C55 H14 0.931 . S
C55 C54 1.394 1_455 S
C55 C56 1.372 . S
C56 H15 0.930 . S
C56 C55 1.372 . S
C56 C57 1.397 1_455 S
C57 C56 1.397 1_655 S
C57 C58 1.390 . S
C57 C73 1.476 . S
C58 H16 0.930 . S
C58 C57 1.390 . S
C58 C59 1.366 . S
C59 H17 0.932 . S
C59 C54 1.360 . S
C59 C58 1.366 . S
C60 C34 1.490 1_455 S
C60 C61 1.380 . S
C60 C65 1.386 1_455 S
C61 H18 0.930 . S
C61 C60 1.380 . S
C61 C62 1.381 . S
C62 H19 0.929 . S
C62 C61 1.381 . S
C62 C63 1.371 . S
C63 C62 1.371 . S
C63 C64 1.380 1_455 S
C64 H20 0.931 . S
C64 C63 1.380 1_655 S
C64 C65 1.387 . S
C65 H21 0.930 . S
C65 C60 1.386 1_655 S
C65 C64 1.387 . S
C66 C35 1.519 1_655 S
C66 C67 1.377 1_655 S
C66 C71 1.361 . S
C67 H22 0.929 . S
C67 C66 1.377 1_455 S
C67 C68 1.386 . S
C68 H23 0.931 . S
C68 C67 1.386 . S
C68 C69 1.363 1_455 S
C69 C68 1.363 1_655 S
C69 C70 1.385 . S
C70 H24 0.930 . S
C70 C69 1.385 . S
C70 C71 1.396 . S
C71 H25 0.929 . S
C71 C66 1.361 . S
C71 C70 1.396 . S
C72 O26 1.300 1_655 S
C72 O27 1.209 . S
C72 C45 1.486 . S
C73 O28 1.199 1_655 S
C73 O29 1.297 . S
C73 C57 1.476 . S
H74 O100 0.852 1_545 S
H75 O103 0.854 . S
H76 C111 0.930 . S
H77 C112 0.930 . S
H78 C114 0.930 . S
H79 C115 0.930 . S
H80 C117 0.931 . S
H81 C118 0.930 . S
H82 C120 0.930 . S
H83 C121 0.929 . S
H84 C123 0.930 . S
H85 C124 0.931 . S
H86 C126 0.930 . S
H87 C127 0.929 . S
H88 C129 0.931 . S
H89 C130 0.930 . S
H90 C132 0.930 . S
H91 C133 0.932 . S
H92 C135 0.930 . S
H93 C136 0.929 . S
H94 C138 0.931 . S
H95 C139 0.930 . S
H96 C141 0.929 . S
H97 C142 0.931 . S
H98 C144 0.930 . S
H99 C145 0.929 . S
O100 H74 0.852 1_565 S
O100 C146 1.300 1_565 S
O101 C146 1.209 . S
O102 C147 1.199 1_565 S
O103 H75 0.854 . S
O103 C147 1.297 . S
C104 C105 1.404 . S
C104 C109 1.397 . S
C104 C110 1.492 . S
C105 C104 1.404 . S
C105 C106 1.396 . S
C105 C116 1.492 . S
C106 C105 1.396 . S
C106 C107 1.397 . S
C106 C122 1.509 . S
C107 C106 1.397 . S
C107 C108 1.412 . S
C107 C128 1.485 . S
C108 C107 1.412 . S
C108 C109 1.388 . S
C108 C134 1.490 . S
C109 C104 1.397 . S
C109 C108 1.388 . S
C109 C140 1.519 . S
C110 C104 1.492 . S
C110 C111 1.363 1_545 S
C110 C115 1.390 . S
C111 H76 0.930 . S
C111 C110 1.363 1_565 S
C111 C112 1.372 . S
C112 H77 0.930 . S
C112 C111 1.372 . S
C112 C113 1.383 . S
C113 C112 1.383 . S
C113 C114 1.395 1_565 S
C114 H78 0.930 . S
C114 C113 1.395 1_545 S
C114 C115 1.362 . S
C115 H79 0.930 . S
C115 C110 1.390 . S
C115 C114 1.362 . S
C116 C105 1.492 . S
C116 C117 1.377 1_545 S
C116 C121 1.397 . S
C117 H80 0.931 . S
C117 C116 1.377 1_565 S
C117 C118 1.376 . S
C118 H81 0.930 . S
C118 C117 1.376 . S
C118 C119 1.376 1_565 S
C119 C118 1.376 1_545 S
C119 C120 1.378 . S
C119 C146 1.486 . S
C120 H82 0.930 . S
C120 C119 1.378 . S
C120 C121 1.376 . S
C121 H83 0.929 . S
C121 C116 1.397 . S
C121 C120 1.376 . S
C122 C106 1.509 . S
C122 C123 1.391 1_545 S
C122 C127 1.386 . S
C123 H84 0.930 . S
C123 C122 1.391 1_565 S
C123 C124 1.375 . S
C124 H85 0.931 . S
C124 C123 1.375 . S
C124 C125 1.375 1_565 S
C125 C124 1.375 1_545 S
C125 C126 1.361 . S
C126 H86 0.930 . S
C126 C125 1.361 . S
C126 C127 1.399 . S
C127 H87 0.929 . S
C127 C122 1.386 . S
C127 C126 1.399 . S
C128 C107 1.485 . S
C128 C129 1.394 1_545 S
C128 C133 1.360 . S
C129 H88 0.931 . S
C129 C128 1.394 1_565 S
C129 C130 1.372 . S
C130 H89 0.930 . S
C130 C129 1.372 . S
C130 C131 1.397 1_565 S
C131 C130 1.397 1_545 S
C131 C132 1.390 . S
C131 C147 1.476 . S
C132 H90 0.930 . S
C132 C131 1.390 . S
C132 C133 1.366 . S
C133 H91 0.932 . S
C133 C128 1.360 . S
C133 C132 1.366 . S
C134 C108 1.490 . S
C134 C135 1.380 1_545 S
C134 C139 1.386 . S
C135 H92 0.930 . S
C135 C134 1.380 1_565 S
C135 C136 1.381 . S
C136 H93 0.929 . S
C136 C135 1.381 . S
C136 C137 1.371 . S
C137 C136 1.371 . S
C137 C138 1.380 1_565 S
C138 H94 0.931 . S
C138 C137 1.380 1_545 S
C138 C139 1.387 . S
C139 H95 0.930 . S
C139 C134 1.386 . S
C139 C138 1.387 . S
C140 C109 1.519 . S
C140 C141 1.377 1_545 S
C140 C145 1.361 . S
C141 H96 0.929 . S
C141 C140 1.377 1_565 S
C141 C142 1.386 . S
C142 H97 0.931 . S
C142 C141 1.386 . S
C142 C143 1.363 1_565 S
C143 C142 1.363 1_545 S
C143 C144 1.385 . S
C144 H98 0.930 . S
C144 C143 1.385 . S
C144 C145 1.396 . S
C145 H99 0.929 . S
C145 C140 1.361 . S
C145 C144 1.396 . S
C146 O100 1.300 1_545 S
C146 O101 1.209 . S
C146 C119 1.486 . S
C147 O102 1.199 1_545 S
C147 O103 1.297 . S
C147 C131 1.476 . S
H148 O174 0.856 . S
H149 O177 0.854 . S
H150 C185 0.930 . S
H151 C186 0.930 . S
H152 C188 0.930 . S
H153 C189 0.930 . S
H154 C191 0.931 . S
H155 C192 0.930 . S
H156 C194 0.930 . S
H157 C195 0.929 . S
H158 C197 0.930 . S
H159 C198 0.931 . S
H160 C200 0.930 . S
H161 C201 0.929 . S
H162 C203 0.931 . S
H163 C204 0.930 . S
H164 C206 0.930 . S
H165 C207 0.932 . S
H166 C209 0.930 . S
H167 C210 0.929 . S
H168 C212 0.931 . S
H169 C213 0.930 . S
H170 C215 0.929 . S
H171 C216 0.931 . S
H172 C218 0.930 . S
H173 C219 0.929 . S
O174 H148 0.856 . S
O174 C220 1.300 1_556 S
O175 C220 1.209 . S
O176 C221 1.199 1_556 S
O177 H149 0.854 . S
O177 C221 1.297 . S
C178 C179 1.404 . S
C178 C183 1.397 . S
C178 C184 1.489 1_554 S
C179 C178 1.404 . S
C179 C180 1.396 . S
C179 C190 1.492 . S
C180 C179 1.396 . S
C180 C181 1.397 . S
C180 C196 1.509 . S
C181 C180 1.397 . S
C181 C182 1.412 . S
C181 C202 1.485 . S
C182 C181 1.412 . S
C182 C183 1.388 . S
C182 C208 1.490 1_554 S
C183 C178 1.397 . S
C183 C182 1.388 . S
C183 C214 1.519 . S
C184 C178 1.489 1_556 S
C184 C185 1.387 . S
C184 C189 1.370 1_556 S
C185 H150 0.930 . S
C185 C184 1.387 . S
C185 C186 1.372 . S
C186 H151 0.930 . S
C186 C185 1.372 . S
C186 C187 1.383 . S
C187 C186 1.383 . S
C187 C188 1.395 1_556 S
C188 H152 0.930 . S
C188 C187 1.395 1_554 S
C188 C189 1.362 . S
C189 H153 0.930 . S
C189 C184 1.370 1_554 S
C189 C188 1.362 . S
C190 C179 1.492 . S
C190 C191 1.377 1_554 S
C190 C195 1.397 . S
C191 H154 0.931 . S
C191 C190 1.377 1_556 S
C191 C192 1.376 . S
C192 H155 0.930 . S
C192 C191 1.376 . S
C192 C193 1.376 1_556 S
C193 C192 1.376 1_554 S
C193 C194 1.378 . S
C193 C220 1.486 . S
C194 H156 0.930 . S
C194 C193 1.378 . S
C194 C195 1.376 . S
C195 H157 0.929 . S
C195 C190 1.397 . S
C195 C194 1.376 . S
C196 C180 1.509 . S
C196 C197 1.391 1_554 S
C196 C201 1.386 . S
C197 H158 0.930 . S
C197 C196 1.391 1_556 S
C197 C198 1.375 . S
C198 H159 0.931 . S
C198 C197 1.375 . S
C198 C199 1.375 1_556 S
C199 C198 1.375 1_554 S
C199 C200 1.361 . S
C200 H160 0.930 . S
C200 C199 1.361 . S
C200 C201 1.399 . S
C201 H161 0.929 . S
C201 C196 1.386 . S
C201 C200 1.399 . S
C202 C181 1.485 . S
C202 C203 1.394 1_554 S
C202 C207 1.360 . S
C203 H162 0.931 . S
C203 C202 1.394 1_556 S
C203 C204 1.372 . S
C204 H163 0.930 . S
C204 C203 1.372 . S
C204 C205 1.397 1_556 S
C205 C204 1.397 1_554 S
C205 C206 1.390 . S
C205 C221 1.476 . S
C206 H164 0.930 . S
C206 C205 1.390 . S
C206 C207 1.366 . S
C207 H165 0.932 . S
C207 C202 1.360 . S
C207 C206 1.366 . S
C208 C182 1.490 1_556 S
C208 C209 1.380 . S
C208 C213 1.386 1_556 S
C209 H166 0.930 . S
C209 C208 1.380 . S
C209 C210 1.381 . S
C210 H167 0.929 . S
C210 C209 1.381 . S
C210 C211 1.371 . S
C211 C210 1.371 . S
C211 C212 1.380 1_556 S
C212 H168 0.931 . S
C212 C211 1.380 1_554 S
C212 C213 1.387 . S
C213 H169 0.930 . S
C213 C208 1.386 1_554 S
C213 C212 1.387 . S
C214 C183 1.519 . S
C214 C215 1.377 1_554 S
C214 C219 1.361 . S
C215 H170 0.929 . S
C215 C214 1.377 1_556 S
C215 C216 1.386 . S
C216 H171 0.931 . S
C216 C215 1.386 . S
C216 C217 1.363 1_556 S
C217 C216 1.363 1_554 S
C217 C218 1.385 . S
C218 H172 0.930 . S
C218 C217 1.385 . S
C218 C219 1.396 . S
C219 H173 0.929 . S
C219 C214 1.361 . S
C219 C218 1.396 . S
C220 O174 1.300 1_554 S
C220 O175 1.209 . S
C220 C193 1.486 . S
C221 O176 1.199 1_554 S
C221 O177 1.297 . S
C221 C205 1.476 . S
C222 O248 1.283 . S
C222 O266 1.283 . S
C223 O249 1.283 . S
C223 O264 1.283 . S
C224 O250 1.283 . S
C224 O267 1.283 . S
C225 O251 1.283 . S
C225 O265 1.283 . S
C226 O252 1.283 . S
C226 O261 1.283 . S
C227 O253 1.283 . S
C227 O263 1.283 . S
C228 O254 1.283 . S
C228 O260 1.283 . S
C229 O255 1.283 . S
C229 O262 1.283 . S
C230 O256 1.283 . S
C230 O271 1.283 . S
C231 O257 1.283 . S
C231 O269 1.283 . S
C232 O258 1.283 . S
C232 O270 1.283 . S
C233 O259 1.283 . S
C233 O268 1.283 . S
Eu234 O235 2.370 . S
Eu234 O236 2.370 1_454 S
Eu234 O239 2.370 1_554 S
Eu234 O240 2.370 1_455 S
Eu234 O248 2.363 1_554 S
Eu234 O249 2.363 . S
Eu234 O262 2.363 1_455 S
Eu234 O263 2.363 . S
O235 Eu234 2.370 . S
O235 Eu237 2.376 . S
O235 Eu242 2.370 . S
O236 Eu234 2.370 1_656 S
O236 Eu238 2.370 1_556 S
O236 Eu241 2.370 1_655 S
Eu237 O235 2.376 . S
Eu237 O239 2.364 1_554 S
Eu237 O243 2.364 1_544 S
Eu237 O244 2.376 1_545 S
Eu237 O252 2.364 1_544 S
Eu237 O253 2.363 . S
Eu237 O268 2.353 1_554 S
Eu237 O269 2.373 . S
Eu238 O236 2.370 1_554 S
Eu238 O240 2.370 . S
Eu238 O245 2.370 1_545 S
Eu238 O246 2.370 1_544 S
Eu238 O254 2.363 1_545 S
Eu238 O255 2.363 . S
Eu238 O270 2.363 1_554 S
Eu238 O271 2.363 . S
O239 Eu234 2.370 1_556 S
O239 Eu237 2.364 1_556 S
O239 Eu241 2.370 . S
O240 Eu234 2.370 1_655 S
O240 Eu238 2.370 . S
O240 Eu242 2.370 1_655 S
Eu241 O236 2.370 1_455 S
Eu241 O239 2.370 . S
Eu241 O243 2.370 1_545 S
Eu241 O246 2.370 1_445 S
Eu241 O258 2.363 1_455 S
Eu241 O259 2.363 . S
Eu241 O266 2.363 . S
Eu241 O267 2.363 1_545 S
Eu242 O235 2.370 . S
Eu242 O240 2.370 1_455 S
Eu242 O244 2.370 1_545 S
Eu242 O245 2.370 1_445 S
Eu242 O256 2.364 1_455 S
Eu242 O257 2.362 . S
Eu242 O264 2.363 . S
Eu242 O265 2.363 1_445 S
O243 Eu237 2.364 1_566 S
O243 Eu241 2.370 1_565 S
O243 Eu247 2.364 1_556 S
O244 Eu237 2.376 1_565 S
O244 Eu242 2.370 1_565 S
O244 Eu247 2.376 . S
O245 Eu238 2.370 1_565 S
O245 Eu242 2.370 1_665 S
O245 Eu247 2.376 1_655 S
O246 Eu238 2.370 1_566 S
O246 Eu241 2.370 1_665 S
O246 Eu247 2.364 1_656 S
Eu247 O243 2.364 1_554 S
Eu247 O244 2.376 . S
Eu247 O245 2.376 1_455 S
Eu247 O246 2.364 1_454 S
Eu247 O250 2.353 1_554 S
Eu247 O251 2.373 1_455 S
Eu247 O260 2.364 1_455 S
Eu247 O261 2.363 1_554 S
O248 C222 1.283 . S
O248 Eu234 2.363 1_556 S
O249 C223 1.283 . S
O249 Eu234 2.363 . S
O250 C224 1.283 . S
O250 Eu247 2.353 1_556 S
O251 C225 1.283 . S
O251 Eu247 2.373 1_655 S
O252 C226 1.283 . S
O252 Eu237 2.364 1_566 S
O253 C227 1.283 . S
O253 Eu237 2.363 . S
O254 C228 1.283 . S
O254 Eu238 2.363 1_565 S
O255 C229 1.283 . S
O255 Eu238 2.363 . S
O256 C230 1.283 . S
O256 Eu242 2.364 1_655 S
O257 C231 1.283 . S
O257 Eu242 2.362 . S
O258 C232 1.283 . S
O258 Eu241 2.363 1_655 S
O259 C233 1.283 . S
O259 Eu241 2.363 . S
O260 C228 1.283 . S
O260 Eu247 2.364 1_655 S
O261 C226 1.283 . S
O261 Eu247 2.363 1_556 S
O262 C229 1.283 . S
O262 Eu234 2.363 1_655 S
O263 C227 1.283 . S
O263 Eu234 2.363 . S
O264 C223 1.283 . S
O264 Eu242 2.363 . S
O265 C225 1.283 . S
O265 Eu242 2.363 1_665 S
O266 C222 1.283 . S
O266 Eu241 2.363 . S
O267 C224 1.283 . S
O267 Eu241 2.363 1_565 S
O268 C233 1.283 . S
O268 Eu237 2.353 1_556 S
O269 C231 1.283 . S
O269 Eu237 2.373 . S
O270 C232 1.283 . S
O270 Eu238 2.363 1_556 S
O271 C230 1.283 . S
O271 Eu238 2.363 . S
H272 C290 0.951 . S
H273 C292 0.951 . S
H274 C294 0.950 . S
H275 C295 0.950 . S
H276 C297 0.950 . S
H277 C300 0.950 . S
H278 C301 0.950 . S
H279 C303 0.950 . S
H280 C304 0.950 . S
H281 C305 0.951 . S
H282 C307 0.951 . S
H283 C309 0.950 . S
H284 C310 0.950 . S
H285 C312 0.950 . S
H286 C315 0.950 . S
H287 C316 0.950 . S
H288 C318 0.950 . S
H289 C319 0.950 . S
C290 H272 0.951 . S
C290 C291 1.366 1_655 S
C290 C292 1.388 . S
C291 C290 1.366 1_455 S
C291 C295 1.385 . S
C292 H273 0.951 . S
C292 C290 1.388 . S
C292 C293 1.366 1_655 S
C293 C292 1.366 1_455 S
C293 C294 1.414 . S
C293 C296 1.499 . S
C294 H274 0.950 . S
C294 C293 1.414 . S
C294 C295 1.374 . S
C295 H275 0.950 . S
C295 C291 1.385 . S
C295 C294 1.374 . S
C296 C293 1.499 . S
C296 C297 1.373 . S
C296 C298 1.389 1_455 S
C297 H276 0.950 . S
C297 C296 1.373 . S
C297 C313 1.377 . S
C298 C296 1.389 1_655 S
C298 C299 1.524 . S
C298 C312 1.377 . S
C299 C298 1.524 . S
C299 C300 1.397 . S
C299 C304 1.363 . S
C300 H277 0.950 . S
C300 C299 1.397 . S
C300 C301 1.334 . S
C301 H278 0.950 . S
C301 C300 1.334 . S
C301 C302 1.287 . S
C302 C301 1.287 . S
C302 C303 1.524 . S
C302 H321 0.913 . S
C303 H279 0.950 . S
C303 C302 1.524 . S
C303 C304 1.415 . S
C304 H280 0.950 . S
C304 C299 1.363 . S
C304 C303 1.415 . S
C305 H281 0.951 . S
C305 C306 1.366 . S
C305 C307 1.388 . S
C306 C305 1.366 . S
C306 C310 1.385 1_455 S
C307 H282 0.951 . S
C307 C305 1.388 . S
C307 C308 1.366 . S
C308 C307 1.366 . S
C308 C309 1.414 1_455 S
C308 C311 1.499 . S
C309 H283 0.950 . S
C309 C308 1.414 1_655 S
C309 C310 1.374 . S
C310 H284 0.950 . S
C310 C306 1.385 1_655 S
C310 C309 1.374 . S
C311 C308 1.499 . S
C311 C312 1.373 1_455 S
C311 C313 1.389 . S
C312 H285 0.950 . S
C312 C298 1.377 . S
C312 C311 1.373 1_655 S
C313 C297 1.377 . S
C313 C311 1.389 . S
C313 C314 1.524 . S
C314 C313 1.524 . S
C314 C315 1.397 . S
C314 C319 1.363 . S
C315 H286 0.950 . S
C315 C314 1.397 . S
C315 C316 1.334 . S
C316 H287 0.950 . S
C316 C315 1.334 . S
C316 C317 1.287 . S
C317 C316 1.287 . S
C317 C318 1.524 . S
C317 H320 0.999 . S
C318 H288 0.950 . S
C318 C317 1.524 . S
C318 C319 1.415 . S
C319 H289 0.950 . S
C319 C314 1.363 . S
C319 C318 1.415 . S
H320 C317 0.999 . S
H321 C302 0.913 . S
H322 C340 0.951 . S
H323 C342 0.951 . S
H324 C344 0.950 1_545 S
H325 C345 0.950 . S
H326 C347 0.950 . S
H327 C350 0.950 . S
H328 C351 0.950 . S
H329 C353 0.950 . S
H330 C354 0.950 . S
H331 C355 0.951 . S
H332 C357 0.951 . S
H333 C359 0.952 . S
H334 C360 0.949 1_565 S
H335 C362 0.950 . S
H336 C365 0.950 . S
H337 C366 0.950 . S
H338 C368 0.950 . S
H339 C369 0.950 . S
C340 H322 0.951 . S
C340 C341 1.366 . S
C340 C342 1.388 . S
C341 C340 1.366 . S
C341 C345 1.385 . S
C342 H323 0.951 . S
C342 C340 1.388 . S
C342 C343 1.366 . S
C343 C342 1.366 . S
C343 C344 1.414 . S
C343 C346 1.499 . S
C344 H324 0.950 1_565 S
C344 C343 1.414 . S
C344 C345 1.374 . S
C345 H325 0.950 . S
C345 C341 1.385 . S
C345 C344 1.374 . S
C346 C343 1.499 . S
C346 C347 1.373 1_565 S
C346 C348 1.389 . S
C347 H326 0.950 . S
C347 C346 1.373 1_545 S
C347 C363 1.377 . S
C348 C346 1.389 . S
C348 C349 1.524 . S
C348 C362 1.377 . S
C349 C348 1.524 . S
C349 C350 1.397 . S
C349 C354 1.363 . S
C350 H327 0.950 . S
C350 C349 1.397 . S
C350 C351 1.334 . S
C351 H328 0.950 . S
C351 C350 1.334 . S
C351 C352 1.287 . S
C352 C351 1.287 . S
C352 C353 1.524 . S
C352 H371 0.913 . S
C353 H329 0.950 . S
C353 C352 1.524 . S
C353 C354 1.415 . S
C354 H330 0.950 . S
C354 C349 1.363 . S
C354 C353 1.415 . S
C355 H331 0.951 . S
C355 C356 1.366 . S
C355 C357 1.388 . S
C356 C355 1.366 . S
C356 C360 1.387 . S
C357 H332 0.951 . S
C357 C355 1.388 . S
C357 C358 1.366 . S
C358 C357 1.366 . S
C358 C359 1.413 1_545 S
C358 C361 1.499 . S
C359 H333 0.952 . S
C359 C358 1.413 1_565 S
C359 C360 1.373 1_565 S
C360 H334 0.949 1_545 S
C360 C356 1.387 . S
C360 C359 1.373 1_545 S
C361 C358 1.499 . S
C361 C362 1.373 1_545 S
C361 C363 1.389 . S
C362 H335 0.950 . S
C362 C348 1.377 . S
C362 C361 1.373 1_565 S
C363 C347 1.377 . S
C363 C361 1.389 . S
C363 C364 1.524 . S
C364 C363 1.524 . S
C364 C365 1.397 . S
C364 C369 1.363 . S
C365 H336 0.950 . S
C365 C364 1.397 . S
C365 C366 1.334 . S
C366 H337 0.950 . S
C366 C365 1.334 . S
C366 C367 1.287 . S
C367 C366 1.287 . S
C367 C368 1.524 . S
C367 H370 0.999 . S
C368 H338 0.950 . S
C368 C367 1.524 . S
C368 C369 1.415 . S
C369 H339 0.950 . S
C369 C364 1.363 . S
C369 C368 1.415 . S
H370 C367 0.999 . S
H371 C352 0.913 . S
H372 C390 0.951 . S
H373 C392 0.951 . S
H374 C394 0.950 . S
H375 C395 0.950 . S
H376 C397 0.950 . S
H377 C400 0.950 . S
H378 C401 0.950 . S
H379 C403 0.950 . S
H380 C404 0.950 . S
H381 C405 0.951 . S
H382 C407 0.951 . S
H383 C409 0.950 . S
H384 C410 0.950 . S
H385 C412 0.950 . S
H386 C415 0.950 . S
H387 C416 0.950 . S
H388 C418 0.950 . S
H389 C419 0.950 . S
C390 H372 0.951 . S
C390 C391 1.366 1_455 S
C390 C392 1.388 . S
C391 C390 1.366 1_655 S
C391 C395 1.385 . S
C392 H373 0.951 . S
C392 C390 1.388 . S
C392 C393 1.366 1_455 S
C393 C392 1.366 1_655 S
C393 C394 1.414 . S
C393 C396 1.499 . S
C394 H374 0.950 . S
C394 C393 1.414 . S
C394 C395 1.374 . S
C395 H375 0.950 . S
C395 C391 1.385 . S
C395 C394 1.374 . S
C396 C393 1.499 . S
C396 C397 1.373 . S
C396 C398 1.389 . S
C397 H376 0.950 . S
C397 C396 1.373 . S
C397 C413 1.377 . S
C398 C396 1.389 . S
C398 C399 1.524 . S
C398 C412 1.377 . S
C399 C398 1.524 . S
C399 C400 1.397 . S
C399 C404 1.363 1_655 S
C400 H377 0.950 . S
C400 C399 1.397 . S
C400 C401 1.334 . S
C401 H378 0.950 . S
C401 C400 1.334 . S
C401 C402 1.287 . S
C402 C401 1.287 . S
C402 C403 1.524 1_655 S
C402 H421 0.913 . S
C403 H379 0.950 . S
C403 C402 1.524 1_455 S
C403 C404 1.415 . S
C404 H380 0.950 . S
C404 C399 1.363 1_455 S
C404 C403 1.415 . S
C405 H381 0.951 . S
C405 C406 1.366 . S
C405 C407 1.388 . S
C406 C405 1.366 . S
C406 C410 1.385 1_655 S
C407 H382 0.951 . S
C407 C405 1.388 . S
C407 C408 1.366 . S
C408 C407 1.366 . S
C408 C409 1.414 1_655 S
C408 C411 1.499 . S
C409 H383 0.950 . S
C409 C408 1.414 1_455 S
C409 C410 1.374 . S
C410 H384 0.950 . S
C410 C406 1.385 1_455 S
C410 C409 1.374 . S
C411 C408 1.499 . S
C411 C412 1.373 . S
C411 C413 1.389 . S
C412 H385 0.950 . S
C412 C398 1.377 . S
C412 C411 1.373 . S
C413 C397 1.377 . S
C413 C411 1.389 . S
C413 C414 1.524 . S
C414 C413 1.524 . S
C414 C415 1.397 1_655 S
C414 C419 1.363 . S
C415 H386 0.950 . S
C415 C414 1.397 1_455 S
C415 C416 1.334 . S
C416 H387 0.950 . S
C416 C415 1.334 . S
C416 C417 1.287 . S
C417 C416 1.287 . S
C417 C418 1.524 1_455 S
C417 H420 0.999 . S
C418 H388 0.950 . S
C418 C417 1.524 1_655 S
C418 C419 1.415 . S
C419 H389 0.950 . S
C419 C414 1.363 . S
C419 C418 1.415 . S
H420 C417 0.999 . S
H421 C402 0.913 . S
H422 C440 0.951 1_565 S
H423 C442 0.951 1_565 S
H424 C444 0.950 . S
H425 C445 0.950 . S
H426 C447 0.950 . S
H427 C450 0.950 . S
H428 C451 0.950 . S
H429 C453 0.950 . S
H430 C454 0.950 1_565 S
H431 C455 0.951 . S
H432 C457 0.951 . S
H433 C459 0.950 . S
H434 C460 0.950 . S
H435 C462 0.950 . S
H436 C465 0.950 . S
H437 C466 0.950 . S
H438 C468 0.950 . S
H439 C469 0.950 . S
C440 H422 0.951 1_545 S
C440 C441 1.366 . S
C440 C442 1.388 . S
C441 C440 1.366 . S
C441 C445 1.385 . S
C442 H423 0.951 1_545 S
C442 C440 1.388 . S
C442 C443 1.366 . S
C443 C442 1.366 . S
C443 C444 1.414 . S
C443 C446 1.499 . S
C444 H424 0.950 . S
C444 C443 1.414 . S
C444 C445 1.374 . S
C445 H425 0.950 . S
C445 C441 1.385 . S
C445 C444 1.374 . S
C446 C443 1.499 . S
C446 C447 1.373 . S
C446 C448 1.389 . S
C447 H426 0.950 . S
C447 C446 1.373 . S
C447 C463 1.377 . S
C448 C446 1.389 . S
C448 C449 1.524 . S
C448 C462 1.377 . S
C449 C448 1.524 . S
C449 C450 1.397 . S
C449 C454 1.363 . S
C450 H427 0.950 . S
C450 C449 1.397 . S
C450 C451 1.334 . S
C451 H428 0.950 . S
C451 C450 1.334 . S
C451 C452 1.287 . S
C452 C451 1.287 . S
C452 C453 1.524 . S
C452 H471 0.913 . S
C453 H429 0.950 . S
C453 C452 1.524 . S
C453 C454 1.415 . S
C454 H430 0.950 1_545 S
C454 C449 1.363 . S
C454 C453 1.415 . S
C455 H431 0.951 . S
C455 C456 1.366 . S
C455 C457 1.388 . S
C456 C455 1.366 . S
C456 C460 1.385 1_545 S
C457 H432 0.951 . S
C457 C455 1.388 . S
C457 C458 1.366 . S
C458 C457 1.366 . S
C458 C459 1.414 1_545 S
C458 C461 1.499 . S
C459 H433 0.950 . S
C459 C458 1.414 1_565 S
C459 C460 1.374 . S
C460 H434 0.950 . S
C460 C456 1.385 1_565 S
C460 C459 1.374 . S
C461 C458 1.499 . S
C461 C462 1.373 . S
C461 C463 1.389 . S
C462 H435 0.950 . S
C462 C448 1.377 . S
C462 C461 1.373 . S
C463 C447 1.377 . S
C463 C461 1.389 . S
C463 C464 1.530 . S
C464 C463 1.530 . S
C464 C465 1.376 1_545 S
C464 C469 1.376 . S
C465 H436 0.950 . S
C465 C464 1.376 1_565 S
C465 C466 1.334 . S
C466 H437 0.950 . S
C466 C465 1.334 . S
C466 C467 1.287 . S
C467 C466 1.287 . S
C467 C468 1.524 1_565 S
C467 H470 0.999 . S
C468 H438 0.950 . S
C468 C467 1.524 1_545 S
C468 C469 1.415 . S
C469 H439 0.950 . S
C469 C464 1.376 . S
C469 C468 1.415 . S
H470 C467 0.999 . S
H471 C452 0.913 . S
H472 C490 0.951 . S
H473 C492 0.951 . S
H474 C494 0.950 . S
H475 C495 0.950 . S
H476 C497 0.950 . S
H477 C500 0.950 . S
H478 C501 0.950 . S
H479 C503 0.950 . S
H480 C504 0.950 . S
H481 C505 0.951 . S
H482 C507 0.951 . S
H483 C509 0.950 . S
H484 C510 0.950 . S
H485 C512 0.950 . S
H486 C515 0.950 . S
H487 C516 0.950 . S
H488 C518 0.950 . S
H489 C519 0.950 . S
C490 H472 0.951 . S
C490 C491 1.366 . S
C490 C492 1.388 . S
C491 C490 1.366 . S
C491 C495 1.385 1_455 S
C492 H473 0.951 . S
C492 C490 1.388 . S
C492 C493 1.366 . S
C493 C492 1.366 . S
C493 C494 1.414 1_455 S
C493 C496 1.499 . S
C494 H474 0.950 . S
C494 C493 1.414 1_655 S
C494 C495 1.374 . S
C495 H475 0.950 . S
C495 C491 1.385 1_655 S
C495 C494 1.374 . S
C496 C493 1.499 . S
C496 C497 1.373 . S
C496 C498 1.389 . S
C497 H476 0.950 . S
C497 C496 1.373 . S
C497 C513 1.377 . S
C498 C496 1.389 . S
C498 C499 1.524 . S
C498 C512 1.377 . S
C499 C498 1.524 . S
C499 C500 1.397 1_455 S
C499 C504 1.363 . S
C500 H477 0.950 . S
C500 C499 1.397 1_655 S
C500 C501 1.334 . S
C501 H478 0.950 . S
C501 C500 1.334 . S
C501 C502 1.287 1_655 S
C502 C501 1.287 1_455 S
C502 C503 1.524 . S
C502 H521 0.913 1_455 S
C503 H479 0.950 . S
C503 C502 1.524 . S
C503 C504 1.415 . S
C504 H480 0.950 . S
C504 C499 1.363 . S
C504 C503 1.415 . S
C505 H481 0.951 . S
C505 C506 1.366 1_655 S
C505 C507 1.388 . S
C506 C505 1.366 1_455 S
C506 C510 1.385 . S
C507 H482 0.951 . S
C507 C505 1.388 . S
C507 C508 1.366 1_655 S
C508 C507 1.366 1_455 S
C508 C509 1.414 . S
C508 C511 1.499 . S
C509 H483 0.950 . S
C509 C508 1.414 . S
C509 C510 1.374 . S
C510 H484 0.950 . S
C510 C506 1.385 . S
C510 C509 1.374 . S
C511 C508 1.499 . S
C511 C512 1.373 . S
C511 C513 1.389 . S
C512 H485 0.950 . S
C512 C498 1.377 . S
C512 C511 1.373 . S
C513 C497 1.377 . S
C513 C511 1.389 . S
C513 C514 1.524 . S
C514 C513 1.524 . S
C514 C515 1.397 . S
C514 C519 1.363 1_455 S
C515 H486 0.950 . S
C515 C514 1.397 . S
C515 C516 1.334 . S
C516 H487 0.950 . S
C516 C515 1.334 . S
C516 C517 1.287 . S
C517 C516 1.287 . S
C517 C518 1.524 1_455 S
C517 H520 0.999 . S
C518 H488 0.950 . S
C518 C517 1.524 1_655 S
C518 C519 1.415 . S
C519 H489 0.950 . S
C519 C514 1.363 1_655 S
C519 C518 1.415 . S
H520 C517 0.999 . S
H521 C502 0.913 1_655 S
H522 C540 0.951 . S
H523 C542 0.951 . S
H524 C544 0.950 . S
H525 C545 0.950 . S
H526 C547 0.950 . S
H527 C550 0.950 . S
H528 C551 0.950 . S
H529 C553 0.950 . S
H530 C554 0.950 . S
H531 C555 0.951 . S
H532 C557 0.951 . S
H533 C559 0.950 . S
H534 C560 0.950 . S
H535 C562 0.950 . S
H536 C565 0.950 . S
H537 C566 0.950 . S
H538 C568 0.950 . S
H539 C569 0.950 . S
C540 H522 0.951 . S
C540 C541 1.366 1_545 S
C540 C542 1.388 . S
C541 C540 1.366 1_565 S
C541 C545 1.385 . S
C542 H523 0.951 . S
C542 C540 1.388 . S
C542 C543 1.366 1_545 S
C543 C542 1.366 1_565 S
C543 C544 1.414 . S
C543 C546 1.499 . S
C544 H524 0.950 . S
C544 C543 1.414 . S
C544 C545 1.374 . S
C545 H525 0.950 . S
C545 C541 1.385 . S
C545 C544 1.374 . S
C546 C543 1.499 . S
C546 C547 1.373 . S
C546 C548 1.389 . S
C547 H526 0.950 . S
C547 C546 1.373 . S
C547 C563 1.377 . S
C548 C546 1.389 . S
C548 C549 1.524 . S
C548 C562 1.377 1_565 S
C549 C548 1.524 . S
C549 C550 1.397 . S
C549 C554 1.363 1_565 S
C550 H527 0.950 . S
C550 C549 1.397 . S
C550 C551 1.334 . S
C551 H528 0.950 . S
C551 C550 1.334 . S
C551 C552 1.287 . S
C552 C551 1.287 . S
C552 C553 1.524 1_565 S
C552 H571 0.913 . S
C553 H529 0.950 . S
C553 C552 1.524 1_545 S
C553 C554 1.415 . S
C554 H530 0.950 . S
C554 C549 1.363 1_545 S
C554 C553 1.415 . S
C555 H531 0.951 . S
C555 C556 1.366 1_565 S
C555 C557 1.388 . S
C556 C555 1.366 1_545 S
C556 C560 1.385 . S
C557 H532 0.951 . S
C557 C555 1.388 . S
C557 C558 1.366 1_565 S
C558 C557 1.366 1_545 S
C558 C559 1.414 . S
C558 C561 1.499 . S
C559 H533 0.950 . S
C559 C558 1.414 . S
C559 C560 1.374 . S
C560 H534 0.950 . S
C560 C556 1.385 . S
C560 C559 1.374 . S
C561 C558 1.499 . S
C561 C562 1.373 . S
C561 C563 1.389 1_545 S
C562 H535 0.950 . S
C562 C548 1.377 1_545 S
C562 C561 1.373 . S
C563 C547 1.377 . S
C563 C561 1.389 1_565 S
C563 C564 1.524 1_565 S
C564 C563 1.524 1_545 S
C564 C565 1.397 . S
C564 C569 1.363 1_545 S
C565 H536 0.950 . S
C565 C564 1.397 . S
C565 C566 1.334 . S
C566 H537 0.950 . S
C566 C565 1.334 . S
C566 C567 1.287 . S
C567 C566 1.287 . S
C567 C568 1.524 1_545 S
C567 H570 0.999 . S
C568 H538 0.950 . S
C568 C567 1.524 1_565 S
C568 C569 1.415 . S
C569 H539 0.950 . S
C569 C564 1.363 1_565 S
C569 C568 1.415 . S
H570 C567 0.999 . S
H571 C552 0.913 . S
H572 C590 0.951 . S
H573 C592 0.951 . S
H574 C594 0.950 . S
H575 C595 0.950 . S
H576 C597 0.950 . S
H577 C600 0.950 . S
H578 C601 0.950 . S
H579 C603 0.950 . S
H580 C604 0.950 . S
H581 C605 0.951 . S
H582 C607 0.951 . S
H583 C609 0.950 . S
H584 C610 0.950 . S
H585 C612 0.950 . S
H586 C615 0.950 . S
H587 C616 0.950 . S
H588 C618 0.950 . S
H589 C619 0.950 . S
C590 H572 0.951 . S
C590 C591 1.366 . S
C590 C592 1.388 . S
C591 C590 1.366 . S
C591 C595 1.385 1_655 S
C592 H573 0.951 . S
C592 C590 1.388 . S
C592 C593 1.366 . S
C593 C592 1.366 . S
C593 C594 1.414 1_655 S
C593 C596 1.499 . S
C594 H574 0.950 . S
C594 C593 1.414 1_455 S
C594 C595 1.374 . S
C595 H575 0.950 . S
C595 C591 1.385 1_455 S
C595 C594 1.374 . S
C596 C593 1.499 . S
C596 C597 1.373 1_655 S
C596 C598 1.389 . S
C597 H576 0.950 . S
C597 C596 1.373 1_455 S
C597 C613 1.377 . S
C598 C596 1.389 . S
C598 C599 1.524 . S
C598 C612 1.377 . S
C599 C598 1.524 . S
C599 C600 1.397 . S
C599 C604 1.363 . S
C600 H577 0.950 . S
C600 C599 1.397 . S
C600 C601 1.334 . S
C601 H578 0.950 . S
C601 C600 1.334 . S
C601 C602 1.287 . S
C602 C601 1.287 . S
C602 C603 1.524 . S
C602 H621 0.913 . S
C603 H579 0.950 . S
C603 C602 1.524 . S
C603 C604 1.415 . S
C604 H580 0.950 . S
C604 C599 1.363 . S
C604 C603 1.415 . S
C605 H581 0.951 . S
C605 C606 1.366 . S
C605 C607 1.388 . S
C606 C605 1.366 . S
C606 C610 1.385 1_455 S
C607 H582 0.951 . S
C607 C605 1.388 . S
C607 C608 1.355 1_455 S
C608 C607 1.355 1_655 S
C608 C609 1.424 . S
C608 C611 1.501 . S
C609 H583 0.950 . S
C609 C608 1.424 . S
C609 C610 1.374 . S
C610 H584 0.950 . S
C610 C606 1.385 1_655 S
C610 C609 1.374 . S
C611 C608 1.501 . S
C611 C612 1.373 . S
C611 C613 1.389 1_655 S
C612 H585 0.950 . S
C612 C598 1.377 . S
C612 C611 1.373 . S
C613 C597 1.377 . S
C613 C611 1.389 1_455 S
C613 C614 1.524 . S
C614 C613 1.524 . S
C614 C615 1.397 . S
C614 C619 1.363 . S
C615 H586 0.950 . S
C615 C614 1.397 . S
C615 C616 1.334 . S
C616 H587 0.950 . S
C616 C615 1.334 . S
C616 C617 1.287 . S
C617 C616 1.287 . S
C617 C618 1.524 . S
C617 H620 0.999 . S
C618 H588 0.950 . S
C618 C617 1.524 . S
C618 C619 1.415 . S
C619 H589 0.950 . S
C619 C614 1.363 . S
C619 C618 1.415 . S
H620 C617 0.999 . S
H621 C602 0.913 . S
H622 C640 0.951 . S
H623 C642 0.951 . S
H624 C644 0.950 1_565 S
H625 C645 0.950 1_565 S
H626 C647 0.950 . S
H627 C650 0.950 . S
H628 C651 0.950 . S
H629 C653 0.950 . S
H630 C654 0.950 . S
H631 C655 0.951 . S
H632 C657 0.951 . S
H633 C659 0.950 . S
H634 C660 0.950 . S
H635 C662 0.950 . S
H636 C665 0.950 . S
H637 C666 0.950 . S
H638 C668 0.950 . S
H639 C669 0.950 . S
C640 H622 0.951 . S
C640 C641 1.366 . S
C640 C642 1.388 . S
C641 C640 1.366 . S
C641 C645 1.385 . S
C642 H623 0.951 . S
C642 C640 1.388 . S
C642 C643 1.366 . S
C643 C642 1.366 . S
C643 C644 1.414 . S
C643 C646 1.499 . S
C644 H624 0.950 1_545 S
C644 C643 1.414 . S
C644 C645 1.374 . S
C645 H625 0.950 1_545 S
C645 C641 1.385 . S
C645 C644 1.374 . S
C646 C643 1.499 . S
C646 C647 1.373 . S
C646 C648 1.389 1_545 S
C647 H626 0.950 . S
C647 C646 1.373 . S
C647 C663 1.377 . S
C648 C646 1.389 1_565 S
C648 C649 1.524 . S
C648 C662 1.377 . S
C649 C648 1.524 . S
C649 C650 1.397 . S
C649 C654 1.363 . S
C650 H627 0.950 . S
C650 C649 1.397 . S
C650 C651 1.334 . S
C651 H628 0.950 . S
C651 C650 1.334 . S
C651 C652 1.287 . S
C652 C651 1.287 . S
C652 C653 1.524 . S
C652 H671 0.913 . S
C653 H629 0.950 . S
C653 C652 1.524 . S
C653 C654 1.415 . S
C654 H630 0.950 . S
C654 C649 1.363 . S
C654 C653 1.415 . S
C655 H631 0.951 . S
C655 C656 1.366 1_565 S
C655 C657 1.388 . S
C656 C655 1.366 1_545 S
C656 C660 1.385 . S
C657 H632 0.951 . S
C657 C655 1.388 . S
C657 C658 1.366 1_565 S
C658 C657 1.366 1_545 S
C658 C659 1.414 . S
C658 C661 1.499 . S
C659 H633 0.950 . S
C659 C658 1.414 . S
C659 C660 1.374 . S
C660 H634 0.950 . S
C660 C656 1.385 . S
C660 C659 1.374 . S
C661 C658 1.499 . S
C661 C662 1.373 1_545 S
C661 C663 1.389 . S
C662 H635 0.950 . S
C662 C648 1.377 . S
C662 C661 1.373 1_565 S
C663 C647 1.377 . S
C663 C661 1.389 . S
C663 C664 1.524 . S
C664 C663 1.524 . S
C664 C665 1.397 . S
C664 C669 1.363 . S
C665 H636 0.950 . S
C665 C664 1.397 . S
C665 C666 1.334 . S
C666 H637 0.950 . S
C666 C665 1.334 . S
C666 C667 1.287 . S
C667 C666 1.287 . S
C667 C668 1.524 . S
C667 H670 0.999 . S
C668 H638 0.950 . S
C668 C667 1.524 . S
C668 C669 1.415 . S
C669 H639 0.950 . S
C669 C664 1.363 . S
C669 C668 1.415 . S
H670 C667 0.999 . S
H671 C652 0.913 . S
H672 C690 0.951 1_554 S
H673 C692 0.948 1_554 S
H674 C694 0.950 . S
H675 C695 0.950 . S
H676 C697 0.950 . S
H677 C700 0.950 . S
H678 C701 0.950 . S
H679 C703 0.950 . S
H680 C704 0.950 . S
H681 C705 0.951 . S
H682 C707 0.951 . S
H683 C709 0.950 . S
H684 C710 0.950 . S
H685 C712 0.950 . S
H686 C715 0.950 . S
H687 C716 0.950 . S
H688 C718 0.950 . S
H689 C719 0.950 . S
C690 H672 0.951 1_556 S
C690 C691 1.366 . S
C690 C692 1.389 . S
C691 C690 1.366 . S
C691 C695 1.385 . S
C692 H673 0.948 1_556 S
C692 C690 1.389 . S
C692 C693 1.368 . S
C693 C692 1.368 . S
C693 C694 1.414 . S
C693 C696 1.499 . S
C694 H674 0.950 . S
C694 C693 1.414 . S
C694 C695 1.374 . S
C695 H675 0.950 . S
C695 C691 1.385 . S
C695 C694 1.374 . S
C696 C693 1.499 . S
C696 C697 1.373 . S
C696 C698 1.389 1_556 S
C697 H676 0.950 . S
C697 C696 1.373 . S
C697 C713 1.377 . S
C698 C696 1.389 1_554 S
C698 C699 1.524 . S
C698 C712 1.377 . S
C699 C698 1.524 . S
C699 C700 1.397 . S
C699 C704 1.363 . S
C700 H677 0.950 . S
C700 C699 1.397 . S
C700 C701 1.334 . S
C701 H678 0.950 . S
C701 C700 1.334 . S
C701 C702 1.287 . S
C702 C701 1.287 . S
C702 C703 1.524 . S
C702 H721 0.913 . S
C703 H679 0.950 . S
C703 C702 1.524 . S
C703 C704 1.415 . S
C704 H680 0.950 . S
C704 C699 1.363 . S
C704 C703 1.415 . S
C705 H681 0.951 . S
C705 C706 1.364 1_556 S
C705 C707 1.388 . S
C706 C705 1.364 1_554 S
C706 C710 1.386 . S
C707 H682 0.951 . S
C707 C705 1.388 . S
C707 C708 1.366 . S
C708 C707 1.366 . S
C708 C709 1.414 1_556 S
C708 C711 1.499 . S
C709 H683 0.950 . S
C709 C708 1.414 1_554 S
C709 C710 1.374 . S
C710 H684 0.950 . S
C710 C706 1.386 . S
C710 C709 1.374 . S
C711 C708 1.499 . S
C711 C712 1.373 1_556 S
C711 C713 1.389 . S
C712 H685 0.950 . S
C712 C698 1.377 . S
C712 C711 1.373 1_554 S
C713 C697 1.377 . S
C713 C711 1.389 . S
C713 C714 1.524 . S
C714 C713 1.524 . S
C714 C715 1.397 . S
C714 C719 1.363 . S
C715 H686 0.950 . S
C715 C714 1.397 . S
C715 C716 1.334 . S
C716 H687 0.950 . S
C716 C715 1.334 . S
C716 C717 1.287 . S
C717 C716 1.287 . S
C717 C718 1.524 . S
C717 H720 0.999 . S
C718 H688 0.950 . S
C718 C717 1.524 . S
C718 C719 1.415 . S
C719 H689 0.950 . S
C719 C714 1.363 . S
C719 C718 1.415 . S
H720 C717 0.999 . S
H721 C702 0.913 . S
H722 C740 0.951 . S
H723 C742 0.951 . S
H724 C744 0.950 . S
H725 C745 0.950 . S
H726 C747 0.950 1_556 S
H727 C750 0.950 . S
H728 C751 0.950 . S
H729 C753 0.950 . S
H730 C754 0.950 1_556 S
H731 C755 0.951 . S
H732 C757 0.951 . S
H733 C759 0.950 . S
H734 C760 0.950 . S
H735 C762 0.950 . S
H736 C765 0.950 . S
H737 C766 0.950 . S
H738 C768 0.950 1_554 S
H739 C769 0.950 . S
C740 H722 0.951 . S
C740 C741 1.366 1_556 S
C740 C742 1.388 . S
C741 C740 1.366 1_554 S
C741 C745 1.385 . S
C742 H723 0.951 . S
C742 C740 1.388 . S
C742 C743 1.366 1_556 S
C743 C742 1.366 1_554 S
C743 C744 1.414 . S
C743 C746 1.499 . S
C744 H724 0.950 . S
C744 C743 1.414 . S
C744 C745 1.374 . S
C745 H725 0.950 . S
C745 C741 1.385 . S
C745 C744 1.374 . S
C746 C743 1.499 . S
C746 C747 1.373 . S
C746 C748 1.389 . S
C747 H726 0.950 1_554 S
C747 C746 1.373 . S
C747 C763 1.377 1_554 S
C748 C746 1.389 . S
C748 C749 1.524 . S
C748 C762 1.377 . S
C749 C748 1.524 . S
C749 C750 1.397 . S
C749 C754 1.363 . S
C750 H727 0.950 . S
C750 C749 1.397 . S
C750 C751 1.334 . S
C751 H728 0.950 . S
C751 C750 1.334 . S
C751 C752 1.287 . S
C752 C751 1.287 . S
C752 C753 1.524 . S
C752 H771 0.913 . S
C753 H729 0.950 . S
C753 C752 1.524 . S
C753 C754 1.415 . S
C754 H730 0.950 1_554 S
C754 C749 1.363 . S
C754 C753 1.415 . S
C755 H731 0.951 . S
C755 C756 1.368 . S
C755 C757 1.388 . S
C756 C755 1.368 . S
C756 C760 1.382 1_554 S
C757 H732 0.951 . S
C757 C755 1.388 . S
C757 C758 1.366 . S
C758 C757 1.366 . S
C758 C759 1.414 1_554 S
C758 C761 1.499 . S
C759 H733 0.950 . S
C759 C758 1.414 1_556 S
C759 C760 1.374 . S
C760 H734 0.950 . S
C760 C756 1.382 1_556 S
C760 C759 1.374 . S
C761 C758 1.499 . S
C761 C762 1.373 . S
C761 C763 1.389 1_554 S
C762 H735 0.950 . S
C762 C748 1.377 . S
C762 C761 1.373 . S
C763 C747 1.377 1_556 S
C763 C761 1.389 1_556 S
C763 C764 1.524 . S
C764 C763 1.524 . S
C764 C765 1.397 . S
C764 C769 1.363 1_556 S
C765 H736 0.950 . S
C765 C764 1.397 . S
C765 C766 1.334 . S
C766 H737 0.950 . S
C766 C765 1.334 . S
C766 C767 1.287 . S
C767 C766 1.287 . S
C767 C768 1.524 . S
C767 H770 0.999 . S
C768 H738 0.950 1_556 S
C768 C767 1.524 . S
C768 C769 1.415 1_556 S
C769 H739 0.950 . S
C769 C764 1.363 1_554 S
C769 C768 1.415 1_554 S
H770 C767 0.999 . S
H771 C752 0.913 . S
H772 C790 0.951 . S
H773 C792 0.951 . S
H774 C794 0.950 . S
H775 C795 0.950 . S
H776 C797 0.950 . S
H777 C800 0.950 . S
H778 C801 0.950 . S
H779 C803 0.950 . S
H780 C804 0.950 . S
H781 C805 0.951 . S
H782 C807 0.951 . S
H783 C809 0.950 . S
H784 C810 0.950 . S
H785 C812 0.950 . S
H786 C815 0.950 . S
H787 C816 0.950 . S
H788 C818 0.950 . S
H789 C819 0.950 . S
C790 H772 0.951 . S
C790 C791 1.366 . S
C790 C792 1.388 . S
C791 C790 1.366 . S
C791 C795 1.385 . S
C792 H773 0.951 . S
C792 C790 1.388 . S
C792 C793 1.366 . S
C793 C792 1.366 . S
C793 C794 1.414 . S
C793 C796 1.499 . S
C794 H774 0.950 . S
C794 C793 1.414 . S
C794 C795 1.374 . S
C795 H775 0.950 . S
C795 C791 1.385 . S
C795 C794 1.374 . S
C796 C793 1.499 . S
C796 C797 1.373 . S
C796 C798 1.389 1_554 S
C797 H776 0.950 . S
C797 C796 1.373 . S
C797 C813 1.377 . S
C798 C796 1.389 1_556 S
C798 C799 1.524 . S
C798 C812 1.377 . S
C799 C798 1.524 . S
C799 C800 1.397 . S
C799 C804 1.363 . S
C800 H777 0.950 . S
C800 C799 1.397 . S
C800 C801 1.334 . S
C801 H778 0.950 . S
C801 C800 1.334 . S
C801 C802 1.287 . S
C802 C801 1.287 . S
C802 C803 1.524 . S
C802 H821 0.913 . S
C803 H779 0.950 . S
C803 C802 1.524 . S
C803 C804 1.415 . S
C804 H780 0.950 . S
C804 C799 1.363 . S
C804 C803 1.415 . S
C805 H781 0.951 . S
C805 C806 1.366 . S
C805 C807 1.388 . S
C806 C805 1.366 . S
C806 C810 1.385 . S
C807 H782 0.951 . S
C807 C805 1.388 . S
C807 C808 1.366 . S
C808 C807 1.366 . S
C808 C809 1.414 . S
C808 C811 1.499 . S
C809 H783 0.950 . S
C809 C808 1.414 . S
C809 C810 1.374 . S
C810 H784 0.950 . S
C810 C806 1.385 . S
C810 C809 1.374 . S
C811 C808 1.499 . S
C811 C812 1.373 1_554 S
C811 C813 1.389 . S
C812 H785 0.950 . S
C812 C798 1.377 . S
C812 C811 1.373 1_556 S
C813 C797 1.377 . S
C813 C811 1.389 . S
C813 C814 1.524 . S
C814 C813 1.524 . S
C814 C815 1.397 . S
C814 C819 1.363 . S
C815 H786 0.950 . S
C815 C814 1.397 . S
C815 C816 1.334 . S
C816 H787 0.950 . S
C816 C815 1.334 . S
C816 C817 1.287 . S
C817 C816 1.287 . S
C817 C818 1.524 . S
C817 H820 0.999 . S
C818 H788 0.950 . S
C818 C817 1.524 . S
C818 C819 1.415 . S
C819 H789 0.950 . S
C819 C814 1.363 . S
C819 C818 1.415 . S
H820 C817 0.999 . S
H821 C802 0.913 . S
H822 C840 0.951 . S
H823 C842 0.951 . S
H824 C844 0.950 . S
H825 C845 0.950 . S
H826 C847 0.950 . S
H827 C850 0.950 . S
H828 C851 0.950 . S
H829 C853 0.950 . S
H830 C854 0.950 . S
H831 C855 0.951 . S
H832 C857 0.951 . S
H833 C859 0.950 . S
H834 C860 0.950 . S
H835 C862 0.950 . S
H836 C865 0.950 . S
H837 C866 0.950 . S
H838 C868 0.950 . S
H839 C869 0.950 . S
C840 H822 0.951 . S
C840 C841 1.366 . S
C840 C842 1.388 . S
C841 C840 1.366 . S
C841 C845 1.385 . S
C842 H823 0.951 . S
C842 C840 1.388 . S
C842 C843 1.366 . S
C843 C842 1.366 . S
C843 C844 1.414 . S
C843 C846 1.499 . S
C844 H824 0.950 . S
C844 C843 1.414 . S
C844 C845 1.374 . S
C845 H825 0.950 . S
C845 C841 1.385 . S
C845 C844 1.374 . S
C846 C843 1.499 . S
C846 C847 1.373 . S
C846 C848 1.389 1_556 S
C847 H826 0.950 . S
C847 C846 1.373 . S
C847 C863 1.377 . S
C848 C846 1.389 1_554 S
C848 C849 1.524 . S
C848 C862 1.377 . S
C849 C848 1.524 . S
C849 C850 1.397 . S
C849 C854 1.363 . S
C850 H827 0.950 . S
C850 C849 1.397 . S
C850 C851 1.334 . S
C851 H828 0.950 . S
C851 C850 1.334 . S
C851 C852 1.287 . S
C852 C851 1.287 . S
C852 C853 1.524 . S
C852 H871 0.913 . S
C853 H829 0.950 . S
C853 C852 1.524 . S
C853 C854 1.415 . S
C854 H830 0.950 . S
C854 C849 1.363 . S
C854 C853 1.415 . S
C855 H831 0.951 . S
C855 C856 1.366 . S
C855 C857 1.388 1_554 S
C856 C855 1.366 . S
C856 C860 1.384 1_554 S
C857 H832 0.951 . S
C857 C855 1.388 1_556 S
C857 C858 1.366 . S
C858 C857 1.366 . S
C858 C859 1.414 . S
C858 C861 1.499 . S
C859 H833 0.950 . S
C859 C858 1.414 . S
C859 C860 1.374 . S
C860 H834 0.950 . S
C860 C856 1.384 1_556 S
C860 C859 1.374 . S
C861 C858 1.499 . S
C861 C862 1.373 1_556 S
C861 C863 1.389 . S
C862 H835 0.950 . S
C862 C848 1.377 . S
C862 C861 1.373 1_554 S
C863 C847 1.377 . S
C863 C861 1.389 . S
C863 C864 1.524 . S
C864 C863 1.524 . S
C864 C865 1.397 . S
C864 C869 1.363 . S
C865 H836 0.950 . S
C865 C864 1.397 . S
C865 C866 1.334 . S
C866 H837 0.950 . S
C866 C865 1.334 . S
C866 C867 1.287 . S
C867 C866 1.287 . S
C867 C868 1.524 . S
C867 H870 0.999 . S
C868 H838 0.950 . S
C868 C867 1.524 . S
C868 C869 1.415 . S
C869 H839 0.950 . S
C869 C864 1.363 . S
C869 C868 1.415 . S
H870 C867 0.999 . S
H871 C852 0.913 . S
C306 C223 1.653 . S
C291 C39 1.562 . S
C356 C230 1.669 . S
C341 C113 1.577 . S
C406 C225 2.149 . S
C391 C69 2.142 . S
C456 C231 0.730 . S
C441 C125 0.730 . S
C491 C63 1.523 . S
C506 C224 1.602 . S
C556 C233 1.619 . S
C541 C137 1.538 . S
C591 C51 0.720 . S
C606 C222 0.720 . S
C641 C143 2.161 . S
C656 C232 2.168 . S
C691 C187 1.569 . S
C706 C227 1.660 . S
C741 C217 2.153 . S
C756 C226 2.158 1_554 S
C806 C229 0.722 . S
C791 C199 0.723 . S
C856 C228 1.612 . S
C841 C211 1.532 . S
