# Generated by pormake.
# Topology pyr, (3,6)-cn, num edge types: 1
# Building blocks:
#     Node 0, Type 0, BuildingBlock: MIDCAF_clean_linker_0, # of connection points: 3
#     Node 1, Type 0, BuildingBlock: MIDCAF_clean_linker_0, # of connection points: 3
#     Node 2, Type 0, BuildingBlock: MIDCAF_clean_linker_0, # of connection points: 3
#     Node 3, Type 0, BuildingBlock: MIDCAF_clean_linker_0, # of connection points: 3
#     Node 4, Type 0, BuildingBlock: MIDCAF_clean_linker_0, # of connection points: 3
#     Node 5, Type 0, BuildingBlock: MIDCAF_clean_linker_0, # of connection points: 3
#     Node 6, Type 0, BuildingBlock: MIDCAF_clean_linker_0, # of connection points: 3
#     Node 7, Type 0, BuildingBlock: MIDCAF_clean_linker_0, # of connection points: 3
#     Node 8, Type 1, BuildingBlock: BETDEL_clean_sbu_0, # of connection points: 6
#     Node 9, Type 1, BuildingBlock: BETDEL_clean_sbu_0, # of connection points: 6
#     Node 10, Type 1, BuildingBlock: BETDEL_clean_sbu_0, # of connection points: 6
#     Node 11, Type 1, BuildingBlock: BETDEL_clean_sbu_0, # of connection points: 6
#     Edge 12, Type (0, 1), BuildingBlock: MIFKUJ_clean_linker_0, # of connection points: 2
#     Edge 13, Type (0, 1), BuildingBlock: MIFKUJ_clean_linker_0, # of connection points: 2
#     Edge 14, Type (0, 1), BuildingBlock: MIFKUJ_clean_linker_0, # of connection points: 2
#     Edge 15, Type (0, 1), BuildingBlock: MIFKUJ_clean_linker_0, # of connection points: 2
#     Edge 16, Type (0, 1), BuildingBlock: MIFKUJ_clean_linker_0, # of connection points: 2
#     Edge 17, Type (0, 1), BuildingBlock: MIFKUJ_clean_linker_0, # of connection points: 2
#     Edge 18, Type (0, 1), BuildingBlock: MIFKUJ_clean_linker_0, # of connection points: 2
#     Edge 19, Type (0, 1), BuildingBlock: MIFKUJ_clean_linker_0, # of connection points: 2
#     Edge 20, Type (0, 1), BuildingBlock: MIFKUJ_clean_linker_0, # of connection points: 2
#     Edge 21, Type (0, 1), BuildingBlock: MIFKUJ_clean_linker_0, # of connection points: 2
#     Edge 22, Type (0, 1), BuildingBlock: MIFKUJ_clean_linker_0, # of connection points: 2
#     Edge 23, Type (0, 1), BuildingBlock: MIFKUJ_clean_linker_0, # of connection points: 2
#     Edge 24, Type (0, 1), BuildingBlock: MIFKUJ_clean_linker_0, # of connection points: 2
#     Edge 25, Type (0, 1), BuildingBlock: MIFKUJ_clean_linker_0, # of connection points: 2
#     Edge 26, Type (0, 1), BuildingBlock: MIFKUJ_clean_linker_0, # of connection points: 2
#     Edge 27, Type (0, 1), BuildingBlock: MIFKUJ_clean_linker_0, # of connection points: 2
#     Edge 28, Type (0, 1), BuildingBlock: MIFKUJ_clean_linker_0, # of connection points: 2
#     Edge 29, Type (0, 1), BuildingBlock: MIFKUJ_clean_linker_0, # of connection points: 2
#     Edge 30, Type (0, 1), BuildingBlock: MIFKUJ_clean_linker_0, # of connection points: 2
#     Edge 31, Type (0, 1), BuildingBlock: MIFKUJ_clean_linker_0, # of connection points: 2
#     Edge 32, Type (0, 1), BuildingBlock: MIFKUJ_clean_linker_0, # of connection points: 2
#     Edge 33, Type (0, 1), BuildingBlock: MIFKUJ_clean_linker_0, # of connection points: 2
#     Edge 34, Type (0, 1), BuildingBlock: MIFKUJ_clean_linker_0, # of connection points: 2
#     Edge 35, Type (0, 1), BuildingBlock: MIFKUJ_clean_linker_0, # of connection points: 2
# Relax obj value: 0.025
# Max RMSD: 0.089
# Mean RMSD: 0.038
data_MOF--net-pyr--node1-BETDEL_clean_sbu_0--node2-MIDCAF_clean_linker_0--edge1-MIFKUJ_clean_linker_0
_symmetry_space_group_name_H-M    P1
_symmetry_Int_Tables_number       1
_symmetry_cell_setting            triclinic
loop_
_symmetry_equiv_pos_as_xyz
'x, y, z'
_cell_length_a     56.220682
_cell_length_b     58.254324
_cell_length_c     53.665761
_cell_angle_alpha  91.695149
_cell_angle_beta   89.445021
_cell_angle_gamma 94.379031
loop_
_atom_site_label
_atom_site_type_symbol
_atom_site_fract_x
_atom_site_fract_y
_atom_site_fract_z
_atom_type_partial_charge
C0 C 0.15216 0.19017 0.24682 0.0
C1 C 0.15951 0.17107 0.25925 0.0
C2 C 0.18241 0.1638 0.25422 0.0
C3 C 0.19721 0.1748 0.23645 0.0
H4 H 0.26141 0.17076 0.19797 0.0
H5 H 0.29383 0.1494 0.18103 0.0
H6 H 0.29061 0.18495 0.11183 0.0
H7 H 0.25813 0.20634 0.12861 0.0
H8 H 0.21922 0.24256 0.1221 0.0
H9 H 0.19984 0.27034 0.09765 0.0
H10 H 0.15649 0.28716 0.16157 0.0
H11 H 0.17527 0.25904 0.18573 0.0
H12 H 0.16038 0.21549 0.21948 0.0
H13 H 0.13456 0.19609 0.25004 0.0
H14 H 0.1888 0.14941 0.26383 0.0
H15 H 0.21451 0.16841 0.23266 0.0
N16 N 0.22397 0.19382 0.19452 0.0
N17 N 0.22806 0.21972 0.1618 0.0
N18 N 0.19633 0.2215 0.19024 0.0
C19 C 0.23615 0.20185 0.17416 0.0
C20 C 0.20826 0.22976 0.1699 0.0
C21 C 0.20401 0.20355 0.20266 0.0
C22 C 0.25704 0.19018 0.1646 0.0
C23 C 0.26768 0.17416 0.17919 0.0
C24 C 0.28636 0.16201 0.16957 0.0
C25 C 0.29462 0.16545 0.14509 0.0
C26 C 0.28439 0.1818 0.13068 0.0
C27 C 0.26588 0.19414 0.14038 0.0
C28 C 0.19859 0.24836 0.15578 0.0
C29 C 0.20573 0.25236 0.131 0.0
C30 C 0.19467 0.26834 0.117 0.0
C31 C 0.17638 0.28074 0.12755 0.0
C32 C 0.17009 0.27748 0.15268 0.0
C33 C 0.18097 0.26142 0.16658 0.0
C34 C 0.18949 0.19339 0.22336 0.0
C35 C 0.16698 0.20124 0.22915 0.0
C36 C 0.23996 0.87799 0.62657 0.0
C37 C 0.23773 0.87638 0.60049 0.0
C38 C 0.25471 0.86486 0.5865 0.0
C39 C 0.27328 0.85499 0.59834 0.0
H40 H 0.30527 0.78721 0.60292 0.0
H41 H 0.32302 0.7526 0.5875 0.0
H42 H 0.38755 0.77355 0.6281 0.0
H43 H 0.36922 0.80736 0.64453 0.0
H44 H 0.34259 0.81876 0.70587 0.0
H45 H 0.35241 0.82954 0.74882 0.0
H46 H 0.31879 0.89327 0.74129 0.0
H47 H 0.30809 0.88202 0.69855 0.0
H48 H 0.25974 0.86984 0.6585 0.0
H49 H 0.22698 0.88631 0.63802 0.0
H50 H 0.25381 0.86363 0.56635 0.0
H51 H 0.28605 0.84622 0.58703 0.0
N52 N 0.30639 0.82901 0.62536 0.0
N53 N 0.32993 0.82593 0.66076 0.0
N54 N 0.30102 0.8528 0.66073 0.0
C55 C 0.32401 0.81899 0.63714 0.0
C56 C 0.31851 0.84279 0.6727 0.0
C57 C 0.29492 0.84605 0.63704 0.0
C58 C 0.33578 0.79976 0.62515 0.0
C59 C 0.32333 0.78447 0.6083 0.0
C60 C 0.33358 0.76468 0.59939 0.0
C61 C 0.35662 0.76004 0.60684 0.0
C62 C 0.3695 0.77614 0.62258 0.0
C63 C 0.35909 0.79563 0.63185 0.0
C64 C 0.32461 0.84957 0.69875 0.0
C65 C 0.33727 0.83508 0.71336 0.0
C66 C 0.34299 0.8413 0.738 0.0
C67 C 0.33646 0.8623 0.74854 0.0
C68 C 0.32374 0.87678 0.73393 0.0
C69 C 0.31775 0.87042 0.70935 0.0
C70 C 0.27547 0.85668 0.6244 0.0
C71 C 0.2587 0.86841 0.63836 0.0
C72 C 0.63815 0.25475 0.88217 0.0
C73 C 0.61513 0.2458 0.87525 0.0
C74 C 0.60251 0.25797 0.85807 0.0
C75 C 0.61266 0.27844 0.84804 0.0
H76 H 0.60076 0.33071 0.79735 0.0
H77 H 0.58282 0.34917 0.76251 0.0
H78 H 0.64879 0.39045 0.75068 0.0
H79 H 0.66674 0.37218 0.78531 0.0
H80 H 0.70307 0.37848 0.83013 0.0
H81 H 0.74003 0.39633 0.84752 0.0
H82 H 0.74125 0.34165 0.89998 0.0
H83 H 0.70446 0.32349 0.88237 0.0
H84 H 0.66605 0.28144 0.87803 0.0
H85 H 0.64862 0.24573 0.89499 0.0
H86 H 0.5846 0.25186 0.85256 0.0
H87 H 0.60235 0.28732 0.83494 0.0
N88 N 0.63609 0.31926 0.8253 0.0
N89 N 0.66728 0.34844 0.82505 0.0
N90 N 0.66752 0.31896 0.85377 0.0
C91 C 0.64639 0.33892 0.81543 0.0
C92 C 0.67795 0.33866 0.84426 0.0
C93 C 0.64662 0.30911 0.84445 0.0
C94 C 0.63523 0.34991 0.79422 0.0
C95 C 0.61146 0.3437 0.78731 0.0
C96 C 0.60112 0.35436 0.76743 0.0
C97 C 0.61441 0.37123 0.7538 0.0
C98 C 0.63816 0.37734 0.76063 0.0
C99 C 0.64839 0.36693 0.78063 0.0
C100 C 0.70065 0.34949 0.8548 0.0
C101 C 0.71117 0.37018 0.84535 0.0
C102 C 0.73234 0.38054 0.85543 0.0
C103 C 0.74362 0.37048 0.87521 0.0
C104 C 0.73321 0.34973 0.88458 0.0
C105 C 0.71199 0.33938 0.87453 0.0
C106 C 0.63566 0.28737 0.85503 0.0
C107 C 0.64824 0.27525 0.87227 0.0
C108 C 0.77538 0.63181 0.39941 0.0
C109 C 0.75907 0.6164 0.38639 0.0
C110 C 0.76328 0.61189 0.36085 0.0
C111 C 0.78321 0.62238 0.34876 0.0
H112 H 0.84292 0.6047 0.30117 0.0
H113 H 0.85894 0.58644 0.26406 0.0
H114 H 0.89081 0.65248 0.24115 0.0
H115 H 0.87572 0.67051 0.27902 0.0
H116 H 0.89465 0.69982 0.33871 0.0
H117 H 0.91223 0.73683 0.35535 0.0
H118 H 0.84517 0.74983 0.39077 0.0
H119 H 0.82764 0.71273 0.37463 0.0
H120 H 0.80719 0.65443 0.39778 0.0
H121 H 0.77315 0.6354 0.41916 0.0
H122 H 0.75096 0.60056 0.34997 0.0
H123 H 0.78579 0.6186 0.32908 0.0
N124 N 0.82919 0.63964 0.32792 0.0
N125 N 0.85813 0.67069 0.32485 0.0
N126 N 0.83006 0.67009 0.35755 0.0
C127 C 0.84825 0.65009 0.31586 0.0
C128 C 0.8491 0.6808 0.34569 0.0
C129 C 0.82002 0.64951 0.34878 0.0
C130 C 0.85803 0.63908 0.2931 0.0
C131 C 0.85336 0.61534 0.28822 0.0
C132 C 0.86244 0.60487 0.26677 0.0
C133 C 0.87613 0.61792 0.24935 0.0
C134 C 0.88072 0.64173 0.25424 0.0
C135 C 0.87194 0.65214 0.27594 0.0
C136 C 0.85976 0.70332 0.35538 0.0
C137 C 0.88365 0.71058 0.35002 0.0
C138 C 0.89375 0.73168 0.35961 0.0
C139 C 0.88002 0.74613 0.37429 0.0
C140 C 0.85608 0.73904 0.37938 0.0
C141 C 0.84612 0.71776 0.37024 0.0
C142 C 0.7992 0.63802 0.36174 0.0
C143 C 0.79505 0.64265 0.38718 0.0
C144 C 0.74219 0.86847 0.85294 0.0
C145 C 0.7273 0.85874 0.8716 0.0
C146 C 0.73137 0.83679 0.88004 0.0
C147 C 0.75015 0.82489 0.87016 0.0
H148 H 0.79708 0.77529 0.88805 0.0
H149 H 0.81527 0.74563 0.91092 0.0
H150 H 0.86188 0.7337 0.84819 0.0
H151 H 0.84413 0.76343 0.82548 0.0
H152 H 0.84031 0.79605 0.77535 0.0
H153 H 0.86404 0.81218 0.74093 0.0
H154 H 0.84708 0.88062 0.76511 0.0
H155 H 0.82224 0.86426 0.79831 0.0
H156 H 0.77193 0.86463 0.82857 0.0
H157 H 0.73929 0.88525 0.84587 0.0
H158 H 0.72024 0.82895 0.89454 0.0
H159 H 0.75289 0.80805 0.87714 0.0
N160 N 0.79194 0.80297 0.85171 0.0
N161 N 0.82215 0.80003 0.82159 0.0
N162 N 0.79719 0.83037 0.82058 0.0
C163 C 0.8105 0.7918 0.84215 0.0
C164 C 0.81561 0.81929 0.81075 0.0
C165 C 0.78508 0.82221 0.8409 0.0
C166 C 0.81934 0.772 0.85502 0.0
C167 C 0.81102 0.76617 0.87901 0.0
C168 C 0.8214 0.74913 0.89212 0.0
C169 C 0.84025 0.73759 0.88149 0.0
C170 C 0.84776 0.74267 0.8571 0.0
C171 C 0.83746 0.75967 0.84403 0.0
C172 C 0.82938 0.8289 0.78943 0.0
C173 C 0.84155 0.81453 0.77308 0.0
C174 C 0.85531 0.82383 0.75347 0.0
C175 C 0.85764 0.84779 0.75011 0.0
C176 C 0.84535 0.86208 0.76658 0.0
C177 C 0.83118 0.85272 0.7858 0.0
C178 C 0.7651 0.83464 0.85146 0.0
C179 C 0.76082 0.85654 0.84293 0.0
C180 C 0.65965 0.11076 0.30039 0.0
C181 C 0.64794 0.12519 0.28476 0.0
C182 C 0.64457 0.14781 0.29313 0.0
C183 C 0.65253 0.15577 0.31656 0.0
H184 H 0.63572 0.20023 0.37273 0.0
H185 H 0.62207 0.23671 0.3871 0.0
H186 H 0.67793 0.24372 0.44212 0.0
H187 H 0.69212 0.20694 0.42736 0.0
H188 H 0.72523 0.16384 0.43178 0.0
H189 H 0.75866 0.14615 0.45009 0.0
H190 H 0.75057 0.09019 0.39548 0.0
H191 H 0.71703 0.10747 0.37746 0.0
H192 H 0.67687 0.10733 0.33537 0.0
H193 H 0.66224 0.09313 0.2947 0.0
H194 H 0.6361 0.15957 0.28142 0.0
H195 H 0.64975 0.17337 0.32225 0.0
N196 N 0.66537 0.16992 0.3667 0.0
N197 N 0.69109 0.16825 0.40058 0.0
N198 N 0.69023 0.13966 0.36872 0.0
C199 C 0.674 0.17896 0.38867 0.0
C200 C 0.69922 0.14849 0.39071 0.0
C201 C 0.67334 0.15034 0.35659 0.0
C202 C 0.66512 0.20064 0.39881 0.0
C203 C 0.64515 0.20938 0.38797 0.0
C204 C 0.63714 0.23027 0.39636 0.0
C205 C 0.64883 0.24303 0.41584 0.0
C206 C 0.66865 0.23427 0.42697 0.0
C207 C 0.67667 0.21318 0.41861 0.0
C208 C 0.71849 0.13717 0.40303 0.0
C209 C 0.73041 0.14765 0.42382 0.0
C210 C 0.74965 0.13759 0.43424 0.0
C211 C 0.75727 0.11683 0.42417 0.0
C212 C 0.74495 0.10606 0.40385 0.0
C213 C 0.7258 0.1161 0.3934 0.0
C214 C 0.66439 0.14144 0.33209 0.0
C215 C 0.66791 0.11885 0.32377 0.0
C216 C 0.27197 0.62585 0.14544 0.0
C217 C 0.26398 0.63239 0.12214 0.0
C218 C 0.27762 0.64955 0.10928 0.0
C219 C 0.29872 0.65997 0.11952 0.0
H220 H 0.34821 0.71456 0.11075 0.0
H221 H 0.36635 0.74965 0.09295 0.0
H222 H 0.41783 0.75607 0.15247 0.0
H223 H 0.40007 0.72058 0.16999 0.0
H224 H 0.4057 0.67249 0.20157 0.0
H225 H 0.42322 0.65443 0.2369 0.0
H226 H 0.3564 0.6149 0.24991 0.0
H227 H 0.33885 0.6328 0.21472 0.0
H228 H 0.29881 0.63053 0.17352 0.0
H229 H 0.26198 0.61253 0.1557 0.0
H230 H 0.27184 0.65512 0.0914 0.0
H231 H 0.30874 0.67313 0.10907 0.0
N232 N 0.34046 0.68328 0.14333 0.0
N233 N 0.37092 0.68383 0.17301 0.0
N234 N 0.33936 0.65503 0.17359 0.0
C235 C 0.36114 0.69332 0.15298 0.0
C236 C 0.36013 0.66465 0.18343 0.0
C237 C 0.32943 0.66416 0.15351 0.0
C238 C 0.3726 0.71462 0.1419 0.0
C239 C 0.36343 0.72337 0.12009 0.0
C240 C 0.37377 0.74365 0.10991 0.0
C241 C 0.39354 0.75584 0.12127 0.0
C242 C 0.40283 0.74702 0.14299 0.0
C243 C 0.39253 0.72668 0.15314 0.0
C244 C 0.37084 0.65412 0.20521 0.0
C245 C 0.3947 0.66 0.21199 0.0
C246 C 0.4048 0.64956 0.23214 0.0
C247 C 0.39119 0.63324 0.24621 0.0
C248 C 0.3673 0.62755 0.2396 0.0
C249 C 0.35729 0.63775 0.2193 0.0
C250 C 0.30684 0.65332 0.14276 0.0
C251 C 0.29318 0.6361 0.15558 0.0
C252 C 0.14939 0.26946 0.61666 0.0
C253 C 0.12824 0.25886 0.62656 0.0
C254 C 0.11699 0.26985 0.64663 0.0
C255 C 0.1268 0.29088 0.65669 0.0
H256 H 0.12045 0.33719 0.7158 0.0
H257 H 0.10306 0.35506 0.7526 0.0
H258 H 0.15782 0.41115 0.7502 0.0
H259 H 0.17502 0.3936 0.71321 0.0
H260 H 0.22107 0.38706 0.676 0.0
H261 H 0.2564 0.40513 0.65583 0.0
H262 H 0.23708 0.36823 0.58698 0.0
H263 H 0.20251 0.3494 0.60751 0.0
H264 H 0.17545 0.29811 0.6184 0.0
H265 H 0.15832 0.26159 0.60099 0.0
H266 H 0.10076 0.26202 0.6548 0.0
H267 H 0.11771 0.29879 0.67222 0.0
N268 N 0.14946 0.33326 0.67853 0.0
N269 N 0.17876 0.36414 0.67707 0.0
N270 N 0.17784 0.33477 0.64621 0.0
C271 C 0.15941 0.35347 0.68848 0.0
C272 C 0.18802 0.35494 0.65589 0.0
C273 C 0.15863 0.32375 0.65742 0.0
C274 C 0.14913 0.36395 0.71137 0.0
C275 C 0.12885 0.35332 0.7231 0.0
C276 C 0.11893 0.36349 0.74432 0.0
C277 C 0.129 0.38457 0.75433 0.0
C278 C 0.1494 0.39508 0.74277 0.0
C279 C 0.15934 0.38491 0.72159 0.0
C280 C 0.20904 0.36666 0.64343 0.0
C281 C 0.22438 0.38284 0.65654 0.0
C282 C 0.24459 0.39333 0.64489 0.0
C283 C 0.24978 0.38814 0.61971 0.0
C284 C 0.23408 0.3723 0.60651 0.0
C285 C 0.2141 0.36157 0.61827 0.0
C286 C 0.148 0.30149 0.64678 0.0
C287 C 0.15912 0.29052 0.62658 0.0
Dy288 Dy 0.01313 0.00969 0.47117 0.0
C289 C 0.99483 0.97261 0.56744 0.0
C290 C 0.01942 0.03316 0.42806 0.0
Dy291 Dy 0.00179 0.99474 0.52362 0.0
O292 O 0.02773 0.01349 0.43228 0.0
O293 O 0.00724 0.03984 0.44725 0.0
O294 O 0.03961 0.98279 0.46718 0.0
O295 O 0.03443 0.99901 0.502 0.0
C296 C 0.04467 0.98329 0.49071 0.0
C297 C 0.97014 0.02122 0.50419 0.0
O298 O 0.02762 0.02469 0.5329 0.0
O299 O 0.025 0.04137 0.49449 0.0
O300 O 0.98642 0.99197 0.56216 0.0
O301 O 0.00747 0.96537 0.54883 0.0
O302 O 0.97544 0.02157 0.52764 0.0
O303 O 0.98033 0.00549 0.49279 0.0
O304 O 0.98696 0.97982 0.46217 0.0
O305 O 0.99028 0.96292 0.50041 0.0
C306 C 0.03122 0.04262 0.51833 0.0
C307 C 0.98363 0.96183 0.47671 0.0
Dy308 Dy 0.52232 0.01297 0.02242 0.0
C309 C 0.44891 0.96446 0.9614 0.0
C310 C 0.55343 0.03915 0.052 0.0
Dy311 Dy 0.48252 0.99326 0.98451 0.0
O312 O 0.5554 0.0177 0.0457 0.0
O313 O 0.53457 0.04637 0.04195 0.0
O314 O 0.52398 0.97752 0.03762 0.0
O315 O 0.49204 0.98693 0.02287 0.0
C316 C 0.50245 0.97037 0.0311 0.0
C317 C 0.50569 0.03211 0.96721 0.0
O318 O 0.46037 0.01161 0.01249 0.0
O319 O 0.49047 0.02983 0.03748 0.0
O320 O 0.44652 0.986 0.96715 0.0
O321 O 0.46966 0.95864 0.96832 0.0
O322 O 0.48852 0.02055 0.95512 0.0
O323 O 0.50891 0.02182 0.98695 0.0
O324 O 0.54372 0.00222 0.98954 0.0
O325 O 0.515 0.97487 0.97398 0.0
C326 C 0.46777 0.02616 0.03086 0.0
C327 C 0.53744 0.98372 0.97545 0.0
Dy328 Dy 0.51211 0.48357 0.48462 0.0
C329 C 0.46578 0.55313 0.53889 0.0
C330 C 0.53946 0.45217 0.4622 0.0
Dy331 Dy 0.49397 0.52249 0.51658 0.0
O332 O 0.51632 0.45099 0.46217 0.0
O333 O 0.54772 0.47072 0.47416 0.0
O334 O 0.47464 0.46758 0.48008 0.0
O335 O 0.48423 0.48592 0.51304 0.0
C336 C 0.46706 0.47603 0.5011 0.0
C337 C 0.53892 0.53046 0.50007 0.0
O338 O 0.50361 0.49925 0.54691 0.0
O339 O 0.52827 0.47796 0.52212 0.0
O340 O 0.48794 0.5511 0.5444 0.0
O341 O 0.45898 0.53829 0.52141 0.0
O342 O 0.53112 0.53929 0.52079 0.0
O343 O 0.52183 0.52029 0.48822 0.0
O344 O 0.50138 0.50574 0.45385 0.0
O345 O 0.47799 0.52819 0.47897 0.0
C346 C 0.52037 0.48447 0.54442 0.0
C347 C 0.48517 0.52106 0.45658 0.0
Dy348 Dy 0.00924 0.47801 0.00935 0.0
C349 C 0.97148 0.56687 0.99121 0.0
C350 C 0.03329 0.43979 0.01549 0.0
Dy351 Dy 0.99409 0.52737 0.99264 0.0
O352 O 0.01368 0.44416 0.0271 0.0
O353 O 0.0396 0.45617 1.00036 0.0
O354 O 0.98141 0.47843 0.03978 0.0
O355 O 0.99797 0.50954 0.02737 0.0
C356 C 0.98165 0.50078 0.0411 0.0
C357 C 0.01514 0.50393 0.9553 0.0
O358 O 0.02809 0.53795 0.01304 0.0
O359 O 0.04153 0.50154 0.01974 0.0
O360 O 0.99315 0.56454 0.98329 0.0
O361 O 0.9623 0.54766 1.00025 0.0
O362 O 0.00903 0.52486 0.9529 0.0
O363 O 0.00921 0.49805 0.97681 0.0
O364 O 0.97876 0.4676 0.984 0.0
O365 O 0.96166 0.50296 0.98496 0.0
C366 C 0.04462 0.52445 0.02039 0.0
C367 C 0.96069 0.48039 0.97977 0.0
H368 H 0.12841 0.18835 0.29344 0.0
H369 H 0.0997 0.16669 0.31998 0.0
H370 H 0.12469 0.10294 0.29087 0.0
H371 H 0.15264 0.12439 0.26351 0.0
H372 H 0.07733 0.10015 0.29296 0.0
H373 H 0.14143 0.1256 0.34864 0.0
H374 H 0.16957 0.15406 0.36997 0.0
H375 H 0.11093 0.18789 0.40229 0.0
H376 H 0.08243 0.15979 0.38087 0.0
H377 H 0.04512 0.02098 0.38734 0.0
H378 H 0.06321 0.04655 0.35599 0.0
H379 H 0.02899 0.10361 0.38996 0.0
H380 H 0.01089 0.07802 0.42153 0.0
H381 H 0.0767 0.1129 0.38475 0.0
H382 H 0.01264 0.08375 0.33241 0.0
H383 H 0.98533 0.05411 0.31181 0.0
H384 H 0.04455 0.02599 0.27377 0.0
H385 H 0.07228 0.05527 0.29442 0.0
C386 C 0.12769 0.16972 0.29257 0.0
C387 C 0.14291 0.15811 0.27641 0.0
C388 C 0.1114 0.15737 0.3079 0.0
C389 C 0.11019 0.1332 0.30755 0.0
C390 C 0.12533 0.12159 0.29145 0.0
C391 C 0.14152 0.1339 0.27605 0.0
C392 C 0.0932 0.1199 0.32394 0.0
C393 C 0.0773 0.1028 0.31305 0.0
C394 C 0.09269 0.12384 0.35008 0.0
C395 C 0.10981 0.14077 0.36291 0.0
C396 C 0.13454 0.13923 0.36012 0.0
C397 C 0.15055 0.15527 0.37226 0.0
C398 C 0.14204 0.17282 0.38741 0.0
C399 C 0.11749 0.17432 0.3905 0.0
C400 C 0.1014 0.15834 0.37838 0.0
C401 C 0.04102 0.03886 0.38777 0.0
C402 C 0.0267 0.04759 0.40685 0.0
C403 C 0.0513 0.05344 0.36981 0.0
C404 C 0.04738 0.07697 0.37061 0.0
C405 C 0.0322 0.0855 0.38902 0.0
C406 C 0.02181 0.07087 0.40695 0.0
C407 C 0.0611 0.09288 0.35382 0.0
C408 C 0.07644 0.11046 0.36462 0.0
C409 C 0.06119 0.08926 0.32764 0.0
C410 C 0.04456 0.07163 0.31512 0.0
C411 C 0.01987 0.07114 0.31981 0.0
C412 C 0.00431 0.05442 0.30809 0.0
C413 C 0.0132 0.03815 0.29153 0.0
C414 C 0.03768 0.0386 0.28661 0.0
C415 C 0.05333 0.05528 0.29829 0.0
H416 H 0.00112 0.02522 0.28247 0.0
H417 H 0.15446 0.18521 0.3968 0.0
H418 H 0.31057 0.88499 0.78382 0.0
H419 H 0.32359 0.89893 0.82531 0.0
H420 H 0.39074 0.86896 0.81367 0.0
H421 H 0.37835 0.85569 0.77193 0.0
H422 H 0.37037 0.86238 0.86245 0.0
H423 H 0.38951 0.92261 0.80301 0.0
H424 H 0.37966 0.94928 0.77046 0.0
H425 H 0.32978 0.97966 0.82016 0.0
H426 H 0.33911 0.95292 0.8529 0.0
H427 H 0.45687 0.92415 0.93724 0.0
H428 H 0.43106 0.90315 0.90667 0.0
H429 H 0.37664 0.95041 0.92118 0.0
H430 H 0.40302 0.97212 0.95095 0.0
H431 H 0.38381 0.94714 0.87437 0.0
H432 H 0.37025 0.89141 0.93683 0.0
H433 H 0.38109 0.86537 0.96954 0.0
H434 H 0.41961 0.82637 0.91572 0.0
H435 H 0.40943 0.85245 0.88275 0.0
C436 C 0.32814 0.88141 0.79003 0.0
C437 C 0.34348 0.86935 0.77443 0.0
C438 C 0.33543 0.88919 0.81382 0.0
C439 C 0.35809 0.88493 0.82244 0.0
C440 C 0.37309 0.8722 0.80737 0.0
C441 C 0.36593 0.8646 0.78352 0.0
C442 C 0.3671 0.89534 0.84627 0.0
C443 C 0.37337 0.8809 0.8652 0.0
C444 C 0.37033 0.91949 0.84992 0.0
C445 C 0.36476 0.93558 0.83027 0.0
C446 C 0.37627 0.93484 0.80691 0.0
C447 C 0.37082 0.94999 0.78844 0.0
C448 C 0.35404 0.9661 0.7932 0.0
C449 C 0.34273 0.96714 0.81647 0.0
C450 C 0.3481 0.95199 0.83499 0.0
C451 C 0.43921 0.92976 0.93423 0.0
C452 C 0.43192 0.94978 0.94624 0.0
C453 C 0.42438 0.91765 0.91689 0.0
C454 C 0.40176 0.92504 0.91175 0.0
C455 C 0.39401 0.94439 0.9248 0.0
C456 C 0.40903 0.95675 0.94182 0.0
C457 C 0.38752 0.91423 0.8908 0.0
C458 C 0.38032 0.92862 0.87219 0.0
C459 C 0.38335 0.89003 0.8876 0.0
C460 C 0.38916 0.87401 0.90731 0.0
C461 C 0.38115 0.87736 0.93197 0.0
C462 C 0.38717 0.86258 0.95057 0.0
C463 C 0.40105 0.84423 0.94471 0.0
C464 C 0.40886 0.84059 0.92023 0.0
C465 C 0.40294 0.85536 0.90156 0.0
H466 H 0.40577 0.83284 0.95913 0.0
H467 H 0.34985 0.97783 0.77889 0.0
H468 H 0.57062 0.3888 0.75173 0.0
H469 H 0.55377 0.4086 0.71718 0.0
H470 H 0.61696 0.39864 0.6731 0.0
H471 H 0.63406 0.37938 0.70781 0.0
H472 H 0.60542 0.44018 0.66758 0.0
H473 H 0.56173 0.36619 0.66362 0.0
H474 H 0.53642 0.33326 0.67944 0.0
H475 H 0.48022 0.37748 0.69565 0.0
H476 H 0.50532 0.41076 0.68023 0.0
H477 H 0.56008 0.46051 0.54775 0.0
H478 H 0.57492 0.4422 0.5843 0.0
H479 H 0.51634 0.46542 0.62827 0.0
H480 H 0.50137 0.48398 0.59173 0.0
H481 H 0.52437 0.41854 0.63469 0.0
H482 H 0.56882 0.49231 0.63658 0.0
H483 H 0.59433 0.52413 0.61878 0.0
H484 H 0.64965 0.47851 0.60427 0.0
H485 H 0.62433 0.44631 0.62171 0.0
C486 C 0.58081 0.39067 0.73458 0.0
C487 C 0.60367 0.3825 0.7325 0.0
C488 C 0.57115 0.40197 0.71479 0.0
C489 C 0.58393 0.40495 0.6923 0.0
C490 C 0.60673 0.39668 0.69021 0.0
C491 C 0.6165 0.38565 0.71008 0.0
C492 C 0.57385 0.41701 0.67109 0.0
C493 C 0.5878 0.43519 0.66025 0.0
C494 C 0.55063 0.41098 0.66173 0.0
C495 C 0.5355 0.39101 0.67102 0.0
C496 C 0.54404 0.36893 0.67075 0.0
C497 C 0.52972 0.35019 0.67961 0.0
C498 C 0.50675 0.35329 0.68862 0.0
C499 C 0.49803 0.37512 0.68871 0.0
C500 C 0.51229 0.39392 0.6799 0.0
C501 C 0.55034 0.46179 0.56519 0.0
C502 C 0.52956 0.47379 0.56682 0.0
C503 C 0.5589 0.45135 0.58609 0.0
C504 C 0.54682 0.45255 0.60905 0.0
C505 C 0.52595 0.46431 0.61073 0.0
C506 C 0.5175 0.47501 0.58987 0.0
C507 C 0.55605 0.44142 0.63121 0.0
C508 C 0.54194 0.42348 0.64217 0.0
C509 C 0.57921 0.44748 0.64051 0.0
C510 C 0.59459 0.46685 0.63027 0.0
C511 C 0.58636 0.48902 0.62944 0.0
C512 C 0.6008 0.50713 0.61944 0.0
C513 C 0.62358 0.50333 0.61036 0.0
C514 C 0.63199 0.48142 0.61131 0.0
C515 C 0.61762 0.46324 0.62128 0.0
H516 H 0.63473 0.51739 0.60266 0.0
H517 H 0.49569 0.33876 0.69547 0.0
H518 H 0.91884 0.62827 0.22508 0.0
H519 H 0.93424 0.60952 0.1876 0.0
H520 H 0.87115 0.56268 0.18439 0.0
H521 H 0.85493 0.58198 0.22107 0.0
H522 H 0.91642 0.54164 0.1811 0.0
H523 H 0.87474 0.60149 0.14431 0.0
H524 H 0.86509 0.6416 0.13884 0.0
H525 H 0.93787 0.6604 0.11843 0.0
H526 H 0.94803 0.62044 0.12414 0.0
H527 H 0.94177 0.48588 0.06684 0.0
H528 H 0.92136 0.50665 0.09999 0.0
H529 H 0.97216 0.56541 0.09166 0.0
H530 H 0.99167 0.54513 0.05753 0.0
H531 H 0.93184 0.5806 0.10093 0.0
H532 H 0.97543 0.52378 0.1393 0.0
H533 H 0.98799 0.48489 0.14655 0.0
H534 H 0.91612 0.46184 0.1664 0.0
H535 H 0.90307 0.50053 0.15896 0.0
C536 C 0.90795 0.61428 0.21622 0.0
C537 C 0.88557 0.6067 0.22629 0.0
C538 C 0.9169 0.60349 0.19485 0.0
C539 C 0.9038 0.58475 0.18326 0.0
C540 C 0.88155 0.57707 0.19317 0.0
C541 C 0.87241 0.58805 0.21429 0.0
C542 C 0.91362 0.57278 0.16115 0.0
C543 C 0.91949 0.54999 0.16343 0.0
C544 C 0.91831 0.58401 0.13843 0.0
C545 C 0.91219 0.60802 0.1349 0.0
C546 C 0.88873 0.61422 0.13888 0.0
C547 C 0.88316 0.63692 0.13569 0.0
C548 C 0.90087 0.65355 0.12836 0.0
C549 C 0.92417 0.6475 0.12414 0.0
C550 C 0.92985 0.62482 0.12733 0.0
C551 C 0.94839 0.50331 0.07198 0.0
C552 C 0.9684 0.51384 0.05986 0.0
C553 C 0.93685 0.51513 0.09105 0.0
C554 C 0.94557 0.53742 0.0989 0.0
C555 C 0.96511 0.54822 0.08612 0.0
C556 C 0.9763 0.53659 0.06666 0.0
C557 C 0.93479 0.54928 0.12076 0.0
C558 C 0.92875 0.5721 0.11851 0.0
C559 C 0.93043 0.53824 0.14375 0.0
C560 C 0.93823 0.51498 0.14833 0.0
C561 C 0.96228 0.51037 0.14505 0.0
C562 C 0.96949 0.48837 0.14921 0.0
C563 C 0.95285 0.47089 0.15686 0.0
C564 C 0.92898 0.47539 0.16044 0.0
C565 C 0.92167 0.49735 0.15627 0.0
H566 H 0.95847 0.45387 0.16007 0.0
H567 H 0.89652 0.67112 0.12589 0.0
H568 H 0.33664 0.15563 0.16617 0.0
H569 H 0.36663 0.13124 0.14849 0.0
H570 H 0.32427 0.11889 0.08218 0.0
H571 H 0.29422 0.14312 0.09976 0.0
H572 H 0.34054 0.07877 0.10173 0.0
H573 H 0.37151 0.15525 0.07983 0.0
H574 H 0.38514 0.1959 0.08861 0.0
H575 H 0.43965 0.17492 0.13663 0.0
H576 H 0.42612 0.13412 0.1284 0.0
H577 H 0.42179 0.03142 0.01744 0.0
H578 H 0.39294 0.05425 0.03902 0.0
H579 H 0.444 0.07243 0.0972 0.0
H580 H 0.47328 0.05018 0.0753 0.0
H581 H 0.4238 0.10901 0.08456 0.0
H582 H 0.39495 0.03299 0.10597 0.0
H583 H 0.3817 0.99205 0.09858 0.0
H584 H 0.32373 0.01121 0.05407 0.0
H585 H 0.33683 0.05228 0.0609 0.0
C586 C 0.33376 0.14768 0.14784 0.0
C587 C 0.31318 0.15132 0.13427 0.0
C588 C 0.35091 0.13387 0.13774 0.0
C589 C 0.34766 0.12337 0.11402 0.0
C590 C 0.32708 0.12687 0.10052 0.0
C591 C 0.31005 0.14085 0.11048 0.0
C592 C 0.36562 0.10859 0.10324 0.0
C593 C 0.3587 0.08538 0.09772 0.0
C594 C 0.38945 0.11713 0.09882 0.0
C595 C 0.39763 0.14165 0.10372 0.0
C596 C 0.38626 0.15931 0.09244 0.0
C597 C 0.394 0.18238 0.09728 0.0
C598 C 0.4132 0.18799 0.11323 0.0
C599 C 0.42475 0.17055 0.12432 0.0
C600 C 0.41707 0.14745 0.11956 0.0
C601 C 0.42685 0.04011 0.03493 0.0
C602 C 0.44983 0.03894 0.04466 0.0
C603 C 0.41028 0.0531 0.04731 0.0
C604 C 0.41617 0.06482 0.06993 0.0
C605 C 0.43905 0.06353 0.07979 0.0
C606 C 0.45574 0.05075 0.06726 0.0
C607 C 0.39874 0.07909 0.08276 0.0
C608 C 0.40572 0.10225 0.08871 0.0
C609 C 0.37502 0.07041 0.08784 0.0
C610 C 0.367 0.04572 0.08378 0.0
C611 C 0.37948 0.02847 0.09446 0.0
C612 C 0.37197 0.00524 0.09039 0.0
C613 C 0.35192 0.99903 0.07582 0.0
C614 C 0.33928 0.01605 0.06534 0.0
C615 C 0.34672 0.03931 0.06932 0.0
H616 H 0.34614 0.98103 0.0727 0.0
H617 H 0.41917 0.20586 0.11695 0.0
H618 H 0.21218 0.85902 0.55989 0.0
H619 H 0.17867 0.87548 0.54004 0.0
H620 H 0.18343 0.93226 0.59357 0.0
H621 H 0.21761 0.91662 0.61287 0.0
H622 H 0.13627 0.90891 0.58672 0.0
H623 H 0.20316 0.94302 0.53948 0.0
H624 H 0.23945 0.94172 0.51346 0.0
H625 H 0.20007 0.90057 0.45789 0.0
H626 H 0.1636 0.90135 0.48377 0.0
H627 H 0.06339 0.98904 0.53717 0.0
H628 H 0.09464 0.96798 0.55515 0.0
H629 H 0.09667 0.92521 0.48816 0.0
H630 H 0.06597 0.94695 0.46973 0.0
H631 H 0.13957 0.93819 0.50079 0.0
H632 H 0.07296 0.90375 0.54515 0.0
H633 H 0.0364 0.90102 0.57095 0.0
H634 H 0.07349 0.93864 0.63066 0.0
H635 H 0.11032 0.94158 0.60521 0.0
C636 C 0.20642 0.87522 0.56721 0.0
C637 C 0.21762 0.88647 0.58804 0.0
C638 C 0.18716 0.88448 0.55594 0.0
C639 C 0.17866 0.90501 0.56543 0.0
C640 C 0.18972 0.9163 0.58614 0.0
C641 C 0.20916 0.90724 0.59721 0.0
C642 C 0.15801 0.91465 0.55397 0.0
C643 C 0.13697 0.91555 0.56803 0.0
C644 C 0.15883 0.92242 0.52928 0.0
C645 C 0.18073 0.92202 0.51369 0.0
C646 C 0.20229 0.93351 0.52182 0.0
C647 C 0.22288 0.93291 0.50708 0.0
C648 C 0.22209 0.92101 0.48407 0.0
C649 C 0.20067 0.90975 0.47573 0.0
C650 C 0.18003 0.91027 0.49042 0.0
C651 C 0.07041 0.97505 0.52636 0.0
C652 C 0.06243 0.96965 0.50205 0.0
C653 C 0.08814 0.96289 0.53672 0.0
C654 C 0.09781 0.94478 0.52315 0.0
C655 C 0.08947 0.93911 0.49898 0.0
C656 C 0.07195 0.95149 0.48849 0.0
C657 C 0.11762 0.93278 0.53363 0.0
C658 C 0.13861 0.9314 0.51941 0.0
C659 C 0.11661 0.92418 0.55806 0.0
C660 C 0.09434 0.92303 0.57319 0.0
C661 C 0.07326 0.91163 0.56369 0.0
C662 C 0.05251 0.90998 0.57829 0.0
C663 C 0.0526 0.91972 0.60241 0.0
C664 C 0.07345 0.93112 0.61198 0.0
C665 C 0.09429 0.93271 0.59751 0.0
H666 H 0.03656 0.91835 0.61373 0.0
H667 H 0.23804 0.92057 0.47267 0.0
H668 H 0.75478 0.41641 0.88535 0.0
H669 H 0.79175 0.43476 0.90272 0.0
H670 H 0.82026 0.36836 0.9072 0.0
H671 H 0.78331 0.34986 0.88977 0.0
H672 H 0.82948 0.39355 0.94893 0.0
H673 H 0.83833 0.40569 0.86129 0.0
H674 H 0.82663 0.41822 0.81997 0.0
H675 H 0.82509 0.48775 0.84847 0.0
H676 H 0.83645 0.47557 0.89008 0.0
H677 H 0.95045 0.43447 0.96855 0.0
H678 H 0.91378 0.41589 0.9508 0.0
H679 H 0.88385 0.48177 0.94831 0.0
H680 H 0.92053 0.50058 0.96587 0.0
H681 H 0.87559 0.45667 0.90544 0.0
H682 H 0.86666 0.44432 0.99316 0.0
H683 H 0.87861 0.43168 0.03435 0.0
H684 H 0.88061 0.36233 0.00542 0.0
H685 H 0.86901 0.37463 0.96394 0.0
C686 C 0.76899 0.40571 0.8898 0.0
C687 C 0.76609 0.38165 0.88603 0.0
C688 C 0.79013 0.41624 0.89978 0.0
C689 C 0.80895 0.40299 0.906 0.0
C690 C 0.80601 0.37895 0.90256 0.0
C691 C 0.78483 0.36839 0.89265 0.0
C692 C 0.83162 0.41419 0.91622 0.0
C693 C 0.83974 0.40713 0.93923 0.0
C694 C 0.84478 0.43227 0.90388 0.0
C695 C 0.83801 0.43967 0.87886 0.0
C696 C 0.83531 0.42362 0.85879 0.0
C697 C 0.82877 0.43066 0.83531 0.0
C698 C 0.82506 0.45376 0.83161 0.0
C699 C 0.82794 0.46986 0.85137 0.0
C700 C 0.83445 0.4629 0.8749 0.0
C701 C 0.93611 0.44506 0.96424 0.0
C702 C 0.93849 0.46905 0.96876 0.0
C703 C 0.91509 0.43437 0.95417 0.0
C704 C 0.89594 0.44739 0.94846 0.0
C705 C 0.89837 0.47136 0.9526 0.0
C706 C 0.91936 0.48208 0.96273 0.0
C707 C 0.87341 0.43603 0.93813 0.0
C708 C 0.86534 0.44308 0.9151 0.0
C709 C 0.86032 0.41791 0.95043 0.0
C710 C 0.8672 0.41045 0.97538 0.0
C711 C 0.86984 0.42641 0.99553 0.0
C712 C 0.87651 0.4193 0.01894 0.0
C713 C 0.88043 0.39622 0.02248 0.0
C714 C 0.87761 0.3802 0.00264 0.0
C715 C 0.87096 0.38723 0.97918 0.0
H716 H 0.88559 0.39075 0.04062 0.0
H717 H 0.82 0.45918 0.81342 0.0
H718 H 0.73695 0.57302 0.37786 0.0
H719 H 0.70063 0.55602 0.39746 0.0
H720 H 0.69678 0.6168 0.44458 0.0
H721 H 0.7322 0.63465 0.42418 0.0
H722 H 0.69016 0.57016 0.46878 0.0
H723 H 0.66252 0.61505 0.40094 0.0
H724 H 0.6614 0.62586 0.35691 0.0
H725 H 0.63815 0.5562 0.3355 0.0
H726 H 0.63949 0.54491 0.3794 0.0
H727 H 0.57369 0.56095 0.51892 0.0
H728 H 0.61225 0.57255 0.50007 0.0
H729 H 0.59692 0.52445 0.4385 0.0
H730 H 0.55766 0.51385 0.45667 0.0
H731 H 0.6149 0.56158 0.42072 0.0
H732 H 0.63873 0.51573 0.48624 0.0
H733 H 0.64104 0.50185 0.52905 0.0
H734 H 0.67297 0.56781 0.55375 0.0
H735 H 0.67052 0.58222 0.51116 0.0
C736 C 0.7283 0.58299 0.39215 0.0
C737 C 0.73762 0.60537 0.39923 0.0
C738 C 0.70766 0.57309 0.4035 0.0
C739 C 0.69613 0.58517 0.42245 0.0
C740 C 0.7056 0.60717 0.4301 0.0
C741 C 0.72597 0.61727 0.41845 0.0
C742 C 0.67361 0.57527 0.43363 0.0
C743 C 0.6736 0.56843 0.45845 0.0
C744 C 0.65234 0.57225 0.41973 0.0
C745 C 0.65138 0.57909 0.39339 0.0
C746 C 0.6574 0.602 0.38681 0.0
C747 C 0.65667 0.60822 0.36189 0.0
C748 C 0.64978 0.59172 0.3434 0.0
C749 C 0.64353 0.56896 0.34982 0.0
C750 C 0.64426 0.56264 0.37472 0.0
C751 C 0.57861 0.55278 0.50143 0.0
C752 C 0.56276 0.53642 0.4893 0.0
C753 C 0.60077 0.55928 0.49074 0.0
C754 C 0.60781 0.5491 0.46803 0.0
C755 C 0.59201 0.53254 0.45604 0.0
C756 C 0.56963 0.52637 0.46651 0.0
C757 C 0.63111 0.55658 0.45625 0.0
C758 C 0.63137 0.56302 0.4312 0.0
C759 C 0.65273 0.5587 0.46983 0.0
C760 C 0.65427 0.55012 0.49551 0.0
C761 C 0.64608 0.52734 0.50083 0.0
C762 C 0.64744 0.51937 0.52506 0.0
C763 C 0.65711 0.53395 0.54411 0.0
C764 C 0.66547 0.55653 0.53897 0.0
C765 C 0.66412 0.56461 0.51478 0.0
H766 H 0.6582 0.52773 0.56283 0.0
H767 H 0.64923 0.59657 0.32412 0.0
H768 H 0.12849 0.28554 0.12821 0.0
H769 H 0.10638 0.31107 0.10369 0.0
H770 H 0.17147 0.33567 0.06666 0.0
H771 H 0.19403 0.31078 0.09211 0.0
H772 H 0.14562 0.37057 0.07968 0.0
H773 H 0.13028 0.29862 0.03642 0.0
H774 H 0.11894 0.25702 0.03152 0.0
H775 H 0.04887 0.2674 0.06014 0.0
H776 H 0.05988 0.30903 0.06556 0.0
H777 H 0.07741 0.43227 0.99715 0.0
H778 H 0.10351 0.4031 0.0103 0.0
H779 H 0.04815 0.37536 0.05957 0.0
H780 H 0.02201 0.40446 0.04651 0.0
H781 H 0.07235 0.34139 0.0344 0.0
H782 H 0.09018 0.41253 0.08224 0.0
H783 H 0.10154 0.45418 0.08669 0.0
H784 H 0.16759 0.44489 0.04821 0.0
H785 H 0.15643 0.4032 0.0432 0.0
C786 C 0.13821 0.29655 0.11508 0.0
C787 C 0.16307 0.2962 0.11223 0.0
C788 C 0.12547 0.31091 0.10079 0.0
C789 C 0.13721 0.32498 0.08303 0.0
C790 C 0.16204 0.3248 0.08014 0.0
C791 C 0.17487 0.31048 0.09457 0.0
C792 C 0.12345 0.34037 0.06817 0.0
C793 C 0.12991 0.36412 0.06932 0.0
C794 C 0.10276 0.33199 0.05491 0.0
C795 C 0.09597 0.30695 0.05154 0.0
C796 C 0.1125 0.29202 0.04183 0.0
C797 C 0.10612 0.26843 0.03894 0.0
C798 C 0.08321 0.25957 0.04555 0.0
C799 C 0.06661 0.27429 0.05503 0.0
C800 C 0.0729 0.29789 0.05798 0.0
C801 C 0.07072 0.41971 0.01051 0.0
C802 C 0.04782 0.42064 0.02099 0.0
C803 C 0.08564 0.40314 0.01802 0.0
C804 C 0.07781 0.38729 0.03609 0.0
C805 C 0.05449 0.38748 0.04561 0.0
C806 C 0.03963 0.40411 0.03821 0.0
C807 C 0.09431 0.37148 0.04639 0.0
C808 C 0.08833 0.3477 0.0444 0.0
C809 C 0.11549 0.37981 0.05877 0.0
C810 C 0.12235 0.40481 0.06209 0.0
C811 C 0.10704 0.4194 0.07457 0.0
C812 C 0.11345 0.44301 0.07721 0.0
C813 C 0.13524 0.45219 0.06767 0.0
C814 C 0.1507 0.43776 0.05555 0.0
C815 C 0.14434 0.41414 0.05281 0.0
H816 H 0.14016 0.47048 0.06972 0.0
H817 H 0.07831 0.2413 0.04331 0.0
H818 H 0.58709 0.21121 0.85161 0.0
H819 H 0.56935 0.17556 0.86909 0.0
H820 H 0.60158 0.19443 0.94007 0.0
H821 H 0.61897 0.23042 0.92295 0.0
H822 H 0.60652 0.14874 0.92656 0.0
H823 H 0.5437 0.19999 0.93274 0.0
H824 H 0.5165 0.2275 0.91721 0.0
H825 H 0.48704 0.17618 0.86478 0.0
H826 H 0.51432 0.14844 0.87976 0.0
H827 H 0.53826 0.06089 0.99308 0.0
H828 H 0.55764 0.09764 0.97941 0.0
H829 H 0.52137 0.08842 0.90888 0.0
H830 H 0.50148 0.05229 0.92283 0.0
H831 H 0.5189 0.13053 0.9247 0.0
H832 H 0.5823 0.07968 0.91676 0.0
H833 H 0.60943 0.05179 0.93165 0.0
H834 H 0.63791 0.10162 0.98619 0.0
H835 H 0.61069 0.12971 0.97187 0.0
C836 C 0.59021 0.20798 0.87103 0.0
C837 C 0.60443 0.22387 0.88585 0.0
C838 C 0.58014 0.18749 0.88097 0.0
C839 C 0.58399 0.18237 0.90596 0.0
C840 C 0.59842 0.19797 0.92072 0.0
C841 C 0.60842 0.21853 0.91084 0.0
C842 C 0.57272 0.16086 0.91667 0.0
C843 C 0.58733 0.14487 0.92648 0.0
C844 C 0.54773 0.15561 0.91618 0.0
C845 C 0.53121 0.17221 0.90723 0.0
C846 C 0.53155 0.19462 0.91777 0.0
C847 C 0.5161 0.21025 0.90909 0.0
C848 C 0.50009 0.20361 0.88998 0.0
C849 C 0.49946 0.1813 0.87956 0.0
C850 C 0.5149 0.16562 0.88816 0.0
C851 C 0.53452 0.06675 0.97467 0.0
C852 C 0.51837 0.05379 0.95902 0.0
C853 C 0.54568 0.08769 0.9668 0.0
C854 C 0.54117 0.0958 0.94296 0.0
C855 C 0.52513 0.08266 0.92735 0.0
C856 C 0.51383 0.06194 0.93531 0.0
C857 C 0.55269 0.11811 0.93424 0.0
C858 C 0.53809 0.13433 0.92486 0.0
C859 C 0.5777 0.12347 0.93499 0.0
C860 C 0.59428 0.10671 0.94341 0.0
C861 C 0.59424 0.08464 0.93204 0.0
C862 C 0.60964 0.0688 0.94036 0.0
C863 C 0.62534 0.07491 0.9599 0.0
C864 C 0.62572 0.0969 0.97109 0.0
C865 C 0.61032 0.11279 0.96287 0.0
H866 H 0.63724 0.06262 0.96632 0.0
H867 H 0.48814 0.21573 0.88329 0.0
H868 H 0.86309 0.78847 0.37013 0.0
H869 H 0.88052 0.82548 0.38731 0.0
H870 H 0.93779 0.79104 0.41905 0.0
H871 H 0.92073 0.75406 0.40141 0.0
H872 H 0.91102 0.82406 0.45237 0.0
H873 H 0.95324 0.81752 0.3732 0.0
H874 H 0.95499 0.81186 0.32752 0.0
H875 H 0.91473 0.87076 0.31846 0.0
H876 H 0.91244 0.87656 0.36413 0.0
H877 H 0.98808 0.9185 0.49284 0.0
H878 H 0.96993 0.88228 0.47535 0.0
H879 H 0.93371 0.9196 0.42068 0.0
H880 H 0.953 0.95585 0.43734 0.0
H881 H 0.94833 0.88483 0.39857 0.0
H882 H 0.90359 0.89256 0.47381 0.0
H883 H 0.89612 0.89884 0.51874 0.0
H884 H 0.93447 0.84013 0.53498 0.0
H885 H 0.94205 0.83343 0.49007 0.0
C886 C 0.87941 0.78885 0.38075 0.0
C887 C 0.89063 0.76849 0.38444 0.0
C888 C 0.88934 0.80994 0.39048 0.0
C889 C 0.9104 0.81091 0.4044 0.0
C890 C 0.92151 0.79058 0.40834 0.0
C891 C 0.91185 0.76955 0.39818 0.0
C892 C 0.9208 0.83319 0.41491 0.0
C893 C 0.91948 0.83729 0.44073 0.0
C894 C 0.93089 0.85068 0.39952 0.0
C895 C 0.93245 0.84731 0.37208 0.0
C896 C 0.94457 0.82913 0.36148 0.0
C897 C 0.9457 0.82593 0.33558 0.0
C898 C 0.93492 0.8409 0.3201 0.0
C899 C 0.92305 0.85916 0.33048 0.0
C900 C 0.92184 0.86242 0.35636 0.0
C901 C 0.97615 0.91899 0.47716 0.0
C902 C 0.9719 0.94001 0.4665 0.0
C903 C 0.96561 0.89824 0.46726 0.0
C904 C 0.94997 0.89809 0.44695 0.0
C905 C 0.94567 0.91916 0.43634 0.0
C906 C 0.95666 0.93989 0.4459 0.0
C907 C 0.93878 0.87593 0.43633 0.0
C908 C 0.93988 0.87176 0.41041 0.0
C909 C 0.92785 0.85859 0.45158 0.0
C910 C 0.92357 0.86264 0.47861 0.0
C911 C 0.91056 0.88109 0.48698 0.0
C912 C 0.90626 0.88469 0.51244 0.0
C913 C 0.91493 0.86997 0.52973 0.0
C914 C 0.9278 0.85154 0.52157 0.0
C915 C 0.93202 0.84778 0.49611 0.0
H916 H 0.91161 0.8728 0.54944 0.0
H917 H 0.93581 0.8384 0.30005 0.0
H918 H 0.38427 0.73407 0.63478 0.0
H919 H 0.40121 0.69811 0.62267 0.0
H920 H 0.3678 0.6989 0.5508 0.0
H921 H 0.35168 0.73571 0.56215 0.0
H922 H 0.36234 0.6547 0.57952 0.0
H923 H 0.42083 0.71207 0.5482 0.0
H924 H 0.44807 0.74724 0.55151 0.0
H925 H 0.48624 0.71771 0.61001 0.0
H926 H 0.45897 0.68248 0.60731 0.0
H927 H 0.42481 0.5666 0.51959 0.0
H928 H 0.40411 0.60052 0.532 0.0
H929 H 0.45371 0.61493 0.59243 0.0
H930 H 0.47515 0.58157 0.57923 0.0
H931 H 0.44985 0.65189 0.56881 0.0
H932 H 0.3931 0.59477 0.60117 0.0
H933 H 0.36591 0.55948 0.60015 0.0
H934 H 0.32437 0.58761 0.5434 0.0
H935 H 0.3515 0.62296 0.54382 0.0
C936 C 0.38083 0.72695 0.61619 0.0
C937 C 0.36678 0.73802 0.59934 0.0
C938 C 0.39032 0.70624 0.60945 0.0
C939 C 0.3857 0.696 0.5859 0.0
C940 C 0.37139 0.70661 0.56913 0.0
C941 C 0.36216 0.72758 0.5757 0.0
C942 C 0.39632 0.67437 0.57883 0.0
C943 C 0.38142 0.65399 0.57679 0.0
C944 C 0.42124 0.6736 0.57612 0.0
C945 C 0.4377 0.69474 0.57773 0.0
C946 C 0.43488 0.71317 0.56194 0.0
C947 C 0.45036 0.73309 0.56367 0.0
C948 C 0.46883 0.73474 0.58101 0.0
C949 C 0.4719 0.71642 0.59662 0.0
C950 C 0.45645 0.69647 0.59498 0.0
C951 C 0.43104 0.57684 0.53575 0.0
C952 C 0.45154 0.5716 0.54847 0.0
C953 C 0.41914 0.59616 0.54291 0.0
C954 C 0.42721 0.6102 0.5633 0.0
C955 C 0.4472 0.6044 0.57659 0.0
C956 C 0.45937 0.58532 0.56914 0.0
C957 C 0.41595 0.63184 0.56963 0.0
C958 C 0.43074 0.65236 0.57152 0.0
C959 C 0.39094 0.63262 0.57255 0.0
C960 C 0.37448 0.61144 0.57237 0.0
C961 C 0.37827 0.59337 0.58834 0.0
C962 C 0.36285 0.57336 0.58789 0.0
C963 C 0.34346 0.57127 0.57167 0.0
C964 C 0.33941 0.58923 0.55593 0.0
C965 C 0.35479 0.60927 0.55629 0.0
H966 H 0.33156 0.55576 0.57134 0.0
H967 H 0.48081 0.75017 0.58231 0.0
H968 H 0.8996 0.83263 0.73114 0.0
H969 H 0.9254 0.85013 0.69912 0.0
H970 H 0.87808 0.90462 0.69296 0.0
H971 H 0.85101 0.88604 0.72302 0.0
H972 H 0.89242 0.89504 0.64991 0.0
H973 H 0.93299 0.90912 0.72814 0.0
H974 H 0.95113 0.89868 0.76751 0.0
H975 H 0.0006 0.85906 0.72664 0.0
H976 H 0.98256 0.86904 0.68703 0.0
H977 H 0.96737 0.98611 0.60608 0.0
H978 H 0.94819 0.96165 0.63783 0.0
H979 H 0.98538 0.90417 0.60955 0.0
H980 H 0.00425 0.92854 0.57717 0.0
H981 H 0.9787 0.9116 0.66731 0.0
H982 H 0.93784 0.90385 0.5878 0.0
H983 H 0.92123 0.92123 0.55115 0.0
H984 H 0.8712 0.95456 0.59806 0.0
H985 H 0.88834 0.93829 0.63521 0.0
C986 C 0.89432 0.84804 0.72261 0.0
C987 C 0.87319 0.85797 0.72999 0.0
C988 C 0.90938 0.85827 0.70454 0.0
C989 C 0.90405 0.87904 0.69401 0.0
C990 C 0.88273 0.88868 0.70089 0.0
C991 C 0.86738 0.87818 0.71845 0.0
C992 C 0.92065 0.89102 0.67605 0.0
C993 C 0.91124 0.89869 0.65388 0.0
C994 C 0.94536 0.89559 0.68088 0.0
C995 C 0.95624 0.8896 0.70466 0.0
C996 C 0.94763 0.89804 0.72757 0.0
C997 C 0.95791 0.89223 0.74992 0.0
C998 C 0.97695 0.87815 0.74958 0.0
C999 C 0.98581 0.86992 0.72688 0.0
C1000 C 0.97558 0.87565 0.70447 0.0
C1001 C 0.97188 0.9684 0.60696 0.0
C1002 C 0.9872 0.95911 0.58919 0.0
C1003 C 0.96097 0.9545 0.62511 0.0
C1004 C 0.96532 0.93117 0.62583 0.0
C1005 C 0.98194 0.92221 0.60927 0.0
C1006 C 0.99269 0.9361 0.59086 0.0
C1007 C 0.95022 0.91579 0.6418 0.0
C1008 C 0.95992 0.90753 0.6634 0.0
C1009 C 0.92566 0.91117 0.6368 0.0
C1010 C 0.91455 0.92001 0.61434 0.0
C1011 C 0.92344 0.91504 0.59035 0.0
C1012 C 0.91392 0.92469 0.56947 0.0
C1013 C 0.89508 0.93889 0.57224 0.0
C1014 C 0.88577 0.94352 0.59594 0.0
C1015 C 0.89545 0.93416 0.61693 0.0
H1016 H 0.88772 0.94633 0.55603 0.0
H1017 H 0.98489 0.87368 0.7669 0.0
H1018 H 0.66968 0.09687 0.25126 0.0
H1019 H 0.6557 0.08381 0.20995 0.0
H1020 H 0.59382 0.12278 0.21964 0.0
H1021 H 0.60679 0.13461 0.26156 0.0
H1022 H 0.58088 0.08328 0.19971 0.0
H1023 H 0.64334 0.14137 0.18287 0.0
H1024 H 0.68384 0.16074 0.18536 0.0
H1025 H 0.71288 0.10109 0.1517 0.0
H1026 H 0.67256 0.08124 0.14932 0.0
H1027 H 0.54462 0.07992 0.07479 0.0
H1028 H 0.56403 0.09721 0.11222 0.0
H1029 H 0.61373 0.04432 0.11033 0.0
H1030 H 0.5942 0.02675 0.07303 0.0
H1031 H 0.63342 0.09146 0.12511 0.0
H1032 H 0.56945 0.03359 0.14409 0.0
H1033 H 0.52821 0.01614 0.14041 0.0
H1034 H 0.50137 0.07873 0.16935 0.0
H1035 H 0.54247 0.09666 0.17283 0.0
C1036 C 0.65291 0.1024 0.24477 0.0
C1037 C 0.63943 0.11691 0.25973 0.0
C1038 C 0.64513 0.09519 0.22097 0.0
C1039 C 0.62396 0.1027 0.21148 0.0
C1040 C 0.61031 0.1169 0.22649 0.0
C1041 C 0.61789 0.12385 0.25039 0.0
C1042 C 0.61569 0.09542 0.18612 0.0
C1043 C 0.59232 0.0854 0.18342 0.0
C1044 C 0.6307 0.09782 0.16483 0.0
C1045 C 0.65496 0.10974 0.16614 0.0
C1046 C 0.65838 0.13232 0.17617 0.0
C1047 C 0.6813 0.14339 0.17753 0.0
C1048 C 0.70093 0.13213 0.16876 0.0
C1049 C 0.69766 0.10978 0.15853 0.0
C1050 C 0.67478 0.09862 0.15714 0.0
C1051 C 0.56004 0.07231 0.08201 0.0
C1052 C 0.56782 0.05191 0.07128 0.0
C1053 C 0.57106 0.08218 0.10335 0.0
C1054 C 0.5901 0.07185 0.11403 0.0
C1055 C 0.59906 0.05248 0.10225 0.0
C1056 C 0.58786 0.04246 0.08106 0.0
C1057 C 0.59875 0.0796 0.13896 0.0
C1058 C 0.62211 0.08953 0.14153 0.0
C1059 C 0.58368 0.07743 0.16013 0.0
C1060 C 0.559 0.06653 0.15848 0.0
C1061 C 0.55474 0.04368 0.14949 0.0
C1062 C 0.5314 0.0337 0.14747 0.0
C1063 C 0.51218 0.04634 0.15457 0.0
C1064 C 0.51627 0.06897 0.16381 0.0
C1065 C 0.53959 0.07904 0.16583 0.0
H1066 H 0.49412 0.03859 0.15297 0.0
H1067 H 0.71866 0.14073 0.16983 0.0
H1068 H 0.37181 0.62626 0.29258 0.0
H1069 H 0.38888 0.60719 0.32755 0.0
H1070 H 0.45153 0.59569 0.28334 0.0
H1071 H 0.43451 0.61475 0.24821 0.0
H1072 H 0.43318 0.55645 0.30889 0.0
H1073 H 0.4555 0.63652 0.32667 0.0
H1074 H 0.44835 0.67751 0.3331 0.0
H1075 H 0.40109 0.66057 0.39429 0.0
H1076 H 0.40769 0.61941 0.38798 0.0
H1077 H 0.50296 0.5205 0.40876 0.0
H1078 H 0.48805 0.53943 0.3726 0.0
H1079 H 0.43063 0.56394 0.41753 0.0
H1080 H 0.44593 0.54579 0.45387 0.0
H1081 H 0.44758 0.59701 0.39055 0.0
H1082 H 0.4231 0.51761 0.37286 0.0
H1083 H 0.42824 0.47617 0.36661 0.0
H1084 H 0.47676 0.49087 0.30586 0.0
H1085 H 0.47214 0.53245 0.31196 0.0
C1086 C 0.3892 0.61962 0.29028 0.0
C1087 C 0.40182 0.62205 0.26763 0.0
C1088 C 0.39899 0.60884 0.31032 0.0
C1089 C 0.42154 0.60011 0.30811 0.0
C1090 C 0.43412 0.60232 0.28547 0.0
C1091 C 0.42445 0.61336 0.26549 0.0
C1092 C 0.43189 0.58862 0.32944 0.0
C1093 C 0.43667 0.56538 0.32666 0.0
C1094 C 0.43584 0.6001 0.35281 0.0
C1095 C 0.43192 0.62485 0.35669 0.0
C1096 C 0.44343 0.64151 0.34136 0.0
C1097 C 0.43951 0.66478 0.34501 0.0
C1098 C 0.42423 0.67164 0.36405 0.0
C1099 C 0.4129 0.65523 0.37953 0.0
C1100 C 0.41674 0.63193 0.37594 0.0
C1101 C 0.48708 0.52981 0.41091 0.0
C1102 C 0.47564 0.53159 0.43424 0.0
C1103 C 0.47849 0.54058 0.39015 0.0
C1104 C 0.45798 0.55295 0.39213 0.0
C1105 C 0.44649 0.55458 0.41542 0.0
C1106 C 0.45524 0.54411 0.43622 0.0
C1107 C 0.44872 0.56463 0.3702 0.0
C1108 C 0.44415 0.58798 0.37282 0.0
C1109 C 0.44468 0.55314 0.34678 0.0
C1110 C 0.44746 0.52816 0.34304 0.0
C1111 C 0.435 0.51202 0.35829 0.0
C1112 C 0.4378 0.4885 0.35476 0.0
C1113 C 0.45287 0.4809 0.3359 0.0
C1114 C 0.46512 0.49679 0.32049 0.0
C1115 C 0.46241 0.52033 0.32396 0.0
H1116 H 0.45501 0.46268 0.33319 0.0
H1117 H 0.42122 0.68966 0.36685 0.0
H1118 H 0.11089 0.36424 0.79668 0.0
H1119 H 0.09256 0.38281 0.83277 0.0
H1120 H 0.10416 0.44871 0.79827 0.0
H1121 H 0.12239 0.43029 0.76214 0.0
H1122 H 0.11606 0.45203 0.84657 0.0
H1123 H 0.04911 0.41907 0.79867 0.0
H1124 H 0.02471 0.38781 0.77693 0.0
H1125 H 0.01602 0.35135 0.8452 0.0
H1126 H 0.04066 0.38227 0.86728 0.0
H1127 H 0.03607 0.51938 0.91263 0.0
H1128 H 0.05666 0.49722 0.88082 0.0
H1129 H 0.04318 0.43585 0.92342 0.0
H1130 H 0.02212 0.45801 0.95515 0.0
H1131 H 0.03357 0.42795 0.87392 0.0
H1132 H 0.09814 0.46242 0.92251 0.0
H1133 H 0.12179 0.49416 0.94427 0.0
H1134 H 0.13475 0.52798 0.87489 0.0
H1135 H 0.11085 0.4966 0.85274 0.0
C1136 C 0.10938 0.38266 0.7967 0.0
C1137 C 0.11808 0.39577 0.77648 0.0
C1138 C 0.09894 0.39326 0.81737 0.0
C1139 C 0.0968 0.41714 0.81815 0.0
C1140 C 0.10569 0.43028 0.79813 0.0
C1141 C 0.11617 0.41972 0.77751 0.0
C1142 C 0.0852 0.42852 0.83971 0.0
C1143 C 0.09795 0.44689 0.85239 0.0
C1144 C 0.0618 0.42142 0.84779 0.0
C1145 C 0.04695 0.40285 0.83456 0.0
C1146 C 0.04216 0.40429 0.809 0.0
C1147 C 0.02826 0.38666 0.79663 0.0
C1148 C 0.01888 0.36758 0.80966 0.0
C1149 C 0.02333 0.36612 0.83512 0.0
C1150 C 0.03725 0.3837 0.84757 0.0
C1151 C 0.0376 0.50118 0.91525 0.0
C1152 C 0.02787 0.49044 0.9365 0.0
C1153 C 0.04944 0.48856 0.89713 0.0
C1154 C 0.05177 0.46495 0.89992 0.0
C1155 C 0.04174 0.45409 0.921 0.0
C1156 C 0.02993 0.46677 0.9392 0.0
C1157 C 0.06432 0.45166 0.88049 0.0
C1158 C 0.05177 0.43294 0.86823 0.0
C1159 C 0.0879 0.45844 0.87278 0.0
C1160 C 0.10253 0.47723 0.88599 0.0
C1161 C 0.10589 0.4767 0.9119 0.0
C1162 C 0.11936 0.49462 0.92431 0.0
C1163 C 0.12972 0.5131 0.91098 0.0
C1164 C 0.12669 0.51366 0.88519 0.0
C1165 C 0.11321 0.4958 0.8727 0.0
H1166 H 0.14013 0.52697 0.92062 0.0
H1167 H 0.00812 0.35394 0.80005 0.0
H1168 H 0.68118 0.84247 0.88049 0.0
H1169 H 0.64855 0.8641 0.89714 0.0
H1170 H 0.69634 0.92554 0.90296 0.0
H1171 H 0.72907 0.90398 0.88662 0.0
H1172 H 0.66835 0.91853 0.94512 0.0
H1173 H 0.65822 0.91949 0.85617 0.0
H1174 H 0.65335 0.90209 0.81391 0.0
H1175 H 0.58887 0.86409 0.83706 0.0
H1176 H 0.59354 0.88102 0.87959 0.0
H1177 H 0.58365 0.99992 0.96702 0.0
H1178 H 0.61549 0.97906 0.94784 0.0
H1179 H 0.56595 0.91966 0.93511 0.0
H1180 H 0.53386 0.9406 0.95368 0.0
H1181 H 0.59484 0.92536 0.89628 0.0
H1182 H 0.6045 0.92319 0.98481 0.0
H1183 H 0.60888 0.93953 0.02758 0.0
H1184 H 0.67362 0.97812 0.00621 0.0
H1185 H 0.66944 0.96226 0.9632 0.0
C1186 C 0.68474 0.86054 0.88551 0.0
C1187 C 0.70762 0.87158 0.88219 0.0
C1188 C 0.66608 0.8729 0.89483 0.0
C1189 C 0.67002 0.89645 0.90104 0.0
C1190 C 0.69294 0.90739 0.89818 0.0
C1191 C 0.71155 0.89511 0.88871 0.0
C1192 C 0.65027 0.90973 0.91057 0.0
C1193 C 0.65239 0.92029 0.93434 0.0
C1194 C 0.62925 0.91147 0.89671 0.0
C1195 C 0.62636 0.90134 0.87113 0.0
C1196 C 0.64311 0.90727 0.85231 0.0
C1197 C 0.64036 0.89753 0.82829 0.0
C1198 C 0.62084 0.88195 0.82282 0.0
C1199 C 0.60399 0.87613 0.84134 0.0
C1200 C 0.60667 0.88581 0.86539 0.0
C1201 C 0.57948 0.98247 0.95999 0.0
C1202 C 0.55627 0.97184 0.96207 0.0
C1203 C 0.59772 0.97054 0.94911 0.0
C1204 C 0.5932 0.94764 0.9405 0.0
C1205 C 0.56986 0.93728 0.94172 0.0
C1206 C 0.55154 0.94928 0.95237 0.0
C1207 C 0.61291 0.93426 0.93086 0.0
C1208 C 0.61078 0.92364 0.90709 0.0
C1209 C 0.63387 0.93228 0.94482 0.0
C1210 C 0.63653 0.94171 0.97072 0.0
C1211 C 0.61958 0.93529 0.98919 0.0
C1212 C 0.62204 0.94445 0.01348 0.0
C1213 C 0.64148 0.9599 0.01959 0.0
C1214 C 0.65855 0.96618 0.00144 0.0
C1215 C 0.65616 0.95709 0.9771 0.0
H1216 H 0.64335 0.96698 0.03841 0.0
H1217 H 0.61875 0.87442 0.80421 0.0
H1218 H 0.7998 0.13956 0.43732 0.0
H1219 H 0.83602 0.12283 0.45055 0.0
H1220 H 0.79971 0.0549 0.4454 0.0
H1221 H 0.76317 0.07159 0.43287 0.0
H1222 H 0.82686 0.05976 0.48622 0.0
H1223 H 0.83647 0.07318 0.39926 0.0
H1224 H 0.83716 0.09573 0.36106 0.0
H1225 H 0.89373 0.14175 0.39106 0.0
H1226 H 0.89314 0.11966 0.42962 0.0
H1227 H 0.95139 0.01647 0.45744 0.0
H1228 H 0.91514 0.03252 0.44273 0.0
H1229 H 0.9074 0.06766 0.51393 0.0
H1230 H 0.94337 0.05153 0.52877 0.0
H1231 H 0.90154 0.07606 0.43763 0.0
H1232 H 0.84873 0.0631 0.53026 0.0
H1233 H 0.84758 0.03734 0.56601 0.0
H1234 H 0.87594 0.98427 0.51995 0.0
H1235 H 0.8769 0.00956 0.48385 0.0
C1236 C 0.7994 0.12111 0.43942 0.0
C1237 C 0.77867 0.10687 0.43396 0.0
C1238 C 0.82017 0.11156 0.44673 0.0
C1239 C 0.82062 0.08761 0.44857 0.0
C1240 C 0.79975 0.07342 0.44395 0.0
C1241 C 0.77896 0.08295 0.43664 0.0
C1242 C 0.843 0.07735 0.45483 0.0
C1243 C 0.84319 0.06334 0.47563 0.0
C1244 C 0.86414 0.08158 0.4406 0.0
C1245 C 0.8646 0.09488 0.41742 0.0
C1246 C 0.84893 0.08821 0.39779 0.0
C1247 C 0.84932 0.1009 0.37606 0.0
C1248 C 0.86544 0.1202 0.37366 0.0
C1249 C 0.88123 0.12682 0.39296 0.0
C1250 C 0.88089 0.11421 0.41475 0.0
C1251 C 0.94202 0.02778 0.46983 0.0
C1252 C 0.94992 0.03258 0.49431 0.0
C1253 C 0.92141 0.03696 0.46141 0.0
C1254 C 0.90844 0.05094 0.47741 0.0
C1255 C 0.91696 0.05657 0.50147 0.0
C1256 C 0.93751 0.04742 0.50988 0.0
C1257 C 0.8855 0.05901 0.46938 0.0
C1258 C 0.88521 0.07254 0.44824 0.0
C1259 C 0.86412 0.05388 0.48293 0.0
C1260 C 0.8631 0.03833 0.50442 0.0
C1261 C 0.8546 0.04589 0.52774 0.0
C1262 C 0.854 0.03138 0.54807 0.0
C1263 C 0.86175 0.00921 0.54527 0.0
C1264 C 0.87001 0.00147 0.52211 0.0
C1265 C 0.87061 0.0159 0.50172 0.0
H1266 H 0.86132 0.99802 0.56104 0.0
H1267 H 0.86572 0.12999 0.35682 0.0
H1268 H 0.22096 0.62303 0.14548 0.0
H1269 H 0.18427 0.60446 0.12761 0.0
H1270 H 0.21971 0.59771 0.05638 0.0
H1271 H 0.25631 0.61668 0.07408 0.0
H1272 H 0.17727 0.6102 0.04898 0.0
H1273 H 0.20875 0.55129 0.09582 0.0
H1274 H 0.22476 0.53365 0.13271 0.0
H1275 H 0.15923 0.54221 0.17246 0.0
H1276 H 0.14294 0.5602 0.13591 0.0
H1277 H 0.0847 0.50338 0.0326 0.0
H1278 H 0.12229 0.52128 0.04878 0.0
H1279 H 0.09377 0.58795 0.04812 0.0
H1280 H 0.05626 0.57025 0.03138 0.0
H1281 H 0.13416 0.54378 0.08981 0.0
H1282 H 0.13757 0.62937 0.03659 0.0
H1283 H 0.12434 0.64349 0.99649 0.0
H1284 H 0.12518 0.57539 0.96376 0.0
H1285 H 0.1387 0.56093 0.00355 0.0
C1286 C 0.22096 0.61748 0.12604 0.0
C1287 C 0.24158 0.62125 0.11123 0.0
C1288 C 0.19997 0.60683 0.11583 0.0
C1289 C 0.19924 0.59934 0.09069 0.0
C1290 C 0.21975 0.60333 0.0758 0.0
C1291 C 0.24068 0.6142 0.08594 0.0
C1292 C 0.17711 0.58741 0.0799 0.0
C1293 C 0.16786 0.5957 0.05795 0.0
C1294 C 0.165 0.56812 0.09119 0.0
C1295 C 0.17472 0.55729 0.11321 0.0
C1296 C 0.19782 0.54957 0.1125 0.0
C1297 C 0.20694 0.53948 0.13333 0.0
C1298 C 0.19305 0.53686 0.15494 0.0
C1299 C 0.16998 0.54428 0.15573 0.0
C1300 C 0.16079 0.5544 0.13495 0.0
C1301 C 0.08637 0.52187 0.03584 0.0
C1302 C 0.0674 0.53536 0.03054 0.0
C1303 C 0.10791 0.53209 0.04518 0.0
C1304 C 0.11104 0.55602 0.04945 0.0
C1305 C 0.09201 0.5695 0.04455 0.0
C1306 C 0.07049 0.55932 0.03504 0.0
C1307 C 0.13414 0.56682 0.05914 0.0
C1308 C 0.14355 0.55833 0.08088 0.0
C1309 C 0.14678 0.58546 0.04723 0.0
C1310 C 0.13891 0.59405 0.02314 0.0
C1311 C 0.13501 0.61744 0.02081 0.0
C1312 C 0.12745 0.62549 0.99814 0.0
C1313 C 0.12384 0.61033 0.97762 0.0
C1314 C 0.12788 0.5871 0.9797 0.0
C1315 C 0.13546 0.57896 0.00231 0.0
H1316 H 0.11797 0.6166 0.9601 0.0
H1317 H 0.20013 0.52905 0.17105 0.0
H1318 H 0.27108 0.43205 0.62675 0.0
H1319 H 0.30752 0.4488 0.60731 0.0
H1320 H 0.31376 0.38588 0.56408 0.0
H1321 H 0.27847 0.36843 0.58475 0.0
H1322 H 0.35494 0.39966 0.58022 0.0
H1323 H 0.29338 0.43742 0.53997 0.0
H1324 H 0.25858 0.46053 0.53723 0.0
H1325 H 0.29805 0.51807 0.57314 0.0
H1326 H 0.33299 0.4952 0.57643 0.0
H1327 H 0.43371 0.44267 0.48487 0.0
H1328 H 0.39614 0.42999 0.50563 0.0
H1329 H 0.40952 0.48262 0.56303 0.0
H1330 H 0.44752 0.49492 0.54279 0.0
H1331 H 0.3594 0.47589 0.54084 0.0
H1332 H 0.42092 0.43683 0.58065 0.0
H1333 H 0.45576 0.41357 0.58082 0.0
H1334 H 0.41534 0.35792 0.54266 0.0
H1335 H 0.38035 0.38103 0.54189 0.0
C1336 C 0.28033 0.42163 0.61335 0.0
C1337 C 0.27165 0.39883 0.60735 0.0
C1338 C 0.30103 0.43139 0.60193 0.0
C1339 C 0.31326 0.41878 0.58387 0.0
C1340 C 0.30464 0.39605 0.57786 0.0
C1341 C 0.2842 0.38616 0.58952 0.0
C1342 C 0.33539 0.42887 0.57165 0.0
C1343 C 0.3557 0.41621 0.57138 0.0
C1344 C 0.33675 0.45075 0.56054 0.0
C1345 C 0.31571 0.46449 0.55872 0.0
C1346 C 0.29457 0.45493 0.5475 0.0
C1347 C 0.27483 0.468 0.54581 0.0
C1348 C 0.27608 0.49072 0.55508 0.0
C1349 C 0.29709 0.50045 0.56602 0.0
C1350 C 0.31687 0.48744 0.5678 0.0
C1351 C 0.42854 0.45165 0.50179 0.0
C1352 C 0.44351 0.46971 0.5123 0.0
C1353 C 0.40712 0.44441 0.5136 0.0
C1354 C 0.40017 0.45537 0.53584 0.0
C1355 C 0.41461 0.47401 0.54584 0.0
C1356 C 0.43628 0.48097 0.53431 0.0
C1357 C 0.37845 0.44648 0.54927 0.0
C1358 C 0.3584 0.45938 0.54978 0.0
C1359 C 0.37717 0.42475 0.56037 0.0
C1360 C 0.39811 0.41075 0.56096 0.0
C1361 C 0.41954 0.41972 0.57207 0.0
C1362 C 0.4393 0.40654 0.57232 0.0
C1363 C 0.43779 0.3843 0.56169 0.0
C1364 C 0.41649 0.37517 0.55085 0.0
C1365 C 0.39669 0.38829 0.55051 0.0
H1366 H 0.4531 0.37412 0.56191 0.0
H1367 H 0.26078 0.50082 0.55373 0.0
H1368 H 0.82094 0.70385 0.91195 0.0
H1369 H 0.8423 0.67613 0.93495 0.0
H1370 H 0.9093 0.70652 0.90692 0.0
H1371 H 0.88819 0.73419 0.88409 0.0
H1372 H 0.90626 0.66061 0.90101 0.0
H1373 H 0.89181 0.71572 0.96713 0.0
H1374 H 0.86701 0.73932 0.9942 0.0
H1375 H 0.82846 0.67811 0.02036 0.0
H1376 H 0.85283 0.65415 0.99316 0.0
H1377 H 0.98834 0.60733 0.97133 0.0
H1378 H 0.96488 0.63809 0.9573 0.0
H1379 H 0.90079 0.60232 0.98589 0.0
H1380 H 0.92429 0.5716 1.00035 0.0
H1381 H 0.9005 0.64971 0.9923 0.0
H1382 H 0.91434 0.59471 0.92649 0.0
H1383 H 0.93871 0.57067 0.89943 0.0
H1384 H 0.97749 0.63137 0.87232 0.0
H1385 H 0.95357 0.65577 0.89951 0.0
C1386 C 0.84024 0.70473 0.91093 0.0
C1387 C 0.85288 0.72106 0.89604 0.0
C1388 C 0.85241 0.68892 0.92407 0.0
C1389 C 0.8774 0.68934 0.9227 0.0
C1390 C 0.89001 0.70582 0.90813 0.0
C1391 C 0.87791 0.72154 0.89499 0.0
C1392 C 0.89054 0.67208 0.93551 0.0
C1393 C 0.90522 0.65846 0.92102 0.0
C1394 C 0.88859 0.66878 0.9615 0.0
C1395 C 0.87397 0.68316 0.97791 0.0
C1396 C 0.87791 0.7073 0.97849 0.0
C1397 C 0.86396 0.72074 0.99389 0.0
C1398 C 0.84612 0.71022 0.00894 0.0
C1399 C 0.84225 0.68624 0.00867 0.0
C1400 C 0.85614 0.67272 0.99328 0.0
C1401 C 0.96933 0.60626 0.97507 0.0
C1402 C 0.95805 0.58702 0.98664 0.0
C1403 C 0.95595 0.62379 0.967 0.0
C1404 C 0.93106 0.62222 0.97014 0.0
C1405 C 0.91996 0.60378 0.98321 0.0
C1406 C 0.93338 0.58625 0.9914 0.0
C1407 C 0.91654 0.63869 0.95782 0.0
C1408 C 0.90152 0.65196 0.97232 0.0
C1409 C 0.91804 0.64166 0.93176 0.0
C1410 C 0.93232 0.62705 0.91521 0.0
C1411 C 0.92818 0.60292 0.91489 0.0
C1412 C 0.9419 0.58923 0.89951 0.0
C1413 C 0.95968 0.59948 0.88421 0.0
C1414 C 0.96373 0.62345 0.8842 0.0
C1415 C 0.95009 0.63722 0.89958 0.0
H1416 H 0.97028 0.58886 0.87231 0.0
H1417 H 0.83534 0.72066 0.02085 0.0
H1418 H 0.3705 0.79048 0.10044 0.0
H1419 H 0.3881 0.8263 0.08319 0.0
H1420 H 0.45836 0.80705 0.10104 0.0
H1421 H 0.44095 0.771 0.118 0.0
H1422 H 0.45244 0.85121 0.11539 0.0
H1423 H 0.43847 0.8041 0.04064 0.0
H1424 H 0.41399 0.77914 0.01132 0.0
H1425 H 0.36755 0.83329 0.00143 0.0
H1426 H 0.39172 0.85856 0.03076 0.0
H1427 H 0.52313 0.93406 0.04997 0.0
H1428 H 0.50364 0.89749 0.0633 0.0
H1429 H 0.43557 0.91894 0.04051 0.0
H1430 H 0.4552 0.9555 0.02656 0.0
H1431 H 0.43866 0.87438 0.02878 0.0
H1432 H 0.4519 0.92181 0.10205 0.0
H1433 H 0.47501 0.94734 0.13196 0.0
H1434 H 0.52065 0.8934 0.14599 0.0
H1435 H 0.49802 0.86763 0.11589 0.0
C1436 C 0.38973 0.79367 0.10041 0.0
C1437 C 0.40427 0.77772 0.11061 0.0
C1438 C 0.39977 0.81423 0.09056 0.0
C1439 C 0.42459 0.81932 0.09058 0.0
C1440 C 0.43916 0.80353 0.10083 0.0
C1441 C 0.42914 0.78295 0.11064 0.0
C1442 C 0.43538 0.84135 0.08054 0.0
C1443 C 0.4497 0.8561 0.09634 0.0
C1444 C 0.43114 0.84818 0.05595 0.0
C1445 C 0.41676 0.83313 0.03809 0.0
C1446 C 0.42296 0.81064 0.03232 0.0
C1447 C 0.40917 0.79646 0.01565 0.0
C1448 C 0.38919 0.80461 0.00457 0.0
C1449 C 0.38301 0.827 0.01005 0.0
C1450 C 0.39679 0.84128 0.02663 0.0
C1451 C 0.50403 0.93093 0.04766 0.0
C1452 C 0.49064 0.94771 0.03749 0.0
C1453 C 0.49287 0.91005 0.05539 0.0
C1454 C 0.46803 0.9056 0.05344 0.0
C1455 C 0.45472 0.92201 0.04238 0.0
C1456 C 0.46593 0.94291 0.03448 0.0
C1457 C 0.45604 0.88407 0.06353 0.0
C1458 C 0.44142 0.86948 0.04782 0.0
C1459 C 0.45979 0.87746 0.08831 0.0
C1460 C 0.47339 0.89286 0.10653 0.0
C1461 C 0.46697 0.91544 0.11138 0.0
C1462 C 0.47997 0.92995 0.12838 0.0
C1463 C 0.49932 0.92201 0.14082 0.0
C1464 C 0.50568 0.89953 0.13632 0.0
C1465 C 0.49275 0.88496 0.1193 0.0
H1466 H 0.50936 0.93327 0.15398 0.0
H1467 H 0.37854 0.79361 0.99168 0.0
H1468 H 0.15184 0.22101 0.61307 0.0
H1469 H 0.13518 0.18456 0.59444 0.0
H1470 H 0.06489 0.20956 0.59714 0.0
H1471 H 0.08145 0.24603 0.61599 0.0
H1472 H 0.06253 0.16653 0.61094 0.0
H1473 H 0.09728 0.20786 0.54238 0.0
H1474 H 0.12893 0.22983 0.51902 0.0
H1475 H 0.17216 0.17219 0.51954 0.0
H1476 H 0.14089 0.14997 0.54322 0.0
H1477 H 0.03805 0.08401 0.49547 0.0
H1478 H 0.05418 0.12079 0.51366 0.0
H1479 H 0.06602 0.08799 0.58301 0.0
H1480 H 0.04946 0.0512 0.56515 0.0
H1481 H 0.0959 0.1361 0.53176 0.0
H1482 H 0.05681 0.1251 0.63147 0.0
H1483 H 0.02206 0.10516 0.65218 0.0
H1484 H 0.98186 0.10598 0.58462 0.0
H1485 H 0.01624 0.1262 0.56363 0.0
C1486 C 0.13285 0.21879 0.60958 0.0
C1487 C 0.11798 0.23646 0.61587 0.0
C1488 C 0.12334 0.19794 0.59893 0.0
C1489 C 0.09882 0.19441 0.59405 0.0
C1490 C 0.08387 0.21187 0.60073 0.0
C1491 C 0.09334 0.23269 0.61154 0.0
C1492 C 0.0888 0.17255 0.5819 0.0
C1493 C 0.06985 0.15988 0.59365 0.0
C1494 C 0.098 0.16404 0.55906 0.0
C1495 C 0.11683 0.17733 0.54478 0.0
C1496 C 0.11361 0.19993 0.53768 0.0
C1497 C 0.13147 0.21242 0.52435 0.0
C1498 C 0.15257 0.20243 0.51785 0.0
C1499 C 0.15582 0.17991 0.52462 0.0
C1500 C 0.13803 0.16736 0.53797 0.0
C1501 C 0.04416 0.08456 0.51458 0.0
C1502 C 0.04232 0.06464 0.52889 0.0
C1503 C 0.05343 0.10563 0.52493 0.0
C1504 C 0.06103 0.10725 0.5498 0.0
C1505 C 0.05985 0.08726 0.56392 0.0
C1506 C 0.05047 0.0662 0.55363 0.0
C1507 C 0.06991 0.1299 0.56102 0.0
C1508 C 0.08863 0.14272 0.5491 0.0
C1509 C 0.06009 0.13883 0.58336 0.0
C1510 C 0.03919 0.12695 0.59592 0.0
C1511 C 0.04052 0.12111 0.62107 0.0
C1512 C 0.0209 0.10974 0.63285 0.0
C1513 C 0.9998 0.10424 0.6197 0.0
C1514 C 0.99824 0.11017 0.59476 0.0
C1515 C 0.0178 0.12156 0.58291 0.0
H1516 H 0.98464 0.09542 0.62885 0.0
H1517 H 0.16637 0.21213 0.50753 0.0
H1518 H 0.67597 0.28333 0.42568 0.0
H1519 H 0.66168 0.32173 0.43299 0.0
H1520 H 0.58894 0.29236 0.42991 0.0
H1521 H 0.60301 0.25405 0.4231 0.0
H1522 H 0.59863 0.32873 0.39775 0.0
H1523 H 0.61189 0.31053 0.48403 0.0
H1524 H 0.63634 0.2999 0.51919 0.0
H1525 H 0.68391 0.36018 0.50891 0.0
H1526 H 0.6599 0.371 0.47345 0.0
H1527 H 0.52331 0.41009 0.44391 0.0
H1528 H 0.54668 0.37743 0.43403 0.0
H1529 H 0.61156 0.41947 0.45038 0.0
H1530 H 0.58799 0.45216 0.46116 0.0
H1531 H 0.61216 0.38012 0.47242 0.0
H1532 H 0.59695 0.40117 0.38965 0.0
H1533 H 0.57326 0.41234 0.35417 0.0
H1534 H 0.53112 0.34776 0.35624 0.0
H1535 H 0.55433 0.33631 0.39197 0.0
C1536 C 0.65695 0.28503 0.42714 0.0
C1537 C 0.64058 0.26574 0.42357 0.0
C1538 C 0.64884 0.30695 0.43117 0.0
C1539 C 0.62428 0.30982 0.43175 0.0
C1540 C 0.60797 0.29048 0.42924 0.0
C1541 C 0.61603 0.26864 0.42532 0.0
C1542 C 0.61528 0.33298 0.43371 0.0
C1543 C 0.60143 0.33996 0.41412 0.0
C1544 C 0.61988 0.34793 0.4546 0.0
C1545 C 0.63428 0.34142 0.47591 0.0
C1546 C 0.6277 0.3214 0.48912 0.0
C1547 C 0.64144 0.31537 0.50914 0.0
C1548 C 0.66171 0.32932 0.51623 0.0
C1549 C 0.66824 0.34937 0.50337 0.0
C1550 C 0.65456 0.35546 0.48332 0.0
C1551 C 0.54258 0.41247 0.44502 0.0
C1552 C 0.5539 0.43358 0.45324 0.0
C1553 C 0.55595 0.39382 0.43925 0.0
C1554 C 0.58092 0.39606 0.44114 0.0
C1555 C 0.59232 0.41738 0.44874 0.0
C1556 C 0.57889 0.43603 0.45477 0.0
C1557 C 0.59474 0.37563 0.43677 0.0
C1558 C 0.60962 0.36915 0.45582 0.0
C1559 C 0.59128 0.36119 0.41523 0.0
C1560 C 0.57733 0.36794 0.3936 0.0
C1561 C 0.58254 0.3894 0.38265 0.0
C1562 C 0.56921 0.39578 0.36247 0.0
C1563 C 0.55068 0.38078 0.35298 0.0
C1564 C 0.54548 0.35936 0.36361 0.0
C1565 C 0.55875 0.3529 0.3838 0.0
H1566 H 0.54037 0.38576 0.33737 0.0
H1567 H 0.67233 0.32462 0.53174 0.0
loop_
_geom_bond_atom_site_label_1
_geom_bond_atom_site_label_2
_geom_bond_distance
_geom_bond_site_symmetry_2
_ccdc_geom_bond_type
C0 C1 1.384 . S
C0 H13 0.947 . S
C0 C35 1.382 . S
C1 C0 1.384 . S
C1 C2 1.378 . S
C2 C1 1.378 . S
C2 C3 1.378 . S
C2 H14 0.952 . S
C3 C2 1.378 . S
C3 H15 0.950 . S
C3 C34 1.383 . S
H4 C23 0.947 . S
H5 C24 0.946 . S
H6 C26 0.953 . S
H7 C27 0.945 . S
H8 C29 0.952 . S
H9 C30 0.949 . S
H10 C32 0.950 . S
H11 C33 0.948 . S
H12 C35 0.951 . S
H13 C0 0.947 . S
H14 C2 0.952 . S
H15 C3 0.950 . S
N16 C19 1.382 . S
N16 C21 1.363 . S
N17 C19 1.371 . S
N17 C20 1.372 . S
N18 C20 1.361 . S
N18 C21 1.377 . S
C19 N16 1.382 . S
C19 N17 1.371 . S
C19 C22 1.480 . S
C20 N17 1.372 . S
C20 N18 1.361 . S
C20 C28 1.457 . S
C21 N16 1.363 . S
C21 N18 1.377 . S
C21 C34 1.479 . S
C22 C19 1.480 . S
C22 C23 1.383 . S
C22 C27 1.385 . S
C23 H4 0.947 . S
C23 C22 1.383 . S
C23 C24 1.388 . S
C24 H5 0.946 . S
C24 C23 1.388 . S
C24 C25 1.384 . S
C25 C24 1.384 . S
C25 C26 1.377 . S
C26 H6 0.953 . S
C26 C25 1.377 . S
C26 C27 1.369 . S
C27 H7 0.945 . S
C27 C22 1.385 . S
C27 C26 1.369 . S
C28 C20 1.457 . S
C28 C29 1.372 . S
C28 C33 1.364 . S
C29 H8 0.952 . S
C29 C28 1.372 . S
C29 C30 1.389 . S
C30 H9 0.949 . S
C30 C29 1.389 . S
C30 C31 1.387 . S
C31 C30 1.387 . S
C31 C32 1.372 . S
C32 H10 0.950 . S
C32 C31 1.372 . S
C32 C33 1.379 . S
C33 H11 0.948 . S
C33 C28 1.364 . S
C33 C32 1.379 . S
C34 C3 1.383 . S
C34 C21 1.479 . S
C34 C35 1.398 . S
C35 C0 1.382 . S
C35 H12 0.951 . S
C35 C34 1.398 . S
C36 C37 1.384 . S
C36 H49 0.947 . S
C36 C71 1.382 . S
C37 C36 1.384 . S
C37 C38 1.378 . S
C38 C37 1.378 . S
C38 C39 1.378 . S
C38 H50 0.952 . S
C39 C38 1.378 . S
C39 H51 0.950 . S
C39 C70 1.383 . S
H40 C59 0.947 . S
H41 C60 0.946 . S
H42 C62 0.953 . S
H43 C63 0.945 . S
H44 C65 0.952 . S
H45 C66 0.949 . S
H46 C68 0.950 . S
H47 C69 0.948 . S
H48 C71 0.951 . S
H49 C36 0.947 . S
H50 C38 0.952 . S
H51 C39 0.950 . S
N52 C55 1.382 . S
N52 C57 1.363 . S
N53 C55 1.371 . S
N53 C56 1.372 . S
N54 C56 1.361 . S
N54 C57 1.377 . S
C55 N52 1.382 . S
C55 N53 1.371 . S
C55 C58 1.480 . S
C56 N53 1.372 . S
C56 N54 1.361 . S
C56 C64 1.457 . S
C57 N52 1.363 . S
C57 N54 1.377 . S
C57 C70 1.479 . S
C58 C55 1.480 . S
C58 C59 1.383 . S
C58 C63 1.385 . S
C59 H40 0.947 . S
C59 C58 1.383 . S
C59 C60 1.388 . S
C60 H41 0.946 . S
C60 C59 1.388 . S
C60 C61 1.384 . S
C61 C60 1.384 . S
C61 C62 1.377 . S
C62 H42 0.953 . S
C62 C61 1.377 . S
C62 C63 1.369 . S
C63 H43 0.945 . S
C63 C58 1.385 . S
C63 C62 1.369 . S
C64 C56 1.457 . S
C64 C65 1.372 . S
C64 C69 1.364 . S
C65 H44 0.952 . S
C65 C64 1.372 . S
C65 C66 1.389 . S
C66 H45 0.949 . S
C66 C65 1.389 . S
C66 C67 1.387 . S
C67 C66 1.387 . S
C67 C68 1.372 . S
C68 H46 0.950 . S
C68 C67 1.372 . S
C68 C69 1.379 . S
C69 H47 0.948 . S
C69 C64 1.364 . S
C69 C68 1.379 . S
C70 C39 1.383 . S
C70 C57 1.479 . S
C70 C71 1.398 . S
C71 C36 1.382 . S
C71 H48 0.951 . S
C71 C70 1.398 . S
C72 C73 1.384 . S
C72 H85 0.947 . S
C72 C107 1.382 . S
C73 C72 1.384 . S
C73 C74 1.378 . S
C74 C73 1.378 . S
C74 C75 1.378 . S
C74 H86 0.952 . S
C75 C74 1.378 . S
C75 H87 0.950 . S
C75 C106 1.383 . S
H76 C95 0.947 . S
H77 C96 0.946 . S
H78 C98 0.953 . S
H79 C99 0.945 . S
H80 C101 0.952 . S
H81 C102 0.949 . S
H82 C104 0.950 . S
H83 C105 0.948 . S
H84 C107 0.951 . S
H85 C72 0.947 . S
H86 C74 0.952 . S
H87 C75 0.950 . S
N88 C91 1.382 . S
N88 C93 1.363 . S
N89 C91 1.371 . S
N89 C92 1.372 . S
N90 C92 1.361 . S
N90 C93 1.377 . S
C91 N88 1.382 . S
C91 N89 1.371 . S
C91 C94 1.480 . S
C92 N89 1.372 . S
C92 N90 1.361 . S
C92 C100 1.457 . S
C93 N88 1.363 . S
C93 N90 1.377 . S
C93 C106 1.479 . S
C94 C91 1.480 . S
C94 C95 1.383 . S
C94 C99 1.385 . S
C95 H76 0.947 . S
C95 C94 1.383 . S
C95 C96 1.388 . S
C96 H77 0.946 . S
C96 C95 1.388 . S
C96 C97 1.384 . S
C97 C96 1.384 . S
C97 C98 1.377 . S
C98 H78 0.953 . S
C98 C97 1.377 . S
C98 C99 1.369 . S
C99 H79 0.945 . S
C99 C94 1.385 . S
C99 C98 1.369 . S
C100 C92 1.457 . S
C100 C101 1.372 . S
C100 C105 1.364 . S
C101 H80 0.952 . S
C101 C100 1.372 . S
C101 C102 1.389 . S
C102 H81 0.949 . S
C102 C101 1.389 . S
C102 C103 1.387 . S
C103 C102 1.387 . S
C103 C104 1.372 . S
C104 H82 0.950 . S
C104 C103 1.372 . S
C104 C105 1.379 . S
C105 H83 0.948 . S
C105 C100 1.364 . S
C105 C104 1.379 . S
C106 C75 1.383 . S
C106 C93 1.479 . S
C106 C107 1.398 . S
C107 C72 1.382 . S
C107 H84 0.951 . S
C107 C106 1.398 . S
C108 C109 1.384 . S
C108 H121 0.947 . S
C108 C143 1.382 . S
C109 C108 1.384 . S
C109 C110 1.378 . S
C110 C109 1.378 . S
C110 C111 1.378 . S
C110 H122 0.952 . S
C111 C110 1.378 . S
C111 H123 0.950 . S
C111 C142 1.383 . S
H112 C131 0.947 . S
H113 C132 0.946 . S
H114 C134 0.953 . S
H115 C135 0.945 . S
H116 C137 0.952 . S
H117 C138 0.949 . S
H118 C140 0.950 . S
H119 C141 0.948 . S
H120 C143 0.951 . S
H121 C108 0.947 . S
H122 C110 0.952 . S
H123 C111 0.950 . S
N124 C127 1.382 . S
N124 C129 1.363 . S
N125 C127 1.371 . S
N125 C128 1.372 . S
N126 C128 1.361 . S
N126 C129 1.377 . S
C127 N124 1.382 . S
C127 N125 1.371 . S
C127 C130 1.480 . S
C128 N125 1.372 . S
C128 N126 1.361 . S
C128 C136 1.457 . S
C129 N124 1.363 . S
C129 N126 1.377 . S
C129 C142 1.479 . S
C130 C127 1.480 . S
C130 C131 1.383 . S
C130 C135 1.385 . S
C131 H112 0.947 . S
C131 C130 1.383 . S
C131 C132 1.388 . S
C132 H113 0.946 . S
C132 C131 1.388 . S
C132 C133 1.384 . S
C133 C132 1.384 . S
C133 C134 1.377 . S
C134 H114 0.953 . S
C134 C133 1.377 . S
C134 C135 1.369 . S
C135 H115 0.945 . S
C135 C130 1.385 . S
C135 C134 1.369 . S
C136 C128 1.457 . S
C136 C137 1.372 . S
C136 C141 1.364 . S
C137 H116 0.952 . S
C137 C136 1.372 . S
C137 C138 1.389 . S
C138 H117 0.949 . S
C138 C137 1.389 . S
C138 C139 1.387 . S
C139 C138 1.387 . S
C139 C140 1.372 . S
C140 H118 0.950 . S
C140 C139 1.372 . S
C140 C141 1.379 . S
C141 H119 0.948 . S
C141 C136 1.364 . S
C141 C140 1.379 . S
C142 C111 1.383 . S
C142 C129 1.479 . S
C142 C143 1.398 . S
C143 C108 1.382 . S
C143 H120 0.951 . S
C143 C142 1.398 . S
C144 C145 1.384 . S
C144 H157 0.947 . S
C144 C179 1.382 . S
C145 C144 1.384 . S
C145 C146 1.378 . S
C146 C145 1.378 . S
C146 C147 1.378 . S
C146 H158 0.952 . S
C147 C146 1.378 . S
C147 H159 0.950 . S
C147 C178 1.383 . S
H148 C167 0.947 . S
H149 C168 0.946 . S
H150 C170 0.953 . S
H151 C171 0.945 . S
H152 C173 0.952 . S
H153 C174 0.949 . S
H154 C176 0.950 . S
H155 C177 0.948 . S
H156 C179 0.951 . S
H157 C144 0.947 . S
H158 C146 0.952 . S
H159 C147 0.950 . S
N160 C163 1.382 . S
N160 C165 1.363 . S
N161 C163 1.371 . S
N161 C164 1.372 . S
N162 C164 1.361 . S
N162 C165 1.377 . S
C163 N160 1.382 . S
C163 N161 1.371 . S
C163 C166 1.480 . S
C164 N161 1.372 . S
C164 N162 1.361 . S
C164 C172 1.457 . S
C165 N160 1.363 . S
C165 N162 1.377 . S
C165 C178 1.479 . S
C166 C163 1.480 . S
C166 C167 1.383 . S
C166 C171 1.385 . S
C167 H148 0.947 . S
C167 C166 1.383 . S
C167 C168 1.388 . S
C168 H149 0.946 . S
C168 C167 1.388 . S
C168 C169 1.384 . S
C169 C168 1.384 . S
C169 C170 1.377 . S
C170 H150 0.953 . S
C170 C169 1.377 . S
C170 C171 1.369 . S
C171 H151 0.945 . S
C171 C166 1.385 . S
C171 C170 1.369 . S
C172 C164 1.457 . S
C172 C173 1.372 . S
C172 C177 1.364 . S
C173 H152 0.952 . S
C173 C172 1.372 . S
C173 C174 1.389 . S
C174 H153 0.949 . S
C174 C173 1.389 . S
C174 C175 1.387 . S
C175 C174 1.387 . S
C175 C176 1.372 . S
C176 H154 0.950 . S
C176 C175 1.372 . S
C176 C177 1.379 . S
C177 H155 0.948 . S
C177 C172 1.364 . S
C177 C176 1.379 . S
C178 C147 1.383 . S
C178 C165 1.479 . S
C178 C179 1.398 . S
C179 C144 1.382 . S
C179 H156 0.951 . S
C179 C178 1.398 . S
C180 C181 1.384 . S
C180 H193 0.947 . S
C180 C215 1.382 . S
C181 C180 1.384 . S
C181 C182 1.378 . S
C182 C181 1.378 . S
C182 C183 1.378 . S
C182 H194 0.952 . S
C183 C182 1.378 . S
C183 H195 0.950 . S
C183 C214 1.383 . S
H184 C203 0.947 . S
H185 C204 0.946 . S
H186 C206 0.953 . S
H187 C207 0.945 . S
H188 C209 0.952 . S
H189 C210 0.949 . S
H190 C212 0.950 . S
H191 C213 0.948 . S
H192 C215 0.951 . S
H193 C180 0.947 . S
H194 C182 0.952 . S
H195 C183 0.950 . S
N196 C199 1.382 . S
N196 C201 1.363 . S
N197 C199 1.371 . S
N197 C200 1.372 . S
N198 C200 1.361 . S
N198 C201 1.377 . S
C199 N196 1.382 . S
C199 N197 1.371 . S
C199 C202 1.480 . S
C200 N197 1.372 . S
C200 N198 1.361 . S
C200 C208 1.457 . S
C201 N196 1.363 . S
C201 N198 1.377 . S
C201 C214 1.479 . S
C202 C199 1.480 . S
C202 C203 1.383 . S
C202 C207 1.385 . S
C203 H184 0.947 . S
C203 C202 1.383 . S
C203 C204 1.388 . S
C204 H185 0.946 . S
C204 C203 1.388 . S
C204 C205 1.384 . S
C205 C204 1.384 . S
C205 C206 1.377 . S
C206 H186 0.953 . S
C206 C205 1.377 . S
C206 C207 1.369 . S
C207 H187 0.945 . S
C207 C202 1.385 . S
C207 C206 1.369 . S
C208 C200 1.457 . S
C208 C209 1.372 . S
C208 C213 1.364 . S
C209 H188 0.952 . S
C209 C208 1.372 . S
C209 C210 1.389 . S
C210 H189 0.949 . S
C210 C209 1.389 . S
C210 C211 1.387 . S
C211 C210 1.387 . S
C211 C212 1.372 . S
C212 H190 0.950 . S
C212 C211 1.372 . S
C212 C213 1.379 . S
C213 H191 0.948 . S
C213 C208 1.364 . S
C213 C212 1.379 . S
C214 C183 1.383 . S
C214 C201 1.479 . S
C214 C215 1.398 . S
C215 C180 1.382 . S
C215 H192 0.951 . S
C215 C214 1.398 . S
C216 C217 1.384 . S
C216 H229 0.947 . S
C216 C251 1.382 . S
C217 C216 1.384 . S
C217 C218 1.378 . S
C218 C217 1.378 . S
C218 C219 1.378 . S
C218 H230 0.952 . S
C219 C218 1.378 . S
C219 H231 0.950 . S
C219 C250 1.383 . S
H220 C239 0.947 . S
H221 C240 0.946 . S
H222 C242 0.953 . S
H223 C243 0.945 . S
H224 C245 0.952 . S
H225 C246 0.949 . S
H226 C248 0.950 . S
H227 C249 0.948 . S
H228 C251 0.951 . S
H229 C216 0.947 . S
H230 C218 0.952 . S
H231 C219 0.950 . S
N232 C235 1.382 . S
N232 C237 1.363 . S
N233 C235 1.371 . S
N233 C236 1.372 . S
N234 C236 1.361 . S
N234 C237 1.377 . S
C235 N232 1.382 . S
C235 N233 1.371 . S
C235 C238 1.480 . S
C236 N233 1.372 . S
C236 N234 1.361 . S
C236 C244 1.457 . S
C237 N232 1.363 . S
C237 N234 1.377 . S
C237 C250 1.479 . S
C238 C235 1.480 . S
C238 C239 1.383 . S
C238 C243 1.385 . S
C239 H220 0.947 . S
C239 C238 1.383 . S
C239 C240 1.388 . S
C240 H221 0.946 . S
C240 C239 1.388 . S
C240 C241 1.384 . S
C241 C240 1.384 . S
C241 C242 1.377 . S
C242 H222 0.953 . S
C242 C241 1.377 . S
C242 C243 1.369 . S
C243 H223 0.945 . S
C243 C238 1.385 . S
C243 C242 1.369 . S
C244 C236 1.457 . S
C244 C245 1.372 . S
C244 C249 1.364 . S
C245 H224 0.952 . S
C245 C244 1.372 . S
C245 C246 1.389 . S
C246 H225 0.949 . S
C246 C245 1.389 . S
C246 C247 1.387 . S
C247 C246 1.387 . S
C247 C248 1.372 . S
C248 H226 0.950 . S
C248 C247 1.372 . S
C248 C249 1.379 . S
C249 H227 0.948 . S
C249 C244 1.364 . S
C249 C248 1.379 . S
C250 C219 1.383 . S
C250 C237 1.479 . S
C250 C251 1.398 . S
C251 C216 1.382 . S
C251 H228 0.951 . S
C251 C250 1.398 . S
C252 C253 1.384 . S
C252 H265 0.947 . S
C252 C287 1.382 . S
C253 C252 1.384 . S
C253 C254 1.378 . S
C254 C253 1.378 . S
C254 C255 1.378 . S
C254 H266 0.952 . S
C255 C254 1.378 . S
C255 H267 0.950 . S
C255 C286 1.383 . S
H256 C275 0.947 . S
H257 C276 0.946 . S
H258 C278 0.953 . S
H259 C279 0.945 . S
H260 C281 0.952 . S
H261 C282 0.949 . S
H262 C284 0.950 . S
H263 C285 0.948 . S
H264 C287 0.951 . S
H265 C252 0.947 . S
H266 C254 0.952 . S
H267 C255 0.950 . S
N268 C271 1.382 . S
N268 C273 1.363 . S
N269 C271 1.371 . S
N269 C272 1.372 . S
N270 C272 1.361 . S
N270 C273 1.377 . S
C271 N268 1.382 . S
C271 N269 1.371 . S
C271 C274 1.480 . S
C272 N269 1.372 . S
C272 N270 1.361 . S
C272 C280 1.457 . S
C273 N268 1.363 . S
C273 N270 1.377 . S
C273 C286 1.479 . S
C274 C271 1.480 . S
C274 C275 1.383 . S
C274 C279 1.385 . S
C275 H256 0.947 . S
C275 C274 1.383 . S
C275 C276 1.388 . S
C276 H257 0.946 . S
C276 C275 1.388 . S
C276 C277 1.384 . S
C277 C276 1.384 . S
C277 C278 1.377 . S
C278 H258 0.953 . S
C278 C277 1.377 . S
C278 C279 1.369 . S
C279 H259 0.945 . S
C279 C274 1.385 . S
C279 C278 1.369 . S
C280 C272 1.457 . S
C280 C281 1.372 . S
C280 C285 1.364 . S
C281 H260 0.952 . S
C281 C280 1.372 . S
C281 C282 1.389 . S
C282 H261 0.949 . S
C282 C281 1.389 . S
C282 C283 1.387 . S
C283 C282 1.387 . S
C283 C284 1.372 . S
C284 H262 0.950 . S
C284 C283 1.372 . S
C284 C285 1.379 . S
C285 H263 0.948 . S
C285 C280 1.364 . S
C285 C284 1.379 . S
C286 C255 1.383 . S
C286 C273 1.479 . S
C286 C287 1.398 . S
C287 C252 1.382 . S
C287 H264 0.951 . S
C287 C286 1.398 . S
Dy288 O292 2.398 . S
Dy288 O293 2.491 . S
Dy288 O294 2.403 1_545 S
Dy288 O295 2.664 1_545 S
Dy288 O299 2.326 . S
Dy288 O303 2.310 1_455 S
Dy288 O304 2.351 1_445 S
C289 O300 1.185 . S
C289 O301 1.355 . S
C290 O292 1.185 . S
C290 O293 1.355 . S
Dy291 O295 2.310 1_655 S
Dy291 O298 2.351 1_665 S
Dy291 O300 2.398 . S
Dy291 O301 2.491 . S
Dy291 O302 2.403 1_565 S
Dy291 O303 2.664 1_565 S
Dy291 O305 2.326 . S
O292 Dy288 2.398 . S
O292 C290 1.185 . S
O293 Dy288 2.491 . S
O293 C290 1.355 . S
O294 Dy288 2.403 1_565 S
O294 C296 1.254 . S
O295 Dy288 2.664 1_565 S
O295 Dy291 2.310 1_455 S
O295 C296 1.268 . S
C296 O294 1.254 . S
C296 O295 1.268 . S
C297 O302 1.254 . S
C297 O303 1.268 . S
O298 Dy291 2.351 1_445 S
O298 C306 1.249 . S
O299 Dy288 2.326 . S
O299 C306 1.267 . S
O300 C289 1.185 . S
O300 Dy291 2.398 . S
O301 C289 1.355 . S
O301 Dy291 2.491 . S
O302 Dy291 2.403 1_545 S
O302 C297 1.254 . S
O303 Dy288 2.310 1_655 S
O303 Dy291 2.664 1_545 S
O303 C297 1.268 . S
O304 Dy288 2.351 1_665 S
O304 C307 1.249 . S
O305 Dy291 2.326 . S
O305 C307 1.267 . S
C306 O298 1.249 . S
C306 O299 1.267 . S
C307 O304 1.249 . S
C307 O305 1.267 . S
Dy308 O312 2.398 . S
Dy308 O313 2.491 . S
Dy308 O314 2.403 1_545 S
Dy308 O315 2.664 1_545 S
Dy308 O319 2.326 . S
Dy308 O323 2.310 1_554 S
Dy308 O324 2.351 1_544 S
C309 O320 1.185 . S
C309 O321 1.355 . S
C310 O312 1.185 . S
C310 O313 1.355 . S
Dy311 O315 2.298 1_546 S
Dy311 O318 2.362 1_556 S
Dy311 O320 2.396 1_545 S
Dy311 O321 2.475 1_545 S
Dy311 O322 2.418 . S
Dy311 O323 2.673 . S
Dy311 O325 2.319 1_545 S
O312 Dy308 2.398 . S
O312 C310 1.185 . S
O313 Dy308 2.491 . S
O313 C310 1.355 . S
O314 Dy308 2.403 1_565 S
O314 C316 1.254 . S
O315 Dy308 2.664 1_565 S
O315 Dy311 2.298 1_564 S
O315 C316 1.268 . S
C316 O314 1.254 . S
C316 O315 1.268 . S
C317 O322 1.254 . S
C317 O323 1.268 . S
O318 Dy311 2.362 1_554 S
O318 C326 1.249 . S
O319 Dy308 2.326 . S
O319 C326 1.267 . S
O320 C309 1.185 . S
O320 Dy311 2.396 1_565 S
O321 C309 1.355 . S
O321 Dy311 2.475 1_565 S
O322 Dy311 2.418 . S
O322 C317 1.254 . S
O323 Dy308 2.310 1_556 S
O323 Dy311 2.673 . S
O323 C317 1.268 . S
O324 Dy308 2.351 1_566 S
O324 C327 1.249 . S
O325 Dy311 2.319 1_565 S
O325 C327 1.267 . S
C326 O318 1.249 . S
C326 O319 1.267 . S
C327 O324 1.249 . S
C327 O325 1.267 . S
Dy328 O332 2.398 . S
Dy328 O333 2.491 . S
Dy328 O334 2.403 . S
Dy328 O335 2.664 . S
Dy328 O339 2.326 . S
Dy328 O343 2.310 . S
Dy328 O344 2.351 . S
C329 O340 1.185 . S
C329 O341 1.355 . S
C330 O332 1.185 . S
C330 O333 1.355 . S
Dy331 O335 2.310 . S
Dy331 O338 2.351 . S
Dy331 O340 2.398 . S
Dy331 O341 2.491 . S
Dy331 O342 2.403 . S
Dy331 O343 2.664 . S
Dy331 O345 2.326 . S
O332 Dy328 2.398 . S
O332 C330 1.185 . S
O333 Dy328 2.491 . S
O333 C330 1.355 . S
O334 Dy328 2.403 . S
O334 C336 1.254 . S
O335 Dy328 2.664 . S
O335 Dy331 2.310 . S
O335 C336 1.268 . S
C336 O334 1.254 . S
C336 O335 1.268 . S
C337 O342 1.254 . S
C337 O343 1.268 . S
O338 Dy331 2.351 . S
O338 C346 1.249 . S
O339 Dy328 2.326 . S
O339 C346 1.267 . S
O340 C329 1.185 . S
O340 Dy331 2.398 . S
O341 C329 1.355 . S
O341 Dy331 2.491 . S
O342 Dy331 2.403 . S
O342 C337 1.254 . S
O343 Dy328 2.310 . S
O343 Dy331 2.664 . S
O343 C337 1.268 . S
O344 Dy328 2.351 . S
O344 C347 1.249 . S
O345 Dy331 2.326 . S
O345 C347 1.267 . S
C346 O338 1.249 . S
C346 O339 1.267 . S
C347 O344 1.249 . S
C347 O345 1.267 . S
Dy348 O352 2.398 . S
Dy348 O353 2.491 . S
Dy348 O354 2.403 1_455 S
Dy348 O355 2.664 1_455 S
Dy348 O359 2.326 . S
Dy348 O363 2.310 1_554 S
Dy348 O364 2.340 1_454 S
C349 O360 1.185 . S
C349 O361 1.355 . S
C350 O352 1.185 . S
C350 O353 1.355 . S
Dy351 O355 2.310 1_556 S
Dy351 O358 2.351 1_656 S
Dy351 O360 2.398 . S
Dy351 O361 2.491 . S
Dy351 O362 2.403 1_655 S
Dy351 O363 2.664 1_655 S
Dy351 O365 2.326 . S
O352 Dy348 2.398 . S
O352 C350 1.185 . S
O353 Dy348 2.491 . S
O353 C350 1.355 . S
O354 Dy348 2.403 1_655 S
O354 C356 1.254 . S
O355 Dy348 2.664 1_655 S
O355 Dy351 2.310 1_554 S
O355 C356 1.268 . S
C356 O354 1.254 . S
C356 O355 1.268 . S
C357 O362 1.254 . S
C357 O363 1.268 . S
O358 Dy351 2.351 1_454 S
O358 C366 1.249 . S
O359 Dy348 2.326 . S
O359 C366 1.267 . S
O360 C349 1.185 . S
O360 Dy351 2.398 . S
O361 C349 1.355 . S
O361 Dy351 2.491 . S
O362 Dy351 2.403 1_455 S
O362 C357 1.254 . S
O363 Dy348 2.310 1_556 S
O363 Dy351 2.664 1_455 S
O363 C357 1.268 . S
O364 Dy348 2.340 1_656 S
O364 C367 1.265 . S
O365 Dy351 2.326 . S
O365 C367 1.267 . S
C366 O358 1.249 . S
C366 O359 1.267 . S
C367 O364 1.265 . S
C367 O365 1.267 . S
H368 C386 0.951 . S
H369 C388 0.951 . S
H370 C390 0.950 . S
H371 C391 0.950 . S
H372 C393 0.950 . S
H373 C396 0.950 . S
H374 C397 0.950 . S
H375 C399 0.950 . S
H376 C400 0.950 . S
H377 C401 0.951 . S
H378 C403 0.951 . S
H379 C405 0.950 . S
H380 C406 0.950 . S
H381 C408 0.950 . S
H382 C411 0.950 . S
H383 C412 0.950 . S
H384 C414 0.950 . S
H385 C415 0.950 . S
C386 H368 0.951 . S
C386 C387 1.366 . S
C386 C388 1.388 . S
C387 C386 1.366 . S
C387 C391 1.385 . S
C388 H369 0.951 . S
C388 C386 1.388 . S
C388 C389 1.366 . S
C389 C388 1.366 . S
C389 C390 1.414 . S
C389 C392 1.499 . S
C390 H370 0.950 . S
C390 C389 1.414 . S
C390 C391 1.374 . S
C391 H371 0.950 . S
C391 C387 1.385 . S
C391 C390 1.374 . S
C392 C389 1.499 . S
C392 C393 1.373 . S
C392 C394 1.389 . S
C393 H372 0.950 . S
C393 C392 1.373 . S
C393 C409 1.377 . S
C394 C392 1.389 . S
C394 C395 1.524 . S
C394 C408 1.377 . S
C395 C394 1.524 . S
C395 C396 1.397 . S
C395 C400 1.363 . S
C396 H373 0.950 . S
C396 C395 1.397 . S
C396 C397 1.334 . S
C397 H374 0.950 . S
C397 C396 1.334 . S
C397 C398 1.287 . S
C398 C397 1.287 . S
C398 C399 1.524 . S
C398 H417 0.913 . S
C399 H375 0.950 . S
C399 C398 1.524 . S
C399 C400 1.415 . S
C400 H376 0.950 . S
C400 C395 1.363 . S
C400 C399 1.415 . S
C401 H377 0.951 . S
C401 C402 1.366 . S
C401 C403 1.388 . S
C402 C401 1.366 . S
C402 C406 1.385 . S
C403 H378 0.951 . S
C403 C401 1.388 . S
C403 C404 1.366 . S
C404 C403 1.366 . S
C404 C405 1.414 . S
C404 C407 1.499 . S
C405 H379 0.950 . S
C405 C404 1.414 . S
C405 C406 1.374 . S
C406 H380 0.950 . S
C406 C402 1.385 . S
C406 C405 1.374 . S
C407 C404 1.499 . S
C407 C408 1.373 . S
C407 C409 1.389 . S
C408 H381 0.950 . S
C408 C394 1.377 . S
C408 C407 1.373 . S
C409 C393 1.377 . S
C409 C407 1.389 . S
C409 C410 1.524 . S
C410 C409 1.524 . S
C410 C411 1.397 . S
C410 C415 1.363 . S
C411 H382 0.950 . S
C411 C410 1.397 . S
C411 C412 1.334 . S
C412 H383 0.950 . S
C412 C411 1.334 . S
C412 C413 1.287 . S
C413 C412 1.287 . S
C413 C414 1.524 . S
C413 H416 0.999 . S
C414 H384 0.950 . S
C414 C413 1.524 . S
C414 C415 1.415 . S
C415 H385 0.950 . S
C415 C410 1.363 . S
C415 C414 1.415 . S
H416 C413 0.999 . S
H417 C398 0.913 . S
H418 C436 0.951 . S
H419 C438 0.951 . S
H420 C440 0.950 . S
H421 C441 0.950 . S
H422 C443 0.950 . S
H423 C446 0.950 . S
H424 C447 0.950 . S
H425 C449 0.950 . S
H426 C450 0.950 . S
H427 C451 0.951 . S
H428 C453 0.951 . S
H429 C455 0.950 . S
H430 C456 0.950 . S
H431 C458 0.950 . S
H432 C461 0.950 . S
H433 C462 0.950 . S
H434 C464 0.950 . S
H435 C465 0.950 . S
C436 H418 0.951 . S
C436 C437 1.366 . S
C436 C438 1.388 . S
C437 C436 1.366 . S
C437 C441 1.385 . S
C438 H419 0.951 . S
C438 C436 1.388 . S
C438 C439 1.366 . S
C439 C438 1.366 . S
C439 C440 1.414 . S
C439 C442 1.499 . S
C440 H420 0.950 . S
C440 C439 1.414 . S
C440 C441 1.374 . S
C441 H421 0.950 . S
C441 C437 1.385 . S
C441 C440 1.374 . S
C442 C439 1.499 . S
C442 C443 1.373 . S
C442 C444 1.389 . S
C443 H422 0.950 . S
C443 C442 1.373 . S
C443 C459 1.377 . S
C444 C442 1.389 . S
C444 C445 1.524 . S
C444 C458 1.377 . S
C445 C444 1.524 . S
C445 C446 1.397 . S
C445 C450 1.363 . S
C446 H423 0.950 . S
C446 C445 1.397 . S
C446 C447 1.334 . S
C447 H424 0.950 . S
C447 C446 1.334 . S
C447 C448 1.287 1_565 S
C448 C447 1.287 1_545 S
C448 C449 1.524 . S
C448 H467 0.913 . S
C449 H425 0.950 . S
C449 C448 1.524 . S
C449 C450 1.415 1_545 S
C450 H426 0.950 . S
C450 C445 1.363 . S
C450 C449 1.415 1_565 S
C451 H427 0.951 . S
C451 C452 1.366 . S
C451 C453 1.388 . S
C452 C451 1.366 . S
C452 C456 1.385 . S
C453 H428 0.951 . S
C453 C451 1.388 . S
C453 C454 1.366 . S
C454 C453 1.366 . S
C454 C455 1.414 . S
C454 C457 1.499 . S
C455 H429 0.950 . S
C455 C454 1.414 . S
C455 C456 1.374 . S
C456 H430 0.950 . S
C456 C452 1.385 . S
C456 C455 1.374 . S
C457 C454 1.499 . S
C457 C458 1.373 . S
C457 C459 1.389 . S
C458 H431 0.950 . S
C458 C444 1.377 . S
C458 C457 1.373 . S
C459 C443 1.377 . S
C459 C457 1.389 . S
C459 C460 1.524 . S
C460 C459 1.524 . S
C460 C461 1.397 . S
C460 C465 1.363 . S
C461 H432 0.950 . S
C461 C460 1.397 . S
C461 C462 1.334 . S
C462 H433 0.950 . S
C462 C461 1.334 . S
C462 C463 1.287 . S
C463 C462 1.287 . S
C463 C464 1.524 . S
C463 H466 0.999 . S
C464 H434 0.950 . S
C464 C463 1.524 . S
C464 C465 1.415 . S
C465 H435 0.950 . S
C465 C460 1.363 . S
C465 C464 1.415 . S
H466 C463 0.999 . S
H467 C448 0.913 . S
H468 C486 0.951 . S
H469 C488 0.951 . S
H470 C490 0.950 . S
H471 C491 0.950 . S
H472 C493 0.950 . S
H473 C496 0.950 . S
H474 C497 0.950 . S
H475 C499 0.950 . S
H476 C500 0.950 . S
H477 C501 0.951 . S
H478 C503 0.951 . S
H479 C505 0.950 . S
H480 C506 0.950 . S
H481 C508 0.950 . S
H482 C511 0.950 . S
H483 C512 0.950 . S
H484 C514 0.950 . S
H485 C515 0.950 . S
C486 H468 0.951 . S
C486 C487 1.366 . S
C486 C488 1.388 . S
C487 C486 1.366 . S
C487 C491 1.385 . S
C488 H469 0.951 . S
C488 C486 1.388 . S
C488 C489 1.366 . S
C489 C488 1.366 . S
C489 C490 1.414 . S
C489 C492 1.499 . S
C490 H470 0.950 . S
C490 C489 1.414 . S
C490 C491 1.374 . S
C491 H471 0.950 . S
C491 C487 1.385 . S
C491 C490 1.374 . S
C492 C489 1.499 . S
C492 C493 1.373 . S
C492 C494 1.389 . S
C493 H472 0.950 . S
C493 C492 1.373 . S
C493 C509 1.377 . S
C494 C492 1.389 . S
C494 C495 1.524 . S
C494 C508 1.377 . S
C495 C494 1.524 . S
C495 C496 1.397 . S
C495 C500 1.363 . S
C496 H473 0.950 . S
C496 C495 1.397 . S
C496 C497 1.334 . S
C497 H474 0.950 . S
C497 C496 1.334 . S
C497 C498 1.287 . S
C498 C497 1.287 . S
C498 C499 1.524 . S
C498 H517 0.913 . S
C499 H475 0.950 . S
C499 C498 1.524 . S
C499 C500 1.415 . S
C500 H476 0.950 . S
C500 C495 1.363 . S
C500 C499 1.415 . S
C501 H477 0.951 . S
C501 C502 1.366 . S
C501 C503 1.388 . S
C502 C501 1.366 . S
C502 C506 1.385 . S
C503 H478 0.951 . S
C503 C501 1.388 . S
C503 C504 1.366 . S
C504 C503 1.366 . S
C504 C505 1.414 . S
C504 C507 1.499 . S
C505 H479 0.950 . S
C505 C504 1.414 . S
C505 C506 1.374 . S
C506 H480 0.950 . S
C506 C502 1.385 . S
C506 C505 1.374 . S
C507 C504 1.499 . S
C507 C508 1.373 . S
C507 C509 1.389 . S
C508 H481 0.950 . S
C508 C494 1.377 . S
C508 C507 1.373 . S
C509 C493 1.377 . S
C509 C507 1.389 . S
C509 C510 1.524 . S
C510 C509 1.524 . S
C510 C511 1.397 . S
C510 C515 1.363 . S
C511 H482 0.950 . S
C511 C510 1.397 . S
C511 C512 1.334 . S
C512 H483 0.950 . S
C512 C511 1.334 . S
C512 C513 1.287 . S
C513 C512 1.287 . S
C513 C514 1.524 . S
C513 H516 0.999 . S
C514 H484 0.950 . S
C514 C513 1.524 . S
C514 C515 1.415 . S
C515 H485 0.950 . S
C515 C510 1.363 . S
C515 C514 1.415 . S
H516 C513 0.999 . S
H517 C498 0.913 . S
H518 C536 0.951 . S
H519 C538 0.951 . S
H520 C540 0.950 . S
H521 C541 0.950 . S
H522 C543 0.950 . S
H523 C546 0.950 . S
H524 C547 0.950 . S
H525 C549 0.950 . S
H526 C550 0.950 . S
H527 C551 0.951 . S
H528 C553 0.951 . S
H529 C555 0.950 . S
H530 C556 0.904 1_455 S
H531 C558 0.950 . S
H532 C561 0.950 . S
H533 C562 0.950 . S
H534 C564 0.950 . S
H535 C565 0.950 . S
C536 H518 0.951 . S
C536 C537 1.366 . S
C536 C538 1.388 . S
C537 C536 1.366 . S
C537 C541 1.385 . S
C538 H519 0.951 . S
C538 C536 1.388 . S
C538 C539 1.366 . S
C539 C538 1.366 . S
C539 C540 1.414 . S
C539 C542 1.499 . S
C540 H520 0.950 . S
C540 C539 1.414 . S
C540 C541 1.374 . S
C541 H521 0.950 . S
C541 C537 1.385 . S
C541 C540 1.374 . S
C542 C539 1.499 . S
C542 C543 1.373 . S
C542 C544 1.389 . S
C543 H522 0.950 . S
C543 C542 1.373 . S
C543 C559 1.377 . S
C544 C542 1.389 . S
C544 C545 1.524 . S
C544 C558 1.377 . S
C545 C544 1.524 . S
C545 C546 1.397 . S
C545 C550 1.363 . S
C546 H523 0.950 . S
C546 C545 1.397 . S
C546 C547 1.334 . S
C547 H524 0.950 . S
C547 C546 1.334 . S
C547 C548 1.287 . S
C548 C547 1.287 . S
C548 C549 1.524 1_655 S
C548 H567 0.913 1_655 S
C549 H525 0.950 . S
C549 C548 1.524 1_455 S
C549 C550 1.415 1_455 S
C550 H526 0.950 . S
C550 C545 1.363 . S
C550 C549 1.415 1_655 S
C551 H527 0.951 . S
C551 C552 1.366 . S
C551 C553 1.388 . S
C552 C551 1.366 . S
C552 C556 1.385 . S
C553 H528 0.951 . S
C553 C551 1.388 . S
C553 C554 1.366 . S
C554 C553 1.366 . S
C554 C555 1.414 . S
C554 C557 1.499 . S
C555 H529 0.950 . S
C555 C554 1.414 . S
C555 C556 1.374 . S
C556 H530 0.904 1_655 S
C556 C552 1.385 . S
C556 C555 1.374 . S
C557 C554 1.499 . S
C557 C558 1.373 . S
C557 C559 1.389 . S
C558 H531 0.950 . S
C558 C544 1.377 . S
C558 C557 1.373 . S
C559 C543 1.377 . S
C559 C557 1.389 . S
C559 C560 1.524 . S
C560 C559 1.524 . S
C560 C561 1.397 . S
C560 C565 1.363 . S
C561 H532 0.950 . S
C561 C560 1.397 . S
C561 C562 1.334 . S
C562 H533 0.950 . S
C562 C561 1.334 . S
C562 C563 1.287 . S
C563 C562 1.287 . S
C563 C564 1.524 . S
C563 H566 0.999 . S
C564 H534 0.950 . S
C564 C563 1.524 . S
C564 C565 1.415 . S
C565 H535 0.950 . S
C565 C560 1.363 . S
C565 C564 1.415 . S
H566 C563 0.999 . S
H567 C548 0.913 1_455 S
H568 C586 0.951 . S
H569 C588 0.951 . S
H570 C590 0.950 . S
H571 C591 0.950 . S
H572 C593 0.950 . S
H573 C596 0.950 . S
H574 C597 0.950 . S
H575 C599 0.950 . S
H576 C600 0.950 . S
H577 C601 0.951 . S
H578 C603 0.951 . S
H579 C605 0.950 . S
H580 C606 0.950 . S
H581 C608 0.950 . S
H582 C611 0.950 . S
H583 C612 0.950 . S
H584 C614 0.950 . S
H585 C615 0.950 . S
C586 H568 0.951 . S
C586 C587 1.366 . S
C586 C588 1.388 . S
C587 C586 1.366 . S
C587 C591 1.385 . S
C588 H569 0.951 . S
C588 C586 1.388 . S
C588 C589 1.366 . S
C589 C588 1.366 . S
C589 C590 1.414 . S
C589 C592 1.499 . S
C590 H570 0.950 . S
C590 C589 1.414 . S
C590 C591 1.374 . S
C591 H571 0.950 . S
C591 C587 1.385 . S
C591 C590 1.374 . S
C592 C589 1.499 . S
C592 C593 1.373 . S
C592 C594 1.389 . S
C593 H572 0.950 . S
C593 C592 1.373 . S
C593 C609 1.377 . S
C594 C592 1.389 . S
C594 C595 1.524 . S
C594 C608 1.377 . S
C595 C594 1.524 . S
C595 C596 1.397 . S
C595 C600 1.363 . S
C596 H573 0.950 . S
C596 C595 1.397 . S
C596 C597 1.334 . S
C597 H574 0.950 . S
C597 C596 1.334 . S
C597 C598 1.287 . S
C598 C597 1.287 . S
C598 C599 1.524 . S
C598 H617 0.913 . S
C599 H575 0.950 . S
C599 C598 1.524 . S
C599 C600 1.415 . S
C600 H576 0.950 . S
C600 C595 1.363 . S
C600 C599 1.415 . S
C601 H577 0.951 . S
C601 C602 1.366 . S
C601 C603 1.388 . S
C602 C601 1.366 . S
C602 C606 1.385 . S
C603 H578 0.951 . S
C603 C601 1.388 . S
C603 C604 1.366 . S
C604 C603 1.366 . S
C604 C605 1.414 . S
C604 C607 1.499 . S
C605 H579 0.950 . S
C605 C604 1.414 . S
C605 C606 1.374 . S
C606 H580 0.950 . S
C606 C602 1.385 . S
C606 C605 1.374 . S
C607 C604 1.499 . S
C607 C608 1.373 . S
C607 C609 1.389 . S
C608 H581 0.950 . S
C608 C594 1.377 . S
C608 C607 1.373 . S
C609 C593 1.377 . S
C609 C607 1.389 . S
C609 C610 1.524 . S
C610 C609 1.524 . S
C610 C611 1.397 . S
C610 C615 1.363 . S
C611 H582 0.950 . S
C611 C610 1.397 . S
C611 C612 1.334 . S
C612 H583 0.950 . S
C612 C611 1.334 . S
C612 C613 1.287 . S
C613 C612 1.287 . S
C613 C614 1.524 . S
C613 H616 0.999 . S
C614 H584 0.950 . S
C614 C613 1.524 . S
C614 C615 1.415 . S
C615 H585 0.950 . S
C615 C610 1.363 . S
C615 C614 1.415 . S
H616 C613 0.999 . S
H617 C598 0.913 . S
H618 C636 0.951 . S
H619 C638 0.951 . S
H620 C640 0.950 . S
H621 C641 0.950 . S
H622 C643 0.950 . S
H623 C646 0.950 . S
H624 C647 0.950 . S
H625 C649 0.950 . S
H626 C650 0.950 . S
H627 C651 0.951 1_545 S
H628 C653 0.951 . S
H629 C655 0.950 . S
H630 C656 0.950 . S
H631 C658 0.950 . S
H632 C661 0.950 . S
H633 C662 0.950 . S
H634 C664 0.950 1_545 S
H635 C665 0.950 . S
C636 H618 0.951 . S
C636 C637 1.366 . S
C636 C638 1.388 . S
C637 C636 1.366 . S
C637 C641 1.385 . S
C638 H619 0.951 . S
C638 C636 1.388 . S
C638 C639 1.366 . S
C639 C638 1.366 . S
C639 C640 1.414 . S
C639 C642 1.499 . S
C640 H620 0.950 . S
C640 C639 1.414 . S
C640 C641 1.374 . S
C641 H621 0.950 . S
C641 C637 1.385 . S
C641 C640 1.374 . S
C642 C639 1.499 . S
C642 C643 1.373 . S
C642 C644 1.389 . S
C643 H622 0.950 . S
C643 C642 1.373 . S
C643 C659 1.377 . S
C644 C642 1.389 . S
C644 C645 1.524 . S
C644 C658 1.377 . S
C645 C644 1.524 . S
C645 C646 1.397 . S
C645 C650 1.363 . S
C646 H623 0.950 . S
C646 C645 1.397 . S
C646 C647 1.334 . S
C647 H624 0.950 . S
C647 C646 1.334 . S
C647 C648 1.287 . S
C648 C647 1.287 . S
C648 C649 1.524 . S
C648 H667 0.913 . S
C649 H625 0.950 . S
C649 C648 1.524 . S
C649 C650 1.415 . S
C650 H626 0.950 . S
C650 C645 1.363 . S
C650 C649 1.415 . S
C651 H627 0.951 1_565 S
C651 C652 1.366 . S
C651 C653 1.388 . S
C652 C651 1.366 . S
C652 C656 1.385 . S
C653 H628 0.951 . S
C653 C651 1.388 . S
C653 C654 1.366 . S
C654 C653 1.366 . S
C654 C655 1.414 . S
C654 C657 1.499 . S
C655 H629 0.950 . S
C655 C654 1.414 . S
C655 C656 1.374 . S
C656 H630 0.950 . S
C656 C652 1.385 . S
C656 C655 1.374 . S
C657 C654 1.499 . S
C657 C658 1.373 . S
C657 C659 1.389 . S
C658 H631 0.950 . S
C658 C644 1.377 . S
C658 C657 1.373 . S
C659 C643 1.377 . S
C659 C657 1.389 . S
C659 C660 1.524 . S
C660 C659 1.524 . S
C660 C661 1.397 . S
C660 C665 1.363 . S
C661 H632 0.950 . S
C661 C660 1.397 . S
C661 C662 1.334 . S
C662 H633 0.950 . S
C662 C661 1.334 . S
C662 C663 1.287 . S
C663 C662 1.287 . S
C663 C664 1.524 . S
C663 H666 0.999 . S
C664 H634 0.950 1_565 S
C664 C663 1.524 . S
C664 C665 1.415 . S
C665 H635 0.950 . S
C665 C660 1.363 . S
C665 C664 1.415 . S
H666 C663 0.999 . S
H667 C648 0.913 . S
H668 C686 0.951 . S
H669 C688 0.951 . S
H670 C690 0.950 . S
H671 C691 0.950 . S
H672 C693 0.950 . S
H673 C696 0.950 . S
H674 C697 0.950 . S
H675 C699 0.950 . S
H676 C700 0.950 . S
H677 C701 0.951 . S
H678 C703 0.951 . S
H679 C705 0.950 . S
H680 C706 0.950 . S
H681 C708 0.950 . S
H682 C711 0.950 1_556 S
H683 C712 0.950 . S
H684 C714 0.950 . S
H685 C715 0.950 . S
C686 H668 0.951 . S
C686 C687 1.366 . S
C686 C688 1.388 . S
C687 C686 1.366 . S
C687 C691 1.385 . S
C688 H669 0.951 . S
C688 C686 1.388 . S
C688 C689 1.366 . S
C689 C688 1.366 . S
C689 C690 1.414 . S
C689 C692 1.499 . S
C690 H670 0.950 . S
C690 C689 1.414 . S
C690 C691 1.374 . S
C691 H671 0.950 . S
C691 C687 1.385 . S
C691 C690 1.374 . S
C692 C689 1.499 . S
C692 C693 1.373 . S
C692 C694 1.389 . S
C693 H672 0.950 . S
C693 C692 1.373 . S
C693 C709 1.377 . S
C694 C692 1.389 . S
C694 C695 1.524 . S
C694 C708 1.377 . S
C695 C694 1.524 . S
C695 C696 1.397 . S
C695 C700 1.363 . S
C696 H673 0.950 . S
C696 C695 1.397 . S
C696 C697 1.334 . S
C697 H674 0.950 . S
C697 C696 1.334 . S
C697 C698 1.287 . S
C698 C697 1.287 . S
C698 C699 1.524 . S
C698 H717 0.913 . S
C699 H675 0.950 . S
C699 C698 1.524 . S
C699 C700 1.415 . S
C700 H676 0.950 . S
C700 C695 1.363 . S
C700 C699 1.415 . S
C701 H677 0.951 . S
C701 C702 1.366 . S
C701 C703 1.388 . S
C702 C701 1.366 . S
C702 C706 1.385 . S
C703 H678 0.951 . S
C703 C701 1.388 . S
C703 C704 1.366 . S
C704 C703 1.366 . S
C704 C705 1.414 . S
C704 C707 1.499 . S
C705 H679 0.950 . S
C705 C704 1.414 . S
C705 C706 1.374 . S
C706 H680 0.950 . S
C706 C702 1.385 . S
C706 C705 1.374 . S
C707 C704 1.499 . S
C707 C708 1.373 . S
C707 C709 1.389 . S
C708 H681 0.950 . S
C708 C694 1.377 . S
C708 C707 1.373 . S
C709 C693 1.377 . S
C709 C707 1.389 . S
C709 C710 1.524 . S
C710 C709 1.524 . S
C710 C711 1.397 1_556 S
C710 C715 1.363 . S
C711 H682 0.950 1_554 S
C711 C710 1.397 1_554 S
C711 C712 1.334 . S
C712 H683 0.950 . S
C712 C711 1.334 . S
C712 C713 1.287 . S
C713 C712 1.287 . S
C713 C714 1.524 . S
C713 H716 0.999 . S
C714 H684 0.950 . S
C714 C713 1.524 . S
C714 C715 1.415 1_554 S
C715 H685 0.950 . S
C715 C710 1.363 . S
C715 C714 1.415 1_556 S
H716 C713 0.999 . S
H717 C698 0.913 . S
H718 C736 0.951 . S
H719 C738 0.951 . S
H720 C740 0.950 . S
H721 C741 0.950 . S
H722 C743 0.950 . S
H723 C746 0.950 . S
H724 C747 0.950 . S
H725 C749 0.950 . S
H726 C750 0.950 . S
H727 C751 0.951 . S
H728 C753 0.951 . S
H729 C755 0.950 . S
H730 C756 0.950 . S
H731 C758 0.950 . S
H732 C761 0.950 . S
H733 C762 0.950 . S
H734 C764 0.950 . S
H735 C765 0.950 . S
C736 H718 0.951 . S
C736 C737 1.366 . S
C736 C738 1.388 . S
C737 C736 1.366 . S
C737 C741 1.385 . S
C738 H719 0.951 . S
C738 C736 1.388 . S
C738 C739 1.366 . S
C739 C738 1.366 . S
C739 C740 1.414 . S
C739 C742 1.499 . S
C740 H720 0.950 . S
C740 C739 1.414 . S
C740 C741 1.374 . S
C741 H721 0.950 . S
C741 C737 1.385 . S
C741 C740 1.374 . S
C742 C739 1.499 . S
C742 C743 1.373 . S
C742 C744 1.389 . S
C743 H722 0.950 . S
C743 C742 1.373 . S
C743 C759 1.377 . S
C744 C742 1.389 . S
C744 C745 1.524 . S
C744 C758 1.377 . S
C745 C744 1.524 . S
C745 C746 1.397 . S
C745 C750 1.363 . S
C746 H723 0.950 . S
C746 C745 1.397 . S
C746 C747 1.334 . S
C747 H724 0.950 . S
C747 C746 1.334 . S
C747 C748 1.287 . S
C748 C747 1.287 . S
C748 C749 1.524 . S
C748 H767 0.913 . S
C749 H725 0.950 . S
C749 C748 1.524 . S
C749 C750 1.415 . S
C750 H726 0.950 . S
C750 C745 1.363 . S
C750 C749 1.415 . S
C751 H727 0.951 . S
C751 C752 1.366 . S
C751 C753 1.388 . S
C752 C751 1.366 . S
C752 C756 1.385 . S
C753 H728 0.951 . S
C753 C751 1.388 . S
C753 C754 1.366 . S
C754 C753 1.366 . S
C754 C755 1.414 . S
C754 C757 1.499 . S
C755 H729 0.950 . S
C755 C754 1.414 . S
C755 C756 1.374 . S
C756 H730 0.950 . S
C756 C752 1.385 . S
C756 C755 1.374 . S
C757 C754 1.499 . S
C757 C758 1.373 . S
C757 C759 1.389 . S
C758 H731 0.950 . S
C758 C744 1.377 . S
C758 C757 1.373 . S
C759 C743 1.377 . S
C759 C757 1.389 . S
C759 C760 1.524 . S
C760 C759 1.524 . S
C760 C761 1.397 . S
C760 C765 1.363 . S
C761 H732 0.950 . S
C761 C760 1.397 . S
C761 C762 1.334 . S
C762 H733 0.950 . S
C762 C761 1.334 . S
C762 C763 1.287 . S
C763 C762 1.287 . S
C763 C764 1.524 . S
C763 H766 0.999 . S
C764 H734 0.950 . S
C764 C763 1.524 . S
C764 C765 1.415 . S
C765 H735 0.950 . S
C765 C760 1.363 . S
C765 C764 1.415 . S
H766 C763 0.999 . S
H767 C748 0.913 . S
H768 C786 0.951 . S
H769 C788 0.951 . S
H770 C790 0.950 . S
H771 C791 0.950 . S
H772 C793 0.950 . S
H773 C796 0.950 . S
H774 C797 0.950 . S
H775 C799 0.950 . S
H776 C800 0.950 . S
H777 C801 0.951 . S
H778 C803 0.951 . S
H779 C805 0.950 . S
H780 C806 0.950 . S
H781 C808 0.950 . S
H782 C811 0.950 . S
H783 C812 0.950 . S
H784 C814 0.950 . S
H785 C815 0.950 . S
C786 H768 0.951 . S
C786 C787 1.366 . S
C786 C788 1.388 . S
C787 C786 1.366 . S
C787 C791 1.385 . S
C788 H769 0.951 . S
C788 C786 1.388 . S
C788 C789 1.366 . S
C789 C788 1.366 . S
C789 C790 1.414 . S
C789 C792 1.499 . S
C790 H770 0.950 . S
C790 C789 1.414 . S
C790 C791 1.374 . S
C791 H771 0.950 . S
C791 C787 1.385 . S
C791 C790 1.374 . S
C792 C789 1.499 . S
C792 C793 1.373 . S
C792 C794 1.389 . S
C793 H772 0.950 . S
C793 C792 1.373 . S
C793 C809 1.377 . S
C794 C792 1.389 . S
C794 C795 1.524 . S
C794 C808 1.377 . S
C795 C794 1.524 . S
C795 C796 1.397 . S
C795 C800 1.363 . S
C796 H773 0.950 . S
C796 C795 1.397 . S
C796 C797 1.334 . S
C797 H774 0.950 . S
C797 C796 1.334 . S
C797 C798 1.287 . S
C798 C797 1.287 . S
C798 C799 1.524 . S
C798 H817 0.913 . S
C799 H775 0.950 . S
C799 C798 1.524 . S
C799 C800 1.415 . S
C800 H776 0.950 . S
C800 C795 1.363 . S
C800 C799 1.415 . S
C801 H777 0.951 . S
C801 C802 1.366 . S
C801 C803 1.388 . S
C802 C801 1.366 . S
C802 C806 1.385 . S
C803 H778 0.951 . S
C803 C801 1.388 . S
C803 C804 1.366 . S
C804 C803 1.366 . S
C804 C805 1.414 . S
C804 C807 1.499 . S
C805 H779 0.950 . S
C805 C804 1.414 . S
C805 C806 1.374 . S
C806 H780 0.950 . S
C806 C802 1.385 . S
C806 C805 1.374 . S
C807 C804 1.499 . S
C807 C808 1.373 . S
C807 C809 1.389 . S
C808 H781 0.950 . S
C808 C794 1.377 . S
C808 C807 1.373 . S
C809 C793 1.377 . S
C809 C807 1.389 . S
C809 C810 1.524 . S
C810 C809 1.524 . S
C810 C811 1.397 . S
C810 C815 1.363 . S
C811 H782 0.950 . S
C811 C810 1.397 . S
C811 C812 1.334 . S
C812 H783 0.950 . S
C812 C811 1.334 . S
C812 C813 1.287 . S
C813 C812 1.287 . S
C813 C814 1.524 . S
C813 H816 0.999 . S
C814 H784 0.950 . S
C814 C813 1.524 . S
C814 C815 1.415 . S
C815 H785 0.950 . S
C815 C810 1.363 . S
C815 C814 1.415 . S
H816 C813 0.999 . S
H817 C798 0.913 . S
H818 C836 0.951 . S
H819 C838 0.951 . S
H820 C840 0.950 . S
H821 C841 0.950 . S
H822 C843 0.950 . S
H823 C846 0.950 . S
H824 C847 0.950 . S
H825 C849 0.950 . S
H826 C850 0.950 . S
H827 C851 0.951 1_554 S
H828 C853 0.951 . S
H829 C855 0.950 . S
H830 C856 0.950 . S
H831 C858 0.950 . S
H832 C861 0.950 . S
H833 C862 0.950 . S
H834 C864 0.950 . S
H835 C865 0.950 . S
C836 H818 0.951 . S
C836 C837 1.366 . S
C836 C838 1.388 . S
C837 C836 1.366 . S
C837 C841 1.385 . S
C838 H819 0.951 . S
C838 C836 1.388 . S
C838 C839 1.366 . S
C839 C838 1.366 . S
C839 C840 1.414 . S
C839 C842 1.499 . S
C840 H820 0.950 . S
C840 C839 1.414 . S
C840 C841 1.374 . S
C841 H821 0.950 . S
C841 C837 1.385 . S
C841 C840 1.374 . S
C842 C839 1.499 . S
C842 C843 1.373 . S
C842 C844 1.389 . S
C843 H822 0.950 . S
C843 C842 1.373 . S
C843 C859 1.377 . S
C844 C842 1.389 . S
C844 C845 1.524 . S
C844 C858 1.377 . S
C845 C844 1.524 . S
C845 C846 1.397 . S
C845 C850 1.363 . S
C846 H823 0.950 . S
C846 C845 1.397 . S
C846 C847 1.334 . S
C847 H824 0.950 . S
C847 C846 1.334 . S
C847 C848 1.287 . S
C848 C847 1.287 . S
C848 C849 1.524 . S
C848 H867 0.913 . S
C849 H825 0.950 . S
C849 C848 1.524 . S
C849 C850 1.415 . S
C850 H826 0.950 . S
C850 C845 1.363 . S
C850 C849 1.415 . S
C851 H827 0.951 1_556 S
C851 C852 1.366 . S
C851 C853 1.388 . S
C852 C851 1.366 . S
C852 C856 1.385 . S
C853 H828 0.951 . S
C853 C851 1.388 . S
C853 C854 1.366 . S
C854 C853 1.366 . S
C854 C855 1.414 . S
C854 C857 1.499 . S
C855 H829 0.950 . S
C855 C854 1.414 . S
C855 C856 1.374 . S
C856 H830 0.950 . S
C856 C852 1.385 . S
C856 C855 1.374 . S
C857 C854 1.499 . S
C857 C858 1.373 . S
C857 C859 1.389 . S
C858 H831 0.950 . S
C858 C844 1.377 . S
C858 C857 1.373 . S
C859 C843 1.377 . S
C859 C857 1.389 . S
C859 C860 1.524 . S
C860 C859 1.524 . S
C860 C861 1.397 . S
C860 C865 1.363 . S
C861 H832 0.950 . S
C861 C860 1.397 . S
C861 C862 1.334 . S
C862 H833 0.950 . S
C862 C861 1.334 . S
C862 C863 1.287 1_556 S
C863 C862 1.287 1_554 S
C863 C864 1.524 . S
C863 H866 0.999 . S
C864 H834 0.950 . S
C864 C863 1.524 . S
C864 C865 1.415 1_554 S
C865 H835 0.950 . S
C865 C860 1.363 . S
C865 C864 1.415 1_556 S
H866 C863 0.999 . S
H867 C848 0.913 . S
H868 C886 0.951 . S
H869 C888 0.951 . S
H870 C890 0.950 . S
H871 C891 0.950 . S
H872 C893 0.950 . S
H873 C896 0.950 . S
H874 C897 0.950 . S
H875 C899 0.950 . S
H876 C900 0.950 . S
H877 C901 0.951 1_455 S
H878 C903 0.951 . S
H879 C905 0.950 . S
H880 C906 0.950 . S
H881 C908 0.950 . S
H882 C911 0.950 . S
H883 C912 0.950 . S
H884 C914 0.950 . S
H885 C915 0.950 . S
C886 H868 0.951 . S
C886 C887 1.366 . S
C886 C888 1.388 . S
C887 C886 1.366 . S
C887 C891 1.385 . S
C888 H869 0.951 . S
C888 C886 1.388 . S
C888 C889 1.366 . S
C889 C888 1.366 . S
C889 C890 1.414 . S
C889 C892 1.499 . S
C890 H870 0.950 . S
C890 C889 1.414 . S
C890 C891 1.374 . S
C891 H871 0.950 . S
C891 C887 1.385 . S
C891 C890 1.374 . S
C892 C889 1.499 . S
C892 C893 1.373 . S
C892 C894 1.389 . S
C893 H872 0.950 . S
C893 C892 1.373 . S
C893 C909 1.377 . S
C894 C892 1.389 . S
C894 C895 1.524 . S
C894 C908 1.377 . S
C895 C894 1.524 . S
C895 C896 1.397 . S
C895 C900 1.363 . S
C896 H873 0.950 . S
C896 C895 1.397 . S
C896 C897 1.334 . S
C897 H874 0.950 . S
C897 C896 1.334 . S
C897 C898 1.287 . S
C898 C897 1.287 . S
C898 C899 1.524 . S
C898 H917 0.913 . S
C899 H875 0.950 . S
C899 C898 1.524 . S
C899 C900 1.415 . S
C900 H876 0.950 . S
C900 C895 1.363 . S
C900 C899 1.415 . S
C901 H877 0.951 1_655 S
C901 C902 1.366 . S
C901 C903 1.388 . S
C902 C901 1.366 . S
C902 C906 1.385 . S
C903 H878 0.951 . S
C903 C901 1.388 . S
C903 C904 1.366 . S
C904 C903 1.366 . S
C904 C905 1.414 . S
C904 C907 1.499 . S
C905 H879 0.950 . S
C905 C904 1.414 . S
C905 C906 1.374 . S
C906 H880 0.950 . S
C906 C902 1.385 . S
C906 C905 1.374 . S
C907 C904 1.499 . S
C907 C908 1.373 . S
C907 C909 1.389 . S
C908 H881 0.950 . S
C908 C894 1.377 . S
C908 C907 1.373 . S
C909 C893 1.377 . S
C909 C907 1.389 . S
C909 C910 1.524 . S
C910 C909 1.524 . S
C910 C911 1.397 . S
C910 C915 1.363 . S
C911 H882 0.950 . S
C911 C910 1.397 . S
C911 C912 1.334 . S
C912 H883 0.950 . S
C912 C911 1.334 . S
C912 C913 1.287 . S
C913 C912 1.287 . S
C913 C914 1.524 . S
C913 H916 0.999 . S
C914 H884 0.950 . S
C914 C913 1.524 . S
C914 C915 1.415 . S
C915 H885 0.950 . S
C915 C910 1.363 . S
C915 C914 1.415 . S
H916 C913 0.999 . S
H917 C898 0.913 . S
H918 C936 0.951 . S
H919 C938 0.951 . S
H920 C940 0.950 . S
H921 C941 0.950 . S
H922 C943 0.950 . S
H923 C946 0.950 . S
H924 C947 0.950 . S
H925 C949 0.950 . S
H926 C950 0.950 . S
H927 C951 0.951 . S
H928 C953 0.951 . S
H929 C955 0.950 . S
H930 C956 0.950 . S
H931 C958 0.950 . S
H932 C961 0.950 . S
H933 C962 0.950 . S
H934 C964 0.950 . S
H935 C965 0.950 . S
C936 H918 0.951 . S
C936 C937 1.366 . S
C936 C938 1.388 . S
C937 C936 1.366 . S
C937 C941 1.385 . S
C938 H919 0.951 . S
C938 C936 1.388 . S
C938 C939 1.366 . S
C939 C938 1.366 . S
C939 C940 1.414 . S
C939 C942 1.499 . S
C940 H920 0.950 . S
C940 C939 1.414 . S
C940 C941 1.374 . S
C941 H921 0.950 . S
C941 C937 1.385 . S
C941 C940 1.374 . S
C942 C939 1.499 . S
C942 C943 1.373 . S
C942 C944 1.389 . S
C943 H922 0.950 . S
C943 C942 1.373 . S
C943 C959 1.377 . S
C944 C942 1.389 . S
C944 C945 1.524 . S
C944 C958 1.377 . S
C945 C944 1.524 . S
C945 C946 1.397 . S
C945 C950 1.363 . S
C946 H923 0.950 . S
C946 C945 1.397 . S
C946 C947 1.334 . S
C947 H924 0.950 . S
C947 C946 1.334 . S
C947 C948 1.287 . S
C948 C947 1.287 . S
C948 C949 1.524 . S
C948 H967 0.913 . S
C949 H925 0.950 . S
C949 C948 1.524 . S
C949 C950 1.415 . S
C950 H926 0.950 . S
C950 C945 1.363 . S
C950 C949 1.415 . S
C951 H927 0.951 . S
C951 C952 1.366 . S
C951 C953 1.388 . S
C952 C951 1.366 . S
C952 C956 1.385 . S
C953 H928 0.951 . S
C953 C951 1.388 . S
C953 C954 1.366 . S
C954 C953 1.366 . S
C954 C955 1.414 . S
C954 C957 1.499 . S
C955 H929 0.950 . S
C955 C954 1.414 . S
C955 C956 1.374 . S
C956 H930 0.950 . S
C956 C952 1.385 . S
C956 C955 1.374 . S
C957 C954 1.499 . S
C957 C958 1.373 . S
C957 C959 1.389 . S
C958 H931 0.950 . S
C958 C944 1.377 . S
C958 C957 1.373 . S
C959 C943 1.377 . S
C959 C957 1.389 . S
C959 C960 1.524 . S
C960 C959 1.524 . S
C960 C961 1.397 . S
C960 C965 1.363 . S
C961 H932 0.950 . S
C961 C960 1.397 . S
C961 C962 1.334 . S
C962 H933 0.950 . S
C962 C961 1.334 . S
C962 C963 1.287 . S
C963 C962 1.287 . S
C963 C964 1.524 . S
C963 H966 0.999 . S
C964 H934 0.950 . S
C964 C963 1.524 . S
C964 C965 1.415 . S
C965 H935 0.950 . S
C965 C960 1.363 . S
C965 C964 1.415 . S
H966 C963 0.999 . S
H967 C948 0.913 . S
H968 C986 0.951 . S
H969 C988 0.951 . S
H970 C990 0.950 . S
H971 C991 0.950 . S
H972 C993 0.950 . S
H973 C996 0.950 . S
H974 C997 0.950 . S
H975 C999 0.950 . S
H976 C1000 0.950 . S
H977 C1001 0.951 . S
H978 C1003 0.951 . S
H979 C1005 0.950 . S
H980 C1006 0.950 . S
H981 C1008 0.950 . S
H982 C1011 0.950 . S
H983 C1012 0.950 . S
H984 C1014 0.950 . S
H985 C1015 0.950 . S
C986 H968 0.951 . S
C986 C987 1.366 . S
C986 C988 1.388 . S
C987 C986 1.366 . S
C987 C991 1.385 . S
C988 H969 0.951 . S
C988 C986 1.388 . S
C988 C989 1.366 . S
C989 C988 1.366 . S
C989 C990 1.414 . S
C989 C992 1.499 . S
C990 H970 0.950 . S
C990 C989 1.414 . S
C990 C991 1.374 . S
C991 H971 0.950 . S
C991 C987 1.385 . S
C991 C990 1.374 . S
C992 C989 1.499 . S
C992 C993 1.373 . S
C992 C994 1.389 . S
C993 H972 0.950 . S
C993 C992 1.373 . S
C993 C1009 1.377 . S
C994 C992 1.389 . S
C994 C995 1.524 . S
C994 C1008 1.377 . S
C995 C994 1.524 . S
C995 C996 1.397 . S
C995 C1000 1.363 . S
C996 H973 0.950 . S
C996 C995 1.397 . S
C996 C997 1.334 . S
C997 H974 0.950 . S
C997 C996 1.334 . S
C997 C998 1.287 . S
C998 C997 1.287 . S
C998 C999 1.524 . S
C998 H1017 0.913 . S
C999 H975 0.950 . S
C999 C998 1.524 . S
C999 C1000 1.415 . S
C1000 H976 0.950 . S
C1000 C995 1.363 . S
C1000 C999 1.415 . S
C1001 H977 0.951 . S
C1001 C1002 1.366 . S
C1001 C1003 1.388 . S
C1002 C1001 1.366 . S
C1002 C1006 1.385 . S
C1003 H978 0.951 . S
C1003 C1001 1.388 . S
C1003 C1004 1.366 . S
C1004 C1003 1.366 . S
C1004 C1005 1.414 . S
C1004 C1007 1.499 . S
C1005 H979 0.950 . S
C1005 C1004 1.414 . S
C1005 C1006 1.374 . S
C1006 H980 0.950 . S
C1006 C1002 1.385 . S
C1006 C1005 1.374 . S
C1007 C1004 1.499 . S
C1007 C1008 1.373 . S
C1007 C1009 1.389 . S
C1008 H981 0.950 . S
C1008 C994 1.377 . S
C1008 C1007 1.373 . S
C1009 C993 1.377 . S
C1009 C1007 1.389 . S
C1009 C1010 1.524 . S
C1010 C1009 1.524 . S
C1010 C1011 1.397 . S
C1010 C1015 1.363 . S
C1011 H982 0.950 . S
C1011 C1010 1.397 . S
C1011 C1012 1.334 . S
C1012 H983 0.950 . S
C1012 C1011 1.334 . S
C1012 C1013 1.287 . S
C1013 C1012 1.287 . S
C1013 C1014 1.524 . S
C1013 H1016 0.999 . S
C1014 H984 0.950 . S
C1014 C1013 1.524 . S
C1014 C1015 1.415 . S
C1015 H985 0.950 . S
C1015 C1010 1.363 . S
C1015 C1014 1.415 . S
H1016 C1013 0.999 . S
H1017 C998 0.913 . S
H1018 C1036 0.951 . S
H1019 C1038 0.951 . S
H1020 C1040 0.950 . S
H1021 C1041 0.950 . S
H1022 C1043 0.950 . S
H1023 C1046 0.950 . S
H1024 C1047 0.950 . S
H1025 C1049 0.950 . S
H1026 C1050 0.950 . S
H1027 C1051 0.951 . S
H1028 C1053 0.951 . S
H1029 C1055 0.950 . S
H1030 C1056 0.950 . S
H1031 C1058 0.950 . S
H1032 C1061 0.950 . S
H1033 C1062 0.950 . S
H1034 C1064 0.950 . S
H1035 C1065 0.950 . S
C1036 H1018 0.951 . S
C1036 C1037 1.366 . S
C1036 C1038 1.388 . S
C1037 C1036 1.366 . S
C1037 C1041 1.385 . S
C1038 H1019 0.951 . S
C1038 C1036 1.388 . S
C1038 C1039 1.366 . S
C1039 C1038 1.366 . S
C1039 C1040 1.414 . S
C1039 C1042 1.499 . S
C1040 H1020 0.950 . S
C1040 C1039 1.414 . S
C1040 C1041 1.374 . S
C1041 H1021 0.950 . S
C1041 C1037 1.385 . S
C1041 C1040 1.374 . S
C1042 C1039 1.499 . S
C1042 C1043 1.373 . S
C1042 C1044 1.389 . S
C1043 H1022 0.950 . S
C1043 C1042 1.373 . S
C1043 C1059 1.377 . S
C1044 C1042 1.389 . S
C1044 C1045 1.524 . S
C1044 C1058 1.377 . S
C1045 C1044 1.524 . S
C1045 C1046 1.397 . S
C1045 C1050 1.363 . S
C1046 H1023 0.950 . S
C1046 C1045 1.397 . S
C1046 C1047 1.334 . S
C1047 H1024 0.950 . S
C1047 C1046 1.334 . S
C1047 C1048 1.287 . S
C1048 C1047 1.287 . S
C1048 C1049 1.524 . S
C1048 H1067 0.913 . S
C1049 H1025 0.950 . S
C1049 C1048 1.524 . S
C1049 C1050 1.415 . S
C1050 H1026 0.950 . S
C1050 C1045 1.363 . S
C1050 C1049 1.415 . S
C1051 H1027 0.951 . S
C1051 C1052 1.366 . S
C1051 C1053 1.388 . S
C1052 C1051 1.366 . S
C1052 C1056 1.385 . S
C1053 H1028 0.951 . S
C1053 C1051 1.388 . S
C1053 C1054 1.366 . S
C1054 C1053 1.366 . S
C1054 C1055 1.414 . S
C1054 C1057 1.499 . S
C1055 H1029 0.950 . S
C1055 C1054 1.414 . S
C1055 C1056 1.374 . S
C1056 H1030 0.950 . S
C1056 C1052 1.385 . S
C1056 C1055 1.374 . S
C1057 C1054 1.499 . S
C1057 C1058 1.373 . S
C1057 C1059 1.389 . S
C1058 H1031 0.950 . S
C1058 C1044 1.377 . S
C1058 C1057 1.373 . S
C1059 C1043 1.377 . S
C1059 C1057 1.389 . S
C1059 C1060 1.524 . S
C1060 C1059 1.524 . S
C1060 C1061 1.397 . S
C1060 C1065 1.363 . S
C1061 H1032 0.950 . S
C1061 C1060 1.397 . S
C1061 C1062 1.334 . S
C1062 H1033 0.950 . S
C1062 C1061 1.334 . S
C1062 C1063 1.287 . S
C1063 C1062 1.287 . S
C1063 C1064 1.524 . S
C1063 H1066 0.999 . S
C1064 H1034 0.950 . S
C1064 C1063 1.524 . S
C1064 C1065 1.415 . S
C1065 H1035 0.950 . S
C1065 C1060 1.363 . S
C1065 C1064 1.415 . S
H1066 C1063 0.999 . S
H1067 C1048 0.913 . S
H1068 C1086 0.951 . S
H1069 C1088 0.951 . S
H1070 C1090 0.950 . S
H1071 C1091 0.950 . S
H1072 C1093 0.950 . S
H1073 C1096 0.950 . S
H1074 C1097 0.950 . S
H1075 C1099 0.950 . S
H1076 C1100 0.950 . S
H1077 C1101 0.951 . S
H1078 C1103 0.951 . S
H1079 C1105 0.950 . S
H1080 C1106 0.950 . S
H1081 C1108 0.950 . S
H1082 C1111 0.950 . S
H1083 C1112 0.950 . S
H1084 C1114 0.950 . S
H1085 C1115 0.950 . S
C1086 H1068 0.951 . S
C1086 C1087 1.366 . S
C1086 C1088 1.388 . S
C1087 C1086 1.366 . S
C1087 C1091 1.385 . S
C1088 H1069 0.951 . S
C1088 C1086 1.388 . S
C1088 C1089 1.366 . S
C1089 C1088 1.366 . S
C1089 C1090 1.414 . S
C1089 C1092 1.499 . S
C1090 H1070 0.950 . S
C1090 C1089 1.414 . S
C1090 C1091 1.374 . S
C1091 H1071 0.950 . S
C1091 C1087 1.385 . S
C1091 C1090 1.374 . S
C1092 C1089 1.499 . S
C1092 C1093 1.373 . S
C1092 C1094 1.389 . S
C1093 H1072 0.950 . S
C1093 C1092 1.373 . S
C1093 C1109 1.377 . S
C1094 C1092 1.389 . S
C1094 C1095 1.524 . S
C1094 C1108 1.377 . S
C1095 C1094 1.524 . S
C1095 C1096 1.397 . S
C1095 C1100 1.363 . S
C1096 H1073 0.950 . S
C1096 C1095 1.397 . S
C1096 C1097 1.334 . S
C1097 H1074 0.950 . S
C1097 C1096 1.334 . S
C1097 C1098 1.287 . S
C1098 C1097 1.287 . S
C1098 C1099 1.524 . S
C1098 H1117 0.913 . S
C1099 H1075 0.950 . S
C1099 C1098 1.524 . S
C1099 C1100 1.415 . S
C1100 H1076 0.950 . S
C1100 C1095 1.363 . S
C1100 C1099 1.415 . S
C1101 H1077 0.951 . S
C1101 C1102 1.366 . S
C1101 C1103 1.388 . S
C1102 C1101 1.366 . S
C1102 C1106 1.385 . S
C1103 H1078 0.951 . S
C1103 C1101 1.388 . S
C1103 C1104 1.366 . S
C1104 C1103 1.366 . S
C1104 C1105 1.414 . S
C1104 C1107 1.499 . S
C1105 H1079 0.950 . S
C1105 C1104 1.414 . S
C1105 C1106 1.374 . S
C1106 H1080 0.950 . S
C1106 C1102 1.385 . S
C1106 C1105 1.374 . S
C1107 C1104 1.499 . S
C1107 C1108 1.373 . S
C1107 C1109 1.389 . S
C1108 H1081 0.950 . S
C1108 C1094 1.377 . S
C1108 C1107 1.373 . S
C1109 C1093 1.377 . S
C1109 C1107 1.389 . S
C1109 C1110 1.524 . S
C1110 C1109 1.524 . S
C1110 C1111 1.397 . S
C1110 C1115 1.363 . S
C1111 H1082 0.950 . S
C1111 C1110 1.397 . S
C1111 C1112 1.334 . S
C1112 H1083 0.950 . S
C1112 C1111 1.334 . S
C1112 C1113 1.287 . S
C1113 C1112 1.287 . S
C1113 C1114 1.524 . S
C1113 H1116 0.999 . S
C1114 H1084 0.950 . S
C1114 C1113 1.524 . S
C1114 C1115 1.415 . S
C1115 H1085 0.950 . S
C1115 C1110 1.363 . S
C1115 C1114 1.415 . S
H1116 C1113 0.999 . S
H1117 C1098 0.913 . S
H1118 C1136 0.951 . S
H1119 C1138 0.951 . S
H1120 C1140 0.950 . S
H1121 C1141 0.950 . S
H1122 C1143 0.950 . S
H1123 C1146 0.950 . S
H1124 C1147 0.950 . S
H1125 C1149 0.950 . S
H1126 C1150 0.950 . S
H1127 C1151 0.951 . S
H1128 C1153 0.951 . S
H1129 C1155 0.950 . S
H1130 C1156 0.950 . S
H1131 C1158 0.950 . S
H1132 C1161 0.950 . S
H1133 C1162 0.950 . S
H1134 C1164 0.950 . S
H1135 C1165 0.950 . S
C1136 H1118 0.951 . S
C1136 C1137 1.366 . S
C1136 C1138 1.388 . S
C1137 C1136 1.366 . S
C1137 C1141 1.385 . S
C1138 H1119 0.951 . S
C1138 C1136 1.388 . S
C1138 C1139 1.366 . S
C1139 C1138 1.366 . S
C1139 C1140 1.414 . S
C1139 C1142 1.499 . S
C1140 H1120 0.950 . S
C1140 C1139 1.414 . S
C1140 C1141 1.374 . S
C1141 H1121 0.950 . S
C1141 C1137 1.385 . S
C1141 C1140 1.374 . S
C1142 C1139 1.499 . S
C1142 C1143 1.373 . S
C1142 C1144 1.389 . S
C1143 H1122 0.950 . S
C1143 C1142 1.373 . S
C1143 C1159 1.377 . S
C1144 C1142 1.389 . S
C1144 C1145 1.524 . S
C1144 C1158 1.377 . S
C1145 C1144 1.524 . S
C1145 C1146 1.397 . S
C1145 C1150 1.363 . S
C1146 H1123 0.950 . S
C1146 C1145 1.397 . S
C1146 C1147 1.334 . S
C1147 H1124 0.950 . S
C1147 C1146 1.334 . S
C1147 C1148 1.287 . S
C1148 C1147 1.287 . S
C1148 C1149 1.524 . S
C1148 H1167 0.913 . S
C1149 H1125 0.950 . S
C1149 C1148 1.524 . S
C1149 C1150 1.415 . S
C1150 H1126 0.950 . S
C1150 C1145 1.363 . S
C1150 C1149 1.415 . S
C1151 H1127 0.951 . S
C1151 C1152 1.366 . S
C1151 C1153 1.388 . S
C1152 C1151 1.366 . S
C1152 C1156 1.385 . S
C1153 H1128 0.951 . S
C1153 C1151 1.388 . S
C1153 C1154 1.366 . S
C1154 C1153 1.366 . S
C1154 C1155 1.414 . S
C1154 C1157 1.499 . S
C1155 H1129 0.950 . S
C1155 C1154 1.414 . S
C1155 C1156 1.374 . S
C1156 H1130 0.950 . S
C1156 C1152 1.385 . S
C1156 C1155 1.374 . S
C1157 C1154 1.499 . S
C1157 C1158 1.373 . S
C1157 C1159 1.389 . S
C1158 H1131 0.950 . S
C1158 C1144 1.377 . S
C1158 C1157 1.373 . S
C1159 C1143 1.377 . S
C1159 C1157 1.389 . S
C1159 C1160 1.524 . S
C1160 C1159 1.524 . S
C1160 C1161 1.397 . S
C1160 C1165 1.363 . S
C1161 H1132 0.950 . S
C1161 C1160 1.397 . S
C1161 C1162 1.334 . S
C1162 H1133 0.950 . S
C1162 C1161 1.334 . S
C1162 C1163 1.287 . S
C1163 C1162 1.287 . S
C1163 C1164 1.524 . S
C1163 H1166 0.999 . S
C1164 H1134 0.950 . S
C1164 C1163 1.524 . S
C1164 C1165 1.415 . S
C1165 H1135 0.950 . S
C1165 C1160 1.363 . S
C1165 C1164 1.415 . S
H1166 C1163 0.999 . S
H1167 C1148 0.913 . S
H1168 C1186 0.951 . S
H1169 C1188 0.951 . S
H1170 C1190 0.950 . S
H1171 C1191 0.950 . S
H1172 C1193 0.950 . S
H1173 C1196 0.950 . S
H1174 C1197 0.950 . S
H1175 C1199 0.950 . S
H1176 C1200 0.950 . S
H1177 C1201 0.951 . S
H1178 C1203 0.951 . S
H1179 C1205 0.950 . S
H1180 C1206 0.950 . S
H1181 C1208 0.950 . S
H1182 C1211 0.950 . S
H1183 C1212 0.950 . S
H1184 C1214 0.950 . S
H1185 C1215 0.950 . S
C1186 H1168 0.951 . S
C1186 C1187 1.366 . S
C1186 C1188 1.388 . S
C1187 C1186 1.366 . S
C1187 C1191 1.385 . S
C1188 H1169 0.951 . S
C1188 C1186 1.388 . S
C1188 C1189 1.366 . S
C1189 C1188 1.366 . S
C1189 C1190 1.414 . S
C1189 C1192 1.499 . S
C1190 H1170 0.950 . S
C1190 C1189 1.414 . S
C1190 C1191 1.374 . S
C1191 H1171 0.950 . S
C1191 C1187 1.385 . S
C1191 C1190 1.374 . S
C1192 C1189 1.499 . S
C1192 C1193 1.373 . S
C1192 C1194 1.389 . S
C1193 H1172 0.950 . S
C1193 C1192 1.373 . S
C1193 C1209 1.377 . S
C1194 C1192 1.389 . S
C1194 C1195 1.524 . S
C1194 C1208 1.377 . S
C1195 C1194 1.524 . S
C1195 C1196 1.397 . S
C1195 C1200 1.363 . S
C1196 H1173 0.950 . S
C1196 C1195 1.397 . S
C1196 C1197 1.334 . S
C1197 H1174 0.950 . S
C1197 C1196 1.334 . S
C1197 C1198 1.287 . S
C1198 C1197 1.287 . S
C1198 C1199 1.524 . S
C1198 H1217 0.913 . S
C1199 H1175 0.950 . S
C1199 C1198 1.524 . S
C1199 C1200 1.415 . S
C1200 H1176 0.950 . S
C1200 C1195 1.363 . S
C1200 C1199 1.415 . S
C1201 H1177 0.951 . S
C1201 C1202 1.366 . S
C1201 C1203 1.388 . S
C1202 C1201 1.366 . S
C1202 C1206 1.385 . S
C1203 H1178 0.951 . S
C1203 C1201 1.388 . S
C1203 C1204 1.366 . S
C1204 C1203 1.366 . S
C1204 C1205 1.414 . S
C1204 C1207 1.499 . S
C1205 H1179 0.950 . S
C1205 C1204 1.414 . S
C1205 C1206 1.374 . S
C1206 H1180 0.950 . S
C1206 C1202 1.385 . S
C1206 C1205 1.374 . S
C1207 C1204 1.499 . S
C1207 C1208 1.373 . S
C1207 C1209 1.389 . S
C1208 H1181 0.950 . S
C1208 C1194 1.377 . S
C1208 C1207 1.373 . S
C1209 C1193 1.377 . S
C1209 C1207 1.389 . S
C1209 C1210 1.524 . S
C1210 C1209 1.524 . S
C1210 C1211 1.397 . S
C1210 C1215 1.363 . S
C1211 H1182 0.950 . S
C1211 C1210 1.397 . S
C1211 C1212 1.334 . S
C1212 H1183 0.950 . S
C1212 C1211 1.334 . S
C1212 C1213 1.287 . S
C1213 C1212 1.287 . S
C1213 C1214 1.524 . S
C1213 H1216 0.999 . S
C1214 H1184 0.950 . S
C1214 C1213 1.524 . S
C1214 C1215 1.415 . S
C1215 H1185 0.950 . S
C1215 C1210 1.363 . S
C1215 C1214 1.415 . S
H1216 C1213 0.999 . S
H1217 C1198 0.913 . S
H1218 C1236 0.951 . S
H1219 C1238 0.951 . S
H1220 C1240 0.950 . S
H1221 C1241 0.950 . S
H1222 C1243 0.950 . S
H1223 C1246 0.950 . S
H1224 C1247 0.950 . S
H1225 C1249 0.950 . S
H1226 C1250 0.950 . S
H1227 C1251 0.951 . S
H1228 C1253 0.951 . S
H1229 C1255 0.950 . S
H1230 C1256 0.950 . S
H1231 C1258 0.950 . S
H1232 C1261 0.950 . S
H1233 C1262 0.950 . S
H1234 C1264 0.950 . S
H1235 C1265 0.950 . S
C1236 H1218 0.951 . S
C1236 C1237 1.366 . S
C1236 C1238 1.388 . S
C1237 C1236 1.366 . S
C1237 C1241 1.385 . S
C1238 H1219 0.951 . S
C1238 C1236 1.388 . S
C1238 C1239 1.366 . S
C1239 C1238 1.366 . S
C1239 C1240 1.414 . S
C1239 C1242 1.499 . S
C1240 H1220 0.950 . S
C1240 C1239 1.414 . S
C1240 C1241 1.374 . S
C1241 H1221 0.950 . S
C1241 C1237 1.385 . S
C1241 C1240 1.374 . S
C1242 C1239 1.499 . S
C1242 C1243 1.373 . S
C1242 C1244 1.389 . S
C1243 H1222 0.950 . S
C1243 C1242 1.373 . S
C1243 C1259 1.377 . S
C1244 C1242 1.389 . S
C1244 C1245 1.524 . S
C1244 C1258 1.377 . S
C1245 C1244 1.524 . S
C1245 C1246 1.397 . S
C1245 C1250 1.363 . S
C1246 H1223 0.950 . S
C1246 C1245 1.397 . S
C1246 C1247 1.334 . S
C1247 H1224 0.950 . S
C1247 C1246 1.334 . S
C1247 C1248 1.287 . S
C1248 C1247 1.287 . S
C1248 C1249 1.524 . S
C1248 H1267 0.913 . S
C1249 H1225 0.950 . S
C1249 C1248 1.524 . S
C1249 C1250 1.415 . S
C1250 H1226 0.950 . S
C1250 C1245 1.363 . S
C1250 C1249 1.415 . S
C1251 H1227 0.951 . S
C1251 C1252 1.366 . S
C1251 C1253 1.388 . S
C1252 C1251 1.366 . S
C1252 C1256 1.385 . S
C1253 H1228 0.951 . S
C1253 C1251 1.388 . S
C1253 C1254 1.366 . S
C1254 C1253 1.366 . S
C1254 C1255 1.414 . S
C1254 C1257 1.499 . S
C1255 H1229 0.950 . S
C1255 C1254 1.414 . S
C1255 C1256 1.374 . S
C1256 H1230 0.950 . S
C1256 C1252 1.385 . S
C1256 C1255 1.374 . S
C1257 C1254 1.499 . S
C1257 C1258 1.373 . S
C1257 C1259 1.389 . S
C1258 H1231 0.950 . S
C1258 C1244 1.377 . S
C1258 C1257 1.373 . S
C1259 C1243 1.377 . S
C1259 C1257 1.389 . S
C1259 C1260 1.524 . S
C1260 C1259 1.524 . S
C1260 C1261 1.397 . S
C1260 C1265 1.363 . S
C1261 H1232 0.950 . S
C1261 C1260 1.397 . S
C1261 C1262 1.334 . S
C1262 H1233 0.950 . S
C1262 C1261 1.334 . S
C1262 C1263 1.287 . S
C1263 C1262 1.287 . S
C1263 C1264 1.524 . S
C1263 H1266 0.999 . S
C1264 H1234 0.950 . S
C1264 C1263 1.524 . S
C1264 C1265 1.415 . S
C1265 H1235 0.950 . S
C1265 C1260 1.363 . S
C1265 C1264 1.415 . S
H1266 C1263 0.999 . S
H1267 C1248 0.913 . S
H1268 C1286 0.951 . S
H1269 C1288 0.951 . S
H1270 C1290 0.950 . S
H1271 C1291 0.950 . S
H1272 C1293 0.950 . S
H1273 C1296 0.950 . S
H1274 C1297 0.950 . S
H1275 C1299 0.950 . S
H1276 C1300 0.950 . S
H1277 C1301 0.951 1_556 S
H1278 C1303 0.951 . S
H1279 C1305 0.950 . S
H1280 C1306 0.950 . S
H1281 C1308 0.950 . S
H1282 C1311 0.950 . S
H1283 C1312 0.950 . S
H1284 C1314 0.950 . S
H1285 C1315 0.950 . S
C1286 H1268 0.951 . S
C1286 C1287 1.366 . S
C1286 C1288 1.388 . S
C1287 C1286 1.366 . S
C1287 C1291 1.385 . S
C1288 H1269 0.951 . S
C1288 C1286 1.388 . S
C1288 C1289 1.366 . S
C1289 C1288 1.366 . S
C1289 C1290 1.414 . S
C1289 C1292 1.499 . S
C1290 H1270 0.950 . S
C1290 C1289 1.414 . S
C1290 C1291 1.374 . S
C1291 H1271 0.950 . S
C1291 C1287 1.385 . S
C1291 C1290 1.374 . S
C1292 C1289 1.499 . S
C1292 C1293 1.373 . S
C1292 C1294 1.389 . S
C1293 H1272 0.950 . S
C1293 C1292 1.373 . S
C1293 C1309 1.377 . S
C1294 C1292 1.389 . S
C1294 C1295 1.524 . S
C1294 C1308 1.377 . S
C1295 C1294 1.524 . S
C1295 C1296 1.397 . S
C1295 C1300 1.363 . S
C1296 H1273 0.950 . S
C1296 C1295 1.397 . S
C1296 C1297 1.334 . S
C1297 H1274 0.950 . S
C1297 C1296 1.334 . S
C1297 C1298 1.287 . S
C1298 C1297 1.287 . S
C1298 C1299 1.524 . S
C1298 H1317 0.913 . S
C1299 H1275 0.950 . S
C1299 C1298 1.524 . S
C1299 C1300 1.415 . S
C1300 H1276 0.950 . S
C1300 C1295 1.363 . S
C1300 C1299 1.415 . S
C1301 H1277 0.951 1_554 S
C1301 C1302 1.366 . S
C1301 C1303 1.388 . S
C1302 C1301 1.366 . S
C1302 C1306 1.385 . S
C1303 H1278 0.951 . S
C1303 C1301 1.388 . S
C1303 C1304 1.366 . S
C1304 C1303 1.366 . S
C1304 C1305 1.414 . S
C1304 C1307 1.499 . S
C1305 H1279 0.950 . S
C1305 C1304 1.414 . S
C1305 C1306 1.374 . S
C1306 H1280 0.950 . S
C1306 C1302 1.385 . S
C1306 C1305 1.374 . S
C1307 C1304 1.499 . S
C1307 C1308 1.373 . S
C1307 C1309 1.389 . S
C1308 H1281 0.950 . S
C1308 C1294 1.377 . S
C1308 C1307 1.373 . S
C1309 C1293 1.377 . S
C1309 C1307 1.389 . S
C1309 C1310 1.524 . S
C1310 C1309 1.524 . S
C1310 C1311 1.397 . S
C1310 C1315 1.363 . S
C1311 H1282 0.950 . S
C1311 C1310 1.397 . S
C1311 C1312 1.334 . S
C1312 H1283 0.950 . S
C1312 C1311 1.334 . S
C1312 C1313 1.287 1_554 S
C1313 C1312 1.287 1_556 S
C1313 C1314 1.524 . S
C1313 H1316 0.999 . S
C1314 H1284 0.950 . S
C1314 C1313 1.524 . S
C1314 C1315 1.415 1_556 S
C1315 H1285 0.950 . S
C1315 C1310 1.363 . S
C1315 C1314 1.415 1_554 S
H1316 C1313 0.999 . S
H1317 C1298 0.913 . S
H1318 C1336 0.951 . S
H1319 C1338 0.951 . S
H1320 C1340 0.950 . S
H1321 C1341 0.950 . S
H1322 C1343 0.950 . S
H1323 C1346 0.950 . S
H1324 C1347 0.950 . S
H1325 C1349 0.950 . S
H1326 C1350 0.950 . S
H1327 C1351 0.951 . S
H1328 C1353 0.951 . S
H1329 C1355 0.950 . S
H1330 C1356 0.950 . S
H1331 C1358 0.950 . S
H1332 C1361 0.950 . S
H1333 C1362 0.950 . S
H1334 C1364 0.950 . S
H1335 C1365 0.950 . S
C1336 H1318 0.951 . S
C1336 C1337 1.366 . S
C1336 C1338 1.388 . S
C1337 C1336 1.366 . S
C1337 C1341 1.385 . S
C1338 H1319 0.951 . S
C1338 C1336 1.388 . S
C1338 C1339 1.366 . S
C1339 C1338 1.366 . S
C1339 C1340 1.414 . S
C1339 C1342 1.499 . S
C1340 H1320 0.950 . S
C1340 C1339 1.414 . S
C1340 C1341 1.374 . S
C1341 H1321 0.950 . S
C1341 C1337 1.385 . S
C1341 C1340 1.374 . S
C1342 C1339 1.499 . S
C1342 C1343 1.373 . S
C1342 C1344 1.389 . S
C1343 H1322 0.950 . S
C1343 C1342 1.373 . S
C1343 C1359 1.377 . S
C1344 C1342 1.389 . S
C1344 C1345 1.524 . S
C1344 C1358 1.377 . S
C1345 C1344 1.524 . S
C1345 C1346 1.397 . S
C1345 C1350 1.363 . S
C1346 H1323 0.950 . S
C1346 C1345 1.397 . S
C1346 C1347 1.334 . S
C1347 H1324 0.950 . S
C1347 C1346 1.334 . S
C1347 C1348 1.287 . S
C1348 C1347 1.287 . S
C1348 C1349 1.524 . S
C1348 H1367 0.913 . S
C1349 H1325 0.950 . S
C1349 C1348 1.524 . S
C1349 C1350 1.415 . S
C1350 H1326 0.950 . S
C1350 C1345 1.363 . S
C1350 C1349 1.415 . S
C1351 H1327 0.951 . S
C1351 C1352 1.366 . S
C1351 C1353 1.388 . S
C1352 C1351 1.366 . S
C1352 C1356 1.385 . S
C1353 H1328 0.951 . S
C1353 C1351 1.388 . S
C1353 C1354 1.366 . S
C1354 C1353 1.366 . S
C1354 C1355 1.414 . S
C1354 C1357 1.499 . S
C1355 H1329 0.950 . S
C1355 C1354 1.414 . S
C1355 C1356 1.374 . S
C1356 H1330 0.950 . S
C1356 C1352 1.385 . S
C1356 C1355 1.374 . S
C1357 C1354 1.499 . S
C1357 C1358 1.373 . S
C1357 C1359 1.389 . S
C1358 H1331 0.950 . S
C1358 C1344 1.377 . S
C1358 C1357 1.373 . S
C1359 C1343 1.377 . S
C1359 C1357 1.389 . S
C1359 C1360 1.524 . S
C1360 C1359 1.524 . S
C1360 C1361 1.397 . S
C1360 C1365 1.363 . S
C1361 H1332 0.950 . S
C1361 C1360 1.397 . S
C1361 C1362 1.334 . S
C1362 H1333 0.950 . S
C1362 C1361 1.334 . S
C1362 C1363 1.287 . S
C1363 C1362 1.287 . S
C1363 C1364 1.524 . S
C1363 H1366 0.999 . S
C1364 H1334 0.950 . S
C1364 C1363 1.524 . S
C1364 C1365 1.415 . S
C1365 H1335 0.950 . S
C1365 C1360 1.363 . S
C1365 C1364 1.415 . S
H1366 C1363 0.999 . S
H1367 C1348 0.913 . S
H1368 C1386 0.951 . S
H1369 C1388 0.951 . S
H1370 C1390 0.950 . S
H1371 C1391 0.950 . S
H1372 C1393 0.950 . S
H1373 C1396 0.950 . S
H1374 C1397 0.950 . S
H1375 C1399 0.950 . S
H1376 C1400 0.950 . S
H1377 C1401 0.951 . S
H1378 C1403 0.951 . S
H1379 C1405 0.950 . S
H1380 C1406 0.950 . S
H1381 C1408 0.950 . S
H1382 C1411 0.950 . S
H1383 C1412 0.950 . S
H1384 C1414 0.950 . S
H1385 C1415 0.950 . S
C1386 H1368 0.951 . S
C1386 C1387 1.366 . S
C1386 C1388 1.388 . S
C1387 C1386 1.366 . S
C1387 C1391 1.385 . S
C1388 H1369 0.951 . S
C1388 C1386 1.388 . S
C1388 C1389 1.366 . S
C1389 C1388 1.366 . S
C1389 C1390 1.414 . S
C1389 C1392 1.499 . S
C1390 H1370 0.950 . S
C1390 C1389 1.414 . S
C1390 C1391 1.374 . S
C1391 H1371 0.950 . S
C1391 C1387 1.385 . S
C1391 C1390 1.374 . S
C1392 C1389 1.499 . S
C1392 C1393 1.373 . S
C1392 C1394 1.389 . S
C1393 H1372 0.950 . S
C1393 C1392 1.373 . S
C1393 C1409 1.377 . S
C1394 C1392 1.389 . S
C1394 C1395 1.524 . S
C1394 C1408 1.377 . S
C1395 C1394 1.524 . S
C1395 C1396 1.397 . S
C1395 C1400 1.363 . S
C1396 H1373 0.950 . S
C1396 C1395 1.397 . S
C1396 C1397 1.334 . S
C1397 H1374 0.950 . S
C1397 C1396 1.334 . S
C1397 C1398 1.287 . S
C1398 C1397 1.287 . S
C1398 C1399 1.524 . S
C1398 H1417 0.913 . S
C1399 H1375 0.950 . S
C1399 C1398 1.524 . S
C1399 C1400 1.415 . S
C1400 H1376 0.950 . S
C1400 C1395 1.363 . S
C1400 C1399 1.415 . S
C1401 H1377 0.951 . S
C1401 C1402 1.366 . S
C1401 C1403 1.388 . S
C1402 C1401 1.366 . S
C1402 C1406 1.385 . S
C1403 H1378 0.951 . S
C1403 C1401 1.388 . S
C1403 C1404 1.366 . S
C1404 C1403 1.366 . S
C1404 C1405 1.414 . S
C1404 C1407 1.499 . S
C1405 H1379 0.950 . S
C1405 C1404 1.414 . S
C1405 C1406 1.374 . S
C1406 H1380 0.950 . S
C1406 C1402 1.385 . S
C1406 C1405 1.374 . S
C1407 C1404 1.499 . S
C1407 C1408 1.373 . S
C1407 C1409 1.389 . S
C1408 H1381 0.950 . S
C1408 C1394 1.377 . S
C1408 C1407 1.373 . S
C1409 C1393 1.377 . S
C1409 C1407 1.389 . S
C1409 C1410 1.524 . S
C1410 C1409 1.524 . S
C1410 C1411 1.397 . S
C1410 C1415 1.363 . S
C1411 H1382 0.950 . S
C1411 C1410 1.397 . S
C1411 C1412 1.334 . S
C1412 H1383 0.950 . S
C1412 C1411 1.334 . S
C1412 C1413 1.287 . S
C1413 C1412 1.287 . S
C1413 C1414 1.524 . S
C1413 H1416 0.999 . S
C1414 H1384 0.950 . S
C1414 C1413 1.524 . S
C1414 C1415 1.415 . S
C1415 H1385 0.950 . S
C1415 C1410 1.363 . S
C1415 C1414 1.415 . S
H1416 C1413 0.999 . S
H1417 C1398 0.913 . S
H1418 C1436 0.951 . S
H1419 C1438 0.951 . S
H1420 C1440 0.950 . S
H1421 C1441 0.950 . S
H1422 C1443 0.950 . S
H1423 C1446 0.950 . S
H1424 C1447 0.950 . S
H1425 C1449 0.929 1_556 S
H1426 C1450 0.950 . S
H1427 C1451 0.951 . S
H1428 C1453 0.951 . S
H1429 C1455 0.950 . S
H1430 C1456 0.950 . S
H1431 C1458 0.950 . S
H1432 C1461 0.950 . S
H1433 C1462 0.950 . S
H1434 C1464 0.950 . S
H1435 C1465 0.950 . S
C1436 H1418 0.951 . S
C1436 C1437 1.366 . S
C1436 C1438 1.388 . S
C1437 C1436 1.366 . S
C1437 C1441 1.385 . S
C1438 H1419 0.951 . S
C1438 C1436 1.388 . S
C1438 C1439 1.366 . S
C1439 C1438 1.366 . S
C1439 C1440 1.414 . S
C1439 C1442 1.499 . S
C1440 H1420 0.950 . S
C1440 C1439 1.414 . S
C1440 C1441 1.374 . S
C1441 H1421 0.950 . S
C1441 C1437 1.385 . S
C1441 C1440 1.374 . S
C1442 C1439 1.499 . S
C1442 C1443 1.373 . S
C1442 C1444 1.389 . S
C1443 H1422 0.950 . S
C1443 C1442 1.373 . S
C1443 C1459 1.377 . S
C1444 C1442 1.389 . S
C1444 C1445 1.524 . S
C1444 C1458 1.377 . S
C1445 C1444 1.524 . S
C1445 C1446 1.397 . S
C1445 C1450 1.363 . S
C1446 H1423 0.950 . S
C1446 C1445 1.397 . S
C1446 C1447 1.334 . S
C1447 H1424 0.950 . S
C1447 C1446 1.334 . S
C1447 C1448 1.287 . S
C1448 C1447 1.287 . S
C1448 C1449 1.528 . S
C1448 H1467 0.913 1_554 S
C1449 H1425 0.929 1_554 S
C1449 C1448 1.528 . S
C1449 C1450 1.435 . S
C1450 H1426 0.950 . S
C1450 C1445 1.363 . S
C1450 C1449 1.435 . S
C1451 H1427 0.951 . S
C1451 C1452 1.366 . S
C1451 C1453 1.388 . S
C1452 C1451 1.366 . S
C1452 C1456 1.385 . S
C1453 H1428 0.951 . S
C1453 C1451 1.388 . S
C1453 C1454 1.366 . S
C1454 C1453 1.366 . S
C1454 C1455 1.414 . S
C1454 C1457 1.499 . S
C1455 H1429 0.950 . S
C1455 C1454 1.414 . S
C1455 C1456 1.374 . S
C1456 H1430 0.950 . S
C1456 C1452 1.385 . S
C1456 C1455 1.374 . S
C1457 C1454 1.499 . S
C1457 C1458 1.373 . S
C1457 C1459 1.389 . S
C1458 H1431 0.950 . S
C1458 C1444 1.377 . S
C1458 C1457 1.373 . S
C1459 C1443 1.377 . S
C1459 C1457 1.389 . S
C1459 C1460 1.524 . S
C1460 C1459 1.524 . S
C1460 C1461 1.397 . S
C1460 C1465 1.363 . S
C1461 H1432 0.950 . S
C1461 C1460 1.397 . S
C1461 C1462 1.334 . S
C1462 H1433 0.950 . S
C1462 C1461 1.334 . S
C1462 C1463 1.287 . S
C1463 C1462 1.287 . S
C1463 C1464 1.524 . S
C1463 H1466 0.999 . S
C1464 H1434 0.950 . S
C1464 C1463 1.524 . S
C1464 C1465 1.415 . S
C1465 H1435 0.950 . S
C1465 C1460 1.363 . S
C1465 C1464 1.415 . S
H1466 C1463 0.999 . S
H1467 C1448 0.913 1_556 S
H1468 C1486 0.951 . S
H1469 C1488 0.951 . S
H1470 C1490 0.950 . S
H1471 C1491 0.950 . S
H1472 C1493 0.950 . S
H1473 C1496 0.950 . S
H1474 C1497 0.950 . S
H1475 C1499 0.950 . S
H1476 C1500 0.950 . S
H1477 C1501 0.918 1_655 S
H1478 C1503 0.951 . S
H1479 C1505 0.950 . S
H1480 C1506 0.950 . S
H1481 C1508 0.950 . S
H1482 C1511 0.950 . S
H1483 C1512 0.950 . S
H1484 C1514 0.950 . S
H1485 C1515 0.950 . S
C1486 H1468 0.951 . S
C1486 C1487 1.366 . S
C1486 C1488 1.388 . S
C1487 C1486 1.366 . S
C1487 C1491 1.385 . S
C1488 H1469 0.951 . S
C1488 C1486 1.388 . S
C1488 C1489 1.366 . S
C1489 C1488 1.366 . S
C1489 C1490 1.414 . S
C1489 C1492 1.499 . S
C1490 H1470 0.950 . S
C1490 C1489 1.414 . S
C1490 C1491 1.374 . S
C1491 H1471 0.950 . S
C1491 C1487 1.385 . S
C1491 C1490 1.374 . S
C1492 C1489 1.499 . S
C1492 C1493 1.373 . S
C1492 C1494 1.389 . S
C1493 H1472 0.950 . S
C1493 C1492 1.373 . S
C1493 C1509 1.377 . S
C1494 C1492 1.389 . S
C1494 C1495 1.524 . S
C1494 C1508 1.377 . S
C1495 C1494 1.524 . S
C1495 C1496 1.397 . S
C1495 C1500 1.363 . S
C1496 H1473 0.950 . S
C1496 C1495 1.397 . S
C1496 C1497 1.334 . S
C1497 H1474 0.950 . S
C1497 C1496 1.334 . S
C1497 C1498 1.287 . S
C1498 C1497 1.287 . S
C1498 C1499 1.524 . S
C1498 H1517 0.913 . S
C1499 H1475 0.950 . S
C1499 C1498 1.524 . S
C1499 C1500 1.415 . S
C1500 H1476 0.950 . S
C1500 C1495 1.363 . S
C1500 C1499 1.415 . S
C1501 H1477 0.918 1_455 S
C1501 C1502 1.366 . S
C1501 C1503 1.388 . S
C1502 C1501 1.366 . S
C1502 C1506 1.385 . S
C1503 H1478 0.951 . S
C1503 C1501 1.388 . S
C1503 C1504 1.366 . S
C1504 C1503 1.366 . S
C1504 C1505 1.414 . S
C1504 C1507 1.499 . S
C1505 H1479 0.950 . S
C1505 C1504 1.414 . S
C1505 C1506 1.374 . S
C1506 H1480 0.950 . S
C1506 C1502 1.385 . S
C1506 C1505 1.374 . S
C1507 C1504 1.499 . S
C1507 C1508 1.373 . S
C1507 C1509 1.389 . S
C1508 H1481 0.950 . S
C1508 C1494 1.377 . S
C1508 C1507 1.373 . S
C1509 C1493 1.377 . S
C1509 C1507 1.389 . S
C1509 C1510 1.524 . S
C1510 C1509 1.524 . S
C1510 C1511 1.397 . S
C1510 C1515 1.363 . S
C1511 H1482 0.950 . S
C1511 C1510 1.397 . S
C1511 C1512 1.334 . S
C1512 H1483 0.950 . S
C1512 C1511 1.334 . S
C1512 C1513 1.287 1_455 S
C1513 C1512 1.287 1_655 S
C1513 C1514 1.524 . S
C1513 H1516 0.999 . S
C1514 H1484 0.950 . S
C1514 C1513 1.524 . S
C1514 C1515 1.415 1_655 S
C1515 H1485 0.950 . S
C1515 C1510 1.363 . S
C1515 C1514 1.415 1_455 S
H1516 C1513 0.999 . S
H1517 C1498 0.913 . S
H1518 C1536 0.951 . S
H1519 C1538 0.951 . S
H1520 C1540 0.950 . S
H1521 C1541 0.950 . S
H1522 C1543 0.950 . S
H1523 C1546 0.950 . S
H1524 C1547 0.950 . S
H1525 C1549 0.950 . S
H1526 C1550 0.950 . S
H1527 C1551 0.951 . S
H1528 C1553 0.951 . S
H1529 C1555 0.950 . S
H1530 C1556 0.950 . S
H1531 C1558 0.950 . S
H1532 C1561 0.950 . S
H1533 C1562 0.950 . S
H1534 C1564 0.950 . S
H1535 C1565 0.950 . S
C1536 H1518 0.951 . S
C1536 C1537 1.366 . S
C1536 C1538 1.388 . S
C1537 C1536 1.366 . S
C1537 C1541 1.385 . S
C1538 H1519 0.951 . S
C1538 C1536 1.388 . S
C1538 C1539 1.366 . S
C1539 C1538 1.366 . S
C1539 C1540 1.414 . S
C1539 C1542 1.499 . S
C1540 H1520 0.950 . S
C1540 C1539 1.414 . S
C1540 C1541 1.374 . S
C1541 H1521 0.950 . S
C1541 C1537 1.385 . S
C1541 C1540 1.374 . S
C1542 C1539 1.499 . S
C1542 C1543 1.373 . S
C1542 C1544 1.389 . S
C1543 H1522 0.950 . S
C1543 C1542 1.373 . S
C1543 C1559 1.377 . S
C1544 C1542 1.389 . S
C1544 C1545 1.524 . S
C1544 C1558 1.377 . S
C1545 C1544 1.524 . S
C1545 C1546 1.397 . S
C1545 C1550 1.363 . S
C1546 H1523 0.950 . S
C1546 C1545 1.397 . S
C1546 C1547 1.334 . S
C1547 H1524 0.950 . S
C1547 C1546 1.334 . S
C1547 C1548 1.287 . S
C1548 C1547 1.287 . S
C1548 C1549 1.524 . S
C1548 H1567 0.913 . S
C1549 H1525 0.950 . S
C1549 C1548 1.524 . S
C1549 C1550 1.415 . S
C1550 H1526 0.950 . S
C1550 C1545 1.363 . S
C1550 C1549 1.415 . S
C1551 H1527 0.951 . S
C1551 C1552 1.366 . S
C1551 C1553 1.388 . S
C1552 C1551 1.366 . S
C1552 C1556 1.385 . S
C1553 H1528 0.951 . S
C1553 C1551 1.388 . S
C1553 C1554 1.366 . S
C1554 C1553 1.366 . S
C1554 C1555 1.414 . S
C1554 C1557 1.499 . S
C1555 H1529 0.950 . S
C1555 C1554 1.414 . S
C1555 C1556 1.374 . S
C1556 H1530 0.950 . S
C1556 C1552 1.385 . S
C1556 C1555 1.374 . S
C1557 C1554 1.499 . S
C1557 C1558 1.373 . S
C1557 C1559 1.389 . S
C1558 H1531 0.950 . S
C1558 C1544 1.377 . S
C1558 C1557 1.373 . S
C1559 C1543 1.377 . S
C1559 C1557 1.389 . S
C1559 C1560 1.524 . S
C1560 C1559 1.524 . S
C1560 C1561 1.397 . S
C1560 C1565 1.363 . S
C1561 H1532 0.950 . S
C1561 C1560 1.397 . S
C1561 C1562 1.334 . S
C1562 H1533 0.950 . S
C1562 C1561 1.334 . S
C1562 C1563 1.287 . S
C1563 C1562 1.287 . S
C1563 C1564 1.524 . S
C1563 H1566 0.999 . S
C1564 H1534 0.950 . S
C1564 C1563 1.524 . S
C1564 C1565 1.415 . S
C1565 H1535 0.950 . S
C1565 C1560 1.363 . S
C1565 C1564 1.415 . S
H1566 C1563 0.999 . S
H1567 C1548 0.913 . S
C387 C1 1.556 . S
C402 C290 1.554 . S
C437 C67 1.386 . S
C452 C309 1.369 . S
C502 C346 1.711 . S
C487 C97 1.726 . S
C537 C133 1.686 . S
C552 C356 1.632 . S
C602 C326 2.054 . S
C587 C25 2.045 . S
C652 C296 1.443 . S
C637 C37 1.499 . S
C702 C367 1.480 . S
C687 C103 1.500 . S
C752 C337 1.344 . S
C737 C109 1.372 . S
C787 C31 1.821 . S
C802 C350 1.820 . S
C852 C317 1.684 . S
C837 C73 1.731 . S
C887 C139 1.752 . S
C902 C307 1.744 . S
C937 C61 1.201 . S
C952 C329 1.206 . S
C1002 C289 1.560 . S
C987 C175 1.526 . S
C1037 C181 1.367 . S
C1052 C310 1.352 . S
C1087 C247 1.755 . S
C1102 C347 1.731 . S
C1137 C277 1.676 . S
C1152 C357 1.621 . S
C1187 C145 1.996 . S
C1202 C327 2.045 . S
C1252 C297 1.451 . S
C1237 C211 1.496 . S
C1302 C366 1.467 . S
C1287 C217 1.486 . S
C1352 C336 1.362 . S
C1337 C283 1.392 . S
C1387 C169 1.771 . S
C1402 C349 1.814 . S
C1452 C316 1.690 . S
C1437 C241 1.740 . S
C1502 C306 1.730 . S
C1487 C253 1.736 . S
C1537 C205 1.219 . S
C1552 C330 1.218 . S
