# Generated by pormake.
# Topology zzz, (3,6)-cn, num edge types: 1
# Building blocks:
#     Node 0, Type 0, BuildingBlock: BETDIP_clean_linker_0, # of connection points: 3
#     Node 1, Type 0, BuildingBlock: BETDIP_clean_linker_0, # of connection points: 3
#     Node 2, Type 0, BuildingBlock: BETDIP_clean_linker_0, # of connection points: 3
#     Node 3, Type 0, BuildingBlock: BETDIP_clean_linker_0, # of connection points: 3
#     Node 4, Type 0, BuildingBlock: BETDIP_clean_linker_0, # of connection points: 3
#     Node 5, Type 0, BuildingBlock: BETDIP_clean_linker_0, # of connection points: 3
#     Node 6, Type 0, BuildingBlock: BETDIP_clean_linker_0, # of connection points: 3
#     Node 7, Type 0, BuildingBlock: BETDIP_clean_linker_0, # of connection points: 3
#     Node 8, Type 1, BuildingBlock: KUMJIN_clean_sbu_0, # of connection points: 6
#     Node 9, Type 1, BuildingBlock: KUMJIN_clean_sbu_0, # of connection points: 6
#     Node 10, Type 1, BuildingBlock: KUMJIN_clean_sbu_0, # of connection points: 6
#     Node 11, Type 1, BuildingBlock: KUMJIN_clean_sbu_0, # of connection points: 6
#     Edge 12, Type (0, 1), BuildingBlock: XUDNAN_clean_linker_2, # of connection points: 2
#     Edge 13, Type (0, 1), BuildingBlock: XUDNAN_clean_linker_2, # of connection points: 2
#     Edge 14, Type (0, 1), BuildingBlock: XUDNAN_clean_linker_2, # of connection points: 2
#     Edge 15, Type (0, 1), BuildingBlock: XUDNAN_clean_linker_2, # of connection points: 2
#     Edge 16, Type (0, 1), BuildingBlock: XUDNAN_clean_linker_2, # of connection points: 2
#     Edge 17, Type (0, 1), BuildingBlock: XUDNAN_clean_linker_2, # of connection points: 2
#     Edge 18, Type (0, 1), BuildingBlock: XUDNAN_clean_linker_2, # of connection points: 2
#     Edge 19, Type (0, 1), BuildingBlock: XUDNAN_clean_linker_2, # of connection points: 2
#     Edge 20, Type (0, 1), BuildingBlock: XUDNAN_clean_linker_2, # of connection points: 2
#     Edge 21, Type (0, 1), BuildingBlock: XUDNAN_clean_linker_2, # of connection points: 2
#     Edge 22, Type (0, 1), BuildingBlock: XUDNAN_clean_linker_2, # of connection points: 2
#     Edge 23, Type (0, 1), BuildingBlock: XUDNAN_clean_linker_2, # of connection points: 2
#     Edge 24, Type (0, 1), BuildingBlock: XUDNAN_clean_linker_2, # of connection points: 2
#     Edge 25, Type (0, 1), BuildingBlock: XUDNAN_clean_linker_2, # of connection points: 2
#     Edge 26, Type (0, 1), BuildingBlock: XUDNAN_clean_linker_2, # of connection points: 2
#     Edge 27, Type (0, 1), BuildingBlock: XUDNAN_clean_linker_2, # of connection points: 2
#     Edge 28, Type (0, 1), BuildingBlock: XUDNAN_clean_linker_2, # of connection points: 2
#     Edge 29, Type (0, 1), BuildingBlock: XUDNAN_clean_linker_2, # of connection points: 2
#     Edge 30, Type (0, 1), BuildingBlock: XUDNAN_clean_linker_2, # of connection points: 2
#     Edge 31, Type (0, 1), BuildingBlock: XUDNAN_clean_linker_2, # of connection points: 2
#     Edge 32, Type (0, 1), BuildingBlock: XUDNAN_clean_linker_2, # of connection points: 2
#     Edge 33, Type (0, 1), BuildingBlock: XUDNAN_clean_linker_2, # of connection points: 2
#     Edge 34, Type (0, 1), BuildingBlock: XUDNAN_clean_linker_2, # of connection points: 2
#     Edge 35, Type (0, 1), BuildingBlock: XUDNAN_clean_linker_2, # of connection points: 2
# Relax obj value: 0.177
# Max RMSD: 0.164
# Mean RMSD: 0.115
data_MOF--net-zzz--node1-KUMJIN_clean_sbu_0--node2-BETDIP_clean_linker_0--edge1-XUDNAN_clean_linker_2
_symmetry_space_group_name_H-M    P1
_symmetry_Int_Tables_number       1
_symmetry_cell_setting            triclinic
loop_
_symmetry_equiv_pos_as_xyz
'x, y, z'
_cell_length_a     50.744758
_cell_length_b     50.454078
_cell_length_c     14.808076
_cell_angle_alpha  90.801269
_cell_angle_beta   90.103145
_cell_angle_gamma 89.75766
loop_
_atom_site_label
_atom_site_type_symbol
_atom_site_fract_x
_atom_site_fract_y
_atom_site_fract_z
_atom_type_partial_charge
H0 H 0.75833 0.54706 0.39098 0.0
H1 H 0.73821 0.59679 0.16631 0.0
H2 H 0.81464 0.60033 0.27512 0.0
H3 H 0.69664 0.59482 0.21776 0.0
C4 C 0.69637 0.57335 0.22225 0.0
C5 C 0.76282 0.56359 0.34796 0.0
C6 C 0.78914 0.57448 0.348 0.0
C7 C 0.74294 0.57341 0.28624 0.0
C8 C 0.75103 0.59216 0.22244 0.0
C9 C 0.77783 0.59555 0.20747 0.0
C10 C 0.79442 0.59378 0.28277 0.0
N11 N 0.71742 0.5609 0.27315 0.0
H12 H 1.01147 0.76747 0.38859 0.0
H13 H 0.95595 0.75879 0.16819 0.0
H14 H 0.95602 0.82947 0.3302 0.0
H15 H 0.95931 0.71593 0.19034 0.0
C16 C 0.98058 0.7139 0.19427 0.0
C17 C 0.99467 0.77457 0.35072 0.0
C18 C 0.98402 0.80052 0.37048 0.0
C19 C 0.98364 0.75824 0.27937 0.0
C20 C 0.96315 0.76924 0.22736 0.0
C21 C 0.95427 0.79531 0.24155 0.0
C22 C 0.963 0.8094 0.318 0.0
N23 N 0.99451 0.73246 0.25306 0.0
H24 H 0.7829 1.00315 0.4433 0.0
H25 H 0.79409 0.96528 0.18446 0.0
H26 H 0.73057 0.94169 0.34362 0.0
H27 H 0.84002 0.95842 0.25353 0.0
C28 C 0.84042 0.97997 0.25329 0.0
C29 C 0.77747 0.98763 0.3958 0.0
C30 C 0.75208 0.97465 0.40295 0.0
C31 C 0.7948 0.98127 0.32029 0.0
C32 C 0.78432 0.96565 0.24948 0.0
C33 C 0.75815 0.95771 0.25275 0.0
C34 C 0.74783 0.95409 0.339 0.0
N35 N 0.82012 0.99357 0.30507 0.0
H36 H 0.54 0.7871 0.39182 0.0
H37 H 0.58913 0.79824 0.15784 0.0
H38 H 0.592 0.72497 0.29884 0.0
H39 H 0.59034 0.8439 0.22828 0.0
C40 C 0.56907 0.84385 0.21943 0.0
C41 C 0.55557 0.78018 0.34738 0.0
C42 C 0.56549 0.75373 0.35549 0.0
C43 C 0.56537 0.79724 0.27848 0.0
C44 C 0.58386 0.78692 0.21672 0.0
C45 C 0.5926 0.76069 0.22189 0.0
C46 C 0.58511 0.74532 0.29539 0.0
N47 N 0.55433 0.82313 0.26236 0.0
H48 H 0.28816 0.48545 0.90186 0.0
H49 H 0.30339 0.47012 0.18471 0.0
H50 H 0.22442 0.47448 0.09009 0.0
H51 H 0.32548 0.51092 0.16637 0.0
C52 C 0.33887 0.50093 0.11979 0.0
C53 C 0.28114 0.48109 0.96896 0.0
C54 C 0.25319 0.47704 0.98412 0.0
C55 C 0.29969 0.47967 0.04394 0.0
C56 C 0.29005 0.47215 0.12789 0.0
C57 C 0.26339 0.4725 0.1454 0.0
C58 C 0.2453 0.47407 0.07426 0.0
N59 N 0.32721 0.48752 0.0416 0.0
H60 H 0.04806 0.28872 0.90158 0.0
H61 H 0.08105 0.30628 0.16406 0.0
H62 H 0.07075 0.226 0.08 0.0
H63 H 0.02837 0.32406 0.15012 0.0
C64 C 0.04064 0.33833 0.11561 0.0
C65 C 0.0573 0.28192 0.96296 0.0
C66 C 0.06242 0.25388 0.97499 0.0
C67 C 0.06334 0.30097 0.03395 0.0
C68 C 0.07606 0.29207 0.11115 0.0
C69 C 0.07741 0.26526 0.12976 0.0
C70 C 0.0713 0.24659 0.06151 0.0
N71 N 0.05453 0.32831 0.03653 0.0
H72 H 0.26086 0.04698 0.8879 0.0
H73 H 0.24859 0.09022 0.1378 0.0
H74 H 0.32643 0.07565 0.04034 0.0
H75 H 0.23177 0.04681 0.17264 0.0
C76 C 0.21645 0.04964 0.12218 0.0
C77 C 0.26867 0.0584 0.94415 0.0
C78 C 0.29633 0.06506 0.94694 0.0
C79 C 0.2515 0.06599 0.01795 0.0
C80 C 0.26174 0.08235 0.08647 0.0
C81 C 0.28877 0.08474 0.09869 0.0
C82 C 0.30553 0.07607 0.02861 0.0
N83 N 0.22514 0.05574 0.03138 0.0
H84 H 0.47128 0.26186 0.88321 0.0
H85 H 0.47373 0.24339 0.16612 0.0
H86 H 0.45622 0.32213 0.08583 0.0
H87 H 0.4424 0.19931 0.05459 0.0
C88 C 0.46376 0.2004 0.0575 0.0
C89 C 0.46811 0.26779 0.95288 0.0
C90 C 0.46211 0.29489 0.97501 0.0
C91 C 0.4695 0.2484 0.02309 0.0
C92 C 0.46817 0.25696 0.11316 0.0
C93 C 0.46678 0.28381 0.13384 0.0
C94 C 0.45853 0.30138 0.06681 0.0
N95 N 0.476 0.22109 0.00675 0.0
Eu96 Eu 0.04454 1.01733 0.73977 0.0
C97 C 0.94546 1.01268 0.48862 0.0
C98 C 0.96058 0.98637 0.36054 0.0
C99 C 0.91377 0.99371 0.38231 0.0
C100 C 0.96595 1.00136 0.43997 0.0
C101 C 0.91913 1.00906 0.45985 0.0
C102 C 0.93444 0.98243 0.33273 0.0
C103 C 0.90512 0.03806 0.58146 0.0
N104 N 0.95124 0.02831 0.56128 0.0
C105 C 0.93146 0.04158 0.6061 0.0
C106 C 0.8989 0.02167 0.50809 0.0
Eu107 Eu 0.99656 0.03792 0.58721 0.0
N108 N 0.99108 1.00578 0.46791 0.0
C109 C 1.0116 0.99566 0.41806 0.0
C110 C 0.98162 0.97642 0.30963 0.0
C111 C 1.00724 0.98119 0.33846 0.0
H112 H 0.93607 0.05542 0.66027 0.0
H113 H 0.02375 0.9734 0.3001 0.0
H114 H 0.92998 0.97092 0.27241 0.0
H115 H 0.88968 0.04849 0.61782 0.0
H116 H 0.03171 0.9977 0.4397 0.0
H117 H 1.00278 0.07582 0.02224 0.0
H118 H 0.97832 0.96507 0.24802 0.0
H119 H 0.10834 1.01305 0.67048 0.0
H120 H 1.00097 0.05299 0.87705 0.0
H121 H 0.15174 0.02899 0.71902 0.0
H122 H 0.8937 0.99082 0.35925 0.0
H123 H 0.0457 0.08636 0.09209 0.0
H124 H 0.09458 0.08819 0.07769 0.0
H125 H 0.87849 0.0194 0.48787 0.0
H126 H 0.1345 0.07864 0.98971 0.0
N127 N 0.04263 0.04808 0.86376 0.0
C128 C 0.01998 0.0562 0.90639 0.0
C129 C 0.04509 0.07564 0.0282 0.0
C130 C 0.06825 0.06908 0.98191 0.0
C131 C 0.02086 0.06977 0.98904 0.0
C132 C 0.06646 0.05495 0.89896 0.0
H133 H 0.1559 0.05704 0.85627 0.0
N134 N 0.08704 0.03506 0.7713 0.0
C135 C 0.13428 0.03524 0.7556 0.0
C136 C 0.08911 0.04921 0.84978 0.0
C137 C 0.10944 0.02681 0.72705 0.0
C138 C 0.13655 0.05092 0.83326 0.0
C139 C 0.11395 0.05762 0.88246 0.0
O140 O 0.07276 0.98529 0.76201 0.0
O141 O 1.01198 1.00058 0.65193 0.0
O142 O 0.97199 0.02522 0.70754 0.0
O143 O 1.00369 1.0106 0.80883 0.0
O144 O 0.04846 0.98326 0.63781 0.0
O145 O 0.04559 0.99703 0.86856 0.0
O146 O 0.97459 0.07383 0.55762 0.0
O147 O 0.02973 0.055 0.67493 0.0
O148 O 0.06838 0.03242 0.61735 0.0
O149 O 0.03568 0.03795 0.51101 0.0
O150 O 0.99286 0.07062 0.69345 0.0
O151 O 1.00465 0.05908 0.46247 0.0
C152 C 0.02419 0.98134 0.61323 0.0
C153 C 0.06452 0.95396 0.87538 0.0
C154 C 0.0419 0.91571 0.93525 0.0
C155 C 0.04107 0.94148 0.90084 0.0
C156 C 0.06631 0.90268 0.94434 0.0
C157 C 0.08867 0.94065 0.88432 0.0
C158 C 0.08953 0.91511 0.91871 0.0
C159 C 0.97864 1.01568 0.78698 0.0
C160 C 0.06489 0.98134 0.84431 0.0
C161 C 0.11564 0.07188 0.96422 0.0
C162 C 0.09292 0.07722 0.0145 0.0
C163 C 0.01734 0.07427 0.71361 0.0
C164 C 0.97723 0.09515 0.41577 0.0
C165 C 0.99139 0.11823 0.40414 0.0
C166 C 0.98207 0.13791 0.34746 0.0
C167 C 0.95827 0.13419 0.30051 0.0
C168 C 0.95355 0.09098 0.36916 0.0
C169 C 0.94419 0.11054 0.31077 0.0
C170 C 0.06088 0.03681 0.533 0.0
C171 C 0.98742 0.07737 0.48299 0.0
H172 H 0.02233 0.95165 0.89371 0.0
H173 H 0.06746 0.88298 0.97227 0.0
H174 H 0.10693 0.95019 0.86573 0.0
H175 H 0.10826 0.90502 0.92623 0.0
H176 H 1.00942 0.12137 0.44252 0.0
H177 H 0.95075 0.14938 0.25626 0.0
H178 H 0.94234 0.07301 0.37875 0.0
H179 H 0.92588 0.10756 0.27453 0.0
Eu180 Eu 0.53071 0.04892 0.72429 0.0
C181 C 0.54682 0.95901 0.46332 0.0
C182 C 0.56767 0.98044 0.33665 0.0
C183 C 0.57299 0.93308 0.35588 0.0
C184 C 0.55178 0.98183 0.41492 0.0
C185 C 0.55724 0.93436 0.43333 0.0
C186 C 0.57849 0.95612 0.30879 0.0
C187 C 0.53563 0.91343 0.55772 0.0
N188 N 0.53191 0.9608 0.53926 0.0
C189 C 0.52558 0.93805 0.58466 0.0
C190 C 0.55167 0.91157 0.482 0.0
Eu191 Eu 0.51117 1.00302 0.56531 0.0
N192 N 0.54334 1.0056 0.44857 0.0
C193 C 0.55106 0.02854 0.40812 0.0
C194 C 0.57388 1.00382 0.29209 0.0
C195 C 0.56605 0.028 0.32927 0.0
H196 H 0.51124 0.93814 0.63843 0.0
H197 H 0.57185 0.04633 0.29793 0.0
H198 H 0.59229 0.95521 0.25371 0.0
H199 H 0.53032 0.89576 0.594 0.0
H200 H 0.5467 0.04754 0.43663 0.0
H201 H 0.47013 1.00512 0.99178 0.0
H202 H 0.58589 1.00349 0.23162 0.0
H203 H 0.53109 0.11423 0.65414 0.0
H204 H 0.49568 1.00409 0.85408 0.0
H205 H 0.5134 0.15665 0.70358 0.0
H206 H 0.58155 0.91445 0.33302 0.0
H207 H 0.45634 0.04794 0.05916 0.0
H208 H 0.45215 0.09661 0.04256 0.0
H209 H 0.55923 0.89236 0.46065 0.0
H210 H 0.46345 0.13747 0.96626 0.0
N211 N 0.49876 0.04603 0.84188 0.0
C212 C 0.49116 0.02305 0.8824 0.0
C213 C 0.46829 0.04764 0.99855 0.0
C214 C 0.47503 0.07109 0.95534 0.0
C215 C 0.47599 0.02349 0.96082 0.0
C216 C 0.49041 0.06976 0.87605 0.0
H217 H 0.48534 0.15978 0.83896 0.0
N218 N 0.51016 0.09118 0.75186 0.0
C219 C 0.50773 0.13883 0.73835 0.0
C220 C 0.4957 0.09279 0.82892 0.0
C221 C 0.51698 0.11417 0.70858 0.0
C222 C 0.49217 0.14054 0.81513 0.0
C223 C 0.48623 0.11754 0.86192 0.0
O224 O 0.55744 0.081 0.75457 0.0
O225 O 0.54904 1.01606 0.63645 0.0
O226 O 0.51733 0.98024 0.69509 0.0
O227 O 0.54082 1.00844 0.78834 0.0
O228 O 0.56578 0.05276 0.63045 0.0
O229 O 0.55143 0.05061 0.8536 0.0
O230 O 0.48686 0.97002 0.52146 0.0
O231 O 0.49256 0.03538 0.65502 0.0
O232 O 0.52417 0.07237 0.59755 0.0
O233 O 0.50237 0.04373 0.50134 0.0
O234 O 0.47829 0.99741 0.66522 0.0
O235 O 0.48602 1.00592 0.44485 0.0
C236 C 0.56907 0.02844 0.60511 0.0
C237 C 0.59251 0.07297 0.85146 0.0
C238 C 0.63066 0.0557 0.92729 0.0
C239 C 0.60402 0.05409 0.90715 0.0
C240 C 0.64624 0.07582 0.89098 0.0
C241 C 0.60803 0.09337 0.81556 0.0
C242 C 0.6349 0.09457 0.83468 0.0
C243 C 0.53171 0.98447 0.76799 0.0
C244 C 0.56432 0.07201 0.83262 0.0
C245 C 0.47122 0.11876 0.94091 0.0
C246 C 0.46553 0.09561 0.98663 0.0
C247 C 0.47369 0.02171 0.68862 0.0
C248 C 0.44851 0.97735 0.43925 0.0
C249 C 0.43027 0.99821 0.43629 0.0
C250 C 0.40333 0.99279 0.42609 0.0
C251 C 0.39477 0.96643 0.41772 0.0
C252 C 0.43973 0.95108 0.43005 0.0
C253 C 0.41298 0.94569 0.41936 0.0
C254 C 0.51086 0.06781 0.52312 0.0
C255 C 0.4767 0.98204 0.45318 0.0
H256 H 0.59222 0.03873 0.93767 0.0
H257 H 0.66692 0.07744 0.90862 0.0
H258 H 0.59939 0.10843 0.77316 0.0
H259 H 0.64678 0.11034 0.80759 0.0
H260 H 0.43688 0.01855 0.4431 0.0
H261 H 0.37411 0.96195 0.40755 0.0
H262 H 0.45362 0.93472 0.43154 0.0
H263 H 0.40637 0.92541 0.41189 0.0
Eu264 Eu 0.53949 0.51136 0.60377 0.0
C265 C 0.43281 0.52894 0.74108 0.0
C266 C 0.41464 0.55561 0.62037 0.0
C267 C 0.38544 0.52961 0.71319 0.0
C268 C 0.43656 0.54677 0.67116 0.0
C269 C 0.40701 0.52108 0.76459 0.0
C270 C 0.38928 0.54659 0.6408 0.0
C271 C 0.42498 0.49944 0.89529 0.0
N272 N 0.4539 0.52082 0.79044 0.0
C273 C 0.45011 0.5074 0.86927 0.0
C274 C 0.40337 0.50591 0.8419 0.0
Eu275 Eu 0.49489 0.54004 0.75316 0.0
N276 N 0.46118 0.55632 0.655 0.0
C277 C 0.46482 0.57465 0.58863 0.0
C278 C 0.41861 0.57385 0.5517 0.0
C279 C 0.44379 0.58343 0.53598 0.0
H280 H 0.46662 0.50228 0.91194 0.0
H281 H 0.4471 0.59754 0.48281 0.0
H282 H 0.37234 0.55328 0.60256 0.0
H283 H 0.42232 0.48842 0.95679 0.0
H284 H 0.48387 0.58214 0.57226 0.0
H285 H 0.59275 0.44925 0.8469 0.0
H286 H 0.40231 0.58091 0.51111 0.0
H287 H 0.56488 0.55402 0.45014 0.0
H288 H 0.55405 0.4666 0.77091 0.0
H289 H 0.60783 0.57112 0.40538 0.0
H290 H 0.36559 0.52365 0.73019 0.0
H291 H 0.63676 0.46725 0.81434 0.0
H292 H 0.66469 0.49782 0.72621 0.0
H293 H 0.38386 0.49988 0.86264 0.0
H294 H 0.66873 0.53106 0.60801 0.0
N295 N 0.57509 0.49476 0.69213 0.0
C296 C 0.5728 0.47474 0.75317 0.0
C297 C 0.61966 0.47515 0.77986 0.0
C298 C 0.62216 0.49529 0.71674 0.0
C299 C 0.5949 0.46481 0.79792 0.0
C300 C 0.59926 0.50507 0.67364 0.0
H301 H 0.64789 0.55825 0.48877 0.0
N302 N 0.57946 0.53334 0.56557 0.0
C303 C 0.60634 0.55853 0.46374 0.0
C304 C 0.6015 0.52466 0.60866 0.0
C305 C 0.58189 0.54896 0.49059 0.0
C306 C 0.62885 0.55118 0.51086 0.0
C307 C 0.62674 0.53375 0.58306 0.0
O308 O 0.53883 0.51227 0.45659 0.0
O309 O 0.49897 0.52999 0.60442 0.0
O310 O 0.49192 0.49422 0.76585 0.0
O311 O 0.52129 0.47412 0.66551 0.0
O312 O 0.50217 0.492 0.55134 0.0
O313 O 0.56 0.48036 0.5273 0.0
O314 O 0.49498 0.54121 0.90061 0.0
O315 O 0.5353 0.52044 0.75176 0.0
O316 O 0.54001 0.55758 0.58875 0.0
O317 O 0.51296 0.57692 0.69723 0.0
O318 O 0.53301 0.5581 0.8066 0.0
O319 O 0.47361 0.57121 0.82565 0.0
C320 C 0.48611 0.51155 0.56316 0.0
C321 C 0.55931 0.47854 0.3657 0.0
C322 C 0.54825 0.44452 0.25507 0.0
C323 C 0.5418 0.45945 0.3328 0.0
C324 C 0.57214 0.45016 0.21004 0.0
C325 C 0.58258 0.48412 0.3196 0.0
C326 C 0.58884 0.47003 0.24144 0.0
C327 C 0.5027 0.47257 0.72826 0.0
C328 C 0.55458 0.49187 0.45102 0.0
C329 C 0.6493 0.52426 0.62697 0.0
C330 C 0.647 0.50525 0.694 0.0
C331 C 0.54868 0.53845 0.79234 0.0
C332 C 0.48694 0.58231 0.97379 0.0
C333 C 0.50802 0.59983 0.96236 0.0
C334 C 0.51324 0.61912 0.02879 0.0
C335 C 0.49737 0.62096 0.10612 0.0
C336 C 0.4713 0.58411 0.05156 0.0
C337 C 0.47649 0.60343 0.11746 0.0
C338 C 0.53013 0.57884 0.63113 0.0
C339 C 0.48022 0.56243 0.90505 0.0
H340 H 0.52376 0.45594 0.36964 0.0
H341 H 0.57895 0.43858 0.1527 0.0
H342 H 0.59616 0.49895 0.3453 0.0
H343 H 0.60716 0.47373 0.2069 0.0
H344 H 0.52005 0.59879 0.90209 0.0
H345 H 0.50121 0.63591 0.15763 0.0
H346 H 0.45493 0.5707 0.06089 0.0
H347 H 0.46429 0.60485 0.17722 0.0
Eu348 Eu 0.03428 0.54722 0.58266 0.0
C349 C 1.01133 0.44248 0.77394 0.0
C350 C 0.97994 0.4218 0.67169 0.0
C351 C 1.0035 0.39492 0.78006 0.0
C352 C 0.99342 0.44459 0.70357 0.0
C353 C 0.01631 0.41761 0.8135 0.0
C354 C 0.98531 0.39703 0.70954 0.0
C355 C 0.04471 0.43948 0.92174 0.0
N356 N 0.0231 0.46477 0.80633 0.0
C357 C 0.039 0.46366 0.88113 0.0
C358 C 0.03346 0.41631 0.8874 0.0
Eu359 Eu 1.00917 0.50558 0.74354 0.0
N360 N 0.98877 0.46879 0.66729 0.0
C361 C 0.9709 0.47118 0.59812 0.0
C362 C 0.96122 0.42452 0.60311 0.0
C363 C 0.95679 0.4493 0.5659 0.0
H364 H 0.04726 0.48161 0.91002 0.0
H365 H 0.94284 0.45153 0.51109 0.0
H366 H 0.9753 0.37939 0.68522 0.0
H367 H 0.05748 0.43881 0.9803 0.0
H368 H 0.96776 0.48957 0.56412 0.0
H369 H 0.10377 0.59691 0.81472 0.0
H370 H 0.95042 0.40753 0.57735 0.0
H371 H 0.99337 0.57469 0.42788 0.0
H372 H 0.07833 0.55972 0.75654 0.0
H373 H 0.98199 0.61866 0.37113 0.0
H374 H 1.00716 0.3757 0.80943 0.0
H375 H 0.09581 0.64196 0.75779 0.0
H376 H 0.06969 0.67206 0.65985 0.0
H377 H 0.03765 0.39761 0.91971 0.0
H378 H 0.03556 0.67815 0.54433 0.0
N379 N 0.05604 0.58247 0.66199 0.0
C380 C 0.0747 0.5788 0.7278 0.0
C381 C 0.08456 0.62549 0.7305 0.0
C382 C 0.06503 0.62946 0.6654 0.0
C383 C 0.08916 0.6001 0.76262 0.0
C384 C 0.05085 0.60731 0.63178 0.0
H385 H 1.00283 0.65856 0.43729 0.0
N386 N 0.01862 0.58923 0.53323 0.0
C387 C 0.99554 0.61684 0.42731 0.0
C388 C 0.03136 0.61082 0.56705 0.0
C389 C 1.00179 0.59192 0.46109 0.0
C390 C 1.00741 0.63926 0.4646 0.0
C391 C 0.02588 0.63644 0.53403 0.0
O392 O 0.03607 0.54784 0.4354 0.0
O393 O 0.03104 0.50336 0.61025 0.0
O394 O 0.05378 0.49723 0.74993 0.0
O395 O 0.0714 0.52682 0.6482 0.0
O396 O 0.01584 0.51605 0.49082 0.0
O397 O 0.07173 0.55503 0.51686 0.0
O398 O 1.00287 0.5057 0.88899 0.0
O399 O 1.01294 0.54956 0.71631 0.0
O400 O 0.98957 0.5532 0.5719 0.0
O401 O 0.97255 0.52286 0.67088 0.0
O402 O 0.02964 0.53625 0.83258 0.0
O403 O 0.96923 0.5048 0.79691 0.0
C404 C 0.02211 0.495 0.53413 0.0
C405 C 0.07585 0.55779 0.35452 0.0
C406 C 0.11763 0.55434 0.27855 0.0
C407 C 0.10262 0.55232 0.35645 0.0
C408 C 0.10605 0.56268 0.19775 0.0
C409 C 0.06385 0.56586 0.27384 0.0
C410 C 0.07906 0.5685 0.19566 0.0
C411 C 0.07455 0.50837 0.71141 0.0
C412 C 0.06087 0.55397 0.43683 0.0
C413 C 0.03961 0.6584 0.56875 0.0
C414 C 0.05915 0.65491 0.6341 0.0
C415 C 0.02284 0.5576 0.79149 0.0
C416 C 0.96177 0.4913 0.94755 0.0
C417 C 0.93679 0.50166 0.96384 0.0
C418 C 0.92139 0.49246 0.03477 0.0
C419 C 0.93106 0.47172 0.08815 0.0
C420 C 0.9715 0.47065 1.00063 0.0
C421 C 0.95599 0.46077 0.07054 0.0
C422 C 0.96923 0.54101 0.60797 0.0
C423 C 0.97739 0.50494 0.8804 0.0
H424 H 0.11183 0.54556 0.41835 0.0
H425 H 0.11763 0.56401 0.13663 0.0
H426 H 0.04291 0.5701 0.27138 0.0
H427 H 0.06986 0.57467 0.13334 0.0
H428 H 0.92944 0.51733 0.92091 0.0
H429 H 0.91958 0.46422 0.14374 0.0
H430 H 0.99097 0.4625 0.98906 0.0
H431 H 0.96345 0.4449 0.11197 0.0
H432 H 0.20267 0.06197 0.29511 0.0
H433 H 0.16772 0.03859 0.03936 0.0
H434 H 0.12422 0.03434 0.11574 0.0
H435 H 0.16943 0.01976 0.43684 0.0
H436 H 0.1646 0.04309 0.52875 0.0
H437 H 0.19195 0.04699 0.45294 0.0
H438 H 0.17662 0.09463 0.41638 0.0
H439 H 0.14944 0.09107 0.49355 0.0
H440 H 0.14334 0.10015 0.37814 0.0
H441 H 0.08407 0.03204 0.22489 0.0
H442 H 0.05273 0.02956 0.35075 0.0
H443 H 0.1145 0.05195 0.5394 0.0
C444 C 0.18574 0.05645 0.25449 0.0
C445 C 0.18879 0.05078 0.16046 0.0
C446 C 0.16606 0.04346 0.11057 0.0
C447 C 0.14123 0.04095 0.15389 0.0
C448 C 0.13913 0.04629 0.24709 0.0
C449 C 0.16086 0.05422 0.29642 0.0
C450 C 0.15372 0.05828 0.39598 0.0
C451 C 0.17095 0.04098 0.45721 0.0
C452 C 0.15592 0.08778 0.42261 0.0
C453 C 0.12501 0.04952 0.39707 0.0
C454 C 0.11673 0.0436 0.30988 0.0
C455 C 0.09067 0.03635 0.29306 0.0
C456 C 0.07288 0.03486 0.36608 0.0
C457 C 0.08088 0.03976 0.45709 0.0
C458 C 0.10755 0.0474 0.47183 0.0
H459 H 0.44245 0.15931 0.14897 0.0
H460 H 0.51557 0.20248 0.12319 0.0
H461 H 0.53553 0.17462 0.24312 0.0
H462 H 0.44352 0.15023 0.38901 0.0
H463 H 0.43067 0.11705 0.38334 0.0
H464 H 0.42226 0.14055 0.29695 0.0
H465 H 0.439 0.10724 0.17909 0.0
H466 H 0.45145 0.08345 0.2593 0.0
H467 H 0.47344 0.09714 0.17898 0.0
H468 H 0.54688 0.14054 0.37182 0.0
H469 H 0.54894 0.10388 0.48148 0.0
H470 H 0.46854 0.08261 0.41649 0.0
C471 C 0.46269 0.16303 0.16855 0.0
C472 C 0.47737 0.18324 0.1262 0.0
C473 C 0.50387 0.18714 0.15381 0.0
C474 C 0.5153 0.17145 0.22256 0.0
C475 C 0.50006 0.15183 0.26346 0.0
C476 C 0.47434 0.1476 0.23656 0.0
C477 C 0.46239 0.12461 0.28719 0.0
C478 C 0.43825 0.13362 0.34232 0.0
C479 C 0.45605 0.10177 0.22201 0.0
C480 C 0.48483 0.11658 0.34798 0.0
C481 C 0.50656 0.13245 0.33393 0.0
C482 C 0.52984 0.12813 0.38211 0.0
C483 C 0.53082 0.10715 0.44439 0.0
C484 C 0.50895 0.09008 0.45716 0.0
C485 C 0.48568 0.09504 0.40792 0.0
H486 H 0.35679 0.47262 0.26659 0.0
H487 H 0.38274 0.52808 0.06555 0.0
H488 H 0.42247 0.53782 0.15785 0.0
H489 H 0.37557 0.50685 0.45915 0.0
H490 H 0.38799 0.47921 0.52241 0.0
H491 H 0.36322 0.47391 0.43692 0.0
H492 H 0.39307 0.43948 0.3551 0.0
H493 H 0.4176 0.44411 0.44206 0.0
H494 H 0.42625 0.44845 0.32528 0.0
H495 H 0.45706 0.54614 0.28613 0.0
H496 H 0.48647 0.54588 0.42022 0.0
H497 H 0.43992 0.48327 0.5358 0.0
C498 C 0.37149 0.48585 0.23974 0.0
C499 C 0.36676 0.49889 0.15616 0.0
C500 C 0.38609 0.51702 0.1267 0.0
C501 C 0.40864 0.523 0.17995 0.0
C502 C 0.41214 0.51057 0.26332 0.0
C503 C 0.39449 0.49159 0.2915 0.0
C504 C 0.40282 0.48102 0.38386 0.0
C505 C 0.38109 0.48552 0.45472 0.0
C506 C 0.41037 0.45152 0.37611 0.0
C507 C 0.427 0.49791 0.40556 0.0
C508 C 0.43209 0.51487 0.33518 0.0
C509 C 0.45313 0.53274 0.3409 0.0
C510 C 0.46963 0.53277 0.41835 0.0
C511 C 0.46522 0.51525 0.49093 0.0
C512 C 0.44353 0.49751 0.48324 0.0
H513 H 0.01624 0.354 0.27034 0.0
H514 H 0.07323 0.38257 0.07799 0.0
H515 H 0.07766 0.42426 0.16973 0.0
H516 H 0.98401 0.41617 0.31011 0.0
H517 H 0.97773 0.40971 0.42727 0.0
H518 H 0.98039 0.38256 0.34792 0.0
H519 H 0.01718 0.36153 0.4453 0.0
H520 H 0.01474 0.38867 0.52523 0.0
H521 H 0.046 0.3807 0.47377 0.0
H522 H 0.0743 0.4647 0.2901 0.0
H523 H 0.06198 0.49744 0.40893 0.0
H524 H 1.0081 0.44078 0.52156 0.0
C525 C 0.02978 0.36896 0.24707 0.0
C526 C 0.04432 0.36466 0.16596 0.0
C527 C 0.06173 0.38505 0.13907 0.0
C528 C 0.06441 0.40887 0.1915 0.0
C529 C 0.04968 0.41226 0.27149 0.0
C530 C 0.03266 0.39261 0.29842 0.0
C531 C 0.01812 0.40085 0.38441 0.0
C532 C 0.9883 0.40242 0.36636 0.0
C533 C 0.02439 0.3818 0.46174 0.0
C534 C 0.02954 0.42823 0.4035 0.0
C535 C 0.04774 0.43463 0.3379 0.0
C536 C 0.06008 0.45943 0.34111 0.0
C537 C 0.05303 0.47803 0.41004 0.0
C538 C 0.03382 0.47229 0.47708 0.0
C539 C 0.02262 0.44651 0.47351 0.0
H540 H 0.87669 0.95379 0.14878 0.0
H541 H 0.84906 0.03337 0.20941 0.0
H542 H 0.881 0.05097 0.09778 0.0
H543 H 0.94571 0.96943 0.11843 0.0
H544 H 0.95006 0.94644 0.02611 0.0
H545 H 0.92572 0.93988 0.11193 0.0
H546 H 0.89001 0.9359 0.98746 0.0
H547 H 0.91457 0.9419 0.90256 0.0
H548 H 0.88561 0.96263 0.90927 0.0
H549 H 0.9161 0.05928 0.97054 0.0
H550 H 0.95094 0.0578 0.85358 0.0
H551 H 0.95719 0.97273 0.8811 0.0
C552 C 0.87736 0.97501 0.13912 0.0
C553 C 0.86014 0.99215 0.18891 0.0
C554 C 0.86185 0.01973 0.1731 0.0
C555 C 0.88001 0.02987 0.10926 0.0
C556 C 0.8965 1.01228 0.06091 0.0
C557 C 0.89529 0.98538 0.07579 0.0
C558 C 0.91487 0.97049 0.01534 0.0
C559 C 0.93525 0.95561 0.07178 0.0
C560 C 0.9004 0.95161 0.94979 0.0
C561 C 0.92787 0.99299 0.96482 0.0
C562 C 0.91673 1.017 0.99103 0.0
C563 C 0.92497 0.04051 0.95119 0.0
C564 C 0.94493 0.03947 0.88455 0.0
C565 C 0.95739 1.01526 0.8587 0.0
C566 C 0.94856 0.99167 0.89998 0.0
H567 H 0.59434 0.88589 0.14162 0.0
H568 H 0.51847 0.84681 0.14886 0.0
H569 H 0.50145 0.87822 0.03517 0.0
H570 H 0.57076 0.9535 0.1138 0.0
H571 H 0.59635 0.9626 0.03622 0.0
H572 H 0.6028 0.93733 0.11784 0.0
H573 H 0.61632 0.90497 0.99212 0.0
H574 H 0.60959 0.92971 0.90844 0.0
H575 H 0.59371 0.89788 0.90094 0.0
H576 H 0.49317 0.91289 0.91506 0.0
H577 H 0.49298 0.94964 0.80716 0.0
H578 H 0.57357 0.96859 0.88016 0.0
C579 C 0.57402 0.88412 0.11994 0.0
C580 C 0.55766 0.86384 0.15524 0.0
C581 C 0.53133 0.86216 0.12414 0.0
C582 C 0.52155 0.87992 0.05904 0.0
C583 C 0.53823 0.8995 0.02532 0.0
C584 C 0.56391 0.90184 0.0551 0.0
C585 C 0.57782 0.92438 0.00628 0.0
C586 C 0.58749 0.94574 0.07276 0.0
C587 C 0.60072 0.91358 0.94852 0.0
C588 C 0.55572 0.935 0.94709 0.0
C589 C 0.53325 0.91991 0.95775 0.0
C590 C 0.51059 0.92495 0.90745 0.0
C591 C 0.51071 0.94596 0.84591 0.0
C592 C 0.53311 0.96239 0.83531 0.0
C593 C 0.55596 0.95677 0.88733 0.0
H594 H 0.67579 0.59204 0.06481 0.0
H595 H 0.67058 0.52465 0.24135 0.0
H596 H 0.63406 0.50665 0.14639 0.0
H597 H 0.60914 0.60035 0.02535 0.0
H598 H 0.61114 0.60925 0.90794 0.0
H599 H 0.6384 0.6159 0.98292 0.0
H600 H 0.67015 0.58851 0.88285 0.0
H601 H 0.64366 0.58228 0.80418 0.0
H602 H 0.66176 0.55494 0.85125 0.0
H603 H 0.59379 0.49845 0.03517 0.0
H604 H 0.55803 0.50003 0.92065 0.0
H605 H 0.59146 0.57151 0.81221 0.0
C606 C 0.66732 0.57317 0.08276 0.0
C607 C 0.67645 0.5597 0.16085 0.0
C608 C 0.66445 0.53524 0.18176 0.0
C609 C 0.64346 0.52496 0.12808 0.0
C610 C 0.63479 0.53893 0.052 0.0
C611 C 0.64687 0.56234 0.02869 0.0
C612 C 0.63393 0.574 0.94492 0.0
C613 C 0.62248 0.60157 0.96634 0.0
C614 C 0.65355 0.57499 0.86614 0.0
C615 C 0.61212 0.55404 0.92541 0.0
C616 C 0.6129 0.53381 0.98756 0.0
C617 C 0.59367 0.51393 0.98532 0.0
C618 C 0.57344 0.51479 0.91899 0.0
C619 C 0.57245 0.53507 0.85354 0.0
C620 C 0.59211 0.55506 0.85836 0.0
H621 H 0.01472 0.7032 0.04736 0.0
H622 H 0.96529 0.66522 0.24499 0.0
H623 H 0.96902 0.6229 0.16031 0.0
H624 H 0.98971 0.66952 0.85304 0.0
H625 H 0.02074 0.66521 0.79554 0.0
H626 H 0.0162 0.69254 0.87373 0.0
H627 H 0.05679 0.67748 0.96634 0.0
H628 H 0.06179 0.6507 0.88651 0.0
H629 H 0.05861 0.64378 1.00497 0.0
H630 H 0.9742 0.58527 0.04575 0.0
H631 H 0.98638 0.55362 0.92631 0.0
H632 H 0.0345 0.61321 0.80137 0.0
C633 C 1.00567 0.68569 0.07491 0.0
C634 C 0.99046 0.68763 0.15595 0.0
C635 C 0.97779 0.66433 0.18576 0.0
C636 C 0.9795 0.64014 0.137 0.0
C637 C 0.99397 0.63902 0.05682 0.0
C638 C 1.00737 0.66099 0.02668 0.0
C639 C 0.0215 0.65399 0.93779 0.0
C640 C 1.01144 0.67136 0.86047 0.0
C641 C 0.05146 0.65664 0.94962 0.0
C642 C 1.01365 0.62493 0.92232 0.0
C643 C 0.99751 0.61696 0.99166 0.0
C644 C 0.98715 0.5914 0.99199 0.0
C645 C 0.99416 0.57332 0.92241 0.0
C646 C 1.01165 0.58006 0.85146 0.0
C647 C 0.02109 0.60674 0.85195 0.0
H648 H 0.10029 0.22218 0.20785 0.0
H649 H 0.04933 0.28926 0.26492 0.0
H650 H 0.02421 0.26315 0.36989 0.0
H651 H 0.05976 0.18284 0.16162 0.0
H652 H 0.06999 0.15232 0.2132 0.0
H653 H 0.09391 0.1772 0.19052 0.0
H654 H 0.10802 0.1795 0.35853 0.0
H655 H 0.08494 0.15335 0.38144 0.0
H656 H 0.08345 0.18401 0.44519 0.0
H657 H 0.99253 0.22858 0.39083 0.0
H658 H 0.96488 0.18842 0.37969 0.0
H659 H 0.03377 0.14183 0.30797 0.0
C660 C 0.0851 0.23166 0.24829 0.0
C661 C 0.07597 0.25705 0.22522 0.0
C662 C 0.0565 0.26955 0.27968 0.0
C663 C 0.0418 0.25468 0.33975 0.0
C664 C 0.04751 0.22781 0.34635 0.0
C665 C 0.06979 0.21657 0.3066 0.0
C666 C 0.06827 0.18658 0.30665 0.0
C667 C 0.07325 0.17407 0.21241 0.0
C668 C 0.08729 0.17519 0.37719 0.0
C669 C 0.04003 0.18323 0.33585 0.0
C670 C 0.02867 0.20706 0.36179 0.0
C671 C 1.00152 0.20956 0.37567 0.0
C672 C 0.98584 0.18693 0.36671 0.0
C673 C 0.99741 0.16236 0.34311 0.0
C674 C 0.02472 0.16055 0.32733 0.0
H675 H 0.33762 0.10376 0.14459 0.0
H676 H 0.26543 0.07529 0.26588 0.0
H677 H 0.29033 0.06005 0.39571 0.0
H678 H 0.35488 0.03945 0.16062 0.0
H679 H 0.38998 0.04481 0.16032 0.0
H680 H 0.36851 0.068 0.10658 0.0
H681 H 0.38752 0.10583 0.20178 0.0
H682 H 0.40829 0.08311 0.26269 0.0
H683 H 0.3862 0.10468 0.32379 0.0
H684 H 0.32229 0.03336 0.4827 0.0
H685 H 0.35649 0.99969 0.51495 0.0
H686 H 0.40678 0.03357 0.31119 0.0
C687 C 0.3268 0.09497 0.19947 0.0
C688 C 0.29975 0.08949 0.19117 0.0
C689 C 0.2863 0.07947 0.26763 0.0
C690 C 0.30045 0.07032 0.34237 0.0
C691 C 0.32785 0.07047 0.33793 0.0
C692 C 0.34082 0.08214 0.26666 0.0
C693 C 0.36811 0.07085 0.25499 0.0
C694 C 0.37049 0.05483 0.16547 0.0
C695 C 0.38874 0.09261 0.26109 0.0
C696 C 0.36945 0.05268 0.33448 0.0
C697 C 0.34602 0.05259 0.38181 0.0
C698 C 0.34105 0.03393 0.44819 0.0
C699 C 0.36045 1.01483 0.46573 0.0
C700 C 0.38437 1.01466 0.41696 0.0
C701 C 0.38907 0.03411 0.35203 0.0
H702 H 0.46558 0.31094 0.29936 0.0
H703 H 0.51705 0.28236 0.08525 0.0
H704 H 0.53909 0.32525 0.08288 0.0
H705 H 0.45728 0.37204 0.26913 0.0
H706 H 0.46577 0.38774 0.37539 0.0
H707 H 0.45544 0.35369 0.3726 0.0
H708 H 0.49833 0.33808 0.4501 0.0
H709 H 0.50805 0.37233 0.45997 0.0
H710 H 0.52968 0.34847 0.40639 0.0
H711 H 0.53662 0.37425 0.05856 0.0
H712 H 0.54443 0.42153 0.08556 0.0
H713 H 0.51334 0.41378 0.35825 0.0
C714 C 0.48305 0.31283 0.25817 0.0
C715 C 0.48854 0.29441 0.18805 0.0
C716 C 0.51211 0.29682 0.13743 0.0
C717 C 0.52435 0.32132 0.13368 0.0
C718 C 0.51556 0.3409 0.19278 0.0
C719 C 0.49821 0.33593 0.26213 0.0
C720 C 0.49566 0.36006 0.32387 0.0
C721 C 0.46681 0.36889 0.33579 0.0
C722 C 0.50871 0.35442 0.41551 0.0
C723 C 0.51149 0.37993 0.27029 0.0
C724 C 0.52139 0.36843 0.19264 0.0
C725 C 0.5318 0.3832 0.12322 0.0
C726 C 0.53623 0.40999 0.13967 0.0
C727 C 0.53265 0.42085 0.22759 0.0
C728 C 0.518 0.40615 0.29162 0.0
H729 H 0.22622 0.4504 0.25158 0.0
H730 H 0.27999 0.51616 0.23308 0.0
H731 H 0.24849 0.54508 0.30942 0.0
H732 H 0.17807 0.47272 0.18285 0.0
H733 H 0.1516 0.46309 0.25639 0.0
H734 H 0.1813 0.44401 0.25367 0.0
H735 H 0.18838 0.4505 0.42523 0.0
H736 H 0.15769 0.46867 0.43059 0.0
H737 H 0.18748 0.48334 0.47441 0.0
H738 H 0.20754 0.5688 0.2984 0.0
H739 H 0.162 0.5842 0.26806 0.0
H740 H 0.13337 0.50441 0.30416 0.0
C741 C 0.23201 0.47021 0.272 0.0
C742 C 0.25478 0.48137 0.23522 0.0
C743 C 0.26241 0.50732 0.26087 0.0
C744 C 0.24445 0.52407 0.30391 0.0
C745 C 0.2198 0.51394 0.32453 0.0
C746 C 0.21412 0.48706 0.31595 0.0
C747 C 0.18491 0.48217 0.32652 0.0
C748 C 0.17336 0.46451 0.2502 0.0
C749 C 0.17926 0.47048 0.41974 0.0
C750 C 0.17498 0.51031 0.32176 0.0
C751 C 0.19532 0.52845 0.32392 0.0
C752 C 0.19128 0.55506 0.30244 0.0
C753 C 0.16566 0.56353 0.2827 0.0
C754 C 0.14479 0.54528 0.28378 0.0
C755 C 0.14941 0.51852 0.30371 0.0
H756 H 0.96837 0.78942 0.06518 0.0
H757 H 0.91943 0.8381 0.24098 0.0
H758 H 0.93159 0.8774 0.15432 0.0
H759 H 0.01788 0.82434 0.07276 0.0
H760 H 0.03004 0.82155 0.95876 0.0
H761 H 1.0097 0.79596 1.0029 0.0
H762 H 0.97546 0.80116 0.87463 0.0
H763 H 0.99648 0.82576 0.82514 0.0
H764 H 0.96248 0.83354 0.84912 0.0
H765 H 0.96505 0.90964 0.10548 0.0
H766 H 1.00256 0.93504 0.04454 0.0
H767 H 0.02783 0.86529 0.89394 0.0
C768 C 0.95845 0.80784 0.08189 0.0
C769 C 0.94452 0.81106 0.16386 0.0
C770 C 0.93133 0.83545 0.18083 0.0
C771 C 0.93829 0.85798 0.13222 0.0
C772 C 0.95663 0.85502 0.06276 0.0
C773 C 0.96527 0.83029 0.03368 0.0
C774 C 0.98807 0.83245 0.96844 0.0
C775 C 1.01283 0.81773 1.00287 0.0
C776 C 0.98014 0.82265 0.87367 0.0
C777 C 0.99211 0.86202 0.97044 0.0
C778 C 0.974 0.87473 0.02575 0.0
C779 C 0.97766 0.90086 0.05445 0.0
C780 C 0.99928 0.91489 0.02098 0.0
C781 C 0.0175 0.90224 0.96232 0.0
C782 C 1.01364 0.87562 0.93631 0.0
H783 H 0.72494 0.94336 0.10851 0.0
H784 H 0.75186 1.0112 0.26692 0.0
H785 H 0.71126 0.03445 0.23743 0.0
H786 H 0.70917 0.99258 0.93696 0.0
H787 H 0.68335 0.97314 0.88535 0.0
H788 H 0.71033 0.95691 0.94125 0.0
H789 H 0.67645 0.93231 0.04091 0.0
H790 H 0.64953 0.94958 0.98768 0.0
H791 H 0.65341 0.95125 0.10868 0.0
H792 H 0.66789 0.04934 0.20612 0.0
H793 H 0.63918 0.07149 0.09656 0.0
H794 H 0.64606 1.00384 0.91414 0.0
C795 C 0.72216 0.96313 0.13633 0.0
C796 C 0.74028 0.97422 0.19824 0.0
C797 C 0.7373 1.00113 0.22612 0.0
C798 C 0.71399 1.01452 0.21103 0.0
C799 C 0.69514 1.00211 0.1583 0.0
C800 C 0.70017 0.97852 0.11278 0.0
C801 C 0.68152 0.97526 0.03341 0.0
C802 C 0.697 0.97444 0.94397 0.0
C803 C 0.6642 0.95062 0.04338 0.0
C804 C 0.66546 1.00063 0.04355 0.0
C805 C 0.6725 1.01443 0.12099 0.0
C806 C 0.66219 0.03911 0.14443 0.0
C807 C 0.64612 0.05152 0.08223 0.0
C808 C 0.64132 0.0393 0.99793 0.0
C809 C 0.64971 1.01312 0.97934 0.0
H810 H 0.56517 0.76056 0.06853 0.0
H811 H 0.63348 0.72547 0.19466 0.0
H812 H 0.62502 0.68361 0.11315 0.0
H813 H 0.52752 0.71595 0.12525 0.0
H814 H 0.50542 0.71402 0.02998 0.0
H815 H 0.5229 0.74405 0.05274 0.0
H816 H 0.54381 0.74329 0.89354 0.0
H817 H 0.52525 0.71375 0.86726 0.0
H818 H 0.56052 0.71387 0.85289 0.0
H819 H 0.59958 0.64402 0.08221 0.0
H820 H 0.56424 0.61034 0.07165 0.0
H821 H 0.5103 0.66972 0.973 0.0
C822 C 0.57961 0.74476 0.0727 0.0
C823 C 0.59967 0.74593 0.13859 0.0
C824 C 0.61804 0.72487 0.14407 0.0
C825 C 0.61305 0.70085 0.09883 0.0
C826 C 0.59011 0.69872 0.047 0.0
C827 C 0.57404 0.72045 0.03114 0.0
C828 C 0.54746 0.71208 0.99376 0.0
C829 C 0.52454 0.7221 0.05408 0.0
C830 C 0.54408 0.72128 0.89601 0.0
C831 C 0.55028 0.68233 0.99778 0.0
C832 C 0.57516 0.67498 0.02701 0.0
C833 C 0.5807 0.6491 0.05315 0.0
C834 C 0.56056 0.63023 0.04788 0.0
C835 C 0.53519 0.63756 0.01843 0.0
C836 C 0.53005 0.66369 0.99178 0.0
H837 H 0.81994 0.60872 0.10083 0.0
H838 H 0.76064 0.54797 0.13714 0.0
H839 H 0.79094 0.51451 0.08156 0.0
H840 H 0.8495 0.5666 0.8831 0.0
H841 H 0.88147 0.5802 0.90824 0.0
H842 H 0.85231 0.60049 0.92149 0.0
H843 H 0.86641 0.6106 0.08633 0.0
H844 H 0.8947 0.58941 0.07621 0.0
H845 H 0.87083 0.58362 0.16389 0.0
H846 H 0.83091 0.48729 0.08407 0.0
H847 H 0.87544 0.46747 0.07884 0.0
H848 H 0.90823 0.54504 0.02507 0.0
C849 C 0.8127 0.58878 0.09002 0.0
C850 C 0.78836 0.58112 0.12701 0.0
C851 C 0.77939 0.55469 0.11184 0.0
C852 C 0.79653 0.53518 0.07996 0.0
C853 C 0.82171 0.54274 0.05597 0.0
C854 C 0.82917 0.5691 0.05304 0.0
C855 C 0.85797 0.5713 0.02809 0.0
C856 C 0.86048 0.58018 0.92944 0.0
C857 C 0.87335 0.58979 0.09267 0.0
C858 C 0.86625 0.5426 0.03669 0.0
C859 C 0.84488 0.52633 0.04958 0.0
C860 C 0.84776 0.49948 0.0687 0.0
C861 C 0.87313 0.48852 0.06782 0.0
C862 C 0.89517 0.50455 0.04932 0.0
C863 C 0.89162 0.53208 0.0362 0.0
H864 H 0.08314 0.20174 0.96719 0.0
H865 H 0.02795 0.25216 0.82405 0.0
H866 H 0.01472 0.21317 0.7307 0.0
H867 H 0.10111 0.15489 0.79208 0.0
H868 H 0.10004 0.12691 0.86642 0.0
H869 H 0.10793 0.15933 0.9109 0.0
H870 H 0.07008 0.15629 0.02558 0.0
H871 H 0.06253 0.12393 0.98278 0.0
H872 H 0.03714 0.14888 0.98684 0.0
H873 H 1.00474 0.16548 0.65963 0.0
H874 H 0.99773 0.11798 0.62804 0.0
H875 H 0.05727 0.09864 0.82591 0.0
C876 C 0.06787 0.20515 0.91772 0.0
C877 C 0.05626 0.23099 0.90696 0.0
C878 C 0.03741 0.23329 0.83617 0.0
C879 C 0.0296 0.21091 0.78251 0.0
C880 C 0.04045 0.18574 0.79954 0.0
C881 C 0.05925 0.18296 0.86595 0.0
C882 C 0.06617 0.1537 0.8786 0.0
C883 C 0.09557 0.14842 0.86089 0.0
C884 C 0.05845 0.14522 0.97412 0.0
C885 C 0.04891 0.14007 0.80728 0.0
C886 C 0.03424 0.15892 0.76209 0.0
C887 C 0.01624 0.1509 0.69559 0.0
C888 C 1.01247 0.12346 0.67763 0.0
C889 C 0.02658 0.10331 0.72444 0.0
C890 C 0.04568 0.11239 0.78864 0.0
H891 H 0.34431 0.09086 0.91717 0.0
H892 H 0.29841 0.02489 0.81156 0.0
H893 H 0.3371 1.01095 0.71941 0.0
H894 H 0.38984 0.10476 0.73506 0.0
H895 H 0.41743 0.10784 0.81151 0.0
H896 H 0.38465 0.11579 0.85007 0.0
H897 H 0.39147 0.08397 0.97892 0.0
H898 H 0.42263 0.07227 0.93862 0.0
H899 H 0.39685 0.04903 0.9563 0.0
H900 H 0.38402 1.00067 0.6547 0.0
H901 H 0.43111 0.99467 0.6256 0.0
H902 H 0.44799 0.06593 0.7814 0.0
C903 C 0.34187 0.07335 0.87507 0.0
C904 C 0.31762 0.05872 0.87515 0.0
C905 C 0.31618 0.03664 0.81483 0.0
C906 C 0.33836 0.02845 0.7622 0.0
C907 C 0.36233 0.04225 0.77022 0.0
C908 C 0.36399 0.06438 0.82519 0.0
C909 C 0.39263 0.07327 0.83496 0.0
C910 C 0.39633 0.10214 0.80609 0.0
C911 C 0.40133 0.0694 0.93318 0.0
C912 C 0.40709 0.05392 0.7717 0.0
C913 C 0.38914 0.03598 0.73601 0.0
C914 C 0.39787 1.01499 0.68162 0.0
C915 C 0.42512 1.01185 0.66503 0.0
C916 C 0.44447 0.02964 0.70049 0.0
C917 C 0.43473 0.05152 0.75316 0.0
H918 H 0.50125 0.31493 0.85719 0.0
H919 H 0.42189 0.32957 0.95438 0.0
H920 H 0.42371 0.375 0.89716 0.0
H921 H 0.53025 0.37498 0.89796 0.0
H922 H 0.54743 0.37899 0.7927 0.0
H923 H 0.53934 0.34628 0.83077 0.0
H924 H 0.51464 0.33689 0.68022 0.0
H925 H 0.52299 0.36965 0.64237 0.0
H926 H 0.48908 0.35934 0.64463 0.0
H927 H 0.43523 0.4204 0.84769 0.0
H928 H 0.45366 0.46167 0.79157 0.0
H929 H 0.52616 0.42104 0.7202 0.0
C930 C 0.48381 0.32727 0.86247 0.0
C931 C 0.46121 0.31812 0.91046 0.0
C932 C 0.43924 0.33557 0.91744 0.0
C933 C 0.44017 0.36168 0.88564 0.0
C934 C 0.46295 0.37045 0.84309 0.0
C935 C 0.48407 0.35361 0.82785 0.0
C936 C 0.50581 0.36872 0.778 0.0
C937 C 0.53228 0.36713 0.82793 0.0
C938 C 0.5083 0.358 0.68058 0.0
C939 C 0.49481 0.39714 0.77777 0.0
C940 C 0.46968 0.39719 0.81344 0.0
C941 C 0.45496 0.4205 0.82013 0.0
C942 C 0.46597 0.4443 0.78992 0.0
C943 C 0.49196 0.44563 0.75535 0.0
C944 C 0.5064 0.42124 0.74761 0.0
H945 H 0.23223 0.5137 0.85199 0.0
H946 H 0.21988 0.43592 0.9654 0.0
H947 H 0.17473 0.43559 0.90637 0.0
H948 H 0.1718 0.54305 0.87391 0.0
H949 H 0.16733 0.55615 0.76214 0.0
H950 H 0.20006 0.55015 0.80463 0.0
H951 H 0.2104 0.52019 0.66645 0.0
H952 H 0.17772 0.52612 0.62247 0.0
H953 H 0.18907 0.49273 0.64008 0.0
H954 H 0.12841 0.44593 0.85749 0.0
H955 H 0.08662 0.46217 0.79642 0.0
H956 H 0.12602 0.53183 0.69492 0.0
C957 C 0.22049 0.4961 0.86103 0.0
C958 C 0.23036 0.47481 0.91534 0.0
C959 C 0.21351 0.4525 0.92487 0.0
C960 C 0.18743 0.45218 0.89197 0.0
C961 C 0.17793 0.47376 0.84378 0.0
C962 C 0.19423 0.49475 0.82377 0.0
C963 C 0.17867 0.51433 0.76445 0.0
C964 C 0.17951 0.54261 0.80374 0.0
C965 C 0.18962 0.51334 0.66764 0.0
C966 C 0.15052 0.50288 0.76541 0.0
C967 C 0.15105 0.479 0.80987 0.0
C968 C 0.12799 0.46445 0.8215 0.0
C969 C 0.10394 0.47416 0.78694 0.0
C970 C 0.10206 0.49864 0.74086 0.0
C971 C 0.1262 0.51303 0.72924 0.0
H972 H 1.01247 0.84427 0.32522 0.0
H973 H 0.97617 0.80744 0.55511 0.0
H974 H 0.98036 0.84974 0.64241 0.0
H975 H 0.05914 0.88763 0.44076 0.0
H976 H 0.05338 0.91437 0.36345 0.0
H977 H 0.04911 0.88058 0.32597 0.0
H978 H 1.00075 0.89118 0.27675 0.0
H979 H 1.00628 0.92487 0.31203 0.0
H980 H 0.97889 0.90679 0.35735 0.0
H981 H 0.98453 0.90063 0.69867 0.0
H982 H 0.99459 0.9485 0.72222 0.0
H983 H 0.03273 0.94933 0.46145 0.0
C984 C 1.00671 0.8446 0.39562 0.0
C985 C 0.99521 0.82165 0.43405 0.0
C986 C 0.98621 0.82398 0.52471 0.0
C987 C 0.98802 0.84831 0.57433 0.0
C988 C 0.99859 0.87076 0.53272 0.0
C989 C 1.00819 0.86874 0.44551 0.0
C990 C 0.01749 0.89564 0.41309 0.0
C991 C 0.04652 0.89448 0.3842 0.0
C992 C 0.99979 0.90517 0.33529 0.0
C993 C 1.01349 0.91299 0.49724 0.0
C994 C 1.00137 0.89876 0.56452 0.0
C995 C 0.9941 0.91158 0.64573 0.0
C996 C 0.9997 0.93906 0.65843 0.0
C997 C 1.01329 0.95376 0.59194 0.0
C998 C 0.02074 0.93984 0.5115 0.0
H999 H 0.69845 0.96886 0.36035 0.0
H1000 H 0.74828 1.00561 0.5648 0.0
H1001 H 0.70766 0.02124 0.64432 0.0
H1002 H 0.64938 1.01565 0.35004 0.0
H1003 H 0.62357 0.99172 0.33452 0.0
H1004 H 0.65628 0.9837 0.2988 0.0
H1005 H 0.65508 0.94184 0.39602 0.0
H1006 H 0.62244 0.94983 0.43582 0.0
H1007 H 0.6487 0.94479 0.5155 0.0
H1008 H 0.65806 0.03369 0.69939 0.0
H1009 H 0.61032 0.04197 0.7162 0.0
H1010 H 0.5954 0.99351 0.48044 0.0
C1011 C 0.70168 0.97909 0.42385 0.0
C1012 C 0.72773 0.98471 0.45666 0.0
C1013 C 0.72922 1.00033 0.53726 0.0
C1014 C 0.70598 1.00925 0.58342 0.0
C1015 C 0.68089 1.00244 0.54941 0.0
C1016 C 0.67897 0.98744 0.47134 0.0
C1017 C 0.65029 0.98275 0.44541 0.0
C1018 C 0.64458 0.99418 0.35171 0.0
C1019 C 0.64376 0.95304 0.44828 0.0
C1020 C 0.63573 0.99797 0.51974 0.0
C1021 C 0.6536 1.00913 0.57975 0.0
C1022 C 0.64435 0.02465 0.65223 0.0
C1023 C 0.6168 0.02918 0.66181 0.0
C1024 C 0.59781 0.0183 0.60076 0.0
C1025 C 0.60809 1.00207 0.52968 0.0
H1026 H 0.54513 0.70541 0.30595 0.0
H1027 H 0.56454 0.75264 0.54305 0.0
H1028 H 0.5581 0.71302 0.63862 0.0
H1029 H 0.49591 0.66167 0.41286 0.0
H1030 H 0.50646 0.63332 0.34665 0.0
H1031 H 0.50939 0.66618 0.30162 0.0
H1032 H 0.55903 0.65758 0.27411 0.0
H1033 H 0.55642 0.62504 0.32152 0.0
H1034 H 0.57985 0.64838 0.36749 0.0
H1035 H 0.55161 0.66655 0.70728 0.0
H1036 H 0.54397 0.61949 0.74324 0.0
H1037 H 0.53194 0.60144 0.4593 0.0
C1038 C 0.5472 0.70768 0.37847 0.0
C1039 C 0.5548 0.73258 0.41691 0.0
C1040 C 0.558 0.73427 0.51189 0.0
C1041 C 0.55473 0.71164 0.56651 0.0
C1042 C 0.54834 0.68723 0.52554 0.0
C1043 C 0.54436 0.68526 0.43349 0.0
C1044 C 0.53879 0.65664 0.40481 0.0
C1045 C 0.51099 0.65431 0.36408 0.0
C1046 C 0.55978 0.64631 0.33805 0.0
C1047 C 0.54058 0.64247 0.49492 0.0
C1048 C 0.54584 0.66057 0.56387 0.0
C1049 C 0.54756 0.65241 0.65345 0.0
C1050 C 0.54326 0.6255 0.6733 0.0
C1051 C 0.53772 0.60649 0.60436 0.0
C1052 C 0.53672 0.61522 0.51355 0.0
H1053 H 0.81178 0.57591 0.52711 0.0
H1054 H 0.82463 0.54577 0.25495 0.0
H1055 H 0.8708 0.53639 0.29158 0.0
H1056 H 0.87455 0.60443 0.56998 0.0
H1057 H 0.87908 0.59261 0.68332 0.0
H1058 H 0.84631 0.59731 0.63919 0.0
H1059 H 0.83509 0.54873 0.67466 0.0
H1060 H 0.86781 0.54401 0.71948 0.0
H1061 H 0.85575 0.52243 0.63074 0.0
H1062 H 0.91714 0.53609 0.34775 0.0
H1063 H 0.95911 0.5338 0.43105 0.0
H1064 H 0.91864 0.55574 0.67892 0.0
C1065 C 0.824 0.5663 0.47648 0.0
C1066 C 0.81386 0.56143 0.3872 0.0
C1067 C 0.83125 0.54941 0.32347 0.0
C1068 C 0.85785 0.54427 0.34351 0.0
C1069 C 0.86738 0.54995 0.42993 0.0
C1070 C 0.85088 0.55958 0.4971 0.0
C1071 C 0.8667 0.56208 0.58591 0.0
C1072 C 0.86665 0.59083 0.62166 0.0
C1073 C 0.85568 0.5432 0.65693 0.0
C1074 C 0.89458 0.55338 0.55646 0.0
C1075 C 0.89427 0.54704 0.4654 0.0
C1076 C 0.91743 0.54029 0.41962 0.0
C1077 C 0.94137 0.53917 0.4677 0.0
C1078 C 0.94258 0.54413 0.56204 0.0
C1079 C 0.91858 0.55138 0.60714 0.0
loop_
_geom_bond_atom_site_label_1
_geom_bond_atom_site_label_2
_geom_bond_distance
_geom_bond_site_symmetry_2
_ccdc_geom_bond_type
H0 C5 0.930 . S
H1 C8 0.930 . S
H2 C10 0.930 . S
H3 C4 1.016 . S
C4 H3 1.016 . S
C4 N11 1.286 . S
C5 H0 0.930 . S
C5 C6 1.397 . S
C5 C7 1.361 . S
C6 C5 1.397 . S
C6 C10 1.390 . S
C7 C5 1.361 . S
C7 C8 1.393 . S
C7 N11 1.413 . S
C8 H1 0.930 . S
C8 C7 1.393 . S
C8 C9 1.399 . S
C9 C8 1.399 . S
C9 C10 1.381 . S
C10 H2 0.930 . S
C10 C6 1.390 . S
C10 C9 1.381 . S
N11 C4 1.286 . S
N11 C7 1.413 . S
H12 C17 0.930 . S
H13 C20 0.930 . S
H14 C22 0.930 . S
H15 C16 1.016 . S
C16 H15 1.016 . S
C16 N23 1.286 . S
C17 H12 0.930 . S
C17 C18 1.397 . S
C17 C19 1.361 . S
C18 C17 1.397 . S
C18 C22 1.390 . S
C19 C17 1.361 . S
C19 C20 1.393 . S
C19 N23 1.413 . S
C20 H13 0.930 . S
C20 C19 1.393 . S
C20 C21 1.399 . S
C21 C20 1.399 . S
C21 C22 1.381 . S
C22 H14 0.930 . S
C22 C18 1.390 . S
C22 C21 1.381 . S
N23 C16 1.286 . S
N23 C19 1.413 . S
H24 C29 0.930 . S
H25 C32 0.930 . S
H26 C34 0.930 . S
H27 C28 1.016 . S
C28 H27 1.016 . S
C28 N35 1.286 . S
C29 H24 0.930 . S
C29 C30 1.397 . S
C29 C31 1.361 . S
C30 C29 1.397 . S
C30 C34 1.390 . S
C31 C29 1.361 . S
C31 C32 1.393 . S
C31 N35 1.413 . S
C32 H25 0.930 . S
C32 C31 1.393 . S
C32 C33 1.399 . S
C33 C32 1.399 . S
C33 C34 1.381 . S
C34 H26 0.930 . S
C34 C30 1.390 . S
C34 C33 1.381 . S
N35 C28 1.286 . S
N35 C31 1.413 . S
H36 C41 0.930 . S
H37 C44 0.930 . S
H38 C46 0.930 . S
H39 C40 1.016 . S
C40 H39 1.016 . S
C40 N47 1.286 . S
C41 H36 0.930 . S
C41 C42 1.397 . S
C41 C43 1.361 . S
C42 C41 1.397 . S
C42 C46 1.390 . S
C43 C41 1.361 . S
C43 C44 1.393 . S
C43 N47 1.413 . S
C44 H37 0.930 . S
C44 C43 1.393 . S
C44 C45 1.399 . S
C45 C44 1.399 . S
C45 C46 1.381 . S
C46 H38 0.930 . S
C46 C42 1.390 . S
C46 C45 1.381 . S
N47 C40 1.286 . S
N47 C43 1.413 . S
H48 C53 0.930 . S
H49 C56 0.930 . S
H50 C58 0.930 . S
H51 C52 1.016 . S
C52 H51 1.016 . S
C52 N59 1.286 . S
C53 H48 0.930 . S
C53 C54 1.397 . S
C53 C55 1.361 1_556 S
C54 C53 1.397 . S
C54 C58 1.390 . S
C55 C53 1.361 1_554 S
C55 C56 1.393 . S
C55 N59 1.413 . S
C56 H49 0.930 . S
C56 C55 1.393 . S
C56 C57 1.399 . S
C57 C56 1.399 . S
C57 C58 1.381 1_554 S
C58 H50 0.930 . S
C58 C54 1.390 . S
C58 C57 1.381 1_556 S
N59 C52 1.286 . S
N59 C55 1.413 . S
H60 C65 0.930 . S
H61 C68 0.930 . S
H62 C70 0.930 . S
H63 C64 1.016 . S
C64 H63 1.016 . S
C64 N71 1.286 . S
C65 H60 0.930 . S
C65 C66 1.397 . S
C65 C67 1.361 1_556 S
C66 C65 1.397 . S
C66 C70 1.390 . S
C67 C65 1.361 1_554 S
C67 C68 1.393 . S
C67 N71 1.413 . S
C68 H61 0.930 . S
C68 C67 1.393 . S
C68 C69 1.399 . S
C69 C68 1.399 . S
C69 C70 1.381 1_554 S
C70 H62 0.930 . S
C70 C66 1.390 . S
C70 C69 1.381 1_556 S
N71 C64 1.286 . S
N71 C67 1.413 . S
H72 C77 0.930 . S
H73 C80 0.930 . S
H74 C82 0.930 . S
H75 C76 1.016 . S
C76 H75 1.016 . S
C76 N83 1.286 . S
C77 H72 0.930 . S
C77 C78 1.397 . S
C77 C79 1.363 . S
C78 C77 1.397 . S
C78 C82 1.390 . S
C79 C77 1.363 . S
C79 C80 1.391 1_556 S
C79 N83 1.413 1_556 S
C80 H73 0.930 . S
C80 C79 1.391 1_554 S
C80 C81 1.399 . S
C81 C80 1.399 . S
C81 C82 1.381 1_554 S
C82 H74 0.930 . S
C82 C78 1.390 . S
C82 C81 1.381 1_556 S
N83 C76 1.286 . S
N83 C79 1.413 1_554 S
H84 C89 0.930 . S
H85 C92 0.930 . S
H86 C94 0.930 . S
H87 C88 1.016 . S
C88 H87 1.016 . S
C88 N95 1.286 . S
C89 H84 0.930 . S
C89 C90 1.397 . S
C89 C91 1.361 1_556 S
C90 C89 1.397 . S
C90 C94 1.390 . S
C91 C89 1.361 1_554 S
C91 C92 1.393 . S
C91 N95 1.413 . S
C92 H85 0.930 . S
C92 C91 1.393 . S
C92 C93 1.399 . S
C93 C92 1.399 . S
C93 C94 1.381 1_554 S
C94 H86 0.930 . S
C94 C90 1.390 . S
C94 C93 1.381 1_556 S
N95 C88 1.286 . S
N95 C91 1.413 . S
Eu96 N127 2.657 1_565 S
Eu96 N134 2.609 1_565 S
Eu96 O140 2.558 . S
Eu96 O141 2.612 1_455 S
Eu96 O143 2.339 1_455 S
Eu96 O144 2.563 . S
Eu96 O145 2.419 . S
Eu96 O147 2.380 1_565 S
Eu96 O148 2.432 . S
Eu96 C160 2.848 . S
C97 C100 1.429 1_545 S
C97 C101 1.407 1_545 S
C97 N104 1.377 . S
C98 C100 1.420 . S
C98 C102 1.423 . S
C98 C110 1.392 . S
C99 C101 1.438 . S
C99 C102 1.351 . S
C99 H122 0.931 . S
C100 C97 1.429 1_565 S
C100 C98 1.420 . S
C100 N108 1.371 . S
C101 C97 1.407 1_565 S
C101 C99 1.438 . S
C101 C106 1.382 1_565 S
C102 C98 1.423 . S
C102 C99 1.351 . S
C102 H114 0.930 . S
C103 C105 1.400 . S
C103 C106 1.386 . S
C103 H115 0.930 . S
N104 C97 1.377 . S
N104 C105 1.321 . S
N104 Eu107 2.609 . S
C105 C103 1.400 . S
C105 N104 1.321 . S
C105 H112 0.930 . S
C106 C101 1.382 1_545 S
C106 C103 1.386 . S
C106 H125 0.930 . S
Eu107 N104 2.609 . S
Eu107 N108 2.634 1_545 S
Eu107 O141 2.380 1_545 S
Eu107 O142 2.432 . S
Eu107 O146 2.558 . S
Eu107 O147 2.612 1_655 S
Eu107 O149 2.339 1_655 S
Eu107 O150 2.563 1_655 S
Eu107 O151 2.419 . S
Eu107 C171 2.848 . S
N108 C100 1.371 . S
N108 Eu107 2.634 1_565 S
N108 C109 1.350 1_655 S
C109 N108 1.350 1_455 S
C109 C111 1.413 . S
C109 H116 0.929 . S
C110 C98 1.392 . S
C110 C111 1.367 1_655 S
C110 H118 0.930 . S
C111 C109 1.413 . S
C111 C110 1.367 1_455 S
C111 H113 0.930 . S
H112 C105 0.930 . S
H113 C111 0.930 . S
H114 C102 0.930 . S
H115 C103 0.930 . S
H116 C109 0.929 . S
H117 C131 0.930 1_655 S
H118 C110 0.930 . S
H119 C137 0.930 . S
H120 C128 0.929 1_655 S
H121 C135 0.930 . S
H122 C99 0.931 . S
H123 C129 0.930 . S
H124 C162 0.930 . S
H125 C106 0.930 . S
H126 C161 0.931 . S
N127 Eu96 2.657 1_545 S
N127 C128 1.334 . S
N127 C132 1.362 . S
C128 H120 0.929 1_455 S
C128 N127 1.334 . S
C128 C131 1.413 1_556 S
C129 H123 0.930 . S
C129 C130 1.392 . S
C129 C131 1.367 . S
C130 C129 1.392 . S
C130 C132 1.420 1_554 S
C130 C162 1.423 . S
C131 H117 0.930 1_455 S
C131 C128 1.413 1_554 S
C131 C129 1.367 . S
C132 N127 1.362 . S
C132 C130 1.420 1_556 S
C132 C136 1.429 . S
H133 C138 0.930 . S
N134 Eu96 2.609 1_545 S
N134 C136 1.377 . S
N134 C137 1.321 1_545 S
C135 H121 0.930 . S
C135 C137 1.400 . S
C135 C138 1.386 1_565 S
C136 C132 1.429 . S
C136 N134 1.377 . S
C136 C139 1.411 . S
C137 H119 0.930 . S
C137 N134 1.321 1_565 S
C137 C135 1.400 . S
C138 H133 0.930 . S
C138 C135 1.386 1_545 S
C138 C139 1.395 . S
C139 C136 1.411 . S
C139 C138 1.395 . S
C139 C161 1.420 1_556 S
O140 Eu96 2.558 . S
O140 C160 1.257 . S
O141 Eu96 2.612 1_655 S
O141 Eu107 2.380 1_565 S
O141 C152 1.276 . S
O142 Eu107 2.432 . S
O142 C159 1.264 . S
O143 Eu96 2.339 1_655 S
O143 C159 1.254 1_565 S
O144 Eu96 2.563 . S
O144 C152 1.235 1_455 S
O145 Eu96 2.419 . S
O145 C160 1.249 . S
O146 Eu107 2.558 . S
O146 C171 1.257 . S
O147 Eu96 2.380 1_545 S
O147 Eu107 2.612 1_455 S
O147 C163 1.276 . S
O148 Eu96 2.432 . S
O148 C170 1.264 1_565 S
O149 Eu107 2.339 1_455 S
O149 C170 1.254 . S
O150 Eu107 2.563 1_455 S
O150 C163 1.235 . S
O151 Eu107 2.419 . S
O151 C171 1.249 . S
C152 O141 1.276 . S
C152 O144 1.235 1_655 S
C153 C155 1.393 . S
C153 C157 1.395 . S
C153 C160 1.492 . S
C154 C155 1.392 . S
C154 C156 1.386 1_556 S
C155 C153 1.393 . S
C155 C154 1.392 . S
C155 H172 0.972 . S
C156 C154 1.386 1_554 S
C156 C158 1.395 1_554 S
C156 H173 0.930 . S
C157 C153 1.395 . S
C157 C158 1.379 . S
C157 H174 0.930 . S
C158 C156 1.395 1_556 S
C158 C157 1.379 . S
C158 H175 0.930 . S
C159 O142 1.264 . S
C159 O143 1.254 1_545 S
C160 Eu96 2.848 . S
C160 O140 1.257 . S
C160 O145 1.249 . S
C160 C153 1.492 . S
C161 H126 0.931 . S
C161 C139 1.420 1_554 S
C161 C162 1.351 . S
C162 H124 0.930 . S
C162 C130 1.423 . S
C162 C161 1.351 . S
C163 O147 1.276 . S
C163 O150 1.235 . S
C164 C165 1.393 . S
C164 C168 1.395 . S
C164 C171 1.492 . S
C165 C164 1.393 . S
C165 C166 1.392 . S
C165 H176 0.930 1_655 S
C166 C165 1.392 . S
C166 C167 1.386 . S
C167 C166 1.386 . S
C167 C169 1.395 . S
C167 H177 0.930 . S
C168 C164 1.395 . S
C168 C169 1.379 . S
C168 H178 0.930 . S
C169 C167 1.395 . S
C169 C168 1.379 . S
C169 H179 0.930 . S
C170 O148 1.264 1_545 S
C170 O149 1.254 . S
C171 Eu107 2.848 . S
C171 O146 1.257 . S
C171 O151 1.249 . S
C171 C164 1.492 . S
H172 C155 0.972 . S
H173 C156 0.930 . S
H174 C157 0.930 . S
H175 C158 0.930 . S
H176 C165 0.930 1_455 S
H177 C167 0.930 . S
H178 C168 0.930 . S
H179 C169 0.930 . S
Eu180 N211 2.657 . S
Eu180 N218 2.609 . S
Eu180 O224 2.558 . S
Eu180 O225 2.612 1_545 S
Eu180 O227 2.339 1_545 S
Eu180 O228 2.563 . S
Eu180 O229 2.419 . S
Eu180 O231 2.380 . S
Eu180 O232 2.432 . S
Eu180 C244 2.848 . S
C181 C184 1.429 . S
C181 C185 1.411 . S
C181 N188 1.377 . S
C182 C184 1.420 . S
C182 C186 1.423 . S
C182 C194 1.392 . S
C183 C185 1.420 . S
C183 C186 1.351 . S
C183 H206 0.931 . S
C184 C181 1.429 . S
C184 C182 1.420 . S
C184 N192 1.362 . S
C185 C181 1.411 . S
C185 C183 1.420 . S
C185 C190 1.395 . S
C186 C182 1.423 . S
C186 C183 1.351 . S
C186 H198 0.930 . S
C187 C189 1.400 . S
C187 C190 1.386 . S
C187 H199 0.930 . S
N188 C181 1.377 . S
N188 C189 1.321 . S
N188 Eu191 2.609 . S
C189 C187 1.400 . S
C189 N188 1.321 . S
C189 H196 0.930 . S
C190 C185 1.395 . S
C190 C187 1.386 . S
C190 H209 0.930 . S
Eu191 N188 2.609 . S
Eu191 N192 2.657 . S
Eu191 O225 2.380 . S
Eu191 O226 2.432 . S
Eu191 O230 2.558 . S
Eu191 O231 2.612 1_565 S
Eu191 O233 2.339 1_565 S
Eu191 O234 2.563 1_565 S
Eu191 O235 2.419 . S
Eu191 C255 2.848 . S
N192 C184 1.362 . S
N192 Eu191 2.657 . S
N192 C193 1.334 1_565 S
C193 N192 1.334 1_545 S
C193 C195 1.413 . S
C193 H200 0.929 . S
C194 C182 1.392 . S
C194 C195 1.367 1_565 S
C194 H202 0.930 . S
C195 C193 1.413 . S
C195 C194 1.367 1_545 S
C195 H197 0.930 . S
H196 C189 0.930 . S
H197 C195 0.930 . S
H198 C186 0.930 . S
H199 C187 0.930 . S
H200 C193 0.929 . S
H201 C215 0.930 1_565 S
H202 C194 0.930 . S
H203 C221 0.930 . S
H204 C212 0.929 1_565 S
H205 C219 0.930 . S
H206 C183 0.931 . S
H207 C213 0.930 . S
H208 C246 0.930 . S
H209 C190 0.930 . S
H210 C245 0.931 . S
N211 Eu180 2.657 . S
N211 C212 1.334 . S
N211 C216 1.362 . S
C212 H204 0.929 1_545 S
C212 N211 1.334 . S
C212 C215 1.413 1_556 S
C213 H207 0.930 . S
C213 C214 1.392 . S
C213 C215 1.367 . S
C214 C213 1.392 . S
C214 C216 1.420 1_554 S
C214 C246 1.423 . S
C215 H201 0.930 1_545 S
C215 C212 1.413 1_554 S
C215 C213 1.367 . S
C216 N211 1.362 . S
C216 C214 1.420 1_556 S
C216 C220 1.429 . S
H217 C222 0.930 . S
N218 Eu180 2.609 . S
N218 C220 1.377 . S
N218 C221 1.321 . S
C219 H205 0.930 . S
C219 C221 1.400 . S
C219 C222 1.386 . S
C220 C216 1.429 . S
C220 N218 1.377 . S
C220 C223 1.411 . S
C221 H203 0.930 . S
C221 N218 1.321 . S
C221 C219 1.400 . S
C222 H217 0.930 . S
C222 C219 1.386 . S
C222 C223 1.395 . S
C223 C220 1.411 . S
C223 C222 1.395 . S
C223 C245 1.420 1_556 S
O224 Eu180 2.558 . S
O224 C244 1.257 . S
O225 Eu180 2.612 1_565 S
O225 Eu191 2.380 . S
O225 C236 1.276 . S
O226 Eu191 2.432 . S
O226 C243 1.264 . S
O227 Eu180 2.339 1_565 S
O227 C243 1.254 . S
O228 Eu180 2.563 . S
O228 C236 1.235 1_545 S
O229 Eu180 2.419 . S
O229 C244 1.249 . S
O230 Eu191 2.558 . S
O230 C255 1.257 . S
O231 Eu180 2.380 . S
O231 Eu191 2.612 1_545 S
O231 C247 1.276 . S
O232 Eu180 2.432 . S
O232 C254 1.264 . S
O233 Eu191 2.339 1_545 S
O233 C254 1.254 . S
O234 Eu191 2.563 1_545 S
O234 C247 1.235 . S
O235 Eu191 2.419 . S
O235 C255 1.249 . S
C236 O225 1.276 . S
C236 O228 1.235 1_565 S
C237 C239 1.393 . S
C237 C241 1.395 . S
C237 C244 1.492 . S
C238 C239 1.392 . S
C238 C240 1.386 1_556 S
C239 C237 1.393 . S
C239 C238 1.392 . S
C239 H256 0.930 . S
C240 C238 1.386 1_554 S
C240 C242 1.395 1_554 S
C240 H257 0.930 . S
C241 C237 1.395 . S
C241 C242 1.379 . S
C241 H258 0.930 . S
C242 C240 1.395 1_556 S
C242 C241 1.379 . S
C242 H259 0.930 . S
C243 O226 1.264 . S
C243 O227 1.254 . S
C244 Eu180 2.848 . S
C244 O224 1.257 . S
C244 O229 1.249 . S
C244 C237 1.492 . S
C245 H210 0.931 . S
C245 C223 1.420 1_554 S
C245 C246 1.351 . S
C246 H208 0.930 . S
C246 C214 1.423 . S
C246 C245 1.351 . S
C247 O231 1.276 . S
C247 O234 1.235 . S
C248 C249 1.393 . S
C248 C252 1.395 . S
C248 C255 1.492 . S
C249 C248 1.393 . S
C249 C250 1.392 . S
C249 H260 0.930 1_565 S
C250 C249 1.392 . S
C250 C251 1.386 . S
C251 C250 1.386 . S
C251 C253 1.395 . S
C251 H261 0.930 . S
C252 C248 1.395 . S
C252 C253 1.379 . S
C252 H262 0.930 . S
C253 C251 1.395 . S
C253 C252 1.379 . S
C253 H263 0.930 . S
C254 O232 1.264 . S
C254 O233 1.254 . S
C255 Eu191 2.848 . S
C255 O230 1.257 . S
C255 O235 1.249 . S
C255 C248 1.492 . S
H256 C239 0.930 . S
H257 C240 0.930 . S
H258 C241 0.930 . S
H259 C242 0.930 . S
H260 C249 0.930 1_545 S
H261 C251 0.930 . S
H262 C252 0.930 . S
H263 C253 0.930 . S
Eu264 N295 2.657 . S
Eu264 N302 2.609 . S
Eu264 O308 2.558 . S
Eu264 O309 2.612 . S
Eu264 O311 2.339 . S
Eu264 O312 2.563 . S
Eu264 O313 2.419 . S
Eu264 O315 2.380 . S
Eu264 O316 2.432 . S
Eu264 C328 2.848 . S
C265 C268 1.429 . S
C265 C269 1.411 . S
C265 N272 1.377 . S
C266 C268 1.420 . S
C266 C270 1.423 . S
C266 C278 1.392 . S
C267 C269 1.420 . S
C267 C270 1.351 . S
C267 H290 0.931 . S
C268 C265 1.429 . S
C268 C266 1.420 . S
C268 N276 1.362 . S
C269 C265 1.411 . S
C269 C267 1.420 . S
C269 C274 1.395 . S
C270 C266 1.423 . S
C270 C267 1.351 . S
C270 H282 0.930 . S
C271 C273 1.400 . S
C271 C274 1.386 . S
C271 H283 0.930 . S
N272 C265 1.377 . S
N272 C273 1.321 . S
N272 Eu275 2.609 . S
C273 C271 1.400 . S
C273 N272 1.321 . S
C273 H280 0.930 . S
C274 C269 1.395 . S
C274 C271 1.386 . S
C274 H293 0.930 . S
Eu275 N272 2.609 . S
Eu275 N276 2.657 . S
Eu275 O309 2.380 . S
Eu275 O310 2.432 . S
Eu275 O314 2.558 . S
Eu275 O315 2.612 . S
Eu275 O317 2.339 . S
Eu275 O318 2.563 . S
Eu275 O319 2.419 . S
Eu275 C339 2.848 . S
N276 C268 1.362 . S
N276 Eu275 2.657 . S
N276 C277 1.334 . S
C277 N276 1.334 . S
C277 C279 1.413 . S
C277 H284 0.929 . S
C278 C266 1.392 . S
C278 C279 1.367 . S
C278 H286 0.930 . S
C279 C277 1.413 . S
C279 C278 1.367 . S
C279 H281 0.930 . S
H280 C273 0.930 . S
H281 C279 0.930 . S
H282 C270 0.930 . S
H283 C271 0.930 . S
H284 C277 0.929 . S
H285 C299 0.930 . S
H286 C278 0.930 . S
H287 C305 0.930 . S
H288 C296 0.929 . S
H289 C303 0.930 . S
H290 C267 0.931 . S
H291 C297 0.930 . S
H292 C330 0.930 . S
H293 C274 0.930 . S
H294 C329 0.931 . S
N295 Eu264 2.657 . S
N295 C296 1.334 . S
N295 C300 1.362 . S
C296 H288 0.929 . S
C296 N295 1.334 . S
C296 C299 1.413 . S
C297 H291 0.930 . S
C297 C298 1.392 . S
C297 C299 1.367 . S
C298 C297 1.392 . S
C298 C300 1.420 . S
C298 C330 1.423 . S
C299 H285 0.930 . S
C299 C296 1.413 . S
C299 C297 1.367 . S
C300 N295 1.362 . S
C300 C298 1.420 . S
C300 C304 1.429 . S
H301 C306 0.930 . S
N302 Eu264 2.609 . S
N302 C304 1.377 . S
N302 C305 1.321 . S
C303 H289 0.930 . S
C303 C305 1.400 . S
C303 C306 1.386 . S
C304 C300 1.429 . S
C304 N302 1.377 . S
C304 C307 1.411 . S
C305 H287 0.930 . S
C305 N302 1.321 . S
C305 C303 1.400 . S
C306 H301 0.930 . S
C306 C303 1.386 . S
C306 C307 1.395 . S
C307 C304 1.411 . S
C307 C306 1.395 . S
C307 C329 1.420 . S
O308 Eu264 2.558 . S
O308 C328 1.257 . S
O309 Eu264 2.612 . S
O309 Eu275 2.380 . S
O309 C320 1.276 . S
O310 Eu275 2.432 . S
O310 C327 1.264 . S
O311 Eu264 2.339 . S
O311 C327 1.254 . S
O312 Eu264 2.563 . S
O312 C320 1.235 . S
O313 Eu264 2.419 . S
O313 C328 1.249 . S
O314 Eu275 2.558 . S
O314 C339 1.257 . S
O315 Eu264 2.380 . S
O315 Eu275 2.612 . S
O315 C331 1.276 . S
O316 Eu264 2.432 . S
O316 C338 1.264 . S
O317 Eu275 2.339 . S
O317 C338 1.254 . S
O318 Eu275 2.563 . S
O318 C331 1.235 . S
O319 Eu275 2.419 . S
O319 C339 1.249 . S
C320 O309 1.276 . S
C320 O312 1.235 . S
C321 C323 1.393 . S
C321 C325 1.395 . S
C321 C328 1.492 . S
C322 C323 1.392 . S
C322 C324 1.386 . S
C323 C321 1.393 . S
C323 C322 1.392 . S
C323 H340 0.930 . S
C324 C322 1.386 . S
C324 C326 1.395 . S
C324 H341 0.930 . S
C325 C321 1.395 . S
C325 C326 1.379 . S
C325 H342 0.930 . S
C326 C324 1.395 . S
C326 C325 1.379 . S
C326 H343 0.930 . S
C327 O310 1.264 . S
C327 O311 1.254 . S
C328 Eu264 2.848 . S
C328 O308 1.257 . S
C328 O313 1.249 . S
C328 C321 1.492 . S
C329 H294 0.931 . S
C329 C307 1.420 . S
C329 C330 1.351 . S
C330 H292 0.930 . S
C330 C298 1.423 . S
C330 C329 1.351 . S
C331 O315 1.276 . S
C331 O318 1.235 . S
C332 C333 1.393 . S
C332 C336 1.395 1_556 S
C332 C339 1.492 . S
C333 C332 1.393 . S
C333 C334 1.392 1_556 S
C333 H344 0.930 . S
C334 C333 1.392 1_554 S
C334 C335 1.386 . S
C335 C334 1.386 . S
C335 C337 1.395 . S
C335 H345 0.930 . S
C336 C332 1.395 1_554 S
C336 C337 1.379 . S
C336 H346 0.930 . S
C337 C335 1.395 . S
C337 C336 1.379 . S
C337 H347 0.930 . S
C338 O316 1.264 . S
C338 O317 1.254 . S
C339 Eu275 2.848 . S
C339 O314 1.257 . S
C339 O319 1.249 . S
C339 C332 1.492 . S
H340 C323 0.930 . S
H341 C324 0.930 . S
H342 C325 0.930 . S
H343 C326 0.930 . S
H344 C333 0.930 . S
H345 C335 0.930 . S
H346 C336 0.930 . S
H347 C337 0.930 . S
Eu348 N379 2.657 . S
Eu348 N386 2.609 . S
Eu348 O392 2.558 . S
Eu348 O393 2.612 . S
Eu348 O395 2.339 . S
Eu348 O396 2.563 . S
Eu348 O397 2.419 . S
Eu348 O399 2.380 . S
Eu348 O400 2.432 1_455 S
Eu348 C412 2.848 . S
C349 C352 1.429 . S
C349 C353 1.411 . S
C349 N356 1.377 . S
C350 C352 1.420 . S
C350 C354 1.423 . S
C350 C362 1.392 . S
C351 C353 1.420 . S
C351 C354 1.351 . S
C351 H374 0.931 . S
C352 C349 1.429 . S
C352 C350 1.420 . S
C352 N360 1.362 . S
C353 C349 1.411 . S
C353 C351 1.420 . S
C353 C358 1.395 1_655 S
C354 C350 1.423 . S
C354 C351 1.351 . S
C354 H366 0.930 . S
C355 C357 1.400 . S
C355 C358 1.386 . S
C355 H367 0.930 . S
N356 C349 1.377 . S
N356 C357 1.321 1_655 S
N356 Eu359 2.609 . S
C357 C355 1.400 . S
C357 N356 1.321 1_455 S
C357 H364 0.930 . S
C358 C353 1.395 1_455 S
C358 C355 1.386 . S
C358 H377 0.930 . S
Eu359 N356 2.609 . S
Eu359 N360 2.657 . S
Eu359 O393 2.380 1_655 S
Eu359 O394 2.432 1_655 S
Eu359 O398 2.558 . S
Eu359 O399 2.612 1_655 S
Eu359 O401 2.339 . S
Eu359 O402 2.563 . S
Eu359 O403 2.419 . S
Eu359 C423 2.848 . S
N360 C352 1.362 . S
N360 Eu359 2.657 . S
N360 C361 1.334 . S
C361 N360 1.334 . S
C361 C363 1.413 . S
C361 H368 0.929 . S
C362 C350 1.392 . S
C362 C363 1.367 . S
C362 H370 0.930 . S
C363 C361 1.413 . S
C363 C362 1.367 . S
C363 H365 0.930 . S
H364 C357 0.930 . S
H365 C363 0.930 . S
H366 C354 0.930 . S
H367 C355 0.930 . S
H368 C361 0.929 . S
H369 C383 0.930 . S
H370 C362 0.930 . S
H371 C389 0.926 1_655 S
H372 C380 0.929 . S
H373 C387 0.930 . S
H374 C351 0.931 . S
H375 C381 0.930 . S
H376 C414 0.930 . S
H377 C358 0.930 . S
H378 C413 0.931 . S
N379 Eu348 2.657 . S
N379 C380 1.334 . S
N379 C384 1.362 . S
C380 H372 0.929 . S
C380 N379 1.334 . S
C380 C383 1.413 . S
C381 H375 0.930 . S
C381 C382 1.392 . S
C381 C383 1.367 . S
C382 C381 1.392 . S
C382 C384 1.420 . S
C382 C414 1.423 . S
C383 H369 0.930 . S
C383 C380 1.413 . S
C383 C381 1.367 . S
C384 N379 1.362 . S
C384 C382 1.420 . S
C384 C388 1.429 . S
H385 C390 0.930 . S
N386 Eu348 2.609 . S
N386 C388 1.377 . S
N386 C389 1.326 . S
C387 H373 0.930 . S
C387 C389 1.398 1_655 S
C387 C390 1.386 1_655 S
C388 C384 1.429 . S
C388 N386 1.377 . S
C388 C391 1.411 . S
C389 H371 0.926 1_455 S
C389 N386 1.326 . S
C389 C387 1.398 1_455 S
C390 H385 0.930 . S
C390 C387 1.386 1_455 S
C390 C391 1.395 . S
C391 C388 1.411 . S
C391 C390 1.395 . S
C391 C413 1.420 . S
O392 Eu348 2.558 . S
O392 C412 1.257 . S
O393 Eu348 2.612 . S
O393 Eu359 2.380 1_455 S
O393 C404 1.276 . S
O394 Eu359 2.432 1_455 S
O394 C411 1.264 . S
O395 Eu348 2.339 . S
O395 C411 1.254 . S
O396 Eu348 2.563 . S
O396 C404 1.235 . S
O397 Eu348 2.419 . S
O397 C412 1.249 . S
O398 Eu359 2.558 . S
O398 C423 1.257 . S
O399 Eu348 2.380 . S
O399 Eu359 2.612 1_455 S
O399 C415 1.276 1_455 S
O400 Eu348 2.432 1_655 S
O400 C422 1.264 . S
O401 Eu359 2.339 . S
O401 C422 1.254 . S
O402 Eu359 2.563 . S
O402 C415 1.235 . S
O403 Eu359 2.419 . S
O403 C423 1.249 . S
C404 O393 1.276 . S
C404 O396 1.235 . S
C405 C407 1.393 . S
C405 C409 1.395 . S
C405 C412 1.492 . S
C406 C407 1.392 . S
C406 C408 1.386 . S
C407 C405 1.393 . S
C407 C406 1.392 . S
C407 H424 0.930 . S
C408 C406 1.386 . S
C408 C410 1.395 . S
C408 H425 0.930 . S
C409 C405 1.395 . S
C409 C410 1.379 . S
C409 H426 0.930 . S
C410 C408 1.395 . S
C410 C409 1.379 . S
C410 H427 0.930 . S
C411 O394 1.264 . S
C411 O395 1.254 . S
C412 Eu348 2.848 . S
C412 O392 1.257 . S
C412 O397 1.249 . S
C412 C405 1.492 . S
C413 H378 0.931 . S
C413 C391 1.420 . S
C413 C414 1.351 . S
C414 H376 0.930 . S
C414 C382 1.423 . S
C414 C413 1.351 . S
C415 O399 1.276 1_655 S
C415 O402 1.235 . S
C416 C417 1.393 . S
C416 C420 1.395 1_556 S
C416 C423 1.492 . S
C417 C416 1.393 . S
C417 C418 1.392 1_556 S
C417 H428 0.930 . S
C418 C417 1.392 1_554 S
C418 C419 1.386 . S
C419 C418 1.386 . S
C419 C421 1.395 . S
C419 H429 0.930 . S
C420 C416 1.395 1_554 S
C420 C421 1.379 . S
C420 H430 0.930 . S
C421 C419 1.395 . S
C421 C420 1.379 . S
C421 H431 0.930 . S
C422 O400 1.264 . S
C422 O401 1.254 . S
C423 Eu359 2.848 . S
C423 O398 1.257 . S
C423 O403 1.249 . S
C423 C416 1.492 . S
H424 C407 0.930 . S
H425 C408 0.930 . S
H426 C409 0.930 . S
H427 C410 0.930 . S
H428 C417 0.930 . S
H429 C419 0.930 . S
H430 C420 0.930 . S
H431 C421 0.930 . S
H432 C444 0.930 . S
H433 C446 0.930 . S
H434 C447 0.930 . S
H435 C451 0.959 . S
H436 C451 0.959 . S
H437 C451 0.961 . S
H438 C452 0.960 . S
H439 C452 0.961 . S
H440 C452 0.959 . S
H441 C455 0.929 . S
H442 C456 0.931 . S
H443 C458 0.930 . S
C444 H432 0.930 . S
C444 C445 1.399 . S
C444 C449 1.399 . S
C445 C444 1.399 . S
C445 C446 1.376 . S
C446 H433 0.930 . S
C446 C445 1.376 . S
C446 C447 1.388 . S
C447 H434 0.930 . S
C447 C446 1.388 . S
C447 C448 1.390 . S
C448 C447 1.390 . S
C448 C449 1.394 . S
C448 C454 1.465 . S
C449 C444 1.399 . S
C449 C448 1.394 . S
C449 C450 1.516 . S
C450 C449 1.516 . S
C450 C451 1.502 . S
C450 C452 1.561 . S
C450 C453 1.526 . S
C451 H435 0.959 . S
C451 H436 0.959 . S
C451 H437 0.961 . S
C451 C450 1.502 . S
C452 H438 0.960 . S
C452 H439 0.961 . S
C452 H440 0.959 . S
C452 C450 1.561 . S
C453 C450 1.526 . S
C453 C454 1.396 . S
C453 C458 1.390 . S
C454 C448 1.465 . S
C454 C453 1.396 . S
C454 C455 1.399 . S
C455 H441 0.929 . S
C455 C454 1.399 . S
C455 C456 1.385 . S
C456 H442 0.931 . S
C456 C455 1.385 . S
C456 C457 1.389 . S
C457 C456 1.389 . S
C457 C458 1.387 . S
C458 H443 0.930 . S
C458 C453 1.390 . S
C458 C457 1.387 . S
H459 C471 0.930 . S
H460 C473 0.930 . S
H461 C474 0.930 . S
H462 C478 0.959 . S
H463 C478 0.959 . S
H464 C478 0.961 . S
H465 C479 0.960 . S
H466 C479 0.961 . S
H467 C479 0.959 . S
H468 C482 0.929 . S
H469 C483 0.931 . S
H470 C485 0.930 . S
C471 H459 0.930 . S
C471 C472 1.399 . S
C471 C476 1.399 . S
C472 C471 1.399 . S
C472 C473 1.376 . S
C473 H460 0.930 . S
C473 C472 1.376 . S
C473 C474 1.388 . S
C474 H461 0.930 . S
C474 C473 1.388 . S
C474 C475 1.390 . S
C475 C474 1.390 . S
C475 C476 1.394 . S
C475 C481 1.465 . S
C476 C471 1.399 . S
C476 C475 1.394 . S
C476 C477 1.516 . S
C477 C476 1.516 . S
C477 C478 1.502 . S
C477 C479 1.561 . S
C477 C480 1.526 . S
C478 H462 0.959 . S
C478 H463 0.959 . S
C478 H464 0.961 . S
C478 C477 1.502 . S
C479 H465 0.960 . S
C479 H466 0.961 . S
C479 H467 0.959 . S
C479 C477 1.561 . S
C480 C477 1.526 . S
C480 C481 1.396 . S
C480 C485 1.390 . S
C481 C475 1.465 . S
C481 C480 1.396 . S
C481 C482 1.399 . S
C482 H468 0.929 . S
C482 C481 1.399 . S
C482 C483 1.385 . S
C483 H469 0.931 . S
C483 C482 1.385 . S
C483 C484 1.389 . S
C484 C483 1.389 . S
C484 C485 1.387 . S
C485 H470 0.930 . S
C485 C480 1.390 . S
C485 C484 1.387 . S
H486 C498 0.930 . S
H487 C500 0.930 . S
H488 C501 0.930 . S
H489 C505 0.959 . S
H490 C505 0.959 . S
H491 C505 0.961 . S
H492 C506 0.960 . S
H493 C506 0.961 . S
H494 C506 0.959 . S
H495 C509 0.929 . S
H496 C510 0.931 . S
H497 C512 0.930 . S
C498 H486 0.930 . S
C498 C499 1.399 . S
C498 C503 1.399 . S
C499 C498 1.399 . S
C499 C500 1.376 . S
C500 H487 0.930 . S
C500 C499 1.376 . S
C500 C501 1.388 . S
C501 H488 0.930 . S
C501 C500 1.388 . S
C501 C502 1.390 . S
C502 C501 1.390 . S
C502 C503 1.394 . S
C502 C508 1.465 . S
C503 C498 1.399 . S
C503 C502 1.394 . S
C503 C504 1.516 . S
C504 C503 1.516 . S
C504 C505 1.502 . S
C504 C506 1.561 . S
C504 C507 1.526 . S
C505 H489 0.959 . S
C505 H490 0.959 . S
C505 H491 0.961 . S
C505 C504 1.502 . S
C506 H492 0.960 . S
C506 H493 0.961 . S
C506 H494 0.959 . S
C506 C504 1.561 . S
C507 C504 1.526 . S
C507 C508 1.396 . S
C507 C512 1.390 . S
C508 C502 1.465 . S
C508 C507 1.396 . S
C508 C509 1.399 . S
C509 H495 0.929 . S
C509 C508 1.399 . S
C509 C510 1.385 . S
C510 H496 0.931 . S
C510 C509 1.385 . S
C510 C511 1.389 . S
C511 C510 1.389 . S
C511 C512 1.387 . S
C512 H497 0.930 . S
C512 C507 1.390 . S
C512 C511 1.387 . S
H513 C525 0.930 . S
H514 C527 0.930 . S
H515 C528 0.930 . S
H516 C532 0.959 . S
H517 C532 0.959 . S
H518 C532 0.961 . S
H519 C533 0.960 . S
H520 C533 0.961 . S
H521 C533 0.959 . S
H522 C536 0.929 . S
H523 C537 0.931 . S
H524 C539 0.930 . S
C525 H513 0.930 . S
C525 C526 1.399 . S
C525 C530 1.399 . S
C526 C525 1.399 . S
C526 C527 1.376 . S
C527 H514 0.930 . S
C527 C526 1.376 . S
C527 C528 1.388 . S
C528 H515 0.930 . S
C528 C527 1.388 . S
C528 C529 1.390 . S
C529 C528 1.390 . S
C529 C530 1.394 . S
C529 C535 1.465 . S
C530 C525 1.399 . S
C530 C529 1.394 . S
C530 C531 1.516 . S
C531 C530 1.516 . S
C531 C532 1.502 1_455 S
C531 C533 1.561 . S
C531 C534 1.526 . S
C532 H516 0.959 . S
C532 H517 0.959 . S
C532 H518 0.961 . S
C532 C531 1.502 1_655 S
C533 H519 0.960 . S
C533 H520 0.961 . S
C533 H521 0.959 . S
C533 C531 1.561 . S
C534 C531 1.526 . S
C534 C535 1.396 . S
C534 C539 1.390 . S
C535 C529 1.465 . S
C535 C534 1.396 . S
C535 C536 1.399 . S
C536 H522 0.929 . S
C536 C535 1.399 . S
C536 C537 1.385 . S
C537 H523 0.931 . S
C537 C536 1.385 . S
C537 C538 1.389 . S
C538 C537 1.389 . S
C538 C539 1.387 . S
C539 H524 0.930 . S
C539 C534 1.390 . S
C539 C538 1.387 . S
H540 C552 0.930 . S
H541 C554 0.930 1_545 S
H542 C555 0.930 . S
H543 C559 0.959 . S
H544 C559 0.959 1_556 S
H545 C559 0.961 . S
H546 C560 0.960 . S
H547 C560 0.961 . S
H548 C560 0.959 . S
H549 C563 0.929 . S
H550 C564 0.931 . S
H551 C566 0.930 . S
C552 H540 0.930 . S
C552 C553 1.399 . S
C552 C557 1.399 . S
C553 C552 1.399 . S
C553 C554 1.376 . S
C554 H541 0.930 1_565 S
C554 C553 1.376 . S
C554 C555 1.388 1_565 S
C555 H542 0.930 . S
C555 C554 1.388 1_545 S
C555 C556 1.390 1_545 S
C556 C555 1.390 1_565 S
C556 C557 1.394 . S
C556 C562 1.465 1_554 S
C557 C552 1.399 . S
C557 C556 1.394 . S
C557 C558 1.516 1_554 S
C558 C557 1.516 1_556 S
C558 C559 1.502 1_556 S
C558 C560 1.561 . S
C558 C561 1.526 . S
C559 H543 0.959 . S
C559 H544 0.959 1_554 S
C559 H545 0.961 . S
C559 C558 1.502 1_554 S
C560 H546 0.960 . S
C560 H547 0.961 . S
C560 H548 0.959 . S
C560 C558 1.561 . S
C561 C558 1.526 . S
C561 C562 1.396 . S
C561 C566 1.390 . S
C562 C556 1.465 1_556 S
C562 C561 1.396 . S
C562 C563 1.399 1_565 S
C563 H549 0.929 . S
C563 C562 1.399 1_545 S
C563 C564 1.385 . S
C564 H550 0.931 . S
C564 C563 1.385 . S
C564 C565 1.389 1_545 S
C565 C564 1.389 1_565 S
C565 C566 1.387 . S
C566 H551 0.930 . S
C566 C561 1.390 . S
C566 C565 1.387 . S
H567 C579 0.930 . S
H568 C581 0.930 . S
H569 C582 0.930 1_556 S
H570 C586 0.959 . S
H571 C586 0.959 . S
H572 C586 0.961 . S
H573 C587 0.960 . S
H574 C587 0.961 1_556 S
H575 C587 0.959 1_556 S
H576 C590 0.929 . S
H577 C591 0.931 . S
H578 C593 0.930 . S
C579 H567 0.930 . S
C579 C580 1.399 . S
C579 C584 1.399 . S
C580 C579 1.399 . S
C580 C581 1.376 . S
C581 H568 0.930 . S
C581 C580 1.376 . S
C581 C582 1.388 . S
C582 H569 0.930 1_554 S
C582 C581 1.388 . S
C582 C583 1.390 . S
C583 C582 1.390 . S
C583 C584 1.394 . S
C583 C589 1.465 1_554 S
C584 C579 1.399 . S
C584 C583 1.394 . S
C584 C585 1.516 . S
C585 C584 1.516 . S
C585 C586 1.502 . S
C585 C587 1.561 . S
C585 C588 1.526 1_554 S
C586 H570 0.959 . S
C586 H571 0.959 . S
C586 H572 0.961 . S
C586 C585 1.502 . S
C587 H573 0.960 . S
C587 H574 0.961 1_554 S
C587 H575 0.959 1_554 S
C587 C585 1.561 . S
C588 C585 1.526 1_556 S
C588 C589 1.396 . S
C588 C593 1.390 . S
C589 C583 1.465 1_556 S
C589 C588 1.396 . S
C589 C590 1.399 . S
C590 H576 0.929 . S
C590 C589 1.399 . S
C590 C591 1.385 . S
C591 H577 0.931 . S
C591 C590 1.385 . S
C591 C592 1.389 . S
C592 C591 1.389 . S
C592 C593 1.387 . S
C593 H578 0.930 . S
C593 C588 1.390 . S
C593 C592 1.387 . S
H594 C606 0.930 . S
H595 C608 0.930 . S
H596 C609 0.930 . S
H597 C613 0.959 . S
H598 C613 0.959 . S
H599 C613 0.961 . S
H600 C614 0.960 . S
H601 C614 0.961 . S
H602 C614 0.959 . S
H603 C617 0.929 1_554 S
H604 C618 0.931 . S
H605 C620 0.930 . S
C606 H594 0.930 . S
C606 C607 1.399 . S
C606 C611 1.399 . S
C607 C606 1.399 . S
C607 C608 1.376 . S
C608 H595 0.930 . S
C608 C607 1.376 . S
C608 C609 1.388 . S
C609 H596 0.930 . S
C609 C608 1.388 . S
C609 C610 1.390 . S
C610 C609 1.390 . S
C610 C611 1.394 . S
C610 C616 1.465 1_554 S
C611 C606 1.399 . S
C611 C610 1.394 . S
C611 C612 1.516 1_554 S
C612 C611 1.516 1_556 S
C612 C613 1.502 . S
C612 C614 1.561 . S
C612 C615 1.526 . S
C613 H597 0.959 . S
C613 H598 0.959 . S
C613 H599 0.961 . S
C613 C612 1.502 . S
C614 H600 0.960 . S
C614 H601 0.961 . S
C614 H602 0.959 . S
C614 C612 1.561 . S
C615 C612 1.526 . S
C615 C616 1.396 . S
C615 C620 1.390 . S
C616 C610 1.465 1_556 S
C616 C615 1.396 . S
C616 C617 1.399 . S
C617 H603 0.929 1_556 S
C617 C616 1.399 . S
C617 C618 1.385 . S
C618 H604 0.931 . S
C618 C617 1.385 . S
C618 C619 1.389 . S
C619 C618 1.389 . S
C619 C620 1.387 . S
C620 H605 0.930 . S
C620 C615 1.390 . S
C620 C619 1.387 . S
H621 C633 0.930 . S
H622 C635 0.930 . S
H623 C636 0.930 . S
H624 C640 0.959 . S
H625 C640 0.959 . S
H626 C640 0.961 . S
H627 C641 0.960 1_554 S
H628 C641 0.961 . S
H629 C641 0.959 1_554 S
H630 C644 0.929 1_554 S
H631 C645 0.931 . S
H632 C647 0.930 1_455 S
C633 H621 0.930 . S
C633 C634 1.399 . S
C633 C638 1.399 . S
C634 C633 1.399 . S
C634 C635 1.376 . S
C635 H622 0.930 . S
C635 C634 1.376 . S
C635 C636 1.388 . S
C636 H623 0.930 . S
C636 C635 1.388 . S
C636 C637 1.390 . S
C637 C636 1.390 . S
C637 C638 1.394 . S
C637 C643 1.465 1_554 S
C638 C633 1.399 . S
C638 C637 1.394 . S
C638 C639 1.516 1_554 S
C639 C638 1.516 1_556 S
C639 C640 1.502 . S
C639 C641 1.561 1_655 S
C639 C642 1.526 . S
C640 H624 0.959 . S
C640 H625 0.959 . S
C640 H626 0.961 . S
C640 C639 1.502 . S
C641 H627 0.960 1_556 S
C641 H628 0.961 . S
C641 H629 0.959 1_556 S
C641 C639 1.561 1_455 S
C642 C639 1.526 . S
C642 C643 1.396 . S
C642 C647 1.390 . S
C643 C637 1.465 1_556 S
C643 C642 1.396 . S
C643 C644 1.399 . S
C644 H630 0.929 1_556 S
C644 C643 1.399 . S
C644 C645 1.385 . S
C645 H631 0.931 . S
C645 C644 1.385 . S
C645 C646 1.389 . S
C646 C645 1.389 . S
C646 C647 1.387 . S
C647 H632 0.930 1_655 S
C647 C642 1.390 . S
C647 C646 1.387 . S
H648 C660 0.930 . S
H649 C662 0.930 . S
H650 C663 0.930 1_655 S
H651 C667 0.959 . S
H652 C667 0.959 . S
H653 C667 0.961 . S
H654 C668 0.960 . S
H655 C668 0.961 . S
H656 C668 0.959 . S
H657 C671 0.929 . S
H658 C672 0.931 . S
H659 C674 0.930 . S
C660 H648 0.930 . S
C660 C661 1.399 . S
C660 C665 1.399 . S
C661 C660 1.399 . S
C661 C662 1.376 . S
C662 H649 0.930 . S
C662 C661 1.376 . S
C662 C663 1.388 . S
C663 H650 0.930 1_455 S
C663 C662 1.388 . S
C663 C664 1.390 . S
C664 C663 1.390 . S
C664 C665 1.394 . S
C664 C670 1.465 . S
C665 C660 1.399 . S
C665 C664 1.394 . S
C665 C666 1.516 . S
C666 C665 1.516 . S
C666 C667 1.502 . S
C666 C668 1.561 . S
C666 C669 1.526 . S
C667 H651 0.959 . S
C667 H652 0.959 . S
C667 H653 0.961 . S
C667 C666 1.502 . S
C668 H654 0.960 . S
C668 H655 0.961 . S
C668 H656 0.959 . S
C668 C666 1.561 . S
C669 C666 1.526 . S
C669 C670 1.396 . S
C669 C674 1.390 . S
C670 C664 1.465 . S
C670 C669 1.396 . S
C670 C671 1.399 1_455 S
C671 H657 0.929 . S
C671 C670 1.399 1_655 S
C671 C672 1.385 . S
C672 H658 0.931 . S
C672 C671 1.385 . S
C672 C673 1.389 1_655 S
C673 C672 1.389 1_455 S
C673 C674 1.387 . S
C674 H659 0.930 . S
C674 C669 1.390 . S
C674 C673 1.387 . S
H675 C687 0.930 . S
H676 C689 0.930 . S
H677 C690 0.930 . S
H678 C694 0.959 1_565 S
H679 C694 0.959 . S
H680 C694 0.961 1_556 S
H681 C695 0.960 . S
H682 C695 0.961 . S
H683 C695 0.959 . S
H684 C698 0.929 . S
H685 C699 0.931 . S
H686 C701 0.930 . S
C687 H675 0.930 . S
C687 C688 1.399 . S
C687 C692 1.399 . S
C688 C687 1.399 . S
C688 C689 1.376 . S
C689 H676 0.930 . S
C689 C688 1.376 . S
C689 C690 1.388 . S
C690 H677 0.930 . S
C690 C689 1.388 . S
C690 C691 1.390 . S
C691 C690 1.390 . S
C691 C692 1.394 . S
C691 C697 1.465 . S
C692 C687 1.399 . S
C692 C691 1.394 . S
C692 C693 1.516 . S
C693 C692 1.516 . S
C693 C694 1.502 . S
C693 C695 1.561 . S
C693 C696 1.526 . S
C694 H678 0.959 1_545 S
C694 H679 0.959 . S
C694 H680 0.961 1_554 S
C694 C693 1.502 . S
C695 H681 0.960 . S
C695 H682 0.961 . S
C695 H683 0.959 . S
C695 C693 1.561 . S
C696 C693 1.526 . S
C696 C697 1.396 . S
C696 C701 1.390 . S
C697 C691 1.465 . S
C697 C696 1.396 . S
C697 C698 1.399 . S
C698 H684 0.929 . S
C698 C697 1.399 . S
C698 C699 1.385 . S
C699 H685 0.931 . S
C699 C698 1.385 . S
C699 C700 1.389 . S
C700 C699 1.389 . S
C700 C701 1.387 . S
C701 H686 0.930 . S
C701 C696 1.390 . S
C701 C700 1.387 . S
H702 C714 0.930 . S
H703 C716 0.930 1_556 S
H704 C717 0.930 . S
H705 C721 0.959 . S
H706 C721 0.959 . S
H707 C721 0.961 . S
H708 C722 0.960 . S
H709 C722 0.961 . S
H710 C722 0.959 . S
H711 C725 0.929 . S
H712 C726 0.931 . S
H713 C728 0.930 . S
C714 H702 0.930 . S
C714 C715 1.399 . S
C714 C719 1.399 . S
C715 C714 1.399 . S
C715 C716 1.376 . S
C716 H703 0.930 1_554 S
C716 C715 1.376 . S
C716 C717 1.388 . S
C717 H704 0.930 . S
C717 C716 1.388 . S
C717 C718 1.390 . S
C718 C717 1.390 . S
C718 C719 1.394 . S
C718 C724 1.465 . S
C719 C714 1.399 . S
C719 C718 1.394 . S
C719 C720 1.516 . S
C720 C719 1.516 . S
C720 C721 1.502 . S
C720 C722 1.561 . S
C720 C723 1.526 . S
C721 H705 0.959 . S
C721 H706 0.959 . S
C721 H707 0.961 . S
C721 C720 1.502 . S
C722 H708 0.960 . S
C722 H709 0.961 . S
C722 H710 0.959 . S
C722 C720 1.561 . S
C723 C720 1.526 . S
C723 C724 1.396 . S
C723 C728 1.390 . S
C724 C718 1.465 . S
C724 C723 1.396 . S
C724 C725 1.399 . S
C725 H711 0.929 . S
C725 C724 1.399 . S
C725 C726 1.385 . S
C726 H712 0.931 . S
C726 C725 1.385 . S
C726 C727 1.389 . S
C727 C726 1.389 . S
C727 C728 1.387 . S
C728 H713 0.930 . S
C728 C723 1.390 . S
C728 C727 1.387 . S
H729 C741 0.930 . S
H730 C743 0.930 . S
H731 C744 0.930 . S
H732 C748 0.959 . S
H733 C748 0.959 . S
H734 C748 0.961 . S
H735 C749 0.960 . S
H736 C749 0.961 . S
H737 C749 0.959 . S
H738 C752 0.929 . S
H739 C753 0.931 . S
H740 C755 0.930 . S
C741 H729 0.930 . S
C741 C742 1.399 . S
C741 C746 1.399 . S
C742 C741 1.399 . S
C742 C743 1.376 . S
C743 H730 0.930 . S
C743 C742 1.376 . S
C743 C744 1.388 . S
C744 H731 0.930 . S
C744 C743 1.388 . S
C744 C745 1.390 . S
C745 C744 1.390 . S
C745 C746 1.394 . S
C745 C751 1.465 . S
C746 C741 1.399 . S
C746 C745 1.394 . S
C746 C747 1.516 . S
C747 C746 1.516 . S
C747 C748 1.502 . S
C747 C749 1.561 . S
C747 C750 1.526 . S
C748 H732 0.959 . S
C748 H733 0.959 . S
C748 H734 0.961 . S
C748 C747 1.502 . S
C749 H735 0.960 . S
C749 H736 0.961 . S
C749 H737 0.959 . S
C749 C747 1.561 . S
C750 C747 1.526 . S
C750 C751 1.396 . S
C750 C755 1.390 . S
C751 C745 1.465 . S
C751 C750 1.396 . S
C751 C752 1.399 . S
C752 H738 0.929 . S
C752 C751 1.399 . S
C752 C753 1.385 . S
C753 H739 0.931 . S
C753 C752 1.385 . S
C753 C754 1.389 . S
C754 C753 1.389 . S
C754 C755 1.387 . S
C755 H740 0.930 . S
C755 C750 1.390 . S
C755 C754 1.387 . S
H756 C768 0.930 . S
H757 C770 0.930 . S
H758 C771 0.930 . S
H759 C775 0.959 1_554 S
H760 C775 0.959 . S
H761 C775 0.951 1_655 S
H762 C776 0.960 . S
H763 C776 0.961 . S
H764 C776 0.959 . S
H765 C779 0.929 . S
H766 C780 0.925 1_455 S
H767 C782 0.930 . S
C768 H756 0.930 . S
C768 C769 1.399 . S
C768 C773 1.399 . S
C769 C768 1.399 . S
C769 C770 1.376 . S
C770 H757 0.930 . S
C770 C769 1.376 . S
C770 C771 1.388 . S
C771 H758 0.930 . S
C771 C770 1.388 . S
C771 C772 1.390 . S
C772 C771 1.390 . S
C772 C773 1.394 . S
C772 C778 1.465 . S
C773 C768 1.399 . S
C773 C772 1.394 . S
C773 C774 1.516 . S
C774 C773 1.516 . S
C774 C775 1.502 1_654 S
C774 C776 1.561 1_554 S
C774 C777 1.526 . S
C775 H759 0.959 1_556 S
C775 H760 0.959 . S
C775 H761 0.951 1_455 S
C775 C774 1.502 1_456 S
C776 H762 0.960 . S
C776 H763 0.961 . S
C776 H764 0.959 . S
C776 C774 1.561 1_556 S
C777 C774 1.526 . S
C777 C778 1.396 . S
C777 C782 1.390 1_654 S
C778 C772 1.465 . S
C778 C777 1.396 . S
C778 C779 1.399 . S
C779 H765 0.929 . S
C779 C778 1.399 . S
C779 C780 1.402 . S
C780 H766 0.925 1_655 S
C780 C779 1.402 . S
C780 C781 1.379 1_655 S
C781 C780 1.379 1_455 S
C781 C782 1.387 1_554 S
C782 H767 0.930 . S
C782 C777 1.390 1_456 S
C782 C781 1.387 1_556 S
H783 C795 0.930 . S
H784 C797 0.930 . S
H785 C798 0.930 1_545 S
H786 C802 0.959 . S
H787 C802 0.959 . S
H788 C802 0.961 . S
H789 C803 0.960 . S
H790 C803 0.961 1_556 S
H791 C803 0.959 . S
H792 C806 0.929 . S
H793 C807 0.931 . S
H794 C809 0.930 . S
C795 H783 0.930 . S
C795 C796 1.399 . S
C795 C800 1.399 . S
C796 C795 1.399 . S
C796 C797 1.376 . S
C797 H784 0.930 . S
C797 C796 1.376 . S
C797 C798 1.388 . S
C798 H785 0.930 1_565 S
C798 C797 1.388 . S
C798 C799 1.390 . S
C799 C798 1.390 . S
C799 C800 1.394 . S
C799 C805 1.480 . S
C800 C795 1.399 . S
C800 C799 1.394 . S
C800 C801 1.516 . S
C801 C800 1.516 . S
C801 C802 1.502 1_554 S
C801 C803 1.561 . S
C801 C804 1.526 . S
C802 H786 0.959 . S
C802 H787 0.959 . S
C802 H788 0.961 . S
C802 C801 1.502 1_556 S
C803 H789 0.960 . S
C803 H790 0.961 1_554 S
C803 H791 0.959 . S
C803 C801 1.561 . S
C804 C801 1.526 . S
C804 C805 1.412 . S
C804 C809 1.390 1_554 S
C805 C799 1.480 . S
C805 C804 1.412 . S
C805 C806 1.373 1_565 S
C806 H792 0.929 . S
C806 C805 1.373 1_545 S
C806 C807 1.385 . S
C807 H793 0.931 . S
C807 C806 1.385 . S
C807 C808 1.389 . S
C808 C807 1.389 . S
C808 C809 1.387 1_544 S
C809 H794 0.930 . S
C809 C804 1.390 1_556 S
C809 C808 1.387 1_566 S
H810 C822 0.930 . S
H811 C824 0.930 . S
H812 C825 0.930 . S
H813 C829 0.959 . S
H814 C829 0.959 1_556 S
H815 C829 0.961 . S
H816 C830 0.960 . S
H817 C830 0.961 . S
H818 C830 0.959 . S
H819 C833 0.929 . S
H820 C834 0.931 . S
H821 C836 0.930 . S
C822 H810 0.930 . S
C822 C823 1.399 . S
C822 C827 1.399 . S
C823 C822 1.399 . S
C823 C824 1.376 . S
C824 H811 0.930 . S
C824 C823 1.376 . S
C824 C825 1.388 . S
C825 H812 0.930 . S
C825 C824 1.388 . S
C825 C826 1.390 . S
C826 C825 1.390 . S
C826 C827 1.394 . S
C826 C832 1.465 . S
C827 C822 1.399 . S
C827 C826 1.394 . S
C827 C828 1.516 . S
C828 C827 1.516 . S
C828 C829 1.502 . S
C828 C830 1.561 1_554 S
C828 C831 1.526 . S
C829 H813 0.959 . S
C829 H814 0.959 1_554 S
C829 H815 0.961 . S
C829 C828 1.502 . S
C830 H816 0.960 . S
C830 H817 0.961 . S
C830 H818 0.959 . S
C830 C828 1.561 1_556 S
C831 C828 1.526 . S
C831 C832 1.396 . S
C831 C836 1.390 1_554 S
C832 C826 1.465 . S
C832 C831 1.396 . S
C832 C833 1.399 . S
C833 H819 0.929 . S
C833 C832 1.399 . S
C833 C834 1.385 . S
C834 H820 0.931 . S
C834 C833 1.385 . S
C834 C835 1.389 . S
C835 C834 1.389 . S
C835 C836 1.387 1_554 S
C836 H821 0.930 . S
C836 C831 1.390 1_556 S
C836 C835 1.387 1_556 S
H837 C849 0.930 . S
H838 C851 0.930 . S
H839 C852 0.930 . S
H840 C856 0.959 . S
H841 C856 0.959 . S
H842 C856 0.961 . S
H843 C857 0.960 . S
H844 C857 0.961 1_556 S
H845 C857 0.959 . S
H846 C860 0.929 . S
H847 C861 0.931 . S
H848 C863 0.930 . S
C849 H837 0.930 . S
C849 C850 1.399 . S
C849 C854 1.399 . S
C850 C849 1.399 . S
C850 C851 1.376 . S
C851 H838 0.930 . S
C851 C850 1.376 . S
C851 C852 1.388 . S
C852 H839 0.930 . S
C852 C851 1.388 . S
C852 C853 1.390 . S
C853 C852 1.390 . S
C853 C854 1.394 . S
C853 C859 1.465 . S
C854 C849 1.399 . S
C854 C853 1.394 . S
C854 C855 1.516 . S
C855 C854 1.516 . S
C855 C856 1.502 1_554 S
C855 C857 1.561 . S
C855 C858 1.526 . S
C856 H840 0.959 . S
C856 H841 0.959 . S
C856 H842 0.961 . S
C856 C855 1.502 1_556 S
C857 H843 0.960 . S
C857 H844 0.961 1_554 S
C857 H845 0.959 . S
C857 C855 1.561 . S
C858 C855 1.526 . S
C858 C859 1.396 . S
C858 C863 1.390 1_554 S
C859 C853 1.465 . S
C859 C858 1.396 . S
C859 C860 1.399 . S
C860 H846 0.929 . S
C860 C859 1.399 . S
C860 C861 1.385 . S
C861 H847 0.931 . S
C861 C860 1.385 . S
C861 C862 1.389 . S
C862 C861 1.389 . S
C862 C863 1.387 1_554 S
C863 H848 0.930 . S
C863 C858 1.390 1_556 S
C863 C862 1.387 1_556 S
H864 C876 0.930 . S
H865 C878 0.930 . S
H866 C879 0.930 . S
H867 C883 0.959 . S
H868 C883 0.959 . S
H869 C883 0.961 . S
H870 C884 0.960 1_554 S
H871 C884 0.961 1_554 S
H872 C884 0.959 . S
H873 C887 0.929 . S
H874 C888 0.931 . S
H875 C890 0.930 . S
C876 H864 0.930 . S
C876 C877 1.399 . S
C876 C881 1.399 . S
C877 C876 1.399 . S
C877 C878 1.376 . S
C878 H865 0.930 . S
C878 C877 1.376 . S
C878 C879 1.388 . S
C879 H866 0.930 . S
C879 C878 1.388 . S
C879 C880 1.390 . S
C880 C879 1.390 . S
C880 C881 1.394 . S
C880 C886 1.465 . S
C881 C876 1.399 . S
C881 C880 1.394 . S
C881 C882 1.516 . S
C882 C881 1.516 . S
C882 C883 1.502 . S
C882 C884 1.561 . S
C882 C885 1.526 . S
C883 H867 0.959 . S
C883 H868 0.959 . S
C883 H869 0.961 . S
C883 C882 1.502 . S
C884 H870 0.960 1_556 S
C884 H871 0.961 1_556 S
C884 H872 0.959 . S
C884 C882 1.561 . S
C885 C882 1.526 . S
C885 C886 1.396 . S
C885 C890 1.390 . S
C886 C880 1.465 . S
C886 C885 1.396 . S
C886 C887 1.399 . S
C887 H873 0.929 . S
C887 C886 1.399 . S
C887 C888 1.385 . S
C888 H874 0.931 . S
C888 C887 1.385 . S
C888 C889 1.389 . S
C889 C888 1.389 . S
C889 C890 1.387 . S
C890 H875 0.930 . S
C890 C885 1.390 . S
C890 C889 1.387 . S
H891 C903 0.930 . S
H892 C905 0.930 . S
H893 C906 0.930 . S
H894 C910 0.959 . S
H895 C910 0.959 . S
H896 C910 0.961 . S
H897 C911 0.960 1_554 S
H898 C911 0.956 1_554 S
H899 C911 0.959 . S
H900 C914 0.929 . S
H901 C915 0.931 . S
H902 C917 0.930 . S
C903 H891 0.930 . S
C903 C904 1.399 . S
C903 C908 1.399 . S
C904 C903 1.399 . S
C904 C905 1.376 . S
C905 H892 0.930 . S
C905 C904 1.376 . S
C905 C906 1.388 . S
C906 H893 0.930 . S
C906 C905 1.388 . S
C906 C907 1.390 . S
C907 C906 1.390 . S
C907 C908 1.394 . S
C907 C913 1.465 . S
C908 C903 1.399 . S
C908 C907 1.394 . S
C908 C909 1.516 . S
C909 C908 1.516 . S
C909 C910 1.502 . S
C909 C911 1.561 . S
C909 C912 1.526 . S
C910 H894 0.959 . S
C910 H895 0.959 . S
C910 H896 0.961 . S
C910 C909 1.502 . S
C911 H897 0.960 1_556 S
C911 H898 0.956 1_556 S
C911 H899 0.959 . S
C911 C909 1.561 . S
C912 C909 1.526 . S
C912 C913 1.396 . S
C912 C917 1.390 . S
C913 C907 1.465 . S
C913 C912 1.396 . S
C913 C914 1.399 . S
C914 H900 0.929 . S
C914 C913 1.399 . S
C914 C915 1.385 . S
C915 H901 0.931 . S
C915 C914 1.385 . S
C915 C916 1.389 . S
C916 C915 1.389 . S
C916 C917 1.387 . S
C917 H902 0.930 . S
C917 C912 1.390 . S
C917 C916 1.387 . S
H918 C930 0.930 . S
H919 C932 0.930 . S
H920 C933 0.930 . S
H921 C937 0.959 . S
H922 C937 0.959 . S
H923 C937 0.961 . S
H924 C938 0.960 . S
H925 C938 0.961 . S
H926 C938 0.959 . S
H927 C941 0.929 . S
H928 C942 0.931 . S
H929 C944 0.930 . S
C930 H918 0.930 . S
C930 C931 1.399 . S
C930 C935 1.399 . S
C931 C930 1.399 . S
C931 C932 1.376 . S
C932 H919 0.930 . S
C932 C931 1.376 . S
C932 C933 1.388 . S
C933 H920 0.930 . S
C933 C932 1.388 . S
C933 C934 1.390 . S
C934 C933 1.390 . S
C934 C935 1.394 . S
C934 C940 1.465 . S
C935 C930 1.399 . S
C935 C934 1.394 . S
C935 C936 1.516 . S
C936 C935 1.516 . S
C936 C937 1.502 . S
C936 C938 1.561 . S
C936 C939 1.526 . S
C937 H921 0.959 . S
C937 H922 0.959 . S
C937 H923 0.961 . S
C937 C936 1.502 . S
C938 H924 0.960 . S
C938 H925 0.961 . S
C938 H926 0.959 . S
C938 C936 1.561 . S
C939 C936 1.526 . S
C939 C940 1.396 . S
C939 C944 1.390 . S
C940 C934 1.465 . S
C940 C939 1.396 . S
C940 C941 1.399 . S
C941 H927 0.929 . S
C941 C940 1.399 . S
C941 C942 1.385 . S
C942 H928 0.931 . S
C942 C941 1.385 . S
C942 C943 1.389 . S
C943 C942 1.389 . S
C943 C944 1.387 . S
C944 H929 0.930 . S
C944 C939 1.390 . S
C944 C943 1.387 . S
H945 C957 0.930 . S
H946 C959 0.930 . S
H947 C960 0.930 . S
H948 C964 0.959 . S
H949 C964 0.959 . S
H950 C964 0.961 . S
H951 C965 0.960 . S
H952 C965 0.961 . S
H953 C965 0.959 . S
H954 C968 0.929 . S
H955 C969 0.931 . S
H956 C971 0.930 . S
C957 H945 0.930 . S
C957 C958 1.399 . S
C957 C962 1.399 . S
C958 C957 1.399 . S
C958 C959 1.376 . S
C959 H946 0.930 . S
C959 C958 1.376 . S
C959 C960 1.388 . S
C960 H947 0.930 . S
C960 C959 1.388 . S
C960 C961 1.390 . S
C961 C960 1.390 . S
C961 C962 1.394 . S
C961 C967 1.465 . S
C962 C957 1.399 . S
C962 C961 1.394 . S
C962 C963 1.516 . S
C963 C962 1.516 . S
C963 C964 1.502 . S
C963 C965 1.561 . S
C963 C966 1.526 . S
C964 H948 0.959 . S
C964 H949 0.959 . S
C964 H950 0.961 . S
C964 C963 1.502 . S
C965 H951 0.960 . S
C965 H952 0.961 . S
C965 H953 0.959 . S
C965 C963 1.561 . S
C966 C963 1.526 . S
C966 C967 1.396 . S
C966 C971 1.390 . S
C967 C961 1.465 . S
C967 C966 1.396 . S
C967 C968 1.399 . S
C968 H954 0.929 . S
C968 C967 1.399 . S
C968 C969 1.385 . S
C969 H955 0.931 . S
C969 C968 1.385 . S
C969 C970 1.389 . S
C970 C969 1.389 . S
C970 C971 1.387 . S
C971 H956 0.930 . S
C971 C966 1.390 . S
C971 C970 1.387 . S
H972 C984 0.930 . S
H973 C986 0.930 . S
H974 C987 0.930 . S
H975 C991 0.959 . S
H976 C991 0.959 . S
H977 C991 0.961 . S
H978 C992 0.960 . S
H979 C992 0.961 . S
H980 C992 0.959 . S
H981 C995 0.929 . S
H982 C996 0.931 . S
H983 C998 0.930 . S
C984 H972 0.930 . S
C984 C985 1.399 . S
C984 C989 1.399 . S
C985 C984 1.399 . S
C985 C986 1.376 . S
C986 H973 0.930 . S
C986 C985 1.376 . S
C986 C987 1.388 . S
C987 H974 0.930 . S
C987 C986 1.388 . S
C987 C988 1.390 . S
C988 C987 1.390 . S
C988 C989 1.394 . S
C988 C994 1.465 . S
C989 C984 1.399 . S
C989 C988 1.394 . S
C989 C990 1.516 . S
C990 C989 1.516 . S
C990 C991 1.502 1_655 S
C990 C992 1.561 . S
C990 C993 1.526 . S
C991 H975 0.959 . S
C991 H976 0.959 . S
C991 H977 0.961 . S
C991 C990 1.502 1_455 S
C992 H978 0.960 . S
C992 H979 0.961 . S
C992 H980 0.959 . S
C992 C990 1.561 . S
C993 C990 1.526 . S
C993 C994 1.396 . S
C993 C998 1.390 . S
C994 C988 1.465 . S
C994 C993 1.396 . S
C994 C995 1.399 . S
C995 H981 0.929 . S
C995 C994 1.399 . S
C995 C996 1.385 . S
C996 H982 0.931 . S
C996 C995 1.385 . S
C996 C997 1.389 . S
C997 C996 1.389 . S
C997 C998 1.387 . S
C998 H983 0.930 . S
C998 C993 1.390 . S
C998 C997 1.387 . S
H999 C1011 0.930 . S
H1000 C1013 0.930 . S
H1001 C1014 0.930 . S
H1002 C1018 0.959 . S
H1003 C1018 0.959 . S
H1004 C1018 0.961 . S
H1005 C1019 0.960 . S
H1006 C1019 0.961 . S
H1007 C1019 0.959 . S
H1008 C1022 0.929 1_545 S
H1009 C1023 0.920 1_545 S
H1010 C1025 0.930 . S
C1011 H999 0.930 . S
C1011 C1012 1.399 . S
C1011 C1016 1.399 . S
C1012 C1011 1.399 . S
C1012 C1013 1.376 . S
C1013 H1000 0.930 . S
C1013 C1012 1.376 . S
C1013 C1014 1.388 . S
C1014 H1001 0.930 . S
C1014 C1013 1.388 . S
C1014 C1015 1.390 . S
C1015 C1014 1.390 . S
C1015 C1016 1.394 . S
C1015 C1021 1.465 . S
C1016 C1011 1.399 . S
C1016 C1015 1.394 . S
C1016 C1017 1.516 . S
C1017 C1016 1.516 . S
C1017 C1018 1.502 . S
C1017 C1019 1.561 . S
C1017 C1020 1.526 . S
C1018 H1002 0.959 . S
C1018 H1003 0.959 . S
C1018 H1004 0.961 . S
C1018 C1017 1.502 . S
C1019 H1005 0.960 . S
C1019 H1006 0.961 . S
C1019 H1007 0.959 . S
C1019 C1017 1.561 . S
C1020 C1017 1.526 . S
C1020 C1021 1.396 . S
C1020 C1025 1.390 . S
C1021 C1015 1.465 . S
C1021 C1020 1.396 . S
C1021 C1022 1.399 . S
C1022 H1008 0.929 1_565 S
C1022 C1021 1.399 . S
C1022 C1023 1.387 . S
C1023 H1009 0.920 1_565 S
C1023 C1022 1.387 . S
C1023 C1024 1.399 . S
C1024 C1023 1.399 . S
C1024 C1025 1.387 . S
C1025 H1010 0.930 . S
C1025 C1020 1.390 . S
C1025 C1024 1.387 . S
H1026 C1038 0.930 . S
H1027 C1040 0.930 . S
H1028 C1041 0.930 . S
H1029 C1045 0.959 . S
H1030 C1045 0.959 . S
H1031 C1045 0.961 . S
H1032 C1046 0.960 . S
H1033 C1046 0.961 . S
H1034 C1046 0.959 . S
H1035 C1049 0.929 . S
H1036 C1050 0.931 . S
H1037 C1052 0.930 . S
C1038 H1026 0.930 . S
C1038 C1039 1.399 . S
C1038 C1043 1.399 . S
C1039 C1038 1.399 . S
C1039 C1040 1.376 . S
C1040 H1027 0.930 . S
C1040 C1039 1.376 . S
C1040 C1041 1.388 . S
C1041 H1028 0.930 . S
C1041 C1040 1.388 . S
C1041 C1042 1.390 . S
C1042 C1041 1.390 . S
C1042 C1043 1.394 . S
C1042 C1048 1.465 . S
C1043 C1038 1.399 . S
C1043 C1042 1.394 . S
C1043 C1044 1.516 . S
C1044 C1043 1.516 . S
C1044 C1045 1.502 . S
C1044 C1046 1.561 . S
C1044 C1047 1.526 . S
C1045 H1029 0.959 . S
C1045 H1030 0.959 . S
C1045 H1031 0.961 . S
C1045 C1044 1.502 . S
C1046 H1032 0.960 . S
C1046 H1033 0.961 . S
C1046 H1034 0.959 . S
C1046 C1044 1.561 . S
C1047 C1044 1.526 . S
C1047 C1048 1.396 . S
C1047 C1052 1.390 . S
C1048 C1042 1.465 . S
C1048 C1047 1.396 . S
C1048 C1049 1.399 . S
C1049 H1035 0.929 . S
C1049 C1048 1.399 . S
C1049 C1050 1.385 . S
C1050 H1036 0.931 . S
C1050 C1049 1.385 . S
C1050 C1051 1.389 . S
C1051 C1050 1.389 . S
C1051 C1052 1.387 . S
C1052 H1037 0.930 . S
C1052 C1047 1.390 . S
C1052 C1051 1.387 . S
H1053 C1065 0.930 . S
H1054 C1067 0.930 . S
H1055 C1068 0.930 . S
H1056 C1072 0.959 . S
H1057 C1072 0.959 . S
H1058 C1072 0.961 . S
H1059 C1073 0.960 . S
H1060 C1073 0.961 . S
H1061 C1073 0.959 . S
H1062 C1076 0.929 . S
H1063 C1077 0.931 . S
H1064 C1079 0.930 . S
C1065 H1053 0.930 . S
C1065 C1066 1.399 . S
C1065 C1070 1.399 . S
C1066 C1065 1.399 . S
C1066 C1067 1.376 . S
C1067 H1054 0.930 . S
C1067 C1066 1.376 . S
C1067 C1068 1.388 . S
C1068 H1055 0.930 . S
C1068 C1067 1.388 . S
C1068 C1069 1.390 . S
C1069 C1068 1.390 . S
C1069 C1070 1.394 . S
C1069 C1075 1.465 . S
C1070 C1065 1.399 . S
C1070 C1069 1.394 . S
C1070 C1071 1.516 . S
C1071 C1070 1.516 . S
C1071 C1072 1.502 . S
C1071 C1073 1.561 . S
C1071 C1074 1.526 . S
C1072 H1056 0.959 . S
C1072 H1057 0.959 . S
C1072 H1058 0.961 . S
C1072 C1071 1.502 . S
C1073 H1059 0.960 . S
C1073 H1060 0.961 . S
C1073 H1061 0.959 . S
C1073 C1071 1.561 . S
C1074 C1071 1.526 . S
C1074 C1075 1.396 . S
C1074 C1079 1.390 . S
C1075 C1069 1.465 . S
C1075 C1074 1.396 . S
C1075 C1076 1.399 . S
C1076 H1062 0.929 . S
C1076 C1075 1.399 . S
C1076 C1077 1.385 . S
C1077 H1063 0.931 . S
C1077 C1076 1.385 . S
C1077 C1078 1.389 . S
C1078 C1077 1.389 . S
C1078 C1079 1.387 . S
C1079 H1064 0.930 . S
C1079 C1074 1.390 . S
C1079 C1078 1.387 . S
C445 C76 1.887 . S
C457 C170 1.909 . S
C484 C254 1.946 . S
C472 C88 1.847 . S
C511 C320 1.907 . S
C499 C52 1.988 . S
C538 C404 1.889 . S
C526 C64 1.961 . S
C565 C159 1.926 1_565 S
C553 C28 1.824 . S
C580 C40 1.828 . S
C592 C243 1.966 . S
C607 C4 1.968 . S
C619 C331 1.923 . S
C634 C16 1.991 . S
C646 C415 1.878 . S
C673 C166 0.560 1_455 S
C661 C69 0.628 . S
C700 C250 0.650 1_545 S
C688 C81 0.699 . S
C727 C322 0.489 . S
C715 C93 0.487 . S
C742 C57 0.546 . S
C754 C406 0.538 . S
C769 C21 0.645 . S
C781 C154 0.665 1_554 S
C808 C238 0.557 1_554 S
C796 C33 0.534 . S
C835 C334 0.553 . S
C823 C45 0.619 . S
C850 C9 0.544 . S
C862 C418 0.520 . S
C877 C66 2.048 . S
C889 C163 2.045 . S
C904 C78 2.023 . S
C916 C247 2.016 . S
C943 C327 2.082 . S
C931 C90 1.873 . S
C970 C411 2.106 . S
C958 C54 1.894 . S
C985 C18 2.044 . S
C997 C152 2.071 . S
C1024 C236 2.016 . S
C1012 C30 2.020 . S
C1051 C338 2.086 . S
C1039 C42 1.926 . S
C1066 C6 1.868 . S
C1078 C422 2.089 . S
