# Generated by pormake.
# Topology pyr, (3,6)-cn, num edge types: 1
# Building blocks:
#     Node 0, Type 0, BuildingBlock: INOVEN_clean_linker_0, # of connection points: 3
#     Node 1, Type 0, BuildingBlock: INOVEN_clean_linker_0, # of connection points: 3
#     Node 2, Type 0, BuildingBlock: INOVEN_clean_linker_0, # of connection points: 3
#     Node 3, Type 0, BuildingBlock: INOVEN_clean_linker_0, # of connection points: 3
#     Node 4, Type 0, BuildingBlock: INOVEN_clean_linker_0, # of connection points: 3
#     Node 5, Type 0, BuildingBlock: INOVEN_clean_linker_0, # of connection points: 3
#     Node 6, Type 0, BuildingBlock: INOVEN_clean_linker_0, # of connection points: 3
#     Node 7, Type 0, BuildingBlock: INOVEN_clean_linker_0, # of connection points: 3
#     Node 8, Type 1, BuildingBlock: MIDCAF_clean_sbu_0, # of connection points: 6
#     Node 9, Type 1, BuildingBlock: MIDCAF_clean_sbu_0, # of connection points: 6
#     Node 10, Type 1, BuildingBlock: MIDCAF_clean_sbu_0, # of connection points: 6
#     Node 11, Type 1, BuildingBlock: MIDCAF_clean_sbu_0, # of connection points: 6
#     Edge 12, Type (0, 1), BuildingBlock: OJICUG_clean_linker_0, # of connection points: 2
#     Edge 13, Type (0, 1), BuildingBlock: OJICUG_clean_linker_0, # of connection points: 2
#     Edge 14, Type (0, 1), BuildingBlock: OJICUG_clean_linker_0, # of connection points: 2
#     Edge 15, Type (0, 1), BuildingBlock: OJICUG_clean_linker_0, # of connection points: 2
#     Edge 16, Type (0, 1), BuildingBlock: OJICUG_clean_linker_0, # of connection points: 2
#     Edge 17, Type (0, 1), BuildingBlock: OJICUG_clean_linker_0, # of connection points: 2
#     Edge 18, Type (0, 1), BuildingBlock: OJICUG_clean_linker_0, # of connection points: 2
#     Edge 19, Type (0, 1), BuildingBlock: OJICUG_clean_linker_0, # of connection points: 2
#     Edge 20, Type (0, 1), BuildingBlock: OJICUG_clean_linker_0, # of connection points: 2
#     Edge 21, Type (0, 1), BuildingBlock: OJICUG_clean_linker_0, # of connection points: 2
#     Edge 22, Type (0, 1), BuildingBlock: OJICUG_clean_linker_0, # of connection points: 2
#     Edge 23, Type (0, 1), BuildingBlock: OJICUG_clean_linker_0, # of connection points: 2
#     Edge 24, Type (0, 1), BuildingBlock: OJICUG_clean_linker_0, # of connection points: 2
#     Edge 25, Type (0, 1), BuildingBlock: OJICUG_clean_linker_0, # of connection points: 2
#     Edge 26, Type (0, 1), BuildingBlock: OJICUG_clean_linker_0, # of connection points: 2
#     Edge 27, Type (0, 1), BuildingBlock: OJICUG_clean_linker_0, # of connection points: 2
#     Edge 28, Type (0, 1), BuildingBlock: OJICUG_clean_linker_0, # of connection points: 2
#     Edge 29, Type (0, 1), BuildingBlock: OJICUG_clean_linker_0, # of connection points: 2
#     Edge 30, Type (0, 1), BuildingBlock: OJICUG_clean_linker_0, # of connection points: 2
#     Edge 31, Type (0, 1), BuildingBlock: OJICUG_clean_linker_0, # of connection points: 2
#     Edge 32, Type (0, 1), BuildingBlock: OJICUG_clean_linker_0, # of connection points: 2
#     Edge 33, Type (0, 1), BuildingBlock: OJICUG_clean_linker_0, # of connection points: 2
#     Edge 34, Type (0, 1), BuildingBlock: OJICUG_clean_linker_0, # of connection points: 2
#     Edge 35, Type (0, 1), BuildingBlock: OJICUG_clean_linker_0, # of connection points: 2
# Relax obj value: 0.086
# Max RMSD: 0.175
# Mean RMSD: 0.130
data_MOF--net-pyr--node1-MIDCAF_clean_sbu_0--node2-INOVEN_clean_linker_0--edge1-OJICUG_clean_linker_0
_symmetry_space_group_name_H-M    P1
_symmetry_Int_Tables_number       1
_symmetry_cell_setting            triclinic
loop_
_symmetry_equiv_pos_as_xyz
'x, y, z'
_cell_length_a     24.852147
_cell_length_b     25.244312
_cell_length_c     26.298479
_cell_angle_alpha  90.823508
_cell_angle_beta   90.794786
_cell_angle_gamma 96.287976
loop_
_atom_site_label
_atom_site_type_symbol
_atom_site_fract_x
_atom_site_fract_y
_atom_site_fract_z
_atom_type_partial_charge
H0 H 0.1896 0.28642 0.33024 0.0
H1 H 0.28337 0.15378 0.31223 0.0
H2 H 0.28903 0.27737 0.20009 0.0
N3 N 0.21456 0.33266 0.24604 0.0
N4 N 0.22268 0.35225 0.20309 0.0
C5 C 0.21776 0.26503 0.30923 0.0
C6 C 0.23198 0.21597 0.32664 0.0
C7 C 0.2373 0.28672 0.26367 0.0
C8 C 0.27516 0.26086 0.23595 0.0
C9 C 0.29389 0.21331 0.25389 0.0
C10 C 0.27114 0.19102 0.29903 0.0
H11 H 0.26841 0.74541 0.71008 0.0
H12 H 0.40203 0.79029 0.81448 0.0
H13 H 0.2548 0.86595 0.82191 0.0
N14 N 0.21321 0.82314 0.734 0.0
N15 N 0.19399 0.8661 0.7421 0.0
C16 C 0.28685 0.76871 0.74184 0.0
C17 C 0.33913 0.76126 0.75973 0.0
C18 C 0.25841 0.80844 0.76213 0.0
C19 C 0.2792 0.8376 0.80512 0.0
C20 C 0.33108 0.83145 0.82526 0.0
C21 C 0.36096 0.79326 0.80169 0.0
H22 H 0.65473 0.26357 0.82807 0.0
H23 H 0.7865 0.25569 0.93498 0.0
H24 H 0.78251 0.39003 0.83652 0.0
N25 N 0.69363 0.35225 0.78476 0.0
N26 N 0.71759 0.39179 0.76353 0.0
C27 C 0.69377 0.27904 0.84405 0.0
C28 C 0.7169 0.25369 0.88514 0.0
C29 C 0.71909 0.32657 0.82484 0.0
C30 C 0.76662 0.35076 0.84856 0.0
C31 C 0.79087 0.32666 0.8896 0.0
C32 C 0.76708 0.27642 0.90542 0.0
H33 H 0.70936 0.7121 0.29027 0.0
H34 H 0.72579 0.83387 0.40728 0.0
H35 H 0.84252 0.83467 0.28813 0.0
N36 N 0.79706 0.7457 0.24076 0.0
N37 N 0.84029 0.76234 0.21967 0.0
C38 C 0.72985 0.74864 0.30657 0.0
C39 C 0.71183 0.76959 0.3524 0.0
C40 C 0.77626 0.77264 0.28281 0.0
C41 C 0.80474 0.81867 0.30478 0.0
C42 C 0.78696 0.84138 0.34995 0.0
C43 C 0.73946 0.81725 0.37231 0.0
H44 H 0.89655 0.99681 0.86238 0.0
H45 H 0.00915 0.87939 0.87169 0.0
H46 H 0.89233 0.89282 0.99017 0.0
N47 N 0.84645 0.9743 0.94692 0.0
N48 N 0.83843 0.97936 0.99332 0.0
C49 C 0.9126 0.96444 0.88221 0.0
C50 C 0.95617 0.94076 0.86189 0.0
C51 C 0.88999 0.94802 0.92833 0.0
C52 C 0.91007 0.9058 0.95442 0.0
C53 C 0.95294 0.88027 0.93426 0.0
C54 C 0.97591 0.8982 0.88768 0.0
H55 H 0.54486 0.16769 0.40007 0.0
H56 H 0.66001 0.05293 0.3827 0.0
H57 H 0.67604 0.16619 0.50757 0.0
N58 N 0.58787 0.21469 0.48278 0.0
N59 N 0.61543 0.24419 0.51415 0.0
C60 C 0.58091 0.15081 0.41277 0.0
C61 C 0.5991 0.10816 0.38559 0.0
C62 C 0.60848 0.1719 0.4565 0.0
C63 C 0.65477 0.14984 0.47364 0.0
C64 C 0.67354 0.10648 0.44755 0.0
C65 C 0.6457 0.08607 0.4032 0.0
H66 H 0.50361 0.70032 0.15353 0.0
H67 H 0.37149 0.66482 0.04731 0.0
H68 H 0.38973 0.56176 0.17404 0.0
N69 N 0.47817 0.62092 0.21429 0.0
N70 N 0.47846 0.57586 0.23283 0.0
C71 C 0.46908 0.6738 0.13965 0.0
C72 C 0.44064 0.68661 0.09595 0.0
C73 C 0.45169 0.62863 0.16744 0.0
C74 C 0.40498 0.59557 0.15147 0.0
C75 C 0.3763 0.60818 0.10769 0.0
C76 C 0.39461 0.6536 0.07998 0.0
H77 H 0.04895 0.38289 0.6441 0.0
H78 H 0.18658 0.4104 0.54656 0.0
H79 H 0.15813 0.52586 0.66266 0.0
N80 N 0.07279 0.47283 0.70084 0.0
N81 N 0.04377 0.44124 0.72759 0.0
C82 C 0.0844 0.40809 0.63188 0.0
C83 C 0.11501 0.39161 0.59113 0.0
C84 C 0.10011 0.45646 0.65756 0.0
C85 C 0.14603 0.4887 0.64229 0.0
C86 C 0.17767 0.47245 0.60265 0.0
C87 C 0.16196 0.42372 0.57691 0.0
Zn88 Zn 0.95248 0.10974 0.60651 0.0
Zn89 Zn 0.05682 0.98839 0.49161 0.0
Zn90 Zn 0.00439 0.05432 0.54768 0.0
C91 C 0.10835 0.09122 0.47637 0.0
C92 C 0.94953 0.98041 0.45601 0.0
O93 O 0.00888 0.02608 0.629 0.0
O94 O 0.97093 0.08552 0.67466 0.0
C95 C 0.02647 0.1808 0.55494 0.0
O96 O 0.06949 0.10364 0.50491 0.0
O97 O 0.11369 0.04291 0.46699 0.0
O98 O 0.99454 0.96471 0.44505 0.0
O99 O 0.94556 0.01263 0.49382 0.0
O100 O 0.98664 0.1793 0.5843 0.0
O101 O 0.04242 0.13723 0.53767 0.0
O102 O 0.91674 0.049 0.52073 0.0
O103 O 0.8776 0.09026 0.58223 0.0
C104 C 0.87385 0.06509 0.54035 0.0
O105 O 0.04203 0.99764 0.59801 0.0
O106 O 0.07714 0.94076 0.54664 0.0
C107 C 0.99427 0.04368 0.67254 0.0
C108 C 0.06794 0.9565 0.59116 0.0
Zn109 Zn 0.45741 0.08568 0.01761 0.0
Zn110 Zn 0.5659 0.97639 0.12226 0.0
Zn111 Zn 0.51291 0.02573 0.07154 0.0
C112 C 0.64435 0.03365 0.07754 0.0
C113 C 0.51384 0.9007 0.06255 0.0
O114 O 0.46766 0.07464 0.1259 0.0
O115 O 0.42478 0.12451 0.07394 0.0
C116 C 0.56435 0.10904 0.98892 0.0
O117 O 0.60119 0.04017 0.05144 0.0
O118 O 0.63942 0.01396 0.12117 0.0
O119 O 0.55897 0.90827 0.08528 0.0
O120 O 0.48599 0.9403 0.05573 0.0
O121 O 0.51801 0.12244 0.9788 0.0
O122 O 0.57049 0.07411 0.02308 0.0
O123 O 0.45728 0.9704 0.02012 0.0
O124 O 0.41333 0.0281 0.97877 0.0
C125 C 0.42285 0.98049 0.98524 0.0
O126 O 0.50589 0.04692 0.15523 0.0
O127 O 0.53217 0.97473 0.18898 0.0
C128 C 0.43542 0.11078 0.11864 0.0
C129 C 0.51528 0.01958 0.19503 0.0
Zn130 Zn 0.58335 0.62722 0.60867 0.0
Zn131 Zn 0.46657 0.4881 0.51338 0.0
Zn132 Zn 0.51718 0.55543 0.55815 0.0
C133 C 0.5164 0.42678 0.56819 0.0
C134 C 0.52079 0.53356 0.43818 0.0
O135 O 0.46522 0.59814 0.6105 0.0
O136 O 0.5271 0.64937 0.65546 0.0
C137 C 0.61606 0.52794 0.63083 0.0
O138 O 0.54307 0.47365 0.57149 0.0
O139 O 0.46773 0.42263 0.55311 0.0
O140 O 0.50416 0.48602 0.44826 0.0
O141 O 0.52543 0.56881 0.47451 0.0
O142 O 0.63285 0.57683 0.63611 0.0
O143 O 0.57345 0.51329 0.60358 0.0
O144 O 0.55751 0.60992 0.50203 0.0
O145 O 0.60467 0.67272 0.54879 0.0
C146 C 0.58874 0.65401 0.50567 0.0
O147 O 0.43162 0.56034 0.57879 0.0
O148 O 0.39806 0.51956 0.50916 0.0
C149 C 0.47806 0.63231 0.6469 0.0
C150 C 0.3908 0.54561 0.54919 0.0
Zn151 Zn 0.09384 0.61412 0.97195 0.0
Zn152 Zn 0.97976 0.51512 0.10477 0.0
Zn153 Zn 0.03302 0.56523 0.03318 0.0
C154 C 0.08251 0.49894 0.12901 0.0
C155 C 0.94477 0.46342 0.01344 0.0
O156 O 0.01403 0.65164 0.02905 0.0
O157 O 0.08304 0.68849 0.98538 0.0
C158 C 0.16457 0.57017 0.03123 0.0
O159 O 0.08779 0.52599 0.08758 0.0
O160 O 0.03668 0.49095 0.14924 0.0
O161 O 0.93879 0.46021 0.06091 0.0
O162 O 0.97861 0.50046 0.99512 0.0
O163 O 0.16499 0.59228 0.98861 0.0
O164 O 0.11943 0.55927 0.05455 0.0
O165 O 0.01315 0.5265 0.95809 0.0
O166 O 0.06011 0.58402 0.90878 0.0
C167 C 0.02755 0.54258 0.91352 0.0
O168 O 0.9841 0.62434 0.06896 0.0
O169 O 0.93995 0.57426 0.12659 0.0
C170 C 0.03971 0.6932 0.00851 0.0
C171 C 0.949 0.6184 0.10467 0.0
C172 C 0.14901 0.19873 0.38224 0.0
C173 C 0.20299 0.18979 0.37137 0.0
H174 H 0.07773 0.17646 0.42568 0.0
C175 C 0.22732 0.15343 0.40198 0.0
H176 H 0.12758 0.22515 0.35944 0.0
C177 C 0.19754 0.12422 0.43912 0.0
C178 C 0.14316 0.13167 0.44795 0.0
H179 H 0.26895 0.14615 0.39649 0.0
H180 H 0.21646 0.09411 0.45968 0.0
C181 C 0.11989 0.17069 0.42051 0.0
C182 C 0.39364 0.85304 0.90304 0.0
C183 C 0.35449 0.86794 0.8681 0.0
H184 H 0.44744 0.87695 0.96586 0.0
C185 C 0.33779 0.91927 0.87407 0.0
H186 H 0.40801 0.81418 0.90026 0.0
C187 C 0.35785 0.9535 0.91369 0.0
C188 C 0.39731 0.93916 0.94819 0.0
H189 H 0.30999 0.93441 0.84737 0.0
H190 H 0.34341 0.99241 0.91602 0.0
C191 C 0.41534 0.88854 0.94196 0.0
C192 C 0.63815 0.4087 0.71103 0.0
C193 C 0.69275 0.4209 0.72579 0.0
H194 H 0.57091 0.43366 0.6694 0.0
C195 C 0.72277 0.46572 0.70577 0.0
H196 H 0.61395 0.37441 0.72617 0.0
C197 C 0.69836 0.4994 0.67312 0.0
C198 C 0.64337 0.4885 0.6596 0.0
H199 H 0.76482 0.47562 0.71695 0.0
H200 H 0.72218 0.53472 0.65947 0.0
C201 C 0.61366 0.44239 0.67823 0.0
C202 C 0.91554 0.7475 0.16421 0.0
C203 C 0.86284 0.73181 0.18109 0.0
H204 H 0.98493 0.72376 0.1252 0.0
C205 C 0.8361 0.68274 0.16403 0.0
H206 H 0.93668 0.78529 0.17685 0.0
C207 C 0.86336 0.64802 0.13488 0.0
C208 C 0.91773 0.66155 0.12185 0.0
H209 H 0.79525 0.66967 0.17574 0.0
H210 H 0.84289 0.60898 0.12516 0.0
C211 C 0.94296 0.71258 0.13458 0.0
C212 C 0.37417 0.21664 0.19476 0.0
C213 C 0.33549 0.1864 0.22439 0.0
H214 H 0.43599 0.21639 0.13859 0.0
C215 C 0.33613 0.13039 0.22378 0.0
H216 H 0.3769 0.25972 0.195 0.0
C217 C 0.37226 0.10569 0.19283 0.0
C218 C 0.40797 0.13615 0.16097 0.0
H219 H 0.30703 0.10505 0.24518 0.0
H220 H 0.36969 0.06258 0.19126 0.0
C221 C 0.40908 0.19187 0.16298 0.0
C222 C 0.13301 0.85372 0.66689 0.0
C223 C 0.15396 0.88409 0.70939 0.0
H224 H 0.08844 0.85292 0.59652 0.0
C225 C 0.14073 0.93631 0.71565 0.0
H226 H 0.14252 0.81328 0.66094 0.0
C227 C 0.11026 0.95927 0.67842 0.0
C228 C 0.09163 0.92993 0.63463 0.0
H229 H 0.15698 0.96045 0.74785 0.0
H230 H 0.1042 1.00092 0.68249 0.0
C231 C 0.10217 0.8765 0.62991 0.0
C232 C 0.84305 0.34796 0.9719 0.0
C233 C 0.83635 0.35701 0.91952 0.0
H234 H 0.8835 0.37288 0.04168 0.0
C235 C 0.8695 0.39951 0.89783 0.0
H236 H 0.81802 0.31704 0.99122 0.0
C237 C 0.90434 0.43422 0.92819 0.0
C238 C 0.91053 0.42522 0.98019 0.0
H239 H 0.86747 0.40768 0.85765 0.0
H240 H 0.92432 0.46944 0.91126 0.0
C241 C 0.88025 0.38094 1.00147 0.0
C242 C 0.63736 0.7645 0.41717 0.0
C243 C 0.67012 0.73835 0.38384 0.0
H244 H 0.58661 0.75814 0.48264 0.0
C245 C 0.66836 0.68239 0.38647 0.0
H246 H 0.63602 0.80715 0.41544 0.0
C247 C 0.63823 0.6542 0.42391 0.0
C248 C 0.61005 0.68142 0.45992 0.0
H249 H 0.69318 0.66055 0.3621 0.0
H250 H 0.64009 0.61167 0.42691 0.0
C251 C 0.60858 0.73648 0.45543 0.0
C252 C 0.16086 0.42071 0.22006 0.0
C253 C 0.19499 0.39598 0.18701 0.0
H254 H 0.09958 0.47358 0.2276 0.0
C255 C 0.1974 0.41163 0.13602 0.0
H256 H 0.15821 0.41002 0.25975 0.0
C257 C 0.16358 0.44838 0.11751 0.0
C258 C 0.12707 0.47054 0.14992 0.0
H259 H 0.22323 0.3931 0.10988 0.0
H260 H 0.1635 0.45662 0.07723 0.0
C261 C 0.12731 0.45738 0.20167 0.0
C262 C 0.64691 0.17317 0.88344 0.0
C263 C 0.68544 0.20791 0.91081 0.0
H264 H 0.57768 0.11476 0.88726 0.0
C265 C 0.68891 0.20246 0.96414 0.0
H266 H 0.64392 0.17452 0.8424 0.0
C267 C 0.65236 0.16624 0.98945 0.0
C268 C 0.61087 0.13588 0.96218 0.0
H269 H 0.71727 0.22858 0.98707 0.0
H270 H 0.65387 0.16513 0.03062 0.0
C271 C 0.60935 0.13832 0.90898 0.0
C272 C 0.82346 0.8885 0.43084 0.0
C273 C 0.82178 0.88545 0.37714 0.0
H274 H 0.86424 0.92311 0.49767 0.0
C275 C 0.85788 0.92144 0.35022 0.0
H276 H 0.7977 0.8613 0.45367 0.0
C277 C 0.89792 0.95515 0.37604 0.0
C278 C 0.90095 0.95546 0.42925 0.0
H279 H 0.85699 0.92206 0.30909 0.0
H280 H 0.92774 0.97957 0.35442 0.0
C281 C 0.86202 0.92384 0.4565 0.0
C282 C 0.41305 0.69901 0.75653 0.0
C283 C 0.37159 0.72311 0.73181 0.0
H284 H 0.47891 0.6512 0.74902 0.0
C285 C 0.36237 0.71139 0.6793 0.0
H286 H 0.42115 0.70548 0.79679 0.0
C287 C 0.39387 0.67785 0.65261 0.0
C288 C 0.4368 0.65653 0.67699 0.0
H289 H 0.33243 0.72984 0.65761 0.0
H290 H 0.38694 0.67159 0.61208 0.0
C291 C 0.44569 0.66694 0.72931 0.0
C292 C 0.97695 0.93289 0.76866 0.0
C293 C 0.98045 0.96286 0.81432 0.0
H294 H 0.9792 0.93526 0.6869 0.0
C295 C 0.99816 0.01755 0.81276 0.0
H296 H 0.96292 0.89073 0.76887 0.0
C297 C 0.00738 0.04281 0.76635 0.0
C298 C 0.99931 0.01399 0.72031 0.0
H299 H 0.00129 0.04151 0.84742 0.0
H300 H 0.01753 0.08567 0.76637 0.0
C301 C 0.98627 0.95835 0.72184 0.0
C302 C 0.5544 0.03154 0.33343 0.0
C303 C 0.56889 0.08652 0.33921 0.0
H304 H 0.52245 0.9675 0.2842 0.0
C305 C 0.55511 0.12038 0.30006 0.0
H306 H 0.56315 0.00463 0.36343 0.0
C307 C 0.5317 0.09913 0.25419 0.0
C308 C 0.52126 0.04366 0.24697 0.0
H309 H 0.56531 0.1631 0.30377 0.0
H310 H 0.52567 0.12585 0.22326 0.0
C311 C 0.53034 0.01044 0.28818 0.0
C312 C 0.50731 0.61091 0.31809 0.0
C313 C 0.50067 0.56894 0.28188 0.0
H314 H 0.51892 0.63252 0.39684 0.0
C315 C 0.51039 0.51781 0.29623 0.0
H316 H 0.49984 0.65089 0.30789 0.0
C317 C 0.52288 0.50759 0.34672 0.0
C318 C 0.52454 0.54828 0.38409 0.0
H319 H 0.50567 0.48522 0.26872 0.0
H320 H 0.52741 0.4669 0.35706 0.0
C321 C 0.51879 0.60052 0.36898 0.0
C322 C 0.02334 0.43136 0.81721 0.0
C323 C 0.02141 0.46064 0.77247 0.0
H324 H 0.02711 0.43519 0.89884 0.0
C325 C 0.00819 0.51326 0.77508 0.0
H326 H 0.03359 0.39077 0.81568 0.0
C327 C 0.00383 0.53829 0.82207 0.0
C328 C 0.01272 0.51114 0.86706 0.0
H329 H 0.00587 0.53633 0.74085 0.0
H330 H 0.99824 0.58027 0.82321 0.0
C331 C 0.0197 0.45671 0.86454 0.0
C332 C 0.75032 0.01489 0.97993 0.0
C333 C 0.79367 0.004 0.01186 0.0
H334 H 0.66855 0.03448 0.9759 0.0
C335 C 0.79082 0.01399 0.06407 0.0
H336 H 0.75165 0.00797 0.93926 0.0
C337 C 0.74387 0.03026 0.08491 0.0
C338 C 0.69829 0.03597 0.05388 0.0
H339 H 0.82407 0.00649 0.08906 0.0
H340 H 0.74185 0.03431 0.1259 0.0
C341 C 0.70291 0.03075 1.00086 0.0
C342 C 0.76734 0.07736 0.43779 0.0
C343 C 0.72189 0.08315 0.46799 0.0
H344 H 0.85203 0.06604 0.43704 0.0
C345 C 0.72497 0.07225 0.52007 0.0
H346 H 0.76605 0.08535 0.39746 0.0
C347 C 0.77356 0.06098 0.54243 0.0
C348 C 0.82057 0.0603 0.51339 0.0
H349 H 0.69037 0.07529 0.54415 0.0
H350 H 0.77519 0.05619 0.58329 0.0
C351 C 0.81646 0.06601 0.46037 0.0
C352 C 0.31351 0.56276 0.04285 0.0
C353 C 0.32324 0.57953 0.0935 0.0
H354 H 0.2544 0.54556 0.98349 0.0
C355 C 0.27937 0.58114 0.12641 0.0
H356 H 0.34685 0.56118 0.01694 0.0
C357 C 0.22628 0.57258 0.1072 0.0
C358 C 0.21692 0.56219 0.05505 0.0
H359 H 0.28608 0.59445 0.16556 0.0
H360 H 0.19315 0.57916 0.13201 0.0
C361 C 0.26071 0.55418 0.02375 0.0
C362 C 0.26813 0.51911 0.62898 0.0
C363 C 0.22907 0.50453 0.59054 0.0
H364 H 0.35148 0.54581 0.64593 0.0
C365 C 0.2412 0.51691 0.54001 0.0
H366 H 0.25938 0.51033 0.6684 0.0
C367 C 0.29322 0.53839 0.52741 0.0
C368 C 0.33431 0.54657 0.56499 0.0
H369 H 0.21132 0.50722 0.50996 0.0
H370 H 0.30258 0.54372 0.48756 0.0
C371 C 0.32063 0.54003 0.61626 0.0
C372 C 0.93926 0.79223 0.98015 0.0
C373 C 0.9742 0.83538 0.96183 0.0
H374 H 0.93243 0.71297 0.01038 0.0
C375 C 0.0302 0.83439 0.96807 0.0
H376 H 0.8958 0.79197 0.97615 0.0
C377 C 0.05097 0.78997 0.9886 0.0
C378 C 0.01643 0.74476 1.00287 0.0
H379 H 0.05817 0.86743 0.95558 0.0
H380 H 0.09454 0.7898 0.99036 0.0
C381 C 0.96019 0.74717 1.00029 0.0
C382 C 0.41816 0.77618 0.07003 0.0
C383 C 0.45545 0.73819 0.07163 0.0
H384 H 0.40779 0.85914 0.06497 0.0
C385 C 0.50925 0.75282 0.05811 0.0
H386 H 0.37638 0.76555 0.08043 0.0
C387 C 0.52694 0.80591 0.0486 0.0
C388 C 0.4912 0.84513 0.05323 0.0
H389 H 0.53841 0.72389 0.05863 0.0
H390 H 0.56965 0.81692 0.04214 0.0
C391 C 0.43603 0.8296 0.06105 0.0
C392 C 0.13189 0.29822 0.56706 0.0
C393 C 0.09819 0.33953 0.56588 0.0
H394 H 0.13525 0.21343 0.56279 0.0
C395 C 0.04464 0.32833 0.54819 0.0
H396 H 0.17339 0.30606 0.58062 0.0
C397 C 0.02323 0.27596 0.53769 0.0
C398 C 0.05487 0.23379 0.54488 0.0
H399 H 0.01813 0.35962 0.54641 0.0
H400 H 0.9804 0.26795 0.52863 0.0
C401 C 0.11025 0.24537 0.55654 0.0
C402 C 0.62474 0.33471 0.5495 0.0
C403 C 0.59256 0.28657 0.53898 0.0
H404 H 0.62582 0.41804 0.56684 0.0
C405 C 0.53691 0.28283 0.54873 0.0
H406 H 0.66781 0.33808 0.54252 0.0
C407 C 0.5131 0.32778 0.56434 0.0
C408 C 0.54419 0.3777 0.56931 0.0
H409 H 0.51143 0.24571 0.54194 0.0
H410 H 0.46956 0.32415 0.56863 0.0
C411 C 0.6007 0.38026 0.56391 0.0
loop_
_geom_bond_atom_site_label_1
_geom_bond_atom_site_label_2
_geom_bond_distance
_geom_bond_site_symmetry_2
_ccdc_geom_bond_type
H0 C5 0.929 . S
H1 C10 0.931 . S
H2 C8 0.930 . S
N3 N4 1.234 . S
N3 C7 1.453 . S
N4 N3 1.234 . S
C5 H0 0.929 . S
C5 C6 1.373 . S
C5 C7 1.368 . S
C6 C5 1.373 . S
C6 C10 1.397 . S
C7 N3 1.453 . S
C7 C5 1.368 . S
C7 C8 1.373 . S
C8 H2 0.930 . S
C8 C7 1.373 . S
C8 C9 1.371 . S
C9 C8 1.371 . S
C9 C10 1.383 . S
C10 H1 0.931 . S
C10 C6 1.397 . S
C10 C9 1.383 . S
H11 C16 0.929 . S
H12 C21 0.931 . S
H13 C19 0.930 . S
N14 N15 1.234 . S
N14 C18 1.453 . S
N15 N14 1.234 . S
C16 H11 0.929 . S
C16 C17 1.373 . S
C16 C18 1.368 . S
C17 C16 1.373 . S
C17 C21 1.397 . S
C18 N14 1.453 . S
C18 C16 1.368 . S
C18 C19 1.373 . S
C19 H13 0.930 . S
C19 C18 1.373 . S
C19 C20 1.371 . S
C20 C19 1.371 . S
C20 C21 1.383 . S
C21 H12 0.931 . S
C21 C17 1.397 . S
C21 C20 1.383 . S
H22 C27 0.929 . S
H23 C32 0.931 . S
H24 C30 0.930 . S
N25 N26 1.234 . S
N25 C29 1.453 . S
N26 N25 1.234 . S
C27 H22 0.929 . S
C27 C28 1.373 . S
C27 C29 1.368 . S
C28 C27 1.373 . S
C28 C32 1.397 . S
C29 N25 1.453 . S
C29 C27 1.368 . S
C29 C30 1.373 . S
C30 H24 0.930 . S
C30 C29 1.373 . S
C30 C31 1.371 . S
C31 C30 1.371 . S
C31 C32 1.383 . S
C32 H23 0.931 . S
C32 C28 1.397 . S
C32 C31 1.383 . S
H33 C38 0.929 . S
H34 C43 0.931 . S
H35 C41 0.930 . S
N36 N37 1.234 . S
N36 C40 1.453 . S
N37 N36 1.234 . S
C38 H33 0.929 . S
C38 C39 1.373 . S
C38 C40 1.368 . S
C39 C38 1.373 . S
C39 C43 1.397 . S
C40 N36 1.453 . S
C40 C38 1.368 . S
C40 C41 1.373 . S
C41 H35 0.930 . S
C41 C40 1.373 . S
C41 C42 1.371 . S
C42 C41 1.371 . S
C42 C43 1.383 . S
C43 H34 0.931 . S
C43 C39 1.397 . S
C43 C42 1.383 . S
H44 C49 0.929 . S
H45 C54 0.946 . S
H46 C52 0.930 1_554 S
N47 N48 1.234 1_546 S
N47 C51 1.453 1_545 S
N48 N47 1.234 1_564 S
C49 H44 0.929 . S
C49 C50 1.373 1_545 S
C49 C51 1.368 1_545 S
C50 C49 1.373 1_565 S
C50 C54 1.389 1_655 S
C51 N47 1.453 1_565 S
C51 C49 1.368 1_565 S
C51 C52 1.373 . S
C52 H46 0.930 1_556 S
C52 C51 1.373 . S
C52 C53 1.371 . S
C53 C52 1.371 . S
C53 C54 1.376 1_655 S
C54 H45 0.946 . S
C54 C50 1.389 1_455 S
C54 C53 1.376 1_455 S
H55 C60 0.929 . S
H56 C65 0.931 . S
H57 C63 0.930 . S
N58 N59 1.234 . S
N58 C62 1.453 . S
N59 N58 1.234 . S
C60 H55 0.929 . S
C60 C61 1.373 . S
C60 C62 1.368 . S
C61 C60 1.373 . S
C61 C65 1.397 . S
C62 N58 1.453 . S
C62 C60 1.368 . S
C62 C63 1.373 . S
C63 H57 0.930 . S
C63 C62 1.373 . S
C63 C64 1.371 . S
C64 C63 1.371 . S
C64 C65 1.383 . S
C65 H56 0.931 . S
C65 C61 1.397 . S
C65 C64 1.383 . S
H66 C71 0.929 . S
H67 C76 0.931 . S
H68 C74 0.930 . S
N69 N70 1.234 . S
N69 C73 1.453 . S
N70 N69 1.234 . S
C71 H66 0.929 . S
C71 C72 1.373 . S
C71 C73 1.368 . S
C72 C71 1.373 . S
C72 C76 1.397 . S
C73 N69 1.453 . S
C73 C71 1.368 . S
C73 C74 1.373 . S
C74 H68 0.930 . S
C74 C73 1.373 . S
C74 C75 1.371 . S
C75 C74 1.371 . S
C75 C76 1.383 . S
C76 H67 0.931 . S
C76 C72 1.397 . S
C76 C75 1.383 . S
H77 C82 0.929 . S
H78 C87 0.931 . S
H79 C85 0.930 . S
N80 N81 1.234 . S
N80 C84 1.453 . S
N81 N80 1.234 . S
C82 H77 0.929 . S
C82 C83 1.373 . S
C82 C84 1.368 . S
C83 C82 1.373 . S
C83 C87 1.397 . S
C84 N80 1.453 . S
C84 C82 1.368 . S
C84 C85 1.373 . S
C85 H79 0.930 . S
C85 C84 1.373 . S
C85 C86 1.371 . S
C86 C85 1.371 . S
C86 C87 1.383 . S
C87 H78 0.931 . S
C87 C83 1.397 . S
C87 C86 1.383 . S
Zn88 O94 1.920 . S
Zn88 O100 1.898 . S
Zn88 O103 1.905 . S
Zn89 O97 1.905 1_565 S
Zn89 O98 1.898 . S
Zn89 O106 1.920 . S
Zn90 O93 2.080 1_455 S
Zn90 O96 2.114 . S
Zn90 O99 2.120 1_445 S
Zn90 O101 2.120 . S
Zn90 O102 2.114 1_455 S
Zn90 O105 2.080 . S
C91 O96 1.166 . S
C91 O97 1.182 . S
C92 O98 1.167 1_655 S
C92 O99 1.299 . S
O93 Zn90 2.080 1_655 S
O93 C107 1.305 . S
O94 Zn88 1.920 . S
O94 C107 1.234 . S
C95 O100 1.167 1_455 S
C95 O101 1.299 . S
O96 Zn90 2.114 . S
O96 C91 1.166 . S
O97 Zn89 1.905 1_545 S
O97 C91 1.182 . S
O98 Zn89 1.898 . S
O98 C92 1.167 1_455 S
O99 Zn90 2.120 1_665 S
O99 C92 1.299 . S
O100 Zn88 1.898 . S
O100 C95 1.167 1_655 S
O101 Zn90 2.120 . S
O101 C95 1.299 . S
O102 Zn90 2.114 1_655 S
O102 C104 1.166 . S
O103 Zn88 1.905 . S
O103 C104 1.182 . S
C104 O102 1.166 . S
C104 O103 1.182 . S
O105 Zn90 2.080 . S
O105 C108 1.305 1_545 S
O106 Zn89 1.920 . S
O106 C108 1.234 . S
C107 O93 1.305 . S
C107 O94 1.234 . S
C108 O105 1.305 1_565 S
C108 O106 1.234 . S
Zn109 O115 1.920 1_556 S
Zn109 O121 1.898 . S
Zn109 O124 1.905 . S
Zn110 O118 1.905 . S
Zn110 O119 1.898 . S
Zn110 O127 1.920 . S
Zn111 O114 2.080 . S
Zn111 O117 2.114 1_545 S
Zn111 O120 2.120 1_545 S
Zn111 O122 2.120 . S
Zn111 O123 2.114 1_544 S
Zn111 O126 2.080 . S
C112 O117 1.166 . S
C112 O118 1.182 . S
C113 O119 1.167 . S
C113 O120 1.299 . S
O114 Zn111 2.080 . S
O114 C128 1.305 . S
O115 Zn109 1.920 1_554 S
O115 C128 1.234 . S
C116 O121 1.167 1_554 S
C116 O122 1.299 . S
O117 Zn111 2.114 1_565 S
O117 C112 1.166 . S
O118 Zn110 1.905 . S
O118 C112 1.182 . S
O119 Zn110 1.898 . S
O119 C113 1.167 . S
O120 Zn111 2.120 1_565 S
O120 C113 1.299 . S
O121 Zn109 1.898 . S
O121 C116 1.167 1_556 S
O122 Zn111 2.120 . S
O122 C116 1.299 . S
O123 Zn111 2.114 1_566 S
O123 C125 1.166 . S
O124 Zn109 1.905 . S
O124 C125 1.182 1_545 S
C125 O123 1.166 . S
C125 O124 1.182 1_565 S
O126 Zn111 2.080 . S
O126 C129 1.305 . S
O127 Zn110 1.920 . S
O127 C129 1.234 1_565 S
C128 O114 1.305 . S
C128 O115 1.234 . S
C129 O126 1.305 . S
C129 O127 1.234 1_545 S
Zn130 O136 1.920 . S
Zn130 O142 1.898 . S
Zn130 O145 1.905 . S
Zn131 O139 1.905 . S
Zn131 O140 1.898 . S
Zn131 O148 1.920 . S
Zn132 O135 2.080 . S
Zn132 O138 2.114 . S
Zn132 O141 2.120 . S
Zn132 O143 2.120 . S
Zn132 O144 2.114 . S
Zn132 O147 2.080 . S
C133 O138 1.166 . S
C133 O139 1.182 . S
C134 O140 1.167 . S
C134 O141 1.299 . S
O135 Zn132 2.080 . S
O135 C149 1.305 . S
O136 Zn130 1.920 . S
O136 C149 1.234 . S
C137 O142 1.167 . S
C137 O143 1.299 . S
O138 Zn132 2.114 . S
O138 C133 1.166 . S
O139 Zn131 1.905 . S
O139 C133 1.182 . S
O140 Zn131 1.898 . S
O140 C134 1.167 . S
O141 Zn132 2.120 . S
O141 C134 1.299 . S
O142 Zn130 1.898 . S
O142 C137 1.167 . S
O143 Zn132 2.120 . S
O143 C137 1.299 . S
O144 Zn132 2.114 . S
O144 C146 1.166 . S
O145 Zn130 1.905 . S
O145 C146 1.182 . S
C146 O144 1.166 . S
C146 O145 1.182 . S
O147 Zn132 2.080 . S
O147 C150 1.305 . S
O148 Zn131 1.920 . S
O148 C150 1.234 . S
C149 O135 1.305 . S
C149 O136 1.234 . S
C150 O147 1.305 . S
C150 O148 1.234 . S
Zn151 O157 1.920 . S
Zn151 O163 1.898 . S
Zn151 O166 1.905 . S
Zn152 O160 1.905 1_655 S
Zn152 O161 1.898 . S
Zn152 O169 1.920 . S
Zn153 O156 2.080 1_554 S
Zn153 O159 2.114 . S
Zn153 O162 2.120 1_454 S
Zn153 O164 2.120 . S
Zn153 O165 2.114 1_554 S
Zn153 O168 2.080 . S
C154 O159 1.166 . S
C154 O160 1.182 . S
C155 O161 1.167 1_556 S
C155 O162 1.299 . S
O156 Zn153 2.080 1_556 S
O156 C170 1.305 . S
O157 Zn151 1.920 . S
O157 C170 1.234 . S
C158 O163 1.167 1_554 S
C158 O164 1.299 . S
O159 Zn153 2.114 . S
O159 C154 1.166 . S
O160 Zn152 1.905 1_455 S
O160 C154 1.182 . S
O161 Zn152 1.898 . S
O161 C155 1.167 1_554 S
O162 Zn153 2.120 1_656 S
O162 C155 1.299 . S
O163 Zn151 1.898 . S
O163 C158 1.167 1_556 S
O164 Zn153 2.120 . S
O164 C158 1.299 . S
O165 Zn153 2.114 1_556 S
O165 C167 1.166 . S
O166 Zn151 1.905 . S
O166 C167 1.182 . S
C167 O165 1.166 . S
C167 O166 1.182 . S
O168 Zn153 2.080 . S
O168 C171 1.305 1_455 S
O169 Zn152 1.920 . S
O169 C171 1.234 . S
C170 O156 1.305 . S
C170 O157 1.234 . S
C171 O168 1.305 1_655 S
C171 O169 1.234 . S
C172 C173 1.387 . S
C172 H176 0.950 . S
C172 C181 1.390 . S
C173 C172 1.387 . S
C173 C175 1.387 . S
H174 C181 0.950 . S
C175 C173 1.387 . S
C175 C177 1.390 . S
C175 H179 0.950 . S
H176 C172 0.950 . S
C177 C175 1.390 . S
C177 C178 1.387 . S
C177 H180 0.950 . S
C178 C177 1.387 . S
C178 C181 1.387 . S
H179 C175 0.950 . S
H180 C177 0.950 . S
C181 C172 1.390 . S
C181 H174 0.950 . S
C181 C178 1.387 . S
C182 C183 1.387 . S
C182 H186 0.950 . S
C182 C191 1.390 . S
C183 C182 1.387 . S
C183 C185 1.387 . S
H184 C191 0.950 . S
C185 C183 1.387 . S
C185 C187 1.390 . S
C185 H189 0.950 . S
H186 C182 0.950 . S
C187 C185 1.390 . S
C187 C188 1.387 . S
C187 H190 0.950 1_565 S
C188 C187 1.387 . S
C188 C191 1.387 . S
H189 C185 0.950 . S
H190 C187 0.950 1_545 S
C191 C182 1.390 . S
C191 H184 0.950 . S
C191 C188 1.387 . S
C192 C193 1.387 . S
C192 H196 0.950 . S
C192 C201 1.390 . S
C193 C192 1.387 . S
C193 C195 1.387 . S
H194 C201 0.950 . S
C195 C193 1.387 . S
C195 C197 1.390 . S
C195 H199 0.950 . S
H196 C192 0.950 . S
C197 C195 1.390 . S
C197 C198 1.387 . S
C197 H200 0.950 . S
C198 C197 1.387 . S
C198 C201 1.387 . S
H199 C195 0.950 . S
H200 C197 0.950 . S
C201 C192 1.390 . S
C201 H194 0.950 . S
C201 C198 1.387 . S
C202 C203 1.387 . S
C202 H206 0.950 . S
C202 C211 1.390 . S
C203 C202 1.387 . S
C203 C205 1.387 . S
H204 C211 0.950 1_455 S
C205 C203 1.387 . S
C205 C207 1.390 . S
C205 H209 0.950 . S
H206 C202 0.950 . S
C207 C205 1.390 . S
C207 C208 1.387 . S
C207 H210 0.950 . S
C208 C207 1.387 . S
C208 C211 1.387 . S
H209 C205 0.950 . S
H210 C207 0.950 . S
C211 C202 1.390 . S
C211 H204 0.950 1_655 S
C211 C208 1.387 . S
C212 C213 1.387 . S
C212 H216 0.950 . S
C212 C221 1.390 . S
C213 C212 1.387 . S
C213 C215 1.387 . S
H214 C221 0.950 . S
C215 C213 1.387 . S
C215 C217 1.390 . S
C215 H219 0.950 . S
H216 C212 0.950 . S
C217 C215 1.390 . S
C217 C218 1.387 . S
C217 H220 0.950 . S
C218 C217 1.387 . S
C218 C221 1.387 . S
H219 C215 0.950 . S
H220 C217 0.950 . S
C221 C212 1.390 . S
C221 H214 0.950 . S
C221 C218 1.387 . S
C222 C223 1.387 . S
C222 H226 0.950 . S
C222 C231 1.390 . S
C223 C222 1.387 . S
C223 C225 1.387 . S
H224 C231 0.950 . S
C225 C223 1.387 . S
C225 C227 1.390 1_565 S
C225 H229 0.950 1_565 S
H226 C222 0.950 . S
C227 C225 1.390 1_545 S
C227 C228 1.387 1_545 S
C227 H230 0.950 . S
C228 C227 1.387 1_565 S
C228 C231 1.387 . S
H229 C225 0.950 1_545 S
H230 C227 0.950 . S
C231 C222 1.390 . S
C231 H224 0.950 . S
C231 C228 1.387 . S
C232 C233 1.387 . S
C232 H236 0.950 . S
C232 C241 1.390 . S
C233 C232 1.387 . S
C233 C235 1.387 . S
H234 C241 0.950 1_554 S
C235 C233 1.387 . S
C235 C237 1.390 . S
C235 H239 0.950 . S
H236 C232 0.950 . S
C237 C235 1.390 . S
C237 C238 1.387 . S
C237 H240 0.950 . S
C238 C237 1.387 . S
C238 C241 1.387 . S
H239 C235 0.950 . S
H240 C237 0.950 . S
C241 C232 1.390 . S
C241 H234 0.950 1_556 S
C241 C238 1.387 . S
C242 C243 1.387 . S
C242 H246 0.950 . S
C242 C251 1.390 . S
C243 C242 1.387 . S
C243 C245 1.387 . S
H244 C251 0.950 . S
C245 C243 1.387 . S
C245 C247 1.390 . S
C245 H249 0.950 . S
H246 C242 0.950 . S
C247 C245 1.390 . S
C247 C248 1.387 . S
C247 H250 0.950 . S
C248 C247 1.387 . S
C248 C251 1.387 . S
H249 C245 0.950 . S
H250 C247 0.950 . S
C251 C242 1.390 . S
C251 H244 0.950 . S
C251 C248 1.387 . S
C252 C253 1.387 . S
C252 H256 0.950 . S
C252 C261 1.390 . S
C253 C252 1.387 . S
C253 C255 1.387 . S
H254 C261 0.950 . S
C255 C253 1.387 . S
C255 C257 1.390 . S
C255 H259 0.950 . S
H256 C252 0.950 . S
C257 C255 1.390 . S
C257 C258 1.387 . S
C257 H260 0.950 . S
C258 C257 1.387 . S
C258 C261 1.387 . S
H259 C255 0.950 . S
H260 C257 0.950 . S
C261 C252 1.390 . S
C261 H254 0.950 . S
C261 C258 1.387 . S
C262 C263 1.387 . S
C262 H266 0.950 . S
C262 C271 1.390 . S
C263 C262 1.387 . S
C263 C265 1.406 . S
H264 C271 0.950 . S
C265 C263 1.406 . S
C265 C267 1.383 1_556 S
C265 H269 0.939 1_556 S
H266 C262 0.950 . S
C267 C265 1.383 1_554 S
C267 C268 1.387 1_554 S
C267 H270 0.950 . S
C268 C267 1.387 1_556 S
C268 C271 1.387 . S
H269 C265 0.939 1_554 S
H270 C267 0.950 . S
C271 C262 1.390 . S
C271 H264 0.950 . S
C271 C268 1.387 . S
C272 C273 1.387 . S
C272 H276 0.950 . S
C272 C281 1.390 . S
C273 C272 1.387 . S
C273 C275 1.387 . S
H274 C281 0.950 . S
C275 C273 1.387 . S
C275 C277 1.390 . S
C275 H279 0.950 . S
H276 C272 0.950 . S
C277 C275 1.390 . S
C277 C278 1.387 . S
C277 H280 0.950 . S
C278 C277 1.387 . S
C278 C281 1.387 . S
H279 C275 0.950 . S
H280 C277 0.950 . S
C281 C272 1.390 . S
C281 H274 0.950 . S
C281 C278 1.387 . S
C282 C283 1.387 . S
C282 H286 0.950 . S
C282 C291 1.390 . S
C283 C282 1.387 . S
C283 C285 1.387 . S
H284 C291 0.950 . S
C285 C283 1.387 . S
C285 C287 1.390 . S
C285 H289 0.950 . S
H286 C282 0.950 . S
C287 C285 1.390 . S
C287 C288 1.387 . S
C287 H290 0.950 . S
C288 C287 1.387 . S
C288 C291 1.387 . S
H289 C285 0.950 . S
H290 C287 0.950 . S
C291 C282 1.390 . S
C291 H284 0.950 . S
C291 C288 1.387 . S
C292 C293 1.387 1_455 S
C292 H296 0.950 . S
C292 C301 1.390 1_455 S
C293 C292 1.387 1_655 S
C293 C295 1.387 1_565 S
H294 C301 0.950 1_455 S
C295 C293 1.387 1_545 S
C295 C297 1.390 . S
C295 H299 0.950 . S
H296 C292 0.950 . S
C297 C295 1.390 . S
C297 C298 1.387 . S
C297 H300 0.950 . S
C298 C297 1.387 . S
C298 C301 1.387 1_545 S
H299 C295 0.950 . S
H300 C297 0.950 . S
C301 C292 1.390 1_655 S
C301 H294 0.950 1_655 S
C301 C298 1.387 1_565 S
C302 C303 1.387 . S
C302 H306 0.950 1_545 S
C302 C311 1.390 . S
C303 C302 1.387 . S
C303 C305 1.387 . S
H304 C311 0.950 1_565 S
C305 C303 1.387 . S
C305 C307 1.390 . S
C305 H309 0.950 . S
H306 C302 0.950 1_565 S
C307 C305 1.390 . S
C307 C308 1.387 . S
C307 H310 0.950 . S
C308 C307 1.387 . S
C308 C311 1.387 . S
H309 C305 0.950 . S
H310 C307 0.950 . S
C311 C302 1.390 . S
C311 H304 0.950 1_545 S
C311 C308 1.387 . S
C312 C313 1.387 . S
C312 H316 0.950 . S
C312 C321 1.390 . S
C313 C312 1.387 . S
C313 C315 1.387 . S
H314 C321 0.950 . S
C315 C313 1.387 . S
C315 C317 1.390 . S
C315 H319 0.950 . S
H316 C312 0.950 . S
C317 C315 1.390 . S
C317 C318 1.387 . S
C317 H320 0.950 . S
C318 C317 1.387 . S
C318 C321 1.387 . S
H319 C315 0.950 . S
H320 C317 0.950 . S
C321 C312 1.390 . S
C321 H314 0.950 . S
C321 C318 1.387 . S
C322 C323 1.387 . S
C322 H326 0.950 . S
C322 C331 1.390 . S
C323 C322 1.387 . S
C323 C325 1.387 . S
H324 C331 0.950 . S
C325 C323 1.387 . S
C325 C327 1.390 . S
C325 H329 0.950 1_455 S
H326 C322 0.950 . S
C327 C325 1.390 . S
C327 C328 1.387 . S
C327 H330 0.950 1_455 S
C328 C327 1.387 . S
C328 C331 1.387 . S
H329 C325 0.950 1_655 S
H330 C327 0.950 1_655 S
C331 C322 1.390 . S
C331 H324 0.950 . S
C331 C328 1.387 . S
C332 C333 1.387 1_556 S
C332 H336 0.950 . S
C332 C341 1.390 1_556 S
C333 C332 1.387 1_554 S
C333 C335 1.387 1_545 S
H334 C341 0.950 1_556 S
C335 C333 1.387 1_565 S
C335 C337 1.390 . S
C335 H339 0.950 . S
H336 C332 0.950 . S
C337 C335 1.390 . S
C337 C338 1.387 1_565 S
C337 H340 0.950 . S
C338 C337 1.387 1_545 S
C338 C341 1.387 . S
H339 C335 0.950 . S
H340 C337 0.950 . S
C341 C332 1.390 1_554 S
C341 H334 0.950 1_554 S
C341 C338 1.387 . S
C342 C343 1.387 . S
C342 H346 0.950 . S
C342 C351 1.390 . S
C343 C342 1.387 . S
C343 C345 1.387 . S
H344 C351 0.950 . S
C345 C343 1.387 . S
C345 C347 1.390 . S
C345 H349 0.950 . S
H346 C342 0.950 . S
C347 C345 1.390 . S
C347 C348 1.387 . S
C347 H350 0.950 . S
C348 C347 1.387 . S
C348 C351 1.387 . S
H349 C345 0.950 . S
H350 C347 0.950 . S
C351 C342 1.390 . S
C351 H344 0.950 . S
C351 C348 1.387 . S
C352 C353 1.387 . S
C352 H356 0.950 . S
C352 C361 1.390 . S
C353 C352 1.387 . S
C353 C355 1.387 . S
H354 C361 0.950 . S
C355 C353 1.387 . S
C355 C357 1.390 . S
C355 H359 0.950 . S
H356 C352 0.950 . S
C357 C355 1.390 . S
C357 C358 1.387 . S
C357 H360 0.950 . S
C358 C357 1.387 . S
C358 C361 1.387 . S
H359 C355 0.950 . S
H360 C357 0.950 . S
C361 C352 1.390 . S
C361 H354 0.950 . S
C361 C358 1.387 . S
C362 C363 1.387 . S
C362 H366 0.950 . S
C362 C371 1.390 . S
C363 C362 1.387 . S
C363 C365 1.387 . S
H364 C371 0.950 . S
C365 C363 1.387 . S
C365 C367 1.390 . S
C365 H369 0.950 . S
H366 C362 0.950 . S
C367 C365 1.390 . S
C367 C368 1.387 . S
C367 H370 0.950 . S
C368 C367 1.387 . S
C368 C371 1.387 . S
H369 C365 0.950 . S
H370 C367 0.950 . S
C371 C362 1.390 . S
C371 H364 0.950 . S
C371 C368 1.387 . S
C372 C373 1.387 . S
C372 H376 0.950 . S
C372 C381 1.390 . S
C373 C372 1.387 . S
C373 C375 1.387 1_655 S
H374 C381 0.950 1_554 S
C375 C373 1.387 1_455 S
C375 C377 1.390 . S
C375 H379 0.950 . S
H376 C372 0.950 . S
C377 C375 1.390 . S
C377 C378 1.387 . S
C377 H380 0.950 . S
C378 C377 1.387 . S
C378 C381 1.387 1_455 S
H379 C375 0.950 . S
H380 C377 0.950 . S
C381 C372 1.390 . S
C381 H374 0.950 1_556 S
C381 C378 1.387 1_655 S
C382 C383 1.387 . S
C382 H386 0.950 . S
C382 C391 1.390 . S
C383 C382 1.387 . S
C383 C385 1.387 . S
H384 C391 0.950 . S
C385 C383 1.387 . S
C385 C387 1.390 . S
C385 H389 0.950 . S
H386 C382 0.950 . S
C387 C385 1.390 . S
C387 C388 1.387 . S
C387 H390 0.950 . S
C388 C387 1.387 . S
C388 C391 1.387 . S
H389 C385 0.950 . S
H390 C387 0.950 . S
C391 C382 1.390 . S
C391 H384 0.950 . S
C391 C388 1.387 . S
C392 C393 1.387 . S
C392 H396 0.950 . S
C392 C401 1.390 . S
C393 C392 1.387 . S
C393 C395 1.387 . S
H394 C401 0.950 . S
C395 C393 1.387 . S
C395 C397 1.390 . S
C395 H399 0.950 . S
H396 C392 0.950 . S
C397 C395 1.390 . S
C397 C398 1.387 . S
C397 H400 0.950 . S
C398 C397 1.387 . S
C398 C401 1.387 . S
H399 C395 0.950 . S
H400 C397 0.950 . S
C401 C392 1.390 . S
C401 H394 0.950 . S
C401 C398 1.387 . S
C402 C403 1.387 . S
C402 H406 0.950 . S
C402 C411 1.390 . S
C403 C402 1.387 . S
C403 C405 1.387 . S
H404 C411 0.950 . S
C405 C403 1.387 . S
C405 C407 1.390 . S
C405 H409 0.950 . S
H406 C402 0.950 . S
C407 C405 1.390 . S
C407 C408 1.387 . S
C407 H410 0.950 . S
C408 C407 1.387 . S
C408 C411 1.387 . S
H409 C405 0.950 . S
H410 C407 0.950 . S
C411 C402 1.390 . S
C411 H404 0.950 . S
C411 C408 1.387 . S
C173 C6 1.683 . S
C178 C91 1.549 . S
C183 C20 1.775 . S
C188 C125 1.649 . S
C198 C137 1.171 . S
C193 N26 1.216 . S
C203 N37 1.402 . S
C208 C171 1.291 . S
C218 C128 1.740 . S
C213 C9 1.872 . S
C228 C108 1.322 . S
C223 N15 1.374 . S
C238 C155 1.302 . S
C233 C31 1.455 . S
C248 C146 1.407 . S
C243 C39 1.464 . S
C253 N4 1.573 . S
C258 C154 1.486 . S
C268 C116 1.506 1_556 S
C263 C28 1.598 . S
C273 C42 1.348 . S
C278 C92 1.251 . S
C283 C17 1.634 . S
C288 C149 1.533 . S
C298 C107 1.756 . S
C293 C50 1.837 . S
C303 C61 1.631 . S
C308 C129 1.528 . S
C313 N70 1.514 . S
C318 C134 1.420 . S
C323 N81 1.387 . S
C328 C167 1.365 . S
C333 N48 1.482 1_545 S
C338 C112 1.432 1_545 S
C348 C104 1.736 . S
C343 C64 1.850 . S
C358 C158 1.480 . S
C353 C75 1.495 . S
C368 C150 1.389 . S
C363 C86 1.511 . S
C373 C53 1.785 . S
C378 C170 1.678 . S
C388 C113 1.327 . S
C383 C72 1.409 . S
C398 C95 1.533 . S
C393 C83 1.637 . S
C403 N59 1.579 . S
C408 C133 1.509 . S
