# Generated by pormake.
# Topology cml, (3,6)-cn, num edge types: 1
# Building blocks:
#     Node 0, Type 0, BuildingBlock: VETTIZ_charged_linker_0, # of connection points: 3
#     Node 1, Type 0, BuildingBlock: VETTIZ_charged_linker_0, # of connection points: 3
#     Node 2, Type 0, BuildingBlock: VETTIZ_charged_linker_0, # of connection points: 3
#     Node 3, Type 0, BuildingBlock: VETTIZ_charged_linker_0, # of connection points: 3
#     Node 4, Type 0, BuildingBlock: VETTIZ_charged_linker_0, # of connection points: 3
#     Node 5, Type 0, BuildingBlock: VETTIZ_charged_linker_0, # of connection points: 3
#     Node 6, Type 0, BuildingBlock: VETTIZ_charged_linker_0, # of connection points: 3
#     Node 7, Type 0, BuildingBlock: VETTIZ_charged_linker_0, # of connection points: 3
#     Node 8, Type 1, BuildingBlock: OJICUG_clean_sbu_0, # of connection points: 6
#     Node 9, Type 1, BuildingBlock: OJICUG_clean_sbu_0, # of connection points: 6
#     Node 10, Type 1, BuildingBlock: OJICUG_clean_sbu_0, # of connection points: 6
#     Node 11, Type 1, BuildingBlock: OJICUG_clean_sbu_0, # of connection points: 6
#     Edge 12, Type (0, 1), None
#     Edge 13, Type (0, 1), None
#     Edge 14, Type (0, 1), None
#     Edge 15, Type (0, 1), None
#     Edge 16, Type (0, 1), None
#     Edge 17, Type (0, 1), None
#     Edge 18, Type (0, 1), None
#     Edge 19, Type (0, 1), None
#     Edge 20, Type (0, 1), None
#     Edge 21, Type (0, 1), None
#     Edge 22, Type (0, 1), None
#     Edge 23, Type (0, 1), None
#     Edge 24, Type (0, 1), None
#     Edge 25, Type (0, 1), None
#     Edge 26, Type (0, 1), None
#     Edge 27, Type (0, 1), None
#     Edge 28, Type (0, 1), None
#     Edge 29, Type (0, 1), None
#     Edge 30, Type (0, 1), None
#     Edge 31, Type (0, 1), None
#     Edge 32, Type (0, 1), None
#     Edge 33, Type (0, 1), None
#     Edge 34, Type (0, 1), None
#     Edge 35, Type (0, 1), None
# Relax obj value: 0.076
# Max RMSD: 0.088
# Mean RMSD: 0.083
data_MOF--net-cml--node1-OJICUG_clean_sbu_0--node2-VETTIZ_charged_linker_0--edge1-none
_symmetry_space_group_name_H-M    P1
_symmetry_Int_Tables_number       1
_symmetry_cell_setting            triclinic
loop_
_symmetry_equiv_pos_as_xyz
'x, y, z'
_cell_length_a     25.811353
_cell_length_b     26.268705
_cell_length_c     25.027605
_cell_angle_alpha  90.089789
_cell_angle_beta   90.226893
_cell_angle_gamma 90.14443
loop_
_atom_site_label
_atom_site_type_symbol
_atom_site_fract_x
_atom_site_fract_y
_atom_site_fract_z
_atom_type_partial_charge
C0 C 0.35111 0.28817 0.1534 0.0
C1 C 0.40371 0.28894 0.16816 0.0
C2 C 0.44094 0.30595 0.13125 0.0
C3 C 0.37289 0.33088 0.07063 0.0
C4 C 0.33689 0.30771 0.10322 0.0
C5 C 0.28393 0.30691 0.07763 0.0
H6 H 0.13582 0.35585 0.85964 0.0
C7 C 0.34568 0.35332 0.02485 0.0
C8 C 0.29409 0.33725 0.02672 0.0
H9 H 0.10099 0.26387 -0.00124 0.0
H10 H 0.18041 0.28923 0.03967 0.0
H11 H 0.18419 0.45202 0.94279 0.0
H12 H 0.25805 0.33564 0.84695 0.0
H13 H 0.28648 0.3962 0.8359 0.0
H14 H 0.21988 0.38565 0.81769 0.0
H15 H 0.18307 0.45406 0.87107 0.0
H16 H 0.23754 0.47788 0.90885 0.0
C17 C 0.2458 0.33503 0.11495 0.0
C18 C 0.26901 0.2506 0.06598 0.0
C19 C 0.42836 0.50361 0.93313 0.0
C20 C 0.41264 0.5357 0.89167 0.0
C21 C 0.367 0.52428 0.86294 0.0
C22 C 0.33586 0.48244 0.87759 0.0
C23 C 0.35104 0.45175 0.92098 0.0
C24 C 0.39757 0.46178 0.94671 0.0
C25 C 0.41047 0.423 0.98858 0.0
C26 C 0.36117 0.39121 0.98798 0.0
C27 C 0.32628 0.40802 0.94841 0.0
C28 C 0.41888 0.45079 0.04254 0.0
C29 C 0.45858 0.39233 0.9699 0.0
C30 C 0.14539 0.34141 0.89894 0.0
C31 C 0.1121 0.30671 0.92509 0.0
C32 C 0.12555 0.29004 0.97699 0.0
C33 C 0.17226 0.30424 0.0008 0.0
C34 C 0.20627 0.33609 0.97319 0.0
C35 C 0.19206 0.35621 0.92429 0.0
C36 C 0.23242 0.3935 0.90435 0.0
C37 C 0.27534 0.3868 0.94592 0.0
C38 C 0.25922 0.35291 0.98599 0.0
C39 C 0.20834 0.44732 0.90639 0.0
C40 C 0.25019 0.37725 0.84803 0.0
H41 H 0.45536 0.34108 0.05666 0.0
H42 H 0.32196 0.27399 0.18064 0.0
H43 H 0.30298 0.22469 0.06841 0.0
H44 H 0.25374 0.24532 0.0249 0.0
H45 H 0.23988 0.23632 0.0949 0.0
H46 H 0.26338 0.37105 0.12998 0.0
H47 H 0.23586 0.31117 0.15007 0.0
H48 H 0.20955 0.34613 0.09451 0.0
H49 H 0.46451 0.51065 0.95406 0.0
H50 H 0.35512 0.54813 0.82983 0.0
H51 H 0.30146 0.47527 0.85452 0.0
H52 H 0.38441 0.47413 0.05276 0.0
H53 H 0.45312 0.47641 0.04073 0.0
H54 H 0.42574 0.42443 0.07601 0.0
H55 H 0.47066 0.40217 0.92855 0.0
H56 H 0.45066 0.35077 0.96899 0.0
H57 H 0.49267 0.39962 0.99611 0.0
H58 H 0.48173 0.30606 0.14151 0.0
C59 C 0.42573 0.32706 0.08254 0.0
C60 C 0.85374 0.65512 0.39829 0.0
C61 C 0.88753 0.68836 0.42621 0.0
C62 C 0.87679 0.69958 0.4803 0.0
C63 C 0.7967 0.65249 0.47539 0.0
C64 C 0.80865 0.63721 0.42401 0.0
C65 C 0.76747 0.60179 0.40175 0.0
H66 H 0.53354 0.48642 0.44418 0.0
C67 C 0.74442 0.63422 0.48847 0.0
C68 C 0.7265 0.60431 0.44549 0.0
H69 H 0.63991 0.45437 0.31621 0.0
H70 H 0.69617 0.52383 0.34625 0.0
H71 H 0.61483 0.50595 0.54131 0.0
H72 H 0.53322 0.5992 0.42962 0.0
H73 H 0.55377 0.64303 0.47878 0.0
H74 H 0.50993 0.59194 0.4962 0.0
H75 H 0.54579 0.51245 0.53359 0.0
H76 H 0.58127 0.55578 0.57426 0.0
C77 C 0.79149 0.54813 0.39703 0.0
C78 C 0.74715 0.62312 0.34821 0.0
C79 C 0.6575 0.68896 0.66257 0.0
C80 C 0.60512 0.68797 0.67782 0.0
C81 C 0.56734 0.67096 0.64122 0.0
C82 C 0.58147 0.65137 0.59174 0.0
C83 C 0.63391 0.64904 0.57829 0.0
C84 C 0.6707 0.67074 0.61148 0.0
C85 C 0.72283 0.67342 0.58455 0.0
C86 C 0.7112 0.64624 0.53178 0.0
C87 C 0.65961 0.63026 0.53002 0.0
C88 C 0.7622 0.64329 0.61879 0.0
C89 C 0.73714 0.73042 0.57659 0.0
C90 C 0.56934 0.49403 0.4231 0.0
C91 C 0.58342 0.46433 0.37921 0.0
C92 C 0.62893 0.47653 0.35089 0.0
C93 C 0.66169 0.51624 0.36876 0.0
C94 C 0.6483 0.54389 0.41498 0.0
C95 C 0.60183 0.53334 0.4401 0.0
C96 C 0.59153 0.56751 0.4867 0.0
C97 C 0.64217 0.59687 0.48931 0.0
C98 C 0.67538 0.58351 0.4471 0.0
C99 C 0.58281 0.53391 0.53677 0.0
C100 C 0.5447 0.60212 0.47242 0.0
H101 H 0.82541 0.69322 0.54536 0.0
H102 H 0.86129 0.6447 0.35719 0.0
H103 H 0.73844 0.66441 0.35211 0.0
H104 H 0.71085 0.60456 0.33511 0.0
H105 H 0.77639 0.61845 0.31613 0.0
H106 H 0.81743 0.54012 0.43161 0.0
H107 H 0.81491 0.54471 0.36005 0.0
H108 H 0.76227 0.51748 0.39761 0.0
H109 H 0.687 0.70375 0.68933 0.0
H110 H 0.52668 0.67117 0.65152 0.0
H111 H 0.5511 0.63788 0.56628 0.0
H112 H 0.74516 0.60643 0.63185 0.0
H113 H 0.77327 0.66508 0.65519 0.0
H114 H 0.79772 0.63345 0.59663 0.0
H115 H 0.70292 0.75579 0.58077 0.0
H116 H 0.75187 0.73825 0.53592 0.0
H117 H 0.76643 0.74329 0.60634 0.0
H118 H 0.90225 0.72384 0.50365 0.0
C119 C 0.83174 0.6821 0.50473 0.0
C120 C 0.66552 0.55055 0.91844 0.0
C121 C 0.62923 0.58255 0.94368 0.0
C122 C 0.62288 0.57919 -0.00053 0.0
C123 C 0.67778 0.50506 0.00151 0.0
C124 C 0.69 0.51239 0.94848 0.0
C125 C 0.72793 0.47293 0.92885 0.0
H126 H 0.84596 0.24619 0.9717 0.0
C127 C 0.6994 0.45597 0.01845 0.0
C128 C 0.72984 0.43718 0.97676 0.0
H129 H 0.87877 0.35743 0.84874 0.0
H130 H 0.81164 0.41182 0.8832 0.0
H131 H 0.83387 0.32446 0.07084 0.0
H132 H 0.71985 0.25931 0.96395 0.0
H133 H 0.69104 0.26568 0.027 0.0
H134 H 0.74595 0.22387 0.01899 0.0
H135 H 0.82001 0.25743 0.067 0.0
H136 H 0.78127 0.2989 0.10742 0.0
C137 C 0.78081 0.49947 0.91883 0.0
C138 C 0.70511 0.44629 0.87883 0.0
C139 C 0.61471 0.37154 0.17558 0.0
C140 C 0.61033 0.32072 0.19202 0.0
C141 C 0.64378 0.28409 0.16978 0.0
C142 C 0.67866 0.29794 0.12897 0.0
C143 C 0.6794 0.34862 0.11031 0.0
C144 C 0.64783 0.38428 0.13415 0.0
C145 C 0.64945 0.43523 0.10746 0.0
C146 C 0.68605 0.42412 0.06189 0.0
C147 C 0.70462 0.37394 0.06432 0.0
C148 C 0.67368 0.47372 0.14741 0.0
C149 C 0.59368 0.44937 0.08817 0.0
C150 C 0.83854 0.2821 0.95194 0.0
C151 C 0.86821 0.29761 0.90769 0.0
C152 C 0.85695 0.34463 0.88309 0.0
C153 C 0.8182 0.3764 0.90323 0.0
C154 C 0.79023 0.36112 0.94833 0.0
C155 C 0.80017 0.31455 0.97183 0.0
C156 C 0.7668 0.30548 0.02019 0.0
C157 C 0.73891 0.35613 0.02429 0.0
C158 C 0.75186 0.38791 0.98121 0.0
C159 C 0.80211 0.29578 0.06916 0.0
C160 C 0.72904 0.26112 0.0074 0.0
H161 H 0.63863 0.5382 0.07024 0.0
H162 H 0.67254 0.55348 0.87593 0.0
H163 H 0.66461 0.43374 0.88644 0.0
H164 H 0.72704 0.412 0.86729 0.0
H165 H 0.70469 0.47251 0.84406 0.0
H166 H 0.7827 0.53811 0.93705 0.0
H167 H 0.78841 0.50406 0.87544 0.0
H168 H 0.81343 0.47827 0.93719 0.0
H169 H 0.59035 0.40098 0.19249 0.0
H170 H 0.64149 0.24471 0.1823 0.0
H171 H 0.70265 0.26856 0.11247 0.0
H172 H 0.70611 0.45603 0.17012 0.0
H173 H 0.64452 0.4869 0.17686 0.0
H174 H 0.69097 0.50714 0.12737 0.0
H175 H 0.56538 0.4178 0.09353 0.0
H176 H 0.59198 0.45766 0.04482 0.0
H177 H 0.57812 0.48257 0.11038 0.0
H178 H 0.59619 0.60396 0.02029 0.0
C179 C 0.64697 0.54054 0.02846 0.0
C180 C 0.15144 0.67191 0.40849 0.0
C181 C 0.13034 0.7176 0.42807 0.0
C182 C 0.15356 0.74101 0.4731 0.0
C183 C 0.21497 0.67211 0.48035 0.0
C184 C 0.19358 0.64986 0.43522 0.0
C185 C 0.22054 0.60107 0.42043 0.0
H186 H 0.39593 0.42077 0.48791 0.0
C187 C 0.25457 0.63751 0.50185 0.0
C188 C 0.25725 0.59515 0.46758 0.0
H189 H 0.32277 0.44272 0.33427 0.0
H190 H 0.2715 0.51192 0.37085 0.0
H191 H 0.42127 0.54048 0.50042 0.0
H192 H 0.30801 0.43854 0.56445 0.0
H193 H 0.30759 0.49016 0.60953 0.0
H194 H 0.36581 0.45293 0.60117 0.0
H195 H 0.43331 0.48589 0.54183 0.0
H196 H 0.41957 0.54611 0.57075 0.0
C197 C 0.24997 0.60951 0.36717 0.0
C198 C 0.18023 0.55748 0.41806 0.0
C199 C 0.36648 0.6833 0.66421 0.0
C200 C 0.39998 0.65262 0.69505 0.0
C201 C 0.39748 0.59919 0.68908 0.0
C202 C 0.36797 0.577 0.64887 0.0
C203 C 0.34084 0.60823 0.61368 0.0
C204 C 0.33629 0.6597 0.62394 0.0
C205 C 0.29653 0.6836 0.5872 0.0
C206 C 0.28451 0.63907 0.54957 0.0
C207 C 0.31241 0.59585 0.56472 0.0
C208 C 0.32183 0.72845 0.55711 0.0
C209 C 0.24881 0.69928 0.62101 0.0
C210 C 0.36786 0.43954 0.46244 0.0
C211 C 0.36299 0.42615 0.40844 0.0
C212 C 0.32705 0.45241 0.37614 0.0
C213 C 0.29791 0.49285 0.39721 0.0
C214 C 0.30619 0.50811 0.45049 0.0
C215 C 0.34076 0.48146 0.48202 0.0
C216 C 0.35066 0.5067 0.53491 0.0
C217 C 0.31647 0.55348 0.52982 0.0
C218 C 0.28994 0.55366 0.48081 0.0
C219 C 0.40916 0.5206 0.53757 0.0
C220 C 0.33238 0.47034 0.57997 0.0
H221 H 0.21166 0.73785 0.53328 0.0
H222 H 0.1353 0.65346 0.37345 0.0
H223 H 0.15591 0.55754 0.45465 0.0
H224 H 0.19836 0.51953 0.41568 0.0
H225 H 0.15419 0.56188 0.38293 0.0
H226 H 0.25552 0.65064 0.35822 0.0
H227 H 0.22865 0.59252 0.33283 0.0
H228 H 0.28969 0.59362 0.36843 0.0
H229 H 0.36536 0.72414 0.66984 0.0
H230 H 0.42025 0.57422 0.71432 0.0
H231 H 0.36912 0.53644 0.64525 0.0
H232 H 0.35882 0.71624 0.53845 0.0
H233 H 0.33047 0.76043 0.58487 0.0
H234 H 0.29686 0.74306 0.52464 0.0
H235 H 0.24988 0.68271 0.66188 0.0
H236 H 0.21201 0.68533 0.60319 0.0
H237 H 0.24651 0.74127 0.6258 0.0
H238 H 0.13869 0.77651 0.4888 0.0
C239 C 0.19567 0.71848 0.49927 0.0
C240 C 0.85111 0.78817 0.1534 0.0
C241 C 0.90371 0.78894 0.16816 0.0
C242 C 0.94094 0.80595 0.13125 0.0
C243 C 0.87289 0.83088 0.07063 0.0
C244 C 0.83689 0.80771 0.10322 0.0
C245 C 0.78393 0.80691 0.07763 0.0
H246 H 0.63582 0.85585 0.85964 0.0
C247 C 0.84568 0.85332 0.02485 0.0
C248 C 0.79409 0.83725 0.02672 0.0
H249 H 0.60099 0.76387 -0.00124 0.0
H250 H 0.68041 0.78923 0.03967 0.0
H251 H 0.68419 0.95202 0.94279 0.0
H252 H 0.75805 0.83564 0.84695 0.0
H253 H 0.78648 0.8962 0.8359 0.0
H254 H 0.71988 0.88564 0.81769 0.0
H255 H 0.68307 0.95406 0.87107 0.0
H256 H 0.73754 0.97788 0.90885 0.0
C257 C 0.7458 0.83503 0.11495 0.0
C258 C 0.76901 0.7506 0.06598 0.0
C259 C 0.92836 0.00361 0.93313 0.0
C260 C 0.91264 0.0357 0.89167 0.0
C261 C 0.867 0.02428 0.86294 0.0
C262 C 0.83586 0.98244 0.87759 0.0
C263 C 0.85104 0.95175 0.92098 0.0
C264 C 0.89757 0.96178 0.94671 0.0
C265 C 0.91047 0.923 0.98858 0.0
C266 C 0.86117 0.89121 0.98798 0.0
C267 C 0.82628 0.90802 0.94841 0.0
C268 C 0.91888 0.95079 0.04254 0.0
C269 C 0.95858 0.89233 0.9699 0.0
C270 C 0.64539 0.84141 0.89894 0.0
C271 C 0.6121 0.80671 0.92509 0.0
C272 C 0.62555 0.79004 0.97699 0.0
C273 C 0.67226 0.80424 0.0008 0.0
C274 C 0.70627 0.83609 0.97319 0.0
C275 C 0.69206 0.85621 0.92429 0.0
C276 C 0.73242 0.8935 0.90435 0.0
C277 C 0.77534 0.8868 0.94592 0.0
C278 C 0.75922 0.85291 0.98599 0.0
C279 C 0.70834 0.94732 0.90639 0.0
C280 C 0.75019 0.87725 0.84803 0.0
H281 H 0.95536 0.84108 0.05666 0.0
H282 H 0.82196 0.77399 0.18064 0.0
H283 H 0.80298 0.72469 0.06841 0.0
H284 H 0.75374 0.74532 0.0249 0.0
H285 H 0.73988 0.73632 0.0949 0.0
H286 H 0.76338 0.87105 0.12998 0.0
H287 H 0.73586 0.81117 0.15007 0.0
H288 H 0.70955 0.84613 0.09451 0.0
H289 H 0.96451 0.01065 0.95406 0.0
H290 H 0.85512 0.04813 0.82983 0.0
H291 H 0.80146 0.97527 0.85452 0.0
H292 H 0.88441 0.97413 0.05276 0.0
H293 H 0.95312 0.97641 0.04073 0.0
H294 H 0.92574 0.92443 0.07601 0.0
H295 H 0.97066 0.90217 0.92855 0.0
H296 H 0.95066 0.85077 0.96899 0.0
H297 H 0.99267 0.89962 0.99611 0.0
H298 H 0.98173 0.80606 0.14151 0.0
C299 C 0.92573 0.82706 0.08254 0.0
C300 C 0.35374 0.15512 0.39829 0.0
C301 C 0.38753 0.18836 0.42621 0.0
C302 C 0.37679 0.19958 0.4803 0.0
C303 C 0.2967 0.15249 0.47539 0.0
C304 C 0.30865 0.13721 0.42401 0.0
C305 C 0.26747 0.10179 0.40175 0.0
H306 H 0.03354 0.98642 0.44418 0.0
C307 C 0.24442 0.13422 0.48847 0.0
C308 C 0.2265 0.10431 0.44549 0.0
H309 H 0.13991 0.95437 0.31621 0.0
H310 H 0.19617 0.02383 0.34625 0.0
H311 H 0.11483 0.00595 0.54131 0.0
H312 H 0.03322 0.0992 0.42962 0.0
H313 H 0.05377 0.14303 0.47878 0.0
H314 H 0.00993 0.09194 0.4962 0.0
H315 H 0.04579 0.01245 0.53359 0.0
H316 H 0.08127 0.05578 0.57426 0.0
C317 C 0.29149 0.04813 0.39703 0.0
C318 C 0.24715 0.12312 0.34821 0.0
C319 C 0.1575 0.18896 0.66257 0.0
C320 C 0.10512 0.18797 0.67782 0.0
C321 C 0.06734 0.17096 0.64122 0.0
C322 C 0.08147 0.15137 0.59174 0.0
C323 C 0.13391 0.14904 0.57829 0.0
C324 C 0.1707 0.17074 0.61148 0.0
C325 C 0.22283 0.17342 0.58455 0.0
C326 C 0.2112 0.14624 0.53178 0.0
C327 C 0.15961 0.13026 0.53002 0.0
C328 C 0.2622 0.14329 0.61879 0.0
C329 C 0.23714 0.23042 0.57659 0.0
C330 C 0.06934 0.99403 0.4231 0.0
C331 C 0.08342 0.96433 0.37921 0.0
C332 C 0.12893 0.97653 0.35089 0.0
C333 C 0.16169 0.01624 0.36876 0.0
C334 C 0.1483 0.04389 0.41498 0.0
C335 C 0.10183 0.03334 0.4401 0.0
C336 C 0.09153 0.06751 0.4867 0.0
C337 C 0.14217 0.09687 0.48931 0.0
C338 C 0.17538 0.08351 0.4471 0.0
C339 C 0.08281 0.03391 0.53677 0.0
C340 C 0.0447 0.10212 0.47242 0.0
H341 H 0.32541 0.19322 0.54536 0.0
H342 H 0.36129 0.1447 0.35719 0.0
H343 H 0.23844 0.16441 0.35211 0.0
H344 H 0.21085 0.10456 0.33511 0.0
H345 H 0.27639 0.11845 0.31613 0.0
H346 H 0.31743 0.04012 0.43161 0.0
H347 H 0.31491 0.04471 0.36005 0.0
H348 H 0.26227 0.01748 0.39761 0.0
H349 H 0.187 0.20375 0.68933 0.0
H350 H 0.02668 0.17117 0.65152 0.0
H351 H 0.0511 0.13788 0.56628 0.0
H352 H 0.24516 0.10643 0.63185 0.0
H353 H 0.27327 0.16507 0.65519 0.0
H354 H 0.29772 0.13345 0.59663 0.0
H355 H 0.20292 0.25579 0.58078 0.0
H356 H 0.25187 0.23825 0.53592 0.0
H357 H 0.26643 0.24329 0.60634 0.0
H358 H 0.40225 0.22384 0.50365 0.0
C359 C 0.33174 0.1821 0.50473 0.0
C360 C 0.16552 0.05055 0.91844 0.0
C361 C 0.12923 0.08255 0.94368 0.0
C362 C 0.12288 0.07919 -0.00053 0.0
C363 C 0.17778 0.00506 0.00151 0.0
C364 C 0.19 0.01239 0.94848 0.0
C365 C 0.22793 0.97293 0.92885 0.0
H366 H 0.34596 0.74619 0.9717 0.0
C367 C 0.1994 0.95597 0.01845 0.0
C368 C 0.22984 0.93718 0.97676 0.0
H369 H 0.37877 0.85743 0.84874 0.0
H370 H 0.31164 0.91182 0.8832 0.0
H371 H 0.33387 0.82446 0.07084 0.0
H372 H 0.21985 0.75931 0.96395 0.0
H373 H 0.19104 0.76568 0.027 0.0
H374 H 0.24595 0.72387 0.01899 0.0
H375 H 0.32001 0.75743 0.067 0.0
H376 H 0.28127 0.7989 0.10742 0.0
C377 C 0.28081 -0.00053 0.91883 0.0
C378 C 0.20511 0.94629 0.87883 0.0
C379 C 0.11471 0.87154 0.17558 0.0
C380 C 0.11033 0.82072 0.19202 0.0
C381 C 0.14378 0.78409 0.16978 0.0
C382 C 0.17866 0.79794 0.12897 0.0
C383 C 0.1794 0.84862 0.11031 0.0
C384 C 0.14783 0.88428 0.13415 0.0
C385 C 0.14945 0.93523 0.10746 0.0
C386 C 0.18605 0.92412 0.06189 0.0
C387 C 0.20462 0.87394 0.06432 0.0
C388 C 0.17368 0.97372 0.14741 0.0
C389 C 0.09368 0.94937 0.08817 0.0
C390 C 0.33854 0.7821 0.95194 0.0
C391 C 0.36821 0.79761 0.90769 0.0
C392 C 0.35695 0.84463 0.88309 0.0
C393 C 0.3182 0.8764 0.90323 0.0
C394 C 0.29023 0.86112 0.94833 0.0
C395 C 0.30017 0.81455 0.97183 0.0
C396 C 0.2668 0.80548 0.02019 0.0
C397 C 0.23891 0.85613 0.02429 0.0
C398 C 0.25186 0.88792 0.98121 0.0
C399 C 0.30211 0.79578 0.06916 0.0
C400 C 0.22904 0.76112 0.0074 0.0
H401 H 0.13863 0.0382 0.07024 0.0
H402 H 0.17254 0.05348 0.87593 0.0
H403 H 0.16461 0.93374 0.88644 0.0
H404 H 0.22704 0.912 0.86729 0.0
H405 H 0.20469 0.97251 0.84406 0.0
H406 H 0.2827 0.03811 0.93704 0.0
H407 H 0.28841 0.00406 0.87544 0.0
H408 H 0.31343 0.97827 0.93719 0.0
H409 H 0.09035 0.90098 0.19249 0.0
H410 H 0.14149 0.74471 0.1823 0.0
H411 H 0.20265 0.76856 0.11247 0.0
H412 H 0.20611 0.95603 0.17012 0.0
H413 H 0.14452 0.9869 0.17686 0.0
H414 H 0.19097 0.00714 0.12737 0.0
H415 H 0.06538 0.9178 0.09353 0.0
H416 H 0.09198 0.95766 0.04482 0.0
H417 H 0.07812 0.98257 0.11038 0.0
H418 H 0.09619 0.10396 0.02029 0.0
C419 C 0.14697 0.04054 0.02846 0.0
C420 C 0.65144 0.17191 0.40849 0.0
C421 C 0.63034 0.2176 0.42807 0.0
C422 C 0.65356 0.24101 0.4731 0.0
C423 C 0.71497 0.17211 0.48035 0.0
C424 C 0.69358 0.14986 0.43522 0.0
C425 C 0.72054 0.10107 0.42043 0.0
H426 H 0.89593 0.92077 0.48791 0.0
C427 C 0.75457 0.13751 0.50185 0.0
C428 C 0.75725 0.09515 0.46758 0.0
H429 H 0.82277 0.94272 0.33427 0.0
H430 H 0.7715 0.01192 0.37085 0.0
H431 H 0.92127 0.04048 0.50042 0.0
H432 H 0.80801 0.93854 0.56445 0.0
H433 H 0.80759 0.99016 0.60953 0.0
H434 H 0.86581 0.95293 0.60117 0.0
H435 H 0.93331 0.98589 0.54183 0.0
H436 H 0.91957 0.04611 0.57075 0.0
C437 C 0.74997 0.10951 0.36717 0.0
C438 C 0.68023 0.05748 0.41806 0.0
C439 C 0.86648 0.1833 0.66421 0.0
C440 C 0.89998 0.15262 0.69505 0.0
C441 C 0.89748 0.09919 0.68908 0.0
C442 C 0.86797 0.077 0.64887 0.0
C443 C 0.84084 0.10823 0.61368 0.0
C444 C 0.83629 0.1597 0.62394 0.0
C445 C 0.79653 0.1836 0.5872 0.0
C446 C 0.78451 0.13907 0.54957 0.0
C447 C 0.81241 0.09585 0.56472 0.0
C448 C 0.82183 0.22845 0.55711 0.0
C449 C 0.74881 0.19928 0.62101 0.0
C450 C 0.86786 0.93954 0.46244 0.0
C451 C 0.86299 0.92615 0.40844 0.0
C452 C 0.82705 0.95241 0.37614 0.0
C453 C 0.79791 0.99285 0.39721 0.0
C454 C 0.80619 0.00811 0.45049 0.0
C455 C 0.84076 0.98146 0.48202 0.0
C456 C 0.85066 0.0067 0.53491 0.0
C457 C 0.81647 0.05348 0.52982 0.0
C458 C 0.78994 0.05366 0.48081 0.0
C459 C 0.90916 0.0206 0.53757 0.0
C460 C 0.83238 0.97034 0.57997 0.0
H461 H 0.71166 0.23785 0.53328 0.0
H462 H 0.6353 0.15346 0.37345 0.0
H463 H 0.65591 0.05754 0.45465 0.0
H464 H 0.69836 0.01953 0.41568 0.0
H465 H 0.65419 0.06188 0.38293 0.0
H466 H 0.75552 0.15064 0.35822 0.0
H467 H 0.72865 0.09252 0.33283 0.0
H468 H 0.78969 0.09362 0.36843 0.0
H469 H 0.86536 0.22414 0.66984 0.0
H470 H 0.92025 0.07422 0.71432 0.0
H471 H 0.86912 0.03644 0.64525 0.0
H472 H 0.85882 0.21624 0.53845 0.0
H473 H 0.83047 0.26043 0.58487 0.0
H474 H 0.79686 0.24306 0.52464 0.0
H475 H 0.74988 0.18271 0.66188 0.0
H476 H 0.71201 0.18533 0.60319 0.0
H477 H 0.74651 0.24127 0.6258 0.0
H478 H 0.63869 0.27651 0.4888 0.0
C479 C 0.69567 0.21848 0.49927 0.0
Sc480 Sc 0.00524 0.73862 0.3041 0.0
Sc481 Sc 0.97441 0.86598 0.2863 0.0
Sc482 Sc 0.99558 0.82006 0.4136 0.0
O483 O 0.99232 0.80855 0.33505 0.0
C484 C 0.93087 0.71595 0.39967 0.0
C485 C 0.92011 0.78308 0.22394 0.0
C486 C 0.90159 0.89125 0.3853 0.0
C487 C 0.06762 0.80798 0.22879 0.0
C488 C 0.08404 0.74065 0.40268 0.0
C489 C 0.0509 0.9199 0.36592 0.0
O490 O 0.94038 0.709 0.35003 0.0
O491 O 0.91237 0.82135 0.25352 0.0
O492 O 0.92245 0.85864 0.41595 0.0
O493 O 0.0696 0.76883 0.25883 0.0
O494 O 0.06929 0.7838 0.41929 0.0
O495 O 0.03557 0.91363 0.31799 0.0
O496 O 0.0595 0.7162 0.36655 0.0
O497 O 0.02933 0.83861 0.2286 0.0
O498 O 0.03619 0.89173 0.40454 0.0
O499 O 0.95643 0.75185 0.23407 0.0
O500 O 0.95442 0.74953 0.42783 0.0
O501 O 0.91841 0.90056 0.33871 0.0
Sc502 Sc 0.99852 0.25253 0.79983 0.0
Sc503 Sc 0.03136 0.12511 0.80203 0.0
Sc504 Sc 0.994 0.18544 0.9192 0.0
O505 O 0.00746 0.18713 0.84083 0.0
C506 C 0.06625 0.283 0.89855 0.0
C507 C 0.08795 0.20011 0.73217 0.0
C508 C 0.09218 0.11312 0.91211 0.0
C509 C 0.94077 0.17291 0.73095 0.0
C510 C 0.91249 0.26662 0.88907 0.0
C511 C 0.94526 0.07984 0.87849 0.0
O512 O 0.06125 0.28462 0.84758 0.0
O513 O 0.095 0.16624 0.76728 0.0
O514 O 0.06471 0.14568 0.93661 0.0
O515 O 0.93668 0.21617 0.75418 0.0
O516 O 0.9213 0.2241 0.91103 0.0
O517 O 0.96946 0.07931 0.83432 0.0
O518 O 0.94238 0.28498 0.85381 0.0
O519 O 0.9799 0.14382 0.73728 0.0
O520 O 0.95208 0.11388 0.91428 0.0
O521 O 0.05065 0.2312 0.7361 0.0
O522 O 0.03649 0.25638 0.92844 0.0
O523 O 0.08373 0.10038 0.86386 0.0
Sc524 Sc 0.50524 0.23862 0.3041 0.0
Sc525 Sc 0.47441 0.36598 0.2863 0.0
Sc526 Sc 0.49558 0.32006 0.4136 0.0
O527 O 0.49232 0.30855 0.33505 0.0
C528 C 0.43087 0.21595 0.39967 0.0
C529 C 0.42011 0.28308 0.22394 0.0
C530 C 0.40159 0.39125 0.3853 0.0
C531 C 0.56762 0.30798 0.22879 0.0
C532 C 0.58404 0.24065 0.40268 0.0
C533 C 0.5509 0.4199 0.36592 0.0
O534 O 0.44038 0.209 0.35003 0.0
O535 O 0.41237 0.32135 0.25352 0.0
O536 O 0.42245 0.35864 0.41595 0.0
O537 O 0.5696 0.26883 0.25883 0.0
O538 O 0.56929 0.2838 0.41929 0.0
O539 O 0.53557 0.41363 0.31799 0.0
O540 O 0.5595 0.2162 0.36655 0.0
O541 O 0.52933 0.33861 0.22859 0.0
O542 O 0.53619 0.39173 0.40454 0.0
O543 O 0.45643 0.25185 0.23407 0.0
O544 O 0.45442 0.24953 0.42783 0.0
O545 O 0.41841 0.40056 0.33871 0.0
Sc546 Sc 0.49852 0.75253 0.79983 0.0
Sc547 Sc 0.53136 0.62511 0.80203 0.0
Sc548 Sc 0.494 0.68544 0.9192 0.0
O549 O 0.50746 0.68713 0.84083 0.0
C550 C 0.56625 0.783 0.89855 0.0
C551 C 0.58795 0.70011 0.73217 0.0
C552 C 0.59218 0.61312 0.91211 0.0
C553 C 0.44077 0.67291 0.73095 0.0
C554 C 0.41249 0.76662 0.88907 0.0
C555 C 0.44526 0.57984 0.87849 0.0
O556 O 0.56125 0.78462 0.84758 0.0
O557 O 0.595 0.66624 0.76728 0.0
O558 O 0.56471 0.64568 0.93661 0.0
O559 O 0.43668 0.71617 0.75418 0.0
O560 O 0.4213 0.7241 0.91103 0.0
O561 O 0.46946 0.57931 0.83432 0.0
O562 O 0.44238 0.78498 0.85381 0.0
O563 O 0.4799 0.64382 0.73728 0.0
O564 O 0.45208 0.61388 0.91428 0.0
O565 O 0.55065 0.7312 0.7361 0.0
O566 O 0.53649 0.75638 0.92844 0.0
O567 O 0.58373 0.60038 0.86386 0.0
loop_
_geom_bond_atom_site_label_1
_geom_bond_atom_site_label_2
_geom_bond_distance
_geom_bond_site_symmetry_2
_ccdc_geom_bond_type
C0 C1 1.391 . S
C0 C4 1.391 . S
C0 H42 0.948 . S
C1 C0 1.391 . S
C1 C2 1.391 . S
C2 C1 1.391 . S
C2 H58 0.947 . S
C2 C59 1.392 . S
C3 C4 1.391 . S
C3 C7 1.397 . S
C3 C59 1.419 . S
C4 C0 1.391 . S
C4 C3 1.391 . S
C4 C5 1.399 . S
C5 C4 1.399 . S
C5 C8 1.396 . S
C5 C17 1.453 . S
C5 C18 1.684 . S
H6 C30 0.948 . S
C7 C3 1.397 . S
C7 C8 1.394 . S
C7 C26 1.723 . S
C8 C5 1.396 . S
C8 C7 1.394 . S
C8 C38 1.723 1_554 S
H9 C32 0.949 . S
H10 C33 0.948 . S
H11 C39 0.982 . S
H12 C40 0.979 . S
H13 C40 0.980 . S
H14 C40 0.983 . S
H15 C39 0.979 . S
H16 C39 0.977 . S
C17 C5 1.453 . S
C17 H46 0.982 . S
C17 H47 0.979 . S
C17 H48 0.977 . S
C18 C5 1.684 . S
C18 H43 0.979 . S
C18 H44 0.980 . S
C18 H45 0.983 . S
C19 C20 1.391 . S
C19 C24 1.391 . S
C19 H49 0.948 . S
C20 C19 1.391 . S
C20 C21 1.391 . S
C21 C20 1.391 . S
C21 C22 1.392 . S
C21 H50 0.947 . S
C22 C21 1.392 . S
C22 C23 1.419 . S
C22 H51 0.948 . S
C23 C22 1.419 . S
C23 C24 1.391 . S
C23 C27 1.397 . S
C24 C19 1.391 . S
C24 C23 1.391 . S
C24 C25 1.399 1_556 S
C25 C24 1.399 1_554 S
C25 C26 1.396 . S
C25 C28 1.453 . S
C25 C29 1.684 . S
C26 C7 1.723 . S
C26 C25 1.396 . S
C26 C27 1.394 1_554 S
C27 C23 1.397 . S
C27 C26 1.394 1_556 S
C27 C37 1.723 . S
C28 C25 1.453 . S
C28 H52 0.982 . S
C28 H53 0.979 . S
C28 H54 0.977 . S
C29 C25 1.684 . S
C29 H55 0.986 . S
C29 H56 0.980 . S
C29 H57 0.983 . S
C30 H6 0.948 . S
C30 C31 1.391 . S
C30 C35 1.391 . S
C31 C30 1.391 . S
C31 C32 1.391 . S
C32 H9 0.949 . S
C32 C31 1.391 . S
C32 C33 1.392 1_556 S
C33 H10 0.948 . S
C33 C32 1.392 1_554 S
C33 C34 1.419 1_554 S
C34 C33 1.419 1_556 S
C34 C35 1.391 . S
C34 C38 1.397 . S
C35 C30 1.391 . S
C35 C34 1.391 . S
C35 C36 1.399 . S
C36 C35 1.399 . S
C36 C37 1.396 . S
C36 C39 1.453 . S
C36 C40 1.684 . S
C37 C27 1.723 . S
C37 C36 1.396 . S
C37 C38 1.394 . S
C38 C8 1.723 1_556 S
C38 C34 1.397 . S
C38 C37 1.394 . S
C39 H11 0.982 . S
C39 H15 0.979 . S
C39 H16 0.977 . S
C39 C36 1.453 . S
C40 H12 0.979 . S
C40 H13 0.980 . S
C40 H14 0.983 . S
C40 C36 1.684 . S
H41 C59 0.948 . S
H42 C0 0.948 . S
H43 C18 0.979 . S
H44 C18 0.980 . S
H45 C18 0.983 . S
H46 C17 0.982 . S
H47 C17 0.979 . S
H48 C17 0.977 . S
H49 C19 0.948 . S
H50 C21 0.947 . S
H51 C22 0.948 . S
H52 C28 0.982 . S
H53 C28 0.979 . S
H54 C28 0.977 . S
H55 C29 0.986 . S
H56 C29 0.980 . S
H57 C29 0.983 . S
H58 C2 0.947 . S
C59 C2 1.392 . S
C59 C3 1.419 . S
C59 H41 0.948 . S
C60 C61 1.391 . S
C60 C64 1.391 . S
C60 H102 0.948 . S
C61 C60 1.391 . S
C61 C62 1.391 . S
C62 C61 1.391 . S
C62 H118 0.947 . S
C62 C119 1.392 . S
C63 C64 1.391 . S
C63 C67 1.397 . S
C63 C119 1.419 . S
C64 C60 1.391 . S
C64 C63 1.391 . S
C64 C65 1.399 . S
C65 C64 1.399 . S
C65 C68 1.396 . S
C65 C77 1.453 . S
C65 C78 1.684 . S
H66 C90 0.948 . S
C67 C63 1.397 . S
C67 C68 1.394 . S
C67 C86 1.723 . S
C68 C65 1.396 . S
C68 C67 1.394 . S
C68 C98 1.723 . S
H69 C92 0.947 . S
H70 C93 0.948 . S
H71 C99 0.982 . S
H72 C100 0.979 . S
H73 C100 0.980 . S
H74 C100 0.983 . S
H75 C99 0.979 . S
H76 C99 0.977 . S
C77 C65 1.453 . S
C77 H106 0.982 . S
C77 H107 0.979 . S
C77 H108 0.977 . S
C78 C65 1.684 . S
C78 H103 0.979 . S
C78 H104 0.980 . S
C78 H105 0.983 . S
C79 C80 1.391 . S
C79 C84 1.391 . S
C79 H109 0.948 . S
C80 C79 1.391 . S
C80 C81 1.391 . S
C81 C80 1.391 . S
C81 C82 1.392 . S
C81 H110 0.947 . S
C82 C81 1.392 . S
C82 C83 1.419 . S
C82 H111 0.948 . S
C83 C82 1.419 . S
C83 C84 1.391 . S
C83 C87 1.397 . S
C84 C79 1.391 . S
C84 C83 1.391 . S
C84 C85 1.399 . S
C85 C84 1.399 . S
C85 C86 1.396 . S
C85 C88 1.453 . S
C85 C89 1.684 . S
C86 C67 1.723 . S
C86 C85 1.396 . S
C86 C87 1.394 . S
C87 C83 1.397 . S
C87 C86 1.394 . S
C87 C97 1.723 . S
C88 C85 1.453 . S
C88 H112 0.982 . S
C88 H113 0.979 . S
C88 H114 0.977 . S
C89 C85 1.684 . S
C89 H115 0.979 . S
C89 H116 0.980 . S
C89 H117 0.983 . S
C90 H66 0.948 . S
C90 C91 1.391 . S
C90 C95 1.391 . S
C91 C90 1.391 . S
C91 C92 1.391 . S
C92 H69 0.947 . S
C92 C91 1.391 . S
C92 C93 1.392 . S
C93 H70 0.948 . S
C93 C92 1.392 . S
C93 C94 1.419 . S
C94 C93 1.419 . S
C94 C95 1.391 . S
C94 C98 1.397 . S
C95 C90 1.391 . S
C95 C94 1.391 . S
C95 C96 1.399 . S
C96 C95 1.399 . S
C96 C97 1.396 . S
C96 C99 1.453 . S
C96 C100 1.684 . S
C97 C87 1.723 . S
C97 C96 1.396 . S
C97 C98 1.394 . S
C98 C68 1.723 . S
C98 C94 1.397 . S
C98 C97 1.394 . S
C99 H71 0.982 . S
C99 H75 0.979 . S
C99 H76 0.977 . S
C99 C96 1.453 . S
C100 H72 0.979 . S
C100 H73 0.980 . S
C100 H74 0.983 . S
C100 C96 1.684 . S
H101 C119 0.948 . S
H102 C60 0.948 . S
H103 C78 0.979 . S
H104 C78 0.980 . S
H105 C78 0.983 . S
H106 C77 0.982 . S
H107 C77 0.979 . S
H108 C77 0.977 . S
H109 C79 0.948 . S
H110 C81 0.947 . S
H111 C82 0.948 . S
H112 C88 0.982 . S
H113 C88 0.979 . S
H114 C88 0.977 . S
H115 C89 0.979 . S
H116 C89 0.980 . S
H117 C89 0.983 . S
H118 C62 0.947 . S
C119 C62 1.392 . S
C119 C63 1.419 . S
C119 H101 0.948 . S
C120 C121 1.391 . S
C120 C124 1.391 . S
C120 H162 0.948 . S
C121 C120 1.391 . S
C121 C122 1.391 . S
C122 C121 1.391 . S
C122 H178 0.947 . S
C122 C179 1.392 . S
C123 C124 1.391 . S
C123 C127 1.397 . S
C123 C179 1.419 . S
C124 C120 1.391 . S
C124 C123 1.391 . S
C124 C125 1.399 . S
C125 C124 1.399 . S
C125 C128 1.396 . S
C125 C137 1.453 . S
C125 C138 1.684 . S
H126 C150 0.948 . S
C127 C123 1.397 . S
C127 C128 1.394 . S
C127 C146 1.723 1_556 S
C128 C125 1.396 . S
C128 C127 1.394 . S
C128 C158 1.723 . S
H129 C152 0.947 . S
H130 C153 0.948 . S
H131 C159 0.982 . S
H132 C160 0.979 . S
H133 C160 0.980 . S
H134 C160 0.983 . S
H135 C159 0.979 . S
H136 C159 0.977 . S
C137 C125 1.453 . S
C137 H166 0.982 . S
C137 H167 0.979 . S
C137 H168 0.977 . S
C138 C125 1.684 . S
C138 H163 0.979 . S
C138 H164 0.980 . S
C138 H165 0.983 . S
C139 C140 1.391 . S
C139 C144 1.391 . S
C139 H169 0.948 . S
C140 C139 1.391 . S
C140 C141 1.391 . S
C141 C140 1.391 . S
C141 C142 1.392 . S
C141 H170 0.947 . S
C142 C141 1.392 . S
C142 C143 1.419 . S
C142 H171 0.948 . S
C143 C142 1.419 . S
C143 C144 1.391 . S
C143 C147 1.397 . S
C144 C139 1.391 . S
C144 C143 1.391 . S
C144 C145 1.399 . S
C145 C144 1.399 . S
C145 C146 1.396 . S
C145 C148 1.453 . S
C145 C149 1.684 . S
C146 C127 1.723 1_554 S
C146 C145 1.396 . S
C146 C147 1.394 . S
C147 C143 1.397 . S
C147 C146 1.394 . S
C147 C157 1.723 . S
C148 C145 1.453 . S
C148 H172 0.982 . S
C148 H173 0.979 . S
C148 H174 0.977 . S
C149 C145 1.684 . S
C149 H175 0.979 . S
C149 H176 0.980 . S
C149 H177 0.983 . S
C150 H126 0.948 . S
C150 C151 1.391 . S
C150 C155 1.391 . S
C151 C150 1.391 . S
C151 C152 1.391 . S
C152 H129 0.947 . S
C152 C151 1.391 . S
C152 C153 1.392 . S
C153 H130 0.948 . S
C153 C152 1.392 . S
C153 C154 1.419 . S
C154 C153 1.419 . S
C154 C155 1.391 . S
C154 C158 1.397 . S
C155 C150 1.391 . S
C155 C154 1.391 . S
C155 C156 1.399 1_556 S
C156 C155 1.399 1_554 S
C156 C157 1.396 . S
C156 C159 1.453 . S
C156 C160 1.684 . S
C157 C147 1.723 . S
C157 C156 1.396 . S
C157 C158 1.394 1_554 S
C158 C128 1.723 . S
C158 C154 1.397 . S
C158 C157 1.394 1_556 S
C159 H131 0.982 . S
C159 H135 0.979 . S
C159 H136 0.977 . S
C159 C156 1.453 . S
C160 H132 0.979 . S
C160 H133 0.980 . S
C160 H134 0.983 . S
C160 C156 1.684 . S
H161 C179 0.948 1_554 S
H162 C120 0.948 . S
H163 C138 0.979 . S
H164 C138 0.980 . S
H165 C138 0.983 . S
H166 C137 0.982 . S
H167 C137 0.979 . S
H168 C137 0.977 . S
H169 C139 0.948 . S
H170 C141 0.947 . S
H171 C142 0.948 . S
H172 C148 0.982 . S
H173 C148 0.979 . S
H174 C148 0.977 . S
H175 C149 0.979 . S
H176 C149 0.980 . S
H177 C149 0.983 . S
H178 C122 0.947 . S
C179 C122 1.392 . S
C179 C123 1.419 . S
C179 H161 0.948 1_556 S
C180 C181 1.391 . S
C180 C184 1.391 . S
C180 H222 0.948 . S
C181 C180 1.391 . S
C181 C182 1.391 . S
C182 C181 1.391 . S
C182 H238 0.947 . S
C182 C239 1.392 . S
C183 C184 1.391 . S
C183 C187 1.397 . S
C183 C239 1.419 . S
C184 C180 1.391 . S
C184 C183 1.391 . S
C184 C185 1.399 . S
C185 C184 1.399 . S
C185 C188 1.396 . S
C185 C197 1.453 . S
C185 C198 1.684 . S
H186 C210 0.948 . S
C187 C183 1.397 . S
C187 C188 1.394 . S
C187 C206 1.723 . S
C188 C185 1.396 . S
C188 C187 1.394 . S
C188 C218 1.723 . S
H189 C212 0.947 . S
H190 C213 0.948 . S
H191 C219 0.982 . S
H192 C220 0.979 . S
H193 C220 0.980 . S
H194 C220 0.983 . S
H195 C219 0.979 . S
H196 C219 0.977 . S
C197 C185 1.453 . S
C197 H226 0.982 . S
C197 H227 0.979 . S
C197 H228 0.977 . S
C198 C185 1.684 . S
C198 H223 0.979 . S
C198 H224 0.980 . S
C198 H225 0.983 . S
C199 C200 1.391 . S
C199 C204 1.391 . S
C199 H229 0.948 . S
C200 C199 1.391 . S
C200 C201 1.391 . S
C201 C200 1.391 . S
C201 C202 1.392 . S
C201 H230 0.947 . S
C202 C201 1.392 . S
C202 C203 1.419 . S
C202 H231 0.948 . S
C203 C202 1.419 . S
C203 C204 1.391 . S
C203 C207 1.397 . S
C204 C199 1.391 . S
C204 C203 1.391 . S
C204 C205 1.399 . S
C205 C204 1.399 . S
C205 C206 1.396 . S
C205 C208 1.453 . S
C205 C209 1.684 . S
C206 C187 1.723 . S
C206 C205 1.396 . S
C206 C207 1.394 . S
C207 C203 1.397 . S
C207 C206 1.394 . S
C207 C217 1.723 . S
C208 C205 1.453 . S
C208 H232 0.982 . S
C208 H233 0.979 . S
C208 H234 0.977 . S
C209 C205 1.684 . S
C209 H235 0.979 . S
C209 H236 0.980 . S
C209 H237 0.983 . S
C210 H186 0.948 . S
C210 C211 1.391 . S
C210 C215 1.391 . S
C211 C210 1.391 . S
C211 C212 1.391 . S
C212 H189 0.947 . S
C212 C211 1.391 . S
C212 C213 1.392 . S
C213 H190 0.948 . S
C213 C212 1.392 . S
C213 C214 1.419 . S
C214 C213 1.419 . S
C214 C215 1.391 . S
C214 C218 1.397 . S
C215 C210 1.391 . S
C215 C214 1.391 . S
C215 C216 1.399 . S
C216 C215 1.399 . S
C216 C217 1.396 . S
C216 C219 1.453 . S
C216 C220 1.684 . S
C217 C207 1.723 . S
C217 C216 1.396 . S
C217 C218 1.394 . S
C218 C188 1.723 . S
C218 C214 1.397 . S
C218 C217 1.394 . S
C219 H191 0.982 . S
C219 H195 0.979 . S
C219 H196 0.977 . S
C219 C216 1.453 . S
C220 H192 0.979 . S
C220 H193 0.980 . S
C220 H194 0.983 . S
C220 C216 1.684 . S
H221 C239 0.948 . S
H222 C180 0.948 . S
H223 C198 0.979 . S
H224 C198 0.980 . S
H225 C198 0.983 . S
H226 C197 0.982 . S
H227 C197 0.979 . S
H228 C197 0.977 . S
H229 C199 0.948 . S
H230 C201 0.947 . S
H231 C202 0.948 . S
H232 C208 0.982 . S
H233 C208 0.979 . S
H234 C208 0.977 . S
H235 C209 0.979 . S
H236 C209 0.980 . S
H237 C209 0.983 . S
H238 C182 0.947 . S
C239 C182 1.392 . S
C239 C183 1.419 . S
C239 H221 0.948 . S
C240 C241 1.391 . S
C240 C244 1.391 . S
C240 H282 0.948 . S
C241 C240 1.391 . S
C241 C242 1.391 . S
C242 C241 1.391 . S
C242 H298 0.947 . S
C242 C299 1.392 . S
C243 C244 1.391 . S
C243 C247 1.397 . S
C243 C299 1.419 . S
C244 C240 1.391 . S
C244 C243 1.391 . S
C244 C245 1.399 . S
C245 C244 1.399 . S
C245 C248 1.396 . S
C245 C257 1.453 . S
C245 C258 1.684 . S
H246 C270 0.948 . S
C247 C243 1.397 . S
C247 C248 1.394 . S
C247 C266 1.723 . S
C248 C245 1.396 . S
C248 C247 1.394 . S
C248 C278 1.723 1_554 S
H249 C272 0.949 . S
H250 C273 0.948 . S
H251 C279 0.982 . S
H252 C280 0.979 . S
H253 C280 0.980 . S
H254 C280 0.983 . S
H255 C279 0.979 . S
H256 C279 0.977 . S
C257 C245 1.453 . S
C257 H286 0.982 . S
C257 H287 0.979 . S
C257 H288 0.977 . S
C258 C245 1.684 . S
C258 H283 0.979 . S
C258 H284 0.980 . S
C258 H285 0.983 . S
C259 C260 1.391 . S
C259 C264 1.391 . S
C259 H289 0.948 . S
C260 C259 1.391 . S
C260 C261 1.391 . S
C261 C260 1.391 . S
C261 C262 1.389 1_545 S
C261 H290 0.947 . S
C262 C261 1.389 1_565 S
C262 C263 1.420 . S
C262 H291 0.950 . S
C263 C262 1.420 . S
C263 C264 1.391 1_565 S
C263 C267 1.397 . S
C264 C259 1.391 . S
C264 C263 1.391 1_545 S
C264 C265 1.399 1_546 S
C265 C264 1.399 1_564 S
C265 C266 1.396 . S
C265 C268 1.453 1_565 S
C265 C269 1.684 . S
C266 C247 1.723 . S
C266 C265 1.396 . S
C266 C267 1.394 1_554 S
C267 C263 1.397 . S
C267 C266 1.394 1_556 S
C267 C277 1.723 . S
C268 C265 1.453 1_545 S
C268 H292 0.982 . S
C268 H293 0.979 . S
C268 H294 0.977 1_545 S
C269 C265 1.684 . S
C269 H295 0.986 . S
C269 H296 0.980 . S
C269 H297 0.983 1_565 S
C270 H246 0.948 . S
C270 C271 1.391 . S
C270 C275 1.391 . S
C271 C270 1.391 . S
C271 C272 1.391 . S
C272 H249 0.949 . S
C272 C271 1.391 . S
C272 C273 1.392 1_556 S
C273 H250 0.948 . S
C273 C272 1.392 1_554 S
C273 C274 1.419 1_554 S
C274 C273 1.419 1_556 S
C274 C275 1.391 . S
C274 C278 1.397 . S
C275 C270 1.391 . S
C275 C274 1.391 . S
C275 C276 1.399 . S
C276 C275 1.399 . S
C276 C277 1.396 . S
C276 C279 1.453 . S
C276 C280 1.684 . S
C277 C267 1.723 . S
C277 C276 1.396 . S
C277 C278 1.394 . S
C278 C248 1.723 1_556 S
C278 C274 1.397 . S
C278 C277 1.394 . S
C279 H251 0.982 . S
C279 H255 0.979 . S
C279 H256 0.977 . S
C279 C276 1.453 . S
C280 H252 0.979 . S
C280 H253 0.980 . S
C280 H254 0.983 . S
C280 C276 1.684 . S
H281 C299 0.948 . S
H282 C240 0.948 . S
H283 C258 0.979 . S
H284 C258 0.980 . S
H285 C258 0.983 . S
H286 C257 0.982 . S
H287 C257 0.979 . S
H288 C257 0.977 . S
H289 C259 0.948 . S
H290 C261 0.947 . S
H291 C262 0.950 . S
H292 C268 0.982 . S
H293 C268 0.979 . S
H294 C268 0.977 1_565 S
H295 C269 0.986 . S
H296 C269 0.980 . S
H297 C269 0.983 1_545 S
H298 C242 0.947 . S
C299 C242 1.392 . S
C299 C243 1.419 . S
C299 H281 0.948 . S
C300 C301 1.391 . S
C300 C304 1.391 . S
C300 H342 0.948 . S
C301 C300 1.391 . S
C301 C302 1.391 . S
C302 C301 1.391 . S
C302 H358 0.947 . S
C302 C359 1.392 . S
C303 C304 1.391 . S
C303 C307 1.397 . S
C303 C359 1.419 . S
C304 C300 1.391 . S
C304 C303 1.391 . S
C304 C305 1.399 . S
C305 C304 1.399 . S
C305 C308 1.396 . S
C305 C317 1.453 . S
C305 C318 1.684 . S
H306 C330 0.948 . S
C307 C303 1.397 . S
C307 C308 1.394 . S
C307 C326 1.723 . S
C308 C305 1.396 . S
C308 C307 1.394 . S
C308 C338 1.723 . S
H309 C332 0.947 . S
H310 C333 0.950 . S
H311 C339 0.982 . S
H312 C340 0.979 . S
H313 C340 0.980 . S
H314 C340 0.983 1_565 S
H315 C339 0.979 . S
H316 C339 0.977 1_545 S
C317 C305 1.453 . S
C317 H346 0.982 . S
C317 H347 0.979 . S
C317 H348 0.977 . S
C318 C305 1.684 . S
C318 H343 0.979 . S
C318 H344 0.980 . S
C318 H345 0.983 . S
C319 C320 1.391 . S
C319 C324 1.391 . S
C319 H349 0.948 . S
C320 C319 1.391 . S
C320 C321 1.391 . S
C321 C320 1.391 . S
C321 C322 1.392 . S
C321 H350 0.947 . S
C322 C321 1.392 . S
C322 C323 1.419 . S
C322 H351 0.948 . S
C323 C322 1.419 . S
C323 C324 1.391 . S
C323 C327 1.397 . S
C324 C319 1.391 . S
C324 C323 1.391 . S
C324 C325 1.399 . S
C325 C324 1.399 . S
C325 C326 1.396 . S
C325 C328 1.453 . S
C325 C329 1.684 . S
C326 C307 1.723 . S
C326 C325 1.396 . S
C326 C327 1.394 . S
C327 C323 1.397 . S
C327 C326 1.394 . S
C327 C337 1.723 . S
C328 C325 1.453 . S
C328 H352 0.982 . S
C328 H353 0.979 . S
C328 H354 0.977 . S
C329 C325 1.684 . S
C329 H355 0.979 . S
C329 H356 0.980 . S
C329 H357 0.983 . S
C330 H306 0.948 . S
C330 C331 1.391 . S
C330 C335 1.391 . S
C331 C330 1.391 . S
C331 C332 1.391 . S
C332 H309 0.947 . S
C332 C331 1.391 . S
C332 C333 1.389 1_565 S
C333 H310 0.950 . S
C333 C332 1.389 1_545 S
C333 C334 1.420 . S
C334 C333 1.420 . S
C334 C335 1.391 1_545 S
C334 C338 1.397 . S
C335 C330 1.391 . S
C335 C334 1.391 1_565 S
C335 C336 1.399 1_565 S
C336 C335 1.399 1_545 S
C336 C337 1.396 . S
C336 C339 1.453 1_545 S
C336 C340 1.684 . S
C337 C327 1.723 . S
C337 C336 1.396 . S
C337 C338 1.394 . S
C338 C308 1.723 . S
C338 C334 1.397 . S
C338 C337 1.394 . S
C339 H311 0.982 . S
C339 H315 0.979 . S
C339 H316 0.977 1_565 S
C339 C336 1.453 1_565 S
C340 H312 0.979 . S
C340 H313 0.980 . S
C340 H314 0.983 1_545 S
C340 C336 1.684 . S
H341 C359 0.948 . S
H342 C300 0.948 . S
H343 C318 0.979 . S
H344 C318 0.980 . S
H345 C318 0.983 . S
H346 C317 0.982 . S
H347 C317 0.979 . S
H348 C317 0.977 . S
H349 C319 0.948 . S
H350 C321 0.947 . S
H351 C322 0.948 . S
H352 C328 0.982 . S
H353 C328 0.979 . S
H354 C328 0.977 . S
H355 C329 0.979 . S
H356 C329 0.980 . S
H357 C329 0.983 . S
H358 C302 0.947 . S
C359 C302 1.392 . S
C359 C303 1.419 . S
C359 H341 0.948 . S
C360 C361 1.391 . S
C360 C364 1.391 1_545 S
C360 H402 0.948 . S
C361 C360 1.391 . S
C361 C362 1.391 . S
C362 C361 1.391 . S
C362 H418 0.947 . S
C362 C419 1.392 . S
C363 C364 1.391 . S
C363 C367 1.397 . S
C363 C419 1.419 1_565 S
C364 C360 1.391 1_565 S
C364 C363 1.391 . S
C364 C365 1.399 . S
C365 C364 1.399 . S
C365 C368 1.396 . S
C365 C377 1.453 . S
C365 C378 1.684 . S
H366 C390 0.948 . S
C367 C363 1.397 . S
C367 C368 1.394 . S
C367 C386 1.723 1_556 S
C368 C365 1.396 . S
C368 C367 1.394 . S
C368 C398 1.723 . S
H369 C392 0.947 . S
H370 C393 0.948 . S
H371 C399 0.982 . S
H372 C400 0.979 . S
H373 C400 0.980 . S
H374 C400 0.983 . S
H375 C399 0.979 . S
H376 C399 0.977 . S
C377 C365 1.453 . S
C377 H406 0.982 1_565 S
C377 H407 0.979 1_565 S
C377 H408 0.977 . S
C378 C365 1.684 . S
C378 H403 0.979 . S
C378 H404 0.980 . S
C378 H405 0.983 . S
C379 C380 1.391 . S
C379 C384 1.391 . S
C379 H409 0.948 . S
C380 C379 1.391 . S
C380 C381 1.391 . S
C381 C380 1.391 . S
C381 C382 1.392 . S
C381 H410 0.947 . S
C382 C381 1.392 . S
C382 C383 1.419 . S
C382 H411 0.948 . S
C383 C382 1.419 . S
C383 C384 1.391 . S
C383 C387 1.397 . S
C384 C379 1.391 . S
C384 C383 1.391 . S
C384 C385 1.399 . S
C385 C384 1.399 . S
C385 C386 1.396 . S
C385 C388 1.453 . S
C385 C389 1.684 . S
C386 C367 1.723 1_554 S
C386 C385 1.396 . S
C386 C387 1.394 . S
C387 C383 1.397 . S
C387 C386 1.394 . S
C387 C397 1.723 . S
C388 C385 1.453 . S
C388 H412 0.982 . S
C388 H413 0.979 . S
C388 H414 0.977 1_565 S
C389 C385 1.684 . S
C389 H415 0.979 . S
C389 H416 0.980 . S
C389 H417 0.983 . S
C390 H366 0.948 . S
C390 C391 1.391 . S
C390 C395 1.391 . S
C391 C390 1.391 . S
C391 C392 1.391 . S
C392 H369 0.947 . S
C392 C391 1.391 . S
C392 C393 1.392 . S
C393 H370 0.948 . S
C393 C392 1.392 . S
C393 C394 1.419 . S
C394 C393 1.419 . S
C394 C395 1.391 . S
C394 C398 1.397 . S
C395 C390 1.391 . S
C395 C394 1.391 . S
C395 C396 1.399 1_556 S
C396 C395 1.399 1_554 S
C396 C397 1.396 . S
C396 C399 1.453 . S
C396 C400 1.684 . S
C397 C387 1.723 . S
C397 C396 1.396 . S
C397 C398 1.394 1_554 S
C398 C368 1.723 . S
C398 C394 1.397 . S
C398 C397 1.394 1_556 S
C399 H371 0.982 . S
C399 H375 0.979 . S
C399 H376 0.977 . S
C399 C396 1.453 . S
C400 H372 0.979 . S
C400 H373 0.980 . S
C400 H374 0.983 . S
C400 C396 1.684 . S
H401 C419 0.948 1_554 S
H402 C360 0.948 . S
H403 C378 0.979 . S
H404 C378 0.980 . S
H405 C378 0.983 . S
H406 C377 0.982 1_545 S
H407 C377 0.979 1_545 S
H408 C377 0.977 . S
H409 C379 0.948 . S
H410 C381 0.947 . S
H411 C382 0.948 . S
H412 C388 0.982 . S
H413 C388 0.979 . S
H414 C388 0.977 1_545 S
H415 C389 0.979 . S
H416 C389 0.980 . S
H417 C389 0.983 . S
H418 C362 0.947 . S
C419 C362 1.392 . S
C419 C363 1.419 1_545 S
C419 H401 0.948 1_556 S
C420 C421 1.391 . S
C420 C424 1.391 . S
C420 H462 0.948 . S
C421 C420 1.391 . S
C421 C422 1.391 . S
C422 C421 1.391 . S
C422 H478 0.947 . S
C422 C479 1.392 . S
C423 C424 1.391 . S
C423 C427 1.397 . S
C423 C479 1.419 . S
C424 C420 1.391 . S
C424 C423 1.391 . S
C424 C425 1.399 . S
C425 C424 1.399 . S
C425 C428 1.396 . S
C425 C437 1.453 . S
C425 C438 1.684 . S
H426 C450 0.948 . S
C427 C423 1.397 . S
C427 C428 1.394 . S
C427 C446 1.723 . S
C428 C425 1.396 . S
C428 C427 1.394 . S
C428 C458 1.723 . S
H429 C452 0.947 . S
H430 C453 0.948 1_545 S
H431 C459 0.982 . S
H432 C460 0.979 . S
H433 C460 0.980 . S
H434 C460 0.983 . S
H435 C459 0.979 1_565 S
H436 C459 0.977 . S
C437 C425 1.453 . S
C437 H466 0.982 . S
C437 H467 0.979 . S
C437 H468 0.977 . S
C438 C425 1.684 . S
C438 H463 0.979 . S
C438 H464 0.980 . S
C438 H465 0.983 . S
C439 C440 1.391 . S
C439 C444 1.391 . S
C439 H469 0.948 . S
C440 C439 1.391 . S
C440 C441 1.391 . S
C441 C440 1.391 . S
C441 C442 1.392 . S
C441 H470 0.947 . S
C442 C441 1.392 . S
C442 C443 1.419 . S
C442 H471 0.948 . S
C443 C442 1.419 . S
C443 C444 1.391 . S
C443 C447 1.397 . S
C444 C439 1.391 . S
C444 C443 1.391 . S
C444 C445 1.399 . S
C445 C444 1.399 . S
C445 C446 1.396 . S
C445 C448 1.453 . S
C445 C449 1.684 . S
C446 C427 1.723 . S
C446 C445 1.396 . S
C446 C447 1.394 . S
C447 C443 1.397 . S
C447 C446 1.394 . S
C447 C457 1.723 . S
C448 C445 1.453 . S
C448 H472 0.982 . S
C448 H473 0.979 . S
C448 H474 0.977 . S
C449 C445 1.684 . S
C449 H475 0.979 . S
C449 H476 0.980 . S
C449 H477 0.983 . S
C450 H426 0.948 . S
C450 C451 1.391 . S
C450 C455 1.391 . S
C451 C450 1.391 . S
C451 C452 1.391 . S
C452 H429 0.947 . S
C452 C451 1.391 . S
C452 C453 1.392 . S
C453 H430 0.948 1_565 S
C453 C452 1.392 . S
C453 C454 1.419 1_565 S
C454 C453 1.419 1_545 S
C454 C455 1.391 1_545 S
C454 C458 1.397 . S
C455 C450 1.391 . S
C455 C454 1.391 1_565 S
C455 C456 1.399 1_565 S
C456 C455 1.399 1_545 S
C456 C457 1.396 . S
C456 C459 1.453 . S
C456 C460 1.684 1_545 S
C457 C447 1.723 . S
C457 C456 1.396 . S
C457 C458 1.394 . S
C458 C428 1.723 . S
C458 C454 1.397 . S
C458 C457 1.394 . S
C459 H431 0.982 . S
C459 H435 0.979 1_545 S
C459 H436 0.977 . S
C459 C456 1.453 . S
C460 H432 0.979 . S
C460 H433 0.980 . S
C460 H434 0.983 . S
C460 C456 1.684 1_565 S
H461 C479 0.948 . S
H462 C420 0.948 . S
H463 C438 0.979 . S
H464 C438 0.980 . S
H465 C438 0.983 . S
H466 C437 0.982 . S
H467 C437 0.979 . S
H468 C437 0.977 . S
H469 C439 0.948 . S
H470 C441 0.947 . S
H471 C442 0.948 . S
H472 C448 0.982 . S
H473 C448 0.979 . S
H474 C448 0.977 . S
H475 C449 0.979 . S
H476 C449 0.980 . S
H477 C449 0.983 . S
H478 C422 0.947 . S
C479 C422 1.392 . S
C479 C423 1.419 . S
C479 H461 0.948 . S
Sc480 O483 2.025 . S
Sc480 O490 2.105 1_455 S
Sc480 O493 2.105 . S
Sc480 O496 2.105 . S
Sc480 O499 2.105 1_455 S
Sc481 O483 2.025 . S
Sc481 O491 2.105 1_455 S
Sc481 O495 2.105 . S
Sc481 O497 2.105 . S
Sc481 O501 2.105 1_455 S
Sc482 O483 2.025 . S
Sc482 O492 2.105 1_455 S
Sc482 O494 2.105 . S
Sc482 O498 2.105 . S
Sc482 O500 2.105 1_455 S
O483 Sc480 2.025 . S
O483 Sc481 2.025 . S
O483 Sc482 2.025 . S
C484 O490 1.268 . S
C484 O500 1.268 . S
C485 O491 1.268 . S
C485 O499 1.268 . S
C486 O492 1.268 . S
C486 O501 1.268 . S
C487 O493 1.268 . S
C487 O497 1.268 . S
C488 O494 1.268 . S
C488 O496 1.268 . S
C489 O495 1.268 . S
C489 O498 1.268 . S
O490 Sc480 2.105 1_655 S
O490 C484 1.268 . S
O491 Sc481 2.105 1_655 S
O491 C485 1.268 . S
O492 Sc482 2.105 1_655 S
O492 C486 1.268 . S
O493 Sc480 2.105 . S
O493 C487 1.268 . S
O494 Sc482 2.105 . S
O494 C488 1.268 . S
O495 Sc481 2.105 . S
O495 C489 1.268 . S
O496 Sc480 2.105 . S
O496 C488 1.268 . S
O497 Sc481 2.105 . S
O497 C487 1.268 . S
O498 Sc482 2.105 . S
O498 C489 1.268 . S
O499 Sc480 2.105 1_655 S
O499 C485 1.268 . S
O500 Sc482 2.105 1_655 S
O500 C484 1.268 . S
O501 Sc481 2.105 1_655 S
O501 C486 1.268 . S
Sc502 O505 2.025 . S
Sc502 O512 2.105 . S
Sc502 O515 2.105 1_455 S
Sc502 O518 2.105 1_455 S
Sc502 O521 2.105 . S
Sc503 O505 2.025 . S
Sc503 O513 2.105 . S
Sc503 O517 2.105 1_455 S
Sc503 O519 2.105 1_455 S
Sc503 O523 2.105 . S
Sc504 O505 2.025 . S
Sc504 O514 2.105 . S
Sc504 O516 2.105 1_455 S
Sc504 O520 2.105 1_455 S
Sc504 O522 2.105 . S
O505 Sc502 2.025 . S
O505 Sc503 2.025 . S
O505 Sc504 2.025 . S
C506 O512 1.268 . S
C506 O522 1.268 . S
C507 O513 1.268 . S
C507 O521 1.268 . S
C508 O514 1.268 . S
C508 O523 1.268 . S
C509 O515 1.268 . S
C509 O519 1.268 . S
C510 O516 1.268 . S
C510 O518 1.268 . S
C511 O517 1.268 . S
C511 O520 1.268 . S
O512 Sc502 2.105 . S
O512 C506 1.268 . S
O513 Sc503 2.105 . S
O513 C507 1.268 . S
O514 Sc504 2.105 . S
O514 C508 1.268 . S
O515 Sc502 2.105 1_655 S
O515 C509 1.268 . S
O516 Sc504 2.105 1_655 S
O516 C510 1.268 . S
O517 Sc503 2.105 1_655 S
O517 C511 1.268 . S
O518 Sc502 2.105 1_655 S
O518 C510 1.268 . S
O519 Sc503 2.105 1_655 S
O519 C509 1.268 . S
O520 Sc504 2.105 1_655 S
O520 C511 1.268 . S
O521 Sc502 2.105 . S
O521 C507 1.268 . S
O522 Sc504 2.105 . S
O522 C506 1.268 . S
O523 Sc503 2.105 . S
O523 C508 1.268 . S
Sc524 O527 2.025 . S
Sc524 O534 2.105 . S
Sc524 O537 2.105 . S
Sc524 O540 2.105 . S
Sc524 O543 2.105 . S
Sc525 O527 2.025 . S
Sc525 O535 2.105 . S
Sc525 O539 2.105 . S
Sc525 O541 2.105 . S
Sc525 O545 2.105 . S
Sc526 O527 2.025 . S
Sc526 O536 2.105 . S
Sc526 O538 2.105 . S
Sc526 O542 2.105 . S
Sc526 O544 2.105 . S
O527 Sc524 2.025 . S
O527 Sc525 2.025 . S
O527 Sc526 2.025 . S
C528 O534 1.268 . S
C528 O544 1.268 . S
C529 O535 1.268 . S
C529 O543 1.268 . S
C530 O536 1.268 . S
C530 O545 1.268 . S
C531 O537 1.268 . S
C531 O541 1.268 . S
C532 O538 1.268 . S
C532 O540 1.268 . S
C533 O539 1.268 . S
C533 O542 1.268 . S
O534 Sc524 2.105 . S
O534 C528 1.268 . S
O535 Sc525 2.105 . S
O535 C529 1.268 . S
O536 Sc526 2.105 . S
O536 C530 1.268 . S
O537 Sc524 2.105 . S
O537 C531 1.268 . S
O538 Sc526 2.105 . S
O538 C532 1.268 . S
O539 Sc525 2.105 . S
O539 C533 1.268 . S
O540 Sc524 2.105 . S
O540 C532 1.268 . S
O541 Sc525 2.105 . S
O541 C531 1.268 . S
O542 Sc526 2.105 . S
O542 C533 1.268 . S
O543 Sc524 2.105 . S
O543 C529 1.268 . S
O544 Sc526 2.105 . S
O544 C528 1.268 . S
O545 Sc525 2.105 . S
O545 C530 1.268 . S
Sc546 O549 2.025 . S
Sc546 O556 2.105 . S
Sc546 O559 2.105 . S
Sc546 O562 2.105 . S
Sc546 O565 2.105 . S
Sc547 O549 2.025 . S
Sc547 O557 2.105 . S
Sc547 O561 2.105 . S
Sc547 O563 2.105 . S
Sc547 O567 2.105 . S
Sc548 O549 2.025 . S
Sc548 O558 2.105 . S
Sc548 O560 2.105 . S
Sc548 O564 2.105 . S
Sc548 O566 2.105 . S
O549 Sc546 2.025 . S
O549 Sc547 2.025 . S
O549 Sc548 2.025 . S
C550 O556 1.268 . S
C550 O566 1.268 . S
C551 O557 1.268 . S
C551 O565 1.268 . S
C552 O558 1.268 . S
C552 O567 1.268 . S
C553 O559 1.268 . S
C553 O563 1.268 . S
C554 O560 1.268 . S
C554 O562 1.268 . S
C555 O561 1.268 . S
C555 O564 1.268 . S
O556 Sc546 2.105 . S
O556 C550 1.268 . S
O557 Sc547 2.105 . S
O557 C551 1.268 . S
O558 Sc548 2.105 . S
O558 C552 1.268 . S
O559 Sc546 2.105 . S
O559 C553 1.268 . S
O560 Sc548 2.105 . S
O560 C554 1.268 . S
O561 Sc547 2.105 . S
O561 C555 1.268 . S
O562 Sc546 2.105 . S
O562 C554 1.268 . S
O563 Sc547 2.105 . S
O563 C553 1.268 . S
O564 Sc548 2.105 . S
O564 C555 1.268 . S
O565 Sc546 2.105 . S
O565 C551 1.268 . S
O566 Sc548 2.105 . S
O566 C550 1.268 . S
O567 Sc547 2.105 . S
O567 C552 1.268 . S
C31 C506 1.703 . S
C484 C61 1.704 . S
C510 C151 1.569 . S
C488 C181 1.839 . S
C550 C271 1.704 . S
C528 C301 1.704 . S
C391 C554 1.568 . S
C532 C421 1.839 . S
C20 C555 2.090 . S
C533 C91 2.090 . S
C121 C552 1.794 . S
C211 C530 2.221 . S
C511 C260 2.091 . S
C331 C489 2.088 . S
C508 C361 1.792 . S
C486 C451 2.223 . S
C529 C1 1.837 . S
C551 C80 1.837 . S
C140 C531 2.056 . S
C553 C200 2.035 . S
C485 C241 1.839 . S
C320 C507 1.836 . S
C380 C487 2.054 . S
C440 C509 2.036 . S
